DiffSBDD_29
     RDKit          3D

  0  0  0  0  0  0  0  0  0  0999 V3000
M  V30 BEGIN CTAB
M  V30 COUNTS 78 81 0 0 1
M  V30 BEGIN ATOM
M  V30 1 C 38.503561 28.439627 56.817387 0 CFG=1
M  V30 2 C 39.767089 37.055093 62.428943 0
M  V30 3 C 38.490523 35.587436 60.773314 0
M  V30 4 C 38.526904 28.856748 53.202328 0
M  V30 5 C 39.808119 35.971052 61.335879 0 CFG=2
M  V30 6 C 37.925779 25.281220 57.153828 0
M  V30 7 C 38.860699 32.684987 62.567779 0
M  V30 8 C 37.214688 37.774416 61.178481 0
M  V30 9 N 39.268623 29.455503 60.465469 0
M  V30 10 O 40.168582 34.629675 61.904679 0
M  V30 11 C 40.012164 28.968139 50.811577 0
M  V30 12 C 37.174134 37.337591 62.651642 0
M  V30 13 C 39.648601 30.614885 63.687506 0
M  V30 14 N 40.859770 28.005695 59.828185 0
M  V30 15 N 38.447430 29.334401 55.643259 0 CFG=2 CHG=1
M  V30 16 C 38.516208 37.005959 63.335213 0
M  V30 17 C 38.680897 30.541429 61.281735 0
M  V30 18 C 40.508859 28.938377 60.702194 0
M  V30 19 N 39.147075 33.612786 61.498095 0
M  V30 20 C 39.245029 27.826267 51.109909 0
M  V30 21 C 39.476316 27.254437 56.564166 0
M  V30 22 C 38.919828 29.380552 57.968093 0 CFG=1
M  V30 23 C 37.926891 30.623696 56.136369 0
M  V30 24 C 38.501411 27.770142 52.303422 0
M  V30 25 C 37.574610 36.646732 60.183700 0
M  V30 26 C 39.306474 29.995898 52.906151 0
M  V30 27 C 38.433463 30.780278 57.565069 0
M  V30 28 O 41.245062 29.295625 61.610182 0
M  V30 29 C 39.517810 31.330053 62.327440 0 CFG=1
M  V30 30 C 37.703580 28.807041 54.472855 0
M  V30 31 C 39.259137 25.992313 57.423621 0
M  V30 32 C 38.212371 34.350188 60.896905 0
M  V30 33 O 36.112358 37.264950 63.265880 0
M  V30 34 C 38.418809 28.946378 59.369246 0
M  V30 35 C 40.045182 30.050505 51.710063 0
M  V30 36 H 37.493988 28.077224 57.008007 0
M  V30 37 H 39.853611 38.039794 61.969838 0
M  V30 38 H 40.662254 36.958036 63.044962 0
M  V30 39 H 40.545406 36.180714 60.567829 0
M  V30 40 H 37.869903 24.345542 57.710950 0
M  V30 41 H 37.070638 25.886557 57.453719 0
M  V30 42 H 37.814109 25.038396 56.096428 0
M  V30 43 H 39.245791 33.121072 63.488013 0
M  V30 44 H 37.782540 32.566037 62.684057 0
M  V30 45 H 37.930575 38.590878 61.085801 0
M  V30 46 H 36.246549 38.200025 60.911999 0
M  V30 47 H 40.570838 29.015615 49.891372 0
M  V30 48 H 38.683268 30.537401 64.168315 0
M  V30 49 H 40.046083 29.604233 63.631729 0
M  V30 50 H 40.301213 31.176177 64.357028 0
M  V30 51 H 40.226765 27.741487 59.091602 0
M  V30 52 H 41.766927 27.563246 59.908234 0
M  V30 53 H 38.650796 37.696562 64.168013 0
M  V30 54 H 38.442041 36.013781 63.772560 0
M  V30 55 H 37.793849 30.156050 61.779101 0
M  V30 56 H 38.308862 31.257747 60.549069 0
M  V30 57 H 39.220135 26.995494 50.418461 0
M  V30 58 H 39.406949 26.936492 55.523628 0
M  V30 59 H 40.506754 27.593738 56.677003 0
M  V30 60 H 40.007065 29.441110 57.942373 0
M  V30 61 H 36.845877 30.537924 56.167403 0
M  V30 62 H 38.178103 31.468781 55.494943 0
M  V30 63 H 37.904115 26.897313 52.524912 0
M  V30 64 H 38.044171 37.079385 59.301534 0
M  V30 65 H 36.657757 36.167249 59.834483 0
M  V30 66 H 39.328580 30.834110 53.586576 0
M  V30 67 H 37.635925 31.160282 58.206388 0
M  V30 68 H 39.249904 31.501840 57.610480 0
M  V30 69 H 40.513969 31.549618 61.942981 0
M  V30 70 H 37.366007 27.783917 54.648260 0
M  V30 71 H 36.808676 29.396809 54.288952 0
M  V30 72 H 40.063518 25.289487 57.203083 0
M  V30 73 H 39.352030 26.203587 58.485328 0
M  V30 74 H 37.296337 33.853885 60.607140 0
M  V30 75 H 38.354821 27.864290 59.450790 0
M  V30 76 H 37.387646 29.274579 59.508600 0
M  V30 77 H 40.633905 30.926799 51.479005 0
M  V30 78 H 39.401697 29.490017 55.351102 0
M  V30 END ATOM
M  V30 BEGIN BOND
M  V30 1 1 5 2
M  V30 2 1 5 3
M  V30 3 1 10 5
M  V30 4 1 12 8
M  V30 5 1 15 1
M  V30 6 1 16 2
M  V30 7 1 16 12
M  V30 8 1 17 9
M  V30 9 1 18 9
M  V30 10 1 18 14
M  V30 11 1 19 7
M  V30 12 1 19 10
M  V30 13 2 20 11
M  V30 14 1 21 1
M  V30 15 1 22 1
M  V30 16 1 23 15
M  V30 17 2 24 4
M  V30 18 1 24 20
M  V30 19 1 25 3
M  V30 20 1 25 8
M  V30 21 1 26 4
M  V30 22 1 27 22
M  V30 23 1 27 23
M  V30 24 2 28 18
M  V30 25 1 29 7
M  V30 26 1 29 13
M  V30 27 1 29 17
M  V30 28 1 30 4
M  V30 29 1 30 15
M  V30 30 1 31 6
M  V30 31 1 31 21
M  V30 32 2 32 3
M  V30 33 1 32 19
M  V30 34 2 33 12
M  V30 35 1 34 9
M  V30 36 1 34 22
M  V30 37 1 35 11
M  V30 38 2 35 26
M  V30 39 1 1 36 CFG=1
M  V30 40 1 37 2
M  V30 41 1 38 2
M  V30 42 1 5 39 CFG=3
M  V30 43 1 40 6
M  V30 44 1 41 6
M  V30 45 1 42 6
M  V30 46 1 43 7
M  V30 47 1 44 7
M  V30 48 1 45 8
M  V30 49 1 46 8
M  V30 50 1 47 11
M  V30 51 1 48 13
M  V30 52 1 49 13
M  V30 53 1 50 13
M  V30 54 1 51 14
M  V30 55 1 52 14
M  V30 56 1 53 16
M  V30 57 1 54 16
M  V30 58 1 55 17
M  V30 59 1 56 17
M  V30 60 1 57 20
M  V30 61 1 58 21
M  V30 62 1 59 21
M  V30 63 1 22 60 CFG=1
M  V30 64 1 61 23
M  V30 65 1 62 23
M  V30 66 1 63 24
M  V30 67 1 64 25
M  V30 68 1 65 25
M  V30 69 1 66 26
M  V30 70 1 67 27
M  V30 71 1 68 27
M  V30 72 1 29 69 CFG=3
M  V30 73 1 70 30
M  V30 74 1 71 30
M  V30 75 1 72 31
M  V30 76 1 73 31
M  V30 77 1 74 32
M  V30 78 1 75 34
M  V30 79 1 76 34
M  V30 80 1 77 35
M  V30 81 1 15 78 CFG=3
M  V30 END BOND
M  V30 END CTAB
M  END
>  <i_epik_Tot_Q>  (1) 
1

>  <i_epik_Tot_abs_Q>  (1) 
1

>  <i_i_glide_confnum>  (1) 
8

>  <i_i_glide_lignum>  (1) 
65

>  <i_i_glide_posenum>  (1) 
314

>  <i_i_glide_rotatable_bonds>  (1) 
11

>  <i_lp_mmshare_version>  (1) 
72125

>  <i_m_source_file_index>  (1) 
30

>  <i_f3d_flags>  (1) 
0

>  <num_sample>  (1) 
50

>  <b_lp_Chiralities_Consistent>  (1) 
1

>  <r_epik_Charging_Adjusted_Penalty>  (1) 
0.034972120206071468

>  <r_epik_Ionization_Penalty>  (1) 
0.01911812601903189

>  <r_epik_Ionization_Penalty_Charging>  (1) 
0.017486060103035727

>  <r_epik_Ionization_Penalty_Neutral>  (1) 
0.0016320659159961622

>  <r_epik_State_Penalty>  (1) 
0.017486060103035741

>  <r_glide_ring_energy>  (1) 
0

>  <r_i_docking_score>  (1) 
-9.7020279936176017

>  <r_i_glide_ecoul>  (1) 
-5.3980510324590369

>  <r_i_glide_eff_state_penalty>  (1) 
0.017486060103035741

>  <r_i_glide_einternal>  (1) 
10.804506783630362

>  <r_i_glide_emodel>  (1) 
-77.450792587107983

>  <r_i_glide_emodel_strain>  (1) 
1.8366269895277725

>  <r_i_glide_energy>  (1) 
-51.615646665998412

>  <r_i_glide_erotb>  (1) 
0.69426181123573816

>  <r_i_glide_esite>  (1) 
0

>  <r_i_glide_evdw>  (1) 
-46.217595633539375

>  <r_i_glide_gscore>  (1) 
-9.719514053720637

>  <r_i_glide_gscore_strain>  (1) 
0

>  <r_i_glide_hbond>  (1) 
-0.32000000000000001

>  <r_i_glide_ligand_efficiency>  (1) 
-0.27720079981764578

>  <r_i_glide_ligand_efficiency_ln>  (1) 
-2.1298104695089828

>  <r_i_glide_ligand_efficiency_sa>  (1) 
-0.90674219744083251

>  <r_i_glide_lipo>  (1) 
-5.1444034849160989

>  <r_i_glide_metal>  (1) 
-0

>  <r_i_glide_rewards>  (1) 
-1.8287849434944499

>  <r_lp_Energy>  (1) 
27.773861999999998

>  <r_lp_tautomer_probability>  (1) 
0.99999998000000001

>  <s_epik_Chemistry_Notes>  (1) 
This compound has a N-S or N-O group and may undergo hydrolysis at high or low pH.

>  <s_epik_cmdline>  (1) 
J2VwaWtfcHl0aG9uJywgJy1waHQnLCAnMS4wJywgJy1waCcsICc3LjQnLCAnLXRuJywgJzgnLCAnLW1hJywgJzUwMCcsICctaW1hZScsICc8aW5maWxlLm1hZT4nLCAnLW9tYWUnLCAnPG91dGZpbGUubWFlPic=

>  <s_epik_input>  (1) 
W2NIXTFbY0hdW2NIXVtjSF1bY0hdYzFbQ0gyXU4oW0NASF0yW0NIMl1bQ0gyXVtDSDNdKVtDSDJdW0NIMl1bQ0BIXTJbQ0gyXU4oQyg9TylbTkgyXSlbQ0gyXVtDQEhdKFtDSDNdKVtDSDJdTihbQ0hdMylPW0NAQEhdKEM9MzQpW0NIMl1bQ0gyXUMoPU8pW0NIMl1bQ0gyXTQ=

>  <s_glide_docking_method>  (1) 
confgen

>  <s_i_glide_gridfile>  (1) 
gpcr_5ht2c_6bqh_protein_autoprepared_prepared

>  <s_lp_Force_Field>  (1) 
S-OPLS

>  <s_lp_Variant>  (1) 
DiffSBDD_29-2

>  <s_m_source_file>  (1) 
generated_GPCR_5HT2C_ligand_DiffSBDD_2026-06-23_prepared.sdf

>  <GenAI_Model>  (1) 
DiffSBDD

>  <Protein>  (1) 
GPCR_5HT2C

$$$$
DiffSBDD_26
     RDKit          3D

  0  0  0  0  0  0  0  0  0  0999 V3000
M  V30 BEGIN CTAB
M  V30 COUNTS 84 87 0 0 1
M  V30 BEGIN ATOM
M  V30 1 C 38.650618 34.364015 60.063370 0
M  V30 2 C 40.334837 30.043534 50.296574 0
M  V30 3 C 38.399911 31.399048 54.432879 0
M  V30 4 C 38.237192 26.262726 54.882173 0
M  V30 5 N 38.309832 29.992293 54.817449 0
M  V30 6 O 40.529043 26.137758 54.165031 0
M  V30 7 C 38.773374 28.537036 51.790209 0
M  V30 8 C 38.475206 28.263322 53.278378 0 CFG=1
M  V30 9 N 36.622716 33.072628 59.220252 0 CFG=1 CHG=1
M  V30 10 N 38.338321 36.261034 61.674952 0
M  V30 11 C 39.054213 32.191717 55.581902 0
M  V30 12 C 40.564179 36.006761 62.882507 0
M  V30 13 C 41.767421 30.537755 50.256364 0
M  V30 14 C 38.845192 32.764664 58.088205 0
M  V30 15 C 39.694177 25.958914 55.043077 0
M  V30 16 O 37.645166 38.130812 60.575181 0
M  V30 17 C 38.212504 32.071685 56.863705 0
M  V30 18 C 38.252505 37.595596 61.500252 0
M  V30 19 C 39.121028 25.174131 57.273014 0
M  V30 20 C 37.832369 25.402731 57.104603 0
M  V30 21 C 37.377715 25.962363 55.885270 0
M  V30 22 C 39.057861 35.701571 62.826900 0
M  V30 23 O 37.645190 29.326699 53.733675 0
M  V30 24 C 35.667552 30.935417 60.094711 0
M  V30 25 C 36.580128 34.466515 61.397829 0
M  V30 26 C 37.786817 26.901106 53.569905 0
M  V30 27 C 37.395919 29.849835 55.938490 0
M  V30 28 C 36.548386 32.129912 60.321470 0 CFG=2
M  V30 29 C 37.970385 30.578966 57.153861 0
M  V30 30 C 40.096237 29.312494 51.630302 0
M  V30 31 C 35.911090 33.492516 60.440409 0 CFG=2
M  V30 32 C 37.921661 33.717805 58.859380 0 CFG=2
M  V30 33 C 39.478112 31.290920 50.142693 0
M  V30 34 C 37.676851 35.313894 60.751414 0 CFG=2
M  V30 35 O 42.444507 35.737733 64.220804 0
M  V30 36 O 41.027947 35.448920 64.100003 0
M  V30 37 N 40.044007 25.449017 56.266145 0
M  V30 38 H 39.543832 34.911833 59.767792 0
M  V30 39 H 39.014658 33.604579 60.755328 0
M  V30 40 H 40.160580 29.356548 49.467517 0
M  V30 41 H 37.410657 31.797232 54.204920 0
M  V30 42 H 38.997246 31.499673 53.528607 0
M  V30 43 H 41.018419 25.234058 56.452993 0
M  V30 44 H 38.850358 27.609719 51.222304 0
M  V30 45 H 37.937354 29.083444 51.368028 0
M  V30 46 H 39.440822 28.285030 53.781215 0
M  V30 47 H 39.153771 33.241026 55.302792 0
M  V30 48 H 40.063576 31.816301 55.755456 0
M  V30 49 H 40.759517 37.080410 62.872416 0
M  V30 50 H 41.087021 35.562235 62.034351 0
M  V30 51 H 41.884418 31.337673 50.972466 0
M  V30 52 H 42.445089 29.771123 50.590306 0
M  V30 53 H 42.057781 30.900039 49.270809 0
M  V30 54 H 39.704707 33.337778 57.751961 0
M  V30 55 H 39.245112 32.024734 58.780200 0
M  V30 56 H 37.264563 32.557473 56.634245 0
M  V30 57 H 38.797999 38.136057 62.287614 0
M  V30 58 H 39.552107 24.764650 58.167741 0
M  V30 59 H 37.130582 25.178218 57.896442 0
M  V30 60 H 36.328409 26.160498 55.764719 0
M  V30 61 H 38.946154 34.620155 62.866447 0
M  V30 62 H 38.588916 36.098490 63.729867 0
M  V30 63 H 35.059738 30.806313 60.988252 0
M  V30 64 H 35.019187 31.081071 59.229649 0
M  V30 65 H 36.261658 30.033428 59.947538 0
M  V30 66 H 37.016466 33.841993 62.167770 0
M  V30 67 H 35.836516 35.067080 61.909796 0
M  V30 68 H 36.706887 26.998281 53.505811 0
M  V30 69 H 38.072528 26.188445 52.808261 0
M  V30 70 H 36.411861 30.230555 55.673156 0
M  V30 71 H 37.279424 28.795243 56.170332 0
M  V30 72 H 37.512367 31.945789 60.790371 0
M  V30 73 H 38.904723 30.098229 57.448240 0
M  V30 74 H 37.283252 30.464915 57.986129 0
M  V30 75 H 40.213200 30.033812 52.437739 0
M  V30 76 H 40.898427 28.586878 51.767853 0
M  V30 77 H 34.852696 33.628917 60.226105 0
M  V30 78 H 37.644868 34.516893 58.169688 0
M  V30 79 H 39.641251 31.979398 50.966461 0
M  V30 80 H 39.662153 31.812942 49.204964 0
M  V30 81 H 38.445169 31.024914 50.167747 0
M  V30 82 H 37.187353 35.882571 59.958657 0
M  V30 83 H 42.421660 36.626560 64.568061 0
M  V30 84 H 36.044421 32.766582 58.438592 0
M  V30 END ATOM
M  V30 BEGIN BOND
M  V30 1 1 5 3
M  V30 2 1 8 7
M  V30 3 1 11 3
M  V30 4 1 13 2
M  V30 5 1 15 4
M  V30 6 2 15 6
M  V30 7 1 17 11
M  V30 8 1 17 14
M  V30 9 1 18 10
M  V30 10 2 18 16
M  V30 11 2 20 19
M  V30 12 2 21 4
M  V30 13 1 21 20
M  V30 14 1 22 10
M  V30 15 1 22 12
M  V30 16 1 23 5
M  V30 17 1 23 8
M  V30 18 1 26 4
M  V30 19 1 26 8
M  V30 20 1 27 5
M  V30 21 1 28 9
M  V30 22 1 28 24
M  V30 23 1 29 17
M  V30 24 1 29 27
M  V30 25 1 30 2
M  V30 26 1 30 7
M  V30 27 1 31 9
M  V30 28 1 31 25
M  V30 29 1 31 28
M  V30 30 1 32 1
M  V30 31 1 32 9
M  V30 32 1 32 14
M  V30 33 1 33 2
M  V30 34 1 34 1
M  V30 35 1 34 10
M  V30 36 1 34 25
M  V30 37 1 36 12
M  V30 38 1 36 35
M  V30 39 1 37 15
M  V30 40 1 37 19
M  V30 41 1 38 1
M  V30 42 1 39 1
M  V30 43 1 40 2
M  V30 44 1 41 3
M  V30 45 1 42 3
M  V30 46 1 43 37
M  V30 47 1 44 7
M  V30 48 1 45 7
M  V30 49 1 8 46 CFG=1
M  V30 50 1 47 11
M  V30 51 1 48 11
M  V30 52 1 49 12
M  V30 53 1 50 12
M  V30 54 1 51 13
M  V30 55 1 52 13
M  V30 56 1 53 13
M  V30 57 1 54 14
M  V30 58 1 55 14
M  V30 59 1 56 17
M  V30 60 1 57 18
M  V30 61 1 58 19
M  V30 62 1 59 20
M  V30 63 1 60 21
M  V30 64 1 61 22
M  V30 65 1 62 22
M  V30 66 1 63 24
M  V30 67 1 64 24
M  V30 68 1 65 24
M  V30 69 1 66 25
M  V30 70 1 67 25
M  V30 71 1 68 26
M  V30 72 1 69 26
M  V30 73 1 70 27
M  V30 74 1 71 27
M  V30 75 1 28 72 CFG=1
M  V30 76 1 73 29
M  V30 77 1 74 29
M  V30 78 1 75 30
M  V30 79 1 76 30
M  V30 80 1 31 77 CFG=3
M  V30 81 1 32 78 CFG=3
M  V30 82 1 79 33
M  V30 83 1 80 33
M  V30 84 1 81 33
M  V30 85 1 34 82 CFG=3
M  V30 86 1 83 35
M  V30 87 1 9 84 CFG=3
M  V30 END BOND
M  V30 END CTAB
M  END
>  <i_epik_Tot_Q>  (1) 
1

>  <i_epik_Tot_abs_Q>  (1) 
1

>  <i_i_glide_confnum>  (1) 
805

>  <i_i_glide_lignum>  (1) 
58

>  <i_i_glide_posenum>  (1) 
1

>  <i_i_glide_rotatable_bonds>  (1) 
15

>  <i_lp_mmshare_version>  (1) 
72125

>  <i_m_source_file_index>  (1) 
27

>  <i_f3d_flags>  (1) 
0

>  <num_sample>  (1) 
50

>  <b_lp_Chiralities_Consistent>  (1) 
1

>  <r_epik_Charging_Adjusted_Penalty>  (1) 
0.02425622639956965

>  <r_epik_Ionization_Penalty>  (1) 
0.033094864685368548

>  <r_epik_Ionization_Penalty_Charging>  (1) 
0.02425622639956965

>  <r_epik_Ionization_Penalty_Neutral>  (1) 
0.0088386382857988978

>  <r_epik_State_Penalty>  (1) 
-0

>  <r_glide_ring_energy>  (1) 
0

>  <r_i_docking_score>  (1) 
-9.6538703540410484

>  <r_i_glide_ecoul>  (1) 
-11.15715551704394

>  <r_i_glide_eff_state_penalty>  (1) 
-0

>  <r_i_glide_einternal>  (1) 
21.230525102192832

>  <r_i_glide_emodel>  (1) 
-63.357907499491688

>  <r_i_glide_emodel_strain>  (1) 
1.7690639168948508

>  <r_i_glide_energy>  (1) 
-49.987547288983933

>  <r_i_glide_erotb>  (1) 
0.83677420797818713

>  <r_i_glide_esite>  (1) 
-0.12216964697015274

>  <r_i_glide_evdw>  (1) 
-38.830391771939993

>  <r_i_glide_gscore>  (1) 
-9.6538703540410484

>  <r_i_glide_gscore_strain>  (1) 
0

>  <r_i_glide_hbond>  (1) 
-0.80800000000000005

>  <r_i_glide_ligand_efficiency>  (1) 
-0.26091541497408238

>  <r_i_glide_ligand_efficiency_ln>  (1) 
-2.0936981609600682

>  <r_i_glide_ligand_efficiency_sa>  (1) 
-0.86942804720790923

>  <r_i_glide_lipo>  (1) 
-4.4585664396018991

>  <r_i_glide_metal>  (1) 
-0

>  <r_i_glide_rewards>  (1) 
-1.486815559293595

>  <r_lp_Energy>  (1) 
54.376549999999995

>  <r_lp_tautomer_probability>  (1) 
1

>  <s_epik_Chemistry_Notes>  (1) 
This compound has a N-S or N-O group and may undergo hydrolysis at high or low pH.

>  <s_epik_cmdline>  (1) 
J2VwaWtfcHl0aG9uJywgJy1waHQnLCAnMS4wJywgJy1waCcsICc3LjQnLCAnLXRuJywgJzgnLCAnLW1hJywgJzUwMCcsICctaW1hZScsICc8aW5maWxlLm1hZT4nLCAnLW9tYWUnLCAnPG91dGZpbGUubWFlPic=

>  <s_epik_input>  (1) 
W09IXU9bQ0gyXVtDSDJdTihbQ0hdPU8pW0NASF0oW0NIMl1bQ0BASF0oTjEyKVtDQEhdMVtDSDNdKVtDSDJdW0NASF0yW0NIMl1bQ0hdKFtDSDJdW0NIMl0zKVtDSDJdW0NIMl1OM09bQ0BIXShbQ0gyXVtDSDJdW0NIXShbQ0gzXSlbQ0gzXSlbQ0gyXVtDQEBIXTRDKD1PKU49W0NIXVtDSF09W0NIXTQ=

>  <s_glide_docking_method>  (1) 
confgen

>  <s_i_glide_gridfile>  (1) 
gpcr_5ht2c_6bqh_protein_autoprepared_prepared

>  <s_lp_Force_Field>  (1) 
S-OPLS

>  <s_lp_Variant>  (1) 
DiffSBDD_26-3

>  <s_m_source_file>  (1) 
generated_GPCR_5HT2C_ligand_DiffSBDD_2026-06-23_prepared.sdf

>  <GenAI_Model>  (1) 
DiffSBDD

>  <Protein>  (1) 
GPCR_5HT2C

$$$$
DiffSBDD_26
     RDKit          3D

  0  0  0  0  0  0  0  0  0  0999 V3000
M  V30 BEGIN CTAB
M  V30 COUNTS 84 87 0 0 1
M  V30 BEGIN ATOM
M  V30 1 C 38.614777 33.702859 61.096614 0
M  V30 2 C 37.595936 24.249460 56.027783 0
M  V30 3 C 37.645145 30.359686 56.215831 0
M  V30 4 C 39.244835 28.674951 52.082464 0
M  V30 5 N 38.383957 29.107292 56.303998 0
M  V30 6 O 39.510153 30.386528 53.778110 0
M  V30 7 C 38.977244 26.228754 55.131888 0
M  V30 8 C 38.922077 27.652507 54.543677 0 CFG=2
M  V30 9 N 36.708514 33.501077 59.402918 0 CFG=1 CHG=1
M  V30 10 N 39.080117 35.993611 62.169670 0
M  V30 11 C 38.121236 31.297901 57.326886 0
M  V30 12 C 41.361654 35.384541 62.982502 0
M  V30 13 C 36.456106 23.310734 55.608740 0
M  V30 14 C 38.219529 31.522264 59.904948 0
M  V30 15 C 39.645136 30.031878 52.617853 0
M  V30 16 O 38.445133 38.023604 61.367724 0
M  V30 17 C 37.755783 30.692836 58.692094 0
M  V30 18 C 39.048362 37.337754 62.189138 0
M  V30 19 C 40.391070 30.525010 50.353842 0
M  V30 20 C 40.045145 29.337800 49.900260 0
M  V30 21 C 39.459925 28.392525 50.778360 0
M  V30 22 C 39.840483 35.268560 63.200436 0
M  V30 23 O 37.864121 28.348331 55.197721 0
M  V30 24 C 34.337163 32.816862 59.532146 0
M  V30 25 C 36.847469 35.418656 61.127552 0
M  V30 26 C 38.593820 27.649796 53.027464 0
M  V30 27 C 37.940318 28.429312 57.525214 0
M  V30 28 C 35.565005 33.298285 60.271197 0 CFG=2
M  V30 29 C 38.337773 29.264814 58.756401 0
M  V30 30 C 37.606113 25.520964 55.166527 0
M  V30 31 C 36.095180 34.688894 60.018223 0 CFG=2
M  V30 32 C 38.077656 33.056569 59.808335 0 CFG=2
M  V30 33 C 37.534467 24.553930 57.533007 0
M  V30 34 C 38.376372 35.217610 61.109475 0 CFG=2
M  V30 35 O 41.878011 35.737735 65.230717 0
M  V30 36 O 42.087886 34.863474 64.083559 0
M  V30 37 N 40.195194 30.874878 51.684925 0
M  V30 38 H 39.682125 33.487427 61.160606 0
M  V30 39 H 38.142441 33.239400 61.964068 0
M  V30 40 H 38.532597 23.737764 55.840323 0
M  V30 41 H 36.578973 30.137779 56.297814 0
M  V30 42 H 37.773802 30.842418 55.251888 0
M  V30 43 H 40.484496 31.801627 51.967640 0
M  V30 44 H 39.686517 25.622496 54.567954 0
M  V30 45 H 39.399198 26.280985 56.132276 0
M  V30 46 H 39.895401 28.108173 54.721713 0
M  V30 47 H 37.645209 32.265501 57.178083 0
M  V30 48 H 39.196988 31.460365 57.244757 0
M  V30 49 H 41.670759 36.416779 62.808974 0
M  V30 50 H 41.644759 34.822796 62.092405 0
M  V30 51 H 35.480506 23.783041 55.713814 0
M  V30 52 H 36.577428 23.015112 54.567746 0
M  V30 53 H 36.445092 22.401004 56.207561 0
M  V30 54 H 39.271981 31.305039 60.090568 0
M  V30 55 H 37.691804 31.159645 60.788351 0
M  V30 56 H 36.667395 30.620080 58.733082 0
M  V30 57 H 39.629832 37.738456 63.034055 0
M  V30 58 H 40.841500 31.300508 49.750576 0
M  V30 59 H 40.206439 29.088406 48.865475 0
M  V30 60 H 39.172316 27.424826 50.393487 0
M  V30 61 H 39.569069 34.225960 63.334072 0
M  V30 62 H 39.588856 35.737757 64.153643 0
M  V30 63 H 33.447587 33.059136 60.109115 0
M  V30 64 H 34.240254 33.316931 58.567818 0
M  V30 65 H 34.383164 31.739903 59.367771 0
M  V30 66 H 36.445418 35.090762 62.087547 0
M  V30 67 H 36.577024 36.469677 61.045975 0
M  V30 68 H 38.863560 26.673134 52.624042 0
M  V30 69 H 37.512995 27.712968 52.891518 0
M  V30 70 H 36.861828 28.275654 57.518446 0
M  V30 71 H 38.400193 27.448132 57.601166 0
M  V30 72 H 35.830831 32.785785 61.193598 0
M  V30 73 H 39.426680 29.310551 58.809269 0
M  V30 74 H 38.010626 28.763580 59.667438 0
M  V30 75 H 36.830703 26.188460 55.537520 0
M  V30 76 H 37.321036 25.279763 54.142017 0
M  V30 77 H 35.659071 35.300663 59.229741 0
M  V30 78 H 38.727893 33.402163 59.003616 0
M  V30 79 H 36.621296 25.092469 57.788860 0
M  V30 80 H 37.561710 23.634592 58.118209 0
M  V30 81 H 38.380623 25.156654 57.858981 0
M  V30 82 H 38.759457 35.611845 60.167778 0
M  V30 83 H 42.444618 36.470334 65.019156 0
M  V30 84 H 36.444899 33.314534 58.441325 0
M  V30 END ATOM
M  V30 BEGIN BOND
M  V30 1 1 5 3
M  V30 2 1 8 7
M  V30 3 1 11 3
M  V30 4 1 13 2
M  V30 5 1 15 4
M  V30 6 2 15 6
M  V30 7 1 17 11
M  V30 8 1 17 14
M  V30 9 1 18 10
M  V30 10 2 18 16
M  V30 11 2 20 19
M  V30 12 2 21 4
M  V30 13 1 21 20
M  V30 14 1 22 10
M  V30 15 1 22 12
M  V30 16 1 23 5
M  V30 17 1 23 8
M  V30 18 1 26 4
M  V30 19 1 26 8
M  V30 20 1 27 5
M  V30 21 1 28 9
M  V30 22 1 28 24
M  V30 23 1 29 17
M  V30 24 1 29 27
M  V30 25 1 30 2
M  V30 26 1 30 7
M  V30 27 1 31 9
M  V30 28 1 31 25
M  V30 29 1 31 28
M  V30 30 1 32 1
M  V30 31 1 32 9
M  V30 32 1 32 14
M  V30 33 1 33 2
M  V30 34 1 34 1
M  V30 35 1 34 10
M  V30 36 1 34 25
M  V30 37 1 36 12
M  V30 38 1 36 35
M  V30 39 1 37 15
M  V30 40 1 37 19
M  V30 41 1 38 1
M  V30 42 1 39 1
M  V30 43 1 40 2
M  V30 44 1 41 3
M  V30 45 1 42 3
M  V30 46 1 43 37
M  V30 47 1 44 7
M  V30 48 1 45 7
M  V30 49 1 8 46 CFG=3
M  V30 50 1 47 11
M  V30 51 1 48 11
M  V30 52 1 49 12
M  V30 53 1 50 12
M  V30 54 1 51 13
M  V30 55 1 52 13
M  V30 56 1 53 13
M  V30 57 1 54 14
M  V30 58 1 55 14
M  V30 59 1 56 17
M  V30 60 1 57 18
M  V30 61 1 58 19
M  V30 62 1 59 20
M  V30 63 1 60 21
M  V30 64 1 61 22
M  V30 65 1 62 22
M  V30 66 1 63 24
M  V30 67 1 64 24
M  V30 68 1 65 24
M  V30 69 1 66 25
M  V30 70 1 67 25
M  V30 71 1 68 26
M  V30 72 1 69 26
M  V30 73 1 70 27
M  V30 74 1 71 27
M  V30 75 1 28 72 CFG=1
M  V30 76 1 73 29
M  V30 77 1 74 29
M  V30 78 1 75 30
M  V30 79 1 76 30
M  V30 80 1 31 77 CFG=3
M  V30 81 1 32 78 CFG=3
M  V30 82 1 79 33
M  V30 83 1 80 33
M  V30 84 1 81 33
M  V30 85 1 34 82 CFG=3
M  V30 86 1 83 35
M  V30 87 1 9 84 CFG=3
M  V30 END BOND
M  V30 END CTAB
M  END
>  <i_epik_Tot_Q>  (1) 
1

>  <i_epik_Tot_abs_Q>  (1) 
1

>  <i_i_glide_confnum>  (1) 
1640

>  <i_i_glide_lignum>  (1) 
56

>  <i_i_glide_posenum>  (1) 
263

>  <i_i_glide_rotatable_bonds>  (1) 
15

>  <i_lp_mmshare_version>  (1) 
72125

>  <i_m_source_file_index>  (1) 
27

>  <i_f3d_flags>  (1) 
0

>  <num_sample>  (1) 
50

>  <b_lp_Chiralities_Consistent>  (1) 
1

>  <r_epik_Charging_Adjusted_Penalty>  (1) 
0.02425622639956965

>  <r_epik_Ionization_Penalty>  (1) 
0.033094864685368548

>  <r_epik_Ionization_Penalty_Charging>  (1) 
0.02425622639956965

>  <r_epik_Ionization_Penalty_Neutral>  (1) 
0.0088386382857988978

>  <r_epik_State_Penalty>  (1) 
-0

>  <r_glide_ring_energy>  (1) 
0

>  <r_i_docking_score>  (1) 
-9.6249270139699092

>  <r_i_glide_ecoul>  (1) 
-7.6016042023884802

>  <r_i_glide_eff_state_penalty>  (1) 
-0

>  <r_i_glide_einternal>  (1) 
26.803166025036461

>  <r_i_glide_emodel>  (1) 
-79.869500604277832

>  <r_i_glide_emodel_strain>  (1) 
4.2395203780285158

>  <r_i_glide_energy>  (1) 
-63.45129516872327

>  <r_i_glide_erotb>  (1) 
0.83677420797818713

>  <r_i_glide_esite>  (1) 
-0.09182325775715966

>  <r_i_glide_evdw>  (1) 
-55.849690966334791

>  <r_i_glide_gscore>  (1) 
-9.6249270139699092

>  <r_i_glide_gscore_strain>  (1) 
0.059880094507128945

>  <r_i_glide_hbond>  (1) 
-0.22223153782420632

>  <r_i_glide_ligand_efficiency>  (1) 
-0.26013316253972729

>  <r_i_glide_ligand_efficiency_ln>  (1) 
-2.0874210290267996

>  <r_i_glide_ligand_efficiency_sa>  (1) 
-0.86682140855264789

>  <r_i_glide_lipo>  (1) 
-4.7380186605153085

>  <r_i_glide_metal>  (1) 
-0

>  <r_i_glide_rewards>  (1) 
-1.536782681683543

>  <r_lp_Energy>  (1) 
52.890431999999997

>  <r_lp_tautomer_probability>  (1) 
1

>  <s_epik_Chemistry_Notes>  (1) 
This compound has a N-S or N-O group and may undergo hydrolysis at high or low pH.

>  <s_epik_cmdline>  (1) 
J2VwaWtfcHl0aG9uJywgJy1waHQnLCAnMS4wJywgJy1waCcsICc3LjQnLCAnLXRuJywgJzgnLCAnLW1hJywgJzUwMCcsICctaW1hZScsICc8aW5maWxlLm1hZT4nLCAnLW9tYWUnLCAnPG91dGZpbGUubWFlPic=

>  <s_epik_input>  (1) 
W09IXU9bQ0gyXVtDSDJdTihbQ0hdPU8pW0NASF0oW0NIMl1bQ0BASF0oTjEyKVtDQEhdMVtDSDNdKVtDSDJdW0NASF0yW0NIMl1bQ0hdKFtDSDJdW0NIMl0zKVtDSDJdW0NIMl1OM09bQ0BASF0oW0NIMl1bQ0gyXVtDSF0oW0NIM10pW0NIM10pW0NIMl1bQ0BASF00Qyg9TylOPVtDSF1bQ0hdPVtDSF00

>  <s_glide_docking_method>  (1) 
confgen

>  <s_i_glide_gridfile>  (1) 
gpcr_5ht2c_6bqh_protein_autoprepared_prepared

>  <s_lp_Force_Field>  (1) 
S-OPLS

>  <s_lp_Variant>  (1) 
DiffSBDD_26-1

>  <s_m_source_file>  (1) 
generated_GPCR_5HT2C_ligand_DiffSBDD_2026-06-23_prepared.sdf

>  <GenAI_Model>  (1) 
DiffSBDD

>  <Protein>  (1) 
GPCR_5HT2C

$$$$
DiffSBDD_43
     RDKit          3D

  0  0  0  0  0  0  0  0  0  0999 V3000
M  V30 BEGIN CTAB
M  V30 COUNTS 65 67 0 0 1
M  V30 BEGIN ATOM
M  V30 1 C 40.612836 35.794959 61.600420 0
M  V30 2 C 38.562264 27.336361 57.123152 0
M  V30 3 C 39.395103 29.670003 53.137028 0
M  V30 4 C 39.554551 26.350562 56.907000 0
M  V30 5 C 38.784704 31.342135 59.760986 0
M  V30 6 C 38.115658 31.071552 54.878855 0
M  V30 7 C 38.835349 28.425293 52.709636 0
M  V30 8 C 40.172617 30.081194 50.857847 0
M  V30 9 C 40.045136 30.492665 52.194970 0
M  V30 10 C 39.245177 29.452618 58.214773 0
M  V30 11 C 37.956808 24.632331 57.552330 0
M  V30 12 C 38.242556 34.953635 60.954336 0 CFG=1
M  V30 13 N 38.599495 30.602109 58.537529 0
M  V30 14 C 39.791966 29.094678 55.678620 0
M  V30 15 F 40.809385 30.871994 49.965350 0
M  V30 16 Cl 37.985947 27.396587 53.813149 0
M  V30 17 C 37.291026 26.955382 57.568498 0
M  V30 18 C 36.725056 30.503686 54.573780 0
M  V30 19 C 39.247460 24.995200 57.125870 0
M  V30 20 C 39.315681 30.132115 54.605415 0 CFG=1
M  V30 21 C 39.294108 30.727893 60.938989 0
M  V30 22 C 36.739073 35.153075 61.191721 0
M  V30 23 O 37.645137 23.337789 57.767856 0
M  V30 24 C 36.988204 25.610266 57.767741 0
M  V30 25 O 39.929275 30.899741 63.248563 0
M  V30 26 C 38.432616 32.706087 59.780294 0
M  V30 27 O 40.109464 28.930619 58.918255 0
M  V30 28 C 39.115228 32.853942 62.121533 0
M  V30 29 C 39.644942 28.849813 50.447566 0
M  V30 30 C 38.969985 28.026547 51.366952 0
M  V30 31 C 39.451691 31.487937 62.113524 0
M  V30 32 C 39.100401 35.850483 61.880158 0
M  V30 33 C 38.851986 28.807289 56.879790 0 CFG=1
M  V30 34 C 38.607161 33.468243 60.954100 0
M  V30 35 H 41.150502 36.494919 62.241099 0
M  V30 36 H 41.028175 34.804547 61.783787 0
M  V30 37 H 40.835486 36.059672 60.567777 0
M  V30 38 H 40.544004 26.631805 56.577507 0
M  V30 39 H 38.145185 31.470002 55.892273 0
M  V30 40 H 38.241947 31.946195 54.238405 0
M  V30 41 H 40.461297 31.438006 52.503726 0
M  V30 42 H 38.434182 35.305023 59.941306 0
M  V30 43 H 37.969840 31.000948 57.853228 0
M  V30 44 H 40.784287 29.337750 56.046167 0
M  V30 45 H 40.024263 28.175761 55.153079 0
M  V30 46 H 36.539240 27.706012 57.767756 0
M  V30 47 H 36.045139 31.305618 54.288814 0
M  V30 48 H 36.747346 29.774113 53.768602 0
M  V30 49 H 36.280639 30.019704 55.439429 0
M  V30 50 H 40.000059 24.237901 56.966864 0
M  V30 51 H 40.142647 30.842508 54.664136 0
M  V30 52 H 39.547234 29.683590 60.952745 0
M  V30 53 H 36.150624 34.627732 60.438304 0
M  V30 54 H 36.424538 34.786696 62.167752 0
M  V30 55 H 36.471341 36.207855 61.130010 0
M  V30 56 H 38.355878 22.776649 58.052503 0
M  V30 57 H 36.004002 25.329510 58.104959 0
M  V30 58 H 39.896917 29.953779 63.233591 0
M  V30 59 H 38.039567 33.173588 58.888199 0
M  V30 60 H 39.244887 33.429242 63.024230 0
M  V30 61 H 39.745148 28.540352 49.420211 0
M  V30 62 H 38.552370 27.084601 51.040222 0
M  V30 63 H 38.774287 36.884823 61.765341 0
M  V30 64 H 38.914523 35.607595 62.926345 0
M  V30 65 H 37.875252 29.206552 56.633953 0
M  V30 END ATOM
M  V30 BEGIN BOND
M  V30 1 1 4 2
M  V30 2 2 7 3
M  V30 3 1 9 3
M  V30 4 2 9 8
M  V30 5 1 13 5
M  V30 6 1 13 10
M  V30 7 1 15 8
M  V30 8 1 16 7
M  V30 9 2 17 2
M  V30 10 1 18 6
M  V30 11 2 19 4
M  V30 12 1 19 11
M  V30 13 1 20 3
M  V30 14 1 20 6
M  V30 15 1 20 14
M  V30 16 1 21 5
M  V30 17 1 22 12
M  V30 18 1 23 11
M  V30 19 2 24 11
M  V30 20 1 24 17
M  V30 21 2 26 5
M  V30 22 2 27 10
M  V30 23 1 29 8
M  V30 24 1 30 7
M  V30 25 2 30 29
M  V30 26 2 31 21
M  V30 27 1 31 25
M  V30 28 1 31 28
M  V30 29 1 32 1
M  V30 30 1 32 12
M  V30 31 1 33 2
M  V30 32 1 33 10
M  V30 33 1 33 14
M  V30 34 1 34 12
M  V30 35 1 34 26
M  V30 36 2 34 28
M  V30 37 1 35 1
M  V30 38 1 36 1
M  V30 39 1 37 1
M  V30 40 1 38 4
M  V30 41 1 39 6
M  V30 42 1 40 6
M  V30 43 1 41 9
M  V30 44 1 12 42 CFG=3
M  V30 45 1 43 13
M  V30 46 1 44 14
M  V30 47 1 45 14
M  V30 48 1 46 17
M  V30 49 1 47 18
M  V30 50 1 48 18
M  V30 51 1 49 18
M  V30 52 1 50 19
M  V30 53 1 20 51 CFG=3
M  V30 54 1 52 21
M  V30 55 1 53 22
M  V30 56 1 54 22
M  V30 57 1 55 22
M  V30 58 1 56 23
M  V30 59 1 57 24
M  V30 60 1 58 25
M  V30 61 1 59 26
M  V30 62 1 60 28
M  V30 63 1 61 29
M  V30 64 1 62 30
M  V30 65 1 63 32
M  V30 66 1 64 32
M  V30 67 1 33 65 CFG=3
M  V30 END BOND
M  V30 END CTAB
M  END
>  <i_epik_Tot_Q>  (1) 
0

>  <i_epik_Tot_abs_Q>  (1) 
0

>  <i_i_glide_confnum>  (1) 
279

>  <i_i_glide_lignum>  (1) 
94

>  <i_i_glide_posenum>  (1) 
13

>  <i_i_glide_rotatable_bonds>  (1) 
12

>  <i_lp_mmshare_version>  (1) 
72125

>  <i_m_source_file_index>  (1) 
44

>  <i_f3d_flags>  (1) 
0

>  <num_sample>  (1) 
50

>  <b_lp_Chiralities_Consistent>  (1) 
1

>  <r_epik_Charging_Adjusted_Penalty>  (1) 
0

>  <r_epik_Ionization_Penalty>  (1) 
0.0033265205606122501

>  <r_epik_Ionization_Penalty_Charging>  (1) 
0

>  <r_epik_Ionization_Penalty_Neutral>  (1) 
0.0033265205606122501

>  <r_epik_State_Penalty>  (1) 
-0

>  <r_glide_ring_energy>  (1) 
0

>  <r_i_docking_score>  (1) 
-9.3585181358700211

>  <r_i_glide_ecoul>  (1) 
-4.7795636514063933

>  <r_i_glide_eff_state_penalty>  (1) 
-0

>  <r_i_glide_einternal>  (1) 
19.364124848568544

>  <r_i_glide_emodel>  (1) 
-54.857592972965229

>  <r_i_glide_emodel_strain>  (1) 
2.8828930171386062

>  <r_i_glide_energy>  (1) 
-44.265701455304914

>  <r_i_glide_erotb>  (1) 
0.60670890069985839

>  <r_i_glide_esite>  (1) 
-0.030757508131688878

>  <r_i_glide_evdw>  (1) 
-39.486137803898522

>  <r_i_glide_gscore>  (1) 
-9.3585181358700211

>  <r_i_glide_gscore_strain>  (1) 
0

>  <r_i_glide_hbond>  (1) 
-0.24973649891217864

>  <r_i_glide_ligand_efficiency>  (1) 
-0.27525053340794181

>  <r_i_glide_ligand_efficiency_ln>  (1) 
-2.0675591537560147

>  <r_i_glide_ligand_efficiency_sa>  (1) 
-0.89170487633629059

>  <r_i_glide_lipo>  (1) 
-5.5413101242314422

>  <r_i_glide_metal>  (1) 
-0

>  <r_i_glide_rewards>  (1) 
-1.4521814673886857

>  <r_lp_Energy>  (1) 
37.902006

>  <r_lp_tautomer_probability>  (1) 
1

>  <s_epik_cmdline>  (1) 
J2VwaWtfcHl0aG9uJywgJy1waHQnLCAnMS4wJywgJy1waCcsICc3LjQnLCAnLXRuJywgJzgnLCAnLW1hJywgJzUwMCcsICctaW1hZScsICc8aW5maWxlLm1hZT4nLCAnLW9tYWUnLCAnPG91dGZpbGUubWFlPic=

>  <s_epik_input>  (1) 
W0NIM11bQ0gyXVtDQEhdKFtDSDNdKWMoW2NIXTEpW2NIXWMoW09IXSlbY0hdYzFbTkhdQyg9TylbQ0BIXShjMltjSF1bY0hdYyhbT0hdKVtjSF1bY0hdMilbQ0gyXVtDQEhdKFtDSDJdW0NIM10pYzNjKENsKVtjSF1bY0hdYyhGKVtjSF0z

>  <s_glide_docking_method>  (1) 
confgen

>  <s_i_glide_gridfile>  (1) 
gpcr_5ht2c_6bqh_protein_autoprepared_prepared

>  <s_lp_Force_Field>  (1) 
S-OPLS

>  <s_lp_Variant>  (1) 
DiffSBDD_43-1

>  <s_m_source_file>  (1) 
generated_GPCR_5HT2C_ligand_DiffSBDD_2026-06-23_prepared.sdf

>  <GenAI_Model>  (1) 
DiffSBDD

>  <Protein>  (1) 
GPCR_5HT2C

$$$$
DiffSBDD_26
     RDKit          3D

  0  0  0  0  0  0  0  0  0  0999 V3000
M  V30 BEGIN CTAB
M  V30 COUNTS 84 87 0 0 1
M  V30 BEGIN ATOM
M  V30 1 C 39.768524 26.957161 54.681518 0
M  V30 2 C 35.836004 34.280779 59.910275 0
M  V30 3 C 39.240411 28.445872 60.319132 0
M  V30 4 C 40.315186 33.154088 62.313869 0
M  V30 5 N 39.020608 29.754311 59.712494 0
M  V30 6 O 40.961712 32.420890 64.522441 0
M  V30 7 C 37.435494 32.644201 61.139243 0
M  V30 8 C 38.670695 31.775168 60.821879 0 CFG=2
M  V30 9 N 37.788306 26.125680 55.854734 0 CFG=2 CHG=1
M  V30 10 N 38.982978 28.634275 52.896213 0
M  V30 11 C 39.963565 27.517559 59.338096 0
M  V30 12 C 40.612596 29.486035 51.181862 0
M  V30 13 C 34.880713 34.349149 58.714692 0
M  V30 14 C 39.889129 26.267835 57.149402 0
M  V30 15 C 40.908264 33.317684 63.684509 0
M  V30 16 O 38.481298 29.820033 54.771956 0
M  V30 17 C 39.155544 27.288162 58.073360 0
M  V30 18 C 38.804663 29.779768 53.594285 0
M  V30 19 C 41.364461 35.622742 63.030242 0
M  V30 20 C 40.845138 35.465394 61.827698 0
M  V30 21 C 40.309068 34.208557 61.457742 0
M  V30 22 C 39.326080 28.679074 51.471070 0
M  V30 23 O 38.178196 30.451472 60.651382 0
M  V30 24 C 37.043208 23.770359 56.285307 0
M  V30 25 C 37.282639 27.063928 53.865584 0
M  V30 26 C 39.730975 31.785769 61.946320 0
M  V30 27 C 38.175757 29.602447 58.531159 0
M  V30 28 C 36.702924 25.177873 55.857811 0 CFG=2
M  V30 29 C 38.832377 28.672353 57.495721 0
M  V30 30 C 36.601625 32.942998 59.878399 0
M  V30 31 C 37.243628 25.733912 54.563502 0 CFG=2
M  V30 32 C 39.248968 25.966274 55.775132 0 CFG=2
M  V30 33 C 36.775539 35.500069 59.866317 0
M  V30 34 C 38.776930 27.297617 53.503460 0 CFG=2
M  V30 35 O 39.645139 31.036851 49.767754 0
M  V30 36 O 40.616021 29.955097 49.848999 0
M  V30 37 N 41.401251 34.573068 63.949087 0
M  V30 38 H 40.688431 26.537751 54.268342 0
M  V30 39 H 40.066395 27.878877 55.173990 0
M  V30 40 H 35.245146 34.326791 60.825284 0
M  V30 41 H 38.287318 27.988561 60.567761 0
M  V30 42 H 39.808937 28.553361 61.243524 0
M  V30 43 H 41.815357 34.761032 64.850535 0
M  V30 44 H 36.816293 32.162301 61.895719 0
M  V30 45 H 37.747973 33.578269 61.595388 0
M  V30 46 H 39.127313 32.133768 59.897028 0
M  V30 47 H 40.045136 26.537756 59.767760 0
M  V30 48 H 40.967875 27.885223 59.120454 0
M  V30 49 H 41.479442 28.853447 51.367750 0
M  V30 50 H 40.747754 30.355453 51.825581 0
M  V30 51 H 35.431060 34.137753 57.800266 0
M  V30 52 H 34.072057 33.622295 58.801322 0
M  V30 53 H 34.445156 35.337641 58.586053 0
M  V30 54 H 39.947098 25.323851 57.694356 0
M  V30 55 H 40.927862 26.568970 57.006416 0
M  V30 56 H 38.210721 26.835438 58.380873 0
M  V30 57 H 38.983599 30.663898 52.966764 0
M  V30 58 H 41.794992 36.543792 63.389739 0
M  V30 59 H 40.829714 36.290430 61.129689 0
M  V30 60 H 39.883587 34.093778 60.473186 0
M  V30 61 H 38.468168 29.123270 50.967803 0
M  V30 62 H 39.427593 27.688899 51.026954 0
M  V30 63 H 36.166478 23.132459 56.167779 0
M  V30 64 H 37.818536 23.360539 55.642445 0
M  V30 65 H 37.369805 23.742718 57.325468 0
M  V30 66 H 36.849242 27.854140 54.481118 0
M  V30 67 H 36.677885 27.018779 52.967776 0
M  V30 68 H 39.273821 31.351440 62.837088 0
M  V30 69 H 40.559896 31.128987 61.681754 0
M  V30 70 H 37.201944 29.206616 58.822563 0
M  V30 71 H 37.996299 30.583555 58.089255 0
M  V30 72 H 35.863227 25.647715 56.357205 0
M  V30 73 H 39.727859 29.143534 57.088887 0
M  V30 74 H 38.111951 28.552583 56.697047 0
M  V30 75 H 37.240230 32.944419 58.993962 0
M  V30 76 H 35.904424 32.118288 59.721656 0
M  V30 77 H 37.790352 24.963699 54.034018 0
M  V30 78 H 39.516509 24.949971 55.478750 0
M  V30 79 H 37.391599 35.477118 58.967843 0
M  V30 80 H 36.207620 36.430663 59.843378 0
M  V30 81 H 37.437147 35.554072 60.729801 0
M  V30 82 H 38.996645 26.543951 52.746365 0
M  V30 83 H 38.905561 30.590790 49.367761 0
M  V30 84 H 37.495594 27.066272 56.077406 0
M  V30 END ATOM
M  V30 BEGIN BOND
M  V30 1 1 5 3
M  V30 2 1 8 7
M  V30 3 1 11 3
M  V30 4 1 13 2
M  V30 5 1 15 4
M  V30 6 2 15 6
M  V30 7 1 17 11
M  V30 8 1 17 14
M  V30 9 1 18 10
M  V30 10 2 18 16
M  V30 11 2 20 19
M  V30 12 2 21 4
M  V30 13 1 21 20
M  V30 14 1 22 10
M  V30 15 1 22 12
M  V30 16 1 23 5
M  V30 17 1 23 8
M  V30 18 1 26 4
M  V30 19 1 26 8
M  V30 20 1 27 5
M  V30 21 1 28 9
M  V30 22 1 28 24
M  V30 23 1 29 17
M  V30 24 1 29 27
M  V30 25 1 30 2
M  V30 26 1 30 7
M  V30 27 1 31 9
M  V30 28 1 31 25
M  V30 29 1 31 28
M  V30 30 1 32 1
M  V30 31 1 32 9
M  V30 32 1 32 14
M  V30 33 1 33 2
M  V30 34 1 34 1
M  V30 35 1 34 10
M  V30 36 1 34 25
M  V30 37 1 36 12
M  V30 38 1 36 35
M  V30 39 1 37 15
M  V30 40 1 37 19
M  V30 41 1 38 1
M  V30 42 1 39 1
M  V30 43 1 40 2
M  V30 44 1 41 3
M  V30 45 1 42 3
M  V30 46 1 43 37
M  V30 47 1 44 7
M  V30 48 1 45 7
M  V30 49 1 8 46 CFG=3
M  V30 50 1 47 11
M  V30 51 1 48 11
M  V30 52 1 49 12
M  V30 53 1 50 12
M  V30 54 1 51 13
M  V30 55 1 52 13
M  V30 56 1 53 13
M  V30 57 1 54 14
M  V30 58 1 55 14
M  V30 59 1 56 17
M  V30 60 1 57 18
M  V30 61 1 58 19
M  V30 62 1 59 20
M  V30 63 1 60 21
M  V30 64 1 61 22
M  V30 65 1 62 22
M  V30 66 1 63 24
M  V30 67 1 64 24
M  V30 68 1 65 24
M  V30 69 1 66 25
M  V30 70 1 67 25
M  V30 71 1 68 26
M  V30 72 1 69 26
M  V30 73 1 70 27
M  V30 74 1 71 27
M  V30 75 1 28 72 CFG=1
M  V30 76 1 73 29
M  V30 77 1 74 29
M  V30 78 1 75 30
M  V30 79 1 76 30
M  V30 80 1 31 77 CFG=3
M  V30 81 1 32 78 CFG=3
M  V30 82 1 79 33
M  V30 83 1 80 33
M  V30 84 1 81 33
M  V30 85 1 34 82 CFG=3
M  V30 86 1 83 35
M  V30 87 1 9 84 CFG=1
M  V30 END BOND
M  V30 END CTAB
M  END
>  <i_epik_Tot_Q>  (1) 
1

>  <i_epik_Tot_abs_Q>  (1) 
1

>  <i_i_glide_confnum>  (1) 
3735

>  <i_i_glide_lignum>  (1) 
57

>  <i_i_glide_posenum>  (1) 
344

>  <i_i_glide_rotatable_bonds>  (1) 
15

>  <i_lp_mmshare_version>  (1) 
72125

>  <i_m_source_file_index>  (1) 
27

>  <i_f3d_flags>  (1) 
0

>  <num_sample>  (1) 
50

>  <b_lp_Chiralities_Consistent>  (1) 
1

>  <r_epik_Charging_Adjusted_Penalty>  (1) 
0.02425622639956965

>  <r_epik_Ionization_Penalty>  (1) 
0.033094864685368548

>  <r_epik_Ionization_Penalty_Charging>  (1) 
0.02425622639956965

>  <r_epik_Ionization_Penalty_Neutral>  (1) 
0.0088386382857988978

>  <r_epik_State_Penalty>  (1) 
-0

>  <r_glide_ring_energy>  (1) 
0

>  <r_i_docking_score>  (1) 
-9.0712313054953739

>  <r_i_glide_ecoul>  (1) 
-3.717187066795161

>  <r_i_glide_eff_state_penalty>  (1) 
-0

>  <r_i_glide_einternal>  (1) 
15.437471081857367

>  <r_i_glide_emodel>  (1) 
-64.226068444110965

>  <r_i_glide_emodel_strain>  (1) 
2.9995652966229187

>  <r_i_glide_energy>  (1) 
-54.4220158426441

>  <r_i_glide_erotb>  (1) 
0.83677420797818713

>  <r_i_glide_esite>  (1) 
0

>  <r_i_glide_evdw>  (1) 
-50.704828775848938

>  <r_i_glide_gscore>  (1) 
-9.0712313054953739

>  <r_i_glide_gscore_strain>  (1) 
0

>  <r_i_glide_hbond>  (1) 
-0.32000000000000001

>  <r_i_glide_ligand_efficiency>  (1) 
-0.24516841366203712

>  <r_i_glide_ligand_efficiency_ln>  (1) 
-1.9673374103277612

>  <r_i_glide_ligand_efficiency_sa>  (1) 
-0.81695554533801451

>  <r_i_glide_lipo>  (1) 
-5.2347267722644348

>  <r_i_glide_metal>  (1) 
-0

>  <r_i_glide_rewards>  (1) 
-1.2604592423974066

>  <r_lp_Energy>  (1) 
64.493858000000003

>  <r_lp_tautomer_probability>  (1) 
1

>  <s_epik_Chemistry_Notes>  (1) 
This compound has a N-S or N-O group and may undergo hydrolysis at high or low pH.

>  <s_epik_cmdline>  (1) 
J2VwaWtfcHl0aG9uJywgJy1waHQnLCAnMS4wJywgJy1waCcsICc3LjQnLCAnLXRuJywgJzgnLCAnLW1hJywgJzUwMCcsICctaW1hZScsICc8aW5maWxlLm1hZT4nLCAnLW9tYWUnLCAnPG91dGZpbGUubWFlPic=

>  <s_epik_input>  (1) 
W09IXU9bQ0gyXVtDSDJdTihbQ0hdPU8pW0NASF0oW0NIMl1bQ0BASF0oTjEyKVtDQEhdMVtDSDNdKVtDSDJdW0NASF0yW0NIMl1bQ0hdKFtDSDJdW0NIMl0zKVtDSDJdW0NIMl1OM09bQ0BASF0oW0NIMl1bQ0gyXVtDSF0oW0NIM10pW0NIM10pW0NIMl1bQ0BASF00Qyg9TylOPVtDSF1bQ0hdPVtDSF00

>  <s_glide_docking_method>  (1) 
confgen

>  <s_i_glide_gridfile>  (1) 
gpcr_5ht2c_6bqh_protein_autoprepared_prepared

>  <s_lp_Force_Field>  (1) 
S-OPLS

>  <s_lp_Variant>  (1) 
DiffSBDD_26-2

>  <s_m_source_file>  (1) 
generated_GPCR_5HT2C_ligand_DiffSBDD_2026-06-23_prepared.sdf

>  <GenAI_Model>  (1) 
DiffSBDD

>  <Protein>  (1) 
GPCR_5HT2C

$$$$
DiffSBDD_32
     RDKit          3D

  0  0  0  0  0  0  0  0  0  0999 V3000
M  V30 BEGIN CTAB
M  V30 COUNTS 71 74 0 0 1
M  V30 BEGIN ATOM
M  V30 1 N 39.095023 28.484774 59.094110 0
M  V30 2 C 39.682220 33.010466 61.209777 0 CFG=1
M  V30 3 C 39.788774 27.005521 55.875477 0 CFG=2
M  V30 4 C 40.044201 30.477426 51.723019 0
M  V30 5 C 41.411580 32.937166 62.947384 0 CFG=2
M  V30 6 N 39.631951 31.515982 61.234186 0
M  V30 7 C 39.411862 29.337479 52.063442 0
M  V30 8 C 39.768312 34.950934 62.424038 0
M  V30 9 N 37.246137 24.701608 55.371498 0
M  V30 10 C 37.943642 28.757262 54.951019 0 CFG=2
M  V30 11 C 40.745212 27.914069 56.690022 0
M  V30 12 C 39.236642 29.172143 60.244726 0
M  V30 13 C 38.770996 26.237437 57.979154 0
M  V30 14 C 41.381639 31.401320 62.776792 0
M  V30 15 Cl 41.845653 33.372340 64.620355 0
M  V30 16 C 38.549354 34.933394 61.474196 0
M  V30 17 C 37.950788 25.417761 55.948198 0
M  V30 18 C 39.158142 27.770030 54.691231 0 CFG=2
M  V30 19 C 39.693089 27.178681 58.782312 0 CFG=1
M  V30 20 C 39.645134 26.937634 52.310297 0
M  V30 21 O 38.045445 25.449071 58.567761 0
M  V30 22 C 38.094345 29.980526 54.032579 0
M  V30 23 N 38.980559 26.817612 53.552955 0
M  V30 24 O 38.466084 33.606478 60.933692 0
M  V30 25 C 37.678942 29.303141 56.361461 0
M  V30 26 C 42.043870 28.206838 58.840100 0
M  V30 27 O 40.935029 31.084881 61.451599 0
M  V30 28 C 40.016435 33.469526 62.606662 0 CFG=1
M  V30 29 O 39.643149 28.638493 61.278350 0
M  V30 30 C 38.939798 30.696324 60.185674 0 CFG=1
M  V30 31 N 38.794039 26.225813 56.632187 0
M  V30 32 N 36.728703 30.952415 59.144993 0
M  V30 33 C 37.414378 30.865486 60.281975 0
M  V30 34 C 41.034513 27.355061 58.071243 0 CFG=2
M  V30 35 C 39.921575 28.086023 51.643156 0
M  V30 36 N 38.242955 29.337757 52.772528 0
M  V30 37 O 36.845138 30.937957 61.367719 0
M  V30 38 H 38.705353 28.979413 58.306964 0
M  V30 39 H 40.431780 33.267524 60.462249 0
M  V30 40 H 40.451733 26.242880 55.462090 0
M  V30 41 H 39.655045 31.440796 52.019993 0
M  V30 42 H 40.956455 30.458276 51.144328 0
M  V30 43 H 42.167681 33.367223 62.291088 0
M  V30 44 H 39.568677 35.468697 63.362386 0
M  V30 45 H 40.622584 35.430128 61.942596 0
M  V30 46 H 37.040786 28.220628 54.655062 0
M  V30 47 H 41.683028 28.041138 56.167757 0
M  V30 48 H 40.358617 28.924246 56.781145 0
M  V30 49 H 40.721697 30.932938 63.509898 0
M  V30 50 H 42.377347 30.985836 62.935962 0
M  V30 51 H 37.623380 35.166284 62.000433 0
M  V30 52 H 38.668304 35.665871 60.674867 0
M  V30 53 H 39.975855 28.429412 54.424359 0
M  V30 54 H 39.905636 26.680518 59.721455 0
M  V30 55 H 39.994391 25.989987 51.933582 0
M  V30 56 H 37.216186 30.624514 54.055875 0
M  V30 57 H 38.968893 30.578609 54.293070 0
M  V30 58 H 38.763536 25.876087 53.848951 0
M  V30 59 H 38.493511 29.922030 56.731514 0
M  V30 60 H 36.800534 29.948825 56.343724 0
M  V30 61 H 37.447710 28.514791 57.070743 0
M  V30 62 H 41.799626 29.268820 58.802794 0
M  V30 63 H 42.045136 27.906187 59.886451 0
M  V30 64 H 43.047941 28.082299 58.435827 0
M  V30 65 H 39.275255 33.054207 63.292689 0
M  V30 66 H 39.245119 31.073815 59.210822 0
M  V30 67 H 37.207374 30.945402 58.257628 0
M  V30 68 H 35.728959 31.096734 59.169670 0
M  V30 69 H 41.480941 26.367484 57.961774 0
M  V30 70 H 40.514175 28.039663 50.742890 0
M  V30 71 H 37.770727 28.441722 52.761116 0
M  V30 END ATOM
M  V30 BEGIN BOND
M  V30 1 1 6 2
M  V30 2 2 7 4
M  V30 3 1 11 3
M  V30 4 1 12 1
M  V30 5 1 14 5
M  V30 6 1 15 5
M  V30 7 1 16 8
M  V30 8 3 17 9
M  V30 9 1 18 3
M  V30 10 1 18 10
M  V30 11 1 19 1
M  V30 12 1 19 13
M  V30 13 2 21 13
M  V30 14 1 22 10
M  V30 15 1 23 18
M  V30 16 1 23 20
M  V30 17 1 24 2
M  V30 18 1 24 16
M  V30 19 1 25 10
M  V30 20 1 27 6
M  V30 21 1 27 14
M  V30 22 1 28 2
M  V30 23 1 28 5
M  V30 24 1 28 8
M  V30 25 2 29 12
M  V30 26 1 30 6
M  V30 27 1 30 12
M  V30 28 1 31 3
M  V30 29 1 31 13
M  V30 30 1 31 17
M  V30 31 1 33 30
M  V30 32 1 33 32
M  V30 33 1 34 11
M  V30 34 1 34 19
M  V30 35 1 34 26
M  V30 36 1 35 7
M  V30 37 2 35 20
M  V30 38 1 36 7
M  V30 39 1 36 22
M  V30 40 2 37 33
M  V30 41 1 38 1
M  V30 42 1 2 39 CFG=3
M  V30 43 1 3 40 CFG=3
M  V30 44 1 41 4
M  V30 45 1 42 4
M  V30 46 1 5 43 CFG=3
M  V30 47 1 44 8
M  V30 48 1 45 8
M  V30 49 1 10 46 CFG=3
M  V30 50 1 47 11
M  V30 51 1 48 11
M  V30 52 1 49 14
M  V30 53 1 50 14
M  V30 54 1 51 16
M  V30 55 1 52 16
M  V30 56 1 18 53 CFG=3
M  V30 57 1 19 54 CFG=1
M  V30 58 1 55 20
M  V30 59 1 56 22
M  V30 60 1 57 22
M  V30 61 1 58 23
M  V30 62 1 59 25
M  V30 63 1 60 25
M  V30 64 1 61 25
M  V30 65 1 62 26
M  V30 66 1 63 26
M  V30 67 1 64 26
M  V30 68 1 28 65 CFG=1
M  V30 69 1 30 66 CFG=3
M  V30 70 1 67 32
M  V30 71 1 68 32
M  V30 72 1 34 69 CFG=3
M  V30 73 1 70 35
M  V30 74 1 71 36
M  V30 END BOND
M  V30 END CTAB
M  END
>  <i_epik_Tot_Q>  (1) 
0

>  <i_epik_Tot_abs_Q>  (1) 
0

>  <i_i_glide_confnum>  (1) 
33

>  <i_i_glide_lignum>  (1) 
71

>  <i_i_glide_posenum>  (1) 
270

>  <i_i_glide_rotatable_bonds>  (1) 
6

>  <i_lp_mmshare_version>  (1) 
72125

>  <i_m_source_file_index>  (1) 
33

>  <i_f3d_flags>  (1) 
0

>  <num_sample>  (1) 
50

>  <b_lp_Chiralities_Consistent>  (1) 
1

>  <r_epik_Charging_Adjusted_Penalty>  (1) 
0.0047334328173529788

>  <r_epik_Ionization_Penalty>  (1) 
0.0056920073273627391

>  <r_epik_Ionization_Penalty_Charging>  (1) 
0.0047334328173529788

>  <r_epik_Ionization_Penalty_Neutral>  (1) 
0.00095857451000976068

>  <r_epik_State_Penalty>  (1) 
-0

>  <r_glide_ring_energy>  (1) 
0

>  <r_i_docking_score>  (1) 
-8.9633971644370831

>  <r_i_glide_ecoul>  (1) 
-7.4727818533555324

>  <r_i_glide_eff_state_penalty>  (1) 
-0

>  <r_i_glide_einternal>  (1) 
14.020113342315074

>  <r_i_glide_emodel>  (1) 
-45.581533997216496

>  <r_i_glide_emodel_strain>  (1) 
0.31336536339526333

>  <r_i_glide_energy>  (1) 
-45.707829870865361

>  <r_i_glide_erotb>  (1) 
0.28744264244001894

>  <r_i_glide_esite>  (1) 
-0.11959656670581356

>  <r_i_glide_evdw>  (1) 
-38.235048017509826

>  <r_i_glide_gscore>  (1) 
-8.9633971644370831

>  <r_i_glide_gscore_strain>  (1) 
0

>  <r_i_glide_hbond>  (1) 
-0.32067017295226258

>  <r_i_glide_ligand_efficiency>  (1) 
-0.24225397741721846

>  <r_i_glide_ligand_efficiency_ln>  (1) 
-1.9439507131231581

>  <r_i_glide_ligand_efficiency_sa>  (1) 
-0.80724399719780071

>  <r_i_glide_lipo>  (1) 
-3.7397960773658205

>  <r_i_glide_metal>  (1) 
-0

>  <r_i_glide_rewards>  (1) 
-2.0381073109743841

>  <r_lp_Energy>  (1) 
58.609352999999999

>  <r_lp_tautomer_probability>  (1) 
1

>  <s_epik_Chemistry_Notes>  (1) 
This compound has an imine and may undergo hydrolysis. This compound contains an acetal/aminal-like group ( X-CH(R)-Y where X, Y are N, S, or O) that may be acid/base labile, releasing an aldehyde. This compound has a N-S or N-O group and may undergo hydrolysis at high or low pH.

>  <s_epik_cmdline>  (1) 
J2VwaWtfcHl0aG9uJywgJy1waHQnLCAnMS4wJywgJy1waCcsICc3LjQnLCAnLXRuJywgJzgnLCAnLW1hJywgJzUwMCcsICctaW1hZScsICc8aW5maWxlLm1hZT4nLCAnLW9tYWUnLCAnPG91dGZpbGUubWFlPic=

>  <s_epik_input>  (1) 
TzFbQ0gyXVtDSDJdW0NAQEhdKFtDQEhdMTIpW0NAQEhdKENsKVtDSDJdT04yW0NASF0oQyg9TylbTkgyXSlDKD1PKVtOSF1bQ0BASF0oQyg9TylOM0MjTilbQ0BIXShbQ0gzXSlbQ0gyXVtDQEBIXTNbQ0BASF0oW05IXS9bQ0hdPVtDSF1cNClbQ0BASF0oW0NIM10pW0NIMl1cTj1DLzRcW0NIM10=

>  <s_glide_docking_method>  (1) 
confgen

>  <s_i_glide_gridfile>  (1) 
gpcr_5ht2c_6bqh_protein_autoprepared_prepared

>  <s_lp_Force_Field>  (1) 
S-OPLS

>  <s_lp_Variant>  (1) 
DiffSBDD_32-1

>  <s_m_source_file>  (1) 
generated_GPCR_5HT2C_ligand_DiffSBDD_2026-06-23_prepared.sdf

>  <GenAI_Model>  (1) 
DiffSBDD

>  <Protein>  (1) 
GPCR_5HT2C

$$$$
DiffSBDD_10
     RDKit          3D

  0  0  0  0  0  0  0  0  0  0999 V3000
M  V30 BEGIN CTAB
M  V30 COUNTS 64 66 0 0 1
M  V30 BEGIN ATOM
M  V30 1 C 37.947169 26.756318 56.679420 0
M  V30 2 C 37.377165 25.338222 54.777542 0
M  V30 3 C 37.925713 30.843090 55.144170 0
M  V30 4 C 39.425339 28.420208 50.567759 0
M  V30 5 C 38.316089 35.802398 61.209260 0
M  V30 6 C 40.330897 30.522886 51.359262 0
M  V30 7 C 37.709558 24.353018 56.985053 0
M  V30 8 O 36.452038 29.783292 59.767765 0
M  V30 9 F 38.381429 26.937760 52.070162 0
M  V30 10 S 38.249651 31.739374 61.749574 0
M  V30 11 C 39.920167 37.618621 61.924692 0
M  V30 12 C 38.746444 33.468942 61.767074 0
M  V30 13 C 39.512631 36.168161 61.861788 0
M  V30 14 C 38.700847 31.727173 57.395348 0
M  V30 15 C 37.981283 25.625922 57.514311 0
M  V30 16 S 37.833485 30.161539 59.450070 0
M  V30 17 C 38.304131 32.066234 55.982177 0 CFG=1
M  V30 18 O 36.845138 31.737756 62.167758 0
M  V30 19 O 38.841283 29.107918 59.252342 0
M  V30 20 C 38.992649 28.102641 51.859888 0
M  V30 21 C 37.925138 34.453704 61.157435 0
M  V30 22 N 38.783176 28.677843 54.268916 0
M  V30 23 C 39.480560 32.745940 55.367757 0
M  V30 24 C 37.406866 24.208591 55.616403 0
M  V30 25 C 40.329697 35.180991 62.456823 0
M  V30 26 C 40.087498 29.627632 50.314257 0
M  V30 27 C 39.946272 33.827728 62.409157 0
M  V30 28 C 37.645165 26.615460 55.304011 0
M  V30 29 C 38.983968 29.725400 55.251726 0
M  V30 30 C 39.219339 28.998677 52.933306 0
M  V30 31 C 37.573442 27.844201 54.397373 0
M  V30 32 N 37.645124 30.935494 57.965780 0
M  V30 33 Cl 36.448776 34.023310 60.359566 0
M  V30 34 O 39.217389 30.993068 62.567744 0
M  V30 35 C 39.908200 30.218699 52.664026 0
M  V30 36 N 38.411515 31.468147 60.189877 0 CHG=-1
M  V30 37 H 38.137470 27.727133 57.097046 0
M  V30 38 H 37.137843 25.226241 53.731958 0
M  V30 39 H 37.772433 31.146474 54.109504 0
M  V30 40 H 36.950662 30.484238 55.473078 0
M  V30 41 H 39.245097 27.728656 49.767770 0
M  V30 42 H 37.695926 36.559869 60.753280 0
M  V30 43 H 40.845084 31.447676 51.163481 0
M  V30 44 H 37.730046 23.485722 57.629538 0
M  V30 45 H 40.075625 37.930908 62.958154 0
M  V30 46 H 40.845133 37.737749 61.367778 0
M  V30 47 H 39.165486 38.267443 61.478424 0
M  V30 48 H 39.631060 31.159468 57.428941 0
M  V30 49 H 38.843133 32.648323 57.963216 0
M  V30 50 H 38.207942 25.738580 58.564999 0
M  V30 51 H 37.463375 32.759822 55.988833 0
M  V30 52 H 40.390144 32.151624 55.479444 0
M  V30 53 H 39.245136 32.825349 54.319666 0
M  V30 54 H 39.645487 33.737751 55.767615 0
M  V30 55 H 37.195750 23.231368 55.210067 0
M  V30 56 H 41.246034 35.465636 62.954066 0
M  V30 57 H 40.415441 29.864163 49.314118 0
M  V30 58 H 40.564971 33.071790 62.870295 0
M  V30 59 H 38.926957 29.295322 56.242795 0
M  V30 60 H 40.013925 30.072653 55.227020 0
M  V30 61 H 37.022029 27.641705 53.484729 0
M  V30 62 H 36.847027 28.479021 54.891700 0
M  V30 63 H 36.694280 31.297952 57.782799 0
M  V30 64 H 40.109111 30.922473 53.448061 0
M  V30 END ATOM
M  V30 BEGIN BOND
M  V30 1 1 12 10
M  V30 2 2 13 5
M  V30 3 1 13 11
M  V30 4 1 15 1
M  V30 5 2 15 7
M  V30 6 2 16 8
M  V30 7 1 17 3
M  V30 8 1 17 14
M  V30 9 2 18 10
M  V30 10 2 19 16
M  V30 11 2 20 4
M  V30 12 1 20 9
M  V30 13 1 21 5
M  V30 14 2 21 12
M  V30 15 1 23 17
M  V30 16 2 24 2
M  V30 17 1 24 7
M  V30 18 1 25 13
M  V30 19 1 26 4
M  V30 20 2 26 6
M  V30 21 1 27 12
M  V30 22 2 27 25
M  V30 23 2 28 1
M  V30 24 1 28 2
M  V30 25 1 29 3
M  V30 26 1 29 22
M  V30 27 1 30 20
M  V30 28 1 30 22
M  V30 29 1 31 22
M  V30 30 1 31 28
M  V30 31 1 32 14
M  V30 32 1 32 16
M  V30 33 1 33 21
M  V30 34 2 34 10
M  V30 35 1 35 6
M  V30 36 2 35 30
M  V30 37 1 36 10
M  V30 38 1 36 16
M  V30 39 1 37 1
M  V30 40 1 38 2
M  V30 41 1 39 3
M  V30 42 1 40 3
M  V30 43 1 41 4
M  V30 44 1 42 5
M  V30 45 1 43 6
M  V30 46 1 44 7
M  V30 47 1 45 11
M  V30 48 1 46 11
M  V30 49 1 47 11
M  V30 50 1 48 14
M  V30 51 1 49 14
M  V30 52 1 50 15
M  V30 53 1 17 51 CFG=1
M  V30 54 1 52 23
M  V30 55 1 53 23
M  V30 56 1 54 23
M  V30 57 1 55 24
M  V30 58 1 56 25
M  V30 59 1 57 26
M  V30 60 1 58 27
M  V30 61 1 59 29
M  V30 62 1 60 29
M  V30 63 1 61 31
M  V30 64 1 62 31
M  V30 65 1 63 32
M  V30 66 1 64 35
M  V30 END BOND
M  V30 END CTAB
M  END
>  <i_epik_Tot_Q>  (1) 
-1

>  <i_epik_Tot_abs_Q>  (1) 
1

>  <i_i_glide_confnum>  (1) 
6271

>  <i_i_glide_lignum>  (1) 
21

>  <i_i_glide_posenum>  (1) 
41

>  <i_i_glide_rotatable_bonds>  (1) 
12

>  <i_lp_mmshare_version>  (1) 
72125

>  <i_m_source_file_index>  (1) 
11

>  <i_f3d_flags>  (1) 
0

>  <num_sample>  (1) 
50

>  <b_lp_Chiralities_Consistent>  (1) 
1

>  <r_epik_Charging_Adjusted_Penalty>  (1) 
1.043230994850219

>  <r_epik_Ionization_Penalty>  (1) 
0.22830841385829601

>  <r_epik_Ionization_Penalty_Charging>  (1) 
0.22543841040968138

>  <r_epik_Ionization_Penalty_Neutral>  (1) 
0.0028700034486146327

>  <r_epik_State_Penalty>  (1) 
0.81779258444053771

>  <r_glide_ring_energy>  (1) 
0

>  <r_i_docking_score>  (1) 
-8.9468583163918431

>  <r_i_glide_ecoul>  (1) 
-9.9329866711270043

>  <r_i_glide_eff_state_penalty>  (1) 
0.81779258444053771

>  <r_i_glide_einternal>  (1) 
13.418071428441216

>  <r_i_glide_emodel>  (1) 
-78.5672409277893

>  <r_i_glide_emodel_strain>  (1) 
0.41457459216757542

>  <r_i_glide_energy>  (1) 
-53.051706644178545

>  <r_i_glide_erotb>  (1) 
0.74186158489162179

>  <r_i_glide_esite>  (1) 
-0.17425337613880645

>  <r_i_glide_evdw>  (1) 
-43.11871997305154

>  <r_i_glide_gscore>  (1) 
-9.7646509008323807

>  <r_i_glide_gscore_strain>  (1) 
0

>  <r_i_glide_hbond>  (1) 
-0.16

>  <r_i_glide_ligand_efficiency>  (1) 
-0.24852384212199563

>  <r_i_glide_ligand_efficiency_ln>  (1) 
-1.9519627684587377

>  <r_i_glide_ligand_efficiency_sa>  (1) 
-0.82060764630260374

>  <r_i_glide_lipo>  (1) 
-5.4282689880991635

>  <r_i_glide_metal>  (1) 
-0

>  <r_i_glide_rewards>  (1) 
-1.0981061221644037

>  <r_lp_Energy>  (1) 
36.709097

>  <s_epik_cmdline>  (1) 
J2VwaWtfcHl0aG9uJywgJy1waHQnLCAnMS4wJywgJy1waCcsICc3LjQnLCAnLXRuJywgJzgnLCAnLW1hJywgJzUwMCcsICctaW1hZScsICc8aW5maWxlLm1hZT4nLCAnLW9tYWUnLCAnPG91dGZpbGUubWFlPic=

>  <s_epik_input>  (1) 
W2NIXTFbY0hdW2NIXVtjSF1bY0hdYzFbQ0gyXU4oYzJbY0hdW2NIXVtjSF1bY0hdYzJGKVtDSDJdW0NIMl1bQ0BIXShbQ0gzXSlbQ0gyXVtOSF1TKD1PKSg9TylbTkhdUyg9TykoPU8pYzNjKENsKVtjSF1jKFtDSDNdKVtjSF1bY0hdMw==

>  <s_glide_docking_method>  (1) 
confgen

>  <s_i_glide_gridfile>  (1) 
gpcr_5ht2c_6bqh_protein_autoprepared_prepared

>  <s_lp_Force_Field>  (1) 
S-OPLS

>  <s_lp_Variant>  (1) 
DiffSBDD_10-2

>  <s_m_source_file>  (1) 
generated_GPCR_5HT2C_ligand_DiffSBDD_2026-06-23_prepared.sdf

>  <GenAI_Model>  (1) 
DiffSBDD

>  <Protein>  (1) 
GPCR_5HT2C

$$$$
DiffSBDD_26
     RDKit          3D

  0  0  0  0  0  0  0  0  0  0999 V3000
M  V30 BEGIN CTAB
M  V30 COUNTS 84 87 0 0 1
M  V30 BEGIN ATOM
M  V30 1 C 40.084973 27.864991 55.635926 0
M  V30 2 C 41.542281 34.927232 62.755121 0
M  V30 3 C 39.801745 28.986161 61.306085 0
M  V30 4 C 37.341324 33.562101 61.068507 0
M  V30 5 N 39.650456 30.283950 60.666980 0
M  V30 6 O 36.174141 31.461833 61.367526 0
M  V30 7 C 40.773240 32.357409 62.632274 0
M  V30 8 C 39.567813 32.378664 61.654275 0 CFG=1
M  V30 9 N 38.162810 26.696038 56.575758 0 CFG=2 CHG=1
M  V30 10 N 39.245032 29.417952 53.740072 0
M  V30 11 C 40.377989 27.990067 60.300399 0
M  V30 12 C 38.993533 28.726344 51.328813 0
M  V30 13 C 40.809451 35.147838 64.069457 0
M  V30 14 C 40.206011 26.871896 58.034582 0
M  V30 15 C 36.267405 32.543387 60.790318 0
M  V30 16 O 38.369359 30.456620 55.570593 0
M  V30 17 C 39.510634 27.837544 59.036062 0
M  V30 18 C 38.809789 30.501960 54.426022 0
M  V30 19 C 35.419440 34.137823 59.151883 0
M  V30 20 C 36.361143 35.023184 59.412169 0
M  V30 21 C 37.340638 34.734017 60.389829 0
M  V30 22 C 39.760775 29.562089 52.368395 0
M  V30 23 O 39.000147 31.077853 61.658108 0
M  V30 24 C 37.699486 24.305804 57.070003 0
M  V30 25 C 37.762258 27.564845 54.516824 0
M  V30 26 C 38.390348 33.242490 62.132176 0
M  V30 27 C 38.668091 30.174665 59.596017 0
M  V30 28 C 37.217676 25.611953 56.471309 0 CFG=2
M  V30 29 C 39.215353 29.251831 58.504183 0
M  V30 30 C 41.879098 33.435663 62.469753 0
M  V30 31 C 37.806975 26.231862 55.226036 0 CFG=2
M  V30 32 C 39.636478 26.723320 56.602710 0 CFG=2
M  V30 33 C 40.956165 35.647235 61.531687 0
M  V30 34 C 39.224660 28.046514 54.325977 0 CFG=2
M  V30 35 O 40.044971 29.834785 49.571017 0
M  V30 36 O 39.777126 28.537593 50.167769 0
M  V30 37 N 35.366757 32.914723 59.821779 0
M  V30 38 H 41.114192 27.652074 55.381345 0
M  V30 39 H 40.150859 28.806708 56.162211 0
M  V30 40 H 42.445133 35.484166 62.967758 0
M  V30 41 H 38.845773 28.629549 61.686599 0
M  V30 42 H 40.466305 29.072756 62.165823 0
M  V30 43 H 34.623230 32.281204 59.568822 0
M  V30 44 H 40.419124 32.308789 63.661403 0
M  V30 45 H 41.288485 31.407795 62.493071 0
M  V30 46 H 39.882988 32.692108 60.656222 0
M  V30 47 H 40.445066 27.044466 60.816527 0
M  V30 48 H 41.394710 28.281644 60.031653 0
M  V30 49 H 38.045373 29.193671 51.087457 0
M  V30 50 H 38.749580 27.727447 51.686512 0
M  V30 51 H 40.045126 34.402685 64.167944 0
M  V30 52 H 41.483546 35.018818 64.917180 0
M  V30 53 H 40.365868 36.141468 64.139231 0
M  V30 54 H 40.202958 25.881174 58.490895 0
M  V30 55 H 41.260651 27.136405 57.947749 0
M  V30 56 H 38.557903 27.392322 59.328112 0
M  V30 57 H 38.901637 31.420720 53.827467 0
M  V30 58 H 34.636656 34.280276 58.422006 0
M  V30 59 H 36.384873 35.963714 58.882115 0
M  V30 60 H 38.102190 35.466432 60.597366 0
M  V30 61 H 40.819961 29.337742 52.308833 0
M  V30 62 H 39.722219 30.606510 52.057306 0
M  V30 63 H 36.983288 23.515891 56.840440 0
M  V30 64 H 38.670106 24.012823 56.669317 0
M  V30 65 H 37.777810 24.390685 58.154579 0
M  V30 66 H 37.244739 28.309004 55.105639 0
M  V30 67 H 37.241942 27.466591 53.562160 0
M  V30 68 H 37.915304 32.734240 62.967759 0
M  V30 69 H 38.747499 34.195149 62.508437 0
M  V30 70 H 37.716046 29.801609 59.977648 0
M  V30 71 H 38.481378 31.164621 59.178377 0
M  V30 72 H 36.233966 25.940871 56.789230 0
M  V30 73 H 40.120244 29.707064 58.101029 0
M  V30 74 H 38.477052 29.204525 57.708404 0
M  V30 75 H 42.680350 33.158564 63.153154 0
M  V30 76 H 42.313038 33.337717 61.475127 0
M  V30 77 H 38.490868 25.535004 54.739405 0
M  V30 78 H 40.041758 25.788037 56.210928 0
M  V30 79 H 40.136498 35.098453 61.086915 0
M  V30 80 H 40.614432 36.654938 61.773674 0
M  V30 81 H 41.713863 35.738205 60.753019 0
M  V30 82 H 39.655000 27.350552 53.606712 0
M  V30 83 H 39.230575 29.980227 49.097434 0
M  V30 84 H 37.726753 27.587337 56.770552 0
M  V30 END ATOM
M  V30 BEGIN BOND
M  V30 1 1 5 3
M  V30 2 1 8 7
M  V30 3 1 11 3
M  V30 4 1 13 2
M  V30 5 1 15 4
M  V30 6 2 15 6
M  V30 7 1 17 11
M  V30 8 1 17 14
M  V30 9 1 18 10
M  V30 10 2 18 16
M  V30 11 2 20 19
M  V30 12 2 21 4
M  V30 13 1 21 20
M  V30 14 1 22 10
M  V30 15 1 22 12
M  V30 16 1 23 5
M  V30 17 1 23 8
M  V30 18 1 26 4
M  V30 19 1 26 8
M  V30 20 1 27 5
M  V30 21 1 28 9
M  V30 22 1 28 24
M  V30 23 1 29 17
M  V30 24 1 29 27
M  V30 25 1 30 2
M  V30 26 1 30 7
M  V30 27 1 31 9
M  V30 28 1 31 25
M  V30 29 1 31 28
M  V30 30 1 32 1
M  V30 31 1 32 9
M  V30 32 1 32 14
M  V30 33 1 33 2
M  V30 34 1 34 1
M  V30 35 1 34 10
M  V30 36 1 34 25
M  V30 37 1 36 12
M  V30 38 1 36 35
M  V30 39 1 37 15
M  V30 40 1 37 19
M  V30 41 1 38 1
M  V30 42 1 39 1
M  V30 43 1 40 2
M  V30 44 1 41 3
M  V30 45 1 42 3
M  V30 46 1 43 37
M  V30 47 1 44 7
M  V30 48 1 45 7
M  V30 49 1 8 46 CFG=3
M  V30 50 1 47 11
M  V30 51 1 48 11
M  V30 52 1 49 12
M  V30 53 1 50 12
M  V30 54 1 51 13
M  V30 55 1 52 13
M  V30 56 1 53 13
M  V30 57 1 54 14
M  V30 58 1 55 14
M  V30 59 1 56 17
M  V30 60 1 57 18
M  V30 61 1 58 19
M  V30 62 1 59 20
M  V30 63 1 60 21
M  V30 64 1 61 22
M  V30 65 1 62 22
M  V30 66 1 63 24
M  V30 67 1 64 24
M  V30 68 1 65 24
M  V30 69 1 66 25
M  V30 70 1 67 25
M  V30 71 1 68 26
M  V30 72 1 69 26
M  V30 73 1 70 27
M  V30 74 1 71 27
M  V30 75 1 28 72 CFG=3
M  V30 76 1 73 29
M  V30 77 1 74 29
M  V30 78 1 75 30
M  V30 79 1 76 30
M  V30 80 1 31 77 CFG=3
M  V30 81 1 32 78 CFG=3
M  V30 82 1 79 33
M  V30 83 1 80 33
M  V30 84 1 81 33
M  V30 85 1 34 82 CFG=3
M  V30 86 1 83 35
M  V30 87 1 9 84 CFG=3
M  V30 END BOND
M  V30 END CTAB
M  END
>  <i_epik_Tot_Q>  (1) 
1

>  <i_epik_Tot_abs_Q>  (1) 
1

>  <i_i_glide_confnum>  (1) 
1633

>  <i_i_glide_lignum>  (1) 
59

>  <i_i_glide_posenum>  (1) 
399

>  <i_i_glide_rotatable_bonds>  (1) 
15

>  <i_lp_mmshare_version>  (1) 
72125

>  <i_m_source_file_index>  (1) 
27

>  <i_f3d_flags>  (1) 
0

>  <num_sample>  (1) 
50

>  <b_lp_Chiralities_Consistent>  (1) 
1

>  <r_epik_Charging_Adjusted_Penalty>  (1) 
0.02425622639956965

>  <r_epik_Ionization_Penalty>  (1) 
0.033094864685368548

>  <r_epik_Ionization_Penalty_Charging>  (1) 
0.02425622639956965

>  <r_epik_Ionization_Penalty_Neutral>  (1) 
0.0088386382857988978

>  <r_epik_State_Penalty>  (1) 
-0

>  <r_glide_ring_energy>  (1) 
0

>  <r_i_docking_score>  (1) 
-8.9383936827995516

>  <r_i_glide_ecoul>  (1) 
-6.5829550586206818

>  <r_i_glide_eff_state_penalty>  (1) 
-0

>  <r_i_glide_einternal>  (1) 
14.684593429539987

>  <r_i_glide_emodel>  (1) 
-64.327452497225593

>  <r_i_glide_emodel_strain>  (1) 
4.1130215575839628

>  <r_i_glide_energy>  (1) 
-52.030793794159038

>  <r_i_glide_erotb>  (1) 
0.83677420797818713

>  <r_i_glide_esite>  (1) 
-0.040086870672153427

>  <r_i_glide_evdw>  (1) 
-45.447838735538355

>  <r_i_glide_gscore>  (1) 
-8.9383936827995516

>  <r_i_glide_gscore_strain>  (1) 
0.028255389395990704

>  <r_i_glide_hbond>  (1) 
-0.60799999999999998

>  <r_i_glide_ligand_efficiency>  (1) 
-0.24157820764323112

>  <r_i_glide_ligand_efficiency_ln>  (1) 
-1.9385280441207529

>  <r_i_glide_ligand_efficiency_sa>  (1) 
-0.80499218239023829

>  <r_i_glide_lipo>  (1) 
-4.8079930696297284

>  <r_i_glide_metal>  (1) 
-0

>  <r_i_glide_rewards>  (1) 
-1.0875081443018266

>  <r_lp_Energy>  (1) 
62.164225999999999

>  <r_lp_tautomer_probability>  (1) 
1

>  <s_epik_Chemistry_Notes>  (1) 
This compound has a N-S or N-O group and may undergo hydrolysis at high or low pH.

>  <s_epik_cmdline>  (1) 
J2VwaWtfcHl0aG9uJywgJy1waHQnLCAnMS4wJywgJy1waCcsICc3LjQnLCAnLXRuJywgJzgnLCAnLW1hJywgJzUwMCcsICctaW1hZScsICc8aW5maWxlLm1hZT4nLCAnLW9tYWUnLCAnPG91dGZpbGUubWFlPic=

>  <s_epik_input>  (1) 
W09IXU9bQ0gyXVtDSDJdTihbQ0hdPU8pW0NASF0oW0NIMl1bQ0BASF0oTjEyKVtDQEhdMVtDSDNdKVtDSDJdW0NASF0yW0NIMl1bQ0hdKFtDSDJdW0NIMl0zKVtDSDJdW0NIMl1OM09bQ0BIXShbQ0gyXVtDSDJdW0NIXShbQ0gzXSlbQ0gzXSlbQ0gyXVtDQEBIXTRDKD1PKU49W0NIXVtDSF09W0NIXTQ=

>  <s_glide_docking_method>  (1) 
confgen

>  <s_i_glide_gridfile>  (1) 
gpcr_5ht2c_6bqh_protein_autoprepared_prepared

>  <s_lp_Force_Field>  (1) 
S-OPLS

>  <s_lp_Variant>  (1) 
DiffSBDD_26-4

>  <s_m_source_file>  (1) 
generated_GPCR_5HT2C_ligand_DiffSBDD_2026-06-23_prepared.sdf

>  <GenAI_Model>  (1) 
DiffSBDD

>  <Protein>  (1) 
GPCR_5HT2C

$$$$
DiffSBDD_26
     RDKit          3D

  0  0  0  0  0  0  0  0  0  0999 V3000
M  V30 BEGIN CTAB
M  V30 COUNTS 84 87 0 0 1
M  V30 BEGIN ATOM
M  V30 1 C 40.319701 31.398439 63.168728 0
M  V30 2 C 40.079318 29.479061 51.616306 0
M  V30 3 C 38.022161 30.907655 57.491802 0
M  V30 4 C 38.945837 26.111594 55.929707 0
M  V30 5 N 38.934976 29.776132 57.324308 0
M  V30 6 O 39.353615 25.737771 58.280850 0
M  V30 7 C 39.189339 28.621873 53.873354 0
M  V30 8 C 39.571700 28.607943 55.370887 0 CFG=1
M  V30 9 N 40.153663 33.179916 61.367646 0 CFG=1 CHG=1
M  V30 10 N 42.295451 31.304229 64.701212 0
M  V30 11 C 38.274189 31.654310 58.825727 0
M  V30 12 C 44.422141 30.210596 65.693036 0
M  V30 13 C 40.431099 30.733198 50.805258 0
M  V30 14 C 38.438330 31.328140 61.420524 0
M  V30 15 C 38.723810 25.458855 57.265986 0
M  V30 16 O 40.845138 32.399777 66.084076 0
M  V30 17 C 38.169298 30.697669 60.031283 0
M  V30 18 C 41.772896 31.610821 65.915676 0
M  V30 19 C 37.005221 24.138112 56.149849 0
M  V30 20 C 37.212628 24.715550 54.984833 0
M  V30 21 C 38.200480 25.720886 54.867725 0
M  V30 22 C 43.373617 30.298595 64.558522 0
M  V30 23 O 38.461514 29.096091 56.131423 0
M  V30 24 C 38.868570 35.271840 61.307580 0
M  V30 25 C 41.785388 33.418259 63.360852 0
M  V30 26 C 40.032562 27.190281 55.821592 0
M  V30 27 C 38.689062 28.836920 58.411695 0
M  V30 28 C 39.561140 34.233429 62.165691 0 CFG=2
M  V30 29 C 39.023335 29.449659 59.769424 0
M  V30 30 C 39.640717 29.845973 53.055764 0
M  V30 31 C 41.064796 34.027839 62.150861 0 CFG=2
M  V30 32 C 39.899799 31.757605 61.731642 0 CFG=2
M  V30 33 C 39.065294 28.590170 50.871562 0
M  V30 34 C 41.745500 31.877408 63.444465 0 CFG=2
M  V30 35 O 46.045084 31.337759 66.909539 0
M  V30 36 O 45.149556 31.421404 65.767783 0
M  V30 37 N 37.741538 24.497743 57.278498 0
M  V30 38 H 40.259199 30.317409 63.305317 0
M  V30 39 H 39.645132 31.837457 63.896260 0
M  V30 40 H 40.999150 28.899320 51.691172 0
M  V30 41 H 36.996023 30.537748 57.466824 0
M  V30 42 H 38.132198 31.591137 56.649627 0
M  V30 43 H 37.535639 24.013543 58.139828 0
M  V30 44 H 39.645129 27.753676 53.406549 0
M  V30 45 H 38.114606 28.477414 53.755030 0
M  V30 46 H 40.427646 29.273990 55.496621 0
M  V30 47 H 37.540217 32.454804 58.925075 0
M  V30 48 H 39.245125 32.139593 58.794451 0
M  V30 49 H 45.123558 29.406930 65.461236 0
M  V30 50 H 43.982042 29.948016 66.655267 0
M  V30 51 H 39.557682 31.357699 50.620838 0
M  V30 52 H 41.166366 31.337699 51.333091 0
M  V30 53 H 40.860708 30.472958 49.836956 0
M  V30 54 H 38.142755 30.578597 62.156310 0
M  V30 55 H 37.748985 32.156230 61.589142 0
M  V30 56 H 37.131202 30.359364 60.052755 0
M  V30 57 H 42.278208 31.064975 66.721392 0
M  V30 58 H 36.274849 23.362935 56.319963 0
M  V30 59 H 36.631448 24.422853 54.123451 0
M  V30 60 H 38.361469 26.175823 53.907490 0
M  V30 61 H 43.918767 30.453674 63.628901 0
M  V30 62 H 42.894373 29.323833 64.454596 0
M  V30 63 H 38.546652 36.108420 61.928115 0
M  V30 64 H 39.536858 35.655910 60.536105 0
M  V30 65 H 37.987666 34.842587 60.828895 0
M  V30 66 H 41.344702 33.884920 64.239551 0
M  V30 67 H 42.824985 33.741483 63.367782 0
M  V30 68 H 40.779333 26.812242 55.124637 0
M  V30 69 H 40.589514 27.274971 56.752636 0
M  V30 70 H 37.667638 28.454286 58.383065 0
M  V30 71 H 39.368909 28.012858 58.283651 0
M  V30 72 H 38.970179 33.808631 62.967741 0
M  V30 73 H 40.088665 29.671246 59.767808 0
M  V30 74 H 38.860706 28.709167 60.553210 0
M  V30 75 H 38.845089 30.587073 53.042691 0
M  V30 76 H 40.473292 30.342712 53.550877 0
M  V30 77 H 41.651135 34.660251 61.489345 0
M  V30 78 H 40.582884 31.206666 61.091700 0
M  V30 79 H 38.045385 28.938551 51.014675 0
M  V30 80 H 39.267347 28.563578 49.800305 0
M  V30 81 H 39.099061 27.558643 51.222233 0
M  V30 82 H 42.359930 31.514458 62.620893 0
M  V30 83 H 46.732027 30.772545 66.567783 0
M  V30 84 H 40.103948 33.402757 60.383926 0
M  V30 END ATOM
M  V30 BEGIN BOND
M  V30 1 1 5 3
M  V30 2 1 8 7
M  V30 3 1 11 3
M  V30 4 1 13 2
M  V30 5 1 15 4
M  V30 6 2 15 6
M  V30 7 1 17 11
M  V30 8 1 17 14
M  V30 9 1 18 10
M  V30 10 2 18 16
M  V30 11 2 20 19
M  V30 12 2 21 4
M  V30 13 1 21 20
M  V30 14 1 22 10
M  V30 15 1 22 12
M  V30 16 1 23 5
M  V30 17 1 23 8
M  V30 18 1 26 4
M  V30 19 1 26 8
M  V30 20 1 27 5
M  V30 21 1 28 9
M  V30 22 1 28 24
M  V30 23 1 29 17
M  V30 24 1 29 27
M  V30 25 1 30 2
M  V30 26 1 30 7
M  V30 27 1 31 9
M  V30 28 1 31 25
M  V30 29 1 31 28
M  V30 30 1 32 1
M  V30 31 1 32 9
M  V30 32 1 32 14
M  V30 33 1 33 2
M  V30 34 1 34 1
M  V30 35 1 34 10
M  V30 36 1 34 25
M  V30 37 1 36 12
M  V30 38 1 36 35
M  V30 39 1 37 15
M  V30 40 1 37 19
M  V30 41 1 38 1
M  V30 42 1 39 1
M  V30 43 1 40 2
M  V30 44 1 41 3
M  V30 45 1 42 3
M  V30 46 1 43 37
M  V30 47 1 44 7
M  V30 48 1 45 7
M  V30 49 1 8 46 CFG=3
M  V30 50 1 47 11
M  V30 51 1 48 11
M  V30 52 1 49 12
M  V30 53 1 50 12
M  V30 54 1 51 13
M  V30 55 1 52 13
M  V30 56 1 53 13
M  V30 57 1 54 14
M  V30 58 1 55 14
M  V30 59 1 56 17
M  V30 60 1 57 18
M  V30 61 1 58 19
M  V30 62 1 59 20
M  V30 63 1 60 21
M  V30 64 1 61 22
M  V30 65 1 62 22
M  V30 66 1 63 24
M  V30 67 1 64 24
M  V30 68 1 65 24
M  V30 69 1 66 25
M  V30 70 1 67 25
M  V30 71 1 68 26
M  V30 72 1 69 26
M  V30 73 1 70 27
M  V30 74 1 71 27
M  V30 75 1 28 72 CFG=1
M  V30 76 1 73 29
M  V30 77 1 74 29
M  V30 78 1 75 30
M  V30 79 1 76 30
M  V30 80 1 31 77 CFG=3
M  V30 81 1 32 78 CFG=3
M  V30 82 1 79 33
M  V30 83 1 80 33
M  V30 84 1 81 33
M  V30 85 1 34 82 CFG=3
M  V30 86 1 83 35
M  V30 87 1 9 84 CFG=3
M  V30 END BOND
M  V30 END CTAB
M  END
>  <i_epik_Tot_Q>  (1) 
1

>  <i_epik_Tot_abs_Q>  (1) 
1

>  <i_i_glide_confnum>  (1) 
919

>  <i_i_glide_lignum>  (1) 
58

>  <i_i_glide_posenum>  (1) 
270

>  <i_i_glide_rotatable_bonds>  (1) 
15

>  <i_lp_mmshare_version>  (1) 
72125

>  <i_m_source_file_index>  (1) 
27

>  <i_f3d_flags>  (1) 
0

>  <num_sample>  (1) 
50

>  <b_lp_Chiralities_Consistent>  (1) 
1

>  <r_epik_Charging_Adjusted_Penalty>  (1) 
0.02425622639956965

>  <r_epik_Ionization_Penalty>  (1) 
0.033094864685368548

>  <r_epik_Ionization_Penalty_Charging>  (1) 
0.02425622639956965

>  <r_epik_Ionization_Penalty_Neutral>  (1) 
0.0088386382857988978

>  <r_epik_State_Penalty>  (1) 
-0

>  <r_glide_ring_energy>  (1) 
0

>  <r_i_docking_score>  (1) 
-8.9227796502280565

>  <r_i_glide_ecoul>  (1) 
-4.1581431341183439

>  <r_i_glide_eff_state_penalty>  (1) 
-0

>  <r_i_glide_einternal>  (1) 
20.525470981142934

>  <r_i_glide_emodel>  (1) 
-67.307532740523484

>  <r_i_glide_emodel_strain>  (1) 
3.5763585328769523

>  <r_i_glide_energy>  (1) 
-57.342350782917677

>  <r_i_glide_erotb>  (1) 
0.83677420797818713

>  <r_i_glide_esite>  (1) 
-0.004379074491507727

>  <r_i_glide_evdw>  (1) 
-53.184207648799337

>  <r_i_glide_gscore>  (1) 
-8.9227796502280565

>  <r_i_glide_gscore_strain>  (1) 
0

>  <r_i_glide_hbond>  (1) 
-0.32000000000000001

>  <r_i_glide_ligand_efficiency>  (1) 
-0.24115620676292043

>  <r_i_glide_ligand_efficiency_ln>  (1) 
-1.9351417265008539

>  <r_i_glide_ligand_efficiency_sa>  (1) 
-0.80358598183545327

>  <r_i_glide_lipo>  (1) 
-5.2490508183261824

>  <r_i_glide_metal>  (1) 
-0

>  <r_i_glide_rewards>  (1) 
-0.90319211283083434

>  <r_lp_Energy>  (1) 
54.376549999999995

>  <r_lp_tautomer_probability>  (1) 
1

>  <s_epik_Chemistry_Notes>  (1) 
This compound has a N-S or N-O group and may undergo hydrolysis at high or low pH.

>  <s_epik_cmdline>  (1) 
J2VwaWtfcHl0aG9uJywgJy1waHQnLCAnMS4wJywgJy1waCcsICc3LjQnLCAnLXRuJywgJzgnLCAnLW1hJywgJzUwMCcsICctaW1hZScsICc8aW5maWxlLm1hZT4nLCAnLW9tYWUnLCAnPG91dGZpbGUubWFlPic=

>  <s_epik_input>  (1) 
W09IXU9bQ0gyXVtDSDJdTihbQ0hdPU8pW0NASF0oW0NIMl1bQ0BASF0oTjEyKVtDQEhdMVtDSDNdKVtDSDJdW0NASF0yW0NIMl1bQ0hdKFtDSDJdW0NIMl0zKVtDSDJdW0NIMl1OM09bQ0BIXShbQ0gyXVtDSDJdW0NIXShbQ0gzXSlbQ0gzXSlbQ0gyXVtDQEBIXTRDKD1PKU49W0NIXVtDSF09W0NIXTQ=

>  <s_glide_docking_method>  (1) 
confgen

>  <s_i_glide_gridfile>  (1) 
gpcr_5ht2c_6bqh_protein_autoprepared_prepared

>  <s_lp_Force_Field>  (1) 
S-OPLS

>  <s_lp_Variant>  (1) 
DiffSBDD_26-3

>  <s_m_source_file>  (1) 
generated_GPCR_5HT2C_ligand_DiffSBDD_2026-06-23_prepared.sdf

>  <GenAI_Model>  (1) 
DiffSBDD

>  <Protein>  (1) 
GPCR_5HT2C

$$$$
DiffSBDD_34
     RDKit          3D

  0  0  0  0  0  0  0  0  0  0999 V3000
M  V30 BEGIN CTAB
M  V30 COUNTS 81 84 0 0 1
M  V30 BEGIN ATOM
M  V30 1 C 38.899675 35.141692 60.411685 0
M  V30 2 C 40.078752 27.012130 58.072474 0 CFG=1
M  V30 3 C 38.642626 31.658200 60.179823 0
M  V30 4 C 37.204628 31.958306 59.746523 0
M  V30 5 O 40.102475 32.296290 63.564088 0
M  V30 6 C 39.448795 28.075277 59.018922 0
M  V30 7 O 41.022488 31.474425 61.615671 0
M  V30 8 C 41.556185 33.710900 62.271190 0 CFG=1
M  V30 9 C 37.490452 33.319188 57.650177 0 CFG=2
M  V30 10 C 39.061714 26.349623 57.174540 0
M  V30 11 C 40.235071 30.300341 61.637388 0 CFG=2
M  V30 12 C 38.947894 36.629180 62.486040 0
M  V30 13 O 36.517988 35.799796 59.367367 0
M  V30 14 C 40.839904 35.041505 62.023222 0 CFG=2
M  V30 15 O 38.045138 31.022023 62.411216 0
M  V30 16 C 38.387083 28.923851 52.684310 0
M  V30 17 O 36.529739 34.303514 61.411104 0
M  V30 18 N 40.845056 29.319315 60.728158 0
M  V30 19 C 40.083563 28.119073 60.432889 0
M  V30 20 C 38.044985 32.089263 56.902831 0 CFG=1
M  V30 21 S 37.122107 34.696813 60.124940 0
M  V30 22 O 37.827429 32.035492 55.494109 0
M  V30 23 C 41.537421 34.792642 63.339232 0
M  V30 24 C 38.714816 36.724279 63.986386 0
M  V30 25 C 38.139619 25.432280 57.621790 0
M  V30 26 S 37.133408 24.854982 56.337032 0
M  V30 27 C 38.943279 26.576536 55.756020 0
M  V30 28 O 38.844840 37.622049 61.767766 0
M  V30 29 C 38.927022 33.247114 57.217282 0
M  V30 30 C 38.843103 31.371490 54.754807 0
M  V30 31 C 40.814188 32.433950 62.569605 0
M  V30 32 C 41.283816 27.572923 57.287948 0
M  V30 33 O 37.799143 29.315570 53.914489 0
M  V30 34 N 37.145478 33.271265 59.097460 0
M  V30 35 C 38.727341 29.841310 54.854015 0
M  V30 36 C 37.944954 25.838454 55.175936 0
M  V30 37 C 39.325686 35.244914 61.903928 0 CFG=2
M  V30 38 C 38.750942 30.612318 61.276883 0 CFG=1
M  V30 39 N 42.404862 27.942723 58.167566 0 CHG=1
M  V30 40 H 39.537722 34.476895 59.840060 0
M  V30 41 H 39.019089 36.110872 59.939797 0
M  V30 42 H 40.444959 26.193631 58.681812 0
M  V30 43 H 39.089592 32.568831 60.544914 0
M  V30 44 H 39.245136 31.337268 59.333582 0
M  V30 45 H 36.804080 31.181390 59.096665 0
M  V30 46 H 36.531567 31.970336 60.602520 0
M  V30 47 H 38.402394 27.813923 59.175249 0
M  V30 48 H 39.423022 29.057969 58.545345 0
M  V30 49 H 42.445006 33.576410 61.663600 0
M  V30 50 H 36.845163 34.003011 57.121733 0
M  V30 51 H 40.271411 29.875351 62.643003 0
M  V30 52 H 41.380186 35.721957 61.366258 0
M  V30 53 H 38.611481 31.588611 62.925898 0
M  V30 54 H 37.610598 28.607015 51.988718 0
M  V30 55 H 38.941473 29.737961 52.220882 0
M  V30 56 H 39.065441 28.083436 52.827107 0
M  V30 57 H 41.646028 28.953222 61.236578 0
M  V30 58 H 40.812718 27.337765 60.523990 0
M  V30 59 H 39.347867 27.909238 61.210185 0
M  V30 60 H 38.217854 31.134019 57.386316 0
M  V30 61 H 42.445036 35.361980 63.522069 0
M  V30 62 H 40.933140 34.616215 64.225951 0
M  V30 63 H 39.344927 36.035662 64.539380 0
M  V30 64 H 38.956242 37.728783 64.332394 0
M  V30 65 H 37.667586 36.534718 64.219401 0
M  V30 66 H 38.000745 25.063075 58.625299 0
M  V30 67 H 39.585032 27.257639 55.224076 0
M  V30 68 H 39.245138 33.737779 56.308272 0
M  V30 69 H 39.661285 33.150059 58.002058 0
M  V30 70 H 38.775573 31.685774 53.714248 0
M  V30 71 H 39.824934 31.693837 55.104407 0
M  V30 72 H 41.644994 26.828537 56.580202 0
M  V30 73 H 40.992113 28.445269 56.702487 0
M  V30 74 H 39.712054 29.399568 54.698506 0
M  V30 75 H 38.414536 29.533968 55.851808 0
M  V30 76 H 37.643218 25.817768 54.138651 0
M  V30 77 H 38.835998 34.467150 62.490165 0
M  V30 78 H 38.230837 29.728384 60.935508 0
M  V30 79 H 43.164226 28.312376 57.613404 0
M  V30 80 H 42.097954 28.643303 58.831195 0
M  V30 81 H 42.729198 27.127115 58.670551 0
M  V30 END ATOM
M  V30 BEGIN BOND
M  V30 1 1 4 3
M  V30 2 1 6 2
M  V30 3 1 10 2
M  V30 4 1 11 7
M  V30 5 1 14 8
M  V30 6 1 18 11
M  V30 7 1 19 6
M  V30 8 1 19 18
M  V30 9 1 20 9
M  V30 10 1 21 1
M  V30 11 2 21 13
M  V30 12 2 21 17
M  V30 13 1 22 20
M  V30 14 1 23 8
M  V30 15 1 23 14
M  V30 16 1 24 12
M  V30 17 2 25 10
M  V30 18 1 26 25
M  V30 19 1 27 10
M  V30 20 2 28 12
M  V30 21 1 29 9
M  V30 22 1 29 20
M  V30 23 1 30 22
M  V30 24 2 31 5
M  V30 25 1 31 7
M  V30 26 1 31 8
M  V30 27 1 32 2
M  V30 28 1 33 16
M  V30 29 1 34 4
M  V30 30 1 34 9
M  V30 31 1 34 21
M  V30 32 1 35 30
M  V30 33 1 35 33
M  V30 34 1 36 26
M  V30 35 2 36 27
M  V30 36 1 37 1
M  V30 37 1 37 12
M  V30 38 1 37 14
M  V30 39 1 38 3
M  V30 40 1 38 11
M  V30 41 1 38 15
M  V30 42 1 39 32
M  V30 43 1 40 1
M  V30 44 1 41 1
M  V30 45 1 2 42 CFG=1
M  V30 46 1 43 3
M  V30 47 1 44 3
M  V30 48 1 45 4
M  V30 49 1 46 4
M  V30 50 1 47 6
M  V30 51 1 48 6
M  V30 52 1 8 49 CFG=3
M  V30 53 1 9 50 CFG=3
M  V30 54 1 11 51 CFG=1
M  V30 55 1 14 52 CFG=3
M  V30 56 1 53 15
M  V30 57 1 54 16
M  V30 58 1 55 16
M  V30 59 1 56 16
M  V30 60 1 57 18
M  V30 61 1 58 19
M  V30 62 1 59 19
M  V30 63 1 20 60 CFG=1
M  V30 64 1 61 23
M  V30 65 1 62 23
M  V30 66 1 63 24
M  V30 67 1 64 24
M  V30 68 1 65 24
M  V30 69 1 66 25
M  V30 70 1 67 27
M  V30 71 1 68 29
M  V30 72 1 69 29
M  V30 73 1 70 30
M  V30 74 1 71 30
M  V30 75 1 72 32
M  V30 76 1 73 32
M  V30 77 1 74 35
M  V30 78 1 75 35
M  V30 79 1 76 36
M  V30 80 1 37 77 CFG=1
M  V30 81 1 38 78 CFG=3
M  V30 82 1 79 39
M  V30 83 1 80 39
M  V30 84 1 81 39
M  V30 END BOND
M  V30 END CTAB
M  END
>  <i_epik_Tot_Q>  (1) 
1

>  <i_epik_Tot_abs_Q>  (1) 
1

>  <i_i_glide_confnum>  (1) 
140

>  <i_i_glide_lignum>  (1) 
73

>  <i_i_glide_posenum>  (1) 
235

>  <i_i_glide_rotatable_bonds>  (1) 
13

>  <i_lp_mmshare_version>  (1) 
72125

>  <i_m_source_file_index>  (1) 
35

>  <i_f3d_flags>  (1) 
0

>  <num_sample>  (1) 
50

>  <b_lp_Chiralities_Consistent>  (1) 
1

>  <r_epik_Charging_Adjusted_Penalty>  (1) 
0.090149450246829993

>  <r_epik_Ionization_Penalty>  (1) 
0.090149516537110494

>  <r_epik_Ionization_Penalty_Charging>  (1) 
0.0016683723163481864

>  <r_epik_Ionization_Penalty_Neutral>  (1) 
0.088481144220762309

>  <r_epik_State_Penalty>  (1) 
0.088481077930481808

>  <r_glide_ring_energy>  (1) 
0

>  <r_i_docking_score>  (1) 
-8.9179139889269852

>  <r_i_glide_ecoul>  (1) 
-3.6246743888212292

>  <r_i_glide_eff_state_penalty>  (1) 
0.088481077930481808

>  <r_i_glide_einternal>  (1) 
44.332806177482837

>  <r_i_glide_emodel>  (1) 
-43.390766100313904

>  <r_i_glide_emodel_strain>  (1) 
2.0610639358611067

>  <r_i_glide_energy>  (1) 
-54.04233443241661

>  <r_i_glide_erotb>  (1) 
0.37606535851870204

>  <r_i_glide_esite>  (1) 
-0.065935145371014373

>  <r_i_glide_evdw>  (1) 
-50.417660043595383

>  <r_i_glide_gscore>  (1) 
-9.0063950668574666

>  <r_i_glide_gscore_strain>  (1) 
0

>  <r_i_glide_hbond>  (1) 
-0.50845154949019855

>  <r_i_glide_ligand_efficiency>  (1) 
-0.22866446125453807

>  <r_i_glide_ligand_efficiency_ln>  (1) 
-1.912253909268699

>  <r_i_glide_ligand_efficiency_sa>  (1) 
-0.77544953761705915

>  <r_i_glide_lipo>  (1) 
-4.4354812272072248

>  <r_i_glide_metal>  (1) 
-0

>  <r_i_glide_rewards>  (1) 
-1.3080083428047793

>  <r_lp_Energy>  (1) 
30.250912

>  <r_lp_tautomer_probability>  (1) 
0.9999999700000004

>  <s_epik_Chemistry_Notes>  (1) 
This compound has an ester and may undergo hydrolysis at high or low pH. This compound contains an acetal/aminal-like group ( X-CH(R)-Y where X, Y are N, S, or O) that may be acid/base labile, releasing an aldehyde.

>  <s_epik_cmdline>  (1) 
J2VwaWtfcHl0aG9uJywgJy1waHQnLCAnMS4wJywgJy1waCcsICc3LjQnLCAnLXRuJywgJzgnLCAnLW1hJywgJzUwMCcsICctaW1hZScsICc8aW5maWxlLm1hZT4nLCAnLW9tYWUnLCAnPG91dGZpbGUubWFlPic=

>  <s_epik_input>  (1) 
W0NIM11PW0NIMl1bQ0gyXU9bQ0BASF0oW0NIMl0xKVtDSF0xTihTKD1PKSg9TylbQ0gyXVtDQEhdKEMoPU8pW0NIM10pW0NASF0oW0NIXTIzKVtDSDJdMilbQ0gyXVtDSDJdW0NASF0oW09IXSlbQ0BIXShPQzM9TylbTkhdW0NIMl1bQ0gyXVtDQEhdKFtDSDJdW05IMl0pYzRbY0hdc1tjSF1bY0hdNA==

>  <s_glide_docking_method>  (1) 
confgen

>  <s_i_glide_gridfile>  (1) 
gpcr_5ht2c_6bqh_protein_autoprepared_prepared

>  <s_lp_Force_Field>  (1) 
S-OPLS

>  <s_lp_Variant>  (1) 
DiffSBDD_34-1

>  <s_m_source_file>  (1) 
generated_GPCR_5HT2C_ligand_DiffSBDD_2026-06-23_prepared.sdf

>  <GenAI_Model>  (1) 
DiffSBDD

>  <Protein>  (1) 
GPCR_5HT2C

$$$$
DiffSBDD_41
     RDKit          3D

  0  0  0  0  0  0  0  0  0  0999 V3000
M  V30 BEGIN CTAB
M  V30 COUNTS 70 74 0 0 1
M  V30 BEGIN ATOM
M  V30 1 C 39.593804 26.140720 56.023181 0
M  V30 2 O 38.845160 32.222793 59.446259 0
M  V30 3 C 38.414249 30.908571 59.096546 0 CFG=1
M  V30 4 C 39.710165 32.537660 56.567675 0
M  V30 5 C 38.807107 25.471236 57.153179 0
M  V30 6 C 37.645308 28.724320 55.411353 0
M  V30 7 C 40.015763 28.378313 50.739217 0
M  V30 8 C 39.416422 27.337776 51.459663 0
M  V30 9 C 40.186309 33.585527 62.599418 0
M  V30 10 C 39.245126 31.160490 53.254853 0
M  V30 11 C 37.054176 30.659079 59.779291 0
M  V30 12 C 39.842791 35.673263 61.916428 0
M  V30 13 N 40.261235 34.868309 62.902990 0
M  V30 14 C 38.276235 30.722599 57.554092 0 CFG=1
M  V30 15 C 38.557249 28.447481 56.647642 0
M  V30 16 C 39.635103 33.521262 61.280087 0
M  V30 17 O 42.127248 35.737746 64.115521 0
M  V30 18 O 40.522629 32.650728 63.328520 0
M  V30 19 C 37.764681 27.697396 57.746661 0
M  V30 20 C 37.491781 26.222285 57.384543 0
M  V30 21 N 38.439560 31.869649 56.677825 0
M  V30 22 O 39.822903 36.903280 61.971504 0
M  V30 23 O 39.116951 29.667473 57.171856 0
M  V30 24 C 38.842839 27.595952 52.704136 0
M  V30 25 C 37.870881 31.748934 55.355203 0
M  V30 26 C 40.770004 35.368028 64.186977 0
M  V30 27 C 38.845058 28.903551 53.211100 0
M  V30 28 C 39.386978 32.331060 60.703076 0
M  V30 29 C 40.045137 29.683430 51.264532 0
M  V30 30 C 37.892723 35.156555 60.298615 0
M  V30 31 N 38.316761 29.449108 54.373784 0
M  V30 32 C 39.365615 34.890167 60.653446 0 CFG=1
M  V30 33 C 39.838546 27.633509 56.313004 0
M  V30 34 C 38.493559 30.837788 54.340438 0
M  V30 35 C 39.440878 29.977810 52.511589 0
M  V30 36 H 39.042951 26.017545 55.096223 0
M  V30 37 H 40.546587 25.631235 55.879266 0
M  V30 38 H 39.133380 30.163953 59.444473 0
M  V30 39 H 39.644666 33.378933 55.878953 0
M  V30 40 H 40.036384 32.942516 57.518481 0
M  V30 41 H 40.445116 31.847088 56.164694 0
M  V30 42 H 38.608014 24.428085 56.906471 0
M  V30 43 H 39.400180 25.466252 58.068784 0
M  V30 44 H 37.245205 27.806311 54.983064 0
M  V30 45 H 36.802261 29.337752 55.693953 0
M  V30 46 H 40.445136 28.178606 49.774102 0
M  V30 47 H 39.396711 26.338952 51.050913 0
M  V30 48 H 39.555009 32.137587 52.958089 0
M  V30 49 H 36.682039 29.655075 59.590818 0
M  V30 50 H 37.123417 30.772810 60.860472 0
M  V30 51 H 36.304594 31.365538 59.420004 0
M  V30 52 H 37.247378 30.403366 57.401882 0
M  V30 53 H 42.201326 36.648288 64.394840 0
M  V30 54 H 38.322616 27.733513 58.683214 0
M  V30 55 H 36.817497 28.198340 57.930195 0
M  V30 56 H 36.867406 26.153115 56.493096 0
M  V30 57 H 36.921817 25.730075 58.167755 0
M  V30 58 H 38.371788 26.799496 53.254552 0
M  V30 59 H 37.789314 32.749534 54.928065 0
M  V30 60 H 36.845150 31.439455 55.451710 0
M  V30 61 H 40.665183 34.624640 64.979119 0
M  V30 62 H 40.188622 36.233225 64.511032 0
M  V30 63 H 39.579738 31.372031 61.164356 0
M  V30 64 H 40.503193 30.477891 50.694442 0
M  V30 65 H 37.242063 35.036982 61.166773 0
M  V30 66 H 37.761242 36.171003 59.921020 0
M  V30 67 H 37.541690 34.471708 59.525330 0
M  V30 68 H 40.045123 35.053003 59.817258 0
M  V30 69 H 40.383462 28.089976 55.487783 0
M  V30 70 H 40.516668 27.691621 57.165058 0
M  V30 END ATOM
M  V30 BEGIN BOND
M  V30 1 1 3 2
M  V30 2 1 5 1
M  V30 3 2 8 7
M  V30 4 1 11 3
M  V30 5 1 13 9
M  V30 6 1 13 12
M  V30 7 1 14 3
M  V30 8 1 15 6
M  V30 9 1 16 9
M  V30 10 2 18 9
M  V30 11 1 19 15
M  V30 12 1 20 5
M  V30 13 1 20 19
M  V30 14 1 21 4
M  V30 15 1 21 14
M  V30 16 2 22 12
M  V30 17 1 23 14
M  V30 18 1 23 15
M  V30 19 1 24 8
M  V30 20 1 25 21
M  V30 21 1 26 13
M  V30 22 1 26 17
M  V30 23 2 27 24
M  V30 24 1 28 2
M  V30 25 2 28 16
M  V30 26 1 29 7
M  V30 27 1 31 6
M  V30 28 1 31 27
M  V30 29 1 32 12
M  V30 30 1 32 16
M  V30 31 1 32 30
M  V30 32 1 33 1
M  V30 33 1 33 15
M  V30 34 2 34 10
M  V30 35 1 34 25
M  V30 36 1 34 31
M  V30 37 1 35 10
M  V30 38 1 35 27
M  V30 39 2 35 29
M  V30 40 1 36 1
M  V30 41 1 37 1
M  V30 42 1 3 38 CFG=1
M  V30 43 1 39 4
M  V30 44 1 40 4
M  V30 45 1 41 4
M  V30 46 1 42 5
M  V30 47 1 43 5
M  V30 48 1 44 6
M  V30 49 1 45 6
M  V30 50 1 46 7
M  V30 51 1 47 8
M  V30 52 1 48 10
M  V30 53 1 49 11
M  V30 54 1 50 11
M  V30 55 1 51 11
M  V30 56 1 14 52 CFG=1
M  V30 57 1 53 17
M  V30 58 1 54 19
M  V30 59 1 55 19
M  V30 60 1 56 20
M  V30 61 1 57 20
M  V30 62 1 58 24
M  V30 63 1 59 25
M  V30 64 1 60 25
M  V30 65 1 61 26
M  V30 66 1 62 26
M  V30 67 1 63 28
M  V30 68 1 64 29
M  V30 69 1 65 30
M  V30 70 1 66 30
M  V30 71 1 67 30
M  V30 72 1 32 68 CFG=3
M  V30 73 1 69 33
M  V30 74 1 70 33
M  V30 END BOND
M  V30 END CTAB
M  END
>  <i_epik_Tot_Q>  (1) 
0

>  <i_epik_Tot_abs_Q>  (1) 
0

>  <i_i_glide_confnum>  (1) 
25

>  <i_i_glide_lignum>  (1) 
87

>  <i_i_glide_posenum>  (1) 
161

>  <i_i_glide_rotatable_bonds>  (1) 
5

>  <i_lp_mmshare_version>  (1) 
72125

>  <i_m_source_file_index>  (1) 
42

>  <i_f3d_flags>  (1) 
0

>  <num_sample>  (1) 
50

>  <b_lp_Chiralities_Consistent>  (1) 
1

>  <r_epik_Charging_Adjusted_Penalty>  (1) 
0.17305261392596941

>  <r_epik_Ionization_Penalty>  (1) 
0.17312613183816786

>  <r_epik_Ionization_Penalty_Charging>  (1) 
0

>  <r_epik_Ionization_Penalty_Neutral>  (1) 
0.17312613183816786

>  <r_epik_State_Penalty>  (1) 
0.17305261392596941

>  <r_glide_ring_energy>  (1) 
1.1919119817504524

>  <r_i_docking_score>  (1) 
-8.8450917739480257

>  <r_i_glide_ecoul>  (1) 
-5.6144406136113112

>  <r_i_glide_eff_state_penalty>  (1) 
0.17305261392596941

>  <r_i_glide_einternal>  (1) 
14.82248237976629

>  <r_i_glide_emodel>  (1) 
-52.981206063619574

>  <r_i_glide_emodel_strain>  (1) 
0.24061729028676382

>  <r_i_glide_energy>  (1) 
-44.736533007981762

>  <r_i_glide_erotb>  (1) 
0.34988069477117673

>  <r_i_glide_esite>  (1) 
-0.072025282641533919

>  <r_i_glide_evdw>  (1) 
-39.122092394370448

>  <r_i_glide_gscore>  (1) 
-9.0181443878739955

>  <r_i_glide_gscore_strain>  (1) 
0

>  <r_i_glide_hbond>  (1) 
-0.32000000000000001

>  <r_i_glide_ligand_efficiency>  (1) 
-0.25271690782708645

>  <r_i_glide_ligand_efficiency_ln>  (1) 
-1.9416939506168145

>  <r_i_glide_ligand_efficiency_sa>  (1) 
-0.82665376320821771

>  <r_i_glide_lipo>  (1) 
-4.3368584771619227

>  <r_i_glide_metal>  (1) 
-0

>  <r_i_glide_rewards>  (1) 
-1.8408706110814959

>  <r_lp_Energy>  (1) 
38.581286999999996

>  <s_epik_Chemistry_Notes>  (1) 
This compound contains an acetal/aminal-like group ( X-CH(R)-Y where X, Y are N, S, or O) that may be acid/base labile, releasing an aldehyde.

>  <s_epik_cmdline>  (1) 
J2VwaWtfcHl0aG9uJywgJy1waHQnLCAnMS4wJywgJy1waCcsICc3LjQnLCAnLXRuJywgJzgnLCAnLW1hJywgJzUwMCcsICctaW1hZScsICc8aW5maWxlLm1hZT4nLCAnLW9tYWUnLCAnPG91dGZpbGUubWFlPic=

>  <s_epik_input>  (1) 
W0NIMl0xW0NIMl1bQ0gyXVtDSDJdW0NIMl1DMTJbQ0gyXW4zYzRjKFtjSF1bY0hdW2NIXVtjSF00KVtjSF1jM1tDSDJdTihbQ0gzXSlbQ0BASF0oTzIpW0NASF0oW0NIM10pT1xbQ0hdPUNcNVtDQEBIXShbQ0gzXSlDKD1PKU4oQzU9TylbQ0gyXVtPSF0=

>  <s_glide_docking_method>  (1) 
confgen

>  <s_i_glide_gridfile>  (1) 
gpcr_5ht2c_6bqh_protein_autoprepared_prepared

>  <s_lp_Force_Field>  (1) 
S-OPLS

>  <s_lp_Variant>  (1) 
DiffSBDD_41-1

>  <s_m_source_file>  (1) 
generated_GPCR_5HT2C_ligand_DiffSBDD_2026-06-23_prepared.sdf

>  <GenAI_Model>  (1) 
DiffSBDD

>  <Protein>  (1) 
GPCR_5HT2C

$$$$
DiffSBDD_43
     RDKit          3D

  0  0  0  0  0  0  0  0  0  0999 V3000
M  V30 BEGIN CTAB
M  V30 COUNTS 65 67 0 0 1
M  V30 BEGIN ATOM
M  V30 1 C 40.625379 35.796459 61.597733 0
M  V30 2 C 38.553285 27.337940 57.114669 0
M  V30 3 C 39.389603 29.670605 53.132762 0
M  V30 4 C 39.543325 26.352028 56.892690 0
M  V30 5 C 38.792360 31.344552 59.754901 0
M  V30 6 C 38.109174 31.072490 54.876569 0
M  V30 7 C 38.826797 28.427448 52.703723 0
M  V30 8 C 40.175542 30.078817 50.856300 0
M  V30 9 C 40.045224 30.490768 52.192752 0
M  V30 10 C 39.245016 29.454426 58.206602 0
M  V30 11 C 37.948688 24.633840 57.547513 0
M  V30 12 C 38.254299 34.953532 60.957693 0 CFG=1
M  V30 13 N 38.605439 30.607162 58.529960 0
M  V30 14 C 39.784248 29.094885 55.671511 0
M  V30 15 F 40.818786 30.867130 49.965997 0
M  V30 16 Cl 37.971755 27.401020 53.805107 0
M  V30 17 C 37.283028 26.957096 57.565239 0
M  V30 18 C 36.718270 30.507939 54.568818 0
M  V30 19 C 39.236764 24.997372 57.112399 0
M  V30 20 C 39.308200 30.132796 54.600607 0 CFG=1
M  V30 21 C 39.299597 30.726544 60.931670 0
M  V30 22 C 36.752568 35.152224 61.201031 0
M  V30 23 O 37.645133 23.337857 57.767760 0
M  V30 24 C 36.980187 25.611795 57.766887 0
M  V30 25 O 39.930457 30.890147 63.242616 0
M  V30 26 C 38.442942 32.709238 59.777269 0
M  V30 27 O 40.108965 28.929278 58.908222 0
M  V30 28 C 39.119563 32.849303 62.120713 0
M  V30 29 C 39.644886 28.849102 50.444362 0
M  V30 30 C 38.964417 28.028021 51.361557 0
M  V30 31 C 39.455564 31.482783 62.108839 0
M  V30 32 C 39.114519 35.849091 61.883621 0
M  V30 33 C 38.844477 28.809514 56.872685 0 CFG=1
M  V30 34 C 38.615966 33.467751 60.953770 0
M  V30 35 H 41.166035 36.486539 62.246518 0
M  V30 36 H 41.039763 34.802653 61.764540 0
M  V30 37 H 40.843550 36.076366 60.567937 0
M  V30 38 H 40.531158 26.632604 56.558923 0
M  V30 39 H 38.137049 31.464169 55.892670 0
M  V30 40 H 38.236811 31.950343 54.240767 0
M  V30 41 H 40.464415 31.434039 52.502570 0
M  V30 42 H 38.444651 35.307843 59.945334 0
M  V30 43 H 37.976778 31.008726 57.846333 0
M  V30 44 H 40.776423 29.337758 56.039606 0
M  V30 45 H 40.017064 28.176477 55.145007 0
M  V30 46 H 36.532562 27.708246 57.767624 0
M  V30 47 H 36.044661 31.311879 54.275770 0
M  V30 48 H 36.741818 29.774233 53.767768 0
M  V30 49 H 36.268832 30.031329 55.436510 0
M  V30 50 H 39.987799 24.239285 56.949948 0
M  V30 51 H 40.135374 30.842905 54.660212 0
M  V30 52 H 39.551632 29.681626 60.942905 0
M  V30 53 H 36.161960 34.644394 60.437619 0
M  V30 54 H 36.442339 34.761215 62.167732 0
M  V30 55 H 36.487716 36.209156 61.166210 0
M  V30 56 H 36.754658 23.172312 58.039107 0
M  V30 57 H 35.997599 25.333213 58.110087 0
M  V30 58 H 39.916100 29.943962 63.215286 0
M  V30 59 H 38.052137 33.179635 58.885931 0
M  V30 60 H 39.245856 33.421762 63.025849 0
M  V30 61 H 39.747444 28.539459 49.417438 0
M  V30 62 H 38.545004 27.087405 51.033705 0
M  V30 63 H 38.787501 36.883371 61.770467 0
M  V30 64 H 38.931889 35.605231 62.930251 0
M  V30 65 H 37.866859 29.209796 56.629988 0
M  V30 END ATOM
M  V30 BEGIN BOND
M  V30 1 1 4 2
M  V30 2 2 7 3
M  V30 3 1 9 3
M  V30 4 2 9 8
M  V30 5 1 13 5
M  V30 6 1 13 10
M  V30 7 1 15 8
M  V30 8 1 16 7
M  V30 9 2 17 2
M  V30 10 1 18 6
M  V30 11 2 19 4
M  V30 12 1 19 11
M  V30 13 1 20 3
M  V30 14 1 20 6
M  V30 15 1 20 14
M  V30 16 1 21 5
M  V30 17 1 22 12
M  V30 18 1 23 11
M  V30 19 2 24 11
M  V30 20 1 24 17
M  V30 21 2 26 5
M  V30 22 2 27 10
M  V30 23 1 29 8
M  V30 24 1 30 7
M  V30 25 2 30 29
M  V30 26 2 31 21
M  V30 27 1 31 25
M  V30 28 1 31 28
M  V30 29 1 32 1
M  V30 30 1 32 12
M  V30 31 1 33 2
M  V30 32 1 33 10
M  V30 33 1 33 14
M  V30 34 1 34 12
M  V30 35 1 34 26
M  V30 36 2 34 28
M  V30 37 1 35 1
M  V30 38 1 36 1
M  V30 39 1 37 1
M  V30 40 1 38 4
M  V30 41 1 39 6
M  V30 42 1 40 6
M  V30 43 1 41 9
M  V30 44 1 12 42 CFG=3
M  V30 45 1 43 13
M  V30 46 1 44 14
M  V30 47 1 45 14
M  V30 48 1 46 17
M  V30 49 1 47 18
M  V30 50 1 48 18
M  V30 51 1 49 18
M  V30 52 1 50 19
M  V30 53 1 20 51 CFG=3
M  V30 54 1 52 21
M  V30 55 1 53 22
M  V30 56 1 54 22
M  V30 57 1 55 22
M  V30 58 1 56 23
M  V30 59 1 57 24
M  V30 60 1 58 25
M  V30 61 1 59 26
M  V30 62 1 60 28
M  V30 63 1 61 29
M  V30 64 1 62 30
M  V30 65 1 63 32
M  V30 66 1 64 32
M  V30 67 1 33 65 CFG=3
M  V30 END BOND
M  V30 END CTAB
M  END
>  <i_epik_Tot_Q>  (1) 
0

>  <i_epik_Tot_abs_Q>  (1) 
0

>  <i_i_glide_confnum>  (1) 
279

>  <i_i_glide_lignum>  (1) 
94

>  <i_i_glide_posenum>  (1) 
13

>  <i_i_glide_rotatable_bonds>  (1) 
12

>  <i_lp_mmshare_version>  (1) 
72125

>  <i_m_source_file_index>  (1) 
44

>  <i_f3d_flags>  (1) 
0

>  <num_sample>  (1) 
50

>  <b_lp_Chiralities_Consistent>  (1) 
1

>  <r_epik_Charging_Adjusted_Penalty>  (1) 
0

>  <r_epik_Ionization_Penalty>  (1) 
0.0033265205606122501

>  <r_epik_Ionization_Penalty_Charging>  (1) 
0

>  <r_epik_Ionization_Penalty_Neutral>  (1) 
0.0033265205606122501

>  <r_epik_State_Penalty>  (1) 
-0

>  <r_glide_ring_energy>  (1) 
0

>  <r_i_docking_score>  (1) 
-8.8241127788270699

>  <r_i_glide_ecoul>  (1) 
-2.9511750314077774

>  <r_i_glide_eff_state_penalty>  (1) 
-0

>  <r_i_glide_einternal>  (1) 
19.829931413144308

>  <r_i_glide_emodel>  (1) 
-52.14812294530158

>  <r_i_glide_emodel_strain>  (1) 
2.0712144051897283

>  <r_i_glide_energy>  (1) 
-42.299796118856605

>  <r_i_glide_erotb>  (1) 
0.60670890069985839

>  <r_i_glide_esite>  (1) 
-0.030706416425150242

>  <r_i_glide_evdw>  (1) 
-39.348621087448826

>  <r_i_glide_gscore>  (1) 
-8.8241127788270699

>  <r_i_glide_gscore_strain>  (1) 
0

>  <r_i_glide_hbond>  (1) 
0

>  <r_i_glide_ligand_efficiency>  (1) 
-0.25953272878903144

>  <r_i_glide_ligand_efficiency_ln>  (1) 
-1.9494940208226919

>  <r_i_glide_ligand_efficiency_sa>  (1) 
-0.84078529100269495

>  <r_i_glide_lipo>  (1) 
-5.5411948881950801

>  <r_i_glide_metal>  (1) 
-0

>  <r_i_glide_rewards>  (1) 
-1.4488130658230902

>  <r_lp_Energy>  (1) 
37.902006

>  <r_lp_tautomer_probability>  (1) 
1

>  <s_epik_cmdline>  (1) 
J2VwaWtfcHl0aG9uJywgJy1waHQnLCAnMS4wJywgJy1waCcsICc3LjQnLCAnLXRuJywgJzgnLCAnLW1hJywgJzUwMCcsICctaW1hZScsICc8aW5maWxlLm1hZT4nLCAnLW9tYWUnLCAnPG91dGZpbGUubWFlPic=

>  <s_epik_input>  (1) 
W0NIM11bQ0gyXVtDQEhdKFtDSDNdKWMoW2NIXTEpW2NIXWMoW09IXSlbY0hdYzFbTkhdQyg9TylbQ0BIXShjMltjSF1bY0hdYyhbT0hdKVtjSF1bY0hdMilbQ0gyXVtDQEhdKFtDSDJdW0NIM10pYzNjKENsKVtjSF1bY0hdYyhGKVtjSF0z

>  <s_glide_docking_method>  (1) 
confgen

>  <s_i_glide_gridfile>  (1) 
gpcr_5ht2c_6bqh_protein_autoprepared_prepared

>  <s_lp_Force_Field>  (1) 
S-OPLS

>  <s_lp_Variant>  (1) 
DiffSBDD_43-1

>  <s_m_source_file>  (1) 
generated_GPCR_5HT2C_ligand_DiffSBDD_2026-06-23_prepared.sdf

>  <GenAI_Model>  (1) 
DiffSBDD

>  <Protein>  (1) 
GPCR_5HT2C

$$$$
DiffSBDD_34
     RDKit          3D

  0  0  0  0  0  0  0  0  0  0999 V3000
M  V30 BEGIN CTAB
M  V30 COUNTS 81 84 0 0 1
M  V30 BEGIN ATOM
M  V30 1 C 38.920938 35.142056 60.383477 0
M  V30 2 C 40.044911 26.940662 57.989050 0 CFG=1
M  V30 3 C 38.622309 31.660438 60.119732 0
M  V30 4 C 37.189009 31.970370 59.683211 0
M  V30 5 O 40.102660 32.222039 63.478008 0
M  V30 6 C 39.403966 27.989251 58.942602 0
M  V30 7 O 41.015945 31.441870 61.508333 0
M  V30 8 C 41.556639 33.663725 62.213976 0 CFG=1
M  V30 9 C 37.500448 33.337766 57.592513 0 CFG=2
M  V30 10 C 39.026678 26.291719 57.078574 0
M  V30 11 C 40.232579 30.265110 61.510652 0 CFG=2
M  V30 12 C 38.969860 36.606411 62.480770 0
M  V30 13 O 36.540768 35.821897 59.344598 0
M  V30 14 C 40.851275 35.005654 61.998794 0 CFG=2
M  V30 15 O 38.045143 30.938097 62.327215 0
M  V30 16 C 38.134886 28.792082 52.779391 0
M  V30 17 O 36.550365 34.302138 61.369976 0
M  V30 18 N 40.824751 29.309582 60.565635 0
M  V30 19 C 40.081334 28.087048 60.331962 0
M  V30 20 C 38.045132 32.101839 56.847651 0 CFG=1
M  V30 21 S 37.141777 34.707559 60.087343 0
M  V30 22 O 37.814242 32.031458 55.442147 0
M  V30 23 C 41.539330 34.716494 63.309696 0
M  V30 24 C 38.822143 36.699558 63.994573 0
M  V30 25 C 38.926482 26.529384 55.724296 0
M  V30 26 S 37.649490 25.607945 55.004551 0
M  V30 27 C 38.050822 25.332431 57.523484 0
M  V30 28 O 38.804186 37.595843 61.767766 0
M  V30 29 C 38.934288 33.258990 57.144186 0
M  V30 30 C 38.812672 31.336179 54.706217 0
M  V30 31 C 40.811831 32.380941 62.485057 0
M  V30 32 C 41.248196 27.521686 57.224934 0
M  V30 33 O 37.671698 29.276146 54.030552 0
M  V30 34 N 37.154950 33.289825 59.043224 0
M  V30 35 C 38.698641 29.809451 54.855752 0
M  V30 36 C 37.245398 24.875658 56.512211 0
M  V30 37 C 39.340788 35.227657 61.878827 0 CFG=2
M  V30 38 C 38.741941 30.573445 61.174010 0 CFG=1
M  V30 39 N 42.334095 27.953548 58.120991 0 CHG=1
M  V30 40 H 39.555272 34.473814 59.811330 0
M  V30 41 H 39.051388 36.115391 59.921961 0
M  V30 42 H 40.439608 26.115765 58.574873 0
M  V30 43 H 39.045594 32.564240 60.527058 0
M  V30 44 H 39.237791 31.384800 59.268318 0
M  V30 45 H 36.780877 31.204817 59.023840 0
M  V30 46 H 36.515036 31.983774 60.538627 0
M  V30 47 H 38.376892 27.684424 59.136617 0
M  V30 48 H 39.314598 28.962142 58.456706 0
M  V30 49 H 42.445125 33.540516 61.604653 0
M  V30 50 H 36.845141 34.011659 57.063134 0
M  V30 51 H 40.289353 29.812552 62.504085 0
M  V30 52 H 41.401489 35.694261 61.357891 0
M  V30 53 H 38.599298 31.518939 62.838981 0
M  V30 54 H 37.284341 28.506626 52.160513 0
M  V30 55 H 38.712912 29.544651 52.242494 0
M  V30 56 H 38.760342 27.908612 52.911162 0
M  V30 57 H 41.658433 28.964512 61.032725 0
M  V30 58 H 40.840685 27.337749 60.418919 0
M  V30 59 H 39.378780 27.878257 61.140458 0
M  V30 60 H 38.212417 31.149648 57.338125 0
M  V30 61 H 42.445156 35.278109 63.514204 0
M  V30 62 H 40.930182 34.518259 64.187892 0
M  V30 63 H 39.453353 35.983150 64.510341 0
M  V30 64 H 39.115944 37.693172 64.334391 0
M  V30 65 H 37.783669 36.537830 64.283183 0
M  V30 66 H 39.524132 27.184270 55.113819 0
M  V30 67 H 37.982751 25.015749 58.553671 0
M  V30 68 H 39.245133 33.737823 56.225427 0
M  V30 69 H 39.680103 33.165038 57.918302 0
M  V30 70 H 38.729070 31.613420 53.655141 0
M  V30 71 H 39.800844 31.667060 55.029073 0
M  V30 72 H 41.645149 26.754590 56.567748 0
M  V30 73 H 40.946240 28.363109 56.600681 0
M  V30 74 H 39.658453 29.355100 54.609162 0
M  V30 75 H 38.493673 29.526469 55.886620 0
M  V30 76 H 36.445041 24.155253 56.567890 0
M  V30 77 H 38.840354 34.449414 62.453847 0
M  V30 78 H 38.227672 29.695653 60.800507 0
M  V30 79 H 43.084972 28.351322 57.575279 0
M  V30 80 H 41.976190 28.645449 58.768615 0
M  V30 81 H 42.687419 27.161969 58.641197 0
M  V30 END ATOM
M  V30 BEGIN BOND
M  V30 1 1 4 3
M  V30 2 1 6 2
M  V30 3 1 10 2
M  V30 4 1 11 7
M  V30 5 1 14 8
M  V30 6 1 18 11
M  V30 7 1 19 6
M  V30 8 1 19 18
M  V30 9 1 20 9
M  V30 10 1 21 1
M  V30 11 2 21 13
M  V30 12 2 21 17
M  V30 13 1 22 20
M  V30 14 1 23 8
M  V30 15 1 23 14
M  V30 16 1 24 12
M  V30 17 2 25 10
M  V30 18 1 26 25
M  V30 19 1 27 10
M  V30 20 2 28 12
M  V30 21 1 29 9
M  V30 22 1 29 20
M  V30 23 1 30 22
M  V30 24 2 31 5
M  V30 25 1 31 7
M  V30 26 1 31 8
M  V30 27 1 32 2
M  V30 28 1 33 16
M  V30 29 1 34 4
M  V30 30 1 34 9
M  V30 31 1 34 21
M  V30 32 1 35 30
M  V30 33 1 35 33
M  V30 34 1 36 26
M  V30 35 2 36 27
M  V30 36 1 37 1
M  V30 37 1 37 12
M  V30 38 1 37 14
M  V30 39 1 38 3
M  V30 40 1 38 11
M  V30 41 1 38 15
M  V30 42 1 39 32
M  V30 43 1 40 1
M  V30 44 1 41 1
M  V30 45 1 2 42 CFG=1
M  V30 46 1 43 3
M  V30 47 1 44 3
M  V30 48 1 45 4
M  V30 49 1 46 4
M  V30 50 1 47 6
M  V30 51 1 48 6
M  V30 52 1 8 49 CFG=3
M  V30 53 1 9 50 CFG=3
M  V30 54 1 11 51 CFG=1
M  V30 55 1 14 52 CFG=3
M  V30 56 1 53 15
M  V30 57 1 54 16
M  V30 58 1 55 16
M  V30 59 1 56 16
M  V30 60 1 57 18
M  V30 61 1 58 19
M  V30 62 1 59 19
M  V30 63 1 20 60 CFG=1
M  V30 64 1 61 23
M  V30 65 1 62 23
M  V30 66 1 63 24
M  V30 67 1 64 24
M  V30 68 1 65 24
M  V30 69 1 66 25
M  V30 70 1 67 27
M  V30 71 1 68 29
M  V30 72 1 69 29
M  V30 73 1 70 30
M  V30 74 1 71 30
M  V30 75 1 72 32
M  V30 76 1 73 32
M  V30 77 1 74 35
M  V30 78 1 75 35
M  V30 79 1 76 36
M  V30 80 1 37 77 CFG=1
M  V30 81 1 38 78 CFG=3
M  V30 82 1 79 39
M  V30 83 1 80 39
M  V30 84 1 81 39
M  V30 END BOND
M  V30 END CTAB
M  END
>  <i_epik_Tot_Q>  (1) 
1

>  <i_epik_Tot_abs_Q>  (1) 
1

>  <i_i_glide_confnum>  (1) 
140

>  <i_i_glide_lignum>  (1) 
73

>  <i_i_glide_posenum>  (1) 
235

>  <i_i_glide_rotatable_bonds>  (1) 
13

>  <i_lp_mmshare_version>  (1) 
72125

>  <i_m_source_file_index>  (1) 
35

>  <i_f3d_flags>  (1) 
0

>  <num_sample>  (1) 
50

>  <b_lp_Chiralities_Consistent>  (1) 
1

>  <r_epik_Charging_Adjusted_Penalty>  (1) 
0.090149450246829993

>  <r_epik_Ionization_Penalty>  (1) 
0.090149516537110494

>  <r_epik_Ionization_Penalty_Charging>  (1) 
0.0016683723163481864

>  <r_epik_Ionization_Penalty_Neutral>  (1) 
0.088481144220762309

>  <r_epik_State_Penalty>  (1) 
0.088481077930481808

>  <r_glide_ring_energy>  (1) 
0

>  <r_i_docking_score>  (1) 
-8.7561213836495995

>  <r_i_glide_ecoul>  (1) 
-2.8049850383982324

>  <r_i_glide_eff_state_penalty>  (1) 
0.088481077930481808

>  <r_i_glide_einternal>  (1) 
43.195173522095274

>  <r_i_glide_emodel>  (1) 
-44.066554685046633

>  <r_i_glide_emodel_strain>  (1) 
1.4352965794014736

>  <r_i_glide_energy>  (1) 
-53.767419376246977

>  <r_i_glide_erotb>  (1) 
0.37606535851870204

>  <r_i_glide_esite>  (1) 
-0.068445827567222658

>  <r_i_glide_evdw>  (1) 
-50.962434337848741

>  <r_i_glide_gscore>  (1) 
-8.8446024615800809

>  <r_i_glide_gscore_strain>  (1) 
0

>  <r_i_glide_hbond>  (1) 
-0.50531383089243564

>  <r_i_glide_ligand_efficiency>  (1) 
-0.2245159329140923

>  <r_i_glide_ligand_efficiency_ln>  (1) 
-1.8775609819410073

>  <r_i_glide_ligand_efficiency_sa>  (1) 
-0.76138100083727089

>  <r_i_glide_lipo>  (1) 
-4.3532101727587209

>  <r_i_glide_metal>  (1) 
-0

>  <r_i_glide_rewards>  (1) 
-1.3248285162282314

>  <r_lp_Energy>  (1) 
30.250912

>  <r_lp_tautomer_probability>  (1) 
0.9999999700000004

>  <s_epik_Chemistry_Notes>  (1) 
This compound has an ester and may undergo hydrolysis at high or low pH. This compound contains an acetal/aminal-like group ( X-CH(R)-Y where X, Y are N, S, or O) that may be acid/base labile, releasing an aldehyde.

>  <s_epik_cmdline>  (1) 
J2VwaWtfcHl0aG9uJywgJy1waHQnLCAnMS4wJywgJy1waCcsICc3LjQnLCAnLXRuJywgJzgnLCAnLW1hJywgJzUwMCcsICctaW1hZScsICc8aW5maWxlLm1hZT4nLCAnLW9tYWUnLCAnPG91dGZpbGUubWFlPic=

>  <s_epik_input>  (1) 
W0NIM11PW0NIMl1bQ0gyXU9bQ0BASF0oW0NIMl0xKVtDSF0xTihTKD1PKSg9TylbQ0gyXVtDQEhdKEMoPU8pW0NIM10pW0NASF0oW0NIXTIzKVtDSDJdMilbQ0gyXVtDSDJdW0NASF0oW09IXSlbQ0BIXShPQzM9TylbTkhdW0NIMl1bQ0gyXVtDQEhdKFtDSDJdW05IMl0pYzRbY0hdc1tjSF1bY0hdNA==

>  <s_glide_docking_method>  (1) 
confgen

>  <s_i_glide_gridfile>  (1) 
gpcr_5ht2c_6bqh_protein_autoprepared_prepared

>  <s_lp_Force_Field>  (1) 
S-OPLS

>  <s_lp_Variant>  (1) 
DiffSBDD_34-1

>  <s_m_source_file>  (1) 
generated_GPCR_5HT2C_ligand_DiffSBDD_2026-06-23_prepared.sdf

>  <GenAI_Model>  (1) 
DiffSBDD

>  <Protein>  (1) 
GPCR_5HT2C

$$$$
DiffSBDD_41
     RDKit          3D

  0  0  0  0  0  0  0  0  0  0999 V3000
M  V30 BEGIN CTAB
M  V30 COUNTS 70 74 0 0 1
M  V30 BEGIN ATOM
M  V30 1 C 39.832333 26.125622 55.954755 0
M  V30 2 O 38.482485 32.278852 59.388779 0
M  V30 3 C 38.674063 30.888250 59.173047 0 CFG=1
M  V30 4 C 39.645431 32.518337 56.627815 0
M  V30 5 C 39.134133 25.368816 57.086847 0
M  V30 6 C 37.691626 28.624827 55.498541 0
M  V30 7 C 40.016762 28.439412 50.775841 0
M  V30 8 C 39.451147 27.364496 51.477431 0
M  V30 9 C 39.462551 34.632339 62.036404 0
M  V30 10 C 39.199466 31.142604 53.367760 0
M  V30 11 C 37.711106 30.145839 60.110065 0
M  V30 12 C 37.758520 35.969979 61.524094 0
M  V30 13 N 38.807238 35.740642 62.329746 0
M  V30 14 C 38.367729 30.592150 57.678141 0 CFG=1
M  V30 15 C 38.668133 28.343782 56.691864 0
M  V30 16 C 38.760225 34.039742 60.939564 0
M  V30 17 O 40.044790 37.663238 62.966731 0
M  V30 18 O 40.468557 34.213023 62.613201 0
M  V30 19 C 37.968758 27.504165 57.787442 0
M  V30 20 C 37.782307 26.027198 57.389002 0
M  V30 21 N 38.445144 31.733525 56.774155 0
M  V30 22 O 37.008893 36.944294 61.601652 0
M  V30 23 O 39.207268 29.555145 57.259721 0
M  V30 24 C 38.878401 27.579363 52.734105 0
M  V30 25 C 37.826239 31.626682 55.486812 0
M  V30 26 C 39.191637 36.643048 63.416302 0
M  V30 27 C 38.850913 28.875966 53.271586 0
M  V30 28 C 39.147642 32.858359 60.431149 0
M  V30 29 C 40.011683 29.732755 51.329536 0
M  V30 30 C 36.213828 34.126206 60.566829 0
M  V30 31 N 38.324136 29.383503 54.455200 0
M  V30 32 C 37.563432 34.858842 60.451718 0 CFG=1
M  V30 33 C 39.981774 27.621642 56.280781 0
M  V30 34 C 38.461823 30.771579 54.448720 0
M  V30 35 C 39.413121 29.982748 52.589951 0
M  V30 36 H 39.260191 25.987982 55.043989 0
M  V30 37 H 40.815560 25.696148 55.766946 0
M  V30 38 H 39.681054 30.539281 59.390521 0
M  V30 39 H 39.464697 33.370019 55.972544 0
M  V30 40 H 39.967572 32.938278 57.574481 0
M  V30 41 H 40.444915 31.936091 56.167741 0
M  V30 42 H 38.995455 24.321301 56.814272 0
M  V30 43 H 39.764479 25.370596 57.976851 0
M  V30 44 H 37.296505 27.705322 55.067119 0
M  V30 45 H 36.845138 29.222949 55.834642 0
M  V30 46 H 40.445139 28.276554 49.802329 0
M  V30 47 H 39.455349 26.376033 51.044316 0
M  V30 48 H 39.483344 32.137594 53.096521 0
M  V30 49 H 37.864969 29.073339 60.059728 0
M  V30 50 H 37.880507 30.439621 61.146275 0
M  V30 51 H 36.669927 30.361881 59.872168 0
M  V30 52 H 37.334712 30.249870 57.642648 0
M  V30 53 H 40.708506 37.807286 63.636204 0
M  V30 54 H 38.574323 27.517741 58.693345 0
M  V30 55 H 37.005198 27.946954 58.038826 0
M  V30 56 H 37.137377 25.949382 56.515733 0
M  V30 57 H 37.272333 25.475017 58.174874 0
M  V30 58 H 38.434077 26.758014 53.271392 0
M  V30 59 H 37.647907 32.624506 55.083856 0
M  V30 60 H 36.845182 31.238409 55.652853 0
M  V30 61 H 39.689246 36.096998 64.216190 0
M  V30 62 H 38.313509 37.090649 63.881937 0
M  V30 63 H 39.989633 32.273336 60.778383 0
M  V30 64 H 40.441179 30.552678 50.771900 0
M  V30 65 H 35.978014 33.862399 61.598505 0
M  V30 66 H 35.404136 34.743974 60.182329 0
M  V30 67 H 36.206396 33.205444 59.983806 0
M  V30 68 H 37.739970 35.238786 59.445310 0
M  V30 69 H 40.458029 28.138953 55.450686 0
M  V30 70 H 40.694640 27.694117 57.103768 0
M  V30 END ATOM
M  V30 BEGIN BOND
M  V30 1 1 3 2
M  V30 2 1 5 1
M  V30 3 2 8 7
M  V30 4 1 11 3
M  V30 5 1 13 9
M  V30 6 1 13 12
M  V30 7 1 14 3
M  V30 8 1 15 6
M  V30 9 1 16 9
M  V30 10 2 18 9
M  V30 11 1 19 15
M  V30 12 1 20 5
M  V30 13 1 20 19
M  V30 14 1 21 4
M  V30 15 1 21 14
M  V30 16 2 22 12
M  V30 17 1 23 14
M  V30 18 1 23 15
M  V30 19 1 24 8
M  V30 20 1 25 21
M  V30 21 1 26 13
M  V30 22 1 26 17
M  V30 23 2 27 24
M  V30 24 1 28 2
M  V30 25 2 28 16
M  V30 26 1 29 7
M  V30 27 1 31 6
M  V30 28 1 31 27
M  V30 29 1 32 12
M  V30 30 1 32 16
M  V30 31 1 32 30
M  V30 32 1 33 1
M  V30 33 1 33 15
M  V30 34 2 34 10
M  V30 35 1 34 25
M  V30 36 1 34 31
M  V30 37 1 35 10
M  V30 38 1 35 27
M  V30 39 2 35 29
M  V30 40 1 36 1
M  V30 41 1 37 1
M  V30 42 1 3 38 CFG=1
M  V30 43 1 39 4
M  V30 44 1 40 4
M  V30 45 1 41 4
M  V30 46 1 42 5
M  V30 47 1 43 5
M  V30 48 1 44 6
M  V30 49 1 45 6
M  V30 50 1 46 7
M  V30 51 1 47 8
M  V30 52 1 48 10
M  V30 53 1 49 11
M  V30 54 1 50 11
M  V30 55 1 51 11
M  V30 56 1 14 52 CFG=1
M  V30 57 1 53 17
M  V30 58 1 54 19
M  V30 59 1 55 19
M  V30 60 1 56 20
M  V30 61 1 57 20
M  V30 62 1 58 24
M  V30 63 1 59 25
M  V30 64 1 60 25
M  V30 65 1 61 26
M  V30 66 1 62 26
M  V30 67 1 63 28
M  V30 68 1 64 29
M  V30 69 1 65 30
M  V30 70 1 66 30
M  V30 71 1 67 30
M  V30 72 1 32 68 CFG=3
M  V30 73 1 69 33
M  V30 74 1 70 33
M  V30 END BOND
M  V30 END CTAB
M  END
>  <i_epik_Tot_Q>  (1) 
0

>  <i_epik_Tot_abs_Q>  (1) 
0

>  <i_i_glide_confnum>  (1) 
36

>  <i_i_glide_lignum>  (1) 
87

>  <i_i_glide_posenum>  (1) 
168

>  <i_i_glide_rotatable_bonds>  (1) 
5

>  <i_lp_mmshare_version>  (1) 
72125

>  <i_m_source_file_index>  (1) 
42

>  <i_f3d_flags>  (1) 
0

>  <num_sample>  (1) 
50

>  <b_lp_Chiralities_Consistent>  (1) 
1

>  <r_epik_Charging_Adjusted_Penalty>  (1) 
0.17305261392596941

>  <r_epik_Ionization_Penalty>  (1) 
0.17312613183816786

>  <r_epik_Ionization_Penalty_Charging>  (1) 
0

>  <r_epik_Ionization_Penalty_Neutral>  (1) 
0.17312613183816786

>  <r_epik_State_Penalty>  (1) 
0.17305261392596941

>  <r_glide_ring_energy>  (1) 
1.1919119817504524

>  <r_i_docking_score>  (1) 
-8.7475175910251775

>  <r_i_glide_ecoul>  (1) 
-5.3157257673389555

>  <r_i_glide_eff_state_penalty>  (1) 
0.17305261392596941

>  <r_i_glide_einternal>  (1) 
8.3686744038854481

>  <r_i_glide_emodel>  (1) 
-54.517365983600463

>  <r_i_glide_emodel_strain>  (1) 
0.032341911323250372

>  <r_i_glide_energy>  (1) 
-43.009510261178022

>  <r_i_glide_erotb>  (1) 
0.34988069477117673

>  <r_i_glide_esite>  (1) 
-0.059065004475491345

>  <r_i_glide_evdw>  (1) 
-37.693784493839068

>  <r_i_glide_gscore>  (1) 
-8.9205702049511473

>  <r_i_glide_gscore_strain>  (1) 
0

>  <r_i_glide_hbond>  (1) 
-0.32000000000000001

>  <r_i_glide_ligand_efficiency>  (1) 
-0.24992907402929079

>  <r_i_glide_ligand_efficiency_ln>  (1) 
-1.9202742519229357

>  <r_i_glide_ligand_efficiency_sa>  (1) 
-0.81753457399384322

>  <r_i_glide_lipo>  (1) 
-4.2517182320959552

>  <r_i_glide_metal>  (1) 
-0

>  <r_i_glide_rewards>  (1) 
-1.9576195733580786

>  <r_lp_Energy>  (1) 
38.581286999999996

>  <s_epik_Chemistry_Notes>  (1) 
This compound contains an acetal/aminal-like group ( X-CH(R)-Y where X, Y are N, S, or O) that may be acid/base labile, releasing an aldehyde.

>  <s_epik_cmdline>  (1) 
J2VwaWtfcHl0aG9uJywgJy1waHQnLCAnMS4wJywgJy1waCcsICc3LjQnLCAnLXRuJywgJzgnLCAnLW1hJywgJzUwMCcsICctaW1hZScsICc8aW5maWxlLm1hZT4nLCAnLW9tYWUnLCAnPG91dGZpbGUubWFlPic=

>  <s_epik_input>  (1) 
W0NIMl0xW0NIMl1bQ0gyXVtDSDJdW0NIMl1DMTJbQ0gyXW4zYzRjKFtjSF1bY0hdW2NIXVtjSF00KVtjSF1jM1tDSDJdTihbQ0gzXSlbQ0BASF0oTzIpW0NASF0oW0NIM10pT1xbQ0hdPUNcNVtDQEBIXShbQ0gzXSlDKD1PKU4oQzU9TylbQ0gyXVtPSF0=

>  <s_glide_docking_method>  (1) 
confgen

>  <s_i_glide_gridfile>  (1) 
gpcr_5ht2c_6bqh_protein_autoprepared_prepared

>  <s_lp_Force_Field>  (1) 
S-OPLS

>  <s_lp_Variant>  (1) 
DiffSBDD_41-1

>  <s_m_source_file>  (1) 
generated_GPCR_5HT2C_ligand_DiffSBDD_2026-06-23_prepared.sdf

>  <GenAI_Model>  (1) 
DiffSBDD

>  <Protein>  (1) 
GPCR_5HT2C

$$$$
DiffSBDD_41
     RDKit          3D

  0  0  0  0  0  0  0  0  0  0999 V3000
M  V30 BEGIN CTAB
M  V30 COUNTS 70 74 0 0 1
M  V30 BEGIN ATOM
M  V30 1 C 40.178632 25.938305 56.111578 0
M  V30 2 O 38.497929 31.993390 59.729288 0
M  V30 3 C 38.985592 30.681980 59.468293 0 CFG=1
M  V30 4 C 39.548738 32.409123 56.785413 0
M  V30 5 C 39.660050 25.145691 57.314391 0
M  V30 6 C 38.083818 28.221428 55.869441 0
M  V30 7 C 39.981846 28.542285 50.949676 0
M  V30 8 C 39.645133 27.375037 51.649372 0
M  V30 9 C 39.869226 34.973921 61.380558 0
M  V30 10 C 38.880194 31.017945 53.668910 0
M  V30 11 C 38.216728 29.777542 60.430475 0
M  V30 12 C 37.997123 36.113209 61.001169 0
M  V30 13 N 39.233738 36.120885 61.521592 0
M  V30 14 C 38.673579 30.331424 57.986275 0 CFG=1
M  V30 15 C 39.158189 28.106517 56.994264 0
M  V30 16 C 38.971077 34.106013 60.686729 0
M  V30 17 O 39.644956 37.180074 63.620556 0
M  V30 18 O 41.009775 34.727162 61.777537 0
M  V30 19 C 38.617871 27.272849 58.185471 0
M  V30 20 C 38.379090 25.788517 57.855269 0
M  V30 21 N 38.484988 31.464358 57.091301 0
M  V30 22 O 37.214145 37.062406 61.031309 0
M  V30 23 O 39.609251 29.395733 57.491474 0
M  V30 24 C 39.142664 27.462895 52.949579 0
M  V30 25 C 37.686821 31.213684 55.927284 0
M  V30 26 C 39.807243 37.275031 62.219047 0
M  V30 27 C 38.943220 28.723332 53.534964 0
M  V30 28 C 39.331333 32.844826 60.395628 0
M  V30 29 C 39.791855 29.805056 51.541705 0
M  V30 30 C 36.392851 34.074723 60.951086 0
M  V30 31 N 38.455137 29.107477 54.782414 0
M  V30 32 C 37.627698 34.753465 60.331427 0 CFG=1
M  V30 33 C 40.429039 27.412884 56.470694 0
M  V30 34 C 38.338385 30.501916 54.804966 0
M  V30 35 C 39.245126 29.925163 52.846562 0
M  V30 36 H 39.459669 25.833308 55.308932 0
M  V30 37 H 41.093712 25.514771 55.723046 0
M  V30 38 H 40.045026 30.537717 59.668259 0
M  V30 39 H 39.171491 33.188066 56.121163 0
M  V30 40 H 39.886188 32.937684 57.672520 0
M  V30 41 H 40.372097 31.927533 56.256663 0
M  V30 42 H 39.469605 24.111810 57.030474 0
M  V30 43 H 40.423209 25.123596 58.092373 0
M  V30 44 H 37.756730 27.264431 55.467544 0
M  V30 45 H 37.245171 28.640868 56.368078 0
M  V30 46 H 40.378564 28.473512 49.948499 0
M  V30 47 H 39.777730 26.409838 51.185162 0
M  V30 48 H 38.957185 32.061837 53.404995 0
M  V30 49 H 38.609934 28.765471 60.443398 0
M  V30 50 H 38.292497 30.154444 61.451507 0
M  V30 51 H 37.158388 29.737981 60.169259 0
M  V30 52 H 37.703253 29.841866 58.018235 0
M  V30 53 H 40.405634 37.559840 64.046779 0
M  V30 54 H 39.345520 27.315633 58.995866 0
M  V30 55 H 37.693217 27.705085 58.561079 0
M  V30 56 H 37.570698 25.684215 57.131348 0
M  V30 57 H 38.047080 25.255293 58.744899 0
M  V30 58 H 38.886300 26.568846 53.485992 0
M  V30 59 H 37.255091 32.148904 55.570256 0
M  V30 60 H 36.845113 30.612530 56.233490 0
M  V30 61 H 39.374661 38.211565 61.864424 0
M  V30 62 H 40.869376 37.337755 61.991884 0
M  V30 63 H 40.282569 32.398830 60.648918 0
M  V30 64 H 40.040593 30.697057 50.985570 0
M  V30 65 H 36.392161 34.133106 62.039262 0
M  V30 66 H 35.476179 34.539988 60.593837 0
M  V30 67 H 36.333600 33.023432 60.671630 0
M  V30 68 H 37.534544 34.860686 59.249734 0
M  V30 69 H 40.829507 27.951723 55.615816 0
M  V30 70 H 41.206077 27.456199 57.233587 0
M  V30 END ATOM
M  V30 BEGIN BOND
M  V30 1 1 3 2
M  V30 2 1 5 1
M  V30 3 2 8 7
M  V30 4 1 11 3
M  V30 5 1 13 9
M  V30 6 1 13 12
M  V30 7 1 14 3
M  V30 8 1 15 6
M  V30 9 1 16 9
M  V30 10 2 18 9
M  V30 11 1 19 15
M  V30 12 1 20 5
M  V30 13 1 20 19
M  V30 14 1 21 4
M  V30 15 1 21 14
M  V30 16 2 22 12
M  V30 17 1 23 14
M  V30 18 1 23 15
M  V30 19 1 24 8
M  V30 20 1 25 21
M  V30 21 1 26 13
M  V30 22 1 26 17
M  V30 23 2 27 24
M  V30 24 1 28 2
M  V30 25 2 28 16
M  V30 26 1 29 7
M  V30 27 1 31 6
M  V30 28 1 31 27
M  V30 29 1 32 12
M  V30 30 1 32 16
M  V30 31 1 32 30
M  V30 32 1 33 1
M  V30 33 1 33 15
M  V30 34 2 34 10
M  V30 35 1 34 25
M  V30 36 1 34 31
M  V30 37 1 35 10
M  V30 38 1 35 27
M  V30 39 2 35 29
M  V30 40 1 36 1
M  V30 41 1 37 1
M  V30 42 1 3 38 CFG=3
M  V30 43 1 39 4
M  V30 44 1 40 4
M  V30 45 1 41 4
M  V30 46 1 42 5
M  V30 47 1 43 5
M  V30 48 1 44 6
M  V30 49 1 45 6
M  V30 50 1 46 7
M  V30 51 1 47 8
M  V30 52 1 48 10
M  V30 53 1 49 11
M  V30 54 1 50 11
M  V30 55 1 51 11
M  V30 56 1 14 52 CFG=1
M  V30 57 1 53 17
M  V30 58 1 54 19
M  V30 59 1 55 19
M  V30 60 1 56 20
M  V30 61 1 57 20
M  V30 62 1 58 24
M  V30 63 1 59 25
M  V30 64 1 60 25
M  V30 65 1 61 26
M  V30 66 1 62 26
M  V30 67 1 63 28
M  V30 68 1 64 29
M  V30 69 1 65 30
M  V30 70 1 66 30
M  V30 71 1 67 30
M  V30 72 1 32 68 CFG=3
M  V30 73 1 69 33
M  V30 74 1 70 33
M  V30 END BOND
M  V30 END CTAB
M  END
>  <i_epik_Tot_Q>  (1) 
0

>  <i_epik_Tot_abs_Q>  (1) 
0

>  <i_i_glide_confnum>  (1) 
1

>  <i_i_glide_lignum>  (1) 
87

>  <i_i_glide_posenum>  (1) 
16

>  <i_i_glide_rotatable_bonds>  (1) 
5

>  <i_lp_mmshare_version>  (1) 
72125

>  <i_m_source_file_index>  (1) 
42

>  <i_f3d_flags>  (1) 
0

>  <num_sample>  (1) 
50

>  <b_lp_Chiralities_Consistent>  (1) 
1

>  <r_epik_Charging_Adjusted_Penalty>  (1) 
0.17305261392596941

>  <r_epik_Ionization_Penalty>  (1) 
0.17312613183816786

>  <r_epik_Ionization_Penalty_Charging>  (1) 
0

>  <r_epik_Ionization_Penalty_Neutral>  (1) 
0.17312613183816786

>  <r_epik_State_Penalty>  (1) 
0.17305261392596941

>  <r_glide_ring_energy>  (1) 
1.1919119817504524

>  <r_i_docking_score>  (1) 
-8.7379692917819245

>  <r_i_glide_ecoul>  (1) 
-3.8189261091291113

>  <r_i_glide_eff_state_penalty>  (1) 
0.17305261392596941

>  <r_i_glide_einternal>  (1) 
6.0563604380073661

>  <r_i_glide_emodel>  (1) 
-55.930576473202905

>  <r_i_glide_emodel_strain>  (1) 
0.094492883588500831

>  <r_i_glide_energy>  (1) 
-43.345545790210259

>  <r_i_glide_erotb>  (1) 
0.34988069477117673

>  <r_i_glide_esite>  (1) 
-0.030114408421499195

>  <r_i_glide_evdw>  (1) 
-39.526619681081151

>  <r_i_glide_gscore>  (1) 
-8.9110219057078943

>  <r_i_glide_gscore_strain>  (1) 
0

>  <r_i_glide_hbond>  (1) 
-0.32000000000000001

>  <r_i_glide_ligand_efficiency>  (1) 
-0.24965626547948355

>  <r_i_glide_ligand_efficiency_ln>  (1) 
-1.9181781883259574

>  <r_i_glide_ligand_efficiency_sa>  (1) 
-0.81664219913743741

>  <r_i_glide_lipo>  (1) 
-4.0731045514220119

>  <r_i_glide_metal>  (1) 
-0

>  <r_i_glide_rewards>  (1) 
-2.2885137402121347

>  <r_lp_Energy>  (1) 
38.581286999999996

>  <s_epik_Chemistry_Notes>  (1) 
This compound contains an acetal/aminal-like group ( X-CH(R)-Y where X, Y are N, S, or O) that may be acid/base labile, releasing an aldehyde.

>  <s_epik_cmdline>  (1) 
J2VwaWtfcHl0aG9uJywgJy1waHQnLCAnMS4wJywgJy1waCcsICc3LjQnLCAnLXRuJywgJzgnLCAnLW1hJywgJzUwMCcsICctaW1hZScsICc8aW5maWxlLm1hZT4nLCAnLW9tYWUnLCAnPG91dGZpbGUubWFlPic=

>  <s_epik_input>  (1) 
W0NIMl0xW0NIMl1bQ0gyXVtDSDJdW0NIMl1DMTJbQ0gyXW4zYzRjKFtjSF1bY0hdW2NIXVtjSF00KVtjSF1jM1tDSDJdTihbQ0gzXSlbQ0BASF0oTzIpW0NASF0oW0NIM10pT1xbQ0hdPUNcNVtDQEBIXShbQ0gzXSlDKD1PKU4oQzU9TylbQ0gyXVtPSF0=

>  <s_glide_docking_method>  (1) 
confgen

>  <s_i_glide_gridfile>  (1) 
gpcr_5ht2c_6bqh_protein_autoprepared_prepared

>  <s_lp_Force_Field>  (1) 
S-OPLS

>  <s_lp_Variant>  (1) 
DiffSBDD_41-1

>  <s_m_source_file>  (1) 
generated_GPCR_5HT2C_ligand_DiffSBDD_2026-06-23_prepared.sdf

>  <GenAI_Model>  (1) 
DiffSBDD

>  <Protein>  (1) 
GPCR_5HT2C

$$$$
DiffSBDD_10
     RDKit          3D

  0  0  0  0  0  0  0  0  0  0999 V3000
M  V30 BEGIN CTAB
M  V30 COUNTS 64 66 0 0 1
M  V30 BEGIN ATOM
M  V30 1 C 39.645155 30.116804 52.696463 0
M  V30 2 C 39.271456 28.289788 51.127470 0
M  V30 3 C 38.442614 29.282792 57.141406 0
M  V30 4 C 39.645111 25.421209 57.134252 0
M  V30 5 C 41.508503 33.945190 63.897361 0
M  V30 6 C 37.570094 24.850529 55.992009 0
M  V30 7 C 40.609929 30.215186 50.469079 0
M  V30 8 O 36.355008 33.126615 59.364402 0
M  V30 9 F 40.753995 27.471927 56.622795 0
M  V30 10 S 38.711770 34.641500 60.979373 0
M  V30 11 C 42.214694 35.241773 65.954571 0
M  V30 12 C 39.774350 34.812678 62.418007 0
M  V30 13 C 41.370572 35.090093 64.711052 0
M  V30 14 C 38.050198 30.204808 59.467549 0
M  V30 15 C 40.408916 30.786251 51.730328 0
M  V30 16 S 36.775481 32.330475 60.522994 0
M  V30 17 C 37.908289 30.491881 57.942849 0 CFG=1
M  V30 18 O 39.520499 34.137725 59.860755 0
M  V30 19 O 35.734045 31.726962 61.367773 0
M  V30 20 C 39.711834 26.629848 56.420970 0
M  V30 21 C 40.710738 33.797787 62.747568 0
M  V30 22 N 38.735926 28.211585 54.817558 0
M  V30 23 C 38.569644 31.792090 57.417072 0
M  V30 24 C 40.045097 28.969558 50.167808 0
M  V30 25 C 40.441996 36.094041 64.369273 0
M  V30 26 C 38.573288 24.537792 56.927083 0
M  V30 27 C 39.645139 35.958684 63.219740 0
M  V30 28 C 39.069238 28.861801 52.398496 0
M  V30 29 C 38.123983 29.286769 55.632094 0
M  V30 30 C 38.693398 26.965525 55.493048 0
M  V30 31 C 38.233061 28.124948 53.438048 0
M  V30 32 N 38.059842 31.377919 60.309852 0 CHG=-1
M  V30 33 Cl 40.881831 32.383444 61.768753 0
M  V30 34 O 37.932137 35.880583 60.821870 0
M  V30 35 C 37.627884 26.058680 55.273825 0
M  V30 36 N 37.622010 33.416908 61.527658 0
M  V30 37 H 39.504631 30.567322 53.658730 0
M  V30 38 H 38.835401 27.330129 50.888386 0
M  V30 39 H 38.041049 28.358974 57.563974 0
M  V30 40 H 39.524309 29.265253 57.268539 0
M  V30 41 H 40.418665 25.172953 57.845291 0
M  V30 42 H 42.221264 33.177196 64.160126 0
M  V30 43 H 36.750057 24.166309 55.830869 0
M  V30 44 H 41.203568 30.733890 49.730211 0
M  V30 45 H 42.845135 34.367869 66.116015 0
M  V30 46 H 42.845090 36.126641 65.866050 0
M  V30 47 H 41.575248 35.366543 66.829164 0
M  V30 48 H 37.276177 29.496859 59.767604 0
M  V30 49 H 38.983856 29.662988 59.620807 0
M  V30 50 H 40.845067 31.737758 51.961247 0
M  V30 51 H 36.845096 30.558235 57.755740 0
M  V30 52 H 39.645139 31.684580 57.350276 0
M  V30 53 H 38.210496 32.041466 56.419059 0
M  V30 54 H 38.369957 32.675422 58.018410 0
M  V30 55 H 40.205373 28.537807 49.203636 0
M  V30 56 H 40.338009 36.962500 64.996140 0
M  V30 57 H 38.524049 23.614157 57.483217 0
M  V30 58 H 38.928756 36.725398 62.963816 0
M  V30 59 H 38.427698 30.248038 55.241262 0
M  V30 60 H 37.043636 29.278247 55.495348 0
M  V30 61 H 37.210840 28.499866 53.382819 0
M  V30 62 H 38.200937 27.092721 53.088470 0
M  V30 63 H 36.845199 26.299199 54.573154 0
M  V30 64 H 37.076539 33.676256 62.343886 0
M  V30 END ATOM
M  V30 BEGIN BOND
M  V30 1 1 12 10
M  V30 2 2 13 5
M  V30 3 1 13 11
M  V30 4 1 15 1
M  V30 5 2 15 7
M  V30 6 2 16 8
M  V30 7 1 17 3
M  V30 8 1 17 14
M  V30 9 2 18 10
M  V30 10 2 19 16
M  V30 11 2 20 4
M  V30 12 1 20 9
M  V30 13 1 21 5
M  V30 14 2 21 12
M  V30 15 1 23 17
M  V30 16 2 24 2
M  V30 17 1 24 7
M  V30 18 1 25 13
M  V30 19 1 26 4
M  V30 20 2 26 6
M  V30 21 1 27 12
M  V30 22 2 27 25
M  V30 23 2 28 1
M  V30 24 1 28 2
M  V30 25 1 29 3
M  V30 26 1 29 22
M  V30 27 1 30 20
M  V30 28 1 30 22
M  V30 29 1 31 22
M  V30 30 1 31 28
M  V30 31 1 32 14
M  V30 32 1 32 16
M  V30 33 1 33 21
M  V30 34 2 34 10
M  V30 35 1 35 6
M  V30 36 2 35 30
M  V30 37 1 36 10
M  V30 38 1 36 16
M  V30 39 1 37 1
M  V30 40 1 38 2
M  V30 41 1 39 3
M  V30 42 1 40 3
M  V30 43 1 41 4
M  V30 44 1 42 5
M  V30 45 1 43 6
M  V30 46 1 44 7
M  V30 47 1 45 11
M  V30 48 1 46 11
M  V30 49 1 47 11
M  V30 50 1 48 14
M  V30 51 1 49 14
M  V30 52 1 50 15
M  V30 53 1 17 51 CFG=1
M  V30 54 1 52 23
M  V30 55 1 53 23
M  V30 56 1 54 23
M  V30 57 1 55 24
M  V30 58 1 56 25
M  V30 59 1 57 26
M  V30 60 1 58 27
M  V30 61 1 59 29
M  V30 62 1 60 29
M  V30 63 1 61 31
M  V30 64 1 62 31
M  V30 65 1 63 35
M  V30 66 1 64 36
M  V30 END BOND
M  V30 END CTAB
M  END
>  <i_epik_Tot_Q>  (1) 
-1

>  <i_epik_Tot_abs_Q>  (1) 
1

>  <i_i_glide_confnum>  (1) 
5500

>  <i_i_glide_lignum>  (1) 
20

>  <i_i_glide_posenum>  (1) 
46

>  <i_i_glide_rotatable_bonds>  (1) 
12

>  <i_lp_mmshare_version>  (1) 
72125

>  <i_m_source_file_index>  (1) 
11

>  <i_f3d_flags>  (1) 
0

>  <num_sample>  (1) 
50

>  <b_lp_Chiralities_Consistent>  (1) 
1

>  <r_epik_Charging_Adjusted_Penalty>  (1) 
0.23249297725634946

>  <r_epik_Ionization_Penalty>  (1) 
0.023438671839039082

>  <r_epik_Ionization_Penalty_Charging>  (1) 
0.017777804751773103

>  <r_epik_Ionization_Penalty_Neutral>  (1) 
0.0056608670872659774

>  <r_epik_State_Penalty>  (1) 
0.21471517250457636

>  <r_glide_ring_energy>  (1) 
0

>  <r_i_docking_score>  (1) 
-8.7343233105785298

>  <r_i_glide_ecoul>  (1) 
-3.2316338785536707

>  <r_i_glide_eff_state_penalty>  (1) 
0.21471517250457636

>  <r_i_glide_einternal>  (1) 
18.491369712034171

>  <r_i_glide_emodel>  (1) 
-81.464535785179763

>  <r_i_glide_emodel_strain>  (1) 
1.351867752273435

>  <r_i_glide_energy>  (1) 
-59.74368554985098

>  <r_i_glide_erotb>  (1) 
0.74186158489162179

>  <r_i_glide_esite>  (1) 
-0.18402614751728946

>  <r_i_glide_evdw>  (1) 
-56.512051671297307

>  <r_i_glide_gscore>  (1) 
-8.9490384830831058

>  <r_i_glide_gscore_strain>  (1) 
0

>  <r_i_glide_hbond>  (1) 
0

>  <r_i_glide_ligand_efficiency>  (1) 
-0.24262009196051471

>  <r_i_glide_ligand_efficiency_ln>  (1) 
-1.9055933722225562

>  <r_i_glide_ligand_efficiency_sa>  (1) 
-0.8011138927737439

>  <r_i_glide_lipo>  (1) 
-4.8929343688028659

>  <r_i_glide_metal>  (1) 
-0

>  <r_i_glide_rewards>  (1) 
-1.3035918863066553

>  <r_lp_Energy>  (1) 
46.499781999999996

>  <s_epik_cmdline>  (1) 
J2VwaWtfcHl0aG9uJywgJy1waHQnLCAnMS4wJywgJy1waCcsICc3LjQnLCAnLXRuJywgJzgnLCAnLW1hJywgJzUwMCcsICctaW1hZScsICc8aW5maWxlLm1hZT4nLCAnLW9tYWUnLCAnPG91dGZpbGUubWFlPic=

>  <s_epik_input>  (1) 
W2NIXTFbY0hdW2NIXVtjSF1bY0hdYzFbQ0gyXU4oYzJbY0hdW2NIXVtjSF1bY0hdYzJGKVtDSDJdW0NIMl1bQ0BIXShbQ0gzXSlbQ0gyXVtOSF1TKD1PKSg9TylbTkhdUyg9TykoPU8pYzNjKENsKVtjSF1jKFtDSDNdKVtjSF1bY0hdMw==

>  <s_glide_docking_method>  (1) 
confgen

>  <s_i_glide_gridfile>  (1) 
gpcr_5ht2c_6bqh_protein_autoprepared_prepared

>  <s_lp_Force_Field>  (1) 
S-OPLS

>  <s_lp_Variant>  (1) 
DiffSBDD_10-1

>  <s_m_source_file>  (1) 
generated_GPCR_5HT2C_ligand_DiffSBDD_2026-06-23_prepared.sdf

>  <GenAI_Model>  (1) 
DiffSBDD

>  <Protein>  (1) 
GPCR_5HT2C

$$$$
DiffSBDD_29
     RDKit          3D

  0  0  0  0  0  0  0  0  0  0999 V3000
M  V30 BEGIN CTAB
M  V30 COUNTS 78 81 0 0 1
M  V30 BEGIN ATOM
M  V30 1 C 38.452507 28.281298 56.224753 0 CFG=1
M  V30 2 C 40.593745 35.217737 64.243107 0
M  V30 3 C 40.467808 34.447976 61.765838 0
M  V30 4 C 38.793106 29.144146 52.647061 0
M  V30 5 C 40.723165 34.089526 63.182827 0 CFG=2
M  V30 6 C 38.334732 24.377064 56.630276 0
M  V30 7 C 37.663021 32.475785 61.951261 0
M  V30 8 C 40.859162 36.937540 61.914675 0
M  V30 9 N 38.828789 29.646214 59.809976 0
M  V30 10 O 39.647285 33.032540 63.293580 0
M  V30 11 C 40.119629 29.150960 50.176902 0
M  V30 12 C 39.528001 36.934722 62.650711 0
M  V30 13 C 35.864699 31.057682 60.908553 0
M  V30 14 N 40.455580 28.141669 60.264138 0
M  V30 15 N 38.961541 29.063649 55.073828 0 CFG=2 CHG=1
M  V30 16 C 39.509404 36.310654 64.035745 0
M  V30 17 C 38.161629 30.945201 59.942077 0
M  V30 18 C 39.947134 29.346027 60.538663 0
M  V30 19 N 39.081026 32.761259 61.930644 0
M  V30 20 C 39.305565 28.061676 50.541610 0
M  V30 21 C 38.830362 26.795274 56.047911 0
M  V30 22 C 39.042926 28.979985 57.451508 0 CFG=1
M  V30 23 C 39.415779 30.385359 55.542166 0
M  V30 24 C 38.641503 28.060580 51.769593 0
M  V30 25 C 41.136287 35.642671 61.145912 0
M  V30 26 C 39.645149 30.223114 52.300064 0
M  V30 27 C 39.013017 30.440654 56.991194 0
M  V30 28 O 40.447183 30.106483 61.361803 0
M  V30 29 C 37.363840 31.139210 61.254437 0 CFG=1
M  V30 30 C 38.029596 29.157251 53.947070 0
M  V30 31 C 38.141702 25.836685 57.027954 0
M  V30 32 C 39.609878 33.720632 61.188970 0
M  V30 33 O 38.511041 37.398105 62.140869 0
M  V30 34 C 38.287101 28.750355 58.779581 0
M  V30 35 C 40.299429 30.224637 51.060463 0
M  V30 36 H 37.367897 28.400950 56.272848 0
M  V30 37 H 41.562449 35.714601 64.327383 0
M  V30 38 H 40.448267 34.756049 65.219414 0
M  V30 39 H 41.701273 33.612810 63.256857 0
M  V30 40 H 37.849988 23.731198 57.363348 0
M  V30 41 H 37.910620 24.162198 55.646993 0
M  V30 42 H 39.397475 24.133066 56.603184 0
M  V30 43 H 37.286100 32.480306 62.967724 0
M  V30 44 H 37.146529 33.284616 61.433142 0
M  V30 45 H 41.646838 37.095889 62.647623 0
M  V30 46 H 40.845376 37.782685 61.241805 0
M  V30 47 H 40.615410 29.156845 49.218705 0
M  V30 48 H 35.576619 31.860887 60.227542 0
M  V30 49 H 35.645664 30.138243 60.370200 0
M  V30 50 H 35.202442 31.123643 61.766957 0
M  V30 51 H 40.012515 27.551938 59.578982 0
M  V30 52 H 41.288868 27.828097 60.745625 0
M  V30 53 H 39.632086 37.099404 64.777575 0
M  V30 54 H 38.509327 35.916888 64.169166 0
M  V30 55 H 37.477751 31.111037 59.111831 0
M  V30 56 H 38.921632 31.693220 59.751637 0
M  V30 57 H 39.179276 27.232437 49.862701 0
M  V30 58 H 38.552675 26.483251 55.039238 0
M  V30 59 H 39.912975 26.668054 56.111034 0
M  V30 60 H 40.086131 28.680990 57.567082 0
M  V30 61 H 38.984108 31.232296 55.008315 0
M  V30 62 H 40.492441 30.436047 55.410629 0
M  V30 63 H 38.000297 27.231198 52.034885 0
M  V30 64 H 42.191891 35.464575 60.968052 0
M  V30 65 H 40.682187 35.750217 60.167660 0
M  V30 66 H 39.769275 31.058922 52.969968 0
M  V30 67 H 37.994056 30.828282 57.034837 0
M  V30 68 H 39.644862 31.110696 57.560655 0
M  V30 69 H 37.645174 30.355584 61.958334 0
M  V30 70 H 37.353937 28.300618 53.951719 0
M  V30 71 H 37.387226 30.036010 54.018020 0
M  V30 72 H 38.554405 25.949439 58.027309 0
M  V30 73 H 37.074868 26.054403 57.091086 0
M  V30 74 H 39.233244 33.835319 60.182005 0
M  V30 75 H 38.304345 27.716590 59.112939 0
M  V30 76 H 37.226076 28.964383 58.636190 0
M  V30 77 H 40.932204 31.055407 50.782619 0
M  V30 78 H 39.780021 28.578379 54.736090 0
M  V30 END ATOM
M  V30 BEGIN BOND
M  V30 1 1 5 2
M  V30 2 1 5 3
M  V30 3 1 10 5
M  V30 4 1 12 8
M  V30 5 1 15 1
M  V30 6 1 16 2
M  V30 7 1 16 12
M  V30 8 1 17 9
M  V30 9 1 18 9
M  V30 10 1 18 14
M  V30 11 1 19 7
M  V30 12 1 19 10
M  V30 13 2 20 11
M  V30 14 1 21 1
M  V30 15 1 22 1
M  V30 16 1 23 15
M  V30 17 2 24 4
M  V30 18 1 24 20
M  V30 19 1 25 3
M  V30 20 1 25 8
M  V30 21 1 26 4
M  V30 22 1 27 22
M  V30 23 1 27 23
M  V30 24 2 28 18
M  V30 25 1 29 7
M  V30 26 1 29 13
M  V30 27 1 29 17
M  V30 28 1 30 4
M  V30 29 1 30 15
M  V30 30 1 31 6
M  V30 31 1 31 21
M  V30 32 2 32 3
M  V30 33 1 32 19
M  V30 34 2 33 12
M  V30 35 1 34 9
M  V30 36 1 34 22
M  V30 37 1 35 11
M  V30 38 2 35 26
M  V30 39 1 1 36 CFG=1
M  V30 40 1 37 2
M  V30 41 1 38 2
M  V30 42 1 5 39 CFG=3
M  V30 43 1 40 6
M  V30 44 1 41 6
M  V30 45 1 42 6
M  V30 46 1 43 7
M  V30 47 1 44 7
M  V30 48 1 45 8
M  V30 49 1 46 8
M  V30 50 1 47 11
M  V30 51 1 48 13
M  V30 52 1 49 13
M  V30 53 1 50 13
M  V30 54 1 51 14
M  V30 55 1 52 14
M  V30 56 1 53 16
M  V30 57 1 54 16
M  V30 58 1 55 17
M  V30 59 1 56 17
M  V30 60 1 57 20
M  V30 61 1 58 21
M  V30 62 1 59 21
M  V30 63 1 22 60 CFG=1
M  V30 64 1 61 23
M  V30 65 1 62 23
M  V30 66 1 63 24
M  V30 67 1 64 25
M  V30 68 1 65 25
M  V30 69 1 66 26
M  V30 70 1 67 27
M  V30 71 1 68 27
M  V30 72 1 29 69 CFG=1
M  V30 73 1 70 30
M  V30 74 1 71 30
M  V30 75 1 72 31
M  V30 76 1 73 31
M  V30 77 1 74 32
M  V30 78 1 75 34
M  V30 79 1 76 34
M  V30 80 1 77 35
M  V30 81 1 15 78 CFG=3
M  V30 END BOND
M  V30 END CTAB
M  END
>  <i_epik_Tot_Q>  (1) 
1

>  <i_epik_Tot_abs_Q>  (1) 
1

>  <i_i_glide_confnum>  (1) 
311

>  <i_i_glide_lignum>  (1) 
65

>  <i_i_glide_posenum>  (1) 
218

>  <i_i_glide_rotatable_bonds>  (1) 
11

>  <i_lp_mmshare_version>  (1) 
72125

>  <i_m_source_file_index>  (1) 
30

>  <i_f3d_flags>  (1) 
0

>  <num_sample>  (1) 
50

>  <b_lp_Chiralities_Consistent>  (1) 
1

>  <r_epik_Charging_Adjusted_Penalty>  (1) 
0.034972120206071468

>  <r_epik_Ionization_Penalty>  (1) 
0.01911812601903189

>  <r_epik_Ionization_Penalty_Charging>  (1) 
0.017486060103035727

>  <r_epik_Ionization_Penalty_Neutral>  (1) 
0.0016320659159961622

>  <r_epik_State_Penalty>  (1) 
0.017486060103035741

>  <r_glide_ring_energy>  (1) 
0

>  <r_i_docking_score>  (1) 
-8.7038821700304432

>  <r_i_glide_ecoul>  (1) 
-3.5771360201981741

>  <r_i_glide_eff_state_penalty>  (1) 
0.017486060103035741

>  <r_i_glide_einternal>  (1) 
7.6428125988689679

>  <r_i_glide_emodel>  (1) 
-68.308247240255682

>  <r_i_glide_emodel_strain>  (1) 
3.329784886936153

>  <r_i_glide_energy>  (1) 
-45.78195037089484

>  <r_i_glide_erotb>  (1) 
0.69426181123573816

>  <r_i_glide_esite>  (1) 
0

>  <r_i_glide_evdw>  (1) 
-42.204814350696665

>  <r_i_glide_gscore>  (1) 
-8.7213682301334785

>  <r_i_glide_gscore_strain>  (1) 
0

>  <r_i_glide_hbond>  (1) 
-0.15535571580892241

>  <r_i_glide_ligand_efficiency>  (1) 
-0.24868234771515552

>  <r_i_glide_ligand_efficiency_ln>  (1) 
-1.9106953085786005

>  <r_i_glide_ligand_efficiency_sa>  (1) 
-0.8134564495496498

>  <r_i_glide_lipo>  (1) 
-4.7473783099710261

>  <r_i_glide_metal>  (1) 
-0

>  <r_i_glide_rewards>  (1) 
-1.8660848950247075

>  <r_lp_Energy>  (1) 
27.773861999999998

>  <r_lp_tautomer_probability>  (1) 
0.99999998000000001

>  <s_epik_Chemistry_Notes>  (1) 
This compound has a N-S or N-O group and may undergo hydrolysis at high or low pH.

>  <s_epik_cmdline>  (1) 
J2VwaWtfcHl0aG9uJywgJy1waHQnLCAnMS4wJywgJy1waCcsICc3LjQnLCAnLXRuJywgJzgnLCAnLW1hJywgJzUwMCcsICctaW1hZScsICc8aW5maWxlLm1hZT4nLCAnLW9tYWUnLCAnPG91dGZpbGUubWFlPic=

>  <s_epik_input>  (1) 
W2NIXTFbY0hdW2NIXVtjSF1bY0hdYzFbQ0gyXU4oW0NASF0yW0NIMl1bQ0gyXVtDSDNdKVtDSDJdW0NIMl1bQ0BIXTJbQ0gyXU4oQyg9TylbTkgyXSlbQ0gyXVtDQEhdKFtDSDNdKVtDSDJdTihbQ0hdMylPW0NAQEhdKEM9MzQpW0NIMl1bQ0gyXUMoPU8pW0NIMl1bQ0gyXTQ=

>  <s_glide_docking_method>  (1) 
confgen

>  <s_i_glide_gridfile>  (1) 
gpcr_5ht2c_6bqh_protein_autoprepared_prepared

>  <s_lp_Force_Field>  (1) 
S-OPLS

>  <s_lp_Variant>  (1) 
DiffSBDD_29-2

>  <s_m_source_file>  (1) 
generated_GPCR_5HT2C_ligand_DiffSBDD_2026-06-23_prepared.sdf

>  <GenAI_Model>  (1) 
DiffSBDD

>  <Protein>  (1) 
GPCR_5HT2C

$$$$
DiffSBDD_26
     RDKit          3D

  0  0  0  0  0  0  0  0  0  0999 V3000
M  V30 BEGIN CTAB
M  V30 COUNTS 84 87 0 0 1
M  V30 BEGIN ATOM
M  V30 1 C 40.156743 31.214967 62.980372 0
M  V30 2 C 40.077028 29.462197 51.558004 0
M  V30 3 C 37.969127 30.841458 57.343669 0
M  V30 4 C 38.929123 26.074050 55.885057 0
M  V30 5 N 38.795125 29.641033 57.248820 0
M  V30 6 O 39.515658 25.555597 58.167759 0
M  V30 7 C 39.181937 28.580562 53.793880 0
M  V30 8 C 39.520726 28.564301 55.298243 0 CFG=1
M  V30 9 N 40.039345 33.077510 61.256293 0 CFG=1 CHG=1
M  V30 10 N 42.167833 30.962184 64.447291 0
M  V30 11 C 38.227529 31.584532 58.674508 0
M  V30 12 C 43.785849 29.162477 65.446780 0
M  V30 13 C 40.401936 30.724624 50.748646 0
M  V30 14 C 38.256903 31.299238 61.262853 0
M  V30 15 C 38.804107 25.343117 57.190967 0
M  V30 16 O 40.845135 32.121313 65.904356 0
M  V30 17 C 37.974757 30.661022 59.883761 0
M  V30 18 C 41.719815 31.284465 65.688384 0
M  V30 19 C 36.992005 24.103341 56.132869 0
M  V30 20 C 37.122830 24.740813 54.989035 0
M  V30 21 C 38.106300 25.747078 54.858541 0
M  V30 22 C 43.220293 29.942901 64.230399 0
M  V30 23 O 38.371751 29.007677 56.020360 0
M  V30 24 C 38.883624 35.248928 61.380394 0
M  V30 25 C 41.787208 33.129268 63.157249 0
M  V30 26 C 40.002931 27.163842 55.769306 0
M  V30 27 C 38.366605 28.734604 58.308059 0
M  V30 28 C 39.551513 34.120422 62.138998 0 CFG=2
M  V30 29 C 38.709367 29.324642 59.676620 0
M  V30 30 C 39.642180 29.814852 52.999466 0
M  V30 31 C 41.036138 33.834712 62.026210 0 CFG=2
M  V30 32 C 39.735177 31.652394 61.567154 0 CFG=2
M  V30 33 C 39.058230 28.575019 50.821860 0
M  V30 34 C 41.613769 31.598917 63.229385 0 CFG=2
M  V30 35 O 45.645127 30.543876 65.734060 0
M  V30 36 O 44.464540 29.993260 66.377785 0
M  V30 37 N 37.812651 24.392734 57.223173 0
M  V30 38 H 40.040880 30.133279 63.072165 0
M  V30 39 H 39.514858 31.651933 63.738820 0
M  V30 40 H 41.002356 28.889016 51.621085 0
M  V30 41 H 36.922932 30.537728 57.277831 0
M  V30 42 H 38.169810 31.497645 56.496125 0
M  V30 43 H 37.666065 23.860422 58.068127 0
M  V30 44 H 39.645150 27.708963 53.339203 0
M  V30 45 H 38.109341 28.446339 53.647764 0
M  V30 46 H 40.350753 29.256407 55.454807 0
M  V30 47 H 37.572875 32.455060 58.730019 0
M  V30 48 H 39.245060 31.966838 58.680963 0
M  V30 49 H 44.471674 28.387247 65.100415 0
M  V30 50 H 42.982682 28.635732 65.963694 0
M  V30 51 H 39.517972 31.338370 50.576421 0
M  V30 52 H 41.135518 31.337714 51.269482 0
M  V30 53 H 40.822383 30.471450 49.774904 0
M  V30 54 H 37.910541 30.586006 62.012031 0
M  V30 55 H 37.618568 32.173144 61.399466 0
M  V30 56 H 36.907398 30.431005 59.871218 0
M  V30 57 H 42.231254 30.707271 66.466546 0
M  V30 58 H 36.269016 23.322488 56.311967 0
M  V30 59 H 36.480252 24.498351 54.154922 0
M  V30 60 H 38.197158 26.258208 53.919001 0
M  V30 61 H 44.044940 30.414903 63.698437 0
M  V30 62 H 42.812519 29.206808 63.536158 0
M  V30 63 H 38.671224 36.075596 62.058909 0
M  V30 64 H 39.524483 35.621823 60.579779 0
M  V30 65 H 37.941426 34.911378 60.947089 0
M  V30 66 H 41.494763 33.623176 64.082154 0
M  V30 67 H 42.845126 33.337751 63.037884 0
M  V30 68 H 40.780282 26.789740 55.103898 0
M  V30 69 H 40.512730 27.294001 56.723586 0
M  V30 70 H 37.301986 28.509713 58.225083 0
M  V30 71 H 38.906597 27.807943 58.207722 0
M  V30 72 H 38.992230 33.698971 62.967761 0
M  V30 73 H 39.791269 29.436232 59.728091 0
M  V30 74 H 38.445073 28.613667 60.458544 0
M  V30 75 H 38.845135 30.555227 52.993158 0
M  V30 76 H 40.474205 30.304752 53.502414 0
M  V30 77 H 41.628436 34.467674 61.368129 0
M  V30 78 H 40.380482 31.100309 60.889400 0
M  V30 79 H 38.045088 28.937779 50.967806 0
M  V30 80 H 39.255334 28.546065 49.752864 0
M  V30 81 H 39.084218 27.543383 51.171675 0
M  V30 82 H 42.183515 31.203645 62.389992 0
M  V30 83 H 46.327800 29.963131 66.061004 0
M  V30 84 H 39.958542 33.349309 60.286646 0
M  V30 END ATOM
M  V30 BEGIN BOND
M  V30 1 1 5 3
M  V30 2 1 8 7
M  V30 3 1 11 3
M  V30 4 1 13 2
M  V30 5 1 15 4
M  V30 6 2 15 6
M  V30 7 1 17 11
M  V30 8 1 17 14
M  V30 9 1 18 10
M  V30 10 2 18 16
M  V30 11 2 20 19
M  V30 12 2 21 4
M  V30 13 1 21 20
M  V30 14 1 22 10
M  V30 15 1 22 12
M  V30 16 1 23 5
M  V30 17 1 23 8
M  V30 18 1 26 4
M  V30 19 1 26 8
M  V30 20 1 27 5
M  V30 21 1 28 9
M  V30 22 1 28 24
M  V30 23 1 29 17
M  V30 24 1 29 27
M  V30 25 1 30 2
M  V30 26 1 30 7
M  V30 27 1 31 9
M  V30 28 1 31 25
M  V30 29 1 31 28
M  V30 30 1 32 1
M  V30 31 1 32 9
M  V30 32 1 32 14
M  V30 33 1 33 2
M  V30 34 1 34 1
M  V30 35 1 34 10
M  V30 36 1 34 25
M  V30 37 1 36 12
M  V30 38 1 36 35
M  V30 39 1 37 15
M  V30 40 1 37 19
M  V30 41 1 38 1
M  V30 42 1 39 1
M  V30 43 1 40 2
M  V30 44 1 41 3
M  V30 45 1 42 3
M  V30 46 1 43 37
M  V30 47 1 44 7
M  V30 48 1 45 7
M  V30 49 1 8 46 CFG=3
M  V30 50 1 47 11
M  V30 51 1 48 11
M  V30 52 1 49 12
M  V30 53 1 50 12
M  V30 54 1 51 13
M  V30 55 1 52 13
M  V30 56 1 53 13
M  V30 57 1 54 14
M  V30 58 1 55 14
M  V30 59 1 56 17
M  V30 60 1 57 18
M  V30 61 1 58 19
M  V30 62 1 59 20
M  V30 63 1 60 21
M  V30 64 1 61 22
M  V30 65 1 62 22
M  V30 66 1 63 24
M  V30 67 1 64 24
M  V30 68 1 65 24
M  V30 69 1 66 25
M  V30 70 1 67 25
M  V30 71 1 68 26
M  V30 72 1 69 26
M  V30 73 1 70 27
M  V30 74 1 71 27
M  V30 75 1 28 72 CFG=1
M  V30 76 1 73 29
M  V30 77 1 74 29
M  V30 78 1 75 30
M  V30 79 1 76 30
M  V30 80 1 31 77 CFG=3
M  V30 81 1 32 78 CFG=3
M  V30 82 1 79 33
M  V30 83 1 80 33
M  V30 84 1 81 33
M  V30 85 1 34 82 CFG=3
M  V30 86 1 83 35
M  V30 87 1 9 84 CFG=3
M  V30 END BOND
M  V30 END CTAB
M  END
>  <i_epik_Tot_Q>  (1) 
1

>  <i_epik_Tot_abs_Q>  (1) 
1

>  <i_i_glide_confnum>  (1) 
919

>  <i_i_glide_lignum>  (1) 
58

>  <i_i_glide_posenum>  (1) 
270

>  <i_i_glide_rotatable_bonds>  (1) 
15

>  <i_lp_mmshare_version>  (1) 
72125

>  <i_m_source_file_index>  (1) 
27

>  <i_f3d_flags>  (1) 
0

>  <num_sample>  (1) 
50

>  <b_lp_Chiralities_Consistent>  (1) 
1

>  <r_epik_Charging_Adjusted_Penalty>  (1) 
0.02425622639956965

>  <r_epik_Ionization_Penalty>  (1) 
0.033094864685368548

>  <r_epik_Ionization_Penalty_Charging>  (1) 
0.02425622639956965

>  <r_epik_Ionization_Penalty_Neutral>  (1) 
0.0088386382857988978

>  <r_epik_State_Penalty>  (1) 
-0

>  <r_glide_ring_energy>  (1) 
0

>  <r_i_docking_score>  (1) 
-8.6872748313904076

>  <r_i_glide_ecoul>  (1) 
-4.7348779306848945

>  <r_i_glide_eff_state_penalty>  (1) 
-0

>  <r_i_glide_einternal>  (1) 
21.226747079528142

>  <r_i_glide_emodel>  (1) 
-65.568545891126931

>  <r_i_glide_emodel_strain>  (1) 
1.8178735719727825

>  <r_i_glide_energy>  (1) 
-54.823799005926048

>  <r_i_glide_erotb>  (1) 
0.83677420797818713

>  <r_i_glide_esite>  (1) 
-0.01379311871135821

>  <r_i_glide_evdw>  (1) 
-50.088921075241153

>  <r_i_glide_gscore>  (1) 
-8.6872748313904076

>  <r_i_glide_gscore_strain>  (1) 
0

>  <r_i_glide_hbond>  (1) 
-0.32000000000000001

>  <r_i_glide_ligand_efficiency>  (1) 
-0.23479121165920019

>  <r_i_glide_ligand_efficiency_ln>  (1) 
-1.8840662523112486

>  <r_i_glide_ligand_efficiency_sa>  (1) 
-0.78237640606521719

>  <r_i_glide_lipo>  (1) 
-5.1275044952305304

>  <r_i_glide_metal>  (1) 
-0

>  <r_i_glide_rewards>  (1) 
-0.84807368206191591

>  <r_lp_Energy>  (1) 
54.376549999999995

>  <r_lp_tautomer_probability>  (1) 
1

>  <s_epik_Chemistry_Notes>  (1) 
This compound has a N-S or N-O group and may undergo hydrolysis at high or low pH.

>  <s_epik_cmdline>  (1) 
J2VwaWtfcHl0aG9uJywgJy1waHQnLCAnMS4wJywgJy1waCcsICc3LjQnLCAnLXRuJywgJzgnLCAnLW1hJywgJzUwMCcsICctaW1hZScsICc8aW5maWxlLm1hZT4nLCAnLW9tYWUnLCAnPG91dGZpbGUubWFlPic=

>  <s_epik_input>  (1) 
W09IXU9bQ0gyXVtDSDJdTihbQ0hdPU8pW0NASF0oW0NIMl1bQ0BASF0oTjEyKVtDQEhdMVtDSDNdKVtDSDJdW0NASF0yW0NIMl1bQ0hdKFtDSDJdW0NIMl0zKVtDSDJdW0NIMl1OM09bQ0BIXShbQ0gyXVtDSDJdW0NIXShbQ0gzXSlbQ0gzXSlbQ0gyXVtDQEBIXTRDKD1PKU49W0NIXVtDSF09W0NIXTQ=

>  <s_glide_docking_method>  (1) 
confgen

>  <s_i_glide_gridfile>  (1) 
gpcr_5ht2c_6bqh_protein_autoprepared_prepared

>  <s_lp_Force_Field>  (1) 
S-OPLS

>  <s_lp_Variant>  (1) 
DiffSBDD_26-3

>  <s_m_source_file>  (1) 
generated_GPCR_5HT2C_ligand_DiffSBDD_2026-06-23_prepared.sdf

>  <GenAI_Model>  (1) 
DiffSBDD

>  <Protein>  (1) 
GPCR_5HT2C

$$$$
DiffSBDD_26
     RDKit          3D

  0  0  0  0  0  0  0  0  0  0999 V3000
M  V30 BEGIN CTAB
M  V30 COUNTS 84 87 0 0 1
M  V30 BEGIN ATOM
M  V30 1 C 38.580260 33.149741 59.663890 0
M  V30 2 C 40.206794 30.162451 50.237776 0
M  V30 3 C 39.465299 28.896529 56.380411 0
M  V30 4 C 38.176667 26.233854 54.672235 0
M  V30 5 N 38.613778 29.237021 55.243680 0
M  V30 6 O 40.443106 26.137743 53.827263 0
M  V30 7 C 38.851138 28.456363 51.723819 0
M  V30 8 C 38.232297 28.344673 53.136571 0 CFG=2
M  V30 9 N 36.237245 32.759444 60.214460 0 CFG=2 CHG=1
M  V30 10 N 39.611584 34.629294 61.521320 0
M  V30 11 C 38.704050 29.297292 57.651079 0
M  V30 12 C 39.413295 37.091470 61.927280 0
M  V30 13 C 41.677906 30.537127 50.285930 0
M  V30 14 C 37.356803 31.106645 58.785050 0
M  V30 15 C 39.642678 25.911371 54.735326 0
M  V30 16 O 39.449659 32.608705 62.567779 0
M  V30 17 C 38.339148 30.792418 57.639597 0
M  V30 18 C 39.996691 33.703214 62.429292 0
M  V30 19 C 39.179525 25.026493 56.955900 0
M  V30 20 C 37.892534 25.289003 56.880626 0
M  V30 21 C 37.377571 25.909708 55.718997 0
M  V30 22 C 40.294999 35.924000 61.431744 0
M  V30 23 O 39.245113 28.728851 54.070949 0
M  V30 24 C 34.044863 33.165885 59.074678 0
M  V30 25 C 37.132646 34.478176 61.376042 0
M  V30 26 C 37.644493 26.938389 53.423038 0
M  V30 27 C 38.635666 30.684448 55.106961 0
M  V30 28 C 34.887397 33.294235 60.314058 0 CFG=2
M  V30 29 C 37.781071 31.181296 56.259857 0
M  V30 30 C 39.767487 29.683526 51.633259 0
M  V30 31 C 36.061561 34.208321 60.374836 0 CFG=2
M  V30 32 C 37.211355 32.605001 59.111569 0 CFG=2
M  V30 33 C 39.496910 31.455046 49.868447 0
M  V30 34 C 38.473315 34.406718 60.599623 0 CFG=2
M  V30 35 O 37.599325 38.465760 61.367722 0
M  V30 36 O 38.388401 37.319182 60.968820 0
M  V30 37 N 40.045248 25.337770 55.911400 0
M  V30 38 H 39.248515 33.381762 58.834616 0
M  V30 39 H 39.075364 32.335874 60.188154 0
M  V30 40 H 40.043179 29.393460 49.482365 0
M  V30 41 H 40.435342 29.389434 56.313542 0
M  V30 42 H 39.666914 27.835460 56.432118 0
M  V30 43 H 41.023461 25.103410 56.035961 0
M  V30 44 H 39.440361 27.567259 51.500744 0
M  V30 45 H 38.062578 28.495798 50.973006 0
M  V30 46 H 37.415076 29.068356 53.167040 0
M  V30 47 H 39.299157 29.061979 58.533875 0
M  V30 48 H 37.797071 28.691914 57.724088 0
M  V30 49 H 40.023660 37.990153 62.028010 0
M  V30 50 H 38.992383 36.871641 62.909327 0
M  V30 51 H 41.806777 31.337787 50.998573 0
M  V30 52 H 42.290435 29.737816 50.666539 0
M  V30 53 H 42.055707 30.863480 49.320161 0
M  V30 54 H 37.689278 30.585679 59.683934 0
M  V30 55 H 36.379674 30.670963 58.567797 0
M  V30 56 H 39.254127 31.356178 57.778557 0
M  V30 57 H 40.853029 34.055390 63.023017 0
M  V30 58 H 39.655849 24.561355 57.799695 0
M  V30 59 H 37.237061 25.039114 57.703540 0
M  V30 60 H 36.332790 26.137846 55.676662 0
M  V30 61 H 40.608054 36.086922 60.406345 0
M  V30 62 H 41.221673 35.915912 62.009809 0
M  V30 63 H 33.036065 33.530581 59.268456 0
M  V30 64 H 34.459042 33.759056 58.260785 0
M  V30 65 H 33.991153 32.118331 58.782848 0
M  V30 66 H 37.089237 33.736074 62.167747 0
M  V30 67 H 36.968622 35.451259 61.834920 0
M  V30 68 H 36.563074 27.030705 53.478490 0
M  V30 69 H 37.825557 26.302595 52.569468 0
M  V30 70 H 39.646347 31.092675 55.128978 0
M  V30 71 H 38.179684 30.981656 54.163852 0
M  V30 72 H 34.444657 32.947521 61.244232 0
M  V30 73 H 36.845117 30.655786 56.127697 0
M  V30 74 H 37.609379 32.256529 56.170284 0
M  V30 75 H 39.329573 30.510485 52.189874 0
M  V30 76 H 40.662998 29.422536 52.188464 0
M  V30 77 H 36.155004 34.812922 59.471913 0
M  V30 78 H 36.899661 33.153998 58.219952 0
M  V30 79 H 39.612831 32.137769 50.693826 0
M  V30 80 H 39.877764 31.930422 48.968231 0
M  V30 81 H 38.445160 31.338480 49.767770 0
M  V30 82 H 38.451514 35.230040 59.888828 0
M  V30 83 H 36.867905 38.044896 61.792947 0
M  V30 84 H 36.563494 32.363811 61.083093 0
M  V30 END ATOM
M  V30 BEGIN BOND
M  V30 1 1 5 3
M  V30 2 1 8 7
M  V30 3 1 11 3
M  V30 4 1 13 2
M  V30 5 1 15 4
M  V30 6 2 15 6
M  V30 7 1 17 11
M  V30 8 1 17 14
M  V30 9 1 18 10
M  V30 10 2 18 16
M  V30 11 2 20 19
M  V30 12 2 21 4
M  V30 13 1 21 20
M  V30 14 1 22 10
M  V30 15 1 22 12
M  V30 16 1 23 5
M  V30 17 1 23 8
M  V30 18 1 26 4
M  V30 19 1 26 8
M  V30 20 1 27 5
M  V30 21 1 28 9
M  V30 22 1 28 24
M  V30 23 1 29 17
M  V30 24 1 29 27
M  V30 25 1 30 2
M  V30 26 1 30 7
M  V30 27 1 31 9
M  V30 28 1 31 25
M  V30 29 1 31 28
M  V30 30 1 32 1
M  V30 31 1 32 9
M  V30 32 1 32 14
M  V30 33 1 33 2
M  V30 34 1 34 1
M  V30 35 1 34 10
M  V30 36 1 34 25
M  V30 37 1 36 12
M  V30 38 1 36 35
M  V30 39 1 37 15
M  V30 40 1 37 19
M  V30 41 1 38 1
M  V30 42 1 39 1
M  V30 43 1 40 2
M  V30 44 1 41 3
M  V30 45 1 42 3
M  V30 46 1 43 37
M  V30 47 1 44 7
M  V30 48 1 45 7
M  V30 49 1 8 46 CFG=3
M  V30 50 1 47 11
M  V30 51 1 48 11
M  V30 52 1 49 12
M  V30 53 1 50 12
M  V30 54 1 51 13
M  V30 55 1 52 13
M  V30 56 1 53 13
M  V30 57 1 54 14
M  V30 58 1 55 14
M  V30 59 1 56 17
M  V30 60 1 57 18
M  V30 61 1 58 19
M  V30 62 1 59 20
M  V30 63 1 60 21
M  V30 64 1 61 22
M  V30 65 1 62 22
M  V30 66 1 63 24
M  V30 67 1 64 24
M  V30 68 1 65 24
M  V30 69 1 66 25
M  V30 70 1 67 25
M  V30 71 1 68 26
M  V30 72 1 69 26
M  V30 73 1 70 27
M  V30 74 1 71 27
M  V30 75 1 28 72 CFG=1
M  V30 76 1 73 29
M  V30 77 1 74 29
M  V30 78 1 75 30
M  V30 79 1 76 30
M  V30 80 1 31 77 CFG=3
M  V30 81 1 32 78 CFG=3
M  V30 82 1 79 33
M  V30 83 1 80 33
M  V30 84 1 81 33
M  V30 85 1 34 82 CFG=3
M  V30 86 1 83 35
M  V30 87 1 9 84 CFG=1
M  V30 END BOND
M  V30 END CTAB
M  END
>  <i_epik_Tot_Q>  (1) 
1

>  <i_epik_Tot_abs_Q>  (1) 
1

>  <i_i_glide_confnum>  (1) 
2391

>  <i_i_glide_lignum>  (1) 
57

>  <i_i_glide_posenum>  (1) 
2

>  <i_i_glide_rotatable_bonds>  (1) 
15

>  <i_lp_mmshare_version>  (1) 
72125

>  <i_m_source_file_index>  (1) 
27

>  <i_f3d_flags>  (1) 
0

>  <num_sample>  (1) 
50

>  <b_lp_Chiralities_Consistent>  (1) 
1

>  <r_epik_Charging_Adjusted_Penalty>  (1) 
0.02425622639956965

>  <r_epik_Ionization_Penalty>  (1) 
0.033094864685368548

>  <r_epik_Ionization_Penalty_Charging>  (1) 
0.02425622639956965

>  <r_epik_Ionization_Penalty_Neutral>  (1) 
0.0088386382857988978

>  <r_epik_State_Penalty>  (1) 
-0

>  <r_glide_ring_energy>  (1) 
0

>  <r_i_docking_score>  (1) 
-8.684336318021554

>  <r_i_glide_ecoul>  (1) 
-4.2114059324162234

>  <r_i_glide_eff_state_penalty>  (1) 
-0

>  <r_i_glide_einternal>  (1) 
11.738360070838052

>  <r_i_glide_emodel>  (1) 
-57.36312436552803

>  <r_i_glide_emodel_strain>  (1) 
2.8252821998621869

>  <r_i_glide_energy>  (1) 
-46.410527309776214

>  <r_i_glide_erotb>  (1) 
0.83677420797818713

>  <r_i_glide_esite>  (1) 
-0.034103938977804178

>  <r_i_glide_evdw>  (1) 
-42.199121377359994

>  <r_i_glide_gscore>  (1) 
-8.684336318021554

>  <r_i_glide_gscore_strain>  (1) 
0

>  <r_i_glide_hbond>  (1) 
-0.32000000000000001

>  <r_i_glide_ligand_efficiency>  (1) 
-0.23471179237896092

>  <r_i_glide_ligand_efficiency_ln>  (1) 
-1.8834289576500716

>  <r_i_glide_ligand_efficiency_sa>  (1) 
-0.78211176340416177

>  <r_i_glide_lipo>  (1) 
-4.7896229725653718

>  <r_i_glide_metal>  (1) 
-0

>  <r_i_glide_rewards>  (1) 
-1.6357166557261325

>  <r_lp_Energy>  (1) 
64.493858000000003

>  <r_lp_tautomer_probability>  (1) 
1

>  <s_epik_Chemistry_Notes>  (1) 
This compound has a N-S or N-O group and may undergo hydrolysis at high or low pH.

>  <s_epik_cmdline>  (1) 
J2VwaWtfcHl0aG9uJywgJy1waHQnLCAnMS4wJywgJy1waCcsICc3LjQnLCAnLXRuJywgJzgnLCAnLW1hJywgJzUwMCcsICctaW1hZScsICc8aW5maWxlLm1hZT4nLCAnLW9tYWUnLCAnPG91dGZpbGUubWFlPic=

>  <s_epik_input>  (1) 
W09IXU9bQ0gyXVtDSDJdTihbQ0hdPU8pW0NASF0oW0NIMl1bQ0BASF0oTjEyKVtDQEhdMVtDSDNdKVtDSDJdW0NASF0yW0NIMl1bQ0hdKFtDSDJdW0NIMl0zKVtDSDJdW0NIMl1OM09bQ0BASF0oW0NIMl1bQ0gyXVtDSF0oW0NIM10pW0NIM10pW0NIMl1bQ0BASF00Qyg9TylOPVtDSF1bQ0hdPVtDSF00

>  <s_glide_docking_method>  (1) 
confgen

>  <s_i_glide_gridfile>  (1) 
gpcr_5ht2c_6bqh_protein_autoprepared_prepared

>  <s_lp_Force_Field>  (1) 
S-OPLS

>  <s_lp_Variant>  (1) 
DiffSBDD_26-2

>  <s_m_source_file>  (1) 
generated_GPCR_5HT2C_ligand_DiffSBDD_2026-06-23_prepared.sdf

>  <GenAI_Model>  (1) 
DiffSBDD

>  <Protein>  (1) 
GPCR_5HT2C

$$$$
DiffSBDD_29
     RDKit          3D

  0  0  0  0  0  0  0  0  0  0999 V3000
M  V30 BEGIN CTAB
M  V30 COUNTS 78 81 0 0 1
M  V30 BEGIN ATOM
M  V30 1 C 38.132015 27.997706 56.818406 0 CFG=1
M  V30 2 C 39.195362 37.041967 62.298868 0
M  V30 3 C 37.705424 35.824609 60.618052 0
M  V30 4 C 38.749583 28.927355 53.155928 0
M  V30 5 C 39.070401 36.010637 61.161982 0 CFG=2
M  V30 6 C 38.156694 24.093961 57.316806 0
M  V30 7 C 37.812021 32.712450 62.127892 0
M  V30 8 C 36.727327 38.140666 61.163834 0
M  V30 9 N 39.178530 29.729729 60.173048 0
M  V30 10 O 39.274828 34.608014 61.656535 0
M  V30 11 C 39.971642 28.937230 50.616816 0
M  V30 12 C 36.674657 37.673662 62.621974 0
M  V30 13 C 36.393483 31.154622 60.777341 0
M  V30 14 N 40.646746 29.565690 61.883016 0
M  V30 15 N 38.855513 28.172993 55.533796 0 CFG=2 CHG=1
M  V30 16 C 37.970173 37.121135 63.240096 0
M  V30 17 C 38.963679 31.146830 60.498905 0
M  V30 18 C 40.035460 28.934278 60.877872 0
M  V30 19 N 38.153661 33.745502 61.177104 0
M  V30 20 C 39.243149 27.809369 51.042801 0
M  V30 21 C 37.622311 26.554372 56.999853 0
M  V30 22 C 39.071438 28.465205 57.941345 0 CFG=1
M  V30 23 C 40.178985 28.753130 55.850691 0
M  V30 24 C 38.629270 27.804908 52.309686 0
M  V30 25 C 36.914684 37.017972 60.116344 0
M  V30 26 C 39.489277 30.052471 52.731036 0
M  V30 27 C 40.058700 29.355043 57.239360 0
M  V30 28 O 40.223542 27.751719 60.626039 0
M  V30 29 C 37.763638 31.338603 61.462159 0 CFG=1
M  V30 30 C 38.078839 28.927438 54.519075 0
M  V30 31 C 38.704331 25.460155 56.920318 0
M  V30 32 C 37.289744 34.622740 60.665596 0
M  V30 33 O 35.639939 37.751851 63.279676 0
M  V30 34 C 38.350177 29.189951 59.085051 0
M  V30 35 C 40.094237 30.057669 51.460029 0
M  V30 36 H 37.277899 28.675453 56.823501 0
M  V30 37 H 39.396110 38.025719 61.875094 0
M  V30 38 H 40.081649 36.805345 62.887828 0
M  V30 39 H 39.799898 36.137748 60.367545 0
M  V30 40 H 38.972624 23.372069 57.376978 0
M  V30 41 H 37.667128 24.117785 58.290231 0
M  V30 42 H 37.429389 23.738002 56.587632 0
M  V30 43 H 38.551646 32.713969 62.929841 0
M  V30 44 H 36.845234 32.938038 62.567361 0
M  V30 45 H 37.533413 38.866413 61.068458 0
M  V30 46 H 35.809992 38.693948 60.967981 0
M  V30 47 H 40.434036 28.942931 49.641320 0
M  V30 48 H 36.291203 31.806536 59.909045 0
M  V30 49 H 36.239021 30.137303 60.435119 0
M  V30 50 H 35.566675 31.380624 61.451033 0
M  V30 51 H 40.446334 30.536535 62.063194 0
M  V30 52 H 41.285371 29.057492 62.477807 0
M  V30 53 H 38.218702 37.737027 64.101898 0
M  V30 54 H 37.752981 36.138498 63.643526 0
M  V30 55 H 38.775417 31.693237 59.572580 0
M  V30 56 H 39.861401 31.630870 60.885134 0
M  V30 57 H 39.149780 26.949023 50.395258 0
M  V30 58 H 37.126053 26.488636 57.967895 0
M  V30 59 H 36.850330 26.342730 56.258501 0
M  V30 60 H 39.624106 27.613318 58.318600 0
M  V30 61 H 40.524994 29.495260 55.134600 0
M  V30 62 H 40.905412 27.940892 55.871131 0
M  V30 63 H 38.063504 26.941900 52.630350 0
M  V30 64 H 37.423575 37.418104 59.239375 0
M  V30 65 H 35.940449 36.675739 59.767499 0
M  V30 66 H 39.582725 30.915267 53.375517 0
M  V30 67 H 39.688696 30.379533 57.176789 0
M  V30 68 H 40.999439 29.337723 57.785252 0
M  V30 69 H 37.838160 30.602555 62.262802 0
M  V30 70 H 37.093748 28.471685 54.408395 0
M  V30 71 H 37.911107 29.951650 54.858162 0
M  V30 72 H 39.121192 25.405874 55.914230 0
M  V30 73 H 39.542784 25.670926 57.580574 0
M  V30 74 H 36.319570 34.252198 60.366629 0
M  V30 75 H 37.645386 28.530090 59.561251 0
M  V30 76 H 37.741839 29.983410 58.648746 0
M  V30 77 H 40.652797 30.922467 51.131560 0
M  V30 78 H 39.017722 27.254044 55.149140 0
M  V30 END ATOM
M  V30 BEGIN BOND
M  V30 1 1 5 2
M  V30 2 1 5 3
M  V30 3 1 10 5
M  V30 4 1 12 8
M  V30 5 1 15 1
M  V30 6 1 16 2
M  V30 7 1 16 12
M  V30 8 1 17 9
M  V30 9 1 18 9
M  V30 10 1 18 14
M  V30 11 1 19 7
M  V30 12 1 19 10
M  V30 13 2 20 11
M  V30 14 1 21 1
M  V30 15 1 22 1
M  V30 16 1 23 15
M  V30 17 2 24 4
M  V30 18 1 24 20
M  V30 19 1 25 3
M  V30 20 1 25 8
M  V30 21 1 26 4
M  V30 22 1 27 22
M  V30 23 1 27 23
M  V30 24 2 28 18
M  V30 25 1 29 7
M  V30 26 1 29 13
M  V30 27 1 29 17
M  V30 28 1 30 4
M  V30 29 1 30 15
M  V30 30 1 31 6
M  V30 31 1 31 21
M  V30 32 2 32 3
M  V30 33 1 32 19
M  V30 34 2 33 12
M  V30 35 1 34 9
M  V30 36 1 34 22
M  V30 37 1 35 11
M  V30 38 2 35 26
M  V30 39 1 1 36 CFG=3
M  V30 40 1 37 2
M  V30 41 1 38 2
M  V30 42 1 5 39 CFG=3
M  V30 43 1 40 6
M  V30 44 1 41 6
M  V30 45 1 42 6
M  V30 46 1 43 7
M  V30 47 1 44 7
M  V30 48 1 45 8
M  V30 49 1 46 8
M  V30 50 1 47 11
M  V30 51 1 48 13
M  V30 52 1 49 13
M  V30 53 1 50 13
M  V30 54 1 51 14
M  V30 55 1 52 14
M  V30 56 1 53 16
M  V30 57 1 54 16
M  V30 58 1 55 17
M  V30 59 1 56 17
M  V30 60 1 57 20
M  V30 61 1 58 21
M  V30 62 1 59 21
M  V30 63 1 22 60 CFG=1
M  V30 64 1 61 23
M  V30 65 1 62 23
M  V30 66 1 63 24
M  V30 67 1 64 25
M  V30 68 1 65 25
M  V30 69 1 66 26
M  V30 70 1 67 27
M  V30 71 1 68 27
M  V30 72 1 29 69 CFG=1
M  V30 73 1 70 30
M  V30 74 1 71 30
M  V30 75 1 72 31
M  V30 76 1 73 31
M  V30 77 1 74 32
M  V30 78 1 75 34
M  V30 79 1 76 34
M  V30 80 1 77 35
M  V30 81 1 15 78 CFG=3
M  V30 END BOND
M  V30 END CTAB
M  END
>  <i_epik_Tot_Q>  (1) 
1

>  <i_epik_Tot_abs_Q>  (1) 
1

>  <i_i_glide_confnum>  (1) 
556

>  <i_i_glide_lignum>  (1) 
65

>  <i_i_glide_posenum>  (1) 
388

>  <i_i_glide_rotatable_bonds>  (1) 
11

>  <i_lp_mmshare_version>  (1) 
72125

>  <i_m_source_file_index>  (1) 
30

>  <i_f3d_flags>  (1) 
0

>  <num_sample>  (1) 
50

>  <b_lp_Chiralities_Consistent>  (1) 
1

>  <r_epik_Charging_Adjusted_Penalty>  (1) 
0.034972120206071468

>  <r_epik_Ionization_Penalty>  (1) 
0.01911812601903189

>  <r_epik_Ionization_Penalty_Charging>  (1) 
0.017486060103035727

>  <r_epik_Ionization_Penalty_Neutral>  (1) 
0.0016320659159961622

>  <r_epik_State_Penalty>  (1) 
0.017486060103035741

>  <r_glide_ring_energy>  (1) 
0

>  <r_i_docking_score>  (1) 
-8.6733676302841864

>  <r_i_glide_ecoul>  (1) 
-0.038253694143474792

>  <r_i_glide_eff_state_penalty>  (1) 
0.017486060103035741

>  <r_i_glide_einternal>  (1) 
11.226698268720714

>  <r_i_glide_emodel>  (1) 
-72.046475561119209

>  <r_i_glide_emodel_strain>  (1) 
0.81856663039017974

>  <r_i_glide_energy>  (1) 
-48.904739602345501

>  <r_i_glide_erotb>  (1) 
0.69426181123573816

>  <r_i_glide_esite>  (1) 
-0.036369118438891505

>  <r_i_glide_evdw>  (1) 
-48.866485908202023

>  <r_i_glide_gscore>  (1) 
-8.6908536903872218

>  <r_i_glide_gscore_strain>  (1) 
0

>  <r_i_glide_hbond>  (1) 
0

>  <r_i_glide_ligand_efficiency>  (1) 
-0.24781050372240532

>  <r_i_glide_ligand_efficiency_ln>  (1) 
-1.9039966898705758

>  <r_i_glide_ligand_efficiency_sa>  (1) 
-0.81060459003722429

>  <r_i_glide_lipo>  (1) 
-5.1860147590314822

>  <r_i_glide_metal>  (1) 
-0

>  <r_i_glide_rewards>  (1) 
-1.7136692746209641

>  <r_lp_Energy>  (1) 
27.773861999999998

>  <r_lp_tautomer_probability>  (1) 
0.99999998000000001

>  <s_epik_Chemistry_Notes>  (1) 
This compound has a N-S or N-O group and may undergo hydrolysis at high or low pH.

>  <s_epik_cmdline>  (1) 
J2VwaWtfcHl0aG9uJywgJy1waHQnLCAnMS4wJywgJy1waCcsICc3LjQnLCAnLXRuJywgJzgnLCAnLW1hJywgJzUwMCcsICctaW1hZScsICc8aW5maWxlLm1hZT4nLCAnLW9tYWUnLCAnPG91dGZpbGUubWFlPic=

>  <s_epik_input>  (1) 
W2NIXTFbY0hdW2NIXVtjSF1bY0hdYzFbQ0gyXU4oW0NASF0yW0NIMl1bQ0gyXVtDSDNdKVtDSDJdW0NIMl1bQ0BIXTJbQ0gyXU4oQyg9TylbTkgyXSlbQ0gyXVtDQEhdKFtDSDNdKVtDSDJdTihbQ0hdMylPW0NAQEhdKEM9MzQpW0NIMl1bQ0gyXUMoPU8pW0NIMl1bQ0gyXTQ=

>  <s_glide_docking_method>  (1) 
confgen

>  <s_i_glide_gridfile>  (1) 
gpcr_5ht2c_6bqh_protein_autoprepared_prepared

>  <s_lp_Force_Field>  (1) 
S-OPLS

>  <s_lp_Variant>  (1) 
DiffSBDD_29-2

>  <s_m_source_file>  (1) 
generated_GPCR_5HT2C_ligand_DiffSBDD_2026-06-23_prepared.sdf

>  <GenAI_Model>  (1) 
DiffSBDD

>  <Protein>  (1) 
GPCR_5HT2C

$$$$
DiffSBDD_41
     RDKit          3D

  0  0  0  0  0  0  0  0  0  0999 V3000
M  V30 BEGIN CTAB
M  V30 COUNTS 70 74 0 0 1
M  V30 BEGIN ATOM
M  V30 1 C 40.343338 26.080804 56.175844 0
M  V30 2 O 39.245135 31.970302 59.937339 0
M  V30 3 C 39.210086 30.584053 59.590342 0 CFG=1
M  V30 4 C 39.440893 32.526089 56.967735 0
M  V30 5 C 39.981505 25.287082 57.435551 0
M  V30 6 C 38.094604 28.232477 56.019410 0
M  V30 7 C 39.836354 28.496019 51.045897 0
M  V30 8 C 39.525856 27.337781 51.772103 0
M  V30 9 C 40.535346 33.666576 62.939086 0
M  V30 10 C 38.815248 31.007961 53.767756 0
M  V30 11 C 38.258438 29.848548 60.552475 0
M  V30 12 C 39.882731 35.653334 62.187004 0
M  V30 13 N 40.452855 34.957643 63.183126 0
M  V30 14 C 38.751851 30.364207 58.110281 0 CFG=1
M  V30 15 C 39.237074 28.179420 57.075247 0
M  V30 16 C 39.936510 33.465110 61.657679 0
M  V30 17 O 42.358024 35.737754 64.380955 0
M  V30 18 O 41.028654 32.821428 63.688031 0
M  V30 19 C 38.813197 27.349514 58.304782 0
M  V30 20 C 38.684896 25.843803 58.034632 0
M  V30 21 N 38.449063 31.510051 57.266457 0
M  V30 22 O 39.709481 36.872715 62.186408 0
M  V30 23 O 39.662638 29.494942 57.491193 0
M  V30 24 C 39.061704 27.442783 53.085145 0
M  V30 25 C 37.679483 31.224498 56.078188 0
M  V30 26 C 40.958208 35.571357 64.414296 0
M  V30 27 C 38.876847 28.710989 53.660028 0
M  V30 28 C 39.839624 32.226698 61.147248 0
M  V30 29 C 39.661019 29.766054 51.627967 0
M  V30 30 C 37.931286 34.797880 60.710558 0
M  V30 31 N 38.425325 29.107848 54.915851 0
M  V30 32 C 39.442078 34.751694 60.991279 0 CFG=1
M  V30 33 C 40.521157 27.567151 56.497380 0
M  V30 34 C 38.308959 30.502926 54.931715 0
M  V30 35 C 39.156511 29.903105 52.949227 0
M  V30 36 H 39.563269 25.915257 55.444385 0
M  V30 37 H 41.245140 25.732591 55.698263 0
M  V30 38 H 40.203104 30.137758 59.699985 0
M  V30 39 H 38.987609 33.333373 56.391213 0
M  V30 40 H 39.813242 32.994076 57.873002 0
M  V30 41 H 40.249291 32.118145 56.362994 0
M  V30 42 H 39.863083 24.229640 57.198244 0
M  V30 43 H 40.786621 25.360186 58.167748 0
M  V30 44 H 37.801852 27.254396 55.641232 0
M  V30 45 H 37.245137 28.622852 56.535674 0
M  V30 46 H 40.200984 28.414432 50.033328 0
M  V30 47 H 39.645767 26.365327 51.319232 0
M  V30 48 H 38.881040 32.048549 53.487116 0
M  V30 49 H 38.445000 28.778757 60.526552 0
M  V30 50 H 38.394595 30.132205 61.595022 0
M  V30 51 H 37.213444 30.045623 60.307475 0
M  V30 52 H 37.803253 29.837848 58.178801 0
M  V30 53 H 42.537919 36.655916 64.567684 0
M  V30 54 H 39.546383 27.489512 59.099506 0
M  V30 55 H 37.858313 27.719206 58.660009 0
M  V30 56 H 37.849939 25.649156 57.361006 0
M  V30 57 H 38.445081 25.337849 58.967258 0
M  V30 58 H 38.823918 26.553980 53.641023 0
M  V30 59 H 37.245125 32.154485 55.713425 0
M  V30 60 H 36.845141 30.609416 56.389399 0
M  V30 61 H 40.704949 34.953747 65.277904 0
M  V30 62 H 40.486258 36.537747 64.597639 0
M  V30 63 H 40.199375 31.333083 61.639155 0
M  V30 64 H 39.887945 30.651002 51.051768 0
M  V30 65 H 37.347421 34.639685 61.618042 0
M  V30 66 H 37.644906 35.763734 60.293003 0
M  V30 67 H 37.641160 34.032799 59.988960 0
M  V30 68 H 40.037309 34.975350 60.106971 0
M  V30 69 H 40.842335 28.116034 55.616815 0
M  V30 70 H 41.333732 27.675653 57.217360 0
M  V30 END ATOM
M  V30 BEGIN BOND
M  V30 1 1 3 2
M  V30 2 1 5 1
M  V30 3 2 8 7
M  V30 4 1 11 3
M  V30 5 1 13 9
M  V30 6 1 13 12
M  V30 7 1 14 3
M  V30 8 1 15 6
M  V30 9 1 16 9
M  V30 10 2 18 9
M  V30 11 1 19 15
M  V30 12 1 20 5
M  V30 13 1 20 19
M  V30 14 1 21 4
M  V30 15 1 21 14
M  V30 16 2 22 12
M  V30 17 1 23 14
M  V30 18 1 23 15
M  V30 19 1 24 8
M  V30 20 1 25 21
M  V30 21 1 26 13
M  V30 22 1 26 17
M  V30 23 2 27 24
M  V30 24 1 28 2
M  V30 25 2 28 16
M  V30 26 1 29 7
M  V30 27 1 31 6
M  V30 28 1 31 27
M  V30 29 1 32 12
M  V30 30 1 32 16
M  V30 31 1 32 30
M  V30 32 1 33 1
M  V30 33 1 33 15
M  V30 34 2 34 10
M  V30 35 1 34 25
M  V30 36 1 34 31
M  V30 37 1 35 10
M  V30 38 1 35 27
M  V30 39 2 35 29
M  V30 40 1 36 1
M  V30 41 1 37 1
M  V30 42 1 3 38 CFG=3
M  V30 43 1 39 4
M  V30 44 1 40 4
M  V30 45 1 41 4
M  V30 46 1 42 5
M  V30 47 1 43 5
M  V30 48 1 44 6
M  V30 49 1 45 6
M  V30 50 1 46 7
M  V30 51 1 47 8
M  V30 52 1 48 10
M  V30 53 1 49 11
M  V30 54 1 50 11
M  V30 55 1 51 11
M  V30 56 1 14 52 CFG=1
M  V30 57 1 53 17
M  V30 58 1 54 19
M  V30 59 1 55 19
M  V30 60 1 56 20
M  V30 61 1 57 20
M  V30 62 1 58 24
M  V30 63 1 59 25
M  V30 64 1 60 25
M  V30 65 1 61 26
M  V30 66 1 62 26
M  V30 67 1 63 28
M  V30 68 1 64 29
M  V30 69 1 65 30
M  V30 70 1 66 30
M  V30 71 1 67 30
M  V30 72 1 32 68 CFG=3
M  V30 73 1 69 33
M  V30 74 1 70 33
M  V30 END BOND
M  V30 END CTAB
M  END
>  <i_epik_Tot_Q>  (1) 
0

>  <i_epik_Tot_abs_Q>  (1) 
0

>  <i_i_glide_confnum>  (1) 
28

>  <i_i_glide_lignum>  (1) 
87

>  <i_i_glide_posenum>  (1) 
334

>  <i_i_glide_rotatable_bonds>  (1) 
5

>  <i_lp_mmshare_version>  (1) 
72125

>  <i_m_source_file_index>  (1) 
42

>  <i_f3d_flags>  (1) 
0

>  <num_sample>  (1) 
50

>  <b_lp_Chiralities_Consistent>  (1) 
1

>  <r_epik_Charging_Adjusted_Penalty>  (1) 
0.17305261392596941

>  <r_epik_Ionization_Penalty>  (1) 
0.17312613183816786

>  <r_epik_Ionization_Penalty_Charging>  (1) 
0

>  <r_epik_Ionization_Penalty_Neutral>  (1) 
0.17312613183816786

>  <r_epik_State_Penalty>  (1) 
0.17305261392596941

>  <r_glide_ring_energy>  (1) 
1.1919119817504524

>  <r_i_docking_score>  (1) 
-8.6711800663264338

>  <r_i_glide_ecoul>  (1) 
-5.9494363124986798

>  <r_i_glide_eff_state_penalty>  (1) 
0.17305261392596941

>  <r_i_glide_einternal>  (1) 
12.535584053682108

>  <r_i_glide_emodel>  (1) 
-54.887645797661953

>  <r_i_glide_emodel_strain>  (1) 
0.23538234183913431

>  <r_i_glide_energy>  (1) 
-45.800847588314042

>  <r_i_glide_erotb>  (1) 
0.34988069477117673

>  <r_i_glide_esite>  (1) 
-0.042193505434535206

>  <r_i_glide_evdw>  (1) 
-39.851411275815359

>  <r_i_glide_gscore>  (1) 
-8.8442326802524036

>  <r_i_glide_gscore_strain>  (1) 
0

>  <r_i_glide_hbond>  (1) 
-0.32119493864770499

>  <r_i_glide_ligand_efficiency>  (1) 
-0.24774800189504095

>  <r_i_glide_ligand_efficiency_ln>  (1) 
-1.9035164710314829

>  <r_i_glide_ligand_efficiency_sa>  (1) 
-0.81040014241540748

>  <r_i_glide_lipo>  (1) 
-4.1209998617191204

>  <r_i_glide_metal>  (1) 
-0

>  <r_i_glide_rewards>  (1) 
-1.8247390585566496

>  <r_lp_Energy>  (1) 
38.581286999999996

>  <s_epik_Chemistry_Notes>  (1) 
This compound contains an acetal/aminal-like group ( X-CH(R)-Y where X, Y are N, S, or O) that may be acid/base labile, releasing an aldehyde.

>  <s_epik_cmdline>  (1) 
J2VwaWtfcHl0aG9uJywgJy1waHQnLCAnMS4wJywgJy1waCcsICc3LjQnLCAnLXRuJywgJzgnLCAnLW1hJywgJzUwMCcsICctaW1hZScsICc8aW5maWxlLm1hZT4nLCAnLW9tYWUnLCAnPG91dGZpbGUubWFlPic=

>  <s_epik_input>  (1) 
W0NIMl0xW0NIMl1bQ0gyXVtDSDJdW0NIMl1DMTJbQ0gyXW4zYzRjKFtjSF1bY0hdW2NIXVtjSF00KVtjSF1jM1tDSDJdTihbQ0gzXSlbQ0BASF0oTzIpW0NASF0oW0NIM10pT1xbQ0hdPUNcNVtDQEBIXShbQ0gzXSlDKD1PKU4oQzU9TylbQ0gyXVtPSF0=

>  <s_glide_docking_method>  (1) 
confgen

>  <s_i_glide_gridfile>  (1) 
gpcr_5ht2c_6bqh_protein_autoprepared_prepared

>  <s_lp_Force_Field>  (1) 
S-OPLS

>  <s_lp_Variant>  (1) 
DiffSBDD_41-1

>  <s_m_source_file>  (1) 
generated_GPCR_5HT2C_ligand_DiffSBDD_2026-06-23_prepared.sdf

>  <GenAI_Model>  (1) 
DiffSBDD

>  <Protein>  (1) 
GPCR_5HT2C

$$$$
DiffSBDD_41
     RDKit          3D

  0  0  0  0  0  0  0  0  0  0999 V3000
M  V30 BEGIN CTAB
M  V30 COUNTS 71 75 0 0 1
M  V30 BEGIN ATOM
M  V30 1 C 38.065645 26.430417 57.734663 0
M  V30 2 O 38.822969 32.825320 59.324143 0
M  V30 3 C 38.254915 31.524082 59.145603 0 CFG=1
M  V30 4 C 39.708252 32.811519 56.517634 0
M  V30 5 C 39.476315 25.892578 57.481597 0
M  V30 6 C 37.782787 28.872034 55.657123 0
M  V30 7 C 40.028734 28.215103 50.954018 0
M  V30 8 C 39.470687 27.225184 51.771533 0
M  V30 9 C 37.135546 35.980982 60.214193 0
M  V30 10 C 39.245136 31.179386 53.249604 0
M  V30 11 C 36.912587 31.327494 59.884144 0
M  V30 12 C 38.417636 36.236228 62.012097 0
M  V30 13 N 37.417046 36.724781 61.266260 0
M  V30 14 C 38.148372 30.985450 57.673398 0 CFG=1
M  V30 15 C 38.744878 28.766654 56.894145 0
M  V30 16 C 38.024458 34.860738 60.268434 0
M  V30 17 O 37.379315 39.094591 60.967912 0
M  V30 18 O 36.277879 36.229264 59.368039 0
M  V30 19 C 40.136822 28.155102 56.574814 0
M  V30 20 C 40.116929 26.641827 56.314004 0
M  V30 21 N 38.375423 32.206714 56.647737 0 CFG=2 CHG=1
M  V30 22 O 38.871419 36.774120 63.021379 0
M  V30 23 O 39.140065 30.049765 57.403389 0
M  V30 24 C 38.918262 27.571307 53.003164 0
M  V30 25 C 37.858460 31.913871 55.303003 0
M  V30 26 C 36.735007 37.989184 61.563755 0
M  V30 27 C 38.902067 28.915560 53.403084 0
M  V30 28 C 37.972620 33.901494 59.322676 0
M  V30 29 C 40.035758 29.560016 51.367083 0
M  V30 30 C 40.472958 34.923085 61.159536 0
M  V30 31 N 38.392916 29.540021 54.536009 0
M  V30 32 C 38.973367 34.883051 61.472053 0 CFG=1
M  V30 33 C 38.076033 27.946954 58.024278 0
M  V30 34 C 38.518038 30.930356 54.376063 0
M  V30 35 C 39.454261 29.943198 52.601323 0
M  V30 36 H 37.640078 25.884322 58.567717 0
M  V30 37 H 37.427021 26.209689 56.879098 0
M  V30 38 H 38.961069 30.861120 59.647532 0
M  V30 39 H 40.443427 32.088540 56.167086 0
M  V30 40 H 39.654303 33.603235 55.767886 0
M  V30 41 H 40.044976 33.285343 57.432215 0
M  V30 42 H 40.084792 26.011187 58.379315 0
M  V30 43 H 39.441525 24.823502 57.266992 0
M  V30 44 H 37.505425 27.872340 55.332232 0
M  V30 45 H 36.845150 29.365693 55.879925 0
M  V30 46 H 40.445125 27.944469 50.000610 0
M  V30 47 H 39.468929 26.195404 51.446884 0
M  V30 48 H 39.518664 32.137669 52.860110 0
M  V30 49 H 36.611098 30.279417 59.875163 0
M  V30 50 H 36.992940 31.630736 60.928390 0
M  V30 51 H 36.105941 31.902508 59.426714 0
M  V30 52 H 37.151694 30.577506 57.530762 0
M  V30 53 H 36.759487 39.487735 60.358241 0
M  V30 54 H 40.611022 28.676052 55.744710 0
M  V30 55 H 40.798295 28.324759 57.426332 0
M  V30 56 H 41.131304 26.279799 56.155850 0
M  V30 57 H 39.569931 26.417651 55.404523 0
M  V30 58 H 38.479468 26.810869 53.627759 0
M  V30 59 H 37.765446 32.865490 54.776707 0
M  V30 60 H 36.844778 31.576837 55.377193 0
M  V30 61 H 36.674888 38.142760 62.642101 0
M  V30 62 H 35.703827 37.976877 61.209143 0
M  V30 63 H 37.290026 33.897543 58.483150 0
M  V30 64 H 40.461636 30.314599 50.720484 0
M  V30 65 H 40.683878 35.551492 60.296728 0
M  V30 66 H 41.042265 35.313650 62.003974 0
M  V30 67 H 40.845750 33.918373 60.967470 0
M  V30 68 H 38.728779 34.080614 62.167028 0
M  V30 69 H 38.598692 28.121993 58.966262 0
M  V30 70 H 37.053145 28.292690 58.167796 0
M  V30 71 H 37.768824 32.948480 56.966870 0
M  V30 END ATOM
M  V30 BEGIN BOND
M  V30 1 1 3 2
M  V30 2 1 5 1
M  V30 3 2 8 7
M  V30 4 1 11 3
M  V30 5 1 13 9
M  V30 6 1 13 12
M  V30 7 1 14 3
M  V30 8 1 15 6
M  V30 9 1 16 9
M  V30 10 2 18 9
M  V30 11 1 19 15
M  V30 12 1 20 5
M  V30 13 1 20 19
M  V30 14 1 21 4
M  V30 15 1 21 14
M  V30 16 2 22 12
M  V30 17 1 23 14
M  V30 18 1 23 15
M  V30 19 1 24 8
M  V30 20 1 25 21
M  V30 21 1 26 13
M  V30 22 1 26 17
M  V30 23 2 27 24
M  V30 24 1 28 2
M  V30 25 2 28 16
M  V30 26 1 29 7
M  V30 27 1 31 6
M  V30 28 1 31 27
M  V30 29 1 32 12
M  V30 30 1 32 16
M  V30 31 1 32 30
M  V30 32 1 33 1
M  V30 33 1 33 15
M  V30 34 2 34 10
M  V30 35 1 34 25
M  V30 36 1 34 31
M  V30 37 1 35 10
M  V30 38 1 35 27
M  V30 39 2 35 29
M  V30 40 1 36 1
M  V30 41 1 37 1
M  V30 42 1 3 38 CFG=1
M  V30 43 1 39 4
M  V30 44 1 40 4
M  V30 45 1 41 4
M  V30 46 1 42 5
M  V30 47 1 43 5
M  V30 48 1 44 6
M  V30 49 1 45 6
M  V30 50 1 46 7
M  V30 51 1 47 8
M  V30 52 1 48 10
M  V30 53 1 49 11
M  V30 54 1 50 11
M  V30 55 1 51 11
M  V30 56 1 14 52 CFG=1
M  V30 57 1 53 17
M  V30 58 1 54 19
M  V30 59 1 55 19
M  V30 60 1 56 20
M  V30 61 1 57 20
M  V30 62 1 58 24
M  V30 63 1 59 25
M  V30 64 1 60 25
M  V30 65 1 61 26
M  V30 66 1 62 26
M  V30 67 1 63 28
M  V30 68 1 64 29
M  V30 69 1 65 30
M  V30 70 1 66 30
M  V30 71 1 67 30
M  V30 72 1 32 68 CFG=1
M  V30 73 1 69 33
M  V30 74 1 70 33
M  V30 75 1 21 71 CFG=1
M  V30 END BOND
M  V30 END CTAB
M  END
>  <i_epik_Tot_Q>  (1) 
1

>  <i_epik_Tot_abs_Q>  (1) 
1

>  <i_i_glide_confnum>  (1) 
11

>  <i_i_glide_lignum>  (1) 
90

>  <i_i_glide_posenum>  (1) 
135

>  <i_i_glide_rotatable_bonds>  (1) 
5

>  <i_lp_mmshare_version>  (1) 
72125

>  <i_m_source_file_index>  (1) 
42

>  <i_f3d_flags>  (1) 
0

>  <num_sample>  (1) 
50

>  <b_lp_Chiralities_Consistent>  (1) 
1

>  <r_epik_Charging_Adjusted_Penalty>  (1) 
1.62722492853585

>  <r_epik_Ionization_Penalty>  (1) 
0.81369786534067623

>  <r_epik_Ionization_Penalty_Charging>  (1) 
0.81361246426792511

>  <r_epik_Ionization_Penalty_Neutral>  (1) 
8.5401072751167088e-05

>  <r_epik_State_Penalty>  (1) 
0.813612464267925

>  <r_glide_ring_energy>  (1) 
1.1860061089558767

>  <r_i_docking_score>  (1) 
-8.6669209888525067

>  <r_i_glide_ecoul>  (1) 
-7.5533888213412999

>  <r_i_glide_eff_state_penalty>  (1) 
0.813612464267925

>  <r_i_glide_einternal>  (1) 
22.156486846087212

>  <r_i_glide_emodel>  (1) 
-40.204631368602747

>  <r_i_glide_emodel_strain>  (1) 
1.2277040469151217

>  <r_i_glide_energy>  (1) 
-45.187997163703294

>  <r_i_glide_erotb>  (1) 
0.34854586591334119

>  <r_i_glide_esite>  (1) 
-0.18925927480750515

>  <r_i_glide_evdw>  (1) 
-37.634608342361993

>  <r_i_glide_gscore>  (1) 
-9.4805334531204313

>  <r_i_glide_gscore_strain>  (1) 
0

>  <r_i_glide_hbond>  (1) 
-0.32000000000000001

>  <r_i_glide_ligand_efficiency>  (1) 
-0.24762631396721449

>  <r_i_glide_ligand_efficiency_ln>  (1) 
-1.9025815090008242

>  <r_i_glide_ligand_efficiency_sa>  (1) 
-0.81000209313433758

>  <r_i_glide_lipo>  (1) 
-3.9982208016735576

>  <r_i_glide_metal>  (1) 
-0

>  <r_i_glide_rewards>  (1) 
-2.3068605022334161

>  <r_lp_Energy>  (1) 
36.851118

>  <s_epik_Chemistry_Notes>  (1) 
This compound contains an acetal/aminal-like group ( X-CH(R)-Y where X, Y are N, S, or O) that may be acid/base labile, releasing an aldehyde.

>  <s_epik_cmdline>  (1) 
J2VwaWtfcHl0aG9uJywgJy1waHQnLCAnMS4wJywgJy1waCcsICc3LjQnLCAnLXRuJywgJzgnLCAnLW1hJywgJzUwMCcsICctaW1hZScsICc8aW5maWxlLm1hZT4nLCAnLW9tYWUnLCAnPG91dGZpbGUubWFlPic=

>  <s_epik_input>  (1) 
W0NIMl0xW0NIMl1bQ0gyXVtDSDJdW0NIMl1DMTJbQ0gyXW4zYzRjKFtjSF1bY0hdW2NIXVtjSF00KVtjSF1jM1tDSDJdTihbQ0gzXSlbQ0BASF0oTzIpW0NASF0oW0NIM10pT1xbQ0hdPUNcNVtDQEBIXShbQ0gzXSlDKD1PKU4oQzU9TylbQ0gyXVtPSF0=

>  <s_glide_docking_method>  (1) 
confgen

>  <s_i_glide_gridfile>  (1) 
gpcr_5ht2c_6bqh_protein_autoprepared_prepared

>  <s_lp_Force_Field>  (1) 
S-OPLS

>  <s_lp_Variant>  (1) 
DiffSBDD_41-4

>  <s_m_source_file>  (1) 
generated_GPCR_5HT2C_ligand_DiffSBDD_2026-06-23_prepared.sdf

>  <GenAI_Model>  (1) 
DiffSBDD

>  <Protein>  (1) 
GPCR_5HT2C

$$$$
DiffSBDD_26
     RDKit          3D

  0  0  0  0  0  0  0  0  0  0999 V3000
M  V30 BEGIN CTAB
M  V30 COUNTS 84 87 0 0 1
M  V30 BEGIN ATOM
M  V30 1 C 39.086882 28.197732 55.627846 0
M  V30 2 C 36.843453 37.465291 62.252784 0
M  V30 3 C 37.822074 31.890390 58.554477 0
M  V30 4 C 40.485330 34.566628 61.831166 0
M  V30 5 N 38.316025 33.259210 58.405980 0
M  V30 6 O 40.437272 36.951897 62.188886 0
M  V30 7 C 37.431470 35.027615 61.603453 0
M  V30 8 C 38.242824 34.156582 60.621516 0 CFG=1
M  V30 9 N 38.012829 28.671469 53.393749 0 CFG=1 CHG=1
M  V30 10 N 38.782434 25.888339 56.714582 0
M  V30 11 C 38.375253 30.952596 57.445984 0
M  V30 12 C 39.168625 27.095726 58.798472 0
M  V30 13 C 36.116252 36.958253 63.516506 0
M  V30 14 C 38.825256 30.623693 54.860724 0
M  V30 15 C 40.787989 35.840802 62.569092 0
M  V30 16 O 37.209639 24.325031 56.190290 0
M  V30 17 C 38.193424 31.482365 55.998038 0
M  V30 18 C 38.133572 24.717832 56.901555 0
M  V30 19 C 41.917362 34.430295 64.206145 0
M  V30 20 C 41.645171 33.318039 63.545281 0
M  V30 21 C 40.914956 33.385578 62.331026 0
M  V30 22 C 39.828100 26.315020 57.650061 0
M  V30 23 O 37.563461 34.080374 59.355084 0
M  V30 24 C 38.953362 28.683002 51.078512 0
M  V30 25 C 38.592624 26.273604 54.213933 0
M  V30 26 C 39.695980 34.661255 60.528942 0
M  V30 27 C 37.909602 33.737606 57.084013 0
M  V30 28 C 39.092289 28.245218 52.516267 0 CFG=2
M  V30 29 C 38.636556 32.952767 55.973106 0
M  V30 30 C 37.021460 36.427007 61.113361 0
M  V30 31 C 38.138597 27.228850 53.106656 0 CFG=2
M  V30 32 C 38.265573 29.175431 54.782944 0 CFG=2
M  V30 33 C 36.189289 38.749843 61.730127 0
M  V30 34 C 38.394569 26.825202 55.629632 0 CFG=2
M  V30 35 O 39.463485 28.537797 60.588664 0
M  V30 36 O 40.151493 27.737741 59.587741 0
M  V30 37 N 41.500803 35.675735 63.731844 0
M  V30 38 H 39.193283 28.611880 56.618589 0
M  V30 39 H 40.106025 28.113975 55.255598 0
M  V30 40 H 37.845626 37.737740 62.581536 0
M  V30 41 H 36.733374 31.890301 58.567772 0
M  V30 42 H 38.129884 31.503131 59.525225 0
M  V30 43 H 41.741665 36.491130 64.284253 0
M  V30 44 H 36.537375 34.486868 61.914645 0
M  V30 45 H 38.045166 35.168641 62.490960 0
M  V30 46 H 38.272231 33.150293 61.040955 0
M  V30 47 H 37.850697 30.005090 57.554587 0
M  V30 48 H 39.431582 30.759527 57.630249 0
M  V30 49 H 38.557076 26.405473 59.367764 0
M  V30 50 H 38.467343 27.843402 58.432082 0
M  V30 51 H 35.197574 36.411465 63.330985 0
M  V30 52 H 36.760772 36.310287 64.102831 0
M  V30 53 H 35.846565 37.784589 64.167723 0
M  V30 54 H 39.912035 30.609166 54.955162 0
M  V30 55 H 38.625399 31.131211 53.915678 0
M  V30 56 H 37.135402 31.483898 55.767763 0
M  V30 57 H 38.537269 24.169532 57.766934 0
M  V30 58 H 42.466877 34.467084 65.136273 0
M  V30 59 H 41.976505 32.363874 63.927545 0
M  V30 60 H 40.695736 32.473653 61.795470 0
M  V30 61 H 40.608869 26.895927 57.160948 0
M  V30 62 H 40.356003 25.450367 58.058013 0
M  V30 63 H 39.795435 28.306744 50.497234 0
M  V30 64 H 38.045302 28.276047 50.642493 0
M  V30 65 H 38.942589 29.767694 50.997346 0
M  V30 66 H 39.643974 26.028001 54.053348 0
M  V30 67 H 38.043950 25.341976 54.087417 0
M  V30 68 H 40.197842 34.054986 59.793727 0
M  V30 69 H 39.725184 35.684776 60.167363 0
M  V30 70 H 36.845125 33.597676 56.976894 0
M  V30 71 H 38.045137 34.809283 56.967894 0
M  V30 72 H 40.045117 28.454785 52.967757 0
M  V30 73 H 39.717042 33.033671 56.096381 0
M  V30 74 H 38.390696 33.390883 55.005527 0
M  V30 75 H 37.776304 36.813621 60.428413 0
M  V30 76 H 36.115790 36.335713 60.513965 0
M  V30 77 H 37.245187 26.937246 52.567777 0
M  V30 78 H 37.265191 29.212042 55.215979 0
M  V30 79 H 35.215318 38.541914 61.289307 0
M  V30 80 H 36.045398 39.485066 62.522427 0
M  V30 81 H 36.812400 39.216334 60.967761 0
M  V30 82 H 37.325470 26.982460 55.779172 0
M  V30 83 H 39.397810 29.368966 60.144484 0
M  V30 84 H 37.257028 29.114423 52.892280 0
M  V30 END ATOM
M  V30 BEGIN BOND
M  V30 1 1 5 3
M  V30 2 1 8 7
M  V30 3 1 11 3
M  V30 4 1 13 2
M  V30 5 1 15 4
M  V30 6 2 15 6
M  V30 7 1 17 11
M  V30 8 1 17 14
M  V30 9 1 18 10
M  V30 10 2 18 16
M  V30 11 2 20 19
M  V30 12 2 21 4
M  V30 13 1 21 20
M  V30 14 1 22 10
M  V30 15 1 22 12
M  V30 16 1 23 5
M  V30 17 1 23 8
M  V30 18 1 26 4
M  V30 19 1 26 8
M  V30 20 1 27 5
M  V30 21 1 28 9
M  V30 22 1 28 24
M  V30 23 1 29 17
M  V30 24 1 29 27
M  V30 25 1 30 2
M  V30 26 1 30 7
M  V30 27 1 31 9
M  V30 28 1 31 25
M  V30 29 1 31 28
M  V30 30 1 32 1
M  V30 31 1 32 9
M  V30 32 1 32 14
M  V30 33 1 33 2
M  V30 34 1 34 1
M  V30 35 1 34 10
M  V30 36 1 34 25
M  V30 37 1 36 12
M  V30 38 1 36 35
M  V30 39 1 37 15
M  V30 40 1 37 19
M  V30 41 1 38 1
M  V30 42 1 39 1
M  V30 43 1 40 2
M  V30 44 1 41 3
M  V30 45 1 42 3
M  V30 46 1 43 37
M  V30 47 1 44 7
M  V30 48 1 45 7
M  V30 49 1 8 46 CFG=1
M  V30 50 1 47 11
M  V30 51 1 48 11
M  V30 52 1 49 12
M  V30 53 1 50 12
M  V30 54 1 51 13
M  V30 55 1 52 13
M  V30 56 1 53 13
M  V30 57 1 54 14
M  V30 58 1 55 14
M  V30 59 1 56 17
M  V30 60 1 57 18
M  V30 61 1 58 19
M  V30 62 1 59 20
M  V30 63 1 60 21
M  V30 64 1 61 22
M  V30 65 1 62 22
M  V30 66 1 63 24
M  V30 67 1 64 24
M  V30 68 1 65 24
M  V30 69 1 66 25
M  V30 70 1 67 25
M  V30 71 1 68 26
M  V30 72 1 69 26
M  V30 73 1 70 27
M  V30 74 1 71 27
M  V30 75 1 28 72 CFG=1
M  V30 76 1 73 29
M  V30 77 1 74 29
M  V30 78 1 75 30
M  V30 79 1 76 30
M  V30 80 1 31 77 CFG=3
M  V30 81 1 32 78 CFG=1
M  V30 82 1 79 33
M  V30 83 1 80 33
M  V30 84 1 81 33
M  V30 85 1 34 82 CFG=1
M  V30 86 1 83 35
M  V30 87 1 9 84 CFG=3
M  V30 END BOND
M  V30 END CTAB
M  END
>  <i_epik_Tot_Q>  (1) 
1

>  <i_epik_Tot_abs_Q>  (1) 
1

>  <i_i_glide_confnum>  (1) 
3863

>  <i_i_glide_lignum>  (1) 
58

>  <i_i_glide_posenum>  (1) 
254

>  <i_i_glide_rotatable_bonds>  (1) 
15

>  <i_lp_mmshare_version>  (1) 
72125

>  <i_m_source_file_index>  (1) 
27

>  <i_f3d_flags>  (1) 
0

>  <num_sample>  (1) 
50

>  <b_lp_Chiralities_Consistent>  (1) 
1

>  <r_epik_Charging_Adjusted_Penalty>  (1) 
0.02425622639956965

>  <r_epik_Ionization_Penalty>  (1) 
0.033094864685368548

>  <r_epik_Ionization_Penalty_Charging>  (1) 
0.02425622639956965

>  <r_epik_Ionization_Penalty_Neutral>  (1) 
0.0088386382857988978

>  <r_epik_State_Penalty>  (1) 
-0

>  <r_glide_ring_energy>  (1) 
0

>  <r_i_docking_score>  (1) 
-8.6613781618263435

>  <r_i_glide_ecoul>  (1) 
-2.3997795670905959

>  <r_i_glide_eff_state_penalty>  (1) 
-0

>  <r_i_glide_einternal>  (1) 
23.604268486022743

>  <r_i_glide_emodel>  (1) 
-60.901259360580873

>  <r_i_glide_emodel_strain>  (1) 
3.0678436761751158

>  <r_i_glide_energy>  (1) 
-52.664330662935157

>  <r_i_glide_erotb>  (1) 
0.83677420797818713

>  <r_i_glide_esite>  (1) 
-0.055756790295112241

>  <r_i_glide_evdw>  (1) 
-50.26455109584456

>  <r_i_glide_gscore>  (1) 
-8.6613781618263435

>  <r_i_glide_gscore_strain>  (1) 
0

>  <r_i_glide_hbond>  (1) 
-0.32000000000000001

>  <r_i_glide_ligand_efficiency>  (1) 
-0.23409130167098224

>  <r_i_glide_ligand_efficiency_ln>  (1) 
-1.8784498717868741

>  <r_i_glide_ligand_efficiency_sa>  (1) 
-0.78004415070829203

>  <r_i_glide_lipo>  (1) 
-4.7293629620684587

>  <r_i_glide_metal>  (1) 
-0

>  <r_i_glide_rewards>  (1) 
-1.5198381275851427

>  <r_lp_Energy>  (1) 
54.376549999999995

>  <r_lp_tautomer_probability>  (1) 
1

>  <s_epik_Chemistry_Notes>  (1) 
This compound has a N-S or N-O group and may undergo hydrolysis at high or low pH.

>  <s_epik_cmdline>  (1) 
J2VwaWtfcHl0aG9uJywgJy1waHQnLCAnMS4wJywgJy1waCcsICc3LjQnLCAnLXRuJywgJzgnLCAnLW1hJywgJzUwMCcsICctaW1hZScsICc8aW5maWxlLm1hZT4nLCAnLW9tYWUnLCAnPG91dGZpbGUubWFlPic=

>  <s_epik_input>  (1) 
W09IXU9bQ0gyXVtDSDJdTihbQ0hdPU8pW0NASF0oW0NIMl1bQ0BASF0oTjEyKVtDQEhdMVtDSDNdKVtDSDJdW0NASF0yW0NIMl1bQ0hdKFtDSDJdW0NIMl0zKVtDSDJdW0NIMl1OM09bQ0BIXShbQ0gyXVtDSDJdW0NIXShbQ0gzXSlbQ0gzXSlbQ0gyXVtDQEBIXTRDKD1PKU49W0NIXVtDSF09W0NIXTQ=

>  <s_glide_docking_method>  (1) 
confgen

>  <s_i_glide_gridfile>  (1) 
gpcr_5ht2c_6bqh_protein_autoprepared_prepared

>  <s_lp_Force_Field>  (1) 
S-OPLS

>  <s_lp_Variant>  (1) 
DiffSBDD_26-3

>  <s_m_source_file>  (1) 
generated_GPCR_5HT2C_ligand_DiffSBDD_2026-06-23_prepared.sdf

>  <GenAI_Model>  (1) 
DiffSBDD

>  <Protein>  (1) 
GPCR_5HT2C

$$$$
DiffSBDD_26
     RDKit          3D

  0  0  0  0  0  0  0  0  0  0999 V3000
M  V30 BEGIN CTAB
M  V30 COUNTS 84 87 0 0 1
M  V30 BEGIN ATOM
M  V30 1 C 39.158365 33.640522 59.488078 0
M  V30 2 C 40.470351 29.826920 50.694056 0
M  V30 3 C 38.987450 29.840531 56.691355 0
M  V30 4 C 38.851219 25.950880 55.094574 0
M  V30 5 N 38.755632 29.932527 55.260047 0
M  V30 6 O 36.845163 24.937727 54.223018 0
M  V30 7 C 38.746566 28.817882 52.436792 0
M  V30 8 C 38.675062 28.121368 53.811486 0 CFG=2
M  V30 9 N 36.569549 33.571701 59.522470 0 CFG=1 CHG=1
M  V30 10 N 40.445542 33.965879 61.555408 0
M  V30 11 C 38.314499 31.011702 57.401670 0
M  V30 12 C 41.507235 35.571834 63.204494 0
M  V30 13 C 39.867953 31.205833 50.529471 0
M  V30 14 C 37.840959 33.562823 57.302959 0
M  V30 15 C 37.612695 25.105646 55.161889 0
M  V30 16 O 42.193614 32.692919 62.281534 0
M  V30 17 C 38.725337 32.388695 56.839845 0
M  V30 18 C 41.053352 32.786775 61.834358 0
M  V30 19 C 38.238545 24.662619 57.470626 0
M  V30 20 C 39.331731 25.399817 57.394617 0
M  V30 21 C 39.645626 26.059871 56.182398 0
M  V30 22 C 41.144458 35.251613 61.739803 0
M  V30 23 O 39.495078 28.824180 54.739413 0
M  V30 24 C 34.741764 31.931578 59.844781 0
M  V30 25 C 38.065912 33.054498 61.528124 0
M  V30 26 C 39.164980 26.662433 53.787734 0
M  V30 27 C 39.411355 31.136362 54.753029 0
M  V30 28 C 36.211891 32.228492 59.926767 0 CFG=2
M  V30 29 C 38.682984 32.355246 55.316638 0
M  V30 30 C 40.195557 29.132915 52.024906 0
M  V30 31 C 36.675439 33.228002 60.948162 0 CFG=2
M  V30 32 C 37.817978 33.933500 58.789029 0 CFG=2
M  V30 33 C 40.045123 28.937256 49.566050 0
M  V30 34 C 39.099041 34.020118 60.948907 0 CFG=2
M  V30 35 O 40.728781 36.137716 65.302699 0
M  V30 36 O 40.332330 35.870863 63.928321 0
M  V30 37 N 37.388130 24.514181 56.378822 0
M  V30 38 H 39.981023 34.137790 58.982105 0
M  V30 39 H 39.405438 32.586879 59.428734 0
M  V30 40 H 41.553453 29.951282 50.632003 0
M  V30 41 H 40.054628 29.828473 56.905317 0
M  V30 42 H 38.579764 28.898523 57.059392 0
M  V30 43 H 36.573724 23.932204 56.501485 0
M  V30 44 H 38.250080 28.203237 51.685895 0
M  V30 45 H 38.179098 29.737680 52.513780 0
M  V30 46 H 37.633577 28.106134 54.144404 0
M  V30 47 H 38.565019 30.916875 58.452458 0
M  V30 48 H 37.244998 30.883300 57.311868 0
M  V30 49 H 42.159703 36.445536 63.236116 0
M  V30 50 H 42.053881 34.763137 63.688688 0
M  V30 51 H 38.845154 31.164795 50.167893 0
M  V30 52 H 39.905038 31.737762 51.474395 0
M  V30 53 H 40.437993 31.737686 49.772124 0
M  V30 54 H 36.845141 33.379997 56.967578 0
M  V30 55 H 38.140763 34.451017 56.747294 0
M  V30 56 H 39.759333 32.589178 57.102343 0
M  V30 57 H 40.403344 31.934602 61.603660 0
M  V30 58 H 37.924335 24.129153 58.355148 0
M  V30 59 H 39.980522 25.502536 58.252454 0
M  V30 60 H 40.536731 26.669036 56.128093 0
M  V30 61 H 40.563681 36.081829 61.337773 0
M  V30 62 H 42.044843 35.234215 61.127944 0
M  V30 63 H 34.478931 31.348786 60.723816 0
M  V30 64 H 34.137903 32.841184 59.837896 0
M  V30 65 H 34.509052 31.337797 58.967613 0
M  V30 66 H 38.349764 32.008517 61.408797 0
M  V30 67 H 38.009434 33.210381 62.573813 0
M  V30 68 H 38.694282 26.139315 52.959853 0
M  V30 69 H 40.237676 26.600731 53.607877 0
M  V30 70 H 40.471235 31.151679 55.012733 0
M  V30 71 H 39.342919 31.186955 53.670515 0
M  V30 72 H 36.899396 31.453553 59.618202 0
M  V30 73 H 37.651747 32.360414 54.956985 0
M  V30 74 H 39.149581 33.271952 54.967840 0
M  V30 75 H 40.667203 29.739784 52.788040 0
M  V30 76 H 40.734069 28.189501 51.991569 0
M  V30 77 H 35.959305 33.825252 61.511593 0
M  V30 78 H 37.645129 35.009741 58.807620 0
M  V30 79 H 38.967696 28.816029 49.549586 0
M  V30 80 H 40.388777 29.319114 48.604148 0
M  V30 81 H 40.445021 27.944396 49.767751 0
M  V30 82 H 38.707789 35.034249 61.048173 0
M  V30 83 H 41.064202 37.029476 65.223267 0
M  V30 84 H 35.748949 34.106594 59.273830 0
M  V30 END ATOM
M  V30 BEGIN BOND
M  V30 1 1 5 3
M  V30 2 1 8 7
M  V30 3 1 11 3
M  V30 4 1 13 2
M  V30 5 1 15 4
M  V30 6 2 15 6
M  V30 7 1 17 11
M  V30 8 1 17 14
M  V30 9 1 18 10
M  V30 10 2 18 16
M  V30 11 2 20 19
M  V30 12 2 21 4
M  V30 13 1 21 20
M  V30 14 1 22 10
M  V30 15 1 22 12
M  V30 16 1 23 5
M  V30 17 1 23 8
M  V30 18 1 26 4
M  V30 19 1 26 8
M  V30 20 1 27 5
M  V30 21 1 28 9
M  V30 22 1 28 24
M  V30 23 1 29 17
M  V30 24 1 29 27
M  V30 25 1 30 2
M  V30 26 1 30 7
M  V30 27 1 31 9
M  V30 28 1 31 25
M  V30 29 1 31 28
M  V30 30 1 32 1
M  V30 31 1 32 9
M  V30 32 1 32 14
M  V30 33 1 33 2
M  V30 34 1 34 1
M  V30 35 1 34 10
M  V30 36 1 34 25
M  V30 37 1 36 12
M  V30 38 1 36 35
M  V30 39 1 37 15
M  V30 40 1 37 19
M  V30 41 1 38 1
M  V30 42 1 39 1
M  V30 43 1 40 2
M  V30 44 1 41 3
M  V30 45 1 42 3
M  V30 46 1 43 37
M  V30 47 1 44 7
M  V30 48 1 45 7
M  V30 49 1 8 46 CFG=1
M  V30 50 1 47 11
M  V30 51 1 48 11
M  V30 52 1 49 12
M  V30 53 1 50 12
M  V30 54 1 51 13
M  V30 55 1 52 13
M  V30 56 1 53 13
M  V30 57 1 54 14
M  V30 58 1 55 14
M  V30 59 1 56 17
M  V30 60 1 57 18
M  V30 61 1 58 19
M  V30 62 1 59 20
M  V30 63 1 60 21
M  V30 64 1 61 22
M  V30 65 1 62 22
M  V30 66 1 63 24
M  V30 67 1 64 24
M  V30 68 1 65 24
M  V30 69 1 66 25
M  V30 70 1 67 25
M  V30 71 1 68 26
M  V30 72 1 69 26
M  V30 73 1 70 27
M  V30 74 1 71 27
M  V30 75 1 28 72 CFG=3
M  V30 76 1 73 29
M  V30 77 1 74 29
M  V30 78 1 75 30
M  V30 79 1 76 30
M  V30 80 1 31 77 CFG=1
M  V30 81 1 32 78 CFG=3
M  V30 82 1 79 33
M  V30 83 1 80 33
M  V30 84 1 81 33
M  V30 85 1 34 82 CFG=3
M  V30 86 1 83 35
M  V30 87 1 9 84 CFG=1
M  V30 END BOND
M  V30 END CTAB
M  END
>  <i_epik_Tot_Q>  (1) 
1

>  <i_epik_Tot_abs_Q>  (1) 
1

>  <i_i_glide_confnum>  (1) 
177

>  <i_i_glide_lignum>  (1) 
56

>  <i_i_glide_posenum>  (1) 
337

>  <i_i_glide_rotatable_bonds>  (1) 
15

>  <i_lp_mmshare_version>  (1) 
72125

>  <i_m_source_file_index>  (1) 
27

>  <i_f3d_flags>  (1) 
0

>  <num_sample>  (1) 
50

>  <b_lp_Chiralities_Consistent>  (1) 
1

>  <r_epik_Charging_Adjusted_Penalty>  (1) 
0.02425622639956965

>  <r_epik_Ionization_Penalty>  (1) 
0.033094864685368548

>  <r_epik_Ionization_Penalty_Charging>  (1) 
0.02425622639956965

>  <r_epik_Ionization_Penalty_Neutral>  (1) 
0.0088386382857988978

>  <r_epik_State_Penalty>  (1) 
-0

>  <r_glide_ring_energy>  (1) 
0

>  <r_i_docking_score>  (1) 
-8.6554956155373191

>  <r_i_glide_ecoul>  (1) 
-6.1386049394309739

>  <r_i_glide_eff_state_penalty>  (1) 
-0

>  <r_i_glide_einternal>  (1) 
11.127166788975796

>  <r_i_glide_emodel>  (1) 
-72.121327221517376

>  <r_i_glide_emodel_strain>  (1) 
2.2127284575687156

>  <r_i_glide_energy>  (1) 
-49.268814794213796

>  <r_i_glide_erotb>  (1) 
0.83677420797818713

>  <r_i_glide_esite>  (1) 
-0.11184486821376716

>  <r_i_glide_evdw>  (1) 
-43.130209854782819

>  <r_i_glide_gscore>  (1) 
-8.6554956155373191

>  <r_i_glide_gscore_strain>  (1) 
0

>  <r_i_glide_hbond>  (1) 
-0.32000000000000001

>  <r_i_glide_ligand_efficiency>  (1) 
-0.23393231393344105

>  <r_i_glide_ligand_efficiency_ln>  (1) 
-1.8771740854032359

>  <r_i_glide_ligand_efficiency_sa>  (1) 
-0.77951436829511345

>  <r_i_glide_lipo>  (1) 
-4.4599387383081064

>  <r_i_glide_metal>  (1) 
-0

>  <r_i_glide_rewards>  (1) 
-1.5231849833398452

>  <r_lp_Energy>  (1) 
52.890431999999997

>  <r_lp_tautomer_probability>  (1) 
1

>  <s_epik_Chemistry_Notes>  (1) 
This compound has a N-S or N-O group and may undergo hydrolysis at high or low pH.

>  <s_epik_cmdline>  (1) 
J2VwaWtfcHl0aG9uJywgJy1waHQnLCAnMS4wJywgJy1waCcsICc3LjQnLCAnLXRuJywgJzgnLCAnLW1hJywgJzUwMCcsICctaW1hZScsICc8aW5maWxlLm1hZT4nLCAnLW9tYWUnLCAnPG91dGZpbGUubWFlPic=

>  <s_epik_input>  (1) 
W09IXU9bQ0gyXVtDSDJdTihbQ0hdPU8pW0NASF0oW0NIMl1bQ0BASF0oTjEyKVtDQEhdMVtDSDNdKVtDSDJdW0NASF0yW0NIMl1bQ0hdKFtDSDJdW0NIMl0zKVtDSDJdW0NIMl1OM09bQ0BASF0oW0NIMl1bQ0gyXVtDSF0oW0NIM10pW0NIM10pW0NIMl1bQ0BASF00Qyg9TylOPVtDSF1bQ0hdPVtDSF00

>  <s_glide_docking_method>  (1) 
confgen

>  <s_i_glide_gridfile>  (1) 
gpcr_5ht2c_6bqh_protein_autoprepared_prepared

>  <s_lp_Force_Field>  (1) 
S-OPLS

>  <s_lp_Variant>  (1) 
DiffSBDD_26-1

>  <s_m_source_file>  (1) 
generated_GPCR_5HT2C_ligand_DiffSBDD_2026-06-23_prepared.sdf

>  <GenAI_Model>  (1) 
DiffSBDD

>  <Protein>  (1) 
GPCR_5HT2C

$$$$
DiffSBDD_16
     RDKit          3D

  0  0  0  0  0  0  0  0  0  0999 V3000
M  V30 BEGIN CTAB
M  V30 COUNTS 73 79 0 0 1
M  V30 BEGIN ATOM
M  V30 1 C 41.245129 29.705810 62.707972 0
M  V30 2 C 37.188420 30.131486 59.767966 0
M  V30 3 C 39.074031 30.366435 56.128639 0 CFG=2
M  V30 4 C 39.796161 31.837433 62.637952 0 CFG=1
M  V30 5 C 40.097923 29.127153 58.292660 0
M  V30 6 C 36.448772 36.158663 62.317315 0
M  V30 7 C 38.975445 29.693859 52.949108 0 CFG=2
M  V30 8 N 38.777846 28.373226 53.633491 0
M  V30 9 C 37.839603 29.563496 55.635406 0 CFG=1
M  V30 10 F 43.145414 29.610610 64.032747 0
M  V30 11 C 41.967801 31.706946 63.901448 0
M  V30 12 C 37.185264 34.358421 60.707828 0 CFG=2
M  V30 13 C 40.917981 32.430189 63.477095 0
M  V30 14 O 36.199459 30.736900 59.367689 0
M  V30 15 C 39.236983 27.250063 51.382652 0
M  V30 16 C 39.172973 27.147049 52.905941 0
M  V30 17 C 39.348500 29.677599 51.440354 0
M  V30 18 O 39.170681 32.685661 61.683785 0
M  V30 19 O 36.846301 30.338942 54.976209 0
M  V30 20 C 38.226806 28.263777 54.881453 0
M  V30 21 C 42.108726 30.310436 63.543541 0
M  V30 22 C 38.310952 35.337440 60.435132 0 CFG=1
M  V30 23 C 37.143699 35.348877 59.571894 0 CFG=2
M  V30 24 C 36.800960 37.246855 61.240295 0
M  V30 25 C 40.210613 30.511763 55.097935 0
M  V30 26 C 38.205340 32.081362 60.894723 0
M  V30 27 C 36.177876 34.701563 61.769262 0
M  V30 28 C 39.644963 29.735519 57.336123 0
M  V30 29 C 39.561567 28.456437 60.666288 0
M  V30 30 C 40.110635 30.435263 62.137741 0
M  V30 31 C 39.321481 29.891180 61.185108 0
M  V30 32 C 37.644847 36.668465 60.115141 0 CFG=1
M  V30 33 O 38.045149 27.173383 55.426905 0
M  V30 34 C 40.077787 28.441358 50.970508 0
M  V30 35 N 37.252936 32.953701 60.401220 0
M  V30 36 C 39.806299 30.778090 53.665907 0
M  V30 37 C 40.556063 28.401333 59.488101 0
M  V30 38 C 38.248289 30.741565 60.635403 0
M  V30 39 H 41.412395 28.674423 62.451439 0
M  V30 40 H 37.337604 29.088430 59.521357 0
M  V30 41 H 38.740999 31.360929 56.431328 0
M  V30 42 H 39.012719 31.659275 63.367502 0
M  V30 43 H 35.645083 36.493816 62.968184 0
M  V30 44 H 37.317588 36.127162 62.974249 0
M  V30 45 H 37.979791 30.099417 52.967778 0
M  V30 46 H 37.294240 29.234550 56.522703 0
M  V30 47 H 42.723624 32.176369 64.514357 0
M  V30 48 H 40.830719 33.471094 63.751304 0
M  V30 49 H 39.645109 26.332491 50.968343 0
M  V30 50 H 38.229736 27.340448 50.972945 0
M  V30 51 H 40.138729 26.820138 53.288043 0
M  V30 52 H 38.477119 26.340501 53.138068 0
M  V30 53 H 39.902688 30.568787 51.143875 0
M  V30 54 H 38.445140 29.726708 50.852111 0
M  V30 55 H 36.458965 30.945288 55.606247 0
M  V30 56 H 39.226651 35.002299 59.952667 0
M  V30 57 H 37.343673 35.037780 58.549380 0
M  V30 58 H 35.906777 37.697690 60.807624 0
M  V30 59 H 37.349824 38.065252 61.708123 0
M  V30 60 H 40.845140 29.628248 55.108940 0
M  V30 61 H 40.845083 31.351804 55.367759 0
M  V30 62 H 35.215541 34.551214 61.293832 0
M  V30 63 H 36.139770 33.953182 62.556015 0
M  V30 64 H 38.644188 27.944932 60.393330 0
M  V30 65 H 39.902546 27.802809 61.465109 0
M  V30 66 H 38.045098 37.364622 59.384880 0
M  V30 67 H 41.076435 28.402958 51.402885 0
M  V30 68 H 40.186070 28.473475 49.886409 0
M  V30 69 H 36.523002 32.581298 59.799166 0
M  V30 70 H 40.737178 30.942920 53.124726 0
M  V30 71 H 39.273735 31.730208 53.614184 0
M  V30 72 H 40.719554 27.365507 59.192691 0
M  V30 73 H 41.528521 28.804818 59.772855 0
M  V30 END ATOM
M  V30 BEGIN BOND
M  V30 1 1 8 7
M  V30 2 1 9 3
M  V30 3 1 13 4
M  V30 4 2 13 11
M  V30 5 2 14 2
M  V30 6 1 16 8
M  V30 7 1 16 15
M  V30 8 1 17 7
M  V30 9 1 18 4
M  V30 10 1 19 9
M  V30 11 1 20 8
M  V30 12 1 20 9
M  V30 13 2 21 1
M  V30 14 1 21 10
M  V30 15 1 21 11
M  V30 16 1 22 12
M  V30 17 1 23 12
M  V30 18 1 23 22
M  V30 19 1 24 6
M  V30 20 1 25 3
M  V30 21 1 26 18
M  V30 22 1 27 6
M  V30 23 1 27 12
M  V30 24 1 28 3
M  V30 25 3 28 5
M  V30 26 1 30 1
M  V30 27 1 30 4
M  V30 28 1 31 29
M  V30 29 2 31 30
M  V30 30 1 32 22
M  V30 31 1 32 23
M  V30 32 1 32 24
M  V30 33 2 33 20
M  V30 34 1 34 15
M  V30 35 1 34 17
M  V30 36 1 12 35 CFG=3
M  V30 37 1 35 26
M  V30 38 1 36 7
M  V30 39 1 36 25
M  V30 40 1 37 5
M  V30 41 1 37 29
M  V30 42 1 38 2
M  V30 43 2 38 26
M  V30 44 1 38 31
M  V30 45 1 39 1
M  V30 46 1 40 2
M  V30 47 1 3 41 CFG=1
M  V30 48 1 4 42 CFG=1
M  V30 49 1 43 6
M  V30 50 1 44 6
M  V30 51 1 7 45 CFG=3
M  V30 52 1 9 46 CFG=1
M  V30 53 1 47 11
M  V30 54 1 48 13
M  V30 55 1 49 15
M  V30 56 1 50 15
M  V30 57 1 51 16
M  V30 58 1 52 16
M  V30 59 1 53 17
M  V30 60 1 54 17
M  V30 61 1 55 19
M  V30 62 1 22 56 CFG=3
M  V30 63 1 23 57 CFG=3
M  V30 64 1 58 24
M  V30 65 1 59 24
M  V30 66 1 60 25
M  V30 67 1 61 25
M  V30 68 1 62 27
M  V30 69 1 63 27
M  V30 70 1 64 29
M  V30 71 1 65 29
M  V30 72 1 32 66 CFG=3
M  V30 73 1 67 34
M  V30 74 1 68 34
M  V30 75 1 69 35
M  V30 76 1 70 36
M  V30 77 1 71 36
M  V30 78 1 72 37
M  V30 79 1 73 37
M  V30 END BOND
M  V30 END CTAB
M  END
>  <i_epik_Tot_Q>  (1) 
0

>  <i_epik_Tot_abs_Q>  (1) 
0

>  <i_i_glide_confnum>  (1) 
39

>  <i_i_glide_lignum>  (1) 
32

>  <i_i_glide_posenum>  (1) 
177

>  <i_i_glide_rotatable_bonds>  (1) 
8

>  <i_lp_mmshare_version>  (1) 
72125

>  <i_m_source_file_index>  (1) 
17

>  <i_f3d_flags>  (1) 
0

>  <num_sample>  (1) 
50

>  <b_lp_Chiralities_Consistent>  (1) 
1

>  <r_epik_Charging_Adjusted_Penalty>  (1) 
0

>  <r_epik_Ionization_Penalty>  (1) 
0.0025850422907693063

>  <r_epik_Ionization_Penalty_Charging>  (1) 
0

>  <r_epik_Ionization_Penalty_Neutral>  (1) 
0.0025850422907693063

>  <r_epik_State_Penalty>  (1) 
-0

>  <r_glide_ring_energy>  (1) 
1.1523545681465099

>  <r_i_docking_score>  (1) 
-8.625644658120299

>  <r_i_glide_ecoul>  (1) 
-2.5601072224531785

>  <r_i_glide_eff_state_penalty>  (1) 
-0

>  <r_i_glide_einternal>  (1) 
5.3782011970238468

>  <r_i_glide_emodel>  (1) 
-68.827512224098982

>  <r_i_glide_emodel_strain>  (1) 
1.7653424319356361

>  <r_i_glide_energy>  (1) 
-46.354334092616412

>  <r_i_glide_erotb>  (1) 
0.45816569176433508

>  <r_i_glide_esite>  (1) 
-0.012460091284368972

>  <r_i_glide_evdw>  (1) 
-43.794226870163236

>  <r_i_glide_gscore>  (1) 
-8.625644658120299

>  <r_i_glide_gscore_strain>  (1) 
0

>  <r_i_glide_hbond>  (1) 
-0.16

>  <r_i_glide_ligand_efficiency>  (1) 
-0.2269906488979026

>  <r_i_glide_ligand_efficiency_ln>  (1) 
-1.85994272904877

>  <r_i_glide_ligand_efficiency_sa>  (1) 
-0.76313697916808698

>  <r_i_glide_lipo>  (1) 
-4.6267174151662323

>  <r_i_glide_metal>  (1) 
-0

>  <r_i_glide_rewards>  (1) 
-1.7109054165578941

>  <r_lp_Energy>  (1) 
75.165026999999995

>  <r_lp_tautomer_probability>  (1) 
1

>  <s_epik_cmdline>  (1) 
J2VwaWtfcHl0aG9uJywgJy1waHQnLCAnMS4wJywgJy1waCcsICc3LjQnLCAnLXRuJywgJzgnLCAnLW1hJywgJzUwMCcsICctaW1hZScsICc8aW5maWxlLm1hZT4nLCAnLW9tYWUnLCAnPG91dGZpbGUubWFlPic=

>  <s_epik_input>  (1) 
W0NIMl0xW0NIMl1bQ0gyXVtDQEBIXTJbQ0BIXTNbQ0BASF0yW0NAQF0xM1tOSF1DKE80KT1DKFtDSF09TylDKD1DKFtDQEhdNDUpW0NIXT1DKEYpW0NIXT1bQ0hdNSlbQ0gyXVtDSDJdQyNDW0NAQEhdKFtDSDJdW0NIMl02KVtDQEBIXShbT0hdKUMoPU8pTihbQ0BASF02NylbQ0gyXVtDSDJdW0NIMl1bQ0gyXTc=

>  <s_glide_docking_method>  (1) 
confgen

>  <s_i_glide_gridfile>  (1) 
gpcr_5ht2c_6bqh_protein_autoprepared_prepared

>  <s_lp_Force_Field>  (1) 
S-OPLS

>  <s_lp_Variant>  (1) 
DiffSBDD_16-1

>  <s_m_source_file>  (1) 
generated_GPCR_5HT2C_ligand_DiffSBDD_2026-06-23_prepared.sdf

>  <GenAI_Model>  (1) 
DiffSBDD

>  <Protein>  (1) 
GPCR_5HT2C

$$$$
DiffSBDD_29
     RDKit          3D

  0  0  0  0  0  0  0  0  0  0999 V3000
M  V30 BEGIN CTAB
M  V30 COUNTS 78 81 0 0 1
M  V30 BEGIN ATOM
M  V30 1 C 38.631351 27.651941 56.207249 0 CFG=1
M  V30 2 C 42.956916 27.578624 65.198829 0
M  V30 3 C 43.279071 29.959647 64.318355 0
M  V30 4 C 38.860895 29.067333 52.876766 0
M  V30 5 C 43.174726 28.517061 63.991746 0 CFG=2
M  V30 6 C 37.209057 24.083366 55.593581 0
M  V30 7 C 40.091971 30.227758 63.003485 0
M  V30 8 C 44.367698 29.694441 66.634566 0
M  V30 9 N 38.499446 29.104722 59.532624 0
M  V30 10 O 41.921063 28.603522 63.154797 0
M  V30 11 C 40.015049 28.961627 50.313562 0
M  V30 12 C 42.977256 29.305923 67.158387 0
M  V30 13 C 40.139851 31.730547 60.968861 0
M  V30 14 N 36.845153 29.737764 58.120617 0
M  V30 15 N 39.196740 28.604894 55.237055 0 CFG=2 CHG=1
M  V30 16 C 42.213206 28.202258 66.404197 0
M  V30 17 C 39.398739 29.236477 60.724509 0
M  V30 18 C 37.572607 30.062978 59.188351 0
M  V30 19 N 41.532525 30.038767 62.966806 0
M  V30 20 C 40.217877 30.090541 51.126663 0
M  V30 21 C 38.544407 26.236173 55.606817 0
M  V30 22 C 39.478441 27.775700 57.493349 0 CFG=1
M  V30 23 C 39.899204 29.647609 55.997967 0
M  V30 24 C 39.645146 30.142501 52.410526 0
M  V30 25 C 44.346567 30.446085 65.285689 0
M  V30 26 C 38.666091 27.934144 52.063939 0
M  V30 27 C 40.445140 28.937823 57.236864 0
M  V30 28 O 37.415104 31.115197 59.792078 0
M  V30 29 C 39.453653 30.514072 61.626136 0 CFG=1
M  V30 30 C 38.232396 29.128971 54.244687 0
M  V30 31 C 37.692102 25.266078 56.436437 0
M  V30 32 C 42.390403 30.688200 63.760062 0
M  V30 33 O 42.491601 29.857077 68.143818 0
M  V30 34 C 38.618966 27.816887 58.788179 0
M  V30 35 C 39.245225 27.880325 50.786177 0
M  V30 36 H 37.628564 27.995920 56.414807 0
M  V30 37 H 43.918625 27.186588 65.530838 0
M  V30 38 H 42.405224 26.703687 64.855092 0
M  V30 39 H 44.013301 28.196969 63.371265 0
M  V30 40 H 36.709672 23.337314 56.211973 0
M  V30 41 H 36.499531 24.409065 54.831717 0
M  V30 42 H 38.044368 23.607689 55.081319 0
M  V30 43 H 39.645165 29.337854 63.433607 0
M  V30 44 H 39.863035 31.046072 63.687316 0
M  V30 45 H 44.973671 28.793952 66.548598 0
M  V30 46 H 44.866124 30.309671 67.383679 0
M  V30 47 H 40.445407 28.925518 49.325636 0
M  V30 48 H 41.177479 31.513386 60.717885 0
M  V30 49 H 39.644605 32.054662 60.057106 0
M  V30 50 H 40.140244 32.585189 61.646601 0
M  V30 51 H 36.988789 28.858387 57.663167 0
M  V30 52 H 36.141501 30.395323 57.770115 0
M  V30 53 H 41.974584 27.418714 67.123091 0
M  V30 54 H 41.258642 28.611565 66.070658 0
M  V30 55 H 40.415029 29.015890 60.395595 0
M  V30 56 H 39.137312 28.401072 61.375480 0
M  V30 57 H 40.810340 30.919193 50.764435 0
M  V30 58 H 38.095623 26.303751 54.615781 0
M  V30 59 H 39.541220 25.819212 55.450853 0
M  V30 60 H 40.095541 26.878107 57.565402 0
M  V30 61 H 39.199660 30.425110 56.312551 0
M  V30 62 H 40.663285 30.108840 55.367799 0
M  V30 63 H 39.798607 31.012279 53.033050 0
M  V30 64 H 45.320675 30.351239 64.805212 0
M  V30 65 H 44.197654 31.510293 65.469240 0
M  V30 66 H 38.067932 27.106637 52.418610 0
M  V30 67 H 40.565751 29.616623 58.079823 0
M  V30 68 H 41.433484 28.533609 57.013690 0
M  V30 69 H 38.434608 30.787413 61.895100 0
M  V30 70 H 37.318929 28.532254 54.223935 0
M  V30 71 H 37.916762 30.148246 54.475656 0
M  V30 72 H 38.267897 24.908378 57.290726 0
M  V30 73 H 36.818874 25.777471 56.843887 0
M  V30 74 H 42.246512 31.752481 63.882886 0
M  V30 75 H 39.060342 27.092585 59.470638 0
M  V30 76 H 37.645570 27.382706 58.567687 0
M  V30 77 H 39.092574 27.011617 50.164568 0
M  V30 78 H 39.900908 28.091709 54.726824 0
M  V30 END ATOM
M  V30 BEGIN BOND
M  V30 1 1 5 2
M  V30 2 1 5 3
M  V30 3 1 10 5
M  V30 4 1 12 8
M  V30 5 1 15 1
M  V30 6 1 16 2
M  V30 7 1 16 12
M  V30 8 1 17 9
M  V30 9 1 18 9
M  V30 10 1 18 14
M  V30 11 1 19 7
M  V30 12 1 19 10
M  V30 13 2 20 11
M  V30 14 1 21 1
M  V30 15 1 22 1
M  V30 16 1 23 15
M  V30 17 2 24 4
M  V30 18 1 24 20
M  V30 19 1 25 3
M  V30 20 1 25 8
M  V30 21 1 26 4
M  V30 22 1 27 22
M  V30 23 1 27 23
M  V30 24 2 28 18
M  V30 25 1 29 7
M  V30 26 1 29 13
M  V30 27 1 29 17
M  V30 28 1 30 4
M  V30 29 1 30 15
M  V30 30 1 31 6
M  V30 31 1 31 21
M  V30 32 2 32 3
M  V30 33 1 32 19
M  V30 34 2 33 12
M  V30 35 1 34 9
M  V30 36 1 34 22
M  V30 37 1 35 11
M  V30 38 2 35 26
M  V30 39 1 1 36 CFG=1
M  V30 40 1 37 2
M  V30 41 1 38 2
M  V30 42 1 5 39 CFG=3
M  V30 43 1 40 6
M  V30 44 1 41 6
M  V30 45 1 42 6
M  V30 46 1 43 7
M  V30 47 1 44 7
M  V30 48 1 45 8
M  V30 49 1 46 8
M  V30 50 1 47 11
M  V30 51 1 48 13
M  V30 52 1 49 13
M  V30 53 1 50 13
M  V30 54 1 51 14
M  V30 55 1 52 14
M  V30 56 1 53 16
M  V30 57 1 54 16
M  V30 58 1 55 17
M  V30 59 1 56 17
M  V30 60 1 57 20
M  V30 61 1 58 21
M  V30 62 1 59 21
M  V30 63 1 22 60 CFG=1
M  V30 64 1 61 23
M  V30 65 1 62 23
M  V30 66 1 63 24
M  V30 67 1 64 25
M  V30 68 1 65 25
M  V30 69 1 66 26
M  V30 70 1 67 27
M  V30 71 1 68 27
M  V30 72 1 29 69 CFG=1
M  V30 73 1 70 30
M  V30 74 1 71 30
M  V30 75 1 72 31
M  V30 76 1 73 31
M  V30 77 1 74 32
M  V30 78 1 75 34
M  V30 79 1 76 34
M  V30 80 1 77 35
M  V30 81 1 15 78 CFG=3
M  V30 END BOND
M  V30 END CTAB
M  END
>  <i_epik_Tot_Q>  (1) 
1

>  <i_epik_Tot_abs_Q>  (1) 
1

>  <i_i_glide_confnum>  (1) 
369

>  <i_i_glide_lignum>  (1) 
65

>  <i_i_glide_posenum>  (1) 
212

>  <i_i_glide_rotatable_bonds>  (1) 
11

>  <i_lp_mmshare_version>  (1) 
72125

>  <i_m_source_file_index>  (1) 
30

>  <i_f3d_flags>  (1) 
0

>  <num_sample>  (1) 
50

>  <b_lp_Chiralities_Consistent>  (1) 
1

>  <r_epik_Charging_Adjusted_Penalty>  (1) 
0.034972120206071468

>  <r_epik_Ionization_Penalty>  (1) 
0.01911812601903189

>  <r_epik_Ionization_Penalty_Charging>  (1) 
0.017486060103035727

>  <r_epik_Ionization_Penalty_Neutral>  (1) 
0.0016320659159961622

>  <r_epik_State_Penalty>  (1) 
0.017486060103035741

>  <r_glide_ring_energy>  (1) 
0

>  <r_i_docking_score>  (1) 
-8.6238365549316303

>  <r_i_glide_ecoul>  (1) 
-5.4404355237855695

>  <r_i_glide_eff_state_penalty>  (1) 
0.017486060103035741

>  <r_i_glide_einternal>  (1) 
8.4653012938937486

>  <r_i_glide_emodel>  (1) 
-76.335477817898848

>  <r_i_glide_emodel_strain>  (1) 
0.95504657219731826

>  <r_i_glide_energy>  (1) 
-52.118070020683859

>  <r_i_glide_erotb>  (1) 
0.69426181123573816

>  <r_i_glide_esite>  (1) 
-0.15317928408721418

>  <r_i_glide_evdw>  (1) 
-46.677634496898293

>  <r_i_glide_gscore>  (1) 
-8.6413226150346656

>  <r_i_glide_gscore_strain>  (1) 
0

>  <r_i_glide_hbond>  (1) 
-0.16

>  <r_i_glide_ligand_efficiency>  (1) 
-0.24639533014090373

>  <r_i_glide_ligand_efficiency_ln>  (1) 
-1.8931235195477001

>  <r_i_glide_ligand_efficiency_sa>  (1) 
-0.80597546341170545

>  <r_i_glide_lipo>  (1) 
-4.9976630256119865

>  <r_i_glide_metal>  (1) 
-0

>  <r_i_glide_rewards>  (1) 
-0.87479506315845379

>  <r_lp_Energy>  (1) 
27.773861999999998

>  <r_lp_tautomer_probability>  (1) 
0.99999998000000001

>  <s_epik_Chemistry_Notes>  (1) 
This compound has a N-S or N-O group and may undergo hydrolysis at high or low pH.

>  <s_epik_cmdline>  (1) 
J2VwaWtfcHl0aG9uJywgJy1waHQnLCAnMS4wJywgJy1waCcsICc3LjQnLCAnLXRuJywgJzgnLCAnLW1hJywgJzUwMCcsICctaW1hZScsICc8aW5maWxlLm1hZT4nLCAnLW9tYWUnLCAnPG91dGZpbGUubWFlPic=

>  <s_epik_input>  (1) 
W2NIXTFbY0hdW2NIXVtjSF1bY0hdYzFbQ0gyXU4oW0NASF0yW0NIMl1bQ0gyXVtDSDNdKVtDSDJdW0NIMl1bQ0BIXTJbQ0gyXU4oQyg9TylbTkgyXSlbQ0gyXVtDQEhdKFtDSDNdKVtDSDJdTihbQ0hdMylPW0NAQEhdKEM9MzQpW0NIMl1bQ0gyXUMoPU8pW0NIMl1bQ0gyXTQ=

>  <s_glide_docking_method>  (1) 
confgen

>  <s_i_glide_gridfile>  (1) 
gpcr_5ht2c_6bqh_protein_autoprepared_prepared

>  <s_lp_Force_Field>  (1) 
S-OPLS

>  <s_lp_Variant>  (1) 
DiffSBDD_29-2

>  <s_m_source_file>  (1) 
generated_GPCR_5HT2C_ligand_DiffSBDD_2026-06-23_prepared.sdf

>  <GenAI_Model>  (1) 
DiffSBDD

>  <Protein>  (1) 
GPCR_5HT2C

$$$$
DiffSBDD_16
     RDKit          3D

  0  0  0  0  0  0  0  0  0  0999 V3000
M  V30 BEGIN CTAB
M  V30 COUNTS 73 79 0 0 1
M  V30 BEGIN ATOM
M  V30 1 C 40.860396 31.550045 62.637484 0
M  V30 2 C 36.845053 32.534477 59.795424 0
M  V30 3 C 38.782080 30.545639 56.033849 0 CFG=2
M  V30 4 C 40.115106 33.966074 62.105872 0 CFG=2
M  V30 5 C 39.245445 30.137730 58.653812 0
M  V30 6 C 36.043208 37.637821 63.585151 0
M  V30 7 C 38.896116 29.543432 53.008515 0 CFG=2
M  V30 8 N 38.726296 28.256173 53.748590 0
M  V30 9 C 37.688346 29.520797 55.649160 0 CFG=1
M  V30 10 F 42.624977 31.145139 64.080852 0
M  V30 11 C 41.884161 33.420965 63.814881 0
M  V30 12 C 36.866404 36.528204 61.431386 0 CFG=2
M  V30 13 C 41.109436 34.331661 63.200044 0
M  V30 14 O 35.958370 33.275411 59.367716 0
M  V30 15 C 39.245165 27.040971 51.568502 0
M  V30 16 C 39.188601 27.011655 53.095181 0
M  V30 17 C 39.185007 29.446061 51.492226 0
M  V30 18 O 38.911694 34.722448 62.055154 0
M  V30 19 O 36.618680 30.137756 54.967754 0
M  V30 20 C 38.170467 28.197735 54.993526 0
M  V30 21 C 41.787573 32.012820 63.490650 0
M  V30 22 C 37.639935 37.812857 61.250619 0 CFG=1
M  V30 23 C 36.330117 37.699555 60.645865 0 CFG=2
M  V30 24 C 35.819154 38.928378 62.739141 0
M  V30 25 C 40.057513 30.481369 55.166704 0
M  V30 26 C 37.962396 34.288380 61.143825 0
M  V30 27 C 36.410766 36.337993 62.855203 0
M  V30 28 C 39.085931 30.388914 57.469802 0
M  V30 29 C 38.630455 30.473942 61.107380 0
M  V30 30 C 39.915813 32.457302 61.985833 0
M  V30 31 C 38.866806 31.989053 61.276970 0
M  V30 32 C 36.629738 38.934390 61.458153 0 CFG=1
M  V30 33 O 38.045097 27.136892 55.608527 0
M  V30 34 C 40.012867 28.254427 51.086884 0
M  V30 35 N 37.082371 35.277407 60.731367 0
M  V30 36 C 39.854995 30.563277 53.655820 0
M  V30 37 C 39.524479 29.787984 60.054684 0
M  V30 38 C 37.916857 32.978502 60.746019 0
M  V30 39 H 40.809272 30.490686 62.449798 0
M  V30 40 H 36.893445 31.489950 59.503083 0
M  V30 41 H 38.367871 31.551922 55.944261 0
M  V30 42 H 40.635000 34.252459 61.190140 0
M  V30 43 H 35.231793 37.482365 64.298009 0
M  V30 44 H 36.945973 37.737795 64.167796 0
M  V30 45 H 37.925969 30.010318 53.023880 0
M  V30 46 H 37.202721 29.193492 56.569015 0
M  V30 47 H 42.586578 33.744326 64.568593 0
M  V30 48 H 41.194221 35.377566 63.457952 0
M  V30 49 H 39.704729 26.137805 51.194597 0
M  V30 50 H 38.233481 27.042673 51.157763 0
M  V30 51 H 40.168525 26.753749 53.496079 0
M  V30 52 H 38.532221 26.183756 53.368488 0
M  V30 53 H 39.633047 30.365575 51.112489 0
M  V30 54 H 38.238510 29.337766 50.970410 0
M  V30 55 H 36.234535 30.791760 55.551764 0
M  V30 56 H 38.445197 37.902097 60.534770 0
M  V30 57 H 36.384908 37.703518 59.561193 0
M  V30 58 H 34.766395 38.976869 62.460326 0
M  V30 59 H 36.044929 39.821272 63.320616 0
M  V30 60 H 40.632096 29.582860 55.392843 0
M  V30 61 H 40.697303 31.329366 55.401184 0
M  V30 62 H 35.644776 35.568883 62.967343 0
M  V30 63 H 37.318160 36.039422 63.367516 0
M  V30 64 H 37.586697 30.235318 60.921983 0
M  V30 65 H 38.788270 29.991167 62.071791 0
M  V30 66 H 36.778816 39.892143 60.967751 0
M  V30 67 H 41.009997 28.310427 51.521070 0
M  V30 68 H 40.122176 28.232212 50.003555 0
M  V30 69 H 36.355373 35.008096 60.075574 0
M  V30 70 H 40.839594 30.472914 53.201454 0
M  V30 71 H 39.513353 31.567631 53.400889 0
M  V30 72 H 39.404031 28.706927 60.131206 0
M  V30 73 H 40.578110 29.994499 60.237140 0
M  V30 END ATOM
M  V30 BEGIN BOND
M  V30 1 1 8 7
M  V30 2 1 9 3
M  V30 3 1 13 4
M  V30 4 2 13 11
M  V30 5 2 14 2
M  V30 6 1 16 8
M  V30 7 1 16 15
M  V30 8 1 17 7
M  V30 9 1 18 4
M  V30 10 1 19 9
M  V30 11 1 20 8
M  V30 12 1 20 9
M  V30 13 2 21 1
M  V30 14 1 21 10
M  V30 15 1 21 11
M  V30 16 1 22 12
M  V30 17 1 23 12
M  V30 18 1 23 22
M  V30 19 1 24 6
M  V30 20 1 25 3
M  V30 21 1 26 18
M  V30 22 1 27 6
M  V30 23 1 27 12
M  V30 24 1 28 3
M  V30 25 3 28 5
M  V30 26 1 30 1
M  V30 27 1 30 4
M  V30 28 1 31 29
M  V30 29 2 31 30
M  V30 30 1 32 22
M  V30 31 1 32 23
M  V30 32 1 32 24
M  V30 33 2 33 20
M  V30 34 1 34 15
M  V30 35 1 34 17
M  V30 36 1 12 35 CFG=3
M  V30 37 1 35 26
M  V30 38 1 36 7
M  V30 39 1 36 25
M  V30 40 1 37 5
M  V30 41 1 37 29
M  V30 42 1 38 2
M  V30 43 2 38 26
M  V30 44 1 38 31
M  V30 45 1 39 1
M  V30 46 1 40 2
M  V30 47 1 3 41 CFG=1
M  V30 48 1 4 42 CFG=3
M  V30 49 1 43 6
M  V30 50 1 44 6
M  V30 51 1 7 45 CFG=3
M  V30 52 1 9 46 CFG=1
M  V30 53 1 47 11
M  V30 54 1 48 13
M  V30 55 1 49 15
M  V30 56 1 50 15
M  V30 57 1 51 16
M  V30 58 1 52 16
M  V30 59 1 53 17
M  V30 60 1 54 17
M  V30 61 1 55 19
M  V30 62 1 22 56 CFG=3
M  V30 63 1 23 57 CFG=3
M  V30 64 1 58 24
M  V30 65 1 59 24
M  V30 66 1 60 25
M  V30 67 1 61 25
M  V30 68 1 62 27
M  V30 69 1 63 27
M  V30 70 1 64 29
M  V30 71 1 65 29
M  V30 72 1 32 66 CFG=3
M  V30 73 1 67 34
M  V30 74 1 68 34
M  V30 75 1 69 35
M  V30 76 1 70 36
M  V30 77 1 71 36
M  V30 78 1 72 37
M  V30 79 1 73 37
M  V30 END BOND
M  V30 END CTAB
M  END
>  <i_epik_Tot_Q>  (1) 
0

>  <i_epik_Tot_abs_Q>  (1) 
0

>  <i_i_glide_confnum>  (1) 
7

>  <i_i_glide_lignum>  (1) 
33

>  <i_i_glide_posenum>  (1) 
86

>  <i_i_glide_rotatable_bonds>  (1) 
8

>  <i_lp_mmshare_version>  (1) 
72125

>  <i_m_source_file_index>  (1) 
17

>  <i_f3d_flags>  (1) 
0

>  <num_sample>  (1) 
50

>  <b_lp_Chiralities_Consistent>  (1) 
1

>  <r_epik_Charging_Adjusted_Penalty>  (1) 
0

>  <r_epik_Ionization_Penalty>  (1) 
0.0025850422907693063

>  <r_epik_Ionization_Penalty_Charging>  (1) 
0

>  <r_epik_Ionization_Penalty_Neutral>  (1) 
0.0025850422907693063

>  <r_epik_State_Penalty>  (1) 
-0

>  <r_glide_ring_energy>  (1) 
1.1523545681465099

>  <r_i_docking_score>  (1) 
-8.6120835794310864

>  <r_i_glide_ecoul>  (1) 
-2.7385231302723012

>  <r_i_glide_eff_state_penalty>  (1) 
-0

>  <r_i_glide_einternal>  (1) 
8.0930859529462467

>  <r_i_glide_emodel>  (1) 
-48.198607570241791

>  <r_i_glide_emodel_strain>  (1) 
3.8538392089527918

>  <r_i_glide_energy>  (1) 
-45.474407017458205

>  <r_i_glide_erotb>  (1) 
0.45816569176433508

>  <r_i_glide_esite>  (1) 
-0.055357190449962006

>  <r_i_glide_evdw>  (1) 
-42.735883887185906

>  <r_i_glide_gscore>  (1) 
-8.6120835794310864

>  <r_i_glide_gscore_strain>  (1) 
0

>  <r_i_glide_hbond>  (1) 
-0.16

>  <r_i_glide_ligand_efficiency>  (1) 
-0.22663377840608123

>  <r_i_glide_ligand_efficiency_ln>  (1) 
-1.8570185615568582

>  <r_i_glide_ligand_efficiency_sa>  (1) 
-0.76193718935117116

>  <r_i_glide_lipo>  (1) 
-4.6067363684016849

>  <r_i_glide_metal>  (1) 
-0

>  <r_i_glide_rewards>  (1) 
-1.7005830484436342

>  <r_lp_Energy>  (1) 
67.772257999999994

>  <r_lp_tautomer_probability>  (1) 
1

>  <s_epik_cmdline>  (1) 
J2VwaWtfcHl0aG9uJywgJy1waHQnLCAnMS4wJywgJy1waCcsICc3LjQnLCAnLXRuJywgJzgnLCAnLW1hJywgJzUwMCcsICctaW1hZScsICc8aW5maWxlLm1hZT4nLCAnLW9tYWUnLCAnPG91dGZpbGUubWFlPic=

>  <s_epik_input>  (1) 
W0NIMl0xW0NIMl1bQ0gyXVtDQEBIXTJbQ0BIXTNbQ0BASF0yW0NAQF0xM1tOSF1DKE80KT1DKFtDSF09TylDKD1DKFtDQEhdNDUpW0NIXT1DKEYpW0NIXT1bQ0hdNSlbQ0gyXVtDSDJdQyNDW0NAQEhdKFtDSDJdW0NIMl02KVtDQEBIXShbT0hdKUMoPU8pTihbQ0BASF02NylbQ0gyXVtDSDJdW0NIMl1bQ0gyXTc=

>  <s_glide_docking_method>  (1) 
confgen

>  <s_i_glide_gridfile>  (1) 
gpcr_5ht2c_6bqh_protein_autoprepared_prepared

>  <s_lp_Force_Field>  (1) 
S-OPLS

>  <s_lp_Variant>  (1) 
DiffSBDD_16-2

>  <s_m_source_file>  (1) 
generated_GPCR_5HT2C_ligand_DiffSBDD_2026-06-23_prepared.sdf

>  <GenAI_Model>  (1) 
DiffSBDD

>  <Protein>  (1) 
GPCR_5HT2C

$$$$
DiffSBDD_41
     RDKit          3D

  0  0  0  0  0  0  0  0  0  0999 V3000
M  V30 BEGIN CTAB
M  V30 COUNTS 71 75 0 0 1
M  V30 BEGIN ATOM
M  V30 1 C 37.617194 26.235067 57.400752 0
M  V30 2 O 38.845131 32.341281 59.368234 0
M  V30 3 C 38.009302 31.217620 59.093456 0 CFG=1
M  V30 4 C 39.645218 32.519794 56.541279 0
M  V30 5 C 38.993828 25.590949 57.193058 0
M  V30 6 C 37.645157 28.760576 55.448810 0
M  V30 7 C 40.023082 28.344967 50.793399 0
M  V30 8 C 39.432559 27.314947 51.534375 0
M  V30 9 C 39.595532 34.183429 61.404869 0
M  V30 10 C 39.245140 31.166569 53.257027 0
M  V30 11 C 36.581237 31.320142 59.676083 0
M  V30 12 C 38.789854 36.210638 61.842458 0
M  V30 13 N 39.629148 35.232787 62.208160 0
M  V30 14 C 37.971690 30.742027 57.601870 0 CFG=1
M  V30 15 C 38.528226 28.545284 56.728761 0
M  V30 16 C 38.600965 34.481361 60.408536 0
M  V30 17 O 41.645125 36.137742 63.072838 0
M  V30 18 O 40.283954 33.167168 61.518876 0
M  V30 19 C 39.889274 27.852015 56.445723 0
M  V30 20 C 39.784742 26.349935 56.121198 0
M  V30 21 N 38.272834 32.008177 56.650190 0 CFG=2 CHG=1
M  V30 22 O 38.651695 37.279943 62.435869 0
M  V30 23 O 38.947813 29.784148 57.328615 0
M  V30 24 C 38.861341 27.591713 52.775022 0
M  V30 25 C 37.768552 31.797850 55.290416 0
M  V30 26 C 40.521832 35.338899 63.366254 0
M  V30 27 C 38.855267 28.907931 53.256571 0
M  V30 28 C 38.257876 33.577673 59.463243 0
M  V30 29 C 40.050976 29.657608 51.296225 0
M  V30 30 C 36.470048 35.886088 60.711655 0
M  V30 31 N 38.315841 29.472150 54.404103 0
M  V30 32 C 37.988420 35.871022 60.555475 0 CFG=1
M  V30 33 C 37.762346 27.720152 57.789685 0
M  V30 34 C 38.463117 30.863428 54.332224 0
M  V30 35 C 39.449450 29.971341 52.539092 0
M  V30 36 H 37.071706 25.690581 58.167756 0
M  V30 37 H 37.018559 26.133089 56.495673 0
M  V30 38 H 38.477536 30.398751 59.640799 0
M  V30 39 H 40.317124 31.748760 56.167765 0
M  V30 40 H 39.666361 33.337943 55.820805 0
M  V30 41 H 40.024506 32.938071 57.460096 0
M  V30 42 H 39.547970 25.592315 58.133352 0
M  V30 43 H 38.881381 24.544970 56.903566 0
M  V30 44 H 37.300149 27.810977 55.041291 0
M  V30 45 H 36.754884 29.337748 55.651258 0
M  V30 46 H 40.445135 28.132028 49.829387 0
M  V30 47 H 39.415193 26.309278 51.143418 0
M  V30 48 H 39.547727 32.137752 52.937292 0
M  V30 49 H 36.059402 30.364774 59.605488 0
M  V30 50 H 36.610820 31.594573 60.730872 0
M  V30 51 H 35.975089 32.060038 59.154256 0
M  V30 52 H 36.967030 30.375700 57.406620 0
M  V30 53 H 41.718801 36.818734 63.733733 0
M  V30 54 H 40.432416 28.369270 55.655152 0
M  V30 55 H 40.519515 27.949031 57.330881 0
M  V30 56 H 40.784362 25.925270 56.027194 0
M  V30 57 H 39.305610 26.200525 55.159063 0
M  V30 58 H 38.393529 26.802193 53.339556 0
M  V30 59 H 37.678439 32.775646 54.814320 0
M  V30 60 H 36.750867 31.453168 55.357805 0
M  V30 61 H 40.870085 34.360989 63.703996 0
M  V30 62 H 39.990345 35.780222 64.210939 0
M  V30 63 H 37.512796 33.745769 58.699276 0
M  V30 64 H 40.502754 30.443919 50.708630 0
M  V30 65 H 36.153772 35.337676 61.601297 0
M  V30 66 H 36.124136 36.918905 60.782346 0
M  V30 67 H 35.980143 35.436410 59.847675 0
M  V30 68 H 38.317939 36.537968 59.767486 0
M  V30 69 H 38.296639 27.777720 58.739487 0
M  V30 70 H 36.779956 28.152025 57.973731 0
M  V30 71 H 37.701950 32.766465 56.995216 0
M  V30 END ATOM
M  V30 BEGIN BOND
M  V30 1 1 3 2
M  V30 2 1 5 1
M  V30 3 2 8 7
M  V30 4 1 11 3
M  V30 5 1 13 9
M  V30 6 1 13 12
M  V30 7 1 14 3
M  V30 8 1 15 6
M  V30 9 1 16 9
M  V30 10 2 18 9
M  V30 11 1 19 15
M  V30 12 1 20 5
M  V30 13 1 20 19
M  V30 14 1 21 4
M  V30 15 1 21 14
M  V30 16 2 22 12
M  V30 17 1 23 14
M  V30 18 1 23 15
M  V30 19 1 24 8
M  V30 20 1 25 21
M  V30 21 1 26 13
M  V30 22 1 26 17
M  V30 23 2 27 24
M  V30 24 1 28 2
M  V30 25 2 28 16
M  V30 26 1 29 7
M  V30 27 1 31 6
M  V30 28 1 31 27
M  V30 29 1 32 12
M  V30 30 1 32 16
M  V30 31 1 32 30
M  V30 32 1 33 1
M  V30 33 1 33 15
M  V30 34 2 34 10
M  V30 35 1 34 25
M  V30 36 1 34 31
M  V30 37 1 35 10
M  V30 38 1 35 27
M  V30 39 2 35 29
M  V30 40 1 36 1
M  V30 41 1 37 1
M  V30 42 1 3 38 CFG=1
M  V30 43 1 39 4
M  V30 44 1 40 4
M  V30 45 1 41 4
M  V30 46 1 42 5
M  V30 47 1 43 5
M  V30 48 1 44 6
M  V30 49 1 45 6
M  V30 50 1 46 7
M  V30 51 1 47 8
M  V30 52 1 48 10
M  V30 53 1 49 11
M  V30 54 1 50 11
M  V30 55 1 51 11
M  V30 56 1 14 52 CFG=3
M  V30 57 1 53 17
M  V30 58 1 54 19
M  V30 59 1 55 19
M  V30 60 1 56 20
M  V30 61 1 57 20
M  V30 62 1 58 24
M  V30 63 1 59 25
M  V30 64 1 60 25
M  V30 65 1 61 26
M  V30 66 1 62 26
M  V30 67 1 63 28
M  V30 68 1 64 29
M  V30 69 1 65 30
M  V30 70 1 66 30
M  V30 71 1 67 30
M  V30 72 1 32 68 CFG=3
M  V30 73 1 69 33
M  V30 74 1 70 33
M  V30 75 1 21 71 CFG=1
M  V30 END BOND
M  V30 END CTAB
M  END
>  <i_epik_Tot_Q>  (1) 
1

>  <i_epik_Tot_abs_Q>  (1) 
1

>  <i_i_glide_confnum>  (1) 
25

>  <i_i_glide_lignum>  (1) 
92

>  <i_i_glide_posenum>  (1) 
107

>  <i_i_glide_rotatable_bonds>  (1) 
5

>  <i_lp_mmshare_version>  (1) 
72125

>  <i_m_source_file_index>  (1) 
42

>  <i_f3d_flags>  (1) 
0

>  <num_sample>  (1) 
50

>  <b_lp_Chiralities_Consistent>  (1) 
1

>  <r_epik_Charging_Adjusted_Penalty>  (1) 
1.62722492853585

>  <r_epik_Ionization_Penalty>  (1) 
0.81369786534067623

>  <r_epik_Ionization_Penalty_Charging>  (1) 
0.81361246426792511

>  <r_epik_Ionization_Penalty_Neutral>  (1) 
8.5401072751167088e-05

>  <r_epik_State_Penalty>  (1) 
0.813612464267925

>  <r_glide_ring_energy>  (1) 
1.1849222099610348

>  <r_i_docking_score>  (1) 
-8.6095581248185198

>  <r_i_glide_ecoul>  (1) 
-8.8840335255250871

>  <r_i_glide_eff_state_penalty>  (1) 
0.813612464267925

>  <r_i_glide_einternal>  (1) 
12.522106173693713

>  <r_i_glide_emodel>  (1) 
-50.541620831392216

>  <r_i_glide_emodel_strain>  (1) 
0

>  <r_i_glide_energy>  (1) 
-44.061220713899786

>  <r_i_glide_erotb>  (1) 
0.34854586591334119

>  <r_i_glide_esite>  (1) 
-0.19601917910940722

>  <r_i_glide_evdw>  (1) 
-35.177187188374695

>  <r_i_glide_gscore>  (1) 
-9.4231705890864443

>  <r_i_glide_gscore_strain>  (1) 
0

>  <r_i_glide_hbond>  (1) 
-0.32000000000000001

>  <r_i_glide_ligand_efficiency>  (1) 
-0.24598737499481485

>  <r_i_glide_ligand_efficiency_ln>  (1) 
-1.8899890872451897

>  <r_i_glide_ligand_efficiency_sa>  (1) 
-0.80464101507726604

>  <r_i_glide_lipo>  (1) 
-4.0478154382503728

>  <r_i_glide_metal>  (1) 
-0

>  <r_i_glide_rewards>  (1) 
-2.1164174493925079

>  <r_lp_Energy>  (1) 
38.539870000000001

>  <s_epik_Chemistry_Notes>  (1) 
This compound contains an acetal/aminal-like group ( X-CH(R)-Y where X, Y are N, S, or O) that may be acid/base labile, releasing an aldehyde.

>  <s_epik_cmdline>  (1) 
J2VwaWtfcHl0aG9uJywgJy1waHQnLCAnMS4wJywgJy1waCcsICc3LjQnLCAnLXRuJywgJzgnLCAnLW1hJywgJzUwMCcsICctaW1hZScsICc8aW5maWxlLm1hZT4nLCAnLW9tYWUnLCAnPG91dGZpbGUubWFlPic=

>  <s_epik_input>  (1) 
W0NIMl0xW0NIMl1bQ0gyXVtDSDJdW0NIMl1DMTJbQ0gyXW4zYzRjKFtjSF1bY0hdW2NIXVtjSF00KVtjSF1jM1tDSDJdTihbQ0gzXSlbQ0BASF0oTzIpW0NASF0oW0NIM10pTy9bQ0hdPUNcNVtDQEBIXShbQ0gzXSlDKD1PKU4oQzU9TylbQ0gyXVtPSF0=

>  <s_glide_docking_method>  (1) 
confgen

>  <s_i_glide_gridfile>  (1) 
gpcr_5ht2c_6bqh_protein_autoprepared_prepared

>  <s_lp_Force_Field>  (1) 
S-OPLS

>  <s_lp_Variant>  (1) 
DiffSBDD_41-6

>  <s_m_source_file>  (1) 
generated_GPCR_5HT2C_ligand_DiffSBDD_2026-06-23_prepared.sdf

>  <GenAI_Model>  (1) 
DiffSBDD

>  <Protein>  (1) 
GPCR_5HT2C

$$$$
DiffSBDD_26
     RDKit          3D

  0  0  0  0  0  0  0  0  0  0999 V3000
M  V30 BEGIN CTAB
M  V30 COUNTS 84 87 0 0 1
M  V30 BEGIN ATOM
M  V30 1 C 39.932282 33.889510 61.411203 0
M  V30 2 C 38.777702 28.704269 51.534838 0
M  V30 3 C 39.006115 30.873690 57.678917 0
M  V30 4 C 38.754402 26.753876 56.249065 0
M  V30 5 N 38.226555 31.167059 56.491298 0
M  V30 6 O 38.923050 27.343703 58.586589 0
M  V30 7 C 37.829828 28.963115 53.924803 0
M  V30 8 C 38.307435 29.121617 55.372984 0 CFG=2
M  V30 9 N 38.339331 35.595685 61.709662 0 CFG=2 CHG=1
M  V30 10 N 41.647263 33.755776 63.401125 0
M  V30 11 C 38.555459 31.739970 58.877500 0
M  V30 12 C 41.492046 33.913968 65.889096 0
M  V30 13 C 39.101646 27.206897 51.606244 0
M  V30 14 C 37.975864 34.096023 59.730549 0
M  V30 15 C 38.595778 26.529936 57.726022 0
M  V30 16 O 41.566337 31.823150 62.167831 0
M  V30 17 C 38.606707 33.252234 58.583903 0
M  V30 18 C 41.921409 32.443949 63.166736 0
M  V30 19 C 37.654819 24.363345 57.125696 0
M  V30 20 C 37.800050 24.572857 55.830853 0
M  V30 21 C 38.364314 25.791300 55.380318 0
M  V30 22 C 42.195517 34.397719 64.608244 0
M  V30 23 O 38.884063 30.423037 55.449521 0
M  V30 24 C 37.406581 37.560723 60.513469 0
M  V30 25 C 40.111332 35.814423 63.141867 0
M  V30 26 C 39.364660 28.067268 55.784284 0
M  V30 27 C 38.414328 32.566825 56.117828 0
M  V30 28 C 37.893850 36.959216 61.820525 0 CFG=2
M  V30 29 C 37.911346 33.501541 57.235815 0
M  V30 30 C 38.902945 29.388074 52.901522 0
M  V30 31 C 39.334851 36.600625 62.115095 0 CFG=2
M  V30 32 C 38.993203 34.833940 60.630054 0 CFG=2
M  V30 33 C 39.664940 29.404298 50.494515 0
M  V30 34 C 40.881688 34.626753 62.438691 0 CFG=2
M  V30 35 O 40.736824 35.973528 66.659808 0
M  V30 36 O 41.624249 34.851994 66.937912 0
M  V30 37 N 38.045135 25.319058 58.063235 0
M  V30 38 H 40.503021 33.331029 60.674769 0
M  V30 39 H 39.321152 33.160780 61.947062 0
M  V30 40 H 37.739923 28.789484 51.229966 0
M  V30 41 H 40.045097 30.989495 57.367758 0
M  V30 42 H 38.872251 29.828798 57.948973 0
M  V30 43 H 37.908533 25.095252 59.036602 0
M  V30 44 H 37.492790 27.942046 53.763548 0
M  V30 45 H 36.944804 29.580654 53.777859 0
M  V30 46 H 37.439751 29.021338 56.029788 0
M  V30 47 H 39.163436 31.503066 59.750664 0
M  V30 48 H 37.533235 31.454824 59.132457 0
M  V30 49 H 41.934967 32.972828 66.216860 0
M  V30 50 H 40.444992 33.702679 65.707735 0
M  V30 51 H 40.045130 27.029379 52.117235 0
M  V30 52 H 38.331313 26.666046 52.150923 0
M  V30 53 H 39.158295 26.765242 50.610954 0
M  V30 54 H 37.318633 33.473066 60.339196 0
M  V30 55 H 37.318441 34.848702 59.292725 0
M  V30 56 H 39.647330 33.541306 58.456791 0
M  V30 57 H 42.507727 32.010926 63.992749 0
M  V30 58 H 37.238660 23.462757 57.553203 0
M  V30 59 H 37.493294 23.819541 55.119510 0
M  V30 60 H 38.485172 25.954029 54.321210 0
M  V30 61 H 42.237419 35.480381 64.550688 0
M  V30 62 H 43.245253 34.137752 64.699073 0
M  V30 63 H 37.373129 38.647349 60.595906 0
M  V30 64 H 38.045163 37.302604 59.671322 0
M  V30 65 H 36.399293 37.207804 60.290580 0
M  V30 66 H 39.457550 35.474273 63.931867 0
M  V30 67 H 40.787472 36.537638 63.593648 0
M  V30 68 H 40.045149 27.847487 54.967493 0
M  V30 69 H 40.007497 28.462112 56.570230 0
M  V30 70 H 39.465863 32.763288 55.905671 0
M  V30 71 H 37.857338 32.760382 55.200180 0
M  V30 72 H 37.221104 37.063167 62.669689 0
M  V30 73 H 36.845138 33.359769 57.367732 0
M  V30 74 H 38.045122 34.537576 56.926440 0
M  V30 75 H 38.845340 30.470394 52.798955 0
M  V30 76 H 39.908205 29.232151 53.278253 0
M  V30 77 H 39.998182 37.019823 61.367759 0
M  V30 78 H 39.609651 35.467595 59.998428 0
M  V30 79 H 40.716577 29.363613 50.779744 0
M  V30 80 H 39.569675 28.937778 49.514530 0
M  V30 81 H 39.391574 30.454055 50.382677 0
M  V30 82 H 41.645159 35.103971 61.824618 0
M  V30 83 H 39.990169 35.753141 67.196411 0
M  V30 84 H 38.056932 35.032188 62.498101 0
M  V30 END ATOM
M  V30 BEGIN BOND
M  V30 1 1 5 3
M  V30 2 1 8 7
M  V30 3 1 11 3
M  V30 4 1 13 2
M  V30 5 1 15 4
M  V30 6 2 15 6
M  V30 7 1 17 11
M  V30 8 1 17 14
M  V30 9 1 18 10
M  V30 10 2 18 16
M  V30 11 2 20 19
M  V30 12 2 21 4
M  V30 13 1 21 20
M  V30 14 1 22 10
M  V30 15 1 22 12
M  V30 16 1 23 5
M  V30 17 1 23 8
M  V30 18 1 26 4
M  V30 19 1 26 8
M  V30 20 1 27 5
M  V30 21 1 28 9
M  V30 22 1 28 24
M  V30 23 1 29 17
M  V30 24 1 29 27
M  V30 25 1 30 2
M  V30 26 1 30 7
M  V30 27 1 31 9
M  V30 28 1 31 25
M  V30 29 1 31 28
M  V30 30 1 32 1
M  V30 31 1 32 9
M  V30 32 1 32 14
M  V30 33 1 33 2
M  V30 34 1 34 1
M  V30 35 1 34 10
M  V30 36 1 34 25
M  V30 37 1 36 12
M  V30 38 1 36 35
M  V30 39 1 37 15
M  V30 40 1 37 19
M  V30 41 1 38 1
M  V30 42 1 39 1
M  V30 43 1 40 2
M  V30 44 1 41 3
M  V30 45 1 42 3
M  V30 46 1 43 37
M  V30 47 1 44 7
M  V30 48 1 45 7
M  V30 49 1 8 46 CFG=1
M  V30 50 1 47 11
M  V30 51 1 48 11
M  V30 52 1 49 12
M  V30 53 1 50 12
M  V30 54 1 51 13
M  V30 55 1 52 13
M  V30 56 1 53 13
M  V30 57 1 54 14
M  V30 58 1 55 14
M  V30 59 1 56 17
M  V30 60 1 57 18
M  V30 61 1 58 19
M  V30 62 1 59 20
M  V30 63 1 60 21
M  V30 64 1 61 22
M  V30 65 1 62 22
M  V30 66 1 63 24
M  V30 67 1 64 24
M  V30 68 1 65 24
M  V30 69 1 66 25
M  V30 70 1 67 25
M  V30 71 1 68 26
M  V30 72 1 69 26
M  V30 73 1 70 27
M  V30 74 1 71 27
M  V30 75 1 28 72 CFG=1
M  V30 76 1 73 29
M  V30 77 1 74 29
M  V30 78 1 75 30
M  V30 79 1 76 30
M  V30 80 1 31 77 CFG=3
M  V30 81 1 32 78 CFG=3
M  V30 82 1 79 33
M  V30 83 1 80 33
M  V30 84 1 81 33
M  V30 85 1 34 82 CFG=3
M  V30 86 1 83 35
M  V30 87 1 9 84 CFG=1
M  V30 END BOND
M  V30 END CTAB
M  END
>  <i_epik_Tot_Q>  (1) 
1

>  <i_epik_Tot_abs_Q>  (1) 
1

>  <i_i_glide_confnum>  (1) 
5172

>  <i_i_glide_lignum>  (1) 
57

>  <i_i_glide_posenum>  (1) 
119

>  <i_i_glide_rotatable_bonds>  (1) 
15

>  <i_lp_mmshare_version>  (1) 
72125

>  <i_m_source_file_index>  (1) 
27

>  <i_f3d_flags>  (1) 
0

>  <num_sample>  (1) 
50

>  <b_lp_Chiralities_Consistent>  (1) 
1

>  <r_epik_Charging_Adjusted_Penalty>  (1) 
0.02425622639956965

>  <r_epik_Ionization_Penalty>  (1) 
0.033094864685368548

>  <r_epik_Ionization_Penalty_Charging>  (1) 
0.02425622639956965

>  <r_epik_Ionization_Penalty_Neutral>  (1) 
0.0088386382857988978

>  <r_epik_State_Penalty>  (1) 
-0

>  <r_glide_ring_energy>  (1) 
0

>  <r_i_docking_score>  (1) 
-8.5559661109151541

>  <r_i_glide_ecoul>  (1) 
0.068799167657872168

>  <r_i_glide_eff_state_penalty>  (1) 
-0

>  <r_i_glide_einternal>  (1) 
30.502374930691563

>  <r_i_glide_emodel>  (1) 
-52.616275643167839

>  <r_i_glide_emodel_strain>  (1) 
2.0535167399456071

>  <r_i_glide_energy>  (1) 
-50.564339649670217

>  <r_i_glide_erotb>  (1) 
0.83677420797818713

>  <r_i_glide_esite>  (1) 
-0.099674642356073387

>  <r_i_glide_evdw>  (1) 
-50.633138817328089

>  <r_i_glide_gscore>  (1) 
-8.5559661109151541

>  <r_i_glide_gscore_strain>  (1) 
0

>  <r_i_glide_hbond>  (1) 
-0.035419108569509687

>  <r_i_glide_ligand_efficiency>  (1) 
-0.2312423273220312

>  <r_i_glide_ligand_efficiency_ln>  (1) 
-1.855588469153328

>  <r_i_glide_ligand_efficiency_sa>  (1) 
-0.77055073612793845

>  <r_i_glide_lipo>  (1) 
-5.3272786339722886

>  <r_i_glide_metal>  (1) 
-0

>  <r_i_glide_rewards>  (1) 
-1.4090308682777457

>  <r_lp_Energy>  (1) 
64.493858000000003

>  <r_lp_tautomer_probability>  (1) 
1

>  <s_epik_Chemistry_Notes>  (1) 
This compound has a N-S or N-O group and may undergo hydrolysis at high or low pH.

>  <s_epik_cmdline>  (1) 
J2VwaWtfcHl0aG9uJywgJy1waHQnLCAnMS4wJywgJy1waCcsICc3LjQnLCAnLXRuJywgJzgnLCAnLW1hJywgJzUwMCcsICctaW1hZScsICc8aW5maWxlLm1hZT4nLCAnLW9tYWUnLCAnPG91dGZpbGUubWFlPic=

>  <s_epik_input>  (1) 
W09IXU9bQ0gyXVtDSDJdTihbQ0hdPU8pW0NASF0oW0NIMl1bQ0BASF0oTjEyKVtDQEhdMVtDSDNdKVtDSDJdW0NASF0yW0NIMl1bQ0hdKFtDSDJdW0NIMl0zKVtDSDJdW0NIMl1OM09bQ0BASF0oW0NIMl1bQ0gyXVtDSF0oW0NIM10pW0NIM10pW0NIMl1bQ0BASF00Qyg9TylOPVtDSF1bQ0hdPVtDSF00

>  <s_glide_docking_method>  (1) 
confgen

>  <s_i_glide_gridfile>  (1) 
gpcr_5ht2c_6bqh_protein_autoprepared_prepared

>  <s_lp_Force_Field>  (1) 
S-OPLS

>  <s_lp_Variant>  (1) 
DiffSBDD_26-2

>  <s_m_source_file>  (1) 
generated_GPCR_5HT2C_ligand_DiffSBDD_2026-06-23_prepared.sdf

>  <GenAI_Model>  (1) 
DiffSBDD

>  <Protein>  (1) 
GPCR_5HT2C

$$$$
DiffSBDD_26
     RDKit          3D

  0  0  0  0  0  0  0  0  0  0999 V3000
M  V30 BEGIN CTAB
M  V30 COUNTS 84 87 0 0 1
M  V30 BEGIN ATOM
M  V30 1 C 40.427906 31.695071 63.193955 0
M  V30 2 C 38.858773 24.981594 56.788167 0
M  V30 3 C 37.808817 31.193850 58.195642 0
M  V30 4 C 38.642387 29.467417 53.656455 0
M  V30 5 N 38.659072 30.002845 58.242594 0
M  V30 6 O 36.980460 27.737747 53.367761 0
M  V30 7 C 38.705205 27.386439 55.895714 0
M  V30 8 C 38.822584 28.890223 56.187947 0 CFG=2
M  V30 9 N 40.045118 34.038380 62.967762 0 CFG=2 CHG=1
M  V30 10 N 41.975236 31.204946 65.121132 0
M  V30 11 C 38.232973 32.214501 59.264986 0
M  V30 12 C 42.441006 28.853719 64.455246 0
M  V30 13 C 38.451080 24.537750 55.367656 0
M  V30 14 C 38.423267 32.575192 61.805779 0
M  V30 15 C 37.922568 28.378199 52.909515 0
M  V30 16 O 41.400489 30.646199 67.254159 0
M  V30 17 C 38.124189 31.582698 60.660667 0
M  V30 18 C 41.245123 31.340155 66.251584 0
M  V30 19 C 39.443110 28.864294 51.067218 0
M  V30 20 C 40.047651 29.835430 51.724742 0
M  V30 21 C 39.645137 30.141436 53.050159 0
M  V30 22 C 43.017045 30.172138 65.001685 0
M  V30 23 O 38.026236 29.071375 57.351695 0
M  V30 24 C 40.233470 35.768494 61.184318 0
M  V30 25 C 41.840602 33.595775 64.290075 0
M  V30 26 C 38.195813 29.781898 55.080735 0
M  V30 27 C 38.510004 29.349095 59.540339 0
M  V30 28 C 40.473907 35.370915 62.621453 0 CFG=2
M  V30 29 C 38.945629 30.281543 60.676145 0
M  V30 30 C 39.417986 26.424659 56.856980 0
M  V30 31 C 41.480318 34.327936 63.023432 0 CFG=2
M  V30 32 C 39.905543 32.786610 62.195877 0 CFG=2
M  V30 33 C 37.703162 24.786750 57.775113 0
M  V30 34 C 41.750453 32.072627 63.949354 0 CFG=2
M  V30 35 O 40.845134 27.197264 64.753415 0
M  V30 36 O 41.554541 28.286234 65.401550 0
M  V30 37 N 38.401953 28.137727 51.644909 0
M  V30 38 H 40.585812 30.744312 62.692500 0
M  V30 39 H 39.646414 31.501488 63.928888 0
M  V30 40 H 39.655364 24.313818 57.119087 0
M  V30 41 H 36.771575 30.903839 58.357919 0
M  V30 42 H 37.857417 31.657501 57.211861 0
M  V30 43 H 37.971171 27.415195 51.083867 0
M  V30 44 H 37.643190 27.151318 55.863167 0
M  V30 45 H 39.120593 27.162388 54.916931 0
M  V30 46 H 39.874920 29.143137 56.338358 0
M  V30 47 H 37.585446 33.089549 59.195051 0
M  V30 48 H 39.245145 32.565460 59.071067 0
M  V30 49 H 43.247172 28.144790 64.259238 0
M  V30 50 H 41.933743 29.028044 63.506084 0
M  V30 51 H 37.668648 25.157370 54.931307 0
M  V30 52 H 39.307459 24.557639 54.693559 0
M  V30 53 H 38.045132 23.528384 55.367707 0
M  V30 54 H 37.858389 32.261538 62.680141 0
M  V30 55 H 37.985708 33.536287 61.530460 0
M  V30 56 H 37.076269 31.300640 60.780776 0
M  V30 57 H 40.499787 32.143748 66.154160 0
M  V30 58 H 39.690020 28.566486 50.058672 0
M  V30 59 H 40.848885 30.390658 51.258683 0
M  V30 60 H 40.154751 30.928487 53.587316 0
M  V30 61 H 43.504213 29.994147 65.962525 0
M  V30 62 H 43.815904 30.517693 64.345190 0
M  V30 63 H 40.866449 36.627261 60.967762 0
M  V30 64 H 40.477446 34.970349 60.484782 0
M  V30 65 H 39.192213 36.056005 61.038555 0
M  V30 66 H 41.190543 33.908065 65.109798 0
M  V30 67 H 42.852055 33.866009 64.584359 0
M  V30 68 H 37.106873 29.719729 55.125115 0
M  V30 69 H 38.430948 30.826168 55.283088 0
M  V30 70 H 37.471897 29.046194 59.684794 0
M  V30 71 H 39.112491 28.440587 59.553320 0
M  V30 72 H 40.153086 36.081796 63.381103 0
M  V30 73 H 40.007220 30.494792 60.550629 0
M  V30 74 H 38.823781 29.765369 61.628793 0
M  V30 75 H 40.480815 26.416447 56.610070 0
M  V30 76 H 39.356856 26.793841 57.880528 0
M  V30 77 H 42.045141 33.979358 62.162718 0
M  V30 78 H 40.507741 32.801165 61.286469 0
M  V30 79 H 36.865083 25.447929 57.551818 0
M  V30 80 H 37.336714 23.759582 57.760045 0
M  V30 81 H 38.045075 24.996188 58.788278 0
M  V30 82 H 42.553650 31.888434 63.234180 0
M  V30 83 H 40.006075 27.608071 64.567753 0
M  V30 84 H 39.654942 33.991031 63.897637 0
M  V30 END ATOM
M  V30 BEGIN BOND
M  V30 1 1 5 3
M  V30 2 1 8 7
M  V30 3 1 11 3
M  V30 4 1 13 2
M  V30 5 1 15 4
M  V30 6 2 15 6
M  V30 7 1 17 11
M  V30 8 1 17 14
M  V30 9 1 18 10
M  V30 10 2 18 16
M  V30 11 2 20 19
M  V30 12 2 21 4
M  V30 13 1 21 20
M  V30 14 1 22 10
M  V30 15 1 22 12
M  V30 16 1 23 5
M  V30 17 1 23 8
M  V30 18 1 26 4
M  V30 19 1 26 8
M  V30 20 1 27 5
M  V30 21 1 28 9
M  V30 22 1 28 24
M  V30 23 1 29 17
M  V30 24 1 29 27
M  V30 25 1 30 2
M  V30 26 1 30 7
M  V30 27 1 31 9
M  V30 28 1 31 25
M  V30 29 1 31 28
M  V30 30 1 32 1
M  V30 31 1 32 9
M  V30 32 1 32 14
M  V30 33 1 33 2
M  V30 34 1 34 1
M  V30 35 1 34 10
M  V30 36 1 34 25
M  V30 37 1 36 12
M  V30 38 1 36 35
M  V30 39 1 37 15
M  V30 40 1 37 19
M  V30 41 1 38 1
M  V30 42 1 39 1
M  V30 43 1 40 2
M  V30 44 1 41 3
M  V30 45 1 42 3
M  V30 46 1 43 37
M  V30 47 1 44 7
M  V30 48 1 45 7
M  V30 49 1 8 46 CFG=1
M  V30 50 1 47 11
M  V30 51 1 48 11
M  V30 52 1 49 12
M  V30 53 1 50 12
M  V30 54 1 51 13
M  V30 55 1 52 13
M  V30 56 1 53 13
M  V30 57 1 54 14
M  V30 58 1 55 14
M  V30 59 1 56 17
M  V30 60 1 57 18
M  V30 61 1 58 19
M  V30 62 1 59 20
M  V30 63 1 60 21
M  V30 64 1 61 22
M  V30 65 1 62 22
M  V30 66 1 63 24
M  V30 67 1 64 24
M  V30 68 1 65 24
M  V30 69 1 66 25
M  V30 70 1 67 25
M  V30 71 1 68 26
M  V30 72 1 69 26
M  V30 73 1 70 27
M  V30 74 1 71 27
M  V30 75 1 28 72 CFG=1
M  V30 76 1 73 29
M  V30 77 1 74 29
M  V30 78 1 75 30
M  V30 79 1 76 30
M  V30 80 1 31 77 CFG=3
M  V30 81 1 32 78 CFG=3
M  V30 82 1 79 33
M  V30 83 1 80 33
M  V30 84 1 81 33
M  V30 85 1 34 82 CFG=3
M  V30 86 1 83 35
M  V30 87 1 9 84 CFG=1
M  V30 END BOND
M  V30 END CTAB
M  END
>  <i_epik_Tot_Q>  (1) 
1

>  <i_epik_Tot_abs_Q>  (1) 
1

>  <i_i_glide_confnum>  (1) 
1325

>  <i_i_glide_lignum>  (1) 
57

>  <i_i_glide_posenum>  (1) 
343

>  <i_i_glide_rotatable_bonds>  (1) 
15

>  <i_lp_mmshare_version>  (1) 
72125

>  <i_m_source_file_index>  (1) 
27

>  <i_f3d_flags>  (1) 
0

>  <num_sample>  (1) 
50

>  <b_lp_Chiralities_Consistent>  (1) 
1

>  <r_epik_Charging_Adjusted_Penalty>  (1) 
0.02425622639956965

>  <r_epik_Ionization_Penalty>  (1) 
0.033094864685368548

>  <r_epik_Ionization_Penalty_Charging>  (1) 
0.02425622639956965

>  <r_epik_Ionization_Penalty_Neutral>  (1) 
0.0088386382857988978

>  <r_epik_State_Penalty>  (1) 
-0

>  <r_glide_ring_energy>  (1) 
0

>  <r_i_docking_score>  (1) 
-8.5135796726232993

>  <r_i_glide_ecoul>  (1) 
-3.9072571091183899

>  <r_i_glide_eff_state_penalty>  (1) 
-0

>  <r_i_glide_einternal>  (1) 
9.821440386958173

>  <r_i_glide_emodel>  (1) 
-70.568529960563453

>  <r_i_glide_emodel_strain>  (1) 
1.1814589130483313

>  <r_i_glide_energy>  (1) 
-57.399962075998978

>  <r_i_glide_erotb>  (1) 
0.83677420797818713

>  <r_i_glide_esite>  (1) 
-0.054208894251015785

>  <r_i_glide_evdw>  (1) 
-53.492704966880588

>  <r_i_glide_gscore>  (1) 
-8.5135796726232993

>  <r_i_glide_gscore_strain>  (1) 
0

>  <r_i_glide_hbond>  (1) 
-0.32000000000000001

>  <r_i_glide_ligand_efficiency>  (1) 
-0.23009674790873783

>  <r_i_glide_ligand_efficiency_ln>  (1) 
-1.8463958443669224

>  <r_i_glide_ligand_efficiency_sa>  (1) 
-0.76673341137416662

>  <r_i_glide_lipo>  (1) 
-5.0924273969377136

>  <r_i_glide_metal>  (1) 
-0

>  <r_i_glide_rewards>  (1) 
-0.62299377470096884

>  <r_lp_Energy>  (1) 
64.493858000000003

>  <r_lp_tautomer_probability>  (1) 
1

>  <s_epik_Chemistry_Notes>  (1) 
This compound has a N-S or N-O group and may undergo hydrolysis at high or low pH.

>  <s_epik_cmdline>  (1) 
J2VwaWtfcHl0aG9uJywgJy1waHQnLCAnMS4wJywgJy1waCcsICc3LjQnLCAnLXRuJywgJzgnLCAnLW1hJywgJzUwMCcsICctaW1hZScsICc8aW5maWxlLm1hZT4nLCAnLW9tYWUnLCAnPG91dGZpbGUubWFlPic=

>  <s_epik_input>  (1) 
W09IXU9bQ0gyXVtDSDJdTihbQ0hdPU8pW0NASF0oW0NIMl1bQ0BASF0oTjEyKVtDQEhdMVtDSDNdKVtDSDJdW0NASF0yW0NIMl1bQ0hdKFtDSDJdW0NIMl0zKVtDSDJdW0NIMl1OM09bQ0BASF0oW0NIMl1bQ0gyXVtDSF0oW0NIM10pW0NIM10pW0NIMl1bQ0BASF00Qyg9TylOPVtDSF1bQ0hdPVtDSF00

>  <s_glide_docking_method>  (1) 
confgen

>  <s_i_glide_gridfile>  (1) 
gpcr_5ht2c_6bqh_protein_autoprepared_prepared

>  <s_lp_Force_Field>  (1) 
S-OPLS

>  <s_lp_Variant>  (1) 
DiffSBDD_26-2

>  <s_m_source_file>  (1) 
generated_GPCR_5HT2C_ligand_DiffSBDD_2026-06-23_prepared.sdf

>  <GenAI_Model>  (1) 
DiffSBDD

>  <Protein>  (1) 
GPCR_5HT2C

$$$$
DiffSBDD_41
     RDKit          3D

  0  0  0  0  0  0  0  0  0  0999 V3000
M  V30 BEGIN CTAB
M  V30 COUNTS 71 75 0 0 1
M  V30 BEGIN ATOM
M  V30 1 C 38.652718 26.476950 58.376122 0
M  V30 2 O 38.050150 32.077997 59.240290 0
M  V30 3 C 38.262735 30.683329 59.008728 0 CFG=1
M  V30 4 C 39.357221 32.219289 56.613660 0
M  V30 5 C 39.923280 25.865348 57.785005 0
M  V30 6 C 37.702243 28.394029 55.099427 0
M  V30 7 C 40.333276 28.939111 50.588257 0
M  V30 8 C 39.821896 27.741786 51.117509 0
M  V30 9 C 39.819126 34.535729 61.347602 0
M  V30 10 C 39.074286 31.232021 53.367809 0
M  V30 11 C 37.321343 29.994473 59.982629 0
M  V30 12 C 38.235232 36.057448 61.006615 0
M  V30 13 N 39.414928 35.768068 61.579350 0
M  V30 14 C 37.923800 30.207479 57.558865 0 CFG=1
M  V30 15 C 38.547560 28.121435 56.371655 0
M  V30 16 C 38.821409 33.940058 60.510318 0
M  V30 17 O 39.940431 36.538269 63.789005 0
M  V30 18 O 40.858676 34.025744 61.770415 0
M  V30 19 C 39.905273 27.535242 55.920916 0
M  V30 20 C 40.725843 26.951339 57.069474 0
M  V30 21 N 38.045834 31.550003 56.692138 0 CFG=2 CHG=1
M  V30 22 O 37.651146 37.137711 61.101475 0
M  V30 23 O 38.911951 29.319625 57.096398 0
M  V30 24 C 39.164774 27.754452 52.351860 0
M  V30 25 C 37.481445 31.392795 55.356124 0
M  V30 26 C 40.169823 36.719352 62.406940 0
M  V30 27 C 38.980295 28.972780 53.020913 0
M  V30 28 C 38.965926 32.676467 60.074134 0
M  V30 29 C 40.176922 30.145145 51.283742 0
M  V30 30 C 36.287297 34.370127 60.680693 0
M  V30 31 N 38.324506 29.301466 54.200723 0
M  V30 32 C 37.652376 34.868423 60.177111 0 CFG=1
M  V30 33 C 37.785492 27.120073 57.284970 0
M  V30 34 C 38.303678 30.691307 54.328328 0
M  V30 35 C 39.475356 30.190175 52.508885 0
M  V30 36 H 38.914184 27.217866 59.131010 0
M  V30 37 H 38.083904 25.699313 58.881822 0
M  V30 38 H 39.287604 30.369049 59.210923 0
M  V30 39 H 40.106914 31.522843 56.250320 0
M  V30 40 H 39.320679 33.064905 55.925563 0
M  V30 41 H 39.645195 32.633814 57.569327 0
M  V30 42 H 40.518166 25.403860 58.567088 0
M  V30 43 H 39.668235 25.064099 57.089032 0
M  V30 44 H 37.389783 27.487989 54.578306 0
M  V30 45 H 36.845140 28.937652 55.372360 0
M  V30 46 H 40.844876 28.937756 49.638066 0
M  V30 47 H 39.943287 26.814859 50.574880 0
M  V30 48 H 39.245492 32.258980 53.215583 0
M  V30 49 H 37.297626 28.937562 59.767356 0
M  V30 50 H 37.650394 30.139003 61.010886 0
M  V30 51 H 36.301671 30.372892 59.896036 0
M  V30 52 H 36.903054 29.829125 57.476551 0
M  V30 53 H 40.599728 37.033868 64.263869 0
M  V30 54 H 39.744095 26.752381 55.178334 0
M  V30 55 H 40.491316 28.308901 55.426695 0
M  V30 56 H 41.014228 27.737337 57.768596 0
M  V30 57 H 41.645089 26.537680 56.668231 0
M  V30 58 H 38.768809 26.839124 52.765357 0
M  V30 59 H 37.285834 32.399862 54.985032 0
M  V30 60 H 36.488838 30.946061 55.367370 0
M  V30 61 H 39.928510 37.750352 62.146063 0
M  V30 62 H 41.240098 36.610838 62.219707 0
M  V30 63 H 39.802288 32.036813 60.317262 0
M  V30 64 H 40.561912 31.060632 50.856468 0
M  V30 65 H 36.183769 34.465056 61.762763 0
M  V30 66 H 35.486881 34.939024 60.211230 0
M  V30 67 H 36.119631 33.324004 60.424930 0
M  V30 68 H 37.636312 35.091733 59.110664 0
M  V30 69 H 36.917521 27.585604 57.751310 0
M  V30 70 H 37.387013 26.314476 56.667170 0
M  V30 71 H 37.403438 32.207001 57.120154 0
M  V30 END ATOM
M  V30 BEGIN BOND
M  V30 1 1 3 2
M  V30 2 1 5 1
M  V30 3 2 8 7
M  V30 4 1 11 3
M  V30 5 1 13 9
M  V30 6 1 13 12
M  V30 7 1 14 3
M  V30 8 1 15 6
M  V30 9 1 16 9
M  V30 10 2 18 9
M  V30 11 1 19 15
M  V30 12 1 20 5
M  V30 13 1 20 19
M  V30 14 1 21 4
M  V30 15 1 21 14
M  V30 16 2 22 12
M  V30 17 1 23 14
M  V30 18 1 23 15
M  V30 19 1 24 8
M  V30 20 1 25 21
M  V30 21 1 26 13
M  V30 22 1 26 17
M  V30 23 2 27 24
M  V30 24 1 28 2
M  V30 25 2 28 16
M  V30 26 1 29 7
M  V30 27 1 31 6
M  V30 28 1 31 27
M  V30 29 1 32 12
M  V30 30 1 32 16
M  V30 31 1 32 30
M  V30 32 1 33 1
M  V30 33 1 33 15
M  V30 34 2 34 10
M  V30 35 1 34 25
M  V30 36 1 34 31
M  V30 37 1 35 10
M  V30 38 1 35 27
M  V30 39 2 35 29
M  V30 40 1 36 1
M  V30 41 1 37 1
M  V30 42 1 3 38 CFG=1
M  V30 43 1 39 4
M  V30 44 1 40 4
M  V30 45 1 41 4
M  V30 46 1 42 5
M  V30 47 1 43 5
M  V30 48 1 44 6
M  V30 49 1 45 6
M  V30 50 1 46 7
M  V30 51 1 47 8
M  V30 52 1 48 10
M  V30 53 1 49 11
M  V30 54 1 50 11
M  V30 55 1 51 11
M  V30 56 1 14 52 CFG=1
M  V30 57 1 53 17
M  V30 58 1 54 19
M  V30 59 1 55 19
M  V30 60 1 56 20
M  V30 61 1 57 20
M  V30 62 1 58 24
M  V30 63 1 59 25
M  V30 64 1 60 25
M  V30 65 1 61 26
M  V30 66 1 62 26
M  V30 67 1 63 28
M  V30 68 1 64 29
M  V30 69 1 65 30
M  V30 70 1 66 30
M  V30 71 1 67 30
M  V30 72 1 32 68 CFG=3
M  V30 73 1 69 33
M  V30 74 1 70 33
M  V30 75 1 21 71 CFG=1
M  V30 END BOND
M  V30 END CTAB
M  END
>  <i_epik_Tot_Q>  (1) 
1

>  <i_epik_Tot_abs_Q>  (1) 
1

>  <i_i_glide_confnum>  (1) 
91

>  <i_i_glide_lignum>  (1) 
90

>  <i_i_glide_posenum>  (1) 
55

>  <i_i_glide_rotatable_bonds>  (1) 
5

>  <i_lp_mmshare_version>  (1) 
72125

>  <i_m_source_file_index>  (1) 
42

>  <i_f3d_flags>  (1) 
0

>  <num_sample>  (1) 
50

>  <b_lp_Chiralities_Consistent>  (1) 
1

>  <r_epik_Charging_Adjusted_Penalty>  (1) 
1.62722492853585

>  <r_epik_Ionization_Penalty>  (1) 
0.81369786534067623

>  <r_epik_Ionization_Penalty_Charging>  (1) 
0.81361246426792511

>  <r_epik_Ionization_Penalty_Neutral>  (1) 
8.5401072751167088e-05

>  <r_epik_State_Penalty>  (1) 
0.813612464267925

>  <r_glide_ring_energy>  (1) 
0

>  <r_i_docking_score>  (1) 
-8.510452626384124

>  <r_i_glide_ecoul>  (1) 
-7.0690397001773482

>  <r_i_glide_eff_state_penalty>  (1) 
0.813612464267925

>  <r_i_glide_einternal>  (1) 
16.340197325856444

>  <r_i_glide_emodel>  (1) 
-37.581846503713614

>  <r_i_glide_emodel_strain>  (1) 
0.29653993644338783

>  <r_i_glide_energy>  (1) 
-38.846756581625172

>  <r_i_glide_erotb>  (1) 
0.34854586591334119

>  <r_i_glide_esite>  (1) 
-0.17207332036480849

>  <r_i_glide_evdw>  (1) 
-31.777716881447823

>  <r_i_glide_gscore>  (1) 
-9.3240650906520486

>  <r_i_glide_gscore_strain>  (1) 
0

>  <r_i_glide_hbond>  (1) 
-0.37923804993630167

>  <r_i_glide_ligand_efficiency>  (1) 
-0.24315578932526069

>  <r_i_glide_ligand_efficiency_ln>  (1) 
-1.8682332308108094

>  <r_i_glide_ligand_efficiency_sa>  (1) 
-0.79537871058917464

>  <r_i_glide_lipo>  (1) 
-3.9428383157071663

>  <r_i_glide_metal>  (1) 
-0

>  <r_i_glide_rewards>  (1) 
-2.5292194714581191

>  <r_lp_Energy>  (1) 
36.851118

>  <s_epik_Chemistry_Notes>  (1) 
This compound contains an acetal/aminal-like group ( X-CH(R)-Y where X, Y are N, S, or O) that may be acid/base labile, releasing an aldehyde.

>  <s_epik_cmdline>  (1) 
J2VwaWtfcHl0aG9uJywgJy1waHQnLCAnMS4wJywgJy1waCcsICc3LjQnLCAnLXRuJywgJzgnLCAnLW1hJywgJzUwMCcsICctaW1hZScsICc8aW5maWxlLm1hZT4nLCAnLW9tYWUnLCAnPG91dGZpbGUubWFlPic=

>  <s_epik_input>  (1) 
W0NIMl0xW0NIMl1bQ0gyXVtDSDJdW0NIMl1DMTJbQ0gyXW4zYzRjKFtjSF1bY0hdW2NIXVtjSF00KVtjSF1jM1tDSDJdTihbQ0gzXSlbQ0BASF0oTzIpW0NASF0oW0NIM10pT1xbQ0hdPUNcNVtDQEBIXShbQ0gzXSlDKD1PKU4oQzU9TylbQ0gyXVtPSF0=

>  <s_glide_docking_method>  (1) 
confgen

>  <s_i_glide_gridfile>  (1) 
gpcr_5ht2c_6bqh_protein_autoprepared_prepared

>  <s_lp_Force_Field>  (1) 
S-OPLS

>  <s_lp_Variant>  (1) 
DiffSBDD_41-4

>  <s_m_source_file>  (1) 
generated_GPCR_5HT2C_ligand_DiffSBDD_2026-06-23_prepared.sdf

>  <GenAI_Model>  (1) 
DiffSBDD

>  <Protein>  (1) 
GPCR_5HT2C

$$$$
DiffSBDD_4
     RDKit          3D

  0  0  0  0  0  0  0  0  0  0999 V3000
M  V30 BEGIN CTAB
M  V30 COUNTS 84 86 0 0 1
M  V30 BEGIN ATOM
M  V30 1 C 39.461642 35.647378 61.390393 0
M  V30 2 O 40.996033 28.382360 57.930172 0
M  V30 3 C 38.821026 25.995813 57.317519 0
M  V30 4 C 36.297778 23.293255 56.053973 0
M  V30 5 C 37.466419 34.682035 60.092211 0
M  V30 6 C 37.927241 35.555026 61.284691 0 CFG=2
M  V30 7 O 37.127233 29.416309 57.334811 0
M  V30 8 O 36.843904 37.391724 62.390779 0
M  V30 9 C 37.797516 29.908042 58.220636 0
M  V30 10 C 38.808829 29.430747 55.174167 0
M  V30 11 C 38.680444 26.324554 54.764283 0
M  V30 12 C 35.408459 31.459677 60.952086 0
M  V30 13 C 37.287242 36.949907 61.335053 0
M  V30 14 N 39.097725 29.532763 58.485313 0
M  V30 15 C 39.861399 28.752584 57.618956 0
M  V30 16 C 38.605010 28.072441 52.998368 0
M  V30 17 C 39.298206 28.332048 56.196676 0 CFG=1
M  V30 18 C 39.604667 28.868293 50.934896 0
M  V30 19 C 37.167357 31.024586 59.094315 0 CFG=2
M  V30 20 C 40.072915 29.997087 51.599095 0
M  V30 21 C 38.524251 26.983354 56.156118 0 CFG=2
M  V30 22 C 38.879575 27.911514 51.622479 0
M  V30 23 C 37.746387 32.456677 58.863407 0
M  V30 24 F 38.445141 26.836787 50.967772 0
M  V30 25 C 38.167647 24.608909 57.173873 0
M  V30 26 C 39.713889 29.914330 59.774003 0
M  V30 27 C 39.692307 33.496669 60.167135 0
M  V30 28 C 36.699676 24.625617 56.701117 0
M  V30 29 N 37.245117 37.636882 60.193650 0
M  V30 30 C 40.104559 34.266151 61.422357 0
M  V30 31 C 39.816116 30.179298 52.972283 0
M  V30 32 C 40.843697 31.015337 50.859465 0
M  V30 33 C 36.555047 30.575923 60.423644 0
M  V30 34 C 38.168422 33.299793 60.090792 0 CFG=1
M  V30 35 C 37.808308 27.022619 53.727634 0
M  V30 36 N 41.642548 30.537780 49.742327 0 CHG=1
M  V30 37 C 39.087019 29.219079 53.682446 0
M  V30 38 H 39.764623 36.232654 62.261837 0
M  V30 39 H 39.862274 36.137755 60.509187 0
M  V30 40 H 39.897824 25.856973 57.426069 0
M  V30 41 H 38.473745 26.433894 58.253587 0
M  V30 42 H 35.245097 23.303208 55.766251 0
M  V30 43 H 36.877393 23.109614 55.148382 0
M  V30 44 H 36.445097 22.446547 56.723434 0
M  V30 45 H 37.644807 35.190730 59.145519 0
M  V30 46 H 36.385224 34.544650 60.145180 0
M  V30 47 H 37.571246 35.038627 62.167702 0
M  V30 48 H 39.205928 30.400980 55.476229 0
M  V30 49 H 37.729363 29.547247 55.161183 0
M  V30 50 H 39.722977 26.282143 54.447846 0
M  V30 51 H 38.370118 25.285048 54.748732 0
M  V30 52 H 34.845237 30.938311 61.725483 0
M  V30 53 H 35.768358 32.386337 61.393788 0
M  V30 54 H 34.713623 31.737075 60.157833 0
M  V30 55 H 40.256073 28.071126 55.748431 0
M  V30 56 H 39.799725 28.734089 49.881421 0
M  V30 57 H 36.226780 31.108956 58.567828 0
M  V30 58 H 37.478175 27.238878 56.282308 0
M  V30 59 H 38.571681 32.409688 58.149968 0
M  V30 60 H 36.987493 33.019406 58.315620 0
M  V30 61 H 38.775005 24.027620 56.482548 0
M  V30 62 H 38.224221 24.072187 58.119476 0
M  V30 63 H 39.640029 29.050557 60.437394 0
M  V30 64 H 40.778508 30.137647 59.714454 0
M  V30 65 H 39.258164 30.725498 60.320846 0
M  V30 66 H 40.222743 32.553770 60.168628 0
M  V30 67 H 40.035934 34.031016 59.280929 0
M  V30 68 H 36.060289 24.937730 57.527693 0
M  V30 69 H 36.499966 25.371642 55.938003 0
M  V30 70 H 37.626771 37.234860 59.350534 0
M  V30 71 H 36.821597 38.558586 60.174834 0
M  V30 72 H 39.805919 33.727523 62.321760 0
M  V30 73 H 41.188389 34.368825 61.459326 0
M  V30 74 H 40.185533 31.060074 53.478521 0
M  V30 75 H 40.136892 31.768053 50.532005 0
M  V30 76 H 41.560724 31.337804 51.590459 0
M  V30 77 H 36.142033 29.599589 60.167764 0
M  V30 78 H 37.303726 30.452965 61.203131 0
M  V30 79 H 37.885192 32.784704 61.004145 0
M  V30 80 H 36.912019 27.467439 54.164280 0
M  V30 81 H 37.428592 26.283903 53.021632 0
M  V30 82 H 42.099668 31.332566 49.314163 0
M  V30 83 H 42.334827 29.879347 50.075220 0
M  V30 84 H 41.040297 30.095811 49.065670 0
M  V30 END ATOM
M  V30 BEGIN BOND
M  V30 1 1 6 1
M  V30 2 1 6 5
M  V30 3 2 9 7
M  V30 4 1 13 6
M  V30 5 2 13 8
M  V30 6 1 14 9
M  V30 7 2 15 2
M  V30 8 1 15 14
M  V30 9 1 17 10
M  V30 10 1 17 15
M  V30 11 1 19 9
M  V30 12 2 20 18
M  V30 13 1 21 3
M  V30 14 1 21 11
M  V30 15 1 21 17
M  V30 16 2 22 16
M  V30 17 1 22 18
M  V30 18 1 23 19
M  V30 19 1 24 22
M  V30 20 1 25 3
M  V30 21 1 26 14
M  V30 22 1 28 4
M  V30 23 1 28 25
M  V30 24 1 29 13
M  V30 25 1 30 1
M  V30 26 1 30 27
M  V30 27 1 31 20
M  V30 28 1 32 20
M  V30 29 1 33 12
M  V30 30 1 33 19
M  V30 31 1 34 5
M  V30 32 1 34 23
M  V30 33 1 34 27
M  V30 34 1 35 11
M  V30 35 1 35 16
M  V30 36 1 36 32
M  V30 37 1 37 10
M  V30 38 1 37 16
M  V30 39 2 37 31
M  V30 40 1 38 1
M  V30 41 1 39 1
M  V30 42 1 40 3
M  V30 43 1 41 3
M  V30 44 1 42 4
M  V30 45 1 43 4
M  V30 46 1 44 4
M  V30 47 1 45 5
M  V30 48 1 46 5
M  V30 49 1 6 47 CFG=1
M  V30 50 1 48 10
M  V30 51 1 49 10
M  V30 52 1 50 11
M  V30 53 1 51 11
M  V30 54 1 52 12
M  V30 55 1 53 12
M  V30 56 1 54 12
M  V30 57 1 17 55 CFG=3
M  V30 58 1 56 18
M  V30 59 1 19 57 CFG=3
M  V30 60 1 21 58 CFG=1
M  V30 61 1 59 23
M  V30 62 1 60 23
M  V30 63 1 61 25
M  V30 64 1 62 25
M  V30 65 1 63 26
M  V30 66 1 64 26
M  V30 67 1 65 26
M  V30 68 1 66 27
M  V30 69 1 67 27
M  V30 70 1 68 28
M  V30 71 1 69 28
M  V30 72 1 70 29
M  V30 73 1 71 29
M  V30 74 1 72 30
M  V30 75 1 73 30
M  V30 76 1 74 31
M  V30 77 1 75 32
M  V30 78 1 76 32
M  V30 79 1 77 33
M  V30 80 1 78 33
M  V30 81 1 34 79 CFG=1
M  V30 82 1 80 35
M  V30 83 1 81 35
M  V30 84 1 82 36
M  V30 85 1 83 36
M  V30 86 1 84 36
M  V30 END BOND
M  V30 END CTAB
M  END
>  <i_epik_Tot_Q>  (1) 
1

>  <i_epik_Tot_abs_Q>  (1) 
1

>  <i_i_glide_confnum>  (1) 
217

>  <i_i_glide_lignum>  (1) 
12

>  <i_i_glide_posenum>  (1) 
117

>  <i_i_glide_rotatable_bonds>  (1) 
12

>  <i_lp_mmshare_version>  (1) 
72125

>  <i_m_source_file_index>  (1) 
5

>  <i_f3d_flags>  (1) 
0

>  <num_sample>  (1) 
50

>  <b_lp_Chiralities_Consistent>  (1) 
1

>  <r_epik_Charging_Adjusted_Penalty>  (1) 
0.13898695589805143

>  <r_epik_Ionization_Penalty>  (1) 
0.069493509606034093

>  <r_epik_Ionization_Penalty_Charging>  (1) 
0.069493477949025731

>  <r_epik_Ionization_Penalty_Neutral>  (1) 
3.165700835510182e-08

>  <r_epik_State_Penalty>  (1) 
0.069493477949025703

>  <r_glide_ring_energy>  (1) 
0

>  <r_i_docking_score>  (1) 
-8.497654870620762

>  <r_i_glide_ecoul>  (1) 
-2.5547894989735669

>  <r_i_glide_eff_state_penalty>  (1) 
0.069493477949025703

>  <r_i_glide_einternal>  (1) 
32.917709053408714

>  <r_i_glide_emodel>  (1) 
-44.417136520996266

>  <r_i_glide_emodel_strain>  (1) 
5.8916969455368644

>  <r_i_glide_energy>  (1) 
-45.467406785358143

>  <r_i_glide_erotb>  (1) 
0.61504065404150154

>  <r_i_glide_esite>  (1) 
-0.065919740364594082

>  <r_i_glide_evdw>  (1) 
-42.912617286384574

>  <r_i_glide_gscore>  (1) 
-8.5671483485697877

>  <r_i_glide_gscore_strain>  (1) 
0.4729242363842161

>  <r_i_glide_hbond>  (1) 
-0.24719788589772379

>  <r_i_glide_ligand_efficiency>  (1) 
-0.22966634785461518

>  <r_i_glide_ligand_efficiency_ln>  (1) 
-1.8429421281428995

>  <r_i_glide_ligand_efficiency_sa>  (1) 
-0.76529922290886954

>  <r_i_glide_lipo>  (1) 
-5.0947061110125276

>  <r_i_glide_metal>  (1) 
-0

>  <r_i_glide_rewards>  (1) 
-1.7184402125553959

>  <r_lp_Energy>  (1) 
65.294674999999998

>  <r_lp_tautomer_probability>  (1) 
0.99980002999550088

>  <s_epik_cmdline>  (1) 
J2VwaWtfcHl0aG9uJywgJy1waHQnLCAnMS4wJywgJy1waCcsICc3LjQnLCAnLXRuJywgJzgnLCAnLW1hJywgJzUwMCcsICctaW1hZScsICc8aW5maWxlLm1hZT4nLCAnLW9tYWUnLCAnPG91dGZpbGUubWFlPic=

>  <s_epik_input>  (1) 
Tz1DKFtOSDJdKVtDQEBIXTFbQ0gyXVtDSDJdW0NIMl1bQ0BASF0oW0NIMl0xKVtDSDJdW0NASF0oW0NIMl1bQ0gzXSlDKD1PKU4oW0NIM10pQyg9TylbQ0BASF0oW0NAQEhdKFtDSDJdW0NIMl0yKVtDSDJdW0NIMl1bQ0gyXVtDSDNdKVtDSDJdYyhjMjMpW2NIXWMoW2NIXWMzRilbQ0gyXVtOSDJd

>  <s_glide_docking_method>  (1) 
confgen

>  <s_i_glide_gridfile>  (1) 
gpcr_5ht2c_6bqh_protein_autoprepared_prepared

>  <s_lp_Force_Field>  (1) 
S-OPLS

>  <s_lp_Variant>  (1) 
DiffSBDD_4-1

>  <s_m_source_file>  (1) 
generated_GPCR_5HT2C_ligand_DiffSBDD_2026-06-23_prepared.sdf

>  <GenAI_Model>  (1) 
DiffSBDD

>  <Protein>  (1) 
GPCR_5HT2C

$$$$
DiffSBDD_17
     RDKit          3D

  0  0  0  0  0  0  0  0  0  0999 V3000
M  V30 BEGIN CTAB
M  V30 COUNTS 94 98 0 0 1
M  V30 BEGIN ATOM
M  V30 1 C 41.380821 33.767101 67.347459 0
M  V30 2 C 38.378013 33.424987 61.327684 0 CFG=2
M  V30 3 C 42.666638 32.352432 65.671800 0
M  V30 4 O 41.629329 35.737464 63.725847 0
M  V30 5 C 43.660860 32.876626 67.950056 0
M  V30 6 C 38.464239 28.147676 55.130880 0
M  V30 7 C 39.540260 25.900538 54.923076 0
M  V30 8 C 38.827535 27.075337 54.422175 0
M  V30 9 C 35.305135 34.066726 60.146816 0
M  V30 10 C 36.930055 36.939918 60.811251 0
M  V30 11 N 41.964408 30.050334 65.226906 0
M  V30 12 C 37.023690 35.656926 61.610960 0 CFG=2
M  V30 13 C 41.339114 31.882851 63.508052 0 CFG=1
M  V30 14 C 39.896825 33.656326 61.048214 0
M  V30 15 N 43.151934 29.579772 64.491420 0 CHG=1
M  V30 16 C 37.547943 30.213336 55.465794 0 CFG=2
M  V30 17 C 38.759518 28.422508 56.557284 0 CFG=2
M  V30 18 C 41.418503 27.923852 64.404417 0
M  V30 19 C 41.595433 31.461960 64.989791 0 CFG=2
M  V30 20 O 37.776683 29.167130 54.534864 0
M  V30 21 C 42.699773 28.413631 63.708507 0
M  V30 22 O 40.318709 31.075585 62.953857 0
M  V30 23 N 36.848246 30.933131 58.667318 0 CHG=1
M  V30 24 C 38.669373 27.331570 57.574656 0
M  V30 25 C 37.850348 32.078508 60.707861 0
M  V30 26 C 39.644882 25.465908 56.210514 0
M  V30 27 N 37.534736 34.545338 60.828321 0 CFG=2 CHG=1
M  V30 28 C 40.716829 35.523784 62.665127 0
M  V30 29 S 38.604776 31.660509 55.153898 0
M  V30 30 C 40.817606 34.045487 62.245982 0 CFG=1
M  V30 31 C 39.080739 26.067261 57.421632 0
M  V30 32 N 40.657178 33.200241 63.459833 0 CHG=1
M  V30 33 C 36.169876 34.436689 61.329290 0 CFG=2
M  V30 34 C 38.098255 30.437497 58.057678 0
M  V30 35 C 35.491486 32.594068 59.789205 0
M  V30 36 C 37.771214 29.543174 56.843954 0 CFG=1
M  V30 37 C 36.940386 32.189018 59.434887 0 CFG=2
M  V30 38 N 40.845220 29.117654 65.053423 0 CHG=1
M  V30 39 C 42.372445 32.606885 67.165173 0
M  V30 40 H 41.783785 34.705464 66.963699 0
M  V30 41 H 40.446389 33.577150 66.826789 0
M  V30 42 H 41.143054 33.921483 68.401097 0
M  V30 43 H 38.255480 33.337647 62.405895 0
M  V30 44 H 43.659884 31.916286 65.561853 0
M  V30 45 H 42.747245 33.319823 65.173879 0
M  V30 46 H 41.650095 36.664624 63.955479 0
M  V30 47 H 44.185408 33.737722 67.543609 0
M  V30 48 H 43.449398 33.077815 69.000933 0
M  V30 49 H 44.338810 32.023052 67.911231 0
M  V30 50 H 39.996818 25.271850 54.174367 0
M  V30 51 H 38.568842 27.075474 53.373527 0
M  V30 52 H 35.479290 34.721240 59.290899 0
M  V30 53 H 34.257017 34.137876 60.419556 0
M  V30 54 H 36.421812 37.705028 61.399447 0
M  V30 55 H 37.927422 37.307181 60.567982 0
M  V30 56 H 36.373349 36.799412 59.884103 0
M  V30 57 H 37.532496 35.736836 62.566393 0
M  V30 58 H 42.251360 31.861921 62.910288 0
M  V30 59 H 40.016668 34.396919 60.255247 0
M  V30 60 H 40.329579 32.753911 60.618309 0
M  V30 61 H 43.522738 30.327419 63.922895 0
M  V30 62 H 36.512156 30.537498 55.367742 0
M  V30 63 H 39.773577 28.822367 56.598480 0
M  V30 64 H 41.668823 27.195765 65.177229 0
M  V30 65 H 40.714227 27.454549 63.717843 0
M  V30 66 H 40.657435 31.620084 65.526133 0
M  V30 67 H 43.471506 27.646121 63.627960 0
M  V30 68 H 42.452305 28.750554 62.701499 0
M  V30 69 H 40.552573 30.836083 62.067513 0
M  V30 70 H 36.398886 30.205485 59.201851 0
M  V30 71 H 38.277471 27.623636 58.537329 0
M  V30 72 H 38.688888 31.415085 60.509555 0
M  V30 73 H 37.286959 31.546342 61.475785 0
M  V30 74 H 40.174470 24.537770 56.350610 0
M  V30 75 H 39.717758 35.782058 63.009740 0
M  V30 76 H 40.965910 36.185634 61.834059 0
M  V30 77 H 39.771183 31.033339 55.331147 0
M  V30 78 H 41.844044 33.911871 61.902831 0
M  V30 79 H 38.996480 25.424342 58.284971 0
M  V30 80 H 41.103439 33.776047 64.167894 0
M  V30 81 H 36.054330 33.765401 62.175221 0
M  V30 82 H 38.770774 31.255890 57.805489 0
M  V30 83 H 38.620053 29.858900 58.818988 0
M  V30 84 H 34.809575 32.385538 58.967730 0
M  V30 85 H 35.125487 31.971430 60.607367 0
M  V30 86 H 36.845130 29.032702 57.088296 0
M  V30 87 H 37.356765 32.918366 58.736405 0
M  V30 88 H 40.452255 28.907633 65.962605 0
M  V30 89 H 41.926174 31.709681 67.597745 0
M  V30 90 H 43.828440 29.296666 65.191118 0
M  V30 91 H 40.158466 29.561884 64.453751 0
M  V30 92 H 36.212155 31.191322 57.891993 0
M  V30 93 H 39.687680 33.103825 63.720875 0
M  V30 94 H 37.548219 34.727220 59.833718 0
M  V30 END ATOM
M  V30 BEGIN BOND
M  V30 1 2 8 6
M  V30 2 1 8 7
M  V30 3 1 12 10
M  V30 4 1 14 2
M  V30 5 1 15 11
M  V30 6 1 17 6
M  V30 7 1 19 3
M  V30 8 1 19 11
M  V30 9 1 19 13
M  V30 10 1 20 6
M  V30 11 1 20 16
M  V30 12 1 21 15
M  V30 13 1 21 18
M  V30 14 1 22 13
M  V30 15 1 24 17
M  V30 16 1 25 2
M  V30 17 2 26 7
M  V30 18 1 27 2
M  V30 19 1 27 12
M  V30 20 1 28 4
M  V30 21 1 29 16
M  V30 22 1 30 14
M  V30 23 1 30 28
M  V30 24 2 31 24
M  V30 25 1 31 26
M  V30 26 1 32 13
M  V30 27 1 32 30
M  V30 28 1 33 9
M  V30 29 1 33 12
M  V30 30 1 33 27
M  V30 31 1 34 23
M  V30 32 1 35 9
M  V30 33 1 36 16
M  V30 34 1 36 17
M  V30 35 1 36 34
M  V30 36 1 37 23
M  V30 37 1 37 25
M  V30 38 1 37 35
M  V30 39 1 38 11
M  V30 40 1 38 18
M  V30 41 1 39 1
M  V30 42 1 39 3
M  V30 43 1 39 5
M  V30 44 1 40 1
M  V30 45 1 41 1
M  V30 46 1 42 1
M  V30 47 1 2 43 CFG=1
M  V30 48 1 44 3
M  V30 49 1 45 3
M  V30 50 1 46 4
M  V30 51 1 47 5
M  V30 52 1 48 5
M  V30 53 1 49 5
M  V30 54 1 50 7
M  V30 55 1 51 8
M  V30 56 1 52 9
M  V30 57 1 53 9
M  V30 58 1 54 10
M  V30 59 1 55 10
M  V30 60 1 56 10
M  V30 61 1 12 57 CFG=1
M  V30 62 1 13 58 CFG=3
M  V30 63 1 59 14
M  V30 64 1 60 14
M  V30 65 1 61 15
M  V30 66 1 16 62 CFG=1
M  V30 67 1 17 63 CFG=3
M  V30 68 1 64 18
M  V30 69 1 65 18
M  V30 70 1 19 66 CFG=1
M  V30 71 1 67 21
M  V30 72 1 68 21
M  V30 73 1 69 22
M  V30 74 1 70 23
M  V30 75 1 71 24
M  V30 76 1 72 25
M  V30 77 1 73 25
M  V30 78 1 74 26
M  V30 79 1 75 28
M  V30 80 1 76 28
M  V30 81 1 77 29
M  V30 82 1 30 78 CFG=3
M  V30 83 1 79 31
M  V30 84 1 80 32
M  V30 85 1 33 81 CFG=1
M  V30 86 1 82 34
M  V30 87 1 83 34
M  V30 88 1 84 35
M  V30 89 1 85 35
M  V30 90 1 36 86 CFG=1
M  V30 91 1 37 87 CFG=3
M  V30 92 1 88 38
M  V30 93 1 89 39
M  V30 94 1 90 15
M  V30 95 1 91 38
M  V30 96 1 92 23
M  V30 97 1 93 32
M  V30 98 1 27 94 CFG=3
M  V30 END BOND
M  V30 END CTAB
M  END
>  <i_epik_Tot_Q>  (1) 
5

>  <i_epik_Tot_abs_Q>  (1) 
5

>  <i_i_glide_confnum>  (1) 
2986

>  <i_i_glide_lignum>  (1) 
38

>  <i_i_glide_posenum>  (1) 
181

>  <i_i_glide_rotatable_bonds>  (1) 
15

>  <i_lp_mmshare_version>  (1) 
72125

>  <i_m_source_file_index>  (1) 
18

>  <i_f3d_flags>  (1) 
0

>  <num_sample>  (1) 
50

>  <b_lp_Chiralities_Consistent>  (1) 
1

>  <r_epik_Charging_Adjusted_Penalty>  (1) 
1.9019841067917955

>  <r_epik_Ionization_Penalty>  (1) 
1.8906488358708171

>  <r_epik_Ionization_Penalty_Charging>  (1) 
0.55913698057276895

>  <r_epik_Ionization_Penalty_Neutral>  (1) 
1.3315118552980483

>  <r_epik_State_Penalty>  (1) 
1.3428471262190267

>  <r_glide_ring_energy>  (1) 
0.0045750838620950583

>  <r_i_docking_score>  (1) 
-8.4545382162620388

>  <r_i_glide_ecoul>  (1) 
-13.240534908959539

>  <r_i_glide_eff_state_penalty>  (1) 
1.3428471262190267

>  <r_i_glide_einternal>  (1) 
35.861624477653152

>  <r_i_glide_emodel>  (1) 
-90.183134048585003

>  <r_i_glide_emodel_strain>  (1) 
2.1405597376650576

>  <r_i_glide_energy>  (1) 
-61.653662699233408

>  <r_i_glide_erotb>  (1) 
0.55832093698931284

>  <r_i_glide_esite>  (1) 
-0.13319048517962179

>  <r_i_glide_evdw>  (1) 
-48.413127790273869

>  <r_i_glide_gscore>  (1) 
-9.797385342481066

>  <r_i_glide_gscore_strain>  (1) 
0

>  <r_i_glide_hbond>  (1) 
-0.48341685909027432

>  <r_i_glide_ligand_efficiency>  (1) 
-0.21678303118620612

>  <r_i_glide_ligand_efficiency_ln>  (1) 
-1.8128929899058106

>  <r_i_glide_ligand_efficiency_sa>  (1) 
-0.73515709600995927

>  <r_i_glide_lipo>  (1) 
-4.2081208373255548

>  <r_i_glide_metal>  (1) 
-0

>  <r_i_glide_rewards>  (1) 
-1.1242414720173048

>  <r_lp_Energy>  (1) 
94.296559999999999

>  <s_epik_Chemistry_Notes>  (1) 
This compound contains an acetal/aminal-like group ( X-CH(R)-Y where X, Y are N, S, or O) that may be acid/base labile, releasing an aldehyde.

>  <s_epik_cmdline>  (1) 
J2VwaWtfcHl0aG9uJywgJy1waHQnLCAnMS4wJywgJy1waCcsICc3LjQnLCAnLXRuJywgJzgnLCAnLW1hJywgJzUwMCcsICctaW1hZScsICc8aW5maWxlLm1hZT4nLCAnLW9tYWUnLCAnPG91dGZpbGUubWFlPic=

>  <s_epik_input>  (1) 
W05IXTFbQ0gyXVtDSDJdW05IXU4xW0NAQEhdKFtDSDJdW0NIXShbQ0gzXSlbQ0gzXSlbQ0BASF0oW09IXSlbTkhdW0NASF0oW0NIMl1bT0hdKVtDSDJdW0NAQEhdMltDSDJdW0NASF0oW0NIMl1bQ0gyXVtDQEBIXShOMjMpW0NIXTNbQ0gzXSlbTkhdW0NIMl1bQ0BASF0oW0NASF0oTzQpW1NIXSlbQ0BIXShDND01KVtDSF09W0NIXVtDSF09W0NIXVtDSF01

>  <s_glide_docking_method>  (1) 
confgen

>  <s_i_glide_gridfile>  (1) 
gpcr_5ht2c_6bqh_protein_autoprepared_prepared

>  <s_lp_Force_Field>  (1) 
S-OPLS

>  <s_lp_Variant>  (1) 
DiffSBDD_17-5

>  <s_m_source_file>  (1) 
generated_GPCR_5HT2C_ligand_DiffSBDD_2026-06-23_prepared.sdf

>  <GenAI_Model>  (1) 
DiffSBDD

>  <Protein>  (1) 
GPCR_5HT2C

$$$$
DiffSBDD_10
     RDKit          3D

  0  0  0  0  0  0  0  0  0  0999 V3000
M  V30 BEGIN CTAB
M  V30 COUNTS 64 66 0 0 1
M  V30 BEGIN ATOM
M  V30 1 C 39.645127 30.228639 52.881754 0
M  V30 2 C 38.443226 28.212273 52.205065 0
M  V30 3 C 37.766422 30.154601 57.679866 0
M  V30 4 C 39.617678 25.980598 57.848352 0
M  V30 5 C 42.220877 32.968779 64.870655 0
M  V30 6 C 38.615794 25.223824 55.767682 0
M  V30 7 C 40.040454 29.249694 50.681639 0
M  V30 8 O 37.864040 35.638537 60.167795 0
M  V30 9 F 39.960921 28.297561 58.249973 0
M  V30 10 S 40.284383 35.445768 62.243969 0
M  V30 11 C 42.852977 33.176823 67.315106 0
M  V30 12 C 41.058716 34.774895 63.719808 0
M  V30 13 C 42.224504 33.736900 66.055538 0
M  V30 14 C 38.139638 32.572012 58.672211 0
M  V30 15 C 40.303994 30.249017 51.635393 0
M  V30 16 S 37.908390 34.273738 60.712057 0
M  V30 17 C 37.997772 31.040796 58.938836 0 CFG=1
M  V30 18 O 41.234586 35.338593 61.127331 0
M  V30 19 O 36.671082 33.715320 61.282493 0
M  V30 20 C 39.513361 27.320447 57.430089 0
M  V30 21 C 41.640098 33.484899 63.695897 0
M  V30 22 N 38.808921 28.993190 55.687793 0
M  V30 23 C 36.896720 30.734732 59.981185 0
M  V30 24 C 39.115815 28.228527 50.968206 0
M  V30 25 C 41.643144 35.025203 66.065544 0
M  V30 26 C 39.170252 24.938456 57.022904 0
M  V30 27 C 41.058654 35.543196 64.895684 0
M  V30 28 C 38.707263 29.213228 53.167563 0
M  V30 29 C 38.943202 30.078486 56.670099 0
M  V30 30 C 38.940033 27.630928 56.150600 0
M  V30 31 C 37.968992 29.211018 54.502285 0
M  V30 32 N 38.755524 33.218894 59.822658 0 CHG=-1
M  V30 33 Cl 41.644274 32.536737 62.248271 0
M  V30 34 O 39.677615 36.745344 62.576654 0
M  V30 35 C 38.499718 26.554650 55.328642 0
M  V30 36 N 39.005391 34.310941 62.024956 0
M  V30 37 H 39.848653 30.998252 53.612747 0
M  V30 38 H 37.721750 27.436245 52.411247 0
M  V30 39 H 36.855043 30.442309 57.159356 0
M  V30 40 H 37.557918 29.146219 58.034364 0
M  V30 41 H 40.045139 25.754063 58.811804 0
M  V30 42 H 42.666134 31.984547 64.863598 0
M  V30 43 H 38.275849 24.417251 55.133919 0
M  V30 44 H 40.544545 29.268799 49.727800 0
M  V30 45 H 43.914371 32.986345 67.153536 0
M  V30 46 H 42.754944 33.861985 68.155918 0
M  V30 47 H 42.373458 32.236988 67.590747 0
M  V30 48 H 38.769858 32.712488 57.794316 0
M  V30 49 H 37.175020 33.005391 58.413996 0
M  V30 50 H 41.012302 31.032814 51.411907 0
M  V30 51 H 38.939787 30.698743 59.369802 0
M  V30 52 H 35.912225 31.071669 59.649063 0
M  V30 53 H 36.826230 29.665172 60.161912 0
M  V30 54 H 37.104316 31.192178 60.949180 0
M  V30 55 H 38.912406 27.463104 50.233416 0
M  V30 56 H 41.644377 35.613513 66.969031 0
M  V30 57 H 39.255887 23.913687 57.354991 0
M  V30 58 H 40.610505 36.526438 64.903929 0
M  V30 59 H 39.925679 30.098050 57.135053 0
M  V30 60 H 38.940959 31.009592 56.102315 0
M  V30 61 H 37.517358 30.199989 54.596157 0
M  V30 62 H 37.103799 28.549430 54.478663 0
M  V30 63 H 38.072733 26.744294 54.365159 0
M  V30 64 H 38.507885 34.112960 62.888114 0
M  V30 END ATOM
M  V30 BEGIN BOND
M  V30 1 1 12 10
M  V30 2 2 13 5
M  V30 3 1 13 11
M  V30 4 1 15 1
M  V30 5 2 15 7
M  V30 6 2 16 8
M  V30 7 1 17 3
M  V30 8 1 17 14
M  V30 9 2 18 10
M  V30 10 2 19 16
M  V30 11 2 20 4
M  V30 12 1 20 9
M  V30 13 1 21 5
M  V30 14 2 21 12
M  V30 15 1 23 17
M  V30 16 2 24 2
M  V30 17 1 24 7
M  V30 18 1 25 13
M  V30 19 1 26 4
M  V30 20 2 26 6
M  V30 21 1 27 12
M  V30 22 2 27 25
M  V30 23 2 28 1
M  V30 24 1 28 2
M  V30 25 1 29 3
M  V30 26 1 29 22
M  V30 27 1 30 20
M  V30 28 1 30 22
M  V30 29 1 31 22
M  V30 30 1 31 28
M  V30 31 1 32 14
M  V30 32 1 32 16
M  V30 33 1 33 21
M  V30 34 2 34 10
M  V30 35 1 35 6
M  V30 36 2 35 30
M  V30 37 1 36 10
M  V30 38 1 36 16
M  V30 39 1 37 1
M  V30 40 1 38 2
M  V30 41 1 39 3
M  V30 42 1 40 3
M  V30 43 1 41 4
M  V30 44 1 42 5
M  V30 45 1 43 6
M  V30 46 1 44 7
M  V30 47 1 45 11
M  V30 48 1 46 11
M  V30 49 1 47 11
M  V30 50 1 48 14
M  V30 51 1 49 14
M  V30 52 1 50 15
M  V30 53 1 17 51 CFG=1
M  V30 54 1 52 23
M  V30 55 1 53 23
M  V30 56 1 54 23
M  V30 57 1 55 24
M  V30 58 1 56 25
M  V30 59 1 57 26
M  V30 60 1 58 27
M  V30 61 1 59 29
M  V30 62 1 60 29
M  V30 63 1 61 31
M  V30 64 1 62 31
M  V30 65 1 63 35
M  V30 66 1 64 36
M  V30 END BOND
M  V30 END CTAB
M  END
>  <i_epik_Tot_Q>  (1) 
-1

>  <i_epik_Tot_abs_Q>  (1) 
1

>  <i_i_glide_confnum>  (1) 
5055

>  <i_i_glide_lignum>  (1) 
20

>  <i_i_glide_posenum>  (1) 
121

>  <i_i_glide_rotatable_bonds>  (1) 
12

>  <i_lp_mmshare_version>  (1) 
72125

>  <i_m_source_file_index>  (1) 
11

>  <i_f3d_flags>  (1) 
0

>  <num_sample>  (1) 
50

>  <b_lp_Chiralities_Consistent>  (1) 
1

>  <r_epik_Charging_Adjusted_Penalty>  (1) 
0.23249297725634946

>  <r_epik_Ionization_Penalty>  (1) 
0.023438671839039082

>  <r_epik_Ionization_Penalty_Charging>  (1) 
0.017777804751773103

>  <r_epik_Ionization_Penalty_Neutral>  (1) 
0.0056608670872659774

>  <r_epik_State_Penalty>  (1) 
0.21471517250457636

>  <r_glide_ring_energy>  (1) 
0

>  <r_i_docking_score>  (1) 
-8.4437520345431452

>  <r_i_glide_ecoul>  (1) 
-1.9198699654166518

>  <r_i_glide_eff_state_penalty>  (1) 
0.21471517250457636

>  <r_i_glide_einternal>  (1) 
20.061032633399982

>  <r_i_glide_emodel>  (1) 
-84.241550894034617

>  <r_i_glide_emodel_strain>  (1) 
0.10240048172854443

>  <r_i_glide_energy>  (1) 
-63.105428930968188

>  <r_i_glide_erotb>  (1) 
0.74186158489162179

>  <r_i_glide_esite>  (1) 
0

>  <r_i_glide_evdw>  (1) 
-61.185558965551536

>  <r_i_glide_gscore>  (1) 
-8.6584672070477211

>  <r_i_glide_gscore_strain>  (1) 
0

>  <r_i_glide_hbond>  (1) 
0

>  <r_i_glide_ligand_efficiency>  (1) 
-0.23454866762619847

>  <r_i_glide_ligand_efficiency_ln>  (1) 
-1.8421985701202965

>  <r_i_glide_ligand_efficiency_sa>  (1) 
-0.77446263682687388

>  <r_i_glide_lipo>  (1) 
-5.0918322434295309

>  <r_i_glide_metal>  (1) 
-0

>  <r_i_glide_rewards>  (1) 
-0.96123810541973675

>  <r_lp_Energy>  (1) 
46.499781999999996

>  <s_epik_cmdline>  (1) 
J2VwaWtfcHl0aG9uJywgJy1waHQnLCAnMS4wJywgJy1waCcsICc3LjQnLCAnLXRuJywgJzgnLCAnLW1hJywgJzUwMCcsICctaW1hZScsICc8aW5maWxlLm1hZT4nLCAnLW9tYWUnLCAnPG91dGZpbGUubWFlPic=

>  <s_epik_input>  (1) 
W2NIXTFbY0hdW2NIXVtjSF1bY0hdYzFbQ0gyXU4oYzJbY0hdW2NIXVtjSF1bY0hdYzJGKVtDSDJdW0NIMl1bQ0BIXShbQ0gzXSlbQ0gyXVtOSF1TKD1PKSg9TylbTkhdUyg9TykoPU8pYzNjKENsKVtjSF1jKFtDSDNdKVtjSF1bY0hdMw==

>  <s_glide_docking_method>  (1) 
confgen

>  <s_i_glide_gridfile>  (1) 
gpcr_5ht2c_6bqh_protein_autoprepared_prepared

>  <s_lp_Force_Field>  (1) 
S-OPLS

>  <s_lp_Variant>  (1) 
DiffSBDD_10-1

>  <s_m_source_file>  (1) 
generated_GPCR_5HT2C_ligand_DiffSBDD_2026-06-23_prepared.sdf

>  <GenAI_Model>  (1) 
DiffSBDD

>  <Protein>  (1) 
GPCR_5HT2C

$$$$
DiffSBDD_26
     RDKit          3D

  0  0  0  0  0  0  0  0  0  0999 V3000
M  V30 BEGIN CTAB
M  V30 COUNTS 84 87 0 0 1
M  V30 BEGIN ATOM
M  V30 1 C 39.206067 33.679437 59.424121 0
M  V30 2 C 40.622757 29.761166 50.738416 0
M  V30 3 C 38.974371 29.847505 56.682483 0
M  V30 4 C 38.650701 25.909593 55.038057 0
M  V30 5 N 38.733071 29.943313 55.253394 0
M  V30 6 O 40.445156 26.739710 56.428799 0
M  V30 7 C 38.810955 28.813542 52.429248 0
M  V30 8 C 38.664559 28.139107 53.806344 0 CFG=2
M  V30 9 N 36.638627 33.535025 59.517117 0 CFG=1 CHG=1
M  V30 10 N 40.512749 34.291475 61.424633 0
M  V30 11 C 38.320655 31.024301 57.399993 0
M  V30 12 C 41.212057 36.051977 63.015983 0
M  V30 13 C 40.294478 31.236392 50.655861 0
M  V30 14 C 37.846570 33.568348 57.275632 0
M  V30 15 C 39.436627 26.049411 56.312722 0
M  V30 16 O 40.855223 32.040515 61.640339 0
M  V30 17 C 38.727804 32.395740 56.819600 0
M  V30 18 C 41.239407 33.200939 61.776850 0
M  V30 19 C 37.798444 24.531676 57.290814 0
M  V30 20 C 37.121035 24.415909 56.163700 0
M  V30 21 C 37.553904 25.118421 55.012489 0
M  V30 22 C 41.076968 35.633631 61.553574 0
M  V30 23 O 39.473801 28.838617 54.738455 0
M  V30 24 C 35.004810 31.737853 59.972858 0
M  V30 25 C 38.168510 33.326355 61.571003 0
M  V30 26 C 39.127407 26.668847 53.809402 0
M  V30 27 C 39.399269 31.138818 54.742441 0
M  V30 28 C 36.424586 32.212459 60.057540 0 CFG=2
M  V30 29 C 38.681720 32.363167 55.300611 0
M  V30 30 C 40.283102 29.109113 52.071808 0
M  V30 31 C 36.771531 33.349405 60.973468 0 CFG=2
M  V30 32 C 37.849678 33.945945 58.754232 0 CFG=2
M  V30 33 C 40.017254 28.942656 49.631073 0
M  V30 34 C 39.167907 34.197575 60.832684 0 CFG=2
M  V30 35 O 40.045137 36.537715 64.944149 0
M  V30 36 O 39.925303 36.360868 63.509628 0
M  V30 37 N 38.937653 25.332969 57.373381 0
M  V30 38 H 40.019842 34.137768 58.870756 0
M  V30 39 H 39.437320 32.620596 59.449176 0
M  V30 40 H 41.704830 29.737811 50.632199 0
M  V30 41 H 40.045557 29.822496 56.883734 0
M  V30 42 H 38.559248 28.910551 57.056261 0
M  V30 43 H 39.410402 25.379119 58.264257 0
M  V30 44 H 38.328735 28.185923 51.680524 0
M  V30 45 H 38.253790 29.737765 52.453005 0
M  V30 46 H 37.610078 28.157237 54.097114 0
M  V30 47 H 38.612449 30.936690 58.439807 0
M  V30 48 H 37.245105 30.899890 57.352505 0
M  V30 49 H 41.840757 36.937791 63.062942 0
M  V30 50 H 41.699972 35.285959 63.620067 0
M  V30 51 H 39.244703 31.426691 50.564561 0
M  V30 52 H 40.648849 31.737656 51.553710 0
M  V30 53 H 40.761129 31.677392 49.776259 0
M  V30 54 H 36.845148 33.373303 56.967814 0
M  V30 55 H 38.124923 34.455922 56.707586 0
M  V30 56 H 39.762348 32.599633 57.073577 0
M  V30 57 H 42.216189 33.492667 62.196093 0
M  V30 58 H 37.538467 24.028904 58.209451 0
M  V30 59 H 36.244223 23.786212 56.118708 0
M  V30 60 H 36.994646 25.018427 54.094269 0
M  V30 61 H 40.497526 36.383472 61.015458 0
M  V30 62 H 42.045554 35.646811 61.062848 0
M  V30 63 H 34.845299 31.085668 60.830834 0
M  V30 64 H 34.295673 32.567031 60.018121 0
M  V30 65 H 34.845568 31.185144 59.046173 0
M  V30 66 H 38.478067 32.285172 61.643408 0
M  V30 67 H 38.142499 33.685502 62.567735 0
M  V30 68 H 38.704216 26.173007 52.939224 0
M  V30 69 H 40.209338 26.578614 53.713489 0
M  V30 70 H 40.456838 31.141853 55.010214 0
M  V30 71 H 39.338671 31.186145 53.659110 0
M  V30 72 H 37.202495 31.492358 59.842782 0
M  V30 73 H 37.652742 32.389380 54.936035 0
M  V30 74 H 39.163989 33.276068 54.967719 0
M  V30 75 H 40.725818 29.737784 52.837470 0
M  V30 76 H 40.803477 28.155043 52.067343 0
M  V30 77 H 36.001502 33.934407 61.474747 0
M  V30 78 H 37.645182 35.017465 58.764712 0
M  V30 79 H 38.935932 28.936502 49.728659 0
M  V30 80 H 40.287333 29.335297 48.649661 0
M  V30 81 H 40.353239 27.915490 49.767773 0
M  V30 82 H 38.742508 35.201446 60.819732 0
M  V30 83 H 40.538039 37.353449 64.979893 0
M  V30 84 H 35.770936 33.963900 59.226674 0
M  V30 END ATOM
M  V30 BEGIN BOND
M  V30 1 1 5 3
M  V30 2 1 8 7
M  V30 3 1 11 3
M  V30 4 1 13 2
M  V30 5 1 15 4
M  V30 6 2 15 6
M  V30 7 1 17 11
M  V30 8 1 17 14
M  V30 9 1 18 10
M  V30 10 2 18 16
M  V30 11 2 20 19
M  V30 12 2 21 4
M  V30 13 1 21 20
M  V30 14 1 22 10
M  V30 15 1 22 12
M  V30 16 1 23 5
M  V30 17 1 23 8
M  V30 18 1 26 4
M  V30 19 1 26 8
M  V30 20 1 27 5
M  V30 21 1 28 9
M  V30 22 1 28 24
M  V30 23 1 29 17
M  V30 24 1 29 27
M  V30 25 1 30 2
M  V30 26 1 30 7
M  V30 27 1 31 9
M  V30 28 1 31 25
M  V30 29 1 31 28
M  V30 30 1 32 1
M  V30 31 1 32 9
M  V30 32 1 32 14
M  V30 33 1 33 2
M  V30 34 1 34 1
M  V30 35 1 34 10
M  V30 36 1 34 25
M  V30 37 1 36 12
M  V30 38 1 36 35
M  V30 39 1 37 15
M  V30 40 1 37 19
M  V30 41 1 38 1
M  V30 42 1 39 1
M  V30 43 1 40 2
M  V30 44 1 41 3
M  V30 45 1 42 3
M  V30 46 1 43 37
M  V30 47 1 44 7
M  V30 48 1 45 7
M  V30 49 1 8 46 CFG=1
M  V30 50 1 47 11
M  V30 51 1 48 11
M  V30 52 1 49 12
M  V30 53 1 50 12
M  V30 54 1 51 13
M  V30 55 1 52 13
M  V30 56 1 53 13
M  V30 57 1 54 14
M  V30 58 1 55 14
M  V30 59 1 56 17
M  V30 60 1 57 18
M  V30 61 1 58 19
M  V30 62 1 59 20
M  V30 63 1 60 21
M  V30 64 1 61 22
M  V30 65 1 62 22
M  V30 66 1 63 24
M  V30 67 1 64 24
M  V30 68 1 65 24
M  V30 69 1 66 25
M  V30 70 1 67 25
M  V30 71 1 68 26
M  V30 72 1 69 26
M  V30 73 1 70 27
M  V30 74 1 71 27
M  V30 75 1 28 72 CFG=3
M  V30 76 1 73 29
M  V30 77 1 74 29
M  V30 78 1 75 30
M  V30 79 1 76 30
M  V30 80 1 31 77 CFG=1
M  V30 81 1 32 78 CFG=3
M  V30 82 1 79 33
M  V30 83 1 80 33
M  V30 84 1 81 33
M  V30 85 1 34 82 CFG=3
M  V30 86 1 83 35
M  V30 87 1 9 84 CFG=1
M  V30 END BOND
M  V30 END CTAB
M  END
>  <i_epik_Tot_Q>  (1) 
1

>  <i_epik_Tot_abs_Q>  (1) 
1

>  <i_i_glide_confnum>  (1) 
177

>  <i_i_glide_lignum>  (1) 
56

>  <i_i_glide_posenum>  (1) 
219

>  <i_i_glide_rotatable_bonds>  (1) 
15

>  <i_lp_mmshare_version>  (1) 
72125

>  <i_m_source_file_index>  (1) 
27

>  <i_f3d_flags>  (1) 
0

>  <num_sample>  (1) 
50

>  <b_lp_Chiralities_Consistent>  (1) 
1

>  <r_epik_Charging_Adjusted_Penalty>  (1) 
0.02425622639956965

>  <r_epik_Ionization_Penalty>  (1) 
0.033094864685368548

>  <r_epik_Ionization_Penalty_Charging>  (1) 
0.02425622639956965

>  <r_epik_Ionization_Penalty_Neutral>  (1) 
0.0088386382857988978

>  <r_epik_State_Penalty>  (1) 
-0

>  <r_glide_ring_energy>  (1) 
0

>  <r_i_docking_score>  (1) 
-8.4275639244736116

>  <r_i_glide_ecoul>  (1) 
-5.6970383886709381

>  <r_i_glide_eff_state_penalty>  (1) 
-0

>  <r_i_glide_einternal>  (1) 
11.141195343946332

>  <r_i_glide_emodel>  (1) 
-70.587563452472025

>  <r_i_glide_emodel_strain>  (1) 
0.79924752031814705

>  <r_i_glide_energy>  (1) 
-47.135156284953972

>  <r_i_glide_erotb>  (1) 
0.83677420797818713

>  <r_i_glide_esite>  (1) 
-0.078096131468090871

>  <r_i_glide_evdw>  (1) 
-41.438117896283032

>  <r_i_glide_gscore>  (1) 
-8.4275639244736116

>  <r_i_glide_gscore_strain>  (1) 
0

>  <r_i_glide_hbond>  (1) 
-0.32000000000000001

>  <r_i_glide_ligand_efficiency>  (1) 
-0.22777199795874625

>  <r_i_glide_ligand_efficiency_ln>  (1) 
-1.8277410450884941

>  <r_i_glide_ligand_efficiency_sa>  (1) 
-0.75898682879119184

>  <r_i_glide_lipo>  (1) 
-4.3834306385999255

>  <r_i_glide_metal>  (1) 
-0

>  <r_i_glide_rewards>  (1) 
-1.5563497092689897

>  <r_lp_Energy>  (1) 
52.890431999999997

>  <r_lp_tautomer_probability>  (1) 
1

>  <s_epik_Chemistry_Notes>  (1) 
This compound has a N-S or N-O group and may undergo hydrolysis at high or low pH.

>  <s_epik_cmdline>  (1) 
J2VwaWtfcHl0aG9uJywgJy1waHQnLCAnMS4wJywgJy1waCcsICc3LjQnLCAnLXRuJywgJzgnLCAnLW1hJywgJzUwMCcsICctaW1hZScsICc8aW5maWxlLm1hZT4nLCAnLW9tYWUnLCAnPG91dGZpbGUubWFlPic=

>  <s_epik_input>  (1) 
W09IXU9bQ0gyXVtDSDJdTihbQ0hdPU8pW0NASF0oW0NIMl1bQ0BASF0oTjEyKVtDQEhdMVtDSDNdKVtDSDJdW0NASF0yW0NIMl1bQ0hdKFtDSDJdW0NIMl0zKVtDSDJdW0NIMl1OM09bQ0BASF0oW0NIMl1bQ0gyXVtDSF0oW0NIM10pW0NIM10pW0NIMl1bQ0BASF00Qyg9TylOPVtDSF1bQ0hdPVtDSF00

>  <s_glide_docking_method>  (1) 
confgen

>  <s_i_glide_gridfile>  (1) 
gpcr_5ht2c_6bqh_protein_autoprepared_prepared

>  <s_lp_Force_Field>  (1) 
S-OPLS

>  <s_lp_Variant>  (1) 
DiffSBDD_26-1

>  <s_m_source_file>  (1) 
generated_GPCR_5HT2C_ligand_DiffSBDD_2026-06-23_prepared.sdf

>  <GenAI_Model>  (1) 
DiffSBDD

>  <Protein>  (1) 
GPCR_5HT2C

$$$$
DiffSBDD_41
     RDKit          3D

  0  0  0  0  0  0  0  0  0  0999 V3000
M  V30 BEGIN CTAB
M  V30 COUNTS 71 75 0 0 1
M  V30 BEGIN ATOM
M  V30 1 C 37.690531 26.217626 57.394784 0
M  V30 2 O 38.244405 32.701670 59.270138 0
M  V30 3 C 38.364019 31.278860 59.096112 0 CFG=1
M  V30 4 C 39.645156 32.554239 56.567754 0
M  V30 5 C 39.073991 25.595182 57.160724 0
M  V30 6 C 37.645148 28.757565 55.475779 0
M  V30 7 C 40.018588 28.359889 50.813859 0
M  V30 8 C 39.418852 27.328287 51.544879 0
M  V30 9 C 37.774043 35.265855 60.493675 0
M  V30 10 C 39.245116 31.168378 53.293952 0
M  V30 11 C 37.429439 30.597350 60.109674 0
M  V30 12 C 38.897161 36.264997 62.138970 0
M  V30 13 N 37.874426 36.332080 61.274319 0
M  V30 14 C 38.037631 30.756427 57.658634 0 CFG=1
M  V30 15 C 38.554974 28.542208 56.725693 0
M  V30 16 C 38.844070 34.386722 60.887374 0
M  V30 17 O 37.645124 38.600114 60.567783 0
M  V30 18 O 36.928261 35.094117 59.614989 0
M  V30 19 C 39.922321 27.871238 56.411988 0
M  V30 20 C 39.838566 26.370195 56.082606 0
M  V30 21 N 38.289348 32.008921 56.678887 0 CFG=2 CHG=1
M  V30 22 O 39.194662 37.142470 62.948141 0
M  V30 23 O 38.980584 29.790869 57.294326 0
M  V30 24 C 38.845091 27.599507 52.785761 0
M  V30 25 C 37.770502 31.790099 55.324999 0
M  V30 26 C 36.991140 37.501640 61.175113 0
M  V30 27 C 38.845149 28.912400 53.276560 0
M  V30 28 C 39.036765 33.185259 60.292772 0
M  V30 29 C 40.049910 29.669184 51.325064 0
M  V30 30 C 41.176630 35.171885 61.658209 0
M  V30 31 N 38.309738 29.471978 54.428533 0
M  V30 32 C 39.703219 34.941685 62.024743 0 CFG=1
M  V30 33 C 37.823535 27.701554 57.795636 0
M  V30 34 C 38.461685 30.861826 54.364280 0
M  V30 35 C 39.445481 29.977668 52.567745 0
M  V30 36 H 37.169085 25.658650 58.167778 0
M  V30 37 H 37.076803 26.109521 56.500934 0
M  V30 38 H 39.375718 30.937591 59.308978 0
M  V30 39 H 40.335636 31.812563 56.167878 0
M  V30 40 H 39.645279 33.390172 55.869882 0
M  V30 41 H 39.992304 32.949046 57.513503 0
M  V30 42 H 39.643031 25.601364 58.091946 0
M  V30 43 H 38.975137 24.549205 56.867720 0
M  V30 44 H 37.284305 27.814251 55.069468 0
M  V30 45 H 36.773136 29.337763 55.732481 0
M  V30 46 H 40.445134 28.150340 49.849816 0
M  V30 47 H 39.396887 26.325861 51.145285 0
M  V30 48 H 39.553671 32.137745 52.985112 0
M  V30 49 H 37.492098 29.512508 60.037245 0
M  V30 50 H 37.692949 30.865840 61.132836 0
M  V30 51 H 36.391735 30.890082 59.946705 0
M  V30 52 H 36.999085 30.433316 57.581965 0
M  V30 53 H 36.983222 39.156368 60.170569 0
M  V30 54 H 40.442429 28.400841 55.613963 0
M  V30 55 H 40.566920 27.976695 57.286138 0
M  V30 56 H 40.844806 25.965361 55.973713 0
M  V30 57 H 39.351041 26.217261 55.125602 0
M  V30 58 H 38.370802 26.808892 53.343303 0
M  V30 59 H 37.679394 32.769619 54.853068 0
M  V30 60 H 36.752795 31.441381 55.367752 0
M  V30 61 H 36.649100 37.800307 62.168004 0
M  V30 62 H 36.092359 37.283387 60.595876 0
M  V30 63 H 39.827342 32.501866 60.568003 0
M  V30 64 H 40.507821 30.456435 50.744819 0
M  V30 65 H 41.281936 35.834094 60.797679 0
M  V30 66 H 41.712170 35.627267 62.492194 0
M  V30 67 H 41.666903 34.229386 61.418324 0
M  V30 68 H 39.588762 34.339555 62.926839 0
M  V30 69 H 38.382877 27.751368 58.730517 0
M  V30 70 H 36.841006 28.124973 58.002727 0
M  V30 71 H 37.712419 32.758435 57.040006 0
M  V30 END ATOM
M  V30 BEGIN BOND
M  V30 1 1 3 2
M  V30 2 1 5 1
M  V30 3 2 8 7
M  V30 4 1 11 3
M  V30 5 1 13 9
M  V30 6 1 13 12
M  V30 7 1 14 3
M  V30 8 1 15 6
M  V30 9 1 16 9
M  V30 10 2 18 9
M  V30 11 1 19 15
M  V30 12 1 20 5
M  V30 13 1 20 19
M  V30 14 1 21 4
M  V30 15 1 21 14
M  V30 16 2 22 12
M  V30 17 1 23 14
M  V30 18 1 23 15
M  V30 19 1 24 8
M  V30 20 1 25 21
M  V30 21 1 26 13
M  V30 22 1 26 17
M  V30 23 2 27 24
M  V30 24 1 28 2
M  V30 25 2 28 16
M  V30 26 1 29 7
M  V30 27 1 31 6
M  V30 28 1 31 27
M  V30 29 1 32 12
M  V30 30 1 32 16
M  V30 31 1 32 30
M  V30 32 1 33 1
M  V30 33 1 33 15
M  V30 34 2 34 10
M  V30 35 1 34 25
M  V30 36 1 34 31
M  V30 37 1 35 10
M  V30 38 1 35 27
M  V30 39 2 35 29
M  V30 40 1 36 1
M  V30 41 1 37 1
M  V30 42 1 3 38 CFG=1
M  V30 43 1 39 4
M  V30 44 1 40 4
M  V30 45 1 41 4
M  V30 46 1 42 5
M  V30 47 1 43 5
M  V30 48 1 44 6
M  V30 49 1 45 6
M  V30 50 1 46 7
M  V30 51 1 47 8
M  V30 52 1 48 10
M  V30 53 1 49 11
M  V30 54 1 50 11
M  V30 55 1 51 11
M  V30 56 1 14 52 CFG=1
M  V30 57 1 53 17
M  V30 58 1 54 19
M  V30 59 1 55 19
M  V30 60 1 56 20
M  V30 61 1 57 20
M  V30 62 1 58 24
M  V30 63 1 59 25
M  V30 64 1 60 25
M  V30 65 1 61 26
M  V30 66 1 62 26
M  V30 67 1 63 28
M  V30 68 1 64 29
M  V30 69 1 65 30
M  V30 70 1 66 30
M  V30 71 1 67 30
M  V30 72 1 32 68 CFG=1
M  V30 73 1 69 33
M  V30 74 1 70 33
M  V30 75 1 21 71 CFG=1
M  V30 END BOND
M  V30 END CTAB
M  END
>  <i_epik_Tot_Q>  (1) 
1

>  <i_epik_Tot_abs_Q>  (1) 
1

>  <i_i_glide_confnum>  (1) 
1

>  <i_i_glide_lignum>  (1) 
92

>  <i_i_glide_posenum>  (1) 
270

>  <i_i_glide_rotatable_bonds>  (1) 
5

>  <i_lp_mmshare_version>  (1) 
72125

>  <i_m_source_file_index>  (1) 
42

>  <i_f3d_flags>  (1) 
0

>  <num_sample>  (1) 
50

>  <b_lp_Chiralities_Consistent>  (1) 
1

>  <r_epik_Charging_Adjusted_Penalty>  (1) 
1.62722492853585

>  <r_epik_Ionization_Penalty>  (1) 
0.81369786534067623

>  <r_epik_Ionization_Penalty_Charging>  (1) 
0.81361246426792511

>  <r_epik_Ionization_Penalty_Neutral>  (1) 
8.5401072751167088e-05

>  <r_epik_State_Penalty>  (1) 
0.813612464267925

>  <r_glide_ring_energy>  (1) 
1.1849222099610348

>  <r_i_docking_score>  (1) 
-8.4137741299197231

>  <r_i_glide_ecoul>  (1) 
-5.1518345447265936

>  <r_i_glide_eff_state_penalty>  (1) 
0.813612464267925

>  <r_i_glide_einternal>  (1) 
7.1324178762870449

>  <r_i_glide_emodel>  (1) 
-51.712796696827844

>  <r_i_glide_emodel_strain>  (1) 
1.4278956954328521

>  <r_i_glide_energy>  (1) 
-44.230175649097447

>  <r_i_glide_erotb>  (1) 
0.34854586591334119

>  <r_i_glide_esite>  (1) 
-0.19042224118719153

>  <r_i_glide_evdw>  (1) 
-39.07834110437085

>  <r_i_glide_gscore>  (1) 
-9.2273865941876476

>  <r_i_glide_gscore_strain>  (1) 
0

>  <r_i_glide_hbond>  (1) 
-0.32000000000000001

>  <r_i_glide_ligand_efficiency>  (1) 
-0.24039354656913495

>  <r_i_glide_ligand_efficiency_ln>  (1) 
-1.8470101551732496

>  <r_i_glide_ligand_efficiency_sa>  (1) 
-0.78634323136904927

>  <r_i_glide_lipo>  (1) 
-4.2706733324435504

>  <r_i_glide_metal>  (1) 
-0

>  <r_i_glide_rewards>  (1) 
-2.0681446495427158

>  <r_lp_Energy>  (1) 
38.539870000000001

>  <s_epik_Chemistry_Notes>  (1) 
This compound contains an acetal/aminal-like group ( X-CH(R)-Y where X, Y are N, S, or O) that may be acid/base labile, releasing an aldehyde.

>  <s_epik_cmdline>  (1) 
J2VwaWtfcHl0aG9uJywgJy1waHQnLCAnMS4wJywgJy1waCcsICc3LjQnLCAnLXRuJywgJzgnLCAnLW1hJywgJzUwMCcsICctaW1hZScsICc8aW5maWxlLm1hZT4nLCAnLW9tYWUnLCAnPG91dGZpbGUubWFlPic=

>  <s_epik_input>  (1) 
W0NIMl0xW0NIMl1bQ0gyXVtDSDJdW0NIMl1DMTJbQ0gyXW4zYzRjKFtjSF1bY0hdW2NIXVtjSF00KVtjSF1jM1tDSDJdTihbQ0gzXSlbQ0BASF0oTzIpW0NASF0oW0NIM10pTy9bQ0hdPUNcNVtDQEBIXShbQ0gzXSlDKD1PKU4oQzU9TylbQ0gyXVtPSF0=

>  <s_glide_docking_method>  (1) 
confgen

>  <s_i_glide_gridfile>  (1) 
gpcr_5ht2c_6bqh_protein_autoprepared_prepared

>  <s_lp_Force_Field>  (1) 
S-OPLS

>  <s_lp_Variant>  (1) 
DiffSBDD_41-6

>  <s_m_source_file>  (1) 
generated_GPCR_5HT2C_ligand_DiffSBDD_2026-06-23_prepared.sdf

>  <GenAI_Model>  (1) 
DiffSBDD

>  <Protein>  (1) 
GPCR_5HT2C

$$$$
DiffSBDD_10
     RDKit          3D

  0  0  0  0  0  0  0  0  0  0999 V3000
M  V30 BEGIN CTAB
M  V30 COUNTS 64 66 0 0 1
M  V30 BEGIN ATOM
M  V30 1 C 38.267353 27.132646 56.678028 0
M  V30 2 C 37.644830 25.629603 54.861824 0
M  V30 3 C 37.877847 31.138173 55.123382 0
M  V30 4 C 39.416656 28.218655 50.533608 0
M  V30 5 C 38.480492 35.176345 61.767442 0
M  V30 6 C 40.276922 30.439517 50.998532 0
M  V30 7 C 38.223128 24.726606 57.052779 0
M  V30 8 O 38.045097 28.952985 59.767754 0
M  V30 9 F 38.429124 26.937759 52.249054 0
M  V30 10 S 39.633226 31.230308 61.714333 0
M  V30 11 C 39.726024 37.344405 62.171555 0
M  V30 12 C 39.642558 33.032333 61.856958 0
M  V30 13 C 39.694163 35.837110 62.059631 0
M  V30 14 C 38.987330 31.856470 57.309397 0
M  V30 15 C 38.447783 26.029039 57.532162 0
M  V30 16 S 39.060169 29.888833 59.276045 0
M  V30 17 C 38.153137 32.286694 56.107914 0 CFG=1
M  V30 18 O 38.554486 30.733129 62.577366 0
M  V30 19 O 40.313294 29.337756 58.737412 0
M  V30 20 C 39.006226 28.082100 51.860469 0
M  V30 21 C 38.446188 33.771822 61.666135 0
M  V30 22 N 38.794539 29.000700 54.148972 0
M  V30 23 C 38.690761 33.490574 55.378379 0
M  V30 24 C 37.820567 24.528656 55.717484 0
M  V30 25 C 40.878829 35.092871 62.248722 0
M  V30 26 C 40.045147 29.393722 50.099056 0
M  V30 27 C 40.854241 33.687788 62.147007 0
M  V30 28 C 37.865881 26.934289 55.338443 0
M  V30 29 C 39.046028 30.128417 55.029311 0
M  V30 30 C 39.216070 29.135597 52.787526 0
M  V30 31 C 37.639634 28.127341 54.421460 0
M  V30 32 N 38.303724 30.752534 58.000296 0
M  V30 33 Cl 36.945021 32.976574 61.316830 0
M  V30 34 O 41.009920 30.765037 61.959932 0
M  V30 35 C 39.869470 30.321339 52.338587 0
M  V30 36 N 39.245134 31.202985 60.167768 0 CHG=-1
M  V30 37 H 38.426904 28.128063 57.053167 0
M  V30 38 H 37.328692 25.472685 53.840832 0
M  V30 39 H 37.629704 31.525461 54.135476 0
M  V30 40 H 36.971789 30.653063 55.478683 0
M  V30 41 H 39.245144 27.413270 49.839307 0
M  V30 42 H 37.574560 35.746740 61.625027 0
M  V30 43 H 40.765951 31.337823 50.660370 0
M  V30 44 H 38.356894 23.878506 57.708493 0
M  V30 45 H 40.027662 37.646210 63.175191 0
M  V30 46 H 40.445161 37.744984 61.461424 0
M  V30 47 H 38.749519 37.779309 61.957935 0
M  V30 48 H 39.971733 31.538886 56.967777 0
M  V30 49 H 39.125798 32.697638 57.989268 0
M  V30 50 H 38.752464 26.184081 58.556659 0
M  V30 51 H 37.245138 32.659509 56.534057 0
M  V30 52 H 39.645136 33.219491 54.967766 0
M  V30 53 H 38.015360 33.768542 54.570477 0
M  V30 54 H 38.795349 34.347889 56.035168 0
M  V30 55 H 37.645270 23.528883 55.350068 0
M  V30 56 H 41.805184 35.601877 62.471889 0
M  V30 57 H 40.354937 29.489862 49.069389 0
M  V30 58 H 41.761055 33.117852 62.288766 0
M  V30 59 H 39.209626 29.664197 55.992796 0
M  V30 60 H 40.007114 30.608374 54.864488 0
M  V30 61 H 37.043747 27.868734 53.549189 0
M  V30 62 H 36.914371 28.718517 54.966498 0
M  V30 63 H 37.315312 30.941082 58.178925 0
M  V30 64 H 40.047712 31.143103 53.008134 0
M  V30 END ATOM
M  V30 BEGIN BOND
M  V30 1 1 12 10
M  V30 2 2 13 5
M  V30 3 1 13 11
M  V30 4 1 15 1
M  V30 5 2 15 7
M  V30 6 2 16 8
M  V30 7 1 17 3
M  V30 8 1 17 14
M  V30 9 2 18 10
M  V30 10 2 19 16
M  V30 11 2 20 4
M  V30 12 1 20 9
M  V30 13 1 21 5
M  V30 14 2 21 12
M  V30 15 1 23 17
M  V30 16 2 24 2
M  V30 17 1 24 7
M  V30 18 1 25 13
M  V30 19 1 26 4
M  V30 20 2 26 6
M  V30 21 1 27 12
M  V30 22 2 27 25
M  V30 23 2 28 1
M  V30 24 1 28 2
M  V30 25 1 29 3
M  V30 26 1 29 22
M  V30 27 1 30 20
M  V30 28 1 30 22
M  V30 29 1 31 22
M  V30 30 1 31 28
M  V30 31 1 32 14
M  V30 32 1 32 16
M  V30 33 1 33 21
M  V30 34 2 34 10
M  V30 35 1 35 6
M  V30 36 2 35 30
M  V30 37 1 36 10
M  V30 38 1 36 16
M  V30 39 1 37 1
M  V30 40 1 38 2
M  V30 41 1 39 3
M  V30 42 1 40 3
M  V30 43 1 41 4
M  V30 44 1 42 5
M  V30 45 1 43 6
M  V30 46 1 44 7
M  V30 47 1 45 11
M  V30 48 1 46 11
M  V30 49 1 47 11
M  V30 50 1 48 14
M  V30 51 1 49 14
M  V30 52 1 50 15
M  V30 53 1 17 51 CFG=1
M  V30 54 1 52 23
M  V30 55 1 53 23
M  V30 56 1 54 23
M  V30 57 1 55 24
M  V30 58 1 56 25
M  V30 59 1 57 26
M  V30 60 1 58 27
M  V30 61 1 59 29
M  V30 62 1 60 29
M  V30 63 1 61 31
M  V30 64 1 62 31
M  V30 65 1 63 32
M  V30 66 1 64 35
M  V30 END BOND
M  V30 END CTAB
M  END
>  <i_epik_Tot_Q>  (1) 
-1

>  <i_epik_Tot_abs_Q>  (1) 
1

>  <i_i_glide_confnum>  (1) 
6271

>  <i_i_glide_lignum>  (1) 
21

>  <i_i_glide_posenum>  (1) 
150

>  <i_i_glide_rotatable_bonds>  (1) 
12

>  <i_lp_mmshare_version>  (1) 
72125

>  <i_m_source_file_index>  (1) 
11

>  <i_f3d_flags>  (1) 
0

>  <num_sample>  (1) 
50

>  <b_lp_Chiralities_Consistent>  (1) 
1

>  <r_epik_Charging_Adjusted_Penalty>  (1) 
1.043230994850219

>  <r_epik_Ionization_Penalty>  (1) 
0.22830841385829601

>  <r_epik_Ionization_Penalty_Charging>  (1) 
0.22543841040968138

>  <r_epik_Ionization_Penalty_Neutral>  (1) 
0.0028700034486146327

>  <r_epik_State_Penalty>  (1) 
0.81779258444053771

>  <r_glide_ring_energy>  (1) 
0

>  <r_i_docking_score>  (1) 
-8.3992995942917101

>  <r_i_glide_ecoul>  (1) 
-5.0980509799078559

>  <r_i_glide_eff_state_penalty>  (1) 
0.81779258444053771

>  <r_i_glide_einternal>  (1) 
10.212547162275133

>  <r_i_glide_emodel>  (1) 
-80.783701464925826

>  <r_i_glide_emodel_strain>  (1) 
0.9950479536272141

>  <r_i_glide_energy>  (1) 
-56.07613824013967

>  <r_i_glide_erotb>  (1) 
0.74186158489162179

>  <r_i_glide_esite>  (1) 
-0.095315498988707337

>  <r_i_glide_evdw>  (1) 
-50.978087260231817

>  <r_i_glide_gscore>  (1) 
-9.2170921787322477

>  <r_i_glide_gscore_strain>  (1) 
0

>  <r_i_glide_hbond>  (1) 
0

>  <r_i_glide_ligand_efficiency>  (1) 
-0.23331387761921418

>  <r_i_glide_ligand_efficiency_ln>  (1) 
-1.8325002486235802

>  <r_i_glide_ligand_efficiency_sa>  (1) 
-0.77038545005614956

>  <r_i_glide_lipo>  (1) 
-5.4767399846487512

>  <r_i_glide_metal>  (1) 
-0

>  <r_i_glide_rewards>  (1) 
-1.0732862699886425

>  <r_lp_Energy>  (1) 
36.709097

>  <s_epik_cmdline>  (1) 
J2VwaWtfcHl0aG9uJywgJy1waHQnLCAnMS4wJywgJy1waCcsICc3LjQnLCAnLXRuJywgJzgnLCAnLW1hJywgJzUwMCcsICctaW1hZScsICc8aW5maWxlLm1hZT4nLCAnLW9tYWUnLCAnPG91dGZpbGUubWFlPic=

>  <s_epik_input>  (1) 
W2NIXTFbY0hdW2NIXVtjSF1bY0hdYzFbQ0gyXU4oYzJbY0hdW2NIXVtjSF1bY0hdYzJGKVtDSDJdW0NIMl1bQ0BIXShbQ0gzXSlbQ0gyXVtOSF1TKD1PKSg9TylbTkhdUyg9TykoPU8pYzNjKENsKVtjSF1jKFtDSDNdKVtjSF1bY0hdMw==

>  <s_glide_docking_method>  (1) 
confgen

>  <s_i_glide_gridfile>  (1) 
gpcr_5ht2c_6bqh_protein_autoprepared_prepared

>  <s_lp_Force_Field>  (1) 
S-OPLS

>  <s_lp_Variant>  (1) 
DiffSBDD_10-2

>  <s_m_source_file>  (1) 
generated_GPCR_5HT2C_ligand_DiffSBDD_2026-06-23_prepared.sdf

>  <GenAI_Model>  (1) 
DiffSBDD

>  <Protein>  (1) 
GPCR_5HT2C

$$$$
DiffSBDD_26
     RDKit          3D

  0  0  0  0  0  0  0  0  0  0999 V3000
M  V30 BEGIN CTAB
M  V30 COUNTS 84 87 0 0 1
M  V30 BEGIN ATOM
M  V30 1 C 39.248133 33.536997 59.471968 0
M  V30 2 C 40.002963 29.988344 50.652278 0
M  V30 3 C 39.031435 29.773166 56.571885 0
M  V30 4 C 38.891773 25.900343 55.068386 0
M  V30 5 N 38.826078 29.903709 55.149077 0
M  V30 6 O 36.845143 24.937774 54.225669 0
M  V30 7 C 38.655111 28.729719 52.430317 0
M  V30 8 C 38.704604 28.055544 53.801679 0 CFG=2
M  V30 9 N 36.760541 32.995067 59.497389 0 CFG=1 CHG=1
M  V30 10 N 40.476757 34.046746 61.548490 0
M  V30 11 C 38.325695 30.918739 57.264235 0
M  V30 12 C 40.876995 35.780648 63.307937 0
M  V30 13 C 39.682366 29.112980 49.471416 0
M  V30 14 C 37.872105 33.456580 57.296004 0
M  V30 15 C 37.632465 25.085255 55.152956 0
M  V30 16 O 42.315084 32.937678 62.310197 0
M  V30 17 C 38.747963 32.307218 56.768030 0
M  V30 18 C 41.196334 32.929986 61.808051 0
M  V30 19 C 38.281471 24.621942 57.449633 0
M  V30 20 C 39.391146 25.333368 57.360267 0
M  V30 21 C 39.703767 25.988785 56.144832 0
M  V30 22 C 41.009567 35.389034 61.828859 0
M  V30 23 O 39.567701 28.801382 54.640426 0
M  V30 24 C 35.645150 30.818494 59.620298 0
M  V30 25 C 38.174784 33.043620 61.636193 0
M  V30 26 C 39.201310 26.611103 53.759694 0
M  V30 27 C 39.487104 31.118608 54.670260 0
M  V30 28 C 36.845511 31.633643 60.001638 0 CFG=2
M  V30 29 C 38.752112 32.330067 55.250259 0
M  V30 30 C 40.044998 29.139280 51.914464 0
M  V30 31 C 36.836000 32.796379 60.948597 0 CFG=2
M  V30 32 C 37.876933 33.695558 58.807479 0 CFG=2
M  V30 33 C 41.316425 30.719740 50.438934 0
M  V30 34 C 39.150422 33.974408 60.914931 0 CFG=2
M  V30 35 O 41.823526 35.737741 65.420196 0
M  V30 36 O 42.007341 35.337185 64.034809 0
M  V30 37 N 37.411857 24.497748 56.371225 0
M  V30 38 H 39.999212 34.137718 58.964771 0
M  V30 39 H 39.593907 32.510992 59.426045 0
M  V30 40 H 39.245158 30.758784 50.743647 0
M  V30 41 H 40.093140 29.766915 56.809749 0
M  V30 42 H 38.624444 28.820445 56.911492 0
M  V30 43 H 36.583789 23.936258 56.504769 0
M  V30 44 H 38.134817 28.088047 51.719516 0
M  V30 45 H 38.045246 29.620170 52.550266 0
M  V30 46 H 37.688429 28.028969 54.204629 0
M  V30 47 H 38.624041 30.800794 58.287975 0
M  V30 48 H 37.251602 30.785849 57.168852 0
M  V30 49 H 39.955894 35.383935 63.735759 0
M  V30 50 H 40.822922 36.868613 63.375287 0
M  V30 51 H 40.445135 28.371836 49.367762 0
M  V30 52 H 38.775033 28.537752 49.620089 0
M  V30 53 H 39.645127 29.695136 48.555591 0
M  V30 54 H 36.845211 33.337794 56.967825 0
M  V30 55 H 38.202229 34.372363 56.807730 0
M  V30 56 H 39.777718 32.484190 57.058225 0
M  V30 57 H 40.653532 32.022997 61.505791 0
M  V30 58 H 37.967158 24.093055 58.336272 0
M  V30 59 H 40.055277 25.416039 58.208551 0
M  V30 60 H 40.607758 26.577761 56.079559 0
M  V30 61 H 40.485763 36.128299 61.221936 0
M  V30 62 H 42.045083 35.470704 61.502638 0
M  V30 63 H 35.645177 29.884868 60.167750 0
M  V30 64 H 34.732254 31.375571 59.818729 0
M  V30 65 H 35.660684 30.537754 58.569799 0
M  V30 66 H 38.602993 32.072511 61.880454 0
M  V30 67 H 38.011512 33.507592 62.567755 0
M  V30 68 H 38.685152 26.137781 52.933378 0
M  V30 69 H 40.267665 26.544687 53.541233 0
M  V30 70 H 40.544377 31.125017 54.940290 0
M  V30 71 H 39.420819 31.194933 53.588626 0
M  V30 72 H 37.795364 31.121413 60.018977 0
M  V30 73 H 37.731517 32.360533 54.864672 0
M  V30 74 H 39.242077 33.256939 54.967701 0
M  V30 75 H 40.552604 29.737760 52.662487 0
M  V30 76 H 40.667278 28.256787 51.764384 0
M  V30 77 H 35.912305 33.099507 61.438467 0
M  V30 78 H 37.595439 34.744086 58.918217 0
M  V30 79 H 42.161564 30.053501 50.354043 0
M  V30 80 H 41.284438 31.337769 49.543293 0
M  V30 81 H 41.509152 31.337745 51.305887 0
M  V30 82 H 38.704201 34.970234 60.937323 0
M  V30 83 H 42.055389 36.661856 65.368602 0
M  V30 84 H 35.835220 33.185353 59.135802 0
M  V30 END ATOM
M  V30 BEGIN BOND
M  V30 1 1 5 3
M  V30 2 1 8 7
M  V30 3 1 11 3
M  V30 4 1 13 2
M  V30 5 1 15 4
M  V30 6 2 15 6
M  V30 7 1 17 11
M  V30 8 1 17 14
M  V30 9 1 18 10
M  V30 10 2 18 16
M  V30 11 2 20 19
M  V30 12 2 21 4
M  V30 13 1 21 20
M  V30 14 1 22 10
M  V30 15 1 22 12
M  V30 16 1 23 5
M  V30 17 1 23 8
M  V30 18 1 26 4
M  V30 19 1 26 8
M  V30 20 1 27 5
M  V30 21 1 28 9
M  V30 22 1 28 24
M  V30 23 1 29 17
M  V30 24 1 29 27
M  V30 25 1 30 2
M  V30 26 1 30 7
M  V30 27 1 31 9
M  V30 28 1 31 25
M  V30 29 1 31 28
M  V30 30 1 32 1
M  V30 31 1 32 9
M  V30 32 1 32 14
M  V30 33 1 33 2
M  V30 34 1 34 1
M  V30 35 1 34 10
M  V30 36 1 34 25
M  V30 37 1 36 12
M  V30 38 1 36 35
M  V30 39 1 37 15
M  V30 40 1 37 19
M  V30 41 1 38 1
M  V30 42 1 39 1
M  V30 43 1 40 2
M  V30 44 1 41 3
M  V30 45 1 42 3
M  V30 46 1 43 37
M  V30 47 1 44 7
M  V30 48 1 45 7
M  V30 49 1 8 46 CFG=1
M  V30 50 1 47 11
M  V30 51 1 48 11
M  V30 52 1 49 12
M  V30 53 1 50 12
M  V30 54 1 51 13
M  V30 55 1 52 13
M  V30 56 1 53 13
M  V30 57 1 54 14
M  V30 58 1 55 14
M  V30 59 1 56 17
M  V30 60 1 57 18
M  V30 61 1 58 19
M  V30 62 1 59 20
M  V30 63 1 60 21
M  V30 64 1 61 22
M  V30 65 1 62 22
M  V30 66 1 63 24
M  V30 67 1 64 24
M  V30 68 1 65 24
M  V30 69 1 66 25
M  V30 70 1 67 25
M  V30 71 1 68 26
M  V30 72 1 69 26
M  V30 73 1 70 27
M  V30 74 1 71 27
M  V30 75 1 28 72 CFG=3
M  V30 76 1 73 29
M  V30 77 1 74 29
M  V30 78 1 75 30
M  V30 79 1 76 30
M  V30 80 1 31 77 CFG=1
M  V30 81 1 32 78 CFG=3
M  V30 82 1 79 33
M  V30 83 1 80 33
M  V30 84 1 81 33
M  V30 85 1 34 82 CFG=3
M  V30 86 1 83 35
M  V30 87 1 9 84 CFG=1
M  V30 END BOND
M  V30 END CTAB
M  END
>  <i_epik_Tot_Q>  (1) 
1

>  <i_epik_Tot_abs_Q>  (1) 
1

>  <i_i_glide_confnum>  (1) 
1469

>  <i_i_glide_lignum>  (1) 
56

>  <i_i_glide_posenum>  (1) 
60

>  <i_i_glide_rotatable_bonds>  (1) 
15

>  <i_lp_mmshare_version>  (1) 
72125

>  <i_m_source_file_index>  (1) 
27

>  <i_f3d_flags>  (1) 
0

>  <num_sample>  (1) 
50

>  <b_lp_Chiralities_Consistent>  (1) 
1

>  <r_epik_Charging_Adjusted_Penalty>  (1) 
0.02425622639956965

>  <r_epik_Ionization_Penalty>  (1) 
0.033094864685368548

>  <r_epik_Ionization_Penalty_Charging>  (1) 
0.02425622639956965

>  <r_epik_Ionization_Penalty_Neutral>  (1) 
0.0088386382857988978

>  <r_epik_State_Penalty>  (1) 
-0

>  <r_glide_ring_energy>  (1) 
0

>  <r_i_docking_score>  (1) 
-8.3947720862700024

>  <r_i_glide_ecoul>  (1) 
-5.8177095864645612

>  <r_i_glide_eff_state_penalty>  (1) 
-0

>  <r_i_glide_einternal>  (1) 
13.353776727007492

>  <r_i_glide_emodel>  (1) 
-69.47472160940454

>  <r_i_glide_emodel_strain>  (1) 
0.39012215449761811

>  <r_i_glide_energy>  (1) 
-46.835518813163461

>  <r_i_glide_erotb>  (1) 
0.83677420797818713

>  <r_i_glide_esite>  (1) 
-0.10056274370555303

>  <r_i_glide_evdw>  (1) 
-41.017809226698901

>  <r_i_glide_gscore>  (1) 
-8.3947720862700024

>  <r_i_glide_gscore_strain>  (1) 
0

>  <r_i_glide_hbond>  (1) 
-0.32000000000000001

>  <r_i_glide_ligand_efficiency>  (1) 
-0.2268857320613514

>  <r_i_glide_ligand_efficiency_ln>  (1) 
-1.8206292641318897

>  <r_i_glide_ligand_efficiency_sa>  (1) 
-0.75603359420152416

>  <r_i_glide_lipo>  (1) 
-4.3827981004436722

>  <r_i_glide_metal>  (1) 
-0

>  <r_i_glide_rewards>  (1) 
-1.5046385507943345

>  <r_lp_Energy>  (1) 
52.890431999999997

>  <r_lp_tautomer_probability>  (1) 
1

>  <s_epik_Chemistry_Notes>  (1) 
This compound has a N-S or N-O group and may undergo hydrolysis at high or low pH.

>  <s_epik_cmdline>  (1) 
J2VwaWtfcHl0aG9uJywgJy1waHQnLCAnMS4wJywgJy1waCcsICc3LjQnLCAnLXRuJywgJzgnLCAnLW1hJywgJzUwMCcsICctaW1hZScsICc8aW5maWxlLm1hZT4nLCAnLW9tYWUnLCAnPG91dGZpbGUubWFlPic=

>  <s_epik_input>  (1) 
W09IXU9bQ0gyXVtDSDJdTihbQ0hdPU8pW0NASF0oW0NIMl1bQ0BASF0oTjEyKVtDQEhdMVtDSDNdKVtDSDJdW0NASF0yW0NIMl1bQ0hdKFtDSDJdW0NIMl0zKVtDSDJdW0NIMl1OM09bQ0BASF0oW0NIMl1bQ0gyXVtDSF0oW0NIM10pW0NIM10pW0NIMl1bQ0BASF00Qyg9TylOPVtDSF1bQ0hdPVtDSF00

>  <s_glide_docking_method>  (1) 
confgen

>  <s_i_glide_gridfile>  (1) 
gpcr_5ht2c_6bqh_protein_autoprepared_prepared

>  <s_lp_Force_Field>  (1) 
S-OPLS

>  <s_lp_Variant>  (1) 
DiffSBDD_26-1

>  <s_m_source_file>  (1) 
generated_GPCR_5HT2C_ligand_DiffSBDD_2026-06-23_prepared.sdf

>  <GenAI_Model>  (1) 
DiffSBDD

>  <Protein>  (1) 
GPCR_5HT2C

$$$$
DiffSBDD_26
     RDKit          3D

  0  0  0  0  0  0  0  0  0  0999 V3000
M  V30 BEGIN CTAB
M  V30 COUNTS 84 87 0 0 1
M  V30 BEGIN ATOM
M  V30 1 C 39.212356 33.680478 59.448029 0
M  V30 2 C 40.003737 29.922447 50.742889 0
M  V30 3 C 38.974141 29.829480 56.753901 0
M  V30 4 C 38.871667 25.899125 55.112548 0
M  V30 5 N 38.732111 29.907483 55.324202 0
M  V30 6 O 36.845185 24.937757 54.235532 0
M  V30 7 C 38.596063 28.784473 52.555953 0
M  V30 8 C 38.625911 28.076699 53.913665 0 CFG=2
M  V30 9 N 36.645857 33.551024 59.541340 0 CFG=1 CHG=1
M  V30 10 N 40.565258 34.098125 61.450900 0
M  V30 11 C 38.318288 31.016449 57.454746 0
M  V30 12 C 41.635612 35.697882 63.059910 0
M  V30 13 C 39.726271 28.939075 49.635193 0
M  V30 14 C 37.849759 33.573999 57.302807 0
M  V30 15 C 37.626025 25.066363 55.168936 0
M  V30 16 O 42.273968 32.789874 62.210393 0
M  V30 17 C 38.718420 32.383721 56.858713 0
M  V30 18 C 41.134822 32.907547 61.767789 0
M  V30 19 C 38.274849 24.545878 57.451781 0
M  V30 20 C 39.373393 25.276500 57.385487 0
M  V30 21 C 39.678430 25.970037 56.192740 0
M  V30 22 C 41.302955 35.363022 61.589386 0
M  V30 23 O 39.464621 28.792700 54.811088 0
M  V30 24 C 35.033013 31.738425 59.980814 0
M  V30 25 C 38.168681 33.363529 61.606508 0
M  V30 26 C 39.173685 26.646284 53.829778 0
M  V30 27 C 39.387171 31.104345 54.800180 0
M  V30 28 C 36.444236 32.231480 60.091930 0 CFG=2
M  V30 29 C 38.653936 32.324204 55.341795 0
M  V30 30 C 39.998375 29.145139 52.052699 0
M  V30 31 C 36.775981 33.383214 60.998129 0 CFG=2
M  V30 32 C 37.854792 33.963995 58.780343 0 CFG=2
M  V30 33 C 41.334134 30.624688 50.532667 0
M  V30 34 C 39.216453 34.179114 60.866844 0 CFG=2
M  V30 35 O 40.044644 37.337363 63.367712 0
M  V30 36 O 40.445934 35.999270 63.760364 0
M  V30 37 N 37.410330 24.439564 56.368341 0
M  V30 38 H 40.029063 34.137739 58.894457 0
M  V30 39 H 39.429060 32.617575 59.463965 0
M  V30 40 H 39.245189 30.697394 50.748663 0
M  V30 41 H 40.044466 29.805176 56.959978 0
M  V30 42 H 38.552359 28.898779 57.136331 0
M  V30 43 H 36.590822 23.863131 56.483376 0
M  V30 44 H 38.056019 28.166315 51.838413 0
M  V30 45 H 38.019706 29.696566 52.660978 0
M  V30 46 H 37.602311 28.021320 54.294924 0
M  V30 47 H 38.603959 30.938906 58.496316 0
M  V30 48 H 37.244996 30.889734 57.402495 0
M  V30 49 H 42.330281 36.537246 63.129596 0
M  V30 50 H 42.129012 34.869941 63.565300 0
M  V30 51 H 40.445035 28.137298 49.712752 0
M  V30 52 H 38.748953 28.491804 49.763993 0
M  V30 53 H 39.789954 29.396617 48.650077 0
M  V30 54 H 36.845180 33.403149 56.969746 0
M  V30 55 H 38.163281 34.447377 56.730771 0
M  V30 56 H 39.756150 32.585484 57.100532 0
M  V30 57 H 40.454565 32.069802 61.569097 0
M  V30 58 H 37.967295 23.987346 58.322378 0
M  V30 59 H 40.033813 25.345397 58.238217 0
M  V30 60 H 40.573192 26.574260 56.147114 0
M  V30 61 H 40.754435 36.195272 61.149092 0
M  V30 62 H 42.195747 35.306533 60.967616 0
M  V30 63 H 34.845143 31.123864 60.859937 0
M  V30 64 H 34.322529 32.566545 59.963581 0
M  V30 65 H 34.909200 31.145320 59.073089 0
M  V30 66 H 38.445603 32.321823 61.760777 0
M  V30 67 H 38.144567 33.799229 62.567736 0
M  V30 68 H 38.723995 26.137870 52.980454 0
M  V30 69 H 40.248513 26.630244 53.651698 0
M  V30 70 H 40.445907 31.122968 55.062650 0
M  V30 71 H 39.310386 31.150847 53.718785 0
M  V30 72 H 37.232103 31.517489 59.909818 0
M  V30 73 H 37.618424 32.309190 54.996740 0
M  V30 74 H 39.106237 33.237419 54.967724 0
M  V30 75 H 40.510190 29.738096 52.802468 0
M  V30 76 H 40.583623 28.235884 51.930286 0
M  V30 77 H 35.989634 33.932879 61.512213 0
M  V30 78 H 37.645075 35.035565 58.786390 0
M  V30 79 H 42.167954 29.935522 50.567715 0
M  V30 80 H 41.364368 31.161208 49.583196 0
M  V30 81 H 41.477463 31.337705 51.336217 0
M  V30 82 H 38.888354 35.219144 60.869414 0
M  V30 83 H 40.597239 37.849989 63.955165 0
M  V30 84 H 35.774514 33.963049 59.237490 0
M  V30 END ATOM
M  V30 BEGIN BOND
M  V30 1 1 5 3
M  V30 2 1 8 7
M  V30 3 1 11 3
M  V30 4 1 13 2
M  V30 5 1 15 4
M  V30 6 2 15 6
M  V30 7 1 17 11
M  V30 8 1 17 14
M  V30 9 1 18 10
M  V30 10 2 18 16
M  V30 11 2 20 19
M  V30 12 2 21 4
M  V30 13 1 21 20
M  V30 14 1 22 10
M  V30 15 1 22 12
M  V30 16 1 23 5
M  V30 17 1 23 8
M  V30 18 1 26 4
M  V30 19 1 26 8
M  V30 20 1 27 5
M  V30 21 1 28 9
M  V30 22 1 28 24
M  V30 23 1 29 17
M  V30 24 1 29 27
M  V30 25 1 30 2
M  V30 26 1 30 7
M  V30 27 1 31 9
M  V30 28 1 31 25
M  V30 29 1 31 28
M  V30 30 1 32 1
M  V30 31 1 32 9
M  V30 32 1 32 14
M  V30 33 1 33 2
M  V30 34 1 34 1
M  V30 35 1 34 10
M  V30 36 1 34 25
M  V30 37 1 36 12
M  V30 38 1 36 35
M  V30 39 1 37 15
M  V30 40 1 37 19
M  V30 41 1 38 1
M  V30 42 1 39 1
M  V30 43 1 40 2
M  V30 44 1 41 3
M  V30 45 1 42 3
M  V30 46 1 43 37
M  V30 47 1 44 7
M  V30 48 1 45 7
M  V30 49 1 8 46 CFG=1
M  V30 50 1 47 11
M  V30 51 1 48 11
M  V30 52 1 49 12
M  V30 53 1 50 12
M  V30 54 1 51 13
M  V30 55 1 52 13
M  V30 56 1 53 13
M  V30 57 1 54 14
M  V30 58 1 55 14
M  V30 59 1 56 17
M  V30 60 1 57 18
M  V30 61 1 58 19
M  V30 62 1 59 20
M  V30 63 1 60 21
M  V30 64 1 61 22
M  V30 65 1 62 22
M  V30 66 1 63 24
M  V30 67 1 64 24
M  V30 68 1 65 24
M  V30 69 1 66 25
M  V30 70 1 67 25
M  V30 71 1 68 26
M  V30 72 1 69 26
M  V30 73 1 70 27
M  V30 74 1 71 27
M  V30 75 1 28 72 CFG=3
M  V30 76 1 73 29
M  V30 77 1 74 29
M  V30 78 1 75 30
M  V30 79 1 76 30
M  V30 80 1 31 77 CFG=1
M  V30 81 1 32 78 CFG=3
M  V30 82 1 79 33
M  V30 83 1 80 33
M  V30 84 1 81 33
M  V30 85 1 34 82 CFG=3
M  V30 86 1 83 35
M  V30 87 1 9 84 CFG=1
M  V30 END BOND
M  V30 END CTAB
M  END
>  <i_epik_Tot_Q>  (1) 
1

>  <i_epik_Tot_abs_Q>  (1) 
1

>  <i_i_glide_confnum>  (1) 
984

>  <i_i_glide_lignum>  (1) 
56

>  <i_i_glide_posenum>  (1) 
360

>  <i_i_glide_rotatable_bonds>  (1) 
15

>  <i_lp_mmshare_version>  (1) 
72125

>  <i_m_source_file_index>  (1) 
27

>  <i_f3d_flags>  (1) 
0

>  <num_sample>  (1) 
50

>  <b_lp_Chiralities_Consistent>  (1) 
1

>  <r_epik_Charging_Adjusted_Penalty>  (1) 
0.02425622639956965

>  <r_epik_Ionization_Penalty>  (1) 
0.033094864685368548

>  <r_epik_Ionization_Penalty_Charging>  (1) 
0.02425622639956965

>  <r_epik_Ionization_Penalty_Neutral>  (1) 
0.0088386382857988978

>  <r_epik_State_Penalty>  (1) 
-0

>  <r_glide_ring_energy>  (1) 
0

>  <r_i_docking_score>  (1) 
-8.3890277408235931

>  <r_i_glide_ecoul>  (1) 
-5.777208374075224

>  <r_i_glide_eff_state_penalty>  (1) 
-0

>  <r_i_glide_einternal>  (1) 
14.178624642776612

>  <r_i_glide_emodel>  (1) 
-69.445639207457646

>  <r_i_glide_emodel_strain>  (1) 
0.84596778153074581

>  <r_i_glide_energy>  (1) 
-47.695033260463546

>  <r_i_glide_erotb>  (1) 
0.83677420797818713

>  <r_i_glide_esite>  (1) 
-0.065032112567822237

>  <r_i_glide_evdw>  (1) 
-41.917824886388324

>  <r_i_glide_gscore>  (1) 
-8.3890277408235931

>  <r_i_glide_gscore_strain>  (1) 
0

>  <r_i_glide_hbond>  (1) 
-0.32000000000000001

>  <r_i_glide_ligand_efficiency>  (1) 
-0.22673047948171873

>  <r_i_glide_ligand_efficiency_ln>  (1) 
-1.8193834502711275

>  <r_i_glide_ligand_efficiency_sa>  (1) 
-0.75551625816314771

>  <r_i_glide_lipo>  (1) 
-4.38435578324418

>  <r_i_glide_metal>  (1) 
-0

>  <r_i_glide_rewards>  (1) 
-1.4939415525590782

>  <r_lp_Energy>  (1) 
52.890431999999997

>  <r_lp_tautomer_probability>  (1) 
1

>  <s_epik_Chemistry_Notes>  (1) 
This compound has a N-S or N-O group and may undergo hydrolysis at high or low pH.

>  <s_epik_cmdline>  (1) 
J2VwaWtfcHl0aG9uJywgJy1waHQnLCAnMS4wJywgJy1waCcsICc3LjQnLCAnLXRuJywgJzgnLCAnLW1hJywgJzUwMCcsICctaW1hZScsICc8aW5maWxlLm1hZT4nLCAnLW9tYWUnLCAnPG91dGZpbGUubWFlPic=

>  <s_epik_input>  (1) 
W09IXU9bQ0gyXVtDSDJdTihbQ0hdPU8pW0NASF0oW0NIMl1bQ0BASF0oTjEyKVtDQEhdMVtDSDNdKVtDSDJdW0NASF0yW0NIMl1bQ0hdKFtDSDJdW0NIMl0zKVtDSDJdW0NIMl1OM09bQ0BASF0oW0NIMl1bQ0gyXVtDSF0oW0NIM10pW0NIM10pW0NIMl1bQ0BASF00Qyg9TylOPVtDSF1bQ0hdPVtDSF00

>  <s_glide_docking_method>  (1) 
confgen

>  <s_i_glide_gridfile>  (1) 
gpcr_5ht2c_6bqh_protein_autoprepared_prepared

>  <s_lp_Force_Field>  (1) 
S-OPLS

>  <s_lp_Variant>  (1) 
DiffSBDD_26-1

>  <s_m_source_file>  (1) 
generated_GPCR_5HT2C_ligand_DiffSBDD_2026-06-23_prepared.sdf

>  <GenAI_Model>  (1) 
DiffSBDD

>  <Protein>  (1) 
GPCR_5HT2C

$$$$
DiffSBDD_41
     RDKit          3D

  0  0  0  0  0  0  0  0  0  0999 V3000
M  V30 BEGIN CTAB
M  V30 COUNTS 70 74 0 0 1
M  V30 BEGIN ATOM
M  V30 1 C 40.351646 26.151926 56.234025 0
M  V30 2 O 38.725522 32.283127 59.801673 0
M  V30 3 C 39.009429 30.898170 59.595149 0 CFG=1
M  V30 4 C 39.524044 32.537232 56.880069 0
M  V30 5 C 39.957724 25.344298 57.470733 0
M  V30 6 C 38.107926 28.312002 56.086599 0
M  V30 7 C 39.831675 28.483668 51.087329 0
M  V30 8 C 39.525002 27.337610 51.833442 0
M  V30 9 C 38.038824 34.895040 60.695838 0
M  V30 10 C 38.818178 31.039533 53.767726 0
M  V30 11 C 38.156750 30.105262 60.586834 0
M  V30 12 C 38.976201 36.138581 62.284782 0
M  V30 13 N 38.014082 36.038382 61.356479 0
M  V30 14 C 38.681157 30.496901 58.126337 0 CFG=1
M  V30 15 C 39.246137 28.271602 57.162560 0
M  V30 16 C 39.128402 34.137904 61.255330 0
M  V30 17 O 37.645130 38.159937 60.327688 0
M  V30 18 O 37.269874 34.573528 59.789192 0
M  V30 19 C 38.838253 27.428998 58.391742 0
M  V30 20 C 38.682185 25.926165 58.091719 0
M  V30 21 N 38.466823 31.596273 57.206462 0
M  V30 22 O 39.159471 37.118015 63.007146 0
M  V30 23 O 39.644936 29.584800 57.637254 0
M  V30 24 C 39.064791 27.463376 53.147044 0
M  V30 25 C 37.678030 31.300792 56.047206 0
M  V30 26 C 37.057678 37.114872 61.073108 0
M  V30 27 C 38.881570 28.741270 53.701898 0
M  V30 28 C 39.425959 32.897107 60.807871 0
M  V30 29 C 39.657347 29.762272 51.647828 0
M  V30 30 C 41.345009 35.141482 62.062470 0
M  V30 31 N 38.434223 29.164342 54.954584 0
M  V30 32 C 39.870320 34.867735 62.372893 0 CFG=1
M  V30 33 C 40.530465 27.646022 56.576699 0
M  V30 34 C 38.309708 30.558025 54.934609 0
M  V30 35 C 39.157360 29.921365 52.967753 0
M  V30 36 H 39.575953 26.003119 55.497177 0
M  V30 37 H 41.245031 25.752797 55.767523 0
M  V30 38 H 40.045143 30.643415 59.787921 0
M  V30 39 H 39.116980 33.348515 56.276621 0
M  V30 40 H 39.929362 33.005240 57.771489 0
M  V30 41 H 40.305995 32.063375 56.287447 0
M  V30 42 H 39.799669 24.297730 57.207321 0
M  V30 43 H 40.776267 25.366932 58.187276 0
M  V30 44 H 37.823406 27.326024 55.723999 0
M  V30 45 H 37.245166 28.699872 56.585091 0
M  V30 46 H 40.192854 28.385577 50.075110 0
M  V30 47 H 39.645361 26.358635 51.395156 0
M  V30 48 H 38.881445 32.075085 53.467489 0
M  V30 49 H 38.445135 29.056418 60.575946 0
M  V30 50 H 38.306027 30.459738 61.606991 0
M  V30 51 H 37.092901 30.185752 60.361982 0
M  V30 52 H 37.726238 29.977678 58.181441 0
M  V30 53 H 36.980629 38.818916 60.167082 0
M  V30 54 H 39.587134 27.547883 59.176042 0
M  V30 55 H 37.908710 27.816335 58.790026 0
M  V30 56 H 37.837694 25.763335 57.421964 0
M  V30 57 H 38.444547 25.385388 59.003882 0
M  V30 58 H 38.828001 26.584428 53.715756 0
M  V30 59 H 37.245131 32.226535 55.667820 0
M  V30 60 H 36.845138 30.689838 56.362469 0
M  V30 61 H 36.660068 37.521026 62.004631 0
M  V30 62 H 36.200083 36.748793 60.507414 0
M  V30 63 H 40.229393 32.285757 61.193684 0
M  V30 64 H 39.881965 30.637456 51.055224 0
M  V30 65 H 41.468117 35.733596 61.153926 0
M  V30 66 H 41.821463 35.683635 62.880554 0
M  V30 67 H 41.880634 34.201478 61.926396 0
M  V30 68 H 39.734218 34.359616 63.328208 0
M  V30 69 H 40.845430 28.207983 55.702661 0
M  V30 70 H 41.345880 27.743882 57.294696 0
M  V30 END ATOM
M  V30 BEGIN BOND
M  V30 1 1 3 2
M  V30 2 1 5 1
M  V30 3 2 8 7
M  V30 4 1 11 3
M  V30 5 1 13 9
M  V30 6 1 13 12
M  V30 7 1 14 3
M  V30 8 1 15 6
M  V30 9 1 16 9
M  V30 10 2 18 9
M  V30 11 1 19 15
M  V30 12 1 20 5
M  V30 13 1 20 19
M  V30 14 1 21 4
M  V30 15 1 21 14
M  V30 16 2 22 12
M  V30 17 1 23 14
M  V30 18 1 23 15
M  V30 19 1 24 8
M  V30 20 1 25 21
M  V30 21 1 26 13
M  V30 22 1 26 17
M  V30 23 2 27 24
M  V30 24 1 28 2
M  V30 25 2 28 16
M  V30 26 1 29 7
M  V30 27 1 31 6
M  V30 28 1 31 27
M  V30 29 1 32 12
M  V30 30 1 32 16
M  V30 31 1 32 30
M  V30 32 1 33 1
M  V30 33 1 33 15
M  V30 34 2 34 10
M  V30 35 1 34 25
M  V30 36 1 34 31
M  V30 37 1 35 10
M  V30 38 1 35 27
M  V30 39 2 35 29
M  V30 40 1 36 1
M  V30 41 1 37 1
M  V30 42 1 3 38 CFG=1
M  V30 43 1 39 4
M  V30 44 1 40 4
M  V30 45 1 41 4
M  V30 46 1 42 5
M  V30 47 1 43 5
M  V30 48 1 44 6
M  V30 49 1 45 6
M  V30 50 1 46 7
M  V30 51 1 47 8
M  V30 52 1 48 10
M  V30 53 1 49 11
M  V30 54 1 50 11
M  V30 55 1 51 11
M  V30 56 1 14 52 CFG=1
M  V30 57 1 53 17
M  V30 58 1 54 19
M  V30 59 1 55 19
M  V30 60 1 56 20
M  V30 61 1 57 20
M  V30 62 1 58 24
M  V30 63 1 59 25
M  V30 64 1 60 25
M  V30 65 1 61 26
M  V30 66 1 62 26
M  V30 67 1 63 28
M  V30 68 1 64 29
M  V30 69 1 65 30
M  V30 70 1 66 30
M  V30 71 1 67 30
M  V30 72 1 32 68 CFG=1
M  V30 73 1 69 33
M  V30 74 1 70 33
M  V30 END BOND
M  V30 END CTAB
M  END
>  <i_epik_Tot_Q>  (1) 
0

>  <i_epik_Tot_abs_Q>  (1) 
0

>  <i_i_glide_confnum>  (1) 
2

>  <i_i_glide_lignum>  (1) 
88

>  <i_i_glide_posenum>  (1) 
194

>  <i_i_glide_rotatable_bonds>  (1) 
5

>  <i_lp_mmshare_version>  (1) 
72125

>  <i_m_source_file_index>  (1) 
42

>  <i_f3d_flags>  (1) 
0

>  <num_sample>  (1) 
50

>  <b_lp_Chiralities_Consistent>  (1) 
1

>  <r_epik_Charging_Adjusted_Penalty>  (1) 
0.17305261392596941

>  <r_epik_Ionization_Penalty>  (1) 
0.17312613183816786

>  <r_epik_Ionization_Penalty_Charging>  (1) 
0

>  <r_epik_Ionization_Penalty_Neutral>  (1) 
0.17312613183816786

>  <r_epik_State_Penalty>  (1) 
0.17305261392596941

>  <r_glide_ring_energy>  (1) 
1.1930087166834973

>  <r_i_docking_score>  (1) 
-8.3730068451277546

>  <r_i_glide_ecoul>  (1) 
-2.2908308015979477

>  <r_i_glide_eff_state_penalty>  (1) 
0.17305261392596941

>  <r_i_glide_einternal>  (1) 
6.9263414827352943

>  <r_i_glide_emodel>  (1) 
-53.875816436939537

>  <r_i_glide_emodel_strain>  (1) 
0.12480178228828009

>  <r_i_glide_energy>  (1) 
-42.238854784367007

>  <r_i_glide_erotb>  (1) 
0.34988069477117673

>  <r_i_glide_esite>  (1) 
-0.031350693951450181

>  <r_i_glide_evdw>  (1) 
-39.948023982769058

>  <r_i_glide_gscore>  (1) 
-8.5460594590537244

>  <r_i_glide_gscore_strain>  (1) 
0

>  <r_i_glide_hbond>  (1) 
-0.31853327169785678

>  <r_i_glide_ligand_efficiency>  (1) 
-0.23922876700365014

>  <r_i_glide_ligand_efficiency_ln>  (1) 
-1.8380608313802751

>  <r_i_glide_ligand_efficiency_sa>  (1) 
-0.78253316017359575

>  <r_i_glide_lipo>  (1) 
-4.0665799074455613

>  <r_i_glide_metal>  (1) 
-0

>  <r_i_glide_rewards>  (1) 
-2.1384504613518889

>  <r_lp_Energy>  (1) 
37.188876

>  <s_epik_Chemistry_Notes>  (1) 
This compound contains an acetal/aminal-like group ( X-CH(R)-Y where X, Y are N, S, or O) that may be acid/base labile, releasing an aldehyde.

>  <s_epik_cmdline>  (1) 
J2VwaWtfcHl0aG9uJywgJy1waHQnLCAnMS4wJywgJy1waCcsICc3LjQnLCAnLXRuJywgJzgnLCAnLW1hJywgJzUwMCcsICctaW1hZScsICc8aW5maWxlLm1hZT4nLCAnLW9tYWUnLCAnPG91dGZpbGUubWFlPic=

>  <s_epik_input>  (1) 
W0NIMl0xW0NIMl1bQ0gyXVtDSDJdW0NIMl1DMTJbQ0gyXW4zYzRjKFtjSF1bY0hdW2NIXVtjSF00KVtjSF1jM1tDSDJdTihbQ0gzXSlbQ0BASF0oTzIpW0NASF0oW0NIM10pTy9bQ0hdPUNcNVtDQEBIXShbQ0gzXSlDKD1PKU4oQzU9TylbQ0gyXVtPSF0=

>  <s_glide_docking_method>  (1) 
confgen

>  <s_i_glide_gridfile>  (1) 
gpcr_5ht2c_6bqh_protein_autoprepared_prepared

>  <s_lp_Force_Field>  (1) 
S-OPLS

>  <s_lp_Variant>  (1) 
DiffSBDD_41-2

>  <s_m_source_file>  (1) 
generated_GPCR_5HT2C_ligand_DiffSBDD_2026-06-23_prepared.sdf

>  <GenAI_Model>  (1) 
DiffSBDD

>  <Protein>  (1) 
GPCR_5HT2C

$$$$
DiffSBDD_22
     RDKit          3D

  0  0  0  0  0  0  0  0  0  0999 V3000
M  V30 BEGIN CTAB
M  V30 COUNTS 69 72 0 0 1
M  V30 BEGIN ATOM
M  V30 1 N 40.398233 28.937752 55.824880 0
M  V30 2 C 37.218722 25.754171 56.709094 0
M  V30 3 C 37.583412 34.795586 61.256733 0
M  V30 4 O 39.606453 24.786223 57.106358 0
M  V30 5 C 37.581197 32.369814 59.804988 0
M  V30 6 N 43.880105 30.804488 67.426472 0
M  V30 7 C 38.353911 26.837765 56.840183 0 CFG=1
M  V30 8 C 36.485189 34.456740 60.448322 0
M  V30 9 C 42.554623 31.344987 65.005553 0
M  V30 10 C 37.588766 31.100120 59.016010 0 CFG=2
M  V30 11 S 38.458010 26.667154 54.001782 0
M  V30 12 C 38.721419 28.826293 58.703251 0
M  V30 13 C 41.054021 28.074929 56.787492 0
M  V30 14 C 37.960321 27.592732 58.167763 0
M  V30 15 C 41.645133 33.966512 64.494574 0
M  V30 16 C 40.639848 35.531471 61.680466 0
M  V30 17 N 40.845137 26.631735 56.820523 0
M  V30 18 C 39.214553 28.879941 55.384136 0
M  V30 19 C 39.882296 34.297165 62.223051 0 CFG=1
M  V30 20 O 40.087116 36.740260 62.167769 0
M  V30 21 C 38.687576 33.926506 61.345105 0
M  V30 22 C 37.940655 27.806606 52.673437 0
M  V30 23 C 38.685324 32.713847 60.617443 0
M  V30 24 C 42.303407 33.675837 65.705027 0
M  V30 25 C 41.437664 32.944189 63.534941 0
M  V30 26 O 36.595759 30.131805 59.367792 0
M  V30 27 O 40.795140 33.204369 62.340633 0
M  V30 28 C 43.469989 32.064627 67.270761 0
M  V30 29 C 39.665172 26.004294 56.942578 0
M  V30 30 C 41.896367 31.639043 63.796556 0
M  V30 31 C 37.963875 29.766068 59.622987 0 CFG=2
M  V30 32 C 42.762454 32.365480 65.968638 0
M  V30 33 O 43.645660 32.937752 68.116177 0
M  V30 34 C 38.692441 27.522582 51.367794 0
M  V30 35 C 38.300145 27.682963 55.513620 0 CFG=2
M  V30 36 C 36.482508 33.248979 59.726972 0
M  V30 37 H 37.295364 28.090201 55.431681 0
M  V30 38 H 36.250302 26.137754 56.415359 0
M  V30 39 H 37.438729 24.990049 55.961419 0
M  V30 40 H 37.059987 25.219504 57.647151 0
M  V30 41 H 37.580192 35.724342 61.807982 0
M  V30 42 H 43.711615 30.125981 66.701485 0
M  V30 43 H 44.358977 30.535380 68.271756 0
M  V30 44 H 35.645137 35.125592 60.376628 0
M  V30 45 H 42.897828 30.338999 65.190307 0
M  V30 46 H 37.666278 31.276403 57.943984 0
M  V30 47 H 39.065735 29.461420 57.901317 0
M  V30 48 H 39.594483 28.491448 59.261264 0
M  V30 49 H 41.052579 28.501068 57.782322 0
M  V30 50 H 42.117234 28.140323 56.567761 0
M  V30 51 H 38.045137 26.857291 58.967783 0
M  V30 52 H 36.909372 27.870296 58.089107 0
M  V30 53 H 41.303545 34.971306 64.305017 0
M  V30 54 H 40.665526 35.529799 60.589875 0
M  V30 55 H 41.675760 35.516681 62.013582 0
M  V30 56 H 41.683967 26.053652 56.846331 0
M  V30 57 H 38.774265 29.723824 54.847132 0
M  V30 58 H 39.459353 34.518204 63.202301 0
M  V30 59 H 40.302694 36.829909 63.085353 0
M  V30 60 H 36.860351 27.737752 52.545595 0
M  V30 61 H 38.137646 28.841107 52.941031 0
M  V30 62 H 39.532432 32.046884 60.677045 0
M  V30 63 H 42.458096 34.460096 66.432826 0
M  V30 64 H 41.740138 30.859188 63.066905 0
M  V30 65 H 38.230255 29.737785 60.677433 0
M  V30 66 H 38.445148 28.259731 50.604166 0
M  V30 67 H 39.770045 27.569597 51.522275 0
M  V30 68 H 38.455856 26.538015 50.967107 0
M  V30 69 H 35.636709 32.997155 59.102306 0
M  V30 END ATOM
M  V30 BEGIN BOND
M  V30 1 1 7 2 CFG=3
M  V30 2 2 8 3
M  V30 3 1 10 5
M  V30 4 1 13 1
M  V30 5 1 14 7
M  V30 6 1 14 12
M  V30 7 1 17 13
M  V30 8 2 18 1
M  V30 9 1 19 16
M  V30 10 1 20 16
M  V30 11 1 21 3
M  V30 12 1 21 19
M  V30 13 1 22 11
M  V30 14 1 23 5
M  V30 15 2 23 21
M  V30 16 2 24 15
M  V30 17 1 25 15
M  V30 18 1 26 10
M  V30 19 1 27 19
M  V30 20 1 27 25
M  V30 21 1 28 6
M  V30 22 2 29 4
M  V30 23 1 29 7
M  V30 24 1 29 17
M  V30 25 1 30 9
M  V30 26 2 30 25
M  V30 27 1 31 10
M  V30 28 1 31 12
M  V30 29 1 31 26
M  V30 30 2 32 9
M  V30 31 1 32 24
M  V30 32 1 32 28
M  V30 33 2 33 28
M  V30 34 1 34 22
M  V30 35 1 35 7
M  V30 36 1 35 11
M  V30 37 1 35 18
M  V30 38 2 36 5
M  V30 39 1 36 8
M  V30 40 1 35 37 CFG=3
M  V30 41 1 38 2
M  V30 42 1 39 2
M  V30 43 1 40 2
M  V30 44 1 41 3
M  V30 45 1 42 6
M  V30 46 1 43 6
M  V30 47 1 44 8
M  V30 48 1 45 9
M  V30 49 1 10 46 CFG=3
M  V30 50 1 47 12
M  V30 51 1 48 12
M  V30 52 1 49 13
M  V30 53 1 50 13
M  V30 54 1 51 14
M  V30 55 1 52 14
M  V30 56 1 53 15
M  V30 57 1 54 16
M  V30 58 1 55 16
M  V30 59 1 56 17
M  V30 60 1 57 18
M  V30 61 1 19 58 CFG=1
M  V30 62 1 59 20
M  V30 63 1 60 22
M  V30 64 1 61 22
M  V30 65 1 62 23
M  V30 66 1 63 24
M  V30 67 1 64 30
M  V30 68 1 31 65 CFG=1
M  V30 69 1 66 34
M  V30 70 1 67 34
M  V30 71 1 68 34
M  V30 72 1 69 36
M  V30 END BOND
M  V30 END CTAB
M  END
>  <i_epik_Tot_Q>  (1) 
0

>  <i_epik_Tot_abs_Q>  (1) 
0

>  <i_i_glide_confnum>  (1) 
1121

>  <i_i_glide_lignum>  (1) 
49

>  <i_i_glide_posenum>  (1) 
320

>  <i_i_glide_rotatable_bonds>  (1) 
12

>  <i_lp_mmshare_version>  (1) 
72125

>  <i_m_source_file_index>  (1) 
23

>  <i_f3d_flags>  (1) 
0

>  <num_sample>  (1) 
50

>  <b_lp_Chiralities_Consistent>  (1) 
1

>  <r_epik_Charging_Adjusted_Penalty>  (1) 
0

>  <r_epik_Ionization_Penalty>  (1) 
0.00010073509857401548

>  <r_epik_Ionization_Penalty_Charging>  (1) 
0

>  <r_epik_Ionization_Penalty_Neutral>  (1) 
0.00010073509857401548

>  <r_epik_State_Penalty>  (1) 
-0

>  <r_glide_ring_energy>  (1) 
0

>  <r_i_docking_score>  (1) 
-8.3667957893797684

>  <r_i_glide_ecoul>  (1) 
-5.8679077634545846

>  <r_i_glide_eff_state_penalty>  (1) 
-0

>  <r_i_glide_einternal>  (1) 
11.082154987136356

>  <r_i_glide_emodel>  (1) 
-76.94783424615774

>  <r_i_glide_emodel_strain>  (1) 
1.8696127557601727

>  <r_i_glide_energy>  (1) 
-54.856337143842623

>  <r_i_glide_erotb>  (1) 
0.70459601099453772

>  <r_i_glide_esite>  (1) 
0

>  <r_i_glide_evdw>  (1) 
-48.988429380388041

>  <r_i_glide_gscore>  (1) 
-8.3667957893797684

>  <r_i_glide_gscore_strain>  (1) 
0

>  <r_i_glide_hbond>  (1) 
-0.32000000000000001

>  <r_i_glide_ligand_efficiency>  (1) 
-0.232410994149438

>  <r_i_glide_ligand_efficiency_ln>  (1) 
-1.8254087965431205

>  <r_i_glide_ligand_efficiency_sa>  (1) 
-0.7674041945247192

>  <r_i_glide_lipo>  (1) 
-3.8221855686926496

>  <r_i_glide_metal>  (1) 
-0

>  <r_i_glide_rewards>  (1) 
-1.5995985981440648

>  <r_lp_Energy>  (1) 
55.610787999999999

>  <r_lp_tautomer_probability>  (1) 
1

>  <s_epik_Chemistry_Notes>  (1) 
This compound has an imine and may undergo hydrolysis. This compound contains an acetal/aminal-like group ( X-CH(R)-Y where X, Y are N, S, or O) that may be acid/base labile, releasing an aldehyde.

>  <s_epik_cmdline>  (1) 
J2VwaWtfcHl0aG9uJywgJy1waHQnLCAnMS4wJywgJy1waCcsICc3LjQnLCAnLXRuJywgJzgnLCAnLW1hJywgJzUwMCcsICctaW1hZScsICc8aW5maWxlLm1hZT4nLCAnLW9tYWUnLCAnPG91dGZpbGUubWFlPic=

>  <s_epik_input>  (1) 
W0NIM11bQ0gyXVNDMT1bQ0hdW05IXVtDSDJdW05IXUMoPU8pW0NAQF0xKFtDSDNdKVtDSDJdW0NIMl1bQ0BASF0yT1tDQEhdMmMzW2NIXWMoW2NIXVtjSF1bY0hdMylbQ0BIXShbQ0gyXVtPSF0pT2M0W2NIXVtjSF1jKFtjSF1bY0hdNClDKD1PKVtOSDJd

>  <s_glide_docking_method>  (1) 
confgen

>  <s_i_glide_gridfile>  (1) 
gpcr_5ht2c_6bqh_protein_autoprepared_prepared

>  <s_lp_Force_Field>  (1) 
S-OPLS

>  <s_lp_Variant>  (1) 
DiffSBDD_22-1

>  <s_m_source_file>  (1) 
generated_GPCR_5HT2C_ligand_DiffSBDD_2026-06-23_prepared.sdf

>  <GenAI_Model>  (1) 
DiffSBDD

>  <Protein>  (1) 
GPCR_5HT2C

$$$$
DiffSBDD_22
     RDKit          3D

  0  0  0  0  0  0  0  0  0  0999 V3000
M  V30 BEGIN CTAB
M  V30 COUNTS 69 72 0 0 1
M  V30 BEGIN ATOM
M  V30 1 N 40.445122 26.562846 56.424686 0
M  V30 2 C 36.993750 29.339279 57.460235 0
M  V30 3 C 37.815188 36.381224 61.219412 0
M  V30 4 O 38.528746 28.599731 59.513832 0
M  V30 5 C 37.642493 34.094090 59.570052 0
M  V30 6 N 43.354041 31.097750 67.431293 0
M  V30 7 C 38.464251 28.964898 57.107287 0 CFG=1
M  V30 8 C 36.844953 36.313981 60.207981 0
M  V30 9 C 41.825095 34.173555 66.058436 0
M  V30 10 C 37.542595 32.888198 58.690249 0 CFG=2
M  V30 11 S 38.156167 28.621947 54.294873 0
M  V30 12 C 38.517622 31.630202 56.531484 0
M  V30 13 C 41.040660 27.669758 57.115888 0
M  V30 14 C 39.246638 30.268748 56.661070 0
M  V30 15 C 41.647226 32.466877 63.819281 0
M  V30 16 C 40.661977 36.634109 62.339955 0
M  V30 17 N 40.330446 27.889208 58.368145 0
M  V30 18 C 39.272758 26.614271 55.943018 0
M  V30 19 C 39.772430 35.386310 62.507636 0 CFG=1
M  V30 20 O 40.045171 37.737847 62.967743 0
M  V30 21 C 38.712199 35.309681 61.410451 0
M  V30 22 C 38.253329 27.238706 53.119808 0
M  V30 23 C 38.623522 34.167528 60.586671 0
M  V30 24 C 42.220444 31.996789 65.017364 0
M  V30 25 C 41.159576 33.784798 63.733424 0
M  V30 26 O 38.468377 31.853686 59.026003 0
M  V30 27 O 40.597035 34.219255 62.546365 0
M  V30 28 C 42.924812 32.361715 67.438794 0
M  V30 29 C 39.115773 28.459506 58.442000 0
M  V30 30 C 41.252225 34.640966 64.861060 0
M  V30 31 C 38.673191 32.506919 57.762440 0 CFG=2
M  V30 32 C 42.312044 32.851607 66.145940 0
M  V30 33 O 43.011498 33.096014 68.420430 0
M  V30 34 C 38.192293 27.755012 51.685323 0
M  V30 35 C 38.363220 27.859706 55.954045 0 CFG=1
M  V30 36 C 36.756837 35.175703 59.387880 0
M  V30 37 H 37.399976 27.371653 56.088668 0
M  V30 38 H 36.446044 29.737697 56.604510 0
M  V30 39 H 36.445281 28.477979 57.839999 0
M  V30 40 H 36.921763 30.097320 58.237630 0
M  V30 41 H 37.872436 37.256037 61.848541 0
M  V30 42 H 43.257561 30.537720 66.599495 0
M  V30 43 H 43.772298 30.705847 68.261571 0
M  V30 44 H 36.161050 37.136768 60.062143 0
M  V30 45 H 41.890439 34.831480 66.913408 0
M  V30 46 H 36.523683 32.532862 58.567754 0
M  V30 47 H 37.477802 31.555590 56.231038 0
M  V30 48 H 38.979768 32.180040 55.711059 0
M  V30 49 H 41.143114 28.538925 56.474220 0
M  V30 50 H 42.064246 27.399276 57.376675 0
M  V30 51 H 39.785512 30.103234 55.731072 0
M  V30 52 H 40.045597 30.458270 57.367680 0
M  V30 53 H 41.578528 31.812091 62.962891 0
M  V30 54 H 40.867271 36.844584 61.291512 0
M  V30 55 H 41.634165 36.497976 62.814361 0
M  V30 56 H 40.769508 27.569871 59.218350 0
M  V30 57 H 38.823404 25.738208 55.468488 0
M  V30 58 H 39.207954 35.447133 63.436018 0
M  V30 59 H 40.591954 37.995270 63.705112 0
M  V30 60 H 39.194755 26.704514 53.243701 0
M  V30 61 H 37.443544 26.533766 53.311382 0
M  V30 62 H 39.307282 33.345039 60.732465 0
M  V30 63 H 42.587477 30.983737 65.066616 0
M  V30 64 H 40.885884 35.653295 64.811926 0
M  V30 65 H 39.546914 33.154190 57.753534 0
M  V30 66 H 38.274149 26.937665 50.970777 0
M  V30 67 H 37.248964 28.267626 51.511141 0
M  V30 68 H 39.002965 28.454256 51.478128 0
M  V30 69 H 36.005161 35.129784 58.612839 0
M  V30 END ATOM
M  V30 BEGIN BOND
M  V30 1 1 7 2 CFG=1
M  V30 2 2 8 3
M  V30 3 1 10 5
M  V30 4 1 13 1
M  V30 5 1 14 7
M  V30 6 1 14 12
M  V30 7 1 17 13
M  V30 8 2 18 1
M  V30 9 1 19 16
M  V30 10 1 20 16
M  V30 11 1 21 3
M  V30 12 1 21 19
M  V30 13 1 22 11
M  V30 14 1 23 5
M  V30 15 2 23 21
M  V30 16 2 24 15
M  V30 17 1 25 15
M  V30 18 1 26 10
M  V30 19 1 27 19
M  V30 20 1 27 25
M  V30 21 1 28 6
M  V30 22 2 29 4
M  V30 23 1 29 7
M  V30 24 1 29 17
M  V30 25 1 30 9
M  V30 26 2 30 25
M  V30 27 1 31 10
M  V30 28 1 31 12
M  V30 29 1 31 26
M  V30 30 2 32 9
M  V30 31 1 32 24
M  V30 32 1 32 28
M  V30 33 2 33 28
M  V30 34 1 34 22
M  V30 35 1 35 7
M  V30 36 1 35 11
M  V30 37 1 35 18
M  V30 38 2 36 5
M  V30 39 1 36 8
M  V30 40 1 35 37 CFG=1
M  V30 41 1 38 2
M  V30 42 1 39 2
M  V30 43 1 40 2
M  V30 44 1 41 3
M  V30 45 1 42 6
M  V30 46 1 43 6
M  V30 47 1 44 8
M  V30 48 1 45 9
M  V30 49 1 10 46 CFG=3
M  V30 50 1 47 12
M  V30 51 1 48 12
M  V30 52 1 49 13
M  V30 53 1 50 13
M  V30 54 1 51 14
M  V30 55 1 52 14
M  V30 56 1 53 15
M  V30 57 1 54 16
M  V30 58 1 55 16
M  V30 59 1 56 17
M  V30 60 1 57 18
M  V30 61 1 19 58 CFG=1
M  V30 62 1 59 20
M  V30 63 1 60 22
M  V30 64 1 61 22
M  V30 65 1 62 23
M  V30 66 1 63 24
M  V30 67 1 64 30
M  V30 68 1 31 65 CFG=1
M  V30 69 1 66 34
M  V30 70 1 67 34
M  V30 71 1 68 34
M  V30 72 1 69 36
M  V30 END BOND
M  V30 END CTAB
M  END
>  <i_epik_Tot_Q>  (1) 
0

>  <i_epik_Tot_abs_Q>  (1) 
0

>  <i_i_glide_confnum>  (1) 
1348

>  <i_i_glide_lignum>  (1) 
50

>  <i_i_glide_posenum>  (1) 
58

>  <i_i_glide_rotatable_bonds>  (1) 
12

>  <i_lp_mmshare_version>  (1) 
72125

>  <i_m_source_file_index>  (1) 
23

>  <i_f3d_flags>  (1) 
0

>  <num_sample>  (1) 
50

>  <b_lp_Chiralities_Consistent>  (1) 
1

>  <r_epik_Charging_Adjusted_Penalty>  (1) 
0

>  <r_epik_Ionization_Penalty>  (1) 
0.00010073509857401548

>  <r_epik_Ionization_Penalty_Charging>  (1) 
0

>  <r_epik_Ionization_Penalty_Neutral>  (1) 
0.00010073509857401548

>  <r_epik_State_Penalty>  (1) 
-0

>  <r_glide_ring_energy>  (1) 
0

>  <r_i_docking_score>  (1) 
-8.3565245181462675

>  <r_i_glide_ecoul>  (1) 
-7.4463817285598548

>  <r_i_glide_eff_state_penalty>  (1) 
-0

>  <r_i_glide_einternal>  (1) 
35.136368115055092

>  <r_i_glide_emodel>  (1) 
-63.480606875306805

>  <r_i_glide_emodel_strain>  (1) 
3.5695103508586357

>  <r_i_glide_energy>  (1) 
-58.813556554744224

>  <r_i_glide_erotb>  (1) 
0.70459601099453772

>  <r_i_glide_esite>  (1) 
0

>  <r_i_glide_evdw>  (1) 
-51.367174826184367

>  <r_i_glide_gscore>  (1) 
-8.3565245181462675

>  <r_i_glide_gscore_strain>  (1) 
0

>  <r_i_glide_hbond>  (1) 
-0.32000000000000001

>  <r_i_glide_ligand_efficiency>  (1) 
-0.23212568105961853

>  <r_i_glide_ligand_efficiency_ln>  (1) 
-1.8231678826576505

>  <r_i_glide_ligand_efficiency_sa>  (1) 
-0.76646211145897791

>  <r_i_glide_lipo>  (1) 
-3.210421329814535

>  <r_i_glide_metal>  (1) 
-0

>  <r_i_glide_rewards>  (1) 
-1.8453831987330722

>  <r_lp_Energy>  (1) 
59.581189999999999

>  <r_lp_tautomer_probability>  (1) 
1

>  <s_epik_Chemistry_Notes>  (1) 
This compound has an imine and may undergo hydrolysis. This compound contains an acetal/aminal-like group ( X-CH(R)-Y where X, Y are N, S, or O) that may be acid/base labile, releasing an aldehyde.

>  <s_epik_cmdline>  (1) 
J2VwaWtfcHl0aG9uJywgJy1waHQnLCAnMS4wJywgJy1waCcsICc3LjQnLCAnLXRuJywgJzgnLCAnLW1hJywgJzUwMCcsICctaW1hZScsICc8aW5maWxlLm1hZT4nLCAnLW9tYWUnLCAnPG91dGZpbGUubWFlPic=

>  <s_epik_input>  (1) 
W0NIM11bQ0gyXVNDMT1bQ0hdW05IXVtDSDJdW05IXUMoPU8pW0NAQF0xKFtDSDNdKVtDSDJdW0NIMl1bQ0BASF0yT1tDQEhdMmMzW2NIXWMoW2NIXVtjSF1bY0hdMylbQ0BIXShbQ0gyXVtPSF0pT2M0W2NIXVtjSF1jKFtjSF1bY0hdNClDKD1PKVtOSDJd

>  <s_glide_docking_method>  (1) 
confgen

>  <s_i_glide_gridfile>  (1) 
gpcr_5ht2c_6bqh_protein_autoprepared_prepared

>  <s_lp_Force_Field>  (1) 
S-OPLS

>  <s_lp_Variant>  (1) 
DiffSBDD_22-2

>  <s_m_source_file>  (1) 
generated_GPCR_5HT2C_ligand_DiffSBDD_2026-06-23_prepared.sdf

>  <GenAI_Model>  (1) 
DiffSBDD

>  <Protein>  (1) 
GPCR_5HT2C

$$$$
DiffSBDD_16
     RDKit          3D

  0  0  0  0  0  0  0  0  0  0999 V3000
M  V30 BEGIN CTAB
M  V30 COUNTS 73 79 0 0 1
M  V30 BEGIN ATOM
M  V30 1 C 37.971935 35.802275 60.902030 0
M  V30 2 C 39.762802 31.438478 62.713075 0
M  V30 3 C 38.515421 31.258705 55.751869 0 CFG=2
M  V30 4 C 39.521867 35.714183 62.957167 0 CFG=2
M  V30 5 C 38.824668 32.501443 58.106476 0
M  V30 6 C 40.700531 29.864574 66.195885 0
M  V30 7 C 38.706666 29.345658 53.411048 0 CFG=2
M  V30 8 N 38.796263 28.350034 54.519292 0
M  V30 9 C 37.667337 29.989824 56.026674 0 CFG=1
M  V30 10 F 37.305783 37.817408 60.011251 0
M  V30 11 C 38.939819 37.845048 61.767771 0
M  V30 12 C 41.735128 31.835392 64.958467 0 CFG=2
M  V30 13 C 39.645148 37.204598 62.710558 0
M  V30 14 O 38.962368 30.730668 62.115757 0
M  V30 15 C 39.643393 26.632598 52.799816 0
M  V30 16 C 39.483656 27.070524 54.257306 0
M  V30 17 C 38.736941 28.770009 51.980000 0
M  V30 18 O 40.711392 35.051695 63.354524 0
M  V30 19 O 36.445129 30.137750 55.367783 0
M  V30 20 C 38.321244 28.611995 55.768812 0
M  V30 21 C 38.045149 37.132886 60.891330 0
M  V30 22 C 42.637311 30.756749 64.361827 0 CFG=1
M  V30 23 C 43.088908 31.459814 65.536590 0 CFG=2
M  V30 24 C 42.136790 29.295270 66.437583 0
M  V30 25 C 39.859597 30.998050 55.050887 0
M  V30 26 C 40.671545 33.672205 63.455092 0
M  V30 27 C 40.627082 31.399986 65.914795 0
M  V30 28 C 38.684613 31.997207 57.007770 0
M  V30 29 C 38.155997 32.947894 60.551481 0
M  V30 30 C 38.775817 35.010798 61.835015 0
M  V30 31 C 38.872803 33.667920 61.711713 0
M  V30 32 C 43.174547 29.951056 65.534002 0 CFG=1
M  V30 33 O 38.406352 27.798435 56.691214 0
M  V30 34 C 39.834628 27.744776 51.771874 0
M  V30 35 N 41.602379 33.183151 64.409436 0
M  V30 36 C 39.703909 30.510077 53.599834 0
M  V30 37 C 39.167237 33.059204 59.411551 0
M  V30 38 C 39.785538 32.949866 62.656429 0
M  V30 39 H 37.318082 35.322566 60.198647 0
M  V30 40 H 40.504880 30.992815 63.331557 0
M  V30 41 H 37.952815 31.949261 55.119587 0
M  V30 42 H 38.856365 35.737169 63.813994 0
M  V30 43 H 40.049002 29.602400 67.030105 0
M  V30 44 H 40.281432 29.350447 65.331097 0
M  V30 45 H 37.718848 29.791422 53.425969 0
M  V30 46 H 37.368648 29.951294 57.077432 0
M  V30 47 H 39.054430 38.910953 61.652459 0
M  V30 48 H 40.316149 37.753704 63.353159 0
M  V30 49 H 40.436681 25.886459 52.727663 0
M  V30 50 H 38.709389 26.137798 52.567367 0
M  V30 51 H 40.445012 27.090274 54.762676 0
M  V30 52 H 38.942713 26.265914 54.759283 0
M  V30 53 H 38.844969 29.570167 51.246679 0
M  V30 54 H 37.776647 28.295311 51.767554 0
M  V30 55 H 35.962788 30.807939 55.868820 0
M  V30 56 H 43.244686 30.948004 63.479178 0
M  V30 57 H 43.974827 32.068923 65.379507 0
M  V30 58 H 42.432135 29.466641 67.472811 0
M  V30 59 H 42.148275 28.216271 66.280911 0
M  V30 60 H 40.445027 30.280862 55.623949 0
M  V30 61 H 40.444981 31.910845 55.050136 0
M  V30 62 H 40.741653 31.952590 66.848149 0
M  V30 63 H 39.648545 31.659747 65.515304 0
M  V30 64 H 37.197422 33.385107 60.292588 0
M  V30 65 H 37.827539 31.929078 60.679868 0
M  V30 66 H 44.160502 29.493702 65.473605 0
M  V30 67 H 40.817480 28.211512 51.815760 0
M  V30 68 H 39.760977 27.326963 50.766507 0
M  V30 69 H 42.170461 33.877800 64.872909 0
M  V30 70 H 40.682723 30.220552 53.230577 0
M  V30 71 H 39.390901 31.346532 52.973325 0
M  V30 72 H 40.045137 32.537991 59.767729 0
M  V30 73 H 39.467022 34.092987 59.239194 0
M  V30 END ATOM
M  V30 BEGIN BOND
M  V30 1 1 8 7
M  V30 2 1 9 3
M  V30 3 1 13 4
M  V30 4 2 13 11
M  V30 5 2 14 2
M  V30 6 1 16 8
M  V30 7 1 16 15
M  V30 8 1 17 7
M  V30 9 1 18 4
M  V30 10 1 19 9
M  V30 11 1 20 8
M  V30 12 1 20 9
M  V30 13 2 21 1
M  V30 14 1 21 10
M  V30 15 1 21 11
M  V30 16 1 22 12
M  V30 17 1 23 12
M  V30 18 1 23 22
M  V30 19 1 24 6
M  V30 20 1 25 3
M  V30 21 1 26 18
M  V30 22 1 27 6
M  V30 23 1 27 12
M  V30 24 1 28 3
M  V30 25 3 28 5
M  V30 26 1 30 1
M  V30 27 1 30 4
M  V30 28 1 31 29
M  V30 29 2 31 30
M  V30 30 1 32 22
M  V30 31 1 32 23
M  V30 32 1 32 24
M  V30 33 2 33 20
M  V30 34 1 34 15
M  V30 35 1 34 17
M  V30 36 1 12 35 CFG=3
M  V30 37 1 35 26
M  V30 38 1 36 7
M  V30 39 1 36 25
M  V30 40 1 37 5
M  V30 41 1 37 29
M  V30 42 1 38 2
M  V30 43 2 38 26
M  V30 44 1 38 31
M  V30 45 1 39 1
M  V30 46 1 40 2
M  V30 47 1 3 41 CFG=3
M  V30 48 1 4 42 CFG=1
M  V30 49 1 43 6
M  V30 50 1 44 6
M  V30 51 1 7 45 CFG=1
M  V30 52 1 9 46 CFG=1
M  V30 53 1 47 11
M  V30 54 1 48 13
M  V30 55 1 49 15
M  V30 56 1 50 15
M  V30 57 1 51 16
M  V30 58 1 52 16
M  V30 59 1 53 17
M  V30 60 1 54 17
M  V30 61 1 55 19
M  V30 62 1 22 56 CFG=3
M  V30 63 1 23 57 CFG=3
M  V30 64 1 58 24
M  V30 65 1 59 24
M  V30 66 1 60 25
M  V30 67 1 61 25
M  V30 68 1 62 27
M  V30 69 1 63 27
M  V30 70 1 64 29
M  V30 71 1 65 29
M  V30 72 1 32 66 CFG=3
M  V30 73 1 67 34
M  V30 74 1 68 34
M  V30 75 1 69 35
M  V30 76 1 70 36
M  V30 77 1 71 36
M  V30 78 1 72 37
M  V30 79 1 73 37
M  V30 END BOND
M  V30 END CTAB
M  END
>  <i_epik_Tot_Q>  (1) 
0

>  <i_epik_Tot_abs_Q>  (1) 
0

>  <i_i_glide_confnum>  (1) 
19

>  <i_i_glide_lignum>  (1) 
33

>  <i_i_glide_posenum>  (1) 
332

>  <i_i_glide_rotatable_bonds>  (1) 
8

>  <i_lp_mmshare_version>  (1) 
72125

>  <i_m_source_file_index>  (1) 
17

>  <i_f3d_flags>  (1) 
0

>  <num_sample>  (1) 
50

>  <b_lp_Chiralities_Consistent>  (1) 
1

>  <r_epik_Charging_Adjusted_Penalty>  (1) 
0

>  <r_epik_Ionization_Penalty>  (1) 
0.0025850422907693063

>  <r_epik_Ionization_Penalty_Charging>  (1) 
0

>  <r_epik_Ionization_Penalty_Neutral>  (1) 
0.0025850422907693063

>  <r_epik_State_Penalty>  (1) 
-0

>  <r_glide_ring_energy>  (1) 
1.1523545681465099

>  <r_i_docking_score>  (1) 
-8.3522016791323992

>  <r_i_glide_ecoul>  (1) 
-5.7280826736502233

>  <r_i_glide_eff_state_penalty>  (1) 
-0

>  <r_i_glide_einternal>  (1) 
8.4382792311415287

>  <r_i_glide_emodel>  (1) 
-46.313520229714115

>  <r_i_glide_emodel_strain>  (1) 
0.82057124855393226

>  <r_i_glide_energy>  (1) 
-41.04926028727396

>  <r_i_glide_erotb>  (1) 
0.45816569176433508

>  <r_i_glide_esite>  (1) 
0

>  <r_i_glide_evdw>  (1) 
-35.321177613623739

>  <r_i_glide_gscore>  (1) 
-8.3522016791323992

>  <r_i_glide_gscore_strain>  (1) 
0

>  <r_i_glide_hbond>  (1) 
-0.16

>  <r_i_glide_ligand_efficiency>  (1) 
-0.21979478102979999

>  <r_i_glide_ligand_efficiency_ln>  (1) 
-1.8009803789015044

>  <r_i_glide_ligand_efficiency_sa>  (1) 
-0.738944648364951

>  <r_i_glide_lipo>  (1) 
-4.4095622067281717

>  <r_i_glide_metal>  (1) 
-0

>  <r_i_glide_rewards>  (1) 
-1.6155338824398431

>  <r_lp_Energy>  (1) 
67.772257999999994

>  <r_lp_tautomer_probability>  (1) 
1

>  <s_epik_cmdline>  (1) 
J2VwaWtfcHl0aG9uJywgJy1waHQnLCAnMS4wJywgJy1waCcsICc3LjQnLCAnLXRuJywgJzgnLCAnLW1hJywgJzUwMCcsICctaW1hZScsICc8aW5maWxlLm1hZT4nLCAnLW9tYWUnLCAnPG91dGZpbGUubWFlPic=

>  <s_epik_input>  (1) 
W0NIMl0xW0NIMl1bQ0gyXVtDQEBIXTJbQ0BIXTNbQ0BASF0yW0NAQF0xM1tOSF1DKE80KT1DKFtDSF09TylDKD1DKFtDQEhdNDUpW0NIXT1DKEYpW0NIXT1bQ0hdNSlbQ0gyXVtDSDJdQyNDW0NAQEhdKFtDSDJdW0NIMl02KVtDQEBIXShbT0hdKUMoPU8pTihbQ0BASF02NylbQ0gyXVtDSDJdW0NIMl1bQ0gyXTc=

>  <s_glide_docking_method>  (1) 
confgen

>  <s_i_glide_gridfile>  (1) 
gpcr_5ht2c_6bqh_protein_autoprepared_prepared

>  <s_lp_Force_Field>  (1) 
S-OPLS

>  <s_lp_Variant>  (1) 
DiffSBDD_16-2

>  <s_m_source_file>  (1) 
generated_GPCR_5HT2C_ligand_DiffSBDD_2026-06-23_prepared.sdf

>  <GenAI_Model>  (1) 
DiffSBDD

>  <Protein>  (1) 
GPCR_5HT2C

$$$$
DiffSBDD_26
     RDKit          3D

  0  0  0  0  0  0  0  0  0  0999 V3000
M  V30 BEGIN CTAB
M  V30 COUNTS 84 87 0 0 1
M  V30 BEGIN ATOM
M  V30 1 C 38.349987 34.108467 61.110743 0
M  V30 2 C 39.943598 29.932054 52.027412 0
M  V30 3 C 38.022884 30.614052 56.177502 0
M  V30 4 C 38.696636 25.679869 55.535096 0
M  V30 5 N 38.552633 29.282913 56.444804 0
M  V30 6 O 39.580157 25.404126 57.767730 0
M  V30 7 C 38.665503 27.956566 53.116262 0
M  V30 8 C 39.147421 28.051279 54.578925 0 CFG=1
M  V30 9 N 36.620679 33.767590 59.249850 0 CFG=1 CHG=1
M  V30 10 N 38.815025 36.371008 62.109932 0
M  V30 11 C 38.390197 31.564191 57.326905 0
M  V30 12 C 41.126515 35.717806 62.946530 0
M  V30 13 C 39.774677 31.336947 51.473177 0
M  V30 14 C 38.175825 31.885903 59.903328 0
M  V30 15 C 38.754738 25.087716 56.915303 0
M  V30 16 O 36.949317 36.891682 63.339379 0
M  V30 17 C 37.816970 31.043361 58.662664 0
M  V30 18 C 38.162823 36.937749 63.160676 0
M  V30 19 C 36.845147 23.737771 56.225009 0
M  V30 20 C 36.811107 24.265760 55.023760 0
M  V30 21 C 37.748659 25.255207 54.669685 0
M  V30 22 C 40.263288 36.551514 61.977124 0
M  V30 23 O 38.045369 28.490863 55.360314 0
M  V30 24 C 34.199955 33.152449 59.367697 0
M  V30 25 C 36.629527 35.839186 60.794200 0
M  V30 26 C 39.729038 26.741863 55.159036 0
M  V30 27 C 37.924345 28.729613 57.639744 0
M  V30 28 C 35.427933 33.676071 60.073861 0 CFG=2
M  V30 29 C 38.273955 29.588040 58.861791 0
M  V30 30 C 38.597060 29.301699 52.394271 0
M  V30 31 C 35.995349 35.022715 59.681138 0 CFG=2
M  V30 32 C 37.970104 33.407769 59.785605 0 CFG=2
M  V30 33 C 40.727752 29.110448 51.005688 0
M  V30 34 C 38.133164 35.621548 61.010724 0 CFG=2
M  V30 35 O 41.831927 35.474239 65.143516 0
M  V30 36 O 40.714473 35.852896 64.293556 0
M  V30 37 N 37.794817 24.137756 57.168185 0
M  V30 38 H 39.397097 33.895496 61.323695 0
M  V30 39 H 37.785891 33.696066 61.946804 0
M  V30 40 H 40.527359 30.039703 52.936176 0
M  V30 41 H 36.941161 30.548511 56.048100 0
M  V30 42 H 38.436846 30.987987 55.240778 0
M  V30 43 H 37.768606 23.689892 58.072671 0
M  V30 44 H 39.269024 27.248853 52.548878 0
M  V30 45 H 37.643937 27.583367 53.095417 0
M  V30 46 H 39.944365 28.794210 54.612922 0
M  V30 47 H 37.994223 32.551969 57.092391 0
M  V30 48 H 39.473877 31.664837 57.367644 0
M  V30 49 H 42.154848 36.066856 62.844950 0
M  V30 50 H 41.120502 34.661512 62.677261 0
M  V30 51 H 39.245191 31.344296 50.519752 0
M  V30 52 H 39.245165 31.984584 52.172541 0
M  V30 53 H 40.765191 31.737752 51.301009 0
M  V30 54 H 39.221556 31.706416 60.158096 0
M  V30 55 H 37.599620 31.510867 60.750833 0
M  V30 56 H 36.730705 31.033900 58.568323 0
M  V30 57 H 38.869896 37.449876 63.831861 0
M  V30 58 H 36.168961 22.971258 56.567718 0
M  V30 59 H 36.071324 23.942575 54.310340 0
M  V30 60 H 37.711002 25.666408 53.682824 0
M  V30 61 H 40.445293 37.614885 62.126523 0
M  V30 62 H 40.599344 36.338582 60.965262 0
M  V30 63 H 33.321627 33.336060 59.987587 0
M  V30 64 H 34.045175 33.685002 58.431366 0
M  V30 65 H 34.287855 32.083292 59.169879 0
M  V30 66 H 36.093319 35.517529 61.685442 0
M  V30 67 H 36.415832 36.896433 60.632430 0
M  V30 68 H 40.438577 26.302013 54.457949 0
M  V30 69 H 40.322977 27.007116 56.033664 0
M  V30 70 H 36.845149 28.686642 57.512762 0
M  V30 71 H 38.272519 27.710648 57.795609 0
M  V30 72 H 35.653404 33.248524 61.048435 0
M  V30 73 H 39.350828 29.548366 59.032715 0
M  V30 74 H 37.802170 29.165160 59.749167 0
M  V30 75 H 38.019456 29.170142 51.480262 0
M  V30 76 H 38.045147 29.985794 53.035440 0
M  V30 77 H 35.594980 35.555405 58.821368 0
M  V30 78 H 38.673787 33.766430 59.033719 0
M  V30 79 H 40.154500 28.955510 50.090375 0
M  V30 80 H 41.645119 29.637107 50.740449 0
M  V30 81 H 41.001784 28.137851 51.402857 0
M  V30 82 H 38.608768 35.972788 60.098443 0
M  V30 83 H 42.230182 36.324565 65.287562 0
M  V30 84 H 36.421729 33.485903 58.296564 0
M  V30 END ATOM
M  V30 BEGIN BOND
M  V30 1 1 5 3
M  V30 2 1 8 7
M  V30 3 1 11 3
M  V30 4 1 13 2
M  V30 5 1 15 4
M  V30 6 2 15 6
M  V30 7 1 17 11
M  V30 8 1 17 14
M  V30 9 1 18 10
M  V30 10 2 18 16
M  V30 11 2 20 19
M  V30 12 2 21 4
M  V30 13 1 21 20
M  V30 14 1 22 10
M  V30 15 1 22 12
M  V30 16 1 23 5
M  V30 17 1 23 8
M  V30 18 1 26 4
M  V30 19 1 26 8
M  V30 20 1 27 5
M  V30 21 1 28 9
M  V30 22 1 28 24
M  V30 23 1 29 17
M  V30 24 1 29 27
M  V30 25 1 30 2
M  V30 26 1 30 7
M  V30 27 1 31 9
M  V30 28 1 31 25
M  V30 29 1 31 28
M  V30 30 1 32 1
M  V30 31 1 32 9
M  V30 32 1 32 14
M  V30 33 1 33 2
M  V30 34 1 34 1
M  V30 35 1 34 10
M  V30 36 1 34 25
M  V30 37 1 36 12
M  V30 38 1 36 35
M  V30 39 1 37 15
M  V30 40 1 37 19
M  V30 41 1 38 1
M  V30 42 1 39 1
M  V30 43 1 40 2
M  V30 44 1 41 3
M  V30 45 1 42 3
M  V30 46 1 43 37
M  V30 47 1 44 7
M  V30 48 1 45 7
M  V30 49 1 8 46 CFG=3
M  V30 50 1 47 11
M  V30 51 1 48 11
M  V30 52 1 49 12
M  V30 53 1 50 12
M  V30 54 1 51 13
M  V30 55 1 52 13
M  V30 56 1 53 13
M  V30 57 1 54 14
M  V30 58 1 55 14
M  V30 59 1 56 17
M  V30 60 1 57 18
M  V30 61 1 58 19
M  V30 62 1 59 20
M  V30 63 1 60 21
M  V30 64 1 61 22
M  V30 65 1 62 22
M  V30 66 1 63 24
M  V30 67 1 64 24
M  V30 68 1 65 24
M  V30 69 1 66 25
M  V30 70 1 67 25
M  V30 71 1 68 26
M  V30 72 1 69 26
M  V30 73 1 70 27
M  V30 74 1 71 27
M  V30 75 1 28 72 CFG=1
M  V30 76 1 73 29
M  V30 77 1 74 29
M  V30 78 1 75 30
M  V30 79 1 76 30
M  V30 80 1 31 77 CFG=3
M  V30 81 1 32 78 CFG=3
M  V30 82 1 79 33
M  V30 83 1 80 33
M  V30 84 1 81 33
M  V30 85 1 34 82 CFG=3
M  V30 86 1 83 35
M  V30 87 1 9 84 CFG=3
M  V30 END BOND
M  V30 END CTAB
M  END
>  <i_epik_Tot_Q>  (1) 
1

>  <i_epik_Tot_abs_Q>  (1) 
1

>  <i_i_glide_confnum>  (1) 
496

>  <i_i_glide_lignum>  (1) 
58

>  <i_i_glide_posenum>  (1) 
399

>  <i_i_glide_rotatable_bonds>  (1) 
15

>  <i_lp_mmshare_version>  (1) 
72125

>  <i_m_source_file_index>  (1) 
27

>  <i_f3d_flags>  (1) 
0

>  <num_sample>  (1) 
50

>  <b_lp_Chiralities_Consistent>  (1) 
1

>  <r_epik_Charging_Adjusted_Penalty>  (1) 
0.02425622639956965

>  <r_epik_Ionization_Penalty>  (1) 
0.033094864685368548

>  <r_epik_Ionization_Penalty_Charging>  (1) 
0.02425622639956965

>  <r_epik_Ionization_Penalty_Neutral>  (1) 
0.0088386382857988978

>  <r_epik_State_Penalty>  (1) 
-0

>  <r_glide_ring_energy>  (1) 
0

>  <r_i_docking_score>  (1) 
-8.32562468161235

>  <r_i_glide_ecoul>  (1) 
-4.4652512043457744

>  <r_i_glide_eff_state_penalty>  (1) 
-0

>  <r_i_glide_einternal>  (1) 
12.090782692644702

>  <r_i_glide_emodel>  (1) 
-62.797763263527031

>  <r_i_glide_emodel_strain>  (1) 
4.3085491661199171

>  <r_i_glide_energy>  (1) 
-50.940523470658086

>  <r_i_glide_erotb>  (1) 
0.83677420797818713

>  <r_i_glide_esite>  (1) 
-0.088209750161186401

>  <r_i_glide_evdw>  (1) 
-46.475272266312309

>  <r_i_glide_gscore>  (1) 
-8.32562468161235

>  <r_i_glide_gscore_strain>  (1) 
0.077137291529979279

>  <r_i_glide_hbond>  (1) 
-0.22827340615997813

>  <r_i_glide_ligand_efficiency>  (1) 
-0.22501688328682026

>  <r_i_glide_ligand_efficiency_ln>  (1) 
-1.8056328131068056

>  <r_i_glide_ligand_efficiency_sa>  (1) 
-0.74980617547760975

>  <r_i_glide_lipo>  (1) 
-4.3901903654368821

>  <r_i_glide_metal>  (1) 
-0

>  <r_i_glide_rewards>  (1) 
-1.5393113653949877

>  <r_lp_Energy>  (1) 
54.376549999999995

>  <r_lp_tautomer_probability>  (1) 
1

>  <s_epik_Chemistry_Notes>  (1) 
This compound has a N-S or N-O group and may undergo hydrolysis at high or low pH.

>  <s_epik_cmdline>  (1) 
J2VwaWtfcHl0aG9uJywgJy1waHQnLCAnMS4wJywgJy1waCcsICc3LjQnLCAnLXRuJywgJzgnLCAnLW1hJywgJzUwMCcsICctaW1hZScsICc8aW5maWxlLm1hZT4nLCAnLW9tYWUnLCAnPG91dGZpbGUubWFlPic=

>  <s_epik_input>  (1) 
W09IXU9bQ0gyXVtDSDJdTihbQ0hdPU8pW0NASF0oW0NIMl1bQ0BASF0oTjEyKVtDQEhdMVtDSDNdKVtDSDJdW0NASF0yW0NIMl1bQ0hdKFtDSDJdW0NIMl0zKVtDSDJdW0NIMl1OM09bQ0BIXShbQ0gyXVtDSDJdW0NIXShbQ0gzXSlbQ0gzXSlbQ0gyXVtDQEBIXTRDKD1PKU49W0NIXVtDSF09W0NIXTQ=

>  <s_glide_docking_method>  (1) 
confgen

>  <s_i_glide_gridfile>  (1) 
gpcr_5ht2c_6bqh_protein_autoprepared_prepared

>  <s_lp_Force_Field>  (1) 
S-OPLS

>  <s_lp_Variant>  (1) 
DiffSBDD_26-3

>  <s_m_source_file>  (1) 
generated_GPCR_5HT2C_ligand_DiffSBDD_2026-06-23_prepared.sdf

>  <GenAI_Model>  (1) 
DiffSBDD

>  <Protein>  (1) 
GPCR_5HT2C

$$$$
DiffSBDD_10
     RDKit          3D

  0  0  0  0  0  0  0  0  0  0999 V3000
M  V30 BEGIN CTAB
M  V30 COUNTS 64 66 0 0 1
M  V30 BEGIN ATOM
M  V30 1 C 38.070635 27.568821 56.881658 0
M  V30 2 C 39.122418 26.258781 55.112714 0
M  V30 3 C 38.110235 31.505475 54.848798 0
M  V30 4 C 39.378216 28.219571 50.469713 0
M  V30 5 C 38.439814 35.494177 61.767954 0
M  V30 6 C 40.334214 30.429080 50.796866 0
M  V30 7 C 39.380992 25.599738 57.438792 0
M  V30 8 O 37.576858 29.421514 59.766265 0
M  V30 9 F 38.355947 27.067972 52.258981 0
M  V30 10 S 39.490720 31.520436 61.662606 0
M  V30 11 C 39.736267 37.631889 62.156807 0
M  V30 12 C 39.550305 33.322795 61.820595 0
M  V30 13 C 39.672121 36.125256 62.039324 0
M  V30 14 C 38.966806 32.064465 57.238401 0
M  V30 15 C 38.594323 26.689835 57.842565 0
M  V30 16 S 38.734041 30.184868 59.288747 0
M  V30 17 C 38.226181 32.533840 55.992816 0 CFG=1
M  V30 18 O 38.445360 31.026232 62.568047 0
M  V30 19 O 39.943390 29.450171 58.887039 0
M  V30 20 C 38.977630 28.173000 51.805230 0
M  V30 21 C 38.370131 34.092502 61.659744 0
M  V30 22 N 38.844928 29.258830 54.042251 0
M  V30 23 C 38.584519 33.925641 55.528218 0
M  V30 24 C 39.638514 25.379493 56.076543 0
M  V30 25 C 40.844638 35.352028 62.200668 0
M  V30 26 C 40.045614 29.342971 49.961712 0
M  V30 27 C 40.784330 33.947055 62.089541 0
M  V30 28 C 38.338950 27.358724 55.513852 0
M  V30 29 C 39.185621 30.404595 54.870211 0
M  V30 30 C 39.245494 29.276396 52.670336 0
M  V30 31 C 37.803039 28.328191 54.484751 0
M  V30 32 N 38.170967 31.015992 57.892514 0
M  V30 33 Cl 36.840989 33.336835 61.342322 0
M  V30 34 O 40.865867 31.021429 61.840626 0
M  V30 35 C 39.944771 30.402839 52.144890 0
M  V30 36 N 39.029846 31.511213 60.134476 0 CHG=-1
M  V30 37 H 37.472450 28.412303 57.192896 0
M  V30 38 H 39.333957 26.094227 54.070056 0
M  V30 39 H 38.107068 32.000257 53.877758 0
M  V30 40 H 37.121867 31.056721 54.934792 0
M  V30 41 H 39.170065 27.382682 49.824470 0
M  V30 42 H 37.545136 36.086118 61.645798 0
M  V30 43 H 40.856064 31.289594 50.402426 0
M  V30 44 H 39.789735 24.937355 58.171265 0
M  V30 45 H 40.045069 37.924879 63.160387 0
M  V30 46 H 40.445170 38.025653 61.429766 0
M  V30 47 H 38.767180 38.085663 61.950416 0
M  V30 48 H 39.952041 31.692149 56.967769 0
M  V30 49 H 39.102951 32.902259 57.924339 0
M  V30 50 H 38.399142 26.856616 58.892214 0
M  V30 51 H 37.244993 32.710903 56.365027 0
M  V30 52 H 39.645161 34.041573 55.367740 0
M  V30 53 H 38.044971 34.143599 54.612035 0
M  V30 54 H 38.270467 34.654879 56.269921 0
M  V30 55 H 40.237804 24.538932 55.772851 0
M  V30 56 H 41.787230 35.837392 62.407264 0
M  V30 57 H 40.346046 29.366374 48.925809 0
M  V30 58 H 41.679541 33.354674 62.208445 0
M  V30 59 H 39.246086 29.968268 55.863715 0
M  V30 60 H 40.190107 30.792281 54.706076 0
M  V30 61 H 37.171662 27.857995 53.740528 0
M  V30 62 H 37.067632 28.937746 55.005724 0
M  V30 63 H 37.162420 31.205859 57.902526 0
M  V30 64 H 40.169917 31.251303 52.767783 0
M  V30 END ATOM
M  V30 BEGIN BOND
M  V30 1 1 12 10
M  V30 2 2 13 5
M  V30 3 1 13 11
M  V30 4 1 15 1
M  V30 5 2 15 7
M  V30 6 2 16 8
M  V30 7 1 17 3
M  V30 8 1 17 14
M  V30 9 2 18 10
M  V30 10 2 19 16
M  V30 11 2 20 4
M  V30 12 1 20 9
M  V30 13 1 21 5
M  V30 14 2 21 12
M  V30 15 1 23 17
M  V30 16 2 24 2
M  V30 17 1 24 7
M  V30 18 1 25 13
M  V30 19 1 26 4
M  V30 20 2 26 6
M  V30 21 1 27 12
M  V30 22 2 27 25
M  V30 23 2 28 1
M  V30 24 1 28 2
M  V30 25 1 29 3
M  V30 26 1 29 22
M  V30 27 1 30 20
M  V30 28 1 30 22
M  V30 29 1 31 22
M  V30 30 1 31 28
M  V30 31 1 32 14
M  V30 32 1 32 16
M  V30 33 1 33 21
M  V30 34 2 34 10
M  V30 35 1 35 6
M  V30 36 2 35 30
M  V30 37 1 36 10
M  V30 38 1 36 16
M  V30 39 1 37 1
M  V30 40 1 38 2
M  V30 41 1 39 3
M  V30 42 1 40 3
M  V30 43 1 41 4
M  V30 44 1 42 5
M  V30 45 1 43 6
M  V30 46 1 44 7
M  V30 47 1 45 11
M  V30 48 1 46 11
M  V30 49 1 47 11
M  V30 50 1 48 14
M  V30 51 1 49 14
M  V30 52 1 50 15
M  V30 53 1 17 51 CFG=1
M  V30 54 1 52 23
M  V30 55 1 53 23
M  V30 56 1 54 23
M  V30 57 1 55 24
M  V30 58 1 56 25
M  V30 59 1 57 26
M  V30 60 1 58 27
M  V30 61 1 59 29
M  V30 62 1 60 29
M  V30 63 1 61 31
M  V30 64 1 62 31
M  V30 65 1 63 32
M  V30 66 1 64 35
M  V30 END BOND
M  V30 END CTAB
M  END
>  <i_epik_Tot_Q>  (1) 
-1

>  <i_epik_Tot_abs_Q>  (1) 
1

>  <i_i_glide_confnum>  (1) 
6271

>  <i_i_glide_lignum>  (1) 
21

>  <i_i_glide_posenum>  (1) 
68

>  <i_i_glide_rotatable_bonds>  (1) 
12

>  <i_lp_mmshare_version>  (1) 
72125

>  <i_m_source_file_index>  (1) 
11

>  <i_f3d_flags>  (1) 
0

>  <num_sample>  (1) 
50

>  <b_lp_Chiralities_Consistent>  (1) 
1

>  <r_epik_Charging_Adjusted_Penalty>  (1) 
1.043230994850219

>  <r_epik_Ionization_Penalty>  (1) 
0.22830841385829601

>  <r_epik_Ionization_Penalty_Charging>  (1) 
0.22543841040968138

>  <r_epik_Ionization_Penalty_Neutral>  (1) 
0.0028700034486146327

>  <r_epik_State_Penalty>  (1) 
0.81779258444053771

>  <r_glide_ring_energy>  (1) 
0

>  <r_i_docking_score>  (1) 
-8.3163726867834988

>  <r_i_glide_ecoul>  (1) 
-5.6384707088517567

>  <r_i_glide_eff_state_penalty>  (1) 
0.81779258444053771

>  <r_i_glide_einternal>  (1) 
8.7640913269213954

>  <r_i_glide_emodel>  (1) 
-78.618600303825957

>  <r_i_glide_emodel_strain>  (1) 
3.659869346605781

>  <r_i_glide_energy>  (1) 
-56.12882052785416

>  <r_i_glide_erotb>  (1) 
0.74186158489162179

>  <r_i_glide_esite>  (1) 
-0.089334388730686734

>  <r_i_glide_evdw>  (1) 
-50.490349819002404

>  <r_i_glide_gscore>  (1) 
-9.1341652712240364

>  <r_i_glide_gscore_strain>  (1) 
0

>  <r_i_glide_hbond>  (1) 
-0.1043523153248444

>  <r_i_glide_ligand_efficiency>  (1) 
-0.23101035241065274

>  <r_i_glide_ligand_efficiency_ln>  (1) 
-1.8144078378314163

>  <r_i_glide_ligand_efficiency_sa>  (1) 
-0.76277937740148494

>  <r_i_glide_lipo>  (1) 
-5.2479325724765662

>  <r_i_glide_metal>  (1) 
-0

>  <r_i_glide_rewards>  (1) 
-1.0641194823056754

>  <r_lp_Energy>  (1) 
36.709097

>  <s_epik_cmdline>  (1) 
J2VwaWtfcHl0aG9uJywgJy1waHQnLCAnMS4wJywgJy1waCcsICc3LjQnLCAnLXRuJywgJzgnLCAnLW1hJywgJzUwMCcsICctaW1hZScsICc8aW5maWxlLm1hZT4nLCAnLW9tYWUnLCAnPG91dGZpbGUubWFlPic=

>  <s_epik_input>  (1) 
W2NIXTFbY0hdW2NIXVtjSF1bY0hdYzFbQ0gyXU4oYzJbY0hdW2NIXVtjSF1bY0hdYzJGKVtDSDJdW0NIMl1bQ0BIXShbQ0gzXSlbQ0gyXVtOSF1TKD1PKSg9TylbTkhdUyg9TykoPU8pYzNjKENsKVtjSF1jKFtDSDNdKVtjSF1bY0hdMw==

>  <s_glide_docking_method>  (1) 
confgen

>  <s_i_glide_gridfile>  (1) 
gpcr_5ht2c_6bqh_protein_autoprepared_prepared

>  <s_lp_Force_Field>  (1) 
S-OPLS

>  <s_lp_Variant>  (1) 
DiffSBDD_10-2

>  <s_m_source_file>  (1) 
generated_GPCR_5HT2C_ligand_DiffSBDD_2026-06-23_prepared.sdf

>  <GenAI_Model>  (1) 
DiffSBDD

>  <Protein>  (1) 
GPCR_5HT2C

$$$$
DiffSBDD_17
     RDKit          3D

  0  0  0  0  0  0  0  0  0  0999 V3000
M  V30 BEGIN CTAB
M  V30 COUNTS 94 98 0 0 1
M  V30 BEGIN ATOM
M  V30 1 C 42.417445 31.578507 68.801633 0
M  V30 2 C 38.837225 33.218807 61.682186 0 CFG=2
M  V30 3 C 40.950071 30.874277 66.861080 0
M  V30 4 O 42.154625 34.587868 64.567844 0
M  V30 5 C 43.204121 32.093383 66.478499 0
M  V30 6 C 38.453293 28.491151 54.949860 0
M  V30 7 C 39.562908 26.282181 54.568925 0
M  V30 8 C 38.839819 27.486655 54.157361 0
M  V30 9 C 36.763744 35.070592 59.785417 0
M  V30 10 C 38.851175 37.043838 61.462435 0
M  V30 11 N 41.496367 28.748007 65.695732 0
M  V30 12 C 38.262303 35.755036 61.977106 0 CFG=2
M  V30 13 C 40.964221 30.731884 64.231552 0 CFG=1
M  V30 14 C 40.351784 32.851786 61.717464 0
M  V30 15 N 41.289715 27.833405 64.552096 0 CHG=1
M  V30 16 C 37.504810 30.510922 55.444149 0 CFG=2
M  V30 17 C 38.729619 28.646990 56.394508 0 CFG=2
M  V30 18 C 41.176587 26.585477 66.605622 0
M  V30 19 C 40.703173 29.994068 65.593684 0 CFG=2
M  V30 20 O 37.769166 29.551476 54.433385 0
M  V30 21 C 40.838435 26.542998 65.107390 0
M  V30 22 O 40.045169 30.226689 63.280202 0
M  V30 23 N 37.245134 31.435659 58.567774 0 CHG=1
M  V30 24 C 38.619836 27.475916 57.313493 0
M  V30 25 C 37.993662 32.218598 60.815340 0
M  V30 26 C 39.650454 25.740998 55.818510 0
M  V30 27 N 38.620404 34.597960 61.172774 0 CFG=2 CHG=1
M  V30 28 C 41.247406 34.480330 63.497107 0
M  V30 29 S 38.445159 32.050979 55.223599 0
M  V30 30 C 41.130553 33.007766 63.061787 0 CFG=1
M  V30 31 C 39.049007 26.231404 57.064680 0
M  V30 32 N 40.616976 32.183672 64.199068 0 CHG=1
M  V30 33 C 37.215344 34.971677 61.220488 0 CFG=2
M  V30 34 C 38.322697 30.618165 57.978991 0
M  V30 35 C 36.492785 33.662885 59.220130 0
M  V30 36 C 37.791423 29.784476 56.787860 0 CFG=1
M  V30 37 C 37.653476 32.629939 59.339835 0 CFG=2
M  V30 38 N 41.244080 28.014867 66.957018 0 CHG=1
M  V30 39 C 42.410921 31.102482 67.339534 0
M  V30 40 H 41.894174 32.528767 68.913755 0
M  V30 41 H 41.933730 30.856202 69.460061 0
M  V30 42 H 43.435522 31.718546 69.168008 0
M  V30 43 H 38.458728 33.140024 62.698995 0
M  V30 44 H 40.445246 31.835317 66.767011 0
M  V30 45 H 40.414938 30.401253 67.685282 0
M  V30 46 H 42.286656 35.507198 64.769572 0
M  V30 47 H 42.769767 33.090000 66.537044 0
M  V30 48 H 44.232593 32.175821 66.833180 0
M  V30 49 H 43.256691 31.794157 65.434314 0
M  V30 50 H 40.044255 25.727749 53.778199 0
M  V30 51 H 38.596950 27.573487 53.107916 0
M  V30 52 H 37.496480 35.596886 59.174893 0
M  V30 53 H 35.848622 35.662248 59.743406 0
M  V30 54 H 38.630283 37.848286 62.162379 0
M  V30 55 H 39.934705 36.959100 61.369403 0
M  V30 56 H 38.420261 37.311835 60.500081 0
M  V30 57 H 38.445139 35.551876 63.021555 0
M  V30 58 H 41.992339 30.594832 63.891737 0
M  V30 59 H 40.861838 33.451529 60.967751 0
M  V30 60 H 40.500579 31.831787 61.366605 0
M  V30 61 H 40.602018 28.236002 63.927401 0
M  V30 62 H 36.447330 30.757442 55.367738 0
M  V30 63 H 39.758683 29.004999 56.460789 0
M  V30 64 H 42.157579 26.139728 66.778076 0
M  V30 65 H 40.451760 26.051333 67.221710 0
M  V30 66 H 39.645023 29.726692 65.628188 0
M  V30 67 H 41.299288 25.697724 64.594081 0
M  V30 68 H 39.760023 26.466447 64.967759 0
M  V30 69 H 39.286518 29.852322 63.716816 0
M  V30 70 H 36.651380 30.849532 59.134902 0
M  V30 71 H 38.199683 27.685134 58.285812 0
M  V30 72 H 38.478938 31.242173 60.826667 0
M  V30 73 H 37.047462 32.037594 61.328420 0
M  V30 74 H 40.192633 24.811274 55.892043 0
M  V30 75 H 40.295203 34.881189 63.829952 0
M  V30 76 H 41.602262 35.104620 62.675146 0
M  V30 77 H 37.773580 32.466326 54.144712 0
M  V30 78 H 42.150948 32.672881 62.866360 0
M  V30 79 H 38.949955 25.515836 57.868184 0
M  V30 80 H 41.076952 32.598340 65.001905 0
M  V30 81 H 36.589245 34.338185 61.846484 0
M  V30 82 H 39.181479 31.222667 57.690751 0
M  V30 83 H 38.687527 29.956663 58.763801 0
M  V30 84 H 36.231811 33.783057 58.167764 0
M  V30 85 H 35.597324 33.257096 59.694413 0
M  V30 86 H 36.845124 29.337642 57.093902 0
M  V30 87 H 38.535467 33.052459 58.855429 0
M  V30 88 H 41.998067 28.213357 67.602265 0
M  V30 89 H 42.956377 30.159792 67.328037 0
M  V30 90 H 42.184661 27.728756 64.089214 0
M  V30 91 H 40.359174 28.331056 67.336798 0
M  V30 92 H 36.636947 31.737811 57.794898 0
M  V30 93 H 39.625298 32.317972 64.315334 0
M  V30 94 H 39.017975 34.824074 60.271654 0
M  V30 END ATOM
M  V30 BEGIN BOND
M  V30 1 2 8 6
M  V30 2 1 8 7
M  V30 3 1 12 10
M  V30 4 1 14 2
M  V30 5 1 15 11
M  V30 6 1 17 6
M  V30 7 1 19 3
M  V30 8 1 19 11
M  V30 9 1 19 13
M  V30 10 1 20 6
M  V30 11 1 20 16
M  V30 12 1 21 15
M  V30 13 1 21 18
M  V30 14 1 22 13
M  V30 15 1 24 17
M  V30 16 1 25 2
M  V30 17 2 26 7
M  V30 18 1 27 2
M  V30 19 1 27 12
M  V30 20 1 28 4
M  V30 21 1 29 16
M  V30 22 1 30 14
M  V30 23 1 30 28
M  V30 24 2 31 24
M  V30 25 1 31 26
M  V30 26 1 32 13
M  V30 27 1 32 30
M  V30 28 1 33 9
M  V30 29 1 33 12
M  V30 30 1 33 27
M  V30 31 1 34 23
M  V30 32 1 35 9
M  V30 33 1 36 16
M  V30 34 1 36 17
M  V30 35 1 36 34
M  V30 36 1 37 23
M  V30 37 1 37 25
M  V30 38 1 37 35
M  V30 39 1 38 11
M  V30 40 1 38 18
M  V30 41 1 39 1
M  V30 42 1 39 3
M  V30 43 1 39 5
M  V30 44 1 40 1
M  V30 45 1 41 1
M  V30 46 1 42 1
M  V30 47 1 2 43 CFG=1
M  V30 48 1 44 3
M  V30 49 1 45 3
M  V30 50 1 46 4
M  V30 51 1 47 5
M  V30 52 1 48 5
M  V30 53 1 49 5
M  V30 54 1 50 7
M  V30 55 1 51 8
M  V30 56 1 52 9
M  V30 57 1 53 9
M  V30 58 1 54 10
M  V30 59 1 55 10
M  V30 60 1 56 10
M  V30 61 1 12 57 CFG=1
M  V30 62 1 13 58 CFG=3
M  V30 63 1 59 14
M  V30 64 1 60 14
M  V30 65 1 61 15
M  V30 66 1 16 62 CFG=1
M  V30 67 1 17 63 CFG=3
M  V30 68 1 64 18
M  V30 69 1 65 18
M  V30 70 1 19 66 CFG=3
M  V30 71 1 67 21
M  V30 72 1 68 21
M  V30 73 1 69 22
M  V30 74 1 70 23
M  V30 75 1 71 24
M  V30 76 1 72 25
M  V30 77 1 73 25
M  V30 78 1 74 26
M  V30 79 1 75 28
M  V30 80 1 76 28
M  V30 81 1 77 29
M  V30 82 1 30 78 CFG=3
M  V30 83 1 79 31
M  V30 84 1 80 32
M  V30 85 1 33 81 CFG=1
M  V30 86 1 82 34
M  V30 87 1 83 34
M  V30 88 1 84 35
M  V30 89 1 85 35
M  V30 90 1 36 86 CFG=1
M  V30 91 1 37 87 CFG=3
M  V30 92 1 88 38
M  V30 93 1 89 39
M  V30 94 1 90 15
M  V30 95 1 91 38
M  V30 96 1 92 23
M  V30 97 1 93 32
M  V30 98 1 27 94 CFG=3
M  V30 END BOND
M  V30 END CTAB
M  END
>  <i_epik_Tot_Q>  (1) 
5

>  <i_epik_Tot_abs_Q>  (1) 
5

>  <i_i_glide_confnum>  (1) 
897

>  <i_i_glide_lignum>  (1) 
38

>  <i_i_glide_posenum>  (1) 
399

>  <i_i_glide_rotatable_bonds>  (1) 
15

>  <i_lp_mmshare_version>  (1) 
72125

>  <i_m_source_file_index>  (1) 
18

>  <i_f3d_flags>  (1) 
0

>  <num_sample>  (1) 
50

>  <b_lp_Chiralities_Consistent>  (1) 
1

>  <r_epik_Charging_Adjusted_Penalty>  (1) 
1.9019841067917955

>  <r_epik_Ionization_Penalty>  (1) 
1.8906488358708171

>  <r_epik_Ionization_Penalty_Charging>  (1) 
0.55913698057276895

>  <r_epik_Ionization_Penalty_Neutral>  (1) 
1.3315118552980483

>  <r_epik_State_Penalty>  (1) 
1.3428471262190267

>  <r_glide_ring_energy>  (1) 
0.0045750838620950583

>  <r_i_docking_score>  (1) 
-8.3026333681840434

>  <r_i_glide_ecoul>  (1) 
-15.647883383758334

>  <r_i_glide_eff_state_penalty>  (1) 
1.3428471262190267

>  <r_i_glide_einternal>  (1) 
19.772692905950525

>  <r_i_glide_emodel>  (1) 
-100.71266683894363

>  <r_i_glide_emodel_strain>  (1) 
0.70400603421877861

>  <r_i_glide_energy>  (1) 
-63.455714160099546

>  <r_i_glide_erotb>  (1) 
0.55832093698931284

>  <r_i_glide_esite>  (1) 
-0.12440294651282774

>  <r_i_glide_evdw>  (1) 
-47.807830776341213

>  <r_i_glide_gscore>  (1) 
-9.6454804944030705

>  <r_i_glide_gscore_strain>  (1) 
0

>  <r_i_glide_hbond>  (1) 
-0.52000000000000002

>  <r_i_glide_ligand_efficiency>  (1) 
-0.21288803508164214

>  <r_i_glide_ligand_efficiency_ln>  (1) 
-1.7803202784023477

>  <r_i_glide_ligand_efficiency_sa>  (1) 
-0.72194834064966629

>  <r_i_glide_lipo>  (1) 
-3.85556866172585

>  <r_i_glide_metal>  (1) 
-0

>  <r_i_glide_rewards>  (1) 
-0.96625577677289554

>  <r_lp_Energy>  (1) 
94.296559999999999

>  <s_epik_Chemistry_Notes>  (1) 
This compound contains an acetal/aminal-like group ( X-CH(R)-Y where X, Y are N, S, or O) that may be acid/base labile, releasing an aldehyde.

>  <s_epik_cmdline>  (1) 
J2VwaWtfcHl0aG9uJywgJy1waHQnLCAnMS4wJywgJy1waCcsICc3LjQnLCAnLXRuJywgJzgnLCAnLW1hJywgJzUwMCcsICctaW1hZScsICc8aW5maWxlLm1hZT4nLCAnLW9tYWUnLCAnPG91dGZpbGUubWFlPic=

>  <s_epik_input>  (1) 
W05IXTFbQ0gyXVtDSDJdW05IXU4xW0NAQEhdKFtDSDJdW0NIXShbQ0gzXSlbQ0gzXSlbQ0BASF0oW09IXSlbTkhdW0NASF0oW0NIMl1bT0hdKVtDSDJdW0NAQEhdMltDSDJdW0NASF0oW0NIMl1bQ0gyXVtDQEBIXShOMjMpW0NIXTNbQ0gzXSlbTkhdW0NIMl1bQ0BASF0oW0NASF0oTzQpW1NIXSlbQ0BIXShDND01KVtDSF09W0NIXVtDSF09W0NIXVtDSF01

>  <s_glide_docking_method>  (1) 
confgen

>  <s_i_glide_gridfile>  (1) 
gpcr_5ht2c_6bqh_protein_autoprepared_prepared

>  <s_lp_Force_Field>  (1) 
S-OPLS

>  <s_lp_Variant>  (1) 
DiffSBDD_17-5

>  <s_m_source_file>  (1) 
generated_GPCR_5HT2C_ligand_DiffSBDD_2026-06-23_prepared.sdf

>  <GenAI_Model>  (1) 
DiffSBDD

>  <Protein>  (1) 
GPCR_5HT2C

$$$$
DiffSBDD_22
     RDKit          3D

  0  0  0  0  0  0  0  0  0  0999 V3000
M  V30 BEGIN CTAB
M  V30 COUNTS 69 72 0 0 1
M  V30 BEGIN ATOM
M  V30 1 N 40.445137 28.987953 55.767803 0
M  V30 2 C 37.377159 26.062693 57.340233 0
M  V30 3 C 37.925089 35.530367 61.255343 0
M  V30 4 O 39.781143 25.066054 57.367837 0
M  V30 5 C 37.546185 33.099424 59.866426 0
M  V30 6 N 44.034478 30.870606 67.486488 0
M  V30 7 C 38.500766 27.111183 57.115410 0 CFG=1
M  V30 8 C 36.860332 35.396296 60.348881 0
M  V30 9 C 42.613614 31.467280 65.130506 0
M  V30 10 C 37.339322 31.826550 59.108867 0 CFG=2
M  V30 11 S 38.310352 26.372424 54.398786 0
M  V30 12 C 38.272719 29.708245 58.011275 0
M  V30 13 C 41.078411 28.369481 56.924665 0
M  V30 14 C 38.277635 28.178484 58.269674 0
M  V30 15 C 41.539681 34.055509 64.801468 0
M  V30 16 C 40.929374 35.736402 62.055388 0
M  V30 17 N 40.974272 26.937669 57.053180 0
M  V30 18 C 39.305147 28.786045 55.254210 0
M  V30 19 C 39.965291 34.599878 62.454602 0 CFG=1
M  V30 20 O 40.445290 36.965291 62.553559 0
M  V30 21 C 38.809914 34.452757 61.470018 0
M  V30 22 C 38.192153 27.278760 52.831904 0
M  V30 23 C 38.618760 33.239022 60.775820 0
M  V30 24 C 42.238534 33.730853 65.977947 0
M  V30 25 C 41.373043 33.084139 63.781031 0
M  V30 26 O 36.845251 30.711698 59.877306 0
M  V30 27 O 40.690023 33.377825 62.613744 0
M  V30 28 C 43.536526 32.106880 67.417418 0
M  V30 29 C 39.820233 26.285491 57.199364 0
M  V30 30 C 41.911261 31.793836 63.953875 0
M  V30 31 C 38.129312 30.562294 59.250806 0 CFG=2
M  V30 32 C 42.781686 32.438981 66.150609 0
M  V30 33 O 43.672786 32.937106 68.312211 0
M  V30 34 C 36.938080 28.147303 52.762024 0
M  V30 35 C 38.345687 27.688848 55.668407 0 CFG=2
M  V30 36 C 36.670993 34.187404 59.658909 0
M  V30 37 H 37.368109 28.158158 55.605665 0
M  V30 38 H 36.427245 26.537782 57.228676 0
M  V30 39 H 37.384081 25.221384 56.646193 0
M  V30 40 H 37.418989 25.631038 58.338786 0
M  V30 41 H 38.064667 36.460615 61.786925 0
M  V30 42 H 43.894985 30.226585 66.725050 0
M  V30 43 H 44.552429 30.584993 68.303798 0
M  V30 44 H 36.186455 36.223423 60.180395 0
M  V30 45 H 43.021051 30.474585 65.246120 0
M  V30 46 H 36.845262 32.008136 58.167784 0
M  V30 47 H 37.461819 29.948572 57.320506 0
M  V30 48 H 39.168326 30.100957 57.553916 0
M  V30 49 H 40.832192 28.858586 57.863800 0
M  V30 50 H 42.151928 28.537705 56.830609 0
M  V30 51 H 38.882660 27.933908 59.143620 0
M  V30 52 H 37.244961 28.085429 58.567729 0
M  V30 53 H 41.135277 35.047693 64.686186 0
M  V30 54 H 41.074574 35.774296 60.975984 0
M  V30 55 H 41.915768 35.596248 62.496190 0
M  V30 56 H 41.836226 26.402281 57.068605 0
M  V30 57 H 38.937945 29.419473 54.444002 0
M  V30 58 H 39.473137 34.845754 63.388104 0
M  V30 59 H 40.754061 37.084836 63.442492 0
M  V30 60 H 39.090167 27.872467 52.664280 0
M  V30 61 H 38.174970 26.546605 52.029609 0
M  V30 62 H 39.295704 32.416418 60.938457 0
M  V30 63 H 42.360507 34.476027 66.751267 0
M  V30 64 H 41.784147 31.051130 63.179426 0
M  V30 65 H 38.957950 30.515863 59.952028 0
M  V30 66 H 36.844941 28.569570 51.767771 0
M  V30 67 H 36.045172 27.563773 52.968015 0
M  V30 68 H 36.956627 28.976449 53.466316 0
M  V30 69 H 35.851449 34.091329 58.960292 0
M  V30 END ATOM
M  V30 BEGIN BOND
M  V30 1 1 7 2 CFG=1
M  V30 2 2 8 3
M  V30 3 1 10 5
M  V30 4 1 13 1
M  V30 5 1 14 7
M  V30 6 1 14 12
M  V30 7 1 17 13
M  V30 8 2 18 1
M  V30 9 1 19 16
M  V30 10 1 20 16
M  V30 11 1 21 3
M  V30 12 1 21 19
M  V30 13 1 22 11
M  V30 14 1 23 5
M  V30 15 2 23 21
M  V30 16 2 24 15
M  V30 17 1 25 15
M  V30 18 1 26 10
M  V30 19 1 27 19
M  V30 20 1 27 25
M  V30 21 1 28 6
M  V30 22 2 29 4
M  V30 23 1 29 7
M  V30 24 1 29 17
M  V30 25 1 30 9
M  V30 26 2 30 25
M  V30 27 1 31 10
M  V30 28 1 31 12
M  V30 29 1 31 26
M  V30 30 2 32 9
M  V30 31 1 32 24
M  V30 32 1 32 28
M  V30 33 2 33 28
M  V30 34 1 34 22
M  V30 35 1 35 7
M  V30 36 1 35 11
M  V30 37 1 35 18
M  V30 38 2 36 5
M  V30 39 1 36 8
M  V30 40 1 35 37 CFG=1
M  V30 41 1 38 2
M  V30 42 1 39 2
M  V30 43 1 40 2
M  V30 44 1 41 3
M  V30 45 1 42 6
M  V30 46 1 43 6
M  V30 47 1 44 8
M  V30 48 1 45 9
M  V30 49 1 10 46 CFG=3
M  V30 50 1 47 12
M  V30 51 1 48 12
M  V30 52 1 49 13
M  V30 53 1 50 13
M  V30 54 1 51 14
M  V30 55 1 52 14
M  V30 56 1 53 15
M  V30 57 1 54 16
M  V30 58 1 55 16
M  V30 59 1 56 17
M  V30 60 1 57 18
M  V30 61 1 19 58 CFG=1
M  V30 62 1 59 20
M  V30 63 1 60 22
M  V30 64 1 61 22
M  V30 65 1 62 23
M  V30 66 1 63 24
M  V30 67 1 64 30
M  V30 68 1 31 65 CFG=1
M  V30 69 1 66 34
M  V30 70 1 67 34
M  V30 71 1 68 34
M  V30 72 1 69 36
M  V30 END BOND
M  V30 END CTAB
M  END
>  <i_epik_Tot_Q>  (1) 
0

>  <i_epik_Tot_abs_Q>  (1) 
0

>  <i_i_glide_confnum>  (1) 
1121

>  <i_i_glide_lignum>  (1) 
49

>  <i_i_glide_posenum>  (1) 
369

>  <i_i_glide_rotatable_bonds>  (1) 
12

>  <i_lp_mmshare_version>  (1) 
72125

>  <i_m_source_file_index>  (1) 
23

>  <i_f3d_flags>  (1) 
0

>  <num_sample>  (1) 
50

>  <b_lp_Chiralities_Consistent>  (1) 
1

>  <r_epik_Charging_Adjusted_Penalty>  (1) 
0

>  <r_epik_Ionization_Penalty>  (1) 
0.00010073509857401548

>  <r_epik_Ionization_Penalty_Charging>  (1) 
0

>  <r_epik_Ionization_Penalty_Neutral>  (1) 
0.00010073509857401548

>  <r_epik_State_Penalty>  (1) 
-0

>  <r_glide_ring_energy>  (1) 
0

>  <r_i_docking_score>  (1) 
-8.2651462806488993

>  <r_i_glide_ecoul>  (1) 
-6.7185224404468151

>  <r_i_glide_eff_state_penalty>  (1) 
-0

>  <r_i_glide_einternal>  (1) 
8.9762695196663387

>  <r_i_glide_emodel>  (1) 
-71.888823460649348

>  <r_i_glide_emodel_strain>  (1) 
3.2341264850190043

>  <r_i_glide_energy>  (1) 
-50.467324035502088

>  <r_i_glide_erotb>  (1) 
0.70459601099453772

>  <r_i_glide_esite>  (1) 
0

>  <r_i_glide_evdw>  (1) 
-43.748801595055276

>  <r_i_glide_gscore>  (1) 
-8.2651462806488993

>  <r_i_glide_gscore_strain>  (1) 
0

>  <r_i_glide_hbond>  (1) 
-0.4553615569377476

>  <r_i_glide_ligand_efficiency>  (1) 
-0.22958739668469164

>  <r_i_glide_ligand_efficiency_ln>  (1) 
-1.8032316199904022

>  <r_i_glide_ligand_efficiency_sa>  (1) 
-0.75808088111596339

>  <r_i_glide_lipo>  (1) 
-3.607705555856926

>  <r_i_glide_metal>  (1) 
-0

>  <r_i_glide_rewards>  (1) 
-1.7114567330289772

>  <r_lp_Energy>  (1) 
55.610787999999999

>  <r_lp_tautomer_probability>  (1) 
1

>  <s_epik_Chemistry_Notes>  (1) 
This compound has an imine and may undergo hydrolysis. This compound contains an acetal/aminal-like group ( X-CH(R)-Y where X, Y are N, S, or O) that may be acid/base labile, releasing an aldehyde.

>  <s_epik_cmdline>  (1) 
J2VwaWtfcHl0aG9uJywgJy1waHQnLCAnMS4wJywgJy1waCcsICc3LjQnLCAnLXRuJywgJzgnLCAnLW1hJywgJzUwMCcsICctaW1hZScsICc8aW5maWxlLm1hZT4nLCAnLW9tYWUnLCAnPG91dGZpbGUubWFlPic=

>  <s_epik_input>  (1) 
W0NIM11bQ0gyXVNDMT1bQ0hdW05IXVtDSDJdW05IXUMoPU8pW0NAQF0xKFtDSDNdKVtDSDJdW0NIMl1bQ0BASF0yT1tDQEhdMmMzW2NIXWMoW2NIXVtjSF1bY0hdMylbQ0BIXShbQ0gyXVtPSF0pT2M0W2NIXVtjSF1jKFtjSF1bY0hdNClDKD1PKVtOSDJd

>  <s_glide_docking_method>  (1) 
confgen

>  <s_i_glide_gridfile>  (1) 
gpcr_5ht2c_6bqh_protein_autoprepared_prepared

>  <s_lp_Force_Field>  (1) 
S-OPLS

>  <s_lp_Variant>  (1) 
DiffSBDD_22-1

>  <s_m_source_file>  (1) 
generated_GPCR_5HT2C_ligand_DiffSBDD_2026-06-23_prepared.sdf

>  <GenAI_Model>  (1) 
DiffSBDD

>  <Protein>  (1) 
GPCR_5HT2C

$$$$
DiffSBDD_41
     RDKit          3D

  0  0  0  0  0  0  0  0  0  0999 V3000
M  V30 BEGIN CTAB
M  V30 COUNTS 70 74 0 0 1
M  V30 BEGIN ATOM
M  V30 1 C 40.862904 27.987001 57.919369 0
M  V30 2 O 38.464052 33.218595 59.285027 0
M  V30 3 C 38.356291 31.798146 59.165787 0 CFG=1
M  V30 4 C 39.735151 32.936553 56.518415 0
M  V30 5 C 40.120247 27.349998 59.099070 0
M  V30 6 C 37.694993 29.065353 55.825644 0
M  V30 7 C 40.020014 28.137734 51.197505 0
M  V30 8 C 39.463400 27.188549 52.069863 0
M  V30 9 C 37.929856 35.651456 60.689329 0
M  V30 10 C 39.245086 31.209873 53.331184 0
M  V30 11 C 37.085476 31.410718 59.944671 0
M  V30 12 C 39.006251 36.533847 62.423718 0
M  V30 13 N 37.990498 36.645399 61.557405 0
M  V30 14 C 38.254060 31.332397 57.680248 0 CFG=1
M  V30 15 C 38.649961 28.986155 57.054922 0
M  V30 16 C 39.022775 34.772812 61.019271 0
M  V30 17 O 37.645049 38.909791 60.893093 0
M  V30 18 O 37.094838 35.532468 59.792059 0
M  V30 19 C 37.937811 28.286584 58.227916 0
M  V30 20 C 38.858414 28.135926 59.452398 0
M  V30 21 N 38.440734 32.332306 56.655462 0
M  V30 22 O 39.260965 37.337728 63.315900 0
M  V30 23 O 39.144160 30.268851 57.482735 0
M  V30 24 C 38.895735 27.601135 53.277387 0
M  V30 25 C 37.881784 32.057988 55.351110 0
M  V30 26 C 37.071916 37.789752 61.545412 0
M  V30 27 C 38.869959 28.965761 53.597570 0
M  V30 28 C 39.243188 33.628050 60.337258 0
M  V30 29 C 40.023337 29.499290 51.538419 0
M  V30 30 C 41.308837 35.581339 61.802198 0
M  V30 31 N 38.343061 29.656273 54.683227 0
M  V30 32 C 39.864288 35.258973 62.194224 0 CFG=1
M  V30 33 C 39.932812 28.182791 56.709812 0
M  V30 34 C 38.504053 31.028135 54.461457 0
M  V30 35 C 39.435982 29.946453 52.746747 0
M  V30 36 H 41.716888 27.368249 57.639558 0
M  V30 37 H 41.274751 28.947300 58.229393 0
M  V30 38 H 39.216763 31.293095 59.606136 0
M  V30 39 H 39.684746 33.737711 55.779226 0
M  V30 40 H 40.045146 33.337744 57.476881 0
M  V30 41 H 40.445139 32.195003 56.166798 0
M  V30 42 H 39.860965 26.315994 58.864855 0
M  V30 43 H 40.772364 27.337849 59.970415 0
M  V30 44 H 37.382533 28.061706 55.542896 0
M  V30 45 H 36.792530 29.631525 56.037423 0
M  V30 46 H 40.445191 27.817088 50.260747 0
M  V30 47 H 39.472574 26.143696 51.804435 0
M  V30 48 H 39.542282 32.137740 52.901289 0
M  V30 49 H 36.965122 30.334278 60.031998 0
M  V30 50 H 37.115259 31.809268 60.958567 0
M  V30 51 H 36.193920 31.813054 59.460502 0
M  V30 52 H 37.245128 30.953726 57.562228 0
M  V30 53 H 36.977312 39.302121 60.339981 0
M  V30 54 H 37.027869 28.822000 58.488412 0
M  V30 55 H 37.609660 27.295985 57.909632 0
M  V30 56 H 38.344771 27.644772 60.272556 0
M  V30 57 H 39.147200 29.110752 59.835618 0
M  V30 58 H 38.460071 26.875446 53.946673 0
M  V30 59 H 37.825074 33.003241 54.810260 0
M  V30 60 H 36.845159 31.768683 55.456898 0
M  V30 61 H 36.799010 38.071426 62.563934 0
M  V30 62 H 36.135216 37.545001 61.041941 0
M  V30 63 H 40.047929 32.941133 60.553837 0
M  V30 64 H 40.456566 30.219044 50.859063 0
M  V30 65 H 41.348510 36.362730 61.041459 0
M  V30 66 H 41.883819 35.925192 62.662422 0
M  V30 67 H 41.796001 34.696763 61.392585 0
M  V30 68 H 39.797723 34.573928 63.038709 0
M  V30 69 H 39.657427 27.203101 56.317996 0
M  V30 70 H 40.497368 28.678119 55.920097 0
M  V30 END ATOM
M  V30 BEGIN BOND
M  V30 1 1 3 2
M  V30 2 1 5 1
M  V30 3 2 8 7
M  V30 4 1 11 3
M  V30 5 1 13 9
M  V30 6 1 13 12
M  V30 7 1 14 3
M  V30 8 1 15 6
M  V30 9 1 16 9
M  V30 10 2 18 9
M  V30 11 1 19 15
M  V30 12 1 20 5
M  V30 13 1 20 19
M  V30 14 1 21 4
M  V30 15 1 21 14
M  V30 16 2 22 12
M  V30 17 1 23 14
M  V30 18 1 23 15
M  V30 19 1 24 8
M  V30 20 1 25 21
M  V30 21 1 26 13
M  V30 22 1 26 17
M  V30 23 2 27 24
M  V30 24 1 28 2
M  V30 25 2 28 16
M  V30 26 1 29 7
M  V30 27 1 31 6
M  V30 28 1 31 27
M  V30 29 1 32 12
M  V30 30 1 32 16
M  V30 31 1 32 30
M  V30 32 1 33 1
M  V30 33 1 33 15
M  V30 34 2 34 10
M  V30 35 1 34 25
M  V30 36 1 34 31
M  V30 37 1 35 10
M  V30 38 1 35 27
M  V30 39 2 35 29
M  V30 40 1 36 1
M  V30 41 1 37 1
M  V30 42 1 3 38 CFG=1
M  V30 43 1 39 4
M  V30 44 1 40 4
M  V30 45 1 41 4
M  V30 46 1 42 5
M  V30 47 1 43 5
M  V30 48 1 44 6
M  V30 49 1 45 6
M  V30 50 1 46 7
M  V30 51 1 47 8
M  V30 52 1 48 10
M  V30 53 1 49 11
M  V30 54 1 50 11
M  V30 55 1 51 11
M  V30 56 1 14 52 CFG=1
M  V30 57 1 53 17
M  V30 58 1 54 19
M  V30 59 1 55 19
M  V30 60 1 56 20
M  V30 61 1 57 20
M  V30 62 1 58 24
M  V30 63 1 59 25
M  V30 64 1 60 25
M  V30 65 1 61 26
M  V30 66 1 62 26
M  V30 67 1 63 28
M  V30 68 1 64 29
M  V30 69 1 65 30
M  V30 70 1 66 30
M  V30 71 1 67 30
M  V30 72 1 32 68 CFG=1
M  V30 73 1 69 33
M  V30 74 1 70 33
M  V30 END BOND
M  V30 END CTAB
M  END
>  <i_epik_Tot_Q>  (1) 
0

>  <i_epik_Tot_abs_Q>  (1) 
0

>  <i_i_glide_confnum>  (1) 
67

>  <i_i_glide_lignum>  (1) 
88

>  <i_i_glide_posenum>  (1) 
205

>  <i_i_glide_rotatable_bonds>  (1) 
5

>  <i_lp_mmshare_version>  (1) 
72125

>  <i_m_source_file_index>  (1) 
42

>  <i_f3d_flags>  (1) 
0

>  <num_sample>  (1) 
50

>  <b_lp_Chiralities_Consistent>  (1) 
1

>  <r_epik_Charging_Adjusted_Penalty>  (1) 
0.17305261392596941

>  <r_epik_Ionization_Penalty>  (1) 
0.17312613183816786

>  <r_epik_Ionization_Penalty_Charging>  (1) 
0

>  <r_epik_Ionization_Penalty_Neutral>  (1) 
0.17312613183816786

>  <r_epik_State_Penalty>  (1) 
0.17305261392596941

>  <r_glide_ring_energy>  (1) 
0

>  <r_i_docking_score>  (1) 
-8.2274382485623168

>  <r_i_glide_ecoul>  (1) 
-3.5181340702231978

>  <r_i_glide_eff_state_penalty>  (1) 
0.17305261392596941

>  <r_i_glide_einternal>  (1) 
8.5868506536839249

>  <r_i_glide_emodel>  (1) 
-53.425060591910473

>  <r_i_glide_emodel_strain>  (1) 
0.21382178846404543

>  <r_i_glide_energy>  (1) 
-42.966706187337238

>  <r_i_glide_erotb>  (1) 
0.34988069477117673

>  <r_i_glide_esite>  (1) 
-0.090115798969041816

>  <r_i_glide_evdw>  (1) 
-39.44857211711404

>  <r_i_glide_gscore>  (1) 
-8.4004908624882866

>  <r_i_glide_gscore_strain>  (1) 
0

>  <r_i_glide_hbond>  (1) 
-0.32000000000000001

>  <r_i_glide_ligand_efficiency>  (1) 
-0.23506966424463763

>  <r_i_glide_ligand_efficiency_ln>  (1) 
-1.8061052937132271

>  <r_i_glide_ligand_efficiency_sa>  (1) 
-0.76892845925797759

>  <r_i_glide_lipo>  (1) 
-3.9043653043021518

>  <r_i_glide_metal>  (1) 
-0

>  <r_i_glide_rewards>  (1) 
-1.9357417375990866

>  <r_lp_Energy>  (1) 
37.188876

>  <s_epik_Chemistry_Notes>  (1) 
This compound contains an acetal/aminal-like group ( X-CH(R)-Y where X, Y are N, S, or O) that may be acid/base labile, releasing an aldehyde.

>  <s_epik_cmdline>  (1) 
J2VwaWtfcHl0aG9uJywgJy1waHQnLCAnMS4wJywgJy1waCcsICc3LjQnLCAnLXRuJywgJzgnLCAnLW1hJywgJzUwMCcsICctaW1hZScsICc8aW5maWxlLm1hZT4nLCAnLW9tYWUnLCAnPG91dGZpbGUubWFlPic=

>  <s_epik_input>  (1) 
W0NIMl0xW0NIMl1bQ0gyXVtDSDJdW0NIMl1DMTJbQ0gyXW4zYzRjKFtjSF1bY0hdW2NIXVtjSF00KVtjSF1jM1tDSDJdTihbQ0gzXSlbQ0BASF0oTzIpW0NASF0oW0NIM10pTy9bQ0hdPUNcNVtDQEBIXShbQ0gzXSlDKD1PKU4oQzU9TylbQ0gyXVtPSF0=

>  <s_glide_docking_method>  (1) 
confgen

>  <s_i_glide_gridfile>  (1) 
gpcr_5ht2c_6bqh_protein_autoprepared_prepared

>  <s_lp_Force_Field>  (1) 
S-OPLS

>  <s_lp_Variant>  (1) 
DiffSBDD_41-2

>  <s_m_source_file>  (1) 
generated_GPCR_5HT2C_ligand_DiffSBDD_2026-06-23_prepared.sdf

>  <GenAI_Model>  (1) 
DiffSBDD

>  <Protein>  (1) 
GPCR_5HT2C

$$$$
DiffSBDD_26
     RDKit          3D

  0  0  0  0  0  0  0  0  0  0999 V3000
M  V30 BEGIN CTAB
M  V30 COUNTS 84 87 0 0 1
M  V30 BEGIN ATOM
M  V30 1 C 39.030588 34.651493 60.550574 0
M  V30 2 C 39.838431 29.643019 50.854558 0
M  V30 3 C 38.090037 31.172535 56.017756 0
M  V30 4 C 38.186632 26.282314 54.911857 0
M  V30 5 N 38.394065 29.755607 56.212625 0
M  V30 6 O 40.551508 26.137698 54.585290 0
M  V30 7 C 38.378807 29.673899 52.980876 0
M  V30 8 C 38.518284 28.667581 54.139985 0 CFG=1
M  V30 9 N 36.781945 33.839526 60.762947 0 CFG=2 CHG=1
M  V30 10 N 39.327025 36.590487 62.181071 0
M  V30 11 C 38.509388 32.030573 57.224876 0
M  V30 12 C 41.244416 35.537156 63.426869 0
M  V30 13 C 39.899834 28.117248 50.802561 0
M  V30 14 C 38.474165 32.288998 59.783226 0
M  V30 15 C 39.561589 25.809639 55.220911 0
M  V30 16 O 39.245088 38.712877 61.367773 0
M  V30 17 C 37.957381 31.498906 58.564935 0
M  V30 18 C 39.645026 37.894045 62.193641 0
M  V30 19 C 38.541657 24.531564 57.019478 0
M  V30 20 C 37.330861 24.942643 56.724121 0
M  V30 21 C 37.148816 25.840104 55.651736 0
M  V30 22 C 39.730538 35.726581 63.294107 0
M  V30 23 O 37.647159 29.087178 55.178029 0
M  V30 24 C 34.849123 33.408382 59.229322 0
M  V30 25 C 36.989691 35.971889 61.583758 0
M  V30 26 C 38.013427 27.259781 53.761205 0
M  V30 27 C 37.778013 29.256097 57.439693 0
M  V30 28 C 35.361678 33.986028 60.522697 0 CFG=2
M  V30 29 C 38.313442 30.008764 58.666245 0
M  V30 30 C 39.678045 30.140255 52.301494 0
M  V30 31 C 36.247470 35.192117 60.539190 0 CFG=2
M  V30 32 C 37.959329 33.744338 59.872484 0 CFG=2
M  V30 33 C 41.063043 30.260947 50.170400 0
M  V30 34 C 38.474013 36.007784 61.127674 0 CFG=2
M  V30 35 O 42.844725 34.931685 64.967728 0
M  V30 36 O 41.430924 34.914829 64.679637 0
M  V30 37 N 39.645227 24.957033 56.291294 0
M  V30 38 H 39.842010 34.859021 59.853255 0
M  V30 39 H 39.500659 34.054874 61.328972 0
M  V30 40 H 38.973184 29.967760 50.279613 0
M  V30 41 H 37.037773 31.298967 55.767671 0
M  V30 42 H 38.640666 31.524884 55.147951 0
M  V30 43 H 40.548979 24.598605 56.564263 0
M  V30 44 H 37.665925 29.299413 52.248307 0
M  V30 45 H 37.906213 30.569526 53.368042 0
M  V30 46 H 39.552968 28.612368 54.483030 0
M  V30 47 H 38.172256 33.050055 57.042494 0
M  V30 48 H 39.597019 32.069734 57.264217 0
M  V30 49 H 41.775172 36.490940 63.397374 0
M  V30 50 H 41.639852 34.913383 62.625188 0
M  V30 51 H 40.445160 27.737787 51.662481 0
M  V30 52 H 38.902045 27.678343 50.809059 0
M  V30 53 H 40.407313 27.763915 49.909530 0
M  V30 54 H 39.563903 32.284751 59.764440 0
M  V30 55 H 38.216997 31.758307 60.700813 0
M  V30 56 H 36.871004 31.568846 58.557730 0
M  V30 57 H 40.298784 38.133880 63.044820 0
M  V30 58 H 38.770532 23.843643 57.810512 0
M  V30 59 H 36.484604 24.595807 57.294696 0
M  V30 60 H 36.163484 26.181016 55.424552 0
M  V30 61 H 39.245202 34.755923 63.277733 0
M  V30 62 H 39.363952 36.196691 64.209212 0
M  V30 63 H 33.832104 33.757873 59.046168 0
M  V30 64 H 35.466007 33.735289 58.390433 0
M  V30 65 H 34.833434 32.319552 59.278413 0
M  V30 66 H 36.842268 35.538761 62.566934 0
M  V30 67 H 36.582816 36.983067 61.629737 0
M  V30 68 H 36.964979 27.302023 53.465877 0
M  V30 69 H 38.554635 26.873624 52.899005 0
M  V30 70 H 36.692620 29.361995 57.388547 0
M  V30 71 H 37.996517 28.192017 57.534581 0
M  V30 72 H 34.810888 33.730619 61.425036 0
M  V30 73 H 39.393386 29.876738 58.743240 0
M  V30 74 H 37.881624 29.579469 59.570844 0
M  V30 75 H 39.699995 31.232515 52.299805 0
M  V30 76 H 40.532547 29.847733 52.899916 0
M  V30 77 H 36.361679 35.612665 59.539267 0
M  V30 78 H 37.750498 34.128005 58.873887 0
M  V30 79 H 41.985365 30.038650 50.703459 0
M  V30 80 H 41.168532 29.897216 49.148371 0
M  V30 81 H 40.967576 31.339596 50.114578 0
M  V30 82 H 38.446031 36.671543 60.261427 0
M  V30 83 H 42.936382 35.792792 65.352932 0
M  V30 84 H 36.994691 33.709594 61.741315 0
M  V30 END ATOM
M  V30 BEGIN BOND
M  V30 1 1 5 3
M  V30 2 1 8 7
M  V30 3 1 11 3
M  V30 4 1 13 2
M  V30 5 1 15 4
M  V30 6 2 15 6
M  V30 7 1 17 11
M  V30 8 1 17 14
M  V30 9 1 18 10
M  V30 10 2 18 16
M  V30 11 2 20 19
M  V30 12 2 21 4
M  V30 13 1 21 20
M  V30 14 1 22 10
M  V30 15 1 22 12
M  V30 16 1 23 5
M  V30 17 1 23 8
M  V30 18 1 26 4
M  V30 19 1 26 8
M  V30 20 1 27 5
M  V30 21 1 28 9
M  V30 22 1 28 24
M  V30 23 1 29 17
M  V30 24 1 29 27
M  V30 25 1 30 2
M  V30 26 1 30 7
M  V30 27 1 31 9
M  V30 28 1 31 25
M  V30 29 1 31 28
M  V30 30 1 32 1
M  V30 31 1 32 9
M  V30 32 1 32 14
M  V30 33 1 33 2
M  V30 34 1 34 1
M  V30 35 1 34 10
M  V30 36 1 34 25
M  V30 37 1 36 12
M  V30 38 1 36 35
M  V30 39 1 37 15
M  V30 40 1 37 19
M  V30 41 1 38 1
M  V30 42 1 39 1
M  V30 43 1 40 2
M  V30 44 1 41 3
M  V30 45 1 42 3
M  V30 46 1 43 37
M  V30 47 1 44 7
M  V30 48 1 45 7
M  V30 49 1 8 46 CFG=1
M  V30 50 1 47 11
M  V30 51 1 48 11
M  V30 52 1 49 12
M  V30 53 1 50 12
M  V30 54 1 51 13
M  V30 55 1 52 13
M  V30 56 1 53 13
M  V30 57 1 54 14
M  V30 58 1 55 14
M  V30 59 1 56 17
M  V30 60 1 57 18
M  V30 61 1 58 19
M  V30 62 1 59 20
M  V30 63 1 60 21
M  V30 64 1 61 22
M  V30 65 1 62 22
M  V30 66 1 63 24
M  V30 67 1 64 24
M  V30 68 1 65 24
M  V30 69 1 66 25
M  V30 70 1 67 25
M  V30 71 1 68 26
M  V30 72 1 69 26
M  V30 73 1 70 27
M  V30 74 1 71 27
M  V30 75 1 28 72 CFG=1
M  V30 76 1 73 29
M  V30 77 1 74 29
M  V30 78 1 75 30
M  V30 79 1 76 30
M  V30 80 1 31 77 CFG=3
M  V30 81 1 32 78 CFG=3
M  V30 82 1 79 33
M  V30 83 1 80 33
M  V30 84 1 81 33
M  V30 85 1 34 82 CFG=3
M  V30 86 1 83 35
M  V30 87 1 9 84 CFG=1
M  V30 END BOND
M  V30 END CTAB
M  END
>  <i_epik_Tot_Q>  (1) 
1

>  <i_epik_Tot_abs_Q>  (1) 
1

>  <i_i_glide_confnum>  (1) 
2326

>  <i_i_glide_lignum>  (1) 
59

>  <i_i_glide_posenum>  (1) 
221

>  <i_i_glide_rotatable_bonds>  (1) 
15

>  <i_lp_mmshare_version>  (1) 
72125

>  <i_m_source_file_index>  (1) 
27

>  <i_f3d_flags>  (1) 
0

>  <num_sample>  (1) 
50

>  <b_lp_Chiralities_Consistent>  (1) 
1

>  <r_epik_Charging_Adjusted_Penalty>  (1) 
0.02425622639956965

>  <r_epik_Ionization_Penalty>  (1) 
0.033094864685368548

>  <r_epik_Ionization_Penalty_Charging>  (1) 
0.02425622639956965

>  <r_epik_Ionization_Penalty_Neutral>  (1) 
0.0088386382857988978

>  <r_epik_State_Penalty>  (1) 
-0

>  <r_glide_ring_energy>  (1) 
0

>  <r_i_docking_score>  (1) 
-8.2072847098763919

>  <r_i_glide_ecoul>  (1) 
-5.0888817206333972

>  <r_i_glide_eff_state_penalty>  (1) 
-0

>  <r_i_glide_einternal>  (1) 
22.701998172200401

>  <r_i_glide_emodel>  (1) 
-52.478089313932358

>  <r_i_glide_emodel_strain>  (1) 
1.749841710845601

>  <r_i_glide_energy>  (1) 
-43.769727654867204

>  <r_i_glide_erotb>  (1) 
0.83677420797818713

>  <r_i_glide_esite>  (1) 
-0.022960680526008477

>  <r_i_glide_evdw>  (1) 
-38.680845934233808

>  <r_i_glide_gscore>  (1) 
-8.2072847098763919

>  <r_i_glide_gscore_strain>  (1) 
0

>  <r_i_glide_hbond>  (1) 
-0.22419129529128703

>  <r_i_glide_ligand_efficiency>  (1) 
-0.22181850567233491

>  <r_i_glide_ligand_efficiency_ln>  (1) 
-1.7799676475198316

>  <r_i_glide_ligand_efficiency_sa>  (1) 
-0.73914847170080633

>  <r_i_glide_lipo>  (1) 
-4.6508682965679453

>  <r_i_glide_metal>  (1) 
-0

>  <r_i_glide_rewards>  (1) 
-1.4486640906626376

>  <r_lp_Energy>  (1) 
62.164225999999999

>  <r_lp_tautomer_probability>  (1) 
1

>  <s_epik_Chemistry_Notes>  (1) 
This compound has a N-S or N-O group and may undergo hydrolysis at high or low pH.

>  <s_epik_cmdline>  (1) 
J2VwaWtfcHl0aG9uJywgJy1waHQnLCAnMS4wJywgJy1waCcsICc3LjQnLCAnLXRuJywgJzgnLCAnLW1hJywgJzUwMCcsICctaW1hZScsICc8aW5maWxlLm1hZT4nLCAnLW9tYWUnLCAnPG91dGZpbGUubWFlPic=

>  <s_epik_input>  (1) 
W09IXU9bQ0gyXVtDSDJdTihbQ0hdPU8pW0NASF0oW0NIMl1bQ0BASF0oTjEyKVtDQEhdMVtDSDNdKVtDSDJdW0NASF0yW0NIMl1bQ0hdKFtDSDJdW0NIMl0zKVtDSDJdW0NIMl1OM09bQ0BIXShbQ0gyXVtDSDJdW0NIXShbQ0gzXSlbQ0gzXSlbQ0gyXVtDQEBIXTRDKD1PKU49W0NIXVtDSF09W0NIXTQ=

>  <s_glide_docking_method>  (1) 
confgen

>  <s_i_glide_gridfile>  (1) 
gpcr_5ht2c_6bqh_protein_autoprepared_prepared

>  <s_lp_Force_Field>  (1) 
S-OPLS

>  <s_lp_Variant>  (1) 
DiffSBDD_26-4

>  <s_m_source_file>  (1) 
generated_GPCR_5HT2C_ligand_DiffSBDD_2026-06-23_prepared.sdf

>  <GenAI_Model>  (1) 
DiffSBDD

>  <Protein>  (1) 
GPCR_5HT2C

$$$$
DiffSBDD_17
     RDKit          3D

  0  0  0  0  0  0  0  0  0  0999 V3000
M  V30 BEGIN CTAB
M  V30 COUNTS 93 97 0 0 1
M  V30 BEGIN ATOM
M  V30 1 C 42.569604 32.561772 68.420473 0
M  V30 2 C 38.798028 33.637973 61.514104 0 CFG=2
M  V30 3 C 41.229119 31.627893 66.490854 0
M  V30 4 O 41.998614 35.337756 64.339428 0
M  V30 5 C 43.680832 32.420536 66.170313 0
M  V30 6 C 38.462335 28.367451 55.102171 0
M  V30 7 C 39.573299 26.136652 54.876062 0
M  V30 8 C 38.837868 27.303304 54.384412 0
M  V30 9 C 36.442679 35.123042 59.674446 0
M  V30 10 C 38.179949 37.418111 61.362893 0
M  V30 11 N 41.779021 29.481601 65.371816 0
M  V30 12 C 37.821360 36.035940 61.863169 0 CFG=2
M  V30 13 C 41.370117 31.484231 63.859080 0 CFG=1
M  V30 14 C 40.346004 33.554284 61.409004 0
M  V30 15 N 41.697714 28.653757 64.161133 0 CHG=1
M  V30 16 C 37.511463 30.416428 55.453401 0 CFG=2
M  V30 17 C 38.766346 28.640334 56.524878 0 CFG=2
M  V30 18 C 41.238599 27.307532 66.086468 0
M  V30 19 C 41.039353 30.749764 65.210854 0 CFG=2
M  V30 20 O 37.761594 29.379778 54.516937 0
M  V30 21 C 41.105264 27.362010 64.558182 0
M  V30 22 O 40.729630 30.825279 62.922808 0 CHG=-1
M  V30 23 N 37.245146 31.509892 58.567802 0 CHG=1
M  V30 24 C 38.689594 27.545422 57.537298 0
M  V30 25 C 38.068231 32.492843 60.722487 0
M  V30 26 C 39.691430 25.698989 56.161588 0
M  V30 27 N 38.336004 34.961389 61.033285 0 CFG=2 CHG=1
M  V30 28 C 41.146385 35.200997 63.221631 0
M  V30 29 S 38.445146 31.932677 55.089540 0
M  V30 30 C 41.166289 33.744162 62.716924 0 CFG=1
M  V30 31 C 39.119589 26.286703 57.377842 0
M  V30 32 N 40.754198 32.828238 63.812429 0 CHG=1
M  V30 33 C 36.894823 35.111050 61.111436 0 CFG=2
M  V30 34 C 38.346049 30.725885 57.974477 0
M  V30 35 C 36.326133 33.677049 59.160509 0
M  V30 36 C 37.820213 29.795577 56.846619 0 CFG=1
M  V30 37 C 37.595224 32.778349 59.253773 0 CFG=2
M  V30 38 N 41.275986 28.712940 66.521757 0 CHG=1
M  V30 39 C 42.648799 31.772681 67.104072 0
M  V30 40 H 42.205232 33.576458 68.255906 0
M  V30 41 H 41.898635 32.079376 69.132035 0
M  V30 42 H 43.547783 32.636919 68.897809 0
M  V30 43 H 38.518418 33.516546 62.559865 0
M  V30 44 H 40.811284 32.622610 66.340833 0
M  V30 45 H 40.588144 31.207345 67.267102 0
M  V30 46 H 42.064136 36.260954 64.567672 0
M  V30 47 H 43.302239 33.341794 65.728302 0
M  V30 48 H 44.594689 32.671793 66.709704 0
M  V30 49 H 43.981168 31.739247 65.375370 0
M  V30 50 H 40.037812 25.517979 54.123646 0
M  V30 51 H 38.573271 27.304309 53.335711 0
M  V30 52 H 37.115998 35.707409 59.043999 0
M  V30 53 H 35.470915 35.607495 59.607672 0
M  V30 54 H 37.532964 38.154664 61.838307 0
M  V30 55 H 39.214550 37.654846 61.613981 0
M  V30 56 H 38.045030 37.504565 60.284413 0
M  V30 57 H 38.000357 35.846742 62.917465 0
M  V30 58 H 42.445881 31.639345 63.812881 0
M  V30 59 H 40.677483 34.304898 60.692920 0
M  V30 60 H 40.641218 32.601354 60.969036 0
M  V30 61 H 41.141892 29.207344 63.493053 0
M  V30 62 H 36.454108 30.661331 55.367796 0
M  V30 63 H 39.791375 29.015065 56.541957 0
M  V30 64 H 42.188759 26.844027 66.355652 0
M  V30 65 H 40.445296 26.742832 66.575809 0
M  V30 66 H 39.974359 30.501730 65.177878 0
M  V30 67 H 41.605137 26.524682 64.071297 0
M  V30 68 H 40.056246 27.337810 64.266533 0
M  V30 69 H 36.714434 30.920288 59.191100 0
M  V30 70 H 38.292513 27.829244 58.500975 0
M  V30 71 H 38.698327 31.602749 60.739986 0
M  V30 72 H 37.188495 32.192656 61.293817 0
M  V30 73 H 40.236478 24.776761 56.295626 0
M  V30 74 H 40.145950 35.512581 63.514419 0
M  V30 75 H 41.489755 35.882784 62.441407 0
M  V30 76 H 37.738828 32.273044 54.006042 0
M  V30 77 H 42.205138 33.512827 62.478595 0
M  V30 78 H 39.045804 25.638551 58.238097 0
M  V30 79 H 41.048106 33.303698 64.655831 0
M  V30 80 H 36.386202 34.390369 61.751547 0
M  V30 81 H 39.154838 31.366652 57.626261 0
M  V30 82 H 38.776880 30.129262 58.778535 0
M  V30 83 H 36.024507 33.739225 58.117230 0
M  V30 84 H 35.495442 33.186493 59.672373 0
M  V30 85 H 36.884783 29.348449 57.189218 0
M  V30 86 H 38.398209 33.257236 58.690789 0
M  V30 87 H 41.901156 28.857353 67.303759 0
M  V30 88 H 43.029448 30.785283 67.365121 0
M  V30 89 H 42.641426 28.541256 63.816700 0
M  V30 90 H 40.347195 29.055192 66.729987 0
M  V30 91 H 36.596474 31.737823 57.801625 0
M  V30 92 H 39.754362 32.714734 63.827719 0
M  V30 93 H 38.671595 35.258408 60.128218 0
M  V30 END ATOM
M  V30 BEGIN BOND
M  V30 1 2 8 6
M  V30 2 1 8 7
M  V30 3 1 12 10
M  V30 4 1 14 2
M  V30 5 1 15 11
M  V30 6 1 17 6
M  V30 7 1 19 3
M  V30 8 1 19 11
M  V30 9 1 19 13
M  V30 10 1 20 6
M  V30 11 1 20 16
M  V30 12 1 21 15
M  V30 13 1 21 18
M  V30 14 1 22 13
M  V30 15 1 24 17
M  V30 16 1 25 2
M  V30 17 2 26 7
M  V30 18 1 27 2
M  V30 19 1 27 12
M  V30 20 1 28 4
M  V30 21 1 29 16
M  V30 22 1 30 14
M  V30 23 1 30 28
M  V30 24 2 31 24
M  V30 25 1 31 26
M  V30 26 1 32 13
M  V30 27 1 32 30
M  V30 28 1 33 9
M  V30 29 1 33 12
M  V30 30 1 33 27
M  V30 31 1 34 23
M  V30 32 1 35 9
M  V30 33 1 36 16
M  V30 34 1 36 17
M  V30 35 1 36 34
M  V30 36 1 37 23
M  V30 37 1 37 25
M  V30 38 1 37 35
M  V30 39 1 38 11
M  V30 40 1 38 18
M  V30 41 1 39 1
M  V30 42 1 39 3
M  V30 43 1 39 5
M  V30 44 1 40 1
M  V30 45 1 41 1
M  V30 46 1 42 1
M  V30 47 1 2 43 CFG=1
M  V30 48 1 44 3
M  V30 49 1 45 3
M  V30 50 1 46 4
M  V30 51 1 47 5
M  V30 52 1 48 5
M  V30 53 1 49 5
M  V30 54 1 50 7
M  V30 55 1 51 8
M  V30 56 1 52 9
M  V30 57 1 53 9
M  V30 58 1 54 10
M  V30 59 1 55 10
M  V30 60 1 56 10
M  V30 61 1 12 57 CFG=1
M  V30 62 1 13 58 CFG=3
M  V30 63 1 59 14
M  V30 64 1 60 14
M  V30 65 1 61 15
M  V30 66 1 16 62 CFG=1
M  V30 67 1 17 63 CFG=3
M  V30 68 1 64 18
M  V30 69 1 65 18
M  V30 70 1 19 66 CFG=3
M  V30 71 1 67 21
M  V30 72 1 68 21
M  V30 73 1 69 23
M  V30 74 1 70 24
M  V30 75 1 71 25
M  V30 76 1 72 25
M  V30 77 1 73 26
M  V30 78 1 74 28
M  V30 79 1 75 28
M  V30 80 1 76 29
M  V30 81 1 30 77 CFG=3
M  V30 82 1 78 31
M  V30 83 1 79 32
M  V30 84 1 33 80 CFG=1
M  V30 85 1 81 34
M  V30 86 1 82 34
M  V30 87 1 83 35
M  V30 88 1 84 35
M  V30 89 1 36 85 CFG=1
M  V30 90 1 37 86 CFG=3
M  V30 91 1 87 38
M  V30 92 1 88 39
M  V30 93 1 89 15
M  V30 94 1 90 38
M  V30 95 1 91 23
M  V30 96 1 92 32
M  V30 97 1 27 93 CFG=3
M  V30 END BOND
M  V30 END CTAB
M  END
>  <i_epik_Tot_Q>  (1) 
4

>  <i_epik_Tot_abs_Q>  (1) 
6

>  <i_i_glide_confnum>  (1) 
1319

>  <i_i_glide_lignum>  (1) 
36

>  <i_i_glide_posenum>  (1) 
175

>  <i_i_glide_rotatable_bonds>  (1) 
14

>  <i_lp_mmshare_version>  (1) 
72125

>  <i_m_source_file_index>  (1) 
18

>  <i_f3d_flags>  (1) 
0

>  <num_sample>  (1) 
50

>  <b_lp_Chiralities_Consistent>  (1) 
1

>  <r_epik_Charging_Adjusted_Penalty>  (1) 
1.4553498192604928

>  <r_epik_Ionization_Penalty>  (1) 
1.1481457817152785

>  <r_epik_Ionization_Penalty_Charging>  (1) 
0.48043644912001532

>  <r_epik_Ionization_Penalty_Neutral>  (1) 
0.66770933259526311

>  <r_epik_State_Penalty>  (1) 
0.97491337014047741

>  <r_glide_ring_energy>  (1) 
0.0045750838620950583

>  <r_i_docking_score>  (1) 
-8.2055964395672785

>  <r_i_glide_ecoul>  (1) 
-13.626750347621845

>  <r_i_glide_eff_state_penalty>  (1) 
0.97491337014047741

>  <r_i_glide_einternal>  (1) 
15.162311166070328

>  <r_i_glide_emodel>  (1) 
-95.166304659784188

>  <r_i_glide_emodel_strain>  (1) 
0.56057652579474393

>  <r_i_glide_energy>  (1) 
-61.214585754234051

>  <r_i_glide_erotb>  (1) 
0.56146573491919982

>  <r_i_glide_esite>  (1) 
-0.10189216275823487

>  <r_i_glide_evdw>  (1) 
-47.587835406612207

>  <r_i_glide_gscore>  (1) 
-9.1805098097077558

>  <r_i_glide_gscore_strain>  (1) 
0

>  <r_i_glide_hbond>  (1) 
-0.43659432113081148

>  <r_i_glide_ligand_efficiency>  (1) 
-0.21039990870685329

>  <r_i_glide_ligand_efficiency_ln>  (1) 
-1.7595128063498882

>  <r_i_glide_ligand_efficiency_sa>  (1) 
-0.71351057801581697

>  <r_i_glide_lipo>  (1) 
-3.7135616901223187

>  <r_i_glide_metal>  (1) 
-0

>  <r_i_glide_rewards>  (1) 
-1.0665230481417036

>  <r_lp_Energy>  (1) 
77.88823699999999

>  <s_epik_Chemistry_Notes>  (1) 
This compound contains an acetal/aminal-like group ( X-CH(R)-Y where X, Y are N, S, or O) that may be acid/base labile, releasing an aldehyde.

>  <s_epik_cmdline>  (1) 
J2VwaWtfcHl0aG9uJywgJy1waHQnLCAnMS4wJywgJy1waCcsICc3LjQnLCAnLXRuJywgJzgnLCAnLW1hJywgJzUwMCcsICctaW1hZScsICc8aW5maWxlLm1hZT4nLCAnLW9tYWUnLCAnPG91dGZpbGUubWFlPic=

>  <s_epik_input>  (1) 
W05IXTFbQ0gyXVtDSDJdW05IXU4xW0NAQEhdKFtDSDJdW0NIXShbQ0gzXSlbQ0gzXSlbQ0BASF0oW09IXSlbTkhdW0NASF0oW0NIMl1bT0hdKVtDSDJdW0NAQEhdMltDSDJdW0NASF0oW0NIMl1bQ0gyXVtDQEBIXShOMjMpW0NIXTNbQ0gzXSlbTkhdW0NIMl1bQ0BASF0oW0NASF0oTzQpW1NIXSlbQ0BIXShDND01KVtDSF09W0NIXVtDSF09W0NIXVtDSF01

>  <s_glide_docking_method>  (1) 
confgen

>  <s_i_glide_gridfile>  (1) 
gpcr_5ht2c_6bqh_protein_autoprepared_prepared

>  <s_lp_Force_Field>  (1) 
S-OPLS

>  <s_lp_Variant>  (1) 
DiffSBDD_17-3

>  <s_m_source_file>  (1) 
generated_GPCR_5HT2C_ligand_DiffSBDD_2026-06-23_prepared.sdf

>  <GenAI_Model>  (1) 
DiffSBDD

>  <Protein>  (1) 
GPCR_5HT2C

$$$$
DiffSBDD_2
     RDKit          3D

  0  0  0  0  0  0  0  0  0  0999 V3000
M  V30 BEGIN CTAB
M  V30 COUNTS 85 88 0 0 1
M  V30 BEGIN ATOM
M  V30 1 C 37.741936 36.878598 61.779100 0 CFG=1
M  V30 2 C 38.605815 28.289802 53.907339 0
M  V30 3 C 39.103299 30.079659 61.257425 0
M  V30 4 C 39.550067 35.431122 60.924660 0
M  V30 5 C 38.879831 29.330009 54.671863 0
M  V30 6 C 37.244705 33.770944 59.471651 0
M  V30 7 C 38.427083 28.133884 56.868799 0 CFG=2
M  V30 8 C 38.343657 37.109284 64.146295 0
M  V30 9 C 36.891640 32.785247 60.620255 0
M  V30 10 C 37.574029 30.102822 58.017307 0 CFG=1
M  V30 11 N 38.741979 29.316365 56.060663 0
M  V30 12 C 37.574188 38.033354 60.772249 0
M  V30 13 C 39.605528 28.769879 51.022689 0
M  V30 14 C 37.918007 28.637393 58.227924 0
M  V30 15 N 37.774090 30.985813 59.209609 0 CFG=1 CHG=1
M  V30 16 C 40.032784 30.734642 52.679389 0
M  V30 17 C 38.471218 27.348418 52.999080 0
M  V30 18 C 38.465868 30.517962 56.843282 0
M  V30 19 C 36.636909 31.361649 60.114798 0 CFG=2
M  V30 20 C 38.777050 27.562550 51.502704 0
M  V30 21 C 39.421612 30.658722 54.085433 0
M  V30 22 C 39.245886 25.846819 57.772915 0
M  V30 23 C 36.835929 37.338208 63.960637 0
M  V30 24 C 38.115924 24.994240 57.178461 0
M  V30 25 C 37.169498 35.230500 59.892783 0
M  V30 26 C 39.593589 27.105423 56.942836 0 CFG=2
M  V30 27 C 36.468765 36.754398 62.636133 0
M  V30 28 F 40.044239 28.782353 49.766107 0
M  V30 29 S 40.266002 35.964716 62.479371 0
M  V30 30 C 40.922049 27.721605 57.420636 0
M  V30 31 C 35.215881 31.345802 59.547660 0
M  V30 32 C 39.888189 29.796826 51.778546 0
M  V30 33 C 38.041121 35.532558 61.120891 0 CFG=2
M  V30 34 C 39.094745 30.822134 59.902219 0
M  V30 35 C 38.926160 37.163102 62.739962 0 CFG=1
M  V30 36 H 40.110298 30.109291 61.676816 0
M  V30 37 H 38.461727 30.536087 62.010576 0
M  V30 38 H 38.842784 29.026288 61.162658 0
M  V30 39 H 39.888636 34.429520 60.661530 0
M  V30 40 H 39.885391 36.127395 60.167115 0
M  V30 41 H 38.248466 33.579227 59.091269 0
M  V30 42 H 36.580703 33.645655 58.616064 0
M  V30 43 H 37.592930 27.640067 56.375552 0
M  V30 44 H 38.513427 36.137731 64.579781 0
M  V30 45 H 38.838877 37.800050 64.824994 0
M  V30 46 H 36.020847 33.150956 61.167859 0
M  V30 47 H 37.702333 32.749688 61.346327 0
M  V30 48 H 36.559888 30.136705 57.627376 0
M  V30 49 H 37.442603 38.990438 61.273874 0
M  V30 50 H 38.445037 38.132128 60.138618 0
M  V30 51 H 36.704902 37.888470 60.131317 0
M  V30 52 H 38.659898 28.455519 58.996337 0
M  V30 53 H 37.017849 28.137990 58.542475 0
M  V30 54 H 40.563399 31.641650 52.442933 0
M  V30 55 H 38.116329 26.366579 53.275336 0
M  V30 56 H 39.409797 30.953831 57.166225 0
M  V30 57 H 37.947162 31.270803 56.245726 0
M  V30 58 H 36.600059 30.662232 60.947111 0
M  V30 59 H 39.286936 26.669312 51.140508 0
M  V30 60 H 37.821469 27.593244 50.984617 0
M  V30 61 H 38.609474 31.385760 54.092866 0
M  V30 62 H 40.184670 31.040656 54.767813 0
M  V30 63 H 40.128287 25.211147 57.839175 0
M  V30 64 H 39.004797 26.111563 58.801959 0
M  V30 65 H 36.230405 36.966330 64.788954 0
M  V30 66 H 36.584647 38.378192 63.767639 0
M  V30 67 H 37.974850 24.072552 57.743569 0
M  V30 68 H 37.164364 25.523812 57.182117 0
M  V30 69 H 38.336106 24.712682 56.149042 0
M  V30 70 H 37.445268 35.870076 59.053707 0
M  V30 71 H 36.129830 35.466498 60.120470 0
M  V30 72 H 39.777794 26.750342 55.927695 0
M  V30 73 H 36.107577 35.736545 62.765893 0
M  V30 74 H 35.645944 37.342155 62.234189 0
M  V30 75 H 40.867127 28.102401 58.440194 0
M  V30 76 H 41.717142 26.976789 57.392245 0
M  V30 77 H 41.238311 28.537742 56.772414 0
M  V30 78 H 34.489987 31.343355 60.366657 0
M  V30 79 H 34.976422 32.233834 58.970501 0
M  V30 80 H 35.007924 30.467288 58.947602 0
M  V30 81 H 37.820151 34.793885 61.884847 0
M  V30 82 H 39.781437 30.296194 59.246089 0
M  V30 83 H 39.520760 31.813242 60.054800 0
M  V30 84 H 39.350947 38.143420 62.544320 0
M  V30 85 H 37.877249 31.862248 58.717667 0
M  V30 END ATOM
M  V30 BEGIN BOND
M  V30 1 2 5 2
M  V30 2 1 9 6
M  V30 3 1 11 5
M  V30 4 1 11 7
M  V30 5 1 1 12 CFG=3
M  V30 6 1 14 7
M  V30 7 1 14 10
M  V30 8 1 15 10
M  V30 9 2 17 2
M  V30 10 1 18 10
M  V30 11 1 18 11
M  V30 12 1 19 9
M  V30 13 1 19 15
M  V30 14 1 20 13
M  V30 15 1 20 17
M  V30 16 1 21 5
M  V30 17 1 21 16
M  V30 18 1 23 8
M  V30 19 1 24 22
M  V30 20 1 25 6
M  V30 21 1 26 7
M  V30 22 1 26 22
M  V30 23 1 27 1
M  V30 24 1 27 23
M  V30 25 1 28 13
M  V30 26 1 29 4
M  V30 27 1 30 26
M  V30 28 1 31 19
M  V30 29 2 32 13
M  V30 30 2 32 16
M  V30 31 1 33 1
M  V30 32 1 33 4
M  V30 33 1 33 25
M  V30 34 1 34 3
M  V30 35 1 34 15
M  V30 36 1 35 1
M  V30 37 1 35 8
M  V30 38 1 35 29
M  V30 39 1 36 3
M  V30 40 1 37 3
M  V30 41 1 38 3
M  V30 42 1 39 4
M  V30 43 1 40 4
M  V30 44 1 41 6
M  V30 45 1 42 6
M  V30 46 1 7 43 CFG=3
M  V30 47 1 44 8
M  V30 48 1 45 8
M  V30 49 1 46 9
M  V30 50 1 47 9
M  V30 51 1 10 48 CFG=3
M  V30 52 1 49 12
M  V30 53 1 50 12
M  V30 54 1 51 12
M  V30 55 1 52 14
M  V30 56 1 53 14
M  V30 57 1 54 16
M  V30 58 1 55 17
M  V30 59 1 56 18
M  V30 60 1 57 18
M  V30 61 1 19 58 CFG=1
M  V30 62 1 59 20
M  V30 63 1 60 20
M  V30 64 1 61 21
M  V30 65 1 62 21
M  V30 66 1 63 22
M  V30 67 1 64 22
M  V30 68 1 65 23
M  V30 69 1 66 23
M  V30 70 1 67 24
M  V30 71 1 68 24
M  V30 72 1 69 24
M  V30 73 1 70 25
M  V30 74 1 71 25
M  V30 75 1 26 72 CFG=3
M  V30 76 1 73 27
M  V30 77 1 74 27
M  V30 78 1 75 30
M  V30 79 1 76 30
M  V30 80 1 77 30
M  V30 81 1 78 31
M  V30 82 1 79 31
M  V30 83 1 80 31
M  V30 84 1 33 81 CFG=1
M  V30 85 1 82 34
M  V30 86 1 83 34
M  V30 87 1 35 84 CFG=3
M  V30 88 1 15 85 CFG=3
M  V30 END BOND
M  V30 END CTAB
M  END
>  <i_epik_Tot_Q>  (1) 
1

>  <i_epik_Tot_abs_Q>  (1) 
1

>  <i_i_glide_confnum>  (1) 
86

>  <i_i_glide_lignum>  (1) 
9

>  <i_i_glide_posenum>  (1) 
336

>  <i_i_glide_rotatable_bonds>  (1) 
10

>  <i_lp_mmshare_version>  (1) 
72125

>  <i_m_source_file_index>  (1) 
3

>  <i_f3d_flags>  (1) 
0

>  <num_sample>  (1) 
50

>  <b_lp_Chiralities_Consistent>  (1) 
1

>  <r_epik_Charging_Adjusted_Penalty>  (1) 
0.074245454784308482

>  <r_epik_Ionization_Penalty>  (1) 
0.013686655559845946

>  <r_epik_Ionization_Penalty_Charging>  (1) 
0.012771505238954846

>  <r_epik_Ionization_Penalty_Neutral>  (1) 
0.00091515032089109971

>  <r_epik_State_Penalty>  (1) 
0.06147394954535363

>  <r_glide_ring_energy>  (1) 
1.3016869551617385

>  <r_i_docking_score>  (1) 
-8.2043558990221861

>  <r_i_glide_ecoul>  (1) 
-0.7737036474038077

>  <r_i_glide_eff_state_penalty>  (1) 
0.06147394954535363

>  <r_i_glide_einternal>  (1) 
7.6792046012175703

>  <r_i_glide_emodel>  (1) 
-38.282923669840358

>  <r_i_glide_emodel_strain>  (1) 
2.9505329353752359

>  <r_i_glide_energy>  (1) 
-37.866296181088195

>  <r_i_glide_erotb>  (1) 
0.64899532480163924

>  <r_i_glide_esite>  (1) 
-0.048266533413642905

>  <r_i_glide_evdw>  (1) 
-37.092592533684389

>  <r_i_glide_gscore>  (1) 
-8.2658298485675399

>  <r_i_glide_gscore_strain>  (1) 
0

>  <r_i_glide_hbond>  (1) 
0

>  <r_i_glide_ligand_efficiency>  (1) 
-0.23441016854349103

>  <r_i_glide_ligand_efficiency_ln>  (1) 
-1.8010382057040217

>  <r_i_glide_ligand_efficiency_sa>  (1) 
-0.7667712050882427

>  <r_i_glide_lipo>  (1) 
-5.7926165553901647

>  <r_i_glide_metal>  (1) 
-0

>  <r_i_glide_rewards>  (1) 
-1.103256910770581

>  <r_lp_Energy>  (1) 
19.396519999999999

>  <s_epik_cmdline>  (1) 
J2VwaWtfcHl0aG9uJywgJy1waHQnLCAnMS4wJywgJy1waCcsICc3LjQnLCAnLXRuJywgJzgnLCAnLW1hJywgJzUwMCcsICctaW1hZScsICc8aW5maWxlLm1hZT4nLCAnLW9tYWUnLCAnPG91dGZpbGUubWFlPic=

>  <s_epik_input>  (1) 
W0NIMl0xW0NIMl1bQ0gyXVtDQEhdKFtDQF0xMltDSDNdKVNbQ0gyXVtDQEBIXTJbQ0gyXVtDSDJdW0NIMl1bQ0BASF0oW0NIM10pTihbQ0gyXVtDSDNdKVtDQEhdKFtDSDJdMylbQ0gyXU4oW0NASF0zW0NAQEhdKFtDSDNdKVtDSDJdW0NIM10pQzQ9Qz1bQ0hdW0NIMl1DKEYpPUM9W0NIXVtDSDJdNA==

>  <s_glide_docking_method>  (1) 
confgen

>  <s_i_glide_gridfile>  (1) 
gpcr_5ht2c_6bqh_protein_autoprepared_prepared

>  <s_lp_Force_Field>  (1) 
S-OPLS

>  <s_lp_Variant>  (1) 
DiffSBDD_2-1

>  <s_m_source_file>  (1) 
generated_GPCR_5HT2C_ligand_DiffSBDD_2026-06-23_prepared.sdf

>  <GenAI_Model>  (1) 
DiffSBDD

>  <Protein>  (1) 
GPCR_5HT2C

$$$$
DiffSBDD_29
     RDKit          3D

  0  0  0  0  0  0  0  0  0  0999 V3000
M  V30 BEGIN CTAB
M  V30 COUNTS 78 81 0 0 1
M  V30 BEGIN ATOM
M  V30 1 C 38.294422 26.793595 55.704941 0 CFG=1
M  V30 2 C 38.605886 34.561052 61.786827 0
M  V30 3 C 39.857346 32.324832 61.740614 0
M  V30 4 C 39.012671 28.429791 52.332515 0
M  V30 5 C 38.764217 33.124829 62.323566 0 CFG=2
M  V30 6 C 36.432348 23.281724 55.835533 0
M  V30 7 C 37.418143 31.210023 59.653317 0
M  V30 8 C 41.488870 33.913936 62.929015 0
M  V30 9 N 39.186660 28.849738 57.644181 0
M  V30 10 O 37.618230 32.348291 61.769540 0
M  V30 11 C 40.393118 30.168060 50.595673 0
M  V30 12 C 40.959728 35.138763 62.192766 0
M  V30 13 C 35.900294 29.608319 58.371538 0
M  V30 14 N 38.340063 30.789081 56.859995 0
M  V30 15 N 39.069317 27.212626 54.514701 0 CFG=1 CHG=1
M  V30 16 C 39.533947 35.556344 62.480039 0
M  V30 17 C 38.361605 28.862645 58.886926 0
M  V30 18 C 39.223495 29.825346 56.691023 0
M  V30 19 N 38.127003 31.248241 60.905087 0
M  V30 20 C 40.044955 30.598761 51.882296 0
M  V30 21 C 37.401875 25.562616 55.351754 0
M  V30 22 C 39.405508 26.503493 56.742180 0 CFG=1
M  V30 23 C 40.164717 26.216142 54.427637 0
M  V30 24 C 39.340553 29.738156 52.745320 0
M  V30 25 C 41.310624 32.659259 62.055569 0
M  V30 26 C 39.363597 28.000200 51.039964 0
M  V30 27 C 40.445166 25.802997 55.878584 0
M  V30 28 O 39.994617 29.793077 55.738457 0
M  V30 29 C 37.136783 29.762879 59.239058 0 CFG=1
M  V30 30 C 38.281629 27.489910 53.279060 0
M  V30 31 C 37.147350 24.498703 56.426142 0
M  V30 32 C 39.456642 31.379588 60.995255 0
M  V30 33 O 41.644824 35.737196 61.378110 0
M  V30 34 C 40.064423 27.692537 57.503808 0
M  V30 35 C 40.045225 28.874975 50.172031 0
M  V30 36 H 37.645136 27.597672 56.041573 0
M  V30 37 H 37.577208 34.892215 61.922754 0
M  V30 38 H 38.770686 34.574046 60.708023 0
M  V30 39 H 38.845143 33.038359 63.387643 0
M  V30 40 H 36.422130 22.464746 56.555682 0
M  V30 41 H 35.403386 23.513894 55.557990 0
M  V30 42 H 36.943013 22.911451 54.946311 0
M  V30 43 H 36.468754 31.726594 59.805615 0
M  V30 44 H 37.961305 31.816051 58.935523 0
M  V30 45 H 40.952928 33.795423 63.870143 0
M  V30 46 H 42.528202 34.054451 63.208296 0
M  V30 47 H 40.924316 30.832733 49.928185 0
M  V30 48 H 36.086290 29.736730 57.308664 0
M  V30 49 H 35.460941 28.629774 58.567400 0
M  V30 50 H 35.135082 30.336520 58.635787 0
M  V30 51 H 37.700298 30.757313 57.641757 0
M  V30 52 H 38.285051 31.545339 56.192930 0
M  V30 53 H 39.357077 35.567319 63.555663 0
M  V30 54 H 39.367701 36.566809 62.106495 0
M  V30 55 H 39.069739 28.942901 59.707601 0
M  V30 56 H 38.039717 27.827269 58.976648 0
M  V30 57 H 40.300336 31.596909 52.204550 0
M  V30 58 H 36.445275 25.945582 55.028489 0
M  V30 59 H 37.791984 25.029840 54.486457 0
M  V30 60 H 39.042703 25.856738 57.536896 0
M  V30 61 H 41.053195 26.537614 53.898844 0
M  V30 62 H 39.859407 25.337785 53.884161 0
M  V30 63 H 39.052407 30.083219 53.716954 0
M  V30 64 H 41.747211 31.802126 62.569109 0
M  V30 65 H 41.864620 32.758929 61.123232 0
M  V30 66 H 39.109934 27.002357 50.711441 0
M  V30 67 H 41.431253 26.137994 56.167820 0
M  V30 68 H 40.389069 24.725378 56.010994 0
M  V30 69 H 36.771177 29.339338 60.167737 0
M  V30 70 H 38.023227 26.558879 52.769937 0
M  V30 71 H 37.340204 27.971800 53.550362 0
M  V30 72 H 38.087440 24.124649 56.824929 0
M  V30 73 H 36.583247 24.920432 57.258324 0
M  V30 74 H 40.066501 30.681901 60.444339 0
M  V30 75 H 41.002396 28.008979 57.044810 0
M  V30 76 H 40.374218 27.349106 58.493449 0
M  V30 77 H 40.317636 28.551740 49.185777 0
M  V30 78 H 39.502827 28.091673 54.777782 0
M  V30 END ATOM
M  V30 BEGIN BOND
M  V30 1 1 5 2
M  V30 2 1 5 3
M  V30 3 1 10 5
M  V30 4 1 12 8
M  V30 5 1 15 1
M  V30 6 1 16 2
M  V30 7 1 16 12
M  V30 8 1 17 9
M  V30 9 1 18 9
M  V30 10 1 18 14
M  V30 11 1 19 7
M  V30 12 1 19 10
M  V30 13 2 20 11
M  V30 14 1 21 1
M  V30 15 1 22 1
M  V30 16 1 23 15
M  V30 17 2 24 4
M  V30 18 1 24 20
M  V30 19 1 25 3
M  V30 20 1 25 8
M  V30 21 1 26 4
M  V30 22 1 27 22
M  V30 23 1 27 23
M  V30 24 2 28 18
M  V30 25 1 29 7
M  V30 26 1 29 13
M  V30 27 1 29 17
M  V30 28 1 30 4
M  V30 29 1 30 15
M  V30 30 1 31 6
M  V30 31 1 31 21
M  V30 32 2 32 3
M  V30 33 1 32 19
M  V30 34 2 33 12
M  V30 35 1 34 9
M  V30 36 1 34 22
M  V30 37 1 35 11
M  V30 38 2 35 26
M  V30 39 1 1 36 CFG=1
M  V30 40 1 37 2
M  V30 41 1 38 2
M  V30 42 1 5 39 CFG=1
M  V30 43 1 40 6
M  V30 44 1 41 6
M  V30 45 1 42 6
M  V30 46 1 43 7
M  V30 47 1 44 7
M  V30 48 1 45 8
M  V30 49 1 46 8
M  V30 50 1 47 11
M  V30 51 1 48 13
M  V30 52 1 49 13
M  V30 53 1 50 13
M  V30 54 1 51 14
M  V30 55 1 52 14
M  V30 56 1 53 16
M  V30 57 1 54 16
M  V30 58 1 55 17
M  V30 59 1 56 17
M  V30 60 1 57 20
M  V30 61 1 58 21
M  V30 62 1 59 21
M  V30 63 1 22 60 CFG=1
M  V30 64 1 61 23
M  V30 65 1 62 23
M  V30 66 1 63 24
M  V30 67 1 64 25
M  V30 68 1 65 25
M  V30 69 1 66 26
M  V30 70 1 67 27
M  V30 71 1 68 27
M  V30 72 1 29 69 CFG=1
M  V30 73 1 70 30
M  V30 74 1 71 30
M  V30 75 1 72 31
M  V30 76 1 73 31
M  V30 77 1 74 32
M  V30 78 1 75 34
M  V30 79 1 76 34
M  V30 80 1 77 35
M  V30 81 1 15 78 CFG=1
M  V30 END BOND
M  V30 END CTAB
M  END
>  <i_epik_Tot_Q>  (1) 
1

>  <i_epik_Tot_abs_Q>  (1) 
1

>  <i_i_glide_confnum>  (1) 
282

>  <i_i_glide_lignum>  (1) 
64

>  <i_i_glide_posenum>  (1) 
3

>  <i_i_glide_rotatable_bonds>  (1) 
11

>  <i_lp_mmshare_version>  (1) 
72125

>  <i_m_source_file_index>  (1) 
30

>  <i_f3d_flags>  (1) 
0

>  <num_sample>  (1) 
50

>  <b_lp_Chiralities_Consistent>  (1) 
1

>  <r_epik_Charging_Adjusted_Penalty>  (1) 
0.034972120206071468

>  <r_epik_Ionization_Penalty>  (1) 
0.01911812601903189

>  <r_epik_Ionization_Penalty_Charging>  (1) 
0.017486060103035727

>  <r_epik_Ionization_Penalty_Neutral>  (1) 
0.0016320659159961622

>  <r_epik_State_Penalty>  (1) 
0.017486060103035741

>  <r_glide_ring_energy>  (1) 
0

>  <r_i_docking_score>  (1) 
-8.1948782304727779

>  <r_i_glide_ecoul>  (1) 
-3.1247425474931152

>  <r_i_glide_eff_state_penalty>  (1) 
0.017486060103035741

>  <r_i_glide_einternal>  (1) 
25.512794824573653

>  <r_i_glide_emodel>  (1) 
-46.281949891275076

>  <r_i_glide_emodel_strain>  (1) 
4.8826696456276864

>  <r_i_glide_energy>  (1) 
-42.604510688235891

>  <r_i_glide_erotb>  (1) 
0.69426181123573816

>  <r_i_glide_esite>  (1) 
-0.077827591384633563

>  <r_i_glide_evdw>  (1) 
-39.479768140742777

>  <r_i_glide_gscore>  (1) 
-8.2123642905758132

>  <r_i_glide_gscore_strain>  (1) 
0.22066741140692159

>  <r_i_glide_hbond>  (1) 
0

>  <r_i_glide_ligand_efficiency>  (1) 
-0.23413937801350793

>  <r_i_glide_ligand_efficiency_ln>  (1) 
-1.7989576471119062

>  <r_i_glide_ligand_efficiency_sa>  (1) 
-0.76588543130849696

>  <r_i_glide_lipo>  (1) 
-5.282980119454459

>  <r_i_glide_metal>  (1) 
-0

>  <r_i_glide_rewards>  (1) 
-1.323786013218275

>  <r_lp_Energy>  (1) 
30.748728

>  <r_lp_tautomer_probability>  (1) 
0.99999998000000001

>  <s_epik_Chemistry_Notes>  (1) 
This compound has a N-S or N-O group and may undergo hydrolysis at high or low pH.

>  <s_epik_cmdline>  (1) 
J2VwaWtfcHl0aG9uJywgJy1waHQnLCAnMS4wJywgJy1waCcsICc3LjQnLCAnLXRuJywgJzgnLCAnLW1hJywgJzUwMCcsICctaW1hZScsICc8aW5maWxlLm1hZT4nLCAnLW9tYWUnLCAnPG91dGZpbGUubWFlPic=

>  <s_epik_input>  (1) 
W2NIXTFbY0hdW2NIXVtjSF1bY0hdYzFbQ0gyXU4oW0NASF0yW0NIMl1bQ0gyXVtDSDNdKVtDSDJdW0NIMl1bQ0BIXTJbQ0gyXU4oQyg9TylbTkgyXSlbQ0gyXVtDQEhdKFtDSDNdKVtDSDJdTihbQ0hdMylPW0NAQEhdKEM9MzQpW0NIMl1bQ0gyXUMoPU8pW0NIMl1bQ0gyXTQ=

>  <s_glide_docking_method>  (1) 
confgen

>  <s_i_glide_gridfile>  (1) 
gpcr_5ht2c_6bqh_protein_autoprepared_prepared

>  <s_lp_Force_Field>  (1) 
S-OPLS

>  <s_lp_Variant>  (1) 
DiffSBDD_29-1

>  <s_m_source_file>  (1) 
generated_GPCR_5HT2C_ligand_DiffSBDD_2026-06-23_prepared.sdf

>  <GenAI_Model>  (1) 
DiffSBDD

>  <Protein>  (1) 
GPCR_5HT2C

$$$$
DiffSBDD_41
     RDKit          3D

  0  0  0  0  0  0  0  0  0  0999 V3000
M  V30 BEGIN CTAB
M  V30 COUNTS 70 74 0 0 1
M  V30 BEGIN ATOM
M  V30 1 C 38.067870 27.779330 52.596370 0
M  V30 2 O 38.659220 32.508330 58.012727 0
M  V30 3 C 38.550738 31.997688 56.683693 0 CFG=1
M  V30 4 C 37.864922 29.750264 58.645382 0
M  V30 5 C 38.625341 28.753250 51.601558 0
M  V30 6 C 39.768561 27.985956 55.137674 0
M  V30 7 C 36.898579 23.737765 56.418094 0
M  V30 8 C 37.245045 24.153686 55.134080 0
M  V30 9 C 38.938091 34.009563 60.422212 0
M  V30 10 C 38.679230 26.549360 58.305714 0
M  V30 11 C 39.391509 32.898144 55.778762 0
M  V30 12 C 37.923550 35.896243 61.017069 0
M  V30 13 N 38.821266 34.954639 61.337848 0
M  V30 14 C 39.060709 30.534571 56.634271 0 CFG=1
M  V30 15 C 38.825197 29.106013 54.626375 0
M  V30 16 C 38.026322 34.367227 59.367755 0
M  V30 17 O 40.840428 35.728752 62.340064 0
M  V30 18 O 39.688255 33.035997 60.488200 0
M  V30 19 C 39.483115 30.103431 53.620859 0
M  V30 20 C 39.780038 29.564470 52.195990 0
M  V30 21 N 39.138380 29.896044 57.935827 0
M  V30 22 O 37.649863 36.876528 61.710279 0
M  V30 23 O 38.242392 29.824247 55.733548 0
M  V30 24 C 38.034371 25.294063 54.967752 0
M  V30 25 C 40.006888 28.730352 58.057641 0
M  V30 26 C 39.640464 35.005521 62.554360 0
M  V30 27 C 38.456710 26.024715 56.088192 0
M  V30 28 C 37.918525 33.631980 58.242825 0
M  V30 29 C 37.342226 24.465120 57.542470 0
M  V30 30 C 35.746085 35.384599 59.676611 0
M  V30 31 N 39.208428 27.196685 56.218801 0
M  V30 32 C 37.245073 35.639974 59.640771 0 CFG=1
M  V30 33 C 37.630679 28.472561 53.902268 0
M  V30 34 C 39.315638 27.505762 57.576728 0
M  V30 35 C 38.123706 25.628532 57.400404 0
M  V30 36 H 38.807923 26.996664 52.695256 0
M  V30 37 H 37.196011 27.337644 52.167677 0
M  V30 38 H 37.515705 31.994369 56.347504 0
M  V30 39 H 38.031624 29.421694 59.671179 0
M  V30 40 H 37.301557 30.681422 58.686410 0
M  V30 41 H 37.223689 29.019672 58.151782 0
M  V30 42 H 38.928135 28.253233 50.679771 0
M  V30 43 H 37.761147 29.337766 51.367746 0
M  V30 44 H 40.045070 27.296308 54.348151 0
M  V30 45 H 40.704903 28.418900 55.480327 0
M  V30 46 H 36.297367 22.851273 56.551480 0
M  V30 47 H 36.906104 23.595645 54.274098 0
M  V30 48 H 38.584701 26.513885 59.367766 0
M  V30 49 H 39.416642 32.537797 54.757025 0
M  V30 50 H 38.988019 33.909464 55.741935 0
M  V30 51 H 40.409517 32.952162 56.167745 0
M  V30 52 H 40.067132 30.550956 56.231647 0
M  V30 53 H 40.966848 36.333916 63.058004 0
M  V30 54 H 38.779283 30.924117 53.482859 0
M  V30 55 H 40.391108 30.539641 54.036388 0
M  V30 56 H 40.668539 28.939849 52.167760 0
M  V30 57 H 40.006951 30.403672 51.536491 0
M  V30 58 H 38.302016 25.610663 53.987910 0
M  V30 59 H 40.264422 28.608878 59.110350 0
M  V30 60 H 40.954340 28.889628 57.545622 0
M  V30 61 H 39.886157 34.002320 62.906742 0
M  V30 62 H 39.093857 35.486593 63.367199 0
M  V30 63 H 37.252461 33.869837 57.423811 0
M  V30 64 H 37.078029 24.137766 58.527349 0
M  V30 65 H 35.463653 34.735490 60.505706 0
M  V30 66 H 35.245309 36.340537 59.767760 0
M  V30 67 H 35.391649 34.924692 58.753479 0
M  V30 68 H 37.503569 36.428976 58.934747 0
M  V30 69 H 37.097132 27.780175 54.549260 0
M  V30 70 H 36.898448 29.247814 53.676635 0
M  V30 END ATOM
M  V30 BEGIN BOND
M  V30 1 1 3 2
M  V30 2 1 5 1
M  V30 3 2 8 7
M  V30 4 1 11 3
M  V30 5 1 13 9
M  V30 6 1 13 12
M  V30 7 1 14 3
M  V30 8 1 15 6
M  V30 9 1 16 9
M  V30 10 2 18 9
M  V30 11 1 19 15
M  V30 12 1 20 5
M  V30 13 1 20 19
M  V30 14 1 21 4
M  V30 15 1 21 14
M  V30 16 2 22 12
M  V30 17 1 23 14
M  V30 18 1 23 15
M  V30 19 1 24 8
M  V30 20 1 25 21
M  V30 21 1 26 13
M  V30 22 1 26 17
M  V30 23 2 27 24
M  V30 24 1 28 2
M  V30 25 2 28 16
M  V30 26 1 29 7
M  V30 27 1 31 6
M  V30 28 1 31 27
M  V30 29 1 32 12
M  V30 30 1 32 16
M  V30 31 1 32 30
M  V30 32 1 33 1
M  V30 33 1 33 15
M  V30 34 2 34 10
M  V30 35 1 34 25
M  V30 36 1 34 31
M  V30 37 1 35 10
M  V30 38 1 35 27
M  V30 39 2 35 29
M  V30 40 1 36 1
M  V30 41 1 37 1
M  V30 42 1 3 38 CFG=3
M  V30 43 1 39 4
M  V30 44 1 40 4
M  V30 45 1 41 4
M  V30 46 1 42 5
M  V30 47 1 43 5
M  V30 48 1 44 6
M  V30 49 1 45 6
M  V30 50 1 46 7
M  V30 51 1 47 8
M  V30 52 1 48 10
M  V30 53 1 49 11
M  V30 54 1 50 11
M  V30 55 1 51 11
M  V30 56 1 14 52 CFG=3
M  V30 57 1 53 17
M  V30 58 1 54 19
M  V30 59 1 55 19
M  V30 60 1 56 20
M  V30 61 1 57 20
M  V30 62 1 58 24
M  V30 63 1 59 25
M  V30 64 1 60 25
M  V30 65 1 61 26
M  V30 66 1 62 26
M  V30 67 1 63 28
M  V30 68 1 64 29
M  V30 69 1 65 30
M  V30 70 1 66 30
M  V30 71 1 67 30
M  V30 72 1 32 68 CFG=3
M  V30 73 1 69 33
M  V30 74 1 70 33
M  V30 END BOND
M  V30 END CTAB
M  END
>  <i_epik_Tot_Q>  (1) 
0

>  <i_epik_Tot_abs_Q>  (1) 
0

>  <i_i_glide_confnum>  (1) 
5

>  <i_i_glide_lignum>  (1) 
88

>  <i_i_glide_posenum>  (1) 
61

>  <i_i_glide_rotatable_bonds>  (1) 
5

>  <i_lp_mmshare_version>  (1) 
72125

>  <i_m_source_file_index>  (1) 
42

>  <i_f3d_flags>  (1) 
0

>  <num_sample>  (1) 
50

>  <b_lp_Chiralities_Consistent>  (1) 
1

>  <r_epik_Charging_Adjusted_Penalty>  (1) 
0.17305261392596941

>  <r_epik_Ionization_Penalty>  (1) 
0.17312613183816786

>  <r_epik_Ionization_Penalty_Charging>  (1) 
0

>  <r_epik_Ionization_Penalty_Neutral>  (1) 
0.17312613183816786

>  <r_epik_State_Penalty>  (1) 
0.17305261392596941

>  <r_glide_ring_energy>  (1) 
1.1930087166834973

>  <r_i_docking_score>  (1) 
-8.1751169004880939

>  <r_i_glide_ecoul>  (1) 
-2.063273208541625

>  <r_i_glide_eff_state_penalty>  (1) 
0.17305261392596941

>  <r_i_glide_einternal>  (1) 
7.0117123065302289

>  <r_i_glide_emodel>  (1) 
-51.566098844531332

>  <r_i_glide_emodel_strain>  (1) 
0.04782232611422188

>  <r_i_glide_energy>  (1) 
-40.247387076929563

>  <r_i_glide_erotb>  (1) 
0.34988069477117673

>  <r_i_glide_esite>  (1) 
-0.018316223571559407

>  <r_i_glide_evdw>  (1) 
-38.184113868387939

>  <r_i_glide_gscore>  (1) 
-8.3481695144140637

>  <r_i_glide_gscore_strain>  (1) 
0

>  <r_i_glide_hbond>  (1) 
0

>  <r_i_glide_ligand_efficiency>  (1) 
-0.2335747685853741

>  <r_i_glide_ligand_efficiency_ln>  (1) 
-1.7946195966011791

>  <r_i_glide_ligand_efficiency_sa>  (1) 
-0.76403855642971352

>  <r_i_glide_lipo>  (1) 
-4.4345233597247011

>  <r_i_glide_metal>  (1) 
-0

>  <r_i_glide_rewards>  (1) 
-2.0265139511883379

>  <r_lp_Energy>  (1) 
37.188876

>  <s_epik_Chemistry_Notes>  (1) 
This compound contains an acetal/aminal-like group ( X-CH(R)-Y where X, Y are N, S, or O) that may be acid/base labile, releasing an aldehyde.

>  <s_epik_cmdline>  (1) 
J2VwaWtfcHl0aG9uJywgJy1waHQnLCAnMS4wJywgJy1waCcsICc3LjQnLCAnLXRuJywgJzgnLCAnLW1hJywgJzUwMCcsICctaW1hZScsICc8aW5maWxlLm1hZT4nLCAnLW9tYWUnLCAnPG91dGZpbGUubWFlPic=

>  <s_epik_input>  (1) 
W0NIMl0xW0NIMl1bQ0gyXVtDSDJdW0NIMl1DMTJbQ0gyXW4zYzRjKFtjSF1bY0hdW2NIXVtjSF00KVtjSF1jM1tDSDJdTihbQ0gzXSlbQ0BASF0oTzIpW0NASF0oW0NIM10pTy9bQ0hdPUNcNVtDQEBIXShbQ0gzXSlDKD1PKU4oQzU9TylbQ0gyXVtPSF0=

>  <s_glide_docking_method>  (1) 
confgen

>  <s_i_glide_gridfile>  (1) 
gpcr_5ht2c_6bqh_protein_autoprepared_prepared

>  <s_lp_Force_Field>  (1) 
S-OPLS

>  <s_lp_Variant>  (1) 
DiffSBDD_41-2

>  <s_m_source_file>  (1) 
generated_GPCR_5HT2C_ligand_DiffSBDD_2026-06-23_prepared.sdf

>  <GenAI_Model>  (1) 
DiffSBDD

>  <Protein>  (1) 
GPCR_5HT2C

$$$$
DiffSBDD_22
     RDKit          3D

  0  0  0  0  0  0  0  0  0  0999 V3000
M  V30 BEGIN CTAB
M  V30 COUNTS 69 72 0 0 1
M  V30 BEGIN ATOM
M  V30 1 N 41.760349 29.507078 66.943765 0
M  V30 2 C 42.613633 33.892546 65.852908 0
M  V30 3 C 39.951720 28.484899 58.785664 0
M  V30 4 O 44.816790 32.539800 66.567616 0
M  V30 5 C 39.812701 29.977914 61.179756 0
M  V30 6 N 40.300271 30.537786 51.057412 0
M  V30 7 C 42.483290 32.337067 65.918659 0 CFG=1
M  V30 8 C 40.845393 28.219307 59.833476 0
M  V30 9 C 38.544921 28.094225 53.209611 0
M  V30 10 C 39.746100 30.778580 62.438440 0 CFG=2
M  V30 11 S 41.751745 32.844830 68.593855 0
M  V30 12 C 40.903124 32.705708 63.828321 0
M  V30 13 C 42.980318 29.465994 66.156163 0
M  V30 14 C 42.040421 31.899218 64.480245 0
M  V30 15 C 39.134755 30.107223 55.098002 0
M  V30 16 C 36.544608 29.769247 58.297149 0
M  V30 17 N 44.020115 30.438360 66.465762 0
M  V30 18 C 41.045962 30.516111 67.262938 0
M  V30 19 C 37.998787 29.781527 57.799527 0 CFG=1
M  V30 20 O 36.173919 30.937976 58.968187 0
M  V30 21 C 38.980538 29.494495 58.929532 0
M  V30 22 C 40.226682 33.776677 68.938448 0
M  V30 23 C 38.919245 30.241067 60.124294 0
M  V30 24 C 39.535478 30.263054 53.755498 0
M  V30 25 C 38.433522 28.940715 55.499089 0
M  V30 26 O 39.059366 32.035594 62.289060 0
M  V30 27 O 38.034141 28.751107 56.808550 0
M  V30 28 C 39.684614 29.393101 51.364772 0
M  V30 29 C 43.881855 31.771012 66.342267 0
M  V30 30 C 38.142487 27.942612 54.549117 0
M  V30 31 C 40.471162 32.092379 62.520374 0 CFG=2
M  V30 32 C 39.244694 29.251166 52.803650 0
M  V30 33 O 39.478895 28.500705 50.548164 0
M  V30 34 C 39.966250 34.934067 67.968715 0
M  V30 35 C 41.414789 31.984754 67.009768 0 CFG=2
M  V30 36 C 40.773338 28.956589 61.030722 0
M  V30 37 H 40.479491 32.421633 66.663634 0
M  V30 38 H 41.649692 34.383514 65.736283 0
M  V30 39 H 43.041231 34.320733 66.758032 0
M  V30 40 H 43.239862 34.215192 65.020705 0
M  V30 41 H 40.011890 27.912854 57.871471 0
M  V30 42 H 40.443794 31.241502 51.764743 0
M  V30 43 H 40.616131 30.697729 50.113321 0
M  V30 44 H 41.592143 27.451235 59.718725 0
M  V30 45 H 38.318536 27.317878 52.491018 0
M  V30 46 H 39.491448 30.212455 63.333587 0
M  V30 47 H 41.195763 33.736036 63.625247 0
M  V30 48 H 40.044280 32.742567 64.493276 0
M  V30 49 H 42.800333 29.358498 65.090003 0
M  V30 50 H 43.457090 28.514151 66.391369 0
M  V30 51 H 41.644509 30.892590 64.491411 0
M  V30 52 H 42.890996 31.880943 63.802620 0
M  V30 53 H 39.373160 30.877899 55.810752 0
M  V30 54 H 36.317146 28.935118 58.940696 0
M  V30 55 H 35.890146 29.737538 57.431843 0
M  V30 56 H 44.919353 30.075865 66.749829 0
M  V30 57 H 40.086559 30.382404 67.767757 0
M  V30 58 H 38.184226 30.780607 57.416899 0
M  V30 59 H 35.767731 31.483940 58.281153 0
M  V30 60 H 39.375640 33.098880 68.967400 0
M  V30 61 H 40.338839 34.200278 69.935160 0
M  V30 62 H 38.184829 31.020552 60.234291 0
M  V30 63 H 40.071435 31.152400 53.462974 0
M  V30 64 H 37.610136 27.053287 54.852021 0
M  V30 65 H 41.061374 32.375283 61.650589 0
M  V30 66 H 39.124517 35.538498 68.309969 0
M  V30 67 H 40.832342 35.592012 67.895913 0
M  V30 68 H 39.716380 34.577342 66.972414 0
M  V30 69 H 41.464003 28.744377 61.834090 0
M  V30 END ATOM
M  V30 BEGIN BOND
M  V30 1 1 7 2 CFG=3
M  V30 2 2 8 3
M  V30 3 1 10 5
M  V30 4 1 13 1
M  V30 5 1 14 7
M  V30 6 1 14 12
M  V30 7 1 17 13
M  V30 8 2 18 1
M  V30 9 1 19 16
M  V30 10 1 20 16
M  V30 11 1 21 3
M  V30 12 1 21 19
M  V30 13 1 22 11
M  V30 14 1 23 5
M  V30 15 2 23 21
M  V30 16 2 24 15
M  V30 17 1 25 15
M  V30 18 1 26 10
M  V30 19 1 27 19
M  V30 20 1 27 25
M  V30 21 1 28 6
M  V30 22 2 29 4
M  V30 23 1 29 7
M  V30 24 1 29 17
M  V30 25 1 30 9
M  V30 26 2 30 25
M  V30 27 1 31 10
M  V30 28 1 31 12
M  V30 29 1 31 26
M  V30 30 2 32 9
M  V30 31 1 32 24
M  V30 32 1 32 28
M  V30 33 2 33 28
M  V30 34 1 34 22
M  V30 35 1 35 7
M  V30 36 1 35 11
M  V30 37 1 35 18
M  V30 38 2 36 5
M  V30 39 1 36 8
M  V30 40 1 35 37 CFG=3
M  V30 41 1 38 2
M  V30 42 1 39 2
M  V30 43 1 40 2
M  V30 44 1 41 3
M  V30 45 1 42 6
M  V30 46 1 43 6
M  V30 47 1 44 8
M  V30 48 1 45 9
M  V30 49 1 10 46 CFG=1
M  V30 50 1 47 12
M  V30 51 1 48 12
M  V30 52 1 49 13
M  V30 53 1 50 13
M  V30 54 1 51 14
M  V30 55 1 52 14
M  V30 56 1 53 15
M  V30 57 1 54 16
M  V30 58 1 55 16
M  V30 59 1 56 17
M  V30 60 1 57 18
M  V30 61 1 19 58 CFG=3
M  V30 62 1 59 20
M  V30 63 1 60 22
M  V30 64 1 61 22
M  V30 65 1 62 23
M  V30 66 1 63 24
M  V30 67 1 64 30
M  V30 68 1 31 65 CFG=3
M  V30 69 1 66 34
M  V30 70 1 67 34
M  V30 71 1 68 34
M  V30 72 1 69 36
M  V30 END BOND
M  V30 END CTAB
M  END
>  <i_epik_Tot_Q>  (1) 
0

>  <i_epik_Tot_abs_Q>  (1) 
0

>  <i_i_glide_confnum>  (1) 
45

>  <i_i_glide_lignum>  (1) 
49

>  <i_i_glide_posenum>  (1) 
279

>  <i_i_glide_rotatable_bonds>  (1) 
12

>  <i_lp_mmshare_version>  (1) 
72125

>  <i_m_source_file_index>  (1) 
23

>  <i_f3d_flags>  (1) 
0

>  <num_sample>  (1) 
50

>  <b_lp_Chiralities_Consistent>  (1) 
1

>  <r_epik_Charging_Adjusted_Penalty>  (1) 
0

>  <r_epik_Ionization_Penalty>  (1) 
0.00010073509857401548

>  <r_epik_Ionization_Penalty_Charging>  (1) 
0

>  <r_epik_Ionization_Penalty_Neutral>  (1) 
0.00010073509857401548

>  <r_epik_State_Penalty>  (1) 
-0

>  <r_glide_ring_energy>  (1) 
0

>  <r_i_docking_score>  (1) 
-8.1630989151658806

>  <r_i_glide_ecoul>  (1) 
-9.3664301305982711

>  <r_i_glide_eff_state_penalty>  (1) 
-0

>  <r_i_glide_einternal>  (1) 
16.897237628295855

>  <r_i_glide_emodel>  (1) 
-73.11527275820238

>  <r_i_glide_emodel_strain>  (1) 
2.5645919878833041

>  <r_i_glide_energy>  (1) 
-55.344552455937588

>  <r_i_glide_erotb>  (1) 
0.70459601099453772

>  <r_i_glide_esite>  (1) 
0

>  <r_i_glide_evdw>  (1) 
-45.978122325339321

>  <r_i_glide_gscore>  (1) 
-8.1630989151658806

>  <r_i_glide_gscore_strain>  (1) 
0

>  <r_i_glide_hbond>  (1) 
-0.1313687591478995

>  <r_i_glide_ligand_efficiency>  (1) 
-0.22675274764349668

>  <r_i_glide_ligand_efficiency_ln>  (1) 
-1.7809676418432121

>  <r_i_glide_ligand_efficiency_sa>  (1) 
-0.74872107620578865

>  <r_i_glide_lipo>  (1) 
-3.9001505045234035

>  <r_i_glide_metal>  (1) 
-0

>  <r_i_glide_rewards>  (1) 
-1.1323050266324099

>  <r_lp_Energy>  (1) 
55.610787999999999

>  <r_lp_tautomer_probability>  (1) 
1

>  <s_epik_Chemistry_Notes>  (1) 
This compound has an imine and may undergo hydrolysis. This compound contains an acetal/aminal-like group ( X-CH(R)-Y where X, Y are N, S, or O) that may be acid/base labile, releasing an aldehyde.

>  <s_epik_cmdline>  (1) 
J2VwaWtfcHl0aG9uJywgJy1waHQnLCAnMS4wJywgJy1waCcsICc3LjQnLCAnLXRuJywgJzgnLCAnLW1hJywgJzUwMCcsICctaW1hZScsICc8aW5maWxlLm1hZT4nLCAnLW9tYWUnLCAnPG91dGZpbGUubWFlPic=

>  <s_epik_input>  (1) 
W0NIM11bQ0gyXVNDMT1bQ0hdW05IXVtDSDJdW05IXUMoPU8pW0NAQF0xKFtDSDNdKVtDSDJdW0NIMl1bQ0BASF0yT1tDQEhdMmMzW2NIXWMoW2NIXVtjSF1bY0hdMylbQ0BIXShbQ0gyXVtPSF0pT2M0W2NIXVtjSF1jKFtjSF1bY0hdNClDKD1PKVtOSDJd

>  <s_glide_docking_method>  (1) 
confgen

>  <s_i_glide_gridfile>  (1) 
gpcr_5ht2c_6bqh_protein_autoprepared_prepared

>  <s_lp_Force_Field>  (1) 
S-OPLS

>  <s_lp_Variant>  (1) 
DiffSBDD_22-1

>  <s_m_source_file>  (1) 
generated_GPCR_5HT2C_ligand_DiffSBDD_2026-06-23_prepared.sdf

>  <GenAI_Model>  (1) 
DiffSBDD

>  <Protein>  (1) 
GPCR_5HT2C

$$$$
DiffSBDD_17
     RDKit          3D

  0  0  0  0  0  0  0  0  0  0999 V3000
M  V30 BEGIN CTAB
M  V30 COUNTS 94 98 0 0 1
M  V30 BEGIN ATOM
M  V30 1 C 41.246962 31.824532 67.630247 0
M  V30 2 C 38.392239 34.087662 61.276415 0 CFG=2
M  V30 3 C 41.833336 30.865971 65.371579 0
M  V30 4 O 40.886384 36.483574 62.510748 0
M  V30 5 C 39.869682 29.929408 66.685631 0
M  V30 6 C 39.519274 28.203312 56.885151 0
M  V30 7 C 39.257353 27.013093 54.699517 0
M  V30 8 C 39.948835 27.347531 55.951749 0
M  V30 9 C 35.553313 34.223619 59.503850 0
M  V30 10 C 37.078239 37.154235 59.399530 0
M  V30 11 N 41.881774 29.222473 63.452758 0
M  V30 12 C 37.099177 36.218557 60.577854 0 CFG=2
M  V30 13 C 41.600820 31.679123 62.911611 0 CFG=1
M  V30 14 C 39.923174 34.089542 61.044030 0
M  V30 15 N 41.070403 28.108798 63.965518 0 CHG=1
M  V30 16 C 39.556455 29.296762 58.889875 0 CFG=2
M  V30 17 C 38.230255 28.918167 56.899368 0 CFG=2
M  V30 18 C 43.387210 27.618694 64.313673 0
M  V30 19 C 41.357133 30.519392 63.929854 0 CFG=2
M  V30 20 O 40.262479 28.442549 58.003038 0
M  V30 21 C 41.967414 27.289251 64.799324 0
M  V30 22 O 41.148924 31.276069 61.639136 0
M  V30 23 N 36.955310 30.675586 60.102276 0 CHG=1
M  V30 24 C 37.761953 29.595847 55.656879 0
M  V30 25 C 37.769326 32.652897 61.315889 0
M  V30 26 C 38.320192 27.756211 54.039705 0
M  V30 27 N 37.668102 34.915242 60.286405 0 CFG=2 CHG=1
M  V30 28 C 40.701566 35.287883 63.232334 0
M  V30 29 S 39.245140 28.537710 60.506023 0
M  V30 30 C 40.837675 34.045790 62.319395 0 CFG=1
M  V30 31 C 37.773390 29.066314 54.425200 0
M  V30 32 N 40.672535 32.816809 63.150707 0 CHG=1
M  V30 33 C 36.252175 34.972864 60.608278 0 CFG=2
M  V30 34 C 36.952264 29.929830 58.829715 0
M  V30 35 C 35.621652 32.718572 59.803219 0
M  V30 36 C 38.324055 29.840262 58.113997 0 CFG=1
M  V30 37 C 37.056160 32.143892 60.016538 0 CFG=2
M  V30 38 N 43.311114 28.987316 63.767759 0 CHG=1
M  V30 39 C 40.691681 31.188681 66.347667 0
M  V30 40 H 41.874963 31.125874 68.183959 0
M  V30 41 H 41.849452 32.706636 67.411759 0
M  V30 42 H 40.445011 32.139597 68.294822 0
M  V30 43 H 38.232806 34.570789 62.229165 0
M  V30 44 H 42.407865 30.066460 65.837897 0
M  V30 45 H 42.519379 31.713908 65.324291 0
M  V30 46 H 41.097285 37.178143 63.125568 0
M  V30 47 H 40.483260 29.167366 67.166040 0
M  V30 48 H 39.049978 30.137959 67.367537 0
M  V30 49 H 39.417675 29.489203 65.801796 0
M  V30 50 H 39.567669 26.099924 54.212680 0
M  V30 51 H 40.892070 26.854767 56.136745 0
M  V30 52 H 35.992646 34.447199 58.530525 0
M  V30 53 H 34.511297 34.537600 59.451132 0
M  V30 54 H 36.845128 38.137741 59.783345 0
M  V30 55 H 38.045163 37.218990 58.913357 0
M  V30 56 H 36.318383 36.870463 58.670397 0
M  V30 57 H 37.524169 36.610284 61.500871 0
M  V30 58 H 42.646232 31.990808 62.882955 0
M  V30 59 H 40.188157 34.995769 60.497422 0
M  V30 60 H 40.172625 33.284333 60.355160 0
M  V30 61 H 40.279541 28.476540 64.483831 0
M  V30 62 H 40.199002 30.137755 59.126878 0
M  V30 63 H 37.497316 28.138297 57.108204 0
M  V30 64 H 43.666791 26.944189 63.502702 0
M  V30 65 H 44.139835 27.527259 65.097657 0
M  V30 66 H 40.272436 30.397738 63.944384 0
M  V30 67 H 41.726353 26.227986 64.736706 0
M  V30 68 H 41.851019 27.597773 65.839791 0
M  V30 69 H 41.656304 31.728893 60.978343 0
M  V30 70 H 37.726191 30.313856 60.645938 0
M  V30 71 H 37.320072 30.574639 55.792664 0
M  V30 72 H 38.548233 31.944188 61.594683 0
M  V30 73 H 37.056035 32.602464 62.139504 0
M  V30 74 H 37.978215 27.357516 53.094367 0
M  V30 75 H 41.460316 35.256713 64.015678 0
M  V30 76 H 39.736623 35.330632 63.737018 0
M  V30 77 H 38.464021 27.554964 60.042829 0
M  V30 78 H 41.867613 34.050964 61.961514 0
M  V30 79 H 37.330172 29.657274 53.639941 0
M  V30 80 H 40.839939 33.102389 64.106230 0
M  V30 81 H 35.983319 34.659532 61.617333 0
M  V30 82 H 36.592110 28.937792 59.062532 0
M  V30 83 H 36.197602 30.337647 58.167861 0
M  V30 84 H 35.123507 32.207730 58.980777 0
M  V30 85 H 35.010551 32.504463 60.681285 0
M  V30 86 H 38.599961 30.834372 57.757227 0
M  V30 87 H 37.681183 32.389499 59.158022 0
M  V30 88 H 43.842579 29.053583 62.906352 0
M  V30 89 H 40.045145 31.923440 65.871706 0
M  V30 90 H 40.745360 27.588264 63.160867 0
M  V30 91 H 43.604139 29.675646 64.448368 0
M  V30 92 H 36.091646 30.456281 60.576361 0
M  V30 93 H 39.720382 32.490124 63.092244 0
M  V30 94 H 37.810712 34.724426 59.303568 0
M  V30 END ATOM
M  V30 BEGIN BOND
M  V30 1 2 8 6
M  V30 2 1 8 7
M  V30 3 1 12 10
M  V30 4 1 14 2
M  V30 5 1 15 11
M  V30 6 1 17 6
M  V30 7 1 19 3
M  V30 8 1 19 11
M  V30 9 1 19 13
M  V30 10 1 20 6
M  V30 11 1 20 16
M  V30 12 1 21 15
M  V30 13 1 21 18
M  V30 14 1 22 13
M  V30 15 1 24 17
M  V30 16 1 25 2
M  V30 17 2 26 7
M  V30 18 1 27 2
M  V30 19 1 27 12
M  V30 20 1 28 4
M  V30 21 1 29 16
M  V30 22 1 30 14
M  V30 23 1 30 28
M  V30 24 2 31 24
M  V30 25 1 31 26
M  V30 26 1 32 13
M  V30 27 1 32 30
M  V30 28 1 33 9
M  V30 29 1 33 12
M  V30 30 1 33 27
M  V30 31 1 34 23
M  V30 32 1 35 9
M  V30 33 1 36 16
M  V30 34 1 36 17
M  V30 35 1 36 34
M  V30 36 1 37 23
M  V30 37 1 37 25
M  V30 38 1 37 35
M  V30 39 1 38 11
M  V30 40 1 38 18
M  V30 41 1 39 1
M  V30 42 1 39 3
M  V30 43 1 39 5
M  V30 44 1 40 1
M  V30 45 1 41 1
M  V30 46 1 42 1
M  V30 47 1 2 43 CFG=1
M  V30 48 1 44 3
M  V30 49 1 45 3
M  V30 50 1 46 4
M  V30 51 1 47 5
M  V30 52 1 48 5
M  V30 53 1 49 5
M  V30 54 1 50 7
M  V30 55 1 51 8
M  V30 56 1 52 9
M  V30 57 1 53 9
M  V30 58 1 54 10
M  V30 59 1 55 10
M  V30 60 1 56 10
M  V30 61 1 12 57 CFG=1
M  V30 62 1 13 58 CFG=3
M  V30 63 1 59 14
M  V30 64 1 60 14
M  V30 65 1 61 15
M  V30 66 1 16 62 CFG=1
M  V30 67 1 17 63 CFG=1
M  V30 68 1 64 18
M  V30 69 1 65 18
M  V30 70 1 19 66 CFG=1
M  V30 71 1 67 21
M  V30 72 1 68 21
M  V30 73 1 69 22
M  V30 74 1 70 23
M  V30 75 1 71 24
M  V30 76 1 72 25
M  V30 77 1 73 25
M  V30 78 1 74 26
M  V30 79 1 75 28
M  V30 80 1 76 28
M  V30 81 1 77 29
M  V30 82 1 30 78 CFG=3
M  V30 83 1 79 31
M  V30 84 1 80 32
M  V30 85 1 33 81 CFG=1
M  V30 86 1 82 34
M  V30 87 1 83 34
M  V30 88 1 84 35
M  V30 89 1 85 35
M  V30 90 1 36 86 CFG=3
M  V30 91 1 37 87 CFG=3
M  V30 92 1 88 38
M  V30 93 1 89 39
M  V30 94 1 90 15
M  V30 95 1 91 38
M  V30 96 1 92 23
M  V30 97 1 93 32
M  V30 98 1 27 94 CFG=3
M  V30 END BOND
M  V30 END CTAB
M  END
>  <i_epik_Tot_Q>  (1) 
5

>  <i_epik_Tot_abs_Q>  (1) 
5

>  <i_i_glide_confnum>  (1) 
3169

>  <i_i_glide_lignum>  (1) 
38

>  <i_i_glide_posenum>  (1) 
96

>  <i_i_glide_rotatable_bonds>  (1) 
15

>  <i_lp_mmshare_version>  (1) 
72125

>  <i_m_source_file_index>  (1) 
18

>  <i_f3d_flags>  (1) 
0

>  <num_sample>  (1) 
50

>  <b_lp_Chiralities_Consistent>  (1) 
1

>  <r_epik_Charging_Adjusted_Penalty>  (1) 
1.9019841067917955

>  <r_epik_Ionization_Penalty>  (1) 
1.8906488358708171

>  <r_epik_Ionization_Penalty_Charging>  (1) 
0.55913698057276895

>  <r_epik_Ionization_Penalty_Neutral>  (1) 
1.3315118552980483

>  <r_epik_State_Penalty>  (1) 
1.3428471262190267

>  <r_glide_ring_energy>  (1) 
0.0045750838620950583

>  <r_i_docking_score>  (1) 
-8.1239962815904203

>  <r_i_glide_ecoul>  (1) 
-9.4301443694905736

>  <r_i_glide_eff_state_penalty>  (1) 
1.3428471262190267

>  <r_i_glide_einternal>  (1) 
25.445001399115913

>  <r_i_glide_emodel>  (1) 
-85.278864026346355

>  <r_i_glide_emodel_strain>  (1) 
2.168749274968178

>  <r_i_glide_energy>  (1) 
-53.208954755836103

>  <r_i_glide_erotb>  (1) 
0.39082465589251897

>  <r_i_glide_esite>  (1) 
-0.051650405675238389

>  <r_i_glide_evdw>  (1) 
-43.778810386345533

>  <r_i_glide_gscore>  (1) 
-9.4668434078094474

>  <r_i_glide_gscore_strain>  (1) 
0

>  <r_i_glide_hbond>  (1) 
-0.40644857476649698

>  <r_i_glide_ligand_efficiency>  (1) 
-0.20830759696385692

>  <r_i_glide_ligand_efficiency_ln>  (1) 
-1.7420154161214179

>  <r_i_glide_ligand_efficiency_sa>  (1) 
-0.70641510649061479

>  <r_i_glide_lipo>  (1) 
-3.5319054827230296

>  <r_i_glide_metal>  (1) 
-0

>  <r_i_glide_rewards>  (1) 
-2.2642014257963399

>  <r_lp_Energy>  (1) 
94.296559999999999

>  <s_epik_Chemistry_Notes>  (1) 
This compound contains an acetal/aminal-like group ( X-CH(R)-Y where X, Y are N, S, or O) that may be acid/base labile, releasing an aldehyde.

>  <s_epik_cmdline>  (1) 
J2VwaWtfcHl0aG9uJywgJy1waHQnLCAnMS4wJywgJy1waCcsICc3LjQnLCAnLXRuJywgJzgnLCAnLW1hJywgJzUwMCcsICctaW1hZScsICc8aW5maWxlLm1hZT4nLCAnLW9tYWUnLCAnPG91dGZpbGUubWFlPic=

>  <s_epik_input>  (1) 
W05IXTFbQ0gyXVtDSDJdW05IXU4xW0NAQEhdKFtDSDJdW0NIXShbQ0gzXSlbQ0gzXSlbQ0BASF0oW09IXSlbTkhdW0NASF0oW0NIMl1bT0hdKVtDSDJdW0NAQEhdMltDSDJdW0NASF0oW0NIMl1bQ0gyXVtDQEBIXShOMjMpW0NIXTNbQ0gzXSlbTkhdW0NIMl1bQ0BASF0oW0NASF0oTzQpW1NIXSlbQ0BIXShDND01KVtDSF09W0NIXVtDSF09W0NIXVtDSF01

>  <s_glide_docking_method>  (1) 
confgen

>  <s_i_glide_gridfile>  (1) 
gpcr_5ht2c_6bqh_protein_autoprepared_prepared

>  <s_lp_Force_Field>  (1) 
S-OPLS

>  <s_lp_Variant>  (1) 
DiffSBDD_17-5

>  <s_m_source_file>  (1) 
generated_GPCR_5HT2C_ligand_DiffSBDD_2026-06-23_prepared.sdf

>  <GenAI_Model>  (1) 
DiffSBDD

>  <Protein>  (1) 
GPCR_5HT2C

$$$$
DiffSBDD_41
     RDKit          3D

  0  0  0  0  0  0  0  0  0  0999 V3000
M  V30 BEGIN CTAB
M  V30 COUNTS 70 74 0 0 1
M  V30 BEGIN ATOM
M  V30 1 C 40.366563 26.115149 56.268521 0
M  V30 2 O 38.500584 32.004005 60.057506 0
M  V30 3 C 39.074468 30.737468 59.754502 0 CFG=1
M  V30 4 C 39.249785 32.642762 57.259042 0
M  V30 5 C 39.995908 25.291792 57.502229 0
M  V30 6 C 38.127660 28.228930 56.175667 0
M  V30 7 C 39.832685 28.497872 51.167482 0
M  V30 8 C 39.535195 27.337727 51.894727 0
M  V30 9 C 39.626098 35.010027 61.850405 0
M  V30 10 C 38.786731 31.000327 53.885301 0
M  V30 11 C 38.445036 29.790535 60.764303 0
M  V30 12 C 37.777598 36.103273 61.269326 0
M  V30 13 N 38.943717 36.137551 61.932330 0
M  V30 14 C 38.704455 30.362517 58.281932 0 CFG=1
M  V30 15 C 39.282340 28.200997 57.241217 0
M  V30 16 C 38.825091 34.120133 61.068191 0
M  V30 17 O 39.645137 38.414461 61.767765 0
M  V30 18 O 40.728722 34.794259 62.355381 0
M  V30 19 C 38.926608 27.342724 58.472712 0
M  V30 20 C 38.724511 25.862752 58.142627 0
M  V30 21 N 38.418379 31.468025 57.388779 0
M  V30 22 O 36.984895 37.042318 61.192251 0
M  V30 23 O 39.675811 29.505969 57.731722 0
M  V30 24 C 39.074546 27.437387 53.210331 0
M  V30 25 C 37.666270 31.199022 56.195060 0
M  V30 26 C 39.424767 37.326661 62.646350 0
M  V30 27 C 38.879954 28.703734 53.786526 0
M  V30 28 C 39.244651 32.869833 60.809441 0
M  V30 29 C 39.645242 29.766277 51.747167 0
M  V30 30 C 36.234406 34.034187 61.086653 0
M  V30 31 N 38.436041 29.101401 55.050489 0
M  V30 32 C 37.509331 34.733195 60.578555 0 CFG=1
M  V30 33 C 40.561827 27.600276 56.627008 0
M  V30 34 C 38.297554 30.490375 55.056055 0
M  V30 35 C 39.139977 29.899792 53.068061 0
M  V30 36 H 39.575414 25.971236 55.549747 0
M  V30 37 H 41.245142 25.737855 55.767547 0
M  V30 38 H 40.144426 30.667643 59.896227 0
M  V30 39 H 38.656023 33.470104 56.868671 0
M  V30 40 H 39.645130 32.976966 58.210219 0
M  V30 41 H 40.060502 32.457386 56.559455 0
M  V30 42 H 39.851018 24.244551 57.235751 0
M  V30 43 H 40.823585 25.338030 58.206404 0
M  V30 44 H 37.863232 27.245380 55.797699 0
M  V30 45 H 37.245204 28.575053 56.678902 0
M  V30 46 H 40.195018 28.418789 50.154458 0
M  V30 47 H 39.663239 26.367770 51.440706 0
M  V30 48 H 38.835822 32.041781 53.602775 0
M  V30 49 H 38.874637 28.793415 60.736798 0
M  V30 50 H 38.568979 30.160365 61.783394 0
M  V30 51 H 37.374406 29.737802 60.567718 0
M  V30 52 H 37.767925 29.811877 58.345448 0
M  V30 53 H 38.943773 38.428576 61.131422 0
M  V30 54 H 39.738396 27.418795 59.197356 0
M  V30 55 H 38.045024 27.722908 58.967717 0
M  V30 56 H 37.871851 25.729242 57.478374 0
M  V30 57 H 38.463464 25.337734 59.054662 0
M  V30 58 H 38.848097 26.546830 53.764178 0
M  V30 59 H 37.245129 32.132918 55.826003 0
M  V30 60 H 36.845134 30.565435 56.502763 0
M  V30 61 H 40.339942 37.139884 63.210400 0
M  V30 62 H 38.673095 37.612747 63.383180 0
M  V30 63 H 40.175520 32.441858 61.156053 0
M  V30 64 H 39.863081 30.653263 51.168850 0
M  V30 65 H 36.113608 34.125469 62.166930 0
M  V30 66 H 35.352684 34.470382 60.619156 0
M  V30 67 H 36.236681 32.972899 60.838967 0
M  V30 68 H 37.520367 34.835710 59.492952 0
M  V30 69 H 40.869478 28.177312 55.761073 0
M  V30 70 H 41.389065 27.685150 57.332797 0
M  V30 END ATOM
M  V30 BEGIN BOND
M  V30 1 1 3 2
M  V30 2 1 5 1
M  V30 3 2 8 7
M  V30 4 1 11 3
M  V30 5 1 13 9
M  V30 6 1 13 12
M  V30 7 1 14 3
M  V30 8 1 15 6
M  V30 9 1 16 9
M  V30 10 2 18 9
M  V30 11 1 19 15
M  V30 12 1 20 5
M  V30 13 1 20 19
M  V30 14 1 21 4
M  V30 15 1 21 14
M  V30 16 2 22 12
M  V30 17 1 23 14
M  V30 18 1 23 15
M  V30 19 1 24 8
M  V30 20 1 25 21
M  V30 21 1 26 13
M  V30 22 1 26 17
M  V30 23 2 27 24
M  V30 24 1 28 2
M  V30 25 2 28 16
M  V30 26 1 29 7
M  V30 27 1 31 6
M  V30 28 1 31 27
M  V30 29 1 32 12
M  V30 30 1 32 16
M  V30 31 1 32 30
M  V30 32 1 33 1
M  V30 33 1 33 15
M  V30 34 2 34 10
M  V30 35 1 34 25
M  V30 36 1 34 31
M  V30 37 1 35 10
M  V30 38 1 35 27
M  V30 39 2 35 29
M  V30 40 1 36 1
M  V30 41 1 37 1
M  V30 42 1 3 38 CFG=3
M  V30 43 1 39 4
M  V30 44 1 40 4
M  V30 45 1 41 4
M  V30 46 1 42 5
M  V30 47 1 43 5
M  V30 48 1 44 6
M  V30 49 1 45 6
M  V30 50 1 46 7
M  V30 51 1 47 8
M  V30 52 1 48 10
M  V30 53 1 49 11
M  V30 54 1 50 11
M  V30 55 1 51 11
M  V30 56 1 14 52 CFG=1
M  V30 57 1 53 17
M  V30 58 1 54 19
M  V30 59 1 55 19
M  V30 60 1 56 20
M  V30 61 1 57 20
M  V30 62 1 58 24
M  V30 63 1 59 25
M  V30 64 1 60 25
M  V30 65 1 61 26
M  V30 66 1 62 26
M  V30 67 1 63 28
M  V30 68 1 64 29
M  V30 69 1 65 30
M  V30 70 1 66 30
M  V30 71 1 67 30
M  V30 72 1 32 68 CFG=3
M  V30 73 1 69 33
M  V30 74 1 70 33
M  V30 END BOND
M  V30 END CTAB
M  END
>  <i_epik_Tot_Q>  (1) 
0

>  <i_epik_Tot_abs_Q>  (1) 
0

>  <i_i_glide_confnum>  (1) 
18

>  <i_i_glide_lignum>  (1) 
87

>  <i_i_glide_posenum>  (1) 
57

>  <i_i_glide_rotatable_bonds>  (1) 
5

>  <i_lp_mmshare_version>  (1) 
72125

>  <i_m_source_file_index>  (1) 
42

>  <i_f3d_flags>  (1) 
0

>  <num_sample>  (1) 
50

>  <b_lp_Chiralities_Consistent>  (1) 
1

>  <r_epik_Charging_Adjusted_Penalty>  (1) 
0.17305261392596941

>  <r_epik_Ionization_Penalty>  (1) 
0.17312613183816786

>  <r_epik_Ionization_Penalty_Charging>  (1) 
0

>  <r_epik_Ionization_Penalty_Neutral>  (1) 
0.17312613183816786

>  <r_epik_State_Penalty>  (1) 
0.17305261392596941

>  <r_glide_ring_energy>  (1) 
1.1919119817504524

>  <r_i_docking_score>  (1) 
-8.1165768589922873

>  <r_i_glide_ecoul>  (1) 
-2.4501748170279356

>  <r_i_glide_eff_state_penalty>  (1) 
0.17305261392596941

>  <r_i_glide_einternal>  (1) 
7.4942022951873826

>  <r_i_glide_emodel>  (1) 
-53.363036726815558

>  <r_i_glide_emodel_strain>  (1) 
1.0059722674454292

>  <r_i_glide_energy>  (1) 
-43.503751915078475

>  <r_i_glide_erotb>  (1) 
0.34988069477117673

>  <r_i_glide_esite>  (1) 
-0.02636576597218538

>  <r_i_glide_evdw>  (1) 
-41.053577098050539

>  <r_i_glide_gscore>  (1) 
-8.2896294729182571

>  <r_i_glide_gscore_strain>  (1) 
0

>  <r_i_glide_hbond>  (1) 
0

>  <r_i_glide_ligand_efficiency>  (1) 
-0.2319021959712082

>  <r_i_glide_ligand_efficiency_ln>  (1) 
-1.7817687582666291

>  <r_i_glide_ligand_efficiency_sa>  (1) 
-0.75856746050017143

>  <r_i_glide_lipo>  (1) 
-3.967208123577556

>  <r_i_glide_metal>  (1) 
-0

>  <r_i_glide_rewards>  (1) 
-2.2257312006829753

>  <r_lp_Energy>  (1) 
38.581286999999996

>  <s_epik_Chemistry_Notes>  (1) 
This compound contains an acetal/aminal-like group ( X-CH(R)-Y where X, Y are N, S, or O) that may be acid/base labile, releasing an aldehyde.

>  <s_epik_cmdline>  (1) 
J2VwaWtfcHl0aG9uJywgJy1waHQnLCAnMS4wJywgJy1waCcsICc3LjQnLCAnLXRuJywgJzgnLCAnLW1hJywgJzUwMCcsICctaW1hZScsICc8aW5maWxlLm1hZT4nLCAnLW9tYWUnLCAnPG91dGZpbGUubWFlPic=

>  <s_epik_input>  (1) 
W0NIMl0xW0NIMl1bQ0gyXVtDSDJdW0NIMl1DMTJbQ0gyXW4zYzRjKFtjSF1bY0hdW2NIXVtjSF00KVtjSF1jM1tDSDJdTihbQ0gzXSlbQ0BASF0oTzIpW0NASF0oW0NIM10pT1xbQ0hdPUNcNVtDQEBIXShbQ0gzXSlDKD1PKU4oQzU9TylbQ0gyXVtPSF0=

>  <s_glide_docking_method>  (1) 
confgen

>  <s_i_glide_gridfile>  (1) 
gpcr_5ht2c_6bqh_protein_autoprepared_prepared

>  <s_lp_Force_Field>  (1) 
S-OPLS

>  <s_lp_Variant>  (1) 
DiffSBDD_41-1

>  <s_m_source_file>  (1) 
generated_GPCR_5HT2C_ligand_DiffSBDD_2026-06-23_prepared.sdf

>  <GenAI_Model>  (1) 
DiffSBDD

>  <Protein>  (1) 
GPCR_5HT2C

$$$$
DiffSBDD_38
     RDKit          3D

  0  0  0  0  0  0  0  0  0  0999 V3000
M  V30 BEGIN CTAB
M  V30 COUNTS 71 72 0 0 1
M  V30 BEGIN ATOM
M  V30 1 C 37.747500 27.363292 54.249318 0
M  V30 2 C 39.085897 29.926615 61.149886 0
M  V30 3 C 42.045202 34.820627 66.116228 0
M  V30 4 F 39.644863 26.969448 52.185333 0
M  V30 5 C 42.156058 35.368600 64.833077 0
M  V30 6 C 41.520320 33.534317 66.255625 0
M  V30 7 C 40.423853 31.474699 62.618411 0 CFG=2
M  V30 8 C 42.108487 30.069423 63.568334 0
M  V30 9 F 40.314025 28.451341 59.116121 0
M  V30 10 C 39.789836 26.293047 56.392617 0
M  V30 11 C 41.130289 32.839283 65.105695 0
M  V30 12 C 39.338092 28.050461 51.474480 0
M  V30 13 C 39.620815 29.374460 52.214761 0 CFG=2
M  V30 14 C 37.644565 26.106660 55.037068 0
M  V30 15 N 39.645322 28.450290 55.351890 0
M  V30 16 O 41.463571 30.567981 62.409270 0
M  V30 17 C 38.981791 28.409064 59.057631 0
M  V30 18 C 38.661675 28.373469 54.385049 0
M  V30 19 C 38.658753 29.585426 53.431114 0 CFG=1
M  V30 20 C 38.494275 29.711913 59.742371 0 CFG=1
M  V30 21 C 41.279312 33.475590 63.848684 0
M  V30 22 F 38.050078 27.989792 51.184782 0
M  V30 23 C 39.493274 31.391671 61.391282 0 CFG=2
M  V30 24 C 38.468137 32.588580 55.725652 0
M  V30 25 F 38.580791 27.339953 59.743535 0
M  V30 26 F 41.398602 32.968038 67.479130 0
M  V30 27 C 38.516623 25.638928 55.960990 0
M  V30 28 N 41.771639 34.723386 63.716063 0
M  V30 29 F 40.044000 28.008579 50.350903 0
M  V30 30 C 38.541528 28.277629 57.575930 0 CFG=2
M  V30 31 C 38.266829 32.318121 61.575782 0
M  V30 32 C 38.167946 31.381266 54.867248 0
M  V30 33 C 39.662286 30.545709 51.209560 0
M  V30 34 N 39.047714 30.798725 54.156852 0
M  V30 35 C 39.651741 27.767928 56.605816 0 CFG=1
M  V30 36 O 37.083458 29.811806 59.767757 0
M  V30 37 F 38.116800 29.471386 57.157224 0
M  V30 38 N 40.920622 32.834204 62.661621 0
M  V30 39 H 37.025510 27.479970 53.453293 0
M  V30 40 H 40.239786 29.267323 55.312760 0
M  V30 41 H 38.446177 29.587924 61.956485 0
M  V30 42 H 39.955753 29.281669 61.239481 0
M  V30 43 H 42.362152 35.375112 66.967763 0
M  V30 44 H 42.574307 36.347567 64.695321 0
M  V30 45 H 39.849400 31.223183 63.509874 0
M  V30 46 H 42.844846 29.325014 63.266612 0
M  V30 47 H 41.396048 29.589561 64.241705 0
M  V30 48 H 42.645604 30.854655 64.097430 0
M  V30 49 H 40.582673 26.059174 55.681774 0
M  V30 50 H 40.092557 25.839095 57.335695 0
M  V30 51 H 40.732334 31.844225 65.187295 0
M  V30 52 H 40.638087 29.337863 52.567874 0
M  V30 53 H 36.789047 25.482727 54.831402 0
M  V30 54 H 37.645219 29.692898 53.048376 0
M  V30 55 H 38.838880 30.541890 59.123439 0
M  V30 56 H 40.068526 31.746187 60.537475 0
M  V30 57 H 37.647753 33.302695 55.665614 0
M  V30 58 H 39.384659 33.084202 55.404874 0
M  V30 59 H 38.301631 24.690992 56.433644 0
M  V30 60 H 37.642321 27.663196 57.508939 0
M  V30 61 H 37.685396 32.037790 62.453946 0
M  V30 62 H 37.599648 32.279536 60.713901 0
M  V30 63 H 38.552350 33.364790 61.684763 0
M  V30 64 H 37.130681 31.034418 54.907294 0
M  V30 65 H 38.847422 30.486468 50.493090 0
M  V30 66 H 40.582528 30.513315 50.625625 0
M  V30 67 H 39.644799 31.519310 51.696571 0
M  V30 68 H 38.585425 32.286765 56.768606 0
M  V30 69 H 40.619429 28.094964 56.981349 0
M  V30 70 H 36.777872 29.960843 58.882133 0
M  V30 71 H 41.046456 33.311155 61.783025 0
M  V30 END ATOM
M  V30 BEGIN BOND
M  V30 1 2 5 3
M  V30 2 1 6 3
M  V30 3 2 11 6
M  V30 4 1 12 4
M  V30 5 1 13 12
M  V30 6 1 14 1
M  V30 7 1 16 7
M  V30 8 1 16 8
M  V30 9 1 17 9
M  V30 10 2 18 1
M  V30 11 1 18 15
M  V30 12 1 19 13
M  V30 13 1 19 18
M  V30 14 1 20 2
M  V30 15 1 20 17
M  V30 16 1 21 11
M  V30 17 1 22 12
M  V30 18 1 23 2
M  V30 19 1 23 7
M  V30 20 1 25 17
M  V30 21 1 26 6
M  V30 22 1 27 10
M  V30 23 2 27 14
M  V30 24 1 28 5
M  V30 25 2 28 21
M  V30 26 1 29 12
M  V30 27 1 30 17
M  V30 28 1 31 23
M  V30 29 1 32 24
M  V30 30 1 33 13
M  V30 31 1 34 19
M  V30 32 2 34 32
M  V30 33 1 35 10
M  V30 34 1 35 15
M  V30 35 1 35 30
M  V30 36 1 36 20
M  V30 37 1 37 30
M  V30 38 1 38 7
M  V30 39 1 38 21
M  V30 40 1 39 1
M  V30 41 1 40 15
M  V30 42 1 41 2
M  V30 43 1 42 2
M  V30 44 1 43 3
M  V30 45 1 44 5
M  V30 46 1 7 45 CFG=1
M  V30 47 1 46 8
M  V30 48 1 47 8
M  V30 49 1 48 8
M  V30 50 1 49 10
M  V30 51 1 50 10
M  V30 52 1 51 11
M  V30 53 1 13 52 CFG=1
M  V30 54 1 53 14
M  V30 55 1 19 54 CFG=3
M  V30 56 1 20 55 CFG=3
M  V30 57 1 23 56 CFG=3
M  V30 58 1 57 24
M  V30 59 1 58 24
M  V30 60 1 59 27
M  V30 61 1 30 60 CFG=1
M  V30 62 1 61 31
M  V30 63 1 62 31
M  V30 64 1 63 31
M  V30 65 1 64 32
M  V30 66 1 65 33
M  V30 67 1 66 33
M  V30 68 1 67 33
M  V30 69 1 68 24
M  V30 70 1 35 69 CFG=1
M  V30 71 1 70 36
M  V30 72 1 71 38
M  V30 END BOND
M  V30 END CTAB
M  END
>  <i_epik_Tot_Q>  (1) 
0

>  <i_epik_Tot_abs_Q>  (1) 
0

>  <i_i_glide_confnum>  (1) 
1356

>  <i_i_glide_lignum>  (1) 
81

>  <i_i_glide_posenum>  (1) 
160

>  <i_i_glide_rotatable_bonds>  (1) 
14

>  <i_lp_mmshare_version>  (1) 
72125

>  <i_m_source_file_index>  (1) 
39

>  <i_f3d_flags>  (1) 
0

>  <num_sample>  (1) 
50

>  <b_lp_Chiralities_Consistent>  (1) 
1

>  <r_epik_Charging_Adjusted_Penalty>  (1) 
0.41068759954161893

>  <r_epik_Ionization_Penalty>  (1) 
0.7209121720186531

>  <r_epik_Ionization_Penalty_Charging>  (1) 
0

>  <r_epik_Ionization_Penalty_Neutral>  (1) 
0.7209121720186531

>  <r_epik_State_Penalty>  (1) 
0.41068759954161893

>  <r_glide_ring_energy>  (1) 
0

>  <r_i_docking_score>  (1) 
-8.1146466628884024

>  <r_i_glide_ecoul>  (1) 
-4.0218843157375508

>  <r_i_glide_eff_state_penalty>  (1) 
0.41068759954161893

>  <r_i_glide_einternal>  (1) 
16.438776129462884

>  <r_i_glide_emodel>  (1) 
-54.264696214005781

>  <r_i_glide_emodel_strain>  (1) 
7.1126704565304593

>  <r_i_glide_energy>  (1) 
-45.666116735314183

>  <r_i_glide_erotb>  (1) 
0.60130745657359952

>  <r_i_glide_esite>  (1) 
-0.045741075018548363

>  <r_i_glide_evdw>  (1) 
-41.644232419576632

>  <r_i_glide_gscore>  (1) 
-8.5253342624300217

>  <r_i_glide_gscore_strain>  (1) 
0.77816761413261482

>  <r_i_glide_hbond>  (1) 
-0.32000000000000001

>  <r_i_glide_ligand_efficiency>  (1) 
-0.21354333323390531

>  <r_i_glide_ligand_efficiency_ln>  (1) 
-1.749756529238728

>  <r_i_glide_ligand_efficiency_sa>  (1) 
-0.71792743461826558

>  <r_i_glide_lipo>  (1) 
-4.6477317280334063

>  <r_i_glide_metal>  (1) 
-0

>  <r_i_glide_rewards>  (1) 
-2.205842261744817

>  <r_lp_Energy>  (1) 
24.236113

>  <r_lp_tautomer_probability>  (1) 
0.49999644301987139

>  <s_epik_Chemistry_Notes>  (1) 
This compound has an imine and may undergo hydrolysis. This compound contains an acetal/aminal-like group ( X-CH(R)-Y where X, Y are N, S, or O) that may be acid/base labile, releasing an aldehyde.

>  <s_epik_cmdline>  (1) 
J2VwaWtfcHl0aG9uJywgJy1waHQnLCAnMS4wJywgJy1waCcsICc3LjQnLCAnLXRuJywgJzgnLCAnLW1hJywgJzUwMCcsICctaW1hZScsICc8aW5maWxlLm1hZT4nLCAnLW9tYWUnLCAnPG91dGZpbGUubWFlPic=

>  <s_epik_input>  (1) 
RkMoRikoRilbQ0BASF0oW0NIM10pW0NASF0oW05IXVtDSF09W0NIMl0pQzE9TltDQEhdKFtDSDJdW0NIXT1bQ0hdW0NIMl0xKVtDQEhdKEYpQyhGKShGKVtDQEBIXShbT0hdKVtDSDJdW0NAQEhdKFtDSDNdKVtDQEBIXShPW0NIM10pW05IXWMoW2NIXTIpbltjSF1bY0hdYzJG

>  <s_glide_docking_method>  (1) 
confgen

>  <s_i_glide_gridfile>  (1) 
gpcr_5ht2c_6bqh_protein_autoprepared_prepared

>  <s_lp_Force_Field>  (1) 
S-OPLS

>  <s_lp_Variant>  (1) 
DiffSBDD_38-2

>  <s_m_source_file>  (1) 
generated_GPCR_5HT2C_ligand_DiffSBDD_2026-06-23_prepared.sdf

>  <GenAI_Model>  (1) 
DiffSBDD

>  <Protein>  (1) 
GPCR_5HT2C

$$$$
DiffSBDD_10
     RDKit          3D

  0  0  0  0  0  0  0  0  0  0999 V3000
M  V30 BEGIN CTAB
M  V30 COUNTS 64 66 0 0 1
M  V30 BEGIN ATOM
M  V30 1 C 39.489133 25.218566 56.073116 0
M  V30 2 C 37.194716 25.965302 55.908654 0
M  V30 3 C 38.547169 29.306616 56.583276 0
M  V30 4 C 40.045137 30.832460 51.975009 0
M  V30 5 C 42.561349 27.422222 66.438526 0
M  V30 6 C 39.636495 28.806504 50.704683 0
M  V30 7 C 37.877214 24.570255 57.767766 0
M  V30 8 O 40.831407 30.993915 60.967760 0
M  V30 9 F 39.645608 30.890962 54.320036 0
M  V30 10 S 41.126558 30.319365 63.913004 0
M  V30 11 C 42.345797 27.032340 68.932698 0
M  V30 12 C 41.476163 29.326519 65.373981 0
M  V30 13 C 42.045036 27.835282 67.685589 0
M  V30 14 C 39.850053 28.850637 58.869452 0
M  V30 15 C 39.184132 24.537751 57.255171 0
M  V30 16 S 39.782164 30.019971 61.301966 0
M  V30 17 C 38.485705 28.843010 58.088039 0 CFG=1
M  V30 18 O 42.423912 30.749992 63.367766 0
M  V30 19 O 38.444930 30.537740 61.630772 0
M  V30 20 C 39.645119 30.192701 53.161489 0
M  V30 21 C 42.281325 28.168789 65.277763 0
M  V30 22 N 38.898459 28.116379 54.332267 0
M  V30 23 C 37.370273 29.676441 58.765038 0
M  V30 24 C 36.880539 25.293424 57.095484 0
M  V30 25 C 41.245099 28.995554 67.770427 0
M  V30 26 C 40.045175 30.143248 50.754453 0
M  V30 27 C 40.957175 29.740012 66.612834 0
M  V30 28 C 38.488285 25.927102 55.400994 0
M  V30 29 C 39.524074 28.607179 55.592299 0
M  V30 30 C 39.245156 28.822310 53.131059 0
M  V30 31 C 38.804549 26.667380 54.147385 0
M  V30 32 N 39.748559 28.702737 60.334498 0 CHG=-1
M  V30 33 Cl 42.931763 27.668577 63.767761 0
M  V30 34 O 40.136300 31.336725 64.296528 0
M  V30 35 C 39.234335 28.144531 51.873549 0
M  V30 36 N 40.360209 29.283779 62.748345 0
M  V30 37 H 40.492791 25.200683 55.683881 0
M  V30 38 H 36.445051 26.523224 55.385843 0
M  V30 39 H 38.744853 30.379128 56.554669 0
M  V30 40 H 37.541317 29.209364 56.173798 0
M  V30 41 H 40.353822 31.855651 52.003797 0
M  V30 42 H 43.175633 26.535545 66.374092 0
M  V30 43 H 39.633476 28.280980 49.767772 0
M  V30 44 H 37.645132 24.048212 58.681603 0
M  V30 45 H 43.337951 26.583378 68.877915 0
M  V30 46 H 42.305877 27.662732 69.821857 0
M  V30 47 H 41.609602 26.235873 69.045007 0
M  V30 48 H 40.452193 28.037647 58.462081 0
M  V30 49 H 40.409824 29.737779 58.594927 0
M  V30 50 H 39.951864 23.993589 57.767765 0
M  V30 51 H 38.142676 27.808348 58.091529 0
M  V30 52 H 37.634886 30.732016 58.841083 0
M  V30 53 H 36.444496 29.623462 58.192077 0
M  V30 54 H 37.126540 29.323195 59.766874 0
M  V30 55 H 35.877746 25.337742 57.491093 0
M  V30 56 H 40.848989 29.310928 68.725880 0
M  V30 57 H 40.355181 30.647605 49.850133 0
M  V30 58 H 40.347830 30.628164 66.679332 0
M  V30 59 H 39.961777 27.758101 56.108752 0
M  V30 60 H 40.420205 29.202565 55.426582 0
M  V30 61 H 39.731686 26.273986 53.727205 0
M  V30 62 H 37.988428 26.431567 53.462830 0
M  V30 63 H 38.936376 27.112944 51.804629 0
M  V30 64 H 39.557823 28.825134 63.187432 0
M  V30 END ATOM
M  V30 BEGIN BOND
M  V30 1 1 12 10
M  V30 2 2 13 5
M  V30 3 1 13 11
M  V30 4 1 15 1
M  V30 5 2 15 7
M  V30 6 2 16 8
M  V30 7 1 17 3
M  V30 8 1 17 14
M  V30 9 2 18 10
M  V30 10 2 19 16
M  V30 11 2 20 4
M  V30 12 1 20 9
M  V30 13 1 21 5
M  V30 14 2 21 12
M  V30 15 1 23 17
M  V30 16 2 24 2
M  V30 17 1 24 7
M  V30 18 1 25 13
M  V30 19 1 26 4
M  V30 20 2 26 6
M  V30 21 1 27 12
M  V30 22 2 27 25
M  V30 23 2 28 1
M  V30 24 1 28 2
M  V30 25 1 29 3
M  V30 26 1 29 22
M  V30 27 1 30 20
M  V30 28 1 30 22
M  V30 29 1 31 22
M  V30 30 1 31 28
M  V30 31 1 32 14
M  V30 32 1 32 16
M  V30 33 1 33 21
M  V30 34 2 34 10
M  V30 35 1 35 6
M  V30 36 2 35 30
M  V30 37 1 36 10
M  V30 38 1 36 16
M  V30 39 1 37 1
M  V30 40 1 38 2
M  V30 41 1 39 3
M  V30 42 1 40 3
M  V30 43 1 41 4
M  V30 44 1 42 5
M  V30 45 1 43 6
M  V30 46 1 44 7
M  V30 47 1 45 11
M  V30 48 1 46 11
M  V30 49 1 47 11
M  V30 50 1 48 14
M  V30 51 1 49 14
M  V30 52 1 50 15
M  V30 53 1 17 51 CFG=3
M  V30 54 1 52 23
M  V30 55 1 53 23
M  V30 56 1 54 23
M  V30 57 1 55 24
M  V30 58 1 56 25
M  V30 59 1 57 26
M  V30 60 1 58 27
M  V30 61 1 59 29
M  V30 62 1 60 29
M  V30 63 1 61 31
M  V30 64 1 62 31
M  V30 65 1 63 35
M  V30 66 1 64 36
M  V30 END BOND
M  V30 END CTAB
M  END
>  <i_epik_Tot_Q>  (1) 
-1

>  <i_epik_Tot_abs_Q>  (1) 
1

>  <i_i_glide_confnum>  (1) 
2994

>  <i_i_glide_lignum>  (1) 
20

>  <i_i_glide_posenum>  (1) 
304

>  <i_i_glide_rotatable_bonds>  (1) 
12

>  <i_lp_mmshare_version>  (1) 
72125

>  <i_m_source_file_index>  (1) 
11

>  <i_f3d_flags>  (1) 
0

>  <num_sample>  (1) 
50

>  <b_lp_Chiralities_Consistent>  (1) 
1

>  <r_epik_Charging_Adjusted_Penalty>  (1) 
0.23249297725634946

>  <r_epik_Ionization_Penalty>  (1) 
0.023438671839039082

>  <r_epik_Ionization_Penalty_Charging>  (1) 
0.017777804751773103

>  <r_epik_Ionization_Penalty_Neutral>  (1) 
0.0056608670872659774

>  <r_epik_State_Penalty>  (1) 
0.21471517250457636

>  <r_glide_ring_energy>  (1) 
0

>  <r_i_docking_score>  (1) 
-8.093595381241629

>  <r_i_glide_ecoul>  (1) 
-7.8760961380536134

>  <r_i_glide_eff_state_penalty>  (1) 
0.21471517250457636

>  <r_i_glide_einternal>  (1) 
17.185781739225476

>  <r_i_glide_emodel>  (1) 
-76.940808063592868

>  <r_i_glide_emodel_strain>  (1) 
2.4586210754007638

>  <r_i_glide_energy>  (1) 
-57.987830930428139

>  <r_i_glide_erotb>  (1) 
0.74186158489162179

>  <r_i_glide_esite>  (1) 
-0.059157073029825091

>  <r_i_glide_evdw>  (1) 
-50.111734792374527

>  <r_i_glide_gscore>  (1) 
-8.308310553746205

>  <r_i_glide_gscore_strain>  (1) 
0

>  <r_i_glide_hbond>  (1) 
-0.32000000000000001

>  <r_i_glide_ligand_efficiency>  (1) 
-0.2248220939233786

>  <r_i_glide_ligand_efficiency_ln>  (1) 
-1.7658038485094241

>  <r_i_glide_ligand_efficiency_sa>  (1) 
-0.74234619807915092

>  <r_i_glide_lipo>  (1) 
-4.3758085259281199

>  <r_i_glide_metal>  (1) 
-0

>  <r_i_glide_rewards>  (1) 
-0.6082053793531127

>  <r_lp_Energy>  (1) 
46.499781999999996

>  <s_epik_cmdline>  (1) 
J2VwaWtfcHl0aG9uJywgJy1waHQnLCAnMS4wJywgJy1waCcsICc3LjQnLCAnLXRuJywgJzgnLCAnLW1hJywgJzUwMCcsICctaW1hZScsICc8aW5maWxlLm1hZT4nLCAnLW9tYWUnLCAnPG91dGZpbGUubWFlPic=

>  <s_epik_input>  (1) 
W2NIXTFbY0hdW2NIXVtjSF1bY0hdYzFbQ0gyXU4oYzJbY0hdW2NIXVtjSF1bY0hdYzJGKVtDSDJdW0NIMl1bQ0BIXShbQ0gzXSlbQ0gyXVtOSF1TKD1PKSg9TylbTkhdUyg9TykoPU8pYzNjKENsKVtjSF1jKFtDSDNdKVtjSF1bY0hdMw==

>  <s_glide_docking_method>  (1) 
confgen

>  <s_i_glide_gridfile>  (1) 
gpcr_5ht2c_6bqh_protein_autoprepared_prepared

>  <s_lp_Force_Field>  (1) 
S-OPLS

>  <s_lp_Variant>  (1) 
DiffSBDD_10-1

>  <s_m_source_file>  (1) 
generated_GPCR_5HT2C_ligand_DiffSBDD_2026-06-23_prepared.sdf

>  <GenAI_Model>  (1) 
DiffSBDD

>  <Protein>  (1) 
GPCR_5HT2C

$$$$
DiffSBDD_16
     RDKit          3D

  0  0  0  0  0  0  0  0  0  0999 V3000
M  V30 BEGIN CTAB
M  V30 COUNTS 73 79 0 0 1
M  V30 BEGIN ATOM
M  V30 1 C 36.094360 31.868992 59.805491 0
M  V30 2 C 40.263336 29.339096 61.053838 0
M  V30 3 C 38.152324 25.809818 56.571087 0 CFG=2
M  V30 4 C 38.055920 32.934688 61.105972 0 CFG=1
M  V30 5 C 37.245466 27.970078 57.767605 0
M  V30 6 C 41.520756 33.377558 66.180981 0
M  V30 7 C 38.779485 26.978722 53.690797 0 CFG=2
M  V30 8 N 39.354269 28.012150 54.606766 0
M  V30 9 C 39.627171 26.276888 56.399452 0 CFG=1
M  V30 10 F 34.168205 33.068255 59.367952 0
M  V30 11 C 35.869575 34.098072 60.705129 0
M  V30 12 C 41.102357 32.613498 63.785993 0 CFG=2
M  V30 13 C 37.089780 34.089776 61.261030 0
M  V30 14 O 40.124498 28.431614 60.238069 0
M  V30 15 C 39.124950 29.666405 52.651937 0
M  V30 16 C 39.448540 29.406739 54.118935 0
M  V30 17 C 38.705119 27.350511 52.177403 0
M  V30 18 O 38.800251 32.574077 62.260734 0
M  V30 19 O 40.444899 25.337757 55.767738 0
M  V30 20 C 39.842946 27.710570 55.846119 0
M  V30 21 C 35.381653 32.987690 59.938893 0
M  V30 22 C 42.319741 33.461872 63.525926 0 CFG=1
M  V30 23 C 41.017430 34.058910 63.331858 0 CFG=2
M  V30 24 C 41.705099 34.830061 65.627611 0
M  V30 25 C 37.465689 25.402279 55.258189 0
M  V30 26 C 39.641131 31.488836 62.088117 0
M  V30 27 C 40.746064 32.388516 65.246822 0
M  V30 28 C 37.432686 26.860904 57.302766 0
M  V30 29 C 37.452562 29.338705 59.767770 0
M  V30 30 C 37.409152 31.734507 60.432091 0
M  V30 31 C 38.061018 30.562145 60.435665 0
M  V30 32 C 42.033597 34.826791 64.141444 0 CFG=1
M  V30 33 O 40.414662 28.546026 56.547265 0
M  V30 34 C 39.556017 28.533115 51.752510 0
M  V30 35 N 40.774287 31.524456 62.886758 0
M  V30 36 C 37.403662 26.493159 54.181709 0
M  V30 37 C 37.465625 29.332670 58.244446 0
M  V30 38 C 39.321608 30.497768 61.205340 0
M  V30 39 H 35.674741 31.055872 59.241115 0
M  V30 40 H 41.120110 29.360623 61.725653 0
M  V30 41 H 38.135981 24.947016 57.236979 0
M  V30 42 H 38.799511 33.308188 60.399460 0
M  V30 43 H 41.058305 33.406186 67.167953 0
M  V30 44 H 42.517169 32.961775 66.337660 0
M  V30 45 H 39.467843 26.137661 53.687523 0
M  V30 46 H 40.031724 26.308601 57.413757 0
M  V30 47 H 35.245075 34.938172 60.834938 0
M  V30 48 H 37.430936 34.942202 61.830834 0
M  V30 49 H 38.044243 29.737601 52.578307 0
M  V30 50 H 39.556287 30.613212 52.324742 0
M  V30 51 H 38.800594 30.030317 54.735385 0
M  V30 52 H 40.448011 29.784965 54.313925 0
M  V30 53 H 37.673435 27.574728 51.899936 0
M  V30 54 H 38.983473 26.506625 51.555379 0
M  V30 55 H 41.315120 25.344754 56.167467 0
M  V30 56 H 42.845149 33.337866 62.585800 0
M  V30 57 H 40.817691 34.319475 62.293885 0
M  V30 58 H 40.787730 35.402390 65.773917 0
M  V30 59 H 42.488341 35.354526 66.173213 0
M  V30 60 H 36.447853 25.077511 55.476436 0
M  V30 61 H 37.967779 24.523655 54.850471 0
M  V30 62 H 39.673793 32.534882 65.357409 0
M  V30 63 H 40.951495 31.356285 65.531168 0
M  V30 64 H 36.420360 29.296691 60.100178 0
M  V30 65 H 37.874504 28.429812 60.166124 0
M  V30 66 H 42.445564 35.736324 63.708937 0
M  V30 67 H 39.350278 28.783846 50.711028 0
M  V30 68 H 40.624228 28.328639 51.814431 0
M  V30 69 H 41.423515 30.753275 62.853543 0
M  V30 70 H 36.823131 27.353293 54.512529 0
M  V30 71 H 36.846407 26.061186 53.351508 0
M  V30 72 H 38.438241 29.655498 57.875551 0
M  V30 73 H 36.723447 29.984151 57.787278 0
M  V30 END ATOM
M  V30 BEGIN BOND
M  V30 1 1 8 7
M  V30 2 1 9 3
M  V30 3 1 13 4
M  V30 4 2 13 11
M  V30 5 2 14 2
M  V30 6 1 16 8
M  V30 7 1 16 15
M  V30 8 1 17 7
M  V30 9 1 18 4
M  V30 10 1 19 9
M  V30 11 1 20 8
M  V30 12 1 20 9
M  V30 13 2 21 1
M  V30 14 1 21 10
M  V30 15 1 21 11
M  V30 16 1 22 12
M  V30 17 1 23 12
M  V30 18 1 23 22
M  V30 19 1 24 6
M  V30 20 1 25 3
M  V30 21 1 26 18
M  V30 22 1 27 6
M  V30 23 1 27 12
M  V30 24 1 28 3
M  V30 25 3 28 5
M  V30 26 1 30 1
M  V30 27 1 30 4
M  V30 28 1 31 29
M  V30 29 2 31 30
M  V30 30 1 32 22
M  V30 31 1 32 23
M  V30 32 1 32 24
M  V30 33 2 33 20
M  V30 34 1 34 15
M  V30 35 1 34 17
M  V30 36 1 12 35 CFG=3
M  V30 37 1 35 26
M  V30 38 1 36 7
M  V30 39 1 36 25
M  V30 40 1 37 5
M  V30 41 1 37 29
M  V30 42 1 38 2
M  V30 43 2 38 26
M  V30 44 1 38 31
M  V30 45 1 39 1
M  V30 46 1 40 2
M  V30 47 1 3 41 CFG=1
M  V30 48 1 4 42 CFG=3
M  V30 49 1 43 6
M  V30 50 1 44 6
M  V30 51 1 7 45 CFG=3
M  V30 52 1 9 46 CFG=1
M  V30 53 1 47 11
M  V30 54 1 48 13
M  V30 55 1 49 15
M  V30 56 1 50 15
M  V30 57 1 51 16
M  V30 58 1 52 16
M  V30 59 1 53 17
M  V30 60 1 54 17
M  V30 61 1 55 19
M  V30 62 1 22 56 CFG=3
M  V30 63 1 23 57 CFG=3
M  V30 64 1 58 24
M  V30 65 1 59 24
M  V30 66 1 60 25
M  V30 67 1 61 25
M  V30 68 1 62 27
M  V30 69 1 63 27
M  V30 70 1 64 29
M  V30 71 1 65 29
M  V30 72 1 32 66 CFG=3
M  V30 73 1 67 34
M  V30 74 1 68 34
M  V30 75 1 69 35
M  V30 76 1 70 36
M  V30 77 1 71 36
M  V30 78 1 72 37
M  V30 79 1 73 37
M  V30 END BOND
M  V30 END CTAB
M  END
>  <i_epik_Tot_Q>  (1) 
0

>  <i_epik_Tot_abs_Q>  (1) 
0

>  <i_i_glide_confnum>  (1) 
186

>  <i_i_glide_lignum>  (1) 
32

>  <i_i_glide_posenum>  (1) 
200

>  <i_i_glide_rotatable_bonds>  (1) 
8

>  <i_lp_mmshare_version>  (1) 
72125

>  <i_m_source_file_index>  (1) 
17

>  <i_f3d_flags>  (1) 
0

>  <num_sample>  (1) 
50

>  <b_lp_Chiralities_Consistent>  (1) 
1

>  <r_epik_Charging_Adjusted_Penalty>  (1) 
0

>  <r_epik_Ionization_Penalty>  (1) 
0.0025850422907693063

>  <r_epik_Ionization_Penalty_Charging>  (1) 
0

>  <r_epik_Ionization_Penalty_Neutral>  (1) 
0.0025850422907693063

>  <r_epik_State_Penalty>  (1) 
-0

>  <r_glide_ring_energy>  (1) 
2.4670840980607949

>  <r_i_docking_score>  (1) 
-8.0882588802856468

>  <r_i_glide_ecoul>  (1) 
-4.0224601515846139

>  <r_i_glide_eff_state_penalty>  (1) 
-0

>  <r_i_glide_einternal>  (1) 
13.089505366183184

>  <r_i_glide_emodel>  (1) 
-56.677408093811358

>  <r_i_glide_emodel_strain>  (1) 
1.9614310819221714

>  <r_i_glide_energy>  (1) 
-39.933586830747416

>  <r_i_glide_erotb>  (1) 
0.45816569176433508

>  <r_i_glide_esite>  (1) 
0

>  <r_i_glide_evdw>  (1) 
-35.911126679162805

>  <r_i_glide_gscore>  (1) 
-8.0882588802856468

>  <r_i_glide_gscore_strain>  (1) 
0

>  <r_i_glide_hbond>  (1) 
-0.32000000000000001

>  <r_i_glide_ligand_efficiency>  (1) 
-0.21284891790225385

>  <r_i_glide_ligand_efficiency_ln>  (1) 
-1.7440665470596557

>  <r_i_glide_ligand_efficiency_sa>  (1) 
-0.71559282735114926

>  <r_i_glide_lipo>  (1) 
-4.6716562051504287

>  <r_i_glide_metal>  (1) 
-0

>  <r_i_glide_rewards>  (1) 
-1.15584301020372

>  <r_lp_Energy>  (1) 
75.165026999999995

>  <r_lp_tautomer_probability>  (1) 
1

>  <s_epik_cmdline>  (1) 
J2VwaWtfcHl0aG9uJywgJy1waHQnLCAnMS4wJywgJy1waCcsICc3LjQnLCAnLXRuJywgJzgnLCAnLW1hJywgJzUwMCcsICctaW1hZScsICc8aW5maWxlLm1hZT4nLCAnLW9tYWUnLCAnPG91dGZpbGUubWFlPic=

>  <s_epik_input>  (1) 
W0NIMl0xW0NIMl1bQ0gyXVtDQEBIXTJbQ0BIXTNbQ0BASF0yW0NAQF0xM1tOSF1DKE80KT1DKFtDSF09TylDKD1DKFtDQEhdNDUpW0NIXT1DKEYpW0NIXT1bQ0hdNSlbQ0gyXVtDSDJdQyNDW0NAQEhdKFtDSDJdW0NIMl02KVtDQEBIXShbT0hdKUMoPU8pTihbQ0BASF02NylbQ0gyXVtDSDJdW0NIMl1bQ0gyXTc=

>  <s_glide_docking_method>  (1) 
confgen

>  <s_i_glide_gridfile>  (1) 
gpcr_5ht2c_6bqh_protein_autoprepared_prepared

>  <s_lp_Force_Field>  (1) 
S-OPLS

>  <s_lp_Variant>  (1) 
DiffSBDD_16-1

>  <s_m_source_file>  (1) 
generated_GPCR_5HT2C_ligand_DiffSBDD_2026-06-23_prepared.sdf

>  <GenAI_Model>  (1) 
DiffSBDD

>  <Protein>  (1) 
GPCR_5HT2C

$$$$
DiffSBDD_45
     RDKit          3D

  0  0  0  0  0  0  0  0  0  0999 V3000
M  V30 BEGIN CTAB
M  V30 COUNTS 72 76 0 0 1
M  V30 BEGIN ATOM
M  V30 1 C 39.555010 35.132934 61.092204 0
M  V30 2 C 38.865130 29.018576 56.558281 0
M  V30 3 S 37.647757 33.015182 60.783710 0
M  V30 4 C 41.654597 33.928535 64.891208 0
M  V30 5 C 38.299242 27.718347 56.012067 0 CFG=2
M  V30 6 C 38.445088 31.006392 59.023832 0
M  V30 7 S 37.244955 37.418494 61.089310 0
M  V30 8 C 37.725629 30.002391 56.898156 0
M  V30 9 C 39.542996 25.466689 56.736726 0
M  V30 10 C 39.178078 26.504490 55.675579 0 CFG=1
M  V30 11 C 39.542396 28.070000 52.565967 0
M  V30 12 C 38.895858 36.525076 63.113688 0
M  V30 13 C 37.460954 36.468657 62.622146 0 CFG=2
M  V30 14 C 37.079634 35.649221 61.401045 0 CFG=2
M  V30 15 C 37.767393 27.641029 54.563864 0 CFG=1
M  V30 16 O 38.273211 29.943421 59.622156 0
M  V30 17 C 38.386408 28.492901 53.456692 0
M  V30 18 C 38.101440 34.812757 60.661309 0 CFG=1
M  V30 19 C 38.388821 32.441995 56.991695 0
M  V30 20 O 36.350332 32.837277 60.115321 0
M  V30 21 C 36.960698 25.203334 55.148632 0
M  V30 22 O 38.045131 32.455844 55.620330 0
M  V30 23 C 41.246042 35.548829 62.919494 0
M  V30 24 C 41.654752 35.382043 64.400889 0
M  V30 25 C 38.972918 32.229172 59.786043 0
M  V30 26 N 38.202435 31.147096 57.690632 0
M  V30 27 C 38.140259 28.128584 52.018466 0
M  V30 28 C 38.074287 26.137056 54.667450 0 CFG=2
M  V30 29 O 41.694264 33.750157 66.127823 0 CHG=-1
M  V30 30 C 37.491803 24.074667 56.017561 0
M  V30 31 O 41.621009 33.028533 64.021547 0
M  V30 32 C 39.747616 35.339252 62.607287 0 CFG=2
M  V30 33 C 38.354402 24.592480 57.184883 0
M  V30 34 O 37.807723 32.548332 62.167714 0
M  V30 35 H 40.233404 34.357244 60.745895 0
M  V30 36 H 39.877898 36.040591 60.581928 0
M  V30 37 H 39.553201 29.475973 55.845781 0
M  V30 38 H 39.457290 28.800728 57.447475 0
M  V30 39 H 37.533498 27.369143 56.707910 0
M  V30 40 H 36.959696 29.489751 57.482664 0
M  V30 41 H 37.191945 30.281167 55.991710 0
M  V30 42 H 40.319214 24.816503 56.336755 0
M  V30 43 H 39.986006 25.954708 57.605395 0
M  V30 44 H 40.073150 26.854649 55.157860 0
M  V30 45 H 40.216104 28.828066 52.168169 0
M  V30 46 H 39.986040 27.086982 52.705339 0
M  V30 47 H 38.882033 36.532002 64.203600 0
M  V30 48 H 39.341425 37.473834 62.812831 0
M  V30 49 H 36.686445 36.768691 63.326187 0
M  V30 50 H 36.045959 35.338080 61.282014 0
M  V30 51 H 36.692879 27.795391 54.558361 0
M  V30 52 H 38.332269 29.558338 53.672716 0
M  V30 53 H 37.993171 35.043487 59.602868 0
M  V30 54 H 39.439327 32.730310 57.029010 0
M  V30 55 H 37.801517 33.220762 57.482906 0
M  V30 56 H 36.445060 24.777717 54.289254 0
M  V30 57 H 36.224545 25.740479 55.747831 0
M  V30 58 H 37.101475 32.597372 55.567949 0
M  V30 59 H 41.828605 34.852449 62.318753 0
M  V30 60 H 41.554361 36.537431 62.579263 0
M  V30 61 H 42.667558 35.763764 64.536261 0
M  V30 62 H 41.015832 35.982867 65.048178 0
M  V30 63 H 39.731190 31.893047 60.493148 0
M  V30 64 H 39.446402 32.982851 59.168068 0
M  V30 65 H 37.645137 27.186655 51.807528 0
M  V30 66 H 37.909099 28.940669 51.341860 0
M  V30 67 H 38.531361 25.742059 53.767790 0
M  V30 68 H 38.045292 23.404565 55.368154 0
M  V30 69 H 36.659594 23.488293 56.408071 0
M  V30 70 H 39.413560 34.428311 63.101613 0
M  V30 71 H 38.721927 23.747425 57.767861 0
M  V30 72 H 37.721111 25.170845 57.858412 0
M  V30 END ATOM
M  V30 BEGIN BOND
M  V30 1 1 5 2
M  V30 2 1 8 2
M  V30 3 1 10 5
M  V30 4 1 10 9
M  V30 5 1 13 7
M  V30 6 1 13 12
M  V30 7 1 14 7
M  V30 8 1 14 13
M  V30 9 1 15 5
M  V30 10 2 16 6
M  V30 11 1 17 11
M  V30 12 1 17 15
M  V30 13 1 18 1
M  V30 14 1 18 3
M  V30 15 1 18 14
M  V30 16 2 20 3
M  V30 17 1 22 19
M  V30 18 1 24 4
M  V30 19 1 24 23
M  V30 20 1 25 3
M  V30 21 1 25 6
M  V30 22 1 26 6
M  V30 23 1 26 8
M  V30 24 1 26 19
M  V30 25 1 27 11
M  V30 26 1 27 17
M  V30 27 1 28 10
M  V30 28 1 28 15
M  V30 29 1 28 21
M  V30 30 1 29 4
M  V30 31 1 30 21
M  V30 32 2 31 4
M  V30 33 1 32 1
M  V30 34 1 32 12
M  V30 35 1 32 23
M  V30 36 1 33 9
M  V30 37 1 33 30
M  V30 38 2 34 3
M  V30 39 1 35 1
M  V30 40 1 36 1
M  V30 41 1 37 2
M  V30 42 1 38 2
M  V30 43 1 5 39 CFG=1
M  V30 44 1 40 8
M  V30 45 1 41 8
M  V30 46 1 42 9
M  V30 47 1 43 9
M  V30 48 1 10 44 CFG=3
M  V30 49 1 45 11
M  V30 50 1 46 11
M  V30 51 1 47 12
M  V30 52 1 48 12
M  V30 53 1 13 49 CFG=1
M  V30 54 1 14 50 CFG=1
M  V30 55 1 15 51 CFG=1
M  V30 56 1 52 17
M  V30 57 1 18 53 CFG=3
M  V30 58 1 54 19
M  V30 59 1 55 19
M  V30 60 1 56 21
M  V30 61 1 57 21
M  V30 62 1 58 22
M  V30 63 1 59 23
M  V30 64 1 60 23
M  V30 65 1 61 24
M  V30 66 1 62 24
M  V30 67 1 63 25
M  V30 68 1 64 25
M  V30 69 1 65 27
M  V30 70 1 66 27
M  V30 71 1 28 67 CFG=3
M  V30 72 1 68 30
M  V30 73 1 69 30
M  V30 74 1 32 70 CFG=1
M  V30 75 1 71 33
M  V30 76 1 72 33
M  V30 END BOND
M  V30 END CTAB
M  END
>  <i_epik_Tot_Q>  (1) 
-1

>  <i_epik_Tot_abs_Q>  (1) 
1

>  <i_i_glide_confnum>  (1) 
184

>  <i_i_glide_lignum>  (1) 
96

>  <i_i_glide_posenum>  (1) 
95

>  <i_i_glide_rotatable_bonds>  (1) 
13

>  <i_lp_mmshare_version>  (1) 
72125

>  <i_m_source_file_index>  (1) 
46

>  <i_f3d_flags>  (1) 
0

>  <num_sample>  (1) 
50

>  <b_lp_Chiralities_Consistent>  (1) 
1

>  <r_epik_Charging_Adjusted_Penalty>  (1) 
0.0015143551789188845

>  <r_epik_Ionization_Penalty>  (1) 
0.0015222875857222101

>  <r_epik_Ionization_Penalty_Charging>  (1) 
0.0015143551789188845

>  <r_epik_Ionization_Penalty_Neutral>  (1) 
7.9324068033256629e-06

>  <r_epik_State_Penalty>  (1) 
-0

>  <r_glide_ring_energy>  (1) 
0

>  <r_i_docking_score>  (1) 
-8.0733397439078942

>  <r_i_glide_ecoul>  (1) 
-2.6812076818778854

>  <r_i_glide_eff_state_penalty>  (1) 
-0

>  <r_i_glide_einternal>  (1) 
10.174671930490213

>  <r_i_glide_emodel>  (1) 
-69.455990804919139

>  <r_i_glide_emodel_strain>  (1) 
1.0222694835488753

>  <r_i_glide_energy>  (1) 
-50.199275371371314

>  <r_i_glide_erotb>  (1) 
0.85788247599558221

>  <r_i_glide_esite>  (1) 
-0.25187483185300769

>  <r_i_glide_evdw>  (1) 
-47.518067689493428

>  <r_i_glide_gscore>  (1) 
-8.0733397439078942

>  <r_i_glide_gscore_strain>  (1) 
0

>  <r_i_glide_hbond>  (1) 
-0.19485807165116126

>  <r_i_glide_ligand_efficiency>  (1) 
-0.23745116893846749

>  <r_i_glide_ligand_efficiency_ln>  (1) 
-1.7836271989387145

>  <r_i_glide_ligand_efficiency_sa>  (1) 
-0.76924960912019269

>  <r_i_glide_lipo>  (1) 
-4.7221719271091338

>  <r_i_glide_metal>  (1) 
-0

>  <r_i_glide_rewards>  (1) 
-0.98423285253382131

>  <r_lp_Energy>  (1) 
22.191468

>  <r_lp_tautomer_probability>  (1) 
1

>  <s_epik_Chemistry_Notes>  (1) 
This compound contains an acetal/aminal-like group ( X-CH(R)-Y where X, Y are N, S, or O) that may be acid/base labile, releasing an aldehyde.

>  <s_epik_cmdline>  (1) 
J2VwaWtfcHl0aG9uJywgJy1waHQnLCAnMS4wJywgJy1waCcsICc3LjQnLCAnLXRuJywgJzgnLCAnLW1hJywgJzUwMCcsICctaW1hZScsICc8aW5maWxlLm1hZT4nLCAnLW9tYWUnLCAnPG91dGZpbGUubWFlPic=

>  <s_epik_input>  (1) 
W09IXUMoPU8pW0NIMl1bQ0gyXVtDQEBIXShbQ0gyXTEpW0NIMl1bQ0BIXShbQ0BIXShTMilbQ0BASF0xMilTKD1PKSg9TylbQ0gyXUMoPU8pTihbQ0gyXVtPSF0pW0NIMl1bQ0gyXVtDQEhdM1tDQEBIXShbQ0hdNFtDSDJdW0NIMl00KVtDQEBIXShbQ0BASF0zNSlbQ0gyXVtDSDJdW0NIMl1bQ0gyXTU=

>  <s_glide_docking_method>  (1) 
confgen

>  <s_i_glide_gridfile>  (1) 
gpcr_5ht2c_6bqh_protein_autoprepared_prepared

>  <s_lp_Force_Field>  (1) 
S-OPLS

>  <s_lp_Variant>  (1) 
DiffSBDD_45-1

>  <s_m_source_file>  (1) 
generated_GPCR_5HT2C_ligand_DiffSBDD_2026-06-23_prepared.sdf

>  <GenAI_Model>  (1) 
DiffSBDD

>  <Protein>  (1) 
GPCR_5HT2C

$$$$
DiffSBDD_17
     RDKit          3D

  0  0  0  0  0  0  0  0  0  0999 V3000
M  V30 BEGIN CTAB
M  V30 COUNTS 93 97 0 0 1
M  V30 BEGIN ATOM
M  V30 1 C 40.784166 33.406080 67.829953 0
M  V30 2 C 38.941585 33.773175 61.089034 0 CFG=2
M  V30 3 C 42.038684 31.566814 66.508137 0
M  V30 4 O 40.735992 36.112498 64.551900 0
M  V30 5 C 42.750749 34.029304 66.381486 0
M  V30 6 C 38.845043 28.210910 54.501906 0
M  V30 7 C 38.815898 27.745683 52.039277 0
M  V30 8 C 38.799264 27.376277 53.456519 0
M  V30 9 C 36.695532 34.689802 58.810271 0
M  V30 10 C 37.428831 37.274410 60.786856 0
M  V30 11 N 40.754164 29.980311 65.067363 0
M  V30 12 C 37.311382 35.824659 61.215909 0 CFG=2
M  V30 13 C 41.397370 32.223625 64.045079 0 CFG=1
M  V30 14 C 40.444890 34.076956 61.360732 0
M  V30 15 N 40.045182 29.295676 66.167727 0 CHG=1
M  V30 16 C 39.136247 28.742154 56.708806 0 CFG=2
M  V30 17 C 38.841350 29.692962 54.470608 0 CFG=2
M  V30 18 C 41.889655 27.950106 65.441711 0
M  V30 19 C 41.016883 31.409471 65.341995 0 CFG=2
M  V30 20 O 38.855991 27.717110 55.771649 0
M  V30 21 C 40.950758 28.219812 66.626438 0
M  V30 22 O 41.211387 31.478674 62.857492 0
M  V30 23 N 38.842138 31.523555 57.881583 0 CHG=1
M  V30 24 C 39.645106 30.430133 53.449487 0
M  V30 25 C 38.749607 32.550832 60.122349 0
M  V30 26 C 39.245104 28.913273 51.480720 0
M  V30 27 N 38.259012 34.961608 60.530242 0 CFG=2 CHG=1
M  V30 28 C 40.287813 35.784873 63.258517 0
M  V30 29 S 38.044889 28.736560 58.167753 0 CHG=-1
M  V30 30 C 40.844735 34.411864 62.823174 0 CFG=1
M  V30 31 C 39.789350 30.099116 52.156831 0
M  V30 32 N 40.455184 33.350354 63.796687 0 CHG=1
M  V30 33 C 36.846239 34.718264 60.302567 0 CFG=2
M  V30 34 C 38.494427 31.321965 56.458359 0
M  V30 35 C 37.144869 33.332316 58.235182 0
M  V30 36 C 39.235310 30.072759 55.904514 0 CFG=1
M  V30 37 C 38.562908 32.807680 58.584938 0 CFG=2
M  V30 38 N 41.964083 29.222930 64.701963 0 CHG=1
M  V30 39 C 42.110723 32.931961 67.224556 0
M  V30 40 H 40.082052 33.737824 67.065663 0
M  V30 41 H 40.313754 32.624248 68.426040 0
M  V30 42 H 40.948554 34.256847 68.492932 0
M  V30 43 H 38.462890 33.506025 62.031917 0
M  V30 44 H 41.814324 30.850745 67.297137 0
M  V30 45 H 43.039455 31.304292 66.163414 0
M  V30 46 H 41.084462 37.007014 64.567759 0
M  V30 47 H 42.155296 34.302285 65.523280 0
M  V30 48 H 42.845128 34.937713 66.967726 0
M  V30 49 H 43.731346 33.725536 66.021062 0
M  V30 50 H 38.498813 26.978938 51.346400 0
M  V30 51 H 38.750141 26.320987 53.681461 0
M  V30 52 H 37.245115 35.506803 58.345052 0
M  V30 53 H 35.643978 34.852291 58.568165 0
M  V30 54 H 36.548768 37.830195 61.112253 0
M  V30 55 H 38.308613 37.732121 61.240499 0
M  V30 56 H 37.508386 37.372244 59.703631 0
M  V30 57 H 37.262911 35.640927 62.283325 0
M  V30 58 H 42.433834 32.560832 64.079957 0
M  V30 59 H 40.771189 34.895981 60.716058 0
M  V30 60 H 41.051640 33.233082 61.039794 0
M  V30 61 H 39.817031 29.960180 66.894867 0
M  V30 62 H 40.129249 28.518223 57.102237 0
M  V30 63 H 37.799623 29.975535 54.309058 0
M  V30 64 H 41.447132 27.198938 64.785474 0
M  V30 65 H 42.873700 27.592090 65.747620 0
M  V30 66 H 40.056173 31.794601 65.687518 0
M  V30 67 H 40.433672 27.320755 66.957257 0
M  V30 68 H 41.523968 28.583923 67.479817 0
M  V30 69 H 41.975608 31.599158 62.311755 0
M  V30 70 H 39.823652 31.316100 57.957006 0
M  V30 71 H 40.106086 31.342517 53.794518 0
M  V30 72 H 39.568758 31.847553 60.276251 0
M  V30 73 H 37.876631 31.987703 60.458566 0
M  V30 74 H 39.222519 28.954701 50.400489 0
M  V30 75 H 39.202068 35.791158 63.277352 0
M  V30 76 H 40.608739 36.567934 62.569256 0
M  V30 77 H 41.931311 34.500175 62.859993 0
M  V30 78 H 40.357840 30.784660 51.544235 0
M  V30 79 H 40.402875 33.859113 64.672318 0
M  V30 80 H 36.434883 33.854137 60.823864 0
M  V30 81 H 37.417801 31.181914 56.364388 0
M  V30 82 H 38.762258 32.205067 55.877485 0
M  V30 83 H 37.040162 33.406589 57.153998 0
M  V30 84 H 36.443198 32.571087 58.567766 0
M  V30 85 H 40.296601 30.317275 55.878034 0
M  V30 86 H 39.307260 33.520996 58.233000 0
M  V30 87 H 41.953175 29.074946 63.700760 0
M  V30 88 H 42.784463 32.781813 68.069705 0
M  V30 89 H 39.206786 28.904423 65.742518 0
M  V30 90 H 42.766512 29.765724 64.990812 0
M  V30 91 H 38.351228 30.751362 58.336127 0
M  V30 92 H 39.535582 32.992272 63.590846 0
M  V30 93 H 38.672554 35.374202 59.706042 0
M  V30 END ATOM
M  V30 BEGIN BOND
M  V30 1 2 8 6
M  V30 2 1 8 7
M  V30 3 1 12 10
M  V30 4 1 14 2
M  V30 5 1 15 11
M  V30 6 1 17 6
M  V30 7 1 19 3
M  V30 8 1 19 11
M  V30 9 1 19 13
M  V30 10 1 20 6
M  V30 11 1 20 16
M  V30 12 1 21 15
M  V30 13 1 21 18
M  V30 14 1 22 13
M  V30 15 1 24 17
M  V30 16 1 25 2
M  V30 17 2 26 7
M  V30 18 1 27 2
M  V30 19 1 27 12
M  V30 20 1 28 4
M  V30 21 1 29 16
M  V30 22 1 30 14
M  V30 23 1 30 28
M  V30 24 2 31 24
M  V30 25 1 31 26
M  V30 26 1 32 13
M  V30 27 1 32 30
M  V30 28 1 33 9
M  V30 29 1 33 12
M  V30 30 1 33 27
M  V30 31 1 34 23
M  V30 32 1 35 9
M  V30 33 1 36 16
M  V30 34 1 36 17
M  V30 35 1 36 34
M  V30 36 1 37 23
M  V30 37 1 37 25
M  V30 38 1 37 35
M  V30 39 1 38 11
M  V30 40 1 38 18
M  V30 41 1 39 1
M  V30 42 1 39 3
M  V30 43 1 39 5
M  V30 44 1 40 1
M  V30 45 1 41 1
M  V30 46 1 42 1
M  V30 47 1 2 43 CFG=1
M  V30 48 1 44 3
M  V30 49 1 45 3
M  V30 50 1 46 4
M  V30 51 1 47 5
M  V30 52 1 48 5
M  V30 53 1 49 5
M  V30 54 1 50 7
M  V30 55 1 51 8
M  V30 56 1 52 9
M  V30 57 1 53 9
M  V30 58 1 54 10
M  V30 59 1 55 10
M  V30 60 1 56 10
M  V30 61 1 12 57 CFG=1
M  V30 62 1 13 58 CFG=1
M  V30 63 1 59 14
M  V30 64 1 60 14
M  V30 65 1 61 15
M  V30 66 1 16 62 CFG=1
M  V30 67 1 17 63 CFG=3
M  V30 68 1 64 18
M  V30 69 1 65 18
M  V30 70 1 19 66 CFG=1
M  V30 71 1 67 21
M  V30 72 1 68 21
M  V30 73 1 69 22
M  V30 74 1 70 23
M  V30 75 1 71 24
M  V30 76 1 72 25
M  V30 77 1 73 25
M  V30 78 1 74 26
M  V30 79 1 75 28
M  V30 80 1 76 28
M  V30 81 1 30 77 CFG=3
M  V30 82 1 78 31
M  V30 83 1 79 32
M  V30 84 1 33 80 CFG=1
M  V30 85 1 81 34
M  V30 86 1 82 34
M  V30 87 1 83 35
M  V30 88 1 84 35
M  V30 89 1 36 85 CFG=3
M  V30 90 1 37 86 CFG=3
M  V30 91 1 87 38
M  V30 92 1 88 39
M  V30 93 1 89 15
M  V30 94 1 90 38
M  V30 95 1 91 23
M  V30 96 1 92 32
M  V30 97 1 27 93 CFG=3
M  V30 END BOND
M  V30 END CTAB
M  END
>  <i_epik_Tot_Q>  (1) 
4

>  <i_epik_Tot_abs_Q>  (1) 
6

>  <i_i_glide_confnum>  (1) 
2008

>  <i_i_glide_lignum>  (1) 
34

>  <i_i_glide_posenum>  (1) 
33

>  <i_i_glide_rotatable_bonds>  (1) 
14

>  <i_lp_mmshare_version>  (1) 
72125

>  <i_m_source_file_index>  (1) 
18

>  <i_f3d_flags>  (1) 
0

>  <num_sample>  (1) 
50

>  <b_lp_Chiralities_Consistent>  (1) 
1

>  <r_epik_Charging_Adjusted_Penalty>  (1) 
1.6052319346045403

>  <r_epik_Ionization_Penalty>  (1) 
1.3756208669108916

>  <r_epik_Ionization_Penalty_Charging>  (1) 
0.71181796891070681

>  <r_epik_Ionization_Penalty_Neutral>  (1) 
0.66380289800018477

>  <r_epik_State_Penalty>  (1) 
0.89341396569383336

>  <r_glide_ring_energy>  (1) 
0.0045750838620950583

>  <r_i_docking_score>  (1) 
-8.0719878529416889

>  <r_i_glide_ecoul>  (1) 
-11.335767925927131

>  <r_i_glide_eff_state_penalty>  (1) 
0.89341396569383336

>  <r_i_glide_einternal>  (1) 
20.755938374175344

>  <r_i_glide_emodel>  (1) 
-79.259609387983531

>  <r_i_glide_emodel_strain>  (1) 
3.3041398741763714

>  <r_i_glide_energy>  (1) 
-51.94137911532372

>  <r_i_glide_erotb>  (1) 
0.56146573491919982

>  <r_i_glide_esite>  (1) 
-0.041200988030167141

>  <r_i_glide_evdw>  (1) 
-40.605611189396591

>  <r_i_glide_gscore>  (1) 
-8.965401818635522

>  <r_i_glide_gscore_strain>  (1) 
0

>  <r_i_glide_hbond>  (1) 
-0.32000000000000001

>  <r_i_glide_ligand_efficiency>  (1) 
-0.20697404751132537

>  <r_i_glide_ligand_efficiency_ln>  (1) 
-1.7308633326720881

>  <r_i_glide_ligand_efficiency_sa>  (1) 
-0.70189275832736442

>  <r_i_glide_lipo>  (1) 
-4.3071922738712045

>  <r_i_glide_metal>  (1) 
-0

>  <r_i_glide_rewards>  (1) 
-1.1278285432944508

>  <r_lp_Energy>  (1) 
72.689052000000004

>  <s_epik_Chemistry_Notes>  (1) 
This compound contains an acetal/aminal-like group ( X-CH(R)-Y where X, Y are N, S, or O) that may be acid/base labile, releasing an aldehyde.

>  <s_epik_cmdline>  (1) 
J2VwaWtfcHl0aG9uJywgJy1waHQnLCAnMS4wJywgJy1waCcsICc3LjQnLCAnLXRuJywgJzgnLCAnLW1hJywgJzUwMCcsICctaW1hZScsICc8aW5maWxlLm1hZT4nLCAnLW9tYWUnLCAnPG91dGZpbGUubWFlPic=

>  <s_epik_input>  (1) 
W05IXTFbQ0gyXVtDSDJdW05IXU4xW0NAQEhdKFtDSDJdW0NIXShbQ0gzXSlbQ0gzXSlbQ0BASF0oW09IXSlbTkhdW0NASF0oW0NIMl1bT0hdKVtDSDJdW0NAQEhdMltDSDJdW0NASF0oW0NIMl1bQ0gyXVtDQEBIXShOMjMpW0NIXTNbQ0gzXSlbTkhdW0NIMl1bQ0BASF0oW0NASF0oTzQpW1NIXSlbQ0BIXShDND01KVtDSF09W0NIXVtDSF09W0NIXVtDSF01

>  <s_glide_docking_method>  (1) 
confgen

>  <s_i_glide_gridfile>  (1) 
gpcr_5ht2c_6bqh_protein_autoprepared_prepared

>  <s_lp_Force_Field>  (1) 
S-OPLS

>  <s_lp_Variant>  (1) 
DiffSBDD_17-1

>  <s_m_source_file>  (1) 
generated_GPCR_5HT2C_ligand_DiffSBDD_2026-06-23_prepared.sdf

>  <GenAI_Model>  (1) 
DiffSBDD

>  <Protein>  (1) 
GPCR_5HT2C

$$$$
DiffSBDD_19
     RDKit          3D

  0  0  0  0  0  0  0  0  0  0999 V3000
M  V30 BEGIN CTAB
M  V30 COUNTS 70 72 0 0 1
M  V30 BEGIN ATOM
M  V30 1 O 37.645127 26.954061 52.995509 0
M  V30 2 C 38.950485 27.331872 57.829050 0
M  V30 3 C 36.378725 33.330364 60.757585 0
M  V30 4 C 40.428488 28.126483 59.608483 0
M  V30 5 C 39.936624 27.684828 56.867947 0
M  V30 6 C 37.623916 26.704361 57.406910 0
M  V30 7 C 39.740887 28.549977 50.533122 0
M  V30 8 C 38.805845 32.583437 55.423673 0
M  V30 9 C 37.623050 34.209013 60.861188 0 CFG=2
M  V30 10 N 37.382405 35.662801 60.906134 0
M  V30 11 F 41.076877 29.658589 61.263363 0
M  V30 12 C 41.172716 28.199539 57.295971 0
M  V30 13 F 39.628649 28.151789 61.847075 0
M  V30 14 C 36.998516 36.159498 62.211718 0
M  V30 15 C 38.727575 32.021520 56.837350 0 CFG=2
M  V30 16 C 37.205351 29.989649 56.629892 0
M  V30 17 C 39.089571 28.833725 53.276805 0
M  V30 18 O 38.690424 27.816468 51.152254 0
M  V30 19 O 35.376332 33.418400 61.458178 0
M  V30 20 C 39.199436 27.572660 59.195514 0
M  V30 21 C 38.832830 27.525454 52.509735 0 CFG=2
M  V30 22 C 39.670781 27.551090 55.380365 0
M  V30 23 N 37.753394 32.559239 59.053689 0
M  V30 24 C 40.692110 28.394492 61.080654 0
M  V30 25 C 41.417249 28.420609 58.656038 0
M  V30 26 C 38.640215 30.492420 56.690741 0 CFG=1
M  V30 27 O 36.845126 37.546655 62.029951 0
M  V30 28 C 38.966248 31.373758 54.497721 0
M  V30 29 C 39.369231 30.148467 55.365610 0 CFG=2
M  V30 30 N 36.574815 32.466315 59.767839 0
M  V30 31 N 39.035903 28.787137 54.766253 0 CFG=1 CHG=1
M  V30 32 C 38.310054 33.829953 59.537989 0
M  V30 33 N 37.645137 32.640849 57.620916 0 CHG=1
M  V30 34 H 37.194551 26.537774 52.264558 0
M  V30 35 H 37.583607 25.675047 57.763668 0
M  V30 36 H 36.795317 27.240201 57.861704 0
M  V30 37 H 37.417847 26.679917 56.340902 0
M  V30 38 H 39.627477 28.537775 49.452211 0
M  V30 39 H 39.721939 29.602374 50.815441 0
M  V30 40 H 40.713874 28.137808 50.794338 0
M  V30 41 H 37.916453 33.154083 55.149499 0
M  V30 42 H 39.645139 33.269541 55.367680 0
M  V30 43 H 38.231184 33.887217 61.707384 0
M  V30 44 H 38.192018 36.190131 60.613773 0
M  V30 45 H 41.930513 28.454308 56.570189 0
M  V30 46 H 37.795034 35.997659 62.938041 0
M  V30 47 H 36.074061 35.711596 62.578802 0
M  V30 48 H 39.645132 32.281889 57.345343 0
M  V30 49 H 36.646131 30.421746 55.797282 0
M  V30 50 H 37.245069 28.932688 56.456662 0
M  V30 51 H 36.663323 30.137760 57.564146 0
M  V30 52 H 38.314853 29.504561 52.912768 0
M  V30 53 H 40.045112 29.257643 52.977239 0
M  V30 54 H 38.445149 27.337599 59.927224 0
M  V30 55 H 39.633248 26.794684 52.636579 0
M  V30 56 H 39.110231 26.648584 55.148091 0
M  V30 57 H 40.648458 27.337762 54.967765 0
M  V30 58 H 41.500240 27.754611 61.433105 0
M  V30 59 H 42.363408 28.832084 58.967764 0
M  V30 60 H 39.124697 30.052355 57.558818 0
M  V30 61 H 35.977660 37.794730 62.313318 0
M  V30 62 H 37.982169 31.226649 54.053075 0
M  V30 63 H 39.665338 31.571185 53.684838 0
M  V30 64 H 40.445165 30.208377 55.511132 0
M  V30 65 H 35.882711 31.782931 59.490581 0
M  V30 66 H 38.045142 34.596423 58.813243 0
M  V30 67 H 39.396976 33.777682 59.613362 0
M  V30 68 H 36.729337 32.232893 57.367704 0
M  V30 69 H 37.602100 33.626969 57.406465 0
M  V30 70 H 38.051538 28.663393 54.958902 0
M  V30 END ATOM
M  V30 BEGIN BOND
M  V30 1 2 5 2
M  V30 2 1 6 2
M  V30 3 1 9 3
M  V30 4 1 10 9
M  V30 5 1 12 5
M  V30 6 1 14 10
M  V30 7 1 15 8
M  V30 8 1 18 7
M  V30 9 2 19 3
M  V30 10 1 20 2
M  V30 11 2 20 4
M  V30 12 1 21 1
M  V30 13 1 21 17
M  V30 14 1 21 18
M  V30 15 1 22 5
M  V30 16 1 24 4
M  V30 17 1 24 11
M  V30 18 1 24 13
M  V30 19 1 25 4
M  V30 20 2 25 12
M  V30 21 1 26 15
M  V30 22 1 26 16
M  V30 23 1 27 14
M  V30 24 1 28 8
M  V30 25 1 29 26
M  V30 26 1 29 28
M  V30 27 1 30 3
M  V30 28 1 30 23
M  V30 29 1 31 17
M  V30 30 1 31 22
M  V30 31 1 31 29
M  V30 32 1 32 9
M  V30 33 1 32 23
M  V30 34 1 33 15
M  V30 35 1 33 23
M  V30 36 1 34 1
M  V30 37 1 35 6
M  V30 38 1 36 6
M  V30 39 1 37 6
M  V30 40 1 38 7
M  V30 41 1 39 7
M  V30 42 1 40 7
M  V30 43 1 41 8
M  V30 44 1 42 8
M  V30 45 1 9 43 CFG=1
M  V30 46 1 44 10
M  V30 47 1 45 12
M  V30 48 1 46 14
M  V30 49 1 47 14
M  V30 50 1 15 48 CFG=1
M  V30 51 1 49 16
M  V30 52 1 50 16
M  V30 53 1 51 16
M  V30 54 1 52 17
M  V30 55 1 53 17
M  V30 56 1 54 20
M  V30 57 1 21 55 CFG=3
M  V30 58 1 56 22
M  V30 59 1 57 22
M  V30 60 1 58 24
M  V30 61 1 59 25
M  V30 62 1 26 60 CFG=1
M  V30 63 1 61 27
M  V30 64 1 62 28
M  V30 65 1 63 28
M  V30 66 1 29 64 CFG=1
M  V30 67 1 65 30
M  V30 68 1 66 32
M  V30 69 1 67 32
M  V30 70 1 68 33
M  V30 71 1 69 33
M  V30 72 1 31 70 CFG=3
M  V30 END BOND
M  V30 END CTAB
M  END
>  <i_epik_Tot_Q>  (1) 
2

>  <i_epik_Tot_abs_Q>  (1) 
2

>  <i_i_glide_confnum>  (1) 
1990

>  <i_i_glide_lignum>  (1) 
45

>  <i_i_glide_posenum>  (1) 
112

>  <i_i_glide_rotatable_bonds>  (1) 
13

>  <i_lp_mmshare_version>  (1) 
72125

>  <i_m_source_file_index>  (1) 
20

>  <i_f3d_flags>  (1) 
0

>  <num_sample>  (1) 
50

>  <b_lp_Chiralities_Consistent>  (1) 
1

>  <r_epik_Charging_Adjusted_Penalty>  (1) 
1.2214648146791087

>  <r_epik_Ionization_Penalty>  (1) 
0.73374573973567592

>  <r_epik_Ionization_Penalty_Charging>  (1) 
0.65422063123481433

>  <r_epik_Ionization_Penalty_Neutral>  (1) 
0.079525108500861627

>  <r_epik_State_Penalty>  (1) 
0.56724418344429428

>  <r_glide_ring_energy>  (1) 
0

>  <r_i_docking_score>  (1) 
-8.0218693585139942

>  <r_i_glide_ecoul>  (1) 
-11.771654134392664

>  <r_i_glide_eff_state_penalty>  (1) 
0.56724418344429428

>  <r_i_glide_einternal>  (1) 
10.203048021642884

>  <r_i_glide_emodel>  (1) 
-74.426748003823093

>  <r_i_glide_emodel_strain>  (1) 
2.8614676879656997

>  <r_i_glide_energy>  (1) 
-51.117415200095486

>  <r_i_glide_erotb>  (1) 
0.81178529684743594

>  <r_i_glide_esite>  (1) 
-0.20938147667761095

>  <r_i_glide_evdw>  (1) 
-39.345761065702824

>  <r_i_glide_gscore>  (1) 
-8.5891135419582891

>  <r_i_glide_gscore_strain>  (1) 
0

>  <r_i_glide_hbond>  (1) 
-0.50933225876137511

>  <r_i_glide_ligand_efficiency>  (1) 
-0.24308695025799981

>  <r_i_glide_ligand_efficiency_ln>  (1) 
-1.7840222103168801

>  <r_i_glide_ligand_efficiency_sa>  (1) 
-0.77970973812652233

>  <r_i_glide_lipo>  (1) 
-3.0890676602642531

>  <r_i_glide_metal>  (1) 
-0

>  <r_i_glide_rewards>  (1) 
-1.8600812696584441

>  <r_lp_Energy>  (1) 
45.336860000000001

>  <s_epik_Chemistry_Notes>  (1) 
This compound contains an acetal/aminal-like group ( X-CH(R)-Y where X, Y are N, S, or O) that may be acid/base labile, releasing an aldehyde.

>  <s_epik_cmdline>  (1) 
J2VwaWtfcHl0aG9uJywgJy1waHQnLCAnMS4wJywgJy1waCcsICc3LjQnLCAnLXRuJywgJzgnLCAnLW1hJywgJzUwMCcsICctaW1hZScsICc8aW5maWxlLm1hZT4nLCAnLW9tYWUnLCAnPG91dGZpbGUubWFlPic=

>  <s_epik_input>  (1) 
RltDSF0oRiljKFtjSF0xKVtjSF1bY0hdYyhjMVtDSDNdKVtDSDJdTihbQ0gyXVtDQEBIXShbT0hdKU9bQ0gzXSlbQ0BIXShbQ0BASF0yW0NIM10pW0NIMl1bQ0gyXVtDQEhdMltOSF1OKFtOSF0zKVtDSDJdW0NASF0oQzM9TylbTkhdW0NIMl1bT0hd

>  <s_glide_docking_method>  (1) 
confgen

>  <s_i_glide_gridfile>  (1) 
gpcr_5ht2c_6bqh_protein_autoprepared_prepared

>  <s_lp_Force_Field>  (1) 
S-OPLS

>  <s_lp_Variant>  (1) 
DiffSBDD_19-4

>  <s_m_source_file>  (1) 
generated_GPCR_5HT2C_ligand_DiffSBDD_2026-06-23_prepared.sdf

>  <GenAI_Model>  (1) 
DiffSBDD

>  <Protein>  (1) 
GPCR_5HT2C

$$$$
DiffSBDD_32
     RDKit          3D

  0  0  0  0  0  0  0  0  0  0999 V3000
M  V30 BEGIN CTAB
M  V30 COUNTS 71 74 0 0 1
M  V30 BEGIN ATOM
M  V30 1 N 39.348653 29.041687 59.209840 0
M  V30 2 C 39.587598 32.114199 62.785436 0 CFG=1
M  V30 3 C 39.824399 27.388974 56.005766 0 CFG=2
M  V30 4 C 39.340049 29.705558 50.713922 0
M  V30 5 C 40.447093 34.356778 63.032503 0 CFG=2
M  V30 6 N 39.757715 32.178619 61.291596 0
M  V30 7 C 38.955660 28.766964 51.607081 0
M  V30 8 C 40.636111 32.422320 64.830862 0
M  V30 9 N 37.235445 25.070606 55.904126 0
M  V30 10 C 38.006443 28.928196 54.838557 0 CFG=2
M  V30 11 C 40.787296 28.379158 56.657697 0
M  V30 12 C 39.664928 29.831497 60.257328 0
M  V30 13 C 39.011861 26.751309 58.244374 0
M  V30 14 C 40.547307 34.416887 61.500408 0
M  V30 15 Cl 41.654986 35.415511 63.782582 0
M  V30 16 C 40.285050 30.940808 64.612072 0
M  V30 17 C 37.971045 25.840527 56.359175 0
M  V30 18 C 39.219448 27.972711 54.720194 0 CFG=2
M  V30 19 C 39.975440 27.743119 58.889367 0 CFG=1
M  V30 20 C 39.625008 26.654305 52.624100 0
M  V30 21 O 38.445709 25.953475 58.964473 0
M  V30 22 C 37.949869 29.827410 53.604401 0
M  V30 23 N 39.004000 26.804357 53.859019 0
M  V30 24 O 39.720826 30.836440 63.297100 0
M  V30 25 C 37.941169 29.853993 56.062122 0
M  V30 26 C 42.356953 28.596088 58.567766 0
M  V30 27 O 39.615255 33.507750 60.885019 0
M  V30 28 C 40.714198 32.902308 63.401425 0 CFG=1
M  V30 29 O 40.496058 29.471819 61.090618 0
M  V30 30 C 39.072805 31.271073 60.303771 0 CFG=1
M  V30 31 N 38.873484 26.687821 56.903683 0
M  V30 32 N 36.782541 31.129822 59.367450 0
M  V30 33 C 37.533179 31.225302 60.465958 0
M  V30 34 C 41.212654 27.834071 57.989460 0 CFG=2
M  V30 35 C 39.646913 27.537730 51.607312 0
M  V30 36 N 37.884758 28.937762 52.462578 0
M  V30 37 O 36.987196 31.335499 61.561567 0
M  V30 38 H 38.653692 29.375895 58.561399 0
M  V30 39 H 38.599531 32.530888 62.967933 0
M  V30 40 H 40.501187 26.587125 55.702577 0
M  V30 41 H 38.845139 30.648941 50.609044 0
M  V30 42 H 40.167575 29.508510 50.042675 0
M  V30 43 H 39.471396 34.704798 63.367053 0
M  V30 44 H 41.566924 32.565553 65.378654 0
M  V30 45 H 39.852328 32.934242 65.377782 0
M  V30 46 H 37.120045 28.303727 54.869909 0
M  V30 47 H 41.650183 28.522430 56.023669 0
M  V30 48 H 40.360586 29.364741 56.785862 0
M  V30 49 H 41.569639 34.179136 61.222867 0
M  V30 50 H 40.349655 35.426245 61.140539 0
M  V30 51 H 41.182750 30.323488 64.653148 0
M  V30 52 H 39.590719 30.571970 65.368701 0
M  V30 53 H 40.005776 28.596634 54.305387 0
M  V30 54 H 40.283520 27.309233 59.841383 0
M  V30 55 H 40.156890 25.738241 52.546504 0
M  V30 56 H 37.065087 30.438095 53.768163 0
M  V30 57 H 38.812269 30.496599 53.541006 0
M  V30 58 H 38.913874 25.954436 54.397281 0
M  V30 59 H 38.737540 30.598417 56.047833 0
M  V30 60 H 36.999357 30.407011 56.072339 0
M  V30 61 H 37.975030 29.299582 56.993734 0
M  V30 62 H 42.145717 29.657813 58.635787 0
M  V30 63 H 42.445024 28.174729 59.558127 0
M  V30 64 H 43.285539 28.448593 58.016876 0
M  V30 65 H 41.660768 32.564864 62.975194 0
M  V30 66 H 39.244782 31.706225 59.320273 0
M  V30 67 H 37.213103 31.122071 58.452810 0
M  V30 68 H 35.776543 31.135372 59.444881 0
M  V30 69 H 41.600605 26.822226 57.847884 0
M  V30 70 H 40.228522 27.295103 50.730362 0
M  V30 71 H 37.472875 28.053261 52.740797 0
M  V30 END ATOM
M  V30 BEGIN BOND
M  V30 1 1 6 2
M  V30 2 2 7 4
M  V30 3 1 11 3
M  V30 4 1 12 1
M  V30 5 1 14 5
M  V30 6 1 15 5
M  V30 7 1 16 8
M  V30 8 3 17 9
M  V30 9 1 18 3
M  V30 10 1 18 10
M  V30 11 1 19 1
M  V30 12 1 19 13
M  V30 13 2 21 13
M  V30 14 1 22 10
M  V30 15 1 23 18
M  V30 16 1 23 20
M  V30 17 1 24 2
M  V30 18 1 24 16
M  V30 19 1 25 10
M  V30 20 1 27 6
M  V30 21 1 27 14
M  V30 22 1 28 2
M  V30 23 1 28 5
M  V30 24 1 28 8
M  V30 25 2 29 12
M  V30 26 1 30 6
M  V30 27 1 30 12
M  V30 28 1 31 3
M  V30 29 1 31 13
M  V30 30 1 31 17
M  V30 31 1 33 30
M  V30 32 1 33 32
M  V30 33 1 34 11
M  V30 34 1 34 19
M  V30 35 1 34 26
M  V30 36 1 35 7
M  V30 37 2 35 20
M  V30 38 1 36 7
M  V30 39 1 36 22
M  V30 40 2 37 33
M  V30 41 1 38 1
M  V30 42 1 2 39 CFG=3
M  V30 43 1 3 40 CFG=3
M  V30 44 1 41 4
M  V30 45 1 42 4
M  V30 46 1 5 43 CFG=3
M  V30 47 1 44 8
M  V30 48 1 45 8
M  V30 49 1 10 46 CFG=3
M  V30 50 1 47 11
M  V30 51 1 48 11
M  V30 52 1 49 14
M  V30 53 1 50 14
M  V30 54 1 51 16
M  V30 55 1 52 16
M  V30 56 1 18 53 CFG=3
M  V30 57 1 19 54 CFG=1
M  V30 58 1 55 20
M  V30 59 1 56 22
M  V30 60 1 57 22
M  V30 61 1 58 23
M  V30 62 1 59 25
M  V30 63 1 60 25
M  V30 64 1 61 25
M  V30 65 1 62 26
M  V30 66 1 63 26
M  V30 67 1 64 26
M  V30 68 1 28 65 CFG=3
M  V30 69 1 30 66 CFG=3
M  V30 70 1 67 32
M  V30 71 1 68 32
M  V30 72 1 34 69 CFG=3
M  V30 73 1 70 35
M  V30 74 1 71 36
M  V30 END BOND
M  V30 END CTAB
M  END
>  <i_epik_Tot_Q>  (1) 
0

>  <i_epik_Tot_abs_Q>  (1) 
0

>  <i_i_glide_confnum>  (1) 
26

>  <i_i_glide_lignum>  (1) 
71

>  <i_i_glide_posenum>  (1) 
185

>  <i_i_glide_rotatable_bonds>  (1) 
6

>  <i_lp_mmshare_version>  (1) 
72125

>  <i_m_source_file_index>  (1) 
33

>  <i_f3d_flags>  (1) 
0

>  <num_sample>  (1) 
50

>  <b_lp_Chiralities_Consistent>  (1) 
1

>  <r_epik_Charging_Adjusted_Penalty>  (1) 
0.0047334328173529788

>  <r_epik_Ionization_Penalty>  (1) 
0.0056920073273627391

>  <r_epik_Ionization_Penalty_Charging>  (1) 
0.0047334328173529788

>  <r_epik_Ionization_Penalty_Neutral>  (1) 
0.00095857451000976068

>  <r_epik_State_Penalty>  (1) 
-0

>  <r_glide_ring_energy>  (1) 
0

>  <r_i_docking_score>  (1) 
-7.987461729873905

>  <r_i_glide_ecoul>  (1) 
-6.6638059426099012

>  <r_i_glide_eff_state_penalty>  (1) 
-0

>  <r_i_glide_einternal>  (1) 
5.8266340582669827

>  <r_i_glide_emodel>  (1) 
-34.637988801958812

>  <r_i_glide_emodel_strain>  (1) 
0.12677800121693394

>  <r_i_glide_energy>  (1) 
-31.264581371057456

>  <r_i_glide_erotb>  (1) 
0.28744264244001894

>  <r_i_glide_esite>  (1) 
-0.10000000000000001

>  <r_i_glide_evdw>  (1) 
-24.600775428447555

>  <r_i_glide_gscore>  (1) 
-7.987461729873905

>  <r_i_glide_gscore_strain>  (1) 
0

>  <r_i_glide_hbond>  (1) 
-0.47717148738093562

>  <r_i_glide_ligand_efficiency>  (1) 
-0.21587734405064607

>  <r_i_glide_ligand_efficiency_ln>  (1) 
-1.7322931965391104

>  <r_i_glide_ligand_efficiency_sa>  (1) 
-0.71935120312085454

>  <r_i_glide_lipo>  (1) 
-3.4708840326495394

>  <r_i_glide_metal>  (1) 
-0

>  <r_i_glide_rewards>  (1) 
-1.9972391894695845

>  <r_lp_Energy>  (1) 
58.609352999999999

>  <r_lp_tautomer_probability>  (1) 
1

>  <s_epik_Chemistry_Notes>  (1) 
This compound has an imine and may undergo hydrolysis. This compound contains an acetal/aminal-like group ( X-CH(R)-Y where X, Y are N, S, or O) that may be acid/base labile, releasing an aldehyde. This compound has a N-S or N-O group and may undergo hydrolysis at high or low pH.

>  <s_epik_cmdline>  (1) 
J2VwaWtfcHl0aG9uJywgJy1waHQnLCAnMS4wJywgJy1waCcsICc3LjQnLCAnLXRuJywgJzgnLCAnLW1hJywgJzUwMCcsICctaW1hZScsICc8aW5maWxlLm1hZT4nLCAnLW9tYWUnLCAnPG91dGZpbGUubWFlPic=

>  <s_epik_input>  (1) 
TzFbQ0gyXVtDSDJdW0NAQEhdKFtDQEhdMTIpW0NAQEhdKENsKVtDSDJdT04yW0NASF0oQyg9TylbTkgyXSlDKD1PKVtOSF1bQ0BASF0oQyg9TylOM0MjTilbQ0BIXShbQ0gzXSlbQ0gyXVtDQEBIXTNbQ0BASF0oW05IXS9bQ0hdPVtDSF1cNClbQ0BASF0oW0NIM10pW0NIMl1cTj1DLzRcW0NIM10=

>  <s_glide_docking_method>  (1) 
confgen

>  <s_i_glide_gridfile>  (1) 
gpcr_5ht2c_6bqh_protein_autoprepared_prepared

>  <s_lp_Force_Field>  (1) 
S-OPLS

>  <s_lp_Variant>  (1) 
DiffSBDD_32-1

>  <s_m_source_file>  (1) 
generated_GPCR_5HT2C_ligand_DiffSBDD_2026-06-23_prepared.sdf

>  <GenAI_Model>  (1) 
DiffSBDD

>  <Protein>  (1) 
GPCR_5HT2C

$$$$
DiffSBDD_19
     RDKit          3D

  0  0  0  0  0  0  0  0  0  0999 V3000
M  V30 BEGIN CTAB
M  V30 COUNTS 69 71 0 0 1
M  V30 BEGIN ATOM
M  V30 1 O 36.607673 24.229198 55.036780 0
M  V30 2 C 39.459486 30.137575 53.550701 0
M  V30 3 C 40.233684 30.997191 63.167310 0
M  V30 4 C 39.698949 29.603716 51.182257 0
M  V30 5 C 39.245144 28.766631 53.843663 0
M  V30 6 C 39.495063 31.169298 54.655547 0
M  V30 7 C 37.598651 23.838538 57.767511 0
M  V30 8 C 39.826226 28.363782 59.019502 0
M  V30 9 C 40.668081 32.196860 62.325214 0 CFG=2
M  V30 10 N 40.404873 33.539109 62.871240 0
M  V30 11 F 39.475012 31.245810 49.510287 0
M  V30 12 C 39.217077 27.825283 52.780168 0
M  V30 13 F 41.334957 30.137897 49.608296 0
M  V30 14 C 41.229277 33.893765 64.011821 0
M  V30 15 C 38.458050 28.865884 59.490794 0 CFG=2
M  V30 16 C 37.645044 30.175966 57.453810 0
M  V30 17 C 37.744427 26.346906 55.181055 0
M  V30 18 O 38.076452 24.668909 56.741565 0
M  V30 19 O 40.410969 30.867094 64.376070 0
M  V30 20 C 39.690383 30.542529 52.225788 0
M  V30 21 C 37.078171 25.200555 55.945453 0 CFG=2
M  V30 22 C 39.219359 28.287808 55.304451 0
M  V30 23 N 39.574615 30.486119 60.999430 0
M  V30 24 C 40.015749 30.053806 49.768203 0
M  V30 25 C 39.438676 28.247948 51.454441 0
M  V30 26 C 37.601839 28.832940 58.199242 0 CFG=1
M  V30 27 O 41.020301 35.277874 64.170405 0
M  V30 28 C 39.494166 27.225596 58.049323 0
M  V30 29 C 38.117172 27.577895 57.424301 0 CFG=2
M  V30 30 N 39.645679 30.137692 62.338171 0
M  V30 31 N 38.045137 27.626068 55.908214 0 CFG=2 CHG=1
M  V30 32 C 39.820468 31.936000 61.066437 0
M  V30 33 N 38.427437 30.149354 60.222444 0
M  V30 34 H 35.770143 24.510281 54.699641 0
M  V30 35 H 39.645019 32.146390 54.221526 0
M  V30 36 H 38.536102 31.216893 55.161377 0
M  V30 37 H 40.306035 31.004008 55.364525 0
M  V30 38 H 38.445127 23.301433 58.167750 0
M  V30 39 H 37.165728 24.451018 58.556145 0
M  V30 40 H 36.868768 23.113057 57.402966 0
M  V30 41 H 40.363882 29.155748 58.496105 0
M  V30 42 H 40.455539 28.024841 59.843258 0
M  V30 43 H 41.726989 32.090998 62.086173 0
M  V30 44 H 40.511368 34.259306 62.172086 0
M  V30 45 H 39.078026 26.778751 52.980753 0
M  V30 46 H 42.286010 33.711508 63.806278 0
M  V30 47 H 40.943492 33.355435 64.915925 0
M  V30 48 H 38.070514 28.107871 60.167755 0
M  V30 49 H 38.663898 30.523853 57.295040 0
M  V30 50 H 37.114147 30.133830 56.503476 0
M  V30 51 H 37.150312 30.948285 58.041161 0
M  V30 52 H 37.124382 26.597471 54.319125 0
M  V30 53 H 38.666324 25.905872 54.802964 0
M  V30 54 H 39.884840 31.583272 52.008718 0
M  V30 55 H 36.216699 25.535693 56.527330 0
M  V30 56 H 39.570588 29.063750 55.972248 0
M  V30 57 H 40.043736 27.575134 55.328808 0
M  V30 58 H 39.645141 29.348848 49.024791 0
M  V30 59 H 39.444889 27.524089 50.652103 0
M  V30 60 H 36.554286 28.683862 58.466822 0
M  V30 61 H 41.777518 35.670071 64.581447 0
M  V30 62 H 40.309040 27.043484 57.353413 0
M  V30 63 H 39.390588 26.301557 58.619870 0
M  V30 64 H 37.428065 26.820942 57.783383 0
M  V30 65 H 39.243861 29.261102 62.646065 0
M  V30 66 H 38.860522 32.448679 61.158911 0
M  V30 67 H 40.297729 32.308865 60.167762 0
M  V30 68 H 38.250011 30.911933 59.571382 0
M  V30 69 H 37.257869 28.230271 55.720269 0
M  V30 END ATOM
M  V30 BEGIN BOND
M  V30 1 2 5 2
M  V30 2 1 6 2
M  V30 3 1 9 3
M  V30 4 1 10 9
M  V30 5 1 12 5
M  V30 6 1 14 10
M  V30 7 1 15 8
M  V30 8 1 18 7
M  V30 9 2 19 3
M  V30 10 1 20 2
M  V30 11 2 20 4
M  V30 12 1 21 1
M  V30 13 1 21 17
M  V30 14 1 21 18
M  V30 15 1 22 5
M  V30 16 1 24 4
M  V30 17 1 24 11
M  V30 18 1 24 13
M  V30 19 1 25 4
M  V30 20 2 25 12
M  V30 21 1 26 15
M  V30 22 1 26 16
M  V30 23 1 27 14
M  V30 24 1 28 8
M  V30 25 1 29 26
M  V30 26 1 29 28
M  V30 27 1 30 3
M  V30 28 1 30 23
M  V30 29 1 31 17
M  V30 30 1 31 22
M  V30 31 1 31 29
M  V30 32 1 32 9
M  V30 33 1 32 23
M  V30 34 1 33 15
M  V30 35 1 33 23
M  V30 36 1 34 1
M  V30 37 1 35 6
M  V30 38 1 36 6
M  V30 39 1 37 6
M  V30 40 1 38 7
M  V30 41 1 39 7
M  V30 42 1 40 7
M  V30 43 1 41 8
M  V30 44 1 42 8
M  V30 45 1 9 43 CFG=3
M  V30 46 1 44 10
M  V30 47 1 45 12
M  V30 48 1 46 14
M  V30 49 1 47 14
M  V30 50 1 15 48 CFG=1
M  V30 51 1 49 16
M  V30 52 1 50 16
M  V30 53 1 51 16
M  V30 54 1 52 17
M  V30 55 1 53 17
M  V30 56 1 54 20
M  V30 57 1 21 55 CFG=1
M  V30 58 1 56 22
M  V30 59 1 57 22
M  V30 60 1 58 24
M  V30 61 1 59 25
M  V30 62 1 26 60 CFG=1
M  V30 63 1 61 27
M  V30 64 1 62 28
M  V30 65 1 63 28
M  V30 66 1 29 64 CFG=1
M  V30 67 1 65 30
M  V30 68 1 66 32
M  V30 69 1 67 32
M  V30 70 1 68 33
M  V30 71 1 31 69 CFG=1
M  V30 END BOND
M  V30 END CTAB
M  END
>  <i_epik_Tot_Q>  (1) 
1

>  <i_epik_Tot_abs_Q>  (1) 
1

>  <i_i_glide_confnum>  (1) 
4036

>  <i_i_glide_lignum>  (1) 
42

>  <i_i_glide_posenum>  (1) 
112

>  <i_i_glide_rotatable_bonds>  (1) 
13

>  <i_lp_mmshare_version>  (1) 
72125

>  <i_m_source_file_index>  (1) 
20

>  <i_f3d_flags>  (1) 
0

>  <num_sample>  (1) 
50

>  <b_lp_Chiralities_Consistent>  (1) 
1

>  <r_epik_Charging_Adjusted_Penalty>  (1) 
0.46831319053283144

>  <r_epik_Ionization_Penalty>  (1) 
0.71387485365223857

>  <r_epik_Ionization_Penalty_Charging>  (1) 
0.049252262366849507

>  <r_epik_Ionization_Penalty_Neutral>  (1) 
0.66462259128538903

>  <r_epik_State_Penalty>  (1) 
0.41906092816598195

>  <r_glide_ring_energy>  (1) 
0

>  <r_i_docking_score>  (1) 
-7.9822166318075647

>  <r_i_glide_ecoul>  (1) 
-2.8823297886531596

>  <r_i_glide_eff_state_penalty>  (1) 
0.41906092816598195

>  <r_i_glide_einternal>  (1) 
29.568063584601038

>  <r_i_glide_emodel>  (1) 
-55.180899703653971

>  <r_i_glide_emodel_strain>  (1) 
3.164355162696566

>  <r_i_glide_energy>  (1) 
-46.779854703474655

>  <r_i_glide_erotb>  (1) 
0.81494899861877068

>  <r_i_glide_esite>  (1) 
-0.006730324833888874

>  <r_i_glide_evdw>  (1) 
-43.897524914821496

>  <r_i_glide_gscore>  (1) 
-8.401277559973547

>  <r_i_glide_gscore_strain>  (1) 
0

>  <r_i_glide_hbond>  (1) 
-0.15210940785689991

>  <r_i_glide_ligand_efficiency>  (1) 
-0.2418853524790171

>  <r_i_glide_ligand_efficiency_ln>  (1) 
-1.7752036492082011

>  <r_i_glide_ligand_efficiency_sa>  (1) 
-0.77585557199958854

>  <r_i_glide_lipo>  (1) 
-3.7914857442695622

>  <r_i_glide_metal>  (1) 
-0

>  <r_i_glide_rewards>  (1) 
-2.6386753675929198

>  <r_lp_Energy>  (1) 
31.949607

>  <s_epik_Chemistry_Notes>  (1) 
This compound contains an acetal/aminal-like group ( X-CH(R)-Y where X, Y are N, S, or O) that may be acid/base labile, releasing an aldehyde.

>  <s_epik_cmdline>  (1) 
J2VwaWtfcHl0aG9uJywgJy1waHQnLCAnMS4wJywgJy1waCcsICc3LjQnLCAnLXRuJywgJzgnLCAnLW1hJywgJzUwMCcsICctaW1hZScsICc8aW5maWxlLm1hZT4nLCAnLW9tYWUnLCAnPG91dGZpbGUubWFlPic=

>  <s_epik_input>  (1) 
RltDSF0oRiljKFtjSF0xKVtjSF1bY0hdYyhjMVtDSDNdKVtDSDJdTihbQ0gyXVtDQEBIXShbT0hdKU9bQ0gzXSlbQ0BIXShbQ0BASF0yW0NIM10pW0NIMl1bQ0gyXVtDQEhdMltOSF1OKFtOSF0zKVtDSDJdW0NASF0oQzM9TylbTkhdW0NIMl1bT0hd

>  <s_glide_docking_method>  (1) 
confgen

>  <s_i_glide_gridfile>  (1) 
gpcr_5ht2c_6bqh_protein_autoprepared_prepared

>  <s_lp_Force_Field>  (1) 
S-OPLS

>  <s_lp_Variant>  (1) 
DiffSBDD_19-1

>  <s_m_source_file>  (1) 
generated_GPCR_5HT2C_ligand_DiffSBDD_2026-06-23_prepared.sdf

>  <GenAI_Model>  (1) 
DiffSBDD

>  <Protein>  (1) 
GPCR_5HT2C

$$$$
DiffSBDD_41
     RDKit          3D

  0  0  0  0  0  0  0  0  0  0999 V3000
M  V30 BEGIN CTAB
M  V30 COUNTS 71 75 0 0 1
M  V30 BEGIN ATOM
M  V30 1 C 39.174616 25.428374 55.515712 0
M  V30 2 O 38.355532 29.973321 60.270649 0
M  V30 3 C 39.245138 29.959426 59.143076 0 CFG=1
M  V30 4 C 38.119886 32.364138 57.835838 0
M  V30 5 C 38.328220 24.734854 56.589396 0
M  V30 6 C 37.645137 28.295059 55.231216 0
M  V30 7 C 40.020006 28.599315 50.563452 0
M  V30 8 C 39.409525 27.471584 51.128350 0
M  V30 9 C 39.729735 32.056051 61.757840 0
M  V30 10 C 39.310609 30.999493 53.466856 0
M  V30 11 C 40.438575 28.967893 59.276205 0
M  V30 12 C 40.881354 31.885188 63.653607 0
M  V30 13 N 40.513810 32.665370 62.627977 0
M  V30 14 C 38.474269 29.788345 57.780634 0 CFG=1
M  V30 15 C 38.487294 27.756725 56.414260 0
M  V30 16 C 39.600709 30.695364 62.220833 0
M  V30 17 O 39.952626 34.969596 62.967781 0
M  V30 18 O 39.233703 32.575865 60.761857 0
M  V30 19 C 37.639406 27.000787 57.475651 0
M  V30 20 C 37.151423 25.621225 57.007155 0
M  V30 21 N 38.641291 31.222944 57.025526 0 CFG=1 CHG=1
M  V30 22 O 41.604231 32.239543 64.584594 0
M  V30 23 O 39.169849 28.865555 56.993295 0
M  V30 24 C 38.842176 27.556627 52.399470 0
M  V30 25 C 38.009300 31.280339 55.682972 0
M  V30 26 C 40.928671 34.069054 62.492792 0
M  V30 27 C 38.868017 28.776301 53.092264 0
M  V30 28 C 38.941570 29.745018 61.501491 0
M  V30 29 C 40.066521 29.816149 51.270008 0
M  V30 30 C 41.367870 29.343056 63.518124 0
M  V30 31 N 38.352578 29.150612 54.325418 0
M  V30 32 C 40.296581 30.443912 63.560501 0 CFG=1
M  V30 33 C 39.640775 26.827560 55.959735 0
M  V30 34 C 38.579840 30.523385 54.515352 0
M  V30 35 C 39.478215 29.934712 52.552695 0
M  V30 36 H 38.595485 25.489020 54.597417 0
M  V30 37 H 40.045136 24.819100 55.286626 0
M  V30 38 H 39.645136 30.937745 59.160483 0
M  V30 39 H 37.389954 32.031682 58.576316 0
M  V30 40 H 38.942111 32.864513 58.342671 0
M  V30 41 H 37.630851 33.145025 57.252672 0
M  V30 42 H 37.954149 23.781814 56.214296 0
M  V30 43 H 38.947887 24.506945 57.457622 0
M  V30 44 H 37.180724 27.481541 54.673769 0
M  V30 45 H 36.845139 28.937756 55.571397 0
M  V30 46 H 40.445138 28.537776 49.577073 0
M  V30 47 H 39.375148 26.541069 50.579709 0
M  V30 48 H 39.643524 32.009616 53.321286 0
M  V30 49 H 41.111492 29.023087 58.419788 0
M  V30 50 H 41.063503 29.183786 60.142447 0
M  V30 51 H 40.098871 27.936783 59.367337 0
M  V30 52 H 37.412603 29.589641 57.916542 0
M  V30 53 H 40.377795 35.628168 63.498799 0
M  V30 54 H 38.231734 26.863191 58.381134 0
M  V30 55 H 36.767479 27.579164 57.767779 0
M  V30 56 H 36.454777 25.733653 56.175683 0
M  V30 57 H 36.594476 25.135098 57.807838 0
M  V30 58 H 38.363715 26.695762 52.833205 0
M  V30 59 H 38.004134 32.322163 55.356743 0
M  V30 60 H 36.955062 31.032092 55.767758 0
M  V30 61 H 41.143323 34.303602 61.448127 0
M  V30 62 H 41.859965 34.253106 63.031934 0
M  V30 63 H 38.845144 28.715565 61.814899 0
M  V30 64 H 40.533495 30.679313 50.816124 0
M  V30 65 H 42.165394 29.577866 62.813667 0
M  V30 66 H 41.821295 29.207698 64.500036 0
M  V30 67 H 40.934245 28.386786 63.225502 0
M  V30 68 H 39.564781 30.276113 64.351116 0
M  V30 69 H 40.223969 27.293720 55.167162 0
M  V30 70 H 40.337758 26.699093 56.790017 0
M  V30 71 H 39.623122 31.399814 56.875937 0
M  V30 END ATOM
M  V30 BEGIN BOND
M  V30 1 1 3 2
M  V30 2 1 5 1
M  V30 3 2 8 7
M  V30 4 1 11 3
M  V30 5 1 13 9
M  V30 6 1 13 12
M  V30 7 1 14 3
M  V30 8 1 15 6
M  V30 9 1 16 9
M  V30 10 2 18 9
M  V30 11 1 19 15
M  V30 12 1 20 5
M  V30 13 1 20 19
M  V30 14 1 21 4
M  V30 15 1 21 14
M  V30 16 2 22 12
M  V30 17 1 23 14
M  V30 18 1 23 15
M  V30 19 1 24 8
M  V30 20 1 25 21
M  V30 21 1 26 13
M  V30 22 1 26 17
M  V30 23 2 27 24
M  V30 24 1 28 2
M  V30 25 2 28 16
M  V30 26 1 29 7
M  V30 27 1 31 6
M  V30 28 1 31 27
M  V30 29 1 32 12
M  V30 30 1 32 16
M  V30 31 1 32 30
M  V30 32 1 33 1
M  V30 33 1 33 15
M  V30 34 2 34 10
M  V30 35 1 34 25
M  V30 36 1 34 31
M  V30 37 1 35 10
M  V30 38 1 35 27
M  V30 39 2 35 29
M  V30 40 1 36 1
M  V30 41 1 37 1
M  V30 42 1 3 38 CFG=3
M  V30 43 1 39 4
M  V30 44 1 40 4
M  V30 45 1 41 4
M  V30 46 1 42 5
M  V30 47 1 43 5
M  V30 48 1 44 6
M  V30 49 1 45 6
M  V30 50 1 46 7
M  V30 51 1 47 8
M  V30 52 1 48 10
M  V30 53 1 49 11
M  V30 54 1 50 11
M  V30 55 1 51 11
M  V30 56 1 14 52 CFG=1
M  V30 57 1 53 17
M  V30 58 1 54 19
M  V30 59 1 55 19
M  V30 60 1 56 20
M  V30 61 1 57 20
M  V30 62 1 58 24
M  V30 63 1 59 25
M  V30 64 1 60 25
M  V30 65 1 61 26
M  V30 66 1 62 26
M  V30 67 1 63 28
M  V30 68 1 64 29
M  V30 69 1 65 30
M  V30 70 1 66 30
M  V30 71 1 67 30
M  V30 72 1 32 68 CFG=1
M  V30 73 1 69 33
M  V30 74 1 70 33
M  V30 75 1 21 71 CFG=3
M  V30 END BOND
M  V30 END CTAB
M  END
>  <i_epik_Tot_Q>  (1) 
1

>  <i_epik_Tot_abs_Q>  (1) 
1

>  <i_i_glide_confnum>  (1) 
2

>  <i_i_glide_lignum>  (1) 
91

>  <i_i_glide_posenum>  (1) 
207

>  <i_i_glide_rotatable_bonds>  (1) 
5

>  <i_lp_mmshare_version>  (1) 
72125

>  <i_m_source_file_index>  (1) 
42

>  <i_f3d_flags>  (1) 
0

>  <num_sample>  (1) 
50

>  <b_lp_Chiralities_Consistent>  (1) 
1

>  <r_epik_Charging_Adjusted_Penalty>  (1) 
1.62722492853585

>  <r_epik_Ionization_Penalty>  (1) 
0.81369786534067623

>  <r_epik_Ionization_Penalty_Charging>  (1) 
0.81361246426792511

>  <r_epik_Ionization_Penalty_Neutral>  (1) 
8.5401072751167088e-05

>  <r_epik_State_Penalty>  (1) 
0.813612464267925

>  <r_glide_ring_energy>  (1) 
1.1929747713027825

>  <r_i_docking_score>  (1) 
-7.9671405758663401

>  <r_i_glide_ecoul>  (1) 
-3.134139356827804

>  <r_i_glide_eff_state_penalty>  (1) 
0.813612464267925

>  <r_i_glide_einternal>  (1) 
12.460816207686905

>  <r_i_glide_emodel>  (1) 
-55.299468457035047

>  <r_i_glide_emodel_strain>  (1) 
2.1684576594171148

>  <r_i_glide_energy>  (1) 
-44.678201782012096

>  <r_i_glide_erotb>  (1) 
0.34854586591334119

>  <r_i_glide_esite>  (1) 
-0.077357943853799266

>  <r_i_glide_evdw>  (1) 
-41.544062425184293

>  <r_i_glide_gscore>  (1) 
-8.7807530401342646

>  <r_i_glide_gscore_strain>  (1) 
0

>  <r_i_glide_hbond>  (1) 
0

>  <r_i_glide_ligand_efficiency>  (1) 
-0.22763258788189544

>  <r_i_glide_ligand_efficiency_ln>  (1) 
-1.7489641775608711

>  <r_i_glide_ligand_efficiency_sa>  (1) 
-0.74460128932151171

>  <r_i_glide_lipo>  (1) 
-4.4532446339592058

>  <r_i_glide_metal>  (1) 
-0

>  <r_i_glide_rewards>  (1) 
-2.0513723034512159

>  <r_lp_Energy>  (1) 
42.397202999999998

>  <s_epik_Chemistry_Notes>  (1) 
This compound contains an acetal/aminal-like group ( X-CH(R)-Y where X, Y are N, S, or O) that may be acid/base labile, releasing an aldehyde.

>  <s_epik_cmdline>  (1) 
J2VwaWtfcHl0aG9uJywgJy1waHQnLCAnMS4wJywgJy1waCcsICc3LjQnLCAnLXRuJywgJzgnLCAnLW1hJywgJzUwMCcsICctaW1hZScsICc8aW5maWxlLm1hZT4nLCAnLW9tYWUnLCAnPG91dGZpbGUubWFlPic=

>  <s_epik_input>  (1) 
W0NIMl0xW0NIMl1bQ0gyXVtDSDJdW0NIMl1DMTJbQ0gyXW4zYzRjKFtjSF1bY0hdW2NIXVtjSF00KVtjSF1jM1tDSDJdTihbQ0gzXSlbQ0BASF0oTzIpW0NASF0oW0NIM10pTy9bQ0hdPUNcNVtDQEBIXShbQ0gzXSlDKD1PKU4oQzU9TylbQ0gyXVtPSF0=

>  <s_glide_docking_method>  (1) 
confgen

>  <s_i_glide_gridfile>  (1) 
gpcr_5ht2c_6bqh_protein_autoprepared_prepared

>  <s_lp_Force_Field>  (1) 
S-OPLS

>  <s_lp_Variant>  (1) 
DiffSBDD_41-5

>  <s_m_source_file>  (1) 
generated_GPCR_5HT2C_ligand_DiffSBDD_2026-06-23_prepared.sdf

>  <GenAI_Model>  (1) 
DiffSBDD

>  <Protein>  (1) 
GPCR_5HT2C

$$$$
DiffSBDD_16
     RDKit          3D

  0  0  0  0  0  0  0  0  0  0999 V3000
M  V30 BEGIN CTAB
M  V30 COUNTS 73 79 0 0 1
M  V30 BEGIN ATOM
M  V30 1 C 39.783183 34.833434 62.125963 0
M  V30 2 C 39.247746 29.991815 60.945090 0
M  V30 3 C 38.520642 31.290579 55.819353 0 CFG=2
M  V30 4 C 41.248525 32.979455 63.171197 0 CFG=1
M  V30 5 C 38.701734 32.696135 58.109704 0
M  V30 6 C 41.652084 28.503488 66.984761 0
M  V30 7 C 38.715797 29.429028 53.433933 0 CFG=2
M  V30 8 N 38.792797 28.407691 54.520538 0
M  V30 9 C 37.662262 30.014981 56.054493 0 CFG=1
M  V30 10 F 40.029258 37.044003 62.771743 0
M  V30 11 C 41.323698 35.377827 63.931558 0
M  V30 12 C 41.666315 29.102677 64.499608 0 CFG=2
M  V30 13 C 41.727074 34.104715 64.075566 0
M  V30 14 O 39.476298 28.790372 61.096711 0
M  V30 15 C 39.532187 26.693188 52.763939 0
M  V30 16 C 39.459959 27.125793 54.226870 0
M  V30 17 C 38.708999 28.881352 51.989737 0
M  V30 18 O 41.031331 31.712234 63.783650 0
M  V30 19 O 36.445106 30.137781 55.367761 0
M  V30 20 C 38.322454 28.648120 55.776488 0
M  V30 21 C 40.365387 35.751257 62.913306 0
M  V30 22 C 42.721359 28.010580 64.479172 0 CFG=1
M  V30 23 C 43.151742 29.392256 64.560567 0 CFG=2
M  V30 24 C 43.216250 28.536128 66.948771 0
M  V30 25 C 39.867752 31.047460 55.110252 0
M  V30 26 C 40.544934 30.730201 62.934945 0
M  V30 27 C 40.936124 29.279265 65.831726 0
M  V30 28 C 38.669880 32.053438 57.072602 0
M  V30 29 C 38.267574 32.845296 60.628566 0
M  V30 30 C 40.108530 33.412489 62.256003 0
M  V30 31 C 39.422280 32.467524 61.579863 0
M  V30 32 C 43.749404 28.393066 65.530548 0 CFG=1
M  V30 33 O 38.409819 27.819749 56.685259 0
M  V30 34 C 39.749660 27.806223 51.745401 0
M  V30 35 N 40.897259 29.439440 63.309181 0
M  V30 36 C 39.733726 30.571347 53.649628 0
M  V30 37 C 38.700490 33.535793 59.317175 0
M  V30 38 C 39.768883 31.065003 61.852623 0
M  V30 39 H 39.055398 35.157728 61.399140 0
M  V30 40 H 38.643844 30.347072 60.115168 0
M  V30 41 H 37.956237 31.977899 55.185532 0
M  V30 42 H 42.096471 32.815933 62.502313 0
M  V30 43 H 41.289604 28.849528 67.952169 0
M  V30 44 H 41.339021 27.459670 66.920119 0
M  V30 45 H 37.743485 29.902741 53.457773 0
M  V30 46 H 37.358389 29.967879 57.102478 0
M  V30 47 H 41.716966 36.136558 64.591996 0
M  V30 48 H 42.441017 33.847526 64.842921 0
M  V30 49 H 40.295260 25.922081 52.651933 0
M  V30 50 H 38.563918 26.243531 52.567940 0
M  V30 51 H 40.445211 27.136688 54.679259 0
M  V30 52 H 38.942322 26.321174 54.752735 0
M  V30 53 H 38.845974 29.691247 51.272641 0
M  V30 54 H 37.725818 28.457786 51.773734 0
M  V30 55 H 35.945761 30.801585 55.860745 0
M  V30 56 H 43.021635 27.517361 63.557974 0
M  V30 57 H 43.703085 29.718849 63.681017 0
M  V30 58 H 43.576467 29.483692 67.350958 0
M  V30 59 H 43.631436 27.747988 67.578229 0
M  V30 60 H 40.445836 30.322269 55.677267 0
M  V30 61 H 40.445477 31.965851 55.126777 0
M  V30 62 H 40.906785 30.343094 66.068248 0
M  V30 63 H 39.902411 28.941674 65.756308 0
M  V30 64 H 37.623226 33.531756 61.180092 0
M  V30 65 H 37.574104 32.029711 60.433749 0
M  V30 66 H 44.794908 28.117269 65.403382 0
M  V30 67 H 40.758323 28.218393 51.770710 0
M  V30 68 H 39.626623 27.402154 50.739147 0
M  V30 69 H 40.539121 28.663418 62.762819 0
M  V30 70 H 40.714876 30.265646 53.296108 0
M  V30 71 H 39.450681 31.416326 53.021050 0
M  V30 72 H 39.685296 33.991765 59.405621 0
M  V30 73 H 38.002162 34.344958 59.104886 0
M  V30 END ATOM
M  V30 BEGIN BOND
M  V30 1 1 8 7
M  V30 2 1 9 3
M  V30 3 1 13 4
M  V30 4 2 13 11
M  V30 5 2 14 2
M  V30 6 1 16 8
M  V30 7 1 16 15
M  V30 8 1 17 7
M  V30 9 1 18 4
M  V30 10 1 19 9
M  V30 11 1 20 8
M  V30 12 1 20 9
M  V30 13 2 21 1
M  V30 14 1 21 10
M  V30 15 1 21 11
M  V30 16 1 22 12
M  V30 17 1 23 12
M  V30 18 1 23 22
M  V30 19 1 24 6
M  V30 20 1 25 3
M  V30 21 1 26 18
M  V30 22 1 27 6
M  V30 23 1 27 12
M  V30 24 1 28 3
M  V30 25 3 28 5
M  V30 26 1 30 1
M  V30 27 1 30 4
M  V30 28 1 31 29
M  V30 29 2 31 30
M  V30 30 1 32 22
M  V30 31 1 32 23
M  V30 32 1 32 24
M  V30 33 2 33 20
M  V30 34 1 34 15
M  V30 35 1 34 17
M  V30 36 1 12 35 CFG=3
M  V30 37 1 35 26
M  V30 38 1 36 7
M  V30 39 1 36 25
M  V30 40 1 37 5
M  V30 41 1 37 29
M  V30 42 1 38 2
M  V30 43 2 38 26
M  V30 44 1 38 31
M  V30 45 1 39 1
M  V30 46 1 40 2
M  V30 47 1 3 41 CFG=3
M  V30 48 1 4 42 CFG=3
M  V30 49 1 43 6
M  V30 50 1 44 6
M  V30 51 1 7 45 CFG=1
M  V30 52 1 9 46 CFG=1
M  V30 53 1 47 11
M  V30 54 1 48 13
M  V30 55 1 49 15
M  V30 56 1 50 15
M  V30 57 1 51 16
M  V30 58 1 52 16
M  V30 59 1 53 17
M  V30 60 1 54 17
M  V30 61 1 55 19
M  V30 62 1 22 56 CFG=3
M  V30 63 1 23 57 CFG=3
M  V30 64 1 58 24
M  V30 65 1 59 24
M  V30 66 1 60 25
M  V30 67 1 61 25
M  V30 68 1 62 27
M  V30 69 1 63 27
M  V30 70 1 64 29
M  V30 71 1 65 29
M  V30 72 1 32 66 CFG=1
M  V30 73 1 67 34
M  V30 74 1 68 34
M  V30 75 1 69 35
M  V30 76 1 70 36
M  V30 77 1 71 36
M  V30 78 1 72 37
M  V30 79 1 73 37
M  V30 END BOND
M  V30 END CTAB
M  END
>  <i_epik_Tot_Q>  (1) 
0

>  <i_epik_Tot_abs_Q>  (1) 
0

>  <i_i_glide_confnum>  (1) 
6

>  <i_i_glide_lignum>  (1) 
32

>  <i_i_glide_posenum>  (1) 
113

>  <i_i_glide_rotatable_bonds>  (1) 
8

>  <i_lp_mmshare_version>  (1) 
72125

>  <i_m_source_file_index>  (1) 
17

>  <i_f3d_flags>  (1) 
0

>  <num_sample>  (1) 
50

>  <b_lp_Chiralities_Consistent>  (1) 
1

>  <r_epik_Charging_Adjusted_Penalty>  (1) 
0

>  <r_epik_Ionization_Penalty>  (1) 
0.0025850422907693063

>  <r_epik_Ionization_Penalty_Charging>  (1) 
0

>  <r_epik_Ionization_Penalty_Neutral>  (1) 
0.0025850422907693063

>  <r_epik_State_Penalty>  (1) 
-0

>  <r_glide_ring_energy>  (1) 
1.1523545681465099

>  <r_i_docking_score>  (1) 
-7.9525020411773379

>  <r_i_glide_ecoul>  (1) 
-6.109547994788552

>  <r_i_glide_eff_state_penalty>  (1) 
-0

>  <r_i_glide_einternal>  (1) 
15.126465851152496

>  <r_i_glide_emodel>  (1) 
-66.433479462489316

>  <r_i_glide_emodel_strain>  (1) 
0.76646593633037696

>  <r_i_glide_energy>  (1) 
-49.936980313479346

>  <r_i_glide_erotb>  (1) 
0.45816569176433508

>  <r_i_glide_esite>  (1) 
-0.032438255140736443

>  <r_i_glide_evdw>  (1) 
-43.827432318690796

>  <r_i_glide_gscore>  (1) 
-7.9525020411773379

>  <r_i_glide_gscore_strain>  (1) 
0

>  <r_i_glide_hbond>  (1) 
-0.16

>  <r_i_glide_ligand_efficiency>  (1) 
-0.2092763695046668

>  <r_i_glide_ligand_efficiency_ln>  (1) 
-1.7147933789863066

>  <r_i_glide_ligand_efficiency_sa>  (1) 
-0.70358200749886246

>  <r_i_glide_lipo>  (1) 
-3.9100882561947898

>  <r_i_glide_metal>  (1) 
-0

>  <r_i_glide_rewards>  (1) 
-1.2003374064533241

>  <r_lp_Energy>  (1) 
75.165026999999995

>  <r_lp_tautomer_probability>  (1) 
1

>  <s_epik_cmdline>  (1) 
J2VwaWtfcHl0aG9uJywgJy1waHQnLCAnMS4wJywgJy1waCcsICc3LjQnLCAnLXRuJywgJzgnLCAnLW1hJywgJzUwMCcsICctaW1hZScsICc8aW5maWxlLm1hZT4nLCAnLW9tYWUnLCAnPG91dGZpbGUubWFlPic=

>  <s_epik_input>  (1) 
W0NIMl0xW0NIMl1bQ0gyXVtDQEBIXTJbQ0BIXTNbQ0BASF0yW0NAQF0xM1tOSF1DKE80KT1DKFtDSF09TylDKD1DKFtDQEhdNDUpW0NIXT1DKEYpW0NIXT1bQ0hdNSlbQ0gyXVtDSDJdQyNDW0NAQEhdKFtDSDJdW0NIMl02KVtDQEBIXShbT0hdKUMoPU8pTihbQ0BASF02NylbQ0gyXVtDSDJdW0NIMl1bQ0gyXTc=

>  <s_glide_docking_method>  (1) 
confgen

>  <s_i_glide_gridfile>  (1) 
gpcr_5ht2c_6bqh_protein_autoprepared_prepared

>  <s_lp_Force_Field>  (1) 
S-OPLS

>  <s_lp_Variant>  (1) 
DiffSBDD_16-1

>  <s_m_source_file>  (1) 
generated_GPCR_5HT2C_ligand_DiffSBDD_2026-06-23_prepared.sdf

>  <GenAI_Model>  (1) 
DiffSBDD

>  <Protein>  (1) 
GPCR_5HT2C

$$$$
DiffSBDD_41
     RDKit          3D

  0  0  0  0  0  0  0  0  0  0999 V3000
M  V30 BEGIN CTAB
M  V30 COUNTS 71 75 0 0 1
M  V30 BEGIN ATOM
M  V30 1 C 39.655368 29.863251 52.286747 0
M  V30 2 O 38.601208 33.124151 58.145758 0
M  V30 3 C 38.299038 32.573564 56.845249 0 CFG=1
M  V30 4 C 37.464404 30.206295 58.511022 0
M  V30 5 C 38.595477 28.882587 51.744765 0
M  V30 6 C 39.774360 28.576234 55.402016 0
M  V30 7 C 37.402140 24.090268 56.875308 0
M  V30 8 C 37.721698 24.486619 55.575846 0
M  V30 9 C 38.883267 34.639298 60.581909 0
M  V30 10 C 38.826249 27.168248 58.657770 0
M  V30 11 C 38.713786 33.561041 55.762606 0
M  V30 12 C 37.338736 35.776367 61.708782 0
M  V30 13 N 38.628202 35.430767 61.610242 0
M  V30 14 C 38.953649 31.182851 56.601138 0 CFG=1
M  V30 15 C 38.753370 29.555999 54.757236 0
M  V30 16 C 37.621943 34.433151 59.917824 0
M  V30 17 O 40.045122 37.248970 62.231547 0
M  V30 18 O 39.986599 34.190339 60.282730 0
M  V30 19 C 37.632532 28.740298 54.076856 0
M  V30 20 C 38.098954 27.956642 52.822626 0
M  V30 21 N 38.844726 30.564007 58.076727 0 CFG=2 CHG=1
M  V30 22 O 36.874026 36.536107 62.562266 0
M  V30 23 O 38.140204 30.386537 55.763788 0
M  V30 24 C 38.381148 25.692700 55.365681 0
M  V30 25 C 39.851673 29.498343 58.315262 0
M  V30 26 C 39.660028 35.922630 62.529687 0
M  V30 27 C 38.692236 26.520796 56.455685 0
M  V30 28 C 37.523300 33.719954 58.770377 0
M  V30 29 C 37.755704 24.890155 57.971312 0
M  V30 30 C 35.481490 34.076053 61.235162 0
M  V30 31 N 39.291273 27.782791 56.533605 0
M  V30 32 C 36.448862 35.106150 60.622612 0 CFG=1
M  V30 33 C 39.335530 30.502696 53.663315 0
M  V30 34 C 39.338436 28.169410 57.884383 0
M  V30 35 C 38.394883 26.141598 57.787502 0
M  V30 36 H 39.823147 30.651211 51.552050 0
M  V30 37 H 40.602184 29.337683 52.338563 0
M  V30 38 H 37.245130 32.417055 56.705979 0
M  V30 39 H 36.989475 29.496156 57.832311 0
M  V30 40 H 37.480770 29.765195 59.508053 0
M  V30 41 H 36.818912 31.079114 58.567828 0
M  V30 42 H 37.700565 29.337745 51.367490 0
M  V30 43 H 39.007379 28.314472 50.908750 0
M  V30 44 H 40.045089 27.846184 54.653429 0
M  V30 45 H 40.697686 29.080033 55.683311 0
M  V30 46 H 36.892368 23.151545 57.039704 0
M  V30 47 H 37.463798 23.857207 54.736919 0
M  V30 48 H 38.728153 27.169264 59.731996 0
M  V30 49 H 38.418208 33.194618 54.781392 0
M  V30 50 H 38.238115 34.530542 55.906116 0
M  V30 51 H 39.787160 33.712682 55.767703 0
M  V30 52 H 39.991543 31.272212 56.283211 0
M  V30 53 H 40.493403 37.599095 62.990464 0
M  V30 54 H 37.177445 28.053722 54.781540 0
M  V30 55 H 36.846013 29.426535 53.779491 0
M  V30 56 H 37.281540 27.341270 52.448947 0
M  V30 57 H 38.933926 27.289300 52.983908 0
M  V30 58 H 38.629923 25.986287 54.376305 0
M  V30 59 H 40.049436 29.467989 59.387279 0
M  V30 60 H 40.805244 29.734835 57.855466 0
M  V30 61 H 40.545017 35.284103 62.528201 0
M  V30 62 H 39.275074 35.899943 63.550948 0
M  V30 63 H 36.591554 33.556775 58.246343 0
M  V30 64 H 37.525550 24.545301 58.967687 0
M  V30 65 H 36.011421 33.184955 61.574829 0
M  V30 66 H 34.962981 34.477318 62.106874 0
M  V30 67 H 34.732740 33.756115 60.508862 0
M  V30 68 H 35.968755 35.853168 59.990730 0
M  V30 69 H 38.600243 31.286423 53.478644 0
M  V30 70 H 40.225813 31.014447 54.028002 0
M  V30 71 H 39.110844 31.316881 58.697127 0
M  V30 END ATOM
M  V30 BEGIN BOND
M  V30 1 1 3 2
M  V30 2 1 5 1
M  V30 3 2 8 7
M  V30 4 1 11 3
M  V30 5 1 13 9
M  V30 6 1 13 12
M  V30 7 1 14 3
M  V30 8 1 15 6
M  V30 9 1 16 9
M  V30 10 2 18 9
M  V30 11 1 19 15
M  V30 12 1 20 5
M  V30 13 1 20 19
M  V30 14 1 21 4
M  V30 15 1 21 14
M  V30 16 2 22 12
M  V30 17 1 23 14
M  V30 18 1 23 15
M  V30 19 1 24 8
M  V30 20 1 25 21
M  V30 21 1 26 13
M  V30 22 1 26 17
M  V30 23 2 27 24
M  V30 24 1 28 2
M  V30 25 2 28 16
M  V30 26 1 29 7
M  V30 27 1 31 6
M  V30 28 1 31 27
M  V30 29 1 32 12
M  V30 30 1 32 16
M  V30 31 1 32 30
M  V30 32 1 33 1
M  V30 33 1 33 15
M  V30 34 2 34 10
M  V30 35 1 34 25
M  V30 36 1 34 31
M  V30 37 1 35 10
M  V30 38 1 35 27
M  V30 39 2 35 29
M  V30 40 1 36 1
M  V30 41 1 37 1
M  V30 42 1 3 38 CFG=1
M  V30 43 1 39 4
M  V30 44 1 40 4
M  V30 45 1 41 4
M  V30 46 1 42 5
M  V30 47 1 43 5
M  V30 48 1 44 6
M  V30 49 1 45 6
M  V30 50 1 46 7
M  V30 51 1 47 8
M  V30 52 1 48 10
M  V30 53 1 49 11
M  V30 54 1 50 11
M  V30 55 1 51 11
M  V30 56 1 14 52 CFG=3
M  V30 57 1 53 17
M  V30 58 1 54 19
M  V30 59 1 55 19
M  V30 60 1 56 20
M  V30 61 1 57 20
M  V30 62 1 58 24
M  V30 63 1 59 25
M  V30 64 1 60 25
M  V30 65 1 61 26
M  V30 66 1 62 26
M  V30 67 1 63 28
M  V30 68 1 64 29
M  V30 69 1 65 30
M  V30 70 1 66 30
M  V30 71 1 67 30
M  V30 72 1 32 68 CFG=3
M  V30 73 1 69 33
M  V30 74 1 70 33
M  V30 75 1 21 71 CFG=1
M  V30 END BOND
M  V30 END CTAB
M  END
>  <i_epik_Tot_Q>  (1) 
1

>  <i_epik_Tot_abs_Q>  (1) 
1

>  <i_i_glide_confnum>  (1) 
8

>  <i_i_glide_lignum>  (1) 
92

>  <i_i_glide_posenum>  (1) 
296

>  <i_i_glide_rotatable_bonds>  (1) 
5

>  <i_lp_mmshare_version>  (1) 
72125

>  <i_m_source_file_index>  (1) 
42

>  <i_f3d_flags>  (1) 
0

>  <num_sample>  (1) 
50

>  <b_lp_Chiralities_Consistent>  (1) 
1

>  <r_epik_Charging_Adjusted_Penalty>  (1) 
1.62722492853585

>  <r_epik_Ionization_Penalty>  (1) 
0.81369786534067623

>  <r_epik_Ionization_Penalty_Charging>  (1) 
0.81361246426792511

>  <r_epik_Ionization_Penalty_Neutral>  (1) 
8.5401072751167088e-05

>  <r_epik_State_Penalty>  (1) 
0.813612464267925

>  <r_glide_ring_energy>  (1) 
1.1849222099610348

>  <r_i_docking_score>  (1) 
-7.9284845797896875

>  <r_i_glide_ecoul>  (1) 
-2.3885842743726413

>  <r_i_glide_eff_state_penalty>  (1) 
0.813612464267925

>  <r_i_glide_einternal>  (1) 
8.1112360330261257

>  <r_i_glide_emodel>  (1) 
-48.035800063327805

>  <r_i_glide_emodel_strain>  (1) 
1.2722208395917178

>  <r_i_glide_energy>  (1) 
-41.543093027622348

>  <r_i_glide_erotb>  (1) 
0.34854586591334119

>  <r_i_glide_esite>  (1) 
-0.064455105966602491

>  <r_i_glide_evdw>  (1) 
-39.154508753249708

>  <r_i_glide_gscore>  (1) 
-8.742097044057612

>  <r_i_glide_gscore_strain>  (1) 
0

>  <r_i_glide_hbond>  (1) 
0

>  <r_i_glide_ligand_efficiency>  (1) 
-0.22652813085113394

>  <r_i_glide_ligand_efficiency_ln>  (1) 
-1.7404783284984366

>  <r_i_glide_ligand_efficiency_sa>  (1) 
-0.74098853713713675

>  <r_i_glide_lipo>  (1) 
-4.7620164578904447

>  <r_i_glide_metal>  (1) 
-0

>  <r_i_glide_rewards>  (1) 
-1.9481582672955247

>  <r_lp_Energy>  (1) 
38.539870000000001

>  <s_epik_Chemistry_Notes>  (1) 
This compound contains an acetal/aminal-like group ( X-CH(R)-Y where X, Y are N, S, or O) that may be acid/base labile, releasing an aldehyde.

>  <s_epik_cmdline>  (1) 
J2VwaWtfcHl0aG9uJywgJy1waHQnLCAnMS4wJywgJy1waCcsICc3LjQnLCAnLXRuJywgJzgnLCAnLW1hJywgJzUwMCcsICctaW1hZScsICc8aW5maWxlLm1hZT4nLCAnLW9tYWUnLCAnPG91dGZpbGUubWFlPic=

>  <s_epik_input>  (1) 
W0NIMl0xW0NIMl1bQ0gyXVtDSDJdW0NIMl1DMTJbQ0gyXW4zYzRjKFtjSF1bY0hdW2NIXVtjSF00KVtjSF1jM1tDSDJdTihbQ0gzXSlbQ0BASF0oTzIpW0NASF0oW0NIM10pTy9bQ0hdPUNcNVtDQEBIXShbQ0gzXSlDKD1PKU4oQzU9TylbQ0gyXVtPSF0=

>  <s_glide_docking_method>  (1) 
confgen

>  <s_i_glide_gridfile>  (1) 
gpcr_5ht2c_6bqh_protein_autoprepared_prepared

>  <s_lp_Force_Field>  (1) 
S-OPLS

>  <s_lp_Variant>  (1) 
DiffSBDD_41-6

>  <s_m_source_file>  (1) 
generated_GPCR_5HT2C_ligand_DiffSBDD_2026-06-23_prepared.sdf

>  <GenAI_Model>  (1) 
DiffSBDD

>  <Protein>  (1) 
GPCR_5HT2C

$$$$
DiffSBDD_0
     RDKit          3D

  0  0  0  0  0  0  0  0  0  0999 V3000
M  V30 BEGIN CTAB
M  V30 COUNTS 73 75 0 0 1
M  V30 BEGIN ATOM
M  V30 1 C 38.460330 28.495694 51.904666 0
M  V30 2 C 39.777084 26.084977 54.745772 0
M  V30 3 O 41.245152 34.763347 61.767699 0
M  V30 4 C 38.845503 28.816443 54.358277 0
M  V30 5 C 37.190563 32.332197 59.655610 0 CFG=2
M  V30 6 C 38.045093 31.973614 56.253333 0
M  V30 7 C 39.117595 35.443623 62.538303 0
M  V30 8 C 38.012412 36.113650 61.682496 0 CFG=1
M  V30 9 C 36.452307 36.804604 63.560300 0
M  V30 10 C 37.052279 35.060959 61.097157 0
M  V30 11 N 37.249309 34.841590 59.664555 0
M  V30 12 O 36.160074 31.381803 59.908924 0
M  V30 13 C 39.169011 26.537704 53.396362 0
M  V30 14 C 36.591732 38.187132 61.606888 0
M  V30 15 C 39.149684 29.182107 56.893732 0 CFG=1
M  V30 16 C 36.570631 33.658359 59.134070 0
M  V30 17 C 39.620032 27.105731 55.859979 0
M  V30 18 C 39.677576 28.097781 57.941776 0
M  V30 19 C 38.271968 31.732113 58.726175 0 CFG=1
M  V30 20 C 40.497903 35.739475 61.977301 0
M  V30 21 N 37.331065 37.207977 62.432041 0 CHG=1
M  V30 22 C 35.605670 38.860124 62.562271 0
M  V30 23 F 39.538025 28.886137 51.224595 0
M  V30 24 C 39.206316 28.332310 55.676733 0
M  V30 25 C 38.834681 28.008419 53.286632 0
M  V30 26 O 38.840264 30.754161 59.395428 0 CHG=-1
M  V30 27 N 37.674272 31.183650 57.458404 0 CFG=2 CHG=1
M  V30 28 C 39.989610 26.710881 57.241308 0 CFG=1
M  V30 29 C 37.723625 29.715864 57.204069 0
M  V30 30 C 35.482966 31.623621 61.132595 0
M  V30 31 O 40.776378 36.937563 61.767777 0 CHG=-1
M  V30 32 O 39.158739 25.679238 57.730593 0
M  V30 33 C 35.288263 37.799851 63.612998 0
M  V30 34 H 37.964988 27.709646 51.333834 0
M  V30 35 H 37.780985 29.337754 51.969030 0
M  V30 36 H 40.844840 25.908210 54.622756 0
M  V30 37 H 39.339654 25.132678 55.048262 0
M  V30 38 H 38.581990 29.855811 54.234600 0
M  V30 39 H 37.712092 32.517425 60.594928 0
M  V30 40 H 39.111114 31.915930 56.038908 0
M  V30 41 H 37.494791 31.628448 55.376457 0
M  V30 42 H 37.795012 33.026498 56.380430 0
M  V30 43 H 39.100104 35.781587 63.573609 0
M  V30 44 H 39.004170 34.359320 62.569559 0
M  V30 45 H 38.468941 36.627171 60.832990 0
M  V30 46 H 36.045156 35.801576 63.431903 0
M  V30 47 H 37.024022 36.816265 64.488823 0
M  V30 48 H 36.045138 35.396445 61.236634 0
M  V30 49 H 37.101902 34.142084 61.675393 0
M  V30 50 H 36.949689 35.658830 59.140007 0
M  V30 51 H 38.201322 26.051809 53.286551 0
M  V30 52 H 39.803893 26.229661 52.565021 0
M  V30 53 H 37.265563 38.904391 61.137127 0
M  V30 54 H 36.045175 37.681946 60.809550 0
M  V30 55 H 39.885860 29.979063 56.797044 0
M  V30 56 H 36.585754 33.681856 58.047661 0
M  V30 57 H 35.513411 33.712665 59.389672 0
M  V30 58 H 38.972913 27.965214 58.763957 0
M  V30 59 H 40.588230 28.476806 58.406995 0
M  V30 60 H 38.885825 32.590600 58.444776 0
M  V30 61 H 36.045075 39.737132 63.034423 0
M  V30 62 H 34.709327 39.201374 62.054636 0
M  V30 63 H 41.046038 26.449876 57.309802 0
M  V30 64 H 37.058141 29.522105 56.363563 0
M  V30 65 H 37.263562 29.188678 58.040649 0
M  V30 66 H 34.845126 30.778330 61.367760 0
M  V30 67 H 36.182657 31.737743 61.961068 0
M  V30 68 H 34.852629 32.511528 61.086257 0
M  V30 69 H 39.185591 25.705550 58.674269 0
M  V30 70 H 35.161126 38.231672 64.605203 0
M  V30 71 H 34.353540 37.295269 63.368144 0
M  V30 72 H 38.086078 37.734513 62.850440 0
M  V30 73 H 36.666891 31.374499 57.517022 0
M  V30 END ATOM
M  V30 BEGIN BOND
M  V30 1 1 8 7
M  V30 2 1 10 8
M  V30 3 1 11 10
M  V30 4 1 12 5
M  V30 5 1 13 2
M  V30 6 1 16 5
M  V30 7 1 16 11
M  V30 8 1 17 2
M  V30 9 1 18 15
M  V30 10 1 19 5
M  V30 11 2 20 3
M  V30 12 1 20 7
M  V30 13 1 21 8
M  V30 14 1 21 9
M  V30 15 1 21 14
M  V30 16 1 22 14
M  V30 17 1 23 1
M  V30 18 1 24 4
M  V30 19 1 24 15
M  V30 20 2 24 17
M  V30 21 1 25 1
M  V30 22 2 25 4
M  V30 23 1 25 13
M  V30 24 1 26 19
M  V30 25 1 27 6
M  V30 26 1 27 19
M  V30 27 1 28 17
M  V30 28 1 28 18
M  V30 29 1 29 15
M  V30 30 1 29 27
M  V30 31 1 30 12
M  V30 32 1 31 20
M  V30 33 1 32 28
M  V30 34 1 33 9
M  V30 35 1 33 22
M  V30 36 1 34 1
M  V30 37 1 35 1
M  V30 38 1 36 2
M  V30 39 1 37 2
M  V30 40 1 38 4
M  V30 41 1 5 39 CFG=1
M  V30 42 1 40 6
M  V30 43 1 41 6
M  V30 44 1 42 6
M  V30 45 1 43 7
M  V30 46 1 44 7
M  V30 47 1 8 45 CFG=3
M  V30 48 1 46 9
M  V30 49 1 47 9
M  V30 50 1 48 10
M  V30 51 1 49 10
M  V30 52 1 50 11
M  V30 53 1 51 13
M  V30 54 1 52 13
M  V30 55 1 53 14
M  V30 56 1 54 14
M  V30 57 1 15 55 CFG=3
M  V30 58 1 56 16
M  V30 59 1 57 16
M  V30 60 1 58 18
M  V30 61 1 59 18
M  V30 62 1 19 60 CFG=3
M  V30 63 1 61 22
M  V30 64 1 62 22
M  V30 65 1 28 63 CFG=3
M  V30 66 1 64 29
M  V30 67 1 65 29
M  V30 68 1 66 30
M  V30 69 1 67 30
M  V30 70 1 68 30
M  V30 71 1 69 32
M  V30 72 1 70 33
M  V30 73 1 71 33
M  V30 74 1 72 21
M  V30 75 1 27 73 CFG=1
M  V30 END BOND
M  V30 END CTAB
M  END
>  <i_epik_Tot_Q>  (1) 
0

>  <i_epik_Tot_abs_Q>  (1) 
4

>  <i_i_glide_confnum>  (1) 
1621

>  <i_i_glide_lignum>  (1) 
1

>  <i_i_glide_posenum>  (1) 
97

>  <i_i_glide_rotatable_bonds>  (1) 
14

>  <i_lp_mmshare_version>  (1) 
72125

>  <i_m_source_file_index>  (1) 
1

>  <i_f3d_flags>  (1) 
0

>  <num_sample>  (1) 
50

>  <b_lp_Chiralities_Consistent>  (1) 
1

>  <r_epik_Charging_Adjusted_Penalty>  (1) 
0.35910314693592993

>  <r_epik_Ionization_Penalty>  (1) 
0.058337682991089858

>  <r_epik_Ionization_Penalty_Charging>  (1) 
0.0030320954189955646

>  <r_epik_Ionization_Penalty_Neutral>  (1) 
0.055305587572094292

>  <r_epik_State_Penalty>  (1) 
0.35607105151693436

>  <r_glide_ring_energy>  (1) 
0

>  <r_i_docking_score>  (1) 
-7.9264829273612207

>  <r_i_glide_ecoul>  (1) 
-6.0345177604574349

>  <r_i_glide_eff_state_penalty>  (1) 
0.35607105151693436

>  <r_i_glide_einternal>  (1) 
22.071971724222866

>  <r_i_glide_emodel>  (1) 
-65.741951041134769

>  <r_i_glide_emodel_strain>  (1) 
0.9796300413209309

>  <r_i_glide_energy>  (1) 
-49.544999264809299

>  <r_i_glide_erotb>  (1) 
0.82434179411086872

>  <r_i_glide_esite>  (1) 
-0.15527673706355782

>  <r_i_glide_evdw>  (1) 
-43.510481504351866

>  <r_i_glide_gscore>  (1) 
-8.2825539788781555

>  <r_i_glide_gscore_strain>  (1) 
0

>  <r_i_glide_hbond>  (1) 
-0.20000000000000001

>  <r_i_glide_ligand_efficiency>  (1) 
-0.24019645234427942

>  <r_i_glide_ligand_efficiency_ln>  (1) 
-1.7628087619130117

>  <r_i_glide_ligand_efficiency_sa>  (1) 
-0.77043836683748279

>  <r_i_glide_lipo>  (1) 
-3.6636575239119846

>  <r_i_glide_metal>  (1) 
-0

>  <r_i_glide_rewards>  (1) 
-2.0072597727272741

>  <r_lp_Energy>  (1) 
41.770188999999995

>  <s_epik_Chemistry_Notes>  (1) 
This compound contains an acetal/aminal-like group ( X-CH(R)-Y where X, Y are N, S, or O) that may be acid/base labile, releasing an aldehyde.

>  <s_epik_cmdline>  (1) 
J2VwaWtfcHl0aG9uJywgJy1waHQnLCAnMS4wJywgJy1waCcsICc3LjQnLCAnLXRuJywgJzgnLCAnLW1hJywgJzUwMCcsICctaW1hZScsICc8aW5maWxlLm1hZT4nLCAnLW9tYWUnLCAnPG91dGZpbGUubWFlPic=

>  <s_epik_input>  (1) 
W0NIMl0xW0NIMl1DKFtDSDJdRik9W0NIXUMoPUMxMilbQ0BIXShbQ0gyXVtDQEhdMltPSF0pW0NIMl1OKFtDSDNdKVtDQEhdKFtPSF0pW0NASF0oT1tDSDNdKVtDSDJdW05IXVtDSDJdW0NASF0oW0NIMl1DKD1PKVtPSF0pTjNbQ0gyXVtDSDJdW0NIMl1bQ0gyXTM=

>  <s_glide_docking_method>  (1) 
confgen

>  <s_i_glide_gridfile>  (1) 
gpcr_5ht2c_6bqh_protein_autoprepared_prepared

>  <s_lp_Force_Field>  (1) 
S-OPLS

>  <s_lp_Variant>  (1) 
DiffSBDD_0-1

>  <s_m_source_file>  (1) 
generated_GPCR_5HT2C_ligand_DiffSBDD_2026-06-23_prepared.sdf

>  <GenAI_Model>  (1) 
DiffSBDD

>  <Protein>  (1) 
GPCR_5HT2C

$$$$
DiffSBDD_27
     RDKit          3D

  0  0  0  0  0  0  0  0  0  0999 V3000
M  V30 BEGIN CTAB
M  V30 COUNTS 67 69 0 0 1
M  V30 BEGIN ATOM
M  V30 1 C 41.718773 27.756832 57.121024 0
M  V30 2 C 39.032029 36.955612 61.908427 0
M  V30 3 N 36.845136 23.698880 54.967761 0
M  V30 4 C 37.941805 30.294618 55.188862 0
M  V30 5 C 41.244601 31.790256 61.998040 0
M  V30 6 C 38.378151 32.312233 60.978104 0
M  V30 7 N 38.045137 31.132976 56.406104 0 CHG=1
M  V30 8 C 38.298834 31.141001 60.126432 0
M  V30 9 O 42.023081 32.537711 61.367796 0
M  V30 10 C 37.480307 24.658922 55.073478 0
M  V30 11 C 36.533238 35.140678 61.363303 0
M  V30 12 C 38.278561 25.899844 55.208100 0 CFG=1
M  V30 13 C 40.489556 27.601541 56.216473 0 CFG=1
M  V30 14 C 38.736273 32.248062 62.447436 0
M  V30 15 C 40.207502 32.464706 62.887435 0
M  V30 16 C 38.578774 29.745507 60.590658 0
M  V30 17 S 37.691923 33.143557 58.646085 0
M  V30 18 C 37.917079 31.446343 58.839825 0
M  V30 19 C 41.165246 27.914514 58.535649 0
M  V30 20 N 37.595863 26.973888 54.464405 0
M  V30 21 O 41.245109 30.540157 61.967964 0 CHG=-1
M  V30 22 C 38.046368 33.479340 60.296737 0
M  V30 23 C 38.372351 28.158042 54.137209 0
M  V30 24 C 39.057942 35.428505 61.728354 0
M  V30 25 N 38.557956 28.971112 55.337729 0
M  V30 26 O 37.687987 25.747183 57.514901 0
M  V30 27 C 38.498736 26.203648 56.707370 0
M  V30 28 N 39.559643 26.934363 57.127842 0
M  V30 29 C 39.963085 28.990407 55.756473 0
M  V30 30 C 37.700066 30.499510 57.698787 0
M  V30 31 C 37.938132 34.890501 60.816127 0 CFG=2
M  V30 32 C 39.885942 27.064432 58.538283 0
M  V30 33 H 42.317309 26.859344 57.094739 0
M  V30 34 H 42.402596 28.537756 56.817016 0
M  V30 35 H 39.976951 37.315230 62.316084 0
M  V30 36 H 38.245656 37.260135 62.599436 0
M  V30 37 H 38.845132 37.469966 60.967832 0
M  V30 38 H 38.393057 30.831984 54.353033 0
M  V30 39 H 36.881532 30.171266 54.959495 0
M  V30 40 H 38.976780 31.513115 56.475960 0
M  V30 41 H 35.792964 34.991167 60.575776 0
M  V30 42 H 36.445137 36.160670 61.732063 0
M  V30 43 H 36.281547 34.454778 62.167756 0
M  V30 44 H 39.226201 25.675410 54.721833 0
M  V30 45 H 40.768591 26.984883 55.365202 0
M  V30 46 H 38.098115 32.937753 62.967758 0
M  V30 47 H 38.416340 31.300662 62.872727 0
M  V30 48 H 40.336284 32.104745 63.907725 0
M  V30 49 H 40.468785 33.516776 62.924440 0
M  V30 50 H 37.868076 29.040353 60.164876 0
M  V30 51 H 38.524150 29.631596 61.668096 0
M  V30 52 H 39.580391 29.439069 60.310183 0
M  V30 53 H 41.879990 27.624807 59.306084 0
M  V30 54 H 40.930033 28.966200 58.693183 0
M  V30 55 H 36.717465 27.222566 54.896301 0
M  V30 56 H 39.308452 27.879710 53.650485 0
M  V30 57 H 37.804211 28.702156 53.379326 0
M  V30 58 H 40.022770 35.145567 61.304902 0
M  V30 59 H 38.986703 34.993896 62.720737 0
M  V30 60 H 40.075046 29.675601 56.592770 0
M  V30 61 H 40.581486 29.412093 54.967762 0
M  V30 62 H 38.310454 29.614369 57.861075 0
M  V30 63 H 36.669694 30.137755 57.684589 0
M  V30 64 H 38.004146 35.520889 59.928080 0
M  V30 65 H 39.073891 27.526481 59.091839 0
M  V30 66 H 40.045156 26.073808 58.962590 0
M  V30 67 H 37.385562 31.897863 56.302523 0
M  V30 END ATOM
M  V30 BEGIN BOND
M  V30 1 1 7 4
M  V30 2 1 8 6
M  V30 3 2 9 5
M  V30 4 3 10 3
M  V30 5 1 12 10
M  V30 6 1 13 1
M  V30 7 1 14 6
M  V30 8 1 15 5
M  V30 9 1 15 14
M  V30 10 1 16 8
M  V30 11 2 18 8
M  V30 12 1 18 17
M  V30 13 1 19 1
M  V30 14 1 20 12
M  V30 15 1 21 5
M  V30 16 2 22 6
M  V30 17 1 22 17
M  V30 18 1 23 20
M  V30 19 1 24 2
M  V30 20 1 25 4
M  V30 21 1 25 23
M  V30 22 1 27 12
M  V30 23 2 27 26
M  V30 24 1 28 13
M  V30 25 1 28 27
M  V30 26 1 29 13
M  V30 27 1 29 25
M  V30 28 1 30 7
M  V30 29 1 30 18
M  V30 30 1 31 11
M  V30 31 1 31 22
M  V30 32 1 31 24
M  V30 33 1 32 19
M  V30 34 1 32 28
M  V30 35 1 33 1
M  V30 36 1 34 1
M  V30 37 1 35 2
M  V30 38 1 36 2
M  V30 39 1 37 2
M  V30 40 1 38 4
M  V30 41 1 39 4
M  V30 42 1 40 7
M  V30 43 1 41 11
M  V30 44 1 42 11
M  V30 45 1 43 11
M  V30 46 1 12 44 CFG=3
M  V30 47 1 13 45 CFG=3
M  V30 48 1 46 14
M  V30 49 1 47 14
M  V30 50 1 48 15
M  V30 51 1 49 15
M  V30 52 1 50 16
M  V30 53 1 51 16
M  V30 54 1 52 16
M  V30 55 1 53 19
M  V30 56 1 54 19
M  V30 57 1 55 20
M  V30 58 1 56 23
M  V30 59 1 57 23
M  V30 60 1 58 24
M  V30 61 1 59 24
M  V30 62 1 60 29
M  V30 63 1 61 29
M  V30 64 1 62 30
M  V30 65 1 63 30
M  V30 66 1 31 64 CFG=3
M  V30 67 1 65 32
M  V30 68 1 66 32
M  V30 69 1 67 7
M  V30 END BOND
M  V30 END CTAB
M  END
>  <i_epik_Tot_Q>  (1) 
0

>  <i_epik_Tot_abs_Q>  (1) 
2

>  <i_i_glide_confnum>  (1) 
399

>  <i_i_glide_lignum>  (1) 
60

>  <i_i_glide_posenum>  (1) 
376

>  <i_i_glide_rotatable_bonds>  (1) 
9

>  <i_lp_mmshare_version>  (1) 
72125

>  <i_m_source_file_index>  (1) 
28

>  <i_f3d_flags>  (1) 
0

>  <num_sample>  (1) 
50

>  <b_lp_Chiralities_Consistent>  (1) 
1

>  <r_epik_Charging_Adjusted_Penalty>  (1) 
0.0027323958996878029

>  <r_epik_Ionization_Penalty>  (1) 
0.002819485543525381

>  <r_epik_Ionization_Penalty_Charging>  (1) 
0.0027323958996878029

>  <r_epik_Ionization_Penalty_Neutral>  (1) 
8.708964383757816e-05

>  <r_epik_State_Penalty>  (1) 
-0

>  <r_glide_ring_energy>  (1) 
0

>  <r_i_docking_score>  (1) 
-7.920165477236262

>  <r_i_glide_ecoul>  (1) 
-6.3744089909483197

>  <r_i_glide_eff_state_penalty>  (1) 
-0

>  <r_i_glide_einternal>  (1) 
9.1724860098211085

>  <r_i_glide_emodel>  (1) 
-67.718829572528108

>  <r_i_glide_emodel_strain>  (1) 
2.6262156027755381

>  <r_i_glide_energy>  (1) 
-47.207736367510648

>  <r_i_glide_erotb>  (1) 
0.66148182558323176

>  <r_i_glide_esite>  (1) 
-0.13984004566950056

>  <r_i_glide_evdw>  (1) 
-40.83332737656233

>  <r_i_glide_gscore>  (1) 
-7.920165477236262

>  <r_i_glide_gscore_strain>  (1) 
0

>  <r_i_glide_hbond>  (1) 
-0.24039169107144401

>  <r_i_glide_ligand_efficiency>  (1) 
-0.24750517116363319

>  <r_i_glide_ligand_efficiency_ln>  (1) 
-1.7735409459101312

>  <r_i_glide_ligand_efficiency_sa>  (1) 
-0.78577993814544134

>  <r_i_glide_lipo>  (1) 
-2.587310342761151

>  <r_i_glide_metal>  (1) 
-0

>  <r_i_glide_rewards>  (1) 
-2.6162775058470338

>  <r_lp_Energy>  (1) 
42.969059000000001

>  <r_lp_tautomer_probability>  (1) 
1

>  <s_epik_Chemistry_Notes>  (1) 
This compound contains an acetal/aminal-like group ( X-CH(R)-Y where X, Y are N, S, or O) that may be acid/base labile, releasing an aldehyde.

>  <s_epik_cmdline>  (1) 
J2VwaWtfcHl0aG9uJywgJy1waHQnLCAnMS4wJywgJy1waCcsICc3LjQnLCAnLXRuJywgJzgnLCAnLW1hJywgJzUwMCcsICctaW1hZScsICc8aW5maWxlLm1hZT4nLCAnLW9tYWUnLCAnPG91dGZpbGUubWFlPic=

>  <s_epik_input>  (1) 
W0NIMl0xW0NIMl1bQ0gyXU4oW0NASF0xMilDKD1PKVtDQEBIXShDI04pW05IXVtDSDJdTihbQ0gyXTIpW0NIMl1bTkhdW0NIMl1jKHNjM1tDQEBIXShbQ0gzXSlbQ0gyXVtDSDNdKWMoW0NIM10pYzNbQ0gyXVtDSDJdQyg9TylbT0hd

>  <s_glide_docking_method>  (1) 
confgen

>  <s_i_glide_gridfile>  (1) 
gpcr_5ht2c_6bqh_protein_autoprepared_prepared

>  <s_lp_Force_Field>  (1) 
S-OPLS

>  <s_lp_Variant>  (1) 
DiffSBDD_27-1

>  <s_m_source_file>  (1) 
generated_GPCR_5HT2C_ligand_DiffSBDD_2026-06-23_prepared.sdf

>  <GenAI_Model>  (1) 
DiffSBDD

>  <Protein>  (1) 
GPCR_5HT2C

$$$$
DiffSBDD_16
     RDKit          3D

  0  0  0  0  0  0  0  0  0  0999 V3000
M  V30 BEGIN CTAB
M  V30 COUNTS 73 79 0 0 1
M  V30 BEGIN ATOM
M  V30 1 C 41.228481 29.203625 62.367982 0
M  V30 2 C 37.433423 29.337769 59.069693 0
M  V30 3 C 38.854999 30.457644 56.034596 0 CFG=2
M  V30 4 C 39.459105 31.085648 62.325759 0 CFG=1
M  V30 5 C 40.370660 28.937893 57.674289 0
M  V30 6 C 37.116890 35.969353 59.787371 0
M  V30 7 C 39.538161 29.710806 53.066403 0 CFG=2
M  V30 8 N 38.991344 28.419972 53.578015 0
M  V30 9 C 37.720402 29.655904 55.354337 0 CFG=1
M  V30 10 F 42.958847 29.241762 63.910028 0
M  V30 11 C 41.463363 31.125845 63.849696 0
M  V30 12 C 36.859965 33.486804 60.292940 0 CFG=2
M  V30 13 C 40.362777 31.728028 63.367696 0
M  V30 14 O 36.435406 29.854970 58.579941 0
M  V30 15 C 39.087792 27.302649 51.334561 0
M  V30 16 C 39.382153 27.191260 52.841751 0
M  V30 17 C 40.231496 29.542770 51.686670 0
M  V30 18 O 38.907497 31.946506 61.334856 0
M  V30 19 O 36.845299 30.464709 54.586379 0
M  V30 20 C 38.118826 28.344195 54.624809 0
M  V30 21 C 41.878448 29.826075 63.367767 0
M  V30 22 C 35.637689 33.975808 61.045988 0 CFG=1
M  V30 23 C 36.874621 33.783754 61.767760 0 CFG=2
M  V30 24 C 36.877767 36.239932 61.308970 0
M  V30 25 C 39.597209 31.371367 55.060187 0
M  V30 26 C 38.089306 31.308596 60.414950 0
M  V30 27 C 37.579699 34.515657 59.436139 0
M  V30 28 C 39.748298 29.617541 56.869580 0
M  V30 29 C 39.981056 27.973759 59.994046 0
M  V30 30 C 40.051847 29.812846 61.735146 0
M  V30 31 C 39.461765 29.273573 60.640161 0
M  V30 32 C 36.140838 35.078403 61.972583 0 CFG=1
M  V30 33 O 37.645168 27.273461 55.008539 0
M  V30 34 C 39.387154 28.686107 50.743708 0
M  V30 35 N 37.072765 32.109440 59.910245 0
M  V30 36 C 40.388833 30.602178 54.012967 0
M  V30 37 C 40.959107 28.207845 58.813415 0
M  V30 38 C 38.328529 30.014051 60.061805 0
M  V30 39 H 41.597741 28.252128 62.029643 0
M  V30 40 H 37.720472 28.327353 58.805206 0
M  V30 41 H 38.373686 31.120658 56.756429 0
M  V30 42 H 38.599208 30.751301 62.910298 0
M  V30 43 H 37.811764 36.701581 59.377716 0
M  V30 44 H 36.174241 36.149114 59.268591 0
M  V30 45 H 38.656265 30.297643 52.867503 0
M  V30 46 H 37.080843 29.337755 56.172379 0
M  V30 47 H 42.052939 31.623441 64.605440 0
M  V30 48 H 40.069814 32.699953 63.738224 0
M  V30 49 H 39.646287 26.537862 50.801215 0
M  V30 50 H 38.045059 27.060716 51.150688 0
M  V30 51 H 40.431798 26.937805 52.998671 0
M  V30 52 H 38.858519 26.307307 53.204770 0
M  V30 53 H 41.218250 29.086562 51.767739 0
M  V30 54 H 40.392736 30.522272 51.234346 0
M  V30 55 H 36.446546 31.099771 55.174955 0
M  V30 56 H 34.846838 33.294604 61.352346 0
M  V30 57 H 36.845178 32.966923 62.488618 0
M  V30 58 H 37.836749 36.357783 61.813259 0
M  V30 59 H 36.343324 37.178597 61.455203 0
M  V30 60 H 40.273421 32.018920 55.619571 0
M  V30 61 H 38.898054 32.047951 54.567444 0
M  V30 62 H 38.649706 34.406043 59.614010 0
M  V30 63 H 37.401785 34.307948 58.379986 0
M  V30 64 H 39.165145 27.336482 59.672630 0
M  V30 65 H 40.445254 27.337753 60.731690 0
M  V30 66 H 35.645158 35.257856 62.926220 0
M  V30 67 H 39.866744 28.594630 49.768852 0
M  V30 68 H 38.445187 29.197080 50.572428 0
M  V30 69 H 36.454279 31.727081 59.197083 0
M  V30 70 H 41.220937 30.137717 54.522841 0
M  V30 71 H 40.864782 31.337764 53.376595 0
M  V30 72 H 41.322325 27.252839 58.434303 0
M  V30 73 H 41.833067 28.766176 59.147833 0
M  V30 END ATOM
M  V30 BEGIN BOND
M  V30 1 1 8 7
M  V30 2 1 9 3
M  V30 3 1 13 4
M  V30 4 2 13 11
M  V30 5 2 14 2
M  V30 6 1 16 8
M  V30 7 1 16 15
M  V30 8 1 17 7
M  V30 9 1 18 4
M  V30 10 1 19 9
M  V30 11 1 20 8
M  V30 12 1 20 9
M  V30 13 2 21 1
M  V30 14 1 21 10
M  V30 15 1 21 11
M  V30 16 1 22 12
M  V30 17 1 23 12
M  V30 18 1 23 22
M  V30 19 1 24 6
M  V30 20 1 25 3
M  V30 21 1 26 18
M  V30 22 1 27 6
M  V30 23 1 27 12
M  V30 24 1 28 3
M  V30 25 3 28 5
M  V30 26 1 30 1
M  V30 27 1 30 4
M  V30 28 1 31 29
M  V30 29 2 31 30
M  V30 30 1 32 22
M  V30 31 1 32 23
M  V30 32 1 32 24
M  V30 33 2 33 20
M  V30 34 1 34 15
M  V30 35 1 34 17
M  V30 36 1 12 35 CFG=1
M  V30 37 1 35 26
M  V30 38 1 36 7
M  V30 39 1 36 25
M  V30 40 1 37 5
M  V30 41 1 37 29
M  V30 42 1 38 2
M  V30 43 2 38 26
M  V30 44 1 38 31
M  V30 45 1 39 1
M  V30 46 1 40 2
M  V30 47 1 3 41 CFG=1
M  V30 48 1 4 42 CFG=1
M  V30 49 1 43 6
M  V30 50 1 44 6
M  V30 51 1 7 45 CFG=3
M  V30 52 1 9 46 CFG=1
M  V30 53 1 47 11
M  V30 54 1 48 13
M  V30 55 1 49 15
M  V30 56 1 50 15
M  V30 57 1 51 16
M  V30 58 1 52 16
M  V30 59 1 53 17
M  V30 60 1 54 17
M  V30 61 1 55 19
M  V30 62 1 22 56 CFG=1
M  V30 63 1 23 57 CFG=1
M  V30 64 1 58 24
M  V30 65 1 59 24
M  V30 66 1 60 25
M  V30 67 1 61 25
M  V30 68 1 62 27
M  V30 69 1 63 27
M  V30 70 1 64 29
M  V30 71 1 65 29
M  V30 72 1 32 66 CFG=1
M  V30 73 1 67 34
M  V30 74 1 68 34
M  V30 75 1 69 35
M  V30 76 1 70 36
M  V30 77 1 71 36
M  V30 78 1 72 37
M  V30 79 1 73 37
M  V30 END BOND
M  V30 END CTAB
M  END
>  <i_epik_Tot_Q>  (1) 
0

>  <i_epik_Tot_abs_Q>  (1) 
0

>  <i_i_glide_confnum>  (1) 
76

>  <i_i_glide_lignum>  (1) 
32

>  <i_i_glide_posenum>  (1) 
18

>  <i_i_glide_rotatable_bonds>  (1) 
8

>  <i_lp_mmshare_version>  (1) 
72125

>  <i_m_source_file_index>  (1) 
17

>  <i_f3d_flags>  (1) 
0

>  <num_sample>  (1) 
50

>  <b_lp_Chiralities_Consistent>  (1) 
1

>  <r_epik_Charging_Adjusted_Penalty>  (1) 
0

>  <r_epik_Ionization_Penalty>  (1) 
0.0025850422907693063

>  <r_epik_Ionization_Penalty_Charging>  (1) 
0

>  <r_epik_Ionization_Penalty_Neutral>  (1) 
0.0025850422907693063

>  <r_epik_State_Penalty>  (1) 
-0

>  <r_glide_ring_energy>  (1) 
1.2537892562815183

>  <r_i_docking_score>  (1) 
-7.9141768335382769

>  <r_i_glide_ecoul>  (1) 
-3.1995291303032314

>  <r_i_glide_eff_state_penalty>  (1) 
-0

>  <r_i_glide_einternal>  (1) 
11.30204606359211

>  <r_i_glide_emodel>  (1) 
-65.742406919349548

>  <r_i_glide_emodel_strain>  (1) 
0.064818028242328296

>  <r_i_glide_energy>  (1) 
-46.75169397343106

>  <r_i_glide_erotb>  (1) 
0.45816569176433508

>  <r_i_glide_esite>  (1) 
-0.053502512969007571

>  <r_i_glide_evdw>  (1) 
-43.552164843127827

>  <r_i_glide_gscore>  (1) 
-7.9141768335382769

>  <r_i_glide_gscore_strain>  (1) 
0

>  <r_i_glide_hbond>  (1) 
-0.11993580583088889

>  <r_i_glide_ligand_efficiency>  (1) 
-0.20826781140890202

>  <r_i_glide_ligand_efficiency_ln>  (1) 
-1.7065293368059404

>  <r_i_glide_ligand_efficiency_sa>  (1) 
-0.70019125998457332

>  <r_i_glide_lipo>  (1) 
-4.0093645207303021

>  <r_i_glide_metal>  (1) 
-0

>  <r_i_glide_rewards>  (1) 
-1.532002074070536

>  <r_lp_Energy>  (1) 
75.165026999999995

>  <r_lp_tautomer_probability>  (1) 
1

>  <s_epik_cmdline>  (1) 
J2VwaWtfcHl0aG9uJywgJy1waHQnLCAnMS4wJywgJy1waCcsICc3LjQnLCAnLXRuJywgJzgnLCAnLW1hJywgJzUwMCcsICctaW1hZScsICc8aW5maWxlLm1hZT4nLCAnLW9tYWUnLCAnPG91dGZpbGUubWFlPic=

>  <s_epik_input>  (1) 
W0NIMl0xW0NIMl1bQ0gyXVtDQEBIXTJbQ0BIXTNbQ0BASF0yW0NAQF0xM1tOSF1DKE80KT1DKFtDSF09TylDKD1DKFtDQEhdNDUpW0NIXT1DKEYpW0NIXT1bQ0hdNSlbQ0gyXVtDSDJdQyNDW0NAQEhdKFtDSDJdW0NIMl02KVtDQEBIXShbT0hdKUMoPU8pTihbQ0BASF02NylbQ0gyXVtDSDJdW0NIMl1bQ0gyXTc=

>  <s_glide_docking_method>  (1) 
confgen

>  <s_i_glide_gridfile>  (1) 
gpcr_5ht2c_6bqh_protein_autoprepared_prepared

>  <s_lp_Force_Field>  (1) 
S-OPLS

>  <s_lp_Variant>  (1) 
DiffSBDD_16-1

>  <s_m_source_file>  (1) 
generated_GPCR_5HT2C_ligand_DiffSBDD_2026-06-23_prepared.sdf

>  <GenAI_Model>  (1) 
DiffSBDD

>  <Protein>  (1) 
GPCR_5HT2C

$$$$
DiffSBDD_24
     RDKit          3D

  0  0  0  0  0  0  0  0  0  0999 V3000
M  V30 BEGIN CTAB
M  V30 COUNTS 80 83 0 0 1
M  V30 BEGIN ATOM
M  V30 1 C 38.124167 30.621515 60.913274 0
M  V30 2 C 37.880378 26.377603 56.781878 0 CFG=2
M  V30 3 O 41.080752 28.137904 59.778390 0
M  V30 4 C 39.305861 34.840670 60.653389 0
M  V30 5 C 36.882266 25.312913 56.265708 0
M  V30 6 N 36.120628 38.137657 61.852390 0
M  V30 7 O 41.777602 27.882009 57.318222 0
M  V30 8 C 37.468176 24.254583 55.320117 0
M  V30 9 C 39.532814 28.252482 56.309441 0
M  V30 10 C 36.837527 35.005991 61.380209 0
M  V30 11 C 38.262028 32.142858 61.138599 0 CFG=2
M  V30 12 C 40.373798 27.812011 57.495332 0 CFG=2
M  V30 13 C 36.044558 37.730315 63.132383 0
M  V30 14 C 39.840531 34.018580 61.833951 0
M  V30 15 C 36.380852 32.550362 59.439511 0
M  V30 16 C 38.867410 30.085477 59.680028 0
M  V30 17 C 36.848940 35.666069 60.025239 0 CFG=1
M  V30 18 C 34.653118 37.737907 63.776797 0
M  V30 19 C 39.959459 27.917853 58.950394 0 CFG=1
M  V30 20 O 37.019989 37.337299 63.767683 0
M  V30 21 C 37.837245 34.520765 60.369907 0 CFG=1
M  V30 22 C 37.754671 33.027502 59.958243 0 CFG=1
M  V30 23 C 34.641049 37.737472 65.319731 0
M  V30 24 C 38.707608 27.103243 55.682161 0 CFG=2
M  V30 25 O 35.665748 35.331469 59.343001 0
M  V30 26 C 40.004028 26.564395 58.278461 0 CFG=1
M  V30 27 C 38.720661 28.565052 59.526906 0
M  V30 28 C 37.176397 37.151167 59.812991 0
M  V30 29 O 38.673648 28.061001 53.443611 0
M  V30 30 C 37.355640 38.051480 61.064934 0
M  V30 31 C 38.789556 25.748082 57.867974 0
M  V30 32 C 37.850643 27.654821 54.518402 0
M  V30 33 C 39.706586 32.521444 61.539399 0
M  V30 34 H 37.072120 30.346214 60.851302 0
M  V30 35 H 38.498329 30.108661 61.800382 0
M  V30 36 H 37.261452 27.132977 57.262926 0
M  V30 37 H 41.829016 28.137241 59.192113 0
M  V30 38 H 39.902245 34.610639 59.772757 0
M  V30 39 H 39.431865 35.903173 60.849835 0
M  V30 40 H 36.444509 24.803807 57.123343 0
M  V30 41 H 36.045666 25.799033 55.769058 0
M  V30 42 H 35.284281 38.454787 61.384814 0
M  V30 43 H 42.059743 27.089227 56.883611 0
M  V30 44 H 36.718648 23.504690 55.065005 0
M  V30 45 H 38.313914 23.738597 55.765637 0
M  V30 46 H 37.809215 24.698964 54.387364 0
M  V30 47 H 38.865960 29.049123 56.640662 0
M  V30 48 H 40.182834 28.703536 55.559273 0
M  V30 49 H 37.300332 35.500312 62.218113 0
M  V30 50 H 35.992843 34.370360 61.636676 0
M  V30 51 H 37.628411 32.365034 61.998521 0
M  V30 52 H 40.886311 34.267697 62.024886 0
M  V30 53 H 39.290582 34.267372 62.741732 0
M  V30 54 H 35.601177 32.624126 60.195210 0
M  V30 55 H 36.403151 31.521796 59.087638 0
M  V30 56 H 36.070908 33.116955 58.567704 0
M  V30 57 H 38.532855 30.572967 58.765636 0
M  V30 58 H 39.917103 30.346547 59.777572 0
M  V30 59 H 34.044536 38.537741 63.371264 0
M  V30 60 H 34.165101 36.823293 63.450180 0
M  V30 61 H 38.443355 32.896033 59.122428 0
M  V30 62 H 33.640740 37.508932 65.688214 0
M  V30 63 H 34.923420 38.698290 65.743912 0
M  V30 64 H 35.310798 36.982270 65.735264 0
M  V30 65 H 39.403728 26.376370 55.263390 0
M  V30 66 H 35.838158 35.335520 58.409174 0
M  V30 67 H 40.828276 25.921586 58.567731 0
M  V30 68 H 38.554476 28.095571 60.495448 0
M  V30 69 H 37.847282 28.352609 58.919755 0
M  V30 70 H 38.045583 37.219673 59.168635 0
M  V30 71 H 36.379292 37.578487 59.211329 0
M  V30 72 H 38.121248 28.289723 52.710841 0
M  V30 73 H 37.603751 39.060245 60.735798 0
M  V30 74 H 38.210966 37.709859 61.650037 0
M  V30 75 H 38.209273 25.512894 58.760087 0
M  V30 76 H 39.176202 24.794458 57.507748 0
M  V30 77 H 37.166327 26.907018 54.119744 0
M  V30 78 H 37.244751 28.500318 54.846842 0
M  V30 79 H 40.402524 32.271166 60.739026 0
M  V30 80 H 40.019682 31.948476 62.413281 0
M  V30 END ATOM
M  V30 BEGIN BOND
M  V30 1 1 5 2
M  V30 2 1 8 5
M  V30 3 1 11 1
M  V30 4 1 12 7 CFG=1
M  V30 5 1 12 9
M  V30 6 1 13 6
M  V30 7 1 14 4
M  V30 8 1 16 1
M  V30 9 1 17 10
M  V30 10 1 18 13
M  V30 11 1 19 3 CFG=1
M  V30 12 1 19 12
M  V30 13 2 20 13
M  V30 14 1 21 4 CFG=1
M  V30 15 1 21 10
M  V30 16 1 21 17
M  V30 17 1 22 11
M  V30 18 1 22 15
M  V30 19 1 22 21
M  V30 20 1 23 18
M  V30 21 1 24 2
M  V30 22 1 24 9
M  V30 23 1 17 25 CFG=3
M  V30 24 1 26 12
M  V30 25 1 26 19
M  V30 26 1 27 16
M  V30 27 1 27 19
M  V30 28 1 28 17
M  V30 29 1 30 6
M  V30 30 1 30 28
M  V30 31 1 31 2
M  V30 32 1 31 26
M  V30 33 1 32 24
M  V30 34 1 32 29
M  V30 35 1 33 11
M  V30 36 1 33 14
M  V30 37 1 34 1
M  V30 38 1 35 1
M  V30 39 1 2 36 CFG=1
M  V30 40 1 37 3
M  V30 41 1 38 4
M  V30 42 1 39 4
M  V30 43 1 40 5
M  V30 44 1 41 5
M  V30 45 1 42 6
M  V30 46 1 43 7
M  V30 47 1 44 8
M  V30 48 1 45 8
M  V30 49 1 46 8
M  V30 50 1 47 9
M  V30 51 1 48 9
M  V30 52 1 49 10
M  V30 53 1 50 10
M  V30 54 1 11 51 CFG=1
M  V30 55 1 52 14
M  V30 56 1 53 14
M  V30 57 1 54 15
M  V30 58 1 55 15
M  V30 59 1 56 15
M  V30 60 1 57 16
M  V30 61 1 58 16
M  V30 62 1 59 18
M  V30 63 1 60 18
M  V30 64 1 22 61 CFG=3
M  V30 65 1 62 23
M  V30 66 1 63 23
M  V30 67 1 64 23
M  V30 68 1 24 65 CFG=3
M  V30 69 1 66 25
M  V30 70 1 26 67 CFG=1
M  V30 71 1 68 27
M  V30 72 1 69 27
M  V30 73 1 70 28
M  V30 74 1 71 28
M  V30 75 1 72 29
M  V30 76 1 73 30
M  V30 77 1 74 30
M  V30 78 1 75 31
M  V30 79 1 76 31
M  V30 80 1 77 32
M  V30 81 1 78 32
M  V30 82 1 79 33
M  V30 83 1 80 33
M  V30 END BOND
M  V30 END CTAB
M  END
>  <i_epik_Tot_Q>  (1) 
0

>  <i_epik_Tot_abs_Q>  (1) 
0

>  <i_i_glide_confnum>  (1) 
1038

>  <i_i_glide_lignum>  (1) 
53

>  <i_i_glide_posenum>  (1) 
226

>  <i_i_glide_rotatable_bonds>  (1) 
15

>  <i_lp_mmshare_version>  (1) 
72125

>  <i_m_source_file_index>  (1) 
25

>  <i_f3d_flags>  (1) 
0

>  <num_sample>  (1) 
50

>  <b_lp_Chiralities_Consistent>  (1) 
1

>  <r_epik_Charging_Adjusted_Penalty>  (1) 
0

>  <r_epik_Ionization_Penalty>  (1) 
1.3202672537782039e-06

>  <r_epik_Ionization_Penalty_Charging>  (1) 
0

>  <r_epik_Ionization_Penalty_Neutral>  (1) 
1.3202672537782039e-06

>  <r_epik_State_Penalty>  (1) 
-0

>  <r_glide_ring_energy>  (1) 
0

>  <r_i_docking_score>  (1) 
-7.913666123562642

>  <r_i_glide_ecoul>  (1) 
-2.6488564989987768

>  <r_i_glide_eff_state_penalty>  (1) 
-0

>  <r_i_glide_einternal>  (1) 
11.249905230827425

>  <r_i_glide_emodel>  (1) 
-51.441403994236033

>  <r_i_glide_emodel_strain>  (1) 
1.2657829636753348

>  <r_i_glide_energy>  (1) 
-43.376699772014163

>  <r_i_glide_erotb>  (1) 
0.83704981647784005

>  <r_i_glide_esite>  (1) 
0

>  <r_i_glide_evdw>  (1) 
-40.727843273015388

>  <r_i_glide_gscore>  (1) 
-7.913666123562642

>  <r_i_glide_gscore_strain>  (1) 
0

>  <r_i_glide_hbond>  (1) 
-0.32000000000000001

>  <r_i_glide_ligand_efficiency>  (1) 
-0.2398080643503831

>  <r_i_glide_ligand_efficiency_ln>  (1) 
-1.7599583711100664

>  <r_i_glide_ligand_efficiency_sa>  (1) 
-0.76919259901370207

>  <r_i_glide_lipo>  (1) 
-4.954184164551207

>  <r_i_glide_metal>  (1) 
-0

>  <r_i_glide_rewards>  (1) 
-1.042811136988689

>  <r_lp_Energy>  (1) 
47.020322

>  <r_lp_tautomer_probability>  (1) 
1

>  <s_epik_cmdline>  (1) 
J2VwaWtfcHl0aG9uJywgJy1waHQnLCAnMS4wJywgJy1waCcsICc3LjQnLCAnLXRuJywgJzgnLCAnLW1hJywgJzUwMCcsICctaW1hZScsICc8aW5maWxlLm1hZT4nLCAnLW9tYWUnLCAnPG91dGZpbGUubWFlPic=

>  <s_epik_input>  (1) 
W09IXVtDSDJdW0NAQEhdKFtDSDJdMSlbQ0BASF0oW0NIMl1bQ0gzXSlbQ0gyXVtDQEBIXShDMTJbT0hdKVtDQF0yKFtPSF0pW0NIMl1bQ0gyXVtDSDJdW0NASF0oW0NASF0zW0NIM10pW0NIMl1bQ0gyXVtDSDJdW0NAXTM0W0NIMl1DNChbT0hdKVtDSDJdW0NIMl1bTkhdQyg9TylbQ0gyXVtDSDNd

>  <s_glide_docking_method>  (1) 
confgen

>  <s_i_glide_gridfile>  (1) 
gpcr_5ht2c_6bqh_protein_autoprepared_prepared

>  <s_lp_Force_Field>  (1) 
S-OPLS

>  <s_lp_Variant>  (1) 
DiffSBDD_24-1

>  <s_m_source_file>  (1) 
generated_GPCR_5HT2C_ligand_DiffSBDD_2026-06-23_prepared.sdf

>  <GenAI_Model>  (1) 
DiffSBDD

>  <Protein>  (1) 
GPCR_5HT2C

$$$$
DiffSBDD_41
     RDKit          3D

  0  0  0  0  0  0  0  0  0  0999 V3000
M  V30 BEGIN CTAB
M  V30 COUNTS 71 75 0 0 1
M  V30 BEGIN ATOM
M  V30 1 C 37.866505 25.499307 56.475898 0
M  V30 2 O 37.758713 31.266824 59.493661 0
M  V30 3 C 38.608291 30.230627 59.015652 0 CFG=1
M  V30 4 C 39.245142 32.108935 56.855326 0
M  V30 5 C 39.269519 25.007300 56.085825 0
M  V30 6 C 37.871492 28.177741 54.882146 0
M  V30 7 C 40.481895 29.432987 50.511639 0
M  V30 8 C 40.045123 28.155200 50.892475 0
M  V30 9 C 38.602936 34.288154 61.404836 0
M  V30 10 C 39.113181 31.306145 53.551518 0
M  V30 11 C 38.611792 29.018644 59.947799 0
M  V30 12 C 37.166630 35.516647 60.233067 0
M  V30 13 N 38.058302 35.476952 61.236110 0
M  V30 14 C 38.097531 29.832952 57.615862 0 CFG=1
M  V30 15 C 38.649726 27.911110 56.224744 0
M  V30 16 C 37.991750 33.429055 60.442625 0
M  V30 17 O 39.705476 37.132700 61.767776 0
M  V30 18 O 39.462305 34.001182 62.239829 0
M  V30 19 C 40.068943 27.389566 55.956038 0
M  V30 20 C 40.079114 26.030131 55.279697 0
M  V30 21 N 38.045138 31.249389 56.869865 0 CFG=2 CHG=1
M  V30 22 O 36.550683 36.520884 59.875361 0
M  V30 23 O 39.047250 29.081184 56.950866 0
M  V30 24 C 39.385669 27.984791 52.108576 0
M  V30 25 C 37.489815 31.110180 55.530588 0
M  V30 26 C 38.411556 36.644987 62.055600 0
M  V30 27 C 39.135163 29.100264 52.920698 0
M  V30 28 C 38.331013 32.127552 60.384029 0
M  V30 29 C 40.269328 30.537719 51.349390 0
M  V30 30 C 35.528624 33.605977 59.648560 0
M  V30 31 N 38.454909 29.238117 54.121519 0
M  V30 32 C 36.970434 34.131973 59.538967 0 CFG=1
M  V30 33 C 37.923261 26.885146 57.130424 0
M  V30 34 C 38.359588 30.598880 54.429385 0
M  V30 35 C 39.569563 30.400127 52.567729 0
M  V30 36 H 37.401688 24.785266 57.158085 0
M  V30 37 H 37.223406 25.528231 55.596312 0
M  V30 38 H 39.645109 30.539237 58.928162 0
M  V30 39 H 40.076079 31.528455 56.474874 0
M  V30 40 H 39.103890 32.963760 56.193077 0
M  V30 41 H 39.475885 32.527050 57.831379 0
M  V30 42 H 39.824854 24.710438 56.977498 0
M  V30 43 H 39.150524 24.137754 55.459655 0
M  V30 44 H 37.824533 27.282490 54.266673 0
M  V30 45 H 36.845142 28.461086 54.967757 0
M  V30 46 H 40.986901 29.570313 49.568010 0
M  V30 47 H 40.216198 27.307982 50.244286 0
M  V30 48 H 39.245109 32.363305 53.543749 0
M  V30 49 H 39.351146 28.281657 59.632852 0
M  V30 50 H 38.847786 29.296534 60.974680 0
M  V30 51 H 37.645154 28.537847 59.943189 0
M  V30 52 H 37.098028 29.396173 57.639425 0
M  V30 53 H 40.206747 37.154018 62.571148 0
M  V30 54 H 40.629057 28.110312 55.367778 0
M  V30 55 H 40.613706 27.298908 56.897837 0
M  V30 56 H 41.120097 25.737762 55.182580 0
M  V30 57 H 39.690964 26.091699 54.267247 0
M  V30 58 H 39.036767 27.007763 52.399847 0
M  V30 59 H 37.184003 32.112158 55.232656 0
M  V30 60 H 36.564102 30.537748 55.571066 0
M  V30 61 H 38.369446 36.376028 63.112678 0
M  V30 62 H 37.695069 37.459742 61.931151 0
M  V30 63 H 39.055457 31.646672 61.028067 0
M  V30 64 H 40.603802 31.512900 51.036778 0
M  V30 65 H 35.132426 33.705553 60.659938 0
M  V30 66 H 34.866946 34.157202 58.979044 0
M  V30 67 H 35.466939 32.553460 59.371344 0
M  V30 68 H 37.321371 34.164089 58.506633 0
M  V30 69 H 38.452077 26.793467 58.078783 0
M  V30 70 H 36.913127 27.205575 57.375854 0
M  V30 71 H 37.324981 31.782854 57.345582 0
M  V30 END ATOM
M  V30 BEGIN BOND
M  V30 1 1 3 2
M  V30 2 1 5 1
M  V30 3 2 8 7
M  V30 4 1 11 3
M  V30 5 1 13 9
M  V30 6 1 13 12
M  V30 7 1 14 3
M  V30 8 1 15 6
M  V30 9 1 16 9
M  V30 10 2 18 9
M  V30 11 1 19 15
M  V30 12 1 20 5
M  V30 13 1 20 19
M  V30 14 1 21 4
M  V30 15 1 21 14
M  V30 16 2 22 12
M  V30 17 1 23 14
M  V30 18 1 23 15
M  V30 19 1 24 8
M  V30 20 1 25 21
M  V30 21 1 26 13
M  V30 22 1 26 17
M  V30 23 2 27 24
M  V30 24 1 28 2
M  V30 25 2 28 16
M  V30 26 1 29 7
M  V30 27 1 31 6
M  V30 28 1 31 27
M  V30 29 1 32 12
M  V30 30 1 32 16
M  V30 31 1 32 30
M  V30 32 1 33 1
M  V30 33 1 33 15
M  V30 34 2 34 10
M  V30 35 1 34 25
M  V30 36 1 34 31
M  V30 37 1 35 10
M  V30 38 1 35 27
M  V30 39 2 35 29
M  V30 40 1 36 1
M  V30 41 1 37 1
M  V30 42 1 3 38 CFG=3
M  V30 43 1 39 4
M  V30 44 1 40 4
M  V30 45 1 41 4
M  V30 46 1 42 5
M  V30 47 1 43 5
M  V30 48 1 44 6
M  V30 49 1 45 6
M  V30 50 1 46 7
M  V30 51 1 47 8
M  V30 52 1 48 10
M  V30 53 1 49 11
M  V30 54 1 50 11
M  V30 55 1 51 11
M  V30 56 1 14 52 CFG=1
M  V30 57 1 53 17
M  V30 58 1 54 19
M  V30 59 1 55 19
M  V30 60 1 56 20
M  V30 61 1 57 20
M  V30 62 1 58 24
M  V30 63 1 59 25
M  V30 64 1 60 25
M  V30 65 1 61 26
M  V30 66 1 62 26
M  V30 67 1 63 28
M  V30 68 1 64 29
M  V30 69 1 65 30
M  V30 70 1 66 30
M  V30 71 1 67 30
M  V30 72 1 32 68 CFG=3
M  V30 73 1 69 33
M  V30 74 1 70 33
M  V30 75 1 21 71 CFG=1
M  V30 END BOND
M  V30 END CTAB
M  END
>  <i_epik_Tot_Q>  (1) 
1

>  <i_epik_Tot_abs_Q>  (1) 
1

>  <i_i_glide_confnum>  (1) 
19

>  <i_i_glide_lignum>  (1) 
90

>  <i_i_glide_posenum>  (1) 
240

>  <i_i_glide_rotatable_bonds>  (1) 
5

>  <i_lp_mmshare_version>  (1) 
72125

>  <i_m_source_file_index>  (1) 
42

>  <i_f3d_flags>  (1) 
0

>  <num_sample>  (1) 
50

>  <b_lp_Chiralities_Consistent>  (1) 
1

>  <r_epik_Charging_Adjusted_Penalty>  (1) 
1.62722492853585

>  <r_epik_Ionization_Penalty>  (1) 
0.81369786534067623

>  <r_epik_Ionization_Penalty_Charging>  (1) 
0.81361246426792511

>  <r_epik_Ionization_Penalty_Neutral>  (1) 
8.5401072751167088e-05

>  <r_epik_State_Penalty>  (1) 
0.813612464267925

>  <r_glide_ring_energy>  (1) 
1.1860061089558767

>  <r_i_docking_score>  (1) 
-7.9063575742040335

>  <r_i_glide_ecoul>  (1) 
-5.1173446143074681

>  <r_i_glide_eff_state_penalty>  (1) 
0.813612464267925

>  <r_i_glide_einternal>  (1) 
7.6142311795003899

>  <r_i_glide_emodel>  (1) 
-42.983376246767996

>  <r_i_glide_emodel_strain>  (1) 
0.24438498093198291

>  <r_i_glide_energy>  (1) 
-40.299739694126103

>  <r_i_glide_erotb>  (1) 
0.34854586591334119

>  <r_i_glide_esite>  (1) 
-0.14394275766588138

>  <r_i_glide_evdw>  (1) 
-35.182395079818633

>  <r_i_glide_gscore>  (1) 
-8.7199700384719581

>  <r_i_glide_gscore_strain>  (1) 
0

>  <r_i_glide_hbond>  (1) 
-0.10863892787130532

>  <r_i_glide_ligand_efficiency>  (1) 
-0.22589593069154382

>  <r_i_glide_ligand_efficiency_ln>  (1) 
-1.7356209596899554

>  <r_i_glide_ligand_efficiency_sa>  (1) 
-0.73892056849380572

>  <r_i_glide_lipo>  (1) 
-4.0242876756294264

>  <r_i_glide_metal>  (1) 
-0

>  <r_i_glide_rewards>  (1) 
-2.2649250970816341

>  <r_lp_Energy>  (1) 
36.851118

>  <s_epik_Chemistry_Notes>  (1) 
This compound contains an acetal/aminal-like group ( X-CH(R)-Y where X, Y are N, S, or O) that may be acid/base labile, releasing an aldehyde.

>  <s_epik_cmdline>  (1) 
J2VwaWtfcHl0aG9uJywgJy1waHQnLCAnMS4wJywgJy1waCcsICc3LjQnLCAnLXRuJywgJzgnLCAnLW1hJywgJzUwMCcsICctaW1hZScsICc8aW5maWxlLm1hZT4nLCAnLW9tYWUnLCAnPG91dGZpbGUubWFlPic=

>  <s_epik_input>  (1) 
W0NIMl0xW0NIMl1bQ0gyXVtDSDJdW0NIMl1DMTJbQ0gyXW4zYzRjKFtjSF1bY0hdW2NIXVtjSF00KVtjSF1jM1tDSDJdTihbQ0gzXSlbQ0BASF0oTzIpW0NASF0oW0NIM10pT1xbQ0hdPUNcNVtDQEBIXShbQ0gzXSlDKD1PKU4oQzU9TylbQ0gyXVtPSF0=

>  <s_glide_docking_method>  (1) 
confgen

>  <s_i_glide_gridfile>  (1) 
gpcr_5ht2c_6bqh_protein_autoprepared_prepared

>  <s_lp_Force_Field>  (1) 
S-OPLS

>  <s_lp_Variant>  (1) 
DiffSBDD_41-4

>  <s_m_source_file>  (1) 
generated_GPCR_5HT2C_ligand_DiffSBDD_2026-06-23_prepared.sdf

>  <GenAI_Model>  (1) 
DiffSBDD

>  <Protein>  (1) 
GPCR_5HT2C

$$$$
DiffSBDD_38
     RDKit          3D

  0  0  0  0  0  0  0  0  0  0999 V3000
M  V30 BEGIN CTAB
M  V30 COUNTS 71 72 0 0 1
M  V30 BEGIN ATOM
M  V30 1 C 36.906694 34.567200 61.367743 0
M  V30 2 C 37.451039 28.583331 57.621859 0
M  V30 3 C 39.618594 28.495009 50.884573 0
M  V30 4 F 37.645108 37.176563 60.054823 0
M  V30 5 C 39.266942 27.337881 51.600541 0
M  V30 6 C 39.645142 29.716482 51.560560 0
M  V30 7 C 38.613205 27.320094 55.727922 0 CFG=2
M  V30 8 C 37.619906 25.244778 55.166984 0
M  V30 9 F 39.787224 29.811853 59.140792 0
M  V30 10 C 37.381671 33.545141 58.481749 0
M  V30 11 C 39.308811 29.742174 52.921020 0
M  V30 12 C 38.070073 37.693912 61.207414 0
M  V30 13 C 39.323601 36.958775 61.767886 0 CFG=2
M  V30 14 C 35.929073 33.868907 60.521742 0
M  V30 15 N 39.007532 34.128628 60.155573 0
M  V30 16 O 37.434010 26.592983 55.566658 0
M  V30 17 C 38.691622 30.514890 58.839919 0
M  V30 18 C 38.258341 34.692033 61.182374 0
M  V30 19 C 39.110274 35.483979 62.178152 0 CFG=1
M  V30 20 C 37.529377 29.494922 58.863696 0 CFG=1
M  V30 21 C 38.982731 28.531625 53.563237 0
M  V30 22 F 37.074054 37.656210 62.093468 0
M  V30 23 C 38.710042 27.761164 57.217882 0 CFG=2
M  V30 24 C 41.835064 33.101441 63.286141 0
M  V30 25 F 38.857235 30.980826 57.599570 0
M  V30 26 F 39.986235 30.855008 50.912544 0
M  V30 27 C 36.125343 33.416371 59.276429 0
M  V30 28 N 38.973211 27.337582 52.922998 0
M  V30 29 F 38.367044 38.972656 60.967689 0
M  V30 30 C 38.591102 31.681352 59.872038 0 CFG=2
M  V30 31 C 38.937277 26.542340 58.127563 0
M  V30 32 C 40.520400 33.792133 63.020963 0
M  V30 33 C 39.889284 37.737561 62.967697 0
M  V30 34 N 40.430038 34.872293 62.362526 0
M  V30 35 C 38.595834 33.101389 59.239610 0 CFG=1
M  V30 36 O 36.270661 30.137778 58.972859 0
M  V30 37 F 39.645225 31.608498 60.691776 0
M  V30 38 N 38.677622 28.541864 54.928891 0
M  V30 39 H 36.500416 35.049521 62.241021 0
M  V30 40 H 40.001290 34.310499 60.174125 0
M  V30 41 H 36.629969 27.883015 57.767821 0
M  V30 42 H 37.148438 29.230514 56.799855 0
M  V30 43 H 39.860958 28.442557 49.834659 0
M  V30 44 H 39.241267 26.380788 51.104692 0
M  V30 45 H 39.484381 26.719904 55.453201 0
M  V30 46 H 36.657019 24.735650 55.145474 0
M  V30 47 H 38.269469 24.706053 55.857691 0
M  V30 48 H 38.045188 25.185070 54.167892 0
M  V30 49 H 37.480835 34.570016 58.127047 0
M  V30 50 H 37.262862 32.936914 57.585607 0
M  V30 51 H 39.316464 30.673298 53.468928 0
M  V30 52 H 40.101255 36.937669 61.007529 0
M  V30 53 H 34.942375 33.726528 60.937764 0
M  V30 54 H 38.579992 35.504737 63.127128 0
M  V30 55 H 37.645237 28.884932 59.758845 0
M  V30 56 H 39.600669 28.384797 57.277918 0
M  V30 57 H 41.666952 32.131661 63.753570 0
M  V30 58 H 42.445191 33.708438 63.953790 0
M  V30 59 H 35.302757 32.937746 58.773222 0
M  V30 60 H 37.734912 31.558230 60.534507 0
M  V30 61 H 38.085568 25.861814 58.108001 0
M  V30 62 H 39.089077 26.855680 59.160294 0
M  V30 63 H 39.821696 25.981327 57.824526 0
M  V30 64 H 39.642174 33.291913 63.438488 0
M  V30 65 H 39.220007 37.699135 63.826899 0
M  V30 66 H 40.045123 38.786577 62.725759 0
M  V30 67 H 40.845015 37.324957 63.282168 0
M  V30 68 H 42.381219 32.949472 62.355050 0
M  V30 69 H 39.407665 33.108341 58.512794 0
M  V30 70 H 36.106174 30.685905 58.206345 0
M  V30 71 H 38.631861 29.421083 55.422172 0
M  V30 END ATOM
M  V30 BEGIN BOND
M  V30 1 2 5 3
M  V30 2 1 6 3
M  V30 3 2 11 6
M  V30 4 1 12 4
M  V30 5 1 13 12
M  V30 6 1 14 1
M  V30 7 1 16 7
M  V30 8 1 16 8
M  V30 9 1 17 9
M  V30 10 2 18 1
M  V30 11 1 18 15
M  V30 12 1 19 13
M  V30 13 1 19 18
M  V30 14 1 20 2
M  V30 15 1 20 17
M  V30 16 1 21 11
M  V30 17 1 22 12
M  V30 18 1 23 2
M  V30 19 1 23 7
M  V30 20 1 25 17
M  V30 21 1 26 6
M  V30 22 1 27 10
M  V30 23 2 27 14
M  V30 24 1 28 5
M  V30 25 2 28 21
M  V30 26 1 29 12
M  V30 27 1 30 17
M  V30 28 1 31 23
M  V30 29 1 32 24
M  V30 30 1 33 13
M  V30 31 1 34 19
M  V30 32 2 34 32
M  V30 33 1 35 10
M  V30 34 1 35 15
M  V30 35 1 35 30
M  V30 36 1 36 20
M  V30 37 1 37 30
M  V30 38 1 38 7
M  V30 39 1 38 21
M  V30 40 1 39 1
M  V30 41 1 40 15
M  V30 42 1 41 2
M  V30 43 1 42 2
M  V30 44 1 43 3
M  V30 45 1 44 5
M  V30 46 1 7 45 CFG=3
M  V30 47 1 46 8
M  V30 48 1 47 8
M  V30 49 1 48 8
M  V30 50 1 49 10
M  V30 51 1 50 10
M  V30 52 1 51 11
M  V30 53 1 13 52 CFG=3
M  V30 54 1 53 14
M  V30 55 1 19 54 CFG=1
M  V30 56 1 20 55 CFG=1
M  V30 57 1 23 56 CFG=3
M  V30 58 1 57 24
M  V30 59 1 58 24
M  V30 60 1 59 27
M  V30 61 1 30 60 CFG=1
M  V30 62 1 61 31
M  V30 63 1 62 31
M  V30 64 1 63 31
M  V30 65 1 64 32
M  V30 66 1 65 33
M  V30 67 1 66 33
M  V30 68 1 67 33
M  V30 69 1 68 24
M  V30 70 1 35 69 CFG=3
M  V30 71 1 70 36
M  V30 72 1 71 38
M  V30 END BOND
M  V30 END CTAB
M  END
>  <i_epik_Tot_Q>  (1) 
0

>  <i_epik_Tot_abs_Q>  (1) 
0

>  <i_i_glide_confnum>  (1) 
3054

>  <i_i_glide_lignum>  (1) 
81

>  <i_i_glide_posenum>  (1) 
308

>  <i_i_glide_rotatable_bonds>  (1) 
14

>  <i_lp_mmshare_version>  (1) 
72125

>  <i_m_source_file_index>  (1) 
39

>  <i_f3d_flags>  (1) 
0

>  <num_sample>  (1) 
50

>  <b_lp_Chiralities_Consistent>  (1) 
1

>  <r_epik_Charging_Adjusted_Penalty>  (1) 
0.41068759954161893

>  <r_epik_Ionization_Penalty>  (1) 
0.7209121720186531

>  <r_epik_Ionization_Penalty_Charging>  (1) 
0

>  <r_epik_Ionization_Penalty_Neutral>  (1) 
0.7209121720186531

>  <r_epik_State_Penalty>  (1) 
0.41068759954161893

>  <r_glide_ring_energy>  (1) 
0

>  <r_i_docking_score>  (1) 
-7.9056318189710311

>  <r_i_glide_ecoul>  (1) 
-4.6238524792014255

>  <r_i_glide_eff_state_penalty>  (1) 
0.41068759954161893

>  <r_i_glide_einternal>  (1) 
13.283561110967113

>  <r_i_glide_emodel>  (1) 
-64.891365397457847

>  <r_i_glide_emodel_strain>  (1) 
1.0459240446300413

>  <r_i_glide_energy>  (1) 
-49.235137270682252

>  <r_i_glide_erotb>  (1) 
0.60130745657359952

>  <r_i_glide_esite>  (1) 
-0.038529395127817979

>  <r_i_glide_evdw>  (1) 
-44.611284791480827

>  <r_i_glide_gscore>  (1) 
-8.3163194185126503

>  <r_i_glide_gscore_strain>  (1) 
0

>  <r_i_glide_hbond>  (1) 
-0.16

>  <r_i_glide_ligand_efficiency>  (1) 
-0.20804294260450082

>  <r_i_glide_ligand_efficiency_ln>  (1) 
-1.7046867802963812

>  <r_i_glide_ligand_efficiency_sa>  (1) 
-0.69943525659442018

>  <r_i_glide_lipo>  (1) 
-3.4495259864415768

>  <r_i_glide_metal>  (1) 
-0

>  <r_i_glide_rewards>  (1) 
-2.3454293820626009

>  <r_lp_Energy>  (1) 
24.236113

>  <r_lp_tautomer_probability>  (1) 
0.49999644301987139

>  <s_epik_Chemistry_Notes>  (1) 
This compound has an imine and may undergo hydrolysis. This compound contains an acetal/aminal-like group ( X-CH(R)-Y where X, Y are N, S, or O) that may be acid/base labile, releasing an aldehyde.

>  <s_epik_cmdline>  (1) 
J2VwaWtfcHl0aG9uJywgJy1waHQnLCAnMS4wJywgJy1waCcsICc3LjQnLCAnLXRuJywgJzgnLCAnLW1hJywgJzUwMCcsICctaW1hZScsICc8aW5maWxlLm1hZT4nLCAnLW9tYWUnLCAnPG91dGZpbGUubWFlPic=

>  <s_epik_input>  (1) 
RkMoRikoRilbQ0BASF0oW0NIM10pW0NASF0oW05IXVtDSF09W0NIMl0pQzE9TltDQEhdKFtDSDJdW0NIXT1bQ0hdW0NIMl0xKVtDQEhdKEYpQyhGKShGKVtDQEBIXShbT0hdKVtDSDJdW0NAQEhdKFtDSDNdKVtDQEBIXShPW0NIM10pW05IXWMoW2NIXTIpbltjSF1bY0hdYzJG

>  <s_glide_docking_method>  (1) 
confgen

>  <s_i_glide_gridfile>  (1) 
gpcr_5ht2c_6bqh_protein_autoprepared_prepared

>  <s_lp_Force_Field>  (1) 
S-OPLS

>  <s_lp_Variant>  (1) 
DiffSBDD_38-2

>  <s_m_source_file>  (1) 
generated_GPCR_5HT2C_ligand_DiffSBDD_2026-06-23_prepared.sdf

>  <GenAI_Model>  (1) 
DiffSBDD

>  <Protein>  (1) 
GPCR_5HT2C

$$$$
DiffSBDD_47
     RDKit          3D

  0  0  0  0  0  0  0  0  0  0999 V3000
M  V30 BEGIN CTAB
M  V30 COUNTS 43 46 0 0 1
M  V30 BEGIN ATOM
M  V30 1 C 39.294267 29.083795 52.230149 0
M  V30 2 C 39.736734 35.421952 61.638185 0
M  V30 3 N 38.832040 31.413641 56.727118 0
M  V30 4 C 37.610202 32.215050 58.781457 0 CFG=1
M  V30 5 C 38.474900 32.277593 60.054407 0
M  V30 6 C 40.313075 33.163676 62.246103 0
M  V30 7 N 38.705202 33.659704 60.458862 0
M  V30 8 C 40.304660 36.348891 62.331221 0
M  V30 9 C 39.718904 30.362074 52.664281 0
M  V30 10 C 40.291159 29.449058 50.071785 0
M  V30 11 C 37.804195 30.740819 55.949522 0 CFG=2
M  V30 12 C 38.407960 28.339133 53.030214 0
M  V30 13 C 41.285974 33.586875 63.384151 0
M  V30 14 C 39.565335 34.167802 61.421602 0
M  V30 15 C 38.126643 30.321358 57.370080 0 CFG=2
M  V30 16 C 37.934153 28.870611 54.247849 0
M  V30 17 N 41.199596 36.137753 63.367521 0
M  V30 18 C 39.245102 30.889483 53.877462 0
M  V30 19 C 41.625865 34.854445 63.818864 0
M  V30 20 C 38.344684 30.152592 54.676878 0
M  V30 21 S 38.445132 32.937755 57.358465 0
M  V30 22 O 39.736829 28.557008 51.033223 0
M  V30 23 N 37.247513 30.848311 58.421280 0
M  V30 24 H 36.685904 32.766458 58.958768 0
M  V30 25 H 37.972934 31.757350 60.870691 0
M  V30 26 H 39.426025 31.773086 59.891764 0
M  V30 27 H 40.897109 32.546368 61.562919 0
M  V30 28 H 39.577549 32.500661 62.703159 0
M  V30 29 H 38.218205 34.341711 59.894091 0
M  V30 30 H 40.111233 37.395910 62.152832 0
M  V30 31 H 40.402093 30.944387 52.066023 0
M  V30 32 H 40.411976 28.937763 49.118493 0
M  V30 33 H 41.276624 29.799846 50.377830 0
M  V30 34 H 39.644965 30.310212 49.895337 0
M  V30 35 H 36.886952 31.278501 55.735309 0
M  V30 36 H 38.082192 27.361162 52.705943 0
M  V30 37 H 41.749964 32.755254 63.893779 0
M  V30 38 H 38.649862 29.376094 57.498107 0
M  V30 39 H 37.245139 28.298100 54.849568 0
M  V30 40 H 41.572917 36.958621 63.846818 0
M  V30 41 H 39.564084 31.870834 54.193939 0
M  V30 42 H 42.328242 34.943840 64.635019 0
M  V30 43 H 36.336733 30.990239 57.966516 0
M  V30 END ATOM
M  V30 BEGIN BOND
M  V30 1 1 5 4
M  V30 2 1 7 5
M  V30 3 2 8 2
M  V30 4 1 9 1
M  V30 5 1 11 3
M  V30 6 2 12 1
M  V30 7 1 13 6
M  V30 8 2 14 2
M  V30 9 1 14 6
M  V30 10 1 14 7
M  V30 11 1 15 3
M  V30 12 1 15 11
M  V30 13 1 16 12
M  V30 14 1 17 8
M  V30 15 2 18 9
M  V30 16 2 19 13
M  V30 17 1 19 17
M  V30 18 1 20 11
M  V30 19 2 20 16
M  V30 20 1 20 18
M  V30 21 1 21 3
M  V30 22 1 21 4
M  V30 23 1 22 1
M  V30 24 1 22 10
M  V30 25 1 23 4
M  V30 26 1 23 15
M  V30 27 1 4 24 CFG=1
M  V30 28 1 25 5
M  V30 29 1 26 5
M  V30 30 1 27 6
M  V30 31 1 28 6
M  V30 32 1 29 7
M  V30 33 1 30 8
M  V30 34 1 31 9
M  V30 35 1 32 10
M  V30 36 1 33 10
M  V30 37 1 34 10
M  V30 38 1 11 35 CFG=3
M  V30 39 1 36 12
M  V30 40 1 37 13
M  V30 41 1 15 38 CFG=3
M  V30 42 1 39 16
M  V30 43 1 40 17
M  V30 44 1 41 18
M  V30 45 1 42 19
M  V30 46 1 43 23
M  V30 END BOND
M  V30 END CTAB
M  END
>  <i_epik_Tot_Q>  (1) 
0

>  <i_epik_Tot_abs_Q>  (1) 
0

>  <i_i_glide_confnum>  (1) 
7

>  <i_i_glide_lignum>  (1) 
98

>  <i_i_glide_posenum>  (1) 
94

>  <i_i_glide_rotatable_bonds>  (1) 
5

>  <i_lp_mmshare_version>  (1) 
72125

>  <i_m_source_file_index>  (1) 
48

>  <i_f3d_flags>  (1) 
0

>  <num_sample>  (1) 
50

>  <b_lp_Chiralities_Consistent>  (1) 
1

>  <r_epik_Charging_Adjusted_Penalty>  (1) 
2.8036070843788356e-07

>  <r_epik_Ionization_Penalty>  (1) 
5.6275473319638209e-05

>  <r_epik_Ionization_Penalty_Charging>  (1) 
2.8036070843788356e-07

>  <r_epik_Ionization_Penalty_Neutral>  (1) 
5.5995112611200328e-05

>  <r_epik_State_Penalty>  (1) 
-0

>  <r_glide_ring_energy>  (1) 
0

>  <r_i_docking_score>  (1) 
-7.905010715952586

>  <r_i_glide_ecoul>  (1) 
-10.083548796776483

>  <r_i_glide_eff_state_penalty>  (1) 
-0

>  <r_i_glide_einternal>  (1) 
3.0142082572618341

>  <r_i_glide_emodel>  (1) 
-68.111062321048905

>  <r_i_glide_emodel_strain>  (1) 
0.24218610861200318

>  <r_i_glide_energy>  (1) 
-47.574382260427711

>  <r_i_glide_erotb>  (1) 
0.69643727437471581

>  <r_i_glide_esite>  (1) 
-0.074035348262997736

>  <r_i_glide_evdw>  (1) 
-37.490833463651228

>  <r_i_glide_gscore>  (1) 
-7.905010715952586

>  <r_i_glide_gscore_strain>  (1) 
0

>  <r_i_glide_hbond>  (1) 
-0.45599999999999996

>  <r_i_glide_ligand_efficiency>  (1) 
-0.34369611808489503

>  <r_i_glide_ligand_efficiency_ln>  (1) 
-1.9115032697915437

>  <r_i_glide_ligand_efficiency_sa>  (1) 
-0.97742604132479749

>  <r_i_glide_lipo>  (1) 
-3.227968816187226

>  <r_i_glide_metal>  (1) 
-0

>  <r_i_glide_rewards>  (1) 
-1.4563698331780448

>  <r_lp_Energy>  (1) 
12.846019

>  <r_lp_tautomer_probability>  (1) 
1

>  <s_epik_Chemistry_Notes>  (1) 
This compound has an imine and may undergo hydrolysis. This compound contains an acetal/aminal-like group ( X-CH(R)-Y where X, Y are N, S, or O) that may be acid/base labile, releasing an aldehyde. This compound has a N-S or N-O group and may undergo hydrolysis at high or low pH.

>  <s_epik_cmdline>  (1) 
J2VwaWtfcHl0aG9uJywgJy1waHQnLCAnMS4wJywgJy1waCcsICc3LjQnLCAnLXRuJywgJzgnLCAnLW1hJywgJzUwMCcsICctaW1hZScsICc8aW5maWxlLm1hZT4nLCAnLW9tYWUnLCAnPG91dGZpbGUubWFlPic=

>  <s_epik_input>  (1) 
W0NIM11PYzFbY0hdW2NIXWMoW2NIXVtjSF0xKVtDQEhdMltDQEBIXShOMjMpW05IXVtDQEhdKFMzKVtDSDJdW05IXUM0PUM9W0NIXVtOSF1bQ0hdPVtDSF1bQ0gyXTQ=

>  <s_glide_docking_method>  (1) 
confgen

>  <s_i_glide_gridfile>  (1) 
gpcr_5ht2c_6bqh_protein_autoprepared_prepared

>  <s_lp_Force_Field>  (1) 
S-OPLS

>  <s_lp_Variant>  (1) 
DiffSBDD_47-1

>  <s_m_source_file>  (1) 
generated_GPCR_5HT2C_ligand_DiffSBDD_2026-06-23_prepared.sdf

>  <GenAI_Model>  (1) 
DiffSBDD

>  <Protein>  (1) 
GPCR_5HT2C

$$$$
DiffSBDD_45
     RDKit          3D

  0  0  0  0  0  0  0  0  0  0999 V3000
M  V30 BEGIN CTAB
M  V30 COUNTS 72 76 0 0 1
M  V30 BEGIN ATOM
M  V30 1 C 39.503076 35.185058 61.017643 0
M  V30 2 C 39.016601 28.981457 56.537239 0
M  V30 3 S 37.433257 33.344087 60.325618 0
M  V30 4 C 41.088589 32.376017 62.968069 0
M  V30 5 C 38.418620 27.701739 55.994377 0 CFG=2
M  V30 6 C 38.339922 31.208936 58.796440 0
M  V30 7 S 37.436909 37.701425 61.138207 0
M  V30 8 C 37.918003 30.047338 56.678065 0
M  V30 9 C 39.603478 25.415088 56.706576 0
M  V30 10 C 39.258157 26.465089 55.649286 0 CFG=1
M  V30 11 C 39.636589 28.000377 52.534721 0
M  V30 12 C 38.773021 36.329829 63.134779 0
M  V30 13 C 37.395355 36.519418 62.519374 0 CFG=2
M  V30 14 C 37.073280 35.937120 61.154347 0 CFG=2
M  V30 15 C 37.869994 27.647638 54.552301 0 CFG=1
M  V30 16 O 37.917970 30.251479 59.447912 0
M  V30 17 C 38.509266 28.472144 53.433958 0
M  V30 18 C 38.073932 35.080502 60.413617 0 CFG=1
M  V30 19 C 38.881865 32.339365 56.638108 0
M  V30 20 O 36.281681 33.362370 59.411884 0
M  V30 21 C 36.992479 25.235845 55.151990 0
M  V30 22 O 38.045111 33.466446 56.735868 0
M  V30 23 C 40.907588 34.957303 63.191152 0
M  V30 24 C 41.753097 33.736941 62.755913 0
M  V30 25 C 38.839219 32.460983 59.527268 0
M  V30 26 N 38.390386 31.202463 57.432151 0
M  V30 27 C 38.234378 28.121998 51.993681 0
M  V30 28 C 38.127583 26.135884 54.656037 0 CFG=2
M  V30 29 O 40.445144 32.214318 64.026572 0 CHG=-1
M  V30 30 C 37.505244 24.093093 56.017729 0
M  V30 31 O 41.245230 31.523109 62.065056 0
M  V30 32 C 39.503565 35.098855 62.559270 0 CFG=2
M  V30 33 C 38.389510 24.591559 57.176837 0
M  V30 34 O 37.253221 32.813950 61.686309 0
M  V30 35 H 40.156210 34.427795 60.597009 0
M  V30 36 H 39.954302 36.133128 60.723146 0
M  V30 37 H 39.816524 29.346063 55.892399 0
M  V30 38 H 39.474391 28.782871 57.507434 0
M  V30 39 H 37.640184 27.382613 56.690719 0
M  V30 40 H 37.038379 29.626945 57.169191 0
M  V30 41 H 37.552285 30.356780 55.698599 0
M  V30 42 H 40.340557 24.731194 56.288711 0
M  V30 43 H 40.087239 25.882730 57.565015 0
M  V30 44 H 40.158644 26.784811 55.120621 0
M  V30 45 H 40.345065 28.741040 52.167681 0
M  V30 46 H 40.037204 26.996611 52.658300 0
M  V30 47 H 38.659299 36.218339 64.211704 0
M  V30 48 H 39.368134 37.232357 62.987898 0
M  V30 49 H 36.581951 36.787233 63.190686 0
M  V30 50 H 36.045147 35.783538 60.857269 0
M  V30 51 H 36.802676 27.846523 54.567433 0
M  V30 52 H 38.514275 29.537447 53.653073 0
M  V30 53 H 38.045135 35.409986 59.375748 0
M  V30 54 H 38.932646 32.069105 55.583129 0
M  V30 55 H 39.903825 32.607947 56.897415 0
M  V30 56 H 36.445114 24.829021 54.302381 0
M  V30 57 H 36.281354 25.800121 55.756259 0
M  V30 58 H 37.138802 33.165974 56.744760 0
M  V30 59 H 41.484076 35.862152 62.991165 0
M  V30 60 H 40.798316 34.920234 64.275820 0
M  V30 61 H 42.044826 33.821707 61.710648 0
M  V30 62 H 42.671838 33.731089 63.341842 0
M  V30 63 H 39.518499 32.148895 60.318376 0
M  V30 64 H 39.376261 33.173740 58.913130 0
M  V30 65 H 37.690776 27.203034 51.793636 0
M  V30 66 H 38.045199 28.937822 51.302798 0
M  V30 67 H 38.561230 25.737793 53.749067 0
M  V30 68 H 38.045123 23.410374 55.367701 0
M  V30 69 H 36.662897 23.525933 56.414531 0
M  V30 70 H 38.943753 34.211671 62.843738 0
M  V30 71 H 38.730839 23.741045 57.767676 0
M  V30 72 H 37.783969 25.201125 57.847968 0
M  V30 END ATOM
M  V30 BEGIN BOND
M  V30 1 1 5 2
M  V30 2 1 8 2
M  V30 3 1 10 5
M  V30 4 1 10 9
M  V30 5 1 13 7
M  V30 6 1 13 12
M  V30 7 1 14 7
M  V30 8 1 14 13
M  V30 9 1 15 5
M  V30 10 2 16 6
M  V30 11 1 17 11
M  V30 12 1 17 15
M  V30 13 1 18 1
M  V30 14 1 18 3
M  V30 15 1 18 14
M  V30 16 2 20 3
M  V30 17 1 22 19
M  V30 18 1 24 4
M  V30 19 1 24 23
M  V30 20 1 25 3
M  V30 21 1 25 6
M  V30 22 1 26 6
M  V30 23 1 26 8
M  V30 24 1 26 19
M  V30 25 1 27 11
M  V30 26 1 27 17
M  V30 27 1 28 10
M  V30 28 1 28 15
M  V30 29 1 28 21
M  V30 30 1 29 4
M  V30 31 1 30 21
M  V30 32 2 31 4
M  V30 33 1 32 1
M  V30 34 1 32 12
M  V30 35 1 32 23
M  V30 36 1 33 9
M  V30 37 1 33 30
M  V30 38 2 34 3
M  V30 39 1 35 1
M  V30 40 1 36 1
M  V30 41 1 37 2
M  V30 42 1 38 2
M  V30 43 1 5 39 CFG=1
M  V30 44 1 40 8
M  V30 45 1 41 8
M  V30 46 1 42 9
M  V30 47 1 43 9
M  V30 48 1 10 44 CFG=3
M  V30 49 1 45 11
M  V30 50 1 46 11
M  V30 51 1 47 12
M  V30 52 1 48 12
M  V30 53 1 13 49 CFG=1
M  V30 54 1 14 50 CFG=1
M  V30 55 1 15 51 CFG=1
M  V30 56 1 52 17
M  V30 57 1 18 53 CFG=3
M  V30 58 1 54 19
M  V30 59 1 55 19
M  V30 60 1 56 21
M  V30 61 1 57 21
M  V30 62 1 58 22
M  V30 63 1 59 23
M  V30 64 1 60 23
M  V30 65 1 61 24
M  V30 66 1 62 24
M  V30 67 1 63 25
M  V30 68 1 64 25
M  V30 69 1 65 27
M  V30 70 1 66 27
M  V30 71 1 28 67 CFG=3
M  V30 72 1 68 30
M  V30 73 1 69 30
M  V30 74 1 32 70 CFG=3
M  V30 75 1 71 33
M  V30 76 1 72 33
M  V30 END BOND
M  V30 END CTAB
M  END
>  <i_epik_Tot_Q>  (1) 
-1

>  <i_epik_Tot_abs_Q>  (1) 
1

>  <i_i_glide_confnum>  (1) 
291

>  <i_i_glide_lignum>  (1) 
96

>  <i_i_glide_posenum>  (1) 
345

>  <i_i_glide_rotatable_bonds>  (1) 
13

>  <i_lp_mmshare_version>  (1) 
72125

>  <i_m_source_file_index>  (1) 
46

>  <i_f3d_flags>  (1) 
0

>  <num_sample>  (1) 
50

>  <b_lp_Chiralities_Consistent>  (1) 
1

>  <r_epik_Charging_Adjusted_Penalty>  (1) 
0.0015143551789188845

>  <r_epik_Ionization_Penalty>  (1) 
0.0015222875857222101

>  <r_epik_Ionization_Penalty_Charging>  (1) 
0.0015143551789188845

>  <r_epik_Ionization_Penalty_Neutral>  (1) 
7.9324068033256629e-06

>  <r_epik_State_Penalty>  (1) 
-0

>  <r_glide_ring_energy>  (1) 
0

>  <r_i_docking_score>  (1) 
-7.8999831826221287

>  <r_i_glide_ecoul>  (1) 
-2.7485305237425295

>  <r_i_glide_eff_state_penalty>  (1) 
-0

>  <r_i_glide_einternal>  (1) 
7.5034209480405298

>  <r_i_glide_emodel>  (1) 
-68.349031248286252

>  <r_i_glide_emodel_strain>  (1) 
0.31795620344853859

>  <r_i_glide_energy>  (1) 
-47.597060941294828

>  <r_i_glide_erotb>  (1) 
0.85788247599558221

>  <r_i_glide_esite>  (1) 
-0.23624043651125654

>  <r_i_glide_evdw>  (1) 
-44.848530417552297

>  <r_i_glide_gscore>  (1) 
-7.8999831826221287

>  <r_i_glide_gscore_strain>  (1) 
0

>  <r_i_glide_hbond>  (1) 
-0.16676400262680571

>  <r_i_glide_ligand_efficiency>  (1) 
-0.23235244654770967

>  <r_i_glide_ligand_efficiency_ln>  (1) 
-1.7453278720638481

>  <r_i_glide_ligand_efficiency_sa>  (1) 
-0.75273172789165599

>  <r_i_glide_lipo>  (1) 
-4.8137875692511978

>  <r_i_glide_metal>  (1) 
-0

>  <r_i_glide_rewards>  (1) 
-0.88636755078945673

>  <r_lp_Energy>  (1) 
22.191468

>  <r_lp_tautomer_probability>  (1) 
1

>  <s_epik_Chemistry_Notes>  (1) 
This compound contains an acetal/aminal-like group ( X-CH(R)-Y where X, Y are N, S, or O) that may be acid/base labile, releasing an aldehyde.

>  <s_epik_cmdline>  (1) 
J2VwaWtfcHl0aG9uJywgJy1waHQnLCAnMS4wJywgJy1waCcsICc3LjQnLCAnLXRuJywgJzgnLCAnLW1hJywgJzUwMCcsICctaW1hZScsICc8aW5maWxlLm1hZT4nLCAnLW9tYWUnLCAnPG91dGZpbGUubWFlPic=

>  <s_epik_input>  (1) 
W09IXUMoPU8pW0NIMl1bQ0gyXVtDQEBIXShbQ0gyXTEpW0NIMl1bQ0BIXShbQ0BIXShTMilbQ0BASF0xMilTKD1PKSg9TylbQ0gyXUMoPU8pTihbQ0gyXVtPSF0pW0NIMl1bQ0gyXVtDQEhdM1tDQEBIXShbQ0hdNFtDSDJdW0NIMl00KVtDQEBIXShbQ0BASF0zNSlbQ0gyXVtDSDJdW0NIMl1bQ0gyXTU=

>  <s_glide_docking_method>  (1) 
confgen

>  <s_i_glide_gridfile>  (1) 
gpcr_5ht2c_6bqh_protein_autoprepared_prepared

>  <s_lp_Force_Field>  (1) 
S-OPLS

>  <s_lp_Variant>  (1) 
DiffSBDD_45-1

>  <s_m_source_file>  (1) 
generated_GPCR_5HT2C_ligand_DiffSBDD_2026-06-23_prepared.sdf

>  <GenAI_Model>  (1) 
DiffSBDD

>  <Protein>  (1) 
GPCR_5HT2C

$$$$
DiffSBDD_32
     RDKit          3D

  0  0  0  0  0  0  0  0  0  0999 V3000
M  V30 BEGIN CTAB
M  V30 COUNTS 71 74 0 0 1
M  V30 BEGIN ATOM
M  V30 1 N 39.181896 29.343589 59.053180 0
M  V30 2 C 38.826917 29.657362 55.280584 0 CFG=1
M  V30 3 C 38.013116 32.167665 61.405680 0 CFG=2
M  V30 4 C 39.308140 36.938254 63.849082 0
M  V30 5 C 38.498877 28.621562 53.101361 0 CFG=2
M  V30 6 N 39.542394 28.447361 55.707701 0
M  V30 7 C 39.483741 36.298013 62.683253 0
M  V30 8 C 38.844216 31.253828 53.672957 0
M  V30 9 N 40.475951 32.012901 63.874086 0
M  V30 10 C 37.095857 34.634617 61.162531 0 CFG=2
M  V30 11 C 37.510421 31.799458 59.991302 0
M  V30 12 C 38.995995 28.380422 58.148098 0
M  V30 13 C 39.332429 30.068943 61.352224 0
M  V30 14 C 38.973800 27.292965 53.765057 0
M  V30 15 Cl 38.964570 28.587154 51.380784 0
M  V30 16 C 39.561042 31.760027 54.931555 0
M  V30 17 C 39.844377 31.698466 62.956045 0
M  V30 18 C 38.323957 33.686139 61.511860 0 CFG=2
M  V30 19 C 38.403767 29.518428 60.254853 0 CFG=1
M  V30 20 C 40.730819 34.502042 61.562463 0
M  V30 21 O 40.286519 29.373333 61.704553 0
M  V30 22 C 37.195057 36.038969 61.819761 0
M  V30 23 N 39.635323 33.963284 60.855599 0
M  V30 24 O 39.307786 30.785356 55.931026 0
M  V30 25 C 35.693696 34.085817 61.534129 0
M  V30 26 C 36.231585 29.958764 58.813345 0
M  V30 27 O 38.885153 27.337781 55.198969 0
M  V30 28 C 39.183132 29.796298 53.825520 0 CFG=1
M  V30 29 O 38.055802 27.584602 58.164986 0
M  V30 30 C 40.073920 28.330681 57.080969 0 CFG=1
M  V30 31 N 39.105531 31.286966 61.901781 0
M  V30 32 N 42.169148 27.337784 57.784964 0
M  V30 33 C 40.915072 27.103643 57.383204 0
M  V30 34 C 37.113257 30.336958 60.012739 0 CFG=2
M  V30 35 C 40.680475 35.517734 62.460991 0
M  V30 36 N 38.563841 36.407566 61.664039 0
M  V30 37 O 40.444794 25.970763 57.304978 0
M  V30 38 H 39.976354 29.953591 58.936656 0
M  V30 39 H 37.768676 29.488103 55.496365 0
M  V30 40 H 37.216443 31.961835 62.119261 0
M  V30 41 H 38.429899 37.538534 64.028387 0
M  V30 42 H 40.041639 36.867184 64.640447 0
M  V30 43 H 37.412192 28.705602 53.153997 0
M  V30 44 H 39.244469 31.696767 52.759886 0
M  V30 45 H 37.772834 31.437252 53.767627 0
M  V30 46 H 37.105577 34.762481 60.079159 0
M  V30 47 H 36.663903 32.403874 59.672355 0
M  V30 48 H 38.279298 31.981157 59.239748 0
M  V30 49 H 40.002657 27.064334 53.488440 0
M  V30 50 H 38.372342 26.459306 53.402222 0
M  V30 51 H 40.641500 31.737747 54.782737 0
M  V30 52 H 39.250259 32.758932 55.237281 0
M  V30 53 H 38.499389 33.839473 62.567956 0
M  V30 54 H 38.151756 28.505950 60.567760 0
M  V30 55 H 41.653438 33.975205 61.369977 0
M  V30 56 H 36.558179 36.760912 61.306060 0
M  V30 57 H 36.905555 36.036648 62.870417 0
M  V30 58 H 39.862547 33.292346 60.135598 0
M  V30 59 H 35.424232 34.303135 62.567723 0
M  V30 60 H 34.950703 34.537352 60.886743 0
M  V30 61 H 35.539904 33.022100 61.389542 0
M  V30 62 H 36.730572 30.137647 57.860283 0
M  V30 63 H 35.915343 28.924464 58.848710 0
M  V30 64 H 35.310599 30.538342 58.812377 0
M  V30 65 H 40.263837 29.737745 53.692482 0
M  V30 66 H 40.720924 29.193821 57.217799 0
M  V30 67 H 42.500426 28.283917 57.891797 0
M  V30 68 H 42.789563 26.557672 57.958793 0
M  V30 69 H 36.467079 30.194600 60.878273 0
M  V30 70 H 41.579172 35.775305 63.006450 0
M  V30 71 H 38.923591 36.091737 60.772514 0
M  V30 END ATOM
M  V30 BEGIN BOND
M  V30 1 1 6 2
M  V30 2 2 7 4
M  V30 3 1 11 3
M  V30 4 1 12 1
M  V30 5 1 14 5
M  V30 6 1 15 5
M  V30 7 1 16 8
M  V30 8 3 17 9
M  V30 9 1 18 3
M  V30 10 1 18 10
M  V30 11 1 19 1
M  V30 12 1 19 13
M  V30 13 2 21 13
M  V30 14 1 22 10
M  V30 15 1 23 18
M  V30 16 1 23 20
M  V30 17 1 24 2
M  V30 18 1 24 16
M  V30 19 1 25 10
M  V30 20 1 27 6
M  V30 21 1 27 14
M  V30 22 1 28 2
M  V30 23 1 28 5
M  V30 24 1 28 8
M  V30 25 2 29 12
M  V30 26 1 30 6
M  V30 27 1 30 12
M  V30 28 1 31 3
M  V30 29 1 31 13
M  V30 30 1 31 17
M  V30 31 1 33 30
M  V30 32 1 33 32
M  V30 33 1 34 11
M  V30 34 1 34 19
M  V30 35 1 34 26
M  V30 36 1 35 7
M  V30 37 2 35 20
M  V30 38 1 36 7
M  V30 39 1 36 22
M  V30 40 2 37 33
M  V30 41 1 38 1
M  V30 42 1 2 39 CFG=3
M  V30 43 1 3 40 CFG=1
M  V30 44 1 41 4
M  V30 45 1 42 4
M  V30 46 1 5 43 CFG=3
M  V30 47 1 44 8
M  V30 48 1 45 8
M  V30 49 1 10 46 CFG=3
M  V30 50 1 47 11
M  V30 51 1 48 11
M  V30 52 1 49 14
M  V30 53 1 50 14
M  V30 54 1 51 16
M  V30 55 1 52 16
M  V30 56 1 18 53 CFG=1
M  V30 57 1 19 54 CFG=1
M  V30 58 1 55 20
M  V30 59 1 56 22
M  V30 60 1 57 22
M  V30 61 1 58 23
M  V30 62 1 59 25
M  V30 63 1 60 25
M  V30 64 1 61 25
M  V30 65 1 62 26
M  V30 66 1 63 26
M  V30 67 1 64 26
M  V30 68 1 28 65 CFG=1
M  V30 69 1 30 66 CFG=1
M  V30 70 1 67 32
M  V30 71 1 68 32
M  V30 72 1 34 69 CFG=1
M  V30 73 1 70 35
M  V30 74 1 71 36
M  V30 END BOND
M  V30 END CTAB
M  END
>  <i_epik_Tot_Q>  (1) 
0

>  <i_epik_Tot_abs_Q>  (1) 
0

>  <i_i_glide_confnum>  (1) 
1

>  <i_i_glide_lignum>  (1) 
71

>  <i_i_glide_posenum>  (1) 
339

>  <i_i_glide_rotatable_bonds>  (1) 
6

>  <i_lp_mmshare_version>  (1) 
72125

>  <i_m_source_file_index>  (1) 
33

>  <i_f3d_flags>  (1) 
0

>  <num_sample>  (1) 
50

>  <b_lp_Chiralities_Consistent>  (1) 
1

>  <r_epik_Charging_Adjusted_Penalty>  (1) 
0.0047334328173529788

>  <r_epik_Ionization_Penalty>  (1) 
0.0056920073273627391

>  <r_epik_Ionization_Penalty_Charging>  (1) 
0.0047334328173529788

>  <r_epik_Ionization_Penalty_Neutral>  (1) 
0.00095857451000976068

>  <r_epik_State_Penalty>  (1) 
-0

>  <r_glide_ring_energy>  (1) 
0

>  <r_i_docking_score>  (1) 
-7.8993725376204571

>  <r_i_glide_ecoul>  (1) 
-0.16091493985894423

>  <r_i_glide_eff_state_penalty>  (1) 
-0

>  <r_i_glide_einternal>  (1) 
8.1789195191964019

>  <r_i_glide_emodel>  (1) 
-48.032531217403488

>  <r_i_glide_emodel_strain>  (1) 
2.8508641302150863

>  <r_i_glide_energy>  (1) 
-48.630083532751485

>  <r_i_glide_erotb>  (1) 
0.28744264244001894

>  <r_i_glide_esite>  (1) 
0

>  <r_i_glide_evdw>  (1) 
-48.469168592892544

>  <r_i_glide_gscore>  (1) 
-7.8993725376204571

>  <r_i_glide_gscore_strain>  (1) 
0

>  <r_i_glide_hbond>  (1) 
-0.11427143808659113

>  <r_i_glide_ligand_efficiency>  (1) 
-0.21349655507082316

>  <r_i_glide_ligand_efficiency_ln>  (1) 
-1.7131887158430028

>  <r_i_glide_ligand_efficiency_sa>  (1) 
-0.71141788605813072

>  <r_i_glide_lipo>  (1) 
-3.4898901207137096

>  <r_i_glide_metal>  (1) 
-0

>  <r_i_glide_rewards>  (1) 
-2.1350579506367056

>  <r_lp_Energy>  (1) 
58.609352999999999

>  <r_lp_tautomer_probability>  (1) 
1

>  <s_epik_Chemistry_Notes>  (1) 
This compound has an imine and may undergo hydrolysis. This compound contains an acetal/aminal-like group ( X-CH(R)-Y where X, Y are N, S, or O) that may be acid/base labile, releasing an aldehyde. This compound has a N-S or N-O group and may undergo hydrolysis at high or low pH.

>  <s_epik_cmdline>  (1) 
J2VwaWtfcHl0aG9uJywgJy1waHQnLCAnMS4wJywgJy1waCcsICc3LjQnLCAnLXRuJywgJzgnLCAnLW1hJywgJzUwMCcsICctaW1hZScsICc8aW5maWxlLm1hZT4nLCAnLW9tYWUnLCAnPG91dGZpbGUubWFlPic=

>  <s_epik_input>  (1) 
TzFbQ0gyXVtDSDJdW0NAQEhdKFtDQEhdMTIpW0NAQEhdKENsKVtDSDJdT04yW0NASF0oQyg9TylbTkgyXSlDKD1PKVtOSF1bQ0BASF0oQyg9TylOM0MjTilbQ0BIXShbQ0gzXSlbQ0gyXVtDQEBIXTNbQ0BASF0oW05IXS9bQ0hdPVtDSF1cNClbQ0BASF0oW0NIM10pW0NIMl1cTj1DLzRcW0NIM10=

>  <s_glide_docking_method>  (1) 
confgen

>  <s_i_glide_gridfile>  (1) 
gpcr_5ht2c_6bqh_protein_autoprepared_prepared

>  <s_lp_Force_Field>  (1) 
S-OPLS

>  <s_lp_Variant>  (1) 
DiffSBDD_32-1

>  <s_m_source_file>  (1) 
generated_GPCR_5HT2C_ligand_DiffSBDD_2026-06-23_prepared.sdf

>  <GenAI_Model>  (1) 
DiffSBDD

>  <Protein>  (1) 
GPCR_5HT2C

$$$$
DiffSBDD_45
     RDKit          3D

  0  0  0  0  0  0  0  0  0  0999 V3000
M  V30 BEGIN CTAB
M  V30 COUNTS 72 76 0 0 1
M  V30 BEGIN ATOM
M  V30 1 C 39.544742 35.179870 61.118391 0
M  V30 2 C 38.793492 28.886542 56.604465 0
M  V30 3 S 37.610368 33.116144 60.754686 0
M  V30 4 C 41.728120 34.035177 64.977255 0
M  V30 5 C 38.188493 27.618857 56.037534 0 CFG=2
M  V30 6 C 38.262248 31.151791 58.889164 0
M  V30 7 S 37.225262 37.496266 61.290943 0
M  V30 8 C 37.724178 29.968786 56.804391 0
M  V30 9 C 39.443805 25.372580 56.725222 0
M  V30 10 C 39.075262 26.421474 55.675971 0 CFG=1
M  V30 11 C 39.420262 28.183396 52.652587 0
M  V30 12 C 38.994543 36.539911 63.189655 0
M  V30 13 C 37.534674 36.507669 62.780373 0 CFG=2
M  V30 14 C 37.087696 35.716604 61.563241 0 CFG=2
M  V30 15 C 37.643148 27.568293 54.590485 0 CFG=1
M  V30 16 O 37.814219 30.228847 59.571772 0
M  V30 17 C 38.209241 28.480587 53.506582 0
M  V30 18 C 38.069647 34.914724 60.729895 0 CFG=1
M  V30 19 C 38.810168 32.202410 56.692482 0
M  V30 20 O 36.258171 32.998967 60.187663 0
M  V30 21 C 36.888917 25.095332 55.100387 0
M  V30 22 O 38.003680 33.353258 56.733836 0
M  V30 23 C 41.308949 35.509758 62.890367 0
M  V30 24 C 41.762186 35.442341 64.367986 0
M  V30 25 C 38.842342 32.395907 59.582766 0
M  V30 26 N 38.274862 31.114222 57.523658 0
M  V30 27 C 38.036417 28.113504 52.055891 0
M  V30 28 C 37.985148 26.070360 54.649288 0 CFG=2
M  V30 29 O 41.827890 33.956716 66.221472 0 CHG=-1
M  V30 30 C 37.434663 23.972866 55.971472 0
M  V30 31 O 41.608784 33.069688 64.188805 0
M  V30 32 C 39.796067 35.343729 62.631568 0 CFG=2
M  V30 33 C 38.248031 24.509243 57.161905 0
M  V30 34 O 37.879624 32.556237 62.087951 0
M  V30 35 H 40.183332 34.392196 60.725132 0
M  V30 36 H 39.878282 36.087929 60.617235 0
M  V30 37 H 39.587254 29.256890 55.954553 0
M  V30 38 H 39.267183 28.660010 57.560519 0
M  V30 39 H 37.419904 27.268116 56.729818 0
M  V30 40 H 36.865728 29.564142 57.343982 0
M  V30 41 H 37.316523 30.289340 55.845146 0
M  V30 42 H 40.209515 24.716769 56.314217 0
M  V30 43 H 39.895856 25.846123 57.597423 0
M  V30 44 H 39.971256 26.788914 55.171672 0
M  V30 45 H 40.044445 29.023140 52.352150 0
M  V30 46 H 39.945033 27.242819 52.790162 0
M  V30 47 H 39.037998 36.538418 64.278350 0
M  V30 48 H 39.437809 37.482814 62.868812 0
M  V30 49 H 36.802304 36.784441 63.536624 0
M  V30 50 H 36.050551 35.393513 61.510985 0
M  V30 51 H 36.562112 27.667504 54.567233 0
M  V30 52 H 38.065727 29.534116 53.736506 0
M  V30 53 H 37.922453 35.212421 59.692323 0
M  V30 54 H 38.874293 31.883964 55.650090 0
M  V30 55 H 39.831158 32.456513 56.966314 0
M  V30 56 H 36.394178 24.659476 54.232298 0
M  V30 57 H 36.131329 25.607406 55.697465 0
M  V30 58 H 37.094570 33.080672 56.623764 0
M  V30 59 H 41.835694 34.741296 62.327849 0
M  V30 60 H 41.645125 36.456219 62.465482 0
M  V30 61 H 42.790957 35.795353 64.440099 0
M  V30 62 H 41.171827 36.116555 64.988947 0
M  V30 63 H 39.700532 32.087621 60.176653 0
M  V30 64 H 39.169671 33.196220 58.929154 0
M  V30 65 H 37.645151 27.126282 51.829008 0
M  V30 66 H 37.743895 28.900136 51.368461 0
M  V30 67 H 38.453300 25.737851 53.730907 0
M  V30 68 H 38.044856 23.338217 55.338367 0
M  V30 69 H 36.614513 23.349997 56.329831 0
M  V30 70 H 39.456705 34.430710 63.119484 0
M  V30 71 H 38.600475 23.675355 57.767487 0
M  V30 72 H 37.594208 25.096661 57.806603 0
M  V30 END ATOM
M  V30 BEGIN BOND
M  V30 1 1 5 2
M  V30 2 1 8 2
M  V30 3 1 10 5
M  V30 4 1 10 9
M  V30 5 1 13 7
M  V30 6 1 13 12
M  V30 7 1 14 7
M  V30 8 1 14 13
M  V30 9 1 15 5
M  V30 10 2 16 6
M  V30 11 1 17 11
M  V30 12 1 17 15
M  V30 13 1 18 1
M  V30 14 1 18 3
M  V30 15 1 18 14
M  V30 16 2 20 3
M  V30 17 1 22 19
M  V30 18 1 24 4
M  V30 19 1 24 23
M  V30 20 1 25 3
M  V30 21 1 25 6
M  V30 22 1 26 6
M  V30 23 1 26 8
M  V30 24 1 26 19
M  V30 25 1 27 11
M  V30 26 1 27 17
M  V30 27 1 28 10
M  V30 28 1 28 15
M  V30 29 1 28 21
M  V30 30 1 29 4
M  V30 31 1 30 21
M  V30 32 2 31 4
M  V30 33 1 32 1
M  V30 34 1 32 12
M  V30 35 1 32 23
M  V30 36 1 33 9
M  V30 37 1 33 30
M  V30 38 2 34 3
M  V30 39 1 35 1
M  V30 40 1 36 1
M  V30 41 1 37 2
M  V30 42 1 38 2
M  V30 43 1 5 39 CFG=1
M  V30 44 1 40 8
M  V30 45 1 41 8
M  V30 46 1 42 9
M  V30 47 1 43 9
M  V30 48 1 10 44 CFG=3
M  V30 49 1 45 11
M  V30 50 1 46 11
M  V30 51 1 47 12
M  V30 52 1 48 12
M  V30 53 1 13 49 CFG=1
M  V30 54 1 14 50 CFG=1
M  V30 55 1 15 51 CFG=1
M  V30 56 1 52 17
M  V30 57 1 18 53 CFG=3
M  V30 58 1 54 19
M  V30 59 1 55 19
M  V30 60 1 56 21
M  V30 61 1 57 21
M  V30 62 1 58 22
M  V30 63 1 59 23
M  V30 64 1 60 23
M  V30 65 1 61 24
M  V30 66 1 62 24
M  V30 67 1 63 25
M  V30 68 1 64 25
M  V30 69 1 65 27
M  V30 70 1 66 27
M  V30 71 1 28 67 CFG=3
M  V30 72 1 68 30
M  V30 73 1 69 30
M  V30 74 1 32 70 CFG=1
M  V30 75 1 71 33
M  V30 76 1 72 33
M  V30 END BOND
M  V30 END CTAB
M  END
>  <i_epik_Tot_Q>  (1) 
-1

>  <i_epik_Tot_abs_Q>  (1) 
1

>  <i_i_glide_confnum>  (1) 
184

>  <i_i_glide_lignum>  (1) 
96

>  <i_i_glide_posenum>  (1) 
232

>  <i_i_glide_rotatable_bonds>  (1) 
13

>  <i_lp_mmshare_version>  (1) 
72125

>  <i_m_source_file_index>  (1) 
46

>  <i_f3d_flags>  (1) 
0

>  <num_sample>  (1) 
50

>  <b_lp_Chiralities_Consistent>  (1) 
1

>  <r_epik_Charging_Adjusted_Penalty>  (1) 
0.0015143551789188845

>  <r_epik_Ionization_Penalty>  (1) 
0.0015222875857222101

>  <r_epik_Ionization_Penalty_Charging>  (1) 
0.0015143551789188845

>  <r_epik_Ionization_Penalty_Neutral>  (1) 
7.9324068033256629e-06

>  <r_epik_State_Penalty>  (1) 
-0

>  <r_glide_ring_energy>  (1) 
0

>  <r_i_docking_score>  (1) 
-7.8754681159959041

>  <r_i_glide_ecoul>  (1) 
-2.185068616671491

>  <r_i_glide_eff_state_penalty>  (1) 
-0

>  <r_i_glide_einternal>  (1) 
8.9044646970141841

>  <r_i_glide_emodel>  (1) 
-67.755166125150879

>  <r_i_glide_emodel_strain>  (1) 
0.83442088192732911

>  <r_i_glide_energy>  (1) 
-48.297208368570807

>  <r_i_glide_erotb>  (1) 
0.85788247599558221

>  <r_i_glide_esite>  (1) 
-0.2102749169864902

>  <r_i_glide_evdw>  (1) 
-46.112139751899313

>  <r_i_glide_gscore>  (1) 
-7.8754681159959041

>  <r_i_glide_gscore_strain>  (1) 
0

>  <r_i_glide_hbond>  (1) 
-0.18936220789101019

>  <r_i_glide_ligand_efficiency>  (1) 
-0.23163141517635011

>  <r_i_glide_ligand_efficiency_ln>  (1) 
-1.7399118062217878

>  <r_i_glide_ligand_efficiency_sa>  (1) 
-0.75039586615190834

>  <r_i_glide_lipo>  (1) 
-4.6543552904526964

>  <r_i_glide_metal>  (1) 
-0

>  <r_i_glide_rewards>  (1) 
-1.0459908965656006

>  <r_lp_Energy>  (1) 
22.191468

>  <r_lp_tautomer_probability>  (1) 
1

>  <s_epik_Chemistry_Notes>  (1) 
This compound contains an acetal/aminal-like group ( X-CH(R)-Y where X, Y are N, S, or O) that may be acid/base labile, releasing an aldehyde.

>  <s_epik_cmdline>  (1) 
J2VwaWtfcHl0aG9uJywgJy1waHQnLCAnMS4wJywgJy1waCcsICc3LjQnLCAnLXRuJywgJzgnLCAnLW1hJywgJzUwMCcsICctaW1hZScsICc8aW5maWxlLm1hZT4nLCAnLW9tYWUnLCAnPG91dGZpbGUubWFlPic=

>  <s_epik_input>  (1) 
W09IXUMoPU8pW0NIMl1bQ0gyXVtDQEBIXShbQ0gyXTEpW0NIMl1bQ0BIXShbQ0BIXShTMilbQ0BASF0xMilTKD1PKSg9TylbQ0gyXUMoPU8pTihbQ0gyXVtPSF0pW0NIMl1bQ0gyXVtDQEhdM1tDQEBIXShbQ0hdNFtDSDJdW0NIMl00KVtDQEBIXShbQ0BASF0zNSlbQ0gyXVtDSDJdW0NIMl1bQ0gyXTU=

>  <s_glide_docking_method>  (1) 
confgen

>  <s_i_glide_gridfile>  (1) 
gpcr_5ht2c_6bqh_protein_autoprepared_prepared

>  <s_lp_Force_Field>  (1) 
S-OPLS

>  <s_lp_Variant>  (1) 
DiffSBDD_45-1

>  <s_m_source_file>  (1) 
generated_GPCR_5HT2C_ligand_DiffSBDD_2026-06-23_prepared.sdf

>  <GenAI_Model>  (1) 
DiffSBDD

>  <Protein>  (1) 
GPCR_5HT2C

$$$$
DiffSBDD_27
     RDKit          3D

  0  0  0  0  0  0  0  0  0  0999 V3000
M  V30 BEGIN CTAB
M  V30 COUNTS 67 69 0 0 1
M  V30 BEGIN ATOM
M  V30 1 C 40.050536 31.611059 63.276281 0
M  V30 2 C 40.106332 30.074425 51.983728 0
M  V30 3 N 39.438758 38.138605 61.767866 0
M  V30 4 C 36.550037 32.169300 59.932810 0
M  V30 5 C 38.266165 25.155586 56.252385 0
M  V30 6 C 39.241931 28.001907 56.402763 0
M  V30 7 N 37.244101 31.431109 58.877308 0 CHG=1
M  V30 8 C 38.753834 28.326834 57.733117 0
M  V30 9 O 37.649461 24.435161 57.068393 0
M  V30 10 C 39.225855 37.004834 61.827249 0
M  V30 11 C 37.632148 28.542652 53.173360 0
M  V30 12 C 38.915115 35.559121 61.854737 0 CFG=1
M  V30 13 C 39.246999 32.720431 62.582956 0 CFG=1
M  V30 14 C 40.210082 26.870348 56.121946 0
M  V30 15 C 39.735838 25.463815 56.571822 0
M  V30 16 C 39.163069 27.590421 58.980148 0
M  V30 17 S 37.646447 29.990358 56.126887 0
M  V30 18 C 37.856798 29.372856 57.723366 0
M  V30 19 C 41.241682 31.338106 62.352808 0
M  V30 20 N 37.795203 35.333764 60.926688 0
M  V30 21 O 37.793308 25.644182 55.201797 0 CHG=-1
M  V30 22 C 38.707140 28.833100 55.426713 0
M  V30 23 C 36.920984 34.195086 61.151344 0
M  V30 24 C 39.628325 30.112439 53.447672 0
M  V30 25 N 37.541069 32.968455 60.652509 0
M  V30 26 O 41.112457 35.338662 60.969732 0
M  V30 27 C 40.183639 34.742948 61.516684 0
M  V30 28 N 40.281181 33.427985 61.845060 0
M  V30 29 C 38.127626 32.118059 61.700113 0
M  V30 30 C 37.112243 29.964114 58.881724 0
M  V30 31 C 38.942937 28.813582 53.933276 0 CFG=2
M  V30 32 C 41.508989 32.667425 61.641179 0
M  V30 33 H 40.421313 31.975726 64.237627 0
M  V30 34 H 39.463302 30.715406 63.477774 0
M  V30 35 H 40.694727 30.962560 51.749847 0
M  V30 36 H 39.274046 30.046752 51.281165 0
M  V30 37 H 40.733753 29.206524 51.779079 0
M  V30 38 H 35.965325 31.522160 60.587555 0
M  V30 39 H 35.838038 32.798313 59.396269 0
M  V30 40 H 36.776432 31.726425 58.016804 0
M  V30 41 H 37.185102 27.598235 53.481803 0
M  V30 42 H 37.780196 28.485918 52.095857 0
M  V30 43 H 36.898342 29.324794 53.364131 0
M  V30 44 H 38.599155 35.373367 62.878918 0
M  V30 45 H 38.839223 33.337043 63.366786 0
M  V30 46 H 40.467468 26.789959 55.071769 0
M  V30 47 H 41.156621 27.087139 56.617604 0
M  V30 48 H 39.874738 25.340383 57.645148 0
M  V30 49 H 40.367150 24.705422 56.112914 0
M  V30 50 H 39.146823 28.219694 59.868186 0
M  V30 51 H 40.184897 27.215642 58.909379 0
M  V30 52 H 38.501265 26.741430 59.156526 0
M  V30 53 H 42.113012 30.961320 62.891176 0
M  V30 54 H 40.957968 30.580972 61.621872 0
M  V30 55 H 38.065961 35.425193 59.956579 0
M  V30 56 H 36.561038 34.107562 62.167685 0
M  V30 57 H 36.032672 34.462194 60.574201 0
M  V30 58 H 40.492870 30.305954 54.083040 0
M  V30 59 H 38.971122 30.970622 53.588537 0
M  V30 60 H 38.542478 31.235614 61.212758 0
M  V30 61 H 37.341061 31.748608 62.358232 0
M  V30 62 H 36.058565 29.694908 58.797192 0
M  V30 63 H 37.453492 29.559768 59.831842 0
M  V30 64 H 39.606216 27.995379 53.667570 0
M  V30 65 H 41.708417 32.487355 60.589839 0
M  V30 66 H 42.363710 33.185855 62.078640 0
M  V30 67 H 38.212704 31.707539 58.840780 0
M  V30 END ATOM
M  V30 BEGIN BOND
M  V30 1 1 7 4
M  V30 2 1 8 6
M  V30 3 2 9 5
M  V30 4 3 10 3
M  V30 5 1 12 10
M  V30 6 1 13 1
M  V30 7 1 14 6
M  V30 8 1 15 5
M  V30 9 1 15 14
M  V30 10 1 16 8
M  V30 11 2 18 8
M  V30 12 1 18 17
M  V30 13 1 19 1
M  V30 14 1 20 12
M  V30 15 1 21 5
M  V30 16 2 22 6
M  V30 17 1 22 17
M  V30 18 1 23 20
M  V30 19 1 24 2
M  V30 20 1 25 4
M  V30 21 1 25 23
M  V30 22 1 27 12
M  V30 23 2 27 26
M  V30 24 1 28 13
M  V30 25 1 28 27
M  V30 26 1 29 13
M  V30 27 1 29 25
M  V30 28 1 30 7
M  V30 29 1 30 18
M  V30 30 1 31 11
M  V30 31 1 31 22
M  V30 32 1 31 24
M  V30 33 1 32 19
M  V30 34 1 32 28
M  V30 35 1 33 1
M  V30 36 1 34 1
M  V30 37 1 35 2
M  V30 38 1 36 2
M  V30 39 1 37 2
M  V30 40 1 38 4
M  V30 41 1 39 4
M  V30 42 1 40 7
M  V30 43 1 41 11
M  V30 44 1 42 11
M  V30 45 1 43 11
M  V30 46 1 12 44 CFG=1
M  V30 47 1 13 45 CFG=1
M  V30 48 1 46 14
M  V30 49 1 47 14
M  V30 50 1 48 15
M  V30 51 1 49 15
M  V30 52 1 50 16
M  V30 53 1 51 16
M  V30 54 1 52 16
M  V30 55 1 53 19
M  V30 56 1 54 19
M  V30 57 1 55 20
M  V30 58 1 56 23
M  V30 59 1 57 23
M  V30 60 1 58 24
M  V30 61 1 59 24
M  V30 62 1 60 29
M  V30 63 1 61 29
M  V30 64 1 62 30
M  V30 65 1 63 30
M  V30 66 1 31 64 CFG=1
M  V30 67 1 65 32
M  V30 68 1 66 32
M  V30 69 1 67 7
M  V30 END BOND
M  V30 END CTAB
M  END
>  <i_epik_Tot_Q>  (1) 
0

>  <i_epik_Tot_abs_Q>  (1) 
2

>  <i_i_glide_confnum>  (1) 
49

>  <i_i_glide_lignum>  (1) 
60

>  <i_i_glide_posenum>  (1) 
3

>  <i_i_glide_rotatable_bonds>  (1) 
9

>  <i_lp_mmshare_version>  (1) 
72125

>  <i_m_source_file_index>  (1) 
28

>  <i_f3d_flags>  (1) 
0

>  <num_sample>  (1) 
50

>  <b_lp_Chiralities_Consistent>  (1) 
1

>  <r_epik_Charging_Adjusted_Penalty>  (1) 
0.0027323958996878029

>  <r_epik_Ionization_Penalty>  (1) 
0.002819485543525381

>  <r_epik_Ionization_Penalty_Charging>  (1) 
0.0027323958996878029

>  <r_epik_Ionization_Penalty_Neutral>  (1) 
8.708964383757816e-05

>  <r_epik_State_Penalty>  (1) 
-0

>  <r_glide_ring_energy>  (1) 
0

>  <r_i_docking_score>  (1) 
-7.8691972213536294

>  <r_i_glide_ecoul>  (1) 
-3.6903437489363471

>  <r_i_glide_eff_state_penalty>  (1) 
-0

>  <r_i_glide_einternal>  (1) 
4.4403659816389593

>  <r_i_glide_emodel>  (1) 
-66.874968651026109

>  <r_i_glide_emodel_strain>  (1) 
3.2818640863457702

>  <r_i_glide_energy>  (1) 
-44.831871940778015

>  <r_i_glide_erotb>  (1) 
0.66148182558323176

>  <r_i_glide_esite>  (1) 
-0.16979578400507314

>  <r_i_glide_evdw>  (1) 
-41.141528191841665

>  <r_i_glide_gscore>  (1) 
-7.8691972213536294

>  <r_i_glide_gscore_strain>  (1) 
0

>  <r_i_glide_hbond>  (1) 
-0.20000000000000001

>  <r_i_glide_ligand_efficiency>  (1) 
-0.24591241316730092

>  <r_i_glide_ligand_efficiency_ln>  (1) 
-1.7621277640758275

>  <r_i_glide_ligand_efficiency_sa>  (1) 
-0.78072324670762405

>  <r_i_glide_lipo>  (1) 
-3.111020989342109

>  <r_i_glide_metal>  (1) 
-0

>  <r_i_glide_rewards>  (1) 
-2.4392343016571436

>  <r_lp_Energy>  (1) 
42.969059000000001

>  <r_lp_tautomer_probability>  (1) 
1

>  <s_epik_Chemistry_Notes>  (1) 
This compound contains an acetal/aminal-like group ( X-CH(R)-Y where X, Y are N, S, or O) that may be acid/base labile, releasing an aldehyde.

>  <s_epik_cmdline>  (1) 
J2VwaWtfcHl0aG9uJywgJy1waHQnLCAnMS4wJywgJy1waCcsICc3LjQnLCAnLXRuJywgJzgnLCAnLW1hJywgJzUwMCcsICctaW1hZScsICc8aW5maWxlLm1hZT4nLCAnLW9tYWUnLCAnPG91dGZpbGUubWFlPic=

>  <s_epik_input>  (1) 
W0NIMl0xW0NIMl1bQ0gyXU4oW0NASF0xMilDKD1PKVtDQEBIXShDI04pW05IXVtDSDJdTihbQ0gyXTIpW0NIMl1bTkhdW0NIMl1jKHNjM1tDQEBIXShbQ0gzXSlbQ0gyXVtDSDNdKWMoW0NIM10pYzNbQ0gyXVtDSDJdQyg9TylbT0hd

>  <s_glide_docking_method>  (1) 
confgen

>  <s_i_glide_gridfile>  (1) 
gpcr_5ht2c_6bqh_protein_autoprepared_prepared

>  <s_lp_Force_Field>  (1) 
S-OPLS

>  <s_lp_Variant>  (1) 
DiffSBDD_27-1

>  <s_m_source_file>  (1) 
generated_GPCR_5HT2C_ligand_DiffSBDD_2026-06-23_prepared.sdf

>  <GenAI_Model>  (1) 
DiffSBDD

>  <Protein>  (1) 
GPCR_5HT2C

$$$$
DiffSBDD_45
     RDKit          3D

  0  0  0  0  0  0  0  0  0  0999 V3000
M  V30 BEGIN CTAB
M  V30 COUNTS 72 76 0 0 1
M  V30 BEGIN ATOM
M  V30 1 C 39.515947 35.546336 61.369298 0
M  V30 2 C 38.712196 28.871091 56.900054 0
M  V30 3 S 37.781208 33.333455 60.978282 0
M  V30 4 C 42.045137 34.181274 64.876932 0
M  V30 5 C 38.119104 27.607369 56.286257 0 CFG=2
M  V30 6 C 38.045137 31.525803 58.843883 0
M  V30 7 S 36.987349 37.599589 61.833537 0
M  V30 8 C 37.672507 30.000238 56.951140 0
M  V30 9 C 39.143028 25.285555 57.161855 0
M  V30 10 C 38.980378 26.349924 56.069960 0 CFG=1
M  V30 11 C 38.058647 28.615193 52.387451 0
M  V30 12 C 38.972671 36.691432 63.561038 0
M  V30 13 C 37.498142 36.550574 63.231037 0 CFG=2
M  V30 14 C 37.050633 35.806285 61.989568 0 CFG=2
M  V30 15 C 37.782953 27.543464 54.771964 0 CFG=1
M  V30 16 O 37.529974 30.732238 59.633722 0
M  V30 17 C 38.615791 28.297041 53.752995 0
M  V30 18 C 38.050110 35.168213 61.041281 0 CFG=1
M  V30 19 C 38.851618 32.168985 56.578422 0
M  V30 20 O 36.330243 33.090043 60.936461 0
M  V30 21 C 36.863905 25.104515 55.168312 0
M  V30 22 O 38.045137 33.266488 56.218936 0
M  V30 23 C 41.344570 35.905507 63.078737 0
M  V30 24 C 41.871374 35.659911 64.509783 0
M  V30 25 C 38.530994 32.901626 59.340921 0
M  V30 26 N 38.200408 31.242917 57.520564 0
M  V30 27 C 38.359095 29.729952 53.367759 0
M  V30 28 C 38.039659 26.038953 54.891743 0 CFG=2
M  V30 29 O 42.182918 33.914157 66.090132 0 CHG=-1
M  V30 30 C 37.290266 23.922859 56.024930 0
M  V30 31 O 42.045013 33.351559 63.939517 0
M  V30 32 C 39.843467 35.614705 62.874632 0 CFG=2
M  V30 33 C 37.891379 24.406159 57.357868 0
M  V30 34 O 38.589104 32.689878 62.024413 0
M  V30 35 H 40.195340 34.862025 60.860678 0
M  V30 36 H 39.725591 36.534971 60.967756 0
M  V30 37 H 39.585104 29.194315 56.332524 0
M  V30 38 H 39.067459 28.660119 57.909136 0
M  V30 39 H 37.245136 27.310683 56.870638 0
M  V30 40 H 36.793637 29.668419 57.507106 0
M  V30 41 H 37.285287 30.212656 55.957822 0
M  V30 42 H 39.977215 24.634305 56.897749 0
M  V30 43 H 39.421430 25.750361 58.108075 0
M  V30 44 H 39.960305 26.661674 55.700591 0
M  V30 45 H 38.722031 28.502806 51.532089 0
M  V30 46 H 37.012944 28.381180 52.197303 0
M  V30 47 H 39.081414 36.619370 64.642963 0
M  V30 48 H 39.311751 37.691629 63.288958 0
M  V30 49 H 36.792983 36.700680 64.046659 0
M  V30 50 H 36.045137 35.393697 61.988257 0
M  V30 51 H 36.728493 27.717098 54.567760 0
M  V30 52 H 39.645137 27.976402 53.742995 0
M  V30 53 H 37.807567 35.527047 60.041721 0
M  V30 54 H 39.109478 31.638492 55.661407 0
M  V30 55 H 39.794723 32.543655 56.967757 0
M  V30 56 H 36.445134 24.744482 54.229318 0
M  V30 57 H 36.076792 25.623267 55.718366 0
M  V30 58 H 37.133894 32.980421 56.167774 0
M  V30 59 H 41.929194 35.313897 62.376935 0
M  V30 60 H 41.551138 36.937756 62.803493 0
M  V30 61 H 42.845163 36.134722 64.611375 0
M  V30 62 H 41.231652 36.137711 65.250821 0
M  V30 63 H 39.614047 32.937169 59.436590 0
M  V30 64 H 38.215988 33.683231 58.654839 0
M  V30 65 H 37.501684 30.243209 53.792109 0
M  V30 66 H 39.226495 30.357264 53.170076 0
M  V30 67 H 38.630534 25.693682 54.047967 0
M  V30 68 H 38.012474 23.345963 55.450702 0
M  V30 69 H 36.440272 23.266834 56.209694 0
M  V30 70 H 39.625391 34.643112 63.315437 0
M  V30 71 H 38.131450 23.548316 57.986255 0
M  V30 72 H 37.136299 24.973846 57.903274 0
M  V30 END ATOM
M  V30 BEGIN BOND
M  V30 1 1 5 2
M  V30 2 1 8 2
M  V30 3 1 10 5
M  V30 4 1 10 9
M  V30 5 1 13 7
M  V30 6 1 13 12
M  V30 7 1 14 7
M  V30 8 1 14 13
M  V30 9 1 15 5
M  V30 10 2 16 6
M  V30 11 1 17 11
M  V30 12 1 17 15
M  V30 13 1 18 1
M  V30 14 1 18 3
M  V30 15 1 18 14
M  V30 16 2 20 3
M  V30 17 1 22 19
M  V30 18 1 24 4
M  V30 19 1 24 23
M  V30 20 1 25 3
M  V30 21 1 25 6
M  V30 22 1 26 6
M  V30 23 1 26 8
M  V30 24 1 26 19
M  V30 25 1 27 11
M  V30 26 1 27 17
M  V30 27 1 28 10
M  V30 28 1 28 15
M  V30 29 1 28 21
M  V30 30 1 29 4
M  V30 31 1 30 21
M  V30 32 2 31 4
M  V30 33 1 32 1
M  V30 34 1 32 12
M  V30 35 1 32 23
M  V30 36 1 33 9
M  V30 37 1 33 30
M  V30 38 2 34 3
M  V30 39 1 35 1
M  V30 40 1 36 1
M  V30 41 1 37 2
M  V30 42 1 38 2
M  V30 43 1 5 39 CFG=1
M  V30 44 1 40 8
M  V30 45 1 41 8
M  V30 46 1 42 9
M  V30 47 1 43 9
M  V30 48 1 10 44 CFG=3
M  V30 49 1 45 11
M  V30 50 1 46 11
M  V30 51 1 47 12
M  V30 52 1 48 12
M  V30 53 1 13 49 CFG=1
M  V30 54 1 14 50 CFG=1
M  V30 55 1 15 51 CFG=1
M  V30 56 1 52 17
M  V30 57 1 18 53 CFG=3
M  V30 58 1 54 19
M  V30 59 1 55 19
M  V30 60 1 56 21
M  V30 61 1 57 21
M  V30 62 1 58 22
M  V30 63 1 59 23
M  V30 64 1 60 23
M  V30 65 1 61 24
M  V30 66 1 62 24
M  V30 67 1 63 25
M  V30 68 1 64 25
M  V30 69 1 65 27
M  V30 70 1 66 27
M  V30 71 1 28 67 CFG=3
M  V30 72 1 68 30
M  V30 73 1 69 30
M  V30 74 1 32 70 CFG=1
M  V30 75 1 71 33
M  V30 76 1 72 33
M  V30 END BOND
M  V30 END CTAB
M  END
>  <i_epik_Tot_Q>  (1) 
-1

>  <i_epik_Tot_abs_Q>  (1) 
1

>  <i_i_glide_confnum>  (1) 
174

>  <i_i_glide_lignum>  (1) 
96

>  <i_i_glide_posenum>  (1) 
288

>  <i_i_glide_rotatable_bonds>  (1) 
13

>  <i_lp_mmshare_version>  (1) 
72125

>  <i_m_source_file_index>  (1) 
46

>  <i_f3d_flags>  (1) 
0

>  <num_sample>  (1) 
50

>  <b_lp_Chiralities_Consistent>  (1) 
1

>  <r_epik_Charging_Adjusted_Penalty>  (1) 
0.0015143551789188845

>  <r_epik_Ionization_Penalty>  (1) 
0.0015222875857222101

>  <r_epik_Ionization_Penalty_Charging>  (1) 
0.0015143551789188845

>  <r_epik_Ionization_Penalty_Neutral>  (1) 
7.9324068033256629e-06

>  <r_epik_State_Penalty>  (1) 
-0

>  <r_glide_ring_energy>  (1) 
0

>  <r_i_docking_score>  (1) 
-7.8531010996204413

>  <r_i_glide_ecoul>  (1) 
-3.0739080418530094

>  <r_i_glide_eff_state_penalty>  (1) 
-0

>  <r_i_glide_einternal>  (1) 
8.7261819804726564

>  <r_i_glide_emodel>  (1) 
-70.342436629830047

>  <r_i_glide_emodel_strain>  (1) 
0.58307211287247185

>  <r_i_glide_energy>  (1) 
-50.614265599439499

>  <r_i_glide_erotb>  (1) 
0.85788247599558221

>  <r_i_glide_esite>  (1) 
-0.20441228910790291

>  <r_i_glide_evdw>  (1) 
-47.540357557586489

>  <r_i_glide_gscore>  (1) 
-7.8531010996204413

>  <r_i_glide_gscore_strain>  (1) 
0

>  <r_i_glide_hbond>  (1) 
-0.21800057745050666

>  <r_i_glide_ligand_efficiency>  (1) 
-0.23097356175354239

>  <r_i_glide_ligand_efficiency_ln>  (1) 
-1.7349703049308891

>  <r_i_glide_ligand_efficiency_sa>  (1) 
-0.7482646764398696

>  <r_i_glide_lipo>  (1) 
-4.3367945673375523

>  <r_i_glide_metal>  (1) 
-0

>  <r_i_glide_rewards>  (1) 
-1.1136720575627872

>  <r_lp_Energy>  (1) 
22.191468

>  <r_lp_tautomer_probability>  (1) 
1

>  <s_epik_Chemistry_Notes>  (1) 
This compound contains an acetal/aminal-like group ( X-CH(R)-Y where X, Y are N, S, or O) that may be acid/base labile, releasing an aldehyde.

>  <s_epik_cmdline>  (1) 
J2VwaWtfcHl0aG9uJywgJy1waHQnLCAnMS4wJywgJy1waCcsICc3LjQnLCAnLXRuJywgJzgnLCAnLW1hJywgJzUwMCcsICctaW1hZScsICc8aW5maWxlLm1hZT4nLCAnLW9tYWUnLCAnPG91dGZpbGUubWFlPic=

>  <s_epik_input>  (1) 
W09IXUMoPU8pW0NIMl1bQ0gyXVtDQEBIXShbQ0gyXTEpW0NIMl1bQ0BIXShbQ0BIXShTMilbQ0BASF0xMilTKD1PKSg9TylbQ0gyXUMoPU8pTihbQ0gyXVtPSF0pW0NIMl1bQ0gyXVtDQEhdM1tDQEBIXShbQ0hdNFtDSDJdW0NIMl00KVtDQEBIXShbQ0BASF0zNSlbQ0gyXVtDSDJdW0NIMl1bQ0gyXTU=

>  <s_glide_docking_method>  (1) 
confgen

>  <s_i_glide_gridfile>  (1) 
gpcr_5ht2c_6bqh_protein_autoprepared_prepared

>  <s_lp_Force_Field>  (1) 
S-OPLS

>  <s_lp_Variant>  (1) 
DiffSBDD_45-1

>  <s_m_source_file>  (1) 
generated_GPCR_5HT2C_ligand_DiffSBDD_2026-06-23_prepared.sdf

>  <GenAI_Model>  (1) 
DiffSBDD

>  <Protein>  (1) 
GPCR_5HT2C

$$$$
DiffSBDD_19
     RDKit          3D

  0  0  0  0  0  0  0  0  0  0999 V3000
M  V30 BEGIN CTAB
M  V30 COUNTS 70 72 0 0 1
M  V30 BEGIN ATOM
M  V30 1 O 38.908717 24.587832 56.948691 0
M  V30 2 C 39.616927 30.016279 53.700472 0
M  V30 3 C 39.479251 32.535928 61.921807 0
M  V30 4 C 39.657068 29.625633 51.292639 0
M  V30 5 C 38.782322 28.879571 53.879083 0
M  V30 6 C 40.059929 30.837555 54.878586 0
M  V30 7 C 36.658775 23.925088 55.246791 0
M  V30 8 C 41.012174 28.731547 58.911901 0
M  V30 9 C 38.634008 32.844775 60.694129 0 CFG=2
M  V30 10 N 37.316561 33.419141 61.025111 0
M  V30 11 F 39.593700 31.228776 49.599990 0
M  V30 12 C 38.391666 28.124260 52.747983 0
M  V30 13 F 41.442904 30.137766 49.858750 0
M  V30 14 C 36.540220 33.821457 59.857878 0
M  V30 15 C 39.751276 28.276569 59.687230 0 CFG=2
M  V30 16 C 37.521299 28.790707 58.432233 0
M  V30 17 C 39.501164 26.240774 55.281048 0
M  V30 18 O 37.421628 25.124051 55.244426 0
M  V30 19 O 39.685458 33.299874 62.858423 0
M  V30 20 C 40.045115 30.381147 52.409015 0
M  V30 21 C 38.754272 24.937701 55.588265 0 CFG=2
M  V30 22 C 38.269822 28.485306 55.283131 0
M  V30 23 N 39.618712 30.608243 60.644755 0
M  V30 24 C 40.114930 30.041809 49.908564 0
M  V30 25 C 38.835568 28.493077 51.460422 0
M  V30 26 C 38.699222 27.818372 58.629888 0 CFG=1
M  V30 27 O 37.140820 34.998520 59.367773 0
M  V30 28 C 40.597959 28.707681 57.441589 0
M  V30 29 C 39.572045 27.596027 57.373154 0 CFG=2
M  V30 30 N 39.946803 31.301088 61.791973 0
M  V30 31 N 38.885404 27.347458 56.055110 0 CFG=2 CHG=1
M  V30 32 C 38.543081 31.436954 60.060701 0
M  V30 33 N 39.245188 29.206316 60.738324 0 CHG=1
M  V30 34 H 38.534089 23.729404 57.079150 0
M  V30 35 H 40.537760 31.737756 54.532914 0
M  V30 36 H 39.263730 31.126665 55.562111 0
M  V30 37 H 40.845111 30.281052 55.367739 0
M  V30 38 H 35.645159 24.137659 54.917258 0
M  V30 39 H 37.078858 23.182257 54.567842 0
M  V30 40 H 36.597051 23.488976 56.244169 0
M  V30 41 H 41.426330 29.697113 59.194323 0
M  V30 42 H 41.812744 28.006806 59.072610 0
M  V30 43 H 39.205945 33.526454 60.062818 0
M  V30 44 H 36.765572 32.796143 61.593603 0
M  V30 45 H 37.748829 27.263365 52.867785 0
M  V30 46 H 35.514521 34.044344 60.153552 0
M  V30 47 H 36.505668 33.044075 59.092437 0
M  V30 48 H 40.044967 27.380218 60.234761 0
M  V30 49 H 37.826589 29.746584 58.014676 0
M  V30 50 H 36.778614 28.359950 57.767688 0
M  V30 51 H 36.993982 28.989948 59.362885 0
M  V30 52 H 39.459923 26.378821 54.206692 0
M  V30 53 H 40.559396 26.117064 55.517546 0
M  V30 54 H 40.675282 31.249338 52.275133 0
M  V30 55 H 39.174770 24.137781 54.984193 0
M  V30 56 H 37.245187 28.167792 55.095878 0
M  V30 57 H 38.141832 29.361015 55.905820 0
M  V30 58 H 39.796059 29.337740 49.140714 0
M  V30 59 H 38.532691 27.913314 50.600507 0
M  V30 60 H 38.281641 26.859223 58.940827 0
M  V30 61 H 36.824073 35.160653 58.487953 0
M  V30 62 H 40.117109 29.658317 57.230401 0
M  V30 63 H 41.439230 28.537762 56.767630 0
M  V30 64 H 40.136358 26.690916 57.603797 0
M  V30 65 H 40.546215 30.866880 62.480144 0
M  V30 66 H 37.570331 30.996976 60.283412 0
M  V30 67 H 38.658025 31.493425 58.978539 0
M  V30 68 H 39.589597 28.897865 61.637525 0
M  V30 69 H 38.236385 29.181375 60.751525 0
M  V30 70 H 38.052753 26.859972 56.361819 0
M  V30 END ATOM
M  V30 BEGIN BOND
M  V30 1 2 5 2
M  V30 2 1 6 2
M  V30 3 1 9 3
M  V30 4 1 10 9
M  V30 5 1 12 5
M  V30 6 1 14 10
M  V30 7 1 15 8
M  V30 8 1 18 7
M  V30 9 2 19 3
M  V30 10 1 20 2
M  V30 11 2 20 4
M  V30 12 1 21 1
M  V30 13 1 21 17
M  V30 14 1 21 18
M  V30 15 1 22 5
M  V30 16 1 24 4
M  V30 17 1 24 11
M  V30 18 1 24 13
M  V30 19 1 25 4
M  V30 20 2 25 12
M  V30 21 1 26 15
M  V30 22 1 26 16
M  V30 23 1 27 14
M  V30 24 1 28 8
M  V30 25 1 29 26
M  V30 26 1 29 28
M  V30 27 1 30 3
M  V30 28 1 30 23
M  V30 29 1 31 17
M  V30 30 1 31 22
M  V30 31 1 31 29
M  V30 32 1 32 9
M  V30 33 1 32 23
M  V30 34 1 33 15
M  V30 35 1 33 23
M  V30 36 1 34 1
M  V30 37 1 35 6
M  V30 38 1 36 6
M  V30 39 1 37 6
M  V30 40 1 38 7
M  V30 41 1 39 7
M  V30 42 1 40 7
M  V30 43 1 41 8
M  V30 44 1 42 8
M  V30 45 1 9 43 CFG=3
M  V30 46 1 44 10
M  V30 47 1 45 12
M  V30 48 1 46 14
M  V30 49 1 47 14
M  V30 50 1 15 48 CFG=1
M  V30 51 1 49 16
M  V30 52 1 50 16
M  V30 53 1 51 16
M  V30 54 1 52 17
M  V30 55 1 53 17
M  V30 56 1 54 20
M  V30 57 1 21 55 CFG=3
M  V30 58 1 56 22
M  V30 59 1 57 22
M  V30 60 1 58 24
M  V30 61 1 59 25
M  V30 62 1 26 60 CFG=1
M  V30 63 1 61 27
M  V30 64 1 62 28
M  V30 65 1 63 28
M  V30 66 1 29 64 CFG=1
M  V30 67 1 65 30
M  V30 68 1 66 32
M  V30 69 1 67 32
M  V30 70 1 68 33
M  V30 71 1 69 33
M  V30 72 1 31 70 CFG=1
M  V30 END BOND
M  V30 END CTAB
M  END
>  <i_epik_Tot_Q>  (1) 
2

>  <i_epik_Tot_abs_Q>  (1) 
2

>  <i_i_glide_confnum>  (1) 
2985

>  <i_i_glide_lignum>  (1) 
44

>  <i_i_glide_posenum>  (1) 
131

>  <i_i_glide_rotatable_bonds>  (1) 
13

>  <i_lp_mmshare_version>  (1) 
72125

>  <i_m_source_file_index>  (1) 
20

>  <i_f3d_flags>  (1) 
0

>  <num_sample>  (1) 
50

>  <b_lp_Chiralities_Consistent>  (1) 
1

>  <r_epik_Charging_Adjusted_Penalty>  (1) 
1.2214648146791087

>  <r_epik_Ionization_Penalty>  (1) 
0.73374573973567592

>  <r_epik_Ionization_Penalty_Charging>  (1) 
0.65422063123481433

>  <r_epik_Ionization_Penalty_Neutral>  (1) 
0.079525108500861627

>  <r_epik_State_Penalty>  (1) 
0.56724418344429428

>  <r_glide_ring_energy>  (1) 
0

>  <r_i_docking_score>  (1) 
-7.8426784000823888

>  <r_i_glide_ecoul>  (1) 
-2.682618764129959

>  <r_i_glide_eff_state_penalty>  (1) 
0.56724418344429428

>  <r_i_glide_einternal>  (1) 
31.307189506728538

>  <r_i_glide_emodel>  (1) 
-58.740322121485711

>  <r_i_glide_emodel_strain>  (1) 
0.99782362340710051

>  <r_i_glide_energy>  (1) 
-49.402489045819777

>  <r_i_glide_erotb>  (1) 
0.81178529684743594

>  <r_i_glide_esite>  (1) 
-0.021331592926743293

>  <r_i_glide_evdw>  (1) 
-46.719870281689815

>  <r_i_glide_gscore>  (1) 
-8.4099225835266829

>  <r_i_glide_gscore_strain>  (1) 
0

>  <r_i_glide_hbond>  (1) 
-0.12185667046199962

>  <r_i_glide_ligand_efficiency>  (1) 
-0.23765692121461784

>  <r_i_glide_ligand_efficiency_ln>  (1) 
-1.7441710689628191

>  <r_i_glide_ligand_efficiency_sa>  (1) 
-0.76229273355700022

>  <r_i_glide_lipo>  (1) 
-4.058824896639794

>  <r_i_glide_metal>  (1) 
-0

>  <r_i_glide_rewards>  (1) 
-2.2813083916415984

>  <r_lp_Energy>  (1) 
44.756732999999997

>  <s_epik_Chemistry_Notes>  (1) 
This compound contains an acetal/aminal-like group ( X-CH(R)-Y where X, Y are N, S, or O) that may be acid/base labile, releasing an aldehyde.

>  <s_epik_cmdline>  (1) 
J2VwaWtfcHl0aG9uJywgJy1waHQnLCAnMS4wJywgJy1waCcsICc3LjQnLCAnLXRuJywgJzgnLCAnLW1hJywgJzUwMCcsICctaW1hZScsICc8aW5maWxlLm1hZT4nLCAnLW9tYWUnLCAnPG91dGZpbGUubWFlPic=

>  <s_epik_input>  (1) 
RltDSF0oRiljKFtjSF0xKVtjSF1bY0hdYyhjMVtDSDNdKVtDSDJdTihbQ0gyXVtDQEBIXShbT0hdKU9bQ0gzXSlbQ0BIXShbQ0BASF0yW0NIM10pW0NIMl1bQ0gyXVtDQEhdMltOSF1OKFtOSF0zKVtDSDJdW0NASF0oQzM9TylbTkhdW0NIMl1bT0hd

>  <s_glide_docking_method>  (1) 
confgen

>  <s_i_glide_gridfile>  (1) 
gpcr_5ht2c_6bqh_protein_autoprepared_prepared

>  <s_lp_Force_Field>  (1) 
S-OPLS

>  <s_lp_Variant>  (1) 
DiffSBDD_19-3

>  <s_m_source_file>  (1) 
generated_GPCR_5HT2C_ligand_DiffSBDD_2026-06-23_prepared.sdf

>  <GenAI_Model>  (1) 
DiffSBDD

>  <Protein>  (1) 
GPCR_5HT2C

$$$$
DiffSBDD_27
     RDKit          3D

  0  0  0  0  0  0  0  0  0  0999 V3000
M  V30 BEGIN CTAB
M  V30 COUNTS 67 69 0 0 1
M  V30 BEGIN ATOM
M  V30 1 C 41.690803 27.742934 57.197879 0
M  V30 2 C 37.092545 37.301989 61.221085 0
M  V30 3 N 36.845143 23.737744 54.967782 0
M  V30 4 C 37.827901 30.357910 55.556026 0
M  V30 5 C 41.523532 31.287730 63.455106 0
M  V30 6 C 38.822236 32.497334 61.206972 0
M  V30 7 N 38.045137 31.193758 56.763827 0 CHG=1
M  V30 8 C 38.620943 31.308640 60.404213 0
M  V30 9 O 41.978612 30.230295 62.967762 0
M  V30 10 C 37.457990 24.712264 55.078664 0
M  V30 11 C 39.790707 35.660182 61.050629 0
M  V30 12 C 38.239321 25.960881 55.250816 0 CFG=1
M  V30 13 C 40.442921 27.641543 56.311180 0 CFG=1
M  V30 14 C 39.472878 32.481262 62.565806 0
M  V30 15 C 41.007534 32.336488 62.473653 0
M  V30 16 C 39.018320 29.930947 60.851353 0
M  V30 17 S 37.708512 33.276628 59.025650 0
M  V30 18 C 38.029704 31.585245 59.185570 0
M  V30 19 C 41.163025 27.819706 58.629741 0
M  V30 20 N 37.538349 27.067863 54.567892 0
M  V30 21 O 41.451750 31.565137 64.671467 0 CHG=-1
M  V30 22 C 38.356004 33.641628 60.587629 0
M  V30 23 C 38.270329 28.307012 54.346050 0
M  V30 24 C 37.321023 35.981176 60.470553 0
M  V30 25 N 38.469602 29.036686 55.604183 0
M  V30 26 O 37.695592 25.672990 57.557950 0
M  V30 27 C 38.480815 26.187937 56.759604 0
M  V30 28 N 39.535173 26.914988 57.200432 0
M  V30 29 C 39.894487 29.051929 55.954243 0
M  V30 30 C 37.680485 30.623045 58.081871 0
M  V30 31 C 38.379944 35.055963 61.116991 0 CFG=2
M  V30 32 C 39.882369 26.974098 58.608738 0
M  V30 33 H 42.281858 26.844129 57.104469 0
M  V30 34 H 42.374515 28.537758 56.930270 0
M  V30 35 H 36.261607 37.854774 60.781504 0
M  V30 36 H 37.968414 37.948453 61.179158 0
M  V30 37 H 36.851908 37.124226 62.269869 0
M  V30 38 H 38.193822 30.915421 54.692457 0
M  V30 39 H 36.753091 30.224973 55.418571 0
M  V30 40 H 39.002397 31.508884 56.795474 0
M  V30 41 H 40.505512 35.058269 61.607794 0
M  V30 42 H 39.827979 36.662459 61.473874 0
M  V30 43 H 40.146368 35.712258 60.028258 0
M  V30 44 H 39.181996 25.769623 54.741488 0
M  V30 45 H 40.703072 27.084099 55.412966 0
M  V30 46 H 39.245142 33.375781 63.140707 0
M  V30 47 H 39.050104 31.662277 63.145976 0
M  V30 48 H 41.502193 33.286096 62.673138 0
M  V30 49 H 41.310580 32.039500 61.468930 0
M  V30 50 H 38.445130 29.152553 60.356330 0
M  V30 51 H 38.845255 29.790131 61.918246 0
M  V30 52 H 40.078024 29.751249 60.681470 0
M  V30 53 H 41.892943 27.483906 59.366821 0
M  V30 54 H 40.925814 28.857821 58.852921 0
M  V30 55 H 36.639395 27.251860 54.990374 0
M  V30 56 H 39.201911 28.097582 53.816783 0
M  V30 57 H 37.672360 28.892980 53.645356 0
M  V30 58 H 36.365647 35.456267 60.446855 0
M  V30 59 H 37.577380 36.192148 59.431430 0
M  V30 60 H 40.045197 29.687587 56.824320 0
M  V30 61 H 40.475907 29.509775 55.153811 0
M  V30 62 H 38.208689 29.681339 58.217759 0
M  V30 63 H 36.617263 30.386479 58.120343 0
M  V30 64 H 38.104786 35.004669 62.167743 0
M  V30 65 H 39.082410 27.411076 59.201778 0
M  V30 66 H 40.045131 25.958873 58.967751 0
M  V30 67 H 37.435062 31.997852 56.654115 0
M  V30 END ATOM
M  V30 BEGIN BOND
M  V30 1 1 7 4
M  V30 2 1 8 6
M  V30 3 2 9 5
M  V30 4 3 10 3
M  V30 5 1 12 10
M  V30 6 1 13 1
M  V30 7 1 14 6
M  V30 8 1 15 5
M  V30 9 1 15 14
M  V30 10 1 16 8
M  V30 11 2 18 8
M  V30 12 1 18 17
M  V30 13 1 19 1
M  V30 14 1 20 12
M  V30 15 1 21 5
M  V30 16 2 22 6
M  V30 17 1 22 17
M  V30 18 1 23 20
M  V30 19 1 24 2
M  V30 20 1 25 4
M  V30 21 1 25 23
M  V30 22 1 27 12
M  V30 23 2 27 26
M  V30 24 1 28 13
M  V30 25 1 28 27
M  V30 26 1 29 13
M  V30 27 1 29 25
M  V30 28 1 30 7
M  V30 29 1 30 18
M  V30 30 1 31 11
M  V30 31 1 31 22
M  V30 32 1 31 24
M  V30 33 1 32 19
M  V30 34 1 32 28
M  V30 35 1 33 1
M  V30 36 1 34 1
M  V30 37 1 35 2
M  V30 38 1 36 2
M  V30 39 1 37 2
M  V30 40 1 38 4
M  V30 41 1 39 4
M  V30 42 1 40 7
M  V30 43 1 41 11
M  V30 44 1 42 11
M  V30 45 1 43 11
M  V30 46 1 12 44 CFG=3
M  V30 47 1 13 45 CFG=3
M  V30 48 1 46 14
M  V30 49 1 47 14
M  V30 50 1 48 15
M  V30 51 1 49 15
M  V30 52 1 50 16
M  V30 53 1 51 16
M  V30 54 1 52 16
M  V30 55 1 53 19
M  V30 56 1 54 19
M  V30 57 1 55 20
M  V30 58 1 56 23
M  V30 59 1 57 23
M  V30 60 1 58 24
M  V30 61 1 59 24
M  V30 62 1 60 29
M  V30 63 1 61 29
M  V30 64 1 62 30
M  V30 65 1 63 30
M  V30 66 1 31 64 CFG=1
M  V30 67 1 65 32
M  V30 68 1 66 32
M  V30 69 1 67 7
M  V30 END BOND
M  V30 END CTAB
M  END
>  <i_epik_Tot_Q>  (1) 
0

>  <i_epik_Tot_abs_Q>  (1) 
2

>  <i_i_glide_confnum>  (1) 
399

>  <i_i_glide_lignum>  (1) 
60

>  <i_i_glide_posenum>  (1) 
376

>  <i_i_glide_rotatable_bonds>  (1) 
9

>  <i_lp_mmshare_version>  (1) 
72125

>  <i_m_source_file_index>  (1) 
28

>  <i_f3d_flags>  (1) 
0

>  <num_sample>  (1) 
50

>  <b_lp_Chiralities_Consistent>  (1) 
1

>  <r_epik_Charging_Adjusted_Penalty>  (1) 
0.0027323958996878029

>  <r_epik_Ionization_Penalty>  (1) 
0.002819485543525381

>  <r_epik_Ionization_Penalty_Charging>  (1) 
0.0027323958996878029

>  <r_epik_Ionization_Penalty_Neutral>  (1) 
8.708964383757816e-05

>  <r_epik_State_Penalty>  (1) 
-0

>  <r_glide_ring_energy>  (1) 
0

>  <r_i_docking_score>  (1) 
-7.8216645157634934

>  <r_i_glide_ecoul>  (1) 
-3.6743561291926428

>  <r_i_glide_eff_state_penalty>  (1) 
-0

>  <r_i_glide_einternal>  (1) 
12.604202635121684

>  <r_i_glide_emodel>  (1) 
-67.105469386642241

>  <r_i_glide_emodel_strain>  (1) 
2.0195324265393282

>  <r_i_glide_energy>  (1) 
-48.048341653144881

>  <r_i_glide_erotb>  (1) 
0.66148182558323176

>  <r_i_glide_esite>  (1) 
-0.1658954026507562

>  <r_i_glide_evdw>  (1) 
-44.373985523952236

>  <r_i_glide_gscore>  (1) 
-7.8216645157634934

>  <r_i_glide_gscore_strain>  (1) 
0

>  <r_i_glide_hbond>  (1) 
-0.19466959379810855

>  <r_i_glide_ligand_efficiency>  (1) 
-0.24442701611760917

>  <r_i_glide_ligand_efficiency_ln>  (1) 
-1.7514838956015775

>  <r_i_glide_ligand_efficiency_sa>  (1) 
-0.77600740502908183

>  <r_i_glide_lipo>  (1) 
-2.8518918728060219

>  <r_i_glide_metal>  (1) 
-0

>  <r_i_glide_rewards>  (1) 
-2.5008367765153308

>  <r_lp_Energy>  (1) 
42.969059000000001

>  <r_lp_tautomer_probability>  (1) 
1

>  <s_epik_Chemistry_Notes>  (1) 
This compound contains an acetal/aminal-like group ( X-CH(R)-Y where X, Y are N, S, or O) that may be acid/base labile, releasing an aldehyde.

>  <s_epik_cmdline>  (1) 
J2VwaWtfcHl0aG9uJywgJy1waHQnLCAnMS4wJywgJy1waCcsICc3LjQnLCAnLXRuJywgJzgnLCAnLW1hJywgJzUwMCcsICctaW1hZScsICc8aW5maWxlLm1hZT4nLCAnLW9tYWUnLCAnPG91dGZpbGUubWFlPic=

>  <s_epik_input>  (1) 
W0NIMl0xW0NIMl1bQ0gyXU4oW0NASF0xMilDKD1PKVtDQEBIXShDI04pW05IXVtDSDJdTihbQ0gyXTIpW0NIMl1bTkhdW0NIMl1jKHNjM1tDQEBIXShbQ0gzXSlbQ0gyXVtDSDNdKWMoW0NIM10pYzNbQ0gyXVtDSDJdQyg9TylbT0hd

>  <s_glide_docking_method>  (1) 
confgen

>  <s_i_glide_gridfile>  (1) 
gpcr_5ht2c_6bqh_protein_autoprepared_prepared

>  <s_lp_Force_Field>  (1) 
S-OPLS

>  <s_lp_Variant>  (1) 
DiffSBDD_27-1

>  <s_m_source_file>  (1) 
generated_GPCR_5HT2C_ligand_DiffSBDD_2026-06-23_prepared.sdf

>  <GenAI_Model>  (1) 
DiffSBDD

>  <Protein>  (1) 
GPCR_5HT2C

$$$$
DiffSBDD_41
     RDKit          3D

  0  0  0  0  0  0  0  0  0  0999 V3000
M  V30 BEGIN CTAB
M  V30 COUNTS 71 75 0 0 1
M  V30 BEGIN ATOM
M  V30 1 C 37.897928 25.358514 56.333596 0
M  V30 2 O 38.280008 31.128945 59.465502 0
M  V30 3 C 37.719287 29.888910 59.068912 0 CFG=1
M  V30 4 C 39.279073 31.773356 56.932628 0
M  V30 5 C 39.322367 24.938430 55.945220 0
M  V30 6 C 37.871968 28.127726 54.886156 0
M  V30 7 C 40.468602 29.419084 50.500281 0
M  V30 8 C 40.045035 28.137770 50.878379 0
M  V30 9 C 38.970860 33.577740 60.686310 0
M  V30 10 C 39.113011 31.268657 53.550812 0
M  V30 11 C 36.244385 29.970552 59.489134 0
M  V30 12 C 40.200250 33.979350 62.494862 0
M  V30 13 N 39.493609 34.493296 61.478984 0
M  V30 14 C 37.778073 29.667929 57.528135 0 CFG=1
M  V30 15 C 38.613901 27.807825 56.248696 0
M  V30 16 C 39.384900 32.308153 61.217564 0
M  V30 17 O 38.255758 36.428293 62.123440 0
M  V30 18 O 38.273202 33.799158 59.694687 0
M  V30 19 C 40.062348 27.357460 55.998623 0
M  V30 20 C 40.138651 26.031805 55.251059 0
M  V30 21 N 37.967267 31.114581 56.876224 0 CFG=2 CHG=1
M  V30 22 O 40.775256 34.641695 63.358491 0
M  V30 23 O 38.863287 28.911037 57.128677 0
M  V30 24 C 39.392281 27.955426 52.098701 0
M  V30 25 C 37.471442 31.086116 55.508103 0
M  V30 26 C 39.287561 35.932870 61.291899 0
M  V30 27 C 39.137525 29.065945 52.917472 0
M  V30 28 C 39.030823 31.153681 60.611870 0
M  V30 29 C 40.255867 30.517028 51.345241 0
M  V30 30 C 41.650107 31.850072 62.366115 0
M  V30 31 N 38.458487 29.198566 54.123689 0
M  V30 32 C 40.230115 32.419912 62.487832 0 CFG=1
M  V30 33 C 37.897931 26.702706 57.068824 0
M  V30 34 C 38.354241 30.563878 54.424477 0
M  V30 35 C 39.565232 30.368739 52.567520 0
M  V30 36 H 37.447293 24.590098 56.963608 0
M  V30 37 H 37.270836 25.415360 55.443536 0
M  V30 38 H 38.183259 29.026042 59.549798 0
M  V30 39 H 40.045115 31.023471 56.797425 0
M  V30 40 H 39.391890 32.520728 56.146907 0
M  V30 41 H 39.422750 32.324558 57.852997 0
M  V30 42 H 39.856534 24.569808 56.822934 0
M  V30 43 H 39.240893 24.137808 55.228468 0
M  V30 44 H 37.833250 27.239676 54.258620 0
M  V30 45 H 36.845133 28.406738 54.967733 0
M  V30 46 H 40.965173 29.564998 49.552941 0
M  V30 47 H 40.216388 27.294576 50.223541 0
M  V30 48 H 39.244527 32.324843 53.539033 0
M  V30 49 H 35.697703 29.059312 59.249040 0
M  V30 50 H 36.159631 30.140640 60.561466 0
M  V30 51 H 35.735791 30.795597 58.990387 0
M  V30 52 H 36.845086 29.235550 57.182760 0
M  V30 53 H 38.648532 36.921668 62.828326 0
M  V30 54 H 40.606417 28.127457 55.456563 0
M  V30 55 H 40.584480 27.238509 56.949585 0
M  V30 56 H 41.182452 25.737733 55.179102 0
M  V30 57 H 39.796512 26.144355 54.228193 0
M  V30 58 H 39.050391 26.973032 52.385796 0
M  V30 59 H 37.245139 32.124789 55.260706 0
M  V30 60 H 36.507561 30.576770 55.448176 0
M  V30 61 H 39.015268 36.137840 60.256223 0
M  V30 62 H 40.210108 36.486323 61.476001 0
M  V30 63 H 39.308418 30.168504 60.957407 0
M  V30 64 H 40.580978 31.496616 51.034617 0
M  V30 65 H 42.190053 32.290829 61.526416 0
M  V30 66 H 42.224049 32.053851 63.271384 0
M  V30 67 H 41.622903 30.769537 62.228670 0
M  V30 68 H 39.690109 32.017240 63.344012 0
M  V30 69 H 38.414456 26.571995 58.021924 0
M  V30 70 H 36.873643 26.970344 57.327145 0
M  V30 71 H 37.306882 31.734368 57.336889 0
M  V30 END ATOM
M  V30 BEGIN BOND
M  V30 1 1 3 2
M  V30 2 1 5 1
M  V30 3 2 8 7
M  V30 4 1 11 3
M  V30 5 1 13 9
M  V30 6 1 13 12
M  V30 7 1 14 3
M  V30 8 1 15 6
M  V30 9 1 16 9
M  V30 10 2 18 9
M  V30 11 1 19 15
M  V30 12 1 20 5
M  V30 13 1 20 19
M  V30 14 1 21 4
M  V30 15 1 21 14
M  V30 16 2 22 12
M  V30 17 1 23 14
M  V30 18 1 23 15
M  V30 19 1 24 8
M  V30 20 1 25 21
M  V30 21 1 26 13
M  V30 22 1 26 17
M  V30 23 2 27 24
M  V30 24 1 28 2
M  V30 25 2 28 16
M  V30 26 1 29 7
M  V30 27 1 31 6
M  V30 28 1 31 27
M  V30 29 1 32 12
M  V30 30 1 32 16
M  V30 31 1 32 30
M  V30 32 1 33 1
M  V30 33 1 33 15
M  V30 34 2 34 10
M  V30 35 1 34 25
M  V30 36 1 34 31
M  V30 37 1 35 10
M  V30 38 1 35 27
M  V30 39 2 35 29
M  V30 40 1 36 1
M  V30 41 1 37 1
M  V30 42 1 3 38 CFG=1
M  V30 43 1 39 4
M  V30 44 1 40 4
M  V30 45 1 41 4
M  V30 46 1 42 5
M  V30 47 1 43 5
M  V30 48 1 44 6
M  V30 49 1 45 6
M  V30 50 1 46 7
M  V30 51 1 47 8
M  V30 52 1 48 10
M  V30 53 1 49 11
M  V30 54 1 50 11
M  V30 55 1 51 11
M  V30 56 1 14 52 CFG=3
M  V30 57 1 53 17
M  V30 58 1 54 19
M  V30 59 1 55 19
M  V30 60 1 56 20
M  V30 61 1 57 20
M  V30 62 1 58 24
M  V30 63 1 59 25
M  V30 64 1 60 25
M  V30 65 1 61 26
M  V30 66 1 62 26
M  V30 67 1 63 28
M  V30 68 1 64 29
M  V30 69 1 65 30
M  V30 70 1 66 30
M  V30 71 1 67 30
M  V30 72 1 32 68 CFG=1
M  V30 73 1 69 33
M  V30 74 1 70 33
M  V30 75 1 21 71 CFG=1
M  V30 END BOND
M  V30 END CTAB
M  END
>  <i_epik_Tot_Q>  (1) 
1

>  <i_epik_Tot_abs_Q>  (1) 
1

>  <i_i_glide_confnum>  (1) 
24

>  <i_i_glide_lignum>  (1) 
92

>  <i_i_glide_posenum>  (1) 
150

>  <i_i_glide_rotatable_bonds>  (1) 
5

>  <i_lp_mmshare_version>  (1) 
72125

>  <i_m_source_file_index>  (1) 
42

>  <i_f3d_flags>  (1) 
0

>  <num_sample>  (1) 
50

>  <b_lp_Chiralities_Consistent>  (1) 
1

>  <r_epik_Charging_Adjusted_Penalty>  (1) 
1.62722492853585

>  <r_epik_Ionization_Penalty>  (1) 
0.81369786534067623

>  <r_epik_Ionization_Penalty_Charging>  (1) 
0.81361246426792511

>  <r_epik_Ionization_Penalty_Neutral>  (1) 
8.5401072751167088e-05

>  <r_epik_State_Penalty>  (1) 
0.813612464267925

>  <r_glide_ring_energy>  (1) 
1.1849222099610348

>  <r_i_docking_score>  (1) 
-7.8139754138604278

>  <r_i_glide_ecoul>  (1) 
-2.7446292335421054

>  <r_i_glide_eff_state_penalty>  (1) 
0.813612464267925

>  <r_i_glide_einternal>  (1) 
8.4961268630578299

>  <r_i_glide_emodel>  (1) 
-45.919096462545482

>  <r_i_glide_emodel_strain>  (1) 
0.89285769591069908

>  <r_i_glide_energy>  (1) 
-39.3943042107949

>  <r_i_glide_erotb>  (1) 
0.34854586591334119

>  <r_i_glide_esite>  (1) 
-0.15347273259827032

>  <r_i_glide_evdw>  (1) 
-36.649674977252793

>  <r_i_glide_gscore>  (1) 
-8.6275878781283524

>  <r_i_glide_gscore_strain>  (1) 
0

>  <r_i_glide_hbond>  (1) 
-0.098402375461573405

>  <r_i_glide_ligand_efficiency>  (1) 
-0.22325644039601222

>  <r_i_glide_ligand_efficiency_ln>  (1) 
-1.7153410251829531

>  <r_i_glide_ligand_efficiency_sa>  (1) 
-0.73028662071202266

>  <r_i_glide_lipo>  (1) 
-4.3240432229754555

>  <r_i_glide_metal>  (1) 
-0

>  <r_i_glide_rewards>  (1) 
-2.1560372791124403

>  <r_lp_Energy>  (1) 
38.539870000000001

>  <s_epik_Chemistry_Notes>  (1) 
This compound contains an acetal/aminal-like group ( X-CH(R)-Y where X, Y are N, S, or O) that may be acid/base labile, releasing an aldehyde.

>  <s_epik_cmdline>  (1) 
J2VwaWtfcHl0aG9uJywgJy1waHQnLCAnMS4wJywgJy1waCcsICc3LjQnLCAnLXRuJywgJzgnLCAnLW1hJywgJzUwMCcsICctaW1hZScsICc8aW5maWxlLm1hZT4nLCAnLW9tYWUnLCAnPG91dGZpbGUubWFlPic=

>  <s_epik_input>  (1) 
W0NIMl0xW0NIMl1bQ0gyXVtDSDJdW0NIMl1DMTJbQ0gyXW4zYzRjKFtjSF1bY0hdW2NIXVtjSF00KVtjSF1jM1tDSDJdTihbQ0gzXSlbQ0BASF0oTzIpW0NASF0oW0NIM10pTy9bQ0hdPUNcNVtDQEBIXShbQ0gzXSlDKD1PKU4oQzU9TylbQ0gyXVtPSF0=

>  <s_glide_docking_method>  (1) 
confgen

>  <s_i_glide_gridfile>  (1) 
gpcr_5ht2c_6bqh_protein_autoprepared_prepared

>  <s_lp_Force_Field>  (1) 
S-OPLS

>  <s_lp_Variant>  (1) 
DiffSBDD_41-6

>  <s_m_source_file>  (1) 
generated_GPCR_5HT2C_ligand_DiffSBDD_2026-06-23_prepared.sdf

>  <GenAI_Model>  (1) 
DiffSBDD

>  <Protein>  (1) 
GPCR_5HT2C

$$$$
DiffSBDD_28
     RDKit          3D

  0  0  0  0  0  0  0  0  0  0999 V3000
M  V30 BEGIN CTAB
M  V30 COUNTS 45 48 0 0 1
M  V30 BEGIN ATOM
M  V30 1 O 38.045455 28.602874 59.473486 0
M  V30 2 C 38.649615 33.928658 61.640246 0
M  V30 3 C 39.559712 26.481811 57.867289 0
M  V30 4 C 38.045852 35.031704 61.004249 0
M  V30 5 C 37.026219 30.994983 59.759388 0
M  V30 6 F 38.043601 37.359412 60.562466 0
M  V30 7 C 38.253338 28.665662 58.072198 0 CFG=1
M  V30 8 C 38.367143 36.444121 61.472264 0
M  V30 9 C 36.811334 33.511508 59.542836 0
M  V30 10 C 38.950943 31.434196 61.982514 0 CFG=2
M  V30 11 O 41.227684 30.689727 61.992560 0
M  V30 12 P 38.578454 30.172163 59.109521 0 CFG=2 CHG=1
M  V30 13 C 37.968814 25.587270 56.116542 0
M  V30 14 F 38.045289 30.537748 62.314857 0
M  V30 15 C 38.329182 32.614237 61.242530 0
M  V30 16 C 40.168098 30.722891 61.371700 0
M  V30 17 N 40.031722 30.137799 60.167768 0
M  V30 18 C 37.401645 32.403745 60.188770 0
M  V30 19 C 38.346720 25.698134 57.400440 0
M  V30 20 C 39.512835 27.989778 57.536521 0 CFG=2
M  V30 21 C 39.776579 28.308908 56.049985 0
M  V30 22 C 37.130219 34.821514 59.950598 0
M  V30 23 F 37.665697 36.694714 62.575735 0
M  V30 24 F 39.663510 36.559842 61.762758 0
M  V30 25 C 38.745264 27.764329 55.043148 0
M  V30 26 C 38.700272 26.230190 54.955619 0
M  V30 27 H 39.344751 34.091901 62.450916 0
M  V30 28 H 39.638960 26.347655 58.946683 0
M  V30 29 H 40.454784 26.026586 57.442600 0
M  V30 30 H 36.277254 31.039029 58.969806 0
M  V30 31 H 36.548393 30.446094 60.567955 0
M  V30 32 H 37.342574 28.575039 57.484707 0
M  V30 33 H 36.103056 33.355114 58.739265 0
M  V30 34 H 39.278379 31.810541 62.953526 0
M  V30 35 H 37.090345 25.008586 55.870299 0
M  V30 36 H 40.832844 29.653768 59.793182 0
M  V30 37 H 37.766681 25.205947 58.168267 0
M  V30 38 H 40.362650 28.417229 58.069812 0
M  V30 39 H 39.835913 29.391333 55.929645 0
M  V30 40 H 40.763904 27.936292 55.773634 0
M  V30 41 H 36.665212 35.665296 59.460240 0
M  V30 42 H 37.749979 28.162470 55.242959 0
M  V30 43 H 39.017143 28.146375 54.058234 0
M  V30 44 H 39.705429 25.812561 54.873808 0
M  V30 45 H 38.173687 25.943026 54.044738 0
M  V30 END ATOM
M  V30 BEGIN BOND
M  V30 1 2 4 2
M  V30 2 1 7 1
M  V30 3 1 8 4
M  V30 4 1 8 6
M  V30 5 1 12 1 CFG=1
M  V30 6 1 12 5
M  V30 7 1 12 7
M  V30 8 1 14 10
M  V30 9 1 15 2
M  V30 10 1 15 10
M  V30 11 1 16 10
M  V30 12 2 16 11
M  V30 13 1 17 12
M  V30 14 1 17 16
M  V30 15 1 18 5
M  V30 16 1 18 9
M  V30 17 2 18 15
M  V30 18 1 19 3
M  V30 19 2 19 13
M  V30 20 1 20 3
M  V30 21 1 20 7
M  V30 22 1 21 20
M  V30 23 1 22 4
M  V30 24 2 22 9
M  V30 25 1 23 8
M  V30 26 1 24 8
M  V30 27 1 25 21
M  V30 28 1 26 13
M  V30 29 1 26 25
M  V30 30 1 27 2
M  V30 31 1 28 3
M  V30 32 1 29 3
M  V30 33 1 30 5
M  V30 34 1 31 5
M  V30 35 1 7 32 CFG=3
M  V30 36 1 33 9
M  V30 37 1 10 34 CFG=1
M  V30 38 1 35 13
M  V30 39 1 36 17
M  V30 40 1 37 19
M  V30 41 1 20 38 CFG=1
M  V30 42 1 39 21
M  V30 43 1 40 21
M  V30 44 1 41 22
M  V30 45 1 42 25
M  V30 46 1 43 25
M  V30 47 1 44 26
M  V30 48 1 45 26
M  V30 END BOND
M  V30 END CTAB
M  END
>  <i_epik_Tot_Q>  (1) 
1

>  <i_epik_Tot_abs_Q>  (1) 
1

>  <i_i_glide_confnum>  (1) 
4

>  <i_i_glide_lignum>  (1) 
62

>  <i_i_glide_posenum>  (1) 
183

>  <i_i_glide_rotatable_bonds>  (1) 
2

>  <i_lp_mmshare_version>  (1) 
72125

>  <i_m_source_file_index>  (1) 
29

>  <i_f3d_flags>  (1) 
0

>  <num_sample>  (1) 
50

>  <b_lp_Chiralities_Consistent>  (1) 
1

>  <r_epik_Charging_Adjusted_Penalty>  (1) 
0

>  <r_epik_Ionization_Penalty>  (1) 
1.069405246037928e-05

>  <r_epik_Ionization_Penalty_Charging>  (1) 
0

>  <r_epik_Ionization_Penalty_Neutral>  (1) 
1.069405246037928e-05

>  <r_epik_State_Penalty>  (1) 
-0

>  <r_glide_ring_energy>  (1) 
2.0538870019728419

>  <r_i_docking_score>  (1) 
-7.8046397906143214

>  <r_i_glide_ecoul>  (1) 
-4.1071375567419484

>  <r_i_glide_eff_state_penalty>  (1) 
-0

>  <r_i_glide_einternal>  (1) 
0.021377038766819512

>  <r_i_glide_emodel>  (1) 
-57.209066270365767

>  <r_i_glide_emodel_strain>  (1) 
0

>  <r_i_glide_energy>  (1) 
-36.451019457793699

>  <r_i_glide_erotb>  (1) 
0.12919976224793953

>  <r_i_glide_esite>  (1) 
-0.0069499393114545093

>  <r_i_glide_evdw>  (1) 
-32.343881901051752

>  <r_i_glide_gscore>  (1) 
-7.8046397906143214

>  <r_i_glide_gscore_strain>  (1) 
0

>  <r_i_glide_hbond>  (1) 
-0.32000000000000001

>  <r_i_glide_ligand_efficiency>  (1) 
-0.3001784534851662

>  <r_i_glide_ligand_efficiency_ln>  (1) 
-1.8328940457138474

>  <r_i_glide_ligand_efficiency_sa>  (1) 
-0.88927748827040987

>  <r_i_glide_lipo>  (1) 
-2.8939073141859764

>  <r_i_glide_metal>  (1) 
-0

>  <r_i_glide_rewards>  (1) 
-2.4797175708009496

>  <r_lp_Energy>  (1) 
27.226237999999999

>  <r_lp_tautomer_probability>  (1) 
1

>  <s_epik_cmdline>  (1) 
J2VwaWtfcHl0aG9uJywgJy1waHQnLCAnMS4wJywgJy1waCcsICc3LjQnLCAnLXRuJywgJzgnLCAnLW1hJywgJzUwMCcsICctaW1hZScsICc8aW5maWxlLm1hZT4nLCAnLW9tYWUnLCAnPG91dGZpbGUubWFlPic=

>  <s_epik_input>  (1) 
W0NIMl0xW0NIMl1bQ0gyXVtDSF09W0NIXVtDSDJdW0NAQEhdMVtDQEhdMk9bUEArXTIzW0NIMl1jNGMoW0NAQEhdKEYpQyg9TylbTkhdMylbY0hdYyhDKEYpKEYpRilbY0hdW2NIXTQ=

>  <s_glide_docking_method>  (1) 
confgen

>  <s_i_glide_gridfile>  (1) 
gpcr_5ht2c_6bqh_protein_autoprepared_prepared

>  <s_lp_Force_Field>  (1) 
S-OPLS

>  <s_lp_Variant>  (1) 
DiffSBDD_28-1

>  <s_m_source_file>  (1) 
generated_GPCR_5HT2C_ligand_DiffSBDD_2026-06-23_prepared.sdf

>  <GenAI_Model>  (1) 
DiffSBDD

>  <Protein>  (1) 
GPCR_5HT2C

$$$$
DiffSBDD_19
     RDKit          3D

  0  0  0  0  0  0  0  0  0  0999 V3000
M  V30 BEGIN CTAB
M  V30 COUNTS 69 71 0 0 1
M  V30 BEGIN ATOM
M  V30 1 O 39.686530 26.563444 56.306874 0
M  V30 2 C 38.297882 28.437745 53.571975 0
M  V30 3 C 40.916505 33.758624 62.589814 0
M  V30 4 C 39.633080 29.737744 51.984398 0
M  V30 5 C 38.548264 29.415038 54.581143 0
M  V30 6 C 37.434870 27.224048 53.862677 0
M  V30 7 C 42.393259 27.401687 58.510139 0
M  V30 8 C 38.897282 30.106579 60.856658 0
M  V30 9 C 40.821252 34.879530 61.562098 0 CFG=2
M  V30 10 N 40.651336 36.244720 62.082030 0
M  V30 11 F 39.634688 30.968430 49.994825 0
M  V30 12 C 39.325969 30.551629 54.266120 0
M  V30 13 F 41.526278 30.135324 50.637478 0
M  V30 14 C 39.817144 36.361965 63.265102 0
M  V30 15 C 37.858777 31.140885 60.380657 0 CFG=2
M  V30 16 C 38.200365 32.211599 58.024178 0
M  V30 17 C 40.275669 28.823750 56.915668 0
M  V30 18 O 41.632353 26.937767 57.404627 0
M  V30 19 O 41.639390 33.763042 63.583243 0
M  V30 20 C 38.847681 28.604585 52.280134 0
M  V30 21 C 40.306620 27.329241 57.302933 0 CFG=2
M  V30 22 C 37.985717 29.247008 56.010148 0
M  V30 23 N 39.408333 32.975008 61.015009 0
M  V30 24 C 40.210767 29.926168 50.591280 0
M  V30 25 C 39.863072 30.708380 52.974562 0
M  V30 26 C 37.729446 30.979962 58.828646 0 CFG=1
M  V30 27 O 39.645138 37.737748 63.416054 0
M  V30 28 C 39.518146 29.533603 59.605478 0
M  V30 29 C 38.458981 29.648882 58.483629 0 CFG=2
M  V30 30 N 40.079692 32.806945 62.211352 0
M  V30 31 N 38.988852 29.560923 57.074668 0 CFG=1 CHG=1
M  V30 32 C 39.609906 34.402418 60.720333 0
M  V30 33 N 38.059136 32.509031 60.915240 0
M  V30 34 H 39.909219 25.658100 56.466513 0
M  V30 35 H 37.311909 26.613333 52.967861 0
M  V30 36 H 37.852069 26.580711 54.630896 0
M  V30 37 H 36.445141 27.553978 54.167732 0
M  V30 38 H 43.285027 26.783511 58.611051 0
M  V30 39 H 42.731906 28.428019 58.371654 0
M  V30 40 H 41.837174 27.339398 59.440924 0
M  V30 41 H 39.674982 30.475142 61.515914 0
M  V30 42 H 38.445136 29.322638 61.438465 0
M  V30 43 H 41.730921 34.866516 60.967745 0
M  V30 44 H 41.544393 36.666635 62.293622 0
M  V30 45 H 39.514457 31.304063 55.017337 0
M  V30 46 H 40.290821 35.958997 64.161959 0
M  V30 47 H 38.845188 35.887816 63.126323 0
M  V30 48 H 36.898655 30.817483 60.784250 0
M  V30 49 H 39.245134 32.445062 58.203388 0
M  V30 50 H 38.057257 32.079196 56.952437 0
M  V30 51 H 37.616983 33.093188 58.291485 0
M  V30 52 H 40.709313 28.933297 55.922058 0
M  V30 53 H 40.953832 29.337469 57.573044 0
M  V30 54 H 38.659309 27.865456 51.514309 0
M  V30 55 H 39.789785 27.095287 58.231441 0
M  V30 56 H 37.645135 28.232762 56.194979 0
M  V30 57 H 37.117956 29.899025 56.115718 0
M  V30 58 H 40.035628 29.055248 49.959227 0
M  V30 59 H 40.452052 31.578810 52.740127 0
M  V30 60 H 36.672557 30.854629 58.585909 0
M  V30 61 H 40.256403 38.039199 64.080033 0
M  V30 62 H 40.396379 30.137738 59.406304 0
M  V30 63 H 39.855729 28.519625 59.800981 0
M  V30 64 H 37.756581 28.825993 58.630112 0
M  V30 65 H 39.925242 31.965996 62.747544 0
M  V30 66 H 38.708531 34.955690 60.989529 0
M  V30 67 H 39.775253 34.537804 59.653227 0
M  V30 68 H 37.497994 33.185040 60.399245 0
M  V30 69 H 39.243537 30.516918 56.873216 0
M  V30 END ATOM
M  V30 BEGIN BOND
M  V30 1 2 5 2
M  V30 2 1 6 2
M  V30 3 1 9 3
M  V30 4 1 10 9
M  V30 5 1 12 5
M  V30 6 1 14 10
M  V30 7 1 15 8
M  V30 8 1 18 7
M  V30 9 2 19 3
M  V30 10 1 20 2
M  V30 11 2 20 4
M  V30 12 1 21 1
M  V30 13 1 21 17
M  V30 14 1 21 18
M  V30 15 1 22 5
M  V30 16 1 24 4
M  V30 17 1 24 11
M  V30 18 1 24 13
M  V30 19 1 25 4
M  V30 20 2 25 12
M  V30 21 1 26 15
M  V30 22 1 26 16
M  V30 23 1 27 14
M  V30 24 1 28 8
M  V30 25 1 29 26
M  V30 26 1 29 28
M  V30 27 1 30 3
M  V30 28 1 30 23
M  V30 29 1 31 17
M  V30 30 1 31 22
M  V30 31 1 31 29
M  V30 32 1 32 9
M  V30 33 1 32 23
M  V30 34 1 33 15
M  V30 35 1 33 23
M  V30 36 1 34 1
M  V30 37 1 35 6
M  V30 38 1 36 6
M  V30 39 1 37 6
M  V30 40 1 38 7
M  V30 41 1 39 7
M  V30 42 1 40 7
M  V30 43 1 41 8
M  V30 44 1 42 8
M  V30 45 1 9 43 CFG=3
M  V30 46 1 44 10
M  V30 47 1 45 12
M  V30 48 1 46 14
M  V30 49 1 47 14
M  V30 50 1 15 48 CFG=1
M  V30 51 1 49 16
M  V30 52 1 50 16
M  V30 53 1 51 16
M  V30 54 1 52 17
M  V30 55 1 53 17
M  V30 56 1 54 20
M  V30 57 1 21 55 CFG=1
M  V30 58 1 56 22
M  V30 59 1 57 22
M  V30 60 1 58 24
M  V30 61 1 59 25
M  V30 62 1 26 60 CFG=1
M  V30 63 1 61 27
M  V30 64 1 62 28
M  V30 65 1 63 28
M  V30 66 1 29 64 CFG=1
M  V30 67 1 65 30
M  V30 68 1 66 32
M  V30 69 1 67 32
M  V30 70 1 68 33
M  V30 71 1 31 69 CFG=3
M  V30 END BOND
M  V30 END CTAB
M  END
>  <i_epik_Tot_Q>  (1) 
1

>  <i_epik_Tot_abs_Q>  (1) 
1

>  <i_i_glide_confnum>  (1) 
3124

>  <i_i_glide_lignum>  (1) 
43

>  <i_i_glide_posenum>  (1) 
399

>  <i_i_glide_rotatable_bonds>  (1) 
13

>  <i_lp_mmshare_version>  (1) 
72125

>  <i_m_source_file_index>  (1) 
20

>  <i_f3d_flags>  (1) 
0

>  <num_sample>  (1) 
50

>  <b_lp_Chiralities_Consistent>  (1) 
1

>  <r_epik_Charging_Adjusted_Penalty>  (1) 
0.46831319053283144

>  <r_epik_Ionization_Penalty>  (1) 
0.71387485365223857

>  <r_epik_Ionization_Penalty_Charging>  (1) 
0.049252262366849507

>  <r_epik_Ionization_Penalty_Neutral>  (1) 
0.66462259128538903

>  <r_epik_State_Penalty>  (1) 
0.41906092816598195

>  <r_glide_ring_energy>  (1) 
0

>  <r_i_docking_score>  (1) 
-7.7936917411314726

>  <r_i_glide_ecoul>  (1) 
-5.253480371594172

>  <r_i_glide_eff_state_penalty>  (1) 
0.41906092816598195

>  <r_i_glide_einternal>  (1) 
30.175155653638853

>  <r_i_glide_emodel>  (1) 
-58.470088252303512

>  <r_i_glide_emodel_strain>  (1) 
1.0659995539444083

>  <r_i_glide_energy>  (1) 
-46.027870263182841

>  <r_i_glide_erotb>  (1) 
0.81494899861877068

>  <r_i_glide_esite>  (1) 
0

>  <r_i_glide_evdw>  (1) 
-40.774389891588669

>  <r_i_glide_gscore>  (1) 
-8.2127526692974548

>  <r_i_glide_gscore_strain>  (1) 
0

>  <r_i_glide_hbond>  (1) 
-0.32000000000000001

>  <r_i_glide_ligand_efficiency>  (1) 
-0.23617247700398403

>  <r_i_glide_ligand_efficiency_ln>  (1) 
-1.7332766896514809

>  <r_i_glide_ligand_efficiency_sa>  (1) 
-0.75753132779042864

>  <r_i_glide_lipo>  (1) 
-3.2188102539639387

>  <r_i_glide_metal>  (1) 
-0

>  <r_i_glide_rewards>  (1) 
-2.6621498636337275

>  <r_lp_Energy>  (1) 
34.505482000000001

>  <s_epik_Chemistry_Notes>  (1) 
This compound contains an acetal/aminal-like group ( X-CH(R)-Y where X, Y are N, S, or O) that may be acid/base labile, releasing an aldehyde.

>  <s_epik_cmdline>  (1) 
J2VwaWtfcHl0aG9uJywgJy1waHQnLCAnMS4wJywgJy1waCcsICc3LjQnLCAnLXRuJywgJzgnLCAnLW1hJywgJzUwMCcsICctaW1hZScsICc8aW5maWxlLm1hZT4nLCAnLW9tYWUnLCAnPG91dGZpbGUubWFlPic=

>  <s_epik_input>  (1) 
RltDSF0oRiljKFtjSF0xKVtjSF1bY0hdYyhjMVtDSDNdKVtDSDJdTihbQ0gyXVtDQEBIXShbT0hdKU9bQ0gzXSlbQ0BIXShbQ0BASF0yW0NIM10pW0NIMl1bQ0gyXVtDQEhdMltOSF1OKFtOSF0zKVtDSDJdW0NASF0oQzM9TylbTkhdW0NIMl1bT0hd

>  <s_glide_docking_method>  (1) 
confgen

>  <s_i_glide_gridfile>  (1) 
gpcr_5ht2c_6bqh_protein_autoprepared_prepared

>  <s_lp_Force_Field>  (1) 
S-OPLS

>  <s_lp_Variant>  (1) 
DiffSBDD_19-2

>  <s_m_source_file>  (1) 
generated_GPCR_5HT2C_ligand_DiffSBDD_2026-06-23_prepared.sdf

>  <GenAI_Model>  (1) 
DiffSBDD

>  <Protein>  (1) 
GPCR_5HT2C

$$$$
DiffSBDD_10
     RDKit          3D

  0  0  0  0  0  0  0  0  0  0999 V3000
M  V30 BEGIN CTAB
M  V30 COUNTS 64 66 0 0 1
M  V30 BEGIN ATOM
M  V30 1 C 37.218110 25.949041 55.819953 0
M  V30 2 C 39.541848 25.287468 56.012084 0
M  V30 3 C 40.096945 28.666652 56.129785 0
M  V30 4 C 39.681581 28.972888 50.492923 0
M  V30 5 C 41.635165 34.230197 64.182010 0
M  V30 6 C 40.045332 30.910435 51.900614 0
M  V30 7 C 37.943191 24.654504 57.739372 0
M  V30 8 O 38.118024 31.434851 58.460354 0
M  V30 9 F 38.872919 26.942289 51.431758 0
M  V30 10 S 39.034630 32.991729 61.231467 0
M  V30 11 C 42.831841 33.038101 66.072070 0
M  V30 12 C 40.171242 33.008851 62.657744 0
M  V30 13 C 41.905274 33.028379 64.875684 0
M  V30 14 C 38.820802 28.587781 58.412610 0
M  V30 15 C 36.926781 25.314051 57.035184 0
M  V30 16 S 38.005108 30.827564 59.794266 0
M  V30 17 C 40.057279 29.078523 57.618642 0 CFG=1
M  V30 18 O 39.644586 33.802397 60.166456 0
M  V30 19 O 36.665606 30.597380 60.353535 0
M  V30 20 C 39.252439 28.228128 51.606797 0
M  V30 21 C 40.766196 34.227269 63.072196 0
M  V30 22 N 38.768034 28.110153 54.054749 0
M  V30 23 C 41.346133 28.614404 58.329077 0
M  V30 24 C 39.254521 24.642938 57.228316 0
M  V30 25 C 41.308925 31.819890 64.458243 0
M  V30 26 C 40.076480 30.305404 50.640013 0
M  V30 27 C 40.441799 31.806043 63.350898 0
M  V30 28 C 38.518435 25.937345 55.306563 0
M  V30 29 C 38.770716 28.806600 55.352651 0
M  V30 30 C 39.212499 28.838247 52.902531 0
M  V30 31 C 38.815691 26.642209 53.998082 0
M  V30 32 N 38.744061 29.271257 59.703303 0
M  V30 33 Cl 40.431331 35.710388 62.244876 0
M  V30 34 O 37.733279 33.414990 61.767572 0
M  V30 35 C 39.618566 30.192924 53.026981 0
M  V30 36 N 39.051616 31.424032 60.855656 0 CHG=-1
M  V30 37 H 36.445130 26.458824 55.285811 0
M  V30 38 H 40.547042 25.286076 55.625045 0
M  V30 39 H 40.474809 27.652748 56.064132 0
M  V30 40 H 40.845451 29.268444 55.619651 0
M  V30 41 H 39.703470 28.521205 49.518718 0
M  V30 42 H 42.090165 35.155517 64.506133 0
M  V30 43 H 40.354136 31.928869 52.007004 0
M  V30 44 H 37.717864 24.160646 58.670955 0
M  V30 45 H 42.290863 33.344971 66.968243 0
M  V30 46 H 43.260507 32.050726 66.245709 0
M  V30 47 H 43.647882 33.735546 65.908733 0
M  V30 48 H 37.879725 28.780065 57.902539 0
M  V30 49 H 38.876200 27.511522 58.576846 0
M  V30 50 H 35.922349 25.337082 57.428009 0
M  V30 51 H 40.045131 30.163990 57.618750 0
M  V30 52 H 41.386375 27.527118 58.404897 0
M  V30 53 H 42.245676 28.937757 57.807480 0
M  V30 54 H 41.404572 29.011621 59.342195 0
M  V30 55 H 40.042678 24.141494 57.767888 0
M  V30 56 H 41.515042 30.903342 64.991216 0
M  V30 57 H 40.405813 30.869025 49.778313 0
M  V30 58 H 39.983484 30.879267 63.044085 0
M  V30 59 H 38.434270 29.840246 55.302414 0
M  V30 60 H 37.965349 28.350636 55.913642 0
M  V30 61 H 39.784520 26.313287 53.619588 0
M  V30 62 H 38.039539 26.283880 53.323967 0
M  V30 63 H 38.364522 28.662188 60.424331 0
M  V30 64 H 39.610702 30.685535 53.982655 0
M  V30 END ATOM
M  V30 BEGIN BOND
M  V30 1 1 12 10
M  V30 2 2 13 5
M  V30 3 1 13 11
M  V30 4 1 15 1
M  V30 5 2 15 7
M  V30 6 2 16 8
M  V30 7 1 17 3
M  V30 8 1 17 14
M  V30 9 2 18 10
M  V30 10 2 19 16
M  V30 11 2 20 4
M  V30 12 1 20 9
M  V30 13 1 21 5
M  V30 14 2 21 12
M  V30 15 1 23 17
M  V30 16 2 24 2
M  V30 17 1 24 7
M  V30 18 1 25 13
M  V30 19 1 26 4
M  V30 20 2 26 6
M  V30 21 1 27 12
M  V30 22 2 27 25
M  V30 23 2 28 1
M  V30 24 1 28 2
M  V30 25 1 29 3
M  V30 26 1 29 22
M  V30 27 1 30 20
M  V30 28 1 30 22
M  V30 29 1 31 22
M  V30 30 1 31 28
M  V30 31 1 32 14
M  V30 32 1 32 16
M  V30 33 1 33 21
M  V30 34 2 34 10
M  V30 35 1 35 6
M  V30 36 2 35 30
M  V30 37 1 36 10
M  V30 38 1 36 16
M  V30 39 1 37 1
M  V30 40 1 38 2
M  V30 41 1 39 3
M  V30 42 1 40 3
M  V30 43 1 41 4
M  V30 44 1 42 5
M  V30 45 1 43 6
M  V30 46 1 44 7
M  V30 47 1 45 11
M  V30 48 1 46 11
M  V30 49 1 47 11
M  V30 50 1 48 14
M  V30 51 1 49 14
M  V30 52 1 50 15
M  V30 53 1 17 51 CFG=3
M  V30 54 1 52 23
M  V30 55 1 53 23
M  V30 56 1 54 23
M  V30 57 1 55 24
M  V30 58 1 56 25
M  V30 59 1 57 26
M  V30 60 1 58 27
M  V30 61 1 59 29
M  V30 62 1 60 29
M  V30 63 1 61 31
M  V30 64 1 62 31
M  V30 65 1 63 32
M  V30 66 1 64 35
M  V30 END BOND
M  V30 END CTAB
M  END
>  <i_epik_Tot_Q>  (1) 
-1

>  <i_epik_Tot_abs_Q>  (1) 
1

>  <i_i_glide_confnum>  (1) 
4783

>  <i_i_glide_lignum>  (1) 
21

>  <i_i_glide_posenum>  (1) 
139

>  <i_i_glide_rotatable_bonds>  (1) 
12

>  <i_lp_mmshare_version>  (1) 
72125

>  <i_m_source_file_index>  (1) 
11

>  <i_f3d_flags>  (1) 
0

>  <num_sample>  (1) 
50

>  <b_lp_Chiralities_Consistent>  (1) 
1

>  <r_epik_Charging_Adjusted_Penalty>  (1) 
1.043230994850219

>  <r_epik_Ionization_Penalty>  (1) 
0.22830841385829601

>  <r_epik_Ionization_Penalty_Charging>  (1) 
0.22543841040968138

>  <r_epik_Ionization_Penalty_Neutral>  (1) 
0.0028700034486146327

>  <r_epik_State_Penalty>  (1) 
0.81779258444053771

>  <r_glide_ring_energy>  (1) 
0

>  <r_i_docking_score>  (1) 
-7.7926101621832178

>  <r_i_glide_ecoul>  (1) 
-1.0454666239217256

>  <r_i_glide_eff_state_penalty>  (1) 
0.81779258444053771

>  <r_i_glide_einternal>  (1) 
9.0844524144135761

>  <r_i_glide_emodel>  (1) 
-77.119666878706255

>  <r_i_glide_emodel_strain>  (1) 
0.37065843385513375

>  <r_i_glide_energy>  (1) 
-53.251575827004828

>  <r_i_glide_erotb>  (1) 
0.74186158489162179

>  <r_i_glide_esite>  (1) 
-0.12204540085151694

>  <r_i_glide_evdw>  (1) 
-52.206109203083102

>  <r_i_glide_gscore>  (1) 
-8.6104027466237554

>  <r_i_glide_gscore_strain>  (1) 
0

>  <r_i_glide_hbond>  (1) 
0

>  <r_i_glide_ligand_efficiency>  (1) 
-0.21646139339397827

>  <r_i_glide_ligand_efficiency_ln>  (1) 
-1.7001370053917662

>  <r_i_glide_ligand_efficiency_sa>  (1) 
-0.71473977318127635

>  <r_i_glide_lipo>  (1) 
-5.8110894698511704

>  <r_i_glide_metal>  (1) 
-0

>  <r_i_glide_rewards>  (1) 
-0.65200400707027417

>  <r_lp_Energy>  (1) 
36.709097

>  <s_epik_cmdline>  (1) 
J2VwaWtfcHl0aG9uJywgJy1waHQnLCAnMS4wJywgJy1waCcsICc3LjQnLCAnLXRuJywgJzgnLCAnLW1hJywgJzUwMCcsICctaW1hZScsICc8aW5maWxlLm1hZT4nLCAnLW9tYWUnLCAnPG91dGZpbGUubWFlPic=

>  <s_epik_input>  (1) 
W2NIXTFbY0hdW2NIXVtjSF1bY0hdYzFbQ0gyXU4oYzJbY0hdW2NIXVtjSF1bY0hdYzJGKVtDSDJdW0NIMl1bQ0BIXShbQ0gzXSlbQ0gyXVtOSF1TKD1PKSg9TylbTkhdUyg9TykoPU8pYzNjKENsKVtjSF1jKFtDSDNdKVtjSF1bY0hdMw==

>  <s_glide_docking_method>  (1) 
confgen

>  <s_i_glide_gridfile>  (1) 
gpcr_5ht2c_6bqh_protein_autoprepared_prepared

>  <s_lp_Force_Field>  (1) 
S-OPLS

>  <s_lp_Variant>  (1) 
DiffSBDD_10-2

>  <s_m_source_file>  (1) 
generated_GPCR_5HT2C_ligand_DiffSBDD_2026-06-23_prepared.sdf

>  <GenAI_Model>  (1) 
DiffSBDD

>  <Protein>  (1) 
GPCR_5HT2C

$$$$
DiffSBDD_41
     RDKit          3D

  0  0  0  0  0  0  0  0  0  0999 V3000
M  V30 BEGIN CTAB
M  V30 COUNTS 71 75 0 0 1
M  V30 BEGIN ATOM
M  V30 1 C 37.885473 25.514992 56.533690 0
M  V30 2 O 37.612168 31.250272 59.544360 0
M  V30 3 C 38.533428 30.278568 59.055931 0 CFG=1
M  V30 4 C 39.245174 32.122940 56.870038 0
M  V30 5 C 39.301031 25.032102 56.190426 0
M  V30 6 C 37.881492 28.187810 54.906164 0
M  V30 7 C 40.471439 29.426797 50.514324 0
M  V30 8 C 40.045137 28.148972 50.907392 0
M  V30 9 C 38.390490 34.514229 61.053975 0
M  V30 10 C 39.107046 31.313991 53.550233 0
M  V30 11 C 38.591561 29.061488 59.976366 0
M  V30 12 C 36.857745 35.534543 59.806795 0
M  V30 13 N 37.809673 35.656291 60.743806 0
M  V30 14 C 38.071748 29.865581 57.641696 0 CFG=1
M  V30 15 C 38.650971 27.936189 56.259945 0
M  V30 16 C 37.772983 33.518296 60.235352 0
M  V30 17 O 37.342373 37.118626 62.559848 0
M  V30 18 O 39.284037 34.363917 61.888626 0
M  V30 19 C 40.075921 27.421356 55.991231 0
M  V30 20 C 40.104233 26.037164 55.359306 0
M  V30 21 N 38.045133 31.271025 56.882100 0 CFG=2 CHG=1
M  V30 22 O 36.180521 36.463099 59.367817 0
M  V30 23 O 39.034845 29.104041 57.002531 0
M  V30 24 C 39.390072 27.983695 52.127252 0
M  V30 25 C 37.495569 31.121711 55.540768 0
M  V30 26 C 38.133326 36.925494 61.402599 0
M  V30 27 C 39.136415 29.103892 52.932312 0
M  V30 28 C 38.173535 32.234145 60.308506 0
M  V30 29 C 40.254143 30.537750 51.344043 0
M  V30 30 C 35.266020 33.519781 59.570481 0
M  V30 31 N 38.460135 29.246512 54.136348 0
M  V30 32 C 36.679354 34.066181 59.307659 0 CFG=1
M  V30 33 C 37.918789 26.911888 57.165874 0
M  V30 34 C 38.362142 30.608161 54.437395 0
M  V30 35 C 39.562015 30.404086 52.567757 0
M  V30 36 H 37.411480 24.809317 57.217567 0
M  V30 37 H 37.265632 25.522079 55.636418 0
M  V30 38 H 39.551580 30.649384 59.006449 0
M  V30 39 H 40.067475 31.534244 56.487110 0
M  V30 40 H 39.112400 32.979779 56.208236 0
M  V30 41 H 39.479698 32.537717 57.846260 0
M  V30 42 H 39.843530 24.779371 57.102821 0
M  V30 43 H 39.210096 24.137757 55.597992 0
M  V30 44 H 37.862454 27.282368 54.304944 0
M  V30 45 H 36.845140 28.451895 54.967755 0
M  V30 46 H 40.971664 29.559790 49.567824 0
M  V30 47 H 40.219052 27.298140 50.264872 0
M  V30 48 H 39.233539 32.371094 53.535828 0
M  V30 49 H 39.360967 28.361792 59.649791 0
M  V30 50 H 38.828490 29.347596 61.001167 0
M  V30 51 H 37.645137 28.537887 59.971717 0
M  V30 52 H 37.073223 29.428016 57.643618 0
M  V30 53 H 37.892299 37.030859 63.324552 0
M  V30 54 H 40.619962 28.126152 55.367761 0
M  V30 55 H 40.632655 27.373136 56.929844 0
M  V30 56 H 41.145634 25.737764 55.284745 0
M  V30 57 H 39.726029 26.059820 54.340109 0
M  V30 58 H 39.048662 27.005738 52.427977 0
M  V30 59 H 37.182574 32.120646 55.240432 0
M  V30 60 H 36.576195 30.537755 55.587461 0
M  V30 61 H 37.968334 37.764321 60.723536 0
M  V30 62 H 39.189376 36.969260 61.678257 0
M  V30 63 H 38.950530 31.864345 60.964298 0
M  V30 64 H 40.580516 31.513041 51.022248 0
M  V30 65 H 34.948293 33.691411 60.599537 0
M  V30 66 H 34.539509 34.004890 58.916514 0
M  V30 67 H 35.212496 32.448235 59.376253 0
M  V30 68 H 36.969106 33.975435 58.260443 0
M  V30 69 H 38.430739 26.835807 58.125650 0
M  V30 70 H 36.900399 27.224792 57.389754 0
M  V30 71 H 37.326367 31.815221 57.347958 0
M  V30 END ATOM
M  V30 BEGIN BOND
M  V30 1 1 3 2
M  V30 2 1 5 1
M  V30 3 2 8 7
M  V30 4 1 11 3
M  V30 5 1 13 9
M  V30 6 1 13 12
M  V30 7 1 14 3
M  V30 8 1 15 6
M  V30 9 1 16 9
M  V30 10 2 18 9
M  V30 11 1 19 15
M  V30 12 1 20 5
M  V30 13 1 20 19
M  V30 14 1 21 4
M  V30 15 1 21 14
M  V30 16 2 22 12
M  V30 17 1 23 14
M  V30 18 1 23 15
M  V30 19 1 24 8
M  V30 20 1 25 21
M  V30 21 1 26 13
M  V30 22 1 26 17
M  V30 23 2 27 24
M  V30 24 1 28 2
M  V30 25 2 28 16
M  V30 26 1 29 7
M  V30 27 1 31 6
M  V30 28 1 31 27
M  V30 29 1 32 12
M  V30 30 1 32 16
M  V30 31 1 32 30
M  V30 32 1 33 1
M  V30 33 1 33 15
M  V30 34 2 34 10
M  V30 35 1 34 25
M  V30 36 1 34 31
M  V30 37 1 35 10
M  V30 38 1 35 27
M  V30 39 2 35 29
M  V30 40 1 36 1
M  V30 41 1 37 1
M  V30 42 1 3 38 CFG=3
M  V30 43 1 39 4
M  V30 44 1 40 4
M  V30 45 1 41 4
M  V30 46 1 42 5
M  V30 47 1 43 5
M  V30 48 1 44 6
M  V30 49 1 45 6
M  V30 50 1 46 7
M  V30 51 1 47 8
M  V30 52 1 48 10
M  V30 53 1 49 11
M  V30 54 1 50 11
M  V30 55 1 51 11
M  V30 56 1 14 52 CFG=1
M  V30 57 1 53 17
M  V30 58 1 54 19
M  V30 59 1 55 19
M  V30 60 1 56 20
M  V30 61 1 57 20
M  V30 62 1 58 24
M  V30 63 1 59 25
M  V30 64 1 60 25
M  V30 65 1 61 26
M  V30 66 1 62 26
M  V30 67 1 63 28
M  V30 68 1 64 29
M  V30 69 1 65 30
M  V30 70 1 66 30
M  V30 71 1 67 30
M  V30 72 1 32 68 CFG=3
M  V30 73 1 69 33
M  V30 74 1 70 33
M  V30 75 1 21 71 CFG=1
M  V30 END BOND
M  V30 END CTAB
M  END
>  <i_epik_Tot_Q>  (1) 
1

>  <i_epik_Tot_abs_Q>  (1) 
1

>  <i_i_glide_confnum>  (1) 
30

>  <i_i_glide_lignum>  (1) 
90

>  <i_i_glide_posenum>  (1) 
342

>  <i_i_glide_rotatable_bonds>  (1) 
5

>  <i_lp_mmshare_version>  (1) 
72125

>  <i_m_source_file_index>  (1) 
42

>  <i_f3d_flags>  (1) 
0

>  <num_sample>  (1) 
50

>  <b_lp_Chiralities_Consistent>  (1) 
1

>  <r_epik_Charging_Adjusted_Penalty>  (1) 
1.62722492853585

>  <r_epik_Ionization_Penalty>  (1) 
0.81369786534067623

>  <r_epik_Ionization_Penalty_Charging>  (1) 
0.81361246426792511

>  <r_epik_Ionization_Penalty_Neutral>  (1) 
8.5401072751167088e-05

>  <r_epik_State_Penalty>  (1) 
0.813612464267925

>  <r_glide_ring_energy>  (1) 
1.1860061089558767

>  <r_i_docking_score>  (1) 
-7.7876544871977522

>  <r_i_glide_ecoul>  (1) 
-4.4438086438524573

>  <r_i_glide_eff_state_penalty>  (1) 
0.813612464267925

>  <r_i_glide_einternal>  (1) 
8.8378858963411808

>  <r_i_glide_emodel>  (1) 
-42.13285484960506

>  <r_i_glide_emodel_strain>  (1) 
0.37883675146634488

>  <r_i_glide_energy>  (1) 
-40.287181406989177

>  <r_i_glide_erotb>  (1) 
0.34854586591334119

>  <r_i_glide_esite>  (1) 
-0.14658892139960039

>  <r_i_glide_evdw>  (1) 
-35.84337276313672

>  <r_i_glide_gscore>  (1) 
-8.6012669514656768

>  <r_i_glide_gscore_strain>  (1) 
0

>  <r_i_glide_hbond>  (1) 
-0.10618873833927085

>  <r_i_glide_ligand_efficiency>  (1) 
-0.22250441391993578

>  <r_i_glide_ligand_efficiency_ln>  (1) 
-1.7095629976190023

>  <r_i_glide_ligand_efficiency_sa>  (1) 
-0.72782669224175911

>  <r_i_glide_lipo>  (1) 
-3.9446331284994494

>  <r_i_glide_metal>  (1) 
-0

>  <r_i_glide_rewards>  (1) 
-2.2936620944059936

>  <r_lp_Energy>  (1) 
36.851118

>  <s_epik_Chemistry_Notes>  (1) 
This compound contains an acetal/aminal-like group ( X-CH(R)-Y where X, Y are N, S, or O) that may be acid/base labile, releasing an aldehyde.

>  <s_epik_cmdline>  (1) 
J2VwaWtfcHl0aG9uJywgJy1waHQnLCAnMS4wJywgJy1waCcsICc3LjQnLCAnLXRuJywgJzgnLCAnLW1hJywgJzUwMCcsICctaW1hZScsICc8aW5maWxlLm1hZT4nLCAnLW9tYWUnLCAnPG91dGZpbGUubWFlPic=

>  <s_epik_input>  (1) 
W0NIMl0xW0NIMl1bQ0gyXVtDSDJdW0NIMl1DMTJbQ0gyXW4zYzRjKFtjSF1bY0hdW2NIXVtjSF00KVtjSF1jM1tDSDJdTihbQ0gzXSlbQ0BASF0oTzIpW0NASF0oW0NIM10pT1xbQ0hdPUNcNVtDQEBIXShbQ0gzXSlDKD1PKU4oQzU9TylbQ0gyXVtPSF0=

>  <s_glide_docking_method>  (1) 
confgen

>  <s_i_glide_gridfile>  (1) 
gpcr_5ht2c_6bqh_protein_autoprepared_prepared

>  <s_lp_Force_Field>  (1) 
S-OPLS

>  <s_lp_Variant>  (1) 
DiffSBDD_41-4

>  <s_m_source_file>  (1) 
generated_GPCR_5HT2C_ligand_DiffSBDD_2026-06-23_prepared.sdf

>  <GenAI_Model>  (1) 
DiffSBDD

>  <Protein>  (1) 
GPCR_5HT2C

$$$$
DiffSBDD_27
     RDKit          3D

  0  0  0  0  0  0  0  0  0  0999 V3000
M  V30 BEGIN CTAB
M  V30 COUNTS 67 69 0 0 1
M  V30 BEGIN ATOM
M  V30 1 C 40.978665 27.182155 57.622514 0
M  V30 2 C 36.354093 38.362404 62.130532 0
M  V30 3 N 38.510990 28.137790 51.537963 0
M  V30 4 C 36.890982 29.682461 58.022356 0
M  V30 5 C 41.422058 34.886543 63.846880 0
M  V30 6 C 38.811910 34.173592 61.141500 0
M  V30 7 N 37.245121 31.003152 58.567696 0 CHG=1
M  V30 8 C 38.537067 32.775608 60.886350 0
M  V30 9 O 41.820632 34.134398 64.762241 0
M  V30 10 C 38.558928 28.278555 52.684237 0
M  V30 11 C 37.106035 37.096251 59.593022 0
M  V30 12 C 38.671824 28.484062 54.147413 0 CFG=1
M  V30 13 C 40.039691 27.997237 56.724435 0 CFG=1
M  V30 14 C 40.096990 34.674066 61.728797 0
M  V30 15 C 40.053477 34.597379 63.258266 0
M  V30 16 C 39.500165 31.655536 61.176847 0
M  V30 17 S 36.441827 34.063267 60.160001 0
M  V30 18 C 37.293565 32.577823 60.333639 0
M  V30 19 C 40.199273 25.895617 57.923969 0
M  V30 20 N 37.645235 29.433970 54.609999 0
M  V30 21 O 42.045136 35.852075 63.367772 0 CHG=-1
M  V30 22 C 37.756934 34.991224 60.784374 0
M  V30 23 C 37.962097 30.144776 55.843270 0
M  V30 24 C 36.912992 36.930245 62.171411 0
M  V30 25 N 37.848772 29.254133 57.002282 0
M  V30 26 O 37.942531 26.226683 54.383010 0
M  V30 27 C 38.619309 27.127505 54.879821 0
M  V30 28 N 39.297648 26.934756 56.037023 0
M  V30 29 C 39.133151 28.893203 57.603615 0
M  V30 30 C 36.693389 31.296298 59.896050 0
M  V30 31 C 37.662839 36.487902 60.891360 0 CFG=2
M  V30 32 C 39.376327 25.626781 56.666764 0
M  V30 33 H 41.886142 26.937737 57.068129 0
M  V30 34 H 41.289321 27.710940 58.524584 0
M  V30 35 H 36.027088 38.682555 63.119701 0
M  V30 36 H 35.493674 38.434173 61.464455 0
M  V30 37 H 37.097705 39.071650 61.767734 0
M  V30 38 H 35.891477 29.737732 57.597438 0
M  V30 39 H 36.849287 28.937804 58.817836 0
M  V30 40 H 38.244070 31.132303 58.579006 0
M  V30 41 H 37.636587 36.718966 58.721033 0
M  V30 42 H 37.245116 38.172915 59.586701 0
M  V30 43 H 36.045515 36.880080 59.457930 0
M  V30 44 H 39.645160 28.950370 54.261588 0
M  V30 45 H 40.648920 28.604242 56.057591 0
M  V30 46 H 40.937446 34.089868 61.355022 0
M  V30 47 H 40.324190 35.689212 61.408248 0
M  V30 48 H 39.730520 33.605041 63.577030 0
M  V30 49 H 39.353866 35.337745 63.645450 0
M  V30 50 H 39.043938 30.910697 61.828472 0
M  V30 51 H 40.406777 31.987065 61.679671 0
M  V30 52 H 39.801267 31.145948 60.262660 0
M  V30 53 H 40.845130 25.059425 58.167796 0
M  V30 54 H 39.534464 26.057136 58.773069 0
M  V30 55 H 36.730686 29.008650 54.661859 0
M  V30 56 H 38.944041 30.618970 55.782162 0
M  V30 57 H 37.245140 30.962996 55.906579 0
M  V30 58 H 37.592295 36.835538 63.018571 0
M  V30 59 H 36.096532 36.244883 62.398514 0
M  V30 60 H 38.917928 28.342632 58.520712 0
M  V30 61 H 39.677412 29.785746 57.912603 0
M  V30 62 H 36.939805 30.500060 60.598444 0
M  V30 63 H 35.606167 31.365225 59.841753 0
M  V30 64 H 38.662954 36.907021 60.972739 0
M  V30 65 H 38.393227 25.217406 56.903841 0
M  V30 66 H 39.896610 24.932744 56.004132 0
M  V30 67 H 36.804623 31.669107 57.929568 0
M  V30 END ATOM
M  V30 BEGIN BOND
M  V30 1 1 7 4
M  V30 2 1 8 6
M  V30 3 2 9 5
M  V30 4 3 10 3
M  V30 5 1 12 10
M  V30 6 1 13 1
M  V30 7 1 14 6
M  V30 8 1 15 5
M  V30 9 1 15 14
M  V30 10 1 16 8
M  V30 11 2 18 8
M  V30 12 1 18 17
M  V30 13 1 19 1
M  V30 14 1 20 12
M  V30 15 1 21 5
M  V30 16 2 22 6
M  V30 17 1 22 17
M  V30 18 1 23 20
M  V30 19 1 24 2
M  V30 20 1 25 4
M  V30 21 1 25 23
M  V30 22 1 27 12
M  V30 23 2 27 26
M  V30 24 1 28 13
M  V30 25 1 28 27
M  V30 26 1 29 13
M  V30 27 1 29 25
M  V30 28 1 30 7
M  V30 29 1 30 18
M  V30 30 1 31 11
M  V30 31 1 31 22
M  V30 32 1 31 24
M  V30 33 1 32 19
M  V30 34 1 32 28
M  V30 35 1 33 1
M  V30 36 1 34 1
M  V30 37 1 35 2
M  V30 38 1 36 2
M  V30 39 1 37 2
M  V30 40 1 38 4
M  V30 41 1 39 4
M  V30 42 1 40 7
M  V30 43 1 41 11
M  V30 44 1 42 11
M  V30 45 1 43 11
M  V30 46 1 12 44 CFG=3
M  V30 47 1 13 45 CFG=3
M  V30 48 1 46 14
M  V30 49 1 47 14
M  V30 50 1 48 15
M  V30 51 1 49 15
M  V30 52 1 50 16
M  V30 53 1 51 16
M  V30 54 1 52 16
M  V30 55 1 53 19
M  V30 56 1 54 19
M  V30 57 1 55 20
M  V30 58 1 56 23
M  V30 59 1 57 23
M  V30 60 1 58 24
M  V30 61 1 59 24
M  V30 62 1 60 29
M  V30 63 1 61 29
M  V30 64 1 62 30
M  V30 65 1 63 30
M  V30 66 1 31 64 CFG=1
M  V30 67 1 65 32
M  V30 68 1 66 32
M  V30 69 1 67 7
M  V30 END BOND
M  V30 END CTAB
M  END
>  <i_epik_Tot_Q>  (1) 
0

>  <i_epik_Tot_abs_Q>  (1) 
2

>  <i_i_glide_confnum>  (1) 
340

>  <i_i_glide_lignum>  (1) 
60

>  <i_i_glide_posenum>  (1) 
40

>  <i_i_glide_rotatable_bonds>  (1) 
9

>  <i_lp_mmshare_version>  (1) 
72125

>  <i_m_source_file_index>  (1) 
28

>  <i_f3d_flags>  (1) 
0

>  <num_sample>  (1) 
50

>  <b_lp_Chiralities_Consistent>  (1) 
1

>  <r_epik_Charging_Adjusted_Penalty>  (1) 
0.0027323958996878029

>  <r_epik_Ionization_Penalty>  (1) 
0.002819485543525381

>  <r_epik_Ionization_Penalty_Charging>  (1) 
0.0027323958996878029

>  <r_epik_Ionization_Penalty_Neutral>  (1) 
8.708964383757816e-05

>  <r_epik_State_Penalty>  (1) 
-0

>  <r_glide_ring_energy>  (1) 
0

>  <r_i_docking_score>  (1) 
-7.7776026307300778

>  <r_i_glide_ecoul>  (1) 
-0.49048235569465071

>  <r_i_glide_eff_state_penalty>  (1) 
-0

>  <r_i_glide_einternal>  (1) 
12.292203525914069

>  <r_i_glide_emodel>  (1) 
-65.835305977562342

>  <r_i_glide_emodel_strain>  (1) 
2.2276523184273955

>  <r_i_glide_energy>  (1) 
-46.984531716528082

>  <r_i_glide_erotb>  (1) 
0.66148182558323176

>  <r_i_glide_esite>  (1) 
-0.25356959514317601

>  <r_i_glide_evdw>  (1) 
-46.494049360833429

>  <r_i_glide_gscore>  (1) 
-7.7776026307300778

>  <r_i_glide_gscore_strain>  (1) 
0

>  <r_i_glide_hbond>  (1) 
-0.16096860986119294

>  <r_i_glide_ligand_efficiency>  (1) 
-0.24305008221031493

>  <r_i_glide_ligand_efficiency_ln>  (1) 
-1.7416172384609723

>  <r_i_glide_ligand_efficiency_sa>  (1) 
-0.77163591236322271

>  <r_i_glide_lipo>  (1) 
-3.2161099937179825

>  <r_i_glide_metal>  (1) 
-0

>  <r_i_glide_rewards>  (1) 
-2.4101614361950894

>  <r_lp_Energy>  (1) 
42.969059000000001

>  <r_lp_tautomer_probability>  (1) 
1

>  <s_epik_Chemistry_Notes>  (1) 
This compound contains an acetal/aminal-like group ( X-CH(R)-Y where X, Y are N, S, or O) that may be acid/base labile, releasing an aldehyde.

>  <s_epik_cmdline>  (1) 
J2VwaWtfcHl0aG9uJywgJy1waHQnLCAnMS4wJywgJy1waCcsICc3LjQnLCAnLXRuJywgJzgnLCAnLW1hJywgJzUwMCcsICctaW1hZScsICc8aW5maWxlLm1hZT4nLCAnLW9tYWUnLCAnPG91dGZpbGUubWFlPic=

>  <s_epik_input>  (1) 
W0NIMl0xW0NIMl1bQ0gyXU4oW0NASF0xMilDKD1PKVtDQEBIXShDI04pW05IXVtDSDJdTihbQ0gyXTIpW0NIMl1bTkhdW0NIMl1jKHNjM1tDQEBIXShbQ0gzXSlbQ0gyXVtDSDNdKWMoW0NIM10pYzNbQ0gyXVtDSDJdQyg9TylbT0hd

>  <s_glide_docking_method>  (1) 
confgen

>  <s_i_glide_gridfile>  (1) 
gpcr_5ht2c_6bqh_protein_autoprepared_prepared

>  <s_lp_Force_Field>  (1) 
S-OPLS

>  <s_lp_Variant>  (1) 
DiffSBDD_27-1

>  <s_m_source_file>  (1) 
generated_GPCR_5HT2C_ligand_DiffSBDD_2026-06-23_prepared.sdf

>  <GenAI_Model>  (1) 
DiffSBDD

>  <Protein>  (1) 
GPCR_5HT2C

$$$$
DiffSBDD_17
     RDKit          3D

  0  0  0  0  0  0  0  0  0  0999 V3000
M  V30 BEGIN CTAB
M  V30 COUNTS 93 97 0 0 1
M  V30 BEGIN ATOM
M  V30 1 C 42.460770 32.948608 65.595076 0
M  V30 2 C 37.072173 30.539272 59.675027 0 CFG=2
M  V30 3 C 40.832685 31.210598 64.742796 0
M  V30 4 O 41.008309 29.337367 59.390577 0
M  V30 5 C 43.367503 30.961116 64.317724 0
M  V30 6 C 39.282351 27.739572 52.362597 0
M  V30 7 C 39.645929 29.005471 50.232407 0
M  V30 8 C 39.535134 27.798522 51.050493 0
M  V30 9 C 38.032715 33.085540 58.481855 0
M  V30 10 C 37.552007 33.118728 61.644004 0
M  V30 11 N 41.212252 28.774400 64.963954 0
M  V30 12 C 36.429875 32.986593 60.627904 0 CFG=2
M  V30 13 C 40.522689 29.715692 62.612681 0 CFG=1
M  V30 14 C 38.358282 30.373665 60.537094 0
M  V30 15 N 41.269730 27.459328 64.376105 0 CHG=1
M  V30 16 C 39.215109 26.712399 54.406446 0 CFG=2
M  V30 17 C 38.978947 28.866085 53.272861 0 CFG=2
M  V30 18 C 41.253175 27.310963 66.780770 0
M  V30 19 C 40.462052 29.797054 64.197425 0 CFG=2
M  V30 20 O 39.266340 26.537798 53.002040 0
M  V30 21 C 41.614291 26.552952 65.484275 0
M  V30 22 O 41.645137 29.197814 62.218353 0 CHG=-1
M  V30 23 N 38.236206 30.209764 55.938736 0 CHG=1
M  V30 24 C 39.690630 30.169139 53.138458 0
M  V30 25 C 37.161017 30.068387 58.212823 0
M  V30 26 C 39.869108 30.278971 50.640684 0
M  V30 27 N 36.241655 31.792172 59.777417 0 CFG=1 CHG=1
M  V30 28 C 39.936903 28.464400 59.578427 0
M  V30 29 S 37.880159 25.758943 55.196005 0
M  V30 30 C 38.986310 28.953714 60.685438 0 CFG=1
M  V30 31 C 40.045131 30.774523 52.001222 0
M  V30 32 N 39.574911 28.730411 62.046560 0 CHG=1
M  V30 33 C 36.662683 33.040467 59.141146 0 CFG=2
M  V30 34 C 38.249375 28.738624 55.759064 0
M  V30 35 C 38.099741 32.294549 57.174465 0
M  V30 36 C 39.203113 28.246649 54.658027 0 CFG=1
M  V30 37 C 38.228389 30.758096 57.314798 0 CFG=2
M  V30 38 N 40.873858 28.683760 66.380064 0 CHG=1
M  V30 39 C 42.268842 31.459009 65.266379 0
M  V30 40 H 42.380849 33.567795 64.700631 0
M  V30 41 H 41.711356 33.298286 66.307654 0
M  V30 42 H 43.440919 33.132939 66.037196 0
M  V30 43 H 36.388814 29.822296 60.130824 0
M  V30 44 H 40.589206 31.971963 64.001041 0
M  V30 45 H 40.154128 31.430312 65.569273 0
M  V30 46 H 41.556895 29.262548 60.168707 0
M  V30 47 H 43.245105 31.394504 63.325788 0
M  V30 48 H 44.348600 31.232191 64.703931 0
M  V30 49 H 43.381067 29.880323 64.199214 0
M  V30 50 H 39.595549 28.866814 49.168961 0
M  V30 51 H 39.684720 26.857189 50.544456 0
M  V30 52 H 38.844764 32.816572 59.145904 0
M  V30 53 H 38.206579 34.135283 58.242499 0
M  V30 54 H 37.600609 34.164379 61.945953 0
M  V30 55 H 37.343772 32.522662 62.531915 0
M  V30 56 H 38.538471 32.883210 61.259490 0
M  V30 57 H 35.453200 33.310418 60.985706 0
M  V30 58 H 40.209425 30.697538 62.268496 0
M  V30 59 H 38.055672 30.647247 61.544170 0
M  V30 60 H 39.144393 31.056562 60.233667 0
M  V30 61 H 40.344031 27.264526 64.028703 0
M  V30 62 H 40.146532 26.305982 54.803238 0
M  V30 63 H 37.914344 29.069554 53.142988 0
M  V30 64 H 42.111471 27.348515 67.453073 0
M  V30 65 H 40.445136 26.817892 67.316502 0
M  V30 66 H 39.415619 29.737775 64.459137 0
M  V30 67 H 42.684995 26.346241 65.453041 0
M  V30 68 H 41.086836 25.602643 65.393888 0
M  V30 69 H 37.421167 30.574645 55.462377 0
M  V30 70 H 39.900567 30.681418 54.061512 0
M  V30 71 H 37.331385 28.996327 58.253229 0
M  V30 72 H 36.173320 30.137724 57.767346 0
M  V30 73 H 39.968750 31.014061 49.854346 0
M  V30 74 H 39.418783 28.354729 58.633860 0
M  V30 75 H 40.329062 27.475364 59.816770 0
M  V30 76 H 36.876047 26.376565 54.568293 0
M  V30 77 H 38.186340 28.226811 60.567741 0
M  V30 78 H 40.504742 31.737772 52.099521 0
M  V30 79 H 38.824873 28.621330 62.720457 0
M  V30 80 H 35.841231 33.450236 58.560368 0
M  V30 81 H 38.521342 28.220510 56.674351 0
M  V30 82 H 37.245141 28.449410 55.491558 0
M  V30 83 H 38.971575 32.655981 56.626109 0
M  V30 84 H 37.246162 32.568271 56.552515 0
M  V30 85 H 40.203041 28.504671 54.998782 0
M  V30 86 H 39.209981 30.553544 57.739696 0
M  V30 87 H 41.416305 29.381946 66.872602 0
M  V30 88 H 42.396548 30.928086 66.209210 0
M  V30 89 H 41.949758 27.515422 63.620551 0
M  V30 90 H 39.879555 28.847494 66.475587 0
M  V30 91 H 39.053789 30.587232 55.482966 0
M  V30 92 H 40.095655 27.870453 61.992412 0
M  V30 93 H 35.282480 31.642336 59.488151 0
M  V30 END ATOM
M  V30 BEGIN BOND
M  V30 1 2 8 6
M  V30 2 1 8 7
M  V30 3 1 12 10
M  V30 4 1 14 2
M  V30 5 1 15 11
M  V30 6 1 17 6
M  V30 7 1 19 3
M  V30 8 1 19 11
M  V30 9 1 19 13
M  V30 10 1 20 6
M  V30 11 1 20 16
M  V30 12 1 21 15
M  V30 13 1 21 18
M  V30 14 1 22 13
M  V30 15 1 24 17
M  V30 16 1 25 2
M  V30 17 2 26 7
M  V30 18 1 27 2
M  V30 19 1 27 12
M  V30 20 1 28 4
M  V30 21 1 29 16
M  V30 22 1 30 14
M  V30 23 1 30 28
M  V30 24 2 31 24
M  V30 25 1 31 26
M  V30 26 1 32 13
M  V30 27 1 32 30
M  V30 28 1 33 9
M  V30 29 1 33 12
M  V30 30 1 33 27
M  V30 31 1 34 23
M  V30 32 1 35 9
M  V30 33 1 36 16
M  V30 34 1 36 17
M  V30 35 1 36 34
M  V30 36 1 37 23
M  V30 37 1 37 25
M  V30 38 1 37 35
M  V30 39 1 38 11
M  V30 40 1 38 18
M  V30 41 1 39 1
M  V30 42 1 39 3
M  V30 43 1 39 5
M  V30 44 1 40 1
M  V30 45 1 41 1
M  V30 46 1 42 1
M  V30 47 1 2 43 CFG=1
M  V30 48 1 44 3
M  V30 49 1 45 3
M  V30 50 1 46 4
M  V30 51 1 47 5
M  V30 52 1 48 5
M  V30 53 1 49 5
M  V30 54 1 50 7
M  V30 55 1 51 8
M  V30 56 1 52 9
M  V30 57 1 53 9
M  V30 58 1 54 10
M  V30 59 1 55 10
M  V30 60 1 56 10
M  V30 61 1 12 57 CFG=1
M  V30 62 1 13 58 CFG=3
M  V30 63 1 59 14
M  V30 64 1 60 14
M  V30 65 1 61 15
M  V30 66 1 16 62 CFG=1
M  V30 67 1 17 63 CFG=1
M  V30 68 1 64 18
M  V30 69 1 65 18
M  V30 70 1 19 66 CFG=3
M  V30 71 1 67 21
M  V30 72 1 68 21
M  V30 73 1 69 23
M  V30 74 1 70 24
M  V30 75 1 71 25
M  V30 76 1 72 25
M  V30 77 1 73 26
M  V30 78 1 74 28
M  V30 79 1 75 28
M  V30 80 1 76 29
M  V30 81 1 30 77 CFG=1
M  V30 82 1 78 31
M  V30 83 1 79 32
M  V30 84 1 33 80 CFG=3
M  V30 85 1 81 34
M  V30 86 1 82 34
M  V30 87 1 83 35
M  V30 88 1 84 35
M  V30 89 1 36 85 CFG=1
M  V30 90 1 37 86 CFG=1
M  V30 91 1 87 38
M  V30 92 1 88 39
M  V30 93 1 89 15
M  V30 94 1 90 38
M  V30 95 1 91 23
M  V30 96 1 92 32
M  V30 97 1 27 93 CFG=3
M  V30 END BOND
M  V30 END CTAB
M  END
>  <i_epik_Tot_Q>  (1) 
4

>  <i_epik_Tot_abs_Q>  (1) 
6

>  <i_i_glide_confnum>  (1) 
2836

>  <i_i_glide_lignum>  (1) 
37

>  <i_i_glide_posenum>  (1) 
72

>  <i_i_glide_rotatable_bonds>  (1) 
14

>  <i_lp_mmshare_version>  (1) 
72125

>  <i_m_source_file_index>  (1) 
18

>  <i_f3d_flags>  (1) 
0

>  <num_sample>  (1) 
50

>  <b_lp_Chiralities_Consistent>  (1) 
1

>  <r_epik_Charging_Adjusted_Penalty>  (1) 
1.4553498192604928

>  <r_epik_Ionization_Penalty>  (1) 
1.1481457817152785

>  <r_epik_Ionization_Penalty_Charging>  (1) 
0.48043644912001532

>  <r_epik_Ionization_Penalty_Neutral>  (1) 
0.66770933259526311

>  <r_epik_State_Penalty>  (1) 
0.97491337014047741

>  <r_glide_ring_energy>  (1) 
0.0045750838620950583

>  <r_i_docking_score>  (1) 
-7.7582702201329479

>  <r_i_glide_ecoul>  (1) 
-14.009126913320175

>  <r_i_glide_eff_state_penalty>  (1) 
0.97491337014047741

>  <r_i_glide_einternal>  (1) 
12.778536016300947

>  <r_i_glide_emodel>  (1) 
-79.350599746357773

>  <r_i_glide_emodel_strain>  (1) 
3.2830433838986721

>  <r_i_glide_energy>  (1) 
-49.615847237955137

>  <r_i_glide_erotb>  (1) 
0.56146573491919982

>  <r_i_glide_esite>  (1) 
-0.1723142710822618

>  <r_i_glide_evdw>  (1) 
-35.606720324634964

>  <r_i_glide_gscore>  (1) 
-8.7331835902734252

>  <r_i_glide_gscore_strain>  (1) 
0

>  <r_i_glide_hbond>  (1) 
-0.16

>  <r_i_glide_ligand_efficiency>  (1) 
-0.19893000564443455

>  <r_i_glide_ligand_efficiency_ln>  (1) 
-1.6635933667933054

>  <r_i_glide_ligand_efficiency_sa>  (1) 
-0.67461371150027938

>  <r_i_glide_lipo>  (1) 
-3.730630000880589

>  <r_i_glide_metal>  (1) 
-0

>  <r_i_glide_rewards>  (1) 
-1.3500000000000001

>  <r_lp_Energy>  (1) 
72.301324999999991

>  <s_epik_Chemistry_Notes>  (1) 
This compound contains an acetal/aminal-like group ( X-CH(R)-Y where X, Y are N, S, or O) that may be acid/base labile, releasing an aldehyde.

>  <s_epik_cmdline>  (1) 
J2VwaWtfcHl0aG9uJywgJy1waHQnLCAnMS4wJywgJy1waCcsICc3LjQnLCAnLXRuJywgJzgnLCAnLW1hJywgJzUwMCcsICctaW1hZScsICc8aW5maWxlLm1hZT4nLCAnLW9tYWUnLCAnPG91dGZpbGUubWFlPic=

>  <s_epik_input>  (1) 
W05IXTFbQ0gyXVtDSDJdW05IXU4xW0NAQEhdKFtDSDJdW0NIXShbQ0gzXSlbQ0gzXSlbQ0BASF0oW09IXSlbTkhdW0NASF0oW0NIMl1bT0hdKVtDSDJdW0NAQEhdMltDSDJdW0NASF0oW0NIMl1bQ0gyXVtDQEBIXShOMjMpW0NIXTNbQ0gzXSlbTkhdW0NIMl1bQ0BASF0oW0NASF0oTzQpW1NIXSlbQ0BIXShDND01KVtDSF09W0NIXVtDSF09W0NIXVtDSF01

>  <s_glide_docking_method>  (1) 
confgen

>  <s_i_glide_gridfile>  (1) 
gpcr_5ht2c_6bqh_protein_autoprepared_prepared

>  <s_lp_Force_Field>  (1) 
S-OPLS

>  <s_lp_Variant>  (1) 
DiffSBDD_17-4

>  <s_m_source_file>  (1) 
generated_GPCR_5HT2C_ligand_DiffSBDD_2026-06-23_prepared.sdf

>  <GenAI_Model>  (1) 
DiffSBDD

>  <Protein>  (1) 
GPCR_5HT2C

$$$$
DiffSBDD_16
     RDKit          3D

  0  0  0  0  0  0  0  0  0  0999 V3000
M  V30 BEGIN CTAB
M  V30 COUNTS 73 79 0 0 1
M  V30 BEGIN ATOM
M  V30 1 C 38.918142 35.411491 61.638237 0
M  V30 2 C 39.603778 30.478130 61.092618 0
M  V30 3 C 38.592228 31.240019 55.630132 0 CFG=2
M  V30 4 C 40.571975 34.081101 63.114543 0 CFG=1
M  V30 5 C 38.715149 32.806722 57.805971 0
M  V30 6 C 43.464660 31.228806 66.546977 0
M  V30 7 C 38.752999 29.364544 53.337674 0 CFG=2
M  V30 8 N 38.808163 28.342205 54.420773 0
M  V30 9 C 37.715538 29.989507 55.955088 0 CFG=1
M  V30 10 F 38.560062 37.668570 61.983769 0
M  V30 11 C 39.969515 36.496742 63.540769 0
M  V30 12 C 41.560900 30.537613 65.005918 0 CFG=2
M  V30 13 C 40.625106 35.380784 63.913794 0
M  V30 14 O 40.052178 29.383507 61.436296 0
M  V30 15 C 39.644514 26.649618 52.666541 0
M  V30 16 C 39.477791 27.053509 54.135665 0
M  V30 17 C 38.747930 28.812287 51.901764 0
M  V30 18 O 40.561734 32.858488 63.854797 0
M  V30 19 O 36.445167 30.137749 55.367716 0
M  V30 20 C 38.326801 28.590821 55.671272 0
M  V30 21 C 39.142233 36.518514 62.357236 0
M  V30 22 C 40.732393 30.808760 66.252032 0 CFG=1
M  V30 23 C 41.149033 29.449212 65.974144 0 CFG=2
M  V30 24 C 42.833005 30.327026 67.658950 0
M  V30 25 C 39.958842 30.915044 55.002508 0
M  V30 26 C 40.420754 31.705463 63.094848 0
M  V30 27 C 43.037774 30.890777 65.079721 0
M  V30 28 C 38.715281 32.106767 56.809377 0
M  V30 29 C 38.122401 32.985837 60.264730 0
M  V30 30 C 39.518795 34.130312 62.012544 0
M  V30 31 C 39.161967 32.984304 61.396899 0
M  V30 32 C 41.373531 29.999668 67.366664 0 CFG=1
M  V30 33 O 38.377668 27.755372 56.575598 0
M  V30 34 C 39.844704 27.789752 51.676147 0
M  V30 35 N 40.984168 30.576807 63.674282 0
M  V30 36 C 39.816222 30.465894 53.543305 0
M  V30 37 C 38.633632 33.670120 58.984261 0
M  V30 38 C 39.753787 31.736251 61.897449 0
M  V30 39 H 38.270969 35.474366 60.780521 0
M  V30 40 H 39.067054 30.593529 60.155386 0
M  V30 41 H 38.058106 31.872786 54.918369 0
M  V30 42 H 41.531577 34.066767 62.594224 0
M  V30 43 H 44.552011 31.226186 66.631342 0
M  V30 44 H 43.158152 32.257920 66.745270 0
M  V30 45 H 37.787171 29.859513 53.382750 0
M  V30 46 H 37.498584 29.968329 57.026029 0
M  V30 47 H 40.053992 37.390165 64.141095 0
M  V30 48 H 41.236138 35.384785 64.804855 0
M  V30 49 H 40.444195 25.911915 52.569569 0
M  V30 50 H 38.729289 26.145986 52.401883 0
M  V30 51 H 40.444881 27.041677 54.637454 0
M  V30 52 H 38.922945 26.246547 54.616850 0
M  V30 53 H 38.846480 29.622686 51.178904 0
M  V30 54 H 37.781274 28.344685 51.700474 0
M  V30 55 H 35.986240 30.813051 55.884309 0
M  V30 56 H 39.653416 30.938192 66.197936 0
M  V30 57 H 40.312274 28.784471 65.763198 0
M  V30 58 H 43.385776 29.390680 67.736948 0
M  V30 59 H 42.904746 30.819786 68.628896 0
M  V30 60 H 40.445207 30.143968 55.593727 0
M  V30 61 H 40.640595 31.756980 55.039895 0
M  V30 62 H 43.614350 30.044593 64.704580 0
M  V30 63 H 43.245051 31.736180 64.424297 0
M  V30 64 H 37.257600 33.540976 60.630894 0
M  V30 65 H 37.672819 32.016045 60.058453 0
M  V30 66 H 40.767666 29.597518 68.177030 0
M  V30 67 H 40.829785 28.246068 51.767636 0
M  V30 68 H 39.783708 27.402942 50.658302 0
M  V30 69 H 40.878981 29.687689 63.197629 0
M  V30 70 H 40.788233 30.138062 53.190173 0
M  V30 71 H 39.558462 31.327087 52.924532 0
M  V30 72 H 39.617517 34.116916 59.132535 0
M  V30 73 H 37.943783 34.469816 58.713854 0
M  V30 END ATOM
M  V30 BEGIN BOND
M  V30 1 1 8 7
M  V30 2 1 9 3
M  V30 3 1 13 4
M  V30 4 2 13 11
M  V30 5 2 14 2
M  V30 6 1 16 8
M  V30 7 1 16 15
M  V30 8 1 17 7
M  V30 9 1 18 4
M  V30 10 1 19 9
M  V30 11 1 20 8
M  V30 12 1 20 9
M  V30 13 2 21 1
M  V30 14 1 21 10
M  V30 15 1 21 11
M  V30 16 1 22 12
M  V30 17 1 23 12
M  V30 18 1 23 22
M  V30 19 1 24 6
M  V30 20 1 25 3
M  V30 21 1 26 18
M  V30 22 1 27 6
M  V30 23 1 27 12
M  V30 24 1 28 3
M  V30 25 3 28 5
M  V30 26 1 30 1
M  V30 27 1 30 4
M  V30 28 1 31 29
M  V30 29 2 31 30
M  V30 30 1 32 22
M  V30 31 1 32 23
M  V30 32 1 32 24
M  V30 33 2 33 20
M  V30 34 1 34 15
M  V30 35 1 34 17
M  V30 36 1 12 35 CFG=3
M  V30 37 1 35 26
M  V30 38 1 36 7
M  V30 39 1 36 25
M  V30 40 1 37 5
M  V30 41 1 37 29
M  V30 42 1 38 2
M  V30 43 2 38 26
M  V30 44 1 38 31
M  V30 45 1 39 1
M  V30 46 1 40 2
M  V30 47 1 3 41 CFG=3
M  V30 48 1 4 42 CFG=3
M  V30 49 1 43 6
M  V30 50 1 44 6
M  V30 51 1 7 45 CFG=1
M  V30 52 1 9 46 CFG=1
M  V30 53 1 47 11
M  V30 54 1 48 13
M  V30 55 1 49 15
M  V30 56 1 50 15
M  V30 57 1 51 16
M  V30 58 1 52 16
M  V30 59 1 53 17
M  V30 60 1 54 17
M  V30 61 1 55 19
M  V30 62 1 22 56 CFG=1
M  V30 63 1 23 57 CFG=3
M  V30 64 1 58 24
M  V30 65 1 59 24
M  V30 66 1 60 25
M  V30 67 1 61 25
M  V30 68 1 62 27
M  V30 69 1 63 27
M  V30 70 1 64 29
M  V30 71 1 65 29
M  V30 72 1 32 66 CFG=1
M  V30 73 1 67 34
M  V30 74 1 68 34
M  V30 75 1 69 35
M  V30 76 1 70 36
M  V30 77 1 71 36
M  V30 78 1 72 37
M  V30 79 1 73 37
M  V30 END BOND
M  V30 END CTAB
M  END
>  <i_epik_Tot_Q>  (1) 
0

>  <i_epik_Tot_abs_Q>  (1) 
0

>  <i_i_glide_confnum>  (1) 
6

>  <i_i_glide_lignum>  (1) 
32

>  <i_i_glide_posenum>  (1) 
283

>  <i_i_glide_rotatable_bonds>  (1) 
8

>  <i_lp_mmshare_version>  (1) 
72125

>  <i_m_source_file_index>  (1) 
17

>  <i_f3d_flags>  (1) 
0

>  <num_sample>  (1) 
50

>  <b_lp_Chiralities_Consistent>  (1) 
1

>  <r_epik_Charging_Adjusted_Penalty>  (1) 
0

>  <r_epik_Ionization_Penalty>  (1) 
0.0025850422907693063

>  <r_epik_Ionization_Penalty_Charging>  (1) 
0

>  <r_epik_Ionization_Penalty_Neutral>  (1) 
0.0025850422907693063

>  <r_epik_State_Penalty>  (1) 
-0

>  <r_glide_ring_energy>  (1) 
1.1523545681465099

>  <r_i_docking_score>  (1) 
-7.735702009259251

>  <r_i_glide_ecoul>  (1) 
-6.5637197905062328

>  <r_i_glide_eff_state_penalty>  (1) 
-0

>  <r_i_glide_einternal>  (1) 
16.349999321554883

>  <r_i_glide_emodel>  (1) 
-61.671495150644276

>  <r_i_glide_emodel_strain>  (1) 
0.71442194258945335

>  <r_i_glide_energy>  (1) 
-46.41152718568312

>  <r_i_glide_erotb>  (1) 
0.45816569176433508

>  <r_i_glide_esite>  (1) 
0

>  <r_i_glide_evdw>  (1) 
-39.847807395176886

>  <r_i_glide_gscore>  (1) 
-7.735702009259251

>  <r_i_glide_gscore_strain>  (1) 
0

>  <r_i_glide_hbond>  (1) 
-0.16

>  <r_i_glide_ligand_efficiency>  (1) 
-0.20357110550682239

>  <r_i_glide_ligand_efficiency_ln>  (1) 
-1.6680449144939773

>  <r_i_glide_ligand_efficiency_sa>  (1) 
-0.68440105024881404

>  <r_i_glide_lipo>  (1) 
-3.7960435049890799

>  <r_i_glide_metal>  (1) 
-0

>  <r_i_glide_rewards>  (1) 
-1.2608758576997268

>  <r_lp_Energy>  (1) 
75.165026999999995

>  <r_lp_tautomer_probability>  (1) 
1

>  <s_epik_cmdline>  (1) 
J2VwaWtfcHl0aG9uJywgJy1waHQnLCAnMS4wJywgJy1waCcsICc3LjQnLCAnLXRuJywgJzgnLCAnLW1hJywgJzUwMCcsICctaW1hZScsICc8aW5maWxlLm1hZT4nLCAnLW9tYWUnLCAnPG91dGZpbGUubWFlPic=

>  <s_epik_input>  (1) 
W0NIMl0xW0NIMl1bQ0gyXVtDQEBIXTJbQ0BIXTNbQ0BASF0yW0NAQF0xM1tOSF1DKE80KT1DKFtDSF09TylDKD1DKFtDQEhdNDUpW0NIXT1DKEYpW0NIXT1bQ0hdNSlbQ0gyXVtDSDJdQyNDW0NAQEhdKFtDSDJdW0NIMl02KVtDQEBIXShbT0hdKUMoPU8pTihbQ0BASF02NylbQ0gyXVtDSDJdW0NIMl1bQ0gyXTc=

>  <s_glide_docking_method>  (1) 
confgen

>  <s_i_glide_gridfile>  (1) 
gpcr_5ht2c_6bqh_protein_autoprepared_prepared

>  <s_lp_Force_Field>  (1) 
S-OPLS

>  <s_lp_Variant>  (1) 
DiffSBDD_16-1

>  <s_m_source_file>  (1) 
generated_GPCR_5HT2C_ligand_DiffSBDD_2026-06-23_prepared.sdf

>  <GenAI_Model>  (1) 
DiffSBDD

>  <Protein>  (1) 
GPCR_5HT2C

$$$$
DiffSBDD_29
     RDKit          3D

  0  0  0  0  0  0  0  0  0  0999 V3000
M  V30 BEGIN CTAB
M  V30 COUNTS 78 81 0 0 1
M  V30 BEGIN ATOM
M  V30 1 C 38.386793 26.929386 57.046215 0 CFG=1
M  V30 2 C 37.360260 36.004754 59.367688 0
M  V30 3 C 36.479346 34.904711 61.406868 0
M  V30 4 C 38.751800 28.104396 53.343341 0
M  V30 5 C 36.236592 35.211181 59.987037 0 CFG=2
M  V30 6 C 36.308911 23.903936 55.767879 0
M  V30 7 C 37.833725 32.020924 60.261179 0
M  V30 8 C 36.445421 37.501296 62.037599 0
M  V30 9 N 39.201772 29.379234 58.515501 0
M  V30 10 O 36.422272 33.819402 59.455683 0
M  V30 11 C 40.001737 29.365970 51.149529 0
M  V30 12 C 37.514762 37.861177 61.028887 0
M  V30 13 C 36.013624 30.269269 59.606297 0
M  V30 14 N 38.045202 31.029240 57.493710 0
M  V30 15 N 38.957235 27.286400 55.718084 0 CFG=1 CHG=1
M  V30 16 C 37.245406 37.494884 59.582463 0
M  V30 17 C 38.510416 29.548753 59.831928 0
M  V30 18 C 38.999437 30.130634 57.388772 0
M  V30 19 N 36.720812 32.883794 60.577236 0
M  V30 20 C 39.645103 30.118580 52.282437 0
M  V30 21 C 37.785286 25.489639 57.119694 0
M  V30 22 C 39.659613 26.957154 57.935743 0 CFG=1
M  V30 23 C 40.156406 26.456025 55.573139 0
M  V30 24 C 39.007934 29.492899 53.373058 0
M  V30 25 C 36.488096 36.019296 62.463346 0
M  V30 26 C 39.118188 27.353645 52.209094 0
M  V30 27 C 40.696394 26.313049 57.007608 0
M  V30 28 O 39.640742 29.965738 56.357751 0
M  V30 29 C 37.396803 30.552436 60.219077 0 CFG=1
M  V30 30 C 38.074274 27.418617 54.530617 0
M  V30 31 C 36.419993 25.268844 56.466255 0
M  V30 32 C 36.729091 33.675141 61.630940 0
M  V30 33 O 38.552784 38.422274 61.367730 0
M  V30 34 C 40.197758 28.312056 58.481515 0
M  V30 35 C 39.731475 27.985992 51.110372 0
M  V30 36 H 37.632985 27.646751 57.368916 0
M  V30 37 H 37.293619 35.819788 58.297872 0
M  V30 38 H 38.310622 35.634228 59.767810 0
M  V30 39 H 35.245170 35.579233 59.748070 0
M  V30 40 H 35.308613 23.737696 55.368213 0
M  V30 41 H 37.015666 23.812785 54.942069 0
M  V30 42 H 36.504168 23.094071 56.468940 0
M  V30 43 H 38.320441 32.396489 59.366685 0
M  V30 44 H 38.591584 32.127958 61.039762 0
M  V30 45 H 35.489815 37.795485 61.619006 0
M  V30 46 H 36.582440 38.125667 62.920174 0
M  V30 47 H 40.478906 29.847821 50.307802 0
M  V30 48 H 35.912517 30.537287 58.566498 0
M  V30 49 H 35.748140 29.219295 59.693191 0
M  V30 50 H 35.245657 30.839868 60.126472 0
M  V30 51 H 37.521840 31.113730 58.353772 0
M  V30 52 H 37.814934 31.620858 56.705985 0
M  V30 53 H 36.221394 37.737772 59.321422 0
M  V30 54 H 37.924752 38.043604 58.930162 0
M  V30 55 H 39.313511 29.720064 60.551093 0
M  V30 56 H 38.133616 28.557039 60.084082 0
M  V30 57 H 39.847448 31.180244 52.311137 0
M  V30 58 H 38.485567 24.748996 56.736353 0
M  V30 59 H 37.666222 25.215169 58.167883 0
M  V30 60 H 39.507893 26.327765 58.813814 0
M  V30 61 H 40.845038 26.937726 54.896672 0
M  V30 62 H 39.907873 25.483365 55.145810 0
M  V30 63 H 38.718235 30.078902 54.227429 0
M  V30 64 H 35.707861 35.818748 63.198301 0
M  V30 65 H 37.447904 35.912210 62.967937 0
M  V30 66 H 38.924524 26.297247 52.178191 0
M  V30 67 H 41.686452 26.753783 57.106605 0
M  V30 68 H 40.782304 25.266001 57.280022 0
M  V30 69 H 37.230162 30.355158 61.277530 0
M  V30 70 H 37.707661 26.440795 54.218143 0
M  V30 71 H 37.215011 28.023052 54.805470 0
M  V30 72 H 35.644687 25.337811 57.227418 0
M  V30 73 H 36.196416 26.063763 55.767910 0
M  V30 74 H 36.981580 33.223576 62.567751 0
M  V30 75 H 41.064333 28.660962 57.917056 0
M  V30 76 H 40.600071 28.155079 59.482848 0
M  V30 77 H 40.003950 27.407776 50.240499 0
M  V30 78 H 39.317692 28.227825 55.859289 0
M  V30 END ATOM
M  V30 BEGIN BOND
M  V30 1 1 5 2
M  V30 2 1 5 3
M  V30 3 1 10 5
M  V30 4 1 12 8
M  V30 5 1 15 1
M  V30 6 1 16 2
M  V30 7 1 16 12
M  V30 8 1 17 9
M  V30 9 1 18 9
M  V30 10 1 18 14
M  V30 11 1 19 7
M  V30 12 1 19 10
M  V30 13 2 20 11
M  V30 14 1 21 1
M  V30 15 1 22 1
M  V30 16 1 23 15
M  V30 17 2 24 4
M  V30 18 1 24 20
M  V30 19 1 25 3
M  V30 20 1 25 8
M  V30 21 1 26 4
M  V30 22 1 27 22
M  V30 23 1 27 23
M  V30 24 2 28 18
M  V30 25 1 29 7
M  V30 26 1 29 13
M  V30 27 1 29 17
M  V30 28 1 30 4
M  V30 29 1 30 15
M  V30 30 1 31 6
M  V30 31 1 31 21
M  V30 32 2 32 3
M  V30 33 1 32 19
M  V30 34 2 33 12
M  V30 35 1 34 9
M  V30 36 1 34 22
M  V30 37 1 35 11
M  V30 38 2 35 26
M  V30 39 1 1 36 CFG=1
M  V30 40 1 37 2
M  V30 41 1 38 2
M  V30 42 1 5 39 CFG=1
M  V30 43 1 40 6
M  V30 44 1 41 6
M  V30 45 1 42 6
M  V30 46 1 43 7
M  V30 47 1 44 7
M  V30 48 1 45 8
M  V30 49 1 46 8
M  V30 50 1 47 11
M  V30 51 1 48 13
M  V30 52 1 49 13
M  V30 53 1 50 13
M  V30 54 1 51 14
M  V30 55 1 52 14
M  V30 56 1 53 16
M  V30 57 1 54 16
M  V30 58 1 55 17
M  V30 59 1 56 17
M  V30 60 1 57 20
M  V30 61 1 58 21
M  V30 62 1 59 21
M  V30 63 1 22 60 CFG=1
M  V30 64 1 61 23
M  V30 65 1 62 23
M  V30 66 1 63 24
M  V30 67 1 64 25
M  V30 68 1 65 25
M  V30 69 1 66 26
M  V30 70 1 67 27
M  V30 71 1 68 27
M  V30 72 1 29 69 CFG=1
M  V30 73 1 70 30
M  V30 74 1 71 30
M  V30 75 1 72 31
M  V30 76 1 73 31
M  V30 77 1 74 32
M  V30 78 1 75 34
M  V30 79 1 76 34
M  V30 80 1 77 35
M  V30 81 1 15 78 CFG=1
M  V30 END BOND
M  V30 END CTAB
M  END
>  <i_epik_Tot_Q>  (1) 
1

>  <i_epik_Tot_abs_Q>  (1) 
1

>  <i_i_glide_confnum>  (1) 
513

>  <i_i_glide_lignum>  (1) 
64

>  <i_i_glide_posenum>  (1) 
48

>  <i_i_glide_rotatable_bonds>  (1) 
11

>  <i_lp_mmshare_version>  (1) 
72125

>  <i_m_source_file_index>  (1) 
30

>  <i_f3d_flags>  (1) 
0

>  <num_sample>  (1) 
50

>  <b_lp_Chiralities_Consistent>  (1) 
1

>  <r_epik_Charging_Adjusted_Penalty>  (1) 
0.034972120206071468

>  <r_epik_Ionization_Penalty>  (1) 
0.01911812601903189

>  <r_epik_Ionization_Penalty_Charging>  (1) 
0.017486060103035727

>  <r_epik_Ionization_Penalty_Neutral>  (1) 
0.0016320659159961622

>  <r_epik_State_Penalty>  (1) 
0.017486060103035741

>  <r_glide_ring_energy>  (1) 
0

>  <r_i_docking_score>  (1) 
-7.7189394518159906

>  <r_i_glide_ecoul>  (1) 
-2.4287671209986197

>  <r_i_glide_eff_state_penalty>  (1) 
0.017486060103035741

>  <r_i_glide_einternal>  (1) 
15.608218717674063

>  <r_i_glide_emodel>  (1) 
-45.860793695143975

>  <r_i_glide_emodel_strain>  (1) 
2.3568852429590663

>  <r_i_glide_energy>  (1) 
-35.940657330615053

>  <r_i_glide_erotb>  (1) 
0.69426181123573816

>  <r_i_glide_esite>  (1) 
-0.12078567027047787

>  <r_i_glide_evdw>  (1) 
-33.511890209616432

>  <r_i_glide_gscore>  (1) 
-7.7364255119190259

>  <r_i_glide_gscore_strain>  (1) 
0

>  <r_i_glide_hbond>  (1) 
0

>  <r_i_glide_ligand_efficiency>  (1) 
-0.22054112719474259

>  <r_i_glide_ligand_efficiency_ln>  (1) 
-1.6944785223046628

>  <r_i_glide_ligand_efficiency_sa>  (1) 
-0.72140465117773922

>  <r_i_glide_lipo>  (1) 
-4.9403838478163227

>  <r_i_glide_metal>  (1) 
-0

>  <r_i_glide_rewards>  (1) 
-1.3296082264373488

>  <r_lp_Energy>  (1) 
30.748728

>  <r_lp_tautomer_probability>  (1) 
0.99999998000000001

>  <s_epik_Chemistry_Notes>  (1) 
This compound has a N-S or N-O group and may undergo hydrolysis at high or low pH.

>  <s_epik_cmdline>  (1) 
J2VwaWtfcHl0aG9uJywgJy1waHQnLCAnMS4wJywgJy1waCcsICc3LjQnLCAnLXRuJywgJzgnLCAnLW1hJywgJzUwMCcsICctaW1hZScsICc8aW5maWxlLm1hZT4nLCAnLW9tYWUnLCAnPG91dGZpbGUubWFlPic=

>  <s_epik_input>  (1) 
W2NIXTFbY0hdW2NIXVtjSF1bY0hdYzFbQ0gyXU4oW0NASF0yW0NIMl1bQ0gyXVtDSDNdKVtDSDJdW0NIMl1bQ0BIXTJbQ0gyXU4oQyg9TylbTkgyXSlbQ0gyXVtDQEhdKFtDSDNdKVtDSDJdTihbQ0hdMylPW0NAQEhdKEM9MzQpW0NIMl1bQ0gyXUMoPU8pW0NIMl1bQ0gyXTQ=

>  <s_glide_docking_method>  (1) 
confgen

>  <s_i_glide_gridfile>  (1) 
gpcr_5ht2c_6bqh_protein_autoprepared_prepared

>  <s_lp_Force_Field>  (1) 
S-OPLS

>  <s_lp_Variant>  (1) 
DiffSBDD_29-1

>  <s_m_source_file>  (1) 
generated_GPCR_5HT2C_ligand_DiffSBDD_2026-06-23_prepared.sdf

>  <GenAI_Model>  (1) 
DiffSBDD

>  <Protein>  (1) 
GPCR_5HT2C

$$$$
DiffSBDD_19
     RDKit          3D

  0  0  0  0  0  0  0  0  0  0999 V3000
M  V30 BEGIN CTAB
M  V30 COUNTS 69 71 0 0 1
M  V30 BEGIN ATOM
M  V30 1 O 39.739812 26.292073 57.502743 0
M  V30 2 C 38.160145 28.707346 53.319496 0
M  V30 3 C 36.851023 36.271330 59.899506 0
M  V30 4 C 39.714964 29.737725 51.744131 0
M  V30 5 C 38.290732 29.842082 54.178715 0
M  V30 6 C 37.244587 27.544427 53.682759 0
M  V30 7 C 41.068679 28.264842 59.070593 0
M  V30 8 C 38.620345 32.997005 58.453268 0
M  V30 9 C 37.186811 35.977839 61.346688 0 CFG=2
M  V30 10 N 38.598961 36.304143 61.578743 0
M  V30 11 F 39.820073 30.513262 49.558246 0
M  V30 12 C 39.151931 30.894356 53.813750 0
M  V30 13 F 41.701417 30.137685 50.565777 0
M  V30 14 C 38.950947 36.420017 62.976806 0
M  V30 15 C 37.782959 32.231119 59.490776 0 CFG=2
M  V30 16 C 36.521139 29.971301 59.139294 0
M  V30 17 C 39.189776 28.508360 56.660775 0
M  V30 18 O 39.658282 28.064281 59.015364 0
M  V30 19 O 37.091475 37.337686 59.341808 0
M  V30 20 C 38.875713 28.666705 52.105960 0
M  V30 21 C 39.129423 27.514622 57.846794 0 CFG=2
M  V30 22 C 37.482609 29.949021 55.472130 0
M  V30 23 N 36.203610 34.074133 60.167482 0
M  V30 24 C 40.445138 29.716461 50.422158 0
M  V30 25 C 39.860601 30.840375 52.603139 0
M  V30 26 C 37.857681 30.739975 59.050169 0 CFG=1
M  V30 27 O 40.045137 37.305384 62.967736 0
M  V30 28 C 38.565606 32.168207 57.176450 0
M  V30 29 C 38.587124 30.716066 57.679929 0 CFG=2
M  V30 30 N 36.319953 35.183272 59.367767 0
M  V30 31 N 38.173105 29.600459 56.758130 0 CFG=2 CHG=1
M  V30 32 C 36.848154 34.465528 61.434981 0
M  V30 33 N 36.404965 32.746583 59.655426 0
M  V30 34 H 39.635028 25.697580 58.230266 0
M  V30 35 H 37.573881 26.644518 53.161862 0
M  V30 36 H 37.237654 27.297877 54.741777 0
M  V30 37 H 36.223997 27.737754 53.359148 0
M  V30 38 H 41.328399 28.642007 60.059144 0
M  V30 39 H 41.622849 27.337853 58.922793 0
M  V30 40 H 41.419655 28.994954 58.344164 0
M  V30 41 H 38.286166 34.014282 58.272821 0
M  V30 42 H 39.645122 33.070805 58.810011 0
M  V30 43 H 36.532139 36.581607 61.977450 0
M  V30 44 H 38.813388 37.194947 61.151880 0
M  V30 45 H 39.253601 31.755127 54.453285 0
M  V30 46 H 39.235255 35.444929 63.370554 0
M  V30 47 H 38.149903 36.844444 63.584898 0
M  V30 48 H 38.277212 32.302618 60.457810 0
M  V30 49 H 35.721757 30.433066 58.567730 0
M  V30 50 H 36.615853 28.937753 58.817570 0
M  V30 51 H 36.172901 29.947607 60.167782 0
M  V30 52 H 39.000782 27.901619 55.782002 0
M  V30 53 H 40.196799 28.895008 56.509377 0
M  V30 54 H 38.767294 27.818769 51.444044 0
M  V30 55 H 38.089785 27.266438 58.064250 0
M  V30 56 H 36.600022 29.337761 55.367726 0
M  V30 57 H 37.024390 30.931311 55.486661 0
M  V30 58 H 40.445143 28.715208 49.993277 0
M  V30 59 H 40.502047 31.659227 52.319581 0
M  V30 60 H 38.519380 30.240127 59.758992 0
M  V30 61 H 40.520468 37.252161 63.788442 0
M  V30 62 H 37.645089 32.450748 56.675337 0
M  V30 63 H 39.401861 32.400592 56.518410 0
M  V30 64 H 39.635767 30.537754 57.916860 0
M  V30 65 H 36.041848 35.125093 58.395665 0
M  V30 66 H 37.743940 33.879949 61.630390 0
M  V30 67 H 36.134627 34.271696 62.233984 0
M  V30 68 H 35.877155 32.626616 58.787971 0
M  V30 69 H 37.414325 29.185875 57.279168 0
M  V30 END ATOM
M  V30 BEGIN BOND
M  V30 1 2 5 2
M  V30 2 1 6 2
M  V30 3 1 9 3
M  V30 4 1 10 9
M  V30 5 1 12 5
M  V30 6 1 14 10
M  V30 7 1 15 8
M  V30 8 1 18 7
M  V30 9 2 19 3
M  V30 10 1 20 2
M  V30 11 2 20 4
M  V30 12 1 21 1
M  V30 13 1 21 17
M  V30 14 1 21 18
M  V30 15 1 22 5
M  V30 16 1 24 4
M  V30 17 1 24 11
M  V30 18 1 24 13
M  V30 19 1 25 4
M  V30 20 2 25 12
M  V30 21 1 26 15
M  V30 22 1 26 16
M  V30 23 1 27 14
M  V30 24 1 28 8
M  V30 25 1 29 26
M  V30 26 1 29 28
M  V30 27 1 30 3
M  V30 28 1 30 23
M  V30 29 1 31 17
M  V30 30 1 31 22
M  V30 31 1 31 29
M  V30 32 1 32 9
M  V30 33 1 32 23
M  V30 34 1 33 15
M  V30 35 1 33 23
M  V30 36 1 34 1
M  V30 37 1 35 6
M  V30 38 1 36 6
M  V30 39 1 37 6
M  V30 40 1 38 7
M  V30 41 1 39 7
M  V30 42 1 40 7
M  V30 43 1 41 8
M  V30 44 1 42 8
M  V30 45 1 9 43 CFG=1
M  V30 46 1 44 10
M  V30 47 1 45 12
M  V30 48 1 46 14
M  V30 49 1 47 14
M  V30 50 1 15 48 CFG=1
M  V30 51 1 49 16
M  V30 52 1 50 16
M  V30 53 1 51 16
M  V30 54 1 52 17
M  V30 55 1 53 17
M  V30 56 1 54 20
M  V30 57 1 21 55 CFG=1
M  V30 58 1 56 22
M  V30 59 1 57 22
M  V30 60 1 58 24
M  V30 61 1 59 25
M  V30 62 1 26 60 CFG=1
M  V30 63 1 61 27
M  V30 64 1 62 28
M  V30 65 1 63 28
M  V30 66 1 29 64 CFG=1
M  V30 67 1 65 30
M  V30 68 1 66 32
M  V30 69 1 67 32
M  V30 70 1 68 33
M  V30 71 1 31 69 CFG=1
M  V30 END BOND
M  V30 END CTAB
M  END
>  <i_epik_Tot_Q>  (1) 
1

>  <i_epik_Tot_abs_Q>  (1) 
1

>  <i_i_glide_confnum>  (1) 
5149

>  <i_i_glide_lignum>  (1) 
42

>  <i_i_glide_posenum>  (1) 
353

>  <i_i_glide_rotatable_bonds>  (1) 
13

>  <i_lp_mmshare_version>  (1) 
72125

>  <i_m_source_file_index>  (1) 
20

>  <i_f3d_flags>  (1) 
0

>  <num_sample>  (1) 
50

>  <b_lp_Chiralities_Consistent>  (1) 
1

>  <r_epik_Charging_Adjusted_Penalty>  (1) 
0.46831319053283144

>  <r_epik_Ionization_Penalty>  (1) 
0.71387485365223857

>  <r_epik_Ionization_Penalty_Charging>  (1) 
0.049252262366849507

>  <r_epik_Ionization_Penalty_Neutral>  (1) 
0.66462259128538903

>  <r_epik_State_Penalty>  (1) 
0.41906092816598195

>  <r_glide_ring_energy>  (1) 
1.6719174487954083

>  <r_i_docking_score>  (1) 
-7.7162005523167272

>  <r_i_glide_ecoul>  (1) 
-6.8713257236391314

>  <r_i_glide_eff_state_penalty>  (1) 
0.41906092816598195

>  <r_i_glide_einternal>  (1) 
14.899319753421253

>  <r_i_glide_emodel>  (1) 
-69.770050188753771

>  <r_i_glide_emodel_strain>  (1) 
1.7376055247710411

>  <r_i_glide_energy>  (1) 
-53.442205859921792

>  <r_i_glide_erotb>  (1) 
0.81494899861877068

>  <r_i_glide_esite>  (1) 
-0.11072391087779208

>  <r_i_glide_evdw>  (1) 
-46.570880136282661

>  <r_i_glide_gscore>  (1) 
-8.1352614804827095

>  <r_i_glide_gscore_strain>  (1) 
0

>  <r_i_glide_hbond>  (1) 
-0.6262303823195966

>  <r_i_glide_ligand_efficiency>  (1) 
-0.23382425916111294

>  <r_i_glide_ligand_efficiency_ln>  (1) 
-1.7160430504869839

>  <r_i_glide_ligand_efficiency_sa>  (1) 
-0.74999933844511091

>  <r_i_glide_lipo>  (1) 
-2.7894849402276032

>  <r_i_glide_metal>  (1) 
-0

>  <r_i_glide_rewards>  (1) 
-2.0645283803164856

>  <r_lp_Energy>  (1) 
31.949607

>  <s_epik_Chemistry_Notes>  (1) 
This compound contains an acetal/aminal-like group ( X-CH(R)-Y where X, Y are N, S, or O) that may be acid/base labile, releasing an aldehyde.

>  <s_epik_cmdline>  (1) 
J2VwaWtfcHl0aG9uJywgJy1waHQnLCAnMS4wJywgJy1waCcsICc3LjQnLCAnLXRuJywgJzgnLCAnLW1hJywgJzUwMCcsICctaW1hZScsICc8aW5maWxlLm1hZT4nLCAnLW9tYWUnLCAnPG91dGZpbGUubWFlPic=

>  <s_epik_input>  (1) 
RltDSF0oRiljKFtjSF0xKVtjSF1bY0hdYyhjMVtDSDNdKVtDSDJdTihbQ0gyXVtDQEBIXShbT0hdKU9bQ0gzXSlbQ0BIXShbQ0BASF0yW0NIM10pW0NIMl1bQ0gyXVtDQEhdMltOSF1OKFtOSF0zKVtDSDJdW0NASF0oQzM9TylbTkhdW0NIMl1bT0hd

>  <s_glide_docking_method>  (1) 
confgen

>  <s_i_glide_gridfile>  (1) 
gpcr_5ht2c_6bqh_protein_autoprepared_prepared

>  <s_lp_Force_Field>  (1) 
S-OPLS

>  <s_lp_Variant>  (1) 
DiffSBDD_19-1

>  <s_m_source_file>  (1) 
generated_GPCR_5HT2C_ligand_DiffSBDD_2026-06-23_prepared.sdf

>  <GenAI_Model>  (1) 
DiffSBDD

>  <Protein>  (1) 
GPCR_5HT2C

$$$$
DiffSBDD_41
     RDKit          3D

  0  0  0  0  0  0  0  0  0  0999 V3000
M  V30 BEGIN CTAB
M  V30 COUNTS 71 75 0 0 1
M  V30 BEGIN ATOM
M  V30 1 C 37.588020 30.395774 54.692878 0
M  V30 2 O 38.051909 32.276963 60.755495 0
M  V30 3 C 37.589995 30.950859 60.515133 0 CFG=1
M  V30 4 C 39.579400 29.051567 61.759395 0
M  V30 5 C 38.051971 31.856787 54.649943 0
M  V30 6 C 39.711550 29.136471 56.816138 0
M  V30 7 C 37.483879 24.614618 55.221213 0
M  V30 8 C 37.788223 25.736505 54.432036 0
M  V30 9 C 40.590730 33.600892 63.060624 0
M  V30 10 C 38.883503 26.001219 58.512861 0
M  V30 11 C 36.204920 31.100928 59.867227 0
M  V30 12 C 40.523414 35.598957 62.095477 0
M  V30 13 N 41.065570 34.828350 63.049571 0
M  V30 14 C 38.617824 30.208064 59.585734 0 CFG=1
M  V30 15 C 38.541965 30.126702 57.108373 0
M  V30 16 C 39.636183 33.535288 62.000001 0
M  V30 17 O 41.428814 35.737763 65.222035 0
M  V30 18 O 40.919685 32.706416 63.841385 0
M  V30 19 C 38.863203 31.641670 57.003027 0
M  V30 20 C 39.235402 32.084379 55.585846 0
M  V30 21 N 39.033975 28.850418 60.385455 0 CFG=1 CHG=1
M  V30 22 O 40.791762 36.782763 61.911281 0
M  V30 23 O 37.977829 29.815046 58.398124 0
M  V30 24 C 38.420906 26.838240 55.006330 0
M  V30 25 C 40.013565 28.044318 59.624279 0
M  V30 26 C 42.045659 35.319137 64.023927 0
M  V30 27 C 38.734487 26.827330 56.375003 0
M  V30 28 C 38.966647 32.397308 61.766524 0
M  V30 29 C 37.813949 24.599638 56.591864 0
M  V30 30 C 38.080868 35.459825 61.259710 0
M  V30 31 N 39.312544 27.789839 57.206971 0
M  V30 32 C 39.487175 34.837767 61.212273 0 CFG=1
M  V30 33 C 37.393405 29.838560 56.117734 0
M  V30 34 C 39.414586 27.262975 58.499718 0
M  V30 35 C 38.447308 25.712447 57.201874 0
M  V30 36 H 38.322277 29.800771 54.153425 0
M  V30 37 H 36.642343 30.289738 54.167758 0
M  V30 38 H 37.405682 30.434809 61.448461 0
M  V30 39 H 40.416828 29.749899 61.747703 0
M  V30 40 H 38.844956 29.392740 62.481694 0
M  V30 41 H 39.941646 28.118295 62.190146 0
M  V30 42 H 38.318254 32.138197 53.630973 0
M  V30 43 H 37.245075 32.517883 54.951625 0
M  V30 44 H 39.991811 29.141467 55.762267 0
M  V30 45 H 40.603554 29.397773 57.367641 0
M  V30 46 H 36.996918 23.758802 54.775451 0
M  V30 47 H 37.535483 25.745176 53.381511 0
M  V30 48 H 38.800339 25.341072 59.356827 0
M  V30 49 H 35.769309 30.136988 59.600246 0
M  V30 50 H 35.510966 31.597741 60.544725 0
M  V30 51 H 36.260875 31.709155 58.967841 0
M  V30 52 H 39.523286 30.784836 59.435543 0
M  V30 53 H 41.596395 36.671787 65.316574 0
M  V30 54 H 37.981963 32.206220 57.314400 0
M  V30 55 H 39.645138 31.965236 57.670717 0
M  V30 56 H 40.114405 31.547117 55.231108 0
M  V30 57 H 39.494791 33.142829 55.592407 0
M  V30 58 H 38.654620 27.698614 54.403710 0
M  V30 59 H 40.481274 27.337727 60.296827 0
M  V30 60 H 40.846207 28.669506 59.305551 0
M  V30 61 H 42.622138 36.152219 63.620630 0
M  V30 62 H 42.772470 34.541151 64.264376 0
M  V30 63 H 39.083319 31.497138 62.339750 0
M  V30 64 H 37.575574 23.732250 57.188703 0
M  V30 65 H 37.799027 35.739376 62.275421 0
M  V30 66 H 38.030164 36.356329 60.641770 0
M  V30 67 H 37.325128 34.768365 60.887322 0
M  V30 68 H 39.853862 34.715099 60.193349 0
M  V30 69 H 37.245138 28.781849 56.033875 0
M  V30 70 H 36.445114 30.137754 56.535341 0
M  V30 71 H 38.210994 28.272671 60.480386 0
M  V30 END ATOM
M  V30 BEGIN BOND
M  V30 1 1 3 2
M  V30 2 1 5 1
M  V30 3 2 8 7
M  V30 4 1 11 3
M  V30 5 1 13 9
M  V30 6 1 13 12
M  V30 7 1 14 3
M  V30 8 1 15 6
M  V30 9 1 16 9
M  V30 10 2 18 9
M  V30 11 1 19 15
M  V30 12 1 20 5
M  V30 13 1 20 19
M  V30 14 1 21 4
M  V30 15 1 21 14
M  V30 16 2 22 12
M  V30 17 1 23 14
M  V30 18 1 23 15
M  V30 19 1 24 8
M  V30 20 1 25 21
M  V30 21 1 26 13
M  V30 22 1 26 17
M  V30 23 2 27 24
M  V30 24 1 28 2
M  V30 25 2 28 16
M  V30 26 1 29 7
M  V30 27 1 31 6
M  V30 28 1 31 27
M  V30 29 1 32 12
M  V30 30 1 32 16
M  V30 31 1 32 30
M  V30 32 1 33 1
M  V30 33 1 33 15
M  V30 34 2 34 10
M  V30 35 1 34 25
M  V30 36 1 34 31
M  V30 37 1 35 10
M  V30 38 1 35 27
M  V30 39 2 35 29
M  V30 40 1 36 1
M  V30 41 1 37 1
M  V30 42 1 3 38 CFG=1
M  V30 43 1 39 4
M  V30 44 1 40 4
M  V30 45 1 41 4
M  V30 46 1 42 5
M  V30 47 1 43 5
M  V30 48 1 44 6
M  V30 49 1 45 6
M  V30 50 1 46 7
M  V30 51 1 47 8
M  V30 52 1 48 10
M  V30 53 1 49 11
M  V30 54 1 50 11
M  V30 55 1 51 11
M  V30 56 1 14 52 CFG=3
M  V30 57 1 53 17
M  V30 58 1 54 19
M  V30 59 1 55 19
M  V30 60 1 56 20
M  V30 61 1 57 20
M  V30 62 1 58 24
M  V30 63 1 59 25
M  V30 64 1 60 25
M  V30 65 1 61 26
M  V30 66 1 62 26
M  V30 67 1 63 28
M  V30 68 1 64 29
M  V30 69 1 65 30
M  V30 70 1 66 30
M  V30 71 1 67 30
M  V30 72 1 32 68 CFG=3
M  V30 73 1 69 33
M  V30 74 1 70 33
M  V30 75 1 21 71 CFG=1
M  V30 END BOND
M  V30 END CTAB
M  END
>  <i_epik_Tot_Q>  (1) 
1

>  <i_epik_Tot_abs_Q>  (1) 
1

>  <i_i_glide_confnum>  (1) 
17

>  <i_i_glide_lignum>  (1) 
89

>  <i_i_glide_posenum>  (1) 
352

>  <i_i_glide_rotatable_bonds>  (1) 
5

>  <i_lp_mmshare_version>  (1) 
72125

>  <i_m_source_file_index>  (1) 
42

>  <i_f3d_flags>  (1) 
0

>  <num_sample>  (1) 
50

>  <b_lp_Chiralities_Consistent>  (1) 
1

>  <r_epik_Charging_Adjusted_Penalty>  (1) 
1.62722492853585

>  <r_epik_Ionization_Penalty>  (1) 
0.81369786534067623

>  <r_epik_Ionization_Penalty_Charging>  (1) 
0.81361246426792511

>  <r_epik_Ionization_Penalty_Neutral>  (1) 
8.5401072751167088e-05

>  <r_epik_State_Penalty>  (1) 
0.813612464267925

>  <r_glide_ring_energy>  (1) 
1.1929788391020448

>  <r_i_docking_score>  (1) 
-7.7097236795807369

>  <r_i_glide_ecoul>  (1) 
-3.1265368982596065

>  <r_i_glide_eff_state_penalty>  (1) 
0.813612464267925

>  <r_i_glide_einternal>  (1) 
7.1667761692920573

>  <r_i_glide_emodel>  (1) 
-69.649471281572119

>  <r_i_glide_emodel_strain>  (1) 
0.37304755058431027

>  <r_i_glide_energy>  (1) 
-47.661471829642728

>  <r_i_glide_erotb>  (1) 
0.34854586591334119

>  <r_i_glide_esite>  (1) 
0

>  <r_i_glide_evdw>  (1) 
-44.53493493138312

>  <r_i_glide_gscore>  (1) 
-8.5233361438486615

>  <r_i_glide_gscore_strain>  (1) 
0

>  <r_i_glide_hbond>  (1) 
-0.32000000000000001

>  <r_i_glide_ligand_efficiency>  (1) 
-0.2202778194165925

>  <r_i_glide_ligand_efficiency_ln>  (1) 
-1.6924554557659797

>  <r_i_glide_ligand_efficiency_sa>  (1) 
-0.7205433539754218

>  <r_i_glide_lipo>  (1) 
-3.7926113696810231

>  <r_i_glide_metal>  (1) 
-0

>  <r_i_glide_rewards>  (1) 
-2.0635433587728822

>  <r_lp_Energy>  (1) 
42.513731

>  <s_epik_Chemistry_Notes>  (1) 
This compound contains an acetal/aminal-like group ( X-CH(R)-Y where X, Y are N, S, or O) that may be acid/base labile, releasing an aldehyde.

>  <s_epik_cmdline>  (1) 
J2VwaWtfcHl0aG9uJywgJy1waHQnLCAnMS4wJywgJy1waCcsICc3LjQnLCAnLXRuJywgJzgnLCAnLW1hJywgJzUwMCcsICctaW1hZScsICc8aW5maWxlLm1hZT4nLCAnLW9tYWUnLCAnPG91dGZpbGUubWFlPic=

>  <s_epik_input>  (1) 
W0NIMl0xW0NIMl1bQ0gyXVtDSDJdW0NIMl1DMTJbQ0gyXW4zYzRjKFtjSF1bY0hdW2NIXVtjSF00KVtjSF1jM1tDSDJdTihbQ0gzXSlbQ0BASF0oTzIpW0NASF0oW0NIM10pT1xbQ0hdPUNcNVtDQEBIXShbQ0gzXSlDKD1PKU4oQzU9TylbQ0gyXVtPSF0=

>  <s_glide_docking_method>  (1) 
confgen

>  <s_i_glide_gridfile>  (1) 
gpcr_5ht2c_6bqh_protein_autoprepared_prepared

>  <s_lp_Force_Field>  (1) 
S-OPLS

>  <s_lp_Variant>  (1) 
DiffSBDD_41-3

>  <s_m_source_file>  (1) 
generated_GPCR_5HT2C_ligand_DiffSBDD_2026-06-23_prepared.sdf

>  <GenAI_Model>  (1) 
DiffSBDD

>  <Protein>  (1) 
GPCR_5HT2C

$$$$
DiffSBDD_17
     RDKit          3D

  0  0  0  0  0  0  0  0  0  0999 V3000
M  V30 BEGIN CTAB
M  V30 COUNTS 93 97 0 0 1
M  V30 BEGIN ATOM
M  V30 1 C 42.287851 33.707085 66.815808 0
M  V30 2 C 37.904260 32.504024 61.608725 0 CFG=2
M  V30 3 C 42.853863 31.479489 65.726142 0
M  V30 4 O 40.844788 29.539999 61.192923 0
M  V30 5 C 41.650964 31.567331 67.991655 0
M  V30 6 C 39.106404 27.697501 55.310388 0
M  V30 7 C 38.894978 27.416391 52.839101 0
M  V30 8 C 39.170611 26.950096 54.203890 0
M  V30 9 C 38.324296 33.542000 58.862350 0
M  V30 10 C 39.849774 35.105984 61.248169 0
M  V30 11 N 43.615910 29.495222 64.485545 0
M  V30 12 C 38.344410 35.114612 61.032107 0 CFG=2
M  V30 13 C 41.096155 29.884387 64.602115 0 CFG=1
M  V30 14 C 39.377513 32.160334 61.982776 0
M  V30 15 N 43.329805 28.203812 63.801866 0 CHG=1
M  V30 16 C 39.572882 28.242976 57.447838 0 CFG=2
M  V30 17 C 38.649695 29.094233 55.398897 0 CFG=2
M  V30 18 C 45.043079 27.865936 65.434878 0
M  V30 19 C 42.490869 30.015789 65.301323 0 CFG=2
M  V30 20 O 39.416314 27.174059 56.526744 0
M  V30 21 C 44.417000 27.283084 64.164022 0
M  V30 22 O 40.045360 30.040019 65.527735 0
M  V30 23 N 37.080533 29.896897 58.855353 0 CHG=1
M  V30 24 C 39.244990 30.077422 54.457413 0
M  V30 25 C 37.138055 31.449095 60.773059 0
M  V30 26 C 38.972662 28.699855 52.371587 0
M  V30 27 N 37.509170 33.917849 61.255190 0 CFG=1 CHG=1
M  V30 28 C 39.666879 29.566441 61.956799 0
M  V30 29 S 39.257169 27.798848 59.175100 0 CHG=-1
M  V30 30 C 39.590720 30.850652 62.801385 0 CFG=1
M  V30 31 C 39.344335 29.911646 53.129033 0
M  V30 32 N 40.808203 30.981405 63.643984 0 CHG=1
M  V30 33 C 37.637603 34.428030 59.887920 0 CFG=2
M  V30 34 C 37.272754 29.497225 57.441613 0
M  V30 35 C 37.460228 32.351199 58.474473 0
M  V30 36 C 38.725940 29.423266 56.902048 0 CFG=1
M  V30 37 C 37.709713 31.138128 59.368861 0 CFG=2
M  V30 38 N 44.814760 29.317950 65.338305 0 CHG=1
M  V30 39 C 41.853943 32.244897 66.626364 0
M  V30 40 H 43.199616 33.779182 67.407947 0
M  V30 41 H 42.468716 34.199699 65.859475 0
M  V30 42 H 41.516458 34.279766 67.333722 0
M  V30 43 H 37.401521 32.443841 62.570131 0
M  V30 44 H 43.809170 31.494184 66.251468 0
M  V30 45 H 43.022561 32.069524 64.825017 0
M  V30 46 H 40.683038 28.919444 60.480058 0
M  V30 47 H 42.572978 31.557818 68.573472 0
M  V30 48 H 40.897823 32.097976 68.575647 0
M  V30 49 H 41.312676 30.536357 67.893188 0
M  V30 50 H 38.666352 26.654759 52.108598 0
M  V30 51 H 39.459223 25.915927 54.323918 0
M  V30 52 H 39.325933 33.242572 59.162224 0
M  V30 53 H 38.445238 34.131679 57.955901 0
M  V30 54 H 40.265651 36.027856 60.840897 0
M  V30 55 H 40.084710 35.103090 62.312849 0
M  V30 56 H 40.361586 34.291545 60.747471 0
M  V30 57 H 37.836636 35.972816 61.468152 0
M  V30 58 H 40.970588 28.901453 64.160969 0
M  V30 59 H 39.730964 32.960977 62.627611 0
M  V30 60 H 40.022793 32.151767 61.105070 0
M  V30 61 H 42.445332 27.847952 64.135636 0
M  V30 62 H 40.624537 28.531696 57.396547 0
M  V30 63 H 37.604043 29.055774 55.089075 0
M  V30 64 H 46.094925 27.611594 65.556448 0
M  V30 65 H 44.510309 27.493330 66.311637 0
M  V30 66 H 42.443238 29.397427 66.199964 0
M  V30 67 H 45.146680 27.287444 63.352745 0
M  V30 68 H 44.047305 26.263836 64.291727 0
M  V30 69 H 39.447926 29.302342 65.452947 0
M  V30 70 H 37.464574 29.118408 59.383174 0
M  V30 71 H 39.554569 31.018470 54.888655 0
M  V30 72 H 37.051107 30.537317 61.356201 0
M  V30 73 H 36.099119 31.768026 60.671460 0
M  V30 74 H 38.795797 28.832326 51.312939 0
M  V30 75 H 38.832088 29.482974 61.279367 0
M  V30 76 H 39.610264 28.661042 62.559411 0
M  V30 77 H 38.737527 30.729185 63.461953 0
M  V30 78 H 39.728411 30.746166 52.559388 0
M  V30 79 H 41.583334 31.054176 63.001593 0
M  V30 80 H 36.676629 34.836225 59.579362 0
M  V30 81 H 36.846155 28.500513 57.367300 0
M  V30 82 H 36.665604 30.137714 56.807534 0
M  V30 83 H 37.647123 32.123092 57.425059 0
M  V30 84 H 36.412465 32.640904 58.567795 0
M  V30 85 H 39.239079 30.369870 57.077361 0
M  V30 86 H 38.781793 30.945472 59.421615 0
M  V30 87 H 45.588619 29.779976 64.876406 0
M  V30 88 H 40.888588 32.296797 66.128215 0
M  V30 89 H 43.321918 28.346792 62.794669 0
M  V30 90 H 44.637249 29.733553 66.243527 0
M  V30 91 H 36.083445 29.958629 59.002781 0
M  V30 92 H 40.745149 31.838681 64.174673 0
M  V30 93 H 36.595495 34.165403 61.611998 0
M  V30 END ATOM
M  V30 BEGIN BOND
M  V30 1 2 8 6
M  V30 2 1 8 7
M  V30 3 1 12 10
M  V30 4 1 14 2
M  V30 5 1 15 11
M  V30 6 1 17 6
M  V30 7 1 19 3
M  V30 8 1 19 11
M  V30 9 1 19 13
M  V30 10 1 20 6
M  V30 11 1 20 16
M  V30 12 1 21 15
M  V30 13 1 21 18
M  V30 14 1 22 13
M  V30 15 1 24 17
M  V30 16 1 25 2
M  V30 17 2 26 7
M  V30 18 1 27 2
M  V30 19 1 27 12
M  V30 20 1 28 4
M  V30 21 1 29 16
M  V30 22 1 30 14
M  V30 23 1 30 28
M  V30 24 2 31 24
M  V30 25 1 31 26
M  V30 26 1 32 13
M  V30 27 1 32 30
M  V30 28 1 33 9
M  V30 29 1 33 12
M  V30 30 1 33 27
M  V30 31 1 34 23
M  V30 32 1 35 9
M  V30 33 1 36 16
M  V30 34 1 36 17
M  V30 35 1 36 34
M  V30 36 1 37 23
M  V30 37 1 37 25
M  V30 38 1 37 35
M  V30 39 1 38 11
M  V30 40 1 38 18
M  V30 41 1 39 1
M  V30 42 1 39 3
M  V30 43 1 39 5
M  V30 44 1 40 1
M  V30 45 1 41 1
M  V30 46 1 42 1
M  V30 47 1 2 43 CFG=1
M  V30 48 1 44 3
M  V30 49 1 45 3
M  V30 50 1 46 4
M  V30 51 1 47 5
M  V30 52 1 48 5
M  V30 53 1 49 5
M  V30 54 1 50 7
M  V30 55 1 51 8
M  V30 56 1 52 9
M  V30 57 1 53 9
M  V30 58 1 54 10
M  V30 59 1 55 10
M  V30 60 1 56 10
M  V30 61 1 12 57 CFG=1
M  V30 62 1 13 58 CFG=3
M  V30 63 1 59 14
M  V30 64 1 60 14
M  V30 65 1 61 15
M  V30 66 1 16 62 CFG=1
M  V30 67 1 17 63 CFG=3
M  V30 68 1 64 18
M  V30 69 1 65 18
M  V30 70 1 19 66 CFG=1
M  V30 71 1 67 21
M  V30 72 1 68 21
M  V30 73 1 69 22
M  V30 74 1 70 23
M  V30 75 1 71 24
M  V30 76 1 72 25
M  V30 77 1 73 25
M  V30 78 1 74 26
M  V30 79 1 75 28
M  V30 80 1 76 28
M  V30 81 1 30 77 CFG=1
M  V30 82 1 78 31
M  V30 83 1 79 32
M  V30 84 1 33 80 CFG=3
M  V30 85 1 81 34
M  V30 86 1 82 34
M  V30 87 1 83 35
M  V30 88 1 84 35
M  V30 89 1 36 85 CFG=3
M  V30 90 1 37 86 CFG=1
M  V30 91 1 87 38
M  V30 92 1 88 39
M  V30 93 1 89 15
M  V30 94 1 90 38
M  V30 95 1 91 23
M  V30 96 1 92 32
M  V30 97 1 27 93 CFG=1
M  V30 END BOND
M  V30 END CTAB
M  END
>  <i_epik_Tot_Q>  (1) 
4

>  <i_epik_Tot_abs_Q>  (1) 
6

>  <i_i_glide_confnum>  (1) 
220

>  <i_i_glide_lignum>  (1) 
35

>  <i_i_glide_posenum>  (1) 
31

>  <i_i_glide_rotatable_bonds>  (1) 
14

>  <i_lp_mmshare_version>  (1) 
72125

>  <i_m_source_file_index>  (1) 
18

>  <i_f3d_flags>  (1) 
0

>  <num_sample>  (1) 
50

>  <b_lp_Chiralities_Consistent>  (1) 
1

>  <r_epik_Charging_Adjusted_Penalty>  (1) 
1.6052319346045403

>  <r_epik_Ionization_Penalty>  (1) 
1.3756208669108916

>  <r_epik_Ionization_Penalty_Charging>  (1) 
0.71181796891070681

>  <r_epik_Ionization_Penalty_Neutral>  (1) 
0.66380289800018477

>  <r_epik_State_Penalty>  (1) 
0.89341396569383336

>  <r_glide_ring_energy>  (1) 
0.0045750838620950583

>  <r_i_docking_score>  (1) 
-7.6891924366585052

>  <r_i_glide_ecoul>  (1) 
-14.071534957921086

>  <r_i_glide_eff_state_penalty>  (1) 
0.89341396569383336

>  <r_i_glide_einternal>  (1) 
6.7167654406271406

>  <r_i_glide_emodel>  (1) 
-84.610403200230806

>  <r_i_glide_emodel_strain>  (1) 
4.3793800485066186

>  <r_i_glide_energy>  (1) 
-56.917701852317109

>  <r_i_glide_erotb>  (1) 
0.56146573491919982

>  <r_i_glide_esite>  (1) 
-0.072510215995011174

>  <r_i_glide_evdw>  (1) 
-42.846166894396021

>  <r_i_glide_gscore>  (1) 
-8.5826064023523383

>  <r_i_glide_gscore_strain>  (1) 
0.094845012126654638

>  <r_i_glide_hbond>  (1) 
-0.60377321761393343

>  <r_i_glide_ligand_efficiency>  (1) 
-0.19715878042714116

>  <r_i_glide_ligand_efficiency_ln>  (1) 
-1.6487811291268919

>  <r_i_glide_ligand_efficiency_sa>  (1) 
-0.66860711227523872

>  <r_i_glide_lipo>  (1) 
-3.5899285796792162

>  <r_i_glide_metal>  (1) 
-0

>  <r_i_glide_rewards>  (1) 
-0.71966654770206695

>  <r_lp_Energy>  (1) 
83.500289999999993

>  <s_epik_Chemistry_Notes>  (1) 
This compound contains an acetal/aminal-like group ( X-CH(R)-Y where X, Y are N, S, or O) that may be acid/base labile, releasing an aldehyde.

>  <s_epik_cmdline>  (1) 
J2VwaWtfcHl0aG9uJywgJy1waHQnLCAnMS4wJywgJy1waCcsICc3LjQnLCAnLXRuJywgJzgnLCAnLW1hJywgJzUwMCcsICctaW1hZScsICc8aW5maWxlLm1hZT4nLCAnLW9tYWUnLCAnPG91dGZpbGUubWFlPic=

>  <s_epik_input>  (1) 
W05IXTFbQ0gyXVtDSDJdW05IXU4xW0NAQEhdKFtDSDJdW0NIXShbQ0gzXSlbQ0gzXSlbQ0BASF0oW09IXSlbTkhdW0NASF0oW0NIMl1bT0hdKVtDSDJdW0NAQEhdMltDSDJdW0NASF0oW0NIMl1bQ0gyXVtDQEBIXShOMjMpW0NIXTNbQ0gzXSlbTkhdW0NIMl1bQ0BASF0oW0NASF0oTzQpW1NIXSlbQ0BIXShDND01KVtDSF09W0NIXVtDSF09W0NIXVtDSF01

>  <s_glide_docking_method>  (1) 
confgen

>  <s_i_glide_gridfile>  (1) 
gpcr_5ht2c_6bqh_protein_autoprepared_prepared

>  <s_lp_Force_Field>  (1) 
S-OPLS

>  <s_lp_Variant>  (1) 
DiffSBDD_17-2

>  <s_m_source_file>  (1) 
generated_GPCR_5HT2C_ligand_DiffSBDD_2026-06-23_prepared.sdf

>  <GenAI_Model>  (1) 
DiffSBDD

>  <Protein>  (1) 
GPCR_5HT2C

$$$$
DiffSBDD_19
     RDKit          3D

  0  0  0  0  0  0  0  0  0  0999 V3000
M  V30 BEGIN CTAB
M  V30 COUNTS 70 72 0 0 1
M  V30 BEGIN ATOM
M  V30 1 O 42.812065 26.937738 58.940863 0
M  V30 2 C 39.358473 26.572403 54.682522 0
M  V30 3 C 36.743533 35.809898 59.896673 0
M  V30 4 C 39.088604 27.897735 52.650837 0
M  V30 5 C 38.641632 27.547826 55.416669 0
M  V30 6 C 39.891103 25.332788 55.359780 0
M  V30 7 C 43.540722 28.807604 57.111990 0
M  V30 8 C 38.654824 31.004224 60.155205 0
M  V30 9 C 37.575559 35.352893 61.080555 0 CFG=2
M  V30 10 N 38.803552 36.137777 61.278759 0
M  V30 11 F 38.845205 27.057782 50.488844 0
M  V30 12 C 38.134774 28.685434 54.750405 0
M  V30 13 F 38.850228 29.224859 50.693756 0
M  V30 14 C 39.514552 35.769860 62.488697 0
M  V30 15 C 37.540014 31.179779 59.097355 0 CFG=2
M  V30 16 C 38.912992 31.053193 56.918202 0
M  V30 17 C 40.429730 27.277575 58.390312 0
M  V30 18 O 42.242061 28.206242 57.154817 0
M  V30 19 O 36.529740 36.973519 59.584613 0
M  V30 20 C 39.580357 26.756402 53.304607 0
M  V30 21 C 41.878103 27.859417 58.431443 0 CFG=2
M  V30 22 C 38.411630 27.384401 56.916703 0
M  V30 23 N 36.763134 33.502045 59.700255 0
M  V30 24 C 39.347128 28.084934 51.168019 0
M  V30 25 C 38.361412 28.860810 53.374908 0
M  V30 26 C 37.992780 30.301625 57.916218 0 CFG=1
M  V30 27 O 40.731278 36.473890 62.418351 0
M  V30 28 C 39.448973 29.748907 59.781355 0
M  V30 29 C 38.666982 29.106647 58.635137 0 CFG=2
M  V30 30 N 36.311365 34.729272 59.261661 0
M  V30 31 N 39.401276 28.158454 57.731763 0 CFG=1 CHG=1
M  V30 32 C 37.839355 33.901842 60.637856 0
M  V30 33 N 37.245434 32.576951 58.685746 0 CHG=1
M  V30 34 H 43.298525 27.341291 59.658035 0
M  V30 35 H 40.045129 24.568344 54.603391 0
M  V30 36 H 40.845137 25.536258 55.836356 0
M  V30 37 H 39.201305 24.881687 56.068910 0
M  V30 38 H 43.649640 29.337786 56.167509 0
M  V30 39 H 43.686216 29.540548 57.904704 0
M  V30 40 H 44.328425 28.058287 57.194735 0
M  V30 41 H 39.357524 31.833385 60.162404 0
M  V30 42 H 38.230693 30.922634 61.157122 0
M  V30 43 H 36.946801 35.398226 61.970896 0
M  V30 44 H 39.429862 36.079940 60.489635 0
M  V30 45 H 37.575138 29.427490 55.294889 0
M  V30 46 H 39.716422 34.699255 62.527341 0
M  V30 47 H 38.951541 36.059855 63.376540 0
M  V30 48 H 36.616358 30.757386 59.499281 0
M  V30 49 H 39.643992 31.691892 57.402139 0
M  V30 50 H 39.476309 30.382753 56.272407 0
M  V30 51 H 38.321380 31.692702 56.260227 0
M  V30 52 H 40.103871 27.025581 59.398772 0
M  V30 53 H 40.506929 26.328730 57.864853 0
M  V30 54 H 40.133705 26.020126 52.746604 0
M  V30 55 H 41.940440 28.731226 59.072239 0
M  V30 56 H 38.349244 26.352652 57.249140 0
M  V30 57 H 37.396088 27.738477 57.092001 0
M  V30 58 H 40.419462 28.099609 50.974548 0
M  V30 59 H 37.980301 29.736750 52.878721 0
M  V30 60 H 37.106778 29.970077 57.374953 0
M  V30 61 H 40.868597 36.940368 63.233002 0
M  V30 62 H 40.428673 30.074176 59.455423 0
M  V30 63 H 39.577323 29.072186 60.628018 0
M  V30 64 H 37.872642 28.538501 59.122640 0
M  V30 65 H 35.716653 34.775949 58.443235 0
M  V30 66 H 38.800888 33.874515 60.122226 0
M  V30 67 H 37.879124 33.223349 61.489882 0
M  V30 68 H 36.506771 32.518430 57.980484 0
M  V30 69 H 38.061626 32.999786 58.269274 0
M  V30 70 H 39.925515 28.713352 57.068980 0
M  V30 END ATOM
M  V30 BEGIN BOND
M  V30 1 2 5 2
M  V30 2 1 6 2
M  V30 3 1 9 3
M  V30 4 1 10 9
M  V30 5 1 12 5
M  V30 6 1 14 10
M  V30 7 1 15 8
M  V30 8 1 18 7
M  V30 9 2 19 3
M  V30 10 1 20 2
M  V30 11 2 20 4
M  V30 12 1 21 1
M  V30 13 1 21 17
M  V30 14 1 21 18
M  V30 15 1 22 5
M  V30 16 1 24 4
M  V30 17 1 24 11
M  V30 18 1 24 13
M  V30 19 1 25 4
M  V30 20 2 25 12
M  V30 21 1 26 15
M  V30 22 1 26 16
M  V30 23 1 27 14
M  V30 24 1 28 8
M  V30 25 1 29 26
M  V30 26 1 29 28
M  V30 27 1 30 3
M  V30 28 1 30 23
M  V30 29 1 31 17
M  V30 30 1 31 22
M  V30 31 1 31 29
M  V30 32 1 32 9
M  V30 33 1 32 23
M  V30 34 1 33 15
M  V30 35 1 33 23
M  V30 36 1 34 1
M  V30 37 1 35 6
M  V30 38 1 36 6
M  V30 39 1 37 6
M  V30 40 1 38 7
M  V30 41 1 39 7
M  V30 42 1 40 7
M  V30 43 1 41 8
M  V30 44 1 42 8
M  V30 45 1 9 43 CFG=1
M  V30 46 1 44 10
M  V30 47 1 45 12
M  V30 48 1 46 14
M  V30 49 1 47 14
M  V30 50 1 15 48 CFG=1
M  V30 51 1 49 16
M  V30 52 1 50 16
M  V30 53 1 51 16
M  V30 54 1 52 17
M  V30 55 1 53 17
M  V30 56 1 54 20
M  V30 57 1 21 55 CFG=1
M  V30 58 1 56 22
M  V30 59 1 57 22
M  V30 60 1 58 24
M  V30 61 1 59 25
M  V30 62 1 26 60 CFG=3
M  V30 63 1 61 27
M  V30 64 1 62 28
M  V30 65 1 63 28
M  V30 66 1 29 64 CFG=1
M  V30 67 1 65 30
M  V30 68 1 66 32
M  V30 69 1 67 32
M  V30 70 1 68 33
M  V30 71 1 69 33
M  V30 72 1 31 70 CFG=3
M  V30 END BOND
M  V30 END CTAB
M  END
>  <i_epik_Tot_Q>  (1) 
2

>  <i_epik_Tot_abs_Q>  (1) 
2

>  <i_i_glide_confnum>  (1) 
3595

>  <i_i_glide_lignum>  (1) 
45

>  <i_i_glide_posenum>  (1) 
49

>  <i_i_glide_rotatable_bonds>  (1) 
13

>  <i_lp_mmshare_version>  (1) 
72125

>  <i_m_source_file_index>  (1) 
20

>  <i_f3d_flags>  (1) 
0

>  <num_sample>  (1) 
50

>  <b_lp_Chiralities_Consistent>  (1) 
1

>  <r_epik_Charging_Adjusted_Penalty>  (1) 
1.2214648146791087

>  <r_epik_Ionization_Penalty>  (1) 
0.73374573973567592

>  <r_epik_Ionization_Penalty_Charging>  (1) 
0.65422063123481433

>  <r_epik_Ionization_Penalty_Neutral>  (1) 
0.079525108500861627

>  <r_epik_State_Penalty>  (1) 
0.56724418344429428

>  <r_glide_ring_energy>  (1) 
0

>  <r_i_docking_score>  (1) 
-7.6774364310406673

>  <r_i_glide_ecoul>  (1) 
-11.165660562336081

>  <r_i_glide_eff_state_penalty>  (1) 
0.56724418344429428

>  <r_i_glide_einternal>  (1) 
4.7055608483020617

>  <r_i_glide_emodel>  (1) 
-64.558574849680681

>  <r_i_glide_emodel_strain>  (1) 
2.1489755758805558

>  <r_i_glide_energy>  (1) 
-39.042061055483671

>  <r_i_glide_erotb>  (1) 
0.81178529684743594

>  <r_i_glide_esite>  (1) 
-0.1189717172669925

>  <r_i_glide_evdw>  (1) 
-27.876400493147589

>  <r_i_glide_gscore>  (1) 
-8.2446806144849614

>  <r_i_glide_gscore_strain>  (1) 
0

>  <r_i_glide_hbond>  (1) 
-0.63085410399879072

>  <r_i_glide_ligand_efficiency>  (1) 
-0.23264958881941417

>  <r_i_glide_ligand_efficiency_ln>  (1) 
-1.7074221106250664

>  <r_i_glide_ligand_efficiency_sa>  (1) 
-0.74623154299768413

>  <r_i_glide_lipo>  (1) 
-2.9735434715118525

>  <r_i_glide_metal>  (1) 
-0

>  <r_i_glide_rewards>  (1) 
-2.2644275095469695

>  <r_lp_Energy>  (1) 
45.336860000000001

>  <s_epik_Chemistry_Notes>  (1) 
This compound contains an acetal/aminal-like group ( X-CH(R)-Y where X, Y are N, S, or O) that may be acid/base labile, releasing an aldehyde.

>  <s_epik_cmdline>  (1) 
J2VwaWtfcHl0aG9uJywgJy1waHQnLCAnMS4wJywgJy1waCcsICc3LjQnLCAnLXRuJywgJzgnLCAnLW1hJywgJzUwMCcsICctaW1hZScsICc8aW5maWxlLm1hZT4nLCAnLW9tYWUnLCAnPG91dGZpbGUubWFlPic=

>  <s_epik_input>  (1) 
RltDSF0oRiljKFtjSF0xKVtjSF1bY0hdYyhjMVtDSDNdKVtDSDJdTihbQ0gyXVtDQEBIXShbT0hdKU9bQ0gzXSlbQ0BIXShbQ0BASF0yW0NIM10pW0NIMl1bQ0gyXVtDQEhdMltOSF1OKFtOSF0zKVtDSDJdW0NASF0oQzM9TylbTkhdW0NIMl1bT0hd

>  <s_glide_docking_method>  (1) 
confgen

>  <s_i_glide_gridfile>  (1) 
gpcr_5ht2c_6bqh_protein_autoprepared_prepared

>  <s_lp_Force_Field>  (1) 
S-OPLS

>  <s_lp_Variant>  (1) 
DiffSBDD_19-4

>  <s_m_source_file>  (1) 
generated_GPCR_5HT2C_ligand_DiffSBDD_2026-06-23_prepared.sdf

>  <GenAI_Model>  (1) 
DiffSBDD

>  <Protein>  (1) 
GPCR_5HT2C

$$$$
DiffSBDD_41
     RDKit          3D

  0  0  0  0  0  0  0  0  0  0999 V3000
M  V30 BEGIN CTAB
M  V30 COUNTS 71 75 0 0 1
M  V30 BEGIN ATOM
M  V30 1 C 37.644503 25.693608 56.706381 0
M  V30 2 O 37.450204 31.641579 59.280740 0
M  V30 3 C 38.283730 30.537581 58.949170 0 CFG=1
M  V30 4 C 39.334537 32.181001 56.700549 0
M  V30 5 C 39.006547 25.075874 56.367989 0
M  V30 6 C 37.798979 28.343419 54.976617 0
M  V30 7 C 40.445137 29.265133 50.514737 0
M  V30 8 C 39.978573 28.023141 50.967922 0
M  V30 9 C 38.299128 34.774002 61.009212 0
M  V30 10 C 39.111965 31.337768 53.418254 0
M  V30 11 C 38.044906 29.392278 59.921586 0
M  V30 12 C 36.852026 35.918820 59.772432 0
M  V30 13 N 37.766614 35.951801 60.749386 0
M  V30 14 C 37.955665 30.079349 57.514010 0 CFG=1
M  V30 15 C 38.583530 28.056799 56.308685 0
M  V30 16 C 37.678299 33.852519 60.110451 0
M  V30 17 O 37.179230 37.337826 62.572463 0
M  V30 18 O 39.155949 34.541472 61.863164 0
M  V30 19 C 39.956363 27.413844 56.032892 0
M  V30 20 C 39.849887 25.989614 55.468281 0
M  V30 21 N 38.045110 31.463163 56.724774 0 CFG=2 CHG=1
M  V30 22 O 36.222587 36.894369 59.367681 0
M  V30 23 O 38.961486 29.255665 57.007916 0
M  V30 24 C 39.321145 27.934445 52.198153 0
M  V30 25 C 37.489137 31.334587 55.383012 0
M  V30 26 C 38.086739 37.166009 61.502160 0
M  V30 27 C 39.096588 29.099920 52.942927 0
M  V30 28 C 38.022666 32.553314 60.122558 0
M  V30 29 C 40.260171 30.417084 51.285529 0
M  V30 30 C 35.208216 33.975274 59.352565 0
M  V30 31 N 38.417197 29.333931 54.136272 0
M  V30 32 C 36.645963 34.492626 59.179256 0 CFG=1
M  V30 33 C 37.817260 27.109102 57.273215 0
M  V30 34 C 38.347643 30.715688 54.338070 0
M  V30 35 C 39.558040 30.365251 52.508368 0
M  V30 36 H 37.128071 25.065034 57.432885 0
M  V30 37 H 37.008904 25.714202 55.820956 0
M  V30 38 H 39.334118 30.799436 59.004400 0
M  V30 39 H 40.101291 31.523216 56.304035 0
M  V30 40 H 39.278974 33.054753 56.050696 0
M  V30 41 H 39.624249 32.550383 57.680712 0
M  V30 42 H 39.553082 24.860829 57.287015 0
M  V30 43 H 38.848046 24.126772 55.865742 0
M  V30 44 H 37.609857 27.438921 54.400412 0
M  V30 45 H 36.845137 28.778912 55.174996 0
M  V30 46 H 40.940129 29.337871 49.561590 0
M  V30 47 H 40.120375 27.137773 50.365234 0
M  V30 48 H 39.245164 32.382317 53.333067 0
M  V30 49 H 38.771024 28.593301 59.778487 0
M  V30 50 H 38.132942 29.738068 60.951364 0
M  V30 51 H 37.048789 28.982366 59.768077 0
M  V30 52 H 36.941625 29.685258 57.428929 0
M  V30 53 H 36.631597 38.087719 62.390021 0
M  V30 54 H 40.535030 28.048636 55.367787 0
M  V30 55 H 40.528391 27.370237 56.962010 0
M  V30 56 H 40.849028 25.578686 55.367904 0
M  V30 57 H 39.428172 26.002681 54.466427 0
M  V30 58 H 38.951196 26.983684 52.546131 0
M  V30 59 H 37.253697 32.348051 55.056897 0
M  V30 60 H 36.512915 30.853326 55.367993 0
M  V30 61 H 38.048802 38.046036 60.857252 0
M  V30 62 H 39.100882 37.128020 61.905347 0
M  V30 63 H 38.757270 32.113296 60.784292 0
M  V30 64 H 40.611540 31.365432 50.913671 0
M  V30 65 H 34.850349 34.101530 60.375159 0
M  V30 66 H 34.525308 34.512652 58.692791 0
M  V30 67 H 35.134426 32.917095 59.102507 0
M  V30 68 H 36.984418 34.446470 58.146377 0
M  V30 69 H 38.374657 27.021746 58.205259 0
M  V30 70 H 36.845325 27.503397 57.554439 0
M  V30 71 H 37.377298 32.077388 57.179743 0
M  V30 END ATOM
M  V30 BEGIN BOND
M  V30 1 1 3 2
M  V30 2 1 5 1
M  V30 3 2 8 7
M  V30 4 1 11 3
M  V30 5 1 13 9
M  V30 6 1 13 12
M  V30 7 1 14 3
M  V30 8 1 15 6
M  V30 9 1 16 9
M  V30 10 2 18 9
M  V30 11 1 19 15
M  V30 12 1 20 5
M  V30 13 1 20 19
M  V30 14 1 21 4
M  V30 15 1 21 14
M  V30 16 2 22 12
M  V30 17 1 23 14
M  V30 18 1 23 15
M  V30 19 1 24 8
M  V30 20 1 25 21
M  V30 21 1 26 13
M  V30 22 1 26 17
M  V30 23 2 27 24
M  V30 24 1 28 2
M  V30 25 2 28 16
M  V30 26 1 29 7
M  V30 27 1 31 6
M  V30 28 1 31 27
M  V30 29 1 32 12
M  V30 30 1 32 16
M  V30 31 1 32 30
M  V30 32 1 33 1
M  V30 33 1 33 15
M  V30 34 2 34 10
M  V30 35 1 34 25
M  V30 36 1 34 31
M  V30 37 1 35 10
M  V30 38 1 35 27
M  V30 39 2 35 29
M  V30 40 1 36 1
M  V30 41 1 37 1
M  V30 42 1 3 38 CFG=3
M  V30 43 1 39 4
M  V30 44 1 40 4
M  V30 45 1 41 4
M  V30 46 1 42 5
M  V30 47 1 43 5
M  V30 48 1 44 6
M  V30 49 1 45 6
M  V30 50 1 46 7
M  V30 51 1 47 8
M  V30 52 1 48 10
M  V30 53 1 49 11
M  V30 54 1 50 11
M  V30 55 1 51 11
M  V30 56 1 14 52 CFG=1
M  V30 57 1 53 17
M  V30 58 1 54 19
M  V30 59 1 55 19
M  V30 60 1 56 20
M  V30 61 1 57 20
M  V30 62 1 58 24
M  V30 63 1 59 25
M  V30 64 1 60 25
M  V30 65 1 61 26
M  V30 66 1 62 26
M  V30 67 1 63 28
M  V30 68 1 64 29
M  V30 69 1 65 30
M  V30 70 1 66 30
M  V30 71 1 67 30
M  V30 72 1 32 68 CFG=3
M  V30 73 1 69 33
M  V30 74 1 70 33
M  V30 75 1 21 71 CFG=1
M  V30 END BOND
M  V30 END CTAB
M  END
>  <i_epik_Tot_Q>  (1) 
1

>  <i_epik_Tot_abs_Q>  (1) 
1

>  <i_i_glide_confnum>  (1) 
13

>  <i_i_glide_lignum>  (1) 
90

>  <i_i_glide_posenum>  (1) 
224

>  <i_i_glide_rotatable_bonds>  (1) 
5

>  <i_lp_mmshare_version>  (1) 
72125

>  <i_m_source_file_index>  (1) 
42

>  <i_f3d_flags>  (1) 
0

>  <num_sample>  (1) 
50

>  <b_lp_Chiralities_Consistent>  (1) 
1

>  <r_epik_Charging_Adjusted_Penalty>  (1) 
1.62722492853585

>  <r_epik_Ionization_Penalty>  (1) 
0.81369786534067623

>  <r_epik_Ionization_Penalty_Charging>  (1) 
0.81361246426792511

>  <r_epik_Ionization_Penalty_Neutral>  (1) 
8.5401072751167088e-05

>  <r_epik_State_Penalty>  (1) 
0.813612464267925

>  <r_glide_ring_energy>  (1) 
1.1860061089558767

>  <r_i_docking_score>  (1) 
-7.6695492913211467

>  <r_i_glide_ecoul>  (1) 
-4.4907474969341497

>  <r_i_glide_eff_state_penalty>  (1) 
0.813612464267925

>  <r_i_glide_einternal>  (1) 
8.1020923212787572

>  <r_i_glide_emodel>  (1) 
-38.34098108777529

>  <r_i_glide_emodel_strain>  (1) 
0.054625127065051515

>  <r_i_glide_energy>  (1) 
-35.894421414690427

>  <r_i_glide_erotb>  (1) 
0.34854586591334119

>  <r_i_glide_esite>  (1) 
-0.16439755357413213

>  <r_i_glide_evdw>  (1) 
-31.403673917756279

>  <r_i_glide_gscore>  (1) 
-8.4831617555890713

>  <r_i_glide_gscore_strain>  (1) 
0

>  <r_i_glide_hbond>  (1) 
-0.085896417318275325

>  <r_i_glide_ligand_efficiency>  (1) 
-0.21912997975203277

>  <r_i_glide_ligand_efficiency_ln>  (1) 
-1.6836362859204916

>  <r_i_glide_ligand_efficiency_sa>  (1) 
-0.71678869431918235

>  <r_i_glide_lipo>  (1) 
-3.9090696146815231

>  <r_i_glide_metal>  (1) 
-0

>  <r_i_glide_rewards>  (1) 
-2.4285482155005447

>  <r_lp_Energy>  (1) 
36.851118

>  <s_epik_Chemistry_Notes>  (1) 
This compound contains an acetal/aminal-like group ( X-CH(R)-Y where X, Y are N, S, or O) that may be acid/base labile, releasing an aldehyde.

>  <s_epik_cmdline>  (1) 
J2VwaWtfcHl0aG9uJywgJy1waHQnLCAnMS4wJywgJy1waCcsICc3LjQnLCAnLXRuJywgJzgnLCAnLW1hJywgJzUwMCcsICctaW1hZScsICc8aW5maWxlLm1hZT4nLCAnLW9tYWUnLCAnPG91dGZpbGUubWFlPic=

>  <s_epik_input>  (1) 
W0NIMl0xW0NIMl1bQ0gyXVtDSDJdW0NIMl1DMTJbQ0gyXW4zYzRjKFtjSF1bY0hdW2NIXVtjSF00KVtjSF1jM1tDSDJdTihbQ0gzXSlbQ0BASF0oTzIpW0NASF0oW0NIM10pT1xbQ0hdPUNcNVtDQEBIXShbQ0gzXSlDKD1PKU4oQzU9TylbQ0gyXVtPSF0=

>  <s_glide_docking_method>  (1) 
confgen

>  <s_i_glide_gridfile>  (1) 
gpcr_5ht2c_6bqh_protein_autoprepared_prepared

>  <s_lp_Force_Field>  (1) 
S-OPLS

>  <s_lp_Variant>  (1) 
DiffSBDD_41-4

>  <s_m_source_file>  (1) 
generated_GPCR_5HT2C_ligand_DiffSBDD_2026-06-23_prepared.sdf

>  <GenAI_Model>  (1) 
DiffSBDD

>  <Protein>  (1) 
GPCR_5HT2C

$$$$
DiffSBDD_22
     RDKit          3D

  0  0  0  0  0  0  0  0  0  0999 V3000
M  V30 BEGIN CTAB
M  V30 COUNTS 69 72 0 0 1
M  V30 BEGIN ATOM
M  V30 1 N 40.445138 28.937744 55.921955 0
M  V30 2 C 37.211132 25.784431 56.650595 0
M  V30 3 C 38.077054 35.076577 61.411996 0
M  V30 4 O 39.645140 24.912288 57.159139 0
M  V30 5 C 37.498150 32.731619 59.946590 0
M  V30 6 N 44.872611 30.491765 67.034627 0
M  V30 7 C 38.304198 26.906474 56.786155 0 CFG=1
M  V30 8 C 37.004089 35.062063 60.510045 0
M  V30 9 C 42.949086 30.929497 65.031250 0
M  V30 10 C 37.193852 31.517218 59.131034 0 CFG=2
M  V30 11 S 38.534442 26.537920 53.990724 0
M  V30 12 C 37.747598 29.346822 57.919880 0
M  V30 13 C 40.816496 28.292835 57.161783 0
M  V30 14 C 37.821230 27.795753 58.006194 0
M  V30 15 C 41.583426 33.395578 64.956697 0
M  V30 16 C 41.227224 34.685425 61.946442 0
M  V30 17 N 40.769665 26.851507 57.171644 0
M  V30 18 C 39.386605 28.791013 55.234974 0
M  V30 19 C 40.025548 33.944106 62.568854 0 CFG=1
M  V30 20 O 41.645063 35.737764 62.790856 0
M  V30 21 C 38.862932 33.920197 61.592909 0
M  V30 22 C 38.144588 27.577500 52.545879 0
M  V30 23 C 38.574113 32.748345 60.858557 0
M  V30 24 C 42.539251 33.153334 65.961594 0
M  V30 25 C 41.310651 32.404746 63.980098 0
M  V30 26 O 36.443456 30.488974 59.803492 0
M  V30 27 O 40.381903 32.621122 62.980144 0
M  V30 28 C 44.264064 31.678493 67.079681 0
M  V30 29 C 39.642758 26.138085 57.062873 0
M  V30 30 C 41.991974 31.174172 64.027936 0
M  V30 31 C 37.708478 30.111460 59.237031 0 CFG=2
M  V30 32 C 43.230697 31.922990 66.003744 0
M  V30 33 O 44.513595 32.531279 67.928426 0
M  V30 34 C 39.379585 28.145556 51.835606 0
M  V30 35 C 38.374408 27.670698 55.411851 0 CFG=2
M  V30 36 C 36.713747 33.896277 59.781790 0
M  V30 37 H 37.403018 28.142337 55.270478 0
M  V30 38 H 36.263684 26.137753 56.260980 0
M  V30 39 H 37.495097 24.975414 55.976429 0
M  V30 40 H 37.004194 25.308814 57.611543 0
M  V30 41 H 38.299551 35.975076 61.969187 0
M  V30 42 H 44.633379 29.828991 66.314792 0
M  V30 43 H 45.577278 30.263882 67.718807 0
M  V30 44 H 36.402822 35.948835 60.371518 0
M  V30 45 H 43.465481 29.981833 65.050113 0
M  V30 46 H 36.845137 31.828662 58.167765 0
M  V30 47 H 36.873972 29.622125 57.325601 0
M  V30 48 H 38.579927 29.804057 57.410819 0
M  V30 49 H 40.315781 28.714473 58.029000 0
M  V30 50 H 41.865685 28.527975 57.342758 0
M  V30 51 H 38.362387 27.504573 58.908542 0
M  V30 52 H 36.779889 27.537920 58.167757 0
M  V30 53 H 41.064667 34.339558 64.938144 0
M  V30 54 H 40.971579 35.130759 60.983576 0
M  V30 55 H 42.045138 33.993232 61.756195 0
M  V30 56 H 41.641168 26.356306 57.317829 0
M  V30 57 H 39.140751 29.489247 54.431846 0
M  V30 58 H 39.645113 34.505974 63.415392 0
M  V30 59 H 40.948318 36.371960 62.873396 0
M  V30 60 H 37.645139 26.937722 51.827064 0
M  V30 61 H 37.437652 28.360457 52.816423 0
M  V30 62 H 39.182679 31.866747 60.989117 0
M  V30 63 H 42.744559 33.914360 66.700378 0
M  V30 64 H 41.781878 30.414697 63.289121 0
M  V30 65 H 38.487772 29.892358 59.963448 0
M  V30 66 H 39.078083 28.697615 50.944861 0
M  V30 67 H 39.955925 28.826413 52.457593 0
M  V30 68 H 40.044809 27.344412 51.514948 0
M  V30 69 H 35.889145 33.892825 59.082263 0
M  V30 END ATOM
M  V30 BEGIN BOND
M  V30 1 1 7 2 CFG=3
M  V30 2 2 8 3
M  V30 3 1 10 5
M  V30 4 1 13 1
M  V30 5 1 14 7
M  V30 6 1 14 12
M  V30 7 1 17 13
M  V30 8 2 18 1
M  V30 9 1 19 16
M  V30 10 1 20 16
M  V30 11 1 21 3
M  V30 12 1 21 19
M  V30 13 1 22 11
M  V30 14 1 23 5
M  V30 15 2 23 21
M  V30 16 2 24 15
M  V30 17 1 25 15
M  V30 18 1 26 10
M  V30 19 1 27 19
M  V30 20 1 27 25
M  V30 21 1 28 6
M  V30 22 2 29 4
M  V30 23 1 29 7
M  V30 24 1 29 17
M  V30 25 1 30 9
M  V30 26 2 30 25
M  V30 27 1 31 10
M  V30 28 1 31 12
M  V30 29 1 31 26
M  V30 30 2 32 9
M  V30 31 1 32 24
M  V30 32 1 32 28
M  V30 33 2 33 28
M  V30 34 1 34 22
M  V30 35 1 35 7
M  V30 36 1 35 11
M  V30 37 1 35 18
M  V30 38 2 36 5
M  V30 39 1 36 8
M  V30 40 1 35 37 CFG=3
M  V30 41 1 38 2
M  V30 42 1 39 2
M  V30 43 1 40 2
M  V30 44 1 41 3
M  V30 45 1 42 6
M  V30 46 1 43 6
M  V30 47 1 44 8
M  V30 48 1 45 9
M  V30 49 1 10 46 CFG=3
M  V30 50 1 47 12
M  V30 51 1 48 12
M  V30 52 1 49 13
M  V30 53 1 50 13
M  V30 54 1 51 14
M  V30 55 1 52 14
M  V30 56 1 53 15
M  V30 57 1 54 16
M  V30 58 1 55 16
M  V30 59 1 56 17
M  V30 60 1 57 18
M  V30 61 1 19 58 CFG=1
M  V30 62 1 59 20
M  V30 63 1 60 22
M  V30 64 1 61 22
M  V30 65 1 62 23
M  V30 66 1 63 24
M  V30 67 1 64 30
M  V30 68 1 31 65 CFG=1
M  V30 69 1 66 34
M  V30 70 1 67 34
M  V30 71 1 68 34
M  V30 72 1 69 36
M  V30 END BOND
M  V30 END CTAB
M  END
>  <i_epik_Tot_Q>  (1) 
0

>  <i_epik_Tot_abs_Q>  (1) 
0

>  <i_i_glide_confnum>  (1) 
1121

>  <i_i_glide_lignum>  (1) 
49

>  <i_i_glide_posenum>  (1) 
168

>  <i_i_glide_rotatable_bonds>  (1) 
12

>  <i_lp_mmshare_version>  (1) 
72125

>  <i_m_source_file_index>  (1) 
23

>  <i_f3d_flags>  (1) 
0

>  <num_sample>  (1) 
50

>  <b_lp_Chiralities_Consistent>  (1) 
1

>  <r_epik_Charging_Adjusted_Penalty>  (1) 
0

>  <r_epik_Ionization_Penalty>  (1) 
0.00010073509857401548

>  <r_epik_Ionization_Penalty_Charging>  (1) 
0

>  <r_epik_Ionization_Penalty_Neutral>  (1) 
0.00010073509857401548

>  <r_epik_State_Penalty>  (1) 
-0

>  <r_glide_ring_energy>  (1) 
0

>  <r_i_docking_score>  (1) 
-7.667681211787718

>  <r_i_glide_ecoul>  (1) 
-4.5962181007968788

>  <r_i_glide_eff_state_penalty>  (1) 
-0

>  <r_i_glide_einternal>  (1) 
7.5763844411743371

>  <r_i_glide_emodel>  (1) 
-72.081236513976009

>  <r_i_glide_emodel_strain>  (1) 
2.4133745872224353

>  <r_i_glide_energy>  (1) 
-51.245766281873927

>  <r_i_glide_erotb>  (1) 
0.70459601099453772

>  <r_i_glide_esite>  (1) 
0

>  <r_i_glide_evdw>  (1) 
-46.649548181077051

>  <r_i_glide_gscore>  (1) 
-7.667681211787718

>  <r_i_glide_gscore_strain>  (1) 
0

>  <r_i_glide_hbond>  (1) 
-0.29071989597904485

>  <r_i_glide_ligand_efficiency>  (1) 
-0.21299114477188105

>  <r_i_glide_ligand_efficiency_ln>  (1) 
-1.6728808836056566

>  <r_i_glide_ligand_efficiency_sa>  (1) 
-0.70328126469553454

>  <r_i_glide_lipo>  (1) 
-3.407029924365589

>  <r_i_glide_metal>  (1) 
-0

>  <r_i_glide_rewards>  (1) 
-1.6526172782642381

>  <r_lp_Energy>  (1) 
55.610787999999999

>  <r_lp_tautomer_probability>  (1) 
1

>  <s_epik_Chemistry_Notes>  (1) 
This compound has an imine and may undergo hydrolysis. This compound contains an acetal/aminal-like group ( X-CH(R)-Y where X, Y are N, S, or O) that may be acid/base labile, releasing an aldehyde.

>  <s_epik_cmdline>  (1) 
J2VwaWtfcHl0aG9uJywgJy1waHQnLCAnMS4wJywgJy1waCcsICc3LjQnLCAnLXRuJywgJzgnLCAnLW1hJywgJzUwMCcsICctaW1hZScsICc8aW5maWxlLm1hZT4nLCAnLW9tYWUnLCAnPG91dGZpbGUubWFlPic=

>  <s_epik_input>  (1) 
W0NIM11bQ0gyXVNDMT1bQ0hdW05IXVtDSDJdW05IXUMoPU8pW0NAQF0xKFtDSDNdKVtDSDJdW0NIMl1bQ0BASF0yT1tDQEhdMmMzW2NIXWMoW2NIXVtjSF1bY0hdMylbQ0BIXShbQ0gyXVtPSF0pT2M0W2NIXVtjSF1jKFtjSF1bY0hdNClDKD1PKVtOSDJd

>  <s_glide_docking_method>  (1) 
confgen

>  <s_i_glide_gridfile>  (1) 
gpcr_5ht2c_6bqh_protein_autoprepared_prepared

>  <s_lp_Force_Field>  (1) 
S-OPLS

>  <s_lp_Variant>  (1) 
DiffSBDD_22-1

>  <s_m_source_file>  (1) 
generated_GPCR_5HT2C_ligand_DiffSBDD_2026-06-23_prepared.sdf

>  <GenAI_Model>  (1) 
DiffSBDD

>  <Protein>  (1) 
GPCR_5HT2C

$$$$
DiffSBDD_19
     RDKit          3D

  0  0  0  0  0  0  0  0  0  0999 V3000
M  V30 BEGIN CTAB
M  V30 COUNTS 69 71 0 0 1
M  V30 BEGIN ATOM
M  V30 1 O 36.704888 24.120531 54.983733 0
M  V30 2 C 39.430829 30.127628 53.585685 0
M  V30 3 C 40.143722 31.550634 62.692222 0
M  V30 4 C 39.694259 29.613297 51.214110 0
M  V30 5 C 39.245156 28.747771 53.867718 0
M  V30 6 C 39.438759 31.156656 54.698661 0
M  V30 7 C 37.641795 23.737693 57.766620 0
M  V30 8 C 39.745422 28.418146 58.961638 0
M  V30 9 C 40.260329 32.720976 61.724590 0 CFG=2
M  V30 10 N 39.805149 33.994746 62.294983 0
M  V30 11 F 39.463296 31.271523 49.557049 0
M  V30 12 C 39.245141 27.813788 52.796937 0
M  V30 13 F 41.328369 30.166303 49.645008 0
M  V30 14 C 40.028144 35.100217 61.381278 0
M  V30 15 C 38.350349 28.847686 59.426706 0 CFG=2
M  V30 16 C 37.438483 30.034780 57.364105 0
M  V30 17 C 37.838460 26.230417 55.161511 0
M  V30 18 O 38.142583 24.540176 56.725407 0
M  V30 19 O 40.450740 31.579243 63.881554 0
M  V30 20 C 39.657435 30.545686 52.264458 0
M  V30 21 C 37.162763 25.078597 55.907874 0 CFG=2
M  V30 22 C 39.203554 28.255835 55.323293 0
M  V30 23 N 39.363518 30.732380 60.673075 0
M  V30 24 C 40.009168 30.078893 49.803863 0
M  V30 25 C 39.465095 28.250346 51.476074 0
M  V30 26 C 37.489195 28.717981 58.148442 0 CFG=1
M  V30 27 O 39.595848 36.240577 62.081414 0
M  V30 28 C 39.460528 27.209509 58.061780 0
M  V30 29 C 38.078617 27.479480 57.404287 0 CFG=2
M  V30 30 N 39.651051 30.526025 62.005911 0
M  V30 31 N 38.045110 27.525829 55.887372 0 CFG=2 CHG=1
M  V30 32 C 39.351661 32.201942 60.588154 0
M  V30 33 N 38.210504 30.149928 60.099206 0
M  V30 34 H 37.449452 23.804349 54.493657 0
M  V30 35 H 39.644800 32.137810 54.287671 0
M  V30 36 H 38.459281 31.221312 55.165176 0
M  V30 37 H 40.211715 30.967318 55.441281 0
M  V30 38 H 38.462572 23.160773 58.167590 0
M  V30 39 H 37.244900 24.362317 58.564139 0
M  V30 40 H 36.875061 23.045899 57.412618 0
M  V30 41 H 40.222760 29.214550 58.388997 0
M  V30 42 H 40.405266 28.163016 59.792123 0
M  V30 43 H 41.301279 32.789537 61.406137 0
M  V30 44 H 40.280328 34.195750 63.164635 0
M  V30 45 H 39.127370 26.762674 52.988899 0
M  V30 46 H 39.464940 34.987615 60.453936 0
M  V30 47 H 41.087011 35.203120 61.137857 0
M  V30 48 H 38.045150 28.093358 60.149108 0
M  V30 49 H 38.424943 30.478148 57.249664 0
M  V30 50 H 36.960338 29.919676 56.392053 0
M  V30 51 H 36.845526 30.761178 57.918922 0
M  V30 52 H 37.245454 26.449483 54.272914 0
M  V30 53 H 38.794258 25.824490 54.828680 0
M  V30 54 H 39.829599 31.591691 52.055498 0
M  V30 55 H 36.286109 25.412307 56.466227 0
M  V30 56 H 39.491980 29.042468 56.005679 0
M  V30 57 H 40.061463 27.586205 55.367723 0
M  V30 58 H 39.645105 29.378414 49.053594 0
M  V30 59 H 39.492763 27.532189 50.669016 0
M  V30 60 H 36.450551 28.537759 58.423551 0
M  V30 61 H 38.772147 36.523700 61.713994 0
M  V30 62 H 40.286383 26.995436 57.387826 0
M  V30 63 H 39.375369 26.324224 58.693920 0
M  V30 64 H 37.425308 26.690265 57.759694 0
M  V30 65 H 39.472071 29.620581 62.417165 0
M  V30 66 H 38.330841 32.555453 60.752142 0
M  V30 67 H 39.645119 32.539736 59.595651 0
M  V30 68 H 37.436539 30.155464 60.760055 0
M  V30 69 H 37.230774 28.082700 55.673058 0
M  V30 END ATOM
M  V30 BEGIN BOND
M  V30 1 2 5 2
M  V30 2 1 6 2
M  V30 3 1 9 3
M  V30 4 1 10 9
M  V30 5 1 12 5
M  V30 6 1 14 10
M  V30 7 1 15 8
M  V30 8 1 18 7
M  V30 9 2 19 3
M  V30 10 1 20 2
M  V30 11 2 20 4
M  V30 12 1 21 1
M  V30 13 1 21 17
M  V30 14 1 21 18
M  V30 15 1 22 5
M  V30 16 1 24 4
M  V30 17 1 24 11
M  V30 18 1 24 13
M  V30 19 1 25 4
M  V30 20 2 25 12
M  V30 21 1 26 15
M  V30 22 1 26 16
M  V30 23 1 27 14
M  V30 24 1 28 8
M  V30 25 1 29 26
M  V30 26 1 29 28
M  V30 27 1 30 3
M  V30 28 1 30 23
M  V30 29 1 31 17
M  V30 30 1 31 22
M  V30 31 1 31 29
M  V30 32 1 32 9
M  V30 33 1 32 23
M  V30 34 1 33 15
M  V30 35 1 33 23
M  V30 36 1 34 1
M  V30 37 1 35 6
M  V30 38 1 36 6
M  V30 39 1 37 6
M  V30 40 1 38 7
M  V30 41 1 39 7
M  V30 42 1 40 7
M  V30 43 1 41 8
M  V30 44 1 42 8
M  V30 45 1 9 43 CFG=3
M  V30 46 1 44 10
M  V30 47 1 45 12
M  V30 48 1 46 14
M  V30 49 1 47 14
M  V30 50 1 15 48 CFG=1
M  V30 51 1 49 16
M  V30 52 1 50 16
M  V30 53 1 51 16
M  V30 54 1 52 17
M  V30 55 1 53 17
M  V30 56 1 54 20
M  V30 57 1 21 55 CFG=1
M  V30 58 1 56 22
M  V30 59 1 57 22
M  V30 60 1 58 24
M  V30 61 1 59 25
M  V30 62 1 26 60 CFG=1
M  V30 63 1 61 27
M  V30 64 1 62 28
M  V30 65 1 63 28
M  V30 66 1 29 64 CFG=1
M  V30 67 1 65 30
M  V30 68 1 66 32
M  V30 69 1 67 32
M  V30 70 1 68 33
M  V30 71 1 31 69 CFG=1
M  V30 END BOND
M  V30 END CTAB
M  END
>  <i_epik_Tot_Q>  (1) 
1

>  <i_epik_Tot_abs_Q>  (1) 
1

>  <i_i_glide_confnum>  (1) 
5231

>  <i_i_glide_lignum>  (1) 
42

>  <i_i_glide_posenum>  (1) 
42

>  <i_i_glide_rotatable_bonds>  (1) 
13

>  <i_lp_mmshare_version>  (1) 
72125

>  <i_m_source_file_index>  (1) 
20

>  <i_f3d_flags>  (1) 
0

>  <num_sample>  (1) 
50

>  <b_lp_Chiralities_Consistent>  (1) 
1

>  <r_epik_Charging_Adjusted_Penalty>  (1) 
0.46831319053283144

>  <r_epik_Ionization_Penalty>  (1) 
0.71387485365223857

>  <r_epik_Ionization_Penalty_Charging>  (1) 
0.049252262366849507

>  <r_epik_Ionization_Penalty_Neutral>  (1) 
0.66462259128538903

>  <r_epik_State_Penalty>  (1) 
0.41906092816598195

>  <r_glide_ring_energy>  (1) 
1.0856690971414245

>  <r_i_docking_score>  (1) 
-7.6665110154354421

>  <r_i_glide_ecoul>  (1) 
-1.170257924915026

>  <r_i_glide_eff_state_penalty>  (1) 
0.41906092816598195

>  <r_i_glide_einternal>  (1) 
9.3778859388748046

>  <r_i_glide_emodel>  (1) 
-60.835370882769595

>  <r_i_glide_emodel_strain>  (1) 
4.3124495632159352

>  <r_i_glide_energy>  (1) 
-44.477497967314122

>  <r_i_glide_erotb>  (1) 
0.81494899861877068

>  <r_i_glide_esite>  (1) 
0

>  <r_i_glide_evdw>  (1) 
-43.307240042399094

>  <r_i_glide_gscore>  (1) 
-8.0855719436014244

>  <r_i_glide_gscore_strain>  (1) 
0.0781123908039838

>  <r_i_glide_hbond>  (1) 
0

>  <r_i_glide_ligand_efficiency>  (1) 
-0.23231851561925582

>  <r_i_glide_ligand_efficiency_ln>  (1) 
-1.7049923547632388

>  <r_i_glide_ligand_efficiency_sa>  (1) 
-0.74516961434243467

>  <r_i_glide_lipo>  (1) 
-3.7737283586333836

>  <r_i_glide_metal>  (1) 
-0

>  <r_i_glide_rewards>  (1) 
-2.8640042835335868

>  <r_lp_Energy>  (1) 
31.949607

>  <s_epik_Chemistry_Notes>  (1) 
This compound contains an acetal/aminal-like group ( X-CH(R)-Y where X, Y are N, S, or O) that may be acid/base labile, releasing an aldehyde.

>  <s_epik_cmdline>  (1) 
J2VwaWtfcHl0aG9uJywgJy1waHQnLCAnMS4wJywgJy1waCcsICc3LjQnLCAnLXRuJywgJzgnLCAnLW1hJywgJzUwMCcsICctaW1hZScsICc8aW5maWxlLm1hZT4nLCAnLW9tYWUnLCAnPG91dGZpbGUubWFlPic=

>  <s_epik_input>  (1) 
RltDSF0oRiljKFtjSF0xKVtjSF1bY0hdYyhjMVtDSDNdKVtDSDJdTihbQ0gyXVtDQEBIXShbT0hdKU9bQ0gzXSlbQ0BIXShbQ0BASF0yW0NIM10pW0NIMl1bQ0gyXVtDQEhdMltOSF1OKFtOSF0zKVtDSDJdW0NASF0oQzM9TylbTkhdW0NIMl1bT0hd

>  <s_glide_docking_method>  (1) 
confgen

>  <s_i_glide_gridfile>  (1) 
gpcr_5ht2c_6bqh_protein_autoprepared_prepared

>  <s_lp_Force_Field>  (1) 
S-OPLS

>  <s_lp_Variant>  (1) 
DiffSBDD_19-1

>  <s_m_source_file>  (1) 
generated_GPCR_5HT2C_ligand_DiffSBDD_2026-06-23_prepared.sdf

>  <GenAI_Model>  (1) 
DiffSBDD

>  <Protein>  (1) 
GPCR_5HT2C

$$$$
DiffSBDD_19
     RDKit          3D

  0  0  0  0  0  0  0  0  0  0999 V3000
M  V30 BEGIN CTAB
M  V30 COUNTS 70 72 0 0 1
M  V30 BEGIN ATOM
M  V30 1 O 40.444974 26.283791 55.829764 0
M  V30 2 C 38.513907 28.626953 52.681816 0
M  V30 3 C 36.845299 35.699974 59.929118 0
M  V30 4 C 40.020140 29.926938 51.268599 0
M  V30 5 C 38.623696 29.614677 53.705759 0
M  V30 6 C 37.639132 27.411553 52.867140 0
M  V30 7 C 38.518784 25.441542 57.765818 0
M  V30 8 C 38.271881 32.976786 57.778108 0
M  V30 9 C 37.440598 35.141909 61.210646 0 CFG=2
M  V30 10 N 38.893785 34.996186 61.069531 0
M  V30 11 F 40.445379 29.224413 49.035536 0
M  V30 12 C 39.452292 30.729424 53.495018 0
M  V30 13 F 40.417796 31.336739 49.476641 0
M  V30 14 C 39.551788 34.910972 62.360265 0
M  V30 15 C 37.867521 32.104207 58.978873 0 CFG=2
M  V30 16 C 37.031000 29.638682 58.705662 0
M  V30 17 C 39.792185 28.568073 56.292201 0
M  V30 18 O 39.049486 26.752861 57.625682 0
M  V30 19 O 37.048695 36.831496 59.495789 0
M  V30 20 C 39.217208 28.791895 51.467462 0
M  V30 21 C 39.394698 27.079884 56.322011 0 CFG=2
M  V30 22 C 37.827592 29.493050 55.017091 0
M  V30 23 N 36.017514 33.536035 60.025791 0
M  V30 24 C 40.745513 30.138105 49.954378 0
M  V30 25 C 40.139736 30.881323 52.283618 0
M  V30 26 C 38.200671 30.640000 58.537282 0 CFG=1
M  V30 27 O 40.923329 34.853469 62.060877 0
M  V30 28 C 38.255942 32.068877 56.554257 0
M  V30 29 C 38.782538 30.729007 57.093854 0 CFG=2
M  V30 30 N 36.112207 34.748465 59.368689 0
M  V30 31 N 38.599146 29.462736 56.299566 0 CFG=2 CHG=1
M  V30 32 C 36.703653 33.781274 61.316317 0
M  V30 33 N 36.437509 32.293679 59.365504 0 CHG=1
M  V30 34 H 41.160658 26.302482 56.451851 0
M  V30 35 H 37.645288 26.849321 51.939585 0
M  V30 36 H 38.011575 26.742115 53.636672 0
M  V30 37 H 36.605483 27.695145 53.067033 0
M  V30 38 H 38.169220 25.310061 58.785926 0
M  V30 39 H 37.669926 25.274523 57.101044 0
M  V30 40 H 39.273136 24.677432 57.571252 0
M  V30 41 H 37.657947 33.858531 57.613992 0
M  V30 42 H 39.287845 33.336889 57.943018 0
M  V30 43 H 37.189781 35.805810 62.040301 0
M  V30 44 H 39.279876 35.799988 60.593535 0
M  V30 45 H 39.554352 31.477444 54.251980 0
M  V30 46 H 39.247140 34.037201 62.935713 0
M  V30 47 H 39.350418 35.803138 62.953598 0
M  V30 48 H 38.495341 32.361557 59.832104 0
M  V30 49 H 36.173608 29.891073 58.081682 0
M  V30 50 H 37.327344 28.621221 58.454517 0
M  V30 51 H 36.694601 29.599807 59.741727 0
M  V30 52 H 40.407984 28.765057 55.414078 0
M  V30 53 H 40.435060 28.748076 57.154869 0
M  V30 54 H 39.124577 28.052967 50.684436 0
M  V30 55 H 38.539014 26.882943 55.684014 0
M  V30 56 H 37.245583 28.578708 55.013682 0
M  V30 57 H 37.056633 30.259969 55.024734 0
M  V30 58 H 41.825273 30.137416 50.097213 0
M  V30 59 H 40.761933 31.738532 52.128775 0
M  V30 60 H 39.002626 30.270129 59.180100 0
M  V30 61 H 41.380679 35.433275 62.650610 0
M  V30 62 H 37.245721 32.012215 56.160245 0
M  V30 63 H 38.877368 32.527335 55.792889 0
M  V30 64 H 39.856246 30.888724 57.174886 0
M  V30 65 H 35.625692 34.875921 58.490118 0
M  V30 66 H 37.353326 32.955087 61.606042 0
M  V30 67 H 35.942417 33.857544 62.094668 0
M  V30 68 H 36.159835 31.552396 59.990992 0
M  V30 69 H 35.885417 32.211112 58.502683 0
M  V30 70 H 37.959071 28.970680 56.907697 0
M  V30 END ATOM
M  V30 BEGIN BOND
M  V30 1 2 5 2
M  V30 2 1 6 2
M  V30 3 1 9 3
M  V30 4 1 10 9
M  V30 5 1 12 5
M  V30 6 1 14 10
M  V30 7 1 15 8
M  V30 8 1 18 7
M  V30 9 2 19 3
M  V30 10 1 20 2
M  V30 11 2 20 4
M  V30 12 1 21 1
M  V30 13 1 21 17
M  V30 14 1 21 18
M  V30 15 1 22 5
M  V30 16 1 24 4
M  V30 17 1 24 11
M  V30 18 1 24 13
M  V30 19 1 25 4
M  V30 20 2 25 12
M  V30 21 1 26 15
M  V30 22 1 26 16
M  V30 23 1 27 14
M  V30 24 1 28 8
M  V30 25 1 29 26
M  V30 26 1 29 28
M  V30 27 1 30 3
M  V30 28 1 30 23
M  V30 29 1 31 17
M  V30 30 1 31 22
M  V30 31 1 31 29
M  V30 32 1 32 9
M  V30 33 1 32 23
M  V30 34 1 33 15
M  V30 35 1 33 23
M  V30 36 1 34 1
M  V30 37 1 35 6
M  V30 38 1 36 6
M  V30 39 1 37 6
M  V30 40 1 38 7
M  V30 41 1 39 7
M  V30 42 1 40 7
M  V30 43 1 41 8
M  V30 44 1 42 8
M  V30 45 1 9 43 CFG=1
M  V30 46 1 44 10
M  V30 47 1 45 12
M  V30 48 1 46 14
M  V30 49 1 47 14
M  V30 50 1 15 48 CFG=1
M  V30 51 1 49 16
M  V30 52 1 50 16
M  V30 53 1 51 16
M  V30 54 1 52 17
M  V30 55 1 53 17
M  V30 56 1 54 20
M  V30 57 1 21 55 CFG=3
M  V30 58 1 56 22
M  V30 59 1 57 22
M  V30 60 1 58 24
M  V30 61 1 59 25
M  V30 62 1 26 60 CFG=1
M  V30 63 1 61 27
M  V30 64 1 62 28
M  V30 65 1 63 28
M  V30 66 1 29 64 CFG=1
M  V30 67 1 65 30
M  V30 68 1 66 32
M  V30 69 1 67 32
M  V30 70 1 68 33
M  V30 71 1 69 33
M  V30 72 1 31 70 CFG=1
M  V30 END BOND
M  V30 END CTAB
M  END
>  <i_epik_Tot_Q>  (1) 
2

>  <i_epik_Tot_abs_Q>  (1) 
2

>  <i_i_glide_confnum>  (1) 
3367

>  <i_i_glide_lignum>  (1) 
44

>  <i_i_glide_posenum>  (1) 
117

>  <i_i_glide_rotatable_bonds>  (1) 
13

>  <i_lp_mmshare_version>  (1) 
72125

>  <i_m_source_file_index>  (1) 
20

>  <i_f3d_flags>  (1) 
0

>  <num_sample>  (1) 
50

>  <b_lp_Chiralities_Consistent>  (1) 
1

>  <r_epik_Charging_Adjusted_Penalty>  (1) 
1.2214648146791087

>  <r_epik_Ionization_Penalty>  (1) 
0.73374573973567592

>  <r_epik_Ionization_Penalty_Charging>  (1) 
0.65422063123481433

>  <r_epik_Ionization_Penalty_Neutral>  (1) 
0.079525108500861627

>  <r_epik_State_Penalty>  (1) 
0.56724418344429428

>  <r_glide_ring_energy>  (1) 
1.6719174487954152

>  <r_i_docking_score>  (1) 
-7.6420617080847615

>  <r_i_glide_ecoul>  (1) 
-8.9455256235840874

>  <r_i_glide_eff_state_penalty>  (1) 
0.56724418344429428

>  <r_i_glide_einternal>  (1) 
12.069483347990889

>  <r_i_glide_emodel>  (1) 
-71.387215411191193

>  <r_i_glide_emodel_strain>  (1) 
2.512547656310808

>  <r_i_glide_energy>  (1) 
-54.565220667130347

>  <r_i_glide_erotb>  (1) 
0.81178529684743594

>  <r_i_glide_esite>  (1) 
-0.11279651943453295

>  <r_i_glide_evdw>  (1) 
-45.619695043546258

>  <r_i_glide_gscore>  (1) 
-8.2093058915290555

>  <r_i_glide_gscore_strain>  (1) 
0

>  <r_i_glide_hbond>  (1) 
-0.36588936585862974

>  <r_i_glide_ligand_efficiency>  (1) 
-0.23157762751772004

>  <r_i_glide_ligand_efficiency_ln>  (1) 
-1.6995549554001859

>  <r_i_glide_ligand_efficiency_sa>  (1) 
-0.74279319032207325

>  <r_i_glide_lipo>  (1) 
-2.8252266495972473

>  <r_i_glide_metal>  (1) 
-0

>  <r_i_glide_rewards>  (1) 
-2.0943650577711552

>  <r_lp_Energy>  (1) 
44.756732999999997

>  <s_epik_Chemistry_Notes>  (1) 
This compound contains an acetal/aminal-like group ( X-CH(R)-Y where X, Y are N, S, or O) that may be acid/base labile, releasing an aldehyde.

>  <s_epik_cmdline>  (1) 
J2VwaWtfcHl0aG9uJywgJy1waHQnLCAnMS4wJywgJy1waCcsICc3LjQnLCAnLXRuJywgJzgnLCAnLW1hJywgJzUwMCcsICctaW1hZScsICc8aW5maWxlLm1hZT4nLCAnLW9tYWUnLCAnPG91dGZpbGUubWFlPic=

>  <s_epik_input>  (1) 
RltDSF0oRiljKFtjSF0xKVtjSF1bY0hdYyhjMVtDSDNdKVtDSDJdTihbQ0gyXVtDQEBIXShbT0hdKU9bQ0gzXSlbQ0BIXShbQ0BASF0yW0NIM10pW0NIMl1bQ0gyXVtDQEhdMltOSF1OKFtOSF0zKVtDSDJdW0NASF0oQzM9TylbTkhdW0NIMl1bT0hd

>  <s_glide_docking_method>  (1) 
confgen

>  <s_i_glide_gridfile>  (1) 
gpcr_5ht2c_6bqh_protein_autoprepared_prepared

>  <s_lp_Force_Field>  (1) 
S-OPLS

>  <s_lp_Variant>  (1) 
DiffSBDD_19-3

>  <s_m_source_file>  (1) 
generated_GPCR_5HT2C_ligand_DiffSBDD_2026-06-23_prepared.sdf

>  <GenAI_Model>  (1) 
DiffSBDD

>  <Protein>  (1) 
GPCR_5HT2C

$$$$
DiffSBDD_45
     RDKit          3D

  0  0  0  0  0  0  0  0  0  0999 V3000
M  V30 BEGIN CTAB
M  V30 COUNTS 72 76 0 0 1
M  V30 BEGIN ATOM
M  V30 1 C 39.922412 33.816086 62.921557 0
M  V30 2 C 38.913867 28.509277 58.276774 0
M  V30 3 S 41.123850 31.319527 63.239324 0
M  V30 4 C 38.733512 37.096753 62.042319 0
M  V30 5 C 39.044509 28.259259 56.763845 0 CFG=2
M  V30 6 C 39.932835 29.884001 61.149345 0
M  V30 7 S 41.235739 34.939295 65.791113 0
M  V30 8 C 39.605292 29.807854 58.701858 0
M  V30 9 C 38.521164 30.338378 55.107716 0
M  V30 10 C 38.121437 29.028359 55.792594 0 CFG=1
M  V30 11 C 36.835854 24.924332 56.343445 0
M  V30 12 C 41.638186 35.634204 63.146967 0
M  V30 13 C 42.256902 34.866419 64.300781 0 CFG=2
M  V30 14 C 41.687006 33.533262 64.758966 0 CFG=2
M  V30 15 C 38.486346 26.952257 56.162734 0 CFG=1
M  V30 16 O 40.818230 29.030039 61.089704 0
M  V30 17 C 37.449127 26.164072 56.936448 0
M  V30 18 C 40.526818 32.884271 64.006414 0 CFG=1
M  V30 19 C 38.170690 31.316430 60.095735 0
M  V30 20 O 41.613948 30.452250 64.318882 0
M  V30 21 C 38.875109 27.677802 53.653586 0
M  V30 22 O 37.046480 30.937579 60.867529 0
M  V30 23 C 40.280903 35.375517 60.931274 0
M  V30 24 C 38.839063 35.930766 61.065861 0
M  V30 25 C 39.598569 30.535557 62.509344 0
M  V30 26 N 39.244097 30.301340 60.043582 0
M  V30 27 C 37.779788 24.808341 57.515961 0
M  V30 28 C 38.035861 27.754693 54.930223 0 CFG=2
M  V30 29 O 39.386737 38.128675 61.767773 0 CHG=-1
M  V30 30 C 39.007578 29.041937 52.961063 0
M  V30 31 O 37.998934 36.936171 63.041021 0
M  V30 32 C 40.926498 34.685328 62.159104 0 CFG=2
M  V30 33 C 39.481770 30.137696 53.930952 0
M  V30 34 O 42.043796 31.713348 62.166385 0
M  V30 35 H 39.318413 33.258015 62.221065 0
M  V30 36 H 39.245413 34.522815 63.367773 0
M  V30 37 H 39.334221 27.674897 58.840046 0
M  V30 38 H 37.860957 28.569099 58.555408 0
M  V30 39 H 40.080126 28.367641 56.434507 0
M  V30 40 H 39.374499 30.582009 57.972283 0
M  V30 41 H 40.685620 29.675608 58.628909 0
M  V30 42 H 37.621473 30.827430 54.730343 0
M  V30 43 H 38.953984 31.038679 55.820771 0
M  V30 44 H 37.195640 29.193680 56.335838 0
M  V30 45 H 35.768735 24.810833 56.516648 0
M  V30 46 H 37.191911 24.601787 55.366789 0
M  V30 47 H 42.436971 36.169359 62.640647 0
M  V30 48 H 40.968706 36.401152 63.533377 0
M  V30 49 H 43.245794 35.167633 64.618366 0
M  V30 50 H 42.329793 32.868838 65.334312 0
M  V30 51 H 39.322742 26.304827 55.899576 0
M  V30 52 H 36.782428 26.779811 57.534317 0
M  V30 53 H 39.772336 32.583913 64.731410 0
M  V30 54 H 37.781173 31.501826 59.093599 0
M  V30 55 H 38.557995 32.276489 60.427483 0
M  V30 56 H 38.437870 26.962153 52.956663 0
M  V30 57 H 39.865924 27.290550 53.881657 0
M  V30 58 H 36.266819 31.183197 60.385556 0
M  V30 59 H 40.952634 36.149916 60.568584 0
M  V30 60 H 40.232590 34.638689 60.132456 0
M  V30 61 H 38.479502 36.295686 60.103575 0
M  V30 62 H 38.142323 35.144494 61.353610 0
M  V30 63 H 38.786100 31.247002 62.530075 0
M  V30 64 H 39.300413 29.737577 63.186865 0
M  V30 65 H 38.767642 24.394258 57.325119 0
M  V30 66 H 37.346871 24.544624 58.477282 0
M  V30 67 H 36.992435 27.552127 54.686261 0
M  V30 68 H 38.044487 29.324153 52.537529 0
M  V30 69 H 39.701289 28.965538 52.123912 0
M  V30 70 H 41.701536 34.046800 61.743205 0
M  V30 71 H 39.616999 31.080642 53.399849 0
M  V30 72 H 40.453903 29.876221 54.335952 0
M  V30 END ATOM
M  V30 BEGIN BOND
M  V30 1 1 5 2
M  V30 2 1 8 2
M  V30 3 1 10 5
M  V30 4 1 10 9
M  V30 5 1 13 7
M  V30 6 1 13 12
M  V30 7 1 14 7
M  V30 8 1 14 13
M  V30 9 1 15 5
M  V30 10 2 16 6
M  V30 11 1 17 11
M  V30 12 1 17 15
M  V30 13 1 18 1
M  V30 14 1 18 3
M  V30 15 1 18 14
M  V30 16 2 20 3
M  V30 17 1 22 19
M  V30 18 1 24 4
M  V30 19 1 24 23
M  V30 20 1 25 3
M  V30 21 1 25 6
M  V30 22 1 26 6
M  V30 23 1 26 8
M  V30 24 1 26 19
M  V30 25 1 27 11
M  V30 26 1 27 17
M  V30 27 1 28 10
M  V30 28 1 28 15
M  V30 29 1 28 21
M  V30 30 1 29 4
M  V30 31 1 30 21
M  V30 32 2 31 4
M  V30 33 1 32 1
M  V30 34 1 32 12
M  V30 35 1 32 23
M  V30 36 1 33 9
M  V30 37 1 33 30
M  V30 38 2 34 3
M  V30 39 1 35 1
M  V30 40 1 36 1
M  V30 41 1 37 2
M  V30 42 1 38 2
M  V30 43 1 5 39 CFG=3
M  V30 44 1 40 8
M  V30 45 1 41 8
M  V30 46 1 42 9
M  V30 47 1 43 9
M  V30 48 1 10 44 CFG=1
M  V30 49 1 45 11
M  V30 50 1 46 11
M  V30 51 1 47 12
M  V30 52 1 48 12
M  V30 53 1 13 49 CFG=1
M  V30 54 1 14 50 CFG=1
M  V30 55 1 15 51 CFG=3
M  V30 56 1 52 17
M  V30 57 1 18 53 CFG=1
M  V30 58 1 54 19
M  V30 59 1 55 19
M  V30 60 1 56 21
M  V30 61 1 57 21
M  V30 62 1 58 22
M  V30 63 1 59 23
M  V30 64 1 60 23
M  V30 65 1 61 24
M  V30 66 1 62 24
M  V30 67 1 63 25
M  V30 68 1 64 25
M  V30 69 1 65 27
M  V30 70 1 66 27
M  V30 71 1 28 67 CFG=3
M  V30 72 1 68 30
M  V30 73 1 69 30
M  V30 74 1 32 70 CFG=3
M  V30 75 1 71 33
M  V30 76 1 72 33
M  V30 END BOND
M  V30 END CTAB
M  END
>  <i_epik_Tot_Q>  (1) 
-1

>  <i_epik_Tot_abs_Q>  (1) 
1

>  <i_i_glide_confnum>  (1) 
3134

>  <i_i_glide_lignum>  (1) 
96

>  <i_i_glide_posenum>  (1) 
400

>  <i_i_glide_rotatable_bonds>  (1) 
13

>  <i_lp_mmshare_version>  (1) 
72125

>  <i_m_source_file_index>  (1) 
46

>  <i_f3d_flags>  (1) 
0

>  <num_sample>  (1) 
50

>  <b_lp_Chiralities_Consistent>  (1) 
1

>  <r_epik_Charging_Adjusted_Penalty>  (1) 
0.0015143551789188845

>  <r_epik_Ionization_Penalty>  (1) 
0.0015222875857222101

>  <r_epik_Ionization_Penalty_Charging>  (1) 
0.0015143551789188845

>  <r_epik_Ionization_Penalty_Neutral>  (1) 
7.9324068033256629e-06

>  <r_epik_State_Penalty>  (1) 
-0

>  <r_glide_ring_energy>  (1) 
0

>  <r_i_docking_score>  (1) 
-7.613811868488825

>  <r_i_glide_ecoul>  (1) 
-5.0201751325554431

>  <r_i_glide_eff_state_penalty>  (1) 
-0

>  <r_i_glide_einternal>  (1) 
10.056258360128453

>  <r_i_glide_emodel>  (1) 
-64.4613612841883

>  <r_i_glide_emodel_strain>  (1) 
0.56934801054504192

>  <r_i_glide_energy>  (1) 
-46.136347768320313

>  <r_i_glide_erotb>  (1) 
0.85788247599558221

>  <r_i_glide_esite>  (1) 
-0.0054993300906299239

>  <r_i_glide_evdw>  (1) 
-41.116172635764869

>  <r_i_glide_gscore>  (1) 
-7.613811868488825

>  <r_i_glide_gscore_strain>  (1) 
0

>  <r_i_glide_hbond>  (1) 
-0.38642274165693102

>  <r_i_glide_ligand_efficiency>  (1) 
-0.2239356431908478

>  <r_i_glide_ligand_efficiency_ln>  (1) 
-1.682104601938327

>  <r_i_glide_ligand_efficiency_sa>  (1) 
-0.72546455240773433

>  <r_i_glide_lipo>  (1) 
-4.1603965280922175

>  <r_i_glide_metal>  (1) 
-0

>  <r_i_glide_rewards>  (1) 
-1.1105408429730688

>  <r_lp_Energy>  (1) 
22.191468

>  <r_lp_tautomer_probability>  (1) 
1

>  <s_epik_Chemistry_Notes>  (1) 
This compound contains an acetal/aminal-like group ( X-CH(R)-Y where X, Y are N, S, or O) that may be acid/base labile, releasing an aldehyde.

>  <s_epik_cmdline>  (1) 
J2VwaWtfcHl0aG9uJywgJy1waHQnLCAnMS4wJywgJy1waCcsICc3LjQnLCAnLXRuJywgJzgnLCAnLW1hJywgJzUwMCcsICctaW1hZScsICc8aW5maWxlLm1hZT4nLCAnLW9tYWUnLCAnPG91dGZpbGUubWFlPic=

>  <s_epik_input>  (1) 
W09IXUMoPU8pW0NIMl1bQ0gyXVtDQEBIXShbQ0gyXTEpW0NIMl1bQ0BIXShbQ0BIXShTMilbQ0BASF0xMilTKD1PKSg9TylbQ0gyXUMoPU8pTihbQ0gyXVtPSF0pW0NIMl1bQ0gyXVtDQEhdM1tDQEBIXShbQ0hdNFtDSDJdW0NIMl00KVtDQEBIXShbQ0BASF0zNSlbQ0gyXVtDSDJdW0NIMl1bQ0gyXTU=

>  <s_glide_docking_method>  (1) 
confgen

>  <s_i_glide_gridfile>  (1) 
gpcr_5ht2c_6bqh_protein_autoprepared_prepared

>  <s_lp_Force_Field>  (1) 
S-OPLS

>  <s_lp_Variant>  (1) 
DiffSBDD_45-1

>  <s_m_source_file>  (1) 
generated_GPCR_5HT2C_ligand_DiffSBDD_2026-06-23_prepared.sdf

>  <GenAI_Model>  (1) 
DiffSBDD

>  <Protein>  (1) 
GPCR_5HT2C

$$$$
DiffSBDD_0
     RDKit          3D

  0  0  0  0  0  0  0  0  0  0999 V3000
M  V30 BEGIN CTAB
M  V30 COUNTS 73 75 0 0 1
M  V30 BEGIN ATOM
M  V30 1 C 38.593296 29.063750 52.919064 0
M  V30 2 C 39.417519 26.252198 55.588448 0
M  V30 3 O 41.645053 35.326765 63.364793 0
M  V30 4 C 38.870505 29.110794 55.406861 0
M  V30 5 C 39.449106 31.845021 61.125359 0 CFG=2
M  V30 6 C 36.845196 32.107742 59.011583 0
M  V30 7 C 39.454416 36.186514 63.085744 0
M  V30 8 C 38.370627 36.444656 62.000932 0 CFG=1
M  V30 9 C 36.429627 36.792330 63.621610 0
M  V30 10 C 37.738551 35.219289 61.275483 0
M  V30 11 N 38.668020 34.193413 60.812152 0
M  V30 12 O 40.449202 31.184243 61.901539 0
M  V30 13 C 39.070435 26.899453 54.226132 0
M  V30 14 C 36.505168 38.115837 61.644237 0
M  V30 15 C 39.137457 29.243577 57.979037 0 CFG=1
M  V30 16 C 38.973776 33.152178 61.802820 0
M  V30 17 C 39.366961 27.202396 56.777323 0
M  V30 18 C 39.502214 28.011634 58.933607 0
M  V30 19 C 38.339534 30.852770 60.638956 0 CFG=1
M  V30 20 C 40.852170 35.857246 62.559181 0
M  V30 21 N 37.332838 37.337728 62.582541 0 CHG=1
M  V30 22 C 35.438736 38.744297 62.540230 0
M  V30 23 F 37.524414 28.537773 52.325819 0
M  V30 24 C 39.120635 28.483570 56.687876 0
M  V30 25 C 38.845216 28.408314 54.258750 0
M  V30 26 O 37.246549 30.937754 61.367757 0 CHG=-1
M  V30 27 N 37.959608 31.141660 59.213454 0 CFG=1 CHG=1
M  V30 28 C 39.628879 26.655409 58.122909 0 CFG=1
M  V30 29 C 37.796720 29.946707 58.332119 0
M  V30 30 C 40.019431 30.661712 63.150028 0
M  V30 31 O 41.098198 36.137702 61.367843 0 CHG=-1
M  V30 32 O 38.622734 25.737747 58.481055 0
M  V30 33 C 35.240891 37.756128 63.694244 0
M  V30 34 H 38.443991 30.137301 53.021384 0
M  V30 35 H 39.440101 28.903658 52.251884 0
M  V30 36 H 40.421483 25.827255 55.547193 0
M  V30 37 H 38.742834 25.415639 55.774986 0
M  V30 38 H 38.701419 30.177597 55.371966 0
M  V30 39 H 40.028105 32.141223 60.250512 0
M  V30 40 H 35.892175 31.580147 58.967853 0
M  V30 41 H 36.748357 32.844540 59.803552 0
M  V30 42 H 36.997251 32.663993 58.089830 0
M  V30 43 H 39.585696 37.079357 63.698743 0
M  V30 44 H 39.163094 35.396719 63.767555 0
M  V30 45 H 38.837379 37.050055 61.223530 0
M  V30 46 H 36.045177 35.807078 63.367348 0
M  V30 47 H 36.948933 36.711629 64.575617 0
M  V30 48 H 37.214580 35.601040 60.399296 0
M  V30 49 H 36.962656 34.738483 61.864846 0
M  V30 50 H 38.249905 33.738561 60.009620 0
M  V30 51 H 38.162039 26.437872 53.836193 0
M  V30 52 H 39.859078 26.672847 53.506676 0
M  V30 53 H 37.088563 38.866109 61.108966 0
M  V30 54 H 36.045241 37.463709 60.903108 0
M  V30 55 H 39.955949 29.960468 57.929044 0
M  V30 56 H 38.121616 32.951834 62.451549 0
M  V30 57 H 39.763682 33.491924 62.465684 0
M  V30 58 H 38.763325 27.887300 59.725449 0
M  V30 59 H 40.446031 28.215696 59.441360 0
M  V30 60 H 38.881340 29.915268 60.603734 0
M  V30 61 H 35.806710 39.695364 62.927308 0
M  V30 62 H 34.506942 38.937473 62.013874 0
M  V30 63 H 40.624727 26.213649 58.179919 0
M  V30 64 H 37.339156 30.292128 57.403636 0
M  V30 65 H 37.077971 29.253658 58.771423 0
M  V30 66 H 40.860577 30.182682 63.650025 0
M  V30 67 H 39.645252 31.445887 63.806778 0
M  V30 68 H 39.246192 29.905870 63.022797 0
M  V30 69 H 37.782539 26.144906 58.335111 0
M  V30 70 H 35.198294 38.270567 64.653275 0
M  V30 71 H 34.302413 37.210803 63.585329 0
M  V30 72 H 37.868334 38.038358 63.071742 0
M  V30 73 H 38.766790 31.614548 58.837609 0
M  V30 END ATOM
M  V30 BEGIN BOND
M  V30 1 1 8 7
M  V30 2 1 10 8
M  V30 3 1 11 10
M  V30 4 1 12 5
M  V30 5 1 13 2
M  V30 6 1 16 5
M  V30 7 1 16 11
M  V30 8 1 17 2
M  V30 9 1 18 15
M  V30 10 1 19 5
M  V30 11 2 20 3
M  V30 12 1 20 7
M  V30 13 1 21 8
M  V30 14 1 21 9
M  V30 15 1 21 14
M  V30 16 1 22 14
M  V30 17 1 23 1
M  V30 18 1 24 4
M  V30 19 1 24 15
M  V30 20 2 24 17
M  V30 21 1 25 1
M  V30 22 2 25 4
M  V30 23 1 25 13
M  V30 24 1 26 19
M  V30 25 1 27 6
M  V30 26 1 27 19
M  V30 27 1 28 17
M  V30 28 1 28 18
M  V30 29 1 29 15
M  V30 30 1 29 27
M  V30 31 1 30 12
M  V30 32 1 31 20
M  V30 33 1 32 28
M  V30 34 1 33 9
M  V30 35 1 33 22
M  V30 36 1 34 1
M  V30 37 1 35 1
M  V30 38 1 36 2
M  V30 39 1 37 2
M  V30 40 1 38 4
M  V30 41 1 5 39 CFG=3
M  V30 42 1 40 6
M  V30 43 1 41 6
M  V30 44 1 42 6
M  V30 45 1 43 7
M  V30 46 1 44 7
M  V30 47 1 8 45 CFG=3
M  V30 48 1 46 9
M  V30 49 1 47 9
M  V30 50 1 48 10
M  V30 51 1 49 10
M  V30 52 1 50 11
M  V30 53 1 51 13
M  V30 54 1 52 13
M  V30 55 1 53 14
M  V30 56 1 54 14
M  V30 57 1 15 55 CFG=3
M  V30 58 1 56 16
M  V30 59 1 57 16
M  V30 60 1 58 18
M  V30 61 1 59 18
M  V30 62 1 19 60 CFG=3
M  V30 63 1 61 22
M  V30 64 1 62 22
M  V30 65 1 28 63 CFG=3
M  V30 66 1 64 29
M  V30 67 1 65 29
M  V30 68 1 66 30
M  V30 69 1 67 30
M  V30 70 1 68 30
M  V30 71 1 69 32
M  V30 72 1 70 33
M  V30 73 1 71 33
M  V30 74 1 72 21
M  V30 75 1 27 73 CFG=3
M  V30 END BOND
M  V30 END CTAB
M  END
>  <i_epik_Tot_Q>  (1) 
0

>  <i_epik_Tot_abs_Q>  (1) 
4

>  <i_i_glide_confnum>  (1) 
2114

>  <i_i_glide_lignum>  (1) 
2

>  <i_i_glide_posenum>  (1) 
367

>  <i_i_glide_rotatable_bonds>  (1) 
14

>  <i_lp_mmshare_version>  (1) 
72125

>  <i_m_source_file_index>  (1) 
1

>  <i_f3d_flags>  (1) 
0

>  <num_sample>  (1) 
50

>  <b_lp_Chiralities_Consistent>  (1) 
1

>  <r_epik_Charging_Adjusted_Penalty>  (1) 
0.35910314693592993

>  <r_epik_Ionization_Penalty>  (1) 
0.058337682991089858

>  <r_epik_Ionization_Penalty_Charging>  (1) 
0.0030320954189955646

>  <r_epik_Ionization_Penalty_Neutral>  (1) 
0.055305587572094292

>  <r_epik_State_Penalty>  (1) 
0.35607105151693436

>  <r_glide_ring_energy>  (1) 
0

>  <r_i_docking_score>  (1) 
-7.6128692542978431

>  <r_i_glide_ecoul>  (1) 
-6.1589853047402405

>  <r_i_glide_eff_state_penalty>  (1) 
0.35607105151693436

>  <r_i_glide_einternal>  (1) 
26.217272763260887

>  <r_i_glide_emodel>  (1) 
-57.328830771438817

>  <r_i_glide_emodel_strain>  (1) 
1.3351356438164714

>  <r_i_glide_energy>  (1) 
-44.688123260772194

>  <r_i_glide_erotb>  (1) 
0.82434179411086872

>  <r_i_glide_esite>  (1) 
-0.048273292482995472

>  <r_i_glide_evdw>  (1) 
-38.529137956031953

>  <r_i_glide_gscore>  (1) 
-7.9689403058147779

>  <r_i_glide_gscore_strain>  (1) 
0

>  <r_i_glide_hbond>  (1) 
-0.16

>  <r_i_glide_ligand_efficiency>  (1) 
-0.23069300770599524

>  <r_i_glide_ligand_efficiency_ln>  (1) 
-1.6930627048284115

>  <r_i_glide_ligand_efficiency_sa>  (1) 
-0.73995574190697155

>  <r_i_glide_lipo>  (1) 
-3.9283872040174037

>  <r_i_glide_metal>  (1) 
-0

>  <r_i_glide_rewards>  (1) 
-1.8063169099126131

>  <r_lp_Energy>  (1) 
38.728972999999996

>  <s_epik_Chemistry_Notes>  (1) 
This compound contains an acetal/aminal-like group ( X-CH(R)-Y where X, Y are N, S, or O) that may be acid/base labile, releasing an aldehyde.

>  <s_epik_cmdline>  (1) 
J2VwaWtfcHl0aG9uJywgJy1waHQnLCAnMS4wJywgJy1waCcsICc3LjQnLCAnLXRuJywgJzgnLCAnLW1hJywgJzUwMCcsICctaW1hZScsICc8aW5maWxlLm1hZT4nLCAnLW9tYWUnLCAnPG91dGZpbGUubWFlPic=

>  <s_epik_input>  (1) 
W0NIMl0xW0NIMl1DKFtDSDJdRik9W0NIXUMoPUMxMilbQ0BIXShbQ0gyXVtDQEhdMltPSF0pW0NIMl1OKFtDSDNdKVtDQEhdKFtPSF0pW0NASF0oT1tDSDNdKVtDSDJdW05IXVtDSDJdW0NASF0oW0NIMl1DKD1PKVtPSF0pTjNbQ0gyXVtDSDJdW0NIMl1bQ0gyXTM=

>  <s_glide_docking_method>  (1) 
confgen

>  <s_i_glide_gridfile>  (1) 
gpcr_5ht2c_6bqh_protein_autoprepared_prepared

>  <s_lp_Force_Field>  (1) 
S-OPLS

>  <s_lp_Variant>  (1) 
DiffSBDD_0-2

>  <s_m_source_file>  (1) 
generated_GPCR_5HT2C_ligand_DiffSBDD_2026-06-23_prepared.sdf

>  <GenAI_Model>  (1) 
DiffSBDD

>  <Protein>  (1) 
GPCR_5HT2C

$$$$
DiffSBDD_16
     RDKit          3D

  0  0  0  0  0  0  0  0  0  0999 V3000
M  V30 BEGIN CTAB
M  V30 COUNTS 73 79 0 0 1
M  V30 BEGIN ATOM
M  V30 1 C 37.439458 30.137755 60.153589 0
M  V30 2 C 41.460322 31.034626 63.074270 0
M  V30 3 C 39.050266 30.227659 56.306447 0 CFG=2
M  V30 4 C 37.781560 32.347945 61.428422 0 CFG=2
M  V30 5 C 40.141628 29.337752 58.611676 0
M  V30 6 C 39.328747 37.437809 63.452953 0
M  V30 7 C 38.708429 29.441006 53.134254 0 CFG=2
M  V30 8 N 38.642629 28.146149 53.876613 0
M  V30 9 C 37.830369 29.365026 55.920932 0 CFG=1
M  V30 10 F 35.645092 29.826635 58.752201 0
M  V30 11 C 35.922938 31.992970 59.767875 0
M  V30 12 C 40.411718 35.219194 62.773911 0 CFG=2
M  V30 13 C 36.582249 32.806785 60.609081 0
M  V30 14 O 41.873226 29.882137 63.125112 0
M  V30 15 C 39.180287 26.990843 51.643202 0
M  V30 16 C 39.058749 26.919648 53.167081 0
M  V30 17 C 38.988499 29.364530 51.613079 0
M  V30 18 O 38.836421 33.276364 61.605592 0
M  V30 19 O 36.834807 30.137756 55.283710 0
M  V30 20 C 38.208970 28.056289 55.171659 0
M  V30 21 C 36.347341 30.624416 59.567399 0
M  V30 22 C 41.486816 36.137636 62.316711 0 CFG=1
M  V30 23 C 40.480073 35.725382 61.354545 0 CFG=2
M  V30 24 C 39.725047 37.994873 62.051586 0
M  V30 25 C 40.110363 30.333833 55.186376 0
M  V30 26 C 39.924051 32.804055 62.321776 0
M  V30 27 C 39.404667 35.906016 63.651724 0
M  V30 28 C 39.649687 29.737423 57.566316 0
M  V30 29 C 39.937329 29.072771 61.177732 0
M  V30 30 C 38.259319 30.956883 61.034864 0
M  V30 31 C 39.440250 30.507872 61.512879 0
M  V30 32 C 40.843883 37.174334 61.438503 0 CFG=1
M  V30 33 O 38.129473 26.977695 55.763913 0
M  V30 34 C 39.899186 28.240637 51.205686 0
M  V30 35 N 40.626302 33.798764 62.992125 0
M  V30 36 C 39.572755 30.560031 53.771965 0
M  V30 37 C 40.781666 28.957542 59.884963 0
M  V30 38 C 40.248348 31.474555 62.306699 0
M  V30 39 H 37.716257 29.122038 59.944852 0
M  V30 40 H 41.975059 31.835880 63.604131 0
M  V30 41 H 38.695476 31.233787 56.534698 0
M  V30 42 H 37.362292 32.221735 62.428442 0
M  V30 43 H 38.318887 37.737754 63.725790 0
M  V30 44 H 39.991389 37.894461 64.183997 0
M  V30 45 H 37.678877 29.775473 53.137129 0
M  V30 46 H 37.329601 29.044625 56.837184 0
M  V30 47 H 35.067497 32.368308 59.225479 0
M  V30 48 H 36.254859 33.827204 60.744533 0
M  V30 49 H 39.717517 26.137752 51.268104 0
M  V30 50 H 38.190926 26.939222 51.186119 0
M  V30 51 H 40.014294 26.601100 53.587481 0
M  V30 52 H 38.342168 26.133600 53.396231 0
M  V30 53 H 39.378169 30.306231 51.225541 0
M  V30 54 H 38.045131 29.213282 51.097539 0
M  V30 55 H 36.472275 30.770174 55.905622 0
M  V30 56 H 42.445089 35.756326 62.067015 0
M  V30 57 H 40.854253 35.098108 60.553393 0
M  V30 58 H 38.868629 37.967748 61.376136 0
M  V30 59 H 40.040094 39.035512 62.124991 0
M  V30 60 H 40.751069 29.452650 55.195800 0
M  V30 61 H 40.771247 31.179422 55.367761 0
M  V30 62 H 38.445129 35.511665 63.367752 0
M  V30 63 H 39.644839 35.737749 64.700974 0
M  V30 64 H 39.108314 28.372992 61.126232 0
M  V30 65 H 40.454781 28.588099 61.993520 0
M  V30 66 H 41.524803 37.638636 60.740119 0
M  V30 67 H 40.876356 28.335763 51.676457 0
M  V30 68 H 40.045794 28.241340 50.126471 0
M  V30 69 H 41.447881 33.543306 63.520698 0
M  V30 70 H 40.445117 30.740078 53.143618 0
M  V30 71 H 39.011345 31.495266 53.748784 0
M  V30 72 H 41.151209 27.937281 59.772564 0
M  V30 73 H 41.645139 29.598507 59.954641 0
M  V30 END ATOM
M  V30 BEGIN BOND
M  V30 1 1 8 7
M  V30 2 1 9 3
M  V30 3 1 13 4
M  V30 4 2 13 11
M  V30 5 2 14 2
M  V30 6 1 16 8
M  V30 7 1 16 15
M  V30 8 1 17 7
M  V30 9 1 18 4
M  V30 10 1 19 9
M  V30 11 1 20 8
M  V30 12 1 20 9
M  V30 13 2 21 1
M  V30 14 1 21 10
M  V30 15 1 21 11
M  V30 16 1 22 12
M  V30 17 1 23 12
M  V30 18 1 23 22
M  V30 19 1 24 6
M  V30 20 1 25 3
M  V30 21 1 26 18
M  V30 22 1 27 6
M  V30 23 1 27 12
M  V30 24 1 28 3
M  V30 25 3 28 5
M  V30 26 1 30 1
M  V30 27 1 30 4
M  V30 28 1 31 29
M  V30 29 2 31 30
M  V30 30 1 32 22
M  V30 31 1 32 23
M  V30 32 1 32 24
M  V30 33 2 33 20
M  V30 34 1 34 15
M  V30 35 1 34 17
M  V30 36 1 12 35 CFG=3
M  V30 37 1 35 26
M  V30 38 1 36 7
M  V30 39 1 36 25
M  V30 40 1 37 5
M  V30 41 1 37 29
M  V30 42 1 38 2
M  V30 43 2 38 26
M  V30 44 1 38 31
M  V30 45 1 39 1
M  V30 46 1 40 2
M  V30 47 1 3 41 CFG=1
M  V30 48 1 4 42 CFG=1
M  V30 49 1 43 6
M  V30 50 1 44 6
M  V30 51 1 7 45 CFG=3
M  V30 52 1 9 46 CFG=1
M  V30 53 1 47 11
M  V30 54 1 48 13
M  V30 55 1 49 15
M  V30 56 1 50 15
M  V30 57 1 51 16
M  V30 58 1 52 16
M  V30 59 1 53 17
M  V30 60 1 54 17
M  V30 61 1 55 19
M  V30 62 1 22 56 CFG=3
M  V30 63 1 23 57 CFG=3
M  V30 64 1 58 24
M  V30 65 1 59 24
M  V30 66 1 60 25
M  V30 67 1 61 25
M  V30 68 1 62 27
M  V30 69 1 63 27
M  V30 70 1 64 29
M  V30 71 1 65 29
M  V30 72 1 32 66 CFG=3
M  V30 73 1 67 34
M  V30 74 1 68 34
M  V30 75 1 69 35
M  V30 76 1 70 36
M  V30 77 1 71 36
M  V30 78 1 72 37
M  V30 79 1 73 37
M  V30 END BOND
M  V30 END CTAB
M  END
>  <i_epik_Tot_Q>  (1) 
0

>  <i_epik_Tot_abs_Q>  (1) 
0

>  <i_i_glide_confnum>  (1) 
31

>  <i_i_glide_lignum>  (1) 
33

>  <i_i_glide_posenum>  (1) 
154

>  <i_i_glide_rotatable_bonds>  (1) 
8

>  <i_lp_mmshare_version>  (1) 
72125

>  <i_m_source_file_index>  (1) 
17

>  <i_f3d_flags>  (1) 
0

>  <num_sample>  (1) 
50

>  <b_lp_Chiralities_Consistent>  (1) 
1

>  <r_epik_Charging_Adjusted_Penalty>  (1) 
0

>  <r_epik_Ionization_Penalty>  (1) 
0.0025850422907693063

>  <r_epik_Ionization_Penalty_Charging>  (1) 
0

>  <r_epik_Ionization_Penalty_Neutral>  (1) 
0.0025850422907693063

>  <r_epik_State_Penalty>  (1) 
-0

>  <r_glide_ring_energy>  (1) 
1.1523545681465099

>  <r_i_docking_score>  (1) 
-7.5974662889137319

>  <r_i_glide_ecoul>  (1) 
-2.9888148699705606

>  <r_i_glide_eff_state_penalty>  (1) 
-0

>  <r_i_glide_einternal>  (1) 
5.5473665182814846

>  <r_i_glide_emodel>  (1) 
-38.172378888712061

>  <r_i_glide_emodel_strain>  (1) 
1.0246947346620487

>  <r_i_glide_energy>  (1) 
-32.597890439356874

>  <r_i_glide_erotb>  (1) 
0.45816569176433508

>  <r_i_glide_esite>  (1) 
-0.10467014829035776

>  <r_i_glide_evdw>  (1) 
-29.609075569386317

>  <r_i_glide_gscore>  (1) 
-7.5974662889137319

>  <r_i_glide_gscore_strain>  (1) 
0

>  <r_i_glide_hbond>  (1) 
-0.33725737267028782

>  <r_i_glide_ligand_efficiency>  (1) 
-0.19993332339246664

>  <r_i_glide_ligand_efficiency_ln>  (1) 
-1.6382372267045875

>  <r_i_glide_ligand_efficiency_sa>  (1) 
-0.67217091624505687

>  <r_i_glide_lipo>  (1) 
-4.4082937975030854

>  <r_i_glide_metal>  (1) 
-0

>  <r_i_glide_rewards>  (1) 
-1.2766346532494355

>  <r_lp_Energy>  (1) 
67.772257999999994

>  <r_lp_tautomer_probability>  (1) 
1

>  <s_epik_cmdline>  (1) 
J2VwaWtfcHl0aG9uJywgJy1waHQnLCAnMS4wJywgJy1waCcsICc3LjQnLCAnLXRuJywgJzgnLCAnLW1hJywgJzUwMCcsICctaW1hZScsICc8aW5maWxlLm1hZT4nLCAnLW9tYWUnLCAnPG91dGZpbGUubWFlPic=

>  <s_epik_input>  (1) 
W0NIMl0xW0NIMl1bQ0gyXVtDQEBIXTJbQ0BIXTNbQ0BASF0yW0NAQF0xM1tOSF1DKE80KT1DKFtDSF09TylDKD1DKFtDQEhdNDUpW0NIXT1DKEYpW0NIXT1bQ0hdNSlbQ0gyXVtDSDJdQyNDW0NAQEhdKFtDSDJdW0NIMl02KVtDQEBIXShbT0hdKUMoPU8pTihbQ0BASF02NylbQ0gyXVtDSDJdW0NIMl1bQ0gyXTc=

>  <s_glide_docking_method>  (1) 
confgen

>  <s_i_glide_gridfile>  (1) 
gpcr_5ht2c_6bqh_protein_autoprepared_prepared

>  <s_lp_Force_Field>  (1) 
S-OPLS

>  <s_lp_Variant>  (1) 
DiffSBDD_16-2

>  <s_m_source_file>  (1) 
generated_GPCR_5HT2C_ligand_DiffSBDD_2026-06-23_prepared.sdf

>  <GenAI_Model>  (1) 
DiffSBDD

>  <Protein>  (1) 
GPCR_5HT2C

$$$$
DiffSBDD_17
     RDKit          3D

  0  0  0  0  0  0  0  0  0  0999 V3000
M  V30 BEGIN CTAB
M  V30 COUNTS 93 97 0 0 1
M  V30 BEGIN ATOM
M  V30 1 C 41.197977 29.092316 61.504355 0
M  V30 2 C 38.940208 34.935114 61.537350 0 CFG=2
M  V30 3 C 39.894426 30.658682 63.162023 0
M  V30 4 O 41.204098 35.737521 65.374479 0
M  V30 5 C 38.845117 29.636212 61.158084 0
M  V30 6 C 38.261128 28.762740 55.505193 0
M  V30 7 C 38.470729 28.235069 53.063886 0
M  V30 8 C 38.237788 27.913137 54.471742 0
M  V30 9 C 36.531420 35.564324 59.328485 0
M  V30 10 C 37.665465 38.429080 60.683409 0
M  V30 11 N 41.075081 30.890133 65.371878 0
M  V30 12 C 37.515102 37.099938 61.394306 0 CFG=2
M  V30 13 C 41.730891 32.473889 63.479218 0 CFG=1
M  V30 14 C 40.459515 35.186695 61.711806 0
M  V30 15 N 42.393344 30.966858 66.038348 0 CHG=1
M  V30 16 C 38.137654 29.369696 57.702941 0 CFG=2
M  V30 17 C 38.459802 30.229830 55.465188 0 CFG=2
M  V30 18 C 41.228251 29.025983 66.828349 0
M  V30 19 C 41.211659 31.048854 63.911297 0 CFG=2
M  V30 20 O 38.044845 28.305862 56.770810 0
M  V30 21 C 42.615941 29.669610 66.706482 0
M  V30 22 O 41.947626 32.394993 62.191886 0 CHG=-1
M  V30 23 N 38.422215 32.183441 58.814022 0 CHG=1
M  V30 24 C 39.409443 30.868643 54.511502 0
M  V30 25 C 38.632267 33.564755 60.847096 0
M  V30 26 C 39.076021 29.337263 52.539316 0
M  V30 27 N 38.298508 36.036634 60.793159 0 CFG=2 CHG=1
M  V30 28 C 40.551552 35.948388 64.140539 0
M  V30 29 S 36.571821 29.737794 58.567758 0
M  V30 30 C 41.016985 34.890747 63.129700 0 CFG=1
M  V30 31 C 39.645643 30.493031 53.246228 0
M  V30 32 N 40.692425 33.523246 63.621573 0 CHG=1
M  V30 33 C 36.855428 35.890992 60.762838 0 CFG=2
M  V30 34 C 38.452001 32.005999 57.343017 0
M  V30 35 C 36.801285 34.069687 59.046218 0
M  V30 36 C 38.786229 30.548272 56.928018 0 CFG=1
M  V30 37 C 38.249367 33.557541 59.332739 0 CFG=2
M  V30 38 N 40.445304 29.593745 65.718725 0 CHG=1
M  V30 39 C 39.900371 29.417931 62.237081 0
M  V30 40 H 41.394870 29.897441 60.801517 0
M  V30 41 H 42.044664 28.933055 62.168092 0
M  V30 42 H 41.091727 28.177972 60.918323 0
M  V30 43 H 38.489540 34.915578 62.527839 0
M  V30 44 H 39.051188 30.549859 63.842680 0
M  V30 45 H 39.584810 31.497396 62.551317 0
M  V30 46 H 41.638685 36.554330 65.601680 0
M  V30 47 H 39.233021 30.281844 60.375609 0
M  V30 48 H 38.558721 28.694110 60.689228 0
M  V30 49 H 37.953673 30.137675 61.543537 0
M  V30 50 H 38.166465 27.481434 52.351605 0
M  V30 51 H 38.024359 26.879043 54.701224 0
M  V30 52 H 37.093946 36.198488 58.640536 0
M  V30 53 H 35.478040 35.778328 59.147233 0
M  V30 54 H 36.847658 39.091571 60.969022 0
M  V30 55 H 38.603397 38.908349 60.967370 0
M  V30 56 H 37.645452 38.311782 59.599293 0
M  V30 57 H 37.637360 37.115403 62.476743 0
M  V30 58 H 42.526385 32.781316 64.155270 0
M  V30 59 H 40.692578 36.227298 61.477556 0
M  V30 60 H 41.020226 34.622557 60.967944 0
M  V30 61 H 43.103005 31.150860 65.340437 0
M  V30 62 H 38.838914 29.028641 58.461538 0
M  V30 63 H 37.479008 30.649515 55.235847 0
M  V30 64 H 40.757708 29.331232 67.764695 0
M  V30 65 H 41.253301 27.935097 66.805856 0
M  V30 66 H 41.997303 30.348936 63.638535 0
M  V30 67 H 43.115972 29.786832 67.669748 0
M  V30 68 H 43.255114 29.059651 66.065546 0
M  V30 69 H 39.288488 31.819676 59.181080 0
M  V30 70 H 39.911533 31.750791 54.880413 0
M  V30 71 H 39.510559 32.931919 60.962043 0
M  V30 72 H 37.842515 33.057948 61.404056 0
M  V30 73 H 39.188568 29.343326 51.463882 0
M  V30 74 H 39.472920 35.961069 64.285336 0
M  V30 75 H 40.814525 36.936995 63.767143 0
M  V30 76 H 35.979215 30.412174 57.561759 0
M  V30 77 H 42.096518 34.985574 63.080076 0
M  V30 78 H 40.325582 31.114285 52.680115 0
M  V30 79 H 40.519249 33.635617 64.611212 0
M  V30 80 H 36.446833 35.188774 61.489481 0
M  V30 81 H 37.509671 32.309325 56.899322 0
M  V30 82 H 39.204690 32.677424 56.927872 0
M  V30 83 H 36.540247 33.902232 58.003131 0
M  V30 84 H 36.091993 33.466236 59.615099 0
M  V30 85 H 39.862389 30.415841 57.052499 0
M  V30 86 H 38.989362 34.137688 58.796611 0
M  V30 87 H 39.479579 29.756000 65.974079 0
M  V30 88 H 39.645255 28.540903 62.826218 0
M  V30 89 H 42.341762 31.718316 66.714269 0
M  V30 90 H 40.493433 29.006531 64.894342 0
M  V30 91 H 37.661020 31.612213 59.160732 0
M  V30 92 H 39.855405 33.192458 63.173360 0
M  V30 93 H 38.668659 36.259624 59.880100 0
M  V30 END ATOM
M  V30 BEGIN BOND
M  V30 1 2 8 6
M  V30 2 1 8 7
M  V30 3 1 12 10
M  V30 4 1 14 2
M  V30 5 1 15 11
M  V30 6 1 17 6
M  V30 7 1 19 3
M  V30 8 1 19 11
M  V30 9 1 19 13
M  V30 10 1 20 6
M  V30 11 1 20 16
M  V30 12 1 21 15
M  V30 13 1 21 18
M  V30 14 1 22 13
M  V30 15 1 24 17
M  V30 16 1 25 2
M  V30 17 2 26 7
M  V30 18 1 27 2
M  V30 19 1 27 12
M  V30 20 1 28 4
M  V30 21 1 29 16
M  V30 22 1 30 14
M  V30 23 1 30 28
M  V30 24 2 31 24
M  V30 25 1 31 26
M  V30 26 1 32 13
M  V30 27 1 32 30
M  V30 28 1 33 9
M  V30 29 1 33 12
M  V30 30 1 33 27
M  V30 31 1 34 23
M  V30 32 1 35 9
M  V30 33 1 36 16
M  V30 34 1 36 17
M  V30 35 1 36 34
M  V30 36 1 37 23
M  V30 37 1 37 25
M  V30 38 1 37 35
M  V30 39 1 38 11
M  V30 40 1 38 18
M  V30 41 1 39 1
M  V30 42 1 39 3
M  V30 43 1 39 5
M  V30 44 1 40 1
M  V30 45 1 41 1
M  V30 46 1 42 1
M  V30 47 1 2 43 CFG=1
M  V30 48 1 44 3
M  V30 49 1 45 3
M  V30 50 1 46 4
M  V30 51 1 47 5
M  V30 52 1 48 5
M  V30 53 1 49 5
M  V30 54 1 50 7
M  V30 55 1 51 8
M  V30 56 1 52 9
M  V30 57 1 53 9
M  V30 58 1 54 10
M  V30 59 1 55 10
M  V30 60 1 56 10
M  V30 61 1 12 57 CFG=1
M  V30 62 1 13 58 CFG=1
M  V30 63 1 59 14
M  V30 64 1 60 14
M  V30 65 1 61 15
M  V30 66 1 16 62 CFG=1
M  V30 67 1 17 63 CFG=3
M  V30 68 1 64 18
M  V30 69 1 65 18
M  V30 70 1 19 66 CFG=3
M  V30 71 1 67 21
M  V30 72 1 68 21
M  V30 73 1 69 23
M  V30 74 1 70 24
M  V30 75 1 71 25
M  V30 76 1 72 25
M  V30 77 1 73 26
M  V30 78 1 74 28
M  V30 79 1 75 28
M  V30 80 1 76 29
M  V30 81 1 30 77 CFG=3
M  V30 82 1 78 31
M  V30 83 1 79 32
M  V30 84 1 33 80 CFG=1
M  V30 85 1 81 34
M  V30 86 1 82 34
M  V30 87 1 83 35
M  V30 88 1 84 35
M  V30 89 1 36 85 CFG=3
M  V30 90 1 37 86 CFG=3
M  V30 91 1 87 38
M  V30 92 1 88 39
M  V30 93 1 89 15
M  V30 94 1 90 38
M  V30 95 1 91 23
M  V30 96 1 92 32
M  V30 97 1 27 93 CFG=3
M  V30 END BOND
M  V30 END CTAB
M  END
>  <i_epik_Tot_Q>  (1) 
4

>  <i_epik_Tot_abs_Q>  (1) 
6

>  <i_i_glide_confnum>  (1) 
1834

>  <i_i_glide_lignum>  (1) 
36

>  <i_i_glide_posenum>  (1) 
257

>  <i_i_glide_rotatable_bonds>  (1) 
14

>  <i_lp_mmshare_version>  (1) 
72125

>  <i_m_source_file_index>  (1) 
18

>  <i_f3d_flags>  (1) 
0

>  <num_sample>  (1) 
50

>  <b_lp_Chiralities_Consistent>  (1) 
1

>  <r_epik_Charging_Adjusted_Penalty>  (1) 
1.4553498192604928

>  <r_epik_Ionization_Penalty>  (1) 
1.1481457817152785

>  <r_epik_Ionization_Penalty_Charging>  (1) 
0.48043644912001532

>  <r_epik_Ionization_Penalty_Neutral>  (1) 
0.66770933259526311

>  <r_epik_State_Penalty>  (1) 
0.97491337014047741

>  <r_glide_ring_energy>  (1) 
0.0045750838620950583

>  <r_i_docking_score>  (1) 
-7.5953308223869875

>  <r_i_glide_ecoul>  (1) 
-13.227530284965567

>  <r_i_glide_eff_state_penalty>  (1) 
0.97491337014047741

>  <r_i_glide_einternal>  (1) 
11.31711800911194

>  <r_i_glide_emodel>  (1) 
-84.985642568695951

>  <r_i_glide_emodel_strain>  (1) 
3.8968108114491145

>  <r_i_glide_energy>  (1) 
-55.245683304178684

>  <r_i_glide_erotb>  (1) 
0.56146573491919982

>  <r_i_glide_esite>  (1) 
-0.13636960357784045

>  <r_i_glide_evdw>  (1) 
-42.018153019213116

>  <r_i_glide_gscore>  (1) 
-8.5702441925274648

>  <r_i_glide_gscore_strain>  (1) 
0

>  <r_i_glide_hbond>  (1) 
-0.39828941041676019

>  <r_i_glide_ligand_efficiency>  (1) 
-0.19475207236889711

>  <r_i_glide_ligand_efficiency_ln>  (1) 
-1.6286545346067114

>  <r_i_glide_ligand_efficiency_sa>  (1) 
-0.66044545636812713

>  <r_i_glide_lipo>  (1) 
-3.378122899383083

>  <r_i_glide_metal>  (1) 
-0

>  <r_i_glide_rewards>  (1) 
-1.1338908203634903

>  <r_lp_Energy>  (1) 
77.88823699999999

>  <s_epik_Chemistry_Notes>  (1) 
This compound contains an acetal/aminal-like group ( X-CH(R)-Y where X, Y are N, S, or O) that may be acid/base labile, releasing an aldehyde.

>  <s_epik_cmdline>  (1) 
J2VwaWtfcHl0aG9uJywgJy1waHQnLCAnMS4wJywgJy1waCcsICc3LjQnLCAnLXRuJywgJzgnLCAnLW1hJywgJzUwMCcsICctaW1hZScsICc8aW5maWxlLm1hZT4nLCAnLW9tYWUnLCAnPG91dGZpbGUubWFlPic=

>  <s_epik_input>  (1) 
W05IXTFbQ0gyXVtDSDJdW05IXU4xW0NAQEhdKFtDSDJdW0NIXShbQ0gzXSlbQ0gzXSlbQ0BASF0oW09IXSlbTkhdW0NASF0oW0NIMl1bT0hdKVtDSDJdW0NAQEhdMltDSDJdW0NASF0oW0NIMl1bQ0gyXVtDQEBIXShOMjMpW0NIXTNbQ0gzXSlbTkhdW0NIMl1bQ0BASF0oW0NASF0oTzQpW1NIXSlbQ0BIXShDND01KVtDSF09W0NIXVtDSF09W0NIXVtDSF01

>  <s_glide_docking_method>  (1) 
confgen

>  <s_i_glide_gridfile>  (1) 
gpcr_5ht2c_6bqh_protein_autoprepared_prepared

>  <s_lp_Force_Field>  (1) 
S-OPLS

>  <s_lp_Variant>  (1) 
DiffSBDD_17-3

>  <s_m_source_file>  (1) 
generated_GPCR_5HT2C_ligand_DiffSBDD_2026-06-23_prepared.sdf

>  <GenAI_Model>  (1) 
DiffSBDD

>  <Protein>  (1) 
GPCR_5HT2C

$$$$
DiffSBDD_27
     RDKit          3D

  0  0  0  0  0  0  0  0  0  0999 V3000
M  V30 BEGIN CTAB
M  V30 COUNTS 67 69 0 0 1
M  V30 BEGIN ATOM
M  V30 1 C 41.717178 27.731437 57.171401 0
M  V30 2 C 35.754032 34.937751 59.867681 0
M  V30 3 N 36.845180 23.632141 54.969115 0
M  V30 4 C 37.930766 30.192408 55.183375 0
M  V30 5 C 41.243740 31.878624 62.167462 0
M  V30 6 C 38.453170 32.225248 60.980377 0
M  V30 7 N 38.045503 31.049992 56.384863 0 CHG=1
M  V30 8 C 38.354969 31.049777 60.135846 0
M  V30 9 O 42.116891 32.676195 61.767619 0
M  V30 10 C 37.503772 24.576993 55.072220 0
M  V30 11 C 39.593276 35.474927 60.758074 0
M  V30 12 C 38.317977 25.807920 55.208533 0 CFG=1
M  V30 13 C 40.508030 27.544163 56.243098 0 CFG=1
M  V30 14 C 38.690056 32.179328 62.479084 0
M  V30 15 C 40.111746 32.461174 63.011169 0
M  V30 16 C 38.506434 29.649694 60.623493 0
M  V30 17 S 38.075133 33.061929 58.582858 0
M  V30 18 C 38.072892 31.362911 58.825655 0
M  V30 19 C 41.132904 27.873784 58.574691 0
M  V30 20 N 37.645155 26.880287 54.452481 0
M  V30 21 O 41.218104 30.647424 61.942411 0 CHG=-1
M  V30 22 C 38.263049 33.391593 60.267465 0
M  V30 23 C 38.422591 28.064616 54.135173 0
M  V30 24 C 37.113400 35.645580 60.095434 0
M  V30 25 N 38.579505 28.885379 55.334409 0
M  V30 26 O 37.721476 25.636648 57.511701 0
M  V30 27 C 38.525119 26.114494 56.708401 0
M  V30 28 N 39.567915 26.866469 57.141253 0
M  V30 29 C 39.981586 28.924108 55.759033 0
M  V30 30 C 37.796752 30.419954 57.698763 0
M  V30 31 C 38.213745 34.796741 60.786157 0 CFG=2
M  V30 32 C 39.872605 26.998251 58.554121 0
M  V30 33 H 42.344920 26.852738 57.153943 0
M  V30 34 H 42.379518 28.537774 56.885754 0
M  V30 35 H 35.074247 35.620670 59.367994 0
M  V30 36 H 35.311732 34.563196 60.793127 0
M  V30 37 H 35.788896 34.087872 59.194987 0
M  V30 38 H 38.342028 30.730081 54.326522 0
M  V30 39 H 36.868986 30.033488 54.989719 0
M  V30 40 H 38.961300 31.473109 56.407215 0
M  V30 41 H 40.301624 34.966941 61.409352 0
M  V30 42 H 39.525077 36.507325 61.098490 0
M  V30 43 H 40.043295 35.460187 59.767770 0
M  V30 44 H 39.273151 25.576403 54.737391 0
M  V30 45 H 40.811096 26.923839 55.401227 0
M  V30 46 H 38.045138 32.914142 62.947681 0
M  V30 47 H 38.348363 31.241080 62.907963 0
M  V30 48 H 40.203409 32.085361 64.030821 0
M  V30 49 H 40.262747 33.537096 63.086581 0
M  V30 50 H 37.766182 28.993360 60.167401 0
M  V30 51 H 38.445391 29.557534 61.701988 0
M  V30 52 H 39.493108 29.270955 60.375270 0
M  V30 53 H 41.838788 27.598231 59.358361 0
M  V30 54 H 40.869857 28.918710 58.732093 0
M  V30 55 H 36.756032 27.121935 54.865539 0
M  V30 56 H 39.370676 27.780641 53.672591 0
M  V30 57 H 37.872477 28.602853 53.360895 0
M  V30 58 H 37.469041 35.980771 59.121121 0
M  V30 59 H 36.950129 36.556703 60.671909 0
M  V30 60 H 40.093620 29.622775 56.582826 0
M  V30 61 H 40.601024 29.339095 54.968224 0
M  V30 62 H 38.381036 29.514038 57.843335 0
M  V30 63 H 36.752315 30.111027 57.731451 0
M  V30 64 H 37.913873 34.762687 61.831178 0
M  V30 65 H 39.041280 27.437978 59.097304 0
M  V30 66 H 40.045148 26.006135 58.967712 0
M  V30 67 H 37.344204 31.780048 56.302035 0
M  V30 END ATOM
M  V30 BEGIN BOND
M  V30 1 1 7 4
M  V30 2 1 8 6
M  V30 3 2 9 5
M  V30 4 3 10 3
M  V30 5 1 12 10
M  V30 6 1 13 1
M  V30 7 1 14 6
M  V30 8 1 15 5
M  V30 9 1 15 14
M  V30 10 1 16 8
M  V30 11 2 18 8
M  V30 12 1 18 17
M  V30 13 1 19 1
M  V30 14 1 20 12
M  V30 15 1 21 5
M  V30 16 2 22 6
M  V30 17 1 22 17
M  V30 18 1 23 20
M  V30 19 1 24 2
M  V30 20 1 25 4
M  V30 21 1 25 23
M  V30 22 1 27 12
M  V30 23 2 27 26
M  V30 24 1 28 13
M  V30 25 1 28 27
M  V30 26 1 29 13
M  V30 27 1 29 25
M  V30 28 1 30 7
M  V30 29 1 30 18
M  V30 30 1 31 11
M  V30 31 1 31 22
M  V30 32 1 31 24
M  V30 33 1 32 19
M  V30 34 1 32 28
M  V30 35 1 33 1
M  V30 36 1 34 1
M  V30 37 1 35 2
M  V30 38 1 36 2
M  V30 39 1 37 2
M  V30 40 1 38 4
M  V30 41 1 39 4
M  V30 42 1 40 7
M  V30 43 1 41 11
M  V30 44 1 42 11
M  V30 45 1 43 11
M  V30 46 1 12 44 CFG=3
M  V30 47 1 13 45 CFG=3
M  V30 48 1 46 14
M  V30 49 1 47 14
M  V30 50 1 48 15
M  V30 51 1 49 15
M  V30 52 1 50 16
M  V30 53 1 51 16
M  V30 54 1 52 16
M  V30 55 1 53 19
M  V30 56 1 54 19
M  V30 57 1 55 20
M  V30 58 1 56 23
M  V30 59 1 57 23
M  V30 60 1 58 24
M  V30 61 1 59 24
M  V30 62 1 60 29
M  V30 63 1 61 29
M  V30 64 1 62 30
M  V30 65 1 63 30
M  V30 66 1 31 64 CFG=1
M  V30 67 1 65 32
M  V30 68 1 66 32
M  V30 69 1 67 7
M  V30 END BOND
M  V30 END CTAB
M  END
>  <i_epik_Tot_Q>  (1) 
0

>  <i_epik_Tot_abs_Q>  (1) 
2

>  <i_i_glide_confnum>  (1) 
399

>  <i_i_glide_lignum>  (1) 
60

>  <i_i_glide_posenum>  (1) 
115

>  <i_i_glide_rotatable_bonds>  (1) 
9

>  <i_lp_mmshare_version>  (1) 
72125

>  <i_m_source_file_index>  (1) 
28

>  <i_f3d_flags>  (1) 
0

>  <num_sample>  (1) 
50

>  <b_lp_Chiralities_Consistent>  (1) 
1

>  <r_epik_Charging_Adjusted_Penalty>  (1) 
0.0027323958996878029

>  <r_epik_Ionization_Penalty>  (1) 
0.002819485543525381

>  <r_epik_Ionization_Penalty_Charging>  (1) 
0.0027323958996878029

>  <r_epik_Ionization_Penalty_Neutral>  (1) 
8.708964383757816e-05

>  <r_epik_State_Penalty>  (1) 
-0

>  <r_glide_ring_energy>  (1) 
0

>  <r_i_docking_score>  (1) 
-7.5754204399762521

>  <r_i_glide_ecoul>  (1) 
-6.1358691510529058

>  <r_i_glide_eff_state_penalty>  (1) 
-0

>  <r_i_glide_einternal>  (1) 
8.568008256567115

>  <r_i_glide_emodel>  (1) 
-65.869459223280558

>  <r_i_glide_emodel_strain>  (1) 
1.8969897657153822

>  <r_i_glide_energy>  (1) 
-45.533638326689953

>  <r_i_glide_erotb>  (1) 
0.66148182558323176

>  <r_i_glide_esite>  (1) 
-0.13744059935600489

>  <r_i_glide_evdw>  (1) 
-39.397769175637045

>  <r_i_glide_gscore>  (1) 
-7.5754204399762521

>  <r_i_glide_gscore_strain>  (1) 
0

>  <r_i_glide_hbond>  (1) 
-0.27192493336306223

>  <r_i_glide_ligand_efficiency>  (1) 
-0.23673188874925788

>  <r_i_glide_ligand_efficiency_ln>  (1) 
-1.6963431346728217

>  <r_i_glide_ligand_efficiency_sa>  (1) 
-0.75157689846998155

>  <r_i_glide_lipo>  (1) 
-2.2781571748478671

>  <r_i_glide_metal>  (1) 
-0

>  <r_i_glide_rewards>  (1) 
-2.6591107265527603

>  <r_lp_Energy>  (1) 
42.969059000000001

>  <r_lp_tautomer_probability>  (1) 
1

>  <s_epik_Chemistry_Notes>  (1) 
This compound contains an acetal/aminal-like group ( X-CH(R)-Y where X, Y are N, S, or O) that may be acid/base labile, releasing an aldehyde.

>  <s_epik_cmdline>  (1) 
J2VwaWtfcHl0aG9uJywgJy1waHQnLCAnMS4wJywgJy1waCcsICc3LjQnLCAnLXRuJywgJzgnLCAnLW1hJywgJzUwMCcsICctaW1hZScsICc8aW5maWxlLm1hZT4nLCAnLW9tYWUnLCAnPG91dGZpbGUubWFlPic=

>  <s_epik_input>  (1) 
W0NIMl0xW0NIMl1bQ0gyXU4oW0NASF0xMilDKD1PKVtDQEBIXShDI04pW05IXVtDSDJdTihbQ0gyXTIpW0NIMl1bTkhdW0NIMl1jKHNjM1tDQEBIXShbQ0gzXSlbQ0gyXVtDSDNdKWMoW0NIM10pYzNbQ0gyXVtDSDJdQyg9TylbT0hd

>  <s_glide_docking_method>  (1) 
confgen

>  <s_i_glide_gridfile>  (1) 
gpcr_5ht2c_6bqh_protein_autoprepared_prepared

>  <s_lp_Force_Field>  (1) 
S-OPLS

>  <s_lp_Variant>  (1) 
DiffSBDD_27-1

>  <s_m_source_file>  (1) 
generated_GPCR_5HT2C_ligand_DiffSBDD_2026-06-23_prepared.sdf

>  <GenAI_Model>  (1) 
DiffSBDD

>  <Protein>  (1) 
GPCR_5HT2C

$$$$
DiffSBDD_48
     RDKit          3D

  0  0  0  0  0  0  0  0  0  0999 V3000
M  V30 BEGIN CTAB
M  V30 COUNTS 78 78 0 0 1
M  V30 BEGIN ATOM
M  V30 1 O 42.550783 24.881928 64.455989 0
M  V30 2 C 40.013808 32.278764 60.961018 0
M  V30 3 C 39.661742 32.594188 62.418551 0
M  V30 4 O 39.668874 29.759011 51.344229 0
M  V30 5 C 38.926947 28.089973 59.611788 0
M  V30 6 C 42.128575 25.339728 65.537825 0
M  V30 7 C 39.154272 26.964412 53.883673 0
M  V30 8 C 43.160957 25.980511 66.470488 0
M  V30 9 C 40.272930 28.841250 59.639614 0
M  V30 10 C 39.645121 31.392109 63.378273 0
M  V30 11 N 40.357382 29.882677 60.665447 0
M  V30 12 C 44.825574 27.922693 66.673487 0
M  V30 13 C 38.959826 26.857114 58.699821 0
M  V30 14 C 39.485600 29.092981 52.537002 0
M  V30 15 C 39.662359 29.019157 50.133471 0
M  V30 16 C 43.615374 27.349798 65.916493 0 CFG=2
M  V30 17 C 42.439448 28.354301 65.856962 0
M  V30 18 C 39.448403 30.021907 53.735595 0
M  V30 19 O 36.845151 27.653056 53.767769 0
M  V30 20 C 40.678002 30.283881 63.127359 0 CFG=2
M  V30 21 C 42.009365 28.623480 64.414355 0
M  V30 22 O 40.937882 25.337692 65.920631 0 CHG=-1
M  V30 23 C 38.268998 27.083890 57.356412 0
M  V30 24 O 45.245129 29.116741 66.038422 0
M  V30 25 C 37.675623 26.899371 54.275608 0
M  V30 26 C 38.227606 25.788125 56.535300 0
M  V30 27 C 40.226476 29.321905 62.008665 0
M  V30 28 C 39.409238 30.971428 60.426027 0
M  V30 29 C 39.353678 27.744166 52.595928 0
M  V30 30 N 40.845165 29.525099 64.383561 0 CHG=1
M  V30 31 C 37.269118 25.853311 55.333889 0 CFG=2
M  V30 32 C 37.056584 24.468359 54.717344 0
M  V30 33 H 41.098706 32.264171 60.845201 0
M  V30 34 H 39.669336 33.107921 60.340695 0
M  V30 35 H 40.367133 33.340869 62.785080 0
M  V30 36 H 38.683652 33.075890 62.453478 0
M  V30 37 H 38.670846 27.737738 60.606087 0
M  V30 38 H 38.116236 28.760857 59.324627 0
M  V30 39 H 39.706646 27.443070 54.690399 0
M  V30 40 H 39.560820 25.959947 53.770259 0
M  V30 41 H 44.011140 25.304145 66.561043 0
M  V30 42 H 42.738861 26.086945 67.470250 0
M  V30 43 H 40.466497 29.284105 58.661454 0
M  V30 44 H 41.085778 28.133671 59.810101 0
M  V30 45 H 38.654901 30.936541 63.367185 0
M  V30 46 H 39.777261 31.792959 64.383896 0
M  V30 47 H 45.654081 27.212467 66.657041 0
M  V30 48 H 44.588188 28.122840 67.718582 0
M  V30 49 H 39.983025 26.509260 58.550157 0
M  V30 50 H 38.445098 26.040082 59.202409 0
M  V30 51 H 39.833023 29.690349 49.291922 0
M  V30 52 H 40.445130 28.264998 50.119859 0
M  V30 53 H 38.703747 28.529186 49.981946 0
M  V30 54 H 43.976004 27.171834 64.900358 0
M  V30 55 H 41.591661 27.991118 66.440807 0
M  V30 56 H 42.712313 29.301221 66.323523 0
M  V30 57 H 40.046489 29.646178 54.564379 0
M  V30 58 H 39.829619 31.006631 53.463082 0
M  V30 59 H 38.420986 30.144355 54.079691 0
M  V30 60 H 41.637191 30.741136 62.878773 0
M  V30 61 H 42.846098 29.070999 63.875860 0
M  V30 62 H 41.760685 27.691053 63.906216 0
M  V30 63 H 37.249979 27.430783 57.534647 0
M  V30 64 H 38.776102 27.877362 56.807277 0
M  V30 65 H 46.174462 29.251243 66.216601 0
M  V30 66 H 39.235853 25.509377 56.223323 0
M  V30 67 H 37.890385 24.978486 57.183539 0
M  V30 68 H 40.843725 28.423476 62.033503 0
M  V30 69 H 39.205132 28.995462 62.200190 0
M  V30 70 H 39.245103 31.085773 59.352794 0
M  V30 71 H 38.427454 30.762477 60.852727 0
M  V30 72 H 39.384589 27.156096 51.692955 0
M  V30 73 H 39.997716 28.994690 64.568215 0
M  V30 74 H 36.298085 26.137906 55.732925 0
M  V30 75 H 36.525221 24.537523 53.767774 0
M  V30 76 H 38.005798 23.954365 54.567772 0
M  V30 77 H 36.453100 23.844774 55.377376 0
M  V30 78 H 40.970038 30.197096 65.125658 0
M  V30 END ATOM
M  V30 BEGIN BOND
M  V30 1 1 3 2
M  V30 2 2 6 1
M  V30 3 1 8 6
M  V30 4 1 9 5
M  V30 5 1 10 3
M  V30 6 1 11 9
M  V30 7 1 13 5
M  V30 8 1 14 4
M  V30 9 1 15 4
M  V30 10 1 16 8
M  V30 11 1 16 12
M  V30 12 1 17 16
M  V30 13 1 18 14
M  V30 14 1 20 10
M  V30 15 1 21 17
M  V30 16 1 22 6
M  V30 17 1 23 13
M  V30 18 1 24 12
M  V30 19 1 25 7
M  V30 20 2 25 19
M  V30 21 1 26 23
M  V30 22 1 27 11
M  V30 23 1 27 20
M  V30 24 1 28 2
M  V30 25 1 28 11
M  V30 26 1 29 7
M  V30 27 2 29 14
M  V30 28 1 30 20
M  V30 29 1 30 21
M  V30 30 1 31 25
M  V30 31 1 31 26
M  V30 32 1 32 31
M  V30 33 1 33 2
M  V30 34 1 34 2
M  V30 35 1 35 3
M  V30 36 1 36 3
M  V30 37 1 37 5
M  V30 38 1 38 5
M  V30 39 1 39 7
M  V30 40 1 40 7
M  V30 41 1 41 8
M  V30 42 1 42 8
M  V30 43 1 43 9
M  V30 44 1 44 9
M  V30 45 1 45 10
M  V30 46 1 46 10
M  V30 47 1 47 12
M  V30 48 1 48 12
M  V30 49 1 49 13
M  V30 50 1 50 13
M  V30 51 1 51 15
M  V30 52 1 52 15
M  V30 53 1 53 15
M  V30 54 1 16 54 CFG=3
M  V30 55 1 55 17
M  V30 56 1 56 17
M  V30 57 1 57 18
M  V30 58 1 58 18
M  V30 59 1 59 18
M  V30 60 1 20 60 CFG=3
M  V30 61 1 61 21
M  V30 62 1 62 21
M  V30 63 1 63 23
M  V30 64 1 64 23
M  V30 65 1 65 24
M  V30 66 1 66 26
M  V30 67 1 67 26
M  V30 68 1 68 27
M  V30 69 1 69 27
M  V30 70 1 70 28
M  V30 71 1 71 28
M  V30 72 1 72 29
M  V30 73 1 73 30
M  V30 74 1 31 74 CFG=1
M  V30 75 1 75 32
M  V30 76 1 76 32
M  V30 77 1 77 32
M  V30 78 1 78 30
M  V30 END BOND
M  V30 END CTAB
M  END
>  <i_epik_Tot_Q>  (1) 
0

>  <i_epik_Tot_abs_Q>  (1) 
2

>  <i_i_glide_confnum>  (1) 
2824

>  <i_i_glide_lignum>  (1) 
102

>  <i_i_glide_posenum>  (1) 
61

>  <i_i_glide_rotatable_bonds>  (1) 
18

>  <i_lp_mmshare_version>  (1) 
72125

>  <i_m_source_file_index>  (1) 
49

>  <i_f3d_flags>  (1) 
0

>  <num_sample>  (1) 
50

>  <b_lp_Chiralities_Consistent>  (1) 
1

>  <r_epik_Charging_Adjusted_Penalty>  (1) 
0.04911624183534407

>  <r_epik_Ionization_Penalty>  (1) 
0.025385742012929795

>  <r_epik_Ionization_Penalty_Charging>  (1) 
0.0065475108590220404

>  <r_epik_Ionization_Penalty_Neutral>  (1) 
0.018838231153907755

>  <r_epik_State_Penalty>  (1) 
0.042568730976322029

>  <r_glide_ring_energy>  (1) 
0

>  <r_i_docking_score>  (1) 
-7.5726544362800468

>  <r_i_glide_ecoul>  (1) 
-9.9283946202562348

>  <r_i_glide_eff_state_penalty>  (1) 
0.042568730976322029

>  <r_i_glide_einternal>  (1) 
32.019918629039374

>  <r_i_glide_emodel>  (1) 
-54.596828533375287

>  <r_i_glide_emodel_strain>  (1) 
1.1172426260469877

>  <r_i_glide_energy>  (1) 
-50.339223370725961

>  <r_i_glide_erotb>  (1) 
1.5544609794247006

>  <r_i_glide_esite>  (1) 
-0.030177529604291254

>  <r_i_glide_evdw>  (1) 
-40.410828750469726

>  <r_i_glide_gscore>  (1) 
-7.6152231672563691

>  <r_i_glide_gscore_strain>  (1) 
0

>  <r_i_glide_hbond>  (1) 
-0.37456393119714321

>  <r_i_glide_ligand_efficiency>  (1) 
-0.23664545113375146

>  <r_i_glide_ligand_efficiency_ln>  (1) 
-1.6957237510468282

>  <r_i_glide_ligand_efficiency_sa>  (1) 
-0.75130247614641255

>  <r_i_glide_lipo>  (1) 
-4.0659706889527572

>  <r_i_glide_metal>  (1) 
-0

>  <r_i_glide_rewards>  (1) 
-1.1891713663649557

>  <r_lp_Energy>  (1) 
19.305907999999999

>  <r_lp_tautomer_probability>  (1) 
0.99990000499974985

>  <s_epik_cmdline>  (1) 
J2VwaWtfcHl0aG9uJywgJy1waHQnLCAnMS4wJywgJy1waCcsICc3LjQnLCAnLXRuJywgJzgnLCAnLW1hJywgJzUwMCcsICctaW1hZScsICc8aW5maWxlLm1hZT4nLCAnLW9tYWUnLCAnPG91dGZpbGUubWFlPic=

>  <s_epik_input>  (1) 
Tz1DKFtPSF0pW0NIMl1bQ0BASF0oW0NIMl1bT0hdKVtDSDJdW0NIMl1bTkhdW0NASF0oW0NIMl1bQ0gyXVtDSDJdW0NIMl0xKVtDSDJdTjFbQ0gyXVtDSDJdW0NIMl1bQ0gyXVtDSDJdW0NASF0oW0NIM10pQyg9TylbQ0gyXVxbQ0hdPUMoW0NIM10pXE9bQ0gzXQ==

>  <s_glide_docking_method>  (1) 
confgen

>  <s_i_glide_gridfile>  (1) 
gpcr_5ht2c_6bqh_protein_autoprepared_prepared

>  <s_lp_Force_Field>  (1) 
S-OPLS

>  <s_lp_Variant>  (1) 
DiffSBDD_48-4

>  <s_m_source_file>  (1) 
generated_GPCR_5HT2C_ligand_DiffSBDD_2026-06-23_prepared.sdf

>  <GenAI_Model>  (1) 
DiffSBDD

>  <Protein>  (1) 
GPCR_5HT2C

$$$$
DiffSBDD_26
     RDKit          3D

  0  0  0  0  0  0  0  0  0  0999 V3000
M  V30 BEGIN CTAB
M  V30 COUNTS 84 87 0 0 1
M  V30 BEGIN ATOM
M  V30 1 C 39.391161 32.712773 60.571604 0
M  V30 2 C 40.462720 30.605562 50.679837 0
M  V30 3 C 37.846579 31.488031 54.907283 0
M  V30 4 C 38.409024 26.399608 54.607201 0
M  V30 5 N 38.514702 30.211094 55.150127 0
M  V30 6 O 40.723823 26.137320 54.026449 0
M  V30 7 C 38.781781 29.412198 52.204859 0
M  V30 8 C 38.665704 28.586736 53.489366 0 CFG=1
M  V30 9 N 37.085265 32.362380 59.916647 0 CFG=2 CHG=1
M  V30 10 N 40.021202 31.194407 62.455258 0
M  V30 11 C 38.445562 32.579414 55.805189 0
M  V30 12 C 40.935990 30.734587 64.791957 0
M  V30 13 C 39.501551 31.302455 49.718227 0
M  V30 14 C 38.626440 33.366407 58.221755 0
M  V30 15 C 39.818925 25.963171 54.834350 0
M  V30 16 O 41.102670 29.207691 62.169221 0
M  V30 17 C 38.291248 32.189124 57.279782 0
M  V30 18 C 40.213849 29.995755 61.855469 0
M  V30 19 C 39.032622 25.075542 56.960386 0
M  V30 20 C 37.784446 25.443626 56.736772 0
M  V30 21 C 37.464146 26.127743 55.536212 0
M  V30 22 C 40.897925 31.657307 63.551780 0
M  V30 23 O 37.767300 29.248705 54.377439 0
M  V30 24 C 35.213870 33.911297 59.486423 0
M  V30 25 C 37.554647 31.536345 61.947367 0
M  V30 26 C 38.107529 27.163142 53.329277 0
M  V30 27 C 38.327836 29.789043 56.537292 0
M  V30 28 C 35.685565 32.611168 60.110988 0 CFG=2
M  V30 29 C 38.956631 30.819064 57.496460 0
M  V30 30 C 39.977184 29.242177 51.252914 0
M  V30 31 C 36.640828 32.549225 61.295885 0 CFG=2
M  V30 32 C 38.227222 33.273137 59.708749 0 CFG=2
M  V30 33 C 41.750713 30.433221 49.906055 0
M  V30 34 C 38.990972 32.139934 61.966204 0 CFG=2
M  V30 35 O 39.702477 29.729362 66.478165 0
M  V30 36 O 39.647145 30.651389 65.360526 0
M  V30 37 N 40.041584 25.337796 56.033924 0
M  V30 38 H 40.185401 33.453009 60.674641 0
M  V30 39 H 39.813291 31.891909 60.017376 0
M  V30 40 H 40.673189 31.288021 51.505187 0
M  V30 41 H 36.779120 31.379314 55.084655 0
M  V30 42 H 37.955614 31.789040 53.867717 0
M  V30 43 H 40.979295 25.023613 56.260408 0
M  V30 44 H 37.851370 29.337649 51.648566 0
M  V30 45 H 38.868772 30.429396 52.569414 0
M  V30 46 H 39.645362 28.538741 53.945442 0
M  V30 47 H 37.935688 33.522212 55.601916 0
M  V30 48 H 39.496892 32.733255 55.562142 0
M  V30 49 H 41.620332 31.155149 65.530232 0
M  V30 50 H 41.310622 29.738480 64.559438 0
M  V30 51 H 39.245739 30.623145 48.917492 0
M  V30 52 H 38.599852 31.697697 50.166985 0
M  V30 53 H 39.979672 32.141138 49.227812 0
M  V30 54 H 38.056579 34.205520 57.824257 0
M  V30 55 H 39.673129 33.649173 58.151846 0
M  V30 56 H 37.245191 32.012189 57.425489 0
M  V30 57 H 39.479560 29.825349 61.053164 0
M  V30 58 H 39.363803 24.555747 57.842849 0
M  V30 59 H 37.015344 25.231373 57.465210 0
M  V30 60 H 36.446577 26.448873 55.367805 0
M  V30 61 H 40.620202 32.657858 63.884033 0
M  V30 62 H 41.909139 31.757054 63.155283 0
M  V30 63 H 34.127772 33.981768 59.556423 0
M  V30 64 H 35.648406 34.775616 59.989169 0
M  V30 65 H 35.487196 33.949658 58.431845 0
M  V30 66 H 37.477614 30.560465 61.463920 0
M  V30 67 H 37.245357 31.412426 62.967757 0
M  V30 68 H 37.035876 27.181170 53.126773 0
M  V30 69 H 38.585521 26.657836 52.488841 0
M  V30 70 H 37.263546 29.675458 56.752075 0
M  V30 71 H 38.791027 28.811548 56.677746 0
M  V30 72 H 35.133529 31.715549 59.832815 0
M  V30 73 H 40.022802 30.865997 57.293619 0
M  V30 74 H 38.834195 30.476414 58.522463 0
M  V30 75 H 40.813519 28.775643 51.769834 0
M  V30 76 H 39.713636 28.555193 50.446823 0
M  V30 77 H 36.776626 33.544067 61.720858 0
M  V30 78 H 37.995775 34.282261 60.054964 0
M  V30 79 H 41.627314 29.737768 49.083116 0
M  V30 80 H 42.055458 31.337667 49.417528 0
M  V30 81 H 42.556069 30.137884 50.567790 0
M  V30 82 H 38.936474 32.993135 62.642683 0
M  V30 83 H 39.399950 28.935998 66.057166 0
M  V30 84 H 37.273533 31.394201 59.701761 0
M  V30 END ATOM
M  V30 BEGIN BOND
M  V30 1 1 5 3
M  V30 2 1 8 7
M  V30 3 1 11 3
M  V30 4 1 13 2
M  V30 5 1 15 4
M  V30 6 2 15 6
M  V30 7 1 17 11
M  V30 8 1 17 14
M  V30 9 1 18 10
M  V30 10 2 18 16
M  V30 11 2 20 19
M  V30 12 2 21 4
M  V30 13 1 21 20
M  V30 14 1 22 10
M  V30 15 1 22 12
M  V30 16 1 23 5
M  V30 17 1 23 8
M  V30 18 1 26 4
M  V30 19 1 26 8
M  V30 20 1 27 5
M  V30 21 1 28 9
M  V30 22 1 28 24
M  V30 23 1 29 17
M  V30 24 1 29 27
M  V30 25 1 30 2
M  V30 26 1 30 7
M  V30 27 1 31 9
M  V30 28 1 31 25
M  V30 29 1 31 28
M  V30 30 1 32 1
M  V30 31 1 32 9
M  V30 32 1 32 14
M  V30 33 1 33 2
M  V30 34 1 34 1
M  V30 35 1 34 10
M  V30 36 1 34 25
M  V30 37 1 36 12
M  V30 38 1 36 35
M  V30 39 1 37 15
M  V30 40 1 37 19
M  V30 41 1 38 1
M  V30 42 1 39 1
M  V30 43 1 40 2
M  V30 44 1 41 3
M  V30 45 1 42 3
M  V30 46 1 43 37
M  V30 47 1 44 7
M  V30 48 1 45 7
M  V30 49 1 8 46 CFG=1
M  V30 50 1 47 11
M  V30 51 1 48 11
M  V30 52 1 49 12
M  V30 53 1 50 12
M  V30 54 1 51 13
M  V30 55 1 52 13
M  V30 56 1 53 13
M  V30 57 1 54 14
M  V30 58 1 55 14
M  V30 59 1 56 17
M  V30 60 1 57 18
M  V30 61 1 58 19
M  V30 62 1 59 20
M  V30 63 1 60 21
M  V30 64 1 61 22
M  V30 65 1 62 22
M  V30 66 1 63 24
M  V30 67 1 64 24
M  V30 68 1 65 24
M  V30 69 1 66 25
M  V30 70 1 67 25
M  V30 71 1 68 26
M  V30 72 1 69 26
M  V30 73 1 70 27
M  V30 74 1 71 27
M  V30 75 1 28 72 CFG=1
M  V30 76 1 73 29
M  V30 77 1 74 29
M  V30 78 1 75 30
M  V30 79 1 76 30
M  V30 80 1 31 77 CFG=1
M  V30 81 1 32 78 CFG=1
M  V30 82 1 79 33
M  V30 83 1 80 33
M  V30 84 1 81 33
M  V30 85 1 34 82 CFG=1
M  V30 86 1 83 35
M  V30 87 1 9 84 CFG=1
M  V30 END BOND
M  V30 END CTAB
M  END
>  <i_epik_Tot_Q>  (1) 
1

>  <i_epik_Tot_abs_Q>  (1) 
1

>  <i_i_glide_confnum>  (1) 
1102

>  <i_i_glide_lignum>  (1) 
59

>  <i_i_glide_posenum>  (1) 
80

>  <i_i_glide_rotatable_bonds>  (1) 
15

>  <i_lp_mmshare_version>  (1) 
72125

>  <i_m_source_file_index>  (1) 
27

>  <i_f3d_flags>  (1) 
0

>  <num_sample>  (1) 
50

>  <b_lp_Chiralities_Consistent>  (1) 
1

>  <r_epik_Charging_Adjusted_Penalty>  (1) 
0.02425622639956965

>  <r_epik_Ionization_Penalty>  (1) 
0.033094864685368548

>  <r_epik_Ionization_Penalty_Charging>  (1) 
0.02425622639956965

>  <r_epik_Ionization_Penalty_Neutral>  (1) 
0.0088386382857988978

>  <r_epik_State_Penalty>  (1) 
-0

>  <r_glide_ring_energy>  (1) 
0

>  <r_i_docking_score>  (1) 
-7.5587705597590249

>  <r_i_glide_ecoul>  (1) 
-4.7722235116483205

>  <r_i_glide_eff_state_penalty>  (1) 
-0

>  <r_i_glide_einternal>  (1) 
14.144202970989504

>  <r_i_glide_emodel>  (1) 
-55.260589985804515

>  <r_i_glide_emodel_strain>  (1) 
1.3733299673043291

>  <r_i_glide_energy>  (1) 
-43.620114432362719

>  <r_i_glide_erotb>  (1) 
0.83677420797818713

>  <r_i_glide_esite>  (1) 
-0.054811790354032622

>  <r_i_glide_evdw>  (1) 
-38.847890920714399

>  <r_i_glide_gscore>  (1) 
-7.5587705597590249

>  <r_i_glide_gscore_strain>  (1) 
0

>  <r_i_glide_hbond>  (1) 
-0.7333652470802754

>  <r_i_glide_ligand_efficiency>  (1) 
-0.20429109620970337

>  <r_i_glide_ligand_efficiency_ln>  (1) 
-1.6393201316881165

>  <r_i_glide_ligand_efficiency_sa>  (1) 
-0.68074325488667942

>  <r_i_glide_lipo>  (1) 
-3.8336234797442992

>  <r_i_glide_metal>  (1) 
-0

>  <r_i_glide_rewards>  (1) 
-1.1155161777756364

>  <r_lp_Energy>  (1) 
62.164225999999999

>  <r_lp_tautomer_probability>  (1) 
1

>  <s_epik_Chemistry_Notes>  (1) 
This compound has a N-S or N-O group and may undergo hydrolysis at high or low pH.

>  <s_epik_cmdline>  (1) 
J2VwaWtfcHl0aG9uJywgJy1waHQnLCAnMS4wJywgJy1waCcsICc3LjQnLCAnLXRuJywgJzgnLCAnLW1hJywgJzUwMCcsICctaW1hZScsICc8aW5maWxlLm1hZT4nLCAnLW9tYWUnLCAnPG91dGZpbGUubWFlPic=

>  <s_epik_input>  (1) 
W09IXU9bQ0gyXVtDSDJdTihbQ0hdPU8pW0NASF0oW0NIMl1bQ0BASF0oTjEyKVtDQEhdMVtDSDNdKVtDSDJdW0NASF0yW0NIMl1bQ0hdKFtDSDJdW0NIMl0zKVtDSDJdW0NIMl1OM09bQ0BIXShbQ0gyXVtDSDJdW0NIXShbQ0gzXSlbQ0gzXSlbQ0gyXVtDQEBIXTRDKD1PKU49W0NIXVtDSF09W0NIXTQ=

>  <s_glide_docking_method>  (1) 
confgen

>  <s_i_glide_gridfile>  (1) 
gpcr_5ht2c_6bqh_protein_autoprepared_prepared

>  <s_lp_Force_Field>  (1) 
S-OPLS

>  <s_lp_Variant>  (1) 
DiffSBDD_26-4

>  <s_m_source_file>  (1) 
generated_GPCR_5HT2C_ligand_DiffSBDD_2026-06-23_prepared.sdf

>  <GenAI_Model>  (1) 
DiffSBDD

>  <Protein>  (1) 
GPCR_5HT2C

$$$$
DiffSBDD_16
     RDKit          3D

  0  0  0  0  0  0  0  0  0  0999 V3000
M  V30 BEGIN CTAB
M  V30 COUNTS 73 79 0 0 1
M  V30 BEGIN ATOM
M  V30 1 C 36.670808 33.020348 59.357735 0
M  V30 2 C 39.998291 29.691983 61.018327 0
M  V30 3 C 38.205893 26.471738 56.524960 0 CFG=2
M  V30 4 C 37.952529 33.385246 61.549854 0 CFG=2
M  V30 5 C 37.245416 28.362391 58.167730 0
M  V30 6 C 41.615559 32.717888 66.614022 0
M  V30 7 C 39.029036 28.533598 54.273869 0 CFG=2
M  V30 8 N 39.730068 29.000002 55.509809 0
M  V30 9 C 39.744048 26.669620 56.413614 0 CFG=1
M  V30 10 F 35.199234 34.614892 58.567833 0
M  V30 11 C 36.588079 35.187770 60.439254 0
M  V30 12 C 41.098548 32.578346 64.112293 0 CFG=2
M  V30 13 C 37.444707 34.817222 61.401964 0
M  V30 14 O 40.879038 29.295964 61.782777 0
M  V30 15 C 38.743981 31.256287 55.208404 0
M  V30 16 C 39.961952 30.451073 55.636002 0
M  V30 17 C 38.982046 29.667197 53.222097 0
M  V30 18 O 39.247317 33.215437 62.110008 0
M  V30 19 O 40.330137 25.969158 55.334794 0
M  V30 20 C 40.171629 28.151667 56.485532 0
M  V30 21 C 36.142003 34.246440 59.443428 0
M  V30 22 C 42.362291 33.394384 64.018789 0 CFG=1
M  V30 23 C 41.097546 34.096417 64.025155 0 CFG=2
M  V30 24 C 41.906182 34.240452 66.409179 0
M  V30 25 C 37.504152 26.590096 55.164171 0
M  V30 26 C 39.787606 31.943908 62.046595 0
M  V30 27 C 40.797953 32.004884 65.487371 0
M  V30 28 C 37.589564 27.397617 57.502830 0
M  V30 29 C 38.130249 30.581844 58.842928 0
M  V30 30 C 37.682864 32.569915 60.299116 0
M  V30 31 C 38.368155 31.430959 60.093354 0
M  V30 32 C 42.184394 34.581144 64.953240 0 CFG=1
M  V30 33 O 40.845475 28.537537 57.441387 0
M  V30 34 C 38.372450 30.975076 53.767735 0
M  V30 35 N 40.746813 31.687195 63.017262 0
M  V30 36 C 37.602522 27.973900 54.481627 0
M  V30 37 C 36.989950 29.566722 58.974245 0
M  V30 38 C 39.387285 31.062575 61.079661 0
M  V30 39 H 36.337176 32.364852 58.577700 0
M  V30 40 H 39.603539 29.048489 60.236035 0
M  V30 41 H 38.025468 25.468954 56.912379 0
M  V30 42 H 37.291991 32.937736 62.293900 0
M  V30 43 H 41.143349 32.553260 67.582829 0
M  V30 44 H 42.581770 32.216132 66.672664 0
M  V30 45 H 39.628345 27.758903 53.801269 0
M  V30 46 H 40.179010 26.212729 57.306023 0
M  V30 47 H 36.236986 36.208542 60.401526 0
M  V30 48 H 37.776767 35.534896 62.137305 0
M  V30 49 H 37.895496 30.980344 55.835330 0
M  V30 50 H 38.903846 32.324498 55.366074 0
M  V30 51 H 40.083770 30.739286 56.676801 0
M  V30 52 H 40.844125 30.749772 55.069766 0
M  V30 53 H 38.455476 29.339058 52.323257 0
M  V30 54 H 40.001355 29.875738 52.893966 0
M  V30 55 H 39.887593 26.222305 54.540468 0
M  V30 56 H 42.845120 33.484256 63.053321 0
M  V30 57 H 40.909688 34.624440 63.092920 0
M  V30 58 H 41.051779 34.831766 66.741625 0
M  V30 59 H 42.759686 34.537694 67.015671 0
M  V30 60 H 36.454942 26.335965 55.323967 0
M  V30 61 H 37.877347 25.821367 54.485617 0
M  V30 62 H 39.730325 32.097762 65.665852 0
M  V30 63 H 41.020701 30.936769 65.500515 0
M  V30 64 H 39.061797 30.097336 58.566930 0
M  V30 65 H 37.962716 31.221251 57.981648 0
M  V30 66 H 42.656994 35.535848 64.729079 0
M  V30 67 H 37.284348 30.930993 53.767855 0
M  V30 68 H 38.689104 31.818344 53.151828 0
M  V30 69 H 41.172095 30.767270 63.032524 0
M  V30 70 H 36.995704 28.733834 54.967962 0
M  V30 71 H 37.131194 27.853871 53.505428 0
M  V30 72 H 36.036208 30.000675 58.671225 0
M  V30 73 H 36.884478 29.277434 60.014389 0
M  V30 END ATOM
M  V30 BEGIN BOND
M  V30 1 1 8 7
M  V30 2 1 9 3
M  V30 3 1 13 4
M  V30 4 2 13 11
M  V30 5 2 14 2
M  V30 6 1 16 8
M  V30 7 1 16 15
M  V30 8 1 17 7
M  V30 9 1 18 4
M  V30 10 1 19 9
M  V30 11 1 20 8
M  V30 12 1 20 9
M  V30 13 2 21 1
M  V30 14 1 21 10
M  V30 15 1 21 11
M  V30 16 1 22 12
M  V30 17 1 23 12
M  V30 18 1 23 22
M  V30 19 1 24 6
M  V30 20 1 25 3
M  V30 21 1 26 18
M  V30 22 1 27 6
M  V30 23 1 27 12
M  V30 24 1 28 3
M  V30 25 3 28 5
M  V30 26 1 30 1
M  V30 27 1 30 4
M  V30 28 1 31 29
M  V30 29 2 31 30
M  V30 30 1 32 22
M  V30 31 1 32 23
M  V30 32 1 32 24
M  V30 33 2 33 20
M  V30 34 1 34 15
M  V30 35 1 34 17
M  V30 36 1 12 35 CFG=3
M  V30 37 1 35 26
M  V30 38 1 36 7
M  V30 39 1 36 25
M  V30 40 1 37 5
M  V30 41 1 37 29
M  V30 42 1 38 2
M  V30 43 2 38 26
M  V30 44 1 38 31
M  V30 45 1 39 1
M  V30 46 1 40 2
M  V30 47 1 3 41 CFG=1
M  V30 48 1 4 42 CFG=1
M  V30 49 1 43 6
M  V30 50 1 44 6
M  V30 51 1 7 45 CFG=3
M  V30 52 1 9 46 CFG=1
M  V30 53 1 47 11
M  V30 54 1 48 13
M  V30 55 1 49 15
M  V30 56 1 50 15
M  V30 57 1 51 16
M  V30 58 1 52 16
M  V30 59 1 53 17
M  V30 60 1 54 17
M  V30 61 1 55 19
M  V30 62 1 22 56 CFG=3
M  V30 63 1 23 57 CFG=3
M  V30 64 1 58 24
M  V30 65 1 59 24
M  V30 66 1 60 25
M  V30 67 1 61 25
M  V30 68 1 62 27
M  V30 69 1 63 27
M  V30 70 1 64 29
M  V30 71 1 65 29
M  V30 72 1 32 66 CFG=1
M  V30 73 1 67 34
M  V30 74 1 68 34
M  V30 75 1 69 35
M  V30 76 1 70 36
M  V30 77 1 71 36
M  V30 78 1 72 37
M  V30 79 1 73 37
M  V30 END BOND
M  V30 END CTAB
M  END
>  <i_epik_Tot_Q>  (1) 
0

>  <i_epik_Tot_abs_Q>  (1) 
0

>  <i_i_glide_confnum>  (1) 
136

>  <i_i_glide_lignum>  (1) 
33

>  <i_i_glide_posenum>  (1) 
393

>  <i_i_glide_rotatable_bonds>  (1) 
8

>  <i_lp_mmshare_version>  (1) 
72125

>  <i_m_source_file_index>  (1) 
17

>  <i_f3d_flags>  (1) 
0

>  <num_sample>  (1) 
50

>  <b_lp_Chiralities_Consistent>  (1) 
1

>  <r_epik_Charging_Adjusted_Penalty>  (1) 
0

>  <r_epik_Ionization_Penalty>  (1) 
0.0025850422907693063

>  <r_epik_Ionization_Penalty_Charging>  (1) 
0

>  <r_epik_Ionization_Penalty_Neutral>  (1) 
0.0025850422907693063

>  <r_epik_State_Penalty>  (1) 
-0

>  <r_glide_ring_energy>  (1) 
1.2931993937508171

>  <r_i_docking_score>  (1) 
-7.5581769748306531

>  <r_i_glide_ecoul>  (1) 
-0.47778704887736634

>  <r_i_glide_eff_state_penalty>  (1) 
-0

>  <r_i_glide_einternal>  (1) 
14.359262923844323

>  <r_i_glide_emodel>  (1) 
-39.123655845988317

>  <r_i_glide_emodel_strain>  (1) 
1.3005433105404336

>  <r_i_glide_energy>  (1) 
-38.279434741602834

>  <r_i_glide_erotb>  (1) 
0.45816569176433508

>  <r_i_glide_esite>  (1) 
-0.014152494337815569

>  <r_i_glide_evdw>  (1) 
-37.801647692725467

>  <r_i_glide_gscore>  (1) 
-7.5581769748306531

>  <r_i_glide_gscore_strain>  (1) 
0

>  <r_i_glide_hbond>  (1) 
-0.31421306759073753

>  <r_i_glide_ligand_efficiency>  (1) 
-0.19889939407449087

>  <r_i_glide_ligand_efficiency_ln>  (1) 
-1.6297652948137529

>  <r_i_glide_ligand_efficiency_sa>  (1) 
-0.66869487130565386

>  <r_i_glide_lipo>  (1) 
-3.8271948740483248

>  <r_i_glide_metal>  (1) 
-0

>  <r_i_glide_rewards>  (1) 
-1.8990317886502304

>  <r_lp_Energy>  (1) 
67.772257999999994

>  <r_lp_tautomer_probability>  (1) 
1

>  <s_epik_cmdline>  (1) 
J2VwaWtfcHl0aG9uJywgJy1waHQnLCAnMS4wJywgJy1waCcsICc3LjQnLCAnLXRuJywgJzgnLCAnLW1hJywgJzUwMCcsICctaW1hZScsICc8aW5maWxlLm1hZT4nLCAnLW9tYWUnLCAnPG91dGZpbGUubWFlPic=

>  <s_epik_input>  (1) 
W0NIMl0xW0NIMl1bQ0gyXVtDQEBIXTJbQ0BIXTNbQ0BASF0yW0NAQF0xM1tOSF1DKE80KT1DKFtDSF09TylDKD1DKFtDQEhdNDUpW0NIXT1DKEYpW0NIXT1bQ0hdNSlbQ0gyXVtDSDJdQyNDW0NAQEhdKFtDSDJdW0NIMl02KVtDQEBIXShbT0hdKUMoPU8pTihbQ0BASF02NylbQ0gyXVtDSDJdW0NIMl1bQ0gyXTc=

>  <s_glide_docking_method>  (1) 
confgen

>  <s_i_glide_gridfile>  (1) 
gpcr_5ht2c_6bqh_protein_autoprepared_prepared

>  <s_lp_Force_Field>  (1) 
S-OPLS

>  <s_lp_Variant>  (1) 
DiffSBDD_16-2

>  <s_m_source_file>  (1) 
generated_GPCR_5HT2C_ligand_DiffSBDD_2026-06-23_prepared.sdf

>  <GenAI_Model>  (1) 
DiffSBDD

>  <Protein>  (1) 
GPCR_5HT2C

$$$$
DiffSBDD_1
     RDKit          3D

  0  0  0  0  0  0  0  0  0  0999 V3000
M  V30 BEGIN CTAB
M  V30 COUNTS 78 81 0 0 1
M  V30 BEGIN ATOM
M  V30 1 C 40.962526 28.526843 59.275628 0
M  V30 2 N 38.675696 28.850094 56.062845 0
M  V30 3 C 38.528652 28.696178 52.157219 0 CFG=1
M  V30 4 C 39.132267 27.353183 52.572080 0
M  V30 5 C 41.624366 31.558017 67.390568 0
M  V30 6 C 39.870473 30.083773 62.366828 0
M  V30 7 C 38.345729 29.512518 53.459518 0
M  V30 8 C 38.979989 28.672121 54.598450 0 CFG=2
M  V30 9 C 44.096995 30.572985 65.791777 0
M  V30 10 N 40.845134 29.245642 61.671030 0
M  V30 11 O 41.245154 27.054177 67.024202 0
M  V30 12 C 40.366248 28.805038 62.972148 0 CFG=1
M  V30 13 C 43.023808 30.619831 64.767019 0 CFG=1
M  V30 14 O 43.025224 29.576651 63.708967 0
M  V30 15 C 42.905355 25.337788 67.181811 0
M  V30 16 C 40.542561 29.779879 51.289720 0
M  V30 17 C 41.879772 30.031125 65.432190 0
M  V30 18 C 38.973626 27.691490 56.929542 0
M  V30 19 C 41.707030 25.901206 64.975359 0
M  V30 20 O 40.155557 29.720387 66.903783 0
M  V30 21 O 38.096178 30.140414 57.854320 0
M  V30 22 C 42.575448 27.062366 64.450645 0
M  V30 23 O 39.211494 29.337699 51.079029 0
M  V30 24 O 45.081758 32.537748 66.662283 0
M  V30 25 P 41.640086 28.694664 64.310081 0 CFG=1 CHG=1
M  V30 26 C 41.606432 25.799403 66.506193 0 CFG=2
M  V30 27 C 41.239704 30.416750 66.541910 0
M  V30 28 C 37.326144 26.686619 54.181007 0
M  V30 29 O 40.717685 27.337698 58.543320 0
M  V30 30 C 38.288919 30.035391 56.641519 0
M  V30 31 C 38.118213 31.266761 55.752800 0
M  V30 32 C 42.835012 32.215019 67.423313 0
M  V30 33 C 44.068861 31.844405 66.631052 0
M  V30 34 C 40.488801 27.552905 57.165794 0
M  V30 35 C 38.771238 27.226690 54.051449 0 CFG=1
M  V30 36 C 40.295113 28.370937 60.639400 0
M  V30 37 H 40.575164 29.420119 58.784128 0
M  V30 38 H 42.042106 28.640827 59.368193 0
M  V30 39 H 37.529772 28.493537 51.768198 0
M  V30 40 H 38.759051 26.537892 51.956183 0
M  V30 41 H 40.213432 27.337777 52.477511 0
M  V30 42 H 40.865479 31.928082 68.065541 0
M  V30 43 H 38.914977 30.124739 61.847487 0
M  V30 44 H 40.321835 31.026003 62.671569 0
M  V30 45 H 37.277291 29.622177 53.642414 0
M  V30 46 H 38.774937 30.504809 53.350457 0
M  V30 47 H 40.044934 28.891707 54.566627 0
M  V30 48 H 44.039042 29.693669 66.435425 0
M  V30 49 H 45.069515 30.522624 65.300920 0
M  V30 50 H 40.763551 26.937638 67.837036 0
M  V30 51 H 39.682889 27.961148 62.890422 0
M  V30 52 H 42.870146 31.605569 64.322630 0
M  V30 53 H 43.245616 24.384243 66.776896 0
M  V30 54 H 43.712448 26.057963 67.049470 0
M  V30 55 H 42.761540 25.204127 68.254321 0
M  V30 56 H 40.865267 30.350183 50.418320 0
M  V30 57 H 40.626563 30.435713 52.154277 0
M  V30 58 H 41.236105 28.947326 51.396206 0
M  V30 59 H 38.590506 26.746430 56.561468 0
M  V30 60 H 38.463873 27.780261 57.890141 0
M  V30 61 H 40.700735 25.991618 64.567793 0
M  V30 62 H 42.097132 24.959156 64.587459 0
M  V30 63 H 39.873789 30.031158 67.751169 0
M  V30 64 H 42.947805 26.810283 63.458270 0
M  V30 65 H 43.466415 27.190381 65.063719 0
M  V30 66 H 40.812443 25.091502 66.749383 0
M  V30 67 H 36.606587 27.337816 53.684397 0
M  V30 68 H 37.245231 25.705542 53.714033 0
M  V30 69 H 36.989466 26.570040 55.208355 0
M  V30 70 H 39.028353 31.501923 55.203761 0
M  V30 71 H 37.245447 31.202924 55.106763 0
M  V30 72 H 37.929789 32.129073 56.393726 0
M  V30 73 H 42.939966 33.054058 68.095917 0
M  V30 74 H 41.063203 28.404724 56.795583 0
M  V30 75 H 40.857529 26.684497 56.619207 0
M  V30 76 H 39.460632 26.519971 54.514329 0
M  V30 77 H 40.445097 27.337721 60.949974 0
M  V30 78 H 39.216353 28.491704 60.529882 0
M  V30 END ATOM
M  V30 BEGIN BOND
M  V30 1 1 4 3
M  V30 2 1 7 3
M  V30 3 1 8 2
M  V30 4 1 8 7
M  V30 5 1 10 6
M  V30 6 1 12 6
M  V30 7 1 12 10
M  V30 8 1 13 9
M  V30 9 1 14 13
M  V30 10 1 17 13
M  V30 11 1 18 2
M  V30 12 1 22 19
M  V30 13 1 23 3
M  V30 14 1 23 16
M  V30 15 1 25 12
M  V30 16 1 25 14
M  V30 17 1 25 17
M  V30 18 1 25 22 CFG=1
M  V30 19 1 26 11
M  V30 20 1 26 15
M  V30 21 1 26 19
M  V30 22 1 27 5
M  V30 23 2 27 17
M  V30 24 1 27 20
M  V30 25 1 29 1
M  V30 26 1 30 2
M  V30 27 2 30 21
M  V30 28 1 31 30
M  V30 29 2 32 5
M  V30 30 1 33 9
M  V30 31 2 33 24
M  V30 32 1 33 32
M  V30 33 1 34 18
M  V30 34 1 34 29
M  V30 35 1 35 4
M  V30 36 1 35 8
M  V30 37 1 35 28
M  V30 38 1 36 1
M  V30 39 1 36 10
M  V30 40 1 37 1
M  V30 41 1 38 1
M  V30 42 1 3 39 CFG=3
M  V30 43 1 40 4
M  V30 44 1 41 4
M  V30 45 1 42 5
M  V30 46 1 43 6
M  V30 47 1 44 6
M  V30 48 1 45 7
M  V30 49 1 46 7
M  V30 50 1 8 47 CFG=1
M  V30 51 1 48 9
M  V30 52 1 49 9
M  V30 53 1 50 11
M  V30 54 1 12 51 CFG=3
M  V30 55 1 13 52 CFG=3
M  V30 56 1 53 15
M  V30 57 1 54 15
M  V30 58 1 55 15
M  V30 59 1 56 16
M  V30 60 1 57 16
M  V30 61 1 58 16
M  V30 62 1 59 18
M  V30 63 1 60 18
M  V30 64 1 61 19
M  V30 65 1 62 19
M  V30 66 1 63 20
M  V30 67 1 64 22
M  V30 68 1 65 22
M  V30 69 1 26 66 CFG=3
M  V30 70 1 67 28
M  V30 71 1 68 28
M  V30 72 1 69 28
M  V30 73 1 70 31
M  V30 74 1 71 31
M  V30 75 1 72 31
M  V30 76 1 73 32
M  V30 77 1 74 34
M  V30 78 1 75 34
M  V30 79 1 35 76 CFG=1
M  V30 80 1 77 36
M  V30 81 1 78 36
M  V30 END BOND
M  V30 END CTAB
M  END
>  <i_epik_Tot_Q>  (1) 
1

>  <i_epik_Tot_abs_Q>  (1) 
1

>  <i_i_glide_confnum>  (1) 
1690

>  <i_i_glide_lignum>  (1) 
8

>  <i_i_glide_posenum>  (1) 
346

>  <i_i_glide_rotatable_bonds>  (1) 
15

>  <i_lp_mmshare_version>  (1) 
72125

>  <i_m_source_file_index>  (1) 
2

>  <i_f3d_flags>  (1) 
0

>  <num_sample>  (1) 
50

>  <b_lp_Chiralities_Consistent>  (1) 
1

>  <r_epik_Charging_Adjusted_Penalty>  (1) 
0.012777702237649643

>  <r_epik_Ionization_Penalty>  (1) 
0.012893064322698497

>  <r_epik_Ionization_Penalty_Charging>  (1) 
0

>  <r_epik_Ionization_Penalty_Neutral>  (1) 
0.012893064322698497

>  <r_epik_State_Penalty>  (1) 
0.012777702237649643

>  <r_glide_ring_energy>  (1) 
1.0866904989986343

>  <r_i_docking_score>  (1) 
-7.5306403862435838

>  <r_i_glide_ecoul>  (1) 
-5.04088690371188

>  <r_i_glide_eff_state_penalty>  (1) 
0.012777702237649643

>  <r_i_glide_einternal>  (1) 
25.817937589741252

>  <r_i_glide_emodel>  (1) 
-64.870961018890981

>  <r_i_glide_emodel_strain>  (1) 
1.7993050090928477

>  <r_i_glide_energy>  (1) 
-55.132362291719723

>  <r_i_glide_erotb>  (1) 
0.81958699115176215

>  <r_i_glide_esite>  (1) 
-0.048660103600501228

>  <r_i_glide_evdw>  (1) 
-50.091475388007844

>  <r_i_glide_gscore>  (1) 
-7.5434180884812339

>  <r_i_glide_gscore_strain>  (1) 
0

>  <r_i_glide_hbond>  (1) 
-0.58215641449615041

>  <r_i_glide_ligand_efficiency>  (1) 
-0.20918445517343287

>  <r_i_glide_ligand_efficiency_ln>  (1) 
-1.6429822778871659

>  <r_i_glide_ligand_efficiency_sa>  (1) 
-0.6907118525823347

>  <r_i_glide_lipo>  (1) 
-4.0363341903891445

>  <r_i_glide_metal>  (1) 
-0

>  <r_i_glide_rewards>  (1) 
-0.43514756619002515

>  <r_lp_Energy>  (1) 
26.969071

>  <s_epik_cmdline>  (1) 
J2VwaWtfcHl0aG9uJywgJy1waHQnLCAnMS4wJywgJy1waCcsICc3LjQnLCAnLXRuJywgJzgnLCAnLW1hJywgJzUwMCcsICctaW1hZScsICc8aW5maWxlLm1hZT4nLCAnLW9tYWUnLCAnPG91dGZpbGUubWFlPic=

>  <s_epik_input>  (1) 
W0NIM11PW0NASF0xW0NIMl1bQ0BIXShbQ0gzXSlbQ0BASF0oW0NIMl0xKU4oQyg9TylbQ0gzXSlbQ0gyXVtDSDJdT1tDSDJdW0NIMl1OMltDSDJdW0NIXTJbUEBAK10oTzMpKFtDSDJdW0NIMl1bQ0BIXShbT0hdKVtDSDNdKUMoW0NAQEhdMzQpPUMoW09IXSlbQ0hdPVtDSF1DKD1PKVtDSDJdNA==

>  <s_glide_docking_method>  (1) 
confgen

>  <s_i_glide_gridfile>  (1) 
gpcr_5ht2c_6bqh_protein_autoprepared_prepared

>  <s_lp_Force_Field>  (1) 
S-OPLS

>  <s_lp_Variant>  (1) 
DiffSBDD_1-4

>  <s_m_source_file>  (1) 
generated_GPCR_5HT2C_ligand_DiffSBDD_2026-06-23_prepared.sdf

>  <GenAI_Model>  (1) 
DiffSBDD

>  <Protein>  (1) 
GPCR_5HT2C

$$$$
DiffSBDD_12
     RDKit          3D

  0  0  0  0  0  0  0  0  0  0999 V3000
M  V30 BEGIN CTAB
M  V30 COUNTS 78 80 0 0 1
M  V30 BEGIN ATOM
M  V30 1 C 39.384801 27.694281 57.832279 0 CFG=2
M  V30 2 C 43.471100 32.368076 67.015443 0
M  V30 3 C 39.796854 28.593260 59.023235 0 CFG=2
M  V30 4 O 39.674707 32.220806 62.611687 0
M  V30 5 N 39.676202 30.067128 61.831316 0
M  V30 6 C 38.772717 30.210782 60.732084 0
M  V30 7 C 40.064191 31.059839 62.678108 0
M  V30 8 C 41.974425 32.347921 66.693305 0 CFG=1
M  V30 9 C 38.130446 31.362868 60.417172 0
M  V30 10 F 44.566811 31.270263 70.403650 0
M  V30 11 C 39.272826 29.622822 53.352564 0
M  V30 12 C 38.660240 31.067504 55.407832 0
M  V30 13 C 39.245137 28.391777 52.641641 0
M  V30 14 F 45.435278 30.791542 68.469127 0
M  V30 15 S 41.245076 33.467008 67.932565 0
M  V30 16 C 40.457050 29.491080 49.189609 0
M  V30 17 C 40.045065 30.743131 51.321526 0
M  V30 18 C 42.024098 34.188587 64.886718 0
M  V30 19 C 38.935447 28.569953 55.566724 0
M  V30 20 C 41.062187 30.652713 63.766175 0
M  V30 21 C 42.528223 33.020361 69.138211 0
M  V30 22 N 38.666095 28.550908 56.913157 0
M  V30 23 C 40.996500 28.050828 59.802002 0
M  V30 24 C 42.072006 31.760710 64.148244 0
M  V30 25 C 38.947667 29.682037 54.807277 0
M  V30 26 O 37.644979 31.752424 54.709551 0
M  V30 27 C 43.362343 31.912106 68.469708 0 CFG=1
M  V30 28 C 38.598521 28.926280 59.940316 0
M  V30 29 C 40.029891 29.528074 50.630323 0
M  V30 30 C 42.500881 30.638462 68.347661 0
M  V30 31 C 39.620214 28.350675 51.282484 0
M  V30 32 C 38.629540 26.402695 58.169477 0
M  V30 33 C 39.661965 30.795838 52.670029 0
M  V30 34 C 41.577212 32.752019 65.237751 0 CFG=1
M  V30 35 C 44.722727 31.689161 69.148229 0
M  V30 36 C 41.602616 30.912717 67.125867 0
M  V30 37 H 40.301385 27.394303 57.322616 0
M  V30 38 H 43.929145 33.351325 66.920261 0
M  V30 39 H 44.047692 31.667435 66.409882 0
M  V30 40 H 40.148594 29.529032 58.582453 0
M  V30 41 H 40.064073 29.145367 61.971405 0
M  V30 42 H 38.250038 32.267939 60.974467 0
M  V30 43 H 37.461073 31.395698 59.570268 0
M  V30 44 H 39.574417 31.661346 55.393305 0
M  V30 45 H 38.360143 31.014661 56.453238 0
M  V30 46 H 38.947887 27.482483 53.135858 0
M  V30 47 H 39.644855 29.737764 48.526398 0
M  V30 48 H 40.845115 28.537784 48.878605 0
M  V30 49 H 41.271823 30.198060 49.035543 0
M  V30 50 H 40.354980 31.644209 50.815743 0
M  V30 51 H 43.107734 34.296425 64.909165 0
M  V30 52 H 41.604374 34.927657 65.568372 0
M  V30 53 H 41.688263 34.468411 63.887836 0
M  V30 54 H 39.165190 27.596683 55.165002 0
M  V30 55 H 40.490149 30.316090 64.629406 0
M  V30 56 H 41.621694 29.786016 63.413144 0
M  V30 57 H 43.141587 33.896164 69.348556 0
M  V30 58 H 42.085190 32.695211 70.079764 0
M  V30 59 H 40.670289 27.337749 60.554943 0
M  V30 60 H 41.516623 28.847930 60.325179 0
M  V30 61 H 41.729943 27.576805 59.147979 0
M  V30 62 H 43.012934 31.302216 64.450809 0
M  V30 63 H 42.331567 32.308688 63.240393 0
M  V30 64 H 36.939821 31.979067 55.310384 0
M  V30 65 H 37.675036 29.007045 59.366183 0
M  V30 66 H 38.445502 28.090519 60.619929 0
M  V30 67 H 43.118739 29.757913 68.165717 0
M  V30 68 H 41.918759 30.445638 69.250058 0
M  V30 69 H 39.602865 27.412560 50.744741 0
M  V30 70 H 39.178532 25.803298 58.895244 0
M  V30 71 H 38.482324 25.791395 57.280084 0
M  V30 72 H 37.645332 26.611713 58.567893 0
M  V30 73 H 39.694206 31.737709 53.187185 0
M  V30 74 H 40.487245 32.762762 65.195666 0
M  V30 75 H 45.312210 32.605546 69.181214 0
M  V30 76 H 40.540850 30.808072 67.353724 0
M  V30 77 H 41.850408 30.178427 66.361515 0
M  V30 78 H 38.351892 29.420379 57.323525 0
M  V30 END ATOM
M  V30 BEGIN BOND
M  V30 1 1 3 1
M  V30 2 1 6 5
M  V30 3 2 7 4
M  V30 4 1 7 5
M  V30 5 1 8 2
M  V30 6 2 9 6
M  V30 7 2 13 11
M  V30 8 1 8 15 CFG=1
M  V30 9 1 20 7
M  V30 10 1 21 15
M  V30 11 1 22 1
M  V30 12 1 22 19
M  V30 13 1 23 3
M  V30 14 1 24 20
M  V30 15 1 25 11
M  V30 16 1 25 12
M  V30 17 2 25 19
M  V30 18 1 26 12
M  V30 19 1 27 2
M  V30 20 1 27 21
M  V30 21 1 28 3
M  V30 22 1 28 6
M  V30 23 1 29 16
M  V30 24 1 29 17
M  V30 25 1 30 27
M  V30 26 1 31 13
M  V30 27 2 31 29
M  V30 28 1 32 1
M  V30 29 1 33 11
M  V30 30 2 33 17
M  V30 31 1 34 8
M  V30 32 1 34 18
M  V30 33 1 34 24
M  V30 34 1 35 10
M  V30 35 1 35 14
M  V30 36 1 27 35 CFG=1
M  V30 37 1 36 8
M  V30 38 1 36 30
M  V30 39 1 1 37 CFG=3
M  V30 40 1 38 2
M  V30 41 1 39 2
M  V30 42 1 3 40 CFG=3
M  V30 43 1 41 5
M  V30 44 1 42 9
M  V30 45 1 43 9
M  V30 46 1 44 12
M  V30 47 1 45 12
M  V30 48 1 46 13
M  V30 49 1 47 16
M  V30 50 1 48 16
M  V30 51 1 49 16
M  V30 52 1 50 17
M  V30 53 1 51 18
M  V30 54 1 52 18
M  V30 55 1 53 18
M  V30 56 1 54 19
M  V30 57 1 55 20
M  V30 58 1 56 20
M  V30 59 1 57 21
M  V30 60 1 58 21
M  V30 61 1 59 23
M  V30 62 1 60 23
M  V30 63 1 61 23
M  V30 64 1 62 24
M  V30 65 1 63 24
M  V30 66 1 64 26
M  V30 67 1 65 28
M  V30 68 1 66 28
M  V30 69 1 67 30
M  V30 70 1 68 30
M  V30 71 1 69 31
M  V30 72 1 70 32
M  V30 73 1 71 32
M  V30 74 1 72 32
M  V30 75 1 73 33
M  V30 76 1 34 74 CFG=1
M  V30 77 1 75 35
M  V30 78 1 76 36
M  V30 79 1 77 36
M  V30 80 1 78 22
M  V30 END BOND
M  V30 END CTAB
M  END
>  <i_epik_Tot_Q>  (1) 
0

>  <i_epik_Tot_abs_Q>  (1) 
0

>  <i_i_glide_confnum>  (1) 
1305

>  <i_i_glide_lignum>  (1) 
23

>  <i_i_glide_posenum>  (1) 
100

>  <i_i_glide_rotatable_bonds>  (1) 
15

>  <i_lp_mmshare_version>  (1) 
72125

>  <i_m_source_file_index>  (1) 
13

>  <i_f3d_flags>  (1) 
0

>  <num_sample>  (1) 
50

>  <b_lp_Chiralities_Consistent>  (1) 
1

>  <r_epik_Charging_Adjusted_Penalty>  (1) 
0

>  <r_epik_Ionization_Penalty>  (1) 
3.3667035854956668e-06

>  <r_epik_Ionization_Penalty_Charging>  (1) 
0

>  <r_epik_Ionization_Penalty_Neutral>  (1) 
3.3667035854956668e-06

>  <r_epik_State_Penalty>  (1) 
-0

>  <r_glide_ring_energy>  (1) 
0

>  <r_i_docking_score>  (1) 
-7.5134236770327529

>  <r_i_glide_ecoul>  (1) 
-4.0276437287464653

>  <r_i_glide_eff_state_penalty>  (1) 
-0

>  <r_i_glide_einternal>  (1) 
7.9043507688925825

>  <r_i_glide_emodel>  (1) 
-57.957928501685089

>  <r_i_glide_emodel_strain>  (1) 
4.3376990509458864

>  <r_i_glide_energy>  (1) 
-43.298405073726045

>  <r_i_glide_erotb>  (1) 
0.98535433330626676

>  <r_i_glide_esite>  (1) 
0

>  <r_i_glide_evdw>  (1) 
-39.270761344979576

>  <r_i_glide_gscore>  (1) 
-7.5134236770327529

>  <r_i_glide_gscore_strain>  (1) 
0.084424762736471592

>  <r_i_glide_hbond>  (1) 
-0.15564178884618152

>  <r_i_glide_ligand_efficiency>  (1) 
-0.20870621325090979

>  <r_i_glide_ligand_efficiency_ln>  (1) 
-1.6392260570790917

>  <r_i_glide_ligand_efficiency_sa>  (1) 
-0.68913273254679197

>  <r_i_glide_lipo>  (1) 
-4.8304758813903383

>  <r_i_glide_metal>  (1) 
-0

>  <r_i_glide_rewards>  (1) 
-1.0294004762780233

>  <r_lp_Energy>  (1) 
46.558340999999999

>  <r_lp_tautomer_probability>  (1) 
1

>  <s_epik_cmdline>  (1) 
J2VwaWtfcHl0aG9uJywgJy1waHQnLCAnMS4wJywgJy1waCcsICc3LjQnLCAnLXRuJywgJzgnLCAnLW1hJywgJzUwMCcsICctaW1hZScsICc8aW5maWxlLm1hZT4nLCAnLW9tYWUnLCAnPG91dGZpbGUubWFlPic=

>  <s_epik_input>  (1) 
W2NIXTFbY0hdYyhbQ0gzXSlbY0hdW2NIXWMxW0NAQEhdKFtDSDJdW09IXSkvW0NIXT1OL1tDQEhdKFtDSDNdKVtDQEhdKFtDSDNdKVtDSDJdQyg9W0NIMl0pW05IXUMoPU8pW0NIMl1bQ0gyXVtDQEhdKFtDSDNdKVtDQEBdMjNbQ0gyXVtDQF0oW0NIMl1TMikoW0NIXShGKUYpW0NIMl1bQ0gyXTM=

>  <s_glide_docking_method>  (1) 
confgen

>  <s_i_glide_gridfile>  (1) 
gpcr_5ht2c_6bqh_protein_autoprepared_prepared

>  <s_lp_Force_Field>  (1) 
S-OPLS

>  <s_lp_Variant>  (1) 
DiffSBDD_12-1

>  <s_m_source_file>  (1) 
generated_GPCR_5HT2C_ligand_DiffSBDD_2026-06-23_prepared.sdf

>  <GenAI_Model>  (1) 
DiffSBDD

>  <Protein>  (1) 
GPCR_5HT2C

$$$$
DiffSBDD_10
     RDKit          3D

  0  0  0  0  0  0  0  0  0  0999 V3000
M  V30 BEGIN CTAB
M  V30 COUNTS 64 66 0 0 1
M  V30 BEGIN ATOM
M  V30 1 C 39.245139 30.825651 53.604023 0
M  V30 2 C 37.893102 28.790682 53.632534 0
M  V30 3 C 38.590426 31.574127 59.060462 0
M  V30 4 C 40.398252 27.262384 56.689527 0
M  V30 5 C 43.505975 27.025078 64.891447 0
M  V30 6 C 38.845120 27.096517 58.545542 0
M  V30 7 C 39.466026 29.186237 51.807162 0
M  V30 8 O 42.174136 32.537759 61.884471 0
M  V30 9 F 40.445129 29.233007 55.368524 0
M  V30 10 S 41.656908 30.681289 65.173965 0
M  V30 11 C 42.798012 24.672128 65.491191 0
M  V30 12 C 42.018852 28.917393 65.275291 0
M  V30 13 C 42.526450 26.157291 65.419068 0
M  V30 14 C 38.841475 32.826711 61.305375 0
M  V30 15 C 39.844641 30.409009 52.397719 0
M  V30 16 S 40.993986 32.324118 62.736191 0
M  V30 17 C 37.856895 32.180139 60.291732 0 CFG=1
M  V30 18 O 42.870193 31.475982 65.423448 0
M  V30 19 O 40.709918 33.306490 63.793839 0
M  V30 20 C 39.903203 28.543087 56.382117 0
M  V30 21 C 43.260011 28.408242 64.817227 0
M  V30 22 N 38.355146 30.417254 56.828178 0
M  V30 23 C 36.755737 33.188146 59.875635 0
M  V30 24 C 38.489223 28.378211 52.423849 0
M  V30 25 C 41.294042 26.674055 65.877268 0
M  V30 26 C 39.866921 26.539893 57.764815 0
M  V30 27 C 41.040117 28.056428 65.804395 0
M  V30 28 C 38.271675 30.014409 54.225784 0
M  V30 29 C 37.661162 31.093020 57.931398 0
M  V30 30 C 38.860714 29.115416 57.153034 0
M  V30 31 C 37.634390 30.455263 55.535461 0
M  V30 32 N 39.689404 31.824314 61.923005 0 CHG=-1
M  V30 33 Cl 44.471099 29.453920 64.167720 0
M  V30 34 O 40.444483 30.941289 65.966347 0
M  V30 35 C 38.343361 28.380747 58.253591 0
M  V30 36 N 41.225707 30.823328 63.512435 0
M  V30 37 H 39.536952 31.760761 54.056921 0
M  V30 38 H 37.147969 28.168782 54.105911 0
M  V30 39 H 39.234883 30.754789 59.384765 0
M  V30 40 H 39.245134 32.324793 58.615726 0
M  V30 41 H 41.194208 26.836795 56.098944 0
M  V30 42 H 44.445075 26.627658 64.541657 0
M  V30 43 H 38.444860 26.538204 59.367747 0
M  V30 44 H 39.923133 28.869207 50.881359 0
M  V30 45 H 43.569125 24.455707 66.230866 0
M  V30 46 H 41.893613 24.137792 65.767752 0
M  V30 47 H 43.126562 24.298380 64.521108 0
M  V30 48 H 39.424990 33.591028 60.790615 0
M  V30 49 H 38.265871 33.355155 62.065787 0
M  V30 50 H 40.592095 31.029047 51.924442 0
M  V30 51 H 37.346638 31.363144 60.803922 0
M  V30 52 H 37.155117 34.009113 59.277221 0
M  V30 53 H 35.982135 32.703829 59.279630 0
M  V30 54 H 36.236780 33.622380 60.733041 0
M  V30 55 H 38.197896 27.441563 51.970799 0
M  V30 56 H 40.544300 26.009537 66.281825 0
M  V30 57 H 40.249012 25.556477 57.996077 0
M  V30 58 H 40.095751 28.452380 66.149368 0
M  V30 59 H 37.245153 32.003512 57.503861 0
M  V30 60 H 36.795491 30.538786 58.290253 0
M  V30 61 H 37.313017 31.485526 55.373219 0
M  V30 62 H 36.706412 29.897500 55.664388 0
M  V30 63 H 37.557719 28.787924 58.865692 0
M  V30 64 H 40.404678 30.259655 63.299274 0
M  V30 END ATOM
M  V30 BEGIN BOND
M  V30 1 1 12 10
M  V30 2 2 13 5
M  V30 3 1 13 11
M  V30 4 1 15 1
M  V30 5 2 15 7
M  V30 6 2 16 8
M  V30 7 1 17 3
M  V30 8 1 17 14
M  V30 9 2 18 10
M  V30 10 2 19 16
M  V30 11 2 20 4
M  V30 12 1 20 9
M  V30 13 1 21 5
M  V30 14 2 21 12
M  V30 15 1 23 17
M  V30 16 2 24 2
M  V30 17 1 24 7
M  V30 18 1 25 13
M  V30 19 1 26 4
M  V30 20 2 26 6
M  V30 21 1 27 12
M  V30 22 2 27 25
M  V30 23 2 28 1
M  V30 24 1 28 2
M  V30 25 1 29 3
M  V30 26 1 29 22
M  V30 27 1 30 20
M  V30 28 1 30 22
M  V30 29 1 31 22
M  V30 30 1 31 28
M  V30 31 1 32 14
M  V30 32 1 32 16
M  V30 33 1 33 21
M  V30 34 2 34 10
M  V30 35 1 35 6
M  V30 36 2 35 30
M  V30 37 1 36 10
M  V30 38 1 36 16
M  V30 39 1 37 1
M  V30 40 1 38 2
M  V30 41 1 39 3
M  V30 42 1 40 3
M  V30 43 1 41 4
M  V30 44 1 42 5
M  V30 45 1 43 6
M  V30 46 1 44 7
M  V30 47 1 45 11
M  V30 48 1 46 11
M  V30 49 1 47 11
M  V30 50 1 48 14
M  V30 51 1 49 14
M  V30 52 1 50 15
M  V30 53 1 17 51 CFG=1
M  V30 54 1 52 23
M  V30 55 1 53 23
M  V30 56 1 54 23
M  V30 57 1 55 24
M  V30 58 1 56 25
M  V30 59 1 57 26
M  V30 60 1 58 27
M  V30 61 1 59 29
M  V30 62 1 60 29
M  V30 63 1 61 31
M  V30 64 1 62 31
M  V30 65 1 63 35
M  V30 66 1 64 36
M  V30 END BOND
M  V30 END CTAB
M  END
>  <i_epik_Tot_Q>  (1) 
-1

>  <i_epik_Tot_abs_Q>  (1) 
1

>  <i_i_glide_confnum>  (1) 
5755

>  <i_i_glide_lignum>  (1) 
20

>  <i_i_glide_posenum>  (1) 
298

>  <i_i_glide_rotatable_bonds>  (1) 
12

>  <i_lp_mmshare_version>  (1) 
72125

>  <i_m_source_file_index>  (1) 
11

>  <i_f3d_flags>  (1) 
0

>  <num_sample>  (1) 
50

>  <b_lp_Chiralities_Consistent>  (1) 
1

>  <r_epik_Charging_Adjusted_Penalty>  (1) 
0.23249297725634946

>  <r_epik_Ionization_Penalty>  (1) 
0.023438671839039082

>  <r_epik_Ionization_Penalty_Charging>  (1) 
0.017777804751773103

>  <r_epik_Ionization_Penalty_Neutral>  (1) 
0.0056608670872659774

>  <r_epik_State_Penalty>  (1) 
0.21471517250457636

>  <r_glide_ring_energy>  (1) 
0

>  <r_i_docking_score>  (1) 
-7.511496917059735

>  <r_i_glide_ecoul>  (1) 
-3.982300105179192

>  <r_i_glide_eff_state_penalty>  (1) 
0.21471517250457636

>  <r_i_glide_einternal>  (1) 
11.952431120815056

>  <r_i_glide_emodel>  (1) 
-77.79683058385011

>  <r_i_glide_emodel_strain>  (1) 
2.6802157853131376

>  <r_i_glide_energy>  (1) 
-58.550953180111094

>  <r_i_glide_erotb>  (1) 
0.74186158489162179

>  <r_i_glide_esite>  (1) 
-0.061999114399822731

>  <r_i_glide_evdw>  (1) 
-54.568653074931902

>  <r_i_glide_gscore>  (1) 
-7.7262120895643109

>  <r_i_glide_gscore_strain>  (1) 
0

>  <r_i_glide_hbond>  (1) 
0

>  <r_i_glide_ligand_efficiency>  (1) 
-0.20865269214054818

>  <r_i_glide_ligand_efficiency_ln>  (1) 
-1.6388056901080179

>  <r_i_glide_ligand_efficiency_sa>  (1) 
-0.68895600973409798

>  <r_i_glide_lipo>  (1) 
-4.0052785713110284

>  <r_i_glide_metal>  (1) 
-0

>  <r_i_glide_rewards>  (1) 
-1.0750183192216061

>  <r_lp_Energy>  (1) 
46.499781999999996

>  <s_epik_cmdline>  (1) 
J2VwaWtfcHl0aG9uJywgJy1waHQnLCAnMS4wJywgJy1waCcsICc3LjQnLCAnLXRuJywgJzgnLCAnLW1hJywgJzUwMCcsICctaW1hZScsICc8aW5maWxlLm1hZT4nLCAnLW9tYWUnLCAnPG91dGZpbGUubWFlPic=

>  <s_epik_input>  (1) 
W2NIXTFbY0hdW2NIXVtjSF1bY0hdYzFbQ0gyXU4oYzJbY0hdW2NIXVtjSF1bY0hdYzJGKVtDSDJdW0NIMl1bQ0BIXShbQ0gzXSlbQ0gyXVtOSF1TKD1PKSg9TylbTkhdUyg9TykoPU8pYzNjKENsKVtjSF1jKFtDSDNdKVtjSF1bY0hdMw==

>  <s_glide_docking_method>  (1) 
confgen

>  <s_i_glide_gridfile>  (1) 
gpcr_5ht2c_6bqh_protein_autoprepared_prepared

>  <s_lp_Force_Field>  (1) 
S-OPLS

>  <s_lp_Variant>  (1) 
DiffSBDD_10-1

>  <s_m_source_file>  (1) 
generated_GPCR_5HT2C_ligand_DiffSBDD_2026-06-23_prepared.sdf

>  <GenAI_Model>  (1) 
DiffSBDD

>  <Protein>  (1) 
GPCR_5HT2C

$$$$
DiffSBDD_33
     RDKit          3D

  0  0  0  0  0  0  0  0  0  0999 V3000
M  V30 BEGIN CTAB
M  V30 COUNTS 49 51 0 0 1
M  V30 BEGIN ATOM
M  V30 1 C 38.488635 27.677804 54.767440 0 CFG=1
M  V30 2 C 38.621000 27.371929 53.248161 0
M  V30 3 C 37.639663 30.788170 59.086600 0
M  V30 4 C 39.061866 31.424461 60.966164 0
M  V30 5 C 40.089552 25.863194 55.729913 0
M  V30 6 C 39.609876 30.126445 60.991424 0
M  V30 7 C 38.641127 26.376011 55.609287 0 CFG=1
M  V30 8 C 39.490987 28.167720 51.000339 0
M  V30 9 C 38.461612 27.278985 58.079709 0
M  V30 10 C 38.183696 29.488074 59.104023 0
M  V30 11 C 39.529578 32.465972 61.961623 0
M  V30 12 C 39.213255 28.454991 52.352903 0
M  V30 13 C 40.045137 29.159038 50.167760 0
M  V30 14 C 37.910050 26.362172 56.973368 0
M  V30 15 C 39.176304 29.158220 60.064981 0
M  V30 16 C 39.492253 29.743103 52.867246 0
M  V30 17 C 40.045137 30.729236 52.026944 0
M  V30 18 C 40.321636 30.437084 50.680229 0
M  V30 19 C 39.202011 30.067970 54.316890 0
M  V30 20 C 39.382721 28.851803 55.222032 0
M  V30 21 N 37.727728 28.537755 58.167760 0
M  V30 22 C 38.077283 31.753585 60.013864 0
M  V30 23 H 37.464609 28.029382 54.899341 0
M  V30 24 H 37.648101 27.083766 52.847231 0
M  V30 25 H 39.262122 26.505131 53.100808 0
M  V30 26 H 36.882693 31.046348 58.359127 0
M  V30 27 H 40.723423 26.532685 56.310076 0
M  V30 28 H 40.112946 24.891266 56.221931 0
M  V30 29 H 40.558662 25.738806 54.755387 0
M  V30 30 H 40.362871 29.871568 61.722325 0
M  V30 31 H 38.117087 25.608211 55.037025 0
M  V30 32 H 39.279821 27.185285 50.601572 0
M  V30 33 H 38.355497 26.753667 59.028495 0
M  V30 34 H 39.526391 27.463099 57.938625 0
M  V30 35 H 40.435865 32.146944 62.477126 0
M  V30 36 H 39.742596 33.407997 61.455319 0
M  V30 37 H 38.756436 32.645130 62.708318 0
M  V30 38 H 40.256640 28.937785 49.133029 0
M  V30 39 H 36.845137 26.537742 56.832778 0
M  V30 40 H 37.965523 25.340163 57.350653 0
M  V30 41 H 39.602758 28.168516 60.096302 0
M  V30 42 H 40.257126 31.712676 52.416701 0
M  V30 43 H 40.745977 31.196451 50.039056 0
M  V30 44 H 39.856974 30.873743 54.651487 0
M  V30 45 H 38.180680 30.444609 54.389809 0
M  V30 46 H 40.430969 28.564327 55.258850 0
M  V30 47 H 39.149444 29.165654 56.231278 0
M  V30 48 H 37.132028 28.821830 57.401700 0
M  V30 49 H 37.655859 32.748245 59.993584 0
M  V30 END ATOM
M  V30 BEGIN BOND
M  V30 1 1 2 1
M  V30 2 1 6 4
M  V30 3 1 7 1
M  V30 4 1 7 5
M  V30 5 2 10 3
M  V30 6 1 11 4
M  V30 7 1 12 2
M  V30 8 2 12 8
M  V30 9 1 13 8
M  V30 10 1 14 7
M  V30 11 1 14 9
M  V30 12 2 15 6
M  V30 13 1 15 10
M  V30 14 1 16 12
M  V30 15 2 17 16
M  V30 16 2 18 13
M  V30 17 1 18 17
M  V30 18 1 19 16
M  V30 19 1 20 1
M  V30 20 1 20 19
M  V30 21 1 21 9
M  V30 22 1 21 10
M  V30 23 1 22 3
M  V30 24 2 22 4
M  V30 25 1 1 23 CFG=3
M  V30 26 1 24 2
M  V30 27 1 25 2
M  V30 28 1 26 3
M  V30 29 1 27 5
M  V30 30 1 28 5
M  V30 31 1 29 5
M  V30 32 1 30 6
M  V30 33 1 7 31 CFG=3
M  V30 34 1 32 8
M  V30 35 1 33 9
M  V30 36 1 34 9
M  V30 37 1 35 11
M  V30 38 1 36 11
M  V30 39 1 37 11
M  V30 40 1 38 13
M  V30 41 1 39 14
M  V30 42 1 40 14
M  V30 43 1 41 15
M  V30 44 1 42 17
M  V30 45 1 43 18
M  V30 46 1 44 19
M  V30 47 1 45 19
M  V30 48 1 46 20
M  V30 49 1 47 20
M  V30 50 1 48 21
M  V30 51 1 49 22
M  V30 END BOND
M  V30 END CTAB
M  END
>  <i_epik_Tot_Q>  (1) 
0

>  <i_epik_Tot_abs_Q>  (1) 
0

>  <i_i_glide_confnum>  (1) 
46

>  <i_i_glide_lignum>  (1) 
72

>  <i_i_glide_posenum>  (1) 
131

>  <i_i_glide_rotatable_bonds>  (1) 
5

>  <i_lp_mmshare_version>  (1) 
72125

>  <i_m_source_file_index>  (1) 
34

>  <i_f3d_flags>  (1) 
0

>  <num_sample>  (1) 
50

>  <b_lp_Chiralities_Consistent>  (1) 
1

>  <r_epik_Charging_Adjusted_Penalty>  (1) 
0.016607450009884436

>  <r_epik_Ionization_Penalty>  (1) 
0.016607451576217569

>  <r_epik_Ionization_Penalty_Charging>  (1) 
0

>  <r_epik_Ionization_Penalty_Neutral>  (1) 
0.016607451576217569

>  <r_epik_State_Penalty>  (1) 
0.016607450009884436

>  <r_glide_ring_energy>  (1) 
0

>  <r_i_docking_score>  (1) 
-7.5022478349407509

>  <r_i_glide_ecoul>  (1) 
-2.1812333662760377

>  <r_i_glide_eff_state_penalty>  (1) 
0.016607450009884436

>  <r_i_glide_einternal>  (1) 
4.9564196620217862

>  <r_i_glide_emodel>  (1) 
-51.400174497183414

>  <r_i_glide_emodel_strain>  (1) 
0.73289585771841104

>  <r_i_glide_energy>  (1) 
-36.434509860866896

>  <r_i_glide_erotb>  (1) 
0.84876371761229696

>  <r_i_glide_esite>  (1) 
0

>  <r_i_glide_evdw>  (1) 
-34.253276494590857

>  <r_i_glide_gscore>  (1) 
-7.5188552849506349

>  <r_i_glide_gscore_strain>  (1) 
0

>  <r_i_glide_hbond>  (1) 
0

>  <r_i_glide_ligand_efficiency>  (1) 
-0.34101126522457959

>  <r_i_glide_ligand_efficiency_ln>  (1) 
-1.833823021998267

>  <r_i_glide_ligand_efficiency_sa>  (1) 
-0.95552697735582781

>  <r_i_glide_lipo>  (1) 
-4.2036701167194552

>  <r_i_glide_metal>  (1) 
-0

>  <r_i_glide_rewards>  (1) 
-2.1241000561725278

>  <r_lp_Energy>  (1) 
32.477902999999998

>  <s_epik_cmdline>  (1) 
J2VwaWtfcHl0aG9uJywgJy1waHQnLCAnMS4wJywgJy1waCcsICc3LjQnLCAnLXRuJywgJzgnLCAnLW1hJywgJzUwMCcsICctaW1hZScsICc8aW5maWxlLm1hZT4nLCAnLW9tYWUnLCAnPG91dGZpbGUubWFlPic=

>  <s_epik_input>  (1) 
W2NIXTFbY0hdW2NIXVtjSF1jKGMxMilbQ0gyXVtDSDJdW0NAQEhdKFtDSDJdMilbQ0BASF0oW0NIM10pW0NIMl1bQ0gyXVtOSF1jKFtjSF1bY0hdMylbY0hdW2NIXWMzW0NIM10=

>  <s_glide_docking_method>  (1) 
confgen

>  <s_i_glide_gridfile>  (1) 
gpcr_5ht2c_6bqh_protein_autoprepared_prepared

>  <s_lp_Force_Field>  (1) 
S-OPLS

>  <s_lp_Variant>  (1) 
DiffSBDD_33-1

>  <s_m_source_file>  (1) 
generated_GPCR_5HT2C_ligand_DiffSBDD_2026-06-23_prepared.sdf

>  <GenAI_Model>  (1) 
DiffSBDD

>  <Protein>  (1) 
GPCR_5HT2C

$$$$
DiffSBDD_42
     RDKit          3D

  0  0  0  0  0  0  0  0  0  0999 V3000
M  V30 BEGIN CTAB
M  V30 COUNTS 90 93 0 0 1
M  V30 BEGIN ATOM
M  V30 1 C 39.279785 28.186206 57.354601 0 CFG=2
M  V30 2 C 41.309945 29.449400 65.576232 0
M  V30 3 C 41.660342 31.619976 66.966712 0
M  V30 4 C 40.994756 29.093819 63.057474 0
M  V30 5 C 37.743091 26.124427 57.597100 0
M  V30 6 C 38.959908 24.810087 56.035411 0
M  V30 7 C 40.233624 35.446853 61.762077 0
M  V30 8 C 37.848410 34.781563 61.103093 0
M  V30 9 C 40.920953 30.273200 66.825025 0 CFG=2
M  V30 10 C 38.916875 28.411944 52.394274 0
M  V30 11 C 39.622798 28.647565 60.953570 0
M  V30 12 C 36.065833 34.457237 59.467852 0
M  V30 13 C 39.831529 26.000861 56.377396 0 CFG=1
M  V30 14 C 39.799465 27.059363 55.268342 0 CFG=1
M  V30 15 C 41.059357 36.280472 62.742528 0
M  V30 16 C 37.978648 28.133474 53.579109 0
M  V30 17 C 37.595561 25.463955 56.224974 0 CFG=1
M  V30 18 C 38.448388 26.960699 54.476044 0 CFG=2
M  V30 19 C 37.378776 31.019495 60.533225 0
M  V30 20 C 36.222105 33.062447 59.572562 0
M  V30 21 C 36.445079 24.470998 56.154674 0
M  V30 22 C 40.869574 30.069452 64.238510 0
M  V30 23 C 37.602843 29.424656 54.323587 0
M  V30 24 C 40.440353 29.680557 61.745173 0
M  V30 25 C 36.878344 35.317057 60.230605 0
M  V30 26 C 38.515845 30.603830 59.585893 0
M  V30 27 N 39.893462 28.888484 58.500309 0 CHG=1
M  V30 28 O 41.163054 32.588211 66.065301 0
M  V30 29 C 37.190366 32.522793 60.442428 0
M  V30 30 O 41.245122 29.496608 67.962437 0
M  V30 31 C 38.970755 29.129854 59.632904 0 CFG=1
M  V30 32 C 39.180277 26.668008 57.601260 0 CFG=1
M  V30 33 C 38.000188 33.382069 61.211602 0
M  V30 34 C 38.727193 35.710076 61.924164 0
M  V30 35 O 37.357011 26.537741 55.301506 0
M  V30 36 C 40.113544 28.321768 56.079786 0
M  V30 37 H 38.297235 28.615593 57.158623 0
M  V30 38 H 42.387136 29.276098 65.560157 0
M  V30 39 H 40.845981 28.465313 65.661374 0
M  V30 40 H 41.523565 32.015562 67.973785 0
M  V30 41 H 42.733336 31.494946 66.816208 0
M  V30 42 H 42.032574 28.785318 62.921107 0
M  V30 43 H 40.448222 28.185266 63.315647 0
M  V30 44 H 36.979862 26.884104 57.767752 0
M  V30 45 H 37.645113 25.370811 58.379000 0
M  V30 46 H 39.130579 24.413916 55.035093 0
M  V30 47 H 39.114940 24.003965 56.753643 0
M  V30 48 H 40.467539 34.397315 61.936590 0
M  V30 49 H 40.535271 35.666204 60.737356 0
M  V30 50 H 39.843079 30.442513 66.843797 0
M  V30 51 H 39.851467 28.868252 52.715000 0
M  V30 52 H 38.450973 29.095392 51.684201 0
M  V30 53 H 39.152705 27.495331 51.852223 0
M  V30 54 H 40.238674 27.766949 60.761317 0
M  V30 55 H 38.845141 28.286072 61.620399 0
M  V30 56 H 35.325103 34.868067 58.796729 0
M  V30 57 H 40.845147 25.721441 56.606377 0
M  V30 58 H 40.605374 26.863005 54.567759 0
M  V30 59 H 42.125807 36.137758 62.585058 0
M  V30 60 H 40.838474 36.016424 63.776974 0
M  V30 61 H 40.845007 37.337752 62.621449 0
M  V30 62 H 37.048361 27.774775 53.133857 0
M  V30 63 H 38.578901 26.137776 53.771899 0
M  V30 64 H 36.452265 30.510093 60.264557 0
M  V30 65 H 37.599125 30.745712 61.564511 0
M  V30 66 H 35.604040 32.406482 58.976714 0
M  V30 67 H 36.659419 23.574118 56.736069 0
M  V30 68 H 36.239369 24.166872 55.127537 0
M  V30 69 H 35.555503 24.937758 56.567762 0
M  V30 70 H 41.452042 30.966454 64.029137 0
M  V30 71 H 39.829310 30.386547 64.328609 0
M  V30 72 H 38.435720 30.117306 54.423723 0
M  V30 73 H 37.186602 29.230880 55.310006 0
M  V30 74 H 36.845138 29.961100 53.768256 0
M  V30 75 H 41.245129 30.078482 61.131633 0
M  V30 76 H 39.806081 30.531946 61.987315 0
M  V30 77 H 36.758542 36.387243 60.144893 0
M  V30 78 H 38.190453 30.840818 58.571046 0
M  V30 79 H 39.375012 31.247742 59.767773 0
M  V30 80 H 40.683164 28.345068 58.818921 0
M  V30 81 H 41.582944 33.414945 66.249490 0
M  V30 82 H 40.622966 28.784697 68.043010 0
M  V30 83 H 38.085495 28.508618 59.487411 0
M  V30 84 H 39.692637 26.363958 58.516209 0
M  V30 85 H 38.742685 32.968385 61.877768 0
M  V30 86 H 38.445086 35.613935 62.968638 0
M  V30 87 H 38.513722 36.745749 61.657216 0
M  V30 88 H 39.970354 29.256374 55.548869 0
M  V30 89 H 41.174210 28.295246 56.335952 0
M  V30 90 H 40.230164 29.784380 58.179974 0
M  V30 END ATOM
M  V30 BEGIN BOND
M  V30 1 1 9 2
M  V30 2 1 9 3
M  V30 3 1 13 6
M  V30 4 1 14 13
M  V30 5 1 15 7
M  V30 6 1 16 10
M  V30 7 1 17 5
M  V30 8 1 17 6
M  V30 9 1 18 14
M  V30 10 1 18 16
M  V30 11 1 20 12
M  V30 12 1 17 21 CFG=1
M  V30 13 1 22 2
M  V30 14 1 22 4
M  V30 15 1 23 16
M  V30 16 1 24 4
M  V30 17 1 24 11
M  V30 18 1 25 8
M  V30 19 2 25 12
M  V30 20 1 26 19
M  V30 21 1 27 1
M  V30 22 1 28 3
M  V30 23 1 29 19
M  V30 24 2 29 20
M  V30 25 1 30 9
M  V30 26 1 31 11
M  V30 27 1 31 26
M  V30 28 1 31 27
M  V30 29 1 32 1
M  V30 30 1 32 5
M  V30 31 1 32 13
M  V30 32 2 33 8
M  V30 33 1 33 29
M  V30 34 1 34 7
M  V30 35 1 34 8
M  V30 36 1 35 17
M  V30 37 1 35 18
M  V30 38 1 36 1
M  V30 39 1 36 14
M  V30 40 1 1 37 CFG=3
M  V30 41 1 38 2
M  V30 42 1 39 2
M  V30 43 1 40 3
M  V30 44 1 41 3
M  V30 45 1 42 4
M  V30 46 1 43 4
M  V30 47 1 44 5
M  V30 48 1 45 5
M  V30 49 1 46 6
M  V30 50 1 47 6
M  V30 51 1 48 7
M  V30 52 1 49 7
M  V30 53 1 9 50 CFG=3
M  V30 54 1 51 10
M  V30 55 1 52 10
M  V30 56 1 53 10
M  V30 57 1 54 11
M  V30 58 1 55 11
M  V30 59 1 56 12
M  V30 60 1 13 57 CFG=1
M  V30 61 1 14 58 CFG=3
M  V30 62 1 59 15
M  V30 63 1 60 15
M  V30 64 1 61 15
M  V30 65 1 62 16
M  V30 66 1 18 63 CFG=3
M  V30 67 1 64 19
M  V30 68 1 65 19
M  V30 69 1 66 20
M  V30 70 1 67 21
M  V30 71 1 68 21
M  V30 72 1 69 21
M  V30 73 1 70 22
M  V30 74 1 71 22
M  V30 75 1 72 23
M  V30 76 1 73 23
M  V30 77 1 74 23
M  V30 78 1 75 24
M  V30 79 1 76 24
M  V30 80 1 77 25
M  V30 81 1 78 26
M  V30 82 1 79 26
M  V30 83 1 80 27
M  V30 84 1 81 28
M  V30 85 1 82 30
M  V30 86 1 31 83 CFG=3
M  V30 87 1 32 84 CFG=1
M  V30 88 1 85 33
M  V30 89 1 86 34
M  V30 90 1 87 34
M  V30 91 1 88 36
M  V30 92 1 89 36
M  V30 93 1 90 27
M  V30 END BOND
M  V30 END CTAB
M  END
>  <i_epik_Tot_Q>  (1) 
1

>  <i_epik_Tot_abs_Q>  (1) 
1

>  <i_i_glide_confnum>  (1) 
1746

>  <i_i_glide_lignum>  (1) 
93

>  <i_i_glide_posenum>  (1) 
87

>  <i_i_glide_rotatable_bonds>  (1) 
17

>  <i_lp_mmshare_version>  (1) 
72125

>  <i_m_source_file_index>  (1) 
43

>  <i_f3d_flags>  (1) 
0

>  <num_sample>  (1) 
50

>  <b_lp_Chiralities_Consistent>  (1) 
1

>  <r_epik_Charging_Adjusted_Penalty>  (1) 
0.00030412636243833623

>  <r_epik_Ionization_Penalty>  (1) 
0.00030431191221991862

>  <r_epik_Ionization_Penalty_Charging>  (1) 
0.00030412636243833623

>  <r_epik_Ionization_Penalty_Neutral>  (1) 
1.8554978158239134e-07

>  <r_epik_State_Penalty>  (1) 
-0

>  <r_glide_ring_energy>  (1) 
0

>  <r_i_docking_score>  (1) 
-7.5008096978204097

>  <r_i_glide_ecoul>  (1) 
-1.6008548642755924

>  <r_i_glide_eff_state_penalty>  (1) 
-0

>  <r_i_glide_einternal>  (1) 
16.791757177267002

>  <r_i_glide_emodel>  (1) 
-59.30684761192223

>  <r_i_glide_emodel_strain>  (1) 
0.84127325765800265

>  <r_i_glide_energy>  (1) 
-47.374580789409407

>  <r_i_glide_erotb>  (1) 
1.0585899969639281

>  <r_i_glide_esite>  (1) 
0

>  <r_i_glide_evdw>  (1) 
-45.773725925133817

>  <r_i_glide_gscore>  (1) 
-7.5008096978204097

>  <r_i_glide_gscore_strain>  (1) 
0

>  <r_i_glide_hbond>  (1) 
-0.16834922588172432

>  <r_i_glide_ligand_efficiency>  (1) 
-0.20835582493945581

>  <r_i_glide_ligand_efficiency_ln>  (1) 
-1.6364740276052936

>  <r_i_glide_ligand_efficiency_sa>  (1) 
-0.687975775833508

>  <r_i_glide_lipo>  (1) 
-5.1983192572835266

>  <r_i_glide_metal>  (1) 
-0

>  <r_i_glide_rewards>  (1) 
-0.66391668572105633

>  <r_lp_Energy>  (1) 
51.322443999999997

>  <r_lp_tautomer_probability>  (1) 
1

>  <s_epik_cmdline>  (1) 
J2VwaWtfcHl0aG9uJywgJy1waHQnLCAnMS4wJywgJy1waCcsICc3LjQnLCAnLXRuJywgJzgnLCAnLW1hJywgJzUwMCcsICctaW1hZScsICc8aW5maWxlLm1hZT4nLCAnLW9tYWUnLCAnPG91dGZpbGUubWFlPic=

>  <s_epik_input>  (1) 
W0NIM11bQ0BAXTEyW0NIMl1bQ0BIXTNbQ0BASF0oW0NIMl0xKVtDQEBIXShbQ0BASF0oTzIpW0NIXShbQ0gzXSlbQ0gzXSlbQ0gyXVtDQEBIXTNbTkhdW0NAQEhdKFtDSDJdW0NIMl1bQ0gyXVtDSDJdW0NIMl1bQ0BASF0oW09IXSlbQ0gyXVtPSF0pW0NIMl1bQ0gyXWMoW2NIXTQpW2NIXVtjSF1bY0hdYzRbQ0gyXVtDSDJdW0NIM10=

>  <s_glide_docking_method>  (1) 
confgen

>  <s_i_glide_gridfile>  (1) 
gpcr_5ht2c_6bqh_protein_autoprepared_prepared

>  <s_lp_Force_Field>  (1) 
S-OPLS

>  <s_lp_Variant>  (1) 
DiffSBDD_42-1

>  <s_m_source_file>  (1) 
generated_GPCR_5HT2C_ligand_DiffSBDD_2026-06-23_prepared.sdf

>  <GenAI_Model>  (1) 
DiffSBDD

>  <Protein>  (1) 
GPCR_5HT2C

$$$$
DiffSBDD_24
     RDKit          3D

  0  0  0  0  0  0  0  0  0  0999 V3000
M  V30 BEGIN CTAB
M  V30 COUNTS 80 83 0 0 1
M  V30 BEGIN ATOM
M  V30 1 C 38.150576 30.609599 60.872872 0
M  V30 2 C 38.260384 26.677368 56.347618 0 CFG=2
M  V30 3 O 40.841695 28.137929 60.014198 0
M  V30 4 C 39.296749 34.850238 60.697746 0
M  V30 5 C 37.268802 25.744730 55.614917 0
M  V30 6 N 36.046139 38.137382 62.167554 0
M  V30 7 O 41.992683 28.137820 57.716463 0
M  V30 8 C 37.831772 24.403194 55.141317 0
M  V30 9 C 40.007500 28.517719 56.287281 0
M  V30 10 C 36.845238 35.014505 61.523249 0
M  V30 11 C 38.293164 32.124228 61.148243 0 CFG=2
M  V30 12 C 40.594791 27.996625 57.584802 0 CFG=2
M  V30 13 C 35.821594 37.565515 63.367759 0
M  V30 14 C 39.917415 33.970994 61.788514 0
M  V30 15 C 36.218480 32.583120 59.728864 0
M  V30 16 C 38.637106 30.155902 59.485819 0
M  V30 17 C 36.862201 35.729785 60.195991 0 CFG=1
M  V30 18 C 34.409641 37.700420 63.939980 0
M  V30 19 C 39.915427 28.017737 58.944376 0 CFG=1
M  V30 20 O 36.683980 36.945671 63.990564 0
M  V30 21 C 37.812890 34.540004 60.484839 0 CFG=1
M  V30 22 C 37.663087 33.050294 60.060470 0 CFG=1
M  V30 23 C 34.371830 37.778300 65.476923 0
M  V30 24 C 39.297159 27.420043 55.459514 0 CFG=2
M  V30 25 O 35.771600 35.418389 59.367669 0
M  V30 26 C 40.079296 26.708380 58.204878 0 CFG=1
M  V30 27 C 38.574495 28.635119 59.295140 0
M  V30 28 C 37.172423 37.232159 60.120665 0
M  V30 29 O 37.645052 28.896975 54.385913 0
M  V30 30 C 37.323374 38.016774 61.451772 0
M  V30 31 C 38.942075 25.952623 57.537363 0
M  V30 32 C 38.731133 28.021626 54.150339 0
M  V30 33 C 39.764016 32.490896 61.434648 0
M  V30 34 H 37.107132 30.320595 60.987927 0
M  V30 35 H 38.688189 30.057268 61.646012 0
M  V30 36 H 37.620164 27.458159 56.741320 0
M  V30 37 H 40.514803 27.647494 60.753422 0
M  V30 38 H 39.839176 34.699022 59.767755 0
M  V30 39 H 39.429606 35.898972 60.963468 0
M  V30 40 H 36.423340 25.539450 56.273579 0
M  V30 41 H 36.845141 26.267606 54.762061 0
M  V30 42 H 35.296020 38.636688 61.711251 0
M  V30 43 H 42.152757 28.123746 58.654840 0
M  V30 44 H 37.102104 23.886398 54.520152 0
M  V30 45 H 38.044680 23.742648 55.979754 0
M  V30 46 H 38.747960 24.537219 54.567763 0
M  V30 47 H 39.312783 29.320589 56.531892 0
M  V30 48 H 40.803303 28.975475 55.701954 0
M  V30 49 H 37.373627 35.430455 62.363238 0
M  V30 50 H 35.960493 34.436299 61.776682 0
M  V30 51 H 37.748718 32.311154 62.074756 0
M  V30 52 H 40.972081 34.217615 61.910372 0
M  V30 53 H 39.444624 34.177368 62.749398 0
M  V30 54 H 35.529737 32.699763 60.563617 0
M  V30 55 H 36.167124 31.539253 59.432041 0
M  V30 56 H 35.809566 33.102997 58.869693 0
M  V30 57 H 38.050227 30.620994 58.694079 0
M  V30 58 H 39.645295 30.510292 59.326220 0
M  V30 59 H 33.897957 38.537779 63.478438 0
M  V30 60 H 33.849060 36.820311 63.637287 0
M  V30 61 H 38.241448 32.936651 59.143025 0
M  V30 62 H 33.343503 37.773256 65.837793 0
M  V30 63 H 34.845021 38.685760 65.846621 0
M  V30 64 H 34.887516 36.938000 65.940552 0
M  V30 65 H 40.053259 26.690475 55.166855 0
M  V30 66 H 36.041691 35.468918 58.458459 0
M  V30 67 H 40.844994 26.030952 58.567721 0
M  V30 68 H 38.199511 28.138627 60.184934 0
M  V30 69 H 37.840980 28.421752 58.529519 0
M  V30 70 H 38.045079 37.365572 59.491821 0
M  V30 71 H 36.371760 37.714977 59.565653 0
M  V30 72 H 37.941040 29.618999 54.920422 0
M  V30 73 H 37.637968 39.033578 61.215884 0
M  V30 74 H 38.122151 37.599453 62.064893 0
M  V30 75 H 38.208184 25.670427 58.293673 0
M  V30 76 H 39.387203 25.023165 57.185820 0
M  V30 77 H 39.505197 28.575005 53.619679 0
M  V30 78 H 38.409603 27.234274 53.468493 0
M  V30 79 H 40.385408 32.267959 60.567993 0
M  V30 80 H 40.151221 31.885600 62.256271 0
M  V30 END ATOM
M  V30 BEGIN BOND
M  V30 1 1 5 2
M  V30 2 1 8 5
M  V30 3 1 11 1
M  V30 4 1 12 7 CFG=1
M  V30 5 1 12 9
M  V30 6 1 13 6
M  V30 7 1 14 4
M  V30 8 1 16 1
M  V30 9 1 17 10
M  V30 10 1 18 13
M  V30 11 1 19 3 CFG=1
M  V30 12 1 19 12
M  V30 13 2 20 13
M  V30 14 1 21 4 CFG=1
M  V30 15 1 21 10
M  V30 16 1 21 17
M  V30 17 1 22 11
M  V30 18 1 22 15
M  V30 19 1 22 21
M  V30 20 1 23 18
M  V30 21 1 24 2
M  V30 22 1 24 9
M  V30 23 1 17 25 CFG=3
M  V30 24 1 26 12
M  V30 25 1 26 19
M  V30 26 1 27 16
M  V30 27 1 27 19
M  V30 28 1 28 17
M  V30 29 1 30 6
M  V30 30 1 30 28
M  V30 31 1 31 2
M  V30 32 1 31 26
M  V30 33 1 32 24
M  V30 34 1 32 29
M  V30 35 1 33 11
M  V30 36 1 33 14
M  V30 37 1 34 1
M  V30 38 1 35 1
M  V30 39 1 2 36 CFG=1
M  V30 40 1 37 3
M  V30 41 1 38 4
M  V30 42 1 39 4
M  V30 43 1 40 5
M  V30 44 1 41 5
M  V30 45 1 42 6
M  V30 46 1 43 7
M  V30 47 1 44 8
M  V30 48 1 45 8
M  V30 49 1 46 8
M  V30 50 1 47 9
M  V30 51 1 48 9
M  V30 52 1 49 10
M  V30 53 1 50 10
M  V30 54 1 11 51 CFG=1
M  V30 55 1 52 14
M  V30 56 1 53 14
M  V30 57 1 54 15
M  V30 58 1 55 15
M  V30 59 1 56 15
M  V30 60 1 57 16
M  V30 61 1 58 16
M  V30 62 1 59 18
M  V30 63 1 60 18
M  V30 64 1 22 61 CFG=3
M  V30 65 1 62 23
M  V30 66 1 63 23
M  V30 67 1 64 23
M  V30 68 1 24 65 CFG=3
M  V30 69 1 66 25
M  V30 70 1 26 67 CFG=1
M  V30 71 1 68 27
M  V30 72 1 69 27
M  V30 73 1 70 28
M  V30 74 1 71 28
M  V30 75 1 72 29
M  V30 76 1 73 30
M  V30 77 1 74 30
M  V30 78 1 75 31
M  V30 79 1 76 31
M  V30 80 1 77 32
M  V30 81 1 78 32
M  V30 82 1 79 33
M  V30 83 1 80 33
M  V30 END BOND
M  V30 END CTAB
M  END
>  <i_epik_Tot_Q>  (1) 
0

>  <i_epik_Tot_abs_Q>  (1) 
0

>  <i_i_glide_confnum>  (1) 
1038

>  <i_i_glide_lignum>  (1) 
53

>  <i_i_glide_posenum>  (1) 
226

>  <i_i_glide_rotatable_bonds>  (1) 
15

>  <i_lp_mmshare_version>  (1) 
72125

>  <i_m_source_file_index>  (1) 
25

>  <i_f3d_flags>  (1) 
0

>  <num_sample>  (1) 
50

>  <b_lp_Chiralities_Consistent>  (1) 
1

>  <r_epik_Charging_Adjusted_Penalty>  (1) 
0

>  <r_epik_Ionization_Penalty>  (1) 
1.3202672537782039e-06

>  <r_epik_Ionization_Penalty_Charging>  (1) 
0

>  <r_epik_Ionization_Penalty_Neutral>  (1) 
1.3202672537782039e-06

>  <r_epik_State_Penalty>  (1) 
-0

>  <r_glide_ring_energy>  (1) 
0

>  <r_i_docking_score>  (1) 
-7.4946539399283036

>  <r_i_glide_ecoul>  (1) 
-1.4368636291415975

>  <r_i_glide_eff_state_penalty>  (1) 
-0

>  <r_i_glide_einternal>  (1) 
11.027778120088135

>  <r_i_glide_emodel>  (1) 
-51.09929533239881

>  <r_i_glide_emodel_strain>  (1) 
1.263693580902455

>  <r_i_glide_energy>  (1) 
-43.713297645319599

>  <r_i_glide_erotb>  (1) 
0.83704981647784005

>  <r_i_glide_esite>  (1) 
0

>  <r_i_glide_evdw>  (1) 
-42.276434016178001

>  <r_i_glide_gscore>  (1) 
-7.4946539399283036

>  <r_i_glide_gscore_strain>  (1) 
0

>  <r_i_glide_hbond>  (1) 
-0.32000000000000001

>  <r_i_glide_ligand_efficiency>  (1) 
-0.22711072545237285

>  <r_i_glide_ligand_efficiency_ln>  (1) 
-1.6667722309987656

>  <r_i_glide_ligand_efficiency_sa>  (1) 
-0.72846544859874285

>  <r_i_glide_lipo>  (1) 
-4.5992060148404983

>  <r_i_glide_metal>  (1) 
-0

>  <r_i_glide_rewards>  (1) 
-1.0831464963855064

>  <r_lp_Energy>  (1) 
47.020322

>  <r_lp_tautomer_probability>  (1) 
1

>  <s_epik_cmdline>  (1) 
J2VwaWtfcHl0aG9uJywgJy1waHQnLCAnMS4wJywgJy1waCcsICc3LjQnLCAnLXRuJywgJzgnLCAnLW1hJywgJzUwMCcsICctaW1hZScsICc8aW5maWxlLm1hZT4nLCAnLW9tYWUnLCAnPG91dGZpbGUubWFlPic=

>  <s_epik_input>  (1) 
W09IXVtDSDJdW0NAQEhdKFtDSDJdMSlbQ0BASF0oW0NIMl1bQ0gzXSlbQ0gyXVtDQEBIXShDMTJbT0hdKVtDQF0yKFtPSF0pW0NIMl1bQ0gyXVtDSDJdW0NASF0oW0NASF0zW0NIM10pW0NIMl1bQ0gyXVtDSDJdW0NAXTM0W0NIMl1DNChbT0hdKVtDSDJdW0NIMl1bTkhdQyg9TylbQ0gyXVtDSDNd

>  <s_glide_docking_method>  (1) 
confgen

>  <s_i_glide_gridfile>  (1) 
gpcr_5ht2c_6bqh_protein_autoprepared_prepared

>  <s_lp_Force_Field>  (1) 
S-OPLS

>  <s_lp_Variant>  (1) 
DiffSBDD_24-1

>  <s_m_source_file>  (1) 
generated_GPCR_5HT2C_ligand_DiffSBDD_2026-06-23_prepared.sdf

>  <GenAI_Model>  (1) 
DiffSBDD

>  <Protein>  (1) 
GPCR_5HT2C

$$$$
DiffSBDD_28
     RDKit          3D

  0  0  0  0  0  0  0  0  0  0999 V3000
M  V30 BEGIN CTAB
M  V30 COUNTS 45 48 0 0 1
M  V30 BEGIN ATOM
M  V30 1 O 36.931326 29.544885 59.365914 0
M  V30 2 C 38.771495 34.374596 61.788181 0
M  V30 3 C 38.045162 27.385575 57.497884 0
M  V30 4 C 38.313104 35.636293 61.367094 0
M  V30 5 C 36.377529 32.033289 59.903123 0
M  V30 6 F 38.695252 36.937776 63.232509 0
M  V30 7 C 37.004674 29.644272 57.948515 0 CFG=1
M  V30 8 C 38.956196 36.895859 61.926679 0
M  V30 9 C 36.628272 34.555176 59.967211 0
M  V30 10 C 38.625875 31.843979 61.845254 0 CFG=2
M  V30 11 O 40.767672 30.883504 61.393608 0
M  V30 12 P 37.658084 31.033590 58.967759 0 CFG=2 CHG=1
M  V30 13 C 39.827634 26.530524 55.924893 0
M  V30 14 F 37.645138 31.012292 62.161291 0
M  V30 15 C 38.149406 33.198615 61.325190 0
M  V30 16 C 39.636315 31.108568 60.968704 0
M  V30 17 N 39.245137 30.718159 59.748497 0
M  V30 18 C 37.069662 33.288379 60.407492 0
M  V30 19 C 39.300270 26.606026 57.155922 0
M  V30 20 C 38.121393 28.903101 57.212246 0 CFG=2
M  V30 21 C 38.085170 29.282606 55.714208 0
M  V30 22 C 37.245131 35.726129 60.448844 0
M  V30 23 F 40.278552 36.855838 61.767760 0
M  V30 24 F 38.474074 38.007029 61.367760 0
M  V30 25 C 39.245136 28.749806 54.866662 0
M  V30 26 C 39.245137 27.220406 54.711071 0
M  V30 27 H 39.586132 34.310260 62.495505 0
M  V30 28 H 37.196023 26.931876 56.988579 0
M  V30 29 H 37.887671 27.226018 58.563606 0
M  V30 30 H 35.564771 32.307374 59.231471 0
M  V30 31 H 35.903342 31.481872 60.713029 0
M  V30 32 H 36.045140 29.737754 57.447709 0
M  V30 33 H 35.806005 34.629598 59.268737 0
M  V30 34 H 39.116709 32.022292 62.803869 0
M  V30 35 H 40.725659 25.949813 55.766094 0
M  V30 36 H 39.913187 30.212101 59.188359 0
M  V30 37 H 39.779749 26.083044 57.971269 0
M  V30 38 H 39.079611 29.242032 57.602352 0
M  V30 39 H 37.153278 28.957799 55.258318 0
M  V30 40 H 38.082469 30.370387 55.630259 0
M  V30 41 H 36.891359 36.692858 60.121505 0
M  V30 42 H 39.167584 29.193480 53.873199 0
M  V30 43 H 40.196469 29.093973 55.274860 0
M  V30 44 H 39.852692 26.937734 53.850721 0
M  V30 45 H 38.241033 26.843213 54.512312 0
M  V30 END ATOM
M  V30 BEGIN BOND
M  V30 1 2 4 2
M  V30 2 1 7 1
M  V30 3 1 8 4
M  V30 4 1 8 6
M  V30 5 1 12 1 CFG=1
M  V30 6 1 12 5
M  V30 7 1 12 7
M  V30 8 1 14 10
M  V30 9 1 15 2
M  V30 10 1 15 10
M  V30 11 1 16 10
M  V30 12 2 16 11
M  V30 13 1 17 12
M  V30 14 1 17 16
M  V30 15 1 18 5
M  V30 16 1 18 9
M  V30 17 2 18 15
M  V30 18 1 19 3
M  V30 19 2 19 13
M  V30 20 1 20 3
M  V30 21 1 20 7
M  V30 22 1 21 20
M  V30 23 1 22 4
M  V30 24 2 22 9
M  V30 25 1 23 8
M  V30 26 1 24 8
M  V30 27 1 25 21
M  V30 28 1 26 13
M  V30 29 1 26 25
M  V30 30 1 27 2
M  V30 31 1 28 3
M  V30 32 1 29 3
M  V30 33 1 30 5
M  V30 34 1 31 5
M  V30 35 1 7 32 CFG=3
M  V30 36 1 33 9
M  V30 37 1 10 34 CFG=1
M  V30 38 1 35 13
M  V30 39 1 36 17
M  V30 40 1 37 19
M  V30 41 1 20 38 CFG=1
M  V30 42 1 39 21
M  V30 43 1 40 21
M  V30 44 1 41 22
M  V30 45 1 42 25
M  V30 46 1 43 25
M  V30 47 1 44 26
M  V30 48 1 45 26
M  V30 END BOND
M  V30 END CTAB
M  END
>  <i_epik_Tot_Q>  (1) 
1

>  <i_epik_Tot_abs_Q>  (1) 
1

>  <i_i_glide_confnum>  (1) 
5

>  <i_i_glide_lignum>  (1) 
62

>  <i_i_glide_posenum>  (1) 
268

>  <i_i_glide_rotatable_bonds>  (1) 
2

>  <i_lp_mmshare_version>  (1) 
72125

>  <i_m_source_file_index>  (1) 
29

>  <i_f3d_flags>  (1) 
0

>  <num_sample>  (1) 
50

>  <b_lp_Chiralities_Consistent>  (1) 
1

>  <r_epik_Charging_Adjusted_Penalty>  (1) 
0

>  <r_epik_Ionization_Penalty>  (1) 
1.069405246037928e-05

>  <r_epik_Ionization_Penalty_Charging>  (1) 
0

>  <r_epik_Ionization_Penalty_Neutral>  (1) 
1.069405246037928e-05

>  <r_epik_State_Penalty>  (1) 
-0

>  <r_glide_ring_energy>  (1) 
0

>  <r_i_docking_score>  (1) 
-7.4927405004664251

>  <r_i_glide_ecoul>  (1) 
-6.4379213174001846

>  <r_i_glide_eff_state_penalty>  (1) 
-0

>  <r_i_glide_einternal>  (1) 
0.17316748949369454

>  <r_i_glide_emodel>  (1) 
-56.707482996102733

>  <r_i_glide_emodel_strain>  (1) 
0

>  <r_i_glide_energy>  (1) 
-36.85531895234184

>  <r_i_glide_erotb>  (1) 
0.12919976224793953

>  <r_i_glide_esite>  (1) 
-0.09805634771764879

>  <r_i_glide_evdw>  (1) 
-30.417397634941658

>  <r_i_glide_gscore>  (1) 
-7.4927405004664251

>  <r_i_glide_gscore_strain>  (1) 
0

>  <r_i_glide_hbond>  (1) 
-0.23778439596012768

>  <r_i_glide_ligand_efficiency>  (1) 
-0.28818232694101636

>  <r_i_glide_ligand_efficiency_ln>  (1) 
-1.7596455208476594

>  <r_i_glide_ligand_efficiency_sa>  (1) 
-0.85373901054724854

>  <r_i_glide_lipo>  (1) 
-2.2446126132721198

>  <r_i_glide_metal>  (1) 
-0

>  <r_i_glide_rewards>  (1) 
-2.5549288264073575

>  <r_lp_Energy>  (1) 
27.226237999999999

>  <r_lp_tautomer_probability>  (1) 
1

>  <s_epik_cmdline>  (1) 
J2VwaWtfcHl0aG9uJywgJy1waHQnLCAnMS4wJywgJy1waCcsICc3LjQnLCAnLXRuJywgJzgnLCAnLW1hJywgJzUwMCcsICctaW1hZScsICc8aW5maWxlLm1hZT4nLCAnLW9tYWUnLCAnPG91dGZpbGUubWFlPic=

>  <s_epik_input>  (1) 
W0NIMl0xW0NIMl1bQ0gyXVtDSF09W0NIXVtDSDJdW0NAQEhdMVtDQEhdMk9bUEArXTIzW0NIMl1jNGMoW0NAQEhdKEYpQyg9TylbTkhdMylbY0hdYyhDKEYpKEYpRilbY0hdW2NIXTQ=

>  <s_glide_docking_method>  (1) 
confgen

>  <s_i_glide_gridfile>  (1) 
gpcr_5ht2c_6bqh_protein_autoprepared_prepared

>  <s_lp_Force_Field>  (1) 
S-OPLS

>  <s_lp_Variant>  (1) 
DiffSBDD_28-1

>  <s_m_source_file>  (1) 
generated_GPCR_5HT2C_ligand_DiffSBDD_2026-06-23_prepared.sdf

>  <GenAI_Model>  (1) 
DiffSBDD

>  <Protein>  (1) 
GPCR_5HT2C

$$$$
DiffSBDD_27
     RDKit          3D

  0  0  0  0  0  0  0  0  0  0999 V3000
M  V30 BEGIN CTAB
M  V30 COUNTS 67 69 0 0 1
M  V30 BEGIN ATOM
M  V30 1 C 39.951148 31.891619 63.418189 0
M  V30 2 C 37.115675 24.358555 55.250122 0
M  V30 3 N 37.675912 36.788593 63.209780 0
M  V30 4 C 37.130633 31.654216 59.374477 0
M  V30 5 C 39.645144 29.230846 51.000926 0
M  V30 6 C 38.432085 29.026517 54.626545 0
M  V30 7 N 37.645145 31.949961 58.028321 0 CHG=1
M  V30 8 C 38.507054 30.301755 55.306994 0
M  V30 9 O 39.645029 28.305159 50.167760 0
M  V30 10 C 38.106771 36.179569 62.325437 0
M  V30 11 C 39.880670 25.839298 55.644261 0
M  V30 12 C 38.651856 35.519024 61.117159 0 CFG=2
M  V30 13 C 39.166118 32.753548 62.414658 0 CFG=1
M  V30 14 C 38.267495 28.887955 53.137508 0
M  V30 15 C 39.644659 28.834727 52.468571 0
M  V30 16 C 38.420438 31.631860 54.607683 0
M  V30 17 S 38.730906 28.503061 57.122734 0
M  V30 18 C 38.692782 30.163375 56.664637 0
M  V30 19 C 41.356116 31.759677 62.833725 0
M  V30 20 N 37.621985 34.901968 60.262975 0
M  V30 21 O 39.653068 30.452501 50.740575 0 CHG=-1
M  V30 22 C 38.559734 27.958307 55.494110 0
M  V30 23 C 36.967150 33.688672 60.703507 0
M  V30 24 C 37.319896 25.793353 55.736576 0
M  V30 25 N 37.805281 32.565107 60.296357 0
M  V30 26 O 41.002652 35.477940 60.967907 0
M  V30 27 C 40.024340 34.817745 61.314839 0
M  V30 28 N 40.228829 33.582954 61.853567 0
M  V30 29 C 38.442065 31.847447 61.392312 0
M  V30 30 C 38.873972 31.238167 57.675080 0
M  V30 31 C 38.568946 26.492761 55.168541 0 CFG=2
M  V30 32 C 41.576760 33.077517 62.094314 0
M  V30 33 H 40.029845 32.417874 64.370859 0
M  V30 34 H 39.491753 30.922484 63.617351 0
M  V30 35 H 36.214581 23.925401 55.685410 0
M  V30 36 H 37.957444 23.732977 55.528880 0
M  V30 37 H 37.005040 24.325889 54.167882 0
M  V30 38 H 37.307826 30.604608 59.618849 0
M  V30 39 H 36.046137 31.775813 59.384126 0
M  V30 40 H 36.896077 31.735779 57.366113 0
M  V30 41 H 40.748797 26.365923 55.245342 0
M  V30 42 H 39.957427 24.805028 55.320036 0
M  V30 43 H 39.967807 25.847101 56.730755 0
M  V30 44 H 38.919722 36.394282 60.530060 0
M  V30 45 H 38.449842 33.338180 62.967691 0
M  V30 46 H 37.682854 28.007778 52.864247 0
M  V30 47 H 37.705418 29.731028 52.759267 0
M  V30 48 H 40.045134 27.828302 52.568143 0
M  V30 49 H 40.305744 29.552855 52.954402 0
M  V30 50 H 38.174969 32.446788 55.288557 0
M  V30 51 H 37.648201 31.634229 53.838824 0
M  V30 52 H 39.366598 31.870756 54.120799 0
M  V30 53 H 42.112645 31.578226 63.599199 0
M  V30 54 H 41.384007 30.925587 62.132095 0
M  V30 55 H 37.917930 34.829031 59.301841 0
M  V30 56 H 36.707036 33.705485 61.762326 0
M  V30 57 H 36.008281 33.686500 60.181261 0
M  V30 58 H 36.445204 26.360122 55.430837 0
M  V30 59 H 37.339753 25.812676 56.826103 0
M  V30 60 H 39.156011 31.139713 60.967928 0
M  V30 61 H 37.687438 31.254606 61.909432 0
M  V30 62 H 39.288350 30.801791 58.581159 0
M  V30 63 H 39.591652 31.967778 57.299075 0
M  V30 64 H 38.553016 26.370292 54.086181 0
M  V30 65 H 42.152141 32.938249 61.179855 0
M  V30 66 H 42.105675 33.778573 62.740960 0
M  V30 67 H 37.808908 32.941184 57.963958 0
M  V30 END ATOM
M  V30 BEGIN BOND
M  V30 1 1 7 4
M  V30 2 1 8 6
M  V30 3 2 9 5
M  V30 4 3 10 3
M  V30 5 1 12 10
M  V30 6 1 13 1
M  V30 7 1 14 6
M  V30 8 1 15 5
M  V30 9 1 15 14
M  V30 10 1 16 8
M  V30 11 2 18 8
M  V30 12 1 18 17
M  V30 13 1 19 1
M  V30 14 1 20 12
M  V30 15 1 21 5
M  V30 16 2 22 6
M  V30 17 1 22 17
M  V30 18 1 23 20
M  V30 19 1 24 2
M  V30 20 1 25 4
M  V30 21 1 25 23
M  V30 22 1 27 12
M  V30 23 2 27 26
M  V30 24 1 28 13
M  V30 25 1 28 27
M  V30 26 1 29 13
M  V30 27 1 29 25
M  V30 28 1 30 7
M  V30 29 1 30 18
M  V30 30 1 31 11
M  V30 31 1 31 22
M  V30 32 1 31 24
M  V30 33 1 32 19
M  V30 34 1 32 28
M  V30 35 1 33 1
M  V30 36 1 34 1
M  V30 37 1 35 2
M  V30 38 1 36 2
M  V30 39 1 37 2
M  V30 40 1 38 4
M  V30 41 1 39 4
M  V30 42 1 40 7
M  V30 43 1 41 11
M  V30 44 1 42 11
M  V30 45 1 43 11
M  V30 46 1 12 44 CFG=3
M  V30 47 1 13 45 CFG=1
M  V30 48 1 46 14
M  V30 49 1 47 14
M  V30 50 1 48 15
M  V30 51 1 49 15
M  V30 52 1 50 16
M  V30 53 1 51 16
M  V30 54 1 52 16
M  V30 55 1 53 19
M  V30 56 1 54 19
M  V30 57 1 55 20
M  V30 58 1 56 23
M  V30 59 1 57 23
M  V30 60 1 58 24
M  V30 61 1 59 24
M  V30 62 1 60 29
M  V30 63 1 61 29
M  V30 64 1 62 30
M  V30 65 1 63 30
M  V30 66 1 31 64 CFG=3
M  V30 67 1 65 32
M  V30 68 1 66 32
M  V30 69 1 67 7
M  V30 END BOND
M  V30 END CTAB
M  END
>  <i_epik_Tot_Q>  (1) 
0

>  <i_epik_Tot_abs_Q>  (1) 
2

>  <i_i_glide_confnum>  (1) 
188

>  <i_i_glide_lignum>  (1) 
61

>  <i_i_glide_posenum>  (1) 
247

>  <i_i_glide_rotatable_bonds>  (1) 
9

>  <i_lp_mmshare_version>  (1) 
72125

>  <i_m_source_file_index>  (1) 
28

>  <i_f3d_flags>  (1) 
0

>  <num_sample>  (1) 
50

>  <b_lp_Chiralities_Consistent>  (1) 
1

>  <r_epik_Charging_Adjusted_Penalty>  (1) 
0.0027323958996878029

>  <r_epik_Ionization_Penalty>  (1) 
0.002819485543525381

>  <r_epik_Ionization_Penalty_Charging>  (1) 
0.0027323958996878029

>  <r_epik_Ionization_Penalty_Neutral>  (1) 
8.708964383757816e-05

>  <r_epik_State_Penalty>  (1) 
-0

>  <r_glide_ring_energy>  (1) 
0

>  <r_i_docking_score>  (1) 
-7.49257480176888

>  <r_i_glide_ecoul>  (1) 
-2.2602728162241776

>  <r_i_glide_eff_state_penalty>  (1) 
-0

>  <r_i_glide_einternal>  (1) 
11.126296932456572

>  <r_i_glide_emodel>  (1) 
-52.131164136730369

>  <r_i_glide_emodel_strain>  (1) 
2.3116648110889031

>  <r_i_glide_energy>  (1) 
-42.4367789454353

>  <r_i_glide_erotb>  (1) 
0.66148182558323176

>  <r_i_glide_esite>  (1) 
-0.18427704759807273

>  <r_i_glide_evdw>  (1) 
-40.17650612921112

>  <r_i_glide_gscore>  (1) 
-7.49257480176888

>  <r_i_glide_gscore_strain>  (1) 
0

>  <r_i_glide_hbond>  (1) 
-0.20000000000000001

>  <r_i_glide_ligand_efficiency>  (1) 
-0.2341429625552775

>  <r_i_glide_ligand_efficiency_ln>  (1) 
-1.6777917379913849

>  <r_i_glide_ligand_efficiency_sa>  (1) 
-0.74335757014239656

>  <r_i_glide_lipo>  (1) 
-3.1823156855707184

>  <r_i_glide_metal>  (1) 
-0

>  <r_i_glide_rewards>  (1) 
-2.2395976652891383

>  <r_lp_Energy>  (1) 
41.659236

>  <r_lp_tautomer_probability>  (1) 
1

>  <s_epik_Chemistry_Notes>  (1) 
This compound contains an acetal/aminal-like group ( X-CH(R)-Y where X, Y are N, S, or O) that may be acid/base labile, releasing an aldehyde.

>  <s_epik_cmdline>  (1) 
J2VwaWtfcHl0aG9uJywgJy1waHQnLCAnMS4wJywgJy1waCcsICc3LjQnLCAnLXRuJywgJzgnLCAnLW1hJywgJzUwMCcsICctaW1hZScsICc8aW5maWxlLm1hZT4nLCAnLW9tYWUnLCAnPG91dGZpbGUubWFlPic=

>  <s_epik_input>  (1) 
W0NIMl0xW0NIMl1bQ0gyXU4oW0NASF0xMilDKD1PKVtDQEBIXShDI04pW05IXVtDSDJdTihbQ0gyXTIpW0NIMl1bTkhdW0NIMl1jKHNjM1tDQEBIXShbQ0gzXSlbQ0gyXVtDSDNdKWMoW0NIM10pYzNbQ0gyXVtDSDJdQyg9TylbT0hd

>  <s_glide_docking_method>  (1) 
confgen

>  <s_i_glide_gridfile>  (1) 
gpcr_5ht2c_6bqh_protein_autoprepared_prepared

>  <s_lp_Force_Field>  (1) 
S-OPLS

>  <s_lp_Variant>  (1) 
DiffSBDD_27-2

>  <s_m_source_file>  (1) 
generated_GPCR_5HT2C_ligand_DiffSBDD_2026-06-23_prepared.sdf

>  <GenAI_Model>  (1) 
DiffSBDD

>  <Protein>  (1) 
GPCR_5HT2C

$$$$
DiffSBDD_17
     RDKit          3D

  0  0  0  0  0  0  0  0  0  0999 V3000
M  V30 BEGIN CTAB
M  V30 COUNTS 94 98 0 0 1
M  V30 BEGIN ATOM
M  V30 1 C 43.626500 32.982519 68.040393 0
M  V30 2 C 38.794362 33.746244 61.533683 0 CFG=2
M  V30 3 C 42.653815 31.789335 66.031031 0
M  V30 4 O 40.276182 35.766226 63.766767 0
M  V30 5 C 43.235492 30.507052 68.197272 0
M  V30 6 C 38.444104 28.187554 55.416782 0
M  V30 7 C 39.561439 26.048953 56.087149 0
M  V30 8 C 38.840262 26.933466 55.169523 0
M  V30 9 C 36.574492 35.200754 59.484311 0
M  V30 10 C 38.121349 37.530464 61.319010 0
M  V30 11 N 41.735366 29.580623 65.567160 0
M  V30 12 C 37.746912 36.140349 61.788451 0 CFG=2
M  V30 13 C 41.166798 31.518835 63.964165 0 CFG=1
M  V30 14 C 40.342332 33.590803 61.458235 0
M  V30 15 N 42.675642 28.999588 64.595908 0 CHG=1
M  V30 16 C 37.605315 30.234848 54.901883 0 CFG=2
M  V30 17 C 38.700727 28.988636 56.639517 0 CFG=2
M  V30 18 C 40.917738 27.439874 65.110441 0
M  V30 19 C 41.443744 31.023201 65.423423 0 CFG=2
M  V30 20 O 37.762045 28.894083 54.468466 0
M  V30 21 C 42.001085 27.794770 64.072795 0
M  V30 22 O 40.015263 30.925741 63.399757 0
M  V30 23 N 37.645149 31.573800 58.511263 0 CHG=1
M  V30 24 C 38.592110 28.355994 57.986479 0
M  V30 25 C 38.075065 32.611034 60.724577 0
M  V30 26 C 39.644292 26.136277 57.445275 0
M  V30 27 N 38.366254 35.073997 61.017266 0 CFG=2 CHG=1
M  V30 28 C 41.427325 35.231332 63.160396 0
M  V30 29 S 38.845171 31.337323 54.167758 0
M  V30 30 C 41.203326 33.763533 62.744334 0 CFG=1
M  V30 31 C 39.032370 27.136759 58.329277 0
M  V30 32 N 40.765493 32.952148 63.914460 0 CHG=1
M  V30 33 C 36.916035 35.195263 60.956299 0 CFG=2
M  V30 34 C 38.120246 31.508785 57.115024 0
M  V30 35 C 36.581186 33.762158 58.916468 0
M  V30 36 C 37.737056 30.166375 56.437229 0 CFG=1
M  V30 37 C 37.832872 32.873401 59.202459 0 CFG=2
M  V30 38 N 40.564584 28.713079 65.767739 0 CHG=1
M  V30 39 C 42.730595 31.822076 67.577423 0
M  V30 40 H 44.647500 32.872811 67.671736 0
M  V30 41 H 43.245390 33.941507 67.688231 0
M  V30 42 H 43.674333 33.037904 69.128812 0
M  V30 43 H 38.484434 33.640412 62.567773 0
M  V30 44 H 43.598297 31.431118 65.618350 0
M  V30 45 H 42.601336 32.829273 65.711074 0
M  V30 46 H 40.499032 36.620459 64.123099 0
M  V30 47 H 44.193613 30.206899 67.772101 0
M  V30 48 H 43.378326 30.613999 69.272954 0
M  V30 49 H 42.530198 29.689453 68.062402 0
M  V30 50 H 40.045316 25.193366 55.638222 0
M  V30 51 H 38.607549 26.533987 54.192753 0
M  V30 52 H 37.245511 35.846655 58.919109 0
M  V30 53 H 35.581165 35.631552 59.359403 0
M  V30 54 H 37.446776 38.260950 61.766086 0
M  V30 55 H 39.139632 37.770991 61.626152 0
M  V30 56 H 38.045123 37.624108 60.235577 0
M  V30 57 H 37.822989 35.960727 62.856885 0
M  V30 58 H 42.030863 31.344507 63.322150 0
M  V30 59 H 40.709404 34.299936 60.718376 0
M  V30 60 H 40.592156 32.611404 61.049146 0
M  V30 61 H 42.889769 29.671780 63.874324 0
M  V30 62 H 36.617107 30.599177 54.617133 0
M  V30 63 H 39.724637 29.354089 56.549794 0
M  V30 64 H 41.333579 26.771880 65.866524 0
M  V30 65 H 40.049404 26.944306 64.672980 0
M  V30 66 H 40.571422 31.253280 66.038140 0
M  V30 67 H 42.703821 26.979615 63.893251 0
M  V30 68 H 41.533913 28.049134 63.120140 0
M  V30 69 H 39.366880 30.745213 64.065501 0
M  V30 70 H 38.085891 30.832877 59.033144 0
M  V30 71 H 38.162869 28.974027 58.757020 0
M  V30 72 H 38.631944 31.681946 60.855443 0
M  V30 73 H 37.111470 32.392007 61.188242 0
M  V30 74 H 40.186953 25.341027 57.936163 0
M  V30 75 H 41.700469 35.848551 62.303331 0
M  V30 76 H 42.251338 35.302912 63.872807 0
M  V30 77 H 39.907809 30.752220 54.726090 0
M  V30 78 H 42.200463 33.408085 62.479008 0
M  V30 79 H 38.930545 26.862708 59.367180 0
M  V30 80 H 41.211136 33.399360 64.704274 0
M  V30 81 H 36.353802 34.483687 61.559208 0
M  V30 82 H 37.645523 32.328825 56.573904 0
M  V30 83 H 39.196815 31.679594 57.074081 0
M  V30 84 H 36.444030 33.839407 57.837755 0
M  V30 85 H 35.691787 33.245544 59.282561 0
M  V30 86 H 36.754154 29.859700 56.799134 0
M  V30 87 H 38.725967 33.344213 58.787337 0
M  V30 88 H 40.409352 28.594857 66.762652 0
M  V30 89 H 41.732793 32.020224 67.972204 0
M  V30 90 H 43.509732 28.746927 65.112738 0
M  V30 91 H 39.759174 29.121289 65.310908 0
M  V30 92 H 36.645631 31.399284 58.445867 0
M  V30 93 H 39.771998 33.061395 64.051739 0
M  V30 94 H 38.777159 35.378123 60.146304 0
M  V30 END ATOM
M  V30 BEGIN BOND
M  V30 1 2 8 6
M  V30 2 1 8 7
M  V30 3 1 12 10
M  V30 4 1 14 2
M  V30 5 1 15 11
M  V30 6 1 17 6
M  V30 7 1 19 3
M  V30 8 1 19 11
M  V30 9 1 19 13
M  V30 10 1 20 6
M  V30 11 1 20 16
M  V30 12 1 21 15
M  V30 13 1 21 18
M  V30 14 1 22 13
M  V30 15 1 24 17
M  V30 16 1 25 2
M  V30 17 2 26 7
M  V30 18 1 27 2
M  V30 19 1 27 12
M  V30 20 1 28 4
M  V30 21 1 29 16
M  V30 22 1 30 14
M  V30 23 1 30 28
M  V30 24 2 31 24
M  V30 25 1 31 26
M  V30 26 1 32 13
M  V30 27 1 32 30
M  V30 28 1 33 9
M  V30 29 1 33 12
M  V30 30 1 33 27
M  V30 31 1 34 23
M  V30 32 1 35 9
M  V30 33 1 36 16
M  V30 34 1 36 17
M  V30 35 1 36 34
M  V30 36 1 37 23
M  V30 37 1 37 25
M  V30 38 1 37 35
M  V30 39 1 38 11
M  V30 40 1 38 18
M  V30 41 1 39 1
M  V30 42 1 39 3
M  V30 43 1 39 5
M  V30 44 1 40 1
M  V30 45 1 41 1
M  V30 46 1 42 1
M  V30 47 1 2 43 CFG=1
M  V30 48 1 44 3
M  V30 49 1 45 3
M  V30 50 1 46 4
M  V30 51 1 47 5
M  V30 52 1 48 5
M  V30 53 1 49 5
M  V30 54 1 50 7
M  V30 55 1 51 8
M  V30 56 1 52 9
M  V30 57 1 53 9
M  V30 58 1 54 10
M  V30 59 1 55 10
M  V30 60 1 56 10
M  V30 61 1 12 57 CFG=1
M  V30 62 1 13 58 CFG=3
M  V30 63 1 59 14
M  V30 64 1 60 14
M  V30 65 1 61 15
M  V30 66 1 16 62 CFG=1
M  V30 67 1 17 63 CFG=3
M  V30 68 1 64 18
M  V30 69 1 65 18
M  V30 70 1 19 66 CFG=1
M  V30 71 1 67 21
M  V30 72 1 68 21
M  V30 73 1 69 22
M  V30 74 1 70 23
M  V30 75 1 71 24
M  V30 76 1 72 25
M  V30 77 1 73 25
M  V30 78 1 74 26
M  V30 79 1 75 28
M  V30 80 1 76 28
M  V30 81 1 77 29
M  V30 82 1 30 78 CFG=3
M  V30 83 1 79 31
M  V30 84 1 80 32
M  V30 85 1 33 81 CFG=1
M  V30 86 1 82 34
M  V30 87 1 83 34
M  V30 88 1 84 35
M  V30 89 1 85 35
M  V30 90 1 36 86 CFG=1
M  V30 91 1 37 87 CFG=3
M  V30 92 1 88 38
M  V30 93 1 89 39
M  V30 94 1 90 15
M  V30 95 1 91 38
M  V30 96 1 92 23
M  V30 97 1 93 32
M  V30 98 1 27 94 CFG=3
M  V30 END BOND
M  V30 END CTAB
M  END
>  <i_epik_Tot_Q>  (1) 
5

>  <i_epik_Tot_abs_Q>  (1) 
5

>  <i_i_glide_confnum>  (1) 
897

>  <i_i_glide_lignum>  (1) 
38

>  <i_i_glide_posenum>  (1) 
399

>  <i_i_glide_rotatable_bonds>  (1) 
15

>  <i_lp_mmshare_version>  (1) 
72125

>  <i_m_source_file_index>  (1) 
18

>  <i_f3d_flags>  (1) 
0

>  <num_sample>  (1) 
50

>  <b_lp_Chiralities_Consistent>  (1) 
1

>  <r_epik_Charging_Adjusted_Penalty>  (1) 
1.9019841067917955

>  <r_epik_Ionization_Penalty>  (1) 
1.8906488358708171

>  <r_epik_Ionization_Penalty_Charging>  (1) 
0.55913698057276895

>  <r_epik_Ionization_Penalty_Neutral>  (1) 
1.3315118552980483

>  <r_epik_State_Penalty>  (1) 
1.3428471262190267

>  <r_glide_ring_energy>  (1) 
0.0045750838620950583

>  <r_i_docking_score>  (1) 
-7.491126037762756

>  <r_i_glide_ecoul>  (1) 
-11.569904026468722

>  <r_i_glide_eff_state_penalty>  (1) 
1.3428471262190267

>  <r_i_glide_einternal>  (1) 
24.138411564923462

>  <r_i_glide_emodel>  (1) 
-91.503350281277974

>  <r_i_glide_emodel_strain>  (1) 
0.37079851870436187

>  <r_i_glide_energy>  (1) 
-60.121607179513255

>  <r_i_glide_erotb>  (1) 
0.55832093698931284

>  <r_i_glide_esite>  (1) 
-0.12523944697001568

>  <r_i_glide_evdw>  (1) 
-48.551703153044535

>  <r_i_glide_gscore>  (1) 
-8.8339731639817831

>  <r_i_glide_gscore_strain>  (1) 
0

>  <r_i_glide_hbond>  (1) 
-0.14078489161712715

>  <r_i_glide_ligand_efficiency>  (1) 
-0.19208015481442964

>  <r_i_glide_ligand_efficiency_ln>  (1) 
-1.6063100707545581

>  <r_i_glide_ligand_efficiency_sa>  (1) 
-0.65138441898262656

>  <r_i_glide_lipo>  (1) 
-3.6146411878198115

>  <r_i_glide_metal>  (1) 
-0

>  <r_i_glide_rewards>  (1) 
-1.3485578129416054

>  <r_lp_Energy>  (1) 
94.296559999999999

>  <s_epik_Chemistry_Notes>  (1) 
This compound contains an acetal/aminal-like group ( X-CH(R)-Y where X, Y are N, S, or O) that may be acid/base labile, releasing an aldehyde.

>  <s_epik_cmdline>  (1) 
J2VwaWtfcHl0aG9uJywgJy1waHQnLCAnMS4wJywgJy1waCcsICc3LjQnLCAnLXRuJywgJzgnLCAnLW1hJywgJzUwMCcsICctaW1hZScsICc8aW5maWxlLm1hZT4nLCAnLW9tYWUnLCAnPG91dGZpbGUubWFlPic=

>  <s_epik_input>  (1) 
W05IXTFbQ0gyXVtDSDJdW05IXU4xW0NAQEhdKFtDSDJdW0NIXShbQ0gzXSlbQ0gzXSlbQ0BASF0oW09IXSlbTkhdW0NASF0oW0NIMl1bT0hdKVtDSDJdW0NAQEhdMltDSDJdW0NASF0oW0NIMl1bQ0gyXVtDQEBIXShOMjMpW0NIXTNbQ0gzXSlbTkhdW0NIMl1bQ0BASF0oW0NASF0oTzQpW1NIXSlbQ0BIXShDND01KVtDSF09W0NIXVtDSF09W0NIXVtDSF01

>  <s_glide_docking_method>  (1) 
confgen

>  <s_i_glide_gridfile>  (1) 
gpcr_5ht2c_6bqh_protein_autoprepared_prepared

>  <s_lp_Force_Field>  (1) 
S-OPLS

>  <s_lp_Variant>  (1) 
DiffSBDD_17-5

>  <s_m_source_file>  (1) 
generated_GPCR_5HT2C_ligand_DiffSBDD_2026-06-23_prepared.sdf

>  <GenAI_Model>  (1) 
DiffSBDD

>  <Protein>  (1) 
GPCR_5HT2C

$$$$
DiffSBDD_0
     RDKit          3D

  0  0  0  0  0  0  0  0  0  0999 V3000
M  V30 BEGIN CTAB
M  V30 COUNTS 73 75 0 0 1
M  V30 BEGIN ATOM
M  V30 1 C 40.394513 30.828568 50.676996 0
M  V30 2 C 39.034647 27.252034 51.722318 0
M  V30 3 O 41.245050 30.462684 61.767760 0
M  V30 4 C 39.622937 29.874025 52.849338 0
M  V30 5 C 38.537438 29.957388 59.382976 0 CFG=2
M  V30 6 C 38.733874 31.635894 56.969299 0
M  V30 7 C 40.291437 32.108050 63.180700 0
M  V30 8 C 40.084756 33.107339 61.996596 0 CFG=1
M  V30 9 C 39.625008 35.500278 61.382860 0
M  V30 10 C 39.095633 32.632556 60.888515 0
M  V30 11 N 38.208647 31.535560 61.279964 0
M  V30 12 O 38.845260 28.891236 60.280579 0
M  V30 13 C 39.559467 28.393375 50.819225 0
M  V30 14 C 40.861564 35.031200 63.367341 0
M  V30 15 C 38.965917 28.941110 55.157613 0 CFG=1
M  V30 16 C 37.550110 30.873507 60.147910 0
M  V30 17 C 38.912859 27.610751 53.195942 0
M  V30 18 C 38.632845 27.409368 55.474626 0
M  V30 19 C 38.042893 29.426740 58.002736 0 CFG=1
M  V30 20 C 41.363937 31.077885 62.848499 0
M  V30 21 N 39.814150 34.495795 62.465775 0 CHG=1
M  V30 22 C 40.846469 36.536349 63.199477 0
M  V30 23 F 39.645135 31.079835 49.615546 0
M  V30 24 C 39.151187 28.797461 53.686838 0
M  V30 25 C 39.839589 29.714147 51.532973 0
M  V30 26 O 36.845146 28.937758 58.167760 0 CHG=-1
M  V30 27 N 37.850053 30.446272 56.921018 0 CFG=2 CHG=1
M  V30 28 C 38.535169 26.548972 54.151045 0 CFG=1
M  V30 29 C 37.789635 29.886241 55.535331 0
M  V30 30 C 40.012932 28.138524 59.982546 0
M  V30 31 O 42.288768 30.934967 63.674008 0 CHG=-1
M  V30 32 O 37.245137 26.076232 53.907688 0
M  V30 33 C 40.382651 36.770279 61.774370 0
M  V30 34 H 40.445150 31.737755 51.263816 0
M  V30 35 H 41.397118 30.588005 50.324164 0
M  V30 36 H 39.645443 26.359360 51.614102 0
M  V30 37 H 38.045111 26.962683 51.370390 0
M  V30 38 H 39.841393 30.829666 53.303434 0
M  V30 39 H 39.472971 30.481654 59.211615 0
M  V30 40 H 39.772439 31.350228 56.821604 0
M  V30 41 H 38.466844 32.345854 56.185855 0
M  V30 42 H 38.644986 32.181500 57.905608 0
M  V30 43 H 40.617562 32.600303 64.093416 0
M  V30 44 H 39.380792 31.588369 63.468185 0
M  V30 45 H 41.045960 33.200207 61.484018 0
M  V30 46 H 40.009251 35.147515 60.423821 0
M  V30 47 H 38.560179 35.701622 61.258425 0
M  V30 48 H 39.705663 32.343954 60.039497 0
M  V30 49 H 38.481441 33.447143 60.509283 0
M  V30 50 H 38.784750 30.825587 61.734443 0
M  V30 51 H 38.841717 28.579964 50.024720 0
M  V30 52 H 40.445147 28.055525 50.299542 0
M  V30 53 H 40.696208 34.757039 64.409438 0
M  V30 54 H 41.841916 34.650712 63.076400 0
M  V30 55 H 39.913320 29.257484 55.596501 0
M  V30 56 H 37.105120 31.612935 59.482089 0
M  V30 57 H 36.720699 30.265422 60.508730 0
M  V30 58 H 37.720136 27.305532 56.063159 0
M  V30 59 H 39.427564 26.998881 56.098723 0
M  V30 60 H 38.874376 28.809565 57.685292 0
M  V30 61 H 40.150294 36.988243 63.907031 0
M  V30 62 H 41.842561 36.937750 63.367730 0
M  V30 63 H 39.264197 25.737744 54.153103 0
M  V30 64 H 37.730538 30.716037 54.830175 0
M  V30 65 H 36.845128 29.360796 55.408210 0
M  V30 66 H 40.312447 27.580672 60.868409 0
M  V30 67 H 39.829410 27.416979 59.187423 0
M  V30 68 H 40.856612 28.768862 59.698515 0
M  V30 69 H 37.176513 25.814109 53.000604 0
M  V30 70 H 39.761818 37.664237 61.704764 0
M  V30 71 H 41.245141 36.907110 61.120480 0
M  V30 72 H 38.952076 34.474644 62.992037 0
M  V30 73 H 36.913462 30.808381 57.090619 0
M  V30 END ATOM
M  V30 BEGIN BOND
M  V30 1 1 8 7
M  V30 2 1 10 8
M  V30 3 1 11 10
M  V30 4 1 12 5
M  V30 5 1 13 2
M  V30 6 1 16 5
M  V30 7 1 16 11
M  V30 8 1 17 2
M  V30 9 1 18 15
M  V30 10 1 19 5
M  V30 11 2 20 3
M  V30 12 1 20 7
M  V30 13 1 21 8
M  V30 14 1 21 9
M  V30 15 1 21 14
M  V30 16 1 22 14
M  V30 17 1 23 1
M  V30 18 1 24 4
M  V30 19 1 24 15
M  V30 20 2 24 17
M  V30 21 1 25 1
M  V30 22 2 25 4
M  V30 23 1 25 13
M  V30 24 1 26 19
M  V30 25 1 27 6
M  V30 26 1 27 19
M  V30 27 1 28 17
M  V30 28 1 28 18
M  V30 29 1 29 15
M  V30 30 1 29 27
M  V30 31 1 30 12
M  V30 32 1 31 20
M  V30 33 1 32 28
M  V30 34 1 33 9
M  V30 35 1 33 22
M  V30 36 1 34 1
M  V30 37 1 35 1
M  V30 38 1 36 2
M  V30 39 1 37 2
M  V30 40 1 38 4
M  V30 41 1 5 39 CFG=3
M  V30 42 1 40 6
M  V30 43 1 41 6
M  V30 44 1 42 6
M  V30 45 1 43 7
M  V30 46 1 44 7
M  V30 47 1 8 45 CFG=3
M  V30 48 1 46 9
M  V30 49 1 47 9
M  V30 50 1 48 10
M  V30 51 1 49 10
M  V30 52 1 50 11
M  V30 53 1 51 13
M  V30 54 1 52 13
M  V30 55 1 53 14
M  V30 56 1 54 14
M  V30 57 1 15 55 CFG=1
M  V30 58 1 56 16
M  V30 59 1 57 16
M  V30 60 1 58 18
M  V30 61 1 59 18
M  V30 62 1 19 60 CFG=3
M  V30 63 1 61 22
M  V30 64 1 62 22
M  V30 65 1 28 63 CFG=1
M  V30 66 1 64 29
M  V30 67 1 65 29
M  V30 68 1 66 30
M  V30 69 1 67 30
M  V30 70 1 68 30
M  V30 71 1 69 32
M  V30 72 1 70 33
M  V30 73 1 71 33
M  V30 74 1 72 21
M  V30 75 1 27 73 CFG=1
M  V30 END BOND
M  V30 END CTAB
M  END
>  <i_epik_Tot_Q>  (1) 
0

>  <i_epik_Tot_abs_Q>  (1) 
4

>  <i_i_glide_confnum>  (1) 
428

>  <i_i_glide_lignum>  (1) 
1

>  <i_i_glide_posenum>  (1) 
121

>  <i_i_glide_rotatable_bonds>  (1) 
14

>  <i_lp_mmshare_version>  (1) 
72125

>  <i_m_source_file_index>  (1) 
1

>  <i_f3d_flags>  (1) 
0

>  <num_sample>  (1) 
50

>  <b_lp_Chiralities_Consistent>  (1) 
1

>  <r_epik_Charging_Adjusted_Penalty>  (1) 
0.35910314693592993

>  <r_epik_Ionization_Penalty>  (1) 
0.058337682991089858

>  <r_epik_Ionization_Penalty_Charging>  (1) 
0.0030320954189955646

>  <r_epik_Ionization_Penalty_Neutral>  (1) 
0.055305587572094292

>  <r_epik_State_Penalty>  (1) 
0.35607105151693436

>  <r_glide_ring_energy>  (1) 
0

>  <r_i_docking_score>  (1) 
-7.4773439103196555

>  <r_i_glide_ecoul>  (1) 
-8.6068797070268452

>  <r_i_glide_eff_state_penalty>  (1) 
0.35607105151693436

>  <r_i_glide_einternal>  (1) 
8.020703819502419

>  <r_i_glide_emodel>  (1) 
-62.411508567234634

>  <r_i_glide_emodel_strain>  (1) 
6.2326712301759244

>  <r_i_glide_energy>  (1) 
-45.971850213261476

>  <r_i_glide_erotb>  (1) 
0.82434179411086872

>  <r_i_glide_esite>  (1) 
-0.12750142129788844

>  <r_i_glide_evdw>  (1) 
-37.364970506234627

>  <r_i_glide_gscore>  (1) 
-7.8334149618365903

>  <r_i_glide_gscore_strain>  (1) 
0.5581678075439811

>  <r_i_glide_hbond>  (1) 
-0.40780118313204472

>  <r_i_glide_ligand_efficiency>  (1) 
-0.22658617910059561

>  <r_i_glide_ligand_efficiency_ln>  (1) 
-1.6629225700403389

>  <r_i_glide_ligand_efficiency_sa>  (1) 
-0.72678294816774336

>  <r_i_glide_lipo>  (1) 
-4.1801236962532977

>  <r_i_glide_metal>  (1) 
-0

>  <r_i_glide_rewards>  (1) 
-1.3412177814424509

>  <r_lp_Energy>  (1) 
41.770188999999995

>  <s_epik_Chemistry_Notes>  (1) 
This compound contains an acetal/aminal-like group ( X-CH(R)-Y where X, Y are N, S, or O) that may be acid/base labile, releasing an aldehyde.

>  <s_epik_cmdline>  (1) 
J2VwaWtfcHl0aG9uJywgJy1waHQnLCAnMS4wJywgJy1waCcsICc3LjQnLCAnLXRuJywgJzgnLCAnLW1hJywgJzUwMCcsICctaW1hZScsICc8aW5maWxlLm1hZT4nLCAnLW9tYWUnLCAnPG91dGZpbGUubWFlPic=

>  <s_epik_input>  (1) 
W0NIMl0xW0NIMl1DKFtDSDJdRik9W0NIXUMoPUMxMilbQ0BIXShbQ0gyXVtDQEhdMltPSF0pW0NIMl1OKFtDSDNdKVtDQEhdKFtPSF0pW0NASF0oT1tDSDNdKVtDSDJdW05IXVtDSDJdW0NASF0oW0NIMl1DKD1PKVtPSF0pTjNbQ0gyXVtDSDJdW0NIMl1bQ0gyXTM=

>  <s_glide_docking_method>  (1) 
confgen

>  <s_i_glide_gridfile>  (1) 
gpcr_5ht2c_6bqh_protein_autoprepared_prepared

>  <s_lp_Force_Field>  (1) 
S-OPLS

>  <s_lp_Variant>  (1) 
DiffSBDD_0-1

>  <s_m_source_file>  (1) 
generated_GPCR_5HT2C_ligand_DiffSBDD_2026-06-23_prepared.sdf

>  <GenAI_Model>  (1) 
DiffSBDD

>  <Protein>  (1) 
GPCR_5HT2C

$$$$
DiffSBDD_42
     RDKit          3D

  0  0  0  0  0  0  0  0  0  0999 V3000
M  V30 BEGIN CTAB
M  V30 COUNTS 90 93 0 0 1
M  V30 BEGIN ATOM
M  V30 1 C 39.284743 28.080054 57.079595 0 CFG=2
M  V30 2 C 41.238577 29.331622 65.279985 0
M  V30 3 C 41.710342 31.467205 66.686817 0
M  V30 4 C 40.960446 29.011057 62.753319 0
M  V30 5 C 37.833467 26.011012 57.488795 0
M  V30 6 C 38.887550 24.719460 55.819679 0
M  V30 7 C 40.137635 35.704470 61.610975 0
M  V30 8 C 37.959640 34.419683 61.367769 0
M  V30 9 C 40.886045 30.173672 66.526724 0 CFG=2
M  V30 10 C 38.723604 28.346284 52.242878 0
M  V30 11 C 39.618226 28.576501 60.640480 0
M  V30 12 C 36.128430 34.451764 59.756311 0
M  V30 13 C 39.814396 25.893890 56.077408 0 CFG=1
M  V30 14 C 39.698294 26.963354 54.979437 0 CFG=1
M  V30 15 C 41.171967 36.144689 62.646911 0
M  V30 16 C 37.788126 28.045362 53.423540 0
M  V30 17 C 37.555345 25.397643 56.116391 0 CFG=1
M  V30 18 C 38.288538 26.875392 54.303479 0 CFG=2
M  V30 19 C 37.274625 30.830979 60.248567 0
M  V30 20 C 36.209016 33.050676 59.638526 0
M  V30 21 C 36.379394 24.437201 56.111232 0
M  V30 22 C 40.902328 29.996257 63.931823 0
M  V30 23 C 37.395864 29.320027 54.188103 0
M  V30 24 C 40.426486 29.610935 61.437174 0
M  V30 25 C 37.004340 35.137660 60.620394 0
M  V30 26 C 38.418203 30.493679 59.282413 0
M  V30 27 N 39.877905 28.846687 58.191094 0 CHG=1
M  V30 28 O 41.283630 32.471579 65.789011 0
M  V30 29 C 37.166244 32.334555 60.385672 0
M  V30 30 O 41.148967 29.372413 67.662203 0
M  V30 31 C 38.950426 29.047808 59.326450 0 CFG=1
M  V30 32 C 39.262879 26.565442 57.354307 0 CFG=1
M  V30 33 C 38.037525 33.020933 61.250877 0
M  V30 34 C 38.899989 35.147485 62.304060 0
M  V30 35 O 37.266159 26.492487 55.230079 0
M  V30 36 C 40.045426 28.234921 55.767009 0
M  V30 37 H 38.274230 28.449742 56.916845 0
M  V30 38 H 42.294122 29.056801 65.298527 0
M  V30 39 H 40.683923 28.393552 65.344038 0
M  V30 40 H 41.590090 31.865340 67.694955 0
M  V30 41 H 42.774144 31.271678 66.546985 0
M  V30 42 H 41.975022 28.634344 62.613008 0
M  V30 43 H 40.363171 28.138724 63.021704 0
M  V30 44 H 37.085670 26.753519 57.767742 0
M  V30 45 H 37.815213 25.233382 58.253492 0
M  V30 46 H 38.960721 24.300297 54.817779 0
M  V30 47 H 39.080431 23.924075 56.541922 0
M  V30 48 H 40.581677 34.942701 60.968737 0
M  V30 49 H 39.860714 36.537737 60.967799 0
M  V30 50 H 39.820848 30.411845 66.533327 0
M  V30 51 H 39.676141 28.752889 52.579538 0
M  V30 52 H 38.277402 29.074274 51.566914 0
M  V30 53 H 38.927989 27.446572 51.661258 0
M  V30 54 H 40.248283 27.709271 60.440951 0
M  V30 55 H 38.845165 28.197007 61.302731 0
M  V30 56 H 35.396293 35.000160 59.181262 0
M  V30 57 H 40.845145 25.586351 56.197032 0
M  V30 58 H 40.445112 26.780868 54.208620 0
M  V30 59 H 42.045141 36.537959 62.147938 0
M  V30 60 H 41.500729 35.310654 63.267947 0
M  V30 61 H 40.780694 36.922990 63.303409 0
M  V30 62 H 36.859882 27.679326 52.981866 0
M  V30 63 H 38.344395 26.044319 53.603011 0
M  V30 64 H 36.332609 30.400452 59.905572 0
M  V30 65 H 37.469730 30.424285 61.239043 0
M  V30 66 H 35.540845 32.527697 58.968656 0
M  V30 67 H 36.597735 23.535202 56.681947 0
M  V30 68 H 36.109505 24.138771 55.097323 0
M  V30 69 H 35.530229 24.937772 56.567747 0
M  V30 70 H 41.583001 30.823218 63.734764 0
M  V30 71 H 39.897393 30.417511 63.994691 0
M  V30 72 H 38.163689 30.091785 54.142913 0
M  V30 73 H 37.168600 29.127837 55.230669 0
M  V30 74 H 36.488456 29.737756 53.767876 0
M  V30 75 H 41.241532 30.010736 60.835760 0
M  V30 76 H 39.782618 30.455327 61.672814 0
M  V30 77 H 36.942550 36.212635 60.710572 0
M  V30 78 H 38.076122 30.731515 58.273175 0
M  V30 79 H 39.245159 31.174821 59.468974 0
M  V30 80 H 40.707038 28.365024 58.509088 0
M  V30 81 H 41.426675 32.164677 64.907410 0
M  V30 82 H 40.491068 28.692931 67.732918 0
M  V30 83 H 38.089439 28.392446 59.187748 0
M  V30 84 H 39.864085 26.290934 58.222453 0
M  V30 85 H 38.770732 32.474001 61.823905 0
M  V30 86 H 39.244939 34.440273 63.058902 0
M  V30 87 H 38.366341 35.938977 62.832512 0
M  V30 88 H 39.830902 29.161698 55.241879 0
M  V30 89 H 41.117951 28.239876 55.969294 0
M  V30 90 H 40.143708 29.756643 57.843470 0
M  V30 END ATOM
M  V30 BEGIN BOND
M  V30 1 1 9 2
M  V30 2 1 9 3
M  V30 3 1 13 6
M  V30 4 1 14 13
M  V30 5 1 15 7
M  V30 6 1 16 10
M  V30 7 1 17 5
M  V30 8 1 17 6
M  V30 9 1 18 14
M  V30 10 1 18 16
M  V30 11 1 20 12
M  V30 12 1 17 21 CFG=1
M  V30 13 1 22 2
M  V30 14 1 22 4
M  V30 15 1 23 16
M  V30 16 1 24 4
M  V30 17 1 24 11
M  V30 18 1 25 8
M  V30 19 2 25 12
M  V30 20 1 26 19
M  V30 21 1 27 1
M  V30 22 1 28 3
M  V30 23 1 29 19
M  V30 24 2 29 20
M  V30 25 1 30 9
M  V30 26 1 31 11
M  V30 27 1 31 26
M  V30 28 1 31 27
M  V30 29 1 32 1
M  V30 30 1 32 5
M  V30 31 1 32 13
M  V30 32 2 33 8
M  V30 33 1 33 29
M  V30 34 1 34 7
M  V30 35 1 34 8
M  V30 36 1 35 17
M  V30 37 1 35 18
M  V30 38 1 36 1
M  V30 39 1 36 14
M  V30 40 1 1 37 CFG=3
M  V30 41 1 38 2
M  V30 42 1 39 2
M  V30 43 1 40 3
M  V30 44 1 41 3
M  V30 45 1 42 4
M  V30 46 1 43 4
M  V30 47 1 44 5
M  V30 48 1 45 5
M  V30 49 1 46 6
M  V30 50 1 47 6
M  V30 51 1 48 7
M  V30 52 1 49 7
M  V30 53 1 9 50 CFG=3
M  V30 54 1 51 10
M  V30 55 1 52 10
M  V30 56 1 53 10
M  V30 57 1 54 11
M  V30 58 1 55 11
M  V30 59 1 56 12
M  V30 60 1 13 57 CFG=1
M  V30 61 1 14 58 CFG=3
M  V30 62 1 59 15
M  V30 63 1 60 15
M  V30 64 1 61 15
M  V30 65 1 62 16
M  V30 66 1 18 63 CFG=3
M  V30 67 1 64 19
M  V30 68 1 65 19
M  V30 69 1 66 20
M  V30 70 1 67 21
M  V30 71 1 68 21
M  V30 72 1 69 21
M  V30 73 1 70 22
M  V30 74 1 71 22
M  V30 75 1 72 23
M  V30 76 1 73 23
M  V30 77 1 74 23
M  V30 78 1 75 24
M  V30 79 1 76 24
M  V30 80 1 77 25
M  V30 81 1 78 26
M  V30 82 1 79 26
M  V30 83 1 80 27
M  V30 84 1 81 28
M  V30 85 1 82 30
M  V30 86 1 31 83 CFG=3
M  V30 87 1 32 84 CFG=1
M  V30 88 1 85 33
M  V30 89 1 86 34
M  V30 90 1 87 34
M  V30 91 1 88 36
M  V30 92 1 89 36
M  V30 93 1 90 27
M  V30 END BOND
M  V30 END CTAB
M  END
>  <i_epik_Tot_Q>  (1) 
1

>  <i_epik_Tot_abs_Q>  (1) 
1

>  <i_i_glide_confnum>  (1) 
1746

>  <i_i_glide_lignum>  (1) 
93

>  <i_i_glide_posenum>  (1) 
87

>  <i_i_glide_rotatable_bonds>  (1) 
17

>  <i_lp_mmshare_version>  (1) 
72125

>  <i_m_source_file_index>  (1) 
43

>  <i_f3d_flags>  (1) 
0

>  <num_sample>  (1) 
50

>  <b_lp_Chiralities_Consistent>  (1) 
1

>  <r_epik_Charging_Adjusted_Penalty>  (1) 
0.00030412636243833623

>  <r_epik_Ionization_Penalty>  (1) 
0.00030431191221991862

>  <r_epik_Ionization_Penalty_Charging>  (1) 
0.00030412636243833623

>  <r_epik_Ionization_Penalty_Neutral>  (1) 
1.8554978158239134e-07

>  <r_epik_State_Penalty>  (1) 
-0

>  <r_glide_ring_energy>  (1) 
0

>  <r_i_docking_score>  (1) 
-7.4577829344217399

>  <r_i_glide_ecoul>  (1) 
-1.8674145169486518

>  <r_i_glide_eff_state_penalty>  (1) 
-0

>  <r_i_glide_einternal>  (1) 
16.390550071382052

>  <r_i_glide_emodel>  (1) 
-57.616813922948467

>  <r_i_glide_emodel_strain>  (1) 
1.0843753808882042

>  <r_i_glide_energy>  (1) 
-45.848479436549304

>  <r_i_glide_erotb>  (1) 
1.0585899969639281

>  <r_i_glide_esite>  (1) 
0

>  <r_i_glide_evdw>  (1) 
-43.981064919600655

>  <r_i_glide_gscore>  (1) 
-7.4577829344217399

>  <r_i_glide_gscore_strain>  (1) 
0

>  <r_i_glide_hbond>  (1) 
-0.15831917445699137

>  <r_i_glide_ligand_efficiency>  (1) 
-0.20716063706727056

>  <r_i_glide_ligand_efficiency_ln>  (1) 
-1.6270867502805133

>  <r_i_glide_ligand_efficiency_sa>  (1) 
-0.68402935243079099

>  <r_i_glide_lipo>  (1) 
-5.1513744593875908

>  <r_i_glide_metal>  (1) 
-0

>  <r_i_glide_rewards>  (1) 
-0.72751387401875434

>  <r_lp_Energy>  (1) 
51.322443999999997

>  <r_lp_tautomer_probability>  (1) 
1

>  <s_epik_cmdline>  (1) 
J2VwaWtfcHl0aG9uJywgJy1waHQnLCAnMS4wJywgJy1waCcsICc3LjQnLCAnLXRuJywgJzgnLCAnLW1hJywgJzUwMCcsICctaW1hZScsICc8aW5maWxlLm1hZT4nLCAnLW9tYWUnLCAnPG91dGZpbGUubWFlPic=

>  <s_epik_input>  (1) 
W0NIM11bQ0BAXTEyW0NIMl1bQ0BIXTNbQ0BASF0oW0NIMl0xKVtDQEBIXShbQ0BASF0oTzIpW0NIXShbQ0gzXSlbQ0gzXSlbQ0gyXVtDQEBIXTNbTkhdW0NAQEhdKFtDSDJdW0NIMl1bQ0gyXVtDSDJdW0NIMl1bQ0BASF0oW09IXSlbQ0gyXVtPSF0pW0NIMl1bQ0gyXWMoW2NIXTQpW2NIXVtjSF1bY0hdYzRbQ0gyXVtDSDJdW0NIM10=

>  <s_glide_docking_method>  (1) 
confgen

>  <s_i_glide_gridfile>  (1) 
gpcr_5ht2c_6bqh_protein_autoprepared_prepared

>  <s_lp_Force_Field>  (1) 
S-OPLS

>  <s_lp_Variant>  (1) 
DiffSBDD_42-1

>  <s_m_source_file>  (1) 
generated_GPCR_5HT2C_ligand_DiffSBDD_2026-06-23_prepared.sdf

>  <GenAI_Model>  (1) 
DiffSBDD

>  <Protein>  (1) 
GPCR_5HT2C

$$$$
DiffSBDD_28
     RDKit          3D

  0  0  0  0  0  0  0  0  0  0999 V3000
M  V30 BEGIN CTAB
M  V30 COUNTS 45 48 0 0 1
M  V30 BEGIN ATOM
M  V30 1 O 37.093626 29.447253 59.181242 0
M  V30 2 C 39.514083 33.548337 62.157770 0
M  V30 3 C 37.793802 27.016331 57.493144 0
M  V30 4 C 39.441750 34.918407 61.835987 0
M  V30 5 C 37.045915 32.047865 59.603979 0
M  V30 6 F 40.845109 36.781560 61.767774 0
M  V30 7 C 37.249481 29.476702 57.767751 0 CFG=1
M  V30 8 C 40.270118 35.930679 62.613286 0
M  V30 9 C 37.822639 34.419161 60.076326 0
M  V30 10 C 38.816633 31.139297 61.823656 0 CFG=2
M  V30 11 O 40.845141 29.912720 61.550805 0
M  V30 12 P 38.141062 30.735400 58.795703 0 CFG=2 CHG=1
M  V30 13 C 39.782250 25.848817 56.401315 0
M  V30 14 F 37.645147 30.537755 61.767762 0
M  V30 15 C 38.741633 32.609034 61.443949 0
M  V30 16 C 39.832544 30.343546 61.010570 0
M  V30 17 N 39.573971 30.137682 59.711599 0
M  V30 18 C 37.892467 33.046098 60.391002 0
M  V30 19 C 38.803815 25.888440 57.324718 0
M  V30 20 C 38.193714 28.460598 57.112124 0 CFG=2
M  V30 21 C 38.258069 28.728114 55.595004 0
M  V30 22 C 38.593726 35.351417 60.797129 0
M  V30 23 F 39.471591 36.612045 63.433697 0
M  V30 24 F 41.227541 35.340803 63.331195 0
M  V30 25 C 38.789088 27.558393 54.764780 0
M  V30 26 C 40.045131 26.919131 55.362791 0
M  V30 27 H 40.158233 33.216369 62.958999 0
M  V30 28 H 36.845134 26.720909 57.046072 0
M  V30 29 H 37.645137 27.016728 58.567760 0
M  V30 30 H 36.510262 32.581248 58.819287 0
M  V30 31 H 36.263697 31.621839 60.231252 0
M  V30 32 H 36.341803 29.737755 57.229802 0
M  V30 33 H 37.174530 34.759749 59.280137 0
M  V30 34 H 39.100163 31.068433 62.875723 0
M  V30 35 H 40.445137 24.996395 56.379187 0
M  V30 36 H 40.243007 29.600096 59.181950 0
M  V30 37 H 38.706017 25.062418 58.014301 0
M  V30 38 H 39.194860 28.612260 57.514031 0
M  V30 39 H 37.270005 28.984683 55.210113 0
M  V30 40 H 38.879094 29.607896 55.418452 0
M  V30 41 H 38.534295 36.401855 60.552985 0
M  V30 42 H 38.013572 26.802107 54.630308 0
M  V30 43 H 39.014104 27.925588 53.762681 0
M  V30 44 H 40.732844 27.663514 55.767668 0
M  V30 45 H 40.578834 26.419980 54.553273 0
M  V30 END ATOM
M  V30 BEGIN BOND
M  V30 1 2 4 2
M  V30 2 1 7 1
M  V30 3 1 8 4
M  V30 4 1 8 6
M  V30 5 1 12 1 CFG=1
M  V30 6 1 12 5
M  V30 7 1 12 7
M  V30 8 1 14 10
M  V30 9 1 15 2
M  V30 10 1 15 10
M  V30 11 1 16 10
M  V30 12 2 16 11
M  V30 13 1 17 12
M  V30 14 1 17 16
M  V30 15 1 18 5
M  V30 16 1 18 9
M  V30 17 2 18 15
M  V30 18 1 19 3
M  V30 19 2 19 13
M  V30 20 1 20 3
M  V30 21 1 20 7
M  V30 22 1 21 20
M  V30 23 1 22 4
M  V30 24 2 22 9
M  V30 25 1 23 8
M  V30 26 1 24 8
M  V30 27 1 25 21
M  V30 28 1 26 13
M  V30 29 1 26 25
M  V30 30 1 27 2
M  V30 31 1 28 3
M  V30 32 1 29 3
M  V30 33 1 30 5
M  V30 34 1 31 5
M  V30 35 1 7 32 CFG=3
M  V30 36 1 33 9
M  V30 37 1 10 34 CFG=1
M  V30 38 1 35 13
M  V30 39 1 36 17
M  V30 40 1 37 19
M  V30 41 1 20 38 CFG=1
M  V30 42 1 39 21
M  V30 43 1 40 21
M  V30 44 1 41 22
M  V30 45 1 42 25
M  V30 46 1 43 25
M  V30 47 1 44 26
M  V30 48 1 45 26
M  V30 END BOND
M  V30 END CTAB
M  END
>  <i_epik_Tot_Q>  (1) 
1

>  <i_epik_Tot_abs_Q>  (1) 
1

>  <i_i_glide_confnum>  (1) 
1

>  <i_i_glide_lignum>  (1) 
62

>  <i_i_glide_posenum>  (1) 
55

>  <i_i_glide_rotatable_bonds>  (1) 
2

>  <i_lp_mmshare_version>  (1) 
72125

>  <i_m_source_file_index>  (1) 
29

>  <i_f3d_flags>  (1) 
0

>  <num_sample>  (1) 
50

>  <b_lp_Chiralities_Consistent>  (1) 
1

>  <r_epik_Charging_Adjusted_Penalty>  (1) 
0

>  <r_epik_Ionization_Penalty>  (1) 
1.069405246037928e-05

>  <r_epik_Ionization_Penalty_Charging>  (1) 
0

>  <r_epik_Ionization_Penalty_Neutral>  (1) 
1.069405246037928e-05

>  <r_epik_State_Penalty>  (1) 
-0

>  <r_glide_ring_energy>  (1) 
1.0823529994596028

>  <r_i_docking_score>  (1) 
-7.4508656424439907

>  <r_i_glide_ecoul>  (1) 
-4.9565544774615624

>  <r_i_glide_eff_state_penalty>  (1) 
-0

>  <r_i_glide_einternal>  (1) 
0.93093257611510616

>  <r_i_glide_emodel>  (1) 
-54.924724826032545

>  <r_i_glide_emodel_strain>  (1) 
0

>  <r_i_glide_energy>  (1) 
-35.562875482179393

>  <r_i_glide_erotb>  (1) 
0.12919976224793953

>  <r_i_glide_esite>  (1) 
-0.062667926159462942

>  <r_i_glide_evdw>  (1) 
-30.606321004717831

>  <r_i_glide_gscore>  (1) 
-7.4508656424439907

>  <r_i_glide_gscore_strain>  (1) 
0

>  <r_i_glide_hbond>  (1) 
-0.32000000000000001

>  <r_i_glide_ligand_efficiency>  (1) 
-0.28657175547861502

>  <r_i_glide_ligand_efficiency_ln>  (1) 
-1.7498113478437067

>  <r_i_glide_ligand_efficiency_sa>  (1) 
-0.84896769892199553

>  <r_i_glide_lipo>  (1) 
-2.7346577724907162

>  <r_i_glide_metal>  (1) 
-0

>  <r_i_glide_rewards>  (1) 
-2.1889404841866242

>  <r_lp_Energy>  (1) 
27.226237999999999

>  <r_lp_tautomer_probability>  (1) 
1

>  <s_epik_cmdline>  (1) 
J2VwaWtfcHl0aG9uJywgJy1waHQnLCAnMS4wJywgJy1waCcsICc3LjQnLCAnLXRuJywgJzgnLCAnLW1hJywgJzUwMCcsICctaW1hZScsICc8aW5maWxlLm1hZT4nLCAnLW9tYWUnLCAnPG91dGZpbGUubWFlPic=

>  <s_epik_input>  (1) 
W0NIMl0xW0NIMl1bQ0gyXVtDSF09W0NIXVtDSDJdW0NAQEhdMVtDQEhdMk9bUEArXTIzW0NIMl1jNGMoW0NAQEhdKEYpQyg9TylbTkhdMylbY0hdYyhDKEYpKEYpRilbY0hdW2NIXTQ=

>  <s_glide_docking_method>  (1) 
confgen

>  <s_i_glide_gridfile>  (1) 
gpcr_5ht2c_6bqh_protein_autoprepared_prepared

>  <s_lp_Force_Field>  (1) 
S-OPLS

>  <s_lp_Variant>  (1) 
DiffSBDD_28-1

>  <s_m_source_file>  (1) 
generated_GPCR_5HT2C_ligand_DiffSBDD_2026-06-23_prepared.sdf

>  <GenAI_Model>  (1) 
DiffSBDD

>  <Protein>  (1) 
GPCR_5HT2C

$$$$
DiffSBDD_26
     RDKit          3D

  0  0  0  0  0  0  0  0  0  0999 V3000
M  V30 BEGIN CTAB
M  V30 COUNTS 84 87 0 0 1
M  V30 BEGIN ATOM
M  V30 1 C 40.004729 32.379555 62.396545 0
M  V30 2 C 37.674728 24.656144 57.583533 0
M  V30 3 C 38.194467 31.625844 57.902651 0
M  V30 4 C 39.546968 28.937624 54.941136 0
M  V30 5 N 38.144632 30.300598 58.516259 0
M  V30 6 O 39.806299 31.337746 54.905604 0
M  V30 7 C 38.277013 27.029979 56.947773 0
M  V30 8 C 38.821732 28.386839 57.391923 0 CFG=2
M  V30 9 N 39.645139 34.693905 62.813782 0 CFG=2 CHG=1
M  V30 10 N 41.542060 31.423349 64.153394 0
M  V30 11 C 38.540904 32.686227 58.966177 0
M  V30 12 C 41.818794 29.083671 63.342375 0
M  V30 13 C 39.108305 24.129969 57.367773 0
M  V30 14 C 37.967529 33.610784 61.314499 0
M  V30 15 C 39.548712 30.297627 54.306922 0
M  V30 16 O 40.982706 30.418299 66.118968 0
M  V30 17 C 37.580513 32.640573 60.169287 0
M  V30 18 C 40.844907 31.331643 65.307967 0
M  V30 19 C 38.934274 29.151795 52.240142 0
M  V30 20 C 38.923789 27.965462 52.807615 0
M  V30 21 C 39.245131 27.847237 54.179682 0
M  V30 22 C 42.515850 30.389081 63.768555 0
M  V30 23 O 37.788558 29.367445 57.469016 0
M  V30 24 C 39.695030 36.753061 61.475964 0
M  V30 25 C 41.486612 33.947790 63.903799 0
M  V30 26 C 39.933996 28.832099 56.421329 0
M  V30 27 C 37.022377 30.268661 59.443422 0
M  V30 28 C 40.039234 36.072502 62.775935 0 CFG=2
M  V30 29 C 37.341674 31.186539 60.634207 0
M  V30 30 C 37.652049 26.136711 58.003912 0
M  V30 31 C 41.083241 34.983693 62.884950 0 CFG=2
M  V30 32 C 39.459029 33.685771 61.751671 0 CFG=2
M  V30 33 C 36.791800 24.394605 56.352235 0
M  V30 34 C 41.339095 32.546808 63.213838 0 CFG=2
M  V30 35 O 40.045328 28.191703 62.150202 0
M  V30 36 O 40.873154 29.369867 62.329262 0
M  V30 37 N 39.245495 30.302990 52.968364 0
M  V30 38 H 40.165539 31.640862 61.613201 0
M  V30 39 H 39.233330 31.970607 63.047564 0
M  V30 40 H 37.245563 24.113088 58.420945 0
M  V30 41 H 37.247192 31.866161 57.425340 0
M  V30 42 H 38.954442 31.639586 57.128313 0
M  V30 43 H 39.236262 31.182148 52.471722 0
M  V30 44 H 37.592324 27.140831 56.108883 0
M  V30 45 H 39.146354 26.489490 56.593264 0
M  V30 46 H 39.281292 28.236787 58.372518 0
M  V30 47 H 38.518573 33.677530 58.511755 0
M  V30 48 H 39.561954 32.536445 59.301610 0
M  V30 49 H 41.322523 28.625737 64.199858 0
M  V30 50 H 42.547348 28.361410 62.971677 0
M  V30 51 H 39.383649 24.137858 56.313777 0
M  V30 52 H 39.848399 24.742868 57.883110 0
M  V30 53 H 39.224092 23.120587 57.765592 0
M  V30 54 H 37.334562 33.378378 62.167767 0
M  V30 55 H 37.668524 34.610751 60.998944 0
M  V30 56 H 36.612401 32.980131 59.795638 0
M  V30 57 H 40.142930 32.171325 65.421626 0
M  V30 58 H 38.707475 29.329460 51.198694 0
M  V30 59 H 38.679539 27.086523 52.228163 0
M  V30 60 H 39.265956 26.866705 54.616505 0
M  V30 61 H 43.181975 30.185635 64.608828 0
M  V30 62 H 43.167467 30.733389 62.967874 0
M  V30 63 H 40.234113 37.697620 61.413530 0
M  V30 64 H 39.975234 36.137763 60.618327 0
M  V30 65 H 38.625602 36.959565 61.426644 0
M  V30 66 H 40.894873 34.066063 64.813384 0
M  V30 67 H 42.525837 34.115763 64.188360 0
M  V30 68 H 40.346653 29.767430 56.783053 0
M  V30 69 H 40.762727 28.125597 56.481628 0
M  V30 70 H 36.099915 30.574427 58.946365 0
M  V30 71 H 36.877375 29.247011 59.782770 0
M  V30 72 H 39.733941 36.579730 63.689602 0
M  V30 73 H 38.206195 30.781520 61.154175 0
M  V30 74 H 36.514489 31.157009 61.343265 0
M  V30 75 H 38.185526 26.249791 58.948653 0
M  V30 76 H 36.625236 26.456104 58.164596 0
M  V30 77 H 41.644702 34.890590 61.956351 0
M  V30 78 H 40.063175 33.939615 60.882373 0
M  V30 79 H 37.234324 24.802679 55.442754 0
M  V30 80 H 36.637531 23.326991 56.192295 0
M  V30 81 H 35.815214 24.863656 56.470825 0
M  V30 82 H 42.133873 32.524991 62.466526 0
M  V30 83 H 39.395077 28.313577 62.833463 0
M  V30 84 H 39.286305 34.420975 63.716819 0
M  V30 END ATOM
M  V30 BEGIN BOND
M  V30 1 1 5 3
M  V30 2 1 8 7
M  V30 3 1 11 3
M  V30 4 1 13 2
M  V30 5 1 15 4
M  V30 6 2 15 6
M  V30 7 1 17 11
M  V30 8 1 17 14
M  V30 9 1 18 10
M  V30 10 2 18 16
M  V30 11 2 20 19
M  V30 12 2 21 4
M  V30 13 1 21 20
M  V30 14 1 22 10
M  V30 15 1 22 12
M  V30 16 1 23 5
M  V30 17 1 23 8
M  V30 18 1 26 4
M  V30 19 1 26 8
M  V30 20 1 27 5
M  V30 21 1 28 9
M  V30 22 1 28 24
M  V30 23 1 29 17
M  V30 24 1 29 27
M  V30 25 1 30 2
M  V30 26 1 30 7
M  V30 27 1 31 9
M  V30 28 1 31 25
M  V30 29 1 31 28
M  V30 30 1 32 1
M  V30 31 1 32 9
M  V30 32 1 32 14
M  V30 33 1 33 2
M  V30 34 1 34 1
M  V30 35 1 34 10
M  V30 36 1 34 25
M  V30 37 1 36 12
M  V30 38 1 36 35
M  V30 39 1 37 15
M  V30 40 1 37 19
M  V30 41 1 38 1
M  V30 42 1 39 1
M  V30 43 1 40 2
M  V30 44 1 41 3
M  V30 45 1 42 3
M  V30 46 1 43 37
M  V30 47 1 44 7
M  V30 48 1 45 7
M  V30 49 1 8 46 CFG=1
M  V30 50 1 47 11
M  V30 51 1 48 11
M  V30 52 1 49 12
M  V30 53 1 50 12
M  V30 54 1 51 13
M  V30 55 1 52 13
M  V30 56 1 53 13
M  V30 57 1 54 14
M  V30 58 1 55 14
M  V30 59 1 56 17
M  V30 60 1 57 18
M  V30 61 1 58 19
M  V30 62 1 59 20
M  V30 63 1 60 21
M  V30 64 1 61 22
M  V30 65 1 62 22
M  V30 66 1 63 24
M  V30 67 1 64 24
M  V30 68 1 65 24
M  V30 69 1 66 25
M  V30 70 1 67 25
M  V30 71 1 68 26
M  V30 72 1 69 26
M  V30 73 1 70 27
M  V30 74 1 71 27
M  V30 75 1 28 72 CFG=1
M  V30 76 1 73 29
M  V30 77 1 74 29
M  V30 78 1 75 30
M  V30 79 1 76 30
M  V30 80 1 31 77 CFG=3
M  V30 81 1 32 78 CFG=3
M  V30 82 1 79 33
M  V30 83 1 80 33
M  V30 84 1 81 33
M  V30 85 1 34 82 CFG=3
M  V30 86 1 83 35
M  V30 87 1 9 84 CFG=1
M  V30 END BOND
M  V30 END CTAB
M  END
>  <i_epik_Tot_Q>  (1) 
1

>  <i_epik_Tot_abs_Q>  (1) 
1

>  <i_i_glide_confnum>  (1) 
1325

>  <i_i_glide_lignum>  (1) 
57

>  <i_i_glide_posenum>  (1) 
343

>  <i_i_glide_rotatable_bonds>  (1) 
15

>  <i_lp_mmshare_version>  (1) 
72125

>  <i_m_source_file_index>  (1) 
27

>  <i_f3d_flags>  (1) 
0

>  <num_sample>  (1) 
50

>  <b_lp_Chiralities_Consistent>  (1) 
1

>  <r_epik_Charging_Adjusted_Penalty>  (1) 
0.02425622639956965

>  <r_epik_Ionization_Penalty>  (1) 
0.033094864685368548

>  <r_epik_Ionization_Penalty_Charging>  (1) 
0.02425622639956965

>  <r_epik_Ionization_Penalty_Neutral>  (1) 
0.0088386382857988978

>  <r_epik_State_Penalty>  (1) 
-0

>  <r_glide_ring_energy>  (1) 
0

>  <r_i_docking_score>  (1) 
-7.4484810015619995

>  <r_i_glide_ecoul>  (1) 
-3.2088513722976284

>  <r_i_glide_eff_state_penalty>  (1) 
-0

>  <r_i_glide_einternal>  (1) 
15.367315133191159

>  <r_i_glide_emodel>  (1) 
-50.809589651638724

>  <r_i_glide_emodel_strain>  (1) 
2.5856058541467206

>  <r_i_glide_energy>  (1) 
-44.22773831740102

>  <r_i_glide_erotb>  (1) 
0.83677420797818713

>  <r_i_glide_esite>  (1) 
-0.12621157680754935

>  <r_i_glide_evdw>  (1) 
-41.01888694510339

>  <r_i_glide_gscore>  (1) 
-7.4484810015619995

>  <r_i_glide_gscore_strain>  (1) 
0

>  <r_i_glide_hbond>  (1) 
-0.32000000000000001

>  <r_i_glide_ligand_efficiency>  (1) 
-0.2013102973395135

>  <r_i_glide_ligand_efficiency_ln>  (1) 
-1.6154009120692669

>  <r_i_glide_ligand_efficiency_sa>  (1) 
-0.67081057175607117

>  <r_i_glide_lipo>  (1) 
-4.2780862047999273

>  <r_i_glide_metal>  (1) 
-0

>  <r_i_glide_rewards>  (1) 
-1.0286853748328955

>  <r_lp_Energy>  (1) 
64.493858000000003

>  <r_lp_tautomer_probability>  (1) 
1

>  <s_epik_Chemistry_Notes>  (1) 
This compound has a N-S or N-O group and may undergo hydrolysis at high or low pH.

>  <s_epik_cmdline>  (1) 
J2VwaWtfcHl0aG9uJywgJy1waHQnLCAnMS4wJywgJy1waCcsICc3LjQnLCAnLXRuJywgJzgnLCAnLW1hJywgJzUwMCcsICctaW1hZScsICc8aW5maWxlLm1hZT4nLCAnLW9tYWUnLCAnPG91dGZpbGUubWFlPic=

>  <s_epik_input>  (1) 
W09IXU9bQ0gyXVtDSDJdTihbQ0hdPU8pW0NASF0oW0NIMl1bQ0BASF0oTjEyKVtDQEhdMVtDSDNdKVtDSDJdW0NASF0yW0NIMl1bQ0hdKFtDSDJdW0NIMl0zKVtDSDJdW0NIMl1OM09bQ0BASF0oW0NIMl1bQ0gyXVtDSF0oW0NIM10pW0NIM10pW0NIMl1bQ0BASF00Qyg9TylOPVtDSF1bQ0hdPVtDSF00

>  <s_glide_docking_method>  (1) 
confgen

>  <s_i_glide_gridfile>  (1) 
gpcr_5ht2c_6bqh_protein_autoprepared_prepared

>  <s_lp_Force_Field>  (1) 
S-OPLS

>  <s_lp_Variant>  (1) 
DiffSBDD_26-2

>  <s_m_source_file>  (1) 
generated_GPCR_5HT2C_ligand_DiffSBDD_2026-06-23_prepared.sdf

>  <GenAI_Model>  (1) 
DiffSBDD

>  <Protein>  (1) 
GPCR_5HT2C

$$$$
DiffSBDD_38
     RDKit          3D

  0  0  0  0  0  0  0  0  0  0999 V3000
M  V30 BEGIN CTAB
M  V30 COUNTS 71 72 0 0 1
M  V30 BEGIN ATOM
M  V30 1 C 37.237990 34.365817 61.229421 0
M  V30 2 C 37.785313 28.549142 56.804697 0
M  V30 3 C 39.925121 28.953679 50.096136 0
M  V30 4 F 38.236688 36.966390 60.967447 0
M  V30 5 C 39.644096 27.766967 50.791927 0
M  V30 6 C 39.923012 30.157319 50.796457 0
M  V30 7 C 39.134030 27.612994 54.906632 0 CFG=2
M  V30 8 C 38.107970 25.449165 54.853268 0
M  V30 9 F 37.893517 29.046120 59.575765 0
M  V30 10 C 37.473770 33.562814 58.234752 0
M  V30 11 C 39.645146 30.137928 52.166338 0
M  V30 12 C 39.083543 37.034287 61.990197 0
M  V30 13 C 40.178346 35.934533 61.941815 0 CFG=2
M  V30 14 C 36.117410 34.105387 60.302387 0
M  V30 15 N 39.139754 33.526644 59.917619 0
M  V30 16 O 37.990113 26.847476 54.647047 0
M  V30 17 C 38.323125 30.072314 58.838346 0
M  V30 18 C 38.573822 34.132080 61.030679 0
M  V30 19 C 39.603264 34.502270 62.101675 0 CFG=1
M  V30 20 C 37.646331 29.921137 57.467133 0 CFG=1
M  V30 21 C 39.375347 28.903654 52.783847 0
M  V30 22 F 38.388670 36.938465 63.124463 0
M  V30 23 C 39.187485 28.040433 56.403619 0 CFG=2
M  V30 24 C 41.549491 31.379343 62.930185 0
M  V30 25 F 39.645317 29.975235 58.725480 0
M  V30 26 F 40.175828 31.322020 50.160553 0
M  V30 27 C 36.208175 33.758579 59.004312 0
M  V30 28 N 39.382345 27.725030 52.115209 0
M  V30 29 F 39.645147 38.239217 61.933833 0
M  V30 30 C 37.938945 31.356223 59.600741 0 CFG=2
M  V30 31 C 39.737552 26.921256 57.306050 0
M  V30 32 C 40.516235 32.470091 62.819657 0
M  V30 33 C 41.212178 36.203752 63.054666 0
M  V30 34 N 40.691777 33.521727 62.130302 0
M  V30 35 C 38.455202 32.695852 58.973486 0 CFG=1
M  V30 36 O 38.045258 30.890460 56.519060 0
M  V30 37 F 38.424132 31.195979 60.835404 0
M  V30 38 N 39.126198 28.863165 54.156584 0
M  V30 39 H 36.969119 34.815728 62.167749 0
M  V30 40 H 40.142409 33.412724 59.935190 0
M  V30 41 H 37.245441 27.787653 57.367950 0
M  V30 42 H 37.245131 28.692282 55.880198 0
M  V30 43 H 40.131324 28.937767 49.037956 0
M  V30 44 H 39.633638 26.823149 50.273745 0
M  V30 45 H 40.034251 27.072073 54.608054 0
M  V30 46 H 37.353773 24.942393 54.250872 0
M  V30 47 H 37.916351 25.180698 55.888872 0
M  V30 48 H 39.087659 25.063530 54.567823 0
M  V30 49 H 37.879736 34.537540 57.980549 0
M  V30 50 H 37.244667 33.116011 57.273333 0
M  V30 51 H 39.640588 31.054692 52.737668 0
M  V30 52 H 40.692396 36.004136 60.981194 0
M  V30 53 H 35.121958 34.227124 60.701180 0
M  V30 54 H 39.084746 34.490915 63.054233 0
M  V30 55 H 36.578007 30.078617 57.622120 0
M  V30 56 H 39.909088 28.856188 56.469093 0
M  V30 57 H 41.330758 30.742425 63.787060 0
M  V30 58 H 42.545580 31.805351 63.053003 0
M  V30 59 H 35.296128 33.619131 58.447356 0
M  V30 60 H 36.857835 31.372891 59.736086 0
M  V30 61 H 39.019006 26.123723 57.477083 0
M  V30 62 H 40.001400 27.316995 58.286107 0
M  V30 63 H 40.641701 26.481298 56.883116 0
M  V30 64 H 39.592826 32.289363 63.377554 0
M  V30 65 H 40.756652 36.136793 64.043140 0
M  V30 66 H 41.637998 37.196588 62.967759 0
M  V30 67 H 42.045182 35.505433 63.028314 0
M  V30 68 H 41.531756 30.765931 62.030626 0
M  V30 69 H 39.237904 32.438477 58.260223 0
M  V30 70 H 37.311657 31.490026 56.421681 0
M  V30 71 H 39.049641 29.724279 54.684114 0
M  V30 END ATOM
M  V30 BEGIN BOND
M  V30 1 2 5 3
M  V30 2 1 6 3
M  V30 3 2 11 6
M  V30 4 1 12 4
M  V30 5 1 13 12
M  V30 6 1 14 1
M  V30 7 1 16 7
M  V30 8 1 16 8
M  V30 9 1 17 9
M  V30 10 2 18 1
M  V30 11 1 18 15
M  V30 12 1 19 13
M  V30 13 1 19 18
M  V30 14 1 20 2
M  V30 15 1 20 17
M  V30 16 1 21 11
M  V30 17 1 22 12
M  V30 18 1 23 2
M  V30 19 1 23 7
M  V30 20 1 25 17
M  V30 21 1 26 6
M  V30 22 1 27 10
M  V30 23 2 27 14
M  V30 24 1 28 5
M  V30 25 2 28 21
M  V30 26 1 29 12
M  V30 27 1 30 17
M  V30 28 1 31 23
M  V30 29 1 32 24
M  V30 30 1 33 13
M  V30 31 1 34 19
M  V30 32 2 34 32
M  V30 33 1 35 10
M  V30 34 1 35 15
M  V30 35 1 35 30
M  V30 36 1 36 20
M  V30 37 1 37 30
M  V30 38 1 38 7
M  V30 39 1 38 21
M  V30 40 1 39 1
M  V30 41 1 40 15
M  V30 42 1 41 2
M  V30 43 1 42 2
M  V30 44 1 43 3
M  V30 45 1 44 5
M  V30 46 1 7 45 CFG=3
M  V30 47 1 46 8
M  V30 48 1 47 8
M  V30 49 1 48 8
M  V30 50 1 49 10
M  V30 51 1 50 10
M  V30 52 1 51 11
M  V30 53 1 13 52 CFG=3
M  V30 54 1 53 14
M  V30 55 1 19 54 CFG=1
M  V30 56 1 20 55 CFG=1
M  V30 57 1 23 56 CFG=3
M  V30 58 1 57 24
M  V30 59 1 58 24
M  V30 60 1 59 27
M  V30 61 1 30 60 CFG=1
M  V30 62 1 61 31
M  V30 63 1 62 31
M  V30 64 1 63 31
M  V30 65 1 64 32
M  V30 66 1 65 33
M  V30 67 1 66 33
M  V30 68 1 67 33
M  V30 69 1 68 24
M  V30 70 1 35 69 CFG=3
M  V30 71 1 70 36
M  V30 72 1 71 38
M  V30 END BOND
M  V30 END CTAB
M  END
>  <i_epik_Tot_Q>  (1) 
0

>  <i_epik_Tot_abs_Q>  (1) 
0

>  <i_i_glide_confnum>  (1) 
632

>  <i_i_glide_lignum>  (1) 
81

>  <i_i_glide_posenum>  (1) 
88

>  <i_i_glide_rotatable_bonds>  (1) 
14

>  <i_lp_mmshare_version>  (1) 
72125

>  <i_m_source_file_index>  (1) 
39

>  <i_f3d_flags>  (1) 
0

>  <num_sample>  (1) 
50

>  <b_lp_Chiralities_Consistent>  (1) 
1

>  <r_epik_Charging_Adjusted_Penalty>  (1) 
0.41068759954161893

>  <r_epik_Ionization_Penalty>  (1) 
0.7209121720186531

>  <r_epik_Ionization_Penalty_Charging>  (1) 
0

>  <r_epik_Ionization_Penalty_Neutral>  (1) 
0.7209121720186531

>  <r_epik_State_Penalty>  (1) 
0.41068759954161893

>  <r_glide_ring_energy>  (1) 
0

>  <r_i_docking_score>  (1) 
-7.4457718285795416

>  <r_i_glide_ecoul>  (1) 
-4.2303659802821389

>  <r_i_glide_eff_state_penalty>  (1) 
0.41068759954161893

>  <r_i_glide_einternal>  (1) 
17.668765034112418

>  <r_i_glide_emodel>  (1) 
-53.047028693014582

>  <r_i_glide_emodel_strain>  (1) 
4.7889352177750766

>  <r_i_glide_energy>  (1) 
-44.617242027678977

>  <r_i_glide_erotb>  (1) 
0.60130745657359952

>  <r_i_glide_esite>  (1) 
0

>  <r_i_glide_evdw>  (1) 
-40.386876047396839

>  <r_i_glide_gscore>  (1) 
-7.8564594281211608

>  <r_i_glide_gscore_strain>  (1) 
0.19723380444376915

>  <r_i_glide_hbond>  (1) 
0

>  <r_i_glide_ligand_efficiency>  (1) 
-0.19594136390998793

>  <r_i_glide_ligand_efficiency_ln>  (1) 
-1.6055274386576219

>  <r_i_glide_ligand_efficiency_sa>  (1) 
-0.65875004664002557

>  <r_i_glide_lipo>  (1) 
-3.442575776419031

>  <r_i_glide_metal>  (1) 
-0

>  <r_i_glide_rewards>  (1) 
-2.5585262133073363

>  <r_lp_Energy>  (1) 
24.236113

>  <r_lp_tautomer_probability>  (1) 
0.49999644301987139

>  <s_epik_Chemistry_Notes>  (1) 
This compound has an imine and may undergo hydrolysis. This compound contains an acetal/aminal-like group ( X-CH(R)-Y where X, Y are N, S, or O) that may be acid/base labile, releasing an aldehyde.

>  <s_epik_cmdline>  (1) 
J2VwaWtfcHl0aG9uJywgJy1waHQnLCAnMS4wJywgJy1waCcsICc3LjQnLCAnLXRuJywgJzgnLCAnLW1hJywgJzUwMCcsICctaW1hZScsICc8aW5maWxlLm1hZT4nLCAnLW9tYWUnLCAnPG91dGZpbGUubWFlPic=

>  <s_epik_input>  (1) 
RkMoRikoRilbQ0BASF0oW0NIM10pW0NASF0oW05IXVtDSF09W0NIMl0pQzE9TltDQEhdKFtDSDJdW0NIXT1bQ0hdW0NIMl0xKVtDQEhdKEYpQyhGKShGKVtDQEBIXShbT0hdKVtDSDJdW0NAQEhdKFtDSDNdKVtDQEBIXShPW0NIM10pW05IXWMoW2NIXTIpbltjSF1bY0hdYzJG

>  <s_glide_docking_method>  (1) 
confgen

>  <s_i_glide_gridfile>  (1) 
gpcr_5ht2c_6bqh_protein_autoprepared_prepared

>  <s_lp_Force_Field>  (1) 
S-OPLS

>  <s_lp_Variant>  (1) 
DiffSBDD_38-2

>  <s_m_source_file>  (1) 
generated_GPCR_5HT2C_ligand_DiffSBDD_2026-06-23_prepared.sdf

>  <GenAI_Model>  (1) 
DiffSBDD

>  <Protein>  (1) 
GPCR_5HT2C

$$$$
DiffSBDD_3
     RDKit          3D

  0  0  0  0  0  0  0  0  0  0999 V3000
M  V30 BEGIN CTAB
M  V30 COUNTS 55 57 0 0 1
M  V30 BEGIN ATOM
M  V30 1 C 40.045252 29.922880 60.862849 0
M  V30 2 C 39.715205 26.639237 56.742491 0
M  V30 3 C 34.850095 33.129597 60.455324 0 CFG=2
M  V30 4 C 38.831576 28.988713 55.532575 0
M  V30 5 C 38.735801 27.726892 54.671105 0 CFG=1
M  V30 6 N 36.815391 31.861460 60.664105 0
M  V30 7 C 39.971711 25.367898 57.532539 0
M  V30 8 C 37.375379 29.757158 59.563472 0
M  V30 9 C 41.263704 28.085449 58.220146 0 CFG=2
M  V30 10 C 38.756709 26.483828 55.572391 0 CFG=2
M  V30 11 O 41.161385 29.998405 61.367705 0
M  V30 12 C 35.446937 31.741050 60.202518 0
M  V30 13 C 37.781686 30.871381 60.482128 0
M  V30 14 C 38.336259 28.612189 59.610008 0
M  V30 15 C 40.290166 27.836045 57.058207 0
M  V30 16 N 39.695428 28.888403 60.031219 0
M  V30 17 C 38.994967 30.937604 61.074456 0
M  V30 18 O 37.475997 26.137728 56.062680 0
M  V30 19 C 37.567691 27.753078 53.668303 0
M  V30 20 O 42.466343 27.357304 58.043530 0
M  V30 21 C 33.742854 33.500649 59.463203 0
M  V30 22 C 40.675102 27.869298 59.640843 0
M  V30 23 C 37.129730 33.185556 61.152833 0
M  V30 24 O 40.012395 28.977715 56.336016 0
M  V30 25 C 36.078076 34.048499 60.461580 0
M  V30 26 H 34.444700 33.154155 61.467421 0
M  V30 27 H 38.854392 29.877314 54.900849 0
M  V30 28 H 37.956654 29.087523 56.176158 0
M  V30 29 H 39.644933 27.697770 54.072740 0
M  V30 30 H 39.105493 25.145315 58.155911 0
M  V30 31 H 40.106965 24.535198 56.845567 0
M  V30 32 H 40.845873 25.406327 58.168622 0
M  V30 33 H 36.373826 29.382853 59.767619 0
M  V30 34 H 41.565309 29.130890 58.167938 0
M  V30 35 H 39.093187 25.638354 54.970898 0
M  V30 36 H 35.430022 31.482114 59.144521 0
M  V30 37 H 34.914948 30.982398 60.774953 0
M  V30 38 H 38.290679 28.088720 58.658542 0
M  V30 39 H 38.045148 27.872819 60.349291 0
M  V30 40 H 39.219407 31.773441 61.719454 0
M  V30 41 H 37.125794 26.876678 56.536526 0
M  V30 42 H 36.599547 27.790824 54.165912 0
M  V30 43 H 37.635309 28.620379 53.011687 0
M  V30 44 H 37.578204 26.864450 53.036018 0
M  V30 45 H 42.278722 26.487472 57.714931 0
M  V30 46 H 33.811690 32.896705 58.567722 0
M  V30 47 H 32.753300 33.337813 59.888402 0
M  V30 48 H 33.808492 34.537583 59.149489 0
M  V30 49 H 40.130024 26.937696 59.688852 0
M  V30 50 H 41.479415 27.779399 60.373040 0
M  V30 51 H 37.015421 33.203501 62.228717 0
M  V30 52 H 38.134503 33.515856 60.889403 0
M  V30 53 H 35.921549 34.988959 60.982202 0
M  V30 54 H 36.385091 34.272324 59.438586 0
M  V30 55 H 37.358772 30.163351 58.550142 0
M  V30 END ATOM
M  V30 BEGIN BOND
M  V30 1 1 5 4
M  V30 2 1 7 2
M  V30 3 1 10 2
M  V30 4 1 10 5
M  V30 5 2 11 1
M  V30 6 1 12 3
M  V30 7 1 12 6
M  V30 8 1 13 6
M  V30 9 1 13 8
M  V30 10 1 14 8
M  V30 11 2 15 2
M  V30 12 1 15 9
M  V30 13 1 16 1
M  V30 14 1 16 14
M  V30 15 1 17 1
M  V30 16 2 17 13
M  V30 17 1 18 10
M  V30 18 1 19 5
M  V30 19 1 20 9
M  V30 20 1 21 3
M  V30 21 1 22 9
M  V30 22 1 22 16
M  V30 23 1 23 6
M  V30 24 1 24 4
M  V30 25 1 24 15
M  V30 26 1 25 3
M  V30 27 1 25 23
M  V30 28 1 3 26 CFG=1
M  V30 29 1 27 4
M  V30 30 1 28 4
M  V30 31 1 5 29 CFG=3
M  V30 32 1 30 7
M  V30 33 1 31 7
M  V30 34 1 32 7
M  V30 35 1 33 8
M  V30 36 1 9 34 CFG=1
M  V30 37 1 10 35 CFG=3
M  V30 38 1 36 12
M  V30 39 1 37 12
M  V30 40 1 38 14
M  V30 41 1 39 14
M  V30 42 1 40 17
M  V30 43 1 41 18
M  V30 44 1 42 19
M  V30 45 1 43 19
M  V30 46 1 44 19
M  V30 47 1 45 20
M  V30 48 1 46 21
M  V30 49 1 47 21
M  V30 50 1 48 21
M  V30 51 1 49 22
M  V30 52 1 50 22
M  V30 53 1 51 23
M  V30 54 1 52 23
M  V30 55 1 53 25
M  V30 56 1 54 25
M  V30 57 1 55 8
M  V30 END BOND
M  V30 END CTAB
M  END
>  <i_epik_Tot_Q>  (1) 
0

>  <i_epik_Tot_abs_Q>  (1) 
0

>  <i_i_glide_confnum>  (1) 
3

>  <i_i_glide_lignum>  (1) 
11

>  <i_i_glide_posenum>  (1) 
106

>  <i_i_glide_rotatable_bonds>  (1) 
6

>  <i_lp_mmshare_version>  (1) 
72125

>  <i_m_source_file_index>  (1) 
4

>  <i_f3d_flags>  (1) 
0

>  <num_sample>  (1) 
50

>  <b_lp_Chiralities_Consistent>  (1) 
1

>  <r_epik_Charging_Adjusted_Penalty>  (1) 
0.0014021342352173091

>  <r_epik_Ionization_Penalty>  (1) 
0.00010460091952456132

>  <r_epik_Ionization_Penalty_Charging>  (1) 
0

>  <r_epik_Ionization_Penalty_Neutral>  (1) 
0.00010460091952456132

>  <r_epik_State_Penalty>  (1) 
0.0014021342352173091

>  <r_glide_ring_energy>  (1) 
0

>  <r_i_docking_score>  (1) 
-7.4399748214154382

>  <r_i_glide_ecoul>  (1) 
-6.6464316465210445

>  <r_i_glide_eff_state_penalty>  (1) 
0.0014021342352173091

>  <r_i_glide_einternal>  (1) 
3.0567889082474231

>  <r_i_glide_emodel>  (1) 
-49.833161530898899

>  <r_i_glide_emodel_strain>  (1) 
2.3611733023785533

>  <r_i_glide_energy>  (1) 
-37.092947851807168

>  <r_i_glide_erotb>  (1) 
0.62076481070925627

>  <r_i_glide_esite>  (1) 
-0.036837416582645943

>  <r_i_glide_evdw>  (1) 
-30.44651620528612

>  <r_i_glide_gscore>  (1) 
-7.4413769556506555

>  <r_i_glide_gscore_strain>  (1) 
0

>  <r_i_glide_hbond>  (1) 
-0.60668966935867508

>  <r_i_glide_ligand_efficiency>  (1) 
-0.29759899285661751

>  <r_i_glide_ligand_efficiency_ln>  (1) 
-1.7634969907292461

>  <r_i_glide_ligand_efficiency_sa>  (1) 
-0.87018473398703378

>  <r_i_glide_lipo>  (1) 
-3.1438452493493472

>  <r_i_glide_metal>  (1) 
-0

>  <r_i_glide_rewards>  (1) 
-1.7554788738267801

>  <r_lp_Energy>  (1) 
-2.7583759999999997

>  <s_epik_cmdline>  (1) 
J2VwaWtfcHl0aG9uJywgJy1waHQnLCAnMS4wJywgJy1waCcsICc3LjQnLCAnLXRuJywgJzgnLCAnLW1hJywgJzUwMCcsICctaW1hZScsICc8aW5maWxlLm1hZT4nLCAnLW9tYWUnLCAnPG91dGZpbGUubWFlPic=

>  <s_epik_input>  (1) 
W0NIM11bQ0BIXTFbQ0gyXU4oW0NIMl1bQ0gyXTEpQyhbQ0gyXTIpPVtDSF1bQ0gyXU4oQzI9TylbQ0gyXVtDQEBIXShbT0hdKUMoPUMzW0NIM10pT1tDSDJdW0NASF0oW0NIM10pW0NAQEhdM1tPSF0=

>  <s_glide_docking_method>  (1) 
confgen

>  <s_i_glide_gridfile>  (1) 
gpcr_5ht2c_6bqh_protein_autoprepared_prepared

>  <s_lp_Force_Field>  (1) 
S-OPLS

>  <s_lp_Variant>  (1) 
DiffSBDD_3-1

>  <s_m_source_file>  (1) 
generated_GPCR_5HT2C_ligand_DiffSBDD_2026-06-23_prepared.sdf

>  <GenAI_Model>  (1) 
DiffSBDD

>  <Protein>  (1) 
GPCR_5HT2C

$$$$
DiffSBDD_9
     RDKit          3D

  0  0  0  0  0  0  0  0  0  0999 V3000
M  V30 BEGIN CTAB
M  V30 COUNTS 61 62 0 0 1
M  V30 BEGIN ATOM
M  V30 1 C 37.416669 34.875541 59.834607 0
M  V30 2 C 38.546462 34.100992 60.541183 0 CFG=1
M  V30 3 C 39.231427 31.446816 54.582381 0
M  V30 4 O 38.307529 36.937756 63.908313 0
M  V30 5 C 36.513046 37.940047 62.070531 0
M  V30 6 N 37.645137 31.912734 57.927176 0 CHG=1
M  V30 7 C 39.488275 27.832931 51.890851 0
M  V30 8 C 37.130578 36.547253 61.814725 0 CFG=1
M  V30 9 C 38.737046 28.433434 56.582409 0
M  V30 10 C 39.445705 36.978554 64.751533 0
M  V30 11 C 38.045131 31.468897 55.561285 0
M  V30 12 O 36.932634 38.886043 61.367759 0 CHG=-1
M  V30 13 C 38.496331 28.722709 52.652412 0 CFG=1
M  V30 14 C 39.066661 32.920242 59.700413 0
M  V30 15 C 39.719188 35.013560 60.934930 0
M  V30 16 O 37.217154 28.137755 52.567762 0
M  V30 17 C 38.896715 28.959152 54.105646 0
M  V30 18 C 37.259925 36.335814 60.285514 0
M  V30 19 C 38.005843 31.862497 59.359642 0
M  V30 20 C 38.386952 28.229723 55.120289 0
M  V30 21 C 38.404463 36.358385 62.657878 0
M  V30 22 C 37.892129 29.527541 57.256453 0
M  V30 23 O 35.645120 38.024492 62.967757 0
M  V30 24 C 39.893532 30.084496 54.339089 0
M  V30 25 C 39.528929 35.697327 62.269684 0
M  V30 26 C 38.348783 30.993909 57.005067 0 CFG=2
M  V30 27 H 37.581718 34.877956 58.757343 0
M  V30 28 H 36.470992 34.353272 59.984019 0
M  V30 29 H 38.137610 33.679611 61.461927 0
M  V30 30 H 38.886645 31.843241 53.626497 0
M  V30 31 H 39.991859 32.137750 54.943638 0
M  V30 32 H 37.795269 32.857914 57.606318 0
M  V30 33 H 40.461182 28.314588 51.796674 0
M  V30 34 H 39.630322 26.873182 52.389145 0
M  V30 35 H 39.138031 27.632610 50.877064 0
M  V30 36 H 36.422671 35.811307 62.193979 0
M  V30 37 H 38.540719 27.481372 57.076961 0
M  V30 38 H 39.800748 28.611150 56.731984 0
M  V30 39 H 39.266447 37.670585 65.574899 0
M  V30 40 H 39.675527 36.003269 65.176010 0
M  V30 41 H 40.304450 37.337754 64.194881 0
M  V30 42 H 37.199778 30.915840 55.148884 0
M  V30 43 H 37.695724 32.503475 55.579784 0
M  V30 44 H 38.445505 29.688562 52.156907 0
M  V30 45 H 39.851511 32.420861 60.270013 0
M  V30 46 H 39.554836 33.296310 58.799305 0
M  V30 47 H 40.616324 34.407997 61.062196 0
M  V30 48 H 39.977078 35.737756 60.167761 0
M  V30 49 H 37.206752 27.491976 51.872341 0
M  V30 50 H 36.365995 36.721329 59.790979 0
M  V30 51 H 38.069150 36.948066 59.892566 0
M  V30 52 H 37.101774 32.022461 59.947838 0
M  V30 53 H 38.372706 30.879974 59.649596 0
M  V30 54 H 37.673460 27.446627 54.906798 0
M  V30 55 H 36.845133 29.414291 56.976024 0
M  V30 56 H 37.917356 29.302212 58.320158 0
M  V30 57 H 40.556384 29.848530 55.167544 0
M  V30 58 H 40.542176 30.161979 53.468333 0
M  V30 59 H 40.365231 35.624874 62.944701 0
M  V30 60 H 39.416357 31.092385 57.203273 0
M  V30 61 H 36.643008 31.737752 57.780202 0
M  V30 END ATOM
M  V30 BEGIN BOND
M  V30 1 1 2 1
M  V30 2 1 8 5
M  V30 3 1 10 4
M  V30 4 1 11 3
M  V30 5 1 12 5
M  V30 6 1 13 7
M  V30 7 1 14 2
M  V30 8 1 15 2
M  V30 9 1 16 13
M  V30 10 1 17 13
M  V30 11 1 18 1
M  V30 12 1 18 8
M  V30 13 1 19 6
M  V30 14 1 19 14
M  V30 15 1 20 9
M  V30 16 2 20 17
M  V30 17 1 21 4
M  V30 18 1 21 8
M  V30 19 1 22 9
M  V30 20 2 23 5
M  V30 21 1 24 3
M  V30 22 1 24 17
M  V30 23 1 25 15
M  V30 24 2 25 21
M  V30 25 1 26 6
M  V30 26 1 26 11
M  V30 27 1 26 22
M  V30 28 1 27 1
M  V30 29 1 28 1
M  V30 30 1 2 29 CFG=1
M  V30 31 1 30 3
M  V30 32 1 31 3
M  V30 33 1 32 6
M  V30 34 1 33 7
M  V30 35 1 34 7
M  V30 36 1 35 7
M  V30 37 1 8 36 CFG=1
M  V30 38 1 37 9
M  V30 39 1 38 9
M  V30 40 1 39 10
M  V30 41 1 40 10
M  V30 42 1 41 10
M  V30 43 1 42 11
M  V30 44 1 43 11
M  V30 45 1 13 44 CFG=3
M  V30 46 1 45 14
M  V30 47 1 46 14
M  V30 48 1 47 15
M  V30 49 1 48 15
M  V30 50 1 49 16
M  V30 51 1 50 18
M  V30 52 1 51 18
M  V30 53 1 52 19
M  V30 54 1 53 19
M  V30 55 1 54 20
M  V30 56 1 55 22
M  V30 57 1 56 22
M  V30 58 1 57 24
M  V30 59 1 58 24
M  V30 60 1 59 25
M  V30 61 1 26 60 CFG=1
M  V30 62 1 61 6
M  V30 END BOND
M  V30 END CTAB
M  END
>  <i_epik_Tot_Q>  (1) 
0

>  <i_epik_Tot_abs_Q>  (1) 
2

>  <i_i_glide_confnum>  (1) 
290

>  <i_i_glide_lignum>  (1) 
19

>  <i_i_glide_posenum>  (1) 
281

>  <i_i_glide_rotatable_bonds>  (1) 
8

>  <i_lp_mmshare_version>  (1) 
72125

>  <i_m_source_file_index>  (1) 
10

>  <i_f3d_flags>  (1) 
0

>  <num_sample>  (1) 
50

>  <b_lp_Chiralities_Consistent>  (1) 
1

>  <r_epik_Charging_Adjusted_Penalty>  (1) 
0.00049470438624524575

>  <r_epik_Ionization_Penalty>  (1) 
0.0004947514825463053

>  <r_epik_Ionization_Penalty_Charging>  (1) 
0.00049470438624524575

>  <r_epik_Ionization_Penalty_Neutral>  (1) 
4.7096301059555568e-08

>  <r_epik_State_Penalty>  (1) 
-0

>  <r_glide_ring_energy>  (1) 
1.4314105349030264

>  <r_i_docking_score>  (1) 
-7.4393862689372039

>  <r_i_glide_ecoul>  (1) 
-7.5621511553783005

>  <r_i_glide_eff_state_penalty>  (1) 
-0

>  <r_i_glide_einternal>  (1) 
11.634156142531726

>  <r_i_glide_emodel>  (1) 
-54.741653574164545

>  <r_i_glide_emodel_strain>  (1) 
1.1415694239380727

>  <r_i_glide_energy>  (1) 
-37.750141349600213

>  <r_i_glide_erotb>  (1) 
0.71993305512373396

>  <r_i_glide_esite>  (1) 
-0.10000000000000001

>  <r_i_glide_evdw>  (1) 
-30.187990194221911

>  <r_i_glide_gscore>  (1) 
-7.4393862689372039

>  <r_i_glide_gscore_strain>  (1) 
0

>  <r_i_glide_hbond>  (1) 
-0.41363379711877191

>  <r_i_glide_ligand_efficiency>  (1) 
-0.28613024111296936

>  <r_i_glide_ligand_efficiency_ln>  (1) 
-1.7471154546425347

>  <r_i_glide_ligand_efficiency_sa>  (1) 
-0.84765971434962495

>  <r_i_glide_lipo>  (1) 
-2.8787145208193619

>  <r_i_glide_metal>  (1) 
-0

>  <r_i_glide_rewards>  (1) 
-2.1232488231049631

>  <r_lp_Energy>  (1) 
30.107592999999998

>  <r_lp_tautomer_probability>  (1) 
1

>  <s_epik_cmdline>  (1) 
J2VwaWtfcHl0aG9uJywgJy1waHQnLCAnMS4wJywgJy1waCcsICc3LjQnLCAnLXRuJywgJzgnLCAnLW1hJywgJzUwMCcsICctaW1hZScsICc8aW5maWxlLm1hZT4nLCAnLW9tYWUnLCAnPG91dGZpbGUubWFlPic=

>  <s_epik_input>  (1) 
W0NIM11PQyg9W0NIXVtDSDJdMSlbQ0BASF0oQyg9TylbT0hdKVtDSDJdW0NIMl1bQ0BIXTFbQ0gyXVtDSDJdW05IXVtDQEhdKFtDSDJdW0NIMl1bQ0gyXTIpW0NIMl1bQ0gyXVxbQ0hdPUMyXFtDQEBIXShbQ0gzXSlbT0hd

>  <s_glide_docking_method>  (1) 
confgen

>  <s_i_glide_gridfile>  (1) 
gpcr_5ht2c_6bqh_protein_autoprepared_prepared

>  <s_lp_Force_Field>  (1) 
S-OPLS

>  <s_lp_Variant>  (1) 
DiffSBDD_9-1

>  <s_m_source_file>  (1) 
generated_GPCR_5HT2C_ligand_DiffSBDD_2026-06-23_prepared.sdf

>  <GenAI_Model>  (1) 
DiffSBDD

>  <Protein>  (1) 
GPCR_5HT2C

$$$$
DiffSBDD_29
     RDKit          3D

  0  0  0  0  0  0  0  0  0  0999 V3000
M  V30 BEGIN CTAB
M  V30 COUNTS 78 81 0 0 1
M  V30 BEGIN ATOM
M  V30 1 C 38.131102 27.436843 57.380740 0 CFG=1
M  V30 2 C 37.373882 35.920379 59.358217 0
M  V30 3 C 36.225986 34.937764 61.351820 0
M  V30 4 C 38.845192 28.407258 53.672339 0
M  V30 5 C 36.148055 35.249986 59.918511 0 CFG=2
M  V30 6 C 36.818557 23.900248 56.235298 0
M  V30 7 C 36.882809 31.786859 60.407776 0
M  V30 8 C 36.445134 37.523874 61.966368 0
M  V30 9 N 39.279325 29.938076 60.157338 0
M  V30 10 O 36.060352 33.835915 59.421769 0
M  V30 11 C 39.965313 29.801354 51.491517 0
M  V30 12 C 37.562485 37.831498 60.996250 0
M  V30 13 C 38.758288 32.394135 62.152986 0
M  V30 14 N 40.727747 30.139856 61.882191 0
M  V30 15 N 38.748990 28.071090 56.184413 0 CFG=1 CHG=1
M  V30 16 C 37.342681 37.430964 59.544859 0
M  V30 17 C 39.356589 31.389019 59.918847 0
M  V30 18 C 39.946230 29.322383 61.177227 0
M  V30 19 N 35.983821 32.901795 60.585381 0
M  V30 20 C 39.654504 30.487589 52.683045 0
M  V30 21 C 38.056766 25.885310 57.287440 0
M  V30 22 C 39.024540 27.920177 58.547442 0 CFG=1
M  V30 23 C 40.209682 28.013434 56.391249 0
M  V30 24 C 39.091805 29.794751 53.770965 0
M  V30 25 C 36.454262 36.045597 62.392343 0
M  V30 26 C 39.152843 27.722896 52.475557 0
M  V30 27 C 40.407759 28.157871 57.903488 0
M  V30 28 O 39.851611 28.137726 61.421129 0
M  V30 29 C 38.349253 32.232206 60.670280 0 CFG=1
M  V30 30 C 38.249121 27.648045 54.846807 0
M  V30 31 C 36.742698 25.361756 56.674924 0
M  V30 32 C 36.115289 33.718825 61.616600 0
M  V30 33 O 38.599414 38.377413 61.367736 0
M  V30 34 C 38.411725 29.179531 59.231421 0
M  V30 35 C 39.710175 28.420971 51.386887 0
M  V30 36 H 37.120470 27.820597 57.518031 0
M  V30 37 H 37.325266 35.707200 58.292119 0
M  V30 38 H 38.284366 35.480019 59.767759 0
M  V30 39 H 35.245142 35.777743 59.641624 0
M  V30 40 H 35.906346 23.606886 55.714146 0
M  V30 41 H 37.654956 23.737264 55.555924 0
M  V30 42 H 36.927003 23.243593 57.097168 0
M  V30 43 H 36.594487 30.958554 61.054470 0
M  V30 44 H 36.760141 31.448727 59.378395 0
M  V30 45 H 35.510711 37.838684 61.514703 0
M  V30 46 H 36.577499 38.148822 62.849185 0
M  V30 47 H 40.396086 30.335708 50.657051 0
M  V30 48 H 38.419107 31.560956 62.769012 0
M  V30 49 H 39.834819 32.494670 62.272855 0
M  V30 50 H 38.390814 33.323353 62.568273 0
M  V30 51 H 40.769846 31.119917 61.650743 0
M  V30 52 H 41.252528 29.776539 62.664849 0
M  V30 53 H 36.346911 37.737753 59.244879 0
M  V30 54 H 38.045489 37.942176 58.894571 0
M  V30 55 H 39.245137 31.584589 58.851580 0
M  V30 56 H 40.324842 31.813652 60.168293 0
M  V30 57 H 39.846630 31.547702 52.760421 0
M  V30 58 H 38.920991 25.490095 56.751366 0
M  V30 59 H 38.123367 25.448330 58.284145 0
M  V30 60 H 39.106153 27.133168 59.296175 0
M  V30 61 H 40.731793 28.794809 55.838642 0
M  V30 62 H 40.598202 27.052322 56.051746 0
M  V30 63 H 38.854491 30.326825 54.680819 0
M  V30 64 H 35.745597 35.901113 63.208293 0
M  V30 65 H 37.439461 35.863415 62.819913 0
M  V30 66 H 38.961045 26.662460 52.392879 0
M  V30 67 H 40.802297 29.145089 58.143260 0
M  V30 68 H 41.137143 27.431578 58.265466 0
M  V30 69 H 38.478098 33.218272 60.223221 0
M  V30 70 H 38.439096 26.584287 54.700259 0
M  V30 71 H 37.175244 27.797406 54.793777 0
M  V30 72 H 35.942640 25.474613 57.405111 0
M  V30 73 H 36.445293 25.948997 55.810947 0
M  V30 74 H 36.190583 33.286803 62.567748 0
M  V30 75 H 37.496511 28.937633 59.767607 0
M  V30 76 H 38.073306 29.844585 58.436681 0
M  V30 77 H 39.945493 27.896255 50.473113 0
M  V30 78 H 38.511390 29.049893 56.263441 0
M  V30 END ATOM
M  V30 BEGIN BOND
M  V30 1 1 5 2
M  V30 2 1 5 3
M  V30 3 1 10 5
M  V30 4 1 12 8
M  V30 5 1 15 1
M  V30 6 1 16 2
M  V30 7 1 16 12
M  V30 8 1 17 9
M  V30 9 1 18 9
M  V30 10 1 18 14
M  V30 11 1 19 7
M  V30 12 1 19 10
M  V30 13 2 20 11
M  V30 14 1 21 1
M  V30 15 1 22 1
M  V30 16 1 23 15
M  V30 17 2 24 4
M  V30 18 1 24 20
M  V30 19 1 25 3
M  V30 20 1 25 8
M  V30 21 1 26 4
M  V30 22 1 27 22
M  V30 23 1 27 23
M  V30 24 2 28 18
M  V30 25 1 29 7
M  V30 26 1 29 13
M  V30 27 1 29 17
M  V30 28 1 30 4
M  V30 29 1 30 15
M  V30 30 1 31 6
M  V30 31 1 31 21
M  V30 32 2 32 3
M  V30 33 1 32 19
M  V30 34 2 33 12
M  V30 35 1 34 9
M  V30 36 1 34 22
M  V30 37 1 35 11
M  V30 38 2 35 26
M  V30 39 1 1 36 CFG=1
M  V30 40 1 37 2
M  V30 41 1 38 2
M  V30 42 1 5 39 CFG=1
M  V30 43 1 40 6
M  V30 44 1 41 6
M  V30 45 1 42 6
M  V30 46 1 43 7
M  V30 47 1 44 7
M  V30 48 1 45 8
M  V30 49 1 46 8
M  V30 50 1 47 11
M  V30 51 1 48 13
M  V30 52 1 49 13
M  V30 53 1 50 13
M  V30 54 1 51 14
M  V30 55 1 52 14
M  V30 56 1 53 16
M  V30 57 1 54 16
M  V30 58 1 55 17
M  V30 59 1 56 17
M  V30 60 1 57 20
M  V30 61 1 58 21
M  V30 62 1 59 21
M  V30 63 1 22 60 CFG=1
M  V30 64 1 61 23
M  V30 65 1 62 23
M  V30 66 1 63 24
M  V30 67 1 64 25
M  V30 68 1 65 25
M  V30 69 1 66 26
M  V30 70 1 67 27
M  V30 71 1 68 27
M  V30 72 1 29 69 CFG=3
M  V30 73 1 70 30
M  V30 74 1 71 30
M  V30 75 1 72 31
M  V30 76 1 73 31
M  V30 77 1 74 32
M  V30 78 1 75 34
M  V30 79 1 76 34
M  V30 80 1 77 35
M  V30 81 1 15 78 CFG=1
M  V30 END BOND
M  V30 END CTAB
M  END
>  <i_epik_Tot_Q>  (1) 
1

>  <i_epik_Tot_abs_Q>  (1) 
1

>  <i_i_glide_confnum>  (1) 
362

>  <i_i_glide_lignum>  (1) 
64

>  <i_i_glide_posenum>  (1) 
152

>  <i_i_glide_rotatable_bonds>  (1) 
11

>  <i_lp_mmshare_version>  (1) 
72125

>  <i_m_source_file_index>  (1) 
30

>  <i_f3d_flags>  (1) 
0

>  <num_sample>  (1) 
50

>  <b_lp_Chiralities_Consistent>  (1) 
1

>  <r_epik_Charging_Adjusted_Penalty>  (1) 
0.034972120206071468

>  <r_epik_Ionization_Penalty>  (1) 
0.01911812601903189

>  <r_epik_Ionization_Penalty_Charging>  (1) 
0.017486060103035727

>  <r_epik_Ionization_Penalty_Neutral>  (1) 
0.0016320659159961622

>  <r_epik_State_Penalty>  (1) 
0.017486060103035741

>  <r_glide_ring_energy>  (1) 
0

>  <r_i_docking_score>  (1) 
-7.4383597983166263

>  <r_i_glide_ecoul>  (1) 
-0.66838767818045708

>  <r_i_glide_eff_state_penalty>  (1) 
0.017486060103035741

>  <r_i_glide_einternal>  (1) 
14.616741859556562

>  <r_i_glide_emodel>  (1) 
-41.562861147549128

>  <r_i_glide_emodel_strain>  (1) 
1.728457385423539

>  <r_i_glide_energy>  (1) 
-31.246847906015184

>  <r_i_glide_erotb>  (1) 
0.69426181123573816

>  <r_i_glide_esite>  (1) 
-0.048616934367168414

>  <r_i_glide_evdw>  (1) 
-30.578460227834725

>  <r_i_glide_gscore>  (1) 
-7.4558458584196616

>  <r_i_glide_gscore_strain>  (1) 
0

>  <r_i_glide_hbond>  (1) 
0

>  <r_i_glide_ligand_efficiency>  (1) 
-0.21252456566618932

>  <r_i_glide_ligand_efficiency_ln>  (1) 
-1.6328850612316517

>  <r_i_glide_ligand_efficiency_sa>  (1) 
-0.69518194683813461

>  <r_i_glide_lipo>  (1) 
-4.8986418478830958

>  <r_i_glide_metal>  (1) 
-0

>  <r_i_glide_rewards>  (1) 
-1.5736677242863304

>  <r_lp_Energy>  (1) 
30.748728

>  <r_lp_tautomer_probability>  (1) 
0.99999998000000001

>  <s_epik_Chemistry_Notes>  (1) 
This compound has a N-S or N-O group and may undergo hydrolysis at high or low pH.

>  <s_epik_cmdline>  (1) 
J2VwaWtfcHl0aG9uJywgJy1waHQnLCAnMS4wJywgJy1waCcsICc3LjQnLCAnLXRuJywgJzgnLCAnLW1hJywgJzUwMCcsICctaW1hZScsICc8aW5maWxlLm1hZT4nLCAnLW9tYWUnLCAnPG91dGZpbGUubWFlPic=

>  <s_epik_input>  (1) 
W2NIXTFbY0hdW2NIXVtjSF1bY0hdYzFbQ0gyXU4oW0NASF0yW0NIMl1bQ0gyXVtDSDNdKVtDSDJdW0NIMl1bQ0BIXTJbQ0gyXU4oQyg9TylbTkgyXSlbQ0gyXVtDQEhdKFtDSDNdKVtDSDJdTihbQ0hdMylPW0NAQEhdKEM9MzQpW0NIMl1bQ0gyXUMoPU8pW0NIMl1bQ0gyXTQ=

>  <s_glide_docking_method>  (1) 
confgen

>  <s_i_glide_gridfile>  (1) 
gpcr_5ht2c_6bqh_protein_autoprepared_prepared

>  <s_lp_Force_Field>  (1) 
S-OPLS

>  <s_lp_Variant>  (1) 
DiffSBDD_29-1

>  <s_m_source_file>  (1) 
generated_GPCR_5HT2C_ligand_DiffSBDD_2026-06-23_prepared.sdf

>  <GenAI_Model>  (1) 
DiffSBDD

>  <Protein>  (1) 
GPCR_5HT2C

$$$$
DiffSBDD_34
     RDKit          3D

  0  0  0  0  0  0  0  0  0  0999 V3000
M  V30 BEGIN CTAB
M  V30 COUNTS 81 84 0 0 1
M  V30 BEGIN ATOM
M  V30 1 C 39.952109 31.630248 60.604257 0
M  V30 2 C 38.680636 27.602643 53.409799 0 CFG=1
M  V30 3 C 37.060592 31.389605 58.820929 0
M  V30 4 C 36.446926 32.042819 60.076894 0
M  V30 5 O 38.714381 27.368439 58.152928 0
M  V30 6 C 37.539399 28.280334 54.193320 0
M  V30 7 O 38.613965 29.560820 57.485124 0
M  V30 8 C 40.653387 28.751420 58.324005 0 CFG=1
M  V30 9 C 37.846362 34.110467 59.974245 0 CFG=2
M  V30 10 C 39.264787 28.480273 52.309286 0
M  V30 11 C 37.262949 29.440560 57.158535 0 CFG=2
M  V30 12 C 40.841082 29.774883 62.050881 0
M  V30 13 O 39.244151 33.306889 62.558590 0
M  V30 14 C 41.052056 29.516073 59.577540 0 CFG=2
M  V30 15 O 36.266589 29.337842 59.367633 0
M  V30 16 C 35.653891 39.152166 62.299793 0
M  V30 17 O 38.045999 31.058580 62.426986 0
M  V30 18 N 36.988144 30.058788 55.852954 0
M  V30 19 C 37.848095 29.683667 54.749497 0
M  V30 20 C 37.034541 35.353909 60.153762 0 CFG=1
M  V30 21 S 38.652567 32.219640 61.765485 0
M  V30 22 O 37.879065 36.483817 60.258051 0
M  V30 23 C 41.260393 28.016757 59.478800 0
M  V30 24 C 40.457229 28.481348 62.721612 0
M  V30 25 C 39.263839 28.133071 50.979331 0
M  V30 26 S 40.044979 29.337549 50.004440 0
M  V30 27 C 39.890546 29.769880 52.519154 0
M  V30 28 O 41.645878 30.545455 62.568692 0
M  V30 29 C 37.045989 34.660815 58.810907 0
M  V30 30 C 38.314725 36.736477 61.590669 0
M  V30 31 C 39.232331 28.477041 57.992596 0
M  V30 32 C 39.757120 27.008703 54.358661 0
M  V30 33 O 36.816526 38.549557 61.767481 0
M  V30 34 N 37.446190 32.916966 60.721875 0
M  V30 35 C 37.186150 37.352549 62.422527 0
M  V30 36 C 40.341065 30.346689 51.363299 0
M  V30 37 C 40.177020 30.091178 60.699910 0 CFG=2
M  V30 38 C 36.412923 30.119506 58.261337 0 CFG=1
M  V30 39 N 39.239577 25.999268 55.302053 0 CHG=1
M  V30 40 H 39.644982 32.001709 59.637676 0
M  V30 41 H 40.858829 32.181802 60.846357 0
M  V30 42 H 38.225497 26.740657 52.916454 0
M  V30 43 H 38.014323 31.038225 59.147856 0
M  V30 44 H 37.246526 32.107332 58.024942 0
M  V30 45 H 35.542120 32.595891 59.831583 0
M  V30 46 H 36.128713 31.309652 60.816625 0
M  V30 47 H 37.243715 27.612981 54.997684 0
M  V30 48 H 36.679328 28.356511 53.530724 0
M  V30 49 H 41.300543 28.835174 57.455729 0
M  V30 50 H 38.929192 34.220124 59.937594 0
M  V30 51 H 36.986521 28.394850 57.104199 0
M  V30 52 H 41.910279 30.137911 59.367580 0
M  V30 53 H 35.492632 29.624735 59.826882 0
M  V30 54 H 35.560932 40.137099 61.845622 0
M  V30 55 H 34.759727 38.570791 62.069083 0
M  V30 56 H 35.719344 39.282305 63.381286 0
M  V30 57 H 36.777831 31.057141 55.945062 0
M  V30 58 H 37.744142 30.423199 53.956486 0
M  V30 59 H 38.877925 29.727446 55.095640 0
M  V30 60 H 36.119958 35.338558 60.744081 0
M  V30 61 H 42.273568 27.649149 59.341593 0
M  V30 62 H 40.597658 27.348184 60.023903 0
M  V30 63 H 40.099842 27.735647 62.020584 0
M  V30 64 H 41.268812 28.071065 63.319026 0
M  V30 65 H 39.645136 28.760333 63.367886 0
M  V30 66 H 38.861693 27.240863 50.520589 0
M  V30 67 H 39.988592 30.216358 53.492817 0
M  V30 68 H 37.641738 35.037281 57.985358 0
M  V30 69 H 36.104087 34.209578 58.510340 0
M  V30 70 H 38.694836 35.830679 62.064062 0
M  V30 71 H 39.150909 37.434205 61.548195 0
M  V30 72 H 40.532640 26.525541 53.759938 0
M  V30 73 H 40.224512 27.784421 54.971012 0
M  V30 74 H 36.343550 36.670847 62.527870 0
M  V30 75 H 37.540048 37.581298 63.427730 0
M  V30 76 H 40.840351 31.300375 51.237771 0
M  V30 77 H 39.211182 29.582632 60.671857 0
M  V30 78 H 35.382225 30.137747 57.928747 0
M  V30 79 H 40.015407 25.570048 55.788333 0
M  V30 80 H 38.644262 26.446881 55.988366 0
M  V30 81 H 38.719205 25.293395 54.801193 0
M  V30 END ATOM
M  V30 BEGIN BOND
M  V30 1 1 4 3
M  V30 2 1 6 2
M  V30 3 1 10 2
M  V30 4 1 11 7
M  V30 5 1 14 8
M  V30 6 1 18 11
M  V30 7 1 19 6
M  V30 8 1 19 18
M  V30 9 1 20 9
M  V30 10 1 21 1
M  V30 11 2 21 13
M  V30 12 2 21 17
M  V30 13 1 22 20
M  V30 14 1 23 8
M  V30 15 1 23 14
M  V30 16 1 24 12
M  V30 17 2 25 10
M  V30 18 1 26 25
M  V30 19 1 27 10
M  V30 20 2 28 12
M  V30 21 1 29 9
M  V30 22 1 29 20
M  V30 23 1 30 22
M  V30 24 2 31 5
M  V30 25 1 31 7
M  V30 26 1 31 8
M  V30 27 1 32 2
M  V30 28 1 33 16
M  V30 29 1 34 4
M  V30 30 1 34 9
M  V30 31 1 34 21
M  V30 32 1 35 30
M  V30 33 1 35 33
M  V30 34 1 36 26
M  V30 35 2 36 27
M  V30 36 1 37 1
M  V30 37 1 37 12
M  V30 38 1 37 14
M  V30 39 1 38 3
M  V30 40 1 38 11
M  V30 41 1 38 15
M  V30 42 1 39 32
M  V30 43 1 40 1
M  V30 44 1 41 1
M  V30 45 1 2 42 CFG=3
M  V30 46 1 43 3
M  V30 47 1 44 3
M  V30 48 1 45 4
M  V30 49 1 46 4
M  V30 50 1 47 6
M  V30 51 1 48 6
M  V30 52 1 8 49 CFG=3
M  V30 53 1 9 50 CFG=3
M  V30 54 1 11 51 CFG=3
M  V30 55 1 14 52 CFG=3
M  V30 56 1 53 15
M  V30 57 1 54 16
M  V30 58 1 55 16
M  V30 59 1 56 16
M  V30 60 1 57 18
M  V30 61 1 58 19
M  V30 62 1 59 19
M  V30 63 1 20 60 CFG=1
M  V30 64 1 61 23
M  V30 65 1 62 23
M  V30 66 1 63 24
M  V30 67 1 64 24
M  V30 68 1 65 24
M  V30 69 1 66 25
M  V30 70 1 67 27
M  V30 71 1 68 29
M  V30 72 1 69 29
M  V30 73 1 70 30
M  V30 74 1 71 30
M  V30 75 1 72 32
M  V30 76 1 73 32
M  V30 77 1 74 35
M  V30 78 1 75 35
M  V30 79 1 76 36
M  V30 80 1 37 77 CFG=1
M  V30 81 1 38 78 CFG=3
M  V30 82 1 79 39
M  V30 83 1 80 39
M  V30 84 1 81 39
M  V30 END BOND
M  V30 END CTAB
M  END
>  <i_epik_Tot_Q>  (1) 
1

>  <i_epik_Tot_abs_Q>  (1) 
1

>  <i_i_glide_confnum>  (1) 
420

>  <i_i_glide_lignum>  (1) 
73

>  <i_i_glide_posenum>  (1) 
29

>  <i_i_glide_rotatable_bonds>  (1) 
13

>  <i_lp_mmshare_version>  (1) 
72125

>  <i_m_source_file_index>  (1) 
35

>  <i_f3d_flags>  (1) 
0

>  <num_sample>  (1) 
50

>  <b_lp_Chiralities_Consistent>  (1) 
1

>  <r_epik_Charging_Adjusted_Penalty>  (1) 
0.090149450246829993

>  <r_epik_Ionization_Penalty>  (1) 
0.090149516537110494

>  <r_epik_Ionization_Penalty_Charging>  (1) 
0.0016683723163481864

>  <r_epik_Ionization_Penalty_Neutral>  (1) 
0.088481144220762309

>  <r_epik_State_Penalty>  (1) 
0.088481077930481808

>  <r_glide_ring_energy>  (1) 
0

>  <r_i_docking_score>  (1) 
-7.4346238258392869

>  <r_i_glide_ecoul>  (1) 
-8.2132127285853151

>  <r_i_glide_eff_state_penalty>  (1) 
0.088481077930481808

>  <r_i_glide_einternal>  (1) 
14.598257047687396

>  <r_i_glide_emodel>  (1) 
-36.539421816073769

>  <r_i_glide_emodel_strain>  (1) 
3.9399960105375698

>  <r_i_glide_energy>  (1) 
-36.438503051392487

>  <r_i_glide_erotb>  (1) 
0.37606535851870204

>  <r_i_glide_esite>  (1) 
-0.11305269002886674

>  <r_i_glide_evdw>  (1) 
-28.225290322807172

>  <r_i_glide_gscore>  (1) 
-7.5231049037697684

>  <r_i_glide_gscore_strain>  (1) 
0

>  <r_i_glide_hbond>  (1) 
-0.38496850275934835

>  <r_i_glide_ligand_efficiency>  (1) 
-0.1906313801497253

>  <r_i_glide_ligand_efficiency_ln>  (1) 
-1.5941943926075006

>  <r_i_glide_ligand_efficiency_sa>  (1) 
-0.64647131776133226

>  <r_i_glide_lipo>  (1) 
-3.7351907325225406

>  <r_i_glide_metal>  (1) 
-0

>  <r_i_glide_rewards>  (1) 
-1.0227119115495586

>  <r_lp_Energy>  (1) 
30.250912

>  <r_lp_tautomer_probability>  (1) 
0.9999999700000004

>  <s_epik_Chemistry_Notes>  (1) 
This compound has an ester and may undergo hydrolysis at high or low pH. This compound contains an acetal/aminal-like group ( X-CH(R)-Y where X, Y are N, S, or O) that may be acid/base labile, releasing an aldehyde.

>  <s_epik_cmdline>  (1) 
J2VwaWtfcHl0aG9uJywgJy1waHQnLCAnMS4wJywgJy1waCcsICc3LjQnLCAnLXRuJywgJzgnLCAnLW1hJywgJzUwMCcsICctaW1hZScsICc8aW5maWxlLm1hZT4nLCAnLW9tYWUnLCAnPG91dGZpbGUubWFlPic=

>  <s_epik_input>  (1) 
W0NIM11PW0NIMl1bQ0gyXU9bQ0BASF0oW0NIMl0xKVtDSF0xTihTKD1PKSg9TylbQ0gyXVtDQEhdKEMoPU8pW0NIM10pW0NASF0oW0NIXTIzKVtDSDJdMilbQ0gyXVtDSDJdW0NASF0oW09IXSlbQ0BIXShPQzM9TylbTkhdW0NIMl1bQ0gyXVtDQEhdKFtDSDJdW05IMl0pYzRbY0hdc1tjSF1bY0hdNA==

>  <s_glide_docking_method>  (1) 
confgen

>  <s_i_glide_gridfile>  (1) 
gpcr_5ht2c_6bqh_protein_autoprepared_prepared

>  <s_lp_Force_Field>  (1) 
S-OPLS

>  <s_lp_Variant>  (1) 
DiffSBDD_34-1

>  <s_m_source_file>  (1) 
generated_GPCR_5HT2C_ligand_DiffSBDD_2026-06-23_prepared.sdf

>  <GenAI_Model>  (1) 
DiffSBDD

>  <Protein>  (1) 
GPCR_5HT2C

$$$$
DiffSBDD_46
     RDKit          3D

  0  0  0  0  0  0  0  0  0  0999 V3000
M  V30 BEGIN CTAB
M  V30 COUNTS 54 56 0 0 1
M  V30 BEGIN ATOM
M  V30 1 C 37.300484 27.211928 53.958533 0
M  V30 2 C 38.418803 27.975544 54.622483 0 CFG=1
M  V30 3 C 37.485849 30.864590 59.549789 0
M  V30 4 C 39.821943 28.769354 51.723026 0
M  V30 5 C 37.178280 37.148980 62.857562 0
M  V30 6 C 39.336702 27.332691 55.668324 0 CFG=2
M  V30 7 C 38.290707 24.288611 57.303637 0
M  V30 8 C 38.134485 29.535164 59.132450 0
M  V30 9 O 39.106966 25.932565 55.768540 0
M  V30 10 C 37.429814 35.880822 60.838374 0
M  V30 11 O 36.064093 36.521126 58.967804 0
M  V30 12 C 38.443522 28.321769 52.219860 0
M  V30 13 C 40.198048 30.848774 50.349555 0
M  V30 14 C 36.847498 35.593861 59.586656 0
M  V30 15 C 39.726155 29.598253 50.462147 0
M  V30 16 N 38.619433 26.657628 57.867381 0
M  V30 17 N 38.594570 27.364871 53.311484 0
M  V30 18 S 38.033223 29.250377 57.343777 0
M  V30 19 C 38.260917 34.918041 61.459615 0
M  V30 20 C 37.079314 34.351927 58.967818 0
M  V30 21 O 37.188775 37.098805 61.437825 0
M  V30 22 C 38.677019 25.723633 57.034295 0
M  V30 23 C 38.171770 32.073417 58.897502 0
M  V30 24 C 37.905200 33.397048 59.584475 0
M  V30 25 C 39.120026 27.802883 57.146456 0 CFG=2
M  V30 26 C 38.497412 33.679865 60.831921 0
M  V30 27 H 37.052359 26.230976 54.357019 0
M  V30 28 H 36.451148 27.777251 53.579336 0
M  V30 29 H 38.382847 29.062882 54.639691 0
M  V30 30 H 36.421376 30.868482 59.309140 0
M  V30 31 H 37.558762 30.946195 60.634926 0
M  V30 32 H 40.322267 29.352289 52.495017 0
M  V30 33 H 40.444970 27.902264 51.509247 0
M  V30 34 H 36.707351 38.081404 63.167546 0
M  V30 35 H 38.185381 37.130912 63.276002 0
M  V30 36 H 36.594985 36.332604 63.286191 0
M  V30 37 H 40.372972 27.505776 55.373614 0
M  V30 38 H 37.644983 24.215471 58.179716 0
M  V30 39 H 39.183936 23.688187 57.475647 0
M  V30 40 H 37.756048 23.876720 56.448079 0
M  V30 41 H 39.182712 29.522133 59.430335 0
M  V30 42 H 37.647530 28.708224 59.645281 0
M  V30 43 H 37.858677 29.197457 52.507330 0
M  V30 44 H 37.904232 27.828692 51.409156 0
M  V30 45 H 40.683346 31.337688 51.181137 0
M  V30 46 H 40.104709 31.398046 49.424117 0
M  V30 47 H 39.245138 29.131698 49.615344 0
M  V30 48 H 38.719047 35.128880 62.412607 0
M  V30 49 H 36.628789 34.134701 58.010013 0
M  V30 50 H 35.937441 36.289928 58.045962 0
M  V30 51 H 39.245049 31.924650 58.899536 0
M  V30 52 H 37.881306 32.143930 57.847745 0
M  V30 53 H 40.088198 28.082271 57.565351 0
M  V30 54 H 39.135754 32.948132 61.306308 0
M  V30 END ATOM
M  V30 BEGIN BOND
M  V30 1 1 2 1
M  V30 2 1 6 2
M  V30 3 1 8 3
M  V30 4 1 9 6
M  V30 5 1 12 4
M  V30 6 1 14 10
M  V30 7 1 14 11
M  V30 8 1 15 4
M  V30 9 2 15 13
M  V30 10 1 17 1
M  V30 11 1 17 2
M  V30 12 1 17 12
M  V30 13 1 18 8
M  V30 14 2 19 10
M  V30 15 2 20 14
M  V30 16 1 21 5
M  V30 17 1 21 10
M  V30 18 1 22 7
M  V30 19 1 22 9
M  V30 20 2 22 16
M  V30 21 1 23 3
M  V30 22 1 24 20
M  V30 23 1 24 23
M  V30 24 1 25 6
M  V30 25 1 25 16
M  V30 26 1 25 18
M  V30 27 1 26 19
M  V30 28 2 26 24
M  V30 29 1 27 1
M  V30 30 1 28 1
M  V30 31 1 2 29 CFG=3
M  V30 32 1 30 3
M  V30 33 1 31 3
M  V30 34 1 32 4
M  V30 35 1 33 4
M  V30 36 1 34 5
M  V30 37 1 35 5
M  V30 38 1 36 5
M  V30 39 1 6 37 CFG=3
M  V30 40 1 38 7
M  V30 41 1 39 7
M  V30 42 1 40 7
M  V30 43 1 41 8
M  V30 44 1 42 8
M  V30 45 1 43 12
M  V30 46 1 44 12
M  V30 47 1 45 13
M  V30 48 1 46 13
M  V30 49 1 47 15
M  V30 50 1 48 19
M  V30 51 1 49 20
M  V30 52 1 50 11
M  V30 53 1 51 23
M  V30 54 1 52 23
M  V30 55 1 25 53 CFG=1
M  V30 56 1 54 26
M  V30 END BOND
M  V30 END CTAB
M  END
>  <i_epik_Tot_Q>  (1) 
0

>  <i_epik_Tot_abs_Q>  (1) 
0

>  <i_i_glide_confnum>  (1) 
116

>  <i_i_glide_lignum>  (1) 
97

>  <i_i_glide_posenum>  (1) 
213

>  <i_i_glide_rotatable_bonds>  (1) 
11

>  <i_lp_mmshare_version>  (1) 
72125

>  <i_m_source_file_index>  (1) 
47

>  <i_f3d_flags>  (1) 
0

>  <num_sample>  (1) 
50

>  <b_lp_Chiralities_Consistent>  (1) 
1

>  <r_epik_Charging_Adjusted_Penalty>  (1) 
0.059256753965672836

>  <r_epik_Ionization_Penalty>  (1) 
0.061027430801307576

>  <r_epik_Ionization_Penalty_Charging>  (1) 
0

>  <r_epik_Ionization_Penalty_Neutral>  (1) 
0.061027430801307576

>  <r_epik_State_Penalty>  (1) 
0.059256753965672836

>  <r_glide_ring_energy>  (1) 
0

>  <r_i_docking_score>  (1) 
-7.431002624794214

>  <r_i_glide_ecoul>  (1) 
-6.0050001849078427

>  <r_i_glide_eff_state_penalty>  (1) 
0.059256753965672836

>  <r_i_glide_einternal>  (1) 
3.9500231678347104

>  <r_i_glide_emodel>  (1) 
-63.233618413694764

>  <r_i_glide_emodel_strain>  (1) 
0.56739990758327963

>  <r_i_glide_energy>  (1) 
-47.060404885548579

>  <r_i_glide_erotb>  (1) 
1.2289544219816615

>  <r_i_glide_esite>  (1) 
0

>  <r_i_glide_evdw>  (1) 
-41.055404700640736

>  <r_i_glide_gscore>  (1) 
-7.4902593787598866

>  <r_i_glide_gscore_strain>  (1) 
0

>  <r_i_glide_hbond>  (1) 
-0.32000000000000001

>  <r_i_glide_ligand_efficiency>  (1) 
-0.28580779326131595

>  <r_i_glide_ligand_efficiency_ln>  (1) 
-1.7451465833245337

>  <r_i_glide_ligand_efficiency_sa>  (1) 
-0.84670446385683518

>  <r_i_glide_lipo>  (1) 
-3.4273509472692392

>  <r_i_glide_metal>  (1) 
-0

>  <r_i_glide_rewards>  (1) 
-2.0183425907040942

>  <r_lp_Energy>  (1) 
9.3116819999999993

>  <r_lp_tautomer_probability>  (1) 
0.99960115913750414

>  <s_epik_Chemistry_Notes>  (1) 
This compound has an imine and may undergo hydrolysis. This compound contains an acetal/aminal-like group ( X-CH(R)-Y where X, Y are N, S, or O) that may be acid/base labile, releasing an aldehyde.

>  <s_epik_cmdline>  (1) 
J2VwaWtfcHl0aG9uJywgJy1waHQnLCAnMS4wJywgJy1waCcsICc3LjQnLCAnLXRuJywgJzgnLCAnLW1hJywgJzUwMCcsICctaW1hZScsICc8aW5maWxlLm1hZT4nLCAnLW9tYWUnLCAnPG91dGZpbGUubWFlPic=

>  <s_epik_input>  (1) 
W0NIMl09W0NIXVtDSDJdW0NIMl1OMVtDSDJdW0NASF0xW0NAQEhdMk9DKFtDSDNdKT1OW0NAQEhdMlNbQ0gyXVtDSDJdW0NIMl1DKFtDSDJdQzM9Tyk9W0NIXVtDSF09QzNPW0NIM10=

>  <s_glide_docking_method>  (1) 
confgen

>  <s_i_glide_gridfile>  (1) 
gpcr_5ht2c_6bqh_protein_autoprepared_prepared

>  <s_lp_Force_Field>  (1) 
S-OPLS

>  <s_lp_Variant>  (1) 
DiffSBDD_46-1

>  <s_m_source_file>  (1) 
generated_GPCR_5HT2C_ligand_DiffSBDD_2026-06-23_prepared.sdf

>  <GenAI_Model>  (1) 
DiffSBDD

>  <Protein>  (1) 
GPCR_5HT2C

$$$$
DiffSBDD_0
     RDKit          3D

  0  0  0  0  0  0  0  0  0  0999 V3000
M  V30 BEGIN CTAB
M  V30 COUNTS 73 75 0 0 1
M  V30 BEGIN ATOM
M  V30 1 C 40.186379 30.838745 50.901879 0
M  V30 2 C 39.258027 27.238724 52.266393 0
M  V30 3 O 39.974932 37.310380 61.782009 0
M  V30 4 C 39.502438 30.000063 53.154170 0
M  V30 5 C 38.347014 30.695374 59.608170 0 CFG=2
M  V30 6 C 38.480138 32.008523 56.997976 0
M  V30 7 C 39.086329 35.171016 62.273734 0
M  V30 8 C 37.841509 35.260745 61.345774 0 CFG=1
M  V30 9 C 36.845092 37.495603 60.730100 0
M  V30 10 C 37.081837 33.921703 61.207837 0
M  V30 11 N 37.939694 32.916860 60.595427 0
M  V30 12 O 38.768568 29.728268 60.568576 0
M  V30 13 C 39.802551 28.328426 51.308751 0
M  V30 14 C 36.817484 36.937572 63.017560 0
M  V30 15 C 38.970844 29.193892 55.542772 0 CFG=1
M  V30 16 C 37.289087 31.671259 60.182347 0
M  V30 17 C 39.082492 27.699756 53.704997 0
M  V30 18 C 38.836948 27.664286 55.995182 0
M  V30 19 C 37.934800 29.917627 58.325248 0 CFG=1
M  V30 20 C 40.199293 36.082045 61.768979 0
M  V30 21 N 36.874094 36.351543 61.661353 0 CHG=1
M  V30 22 C 35.835369 38.101109 62.875805 0
M  V30 23 F 40.045318 30.460971 49.638485 0
M  V30 24 C 39.175486 28.946484 54.091075 0
M  V30 25 C 39.797660 29.743403 51.868623 0
M  V30 26 O 36.782277 29.337696 58.532391 0 CHG=-1
M  V30 27 N 37.685246 30.759029 57.114133 0 CFG=2 CHG=1
M  V30 28 C 38.809606 26.682939 54.748547 0 CFG=1
M  V30 29 C 37.689604 30.015096 55.823772 0
M  V30 30 C 39.468438 30.237573 61.693937 0
M  V30 31 O 41.245040 35.530926 61.369457 0 CHG=-1
M  V30 32 O 37.558905 26.063347 54.567976 0
M  V30 33 C 35.954237 38.536967 61.414538 0
M  V30 34 H 39.601344 31.738909 51.058319 0
M  V30 35 H 41.240720 31.078257 51.029972 0
M  V30 36 H 39.892654 26.354369 52.229333 0
M  V30 37 H 38.271302 26.935571 51.915867 0
M  V30 38 H 39.535268 31.022396 53.504752 0
M  V30 39 H 39.244002 31.256013 59.355343 0
M  V30 40 H 39.548509 31.797203 56.965340 0
M  V30 41 H 38.215430 32.550598 56.089320 0
M  V30 42 H 38.285107 32.697066 57.817594 0
M  V30 43 H 38.878508 35.390890 63.318924 0
M  V30 44 H 39.484874 34.155881 62.275945 0
M  V30 45 H 38.200945 35.469436 60.334667 0
M  V30 46 H 37.846163 37.901722 60.587631 0
M  V30 47 H 36.462258 37.207469 59.751062 0
M  V30 48 H 36.207782 34.075150 60.572077 0
M  V30 49 H 36.706263 33.568509 62.167280 0
M  V30 50 H 38.441946 33.321209 59.811835 0
M  V30 51 H 39.242950 28.288718 50.373380 0
M  V30 52 H 40.843712 28.137564 51.055344 0
M  V30 53 H 36.488548 36.219089 63.768804 0
M  V30 54 H 37.785439 37.347881 63.310878 0
M  V30 55 H 39.867692 29.663828 55.947297 0
M  V30 56 H 36.540495 31.892557 59.419303 0
M  V30 57 H 36.757880 31.203401 61.011564 0
M  V30 58 H 37.974491 27.500556 56.642638 0
M  V30 59 H 39.704630 27.412925 56.606707 0
M  V30 60 H 38.830139 29.335281 58.122348 0
M  V30 61 H 34.819741 37.757498 63.077968 0
M  V30 62 H 36.043884 38.922500 63.557507 0
M  V30 63 H 39.607497 25.940323 54.792653 0
M  V30 64 H 37.493569 30.724346 55.018463 0
M  V30 65 H 36.845094 29.340003 55.805184 0
M  V30 66 H 39.798546 29.404960 62.316137 0
M  V30 67 H 40.351130 30.803741 61.393516 0
M  V30 68 H 38.834287 30.874913 62.310334 0
M  V30 69 H 36.896369 26.734819 54.508221 0
M  V30 70 H 34.964384 38.537674 60.963555 0
M  V30 71 H 36.374815 39.540369 61.330054 0
M  V30 72 H 35.976240 35.909975 61.542056 0
M  V30 73 H 36.712743 31.076949 57.209825 0
M  V30 END ATOM
M  V30 BEGIN BOND
M  V30 1 1 8 7
M  V30 2 1 10 8
M  V30 3 1 11 10
M  V30 4 1 12 5
M  V30 5 1 13 2
M  V30 6 1 16 5
M  V30 7 1 16 11
M  V30 8 1 17 2
M  V30 9 1 18 15
M  V30 10 1 19 5
M  V30 11 2 20 3
M  V30 12 1 20 7
M  V30 13 1 21 8
M  V30 14 1 21 9
M  V30 15 1 21 14
M  V30 16 1 22 14
M  V30 17 1 23 1
M  V30 18 1 24 4
M  V30 19 1 24 15
M  V30 20 2 24 17
M  V30 21 1 25 1
M  V30 22 2 25 4
M  V30 23 1 25 13
M  V30 24 1 26 19
M  V30 25 1 27 6
M  V30 26 1 27 19
M  V30 27 1 28 17
M  V30 28 1 28 18
M  V30 29 1 29 15
M  V30 30 1 29 27
M  V30 31 1 30 12
M  V30 32 1 31 20
M  V30 33 1 32 28
M  V30 34 1 33 9
M  V30 35 1 33 22
M  V30 36 1 34 1
M  V30 37 1 35 1
M  V30 38 1 36 2
M  V30 39 1 37 2
M  V30 40 1 38 4
M  V30 41 1 5 39 CFG=3
M  V30 42 1 40 6
M  V30 43 1 41 6
M  V30 44 1 42 6
M  V30 45 1 43 7
M  V30 46 1 44 7
M  V30 47 1 8 45 CFG=3
M  V30 48 1 46 9
M  V30 49 1 47 9
M  V30 50 1 48 10
M  V30 51 1 49 10
M  V30 52 1 50 11
M  V30 53 1 51 13
M  V30 54 1 52 13
M  V30 55 1 53 14
M  V30 56 1 54 14
M  V30 57 1 15 55 CFG=1
M  V30 58 1 56 16
M  V30 59 1 57 16
M  V30 60 1 58 18
M  V30 61 1 59 18
M  V30 62 1 19 60 CFG=3
M  V30 63 1 61 22
M  V30 64 1 62 22
M  V30 65 1 28 63 CFG=1
M  V30 66 1 64 29
M  V30 67 1 65 29
M  V30 68 1 66 30
M  V30 69 1 67 30
M  V30 70 1 68 30
M  V30 71 1 69 32
M  V30 72 1 70 33
M  V30 73 1 71 33
M  V30 74 1 72 21
M  V30 75 1 27 73 CFG=1
M  V30 END BOND
M  V30 END CTAB
M  END
>  <i_epik_Tot_Q>  (1) 
0

>  <i_epik_Tot_abs_Q>  (1) 
4

>  <i_i_glide_confnum>  (1) 
849

>  <i_i_glide_lignum>  (1) 
1

>  <i_i_glide_posenum>  (1) 
238

>  <i_i_glide_rotatable_bonds>  (1) 
14

>  <i_lp_mmshare_version>  (1) 
72125

>  <i_m_source_file_index>  (1) 
1

>  <i_f3d_flags>  (1) 
0

>  <num_sample>  (1) 
50

>  <b_lp_Chiralities_Consistent>  (1) 
1

>  <r_epik_Charging_Adjusted_Penalty>  (1) 
0.35910314693592993

>  <r_epik_Ionization_Penalty>  (1) 
0.058337682991089858

>  <r_epik_Ionization_Penalty_Charging>  (1) 
0.0030320954189955646

>  <r_epik_Ionization_Penalty_Neutral>  (1) 
0.055305587572094292

>  <r_epik_State_Penalty>  (1) 
0.35607105151693436

>  <r_glide_ring_energy>  (1) 
0

>  <r_i_docking_score>  (1) 
-7.4308677655670827

>  <r_i_glide_ecoul>  (1) 
-4.13225502806542

>  <r_i_glide_eff_state_penalty>  (1) 
0.35607105151693436

>  <r_i_glide_einternal>  (1) 
9.2439685508310738

>  <r_i_glide_emodel>  (1) 
-63.293798469939901

>  <r_i_glide_emodel_strain>  (1) 
2.3052965005794732

>  <r_i_glide_energy>  (1) 
-43.696707783296716

>  <r_i_glide_erotb>  (1) 
0.82434179411086872

>  <r_i_glide_esite>  (1) 
-0.13757337743730733

>  <r_i_glide_evdw>  (1) 
-39.564452755231294

>  <r_i_glide_gscore>  (1) 
-7.7869388170840175

>  <r_i_glide_gscore_strain>  (1) 
0

>  <r_i_glide_hbond>  (1) 
-0.20000000000000001

>  <r_i_glide_ligand_efficiency>  (1) 
-0.22517781107779039

>  <r_i_glide_ligand_efficiency_ln>  (1) 
-1.6525865160879654

>  <r_i_glide_ligand_efficiency_sa>  (1) 
-0.72226555938532722

>  <r_i_glide_lipo>  (1) 
-3.8705619026990075

>  <r_i_glide_metal>  (1) 
-0

>  <r_i_glide_rewards>  (1) 
-1.8050844390871932

>  <r_lp_Energy>  (1) 
41.770188999999995

>  <s_epik_Chemistry_Notes>  (1) 
This compound contains an acetal/aminal-like group ( X-CH(R)-Y where X, Y are N, S, or O) that may be acid/base labile, releasing an aldehyde.

>  <s_epik_cmdline>  (1) 
J2VwaWtfcHl0aG9uJywgJy1waHQnLCAnMS4wJywgJy1waCcsICc3LjQnLCAnLXRuJywgJzgnLCAnLW1hJywgJzUwMCcsICctaW1hZScsICc8aW5maWxlLm1hZT4nLCAnLW9tYWUnLCAnPG91dGZpbGUubWFlPic=

>  <s_epik_input>  (1) 
W0NIMl0xW0NIMl1DKFtDSDJdRik9W0NIXUMoPUMxMilbQ0BIXShbQ0gyXVtDQEhdMltPSF0pW0NIMl1OKFtDSDNdKVtDQEhdKFtPSF0pW0NASF0oT1tDSDNdKVtDSDJdW05IXVtDSDJdW0NASF0oW0NIMl1DKD1PKVtPSF0pTjNbQ0gyXVtDSDJdW0NIMl1bQ0gyXTM=

>  <s_glide_docking_method>  (1) 
confgen

>  <s_i_glide_gridfile>  (1) 
gpcr_5ht2c_6bqh_protein_autoprepared_prepared

>  <s_lp_Force_Field>  (1) 
S-OPLS

>  <s_lp_Variant>  (1) 
DiffSBDD_0-1

>  <s_m_source_file>  (1) 
generated_GPCR_5HT2C_ligand_DiffSBDD_2026-06-23_prepared.sdf

>  <GenAI_Model>  (1) 
DiffSBDD

>  <Protein>  (1) 
GPCR_5HT2C

$$$$
DiffSBDD_29
     RDKit          3D

  0  0  0  0  0  0  0  0  0  0999 V3000
M  V30 BEGIN CTAB
M  V30 COUNTS 78 81 0 0 1
M  V30 BEGIN ATOM
M  V30 1 C 39.006177 30.347061 57.464697 0 CFG=1
M  V30 2 C 41.719284 35.737690 63.112695 0
M  V30 3 C 39.372159 36.550011 63.682517 0
M  V30 4 C 38.698819 26.694290 56.334455 0
M  V30 5 C 40.590904 36.748233 62.906245 0 CFG=2
M  V30 6 C 38.100242 33.038498 55.291715 0
M  V30 7 C 38.154070 35.192826 60.811972 0
M  V30 8 C 40.668584 35.964806 65.897770 0
M  V30 9 N 36.948143 32.850750 59.724800 0
M  V30 10 O 40.010979 36.537717 61.547892 0
M  V30 11 C 37.317134 24.286535 55.854571 0
M  V30 12 C 41.224780 34.630903 65.374642 0
M  V30 13 C 36.801481 36.708939 59.246303 0
M  V30 14 N 35.079745 33.075653 60.968821 0
M  V30 15 N 38.444395 29.040610 57.045422 0 CFG=2 CHG=1
M  V30 16 C 41.336157 34.449904 63.858726 0
M  V30 17 C 36.645386 34.147691 59.064826 0
M  V30 18 C 36.173812 32.353644 60.735505 0
M  V30 19 N 38.545129 36.310172 61.643233 0
M  V30 20 C 37.355554 25.285609 54.863931 0
M  V30 21 C 39.544820 31.154079 56.250541 0
M  V30 22 C 37.858840 31.014707 58.253104 0 CFG=1
M  V30 23 C 37.554627 28.593867 58.135627 0
M  V30 24 C 38.046055 26.489063 55.101594 0
M  V30 25 C 39.423474 36.602113 65.207596 0
M  V30 26 C 38.666075 25.687650 57.324093 0
M  V30 27 C 37.092680 29.836894 58.866467 0
M  V30 28 O 36.445385 31.337879 61.367729 0
M  V30 29 C 36.857629 35.372798 60.006622 0 CFG=1
M  V30 30 C 39.417598 28.005018 56.606576 0
M  V30 31 C 38.532094 31.571792 55.166843 0
M  V30 32 C 38.336887 36.331475 62.967524 0
M  V30 33 O 41.569412 33.739973 66.147714 0
M  V30 34 C 38.175298 32.143445 59.270762 0
M  V30 35 C 37.974191 24.487351 57.083738 0
M  V30 36 H 39.822725 30.137806 58.156558 0
M  V30 37 H 42.562417 36.219441 63.608204 0
M  V30 38 H 42.045136 35.465625 62.111883 0
M  V30 39 H 40.845135 37.782746 62.970550 0
M  V30 40 H 37.519365 33.337930 54.420605 0
M  V30 41 H 37.483784 33.207751 56.170902 0
M  V30 42 H 38.956285 33.708141 55.367900 0
M  V30 43 H 38.976696 34.981595 60.129627 0
M  V30 44 H 38.082235 34.322344 61.463103 0
M  V30 45 H 41.508749 36.648475 65.872231 0
M  V30 46 H 40.445453 35.836923 66.956908 0
M  V30 47 H 36.785846 23.363553 55.670690 0
M  V30 48 H 37.643964 36.825400 58.567884 0
M  V30 49 H 35.886535 36.792774 58.660218 0
M  V30 50 H 36.821252 37.554290 59.934425 0
M  V30 51 H 34.893081 33.897936 60.414899 0
M  V30 52 H 34.437382 32.794138 61.692699 0
M  V30 53 H 42.102194 33.695348 63.679265 0
M  V30 54 H 40.404251 34.040045 63.467733 0
M  V30 55 H 35.635861 34.140454 58.650078 0
M  V30 56 H 37.289188 34.266063 58.194179 0
M  V30 57 H 36.852031 25.129782 53.921217 0
M  V30 58 H 40.045117 32.054983 56.595832 0
M  V30 59 H 40.324939 30.572083 55.762087 0
M  V30 60 H 37.245140 31.459047 57.489735 0
M  V30 61 H 38.115103 27.974417 58.837488 0
M  V30 62 H 36.718449 28.002821 57.767775 0
M  V30 63 H 38.069861 27.256060 54.341123 0
M  V30 64 H 39.404532 37.657361 65.482464 0
M  V30 65 H 38.509200 36.186529 65.627223 0
M  V30 66 H 39.164721 25.840449 58.269791 0
M  V30 67 H 37.355414 29.693105 59.911748 0
M  V30 68 H 36.013075 29.982250 58.798547 0
M  V30 69 H 36.045162 35.409896 60.727038 0
M  V30 70 H 39.933588 28.324732 55.702315 0
M  V30 71 H 40.181623 27.855230 57.372247 0
M  V30 72 H 39.005696 31.453050 54.191705 0
M  V30 73 H 37.657310 30.920635 55.151902 0
M  V30 74 H 37.333723 36.137759 63.314754 0
M  V30 75 H 38.861081 32.855534 58.810390 0
M  V30 76 H 38.717673 31.740157 60.128361 0
M  V30 77 H 37.946076 23.717513 57.842730 0
M  V30 78 H 37.836984 29.241263 56.263196 0
M  V30 END ATOM
M  V30 BEGIN BOND
M  V30 1 1 5 2
M  V30 2 1 5 3
M  V30 3 1 10 5
M  V30 4 1 12 8
M  V30 5 1 15 1
M  V30 6 1 16 2
M  V30 7 1 16 12
M  V30 8 1 17 9
M  V30 9 1 18 9
M  V30 10 1 18 14
M  V30 11 1 19 7
M  V30 12 1 19 10
M  V30 13 2 20 11
M  V30 14 1 21 1
M  V30 15 1 22 1
M  V30 16 1 23 15
M  V30 17 2 24 4
M  V30 18 1 24 20
M  V30 19 1 25 3
M  V30 20 1 25 8
M  V30 21 1 26 4
M  V30 22 1 27 22
M  V30 23 1 27 23
M  V30 24 2 28 18
M  V30 25 1 29 7
M  V30 26 1 29 13
M  V30 27 1 29 17
M  V30 28 1 30 4
M  V30 29 1 30 15
M  V30 30 1 31 6
M  V30 31 1 31 21
M  V30 32 2 32 3
M  V30 33 1 32 19
M  V30 34 2 33 12
M  V30 35 1 34 9
M  V30 36 1 34 22
M  V30 37 1 35 11
M  V30 38 2 35 26
M  V30 39 1 1 36 CFG=1
M  V30 40 1 37 2
M  V30 41 1 38 2
M  V30 42 1 5 39 CFG=3
M  V30 43 1 40 6
M  V30 44 1 41 6
M  V30 45 1 42 6
M  V30 46 1 43 7
M  V30 47 1 44 7
M  V30 48 1 45 8
M  V30 49 1 46 8
M  V30 50 1 47 11
M  V30 51 1 48 13
M  V30 52 1 49 13
M  V30 53 1 50 13
M  V30 54 1 51 14
M  V30 55 1 52 14
M  V30 56 1 53 16
M  V30 57 1 54 16
M  V30 58 1 55 17
M  V30 59 1 56 17
M  V30 60 1 57 20
M  V30 61 1 58 21
M  V30 62 1 59 21
M  V30 63 1 22 60 CFG=3
M  V30 64 1 61 23
M  V30 65 1 62 23
M  V30 66 1 63 24
M  V30 67 1 64 25
M  V30 68 1 65 25
M  V30 69 1 66 26
M  V30 70 1 67 27
M  V30 71 1 68 27
M  V30 72 1 29 69 CFG=1
M  V30 73 1 70 30
M  V30 74 1 71 30
M  V30 75 1 72 31
M  V30 76 1 73 31
M  V30 77 1 74 32
M  V30 78 1 75 34
M  V30 79 1 76 34
M  V30 80 1 77 35
M  V30 81 1 15 78 CFG=3
M  V30 END BOND
M  V30 END CTAB
M  END
>  <i_epik_Tot_Q>  (1) 
1

>  <i_epik_Tot_abs_Q>  (1) 
1

>  <i_i_glide_confnum>  (1) 
589

>  <i_i_glide_lignum>  (1) 
65

>  <i_i_glide_posenum>  (1) 
366

>  <i_i_glide_rotatable_bonds>  (1) 
11

>  <i_lp_mmshare_version>  (1) 
72125

>  <i_m_source_file_index>  (1) 
30

>  <i_f3d_flags>  (1) 
0

>  <num_sample>  (1) 
50

>  <b_lp_Chiralities_Consistent>  (1) 
1

>  <r_epik_Charging_Adjusted_Penalty>  (1) 
0.034972120206071468

>  <r_epik_Ionization_Penalty>  (1) 
0.01911812601903189

>  <r_epik_Ionization_Penalty_Charging>  (1) 
0.017486060103035727

>  <r_epik_Ionization_Penalty_Neutral>  (1) 
0.0016320659159961622

>  <r_epik_State_Penalty>  (1) 
0.017486060103035741

>  <r_glide_ring_energy>  (1) 
0

>  <r_i_docking_score>  (1) 
-7.4214924336513075

>  <r_i_glide_ecoul>  (1) 
-6.6177633956044115

>  <r_i_glide_eff_state_penalty>  (1) 
0.017486060103035741

>  <r_i_glide_einternal>  (1) 
9.4616563004045595

>  <r_i_glide_emodel>  (1) 
-71.341664408040316

>  <r_i_glide_emodel_strain>  (1) 
2.0906419832397773

>  <r_i_glide_energy>  (1) 
-52.849423484947962

>  <r_i_glide_erotb>  (1) 
0.69426181123573816

>  <r_i_glide_esite>  (1) 
-0.078367973424353754

>  <r_i_glide_evdw>  (1) 
-46.231660089343549

>  <r_i_glide_gscore>  (1) 
-7.4389784937543428

>  <r_i_glide_gscore_strain>  (1) 
0

>  <r_i_glide_hbond>  (1) 
-0.32000000000000001

>  <r_i_glide_ligand_efficiency>  (1) 
-0.21204264096146594

>  <r_i_glide_ligand_efficiency_ln>  (1) 
-1.629182300336625

>  <r_i_glide_ligand_efficiency_sa>  (1) 
-0.69360553917246637

>  <r_i_glide_lipo>  (1) 
-3.0973055032740642

>  <r_i_glide_metal>  (1) 
-0

>  <r_i_glide_rewards>  (1) 
-1.3333193144838247

>  <r_lp_Energy>  (1) 
27.773861999999998

>  <r_lp_tautomer_probability>  (1) 
0.99999998000000001

>  <s_epik_Chemistry_Notes>  (1) 
This compound has a N-S or N-O group and may undergo hydrolysis at high or low pH.

>  <s_epik_cmdline>  (1) 
J2VwaWtfcHl0aG9uJywgJy1waHQnLCAnMS4wJywgJy1waCcsICc3LjQnLCAnLXRuJywgJzgnLCAnLW1hJywgJzUwMCcsICctaW1hZScsICc8aW5maWxlLm1hZT4nLCAnLW9tYWUnLCAnPG91dGZpbGUubWFlPic=

>  <s_epik_input>  (1) 
W2NIXTFbY0hdW2NIXVtjSF1bY0hdYzFbQ0gyXU4oW0NASF0yW0NIMl1bQ0gyXVtDSDNdKVtDSDJdW0NIMl1bQ0BIXTJbQ0gyXU4oQyg9TylbTkgyXSlbQ0gyXVtDQEhdKFtDSDNdKVtDSDJdTihbQ0hdMylPW0NAQEhdKEM9MzQpW0NIMl1bQ0gyXUMoPU8pW0NIMl1bQ0gyXTQ=

>  <s_glide_docking_method>  (1) 
confgen

>  <s_i_glide_gridfile>  (1) 
gpcr_5ht2c_6bqh_protein_autoprepared_prepared

>  <s_lp_Force_Field>  (1) 
S-OPLS

>  <s_lp_Variant>  (1) 
DiffSBDD_29-2

>  <s_m_source_file>  (1) 
generated_GPCR_5HT2C_ligand_DiffSBDD_2026-06-23_prepared.sdf

>  <GenAI_Model>  (1) 
DiffSBDD

>  <Protein>  (1) 
GPCR_5HT2C

$$$$
DiffSBDD_2
     RDKit          3D

  0  0  0  0  0  0  0  0  0  0999 V3000
M  V30 BEGIN CTAB
M  V30 COUNTS 85 88 0 0 1
M  V30 BEGIN ATOM
M  V30 1 C 41.442390 30.091140 65.101667 0 CFG=1
M  V30 2 C 38.845199 28.194155 53.596473 0
M  V30 3 C 36.778411 33.278856 59.084928 0
M  V30 4 C 42.444959 28.630663 63.368930 0
M  V30 5 C 39.106448 29.194968 54.409710 0
M  V30 6 C 40.018014 29.331603 61.428486 0
M  V30 7 C 38.496811 27.910336 56.507749 0 CFG=2
M  V30 8 C 41.711925 28.677289 67.115488 0
M  V30 9 C 39.528365 30.169202 60.218551 0
M  V30 10 C 37.701357 29.957373 57.564783 0 CFG=1
M  V30 11 N 39.001505 29.093208 55.800058 0
M  V30 12 C 42.034361 31.493901 64.833542 0
M  V30 13 C 39.724902 28.833344 50.705447 0
M  V30 14 C 37.765827 28.430297 57.767315 0
M  V30 15 N 37.508055 30.849013 58.763904 0 CFG=1 CHG=1
M  V30 16 C 40.045113 30.769391 52.422357 0
M  V30 17 C 38.746817 27.271660 52.669474 0
M  V30 18 C 38.952162 30.214735 56.725194 0
M  V30 19 C 37.988879 30.322557 60.090086 0 CFG=2
M  V30 20 C 39.110966 27.504839 51.187749 0
M  V30 21 C 39.605972 30.562732 53.882896 0
M  V30 22 C 39.109475 25.405587 56.873385 0
M  V30 23 C 40.663931 29.738226 67.416593 0
M  V30 24 C 38.130159 25.149465 58.025351 0
M  V30 25 C 40.512558 30.163360 62.635630 0
M  V30 26 C 39.624206 26.854958 56.731214 0 CFG=2
M  V30 27 C 40.209357 30.210020 66.036068 0
M  V30 28 F 40.045138 28.958822 49.413508 0
M  V30 29 S 43.163256 27.937645 64.864317 0
M  V30 30 C 40.669958 27.216871 57.806843 0
M  V30 31 C 37.423723 31.099588 61.286817 0
M  V30 32 C 39.958635 29.847442 51.496995 0
M  V30 33 C 41.138654 29.319331 63.778569 0 CFG=2
M  V30 34 C 37.784401 32.290079 58.466849 0
M  V30 35 C 42.462075 29.239721 65.909045 0 CFG=1
M  V30 36 H 36.851861 34.244018 58.582276 0
M  V30 37 H 35.750007 32.936628 58.967846 0
M  V30 38 H 36.950521 33.474355 60.139663 0
M  V30 39 H 42.296470 27.845679 62.629162 0
M  V30 40 H 43.152557 29.354278 62.967802 0
M  V30 41 H 39.249129 28.625430 61.746469 0
M  V30 42 H 40.845646 28.714041 61.078513 0
M  V30 43 H 37.734022 27.455329 55.874079 0
M  V30 44 H 41.215017 27.742272 66.851937 0
M  V30 45 H 42.367707 28.479981 67.963974 0
M  V30 46 H 39.911497 29.671932 59.333660 0
M  V30 47 H 40.005353 31.147802 60.229424 0
M  V30 48 H 36.845493 30.144936 56.912087 0
M  V30 49 H 42.334667 31.980190 65.762096 0
M  V30 50 H 42.912547 31.442450 64.190776 0
M  V30 51 H 41.309381 32.155035 64.359105 0
M  V30 52 H 38.325382 28.133601 58.648148 0
M  V30 53 H 36.772516 27.997490 57.861023 0
M  V30 54 H 40.443744 31.737748 52.183821 0
M  V30 55 H 38.420795 26.275789 52.926422 0
M  V30 56 H 39.865522 30.221290 57.314592 0
M  V30 57 H 38.894214 31.173827 56.217138 0
M  V30 58 H 37.537684 29.337662 60.167696 0
M  V30 59 H 39.815358 26.722954 50.912433 0
M  V30 60 H 38.232708 27.299502 50.582745 0
M  V30 61 H 38.808910 31.288988 54.049032 0
M  V30 62 H 40.452086 30.873088 54.497980 0
M  V30 63 H 38.631473 25.104325 55.940298 0
M  V30 64 H 39.966900 24.740287 56.989999 0
M  V30 65 H 39.843728 29.339844 68.012602 0
M  V30 66 H 41.115156 30.563976 67.968192 0
M  V30 67 H 37.979708 24.077646 58.156267 0
M  V30 68 H 38.502431 25.543089 58.968214 0
M  V30 69 H 37.156616 25.596893 57.829762 0
M  V30 70 H 41.243646 30.891723 62.283004 0
M  V30 71 H 39.683775 30.742733 63.041350 0
M  V30 72 H 40.194102 26.831430 55.800630 0
M  V30 73 H 39.401185 29.554013 65.725129 0
M  V30 74 H 39.792478 31.216622 66.066953 0
M  V30 75 H 40.275788 27.156427 58.820460 0
M  V30 76 H 41.522103 26.539759 57.758392 0
M  V30 77 H 41.066988 28.219217 57.654464 0
M  V30 78 H 37.596393 30.538472 62.200373 0
M  V30 79 H 37.924922 32.057049 61.423192 0
M  V30 80 H 36.349943 31.266500 61.196565 0
M  V30 81 H 40.445484 28.513177 64.019529 0
M  V30 82 H 38.811529 32.558523 58.713301 0
M  V30 83 H 37.678345 32.451779 57.394067 0
M  V30 84 H 43.282212 29.864241 66.266404 0
M  V30 85 H 36.499371 30.842624 58.845308 0
M  V30 END ATOM
M  V30 BEGIN BOND
M  V30 1 2 5 2
M  V30 2 1 9 6
M  V30 3 1 11 5
M  V30 4 1 11 7
M  V30 5 1 1 12 CFG=3
M  V30 6 1 14 7
M  V30 7 1 14 10
M  V30 8 1 15 10
M  V30 9 2 17 2
M  V30 10 1 18 10
M  V30 11 1 18 11
M  V30 12 1 19 9
M  V30 13 1 19 15
M  V30 14 1 20 13
M  V30 15 1 20 17
M  V30 16 1 21 5
M  V30 17 1 21 16
M  V30 18 1 23 8
M  V30 19 1 24 22
M  V30 20 1 25 6
M  V30 21 1 26 7
M  V30 22 1 26 22
M  V30 23 1 27 1
M  V30 24 1 27 23
M  V30 25 1 28 13
M  V30 26 1 29 4
M  V30 27 1 30 26
M  V30 28 1 31 19
M  V30 29 2 32 13
M  V30 30 2 32 16
M  V30 31 1 33 1
M  V30 32 1 33 4
M  V30 33 1 33 25
M  V30 34 1 34 3
M  V30 35 1 34 15
M  V30 36 1 35 1
M  V30 37 1 35 8
M  V30 38 1 35 29
M  V30 39 1 36 3
M  V30 40 1 37 3
M  V30 41 1 38 3
M  V30 42 1 39 4
M  V30 43 1 40 4
M  V30 44 1 41 6
M  V30 45 1 42 6
M  V30 46 1 7 43 CFG=3
M  V30 47 1 44 8
M  V30 48 1 45 8
M  V30 49 1 46 9
M  V30 50 1 47 9
M  V30 51 1 10 48 CFG=3
M  V30 52 1 49 12
M  V30 53 1 50 12
M  V30 54 1 51 12
M  V30 55 1 52 14
M  V30 56 1 53 14
M  V30 57 1 54 16
M  V30 58 1 55 17
M  V30 59 1 56 18
M  V30 60 1 57 18
M  V30 61 1 19 58 CFG=1
M  V30 62 1 59 20
M  V30 63 1 60 20
M  V30 64 1 61 21
M  V30 65 1 62 21
M  V30 66 1 63 22
M  V30 67 1 64 22
M  V30 68 1 65 23
M  V30 69 1 66 23
M  V30 70 1 67 24
M  V30 71 1 68 24
M  V30 72 1 69 24
M  V30 73 1 70 25
M  V30 74 1 71 25
M  V30 75 1 26 72 CFG=3
M  V30 76 1 73 27
M  V30 77 1 74 27
M  V30 78 1 75 30
M  V30 79 1 76 30
M  V30 80 1 77 30
M  V30 81 1 78 31
M  V30 82 1 79 31
M  V30 83 1 80 31
M  V30 84 1 33 81 CFG=1
M  V30 85 1 82 34
M  V30 86 1 83 34
M  V30 87 1 35 84 CFG=1
M  V30 88 1 15 85 CFG=1
M  V30 END BOND
M  V30 END CTAB
M  END
>  <i_epik_Tot_Q>  (1) 
1

>  <i_epik_Tot_abs_Q>  (1) 
1

>  <i_i_glide_confnum>  (1) 
1619

>  <i_i_glide_lignum>  (1) 
9

>  <i_i_glide_posenum>  (1) 
376

>  <i_i_glide_rotatable_bonds>  (1) 
10

>  <i_lp_mmshare_version>  (1) 
72125

>  <i_m_source_file_index>  (1) 
3

>  <i_f3d_flags>  (1) 
0

>  <num_sample>  (1) 
50

>  <b_lp_Chiralities_Consistent>  (1) 
1

>  <r_epik_Charging_Adjusted_Penalty>  (1) 
0.074245454784308482

>  <r_epik_Ionization_Penalty>  (1) 
0.013686655559845946

>  <r_epik_Ionization_Penalty_Charging>  (1) 
0.012771505238954846

>  <r_epik_Ionization_Penalty_Neutral>  (1) 
0.00091515032089109971

>  <r_epik_State_Penalty>  (1) 
0.06147394954535363

>  <r_glide_ring_energy>  (1) 
1.3016869551617385

>  <r_i_docking_score>  (1) 
-7.4143449997806705

>  <r_i_glide_ecoul>  (1) 
-2.643027899034923

>  <r_i_glide_eff_state_penalty>  (1) 
0.06147394954535363

>  <r_i_glide_einternal>  (1) 
5.858846914853217

>  <r_i_glide_emodel>  (1) 
-51.553307385656936

>  <r_i_glide_emodel_strain>  (1) 
0.6940687374529233

>  <r_i_glide_energy>  (1) 
-48.65882687508379

>  <r_i_glide_erotb>  (1) 
0.64899532480163924

>  <r_i_glide_esite>  (1) 
-0.07965600711036136

>  <r_i_glide_evdw>  (1) 
-46.01579897604887

>  <r_i_glide_gscore>  (1) 
-7.4758189493260243

>  <r_i_glide_gscore_strain>  (1) 
0

>  <r_i_glide_hbond>  (1) 
0

>  <r_i_glide_ligand_efficiency>  (1) 
-0.21183842856516202

>  <r_i_glide_ligand_efficiency_ln>  (1) 
-1.6276132799732721

>  <r_i_glide_ligand_efficiency_sa>  (1) 
-0.69293754688279374

>  <r_i_glide_lipo>  (1) 
-4.2711283167297109

>  <r_i_glide_metal>  (1) 
-0

>  <r_i_glide_rewards>  (1) 
-1.0767858166299089

>  <r_lp_Energy>  (1) 
19.396519999999999

>  <s_epik_cmdline>  (1) 
J2VwaWtfcHl0aG9uJywgJy1waHQnLCAnMS4wJywgJy1waCcsICc3LjQnLCAnLXRuJywgJzgnLCAnLW1hJywgJzUwMCcsICctaW1hZScsICc8aW5maWxlLm1hZT4nLCAnLW9tYWUnLCAnPG91dGZpbGUubWFlPic=

>  <s_epik_input>  (1) 
W0NIMl0xW0NIMl1bQ0gyXVtDQEhdKFtDQF0xMltDSDNdKVNbQ0gyXVtDQEBIXTJbQ0gyXVtDSDJdW0NIMl1bQ0BASF0oW0NIM10pTihbQ0gyXVtDSDNdKVtDQEhdKFtDSDJdMylbQ0gyXU4oW0NASF0zW0NAQEhdKFtDSDNdKVtDSDJdW0NIM10pQzQ9Qz1bQ0hdW0NIMl1DKEYpPUM9W0NIXVtDSDJdNA==

>  <s_glide_docking_method>  (1) 
confgen

>  <s_i_glide_gridfile>  (1) 
gpcr_5ht2c_6bqh_protein_autoprepared_prepared

>  <s_lp_Force_Field>  (1) 
S-OPLS

>  <s_lp_Variant>  (1) 
DiffSBDD_2-1

>  <s_m_source_file>  (1) 
generated_GPCR_5HT2C_ligand_DiffSBDD_2026-06-23_prepared.sdf

>  <GenAI_Model>  (1) 
DiffSBDD

>  <Protein>  (1) 
GPCR_5HT2C

$$$$
DiffSBDD_22
     RDKit          3D

  0  0  0  0  0  0  0  0  0  0999 V3000
M  V30 BEGIN CTAB
M  V30 COUNTS 69 72 0 0 1
M  V30 BEGIN ATOM
M  V30 1 N 40.488002 26.593001 57.232293 0
M  V30 2 C 37.014162 29.459626 57.423741 0
M  V30 3 C 37.810623 36.566921 61.227142 0
M  V30 4 O 38.178213 28.952634 59.767765 0
M  V30 5 C 37.602599 34.323618 59.528930 0
M  V30 6 N 42.783475 32.350145 68.030526 0
M  V30 7 C 38.520674 29.085641 57.361293 0 CFG=1
M  V30 8 C 36.845064 36.542422 60.211791 0
M  V30 9 C 42.231615 31.821948 64.408785 0
M  V30 10 C 37.499438 33.146784 58.619963 0 CFG=2
M  V30 11 S 38.730353 28.579455 54.563943 0
M  V30 12 C 38.666415 31.713031 56.677935 0
M  V30 13 C 41.005632 27.733907 57.927553 0
M  V30 14 C 39.361237 30.353509 56.955584 0
M  V30 15 C 41.250259 34.447607 64.707196 0
M  V30 16 C 40.381343 36.858279 62.691696 0
M  V30 17 N 40.103898 28.076087 59.012526 0
M  V30 18 C 39.454447 26.655747 56.503744 0
M  V30 19 C 39.725113 35.483591 62.500110 0 CFG=1
M  V30 20 O 39.645137 37.554565 63.672802 0
M  V30 21 C 38.681637 35.470357 61.397113 0
M  V30 22 C 37.375435 27.765227 53.689153 0
M  V30 23 C 38.574058 34.354285 60.551086 0
M  V30 24 C 41.762796 33.760066 65.823052 0
M  V30 25 C 41.225628 33.823299 63.434140 0
M  V30 26 O 38.229142 32.016726 59.102426 0
M  V30 27 O 40.726840 34.481424 62.325135 0
M  V30 28 C 42.812751 31.691372 66.869516 0
M  V30 29 C 38.922923 28.688916 58.828325 0
M  V30 30 C 41.718793 32.513054 63.292678 0
M  V30 31 C 38.710586 32.618969 57.890361 0 CFG=2
M  V30 32 C 42.257391 32.440402 65.679271 0
M  V30 33 O 43.256686 30.552196 66.753935 0
M  V30 34 C 37.623217 26.274504 53.552270 0
M  V30 35 C 38.611092 27.923853 56.276866 0 CFG=1
M  V30 36 C 36.737603 35.424168 59.367749 0
M  V30 37 H 37.623366 27.473666 56.280368 0
M  V30 38 H 36.608676 29.737766 56.450034 0
M  V30 39 H 36.438096 28.616734 57.797176 0
M  V30 40 H 36.802304 30.286774 58.098447 0
M  V30 41 H 37.882244 37.426298 61.876332 0
M  V30 42 H 42.406556 33.283383 68.071113 0
M  V30 43 H 43.137973 31.908000 68.865186 0
M  V30 44 H 36.178346 37.381762 60.082038 0
M  V30 45 H 42.608490 30.816526 64.289566 0
M  V30 46 H 36.487791 32.937738 58.292262 0
M  V30 47 H 37.650642 31.637461 56.293796 0
M  V30 48 H 39.214040 32.223308 55.885151 0
M  V30 49 H 41.233327 28.552088 57.250205 0
M  V30 50 H 41.961700 27.460813 58.376695 0
M  V30 51 H 40.045078 30.151269 56.136376 0
M  V30 52 H 40.045151 30.537712 57.766466 0
M  V30 53 H 40.878503 35.451582 64.830578 0
M  V30 54 H 40.445132 37.416579 61.758983 0
M  V30 55 H 41.403298 36.751066 63.054295 0
M  V30 56 H 40.380554 27.824395 59.950363 0
M  V30 57 H 39.090944 25.773974 55.977387 0
M  V30 58 H 39.137446 35.223427 63.371028 0
M  V30 59 H 40.265209 38.067520 64.180682 0
M  V30 60 H 36.445145 27.953419 54.205942 0
M  V30 61 H 37.283905 28.215381 52.699870 0
M  V30 62 H 39.240010 33.515533 60.684030 0
M  V30 63 H 41.775477 34.247399 66.784702 0
M  V30 64 H 41.701858 32.035351 62.325197 0
M  V30 65 H 39.642796 33.165080 58.017881 0
M  V30 66 H 36.845114 25.796037 52.967771 0
M  V30 67 H 38.587572 26.137757 53.065515 0
M  V30 68 H 37.615278 25.757630 54.506092 0
M  V30 69 H 35.989820 35.409792 58.588468 0
M  V30 END ATOM
M  V30 BEGIN BOND
M  V30 1 1 7 2 CFG=1
M  V30 2 2 8 3
M  V30 3 1 10 5
M  V30 4 1 13 1
M  V30 5 1 14 7
M  V30 6 1 14 12
M  V30 7 1 17 13
M  V30 8 2 18 1
M  V30 9 1 19 16
M  V30 10 1 20 16
M  V30 11 1 21 3
M  V30 12 1 21 19
M  V30 13 1 22 11
M  V30 14 1 23 5
M  V30 15 2 23 21
M  V30 16 2 24 15
M  V30 17 1 25 15
M  V30 18 1 26 10
M  V30 19 1 27 19
M  V30 20 1 27 25
M  V30 21 1 28 6
M  V30 22 2 29 4
M  V30 23 1 29 7
M  V30 24 1 29 17
M  V30 25 1 30 9
M  V30 26 2 30 25
M  V30 27 1 31 10
M  V30 28 1 31 12
M  V30 29 1 31 26
M  V30 30 2 32 9
M  V30 31 1 32 24
M  V30 32 1 32 28
M  V30 33 2 33 28
M  V30 34 1 34 22
M  V30 35 1 35 7
M  V30 36 1 35 11
M  V30 37 1 35 18
M  V30 38 2 36 5
M  V30 39 1 36 8
M  V30 40 1 35 37 CFG=3
M  V30 41 1 38 2
M  V30 42 1 39 2
M  V30 43 1 40 2
M  V30 44 1 41 3
M  V30 45 1 42 6
M  V30 46 1 43 6
M  V30 47 1 44 8
M  V30 48 1 45 9
M  V30 49 1 10 46 CFG=3
M  V30 50 1 47 12
M  V30 51 1 48 12
M  V30 52 1 49 13
M  V30 53 1 50 13
M  V30 54 1 51 14
M  V30 55 1 52 14
M  V30 56 1 53 15
M  V30 57 1 54 16
M  V30 58 1 55 16
M  V30 59 1 56 17
M  V30 60 1 57 18
M  V30 61 1 19 58 CFG=1
M  V30 62 1 59 20
M  V30 63 1 60 22
M  V30 64 1 61 22
M  V30 65 1 62 23
M  V30 66 1 63 24
M  V30 67 1 64 30
M  V30 68 1 31 65 CFG=1
M  V30 69 1 66 34
M  V30 70 1 67 34
M  V30 71 1 68 34
M  V30 72 1 69 36
M  V30 END BOND
M  V30 END CTAB
M  END
>  <i_epik_Tot_Q>  (1) 
0

>  <i_epik_Tot_abs_Q>  (1) 
0

>  <i_i_glide_confnum>  (1) 
2157

>  <i_i_glide_lignum>  (1) 
50

>  <i_i_glide_posenum>  (1) 
283

>  <i_i_glide_rotatable_bonds>  (1) 
12

>  <i_lp_mmshare_version>  (1) 
72125

>  <i_m_source_file_index>  (1) 
23

>  <i_f3d_flags>  (1) 
0

>  <num_sample>  (1) 
50

>  <b_lp_Chiralities_Consistent>  (1) 
1

>  <r_epik_Charging_Adjusted_Penalty>  (1) 
0

>  <r_epik_Ionization_Penalty>  (1) 
0.00010073509857401548

>  <r_epik_Ionization_Penalty_Charging>  (1) 
0

>  <r_epik_Ionization_Penalty_Neutral>  (1) 
0.00010073509857401548

>  <r_epik_State_Penalty>  (1) 
-0

>  <r_glide_ring_energy>  (1) 
0

>  <r_i_docking_score>  (1) 
-7.4014070636630969

>  <r_i_glide_ecoul>  (1) 
-4.8787969638906521

>  <r_i_glide_eff_state_penalty>  (1) 
-0

>  <r_i_glide_einternal>  (1) 
11.820098536647185

>  <r_i_glide_emodel>  (1) 
-65.236906955455268

>  <r_i_glide_emodel_strain>  (1) 
0.92847486252124156

>  <r_i_glide_energy>  (1) 
-49.220065856637355

>  <r_i_glide_erotb>  (1) 
0.70459601099453772

>  <r_i_glide_esite>  (1) 
0

>  <r_i_glide_evdw>  (1) 
-44.341268892746704

>  <r_i_glide_gscore>  (1) 
-7.4014070636630969

>  <r_i_glide_gscore_strain>  (1) 
0

>  <r_i_glide_hbond>  (1) 
-0.32000000000000001

>  <r_i_glide_ligand_efficiency>  (1) 
-0.20559464065730826

>  <r_i_glide_ligand_efficiency_ln>  (1) 
-1.6147870583809893

>  <r_i_glide_ligand_efficiency_sa>  (1) 
-0.67885854621306529

>  <r_i_glide_lipo>  (1) 
-3.0379927205015909

>  <r_i_glide_metal>  (1) 
-0

>  <r_i_glide_rewards>  (1) 
-1.7991273649351103

>  <r_lp_Energy>  (1) 
59.581189999999999

>  <r_lp_tautomer_probability>  (1) 
1

>  <s_epik_Chemistry_Notes>  (1) 
This compound has an imine and may undergo hydrolysis. This compound contains an acetal/aminal-like group ( X-CH(R)-Y where X, Y are N, S, or O) that may be acid/base labile, releasing an aldehyde.

>  <s_epik_cmdline>  (1) 
J2VwaWtfcHl0aG9uJywgJy1waHQnLCAnMS4wJywgJy1waCcsICc3LjQnLCAnLXRuJywgJzgnLCAnLW1hJywgJzUwMCcsICctaW1hZScsICc8aW5maWxlLm1hZT4nLCAnLW9tYWUnLCAnPG91dGZpbGUubWFlPic=

>  <s_epik_input>  (1) 
W0NIM11bQ0gyXVNDMT1bQ0hdW05IXVtDSDJdW05IXUMoPU8pW0NAQF0xKFtDSDNdKVtDSDJdW0NIMl1bQ0BASF0yT1tDQEhdMmMzW2NIXWMoW2NIXVtjSF1bY0hdMylbQ0BIXShbQ0gyXVtPSF0pT2M0W2NIXVtjSF1jKFtjSF1bY0hdNClDKD1PKVtOSDJd

>  <s_glide_docking_method>  (1) 
confgen

>  <s_i_glide_gridfile>  (1) 
gpcr_5ht2c_6bqh_protein_autoprepared_prepared

>  <s_lp_Force_Field>  (1) 
S-OPLS

>  <s_lp_Variant>  (1) 
DiffSBDD_22-2

>  <s_m_source_file>  (1) 
generated_GPCR_5HT2C_ligand_DiffSBDD_2026-06-23_prepared.sdf

>  <GenAI_Model>  (1) 
DiffSBDD

>  <Protein>  (1) 
GPCR_5HT2C

$$$$
DiffSBDD_19
     RDKit          3D

  0  0  0  0  0  0  0  0  0  0999 V3000
M  V30 BEGIN CTAB
M  V30 COUNTS 70 72 0 0 1
M  V30 BEGIN ATOM
M  V30 1 O 36.448834 25.660462 57.367762 0
M  V30 2 C 39.294506 29.335330 54.771720 0
M  V30 3 C 40.918826 31.260249 65.423131 0
M  V30 4 C 38.992207 28.253380 52.604430 0
M  V30 5 C 39.662284 28.080673 55.333459 0
M  V30 6 C 39.279915 30.599800 55.620107 0
M  V30 7 C 38.705429 24.119247 57.104208 0
M  V30 8 C 41.157832 29.078677 60.854478 0
M  V30 9 C 41.378470 32.305555 64.411311 0 CFG=2
M  V30 10 N 40.845150 33.640817 64.710159 0
M  V30 11 F 39.042049 29.530901 50.635394 0
M  V30 12 C 39.645143 26.922970 54.530078 0
M  V30 13 F 39.353869 27.396668 50.453348 0
M  V30 14 C 41.366634 34.711655 63.874786 0
M  V30 15 C 39.828939 28.761744 61.508701 0 CFG=2
M  V30 16 C 38.281171 30.107030 59.952281 0
M  V30 17 C 37.795028 27.648584 57.549593 0
M  V30 18 O 38.721233 25.524428 57.030547 0
M  V30 19 O 40.909784 31.401932 66.642383 0
M  V30 20 C 38.962177 29.412675 53.406127 0
M  V30 21 C 37.719413 26.126564 57.756265 0 CFG=2
M  V30 22 C 40.132658 27.978920 56.771469 0
M  V30 23 N 40.572455 30.252323 63.368114 0
M  V30 24 C 38.701004 28.341174 51.129223 0
M  V30 25 C 39.311025 27.013479 53.173135 0
M  V30 26 C 38.845138 28.710306 60.323022 0 CFG=1
M  V30 27 O 42.445129 35.267710 64.589674 0
M  V30 28 C 41.108089 28.552977 59.425858 0
M  V30 29 C 39.668533 28.053603 59.199074 0 CFG=2
M  V30 30 N 40.501369 30.198916 64.743123 0
M  V30 31 N 39.126510 28.266955 57.820388 0 CFG=2 CHG=1
M  V30 32 C 40.796823 31.693648 63.113197 0
M  V30 33 N 39.471646 29.737818 62.567775 0 CHG=1
M  V30 34 H 36.336150 25.843518 56.446672 0
M  V30 35 H 39.437989 31.475208 54.989790 0
M  V30 36 H 38.306243 30.712997 56.098028 0
M  V30 37 H 40.045126 30.624184 56.389707 0
M  V30 38 H 39.710178 23.737755 56.967755 0
M  V30 39 H 38.333044 23.731645 58.052784 0
M  V30 40 H 38.071347 23.737799 56.304865 0
M  V30 41 H 41.245166 30.162843 60.789696 0
M  V30 42 H 41.971904 28.656108 61.446218 0
M  V30 43 H 42.468856 32.321399 64.399837 0
M  V30 44 H 39.837444 33.645201 64.681957 0
M  V30 45 H 39.927146 25.967787 54.948857 0
M  V30 46 H 40.600555 35.479396 63.758714 0
M  V30 47 H 41.664244 34.380122 62.879558 0
M  V30 48 H 39.902424 27.772527 61.964899 0
M  V30 49 H 39.076524 30.816861 59.720647 0
M  V30 50 H 37.616961 30.077513 59.088788 0
M  V30 51 H 37.687764 30.531472 60.761875 0
M  V30 52 H 37.031262 28.113711 58.167770 0
M  V30 53 H 37.493424 27.869400 56.529587 0
M  V30 54 H 38.708879 30.365239 52.969257 0
M  V30 55 H 37.879725 25.863451 58.796082 0
M  V30 56 H 40.981299 28.653056 56.833960 0
M  V30 57 H 40.578709 26.997728 56.940568 0
M  V30 58 H 37.645167 28.169954 50.967757 0
M  V30 59 H 39.330301 26.137787 52.556262 0
M  V30 60 H 38.045163 28.019281 60.558353 0
M  V30 61 H 42.350804 36.213654 64.607198 0
M  V30 62 H 41.380039 29.376769 58.770289 0
M  V30 63 H 41.835034 27.754176 59.266946 0
M  V30 64 H 39.706822 26.979910 59.384484 0
M  V30 65 H 40.145069 29.363102 65.188843 0
M  V30 66 H 39.847389 32.176869 62.872100 0
M  V30 67 H 41.468034 31.837609 62.265692 0
M  V30 68 H 38.844799 29.277813 63.227192 0
M  V30 69 H 39.023597 30.545433 62.158729 0
M  V30 70 H 38.961884 29.259709 57.736312 0
M  V30 END ATOM
M  V30 BEGIN BOND
M  V30 1 2 5 2
M  V30 2 1 6 2
M  V30 3 1 9 3
M  V30 4 1 10 9
M  V30 5 1 12 5
M  V30 6 1 14 10
M  V30 7 1 15 8
M  V30 8 1 18 7
M  V30 9 2 19 3
M  V30 10 1 20 2
M  V30 11 2 20 4
M  V30 12 1 21 1
M  V30 13 1 21 17
M  V30 14 1 21 18
M  V30 15 1 22 5
M  V30 16 1 24 4
M  V30 17 1 24 11
M  V30 18 1 24 13
M  V30 19 1 25 4
M  V30 20 2 25 12
M  V30 21 1 26 15
M  V30 22 1 26 16
M  V30 23 1 27 14
M  V30 24 1 28 8
M  V30 25 1 29 26
M  V30 26 1 29 28
M  V30 27 1 30 3
M  V30 28 1 30 23
M  V30 29 1 31 17
M  V30 30 1 31 22
M  V30 31 1 31 29
M  V30 32 1 32 9
M  V30 33 1 32 23
M  V30 34 1 33 15
M  V30 35 1 33 23
M  V30 36 1 34 1
M  V30 37 1 35 6
M  V30 38 1 36 6
M  V30 39 1 37 6
M  V30 40 1 38 7
M  V30 41 1 39 7
M  V30 42 1 40 7
M  V30 43 1 41 8
M  V30 44 1 42 8
M  V30 45 1 9 43 CFG=3
M  V30 46 1 44 10
M  V30 47 1 45 12
M  V30 48 1 46 14
M  V30 49 1 47 14
M  V30 50 1 15 48 CFG=1
M  V30 51 1 49 16
M  V30 52 1 50 16
M  V30 53 1 51 16
M  V30 54 1 52 17
M  V30 55 1 53 17
M  V30 56 1 54 20
M  V30 57 1 21 55 CFG=1
M  V30 58 1 56 22
M  V30 59 1 57 22
M  V30 60 1 58 24
M  V30 61 1 59 25
M  V30 62 1 26 60 CFG=1
M  V30 63 1 61 27
M  V30 64 1 62 28
M  V30 65 1 63 28
M  V30 66 1 29 64 CFG=1
M  V30 67 1 65 30
M  V30 68 1 66 32
M  V30 69 1 67 32
M  V30 70 1 68 33
M  V30 71 1 69 33
M  V30 72 1 31 70 CFG=1
M  V30 END BOND
M  V30 END CTAB
M  END
>  <i_epik_Tot_Q>  (1) 
2

>  <i_epik_Tot_abs_Q>  (1) 
2

>  <i_i_glide_confnum>  (1) 
381

>  <i_i_glide_lignum>  (1) 
44

>  <i_i_glide_posenum>  (1) 
42

>  <i_i_glide_rotatable_bonds>  (1) 
13

>  <i_lp_mmshare_version>  (1) 
72125

>  <i_m_source_file_index>  (1) 
20

>  <i_f3d_flags>  (1) 
0

>  <num_sample>  (1) 
50

>  <b_lp_Chiralities_Consistent>  (1) 
1

>  <r_epik_Charging_Adjusted_Penalty>  (1) 
1.2214648146791087

>  <r_epik_Ionization_Penalty>  (1) 
0.73374573973567592

>  <r_epik_Ionization_Penalty_Charging>  (1) 
0.65422063123481433

>  <r_epik_Ionization_Penalty_Neutral>  (1) 
0.079525108500861627

>  <r_epik_State_Penalty>  (1) 
0.56724418344429428

>  <r_glide_ring_energy>  (1) 
0

>  <r_i_docking_score>  (1) 
-7.3999910847880743

>  <r_i_glide_ecoul>  (1) 
-8.1129343664268827

>  <r_i_glide_eff_state_penalty>  (1) 
0.56724418344429428

>  <r_i_glide_einternal>  (1) 
15.460285596744729

>  <r_i_glide_emodel>  (1) 
-53.750824602532887

>  <r_i_glide_emodel_strain>  (1) 
2.6319506665977102

>  <r_i_glide_energy>  (1) 
-39.491706788767679

>  <r_i_glide_erotb>  (1) 
0.81178529684743594

>  <r_i_glide_esite>  (1) 
-0.059531541927996007

>  <r_i_glide_evdw>  (1) 
-31.378772422340795

>  <r_i_glide_gscore>  (1) 
-7.9672352682323684

>  <r_i_glide_gscore_strain>  (1) 
0

>  <r_i_glide_hbond>  (1) 
-0.19178449965825869

>  <r_i_glide_ligand_efficiency>  (1) 
-0.22424215408448711

>  <r_i_glide_ligand_efficiency_ln>  (1) 
-1.645719702153611

>  <r_i_glide_ligand_efficiency_sa>  (1) 
-0.7192644074582063

>  <r_i_glide_lipo>  (1) 
-3.442057922536939

>  <r_i_glide_metal>  (1) 
-0

>  <r_i_glide_rewards>  (1) 
-2.2997678248755382

>  <r_lp_Energy>  (1) 
44.756732999999997

>  <s_epik_Chemistry_Notes>  (1) 
This compound contains an acetal/aminal-like group ( X-CH(R)-Y where X, Y are N, S, or O) that may be acid/base labile, releasing an aldehyde.

>  <s_epik_cmdline>  (1) 
J2VwaWtfcHl0aG9uJywgJy1waHQnLCAnMS4wJywgJy1waCcsICc3LjQnLCAnLXRuJywgJzgnLCAnLW1hJywgJzUwMCcsICctaW1hZScsICc8aW5maWxlLm1hZT4nLCAnLW9tYWUnLCAnPG91dGZpbGUubWFlPic=

>  <s_epik_input>  (1) 
RltDSF0oRiljKFtjSF0xKVtjSF1bY0hdYyhjMVtDSDNdKVtDSDJdTihbQ0gyXVtDQEBIXShbT0hdKU9bQ0gzXSlbQ0BIXShbQ0BASF0yW0NIM10pW0NIMl1bQ0gyXVtDQEhdMltOSF1OKFtOSF0zKVtDSDJdW0NASF0oQzM9TylbTkhdW0NIMl1bT0hd

>  <s_glide_docking_method>  (1) 
confgen

>  <s_i_glide_gridfile>  (1) 
gpcr_5ht2c_6bqh_protein_autoprepared_prepared

>  <s_lp_Force_Field>  (1) 
S-OPLS

>  <s_lp_Variant>  (1) 
DiffSBDD_19-3

>  <s_m_source_file>  (1) 
generated_GPCR_5HT2C_ligand_DiffSBDD_2026-06-23_prepared.sdf

>  <GenAI_Model>  (1) 
DiffSBDD

>  <Protein>  (1) 
GPCR_5HT2C

$$$$
DiffSBDD_17
     RDKit          3D

  0  0  0  0  0  0  0  0  0  0999 V3000
M  V30 BEGIN CTAB
M  V30 COUNTS 93 97 0 0 1
M  V30 BEGIN ATOM
M  V30 1 C 43.422457 32.161874 66.444971 0
M  V30 2 C 37.077332 31.241700 59.815980 0 CFG=2
M  V30 3 C 42.330814 31.972337 64.119739 0
M  V30 4 O 40.696827 28.421988 60.972245 0
M  V30 5 C 41.380105 33.584216 65.907260 0
M  V30 6 C 39.204745 27.633746 53.008391 0
M  V30 7 C 39.293726 28.520495 50.673267 0
M  V30 8 C 39.245341 27.471020 51.684562 0
M  V30 9 C 37.689368 33.706434 58.269520 0
M  V30 10 C 36.865968 34.059785 61.413338 0
M  V30 11 N 41.755835 29.490189 64.239684 0
M  V30 12 C 35.926244 33.650472 60.309347 0 CFG=2
M  V30 13 C 39.971512 31.047775 63.453985 0 CFG=1
M  V30 14 C 38.411997 31.475648 60.586478 0
M  V30 15 N 40.845152 28.522930 64.871196 0 CHG=1
M  V30 16 C 39.627377 26.932564 55.129648 0 CFG=2
M  V30 17 C 39.112528 28.907305 53.759223 0 CFG=2
M  V30 18 C 43.005730 28.245931 65.825833 0
M  V30 19 C 41.241858 30.874651 64.358821 0 CFG=2
M  V30 20 O 39.220244 26.549282 53.829254 0
M  V30 21 C 41.692069 27.514253 65.525105 0
M  V30 22 O 39.652399 32.306240 63.367757 0 CHG=-1
M  V30 23 N 38.375047 30.500900 56.199335 0 CHG=1
M  V30 24 C 39.838647 30.137950 53.311043 0
M  V30 25 C 37.277498 30.551675 58.457854 0
M  V30 26 C 39.645146 29.827159 50.824844 0
M  V30 27 N 36.042814 32.332072 59.659259 0 CFG=1 CHG=1
M  V30 28 C 39.772385 29.226258 60.254566 0
M  V30 29 S 38.794471 26.012954 56.460888 0
M  V30 30 C 39.152906 30.263216 61.214216 0 CFG=1
M  V30 31 C 40.045149 30.530457 52.046450 0
M  V30 32 N 40.271735 30.751677 62.051906 0 CHG=1
M  V30 33 C 36.303916 33.526652 58.856002 0 CFG=2
M  V30 34 C 38.614802 29.043082 56.301754 0
M  V30 35 C 38.020449 32.735130 57.122454 0
M  V30 36 C 39.513845 28.484113 55.182166 0 CFG=1
M  V30 37 C 38.265087 31.245214 57.473854 0 CFG=2
M  V30 38 N 43.105023 29.308240 64.807872 0 CHG=1
M  V30 39 C 42.624357 32.878119 65.343243 0
M  V30 40 H 42.846710 31.360518 66.907426 0
M  V30 41 H 44.349152 31.739512 66.054379 0
M  V30 42 H 43.698141 32.858187 67.239134 0
M  V30 43 H 36.534279 30.525904 60.433696 0
M  V30 44 H 43.244841 31.541635 63.732107 0
M  V30 45 H 42.050492 32.638739 63.304942 0
M  V30 46 H 41.036696 27.748652 60.395750 0
M  V30 47 H 40.682026 32.894698 66.380242 0
M  V30 48 H 41.659728 34.326004 66.656207 0
M  V30 49 H 40.844590 34.112040 65.117292 0
M  V30 50 H 39.071941 28.210885 49.669076 0
M  V30 51 H 39.259572 26.454833 51.322458 0
M  V30 52 H 38.471871 33.757746 59.017799 0
M  V30 53 H 37.645144 34.703063 57.831913 0
M  V30 54 H 36.579029 35.041453 61.789017 0
M  V30 55 H 36.760813 33.348994 62.228597 0
M  V30 56 H 37.904661 34.133048 61.097397 0
M  V30 57 H 34.873382 33.800675 60.542020 0
M  V30 58 H 39.245522 30.316247 63.805757 0
M  V30 59 H 38.154925 32.034559 61.462449 0
M  V30 60 H 39.127468 32.073546 60.030337 0
M  V30 61 H 40.296458 29.028020 65.555932 0
M  V30 62 H 40.682347 26.665165 55.206244 0
M  V30 63 H 38.050267 29.156343 53.752610 0
M  V30 64 H 43.873297 27.585338 65.808525 0
M  V30 65 H 42.956168 28.715645 66.809000 0
M  V30 66 H 40.908562 30.982986 65.390676 0
M  V30 67 H 41.868003 26.702932 64.815672 0
M  V30 68 H 41.217497 27.092105 66.412068 0
M  V30 69 H 37.515412 30.649195 55.684900 0
M  V30 70 H 40.195014 30.779832 54.102653 0
M  V30 71 H 37.618663 29.546698 58.666244 0
M  V30 72 H 36.321340 30.339226 58.000554 0
M  V30 73 H 39.661522 30.415018 49.918292 0
M  V30 74 H 40.298555 29.706914 59.430479 0
M  V30 75 H 39.019311 28.556674 59.844457 0
M  V30 76 H 39.399957 24.846925 56.213130 0
M  V30 77 H 38.445928 29.737048 61.853683 0
M  V30 78 H 40.548441 31.476529 51.912363 0
M  V30 79 H 40.920545 29.977105 62.030823 0
M  V30 80 H 35.490679 33.737762 58.167733 0
M  V30 81 H 39.108819 28.814675 57.246999 0
M  V30 82 H 37.644932 28.550781 56.304818 0
M  V30 83 H 38.915339 33.111502 56.624279 0
M  V30 84 H 37.245154 32.818080 56.364685 0
M  V30 85 H 40.518383 28.854805 55.384639 0
M  V30 86 H 39.245199 31.195024 57.932459 0
M  V30 87 H 43.707217 29.022769 64.045750 0
M  V30 88 H 43.245139 33.690289 64.969498 0
M  V30 89 H 40.231027 28.127893 64.167602 0
M  V30 90 H 43.406384 30.191002 65.201364 0
M  V30 91 H 39.127841 30.914867 55.669364 0
M  V30 92 H 40.687007 31.581650 61.656785 0
M  V30 93 H 35.167502 31.969167 59.303622 0
M  V30 END ATOM
M  V30 BEGIN BOND
M  V30 1 2 8 6
M  V30 2 1 8 7
M  V30 3 1 12 10
M  V30 4 1 14 2
M  V30 5 1 15 11
M  V30 6 1 17 6
M  V30 7 1 19 3
M  V30 8 1 19 11
M  V30 9 1 19 13
M  V30 10 1 20 6
M  V30 11 1 20 16
M  V30 12 1 21 15
M  V30 13 1 21 18
M  V30 14 1 22 13
M  V30 15 1 24 17
M  V30 16 1 25 2
M  V30 17 2 26 7
M  V30 18 1 27 2
M  V30 19 1 27 12
M  V30 20 1 28 4
M  V30 21 1 29 16
M  V30 22 1 30 14
M  V30 23 1 30 28
M  V30 24 2 31 24
M  V30 25 1 31 26
M  V30 26 1 32 13
M  V30 27 1 32 30
M  V30 28 1 33 9
M  V30 29 1 33 12
M  V30 30 1 33 27
M  V30 31 1 34 23
M  V30 32 1 35 9
M  V30 33 1 36 16
M  V30 34 1 36 17
M  V30 35 1 36 34
M  V30 36 1 37 23
M  V30 37 1 37 25
M  V30 38 1 37 35
M  V30 39 1 38 11
M  V30 40 1 38 18
M  V30 41 1 39 1
M  V30 42 1 39 3
M  V30 43 1 39 5
M  V30 44 1 40 1
M  V30 45 1 41 1
M  V30 46 1 42 1
M  V30 47 1 2 43 CFG=1
M  V30 48 1 44 3
M  V30 49 1 45 3
M  V30 50 1 46 4
M  V30 51 1 47 5
M  V30 52 1 48 5
M  V30 53 1 49 5
M  V30 54 1 50 7
M  V30 55 1 51 8
M  V30 56 1 52 9
M  V30 57 1 53 9
M  V30 58 1 54 10
M  V30 59 1 55 10
M  V30 60 1 56 10
M  V30 61 1 12 57 CFG=3
M  V30 62 1 13 58 CFG=1
M  V30 63 1 59 14
M  V30 64 1 60 14
M  V30 65 1 61 15
M  V30 66 1 16 62 CFG=3
M  V30 67 1 17 63 CFG=1
M  V30 68 1 64 18
M  V30 69 1 65 18
M  V30 70 1 19 66 CFG=1
M  V30 71 1 67 21
M  V30 72 1 68 21
M  V30 73 1 69 23
M  V30 74 1 70 24
M  V30 75 1 71 25
M  V30 76 1 72 25
M  V30 77 1 73 26
M  V30 78 1 74 28
M  V30 79 1 75 28
M  V30 80 1 76 29
M  V30 81 1 30 77 CFG=1
M  V30 82 1 78 31
M  V30 83 1 79 32
M  V30 84 1 33 80 CFG=3
M  V30 85 1 81 34
M  V30 86 1 82 34
M  V30 87 1 83 35
M  V30 88 1 84 35
M  V30 89 1 36 85 CFG=1
M  V30 90 1 37 86 CFG=1
M  V30 91 1 87 38
M  V30 92 1 88 39
M  V30 93 1 89 15
M  V30 94 1 90 38
M  V30 95 1 91 23
M  V30 96 1 92 32
M  V30 97 1 27 93 CFG=3
M  V30 END BOND
M  V30 END CTAB
M  END
>  <i_epik_Tot_Q>  (1) 
4

>  <i_epik_Tot_abs_Q>  (1) 
6

>  <i_i_glide_confnum>  (1) 
1343

>  <i_i_glide_lignum>  (1) 
37

>  <i_i_glide_posenum>  (1) 
276

>  <i_i_glide_rotatable_bonds>  (1) 
14

>  <i_lp_mmshare_version>  (1) 
72125

>  <i_m_source_file_index>  (1) 
18

>  <i_f3d_flags>  (1) 
0

>  <num_sample>  (1) 
50

>  <b_lp_Chiralities_Consistent>  (1) 
1

>  <r_epik_Charging_Adjusted_Penalty>  (1) 
1.4553498192604928

>  <r_epik_Ionization_Penalty>  (1) 
1.1481457817152785

>  <r_epik_Ionization_Penalty_Charging>  (1) 
0.48043644912001532

>  <r_epik_Ionization_Penalty_Neutral>  (1) 
0.66770933259526311

>  <r_epik_State_Penalty>  (1) 
0.97491337014047741

>  <r_glide_ring_energy>  (1) 
0.0045750838620950583

>  <r_i_docking_score>  (1) 
-7.3953764623456486

>  <r_i_glide_ecoul>  (1) 
-10.360978752267055

>  <r_i_glide_eff_state_penalty>  (1) 
0.97491337014047741

>  <r_i_glide_einternal>  (1) 
8.4967389463625231

>  <r_i_glide_emodel>  (1) 
-84.996691586336127

>  <r_i_glide_emodel_strain>  (1) 
2.0175154741948518

>  <r_i_glide_energy>  (1) 
-53.493011416422021

>  <r_i_glide_erotb>  (1) 
0.56146573491919982

>  <r_i_glide_esite>  (1) 
-0.19269218629531878

>  <r_i_glide_evdw>  (1) 
-43.13203266415497

>  <r_i_glide_gscore>  (1) 
-8.3702898324861259

>  <r_i_glide_gscore_strain>  (1) 
0

>  <r_i_glide_hbond>  (1) 
-0.0066103720151698816

>  <r_i_glide_ligand_efficiency>  (1) 
-0.18962503749604226

>  <r_i_glide_ligand_efficiency_ln>  (1) 
-1.5857786437717989

>  <r_i_glide_ligand_efficiency_sa>  (1) 
-0.64305859703856905

>  <r_i_glide_lipo>  (1) 
-3.7124728717376119

>  <r_i_glide_metal>  (1) 
-0

>  <r_i_glide_rewards>  (1) 
-1.3092316913094175

>  <r_lp_Energy>  (1) 
72.301324999999991

>  <s_epik_Chemistry_Notes>  (1) 
This compound contains an acetal/aminal-like group ( X-CH(R)-Y where X, Y are N, S, or O) that may be acid/base labile, releasing an aldehyde.

>  <s_epik_cmdline>  (1) 
J2VwaWtfcHl0aG9uJywgJy1waHQnLCAnMS4wJywgJy1waCcsICc3LjQnLCAnLXRuJywgJzgnLCAnLW1hJywgJzUwMCcsICctaW1hZScsICc8aW5maWxlLm1hZT4nLCAnLW9tYWUnLCAnPG91dGZpbGUubWFlPic=

>  <s_epik_input>  (1) 
W05IXTFbQ0gyXVtDSDJdW05IXU4xW0NAQEhdKFtDSDJdW0NIXShbQ0gzXSlbQ0gzXSlbQ0BASF0oW09IXSlbTkhdW0NASF0oW0NIMl1bT0hdKVtDSDJdW0NAQEhdMltDSDJdW0NASF0oW0NIMl1bQ0gyXVtDQEBIXShOMjMpW0NIXTNbQ0gzXSlbTkhdW0NIMl1bQ0BASF0oW0NASF0oTzQpW1NIXSlbQ0BIXShDND01KVtDSF09W0NIXVtDSF09W0NIXVtDSF01

>  <s_glide_docking_method>  (1) 
confgen

>  <s_i_glide_gridfile>  (1) 
gpcr_5ht2c_6bqh_protein_autoprepared_prepared

>  <s_lp_Force_Field>  (1) 
S-OPLS

>  <s_lp_Variant>  (1) 
DiffSBDD_17-4

>  <s_m_source_file>  (1) 
generated_GPCR_5HT2C_ligand_DiffSBDD_2026-06-23_prepared.sdf

>  <GenAI_Model>  (1) 
DiffSBDD

>  <Protein>  (1) 
GPCR_5HT2C

$$$$
DiffSBDD_41
     RDKit          3D

  0  0  0  0  0  0  0  0  0  0999 V3000
M  V30 BEGIN CTAB
M  V30 COUNTS 71 75 0 0 1
M  V30 BEGIN ATOM
M  V30 1 C 40.789857 29.309260 61.695000 0
M  V30 2 O 37.245107 29.367167 57.204357 0
M  V30 3 C 37.463623 29.516679 58.618108 0 CFG=1
M  V30 4 C 35.839123 31.843336 60.060068 0
M  V30 5 C 40.580972 29.677072 63.153913 0
M  V30 6 C 39.795469 32.906574 60.321254 0
M  V30 7 C 38.486859 36.937938 63.427467 0
M  V30 8 C 39.648985 36.159521 63.492332 0
M  V30 9 C 38.227436 28.434628 54.683625 0
M  V30 10 C 36.935723 35.185181 60.375527 0
M  V30 11 C 38.417102 28.364126 58.956774 0
M  V30 12 C 39.248081 29.585542 53.080084 0
M  V30 13 N 38.786789 28.396109 53.487804 0
M  V30 14 C 38.081432 30.872601 59.113567 0 CFG=1
M  V30 15 C 39.521036 31.498920 60.970465 0
M  V30 16 C 38.339427 29.802807 55.125338 0
M  V30 17 O 38.445076 27.337710 51.367835 0
M  V30 18 O 37.733587 27.474215 55.276115 0
M  V30 19 C 39.252559 31.707370 62.484527 0
M  V30 20 C 39.245857 30.400894 63.276925 0
M  V30 21 N 36.845138 31.899966 58.967757 0 CFG=2 CHG=1
M  V30 22 O 39.799975 29.797362 52.000510 0
M  V30 23 O 38.359653 30.815140 60.479292 0
M  V30 24 C 39.842978 35.129229 62.571679 0
M  V30 25 C 37.271005 33.282861 58.647083 0
M  V30 26 C 38.906743 27.170986 52.688755 0
M  V30 27 C 38.872965 34.882996 61.584444 0
M  V30 28 C 37.869046 30.207171 56.323375 0
M  V30 29 C 37.519347 36.702012 62.425902 0
M  V30 30 C 40.403689 31.146402 54.696875 0
M  V30 31 N 38.805486 33.929235 60.574804 0
M  V30 32 C 39.049718 30.704888 54.132471 0 CFG=1
M  V30 33 C 40.745574 30.546848 60.777235 0
M  V30 34 C 37.628018 34.133861 59.833371 0
M  V30 35 C 37.693539 35.664193 61.474517 0
M  V30 36 H 40.020605 28.597326 61.410194 0
M  V30 37 H 41.724697 28.765584 61.579994 0
M  V30 38 H 36.518278 29.332435 59.122419 0
M  V30 39 H 36.256959 32.162635 61.014960 0
M  V30 40 H 34.994392 32.490951 59.824982 0
M  V30 41 H 35.445358 30.842083 60.202068 0
M  V30 42 H 40.575219 28.774687 63.765956 0
M  V30 43 H 41.397276 30.303884 63.516978 0
M  V30 44 H 40.726054 33.264185 60.757117 0
M  V30 45 H 39.977671 32.937763 59.254830 0
M  V30 46 H 38.335280 37.729895 64.144672 0
M  V30 47 H 40.390036 36.353024 64.256821 0
M  V30 48 H 35.991946 35.584029 60.035653 0
M  V30 49 H 38.465840 28.208033 60.029906 0
M  V30 50 H 38.064771 27.427617 58.522927 0
M  V30 51 H 39.422044 28.544156 58.575410 0
M  V30 52 H 38.958257 31.142300 58.529528 0
M  V30 53 H 37.586777 26.931639 51.292071 0
M  V30 54 H 40.014173 32.355943 62.917131 0
M  V30 55 H 38.297944 32.216331 62.617431 0
M  V30 56 H 38.449757 29.772210 62.880948 0
M  V30 57 H 39.029165 30.537770 64.333605 0
M  V30 58 H 40.733804 34.523948 62.622860 0
M  V30 59 H 36.436112 33.753996 58.129445 0
M  V30 60 H 38.081498 33.272176 57.918245 0
M  V30 61 H 38.368998 26.333192 53.134204 0
M  V30 62 H 39.958557 26.884863 52.651639 0
M  V30 63 H 37.930735 31.218951 56.679433 0
M  V30 64 H 36.633027 37.318259 62.384854 0
M  V30 65 H 40.842612 30.346478 55.293287 0
M  V30 66 H 41.119442 31.337681 53.900846 0
M  V30 67 H 40.305039 32.023132 55.338915 0
M  V30 68 H 38.425417 31.519884 53.764573 0
M  V30 69 H 40.799846 30.137770 59.767825 0
M  V30 70 H 41.643673 31.143376 60.940900 0
M  V30 71 H 36.319330 31.659914 58.114674 0
M  V30 END ATOM
M  V30 BEGIN BOND
M  V30 1 1 3 2
M  V30 2 1 5 1
M  V30 3 2 8 7
M  V30 4 1 11 3
M  V30 5 1 13 9
M  V30 6 1 13 12
M  V30 7 1 14 3
M  V30 8 1 15 6
M  V30 9 1 16 9
M  V30 10 2 18 9
M  V30 11 1 19 15
M  V30 12 1 20 5
M  V30 13 1 20 19
M  V30 14 1 21 4
M  V30 15 1 21 14
M  V30 16 2 22 12
M  V30 17 1 23 14
M  V30 18 1 23 15
M  V30 19 1 24 8
M  V30 20 1 25 21
M  V30 21 1 26 13
M  V30 22 1 26 17
M  V30 23 2 27 24
M  V30 24 1 28 2
M  V30 25 2 28 16
M  V30 26 1 29 7
M  V30 27 1 31 6
M  V30 28 1 31 27
M  V30 29 1 32 12
M  V30 30 1 32 16
M  V30 31 1 32 30
M  V30 32 1 33 1
M  V30 33 1 33 15
M  V30 34 2 34 10
M  V30 35 1 34 25
M  V30 36 1 34 31
M  V30 37 1 35 10
M  V30 38 1 35 27
M  V30 39 2 35 29
M  V30 40 1 36 1
M  V30 41 1 37 1
M  V30 42 1 3 38 CFG=1
M  V30 43 1 39 4
M  V30 44 1 40 4
M  V30 45 1 41 4
M  V30 46 1 42 5
M  V30 47 1 43 5
M  V30 48 1 44 6
M  V30 49 1 45 6
M  V30 50 1 46 7
M  V30 51 1 47 8
M  V30 52 1 48 10
M  V30 53 1 49 11
M  V30 54 1 50 11
M  V30 55 1 51 11
M  V30 56 1 14 52 CFG=3
M  V30 57 1 53 17
M  V30 58 1 54 19
M  V30 59 1 55 19
M  V30 60 1 56 20
M  V30 61 1 57 20
M  V30 62 1 58 24
M  V30 63 1 59 25
M  V30 64 1 60 25
M  V30 65 1 61 26
M  V30 66 1 62 26
M  V30 67 1 63 28
M  V30 68 1 64 29
M  V30 69 1 65 30
M  V30 70 1 66 30
M  V30 71 1 67 30
M  V30 72 1 32 68 CFG=3
M  V30 73 1 69 33
M  V30 74 1 70 33
M  V30 75 1 21 71 CFG=3
M  V30 END BOND
M  V30 END CTAB
M  END
>  <i_epik_Tot_Q>  (1) 
1

>  <i_epik_Tot_abs_Q>  (1) 
1

>  <i_i_glide_confnum>  (1) 
58

>  <i_i_glide_lignum>  (1) 
92

>  <i_i_glide_posenum>  (1) 
362

>  <i_i_glide_rotatable_bonds>  (1) 
5

>  <i_lp_mmshare_version>  (1) 
72125

>  <i_m_source_file_index>  (1) 
42

>  <i_f3d_flags>  (1) 
0

>  <num_sample>  (1) 
50

>  <b_lp_Chiralities_Consistent>  (1) 
1

>  <r_epik_Charging_Adjusted_Penalty>  (1) 
1.62722492853585

>  <r_epik_Ionization_Penalty>  (1) 
0.81369786534067623

>  <r_epik_Ionization_Penalty_Charging>  (1) 
0.81361246426792511

>  <r_epik_Ionization_Penalty_Neutral>  (1) 
8.5401072751167088e-05

>  <r_epik_State_Penalty>  (1) 
0.813612464267925

>  <r_glide_ring_energy>  (1) 
0

>  <r_i_docking_score>  (1) 
-7.3950301105638925

>  <r_i_glide_ecoul>  (1) 
-7.8479364189336938

>  <r_i_glide_eff_state_penalty>  (1) 
0.813612464267925

>  <r_i_glide_einternal>  (1) 
15.085179001724786

>  <r_i_glide_emodel>  (1) 
-48.858321681282078

>  <r_i_glide_emodel_strain>  (1) 
1.9357660911435346

>  <r_i_glide_energy>  (1) 
-47.237436922115876

>  <r_i_glide_erotb>  (1) 
0.34854586591334119

>  <r_i_glide_esite>  (1) 
-0.13824768798433215

>  <r_i_glide_evdw>  (1) 
-39.389500503182184

>  <r_i_glide_gscore>  (1) 
-8.208642574831817

>  <r_i_glide_gscore_strain>  (1) 
0

>  <r_i_glide_hbond>  (1) 
-0.52000000000000002

>  <r_i_glide_ligand_efficiency>  (1) 
-0.21128657458753977

>  <r_i_glide_ligand_efficiency_ln>  (1) 
-1.6233732331193194

>  <r_i_glide_ligand_efficiency_sa>  (1) 
-0.69113239592845011

>  <r_i_glide_lipo>  (1) 
-2.4467534736290504

>  <r_i_glide_metal>  (1) 
-0

>  <r_i_glide_rewards>  (1) 
-2.3055217911326129

>  <r_lp_Energy>  (1) 
38.539870000000001

>  <s_epik_Chemistry_Notes>  (1) 
This compound contains an acetal/aminal-like group ( X-CH(R)-Y where X, Y are N, S, or O) that may be acid/base labile, releasing an aldehyde.

>  <s_epik_cmdline>  (1) 
J2VwaWtfcHl0aG9uJywgJy1waHQnLCAnMS4wJywgJy1waCcsICc3LjQnLCAnLXRuJywgJzgnLCAnLW1hJywgJzUwMCcsICctaW1hZScsICc8aW5maWxlLm1hZT4nLCAnLW9tYWUnLCAnPG91dGZpbGUubWFlPic=

>  <s_epik_input>  (1) 
W0NIMl0xW0NIMl1bQ0gyXVtDSDJdW0NIMl1DMTJbQ0gyXW4zYzRjKFtjSF1bY0hdW2NIXVtjSF00KVtjSF1jM1tDSDJdTihbQ0gzXSlbQ0BASF0oTzIpW0NASF0oW0NIM10pTy9bQ0hdPUNcNVtDQEBIXShbQ0gzXSlDKD1PKU4oQzU9TylbQ0gyXVtPSF0=

>  <s_glide_docking_method>  (1) 
confgen

>  <s_i_glide_gridfile>  (1) 
gpcr_5ht2c_6bqh_protein_autoprepared_prepared

>  <s_lp_Force_Field>  (1) 
S-OPLS

>  <s_lp_Variant>  (1) 
DiffSBDD_41-6

>  <s_m_source_file>  (1) 
generated_GPCR_5HT2C_ligand_DiffSBDD_2026-06-23_prepared.sdf

>  <GenAI_Model>  (1) 
DiffSBDD

>  <Protein>  (1) 
GPCR_5HT2C

$$$$
DiffSBDD_38
     RDKit          3D

  0  0  0  0  0  0  0  0  0  0999 V3000
M  V30 BEGIN CTAB
M  V30 COUNTS 71 72 0 0 1
M  V30 BEGIN ATOM
M  V30 1 C 40.623048 32.113735 61.364968 0
M  V30 2 C 38.640277 26.990021 56.306118 0
M  V30 3 C 40.472476 30.681734 51.125799 0
M  V30 4 F 36.168261 34.625019 61.766478 0
M  V30 5 C 40.044389 30.537680 52.445199 0
M  V30 6 C 40.227606 29.648160 50.228736 0
M  V30 7 C 37.971851 27.198495 53.825962 0 CFG=2
M  V30 8 C 37.155488 29.393488 54.623638 0
M  V30 9 F 38.302857 29.304582 57.998611 0
M  V30 10 C 39.326366 29.391940 62.146670 0
M  V30 11 C 39.541777 28.517299 50.665540 0
M  V30 12 C 36.790477 33.704781 61.034781 0
M  V30 13 C 38.159913 34.258248 60.547718 0 CFG=2
M  V30 14 C 41.230078 31.061602 62.210745 0
M  V30 15 N 38.734278 30.892992 60.338269 0
M  V30 16 O 36.915407 28.056932 54.166723 0
M  V30 17 C 38.948124 28.247526 58.496047 0
M  V30 18 C 39.508306 32.029521 60.566889 0
M  V30 19 C 39.029673 33.248784 59.749073 0 CFG=1
M  V30 20 C 39.659149 27.559624 57.323331 0 CFG=1
M  V30 21 C 39.138770 28.457332 52.000599 0
M  V30 22 F 35.984472 33.410468 60.015934 0
M  V30 23 C 39.145151 27.120071 54.859670 0 CFG=2
M  V30 24 C 38.182463 32.500904 56.126359 0
M  V30 25 F 38.045138 27.390430 58.962679 0
M  V30 26 F 40.649087 29.737293 48.967865 0
M  V30 27 C 40.679977 29.874922 62.543685 0
M  V30 28 N 39.405277 29.442939 52.888915 0
M  V30 29 F 36.932295 32.613615 61.777052 0
M  V30 30 C 39.843080 28.702434 59.672288 0 CFG=2
M  V30 31 C 40.073168 25.940873 54.512872 0
M  V30 32 C 38.845289 32.928360 57.410833 0
M  V30 33 C 38.977902 34.940754 61.667905 0
M  V30 34 N 38.294649 32.827889 58.549871 0
M  V30 35 C 39.032990 29.536664 60.695499 0 CFG=1
M  V30 36 O 40.501026 26.524813 57.778996 0
M  V30 37 F 40.925880 29.337810 59.238458 0
M  V30 38 N 38.435504 27.336146 52.452538 0
M  V30 39 H 41.124493 33.068057 61.376075 0
M  V30 40 H 37.959204 31.004236 59.691668 0
M  V30 41 H 38.375913 25.958525 56.545127 0
M  V30 42 H 37.703945 27.529156 56.420705 0
M  V30 43 H 40.988517 31.566735 50.809244 0
M  V30 44 H 40.222342 31.318573 53.170258 0
M  V30 45 H 37.474840 26.227824 53.829505 0
M  V30 46 H 36.327265 29.738330 55.241288 0
M  V30 47 H 37.225228 30.093775 53.795267 0
M  V30 48 H 38.050231 29.492152 55.235317 0
M  V30 49 H 38.578445 29.914867 62.741869 0
M  V30 50 H 39.251694 28.331233 62.393344 0
M  V30 51 H 39.326978 27.708224 49.987464 0
M  V30 52 H 37.921316 35.066152 59.855355 0
M  V30 53 H 42.207613 31.274861 62.621533 0
M  V30 54 H 39.935342 33.785165 59.456787 0
M  V30 55 H 40.304272 28.304949 56.857030 0
M  V30 56 H 39.726231 28.033406 54.799305 0
M  V30 57 H 38.929793 32.157076 55.410800 0
M  V30 58 H 37.645942 33.337612 55.681695 0
M  V30 59 H 41.238951 29.209708 63.183913 0
M  V30 60 H 40.228781 27.805584 60.160088 0
M  V30 61 H 39.548171 24.988594 54.568815 0
M  V30 62 H 40.907251 25.880326 55.208230 0
M  V30 63 H 40.501357 26.039431 53.515962 0
M  V30 64 H 39.850040 33.332999 57.289928 0
M  V30 65 H 39.196282 34.259162 62.488656 0
M  V30 66 H 38.450273 35.799318 62.083018 0
M  V30 67 H 39.930711 35.309650 61.285296 0
M  V30 68 H 37.493685 31.679241 56.308432 0
M  V30 69 H 38.045924 29.109151 60.567708 0
M  V30 70 H 41.032457 26.220393 57.055732 0
M  V30 71 H 38.139835 26.635253 51.789391 0
M  V30 END ATOM
M  V30 BEGIN BOND
M  V30 1 2 5 3
M  V30 2 1 6 3
M  V30 3 2 11 6
M  V30 4 1 12 4
M  V30 5 1 13 12
M  V30 6 1 14 1
M  V30 7 1 16 7
M  V30 8 1 16 8
M  V30 9 1 17 9
M  V30 10 2 18 1
M  V30 11 1 18 15
M  V30 12 1 19 13
M  V30 13 1 19 18
M  V30 14 1 20 2
M  V30 15 1 20 17
M  V30 16 1 21 11
M  V30 17 1 22 12
M  V30 18 1 23 2
M  V30 19 1 23 7
M  V30 20 1 25 17
M  V30 21 1 26 6
M  V30 22 1 27 10
M  V30 23 2 27 14
M  V30 24 1 28 5
M  V30 25 2 28 21
M  V30 26 1 29 12
M  V30 27 1 30 17
M  V30 28 1 31 23
M  V30 29 1 32 24
M  V30 30 1 33 13
M  V30 31 1 34 19
M  V30 32 2 34 32
M  V30 33 1 35 10
M  V30 34 1 35 15
M  V30 35 1 35 30
M  V30 36 1 36 20
M  V30 37 1 37 30
M  V30 38 1 38 7
M  V30 39 1 38 21
M  V30 40 1 39 1
M  V30 41 1 40 15
M  V30 42 1 41 2
M  V30 43 1 42 2
M  V30 44 1 43 3
M  V30 45 1 44 5
M  V30 46 1 7 45 CFG=3
M  V30 47 1 46 8
M  V30 48 1 47 8
M  V30 49 1 48 8
M  V30 50 1 49 10
M  V30 51 1 50 10
M  V30 52 1 51 11
M  V30 53 1 13 52 CFG=3
M  V30 54 1 53 14
M  V30 55 1 19 54 CFG=3
M  V30 56 1 20 55 CFG=3
M  V30 57 1 23 56 CFG=1
M  V30 58 1 57 24
M  V30 59 1 58 24
M  V30 60 1 59 27
M  V30 61 1 30 60 CFG=1
M  V30 62 1 61 31
M  V30 63 1 62 31
M  V30 64 1 63 31
M  V30 65 1 64 32
M  V30 66 1 65 33
M  V30 67 1 66 33
M  V30 68 1 67 33
M  V30 69 1 68 24
M  V30 70 1 35 69 CFG=1
M  V30 71 1 70 36
M  V30 72 1 71 38
M  V30 END BOND
M  V30 END CTAB
M  END
>  <i_epik_Tot_Q>  (1) 
0

>  <i_epik_Tot_abs_Q>  (1) 
0

>  <i_i_glide_confnum>  (1) 
1816

>  <i_i_glide_lignum>  (1) 
81

>  <i_i_glide_posenum>  (1) 
264

>  <i_i_glide_rotatable_bonds>  (1) 
14

>  <i_lp_mmshare_version>  (1) 
72125

>  <i_m_source_file_index>  (1) 
39

>  <i_f3d_flags>  (1) 
0

>  <num_sample>  (1) 
50

>  <b_lp_Chiralities_Consistent>  (1) 
1

>  <r_epik_Charging_Adjusted_Penalty>  (1) 
0.41068759954161893

>  <r_epik_Ionization_Penalty>  (1) 
0.7209121720186531

>  <r_epik_Ionization_Penalty_Charging>  (1) 
0

>  <r_epik_Ionization_Penalty_Neutral>  (1) 
0.7209121720186531

>  <r_epik_State_Penalty>  (1) 
0.41068759954161893

>  <r_glide_ring_energy>  (1) 
0

>  <r_i_docking_score>  (1) 
-7.3942205120561759

>  <r_i_glide_ecoul>  (1) 
-5.836088400917701

>  <r_i_glide_eff_state_penalty>  (1) 
0.41068759954161893

>  <r_i_glide_einternal>  (1) 
20.411884069975095

>  <r_i_glide_emodel>  (1) 
-54.25567737973779

>  <r_i_glide_emodel_strain>  (1) 
1.2860196803857349

>  <r_i_glide_energy>  (1) 
-43.839239389935223

>  <r_i_glide_erotb>  (1) 
0.60130745657359952

>  <r_i_glide_esite>  (1) 
-0.05743391554540811

>  <r_i_glide_evdw>  (1) 
-38.00315098901752

>  <r_i_glide_gscore>  (1) 
-7.8049081115977952

>  <r_i_glide_gscore_strain>  (1) 
0

>  <r_i_glide_hbond>  (1) 
-0.088098532501563562

>  <r_i_glide_ligand_efficiency>  (1) 
-0.1945847503172678

>  <r_i_glide_ligand_efficiency_ln>  (1) 
-1.5944114583290954

>  <r_i_glide_ligand_efficiency_sa>  (1) 
-0.65418914510477122

>  <r_i_glide_lipo>  (1) 
-3.6800757001615008

>  <r_i_glide_metal>  (1) 
-0

>  <r_i_glide_rewards>  (1) 
-1.805036610374392

>  <r_lp_Energy>  (1) 
24.236113

>  <r_lp_tautomer_probability>  (1) 
0.49999644301987139

>  <s_epik_Chemistry_Notes>  (1) 
This compound has an imine and may undergo hydrolysis. This compound contains an acetal/aminal-like group ( X-CH(R)-Y where X, Y are N, S, or O) that may be acid/base labile, releasing an aldehyde.

>  <s_epik_cmdline>  (1) 
J2VwaWtfcHl0aG9uJywgJy1waHQnLCAnMS4wJywgJy1waCcsICc3LjQnLCAnLXRuJywgJzgnLCAnLW1hJywgJzUwMCcsICctaW1hZScsICc8aW5maWxlLm1hZT4nLCAnLW9tYWUnLCAnPG91dGZpbGUubWFlPic=

>  <s_epik_input>  (1) 
RkMoRikoRilbQ0BASF0oW0NIM10pW0NASF0oW05IXVtDSF09W0NIMl0pQzE9TltDQEhdKFtDSDJdW0NIXT1bQ0hdW0NIMl0xKVtDQEhdKEYpQyhGKShGKVtDQEBIXShbT0hdKVtDSDJdW0NAQEhdKFtDSDNdKVtDQEBIXShPW0NIM10pW05IXWMoW2NIXTIpbltjSF1bY0hdYzJG

>  <s_glide_docking_method>  (1) 
confgen

>  <s_i_glide_gridfile>  (1) 
gpcr_5ht2c_6bqh_protein_autoprepared_prepared

>  <s_lp_Force_Field>  (1) 
S-OPLS

>  <s_lp_Variant>  (1) 
DiffSBDD_38-2

>  <s_m_source_file>  (1) 
generated_GPCR_5HT2C_ligand_DiffSBDD_2026-06-23_prepared.sdf

>  <GenAI_Model>  (1) 
DiffSBDD

>  <Protein>  (1) 
GPCR_5HT2C

$$$$
DiffSBDD_47
     RDKit          3D

  0  0  0  0  0  0  0  0  0  0999 V3000
M  V30 BEGIN CTAB
M  V30 COUNTS 43 46 0 0 1
M  V30 BEGIN ATOM
M  V30 1 C 39.245096 28.965084 52.140205 0
M  V30 2 C 39.116171 35.779247 61.696928 0
M  V30 3 N 38.823559 31.930734 56.324752 0
M  V30 4 C 37.669719 32.457884 58.516442 0 CFG=1
M  V30 5 C 38.616836 32.692397 59.696893 0
M  V30 6 C 40.154640 33.625475 62.011385 0
M  V30 7 N 38.502223 34.031943 60.243846 0
M  V30 8 C 39.495410 36.697412 62.516028 0
M  V30 9 C 38.173426 28.441197 52.900441 0
M  V30 10 C 39.444728 26.937858 50.904294 0
M  V30 11 C 37.882385 31.018673 55.692282 0 CFG=2
M  V30 12 C 39.866284 30.157376 52.544846 0
M  V30 13 C 41.085324 34.096917 63.158542 0
M  V30 14 C 39.220512 34.563428 61.301165 0
M  V30 15 C 38.474085 30.720007 57.044388 0 CFG=2
M  V30 16 C 39.432370 30.823662 53.703996 0
M  V30 17 N 40.445119 36.537722 63.509813 0
M  V30 18 C 37.738260 29.111007 54.056906 0
M  V30 19 C 41.169263 35.336214 63.756914 0
M  V30 20 C 38.364027 30.306561 54.468643 0
M  V30 21 S 38.182571 33.335371 57.029968 0
M  V30 22 O 39.685781 28.327714 51.006103 0
M  V30 23 N 37.645121 31.040762 58.194038 0
M  V30 24 H 36.659027 32.763465 58.791695 0
M  V30 25 H 38.401968 31.976396 60.491193 0
M  V30 26 H 39.644257 32.537698 59.382162 0
M  V30 27 H 40.811079 33.172607 61.268518 0
M  V30 28 H 39.554942 32.812041 62.421516 0
M  V30 29 H 37.893547 34.658126 59.734838 0
M  V30 30 H 39.095642 37.699510 62.477022 0
M  V30 31 H 37.680886 27.530193 52.595831 0
M  V30 32 H 40.130812 26.537756 50.167763 0
M  V30 33 H 38.433804 26.721374 50.567687 0
M  V30 34 H 39.644355 26.412531 51.839353 0
M  V30 35 H 36.845827 31.326579 55.579675 0
M  V30 36 H 40.681211 30.564355 51.964777 0
M  V30 37 H 41.750364 33.329952 63.526692 0
M  V30 38 H 39.211253 29.921339 57.092133 0
M  V30 39 H 39.917104 31.737763 54.005720 0
M  V30 40 H 40.683128 37.350481 64.074210 0
M  V30 41 H 36.916462 28.710204 54.629303 0
M  V30 42 H 41.888724 35.473143 64.552845 0
M  V30 43 H 36.680352 30.907953 57.891044 0
M  V30 END ATOM
M  V30 BEGIN BOND
M  V30 1 1 5 4
M  V30 2 1 7 5
M  V30 3 2 8 2
M  V30 4 1 9 1
M  V30 5 1 11 3
M  V30 6 2 12 1
M  V30 7 1 13 6
M  V30 8 2 14 2
M  V30 9 1 14 6
M  V30 10 1 14 7
M  V30 11 1 15 3
M  V30 12 1 15 11
M  V30 13 1 16 12
M  V30 14 1 17 8
M  V30 15 2 18 9
M  V30 16 2 19 13
M  V30 17 1 19 17
M  V30 18 1 20 11
M  V30 19 2 20 16
M  V30 20 1 20 18
M  V30 21 1 21 3
M  V30 22 1 21 4
M  V30 23 1 22 1
M  V30 24 1 22 10
M  V30 25 1 23 4
M  V30 26 1 23 15
M  V30 27 1 4 24 CFG=1
M  V30 28 1 25 5
M  V30 29 1 26 5
M  V30 30 1 27 6
M  V30 31 1 28 6
M  V30 32 1 29 7
M  V30 33 1 30 8
M  V30 34 1 31 9
M  V30 35 1 32 10
M  V30 36 1 33 10
M  V30 37 1 34 10
M  V30 38 1 11 35 CFG=1
M  V30 39 1 36 12
M  V30 40 1 37 13
M  V30 41 1 15 38 CFG=3
M  V30 42 1 39 16
M  V30 43 1 40 17
M  V30 44 1 41 18
M  V30 45 1 42 19
M  V30 46 1 43 23
M  V30 END BOND
M  V30 END CTAB
M  END
>  <i_epik_Tot_Q>  (1) 
0

>  <i_epik_Tot_abs_Q>  (1) 
0

>  <i_i_glide_confnum>  (1) 
20

>  <i_i_glide_lignum>  (1) 
98

>  <i_i_glide_posenum>  (1) 
260

>  <i_i_glide_rotatable_bonds>  (1) 
5

>  <i_lp_mmshare_version>  (1) 
72125

>  <i_m_source_file_index>  (1) 
48

>  <i_f3d_flags>  (1) 
0

>  <num_sample>  (1) 
50

>  <b_lp_Chiralities_Consistent>  (1) 
1

>  <r_epik_Charging_Adjusted_Penalty>  (1) 
2.8036070843788356e-07

>  <r_epik_Ionization_Penalty>  (1) 
5.6275473319638209e-05

>  <r_epik_Ionization_Penalty_Charging>  (1) 
2.8036070843788356e-07

>  <r_epik_Ionization_Penalty_Neutral>  (1) 
5.5995112611200328e-05

>  <r_epik_State_Penalty>  (1) 
-0

>  <r_glide_ring_energy>  (1) 
0

>  <r_i_docking_score>  (1) 
-7.386952547496155

>  <r_i_glide_ecoul>  (1) 
-8.2951453410009783

>  <r_i_glide_eff_state_penalty>  (1) 
-0

>  <r_i_glide_einternal>  (1) 
1.3714200305890047

>  <r_i_glide_emodel>  (1) 
-63.324192371711263

>  <r_i_glide_emodel_strain>  (1) 
0.44681314863082378

>  <r_i_glide_energy>  (1) 
-43.631265579824245

>  <r_i_glide_erotb>  (1) 
0.69643727437471581

>  <r_i_glide_esite>  (1) 
-0.066278819226694138

>  <r_i_glide_evdw>  (1) 
-35.336120238823263

>  <r_i_glide_gscore>  (1) 
-7.386952547496155

>  <r_i_glide_gscore_strain>  (1) 
0

>  <r_i_glide_hbond>  (1) 
-0.42032112960154089

>  <r_i_glide_ligand_efficiency>  (1) 
-0.32117184989113717

>  <r_i_glide_ligand_efficiency_ln>  (1) 
-1.7862321071670217

>  <r_i_glide_ligand_efficiency_sa>  (1) 
-0.91337001876324864

>  <r_i_glide_lipo>  (1) 
-3.2414785273008615

>  <r_i_glide_metal>  (1) 
-0

>  <r_i_glide_rewards>  (1) 
-1.3442335326504637

>  <r_lp_Energy>  (1) 
12.846019

>  <r_lp_tautomer_probability>  (1) 
1

>  <s_epik_Chemistry_Notes>  (1) 
This compound has an imine and may undergo hydrolysis. This compound contains an acetal/aminal-like group ( X-CH(R)-Y where X, Y are N, S, or O) that may be acid/base labile, releasing an aldehyde. This compound has a N-S or N-O group and may undergo hydrolysis at high or low pH.

>  <s_epik_cmdline>  (1) 
J2VwaWtfcHl0aG9uJywgJy1waHQnLCAnMS4wJywgJy1waCcsICc3LjQnLCAnLXRuJywgJzgnLCAnLW1hJywgJzUwMCcsICctaW1hZScsICc8aW5maWxlLm1hZT4nLCAnLW9tYWUnLCAnPG91dGZpbGUubWFlPic=

>  <s_epik_input>  (1) 
W0NIM11PYzFbY0hdW2NIXWMoW2NIXVtjSF0xKVtDQEhdMltDQEBIXShOMjMpW05IXVtDQEhdKFMzKVtDSDJdW05IXUM0PUM9W0NIXVtOSF1bQ0hdPVtDSF1bQ0gyXTQ=

>  <s_glide_docking_method>  (1) 
confgen

>  <s_i_glide_gridfile>  (1) 
gpcr_5ht2c_6bqh_protein_autoprepared_prepared

>  <s_lp_Force_Field>  (1) 
S-OPLS

>  <s_lp_Variant>  (1) 
DiffSBDD_47-1

>  <s_m_source_file>  (1) 
generated_GPCR_5HT2C_ligand_DiffSBDD_2026-06-23_prepared.sdf

>  <GenAI_Model>  (1) 
DiffSBDD

>  <Protein>  (1) 
GPCR_5HT2C

$$$$
DiffSBDD_43
     RDKit          3D

  0  0  0  0  0  0  0  0  0  0999 V3000
M  V30 BEGIN CTAB
M  V30 COUNTS 65 67 0 0 1
M  V30 BEGIN ATOM
M  V30 1 C 40.876486 30.782785 50.372506 0
M  V30 2 C 39.208079 30.063089 60.107341 0
M  V30 3 C 38.132785 33.988745 59.772841 0
M  V30 4 C 38.945858 30.574686 61.405147 0
M  V30 5 C 38.678705 28.846393 55.442378 0
M  V30 6 C 38.434989 33.358526 57.355886 0
M  V30 7 C 37.477163 35.186522 60.164190 0
M  V30 8 C 39.846232 34.398147 61.471853 0
M  V30 9 C 39.322693 33.606549 60.431356 0
M  V30 10 C 38.174672 29.561944 57.799043 0
M  V30 11 C 40.580047 29.036117 62.351398 0
M  V30 12 C 39.900709 28.831571 51.753681 0 CFG=1
M  V30 13 N 38.789655 29.726621 56.589166 0
M  V30 14 C 37.316255 31.640238 59.089174 0
M  V30 15 F 40.984002 34.020739 62.099493 0
M  V30 16 Cl 36.045176 35.697547 59.367767 0
M  V30 17 C 40.167001 29.035012 59.950352 0
M  V30 18 C 38.045725 32.710533 56.023747 0
M  V30 19 C 39.635331 30.063218 62.517902 0
M  V30 20 C 37.570517 33.115564 58.629336 0 CFG=1
M  V30 21 C 38.045175 27.579288 55.522202 0
M  V30 22 C 39.717770 27.827418 50.606635 0
M  V30 23 O 41.240336 28.535596 63.432718 0
M  V30 24 C 40.845257 28.525187 61.070835 0
M  V30 25 O 37.345365 25.548129 54.469429 0
M  V30 26 C 39.248728 29.263989 54.214155 0
M  V30 27 O 37.419856 28.635530 58.070308 0
M  V30 28 C 38.528492 27.179479 53.167370 0
M  V30 29 C 39.190557 35.580367 61.857828 0
M  V30 30 C 38.008849 35.974703 61.204700 0
M  V30 31 C 37.963830 26.761417 54.385616 0
M  V30 32 C 39.707274 30.264290 51.223311 0
M  V30 33 C 38.482704 30.636744 58.866652 0 CFG=1
M  V30 34 C 39.191318 28.422269 53.074777 0
M  V30 35 H 40.602897 31.737628 49.930841 0
M  V30 36 H 41.776025 30.934236 50.966008 0
M  V30 37 H 41.127763 30.121823 49.544840 0
M  V30 38 H 38.229445 31.362962 61.550958 0
M  V30 39 H 38.374044 34.419944 57.141452 0
M  V30 40 H 39.487546 33.169899 57.563049 0
M  V30 41 H 39.838436 32.709638 60.136578 0
M  V30 42 H 40.954660 28.786348 51.984284 0
M  V30 43 H 39.359886 30.550387 56.468581 0
M  V30 44 H 36.446038 31.256752 58.567606 0
M  V30 45 H 36.902910 31.631845 60.092216 0
M  V30 46 H 40.385756 28.639626 58.969269 0
M  V30 47 H 38.929586 32.343480 55.501196 0
M  V30 48 H 37.344089 31.889137 56.134155 0
M  V30 49 H 37.596505 33.448644 55.361632 0
M  V30 50 H 39.435744 30.460251 63.502629 0
M  V30 51 H 36.577014 33.466322 58.367478 0
M  V30 52 H 37.622733 27.222561 56.437320 0
M  V30 53 H 40.030967 26.819271 50.868908 0
M  V30 54 H 38.684255 27.799288 50.272687 0
M  V30 55 H 40.338391 28.112282 49.767728 0
M  V30 56 H 40.788233 28.735562 64.238582 0
M  V30 57 H 41.576153 27.739133 60.946263 0
M  V30 58 H 37.243831 25.128897 53.627868 0
M  V30 59 H 39.755805 30.213735 54.154926 0
M  V30 60 H 38.470891 26.537425 52.311333 0
M  V30 61 H 39.596352 36.187956 62.654038 0
M  V30 62 H 37.509766 36.887240 61.497478 0
M  V30 63 H 38.844813 30.287968 50.567718 0
M  V30 64 H 39.571386 30.972828 52.038207 0
M  V30 65 H 39.245053 31.222304 58.394071 0
M  V30 END ATOM
M  V30 BEGIN BOND
M  V30 1 1 4 2
M  V30 2 2 7 3
M  V30 3 1 9 3
M  V30 4 2 9 8
M  V30 5 1 13 5
M  V30 6 1 13 10
M  V30 7 1 15 8
M  V30 8 1 16 7
M  V30 9 2 17 2
M  V30 10 1 18 6
M  V30 11 2 19 4
M  V30 12 1 19 11
M  V30 13 1 20 3
M  V30 14 1 20 6
M  V30 15 1 20 14
M  V30 16 1 21 5
M  V30 17 1 22 12
M  V30 18 1 23 11
M  V30 19 2 24 11
M  V30 20 1 24 17
M  V30 21 2 26 5
M  V30 22 2 27 10
M  V30 23 1 29 8
M  V30 24 1 30 7
M  V30 25 2 30 29
M  V30 26 2 31 21
M  V30 27 1 31 25
M  V30 28 1 31 28
M  V30 29 1 32 1
M  V30 30 1 32 12
M  V30 31 1 33 2
M  V30 32 1 33 10
M  V30 33 1 33 14
M  V30 34 1 34 12
M  V30 35 1 34 26
M  V30 36 2 34 28
M  V30 37 1 35 1
M  V30 38 1 36 1
M  V30 39 1 37 1
M  V30 40 1 38 4
M  V30 41 1 39 6
M  V30 42 1 40 6
M  V30 43 1 41 9
M  V30 44 1 12 42 CFG=1
M  V30 45 1 43 13
M  V30 46 1 44 14
M  V30 47 1 45 14
M  V30 48 1 46 17
M  V30 49 1 47 18
M  V30 50 1 48 18
M  V30 51 1 49 18
M  V30 52 1 50 19
M  V30 53 1 20 51 CFG=3
M  V30 54 1 52 21
M  V30 55 1 53 22
M  V30 56 1 54 22
M  V30 57 1 55 22
M  V30 58 1 56 23
M  V30 59 1 57 24
M  V30 60 1 58 25
M  V30 61 1 59 26
M  V30 62 1 60 28
M  V30 63 1 61 29
M  V30 64 1 62 30
M  V30 65 1 63 32
M  V30 66 1 64 32
M  V30 67 1 33 65 CFG=3
M  V30 END BOND
M  V30 END CTAB
M  END
>  <i_epik_Tot_Q>  (1) 
0

>  <i_epik_Tot_abs_Q>  (1) 
0

>  <i_i_glide_confnum>  (1) 
91

>  <i_i_glide_lignum>  (1) 
94

>  <i_i_glide_posenum>  (1) 
233

>  <i_i_glide_rotatable_bonds>  (1) 
12

>  <i_lp_mmshare_version>  (1) 
72125

>  <i_m_source_file_index>  (1) 
44

>  <i_f3d_flags>  (1) 
0

>  <num_sample>  (1) 
50

>  <b_lp_Chiralities_Consistent>  (1) 
1

>  <r_epik_Charging_Adjusted_Penalty>  (1) 
0

>  <r_epik_Ionization_Penalty>  (1) 
0.0033265205606122501

>  <r_epik_Ionization_Penalty_Charging>  (1) 
0

>  <r_epik_Ionization_Penalty_Neutral>  (1) 
0.0033265205606122501

>  <r_epik_State_Penalty>  (1) 
-0

>  <r_glide_ring_energy>  (1) 
0

>  <r_i_docking_score>  (1) 
-7.3798817373822292

>  <r_i_glide_ecoul>  (1) 
-3.3036797341514337

>  <r_i_glide_eff_state_penalty>  (1) 
-0

>  <r_i_glide_einternal>  (1) 
25.991858834167253

>  <r_i_glide_emodel>  (1) 
-47.464544086499714

>  <r_i_glide_emodel_strain>  (1) 
3.0181429177604713

>  <r_i_glide_energy>  (1) 
-45.217734785214375

>  <r_i_glide_erotb>  (1) 
0.60670890069985839

>  <r_i_glide_esite>  (1) 
-0.029910934419061105

>  <r_i_glide_evdw>  (1) 
-41.914055051062945

>  <r_i_glide_gscore>  (1) 
-7.3798817373822292

>  <r_i_glide_gscore_strain>  (1) 
0

>  <r_i_glide_hbond>  (1) 
0

>  <r_i_glide_ligand_efficiency>  (1) 
-0.21705534521712438

>  <r_i_glide_ligand_efficiency_ln>  (1) 
-1.6304228744589557

>  <r_i_glide_ligand_efficiency_sa>  (1) 
-0.70317505789575441

>  <r_i_glide_lipo>  (1) 
-4.0858410033066406

>  <r_i_glide_metal>  (1) 
-0

>  <r_i_glide_rewards>  (1) 
-1.2795839876805217

>  <r_lp_Energy>  (1) 
37.902006

>  <r_lp_tautomer_probability>  (1) 
1

>  <s_epik_cmdline>  (1) 
J2VwaWtfcHl0aG9uJywgJy1waHQnLCAnMS4wJywgJy1waCcsICc3LjQnLCAnLXRuJywgJzgnLCAnLW1hJywgJzUwMCcsICctaW1hZScsICc8aW5maWxlLm1hZT4nLCAnLW9tYWUnLCAnPG91dGZpbGUubWFlPic=

>  <s_epik_input>  (1) 
W0NIM11bQ0gyXVtDQEhdKFtDSDNdKWMoW2NIXTEpW2NIXWMoW09IXSlbY0hdYzFbTkhdQyg9TylbQ0BIXShjMltjSF1bY0hdYyhbT0hdKVtjSF1bY0hdMilbQ0gyXVtDQEhdKFtDSDJdW0NIM10pYzNjKENsKVtjSF1bY0hdYyhGKVtjSF0z

>  <s_glide_docking_method>  (1) 
confgen

>  <s_i_glide_gridfile>  (1) 
gpcr_5ht2c_6bqh_protein_autoprepared_prepared

>  <s_lp_Force_Field>  (1) 
S-OPLS

>  <s_lp_Variant>  (1) 
DiffSBDD_43-1

>  <s_m_source_file>  (1) 
generated_GPCR_5HT2C_ligand_DiffSBDD_2026-06-23_prepared.sdf

>  <GenAI_Model>  (1) 
DiffSBDD

>  <Protein>  (1) 
GPCR_5HT2C

$$$$
DiffSBDD_17
     RDKit          3D

  0  0  0  0  0  0  0  0  0  0999 V3000
M  V30 BEGIN CTAB
M  V30 COUNTS 93 97 0 0 1
M  V30 BEGIN ATOM
M  V30 1 C 44.680502 28.299057 63.936040 0
M  V30 2 C 37.551259 31.972065 60.486944 0 CFG=2
M  V30 3 C 43.123183 30.305461 64.221304 0
M  V30 4 O 40.445244 29.201909 60.099034 0
M  V30 5 C 42.204879 27.948036 63.577732 0
M  V30 6 C 39.427622 26.897112 54.612243 0
M  V30 7 C 39.176940 27.390217 52.176527 0
M  V30 8 C 39.645182 26.614445 53.326273 0
M  V30 9 C 38.557182 33.287969 58.033608 0
M  V30 10 C 39.127719 34.846432 60.784174 0
M  V30 11 N 41.206672 30.053117 65.724418 0
M  V30 12 C 37.751457 34.669532 60.159768 0 CFG=2
M  V30 13 C 40.835940 31.516258 63.625613 0 CFG=1
M  V30 14 C 39.000535 31.748611 61.038205 0
M  V30 15 N 39.783526 30.137668 65.961620 0 CHG=1
M  V30 16 C 39.403907 26.471113 56.848518 0 CFG=2
M  V30 17 C 38.606693 27.998338 55.148541 0 CFG=2
M  V30 18 C 40.935652 29.759312 68.025271 0
M  V30 19 C 41.798883 30.966941 64.742295 0 CFG=2
M  V30 20 O 39.941584 26.100614 55.592035 0
M  V30 21 C 39.643222 29.459348 67.247679 0
M  V30 22 O 41.484395 32.474668 63.033050 0 CHG=-1
M  V30 23 N 37.263734 29.738547 57.302662 0 CHG=1
M  V30 24 C 38.820484 29.359108 54.571594 0
M  V30 25 C 37.024258 30.986340 59.411974 0
M  V30 26 C 38.847983 28.710689 52.151709 0
M  V30 27 N 37.074365 33.359164 60.135861 0 CFG=1 CHG=1
M  V30 28 C 39.403685 29.144856 61.054669 0
M  V30 29 S 38.142921 25.285902 57.409043 0
M  V30 30 C 39.337346 30.458249 61.857814 0 CFG=1
M  V30 31 C 38.886627 29.659661 53.268935 0
M  V30 32 N 40.664632 30.576548 62.517490 0 CHG=1
M  V30 33 C 37.466387 33.954573 58.856617 0 CFG=2
M  V30 34 C 37.694411 28.342099 57.550524 0
M  V30 35 C 38.113586 32.037956 57.289093 0
M  V30 36 C 38.883711 27.920214 56.653634 0 CFG=1
M  V30 37 C 37.893391 30.777252 58.149440 0 CFG=2
M  V30 38 N 41.951981 29.997317 66.989264 0 CHG=1
M  V30 39 C 43.273739 28.754519 64.334768 0
M  V30 40 H 44.976967 28.689693 62.967735 0
M  V30 41 H 45.424286 28.630028 64.661225 0
M  V30 42 H 44.725674 27.211259 63.884091 0
M  V30 43 H 36.927791 31.774250 61.359722 0
M  V30 44 H 43.314041 30.605760 63.190970 0
M  V30 45 H 43.946394 30.748182 64.784450 0
M  V30 46 H 40.636469 28.326171 59.790406 0
M  V30 47 H 42.264461 28.108626 62.504695 0
M  V30 48 H 42.347088 26.883756 63.767745 0
M  V30 49 H 41.189422 28.175076 63.896238 0
M  V30 50 H 39.144942 26.871257 51.228823 0
M  V30 51 H 40.227896 25.738063 53.114147 0
M  V30 52 H 39.473508 33.125821 58.585729 0
M  V30 53 H 38.815012 33.995220 57.251204 0
M  V30 54 H 39.481459 35.856015 60.574305 0
M  V30 55 H 39.068707 34.751945 61.868636 0
M  V30 56 H 39.885311 34.170766 60.397528 0
M  V30 57 H 37.028464 35.425991 60.461390 0
M  V30 58 H 39.857244 31.722948 64.050625 0
M  V30 59 H 39.163858 32.546213 61.753022 0
M  V30 60 H 39.747290 31.868766 60.259613 0
M  V30 61 H 39.526380 31.114987 66.009950 0
M  V30 62 H 40.204186 26.458936 57.588770 0
M  V30 63 H 37.568430 27.723478 54.959615 0
M  V30 64 H 41.214821 28.945800 68.695703 0
M  V30 65 H 40.845346 30.671119 68.614429 0
M  V30 66 H 42.086482 31.854190 65.311113 0
M  V30 67 H 39.608486 28.401911 66.987507 0
M  V30 68 H 38.731976 29.737183 67.763999 0
M  V30 69 H 36.260342 29.846668 57.399422 0
M  V30 70 H 38.871751 30.163786 55.278618 0
M  V30 71 H 36.829104 30.026960 59.885018 0
M  V30 72 H 36.030794 31.309450 59.094760 0
M  V30 73 H 38.585179 29.118480 51.186485 0
M  V30 74 H 38.467695 28.907355 60.568097 0
M  V30 75 H 39.600002 28.306777 61.725365 0
M  V30 76 H 37.282926 25.511691 56.411079 0
M  V30 77 H 38.582478 30.329085 62.635006 0
M  V30 78 H 38.975381 30.705796 53.014949 0
M  V30 79 H 40.974892 29.663352 62.812139 0
M  V30 80 H 36.564506 34.222162 58.308819 0
M  V30 81 H 37.943657 28.193547 58.597392 0
M  V30 82 H 36.845141 27.691024 57.368896 0
M  V30 83 H 38.902223 31.823730 56.570870 0
M  V30 84 H 37.247378 32.290992 56.683928 0
M  V30 85 H 39.730686 28.574176 56.873877 0
M  V30 86 H 38.880439 30.431492 58.447803 0
M  V30 87 H 42.603298 29.226188 66.924613 0
M  V30 88 H 43.197332 28.448263 65.375910 0
M  V30 89 H 39.292816 29.629552 65.232661 0
M  V30 90 H 42.438044 30.875333 67.116347 0
M  V30 91 H 37.466520 29.955573 56.337386 0
M  V30 92 H 41.307094 30.931658 61.826300 0
M  V30 93 H 36.071941 33.455933 60.226424 0
M  V30 END ATOM
M  V30 BEGIN BOND
M  V30 1 2 8 6
M  V30 2 1 8 7
M  V30 3 1 12 10
M  V30 4 1 14 2
M  V30 5 1 15 11
M  V30 6 1 17 6
M  V30 7 1 19 3
M  V30 8 1 19 11
M  V30 9 1 19 13
M  V30 10 1 20 6
M  V30 11 1 20 16
M  V30 12 1 21 15
M  V30 13 1 21 18
M  V30 14 1 22 13
M  V30 15 1 24 17
M  V30 16 1 25 2
M  V30 17 2 26 7
M  V30 18 1 27 2
M  V30 19 1 27 12
M  V30 20 1 28 4
M  V30 21 1 29 16
M  V30 22 1 30 14
M  V30 23 1 30 28
M  V30 24 2 31 24
M  V30 25 1 31 26
M  V30 26 1 32 13
M  V30 27 1 32 30
M  V30 28 1 33 9
M  V30 29 1 33 12
M  V30 30 1 33 27
M  V30 31 1 34 23
M  V30 32 1 35 9
M  V30 33 1 36 16
M  V30 34 1 36 17
M  V30 35 1 36 34
M  V30 36 1 37 23
M  V30 37 1 37 25
M  V30 38 1 37 35
M  V30 39 1 38 11
M  V30 40 1 38 18
M  V30 41 1 39 1
M  V30 42 1 39 3
M  V30 43 1 39 5
M  V30 44 1 40 1
M  V30 45 1 41 1
M  V30 46 1 42 1
M  V30 47 1 2 43 CFG=1
M  V30 48 1 44 3
M  V30 49 1 45 3
M  V30 50 1 46 4
M  V30 51 1 47 5
M  V30 52 1 48 5
M  V30 53 1 49 5
M  V30 54 1 50 7
M  V30 55 1 51 8
M  V30 56 1 52 9
M  V30 57 1 53 9
M  V30 58 1 54 10
M  V30 59 1 55 10
M  V30 60 1 56 10
M  V30 61 1 12 57 CFG=3
M  V30 62 1 13 58 CFG=1
M  V30 63 1 59 14
M  V30 64 1 60 14
M  V30 65 1 61 15
M  V30 66 1 16 62 CFG=1
M  V30 67 1 17 63 CFG=1
M  V30 68 1 64 18
M  V30 69 1 65 18
M  V30 70 1 19 66 CFG=1
M  V30 71 1 67 21
M  V30 72 1 68 21
M  V30 73 1 69 23
M  V30 74 1 70 24
M  V30 75 1 71 25
M  V30 76 1 72 25
M  V30 77 1 73 26
M  V30 78 1 74 28
M  V30 79 1 75 28
M  V30 80 1 76 29
M  V30 81 1 30 77 CFG=1
M  V30 82 1 78 31
M  V30 83 1 79 32
M  V30 84 1 33 80 CFG=3
M  V30 85 1 81 34
M  V30 86 1 82 34
M  V30 87 1 83 35
M  V30 88 1 84 35
M  V30 89 1 36 85 CFG=3
M  V30 90 1 37 86 CFG=1
M  V30 91 1 87 38
M  V30 92 1 88 39
M  V30 93 1 89 15
M  V30 94 1 90 38
M  V30 95 1 91 23
M  V30 96 1 92 32
M  V30 97 1 27 93 CFG=3
M  V30 END BOND
M  V30 END CTAB
M  END
>  <i_epik_Tot_Q>  (1) 
4

>  <i_epik_Tot_abs_Q>  (1) 
6

>  <i_i_glide_confnum>  (1) 
2181

>  <i_i_glide_lignum>  (1) 
37

>  <i_i_glide_posenum>  (1) 
166

>  <i_i_glide_rotatable_bonds>  (1) 
14

>  <i_lp_mmshare_version>  (1) 
72125

>  <i_m_source_file_index>  (1) 
18

>  <i_f3d_flags>  (1) 
0

>  <num_sample>  (1) 
50

>  <b_lp_Chiralities_Consistent>  (1) 
1

>  <r_epik_Charging_Adjusted_Penalty>  (1) 
1.4553498192604928

>  <r_epik_Ionization_Penalty>  (1) 
1.1481457817152785

>  <r_epik_Ionization_Penalty_Charging>  (1) 
0.48043644912001532

>  <r_epik_Ionization_Penalty_Neutral>  (1) 
0.66770933259526311

>  <r_epik_State_Penalty>  (1) 
0.97491337014047741

>  <r_glide_ring_energy>  (1) 
0.0045750838620950583

>  <r_i_docking_score>  (1) 
-7.360856428764956

>  <r_i_glide_ecoul>  (1) 
-9.9977885962323345

>  <r_i_glide_eff_state_penalty>  (1) 
0.97491337014047741

>  <r_i_glide_einternal>  (1) 
10.228495031467169

>  <r_i_glide_emodel>  (1) 
-83.107162266672944

>  <r_i_glide_emodel_strain>  (1) 
2.9164675716224906

>  <r_i_glide_energy>  (1) 
-53.524078247506637

>  <r_i_glide_erotb>  (1) 
0.56146573491919982

>  <r_i_glide_esite>  (1) 
-0.10505035859752226

>  <r_i_glide_evdw>  (1) 
-43.526289651274304

>  <r_i_glide_gscore>  (1) 
-8.3357697989054333

>  <r_i_glide_gscore_strain>  (1) 
0

>  <r_i_glide_hbond>  (1) 
-0.041201277711731689

>  <r_i_glide_ligand_efficiency>  (1) 
-0.18873990842987068

>  <r_i_glide_ligand_efficiency_ln>  (1) 
-1.5783765686626725

>  <r_i_glide_ligand_efficiency_sa>  (1) 
-0.64005693722082346

>  <r_i_glide_lipo>  (1) 
-3.7225139810354544

>  <r_i_glide_metal>  (1) 
-0

>  <r_i_glide_rewards>  (1) 
-1.3524871444813578

>  <r_lp_Energy>  (1) 
72.301324999999991

>  <s_epik_Chemistry_Notes>  (1) 
This compound contains an acetal/aminal-like group ( X-CH(R)-Y where X, Y are N, S, or O) that may be acid/base labile, releasing an aldehyde.

>  <s_epik_cmdline>  (1) 
J2VwaWtfcHl0aG9uJywgJy1waHQnLCAnMS4wJywgJy1waCcsICc3LjQnLCAnLXRuJywgJzgnLCAnLW1hJywgJzUwMCcsICctaW1hZScsICc8aW5maWxlLm1hZT4nLCAnLW9tYWUnLCAnPG91dGZpbGUubWFlPic=

>  <s_epik_input>  (1) 
W05IXTFbQ0gyXVtDSDJdW05IXU4xW0NAQEhdKFtDSDJdW0NIXShbQ0gzXSlbQ0gzXSlbQ0BASF0oW09IXSlbTkhdW0NASF0oW0NIMl1bT0hdKVtDSDJdW0NAQEhdMltDSDJdW0NASF0oW0NIMl1bQ0gyXVtDQEBIXShOMjMpW0NIXTNbQ0gzXSlbTkhdW0NIMl1bQ0BASF0oW0NASF0oTzQpW1NIXSlbQ0BIXShDND01KVtDSF09W0NIXVtDSF09W0NIXVtDSF01

>  <s_glide_docking_method>  (1) 
confgen

>  <s_i_glide_gridfile>  (1) 
gpcr_5ht2c_6bqh_protein_autoprepared_prepared

>  <s_lp_Force_Field>  (1) 
S-OPLS

>  <s_lp_Variant>  (1) 
DiffSBDD_17-4

>  <s_m_source_file>  (1) 
generated_GPCR_5HT2C_ligand_DiffSBDD_2026-06-23_prepared.sdf

>  <GenAI_Model>  (1) 
DiffSBDD

>  <Protein>  (1) 
GPCR_5HT2C

$$$$
DiffSBDD_10
     RDKit          3D

  0  0  0  0  0  0  0  0  0  0999 V3000
M  V30 BEGIN CTAB
M  V30 COUNTS 64 66 0 0 1
M  V30 BEGIN ATOM
M  V30 1 C 38.401698 28.260092 52.420926 0
M  V30 2 C 39.237093 30.337404 53.392829 0
M  V30 3 C 38.693119 30.935972 57.491608 0
M  V30 4 C 39.338628 26.078365 58.167988 0
M  V30 5 C 41.705909 34.815861 63.988560 0
M  V30 6 C 38.967097 25.269315 55.908468 0
M  V30 7 C 40.044339 29.594129 51.215304 0
M  V30 8 O 36.397960 34.638938 61.766083 0
M  V30 9 F 38.950024 28.355967 58.710412 0
M  V30 10 S 38.757482 37.134712 62.336357 0
M  V30 11 C 42.265343 34.153063 66.364614 0
M  V30 12 C 39.866387 36.336927 63.509013 0
M  V30 13 C 41.457358 34.957354 65.370371 0
M  V30 14 C 38.496949 32.781942 59.343331 0
M  V30 15 C 39.225027 28.454066 51.296549 0
M  V30 16 S 37.775071 34.439171 61.293692 0
M  V30 17 C 37.993751 32.242810 57.981355 0 CFG=1
M  V30 18 O 39.485552 38.278285 61.767758 0
M  V30 19 O 38.723246 33.723970 62.167387 0
M  V30 20 C 38.944412 27.372425 57.786303 0
M  V30 21 C 40.919497 35.511924 63.052848 0
M  V30 22 N 38.140249 28.944150 56.001296 0
M  V30 23 C 38.020394 33.280337 56.837955 0
M  V30 24 C 40.045244 30.536188 52.261150 0
M  V30 25 C 40.444982 35.833847 65.822050 0
M  V30 26 C 39.345078 25.031512 57.235327 0
M  V30 27 C 39.644983 36.528255 64.886737 0
M  V30 28 C 38.407710 29.202620 53.473266 0
M  V30 29 C 37.665332 29.874130 57.037493 0
M  V30 30 C 38.551142 27.631400 56.431979 0
M  V30 31 C 37.500854 29.008726 54.676109 0
M  V30 32 N 37.839312 34.017361 59.736124 0 CHG=-1
M  V30 33 Cl 41.245140 35.337851 61.367768 0
M  V30 34 O 37.471813 37.337753 63.021655 0
M  V30 35 C 38.578430 26.553578 55.501796 0
M  V30 36 N 38.434420 36.009794 61.059584 0
M  V30 37 H 37.762321 27.391930 52.474100 0
M  V30 38 H 39.240445 31.063115 54.192934 0
M  V30 39 H 39.355238 30.507328 58.241559 0
M  V30 40 H 39.359002 31.173627 56.660988 0
M  V30 41 H 39.639127 25.889887 59.186194 0
M  V30 42 H 42.491572 34.158694 63.646834 0
M  V30 43 H 38.976006 24.461472 55.193301 0
M  V30 44 H 40.670767 29.747831 50.350737 0
M  V30 45 H 43.270640 33.990421 65.992441 0
M  V30 46 H 42.301973 34.603718 67.351586 0
M  V30 47 H 41.803586 33.172558 66.481905 0
M  V30 48 H 38.358693 31.997280 60.088301 0
M  V30 49 H 39.575637 32.937423 59.285179 0
M  V30 50 H 39.220843 27.731605 50.492495 0
M  V30 51 H 36.950211 32.008094 58.173934 0
M  V30 52 H 39.023128 33.640521 56.626311 0
M  V30 53 H 37.640741 32.841747 55.915613 0
M  V30 54 H 37.388098 34.137780 57.059912 0
M  V30 55 H 40.674410 31.409664 52.195817 0
M  V30 56 H 40.262226 35.950739 66.880166 0
M  V30 57 H 39.646773 24.040739 57.539388 0
M  V30 58 H 38.847216 37.173148 65.225938 0
M  V30 59 H 36.845221 30.424786 56.588636 0
M  V30 60 H 37.179043 29.376573 57.875851 0
M  V30 61 H 36.821355 29.861477 54.652242 0
M  V30 62 H 36.841587 28.158939 54.517150 0
M  V30 63 H 38.297945 26.706059 54.479480 0
M  V30 64 H 39.179433 35.969236 60.368099 0
M  V30 END ATOM
M  V30 BEGIN BOND
M  V30 1 1 12 10
M  V30 2 2 13 5
M  V30 3 1 13 11
M  V30 4 1 15 1
M  V30 5 2 15 7
M  V30 6 2 16 8
M  V30 7 1 17 3
M  V30 8 1 17 14
M  V30 9 2 18 10
M  V30 10 2 19 16
M  V30 11 2 20 4
M  V30 12 1 20 9
M  V30 13 1 21 5
M  V30 14 2 21 12
M  V30 15 1 23 17
M  V30 16 2 24 2
M  V30 17 1 24 7
M  V30 18 1 25 13
M  V30 19 1 26 4
M  V30 20 2 26 6
M  V30 21 1 27 12
M  V30 22 2 27 25
M  V30 23 2 28 1
M  V30 24 1 28 2
M  V30 25 1 29 3
M  V30 26 1 29 22
M  V30 27 1 30 20
M  V30 28 1 30 22
M  V30 29 1 31 22
M  V30 30 1 31 28
M  V30 31 1 32 14
M  V30 32 1 32 16
M  V30 33 1 33 21
M  V30 34 2 34 10
M  V30 35 1 35 6
M  V30 36 2 35 30
M  V30 37 1 36 10
M  V30 38 1 36 16
M  V30 39 1 37 1
M  V30 40 1 38 2
M  V30 41 1 39 3
M  V30 42 1 40 3
M  V30 43 1 41 4
M  V30 44 1 42 5
M  V30 45 1 43 6
M  V30 46 1 44 7
M  V30 47 1 45 11
M  V30 48 1 46 11
M  V30 49 1 47 11
M  V30 50 1 48 14
M  V30 51 1 49 14
M  V30 52 1 50 15
M  V30 53 1 17 51 CFG=1
M  V30 54 1 52 23
M  V30 55 1 53 23
M  V30 56 1 54 23
M  V30 57 1 55 24
M  V30 58 1 56 25
M  V30 59 1 57 26
M  V30 60 1 58 27
M  V30 61 1 59 29
M  V30 62 1 60 29
M  V30 63 1 61 31
M  V30 64 1 62 31
M  V30 65 1 63 35
M  V30 66 1 64 36
M  V30 END BOND
M  V30 END CTAB
M  END
>  <i_epik_Tot_Q>  (1) 
-1

>  <i_epik_Tot_abs_Q>  (1) 
1

>  <i_i_glide_confnum>  (1) 
4684

>  <i_i_glide_lignum>  (1) 
20

>  <i_i_glide_posenum>  (1) 
233

>  <i_i_glide_rotatable_bonds>  (1) 
12

>  <i_lp_mmshare_version>  (1) 
72125

>  <i_m_source_file_index>  (1) 
11

>  <i_f3d_flags>  (1) 
0

>  <num_sample>  (1) 
50

>  <b_lp_Chiralities_Consistent>  (1) 
1

>  <r_epik_Charging_Adjusted_Penalty>  (1) 
0.23249297725634946

>  <r_epik_Ionization_Penalty>  (1) 
0.023438671839039082

>  <r_epik_Ionization_Penalty_Charging>  (1) 
0.017777804751773103

>  <r_epik_Ionization_Penalty_Neutral>  (1) 
0.0056608670872659774

>  <r_epik_State_Penalty>  (1) 
0.21471517250457636

>  <r_glide_ring_energy>  (1) 
0

>  <r_i_docking_score>  (1) 
-7.3595515322583047

>  <r_i_glide_ecoul>  (1) 
-2.5575923128601845

>  <r_i_glide_eff_state_penalty>  (1) 
0.21471517250457636

>  <r_i_glide_einternal>  (1) 
13.11700779905707

>  <r_i_glide_emodel>  (1) 
-73.354175023770921

>  <r_i_glide_emodel_strain>  (1) 
2.6958463514278961

>  <r_i_glide_energy>  (1) 
-55.254949460713661

>  <r_i_glide_erotb>  (1) 
0.74186158489162179

>  <r_i_glide_esite>  (1) 
0

>  <r_i_glide_evdw>  (1) 
-52.697357147853474

>  <r_i_glide_gscore>  (1) 
-7.5742667047628807

>  <r_i_glide_gscore_strain>  (1) 
0

>  <r_i_glide_hbond>  (1) 
0

>  <r_i_glide_ligand_efficiency>  (1) 
-0.20443198700717513

>  <r_i_glide_ligand_efficiency_ln>  (1) 
-1.6056553122342416

>  <r_i_glide_ligand_efficiency_sa>  (1) 
-0.67501954844466394

>  <r_i_glide_lipo>  (1) 
-4.4919349816746648

>  <r_i_glide_metal>  (1) 
-0

>  <r_i_glide_rewards>  (1) 
-0.8056866036581356

>  <r_lp_Energy>  (1) 
46.499781999999996

>  <s_epik_cmdline>  (1) 
J2VwaWtfcHl0aG9uJywgJy1waHQnLCAnMS4wJywgJy1waCcsICc3LjQnLCAnLXRuJywgJzgnLCAnLW1hJywgJzUwMCcsICctaW1hZScsICc8aW5maWxlLm1hZT4nLCAnLW9tYWUnLCAnPG91dGZpbGUubWFlPic=

>  <s_epik_input>  (1) 
W2NIXTFbY0hdW2NIXVtjSF1bY0hdYzFbQ0gyXU4oYzJbY0hdW2NIXVtjSF1bY0hdYzJGKVtDSDJdW0NIMl1bQ0BIXShbQ0gzXSlbQ0gyXVtOSF1TKD1PKSg9TylbTkhdUyg9TykoPU8pYzNjKENsKVtjSF1jKFtDSDNdKVtjSF1bY0hdMw==

>  <s_glide_docking_method>  (1) 
confgen

>  <s_i_glide_gridfile>  (1) 
gpcr_5ht2c_6bqh_protein_autoprepared_prepared

>  <s_lp_Force_Field>  (1) 
S-OPLS

>  <s_lp_Variant>  (1) 
DiffSBDD_10-1

>  <s_m_source_file>  (1) 
generated_GPCR_5HT2C_ligand_DiffSBDD_2026-06-23_prepared.sdf

>  <GenAI_Model>  (1) 
DiffSBDD

>  <Protein>  (1) 
GPCR_5HT2C

$$$$
DiffSBDD_44
     RDKit          3D

  0  0  0  0  0  0  0  0  0  0999 V3000
M  V30 BEGIN CTAB
M  V30 COUNTS 50 52 0 0 1
M  V30 BEGIN ATOM
M  V30 1 N 37.846365 30.084159 57.688935 0
M  V30 2 N 36.507502 37.337753 60.167770 0
M  V30 3 C 38.231976 32.602063 61.254007 0
M  V30 4 C 39.922255 34.209471 62.223246 0
M  V30 5 C 38.996985 27.478744 55.092827 0
M  V30 6 C 38.789341 28.850458 55.769170 0
M  V30 7 C 38.715765 34.003346 61.514869 0
M  V30 8 C 37.744897 30.549476 59.007109 0
M  V30 9 C 38.702244 30.232201 61.330788 0
M  V30 10 C 38.430693 36.430794 61.300515 0
M  V30 11 C 38.712326 27.666421 53.595504 0
M  V30 12 C 38.288941 28.756016 57.232973 0 CFG=1
M  V30 13 C 40.377357 35.519121 62.472882 0
M  V30 14 C 38.376711 29.147478 53.418629 0
M  V30 15 C 36.923542 32.335606 60.576703 0
M  V30 16 C 39.252791 26.785841 58.481034 0
M  V30 17 C 37.971475 35.114655 61.051253 0
M  V30 18 C 39.369588 28.044284 58.028237 0
M  V30 19 C 39.635406 36.626817 62.015670 0
M  V30 20 C 38.212951 29.737721 60.150548 0
M  V30 21 C 37.886519 29.610100 54.790424 0
M  V30 22 O 38.047959 38.771927 60.967766 0
M  V30 23 N 38.927799 31.597828 61.600747 0
M  V30 24 C 37.645140 37.623774 60.799202 0
M  V30 25 C 37.185714 31.754790 59.221157 0
M  V30 26 H 37.443651 30.672391 56.967724 0
M  V30 27 H 36.222593 36.378862 60.047513 0
M  V30 28 H 35.932734 38.089812 59.810548 0
M  V30 29 H 40.496365 33.365871 62.578035 0
M  V30 30 H 40.006028 27.102642 55.266714 0
M  V30 31 H 38.304324 26.739412 55.497343 0
M  V30 32 H 39.750175 29.369579 55.767927 0
M  V30 33 H 39.019363 29.554537 62.111065 0
M  V30 34 H 39.558585 27.370001 52.974919 0
M  V30 35 H 37.861163 27.050579 53.299291 0
M  V30 36 H 37.399020 28.126320 57.254168 0
M  V30 37 H 41.297877 35.675155 63.016432 0
M  V30 38 H 39.279623 29.698842 53.151624 0
M  V30 39 H 37.645142 29.314268 52.630124 0
M  V30 40 H 36.248015 33.178871 60.501234 0
M  V30 41 H 36.359180 31.609041 61.162795 0
M  V30 42 H 38.359184 26.207853 58.295347 0
M  V30 43 H 40.045140 26.321460 59.039336 0
M  V30 44 H 37.062112 34.965289 60.503857 0
M  V30 45 H 40.273072 28.602352 58.226228 0
M  V30 46 H 39.992754 37.628243 62.210384 0
M  V30 47 H 38.165250 28.667970 60.055527 0
M  V30 48 H 36.844378 29.330932 54.934333 0
M  V30 49 H 37.956545 30.692420 54.906353 0
M  V30 50 H 36.845137 32.340146 58.379203 0
M  V30 END ATOM
M  V30 BEGIN BOND
M  V30 1 1 6 5
M  V30 2 1 7 3
M  V30 3 2 7 4
M  V30 4 1 8 1
M  V30 5 1 11 5
M  V30 6 1 12 1
M  V30 7 1 12 6
M  V30 8 1 13 4
M  V30 9 1 14 11
M  V30 10 1 15 3
M  V30 11 1 17 7
M  V30 12 2 17 10
M  V30 13 1 18 12
M  V30 14 2 18 16
M  V30 15 1 19 10
M  V30 16 2 19 13
M  V30 17 1 20 8
M  V30 18 2 20 9
M  V30 19 1 21 6
M  V30 20 1 21 14
M  V30 21 2 23 3
M  V30 22 1 23 9
M  V30 23 1 24 2
M  V30 24 1 24 10
M  V30 25 2 24 22
M  V30 26 2 25 8
M  V30 27 1 25 15
M  V30 28 1 26 1
M  V30 29 1 27 2
M  V30 30 1 28 2
M  V30 31 1 29 4
M  V30 32 1 30 5
M  V30 33 1 31 5
M  V30 34 1 32 6
M  V30 35 1 33 9
M  V30 36 1 34 11
M  V30 37 1 35 11
M  V30 38 1 12 36 CFG=3
M  V30 39 1 37 13
M  V30 40 1 38 14
M  V30 41 1 39 14
M  V30 42 1 40 15
M  V30 43 1 41 15
M  V30 44 1 42 16
M  V30 45 1 43 16
M  V30 46 1 44 17
M  V30 47 1 45 18
M  V30 48 1 46 19
M  V30 49 1 47 20
M  V30 50 1 48 21
M  V30 51 1 49 21
M  V30 52 1 50 25
M  V30 END BOND
M  V30 END CTAB
M  END
>  <i_epik_Tot_Q>  (1) 
0

>  <i_epik_Tot_abs_Q>  (1) 
0

>  <i_i_glide_confnum>  (1) 
43

>  <i_i_glide_lignum>  (1) 
95

>  <i_i_glide_posenum>  (1) 
397

>  <i_i_glide_rotatable_bonds>  (1) 
6

>  <i_lp_mmshare_version>  (1) 
72125

>  <i_m_source_file_index>  (1) 
45

>  <i_f3d_flags>  (1) 
0

>  <num_sample>  (1) 
50

>  <b_lp_Chiralities_Consistent>  (1) 
1

>  <r_epik_Charging_Adjusted_Penalty>  (1) 
0.0076359767464213076

>  <r_epik_Ionization_Penalty>  (1) 
0.0038263815256696344

>  <r_epik_Ionization_Penalty_Charging>  (1) 
0.0038179969365927696

>  <r_epik_Ionization_Penalty_Neutral>  (1) 
8.3845890768645326e-06

>  <r_epik_State_Penalty>  (1) 
0.003817979809828538

>  <r_glide_ring_energy>  (1) 
0.2204327727677606

>  <r_i_docking_score>  (1) 
-7.3531957364278853

>  <r_i_glide_ecoul>  (1) 
-3.8813567684818477

>  <r_i_glide_eff_state_penalty>  (1) 
0.003817979809828538

>  <r_i_glide_einternal>  (1) 
3.6327723850527711

>  <r_i_glide_emodel>  (1) 
-56.946839256114181

>  <r_i_glide_emodel_strain>  (1) 
2.9179151576586833

>  <r_i_glide_energy>  (1) 
-41.729210105370171

>  <r_i_glide_erotb>  (1) 
0.83861639918750919

>  <r_i_glide_esite>  (1) 
-0.067937913206662037

>  <r_i_glide_evdw>  (1) 
-37.847853336888321

>  <r_i_glide_gscore>  (1) 
-7.3570137162377138

>  <r_i_glide_gscore_strain>  (1) 
0

>  <r_i_glide_hbond>  (1) 
-0.32793221878867457

>  <r_i_glide_ligand_efficiency>  (1) 
-0.29412782945711541

>  <r_i_glide_ligand_efficiency_ln>  (1) 
-1.7429277470278712

>  <r_i_glide_ligand_efficiency_sa>  (1) 
-0.86003499063465427

>  <r_i_glide_lipo>  (1) 
-3.0092174103123672

>  <r_i_glide_metal>  (1) 
-0

>  <r_i_glide_rewards>  (1) 
-2.3159463910008249

>  <r_lp_Energy>  (1) 
44.465160999999995

>  <s_epik_Chemistry_Notes>  (1) 
This compound has an imine and may undergo hydrolysis.

>  <s_epik_cmdline>  (1) 
J2VwaWtfcHl0aG9uJywgJy1waHQnLCAnMS4wJywgJy1waCcsICc3LjQnLCAnLXRuJywgJzgnLCAnLW1hJywgJzUwMCcsICctaW1hZScsICc8aW5maWxlLm1hZT4nLCAnLW9tYWUnLCAnPG91dGZpbGUubWFlPic=

>  <s_epik_input>  (1) 
W0NIMl0xW0NIMl1bQ0gyXVtDSDJdW0NIXTFbQ0BASF0oW0NIXT1bQ0gyXSlbTkhdQyg9W0NIXVtDSDJdMilbQ0hdPVtDSF1OPUMyYzNbY0hdW2NIXVtjSF1jKFtjSF0zKUMoPU8pW05IMl0=

>  <s_glide_docking_method>  (1) 
confgen

>  <s_i_glide_gridfile>  (1) 
gpcr_5ht2c_6bqh_protein_autoprepared_prepared

>  <s_lp_Force_Field>  (1) 
S-OPLS

>  <s_lp_Variant>  (1) 
DiffSBDD_44-1

>  <s_m_source_file>  (1) 
generated_GPCR_5HT2C_ligand_DiffSBDD_2026-06-23_prepared.sdf

>  <GenAI_Model>  (1) 
DiffSBDD

>  <Protein>  (1) 
GPCR_5HT2C

$$$$
DiffSBDD_17
     RDKit          3D

  0  0  0  0  0  0  0  0  0  0999 V3000
M  V30 BEGIN CTAB
M  V30 COUNTS 93 97 0 0 1
M  V30 BEGIN ATOM
M  V30 1 C 40.621668 36.110451 66.704059 0
M  V30 2 C 38.704234 34.106690 61.174833 0 CFG=2
M  V30 3 C 41.191187 33.563927 67.092875 0
M  V30 4 O 39.743246 36.787937 63.096158 0
M  V30 5 C 40.246673 35.027012 68.934376 0
M  V30 6 C 38.702577 28.366621 54.907949 0
M  V30 7 C 38.694212 27.793073 52.469046 0
M  V30 8 C 38.686334 27.483355 53.901067 0
M  V30 9 C 36.351805 35.073033 59.047584 0
M  V30 10 C 37.233621 37.638902 61.016273 0
M  V30 11 N 41.453709 31.441268 65.643631 0
M  V30 12 C 37.139091 36.186135 61.436189 0 CFG=2
M  V30 13 C 41.645054 33.597861 64.461383 0 CFG=2
M  V30 14 C 40.242978 34.286358 61.118076 0
M  V30 15 N 40.383731 30.524653 65.194003 0 CHG=1
M  V30 16 C 38.717287 29.030094 57.100337 0 CFG=2
M  V30 17 C 38.651125 29.844007 54.805022 0 CFG=2
M  V30 18 C 41.280975 29.727962 67.266303 0
M  V30 19 C 41.024551 32.862488 65.701069 0 CFG=2
M  V30 20 O 38.718498 27.934428 56.200977 0
M  V30 21 C 40.538498 29.296049 65.994080 0
M  V30 22 O 42.445969 34.708870 64.787976 0
M  V30 23 N 38.318887 31.771956 58.131897 0 CHG=1
M  V30 24 C 39.481347 30.537666 53.777697 0
M  V30 25 C 38.288686 32.863434 60.324636 0
M  V30 26 C 39.110439 28.942465 51.865952 0
M  V30 27 N 38.012803 35.316892 60.671888 0 CFG=2 CHG=1
M  V30 28 C 40.941962 36.401420 62.459267 0
M  V30 29 S 37.247523 29.072253 58.166765 0 CHG=-1
M  V30 30 C 41.001926 34.869436 62.336889 0 CFG=1
M  V30 31 C 39.647418 30.155123 52.501517 0
M  V30 32 N 40.602158 34.235412 63.617176 0 CHG=1
M  V30 33 C 36.580784 35.108132 60.536329 0 CFG=2
M  V30 34 C 38.310461 31.641911 56.658896 0
M  V30 35 C 36.701068 33.680381 58.462469 0
M  V30 36 C 38.970526 30.297565 56.234302 0 CFG=1
M  V30 37 C 38.101085 33.083327 58.791590 0 CFG=2
M  V30 38 N 42.076340 30.911813 66.877546 0 CHG=1
M  V30 39 C 40.278675 34.787779 67.414752 0
M  V30 40 H 41.655530 36.414372 66.869781 0
M  V30 41 H 40.436302 36.064921 65.635123 0
M  V30 42 H 39.990939 36.922721 67.070229 0
M  V30 43 H 38.394063 33.907349 62.195337 0
M  V30 44 H 40.896764 32.845159 67.857221 0
M  V30 45 H 42.239278 33.783534 67.299885 0
M  V30 46 H 39.850481 37.678343 63.410482 0
M  V30 47 H 41.241392 35.201632 69.343005 0
M  V30 48 H 39.644406 35.900493 69.182635 0
M  V30 49 H 39.816076 34.177432 69.464159 0
M  V30 50 H 38.384037 26.995246 51.808023 0
M  V30 51 H 38.665776 26.437833 54.172075 0
M  V30 52 H 36.930709 35.859731 58.567069 0
M  V30 53 H 35.302309 35.297415 58.850551 0
M  V30 54 H 36.451037 38.218181 61.506609 0
M  V30 55 H 38.197954 38.059933 61.300481 0
M  V30 56 H 37.113628 37.749441 59.938292 0
M  V30 57 H 37.212919 35.982271 62.502054 0
M  V30 58 H 42.228518 32.919054 63.834703 0
M  V30 59 H 40.475589 34.870351 60.226897 0
M  V30 60 H 40.699396 33.309762 60.958097 0
M  V30 61 H 39.491670 30.957782 65.388176 0
M  V30 62 H 39.564492 28.891173 57.772987 0
M  V30 63 H 37.611330 30.090945 54.589195 0
M  V30 64 H 41.897794 28.935060 67.691795 0
M  V30 65 H 40.553201 30.026682 68.021482 0
M  V30 66 H 39.950993 32.837438 65.537822 0
M  V30 67 H 41.147140 28.591111 65.424930 0
M  V30 68 H 39.583396 28.816778 66.205331 0
M  V30 69 H 42.312097 34.956508 65.692549 0
M  V30 70 H 39.208903 31.410414 58.433943 0
M  V30 71 H 39.938760 31.462754 54.097097 0
M  V30 72 H 39.006037 32.060404 60.500517 0
M  V30 73 H 37.363049 32.442546 60.721158 0
M  V30 74 H 39.087398 28.944649 50.785117 0
M  V30 75 H 41.031428 36.890429 61.487738 0
M  V30 76 H 41.780746 36.755427 63.056887 0
M  V30 77 H 42.045137 34.620855 62.150931 0
M  V30 78 H 40.229258 30.813174 51.871910 0
M  V30 79 H 40.171848 34.983094 64.149483 0
M  V30 80 H 36.153189 34.274887 61.091879 0
M  V30 81 H 37.289315 31.677556 56.283585 0
M  V30 82 H 38.843224 32.478575 56.205849 0
M  V30 83 H 36.591573 33.737399 57.379344 0
M  V30 84 H 35.942270 32.974891 58.805485 0
M  V30 85 H 40.045301 30.455072 56.284688 0
M  V30 86 H 38.885954 33.738053 58.418303 0
M  V30 87 H 43.027866 30.649605 66.651737 0
M  V30 88 H 39.255295 34.542948 67.134057 0
M  V30 89 H 40.506035 30.334951 64.207071 0
M  V30 90 H 42.060183 31.634965 67.585272 0
M  V30 91 H 37.617511 31.091137 58.428081 0
M  V30 92 H 39.893990 33.548819 63.412911 0
M  V30 93 H 38.378808 35.731267 59.826981 0
M  V30 END ATOM
M  V30 BEGIN BOND
M  V30 1 2 8 6
M  V30 2 1 8 7
M  V30 3 1 12 10
M  V30 4 1 14 2
M  V30 5 1 15 11
M  V30 6 1 17 6
M  V30 7 1 19 3
M  V30 8 1 19 11
M  V30 9 1 19 13
M  V30 10 1 20 6
M  V30 11 1 20 16
M  V30 12 1 21 15
M  V30 13 1 21 18
M  V30 14 1 22 13
M  V30 15 1 24 17
M  V30 16 1 25 2
M  V30 17 2 26 7
M  V30 18 1 27 2
M  V30 19 1 27 12
M  V30 20 1 28 4
M  V30 21 1 29 16
M  V30 22 1 30 14
M  V30 23 1 30 28
M  V30 24 2 31 24
M  V30 25 1 31 26
M  V30 26 1 32 13
M  V30 27 1 32 30
M  V30 28 1 33 9
M  V30 29 1 33 12
M  V30 30 1 33 27
M  V30 31 1 34 23
M  V30 32 1 35 9
M  V30 33 1 36 16
M  V30 34 1 36 17
M  V30 35 1 36 34
M  V30 36 1 37 23
M  V30 37 1 37 25
M  V30 38 1 37 35
M  V30 39 1 38 11
M  V30 40 1 38 18
M  V30 41 1 39 1
M  V30 42 1 39 3
M  V30 43 1 39 5
M  V30 44 1 40 1
M  V30 45 1 41 1
M  V30 46 1 42 1
M  V30 47 1 2 43 CFG=1
M  V30 48 1 44 3
M  V30 49 1 45 3
M  V30 50 1 46 4
M  V30 51 1 47 5
M  V30 52 1 48 5
M  V30 53 1 49 5
M  V30 54 1 50 7
M  V30 55 1 51 8
M  V30 56 1 52 9
M  V30 57 1 53 9
M  V30 58 1 54 10
M  V30 59 1 55 10
M  V30 60 1 56 10
M  V30 61 1 12 57 CFG=1
M  V30 62 1 13 58 CFG=3
M  V30 63 1 59 14
M  V30 64 1 60 14
M  V30 65 1 61 15
M  V30 66 1 16 62 CFG=1
M  V30 67 1 17 63 CFG=3
M  V30 68 1 64 18
M  V30 69 1 65 18
M  V30 70 1 19 66 CFG=3
M  V30 71 1 67 21
M  V30 72 1 68 21
M  V30 73 1 69 22
M  V30 74 1 70 23
M  V30 75 1 71 24
M  V30 76 1 72 25
M  V30 77 1 73 25
M  V30 78 1 74 26
M  V30 79 1 75 28
M  V30 80 1 76 28
M  V30 81 1 30 77 CFG=3
M  V30 82 1 78 31
M  V30 83 1 79 32
M  V30 84 1 33 80 CFG=1
M  V30 85 1 81 34
M  V30 86 1 82 34
M  V30 87 1 83 35
M  V30 88 1 84 35
M  V30 89 1 36 85 CFG=3
M  V30 90 1 37 86 CFG=3
M  V30 91 1 87 38
M  V30 92 1 88 39
M  V30 93 1 89 15
M  V30 94 1 90 38
M  V30 95 1 91 23
M  V30 96 1 92 32
M  V30 97 1 27 93 CFG=3
M  V30 END BOND
M  V30 END CTAB
M  END
>  <i_epik_Tot_Q>  (1) 
4

>  <i_epik_Tot_abs_Q>  (1) 
6

>  <i_i_glide_confnum>  (1) 
311

>  <i_i_glide_lignum>  (1) 
34

>  <i_i_glide_posenum>  (1) 
9

>  <i_i_glide_rotatable_bonds>  (1) 
14

>  <i_lp_mmshare_version>  (1) 
72125

>  <i_m_source_file_index>  (1) 
18

>  <i_f3d_flags>  (1) 
0

>  <num_sample>  (1) 
50

>  <b_lp_Chiralities_Consistent>  (1) 
1

>  <r_epik_Charging_Adjusted_Penalty>  (1) 
1.6052319346045403

>  <r_epik_Ionization_Penalty>  (1) 
1.3756208669108916

>  <r_epik_Ionization_Penalty_Charging>  (1) 
0.71181796891070681

>  <r_epik_Ionization_Penalty_Neutral>  (1) 
0.66380289800018477

>  <r_epik_State_Penalty>  (1) 
0.89341396569383336

>  <r_glide_ring_energy>  (1) 
0.0045750838620950583

>  <r_i_docking_score>  (1) 
-7.3511095297731277

>  <r_i_glide_ecoul>  (1) 
-6.2635202283471001

>  <r_i_glide_eff_state_penalty>  (1) 
0.89341396569383336

>  <r_i_glide_einternal>  (1) 
17.160491312656056

>  <r_i_glide_emodel>  (1) 
-77.858488631091348

>  <r_i_glide_emodel_strain>  (1) 
3.6995360635539214

>  <r_i_glide_energy>  (1) 
-52.434632767432269

>  <r_i_glide_erotb>  (1) 
0.56146573491919982

>  <r_i_glide_esite>  (1) 
-0.074131926011103175

>  <r_i_glide_evdw>  (1) 
-46.171112539085172

>  <r_i_glide_gscore>  (1) 
-8.2445234954669608

>  <r_i_glide_gscore_strain>  (1) 
0

>  <r_i_glide_hbond>  (1) 
0

>  <r_i_glide_ligand_efficiency>  (1) 
-0.1884899879429007

>  <r_i_glide_ligand_efficiency_ln>  (1) 
-1.5762865568366431

>  <r_i_glide_ligand_efficiency_sa>  (1) 
-0.63920940400556725

>  <r_i_glide_lipo>  (1) 
-4.2971513945831292

>  <r_i_glide_metal>  (1) 
-0

>  <r_i_glide_rewards>  (1) 
-1.1866222485856042

>  <r_lp_Energy>  (1) 
72.689052000000004

>  <s_epik_Chemistry_Notes>  (1) 
This compound contains an acetal/aminal-like group ( X-CH(R)-Y where X, Y are N, S, or O) that may be acid/base labile, releasing an aldehyde.

>  <s_epik_cmdline>  (1) 
J2VwaWtfcHl0aG9uJywgJy1waHQnLCAnMS4wJywgJy1waCcsICc3LjQnLCAnLXRuJywgJzgnLCAnLW1hJywgJzUwMCcsICctaW1hZScsICc8aW5maWxlLm1hZT4nLCAnLW9tYWUnLCAnPG91dGZpbGUubWFlPic=

>  <s_epik_input>  (1) 
W05IXTFbQ0gyXVtDSDJdW05IXU4xW0NAQEhdKFtDSDJdW0NIXShbQ0gzXSlbQ0gzXSlbQ0BASF0oW09IXSlbTkhdW0NASF0oW0NIMl1bT0hdKVtDSDJdW0NAQEhdMltDSDJdW0NASF0oW0NIMl1bQ0gyXVtDQEBIXShOMjMpW0NIXTNbQ0gzXSlbTkhdW0NIMl1bQ0BASF0oW0NASF0oTzQpW1NIXSlbQ0BIXShDND01KVtDSF09W0NIXVtDSF09W0NIXVtDSF01

>  <s_glide_docking_method>  (1) 
confgen

>  <s_i_glide_gridfile>  (1) 
gpcr_5ht2c_6bqh_protein_autoprepared_prepared

>  <s_lp_Force_Field>  (1) 
S-OPLS

>  <s_lp_Variant>  (1) 
DiffSBDD_17-1

>  <s_m_source_file>  (1) 
generated_GPCR_5HT2C_ligand_DiffSBDD_2026-06-23_prepared.sdf

>  <GenAI_Model>  (1) 
DiffSBDD

>  <Protein>  (1) 
GPCR_5HT2C

$$$$
DiffSBDD_17
     RDKit          3D

  0  0  0  0  0  0  0  0  0  0999 V3000
M  V30 BEGIN CTAB
M  V30 COUNTS 93 97 0 0 1
M  V30 BEGIN ATOM
M  V30 1 C 40.872608 29.053716 62.440886 0
M  V30 2 C 38.816834 34.430767 61.212116 0 CFG=2
M  V30 3 C 40.871993 30.954945 64.147613 0
M  V30 4 O 40.045658 36.537820 64.945093 0
M  V30 5 C 42.279379 28.853867 64.528966 0
M  V30 6 C 38.703925 28.274121 54.999103 0
M  V30 7 C 38.693389 27.774946 52.541232 0
M  V30 8 C 38.663587 27.426372 53.963528 0
M  V30 9 C 36.316810 34.698677 59.067332 0
M  V30 10 C 36.749444 37.560786 60.755134 0
M  V30 11 N 41.445512 32.473727 66.078081 0
M  V30 12 C 36.869241 36.152264 61.304230 0 CFG=2
M  V30 13 C 41.894047 33.339700 63.730066 0 CFG=1
M  V30 14 C 40.199455 35.112405 61.423979 0
M  V30 15 N 42.419165 33.423911 66.650333 0 CHG=1
M  V30 16 C 38.754968 28.869713 57.203148 0 CFG=2
M  V30 17 C 38.718069 29.754873 54.951793 0 CFG=2
M  V30 18 C 42.420096 31.435250 67.978646 0
M  V30 19 C 41.796480 32.099767 64.693984 0 CFG=2
M  V30 20 O 38.689004 27.797214 56.277035 0
M  V30 21 C 42.741594 32.933864 68.001395 0
M  V30 22 O 42.045670 32.875986 62.520266 0 CHG=-1
M  V30 23 N 38.787580 31.725296 58.323299 0 CHG=1
M  V30 24 C 39.504378 30.486001 53.915516 0
M  V30 25 C 38.846038 33.082124 60.403574 0
M  V30 26 C 39.116139 28.936753 51.968255 0
M  V30 27 N 37.885889 35.391266 60.601985 0 CFG=2 CHG=1
M  V30 28 C 39.663338 36.354443 63.603422 0
M  V30 29 S 37.239896 29.080980 58.167759 0
M  V30 30 C 40.596109 35.345656 62.901827 0 CFG=1
M  V30 31 C 39.645786 30.138054 52.627131 0
M  V30 32 N 40.613557 34.064119 63.653264 0 CHG=1
M  V30 33 C 36.530140 34.894136 60.530904 0 CFG=2
M  V30 34 C 38.642304 31.515443 56.856681 0
M  V30 35 C 36.945787 33.371259 58.588454 0
M  V30 36 C 39.142443 30.121398 56.379674 0 CFG=1
M  V30 37 C 38.448769 33.062979 58.884570 0 CFG=2
M  V30 38 N 41.381796 31.277821 66.946340 0 CHG=1
M  V30 39 C 41.690482 29.820003 63.489407 0
M  V30 40 H 40.044061 28.523227 62.905944 0
M  V30 41 H 40.464783 29.722179 61.681350 0
M  V30 42 H 41.487776 28.312041 61.929126 0
M  V30 43 H 38.412731 34.168804 62.184672 0
M  V30 44 H 40.208319 30.518590 64.893456 0
M  V30 45 H 40.175294 31.366164 63.416197 0
M  V30 46 H 40.722869 37.212993 64.968752 0
M  V30 47 H 41.493400 28.341521 65.084834 0
M  V30 48 H 42.886760 28.089069 64.041876 0
M  V30 49 H 42.920791 29.368880 65.243058 0
M  V30 50 H 38.387151 26.995288 51.856689 0
M  V30 51 H 38.602183 26.375594 54.201075 0
M  V30 52 H 36.738488 35.554069 58.550535 0
M  V30 53 H 35.246163 34.703357 58.856803 0
M  V30 54 H 35.855435 38.049526 61.145219 0
M  V30 55 H 37.616231 38.154534 61.048539 0
M  V30 56 H 36.685790 37.561669 59.667694 0
M  V30 57 H 36.918142 36.060309 62.384468 0
M  V30 58 H 42.620377 34.041721 64.143188 0
M  V30 59 H 40.250286 36.067110 60.896759 0
M  V30 60 H 40.984086 34.519076 60.967084 0
M  V30 61 H 43.240957 33.409101 66.060100 0
M  V30 62 H 39.546642 28.641305 57.918370 0
M  V30 63 H 37.676617 30.047420 54.810745 0
M  V30 64 H 42.096235 31.053375 68.947845 0
M  V30 65 H 43.299099 30.868468 67.668397 0
M  V30 66 H 42.807003 31.690958 64.754645 0
M  V30 67 H 42.089403 33.442539 68.713223 0
M  V30 68 H 43.775393 33.145359 68.275665 0
M  V30 69 H 39.738496 31.508788 58.565592 0
M  V30 70 H 39.957057 31.409660 54.244287 0
M  V30 71 H 39.834276 32.634582 60.520798 0
M  V30 72 H 38.185785 32.379184 60.913713 0
M  V30 73 H 39.102052 28.959643 50.887464 0
M  V30 74 H 38.635278 36.012848 63.621931 0
M  V30 75 H 39.674212 37.320514 63.096658 0
M  V30 76 H 36.484938 29.540759 57.160995 0
M  V30 77 H 41.600530 35.774761 62.920792 0
M  V30 78 H 40.204269 30.821713 52.003170 0
M  V30 79 H 40.329453 34.302088 64.592083 0
M  V30 80 H 36.326541 34.021370 61.151324 0
M  V30 81 H 37.602399 31.612649 56.569828 0
M  V30 82 H 39.179843 32.301837 56.327076 0
M  V30 83 H 36.844838 33.382578 57.506380 0
M  V30 84 H 36.330177 32.551570 58.967683 0
M  V30 85 H 40.226765 30.136186 56.382134 0
M  V30 86 H 39.088268 33.752021 58.344935 0
M  V30 87 H 40.456373 31.253942 67.354334 0
M  V30 88 H 42.531759 30.271696 62.965861 0
M  V30 89 H 41.998767 34.344766 66.677535 0
M  V30 90 H 41.537200 30.459125 66.370645 0
M  V30 91 H 38.185845 31.042914 58.767579 0
M  V30 92 H 39.945707 33.425376 63.254536 0
M  V30 93 H 38.166062 35.796469 59.719854 0
M  V30 END ATOM
M  V30 BEGIN BOND
M  V30 1 2 8 6
M  V30 2 1 8 7
M  V30 3 1 12 10
M  V30 4 1 14 2
M  V30 5 1 15 11
M  V30 6 1 17 6
M  V30 7 1 19 3
M  V30 8 1 19 11
M  V30 9 1 19 13
M  V30 10 1 20 6
M  V30 11 1 20 16
M  V30 12 1 21 15
M  V30 13 1 21 18
M  V30 14 1 22 13
M  V30 15 1 24 17
M  V30 16 1 25 2
M  V30 17 2 26 7
M  V30 18 1 27 2
M  V30 19 1 27 12
M  V30 20 1 28 4
M  V30 21 1 29 16
M  V30 22 1 30 14
M  V30 23 1 30 28
M  V30 24 2 31 24
M  V30 25 1 31 26
M  V30 26 1 32 13
M  V30 27 1 32 30
M  V30 28 1 33 9
M  V30 29 1 33 12
M  V30 30 1 33 27
M  V30 31 1 34 23
M  V30 32 1 35 9
M  V30 33 1 36 16
M  V30 34 1 36 17
M  V30 35 1 36 34
M  V30 36 1 37 23
M  V30 37 1 37 25
M  V30 38 1 37 35
M  V30 39 1 38 11
M  V30 40 1 38 18
M  V30 41 1 39 1
M  V30 42 1 39 3
M  V30 43 1 39 5
M  V30 44 1 40 1
M  V30 45 1 41 1
M  V30 46 1 42 1
M  V30 47 1 2 43 CFG=1
M  V30 48 1 44 3
M  V30 49 1 45 3
M  V30 50 1 46 4
M  V30 51 1 47 5
M  V30 52 1 48 5
M  V30 53 1 49 5
M  V30 54 1 50 7
M  V30 55 1 51 8
M  V30 56 1 52 9
M  V30 57 1 53 9
M  V30 58 1 54 10
M  V30 59 1 55 10
M  V30 60 1 56 10
M  V30 61 1 12 57 CFG=1
M  V30 62 1 13 58 CFG=1
M  V30 63 1 59 14
M  V30 64 1 60 14
M  V30 65 1 61 15
M  V30 66 1 16 62 CFG=1
M  V30 67 1 17 63 CFG=1
M  V30 68 1 64 18
M  V30 69 1 65 18
M  V30 70 1 19 66 CFG=1
M  V30 71 1 67 21
M  V30 72 1 68 21
M  V30 73 1 69 23
M  V30 74 1 70 24
M  V30 75 1 71 25
M  V30 76 1 72 25
M  V30 77 1 73 26
M  V30 78 1 74 28
M  V30 79 1 75 28
M  V30 80 1 76 29
M  V30 81 1 30 77 CFG=3
M  V30 82 1 78 31
M  V30 83 1 79 32
M  V30 84 1 33 80 CFG=1
M  V30 85 1 81 34
M  V30 86 1 82 34
M  V30 87 1 83 35
M  V30 88 1 84 35
M  V30 89 1 36 85 CFG=3
M  V30 90 1 37 86 CFG=3
M  V30 91 1 87 38
M  V30 92 1 88 39
M  V30 93 1 89 15
M  V30 94 1 90 38
M  V30 95 1 91 23
M  V30 96 1 92 32
M  V30 97 1 27 93 CFG=3
M  V30 END BOND
M  V30 END CTAB
M  END
>  <i_epik_Tot_Q>  (1) 
4

>  <i_epik_Tot_abs_Q>  (1) 
6

>  <i_i_glide_confnum>  (1) 
1834

>  <i_i_glide_lignum>  (1) 
36

>  <i_i_glide_posenum>  (1) 
115

>  <i_i_glide_rotatable_bonds>  (1) 
14

>  <i_lp_mmshare_version>  (1) 
72125

>  <i_m_source_file_index>  (1) 
18

>  <i_f3d_flags>  (1) 
0

>  <num_sample>  (1) 
50

>  <b_lp_Chiralities_Consistent>  (1) 
1

>  <r_epik_Charging_Adjusted_Penalty>  (1) 
1.4553498192604928

>  <r_epik_Ionization_Penalty>  (1) 
1.1481457817152785

>  <r_epik_Ionization_Penalty_Charging>  (1) 
0.48043644912001532

>  <r_epik_Ionization_Penalty_Neutral>  (1) 
0.66770933259526311

>  <r_epik_State_Penalty>  (1) 
0.97491337014047741

>  <r_glide_ring_energy>  (1) 
0.0045750838620950583

>  <r_i_docking_score>  (1) 
-7.3503546144670064

>  <r_i_glide_ecoul>  (1) 
-8.2277733295637958

>  <r_i_glide_eff_state_penalty>  (1) 
0.97491337014047741

>  <r_i_glide_einternal>  (1) 
8.8806936268769299

>  <r_i_glide_emodel>  (1) 
-85.962018881693908

>  <r_i_glide_emodel_strain>  (1) 
0.8708889031672129

>  <r_i_glide_energy>  (1) 
-53.101163139816933

>  <r_i_glide_erotb>  (1) 
0.56146573491919982

>  <r_i_glide_esite>  (1) 
-0.063994390840021412

>  <r_i_glide_evdw>  (1) 
-44.873389810253137

>  <r_i_glide_gscore>  (1) 
-8.3252679846074837

>  <r_i_glide_gscore_strain>  (1) 
0

>  <r_i_glide_hbond>  (1) 
-0.32000000000000001

>  <r_i_glide_ligand_efficiency>  (1) 
-0.18847063114017965

>  <r_i_glide_ligand_efficiency_ln>  (1) 
-1.5761246815654655

>  <r_i_glide_ligand_efficiency_sa>  (1) 
-0.63914376099467951

>  <r_i_glide_lipo>  (1) 
-3.8961860198455187

>  <r_i_glide_metal>  (1) 
-0

>  <r_i_glide_rewards>  (1) 
-1.1287178188939171

>  <r_lp_Energy>  (1) 
77.88823699999999

>  <s_epik_Chemistry_Notes>  (1) 
This compound contains an acetal/aminal-like group ( X-CH(R)-Y where X, Y are N, S, or O) that may be acid/base labile, releasing an aldehyde.

>  <s_epik_cmdline>  (1) 
J2VwaWtfcHl0aG9uJywgJy1waHQnLCAnMS4wJywgJy1waCcsICc3LjQnLCAnLXRuJywgJzgnLCAnLW1hJywgJzUwMCcsICctaW1hZScsICc8aW5maWxlLm1hZT4nLCAnLW9tYWUnLCAnPG91dGZpbGUubWFlPic=

>  <s_epik_input>  (1) 
W05IXTFbQ0gyXVtDSDJdW05IXU4xW0NAQEhdKFtDSDJdW0NIXShbQ0gzXSlbQ0gzXSlbQ0BASF0oW09IXSlbTkhdW0NASF0oW0NIMl1bT0hdKVtDSDJdW0NAQEhdMltDSDJdW0NASF0oW0NIMl1bQ0gyXVtDQEBIXShOMjMpW0NIXTNbQ0gzXSlbTkhdW0NIMl1bQ0BASF0oW0NASF0oTzQpW1NIXSlbQ0BIXShDND01KVtDSF09W0NIXVtDSF09W0NIXVtDSF01

>  <s_glide_docking_method>  (1) 
confgen

>  <s_i_glide_gridfile>  (1) 
gpcr_5ht2c_6bqh_protein_autoprepared_prepared

>  <s_lp_Force_Field>  (1) 
S-OPLS

>  <s_lp_Variant>  (1) 
DiffSBDD_17-3

>  <s_m_source_file>  (1) 
generated_GPCR_5HT2C_ligand_DiffSBDD_2026-06-23_prepared.sdf

>  <GenAI_Model>  (1) 
DiffSBDD

>  <Protein>  (1) 
GPCR_5HT2C

$$$$
DiffSBDD_29
     RDKit          3D

  0  0  0  0  0  0  0  0  0  0999 V3000
M  V30 BEGIN CTAB
M  V30 COUNTS 78 81 0 0 1
M  V30 BEGIN ATOM
M  V30 1 C 38.442191 27.400036 56.862968 0 CFG=1
M  V30 2 C 37.382013 36.022718 59.367793 0
M  V30 3 C 36.445151 34.951927 61.400202 0
M  V30 4 C 38.776318 28.391221 53.183039 0
M  V30 5 C 36.227234 35.265991 59.978685 0 CFG=2
M  V30 6 C 37.245056 23.737784 57.576531 0
M  V30 7 C 37.723366 32.065599 60.269925 0
M  V30 8 C 36.445032 37.551262 62.014848 0
M  V30 9 N 39.257934 29.713173 58.353705 0
M  V30 10 O 36.346444 33.868043 59.452051 0
M  V30 11 C 40.112833 29.353382 50.902005 0
M  V30 12 C 37.532971 37.904690 61.018151 0
M  V30 13 C 36.039964 30.245489 59.304065 0
M  V30 14 N 38.045307 31.404332 57.447887 0
M  V30 15 N 39.015160 27.658864 55.530675 0 CFG=1 CHG=1
M  V30 16 C 37.290258 37.516755 59.569913 0
M  V30 17 C 38.559601 29.751552 59.676657 0
M  V30 18 C 39.018010 30.534843 57.274239 0
M  V30 19 N 36.607759 32.920931 60.573944 0
M  V30 20 C 39.645169 28.028004 50.944760 0
M  V30 21 C 37.552496 26.136880 56.957573 0
M  V30 22 C 39.713366 27.330042 57.742715 0 CFG=1
M  V30 23 C 40.115199 26.685318 55.391954 0
M  V30 24 C 38.981131 27.550186 52.081574 0
M  V30 25 C 36.484458 36.070612 62.454936 0
M  V30 26 C 39.237282 29.726345 53.142301 0
M  V30 27 C 40.720052 26.610465 56.813181 0
M  V30 28 O 39.645180 30.451937 56.224775 0
M  V30 29 C 37.334300 30.596628 60.069707 0 CFG=1
M  V30 30 C 38.066287 27.860485 54.411519 0
M  V30 31 C 38.251849 24.799570 57.272009 0
M  V30 32 C 36.633209 33.714823 61.628755 0
M  V30 33 O 38.562962 38.478461 61.367739 0
M  V30 34 C 40.284250 28.675484 58.243100 0
M  V30 35 C 39.911927 30.202555 52.002691 0
M  V30 36 H 37.762556 28.212258 57.112989 0
M  V30 37 H 37.318059 35.830997 58.298553 0
M  V30 38 H 38.323353 35.635864 59.767770 0
M  V30 39 H 35.249782 35.677243 59.739891 0
M  V30 40 H 37.675526 22.937739 58.167784 0
M  V30 41 H 36.449443 24.189792 58.167375 0
M  V30 42 H 36.804416 23.332047 56.665275 0
M  V30 43 H 38.301845 32.517212 59.468648 0
M  V30 44 H 38.413194 32.107013 61.114772 0
M  V30 45 H 35.494927 37.838935 61.574254 0
M  V30 46 H 36.562825 38.185588 62.893648 0
M  V30 47 H 40.626426 29.718934 50.023480 0
M  V30 48 H 36.157074 30.094790 58.233498 0
M  V30 49 H 35.645214 29.303770 59.675268 0
M  V30 50 H 35.259753 30.993739 59.445573 0
M  V30 51 H 37.528177 31.421340 58.314540 0
M  V30 52 H 37.788108 32.032087 56.697885 0
M  V30 53 H 36.267489 37.737743 59.287736 0
M  V30 54 H 37.975557 38.056140 58.915466 0
M  V30 55 H 39.338792 29.973384 60.409264 0
M  V30 56 H 38.280878 28.716984 59.884806 0
M  V30 57 H 39.799116 27.373697 50.109200 0
M  V30 58 H 36.849252 26.330336 57.767939 0
M  V30 59 H 36.920952 26.024433 56.077880 0
M  V30 60 H 39.521619 26.765905 58.653550 0
M  V30 61 H 40.844867 26.937743 54.636790 0
M  V30 62 H 39.722757 25.724410 55.069104 0
M  V30 63 H 38.627790 26.537768 52.107272 0
M  V30 64 H 35.702812 35.886254 63.193381 0
M  V30 65 H 37.438632 35.959499 62.967714 0
M  V30 66 H 39.073510 30.382529 53.978286 0
M  V30 67 H 41.715130 27.051593 56.855370 0
M  V30 68 H 40.844932 25.580608 57.128954 0
M  V30 69 H 37.100941 30.296621 61.088063 0
M  V30 70 H 37.547434 26.933108 54.168092 0
M  V30 71 H 37.305745 28.583284 54.708483 0
M  V30 72 H 38.873207 24.431443 56.460796 0
M  V30 73 H 38.876010 24.871860 58.156705 0
M  V30 74 H 36.851078 33.255554 62.567727 0
M  V30 75 H 41.099521 28.990450 57.600405 0
M  V30 76 H 40.762938 28.523652 59.212578 0
M  V30 77 H 40.267759 31.222240 51.970545 0
M  V30 78 H 39.465145 28.564015 55.632274 0
M  V30 END ATOM
M  V30 BEGIN BOND
M  V30 1 1 5 2
M  V30 2 1 5 3
M  V30 3 1 10 5
M  V30 4 1 12 8
M  V30 5 1 15 1
M  V30 6 1 16 2
M  V30 7 1 16 12
M  V30 8 1 17 9
M  V30 9 1 18 9
M  V30 10 1 18 14
M  V30 11 1 19 7
M  V30 12 1 19 10
M  V30 13 2 20 11
M  V30 14 1 21 1
M  V30 15 1 22 1
M  V30 16 1 23 15
M  V30 17 2 24 4
M  V30 18 1 24 20
M  V30 19 1 25 3
M  V30 20 1 25 8
M  V30 21 1 26 4
M  V30 22 1 27 22
M  V30 23 1 27 23
M  V30 24 2 28 18
M  V30 25 1 29 7
M  V30 26 1 29 13
M  V30 27 1 29 17
M  V30 28 1 30 4
M  V30 29 1 30 15
M  V30 30 1 31 6
M  V30 31 1 31 21
M  V30 32 2 32 3
M  V30 33 1 32 19
M  V30 34 2 33 12
M  V30 35 1 34 9
M  V30 36 1 34 22
M  V30 37 1 35 11
M  V30 38 2 35 26
M  V30 39 1 1 36 CFG=1
M  V30 40 1 37 2
M  V30 41 1 38 2
M  V30 42 1 5 39 CFG=1
M  V30 43 1 40 6
M  V30 44 1 41 6
M  V30 45 1 42 6
M  V30 46 1 43 7
M  V30 47 1 44 7
M  V30 48 1 45 8
M  V30 49 1 46 8
M  V30 50 1 47 11
M  V30 51 1 48 13
M  V30 52 1 49 13
M  V30 53 1 50 13
M  V30 54 1 51 14
M  V30 55 1 52 14
M  V30 56 1 53 16
M  V30 57 1 54 16
M  V30 58 1 55 17
M  V30 59 1 56 17
M  V30 60 1 57 20
M  V30 61 1 58 21
M  V30 62 1 59 21
M  V30 63 1 22 60 CFG=1
M  V30 64 1 61 23
M  V30 65 1 62 23
M  V30 66 1 63 24
M  V30 67 1 64 25
M  V30 68 1 65 25
M  V30 69 1 66 26
M  V30 70 1 67 27
M  V30 71 1 68 27
M  V30 72 1 29 69 CFG=1
M  V30 73 1 70 30
M  V30 74 1 71 30
M  V30 75 1 72 31
M  V30 76 1 73 31
M  V30 77 1 74 32
M  V30 78 1 75 34
M  V30 79 1 76 34
M  V30 80 1 77 35
M  V30 81 1 15 78 CFG=1
M  V30 END BOND
M  V30 END CTAB
M  END
>  <i_epik_Tot_Q>  (1) 
1

>  <i_epik_Tot_abs_Q>  (1) 
1

>  <i_i_glide_confnum>  (1) 
409

>  <i_i_glide_lignum>  (1) 
64

>  <i_i_glide_posenum>  (1) 
11

>  <i_i_glide_rotatable_bonds>  (1) 
11

>  <i_lp_mmshare_version>  (1) 
72125

>  <i_m_source_file_index>  (1) 
30

>  <i_f3d_flags>  (1) 
0

>  <num_sample>  (1) 
50

>  <b_lp_Chiralities_Consistent>  (1) 
1

>  <r_epik_Charging_Adjusted_Penalty>  (1) 
0.034972120206071468

>  <r_epik_Ionization_Penalty>  (1) 
0.01911812601903189

>  <r_epik_Ionization_Penalty_Charging>  (1) 
0.017486060103035727

>  <r_epik_Ionization_Penalty_Neutral>  (1) 
0.0016320659159961622

>  <r_epik_State_Penalty>  (1) 
0.017486060103035741

>  <r_glide_ring_energy>  (1) 
0

>  <r_i_docking_score>  (1) 
-7.3492273513173254

>  <r_i_glide_ecoul>  (1) 
-2.3866465441472755

>  <r_i_glide_eff_state_penalty>  (1) 
0.017486060103035741

>  <r_i_glide_einternal>  (1) 
28.360339328174241

>  <r_i_glide_emodel>  (1) 
-35.359926535436202

>  <r_i_glide_emodel_strain>  (1) 
3.7932508339511344

>  <r_i_glide_energy>  (1) 
-34.211863012435828

>  <r_i_glide_erotb>  (1) 
0.69426181123573816

>  <r_i_glide_esite>  (1) 
-0.12502952883668081

>  <r_i_glide_evdw>  (1) 
-31.825216468288552

>  <r_i_glide_gscore>  (1) 
-7.3667134114203607

>  <r_i_glide_gscore_strain>  (1) 
0

>  <r_i_glide_hbond>  (1) 
0

>  <r_i_glide_ligand_efficiency>  (1) 
-0.20997792432335216

>  <r_i_glide_ligand_efficiency_ln>  (1) 
-1.6133185109272259

>  <r_i_glide_ligand_efficiency_sa>  (1) 
-0.68685171413744661

>  <r_i_glide_lipo>  (1) 
-4.65432845701201

>  <r_i_glide_metal>  (1) 
-0

>  <r_i_glide_rewards>  (1) 
-1.3323594317708891

>  <r_lp_Energy>  (1) 
30.748728

>  <r_lp_tautomer_probability>  (1) 
0.99999998000000001

>  <s_epik_Chemistry_Notes>  (1) 
This compound has a N-S or N-O group and may undergo hydrolysis at high or low pH.

>  <s_epik_cmdline>  (1) 
J2VwaWtfcHl0aG9uJywgJy1waHQnLCAnMS4wJywgJy1waCcsICc3LjQnLCAnLXRuJywgJzgnLCAnLW1hJywgJzUwMCcsICctaW1hZScsICc8aW5maWxlLm1hZT4nLCAnLW9tYWUnLCAnPG91dGZpbGUubWFlPic=

>  <s_epik_input>  (1) 
W2NIXTFbY0hdW2NIXVtjSF1bY0hdYzFbQ0gyXU4oW0NASF0yW0NIMl1bQ0gyXVtDSDNdKVtDSDJdW0NIMl1bQ0BIXTJbQ0gyXU4oQyg9TylbTkgyXSlbQ0gyXVtDQEhdKFtDSDNdKVtDSDJdTihbQ0hdMylPW0NAQEhdKEM9MzQpW0NIMl1bQ0gyXUMoPU8pW0NIMl1bQ0gyXTQ=

>  <s_glide_docking_method>  (1) 
confgen

>  <s_i_glide_gridfile>  (1) 
gpcr_5ht2c_6bqh_protein_autoprepared_prepared

>  <s_lp_Force_Field>  (1) 
S-OPLS

>  <s_lp_Variant>  (1) 
DiffSBDD_29-1

>  <s_m_source_file>  (1) 
generated_GPCR_5HT2C_ligand_DiffSBDD_2026-06-23_prepared.sdf

>  <GenAI_Model>  (1) 
DiffSBDD

>  <Protein>  (1) 
GPCR_5HT2C

$$$$
DiffSBDD_13
     RDKit          3D

  0  0  0  0  0  0  0  0  0  0999 V3000
M  V30 BEGIN CTAB
M  V30 COUNTS 81 82 0 0 1
M  V30 BEGIN ATOM
M  V30 1 N 37.345344 29.737235 57.909032 0
M  V30 2 C 39.503103 27.273044 57.324539 0 CFG=2
M  V30 3 O 39.670059 37.737635 62.967821 0
M  V30 4 C 40.332626 30.028244 51.350793 0
M  V30 5 C 41.823374 28.138654 56.986085 0
M  V30 6 C 41.090906 28.395090 62.565834 0
M  V30 7 C 36.189610 35.327155 59.812878 0
M  V30 8 C 39.910877 28.055056 59.721439 0
M  V30 9 C 38.068083 27.582297 54.596776 0
M  V30 10 O 40.058587 29.123792 61.934268 0
M  V30 11 C 40.201086 29.356930 60.541986 0 CFG=2
M  V30 12 N 39.200825 28.249045 58.416782 0 CFG=2 CHG=1
M  V30 13 O 40.900335 36.172742 61.770368 0
M  V30 14 C 37.703270 27.186047 53.137164 0
M  V30 15 C 39.191120 29.073080 53.270891 0
M  V30 16 C 38.410332 34.947263 60.755940 0 CFG=1
M  V30 17 C 40.045116 30.056546 52.737286 0
M  V30 18 C 39.807672 25.794254 57.683207 0
M  V30 19 C 38.848941 28.975395 54.723527 0 CFG=2
M  V30 20 C 39.390621 31.787456 61.092180 0
M  V30 21 C 38.013224 32.460782 61.128377 0
M  V30 22 C 37.734551 28.492782 58.557659 0
M  V30 23 C 39.686377 36.443628 62.432185 0
M  V30 24 C 38.029648 33.842358 61.745697 0
M  V30 25 O 39.949608 29.057382 55.670341 0
M  V30 26 C 40.483160 27.870610 56.290433 0 CFG=2
M  V30 27 C 38.558296 24.899037 57.721395 0
M  V30 28 C 38.889133 28.080327 51.098027 0
M  V30 29 F 41.165671 30.937535 50.811139 0
M  V30 30 O 37.546649 34.954854 59.621202 0
M  V30 31 C 38.616611 28.133200 52.468459 0
M  V30 32 C 38.505735 36.323766 61.444083 0
M  V30 33 C 39.755529 29.033942 50.533103 0
M  V30 34 O 36.118237 30.137378 58.567722 0
M  V30 35 C 39.222216 30.505241 60.290808 0
M  V30 36 H 37.952709 30.492970 58.194251 0
M  V30 37 H 38.559175 27.169131 56.844449 0
M  V30 38 H 40.323582 37.803453 63.653006 0
M  V30 39 H 42.262922 27.220929 57.378435 0
M  V30 40 H 42.538599 28.563722 56.302351 0
M  V30 41 H 41.738953 28.843247 57.810984 0
M  V30 42 H 41.199224 28.738259 63.595621 0
M  V30 43 H 40.844737 27.337864 62.591585 0
M  V30 44 H 42.045063 28.525662 62.065555 0
M  V30 45 H 35.660199 35.235253 58.864144 0
M  V30 46 H 35.680962 34.676231 60.524163 0
M  V30 47 H 36.101687 36.364577 60.136860 0
M  V30 48 H 39.334588 27.338539 60.295338 0
M  V30 49 H 40.879474 27.588225 59.554865 0
M  V30 50 H 38.738420 26.759913 54.829635 0
M  V30 51 H 37.245123 27.494553 55.286004 0
M  V30 52 H 41.201621 29.728339 60.312789 0
M  V30 53 H 41.598448 36.144589 62.406095 0
M  V30 54 H 36.662014 27.418860 52.925863 0
M  V30 55 H 37.913824 26.137563 52.965765 0
M  V30 56 H 39.386025 34.701978 60.337508 0
M  V30 57 H 40.487770 30.806148 53.376585 0
M  V30 58 H 40.428120 25.382115 56.885992 0
M  V30 59 H 40.417994 25.675610 58.567943 0
M  V30 60 H 38.148168 29.782355 54.941491 0
M  V30 61 H 39.723121 31.587241 62.111350 0
M  V30 62 H 40.147974 32.418531 60.627458 0
M  V30 63 H 37.579945 32.506822 60.128536 0
M  V30 64 H 37.337582 31.844861 61.722577 0
M  V30 65 H 37.516288 28.538177 59.619621 0
M  V30 66 H 37.121681 27.679641 58.167488 0
M  V30 67 H 39.562887 35.751339 63.262336 0
M  V30 68 H 37.047879 34.050913 62.167393 0
M  V30 69 H 38.737079 33.826305 62.569508 0
M  V30 70 H 40.699938 27.152538 55.501794 0
M  V30 71 H 38.830768 23.845253 57.767338 0
M  V30 72 H 37.921274 25.138704 58.568011 0
M  V30 73 H 37.959478 25.008542 56.817189 0
M  V30 74 H 38.445128 27.314752 50.485949 0
M  V30 75 H 38.579374 37.095328 60.681874 0
M  V30 76 H 37.574170 36.524414 61.978169 0
M  V30 77 H 39.976966 29.006247 49.477065 0
M  V30 78 H 35.709710 30.716485 57.899165 0
M  V30 79 H 39.236806 30.796624 59.243656 0
M  V30 80 H 38.229284 30.141224 60.541518 0
M  V30 81 H 39.565989 29.114437 58.043353 0
M  V30 END ATOM
M  V30 BEGIN BOND
M  V30 1 1 10 6
M  V30 2 1 11 8
M  V30 3 1 11 10
M  V30 4 1 12 2
M  V30 5 1 12 8
M  V30 6 1 14 9
M  V30 7 2 17 4
M  V30 8 1 17 15
M  V30 9 1 18 2
M  V30 10 1 19 9
M  V30 11 1 19 15
M  V30 12 1 21 20
M  V30 13 1 22 1
M  V30 14 1 22 12
M  V30 15 1 23 3
M  V30 16 1 23 13
M  V30 17 1 24 16
M  V30 18 1 24 21
M  V30 19 1 25 19
M  V30 20 1 26 2
M  V30 21 1 26 5
M  V30 22 1 26 25
M  V30 23 1 27 18
M  V30 24 1 29 4
M  V30 25 1 30 7
M  V30 26 1 30 16
M  V30 27 1 31 14
M  V30 28 2 31 15
M  V30 29 1 31 28
M  V30 30 1 32 16
M  V30 31 1 32 23
M  V30 32 1 33 4
M  V30 33 2 33 28
M  V30 34 1 34 1
M  V30 35 1 35 11
M  V30 36 1 35 20
M  V30 37 1 36 1
M  V30 38 1 2 37 CFG=3
M  V30 39 1 38 3
M  V30 40 1 39 5
M  V30 41 1 40 5
M  V30 42 1 41 5
M  V30 43 1 42 6
M  V30 44 1 43 6
M  V30 45 1 44 6
M  V30 46 1 45 7
M  V30 47 1 46 7
M  V30 48 1 47 7
M  V30 49 1 48 8
M  V30 50 1 49 8
M  V30 51 1 50 9
M  V30 52 1 51 9
M  V30 53 1 11 52 CFG=1
M  V30 54 1 53 13
M  V30 55 1 54 14
M  V30 56 1 55 14
M  V30 57 1 16 56 CFG=3
M  V30 58 1 57 17
M  V30 59 1 58 18
M  V30 60 1 59 18
M  V30 61 1 19 60 CFG=1
M  V30 62 1 61 20
M  V30 63 1 62 20
M  V30 64 1 63 21
M  V30 65 1 64 21
M  V30 66 1 65 22
M  V30 67 1 66 22
M  V30 68 1 67 23
M  V30 69 1 68 24
M  V30 70 1 69 24
M  V30 71 1 26 70 CFG=3
M  V30 72 1 71 27
M  V30 73 1 72 27
M  V30 74 1 73 27
M  V30 75 1 74 28
M  V30 76 1 75 32
M  V30 77 1 76 32
M  V30 78 1 77 33
M  V30 79 1 78 34
M  V30 80 1 79 35
M  V30 81 1 80 35
M  V30 82 1 12 81 CFG=3
M  V30 END BOND
M  V30 END CTAB
M  END
>  <i_epik_Tot_Q>  (1) 
1

>  <i_epik_Tot_abs_Q>  (1) 
1

>  <i_i_glide_confnum>  (1) 
4658

>  <i_i_glide_lignum>  (1) 
25

>  <i_i_glide_posenum>  (1) 
116

>  <i_i_glide_rotatable_bonds>  (1) 
21

>  <i_lp_mmshare_version>  (1) 
72125

>  <i_m_source_file_index>  (1) 
14

>  <i_f3d_flags>  (1) 
0

>  <num_sample>  (1) 
50

>  <b_lp_Chiralities_Consistent>  (1) 
1

>  <r_epik_Charging_Adjusted_Penalty>  (1) 
0.45110583801900384

>  <r_epik_Ionization_Penalty>  (1) 
0.22670498176529164

>  <r_epik_Ionization_Penalty_Charging>  (1) 
0.22555291900950195

>  <r_epik_Ionization_Penalty_Neutral>  (1) 
0.001152062755789702

>  <r_epik_State_Penalty>  (1) 
0.22555291900950192

>  <r_glide_ring_energy>  (1) 
0

>  <r_i_docking_score>  (1) 
-7.3460484597339075

>  <r_i_glide_ecoul>  (1) 
-10.213396205643882

>  <r_i_glide_eff_state_penalty>  (1) 
0.22555291900950192

>  <r_i_glide_einternal>  (1) 
35.47966859153027

>  <r_i_glide_emodel>  (1) 
-41.175233001659038

>  <r_i_glide_emodel_strain>  (1) 
8.5260299434175266

>  <r_i_glide_energy>  (1) 
-44.275381880076296

>  <r_i_glide_erotb>  (1) 
1.1363863637419909

>  <r_i_glide_esite>  (1) 
-0.1743041464918007

>  <r_i_glide_evdw>  (1) 
-34.061985674432414

>  <r_i_glide_gscore>  (1) 
-7.5716013787434093

>  <r_i_glide_gscore_strain>  (1) 
1.1315074858543817

>  <r_i_glide_hbond>  (1) 
-0.4287319606635191

>  <r_i_glide_ligand_efficiency>  (1) 
-0.20988709884954021

>  <r_i_glide_ligand_efficiency_ln>  (1) 
-1.6126206736729682

>  <r_i_glide_ligand_efficiency_sa>  (1) 
-0.68655461798995343

>  <r_i_glide_lipo>  (1) 
-4.8365491401105327

>  <r_i_glide_metal>  (1) 
-0

>  <r_i_glide_rewards>  (1) 
-1.1648012665057266

>  <r_lp_Energy>  (1) 
16.295462000000001

>  <s_epik_Chemistry_Notes>  (1) 
This compound contains an acetal/aminal-like group ( X-CH(R)-Y where X, Y are N, S, or O) that may be acid/base labile, releasing an aldehyde. This compound has a N-S or N-O group and may undergo hydrolysis at high or low pH.

>  <s_epik_cmdline>  (1) 
J2VwaWtfcHl0aG9uJywgJy1waHQnLCAnMS4wJywgJy1waCcsICc3LjQnLCAnLXRuJywgJzgnLCAnLW1hJywgJzUwMCcsICctaW1hZScsICc8aW5maWxlLm1hZT4nLCAnLW9tYWUnLCAnPG91dGZpbGUubWFlPic=

>  <s_epik_input>  (1) 
W09IXVtDSF0oW09IXSlbQ0gyXVtDQEhdKE9bQ0gzXSlbQ0gyXVtDSDJdW0NIMl1bQ0gyXVtDQEBIXShPW0NIM10pW0NIMl1OKFtDSDJdW05IXVtPSF0pW0NASF0oW0NIMl1bQ0gzXSlbQ0BIXShbQ0gzXSlPW0NAQEhdMVtDSDJdW0NIMl1jKGMxMilbY0hdW2NIXWMoRilbY0hdMg==

>  <s_glide_docking_method>  (1) 
confgen

>  <s_i_glide_gridfile>  (1) 
gpcr_5ht2c_6bqh_protein_autoprepared_prepared

>  <s_lp_Force_Field>  (1) 
S-OPLS

>  <s_lp_Variant>  (1) 
DiffSBDD_13-2

>  <s_m_source_file>  (1) 
generated_GPCR_5HT2C_ligand_DiffSBDD_2026-06-23_prepared.sdf

>  <GenAI_Model>  (1) 
DiffSBDD

>  <Protein>  (1) 
GPCR_5HT2C

$$$$
DiffSBDD_33
     RDKit          3D

  0  0  0  0  0  0  0  0  0  0999 V3000
M  V30 BEGIN CTAB
M  V30 COUNTS 49 51 0 0 1
M  V30 BEGIN ATOM
M  V30 1 C 38.970222 30.360693 55.355355 0 CFG=1
M  V30 2 C 39.461260 30.803873 53.961617 0
M  V30 3 C 38.470611 34.265965 60.579175 0
M  V30 4 C 37.720574 36.555469 60.942639 0
M  V30 5 C 38.231719 32.777335 55.882510 0
M  V30 6 C 36.683019 36.365184 60.011659 0
M  V30 7 C 38.930124 31.508517 56.404241 0 CFG=1
M  V30 8 C 40.045137 29.935978 51.653097 0
M  V30 9 C 38.446335 31.992696 58.930740 0
M  V30 10 C 37.423241 34.070382 59.641371 0
M  V30 11 C 37.875301 37.884756 61.638434 0
M  V30 12 C 39.376052 29.737750 52.877999 0
M  V30 13 C 39.976165 28.956349 50.646430 0
M  V30 14 C 38.371818 31.003918 57.765317 0
M  V30 15 C 36.530479 35.123446 59.367762 0
M  V30 16 C 38.624949 28.550116 53.084429 0
M  V30 17 C 38.569343 27.574748 52.075839 0
M  V30 18 C 39.245137 27.774072 50.862522 0
M  V30 19 C 37.880908 28.318780 54.383879 0
M  V30 20 C 37.652629 29.586718 55.198185 0
M  V30 21 N 37.264092 32.840570 58.979054 0
M  V30 22 C 38.613627 35.505631 61.226104 0
M  V30 23 H 39.700514 29.640808 55.728803 0
M  V30 24 H 40.487830 31.165026 54.031028 0
M  V30 25 H 38.862205 31.632218 53.586294 0
M  V30 26 H 39.159205 33.467739 60.806059 0
M  V30 27 H 37.245137 32.537755 55.504154 0
M  V30 28 H 38.131523 33.549216 56.642517 0
M  V30 29 H 38.790315 33.241581 55.072052 0
M  V30 30 H 35.999109 37.171694 59.793576 0
M  V30 31 H 39.966785 31.800164 56.567765 0
M  V30 32 H 40.610799 30.841755 51.486337 0
M  V30 33 H 38.516582 31.445363 59.871537 0
M  V30 34 H 39.344796 32.596662 58.821674 0
M  V30 35 H 36.903724 38.349236 61.810181 0
M  V30 36 H 38.362768 37.737755 62.602344 0
M  V30 37 H 38.481800 38.561171 61.036319 0
M  V30 38 H 40.482862 29.111726 49.707451 0
M  V30 39 H 37.333216 30.687219 57.679566 0
M  V30 40 H 38.934991 30.114275 58.048588 0
M  V30 41 H 35.730501 34.981361 58.655028 0
M  V30 42 H 38.002741 26.670148 52.233520 0
M  V30 43 H 39.196568 27.020378 50.093534 0
M  V30 44 H 36.921908 27.845937 54.167760 0
M  V30 45 H 38.454206 27.601833 54.972653 0
M  V30 46 H 36.899702 30.217794 54.723049 0
M  V30 47 H 37.245151 29.271659 56.153079 0
M  V30 48 H 36.595480 32.767290 58.212548 0
M  V30 49 H 39.410298 35.651185 61.940961 0
M  V30 END ATOM
M  V30 BEGIN BOND
M  V30 1 1 2 1
M  V30 2 1 6 4
M  V30 3 1 7 1
M  V30 4 1 7 5
M  V30 5 2 10 3
M  V30 6 1 11 4
M  V30 7 1 12 2
M  V30 8 2 12 8
M  V30 9 1 13 8
M  V30 10 1 14 7
M  V30 11 1 14 9
M  V30 12 2 15 6
M  V30 13 1 15 10
M  V30 14 1 16 12
M  V30 15 2 17 16
M  V30 16 2 18 13
M  V30 17 1 18 17
M  V30 18 1 19 16
M  V30 19 1 20 1
M  V30 20 1 20 19
M  V30 21 1 21 9
M  V30 22 1 21 10
M  V30 23 1 22 3
M  V30 24 2 22 4
M  V30 25 1 1 23 CFG=1
M  V30 26 1 24 2
M  V30 27 1 25 2
M  V30 28 1 26 3
M  V30 29 1 27 5
M  V30 30 1 28 5
M  V30 31 1 29 5
M  V30 32 1 30 6
M  V30 33 1 7 31 CFG=1
M  V30 34 1 32 8
M  V30 35 1 33 9
M  V30 36 1 34 9
M  V30 37 1 35 11
M  V30 38 1 36 11
M  V30 39 1 37 11
M  V30 40 1 38 13
M  V30 41 1 39 14
M  V30 42 1 40 14
M  V30 43 1 41 15
M  V30 44 1 42 17
M  V30 45 1 43 18
M  V30 46 1 44 19
M  V30 47 1 45 19
M  V30 48 1 46 20
M  V30 49 1 47 20
M  V30 50 1 48 21
M  V30 51 1 49 22
M  V30 END BOND
M  V30 END CTAB
M  END
>  <i_epik_Tot_Q>  (1) 
0

>  <i_epik_Tot_abs_Q>  (1) 
0

>  <i_i_glide_confnum>  (1) 
41

>  <i_i_glide_lignum>  (1) 
72

>  <i_i_glide_posenum>  (1) 
295

>  <i_i_glide_rotatable_bonds>  (1) 
5

>  <i_lp_mmshare_version>  (1) 
72125

>  <i_m_source_file_index>  (1) 
34

>  <i_f3d_flags>  (1) 
0

>  <num_sample>  (1) 
50

>  <b_lp_Chiralities_Consistent>  (1) 
1

>  <r_epik_Charging_Adjusted_Penalty>  (1) 
0.016607450009884436

>  <r_epik_Ionization_Penalty>  (1) 
0.016607451576217569

>  <r_epik_Ionization_Penalty_Charging>  (1) 
0

>  <r_epik_Ionization_Penalty_Neutral>  (1) 
0.016607451576217569

>  <r_epik_State_Penalty>  (1) 
0.016607450009884436

>  <r_glide_ring_energy>  (1) 
0

>  <r_i_docking_score>  (1) 
-7.3420536813978767

>  <r_i_glide_ecoul>  (1) 
-2.3592586614071989

>  <r_i_glide_eff_state_penalty>  (1) 
0.016607450009884436

>  <r_i_glide_einternal>  (1) 
6.4646180208587323

>  <r_i_glide_emodel>  (1) 
-52.20276800492509

>  <r_i_glide_emodel_strain>  (1) 
0.67672362900166405

>  <r_i_glide_energy>  (1) 
-38.322298357596935

>  <r_i_glide_erotb>  (1) 
0.84876371761229696

>  <r_i_glide_esite>  (1) 
-0.081687621837620239

>  <r_i_glide_evdw>  (1) 
-35.963039696189739

>  <r_i_glide_gscore>  (1) 
-7.3586611314077608

>  <r_i_glide_gscore_strain>  (1) 
0

>  <r_i_glide_hbond>  (1) 
-0.16

>  <r_i_glide_ligand_efficiency>  (1) 
-0.33372971279081259

>  <r_i_glide_ligand_efficiency_ln>  (1) 
-1.7946657276486637

>  <r_i_glide_ligand_efficiency_sa>  (1) 
-0.93512378104818317

>  <r_i_glide_lipo>  (1) 
-3.5101304991991946

>  <r_i_glide_metal>  (1) 
-0

>  <r_i_glide_rewards>  (1) 
-2.3035659439626759

>  <r_lp_Energy>  (1) 
32.477902999999998

>  <s_epik_cmdline>  (1) 
J2VwaWtfcHl0aG9uJywgJy1waHQnLCAnMS4wJywgJy1waCcsICc3LjQnLCAnLXRuJywgJzgnLCAnLW1hJywgJzUwMCcsICctaW1hZScsICc8aW5maWxlLm1hZT4nLCAnLW9tYWUnLCAnPG91dGZpbGUubWFlPic=

>  <s_epik_input>  (1) 
W2NIXTFbY0hdW2NIXVtjSF1jKGMxMilbQ0gyXVtDSDJdW0NAQEhdKFtDSDJdMilbQ0BASF0oW0NIM10pW0NIMl1bQ0gyXVtOSF1jKFtjSF1bY0hdMylbY0hdW2NIXWMzW0NIM10=

>  <s_glide_docking_method>  (1) 
confgen

>  <s_i_glide_gridfile>  (1) 
gpcr_5ht2c_6bqh_protein_autoprepared_prepared

>  <s_lp_Force_Field>  (1) 
S-OPLS

>  <s_lp_Variant>  (1) 
DiffSBDD_33-1

>  <s_m_source_file>  (1) 
generated_GPCR_5HT2C_ligand_DiffSBDD_2026-06-23_prepared.sdf

>  <GenAI_Model>  (1) 
DiffSBDD

>  <Protein>  (1) 
GPCR_5HT2C

$$$$
DiffSBDD_44
     RDKit          3D

  0  0  0  0  0  0  0  0  0  0999 V3000
M  V30 BEGIN CTAB
M  V30 COUNTS 50 52 0 0 1
M  V30 BEGIN ATOM
M  V30 1 N 39.571344 28.653391 59.089138 0
M  V30 2 N 40.445140 36.345517 63.274367 0
M  V30 3 C 38.083581 32.250331 61.220278 0
M  V30 4 C 37.115276 34.287389 60.048475 0
M  V30 5 C 39.376874 25.957610 57.767748 0
M  V30 6 C 40.020846 27.219556 57.158512 0
M  V30 7 C 38.010207 33.738887 61.002585 0
M  V30 8 C 38.929328 29.520404 59.989603 0
M  V30 9 C 39.183849 30.407007 62.348454 0
M  V30 10 C 38.780662 35.998131 61.565463 0
M  V30 11 C 38.407493 25.383715 56.726427 0
M  V30 12 C 39.394886 28.567208 57.626183 0 CFG=1
M  V30 13 C 37.054903 35.679169 59.860519 0
M  V30 14 C 38.735303 26.064287 55.392527 0
M  V30 15 C 37.209054 31.303666 60.473312 0
M  V30 16 C 37.645146 29.652864 56.154428 0
M  V30 17 C 38.845104 34.595295 61.759022 0
M  V30 18 C 37.986593 28.724613 57.068430 0
M  V30 19 C 37.881052 36.532201 60.614173 0
M  V30 20 C 39.245134 29.399258 61.424335 0
M  V30 21 C 39.958316 26.953042 55.646134 0
M  V30 22 O 39.645136 38.137754 62.167759 0
M  V30 23 N 38.899875 31.756496 62.057440 0
M  V30 24 C 39.663212 36.927335 62.362578 0
M  V30 25 C 38.025641 30.435674 59.564619 0
M  V30 26 H 40.237662 28.001018 59.476851 0
M  V30 27 H 40.421345 35.346546 63.396763 0
M  V30 28 H 41.059762 36.916054 63.846290 0
M  V30 29 H 36.477983 33.653619 59.459420 0
M  V30 30 H 40.160831 25.223295 57.956283 0
M  V30 31 H 38.882454 26.136548 58.722751 0
M  V30 32 H 41.071956 27.247430 57.452040 0
M  V30 33 H 39.442724 30.208488 63.378677 0
M  V30 34 H 38.508193 24.299783 56.658235 0
M  V30 35 H 37.374875 25.593603 57.008150 0
M  V30 36 H 39.994151 29.374187 57.202578 0
M  V30 37 H 36.372362 36.094533 59.132725 0
M  V30 38 H 38.928076 25.338059 54.602188 0
M  V30 39 H 37.888798 26.671071 55.068875 0
M  V30 40 H 36.398749 31.749839 59.910362 0
M  V30 41 H 36.696440 30.660316 61.188655 0
M  V30 42 H 38.378507 30.342316 55.763332 0
M  V30 43 H 36.631394 29.737757 55.790167 0
M  V30 44 H 39.527227 34.176658 62.482519 0
M  V30 45 H 37.239620 28.044679 57.445404 0
M  V30 46 H 37.827313 37.600942 60.461648 0
M  V30 47 H 39.565459 28.429770 61.778398 0
M  V30 48 H 39.942545 27.867403 55.052804 0
M  V30 49 H 40.845139 26.394499 55.350103 0
M  V30 50 H 37.808905 30.539065 58.525850 0
M  V30 END ATOM
M  V30 BEGIN BOND
M  V30 1 1 6 5
M  V30 2 1 7 3
M  V30 3 2 7 4
M  V30 4 1 8 1
M  V30 5 1 11 5
M  V30 6 1 12 1
M  V30 7 1 12 6
M  V30 8 1 13 4
M  V30 9 1 14 11
M  V30 10 1 15 3
M  V30 11 1 17 7
M  V30 12 2 17 10
M  V30 13 1 18 12
M  V30 14 2 18 16
M  V30 15 1 19 10
M  V30 16 2 19 13
M  V30 17 1 20 8
M  V30 18 2 20 9
M  V30 19 1 21 6
M  V30 20 1 21 14
M  V30 21 2 23 3
M  V30 22 1 23 9
M  V30 23 1 24 2
M  V30 24 1 24 10
M  V30 25 2 24 22
M  V30 26 2 25 8
M  V30 27 1 25 15
M  V30 28 1 26 1
M  V30 29 1 27 2
M  V30 30 1 28 2
M  V30 31 1 29 4
M  V30 32 1 30 5
M  V30 33 1 31 5
M  V30 34 1 32 6
M  V30 35 1 33 9
M  V30 36 1 34 11
M  V30 37 1 35 11
M  V30 38 1 12 36 CFG=3
M  V30 39 1 37 13
M  V30 40 1 38 14
M  V30 41 1 39 14
M  V30 42 1 40 15
M  V30 43 1 41 15
M  V30 44 1 42 16
M  V30 45 1 43 16
M  V30 46 1 44 17
M  V30 47 1 45 18
M  V30 48 1 46 19
M  V30 49 1 47 20
M  V30 50 1 48 21
M  V30 51 1 49 21
M  V30 52 1 50 25
M  V30 END BOND
M  V30 END CTAB
M  END
>  <i_epik_Tot_Q>  (1) 
0

>  <i_epik_Tot_abs_Q>  (1) 
0

>  <i_i_glide_confnum>  (1) 
202

>  <i_i_glide_lignum>  (1) 
95

>  <i_i_glide_posenum>  (1) 
345

>  <i_i_glide_rotatable_bonds>  (1) 
6

>  <i_lp_mmshare_version>  (1) 
72125

>  <i_m_source_file_index>  (1) 
45

>  <i_f3d_flags>  (1) 
0

>  <num_sample>  (1) 
50

>  <b_lp_Chiralities_Consistent>  (1) 
1

>  <r_epik_Charging_Adjusted_Penalty>  (1) 
0.0076359767464213076

>  <r_epik_Ionization_Penalty>  (1) 
0.0038263815256696344

>  <r_epik_Ionization_Penalty_Charging>  (1) 
0.0038179969365927696

>  <r_epik_Ionization_Penalty_Neutral>  (1) 
8.3845890768645326e-06

>  <r_epik_State_Penalty>  (1) 
0.003817979809828538

>  <r_glide_ring_energy>  (1) 
1.1090637560940064

>  <r_i_docking_score>  (1) 
-7.3385523976258886

>  <r_i_glide_ecoul>  (1) 
-5.4104932364467011

>  <r_i_glide_eff_state_penalty>  (1) 
0.003817979809828538

>  <r_i_glide_einternal>  (1) 
7.0980529898121958

>  <r_i_glide_emodel>  (1) 
-60.16893462753616

>  <r_i_glide_emodel_strain>  (1) 
2.5232681437337305

>  <r_i_glide_energy>  (1) 
-46.329010921476041

>  <r_i_glide_erotb>  (1) 
0.83861639918750919

>  <r_i_glide_esite>  (1) 
0

>  <r_i_glide_evdw>  (1) 
-40.918517685029343

>  <r_i_glide_gscore>  (1) 
-7.3423703774357172

>  <r_i_glide_gscore_strain>  (1) 
0

>  <r_i_glide_hbond>  (1) 
-0.32000000000000001

>  <r_i_glide_ligand_efficiency>  (1) 
-0.29354209590503555

>  <r_i_glide_ligand_efficiency_ln>  (1) 
-1.7394568369063452

>  <r_i_glide_ligand_efficiency_sa>  (1) 
-0.85832229533850635

>  <r_i_glide_lipo>  (1) 
-2.8129929402633476

>  <r_i_glide_metal>  (1) 
-0

>  <r_i_glide_rewards>  (1) 
-2.1904939666414061

>  <r_lp_Energy>  (1) 
44.465160999999995

>  <s_epik_Chemistry_Notes>  (1) 
This compound has an imine and may undergo hydrolysis.

>  <s_epik_cmdline>  (1) 
J2VwaWtfcHl0aG9uJywgJy1waHQnLCAnMS4wJywgJy1waCcsICc3LjQnLCAnLXRuJywgJzgnLCAnLW1hJywgJzUwMCcsICctaW1hZScsICc8aW5maWxlLm1hZT4nLCAnLW9tYWUnLCAnPG91dGZpbGUubWFlPic=

>  <s_epik_input>  (1) 
W0NIMl0xW0NIMl1bQ0gyXVtDSDJdW0NIXTFbQ0BASF0oW0NIXT1bQ0gyXSlbTkhdQyg9W0NIXVtDSDJdMilbQ0hdPVtDSF1OPUMyYzNbY0hdW2NIXVtjSF1jKFtjSF0zKUMoPU8pW05IMl0=

>  <s_glide_docking_method>  (1) 
confgen

>  <s_i_glide_gridfile>  (1) 
gpcr_5ht2c_6bqh_protein_autoprepared_prepared

>  <s_lp_Force_Field>  (1) 
S-OPLS

>  <s_lp_Variant>  (1) 
DiffSBDD_44-1

>  <s_m_source_file>  (1) 
generated_GPCR_5HT2C_ligand_DiffSBDD_2026-06-23_prepared.sdf

>  <GenAI_Model>  (1) 
DiffSBDD

>  <Protein>  (1) 
GPCR_5HT2C

$$$$
DiffSBDD_9
     RDKit          3D

  0  0  0  0  0  0  0  0  0  0999 V3000
M  V30 BEGIN CTAB
M  V30 COUNTS 61 62 0 0 1
M  V30 BEGIN ATOM
M  V30 1 C 36.935065 35.295682 59.292082 0
M  V30 2 C 37.464918 34.180344 60.204836 0 CFG=1
M  V30 3 C 38.858977 31.456086 54.244495 0
M  V30 4 O 38.828039 37.325704 63.043829 0
M  V30 5 C 36.981384 38.470124 61.367760 0
M  V30 6 N 37.645139 31.172151 57.779353 0 CHG=1
M  V30 7 C 39.765865 29.038108 51.073052 0
M  V30 8 C 37.286574 36.974832 61.194774 0 CFG=1
M  V30 9 C 39.586707 28.337088 56.044232 0
M  V30 10 C 39.836413 36.937598 63.961794 0
M  V30 11 C 37.852790 31.061413 55.336214 0
M  V30 12 O 35.889206 38.768673 61.900378 0 CHG=-1
M  V30 13 C 38.757302 28.707971 52.187211 0 CFG=1
M  V30 14 C 37.200780 32.799022 59.572822 0
M  V30 15 C 38.938701 34.369264 60.616911 0
M  V30 16 O 38.444952 27.338136 52.020154 0
M  V30 17 C 39.245130 29.002564 53.615528 0
M  V30 18 C 37.369639 36.704903 59.689445 0
M  V30 19 C 38.086128 32.450129 58.362031 0
M  V30 20 C 39.123674 28.100965 54.617057 0
M  V30 21 C 38.503622 36.488448 61.995252 0
M  V30 22 C 38.556598 29.096053 56.895599 0
M  V30 23 O 37.850760 39.281067 60.967719 0
M  V30 24 C 39.873717 30.378535 53.842486 0
M  V30 25 C 39.222546 35.360049 61.739154 0
M  V30 26 C 38.473938 30.628600 56.687000 0 CFG=2
M  V30 27 H 37.245036 35.137584 58.262051 0
M  V30 28 H 35.845087 35.246964 59.281044 0
M  V30 29 H 36.872109 34.197914 61.120881 0
M  V30 30 H 38.305422 31.777983 53.367756 0
M  V30 31 H 39.400485 32.339922 54.576936 0
M  V30 32 H 36.694528 31.337704 57.407432 0
M  V30 33 H 39.923523 30.109665 50.965137 0
M  V30 34 H 40.732545 28.567892 51.260728 0
M  V30 35 H 39.407495 28.682268 50.106440 0
M  V30 36 H 36.445130 36.431718 61.610666 0
M  V30 37 H 39.742331 27.349499 56.481365 0
M  V30 38 H 40.565072 28.812284 56.090729 0
M  V30 39 H 39.847062 37.653496 64.782375 0
M  V30 40 H 39.645153 35.959420 64.400970 0
M  V30 41 H 40.816419 36.937831 63.483653 0
M  V30 42 H 37.154314 30.306150 54.971444 0
M  V30 43 H 37.245217 31.954017 55.489025 0
M  V30 44 H 37.842515 29.276127 52.030738 0
M  V30 45 H 36.149760 32.745752 59.278537 0
M  V30 46 H 37.329521 32.032480 60.338130 0
M  V30 47 H 39.302761 33.414052 60.995347 0
M  V30 48 H 39.575553 34.606471 59.768192 0
M  V30 49 H 37.725944 27.244150 51.409074 0
M  V30 50 H 36.732081 37.386582 59.126781 0
M  V30 51 H 38.379675 36.937686 59.367737 0
M  V30 52 H 39.129946 32.376714 58.668846 0
M  V30 53 H 38.026779 33.214358 57.587448 0
M  V30 54 H 38.667737 27.142130 54.420283 0
M  V30 55 H 37.574395 28.640769 56.771177 0
M  V30 56 H 38.826279 28.914165 57.936535 0
M  V30 57 H 40.633649 30.322227 54.617583 0
M  V30 58 H 40.436407 30.713780 52.974742 0
M  V30 59 H 40.068369 35.117159 62.360963 0
M  V30 60 H 39.479461 31.042045 56.783305 0
M  V30 61 H 37.582867 30.488679 58.517360 0
M  V30 END ATOM
M  V30 BEGIN BOND
M  V30 1 1 2 1
M  V30 2 1 8 5
M  V30 3 1 10 4
M  V30 4 1 11 3
M  V30 5 1 12 5
M  V30 6 1 13 7
M  V30 7 1 14 2
M  V30 8 1 15 2
M  V30 9 1 16 13
M  V30 10 1 17 13
M  V30 11 1 18 1
M  V30 12 1 18 8
M  V30 13 1 19 6
M  V30 14 1 19 14
M  V30 15 1 20 9
M  V30 16 2 20 17
M  V30 17 1 21 4
M  V30 18 1 21 8
M  V30 19 1 22 9
M  V30 20 2 23 5
M  V30 21 1 24 3
M  V30 22 1 24 17
M  V30 23 1 25 15
M  V30 24 2 25 21
M  V30 25 1 26 6
M  V30 26 1 26 11
M  V30 27 1 26 22
M  V30 28 1 27 1
M  V30 29 1 28 1
M  V30 30 1 2 29 CFG=1
M  V30 31 1 30 3
M  V30 32 1 31 3
M  V30 33 1 32 6
M  V30 34 1 33 7
M  V30 35 1 34 7
M  V30 36 1 35 7
M  V30 37 1 8 36 CFG=1
M  V30 38 1 37 9
M  V30 39 1 38 9
M  V30 40 1 39 10
M  V30 41 1 40 10
M  V30 42 1 41 10
M  V30 43 1 42 11
M  V30 44 1 43 11
M  V30 45 1 13 44 CFG=3
M  V30 46 1 45 14
M  V30 47 1 46 14
M  V30 48 1 47 15
M  V30 49 1 48 15
M  V30 50 1 49 16
M  V30 51 1 50 18
M  V30 52 1 51 18
M  V30 53 1 52 19
M  V30 54 1 53 19
M  V30 55 1 54 20
M  V30 56 1 55 22
M  V30 57 1 56 22
M  V30 58 1 57 24
M  V30 59 1 58 24
M  V30 60 1 59 25
M  V30 61 1 26 60 CFG=1
M  V30 62 1 61 6
M  V30 END BOND
M  V30 END CTAB
M  END
>  <i_epik_Tot_Q>  (1) 
0

>  <i_epik_Tot_abs_Q>  (1) 
2

>  <i_i_glide_confnum>  (1) 
3

>  <i_i_glide_lignum>  (1) 
19

>  <i_i_glide_posenum>  (1) 
176

>  <i_i_glide_rotatable_bonds>  (1) 
8

>  <i_lp_mmshare_version>  (1) 
72125

>  <i_m_source_file_index>  (1) 
10

>  <i_f3d_flags>  (1) 
0

>  <num_sample>  (1) 
50

>  <b_lp_Chiralities_Consistent>  (1) 
1

>  <r_epik_Charging_Adjusted_Penalty>  (1) 
0.00049470438624524575

>  <r_epik_Ionization_Penalty>  (1) 
0.0004947514825463053

>  <r_epik_Ionization_Penalty_Charging>  (1) 
0.00049470438624524575

>  <r_epik_Ionization_Penalty_Neutral>  (1) 
4.7096301059555568e-08

>  <r_epik_State_Penalty>  (1) 
-0

>  <r_glide_ring_energy>  (1) 
1.4314105349030264

>  <r_i_docking_score>  (1) 
-7.3319140619592718

>  <r_i_glide_ecoul>  (1) 
-8.4518836690343306

>  <r_i_glide_eff_state_penalty>  (1) 
-0

>  <r_i_glide_einternal>  (1) 
12.113665023913835

>  <r_i_glide_emodel>  (1) 
-55.378389250907077

>  <r_i_glide_emodel_strain>  (1) 
0.71510970953467989

>  <r_i_glide_energy>  (1) 
-38.546164880222804

>  <r_i_glide_erotb>  (1) 
0.71993305512373396

>  <r_i_glide_esite>  (1) 
-0.10000000000000001

>  <r_i_glide_evdw>  (1) 
-30.09428121118847

>  <r_i_glide_gscore>  (1) 
-7.3319140619592718

>  <r_i_glide_gscore_strain>  (1) 
0

>  <r_i_glide_hbond>  (1) 
-0.35648425287520669

>  <r_i_glide_ligand_efficiency>  (1) 
-0.28199669469074123

>  <r_i_glide_ligand_efficiency_ln>  (1) 
-1.7218759594788415

>  <r_i_glide_ligand_efficiency_sa>  (1) 
-0.83541409932519461

>  <r_i_glide_lipo>  (1) 
-2.839902995333198

>  <r_i_glide_metal>  (1) 
-0

>  <r_i_glide_rewards>  (1) 
-1.9829632579600263

>  <r_lp_Energy>  (1) 
30.107592999999998

>  <r_lp_tautomer_probability>  (1) 
1

>  <s_epik_cmdline>  (1) 
J2VwaWtfcHl0aG9uJywgJy1waHQnLCAnMS4wJywgJy1waCcsICc3LjQnLCAnLXRuJywgJzgnLCAnLW1hJywgJzUwMCcsICctaW1hZScsICc8aW5maWxlLm1hZT4nLCAnLW9tYWUnLCAnPG91dGZpbGUubWFlPic=

>  <s_epik_input>  (1) 
W0NIM11PQyg9W0NIXVtDSDJdMSlbQ0BASF0oQyg9TylbT0hdKVtDSDJdW0NIMl1bQ0BIXTFbQ0gyXVtDSDJdW05IXVtDQEhdKFtDSDJdW0NIMl1bQ0gyXTIpW0NIMl1bQ0gyXVxbQ0hdPUMyXFtDQEBIXShbQ0gzXSlbT0hd

>  <s_glide_docking_method>  (1) 
confgen

>  <s_i_glide_gridfile>  (1) 
gpcr_5ht2c_6bqh_protein_autoprepared_prepared

>  <s_lp_Force_Field>  (1) 
S-OPLS

>  <s_lp_Variant>  (1) 
DiffSBDD_9-1

>  <s_m_source_file>  (1) 
generated_GPCR_5HT2C_ligand_DiffSBDD_2026-06-23_prepared.sdf

>  <GenAI_Model>  (1) 
DiffSBDD

>  <Protein>  (1) 
GPCR_5HT2C

$$$$
DiffSBDD_0
     RDKit          3D

  0  0  0  0  0  0  0  0  0  0999 V3000
M  V30 BEGIN CTAB
M  V30 COUNTS 73 75 0 0 1
M  V30 BEGIN ATOM
M  V30 1 C 41.640676 31.215808 65.812260 0
M  V30 2 C 41.828534 35.073714 64.879974 0
M  V30 3 O 40.005274 26.138560 54.984147 0
M  V30 4 C 40.869245 32.530395 63.823242 0
M  V30 5 C 37.433678 31.107540 58.744277 0 CFG=2
M  V30 6 C 38.231209 33.893564 59.367392 0
M  V30 7 C 39.382568 28.383743 55.465151 0
M  V30 8 C 38.521306 29.305028 54.545147 0 CFG=1
M  V30 9 C 38.930879 28.075673 52.389166 0
M  V30 10 C 38.434686 30.746959 55.085427 0
M  V30 11 N 37.645161 30.779016 56.324019 0 CHG=1
M  V30 12 O 37.016885 29.743875 58.697634 0
M  V30 13 C 42.022988 33.764493 65.685896 0
M  V30 14 C 39.992924 30.168237 52.692044 0
M  V30 15 C 40.033011 33.803418 61.736465 0 CFG=1
M  V30 16 C 38.370408 31.232832 57.522844 0
M  V30 17 C 41.124997 34.901476 63.540376 0
M  V30 18 C 40.214919 35.371765 61.472247 0
M  V30 19 C 38.013326 31.484696 60.147493 0 CFG=1
M  V30 20 C 39.061464 26.892767 55.306948 0
M  V30 21 N 38.862598 29.338011 53.114424 0
M  V30 22 C 40.380380 29.625641 51.308514 0
M  V30 23 F 42.891680 31.065148 66.248527 0
M  V30 24 C 40.697192 33.756722 63.074787 0
M  V30 25 C 41.472794 32.502418 65.025281 0
M  V30 26 O 39.272362 31.150137 60.204294 0 CHG=-1
M  V30 27 N 37.941616 32.948623 60.470219 0 CFG=1 CHG=1
M  V30 28 C 40.909416 36.098630 62.700003 0 CFG=1
M  V30 29 C 38.547431 33.342592 61.778889 0
M  V30 30 C 35.684120 29.559541 59.113943 0
M  V30 31 O 37.877721 26.542096 55.511487 0 CHG=-1
M  V30 32 O 40.045162 37.015770 63.343579 0
M  V30 33 C 39.355255 28.537054 51.008268 0
M  V30 34 H 40.998573 31.234138 66.691727 0
M  V30 35 H 41.378458 30.337937 65.220777 0
M  V30 36 H 42.798381 35.539941 64.701433 0
M  V30 37 H 41.260727 35.783703 65.482890 0
M  V30 38 H 40.495918 31.606622 63.403197 0
M  V30 39 H 36.571681 31.754749 58.593080 0
M  V30 40 H 39.255612 33.771209 59.013196 0
M  V30 41 H 37.551045 33.771658 58.525287 0
M  V30 42 H 38.080541 34.917494 59.702192 0
M  V30 43 H 40.449733 28.571488 55.367006 0
M  V30 44 H 39.170812 28.595642 56.512359 0
M  V30 45 H 37.503717 28.909206 54.561756 0
M  V30 46 H 39.701838 27.421924 52.791159 0
M  V30 47 H 37.979069 27.543036 52.391201 0
M  V30 48 H 37.925741 31.396095 54.369528 0
M  V30 49 H 39.429406 31.167188 55.244897 0
M  V30 50 H 37.337653 29.836910 56.525685 0
M  V30 51 H 41.551010 33.866708 66.664146 0
M  V30 52 H 43.087126 33.620379 65.876498 0
M  V30 53 H 39.680677 31.210044 52.622183 0
M  V30 54 H 40.831685 30.137671 53.389162 0
M  V30 55 H 40.628196 33.211558 61.042731 0
M  V30 56 H 38.723045 32.249084 57.360145 0
M  V30 57 H 39.250746 30.603240 57.654044 0
M  V30 58 H 39.264160 35.859602 61.266438 0
M  V30 59 H 40.818900 35.521214 60.575834 0
M  V30 60 H 37.316821 31.067841 60.873092 0
M  V30 61 H 41.375116 29.184624 51.355597 0
M  V30 62 H 40.394343 30.403411 50.544381 0
M  V30 63 H 41.856848 36.559121 62.425724 0
M  V30 64 H 38.415203 32.521077 62.484284 0
M  V30 65 H 37.952388 34.164077 62.167629 0
M  V30 66 H 35.353134 28.538001 58.967824 0
M  V30 67 H 35.645124 29.812173 60.167652 0
M  V30 68 H 34.971320 30.164970 58.564328 0
M  V30 69 H 40.566820 37.502053 63.976067 0
M  V30 70 H 39.751965 27.728789 50.393191 0
M  V30 71 H 38.481834 28.947178 50.506590 0
M  V30 72 H 36.953687 33.080480 60.626896 0
M  V30 73 H 36.788513 31.336557 56.228289 0
M  V30 END ATOM
M  V30 BEGIN BOND
M  V30 1 1 8 7
M  V30 2 1 10 8
M  V30 3 1 11 10
M  V30 4 1 12 5
M  V30 5 1 13 2
M  V30 6 1 16 5
M  V30 7 1 16 11
M  V30 8 1 17 2
M  V30 9 1 18 15
M  V30 10 1 19 5
M  V30 11 2 20 3
M  V30 12 1 20 7
M  V30 13 1 21 8
M  V30 14 1 21 9
M  V30 15 1 21 14
M  V30 16 1 22 14
M  V30 17 1 23 1
M  V30 18 1 24 4
M  V30 19 1 24 15
M  V30 20 2 24 17
M  V30 21 1 25 1
M  V30 22 2 25 4
M  V30 23 1 25 13
M  V30 24 1 26 19
M  V30 25 1 27 6
M  V30 26 1 27 19
M  V30 27 1 28 17
M  V30 28 1 28 18
M  V30 29 1 29 15
M  V30 30 1 29 27
M  V30 31 1 30 12
M  V30 32 1 31 20
M  V30 33 1 32 28
M  V30 34 1 33 9
M  V30 35 1 33 22
M  V30 36 1 34 1
M  V30 37 1 35 1
M  V30 38 1 36 2
M  V30 39 1 37 2
M  V30 40 1 38 4
M  V30 41 1 5 39 CFG=3
M  V30 42 1 40 6
M  V30 43 1 41 6
M  V30 44 1 42 6
M  V30 45 1 43 7
M  V30 46 1 44 7
M  V30 47 1 8 45 CFG=3
M  V30 48 1 46 9
M  V30 49 1 47 9
M  V30 50 1 48 10
M  V30 51 1 49 10
M  V30 52 1 50 11
M  V30 53 1 51 13
M  V30 54 1 52 13
M  V30 55 1 53 14
M  V30 56 1 54 14
M  V30 57 1 15 55 CFG=3
M  V30 58 1 56 16
M  V30 59 1 57 16
M  V30 60 1 58 18
M  V30 61 1 59 18
M  V30 62 1 19 60 CFG=1
M  V30 63 1 61 22
M  V30 64 1 62 22
M  V30 65 1 28 63 CFG=3
M  V30 66 1 64 29
M  V30 67 1 65 29
M  V30 68 1 66 30
M  V30 69 1 67 30
M  V30 70 1 68 30
M  V30 71 1 69 32
M  V30 72 1 70 33
M  V30 73 1 71 33
M  V30 74 1 27 72 CFG=1
M  V30 75 1 73 11
M  V30 END BOND
M  V30 END CTAB
M  END
>  <i_epik_Tot_Q>  (1) 
0

>  <i_epik_Tot_abs_Q>  (1) 
4

>  <i_i_glide_confnum>  (1) 
449

>  <i_i_glide_lignum>  (1) 
4

>  <i_i_glide_posenum>  (1) 
99

>  <i_i_glide_rotatable_bonds>  (1) 
14

>  <i_lp_mmshare_version>  (1) 
72125

>  <i_m_source_file_index>  (1) 
1

>  <i_f3d_flags>  (1) 
0

>  <num_sample>  (1) 
50

>  <b_lp_Chiralities_Consistent>  (1) 
1

>  <r_epik_Charging_Adjusted_Penalty>  (1) 
0.77514762265790937

>  <r_epik_Ionization_Penalty>  (1) 
0.13961133491552177

>  <r_epik_Ionization_Penalty_Charging>  (1) 
0.038557878483332003

>  <r_epik_Ionization_Penalty_Neutral>  (1) 
0.10105345643218977

>  <r_epik_State_Penalty>  (1) 
0.73658974417457734

>  <r_glide_ring_energy>  (1) 
0.0045750838620950583

>  <r_i_docking_score>  (1) 
-7.3304765348711305

>  <r_i_glide_ecoul>  (1) 
-10.810015207417843

>  <r_i_glide_eff_state_penalty>  (1) 
0.73658974417457734

>  <r_i_glide_einternal>  (1) 
22.172301981128022

>  <r_i_glide_emodel>  (1) 
-67.869594397444189

>  <r_i_glide_emodel_strain>  (1) 
1.3711413384331053

>  <r_i_glide_energy>  (1) 
-49.039864177907916

>  <r_i_glide_erotb>  (1) 
0.82434179411086872

>  <r_i_glide_esite>  (1) 
-0.1059485645338732

>  <r_i_glide_evdw>  (1) 
-38.229848970490075

>  <r_i_glide_gscore>  (1) 
-8.0670662790457079

>  <r_i_glide_gscore_strain>  (1) 
0

>  <r_i_glide_hbond>  (1) 
-0.51631508908715096

>  <r_i_glide_ligand_efficiency>  (1) 
-0.22213565257185244

>  <r_i_glide_ligand_efficiency_ln>  (1) 
-1.6302600261791591

>  <r_i_glide_ligand_efficiency_sa>  (1) 
-0.71250773154024249

>  <r_i_glide_lipo>  (1) 
-3.7442908870861364

>  <r_i_glide_metal>  (1) 
-0

>  <r_i_glide_rewards>  (1) 
-0.99185880281223571

>  <r_lp_Energy>  (1) 
31.744567

>  <s_epik_Chemistry_Notes>  (1) 
This compound contains an acetal/aminal-like group ( X-CH(R)-Y where X, Y are N, S, or O) that may be acid/base labile, releasing an aldehyde.

>  <s_epik_cmdline>  (1) 
J2VwaWtfcHl0aG9uJywgJy1waHQnLCAnMS4wJywgJy1waCcsICc3LjQnLCAnLXRuJywgJzgnLCAnLW1hJywgJzUwMCcsICctaW1hZScsICc8aW5maWxlLm1hZT4nLCAnLW9tYWUnLCAnPG91dGZpbGUubWFlPic=

>  <s_epik_input>  (1) 
W0NIMl0xW0NIMl1DKFtDSDJdRik9W0NIXUMoPUMxMilbQ0BIXShbQ0gyXVtDQEhdMltPSF0pW0NIMl1OKFtDSDNdKVtDQEhdKFtPSF0pW0NASF0oT1tDSDNdKVtDSDJdW05IXVtDSDJdW0NASF0oW0NIMl1DKD1PKVtPSF0pTjNbQ0gyXVtDSDJdW0NIMl1bQ0gyXTM=

>  <s_glide_docking_method>  (1) 
confgen

>  <s_i_glide_gridfile>  (1) 
gpcr_5ht2c_6bqh_protein_autoprepared_prepared

>  <s_lp_Force_Field>  (1) 
S-OPLS

>  <s_lp_Variant>  (1) 
DiffSBDD_0-4

>  <s_m_source_file>  (1) 
generated_GPCR_5HT2C_ligand_DiffSBDD_2026-06-23_prepared.sdf

>  <GenAI_Model>  (1) 
DiffSBDD

>  <Protein>  (1) 
GPCR_5HT2C

$$$$
DiffSBDD_17
     RDKit          3D

  0  0  0  0  0  0  0  0  0  0999 V3000
M  V30 BEGIN CTAB
M  V30 COUNTS 92 96 0 0 1
M  V30 BEGIN ATOM
M  V30 1 C 43.308989 30.730044 66.955831 0
M  V30 2 C 37.877058 33.172979 61.652094 0 CFG=2
M  V30 3 C 40.776379 30.992018 66.453876 0
M  V30 4 O 42.445126 32.937549 61.367759 0
M  V30 5 C 42.168696 32.948370 67.258541 0
M  V30 6 C 39.332900 27.423940 56.265114 0
M  V30 7 C 38.157616 26.507238 54.258251 0
M  V30 8 C 39.115681 26.460641 55.363354 0
M  V30 9 C 37.472570 35.064114 59.400568 0
M  V30 10 C 38.117582 36.384341 62.237804 0
M  V30 11 N 41.224342 28.696335 65.570556 0
M  V30 12 C 36.827404 35.647403 61.904738 0 CFG=2
M  V30 13 C 40.631671 30.494642 63.905717 0 CFG=1
M  V30 14 C 39.335654 33.589060 62.049046 0
M  V30 15 N 40.845157 27.598381 64.669776 0 CHG=1
M  V30 16 C 40.410703 28.432332 58.014450 0 CFG=2
M  V30 17 C 38.599184 28.705494 56.398770 0 CFG=2
M  V30 18 C 41.400155 26.743126 66.859852 0
M  V30 19 C 40.438241 29.932933 65.359722 0 CFG=2
M  V30 20 O 40.280652 27.260450 57.229461 0
M  V30 21 C 40.989194 26.342044 65.429879 0
M  V30 22 O 40.045172 29.626472 62.964521 0
M  V30 23 N 38.045173 31.528819 58.039063 0 CHG=1
M  V30 24 C 38.309257 29.500720 55.169518 0
M  V30 25 C 37.691765 32.177053 60.475315 0
M  V30 26 C 37.618625 27.610486 53.669817 0
M  V30 27 N 36.765331 34.190864 61.672282 0 CFG=1 CHG=1
M  V30 28 C 41.774149 33.068366 62.580039 0
M  V30 29 S 40.195400 28.137702 59.802377 0 CHG=-1
M  V30 30 C 40.359975 32.475644 62.435429 0 CFG=1
M  V30 31 C 37.858499 29.017729 54.003933 0
M  V30 32 N 40.045144 31.825778 63.712721 0
M  V30 33 C 36.490524 35.067272 60.543110 0 CFG=2
M  V30 34 C 38.671503 30.266362 58.478839 0
M  V30 35 C 37.353265 33.828190 58.511129 0
M  V30 36 C 39.445800 29.485681 57.404064 0 CFG=1
M  V30 37 C 38.139691 32.623850 59.046425 0 CFG=2
M  V30 38 N 41.203829 28.200962 66.952013 0 CHG=1
M  V30 39 C 42.184253 31.645817 66.441949 0
M  V30 40 H 43.093432 30.351264 67.955005 0
M  V30 41 H 43.485732 29.884295 66.293457 0
M  V30 42 H 44.253054 31.273255 67.013272 0
M  V30 43 H 37.582622 32.574947 62.514964 0
M  V30 44 H 40.045539 31.786936 66.321620 0
M  V30 45 H 40.557743 30.619747 67.454460 0
M  V30 46 H 43.328260 33.260762 61.481283 0
M  V30 47 H 41.917873 32.759311 68.303287 0
M  V30 48 H 43.140223 33.444116 67.234976 0
M  V30 49 H 41.437873 33.655164 66.863459 0
M  V30 50 H 37.889076 25.558204 53.820232 0
M  V30 51 H 39.708368 25.562114 55.457773 0
M  V30 52 H 38.486329 35.184390 59.767769 0
M  V30 53 H 37.245102 35.945169 58.798675 0
M  V30 54 H 37.927348 37.455921 62.168592 0
M  V30 55 H 38.412921 36.189126 63.268960 0
M  V30 56 H 38.945891 36.173841 61.568922 0
M  V30 57 H 36.022718 35.880551 62.592203 0
M  V30 58 H 41.699730 30.527322 63.691626 0
M  V30 59 H 39.295433 34.241130 62.915968 0
M  V30 60 H 39.775843 34.162547 61.235260 0
M  V30 61 H 39.877862 27.751456 64.395777 0
M  V30 62 H 41.436438 28.780740 57.894819 0
M  V30 63 H 37.644645 28.458742 56.862764 0
M  V30 64 H 42.459536 26.530895 67.013382 0
M  V30 65 H 40.845256 26.207323 67.630464 0
M  V30 66 H 39.379798 29.717000 65.500147 0
M  V30 67 H 41.742843 25.702394 64.967686 0
M  V30 68 H 40.044921 25.798049 65.421490 0
M  V30 69 H 39.196940 29.329230 63.273193 0
M  V30 70 H 37.071042 31.368741 57.784467 0
M  V30 71 H 38.433216 30.568970 55.264637 0
M  V30 72 H 38.222329 31.279509 60.787247 0
M  V30 73 H 36.645755 31.869164 60.427204 0
M  V30 74 H 36.974988 27.427453 52.822297 0
M  V30 75 H 42.387586 32.550558 63.313224 0
M  V30 76 H 41.745475 34.114005 62.890829 0
M  V30 77 H 40.363780 31.732263 61.636702 0
M  V30 78 H 37.644871 29.738158 53.234364 0
M  V30 79 H 39.044751 31.787942 63.859101 0
M  V30 80 H 35.447592 34.937688 60.260950 0
M  V30 81 H 39.422503 30.545481 59.214000 0
M  V30 82 H 37.932553 29.640200 58.980288 0
M  V30 83 H 37.735946 34.082158 57.521356 0
M  V30 84 H 36.303582 33.573942 58.362376 0
M  V30 85 H 40.045105 30.202112 56.848502 0
M  V30 86 H 39.193852 32.904694 59.099031 0
M  V30 87 H 41.945182 28.660417 67.464413 0
M  V30 88 H 42.436092 31.928028 65.423415 0
M  V30 89 H 41.450743 27.643539 63.858531 0
M  V30 90 H 40.296488 28.415662 67.348916 0
M  V30 91 H 38.517156 31.841393 57.203096 0
M  V30 92 H 35.891394 33.803928 62.000036 0
M  V30 END ATOM
M  V30 BEGIN BOND
M  V30 1 2 8 6
M  V30 2 1 8 7
M  V30 3 1 12 10
M  V30 4 1 14 2
M  V30 5 1 15 11
M  V30 6 1 17 6
M  V30 7 1 19 3
M  V30 8 1 19 11
M  V30 9 1 19 13
M  V30 10 1 20 6
M  V30 11 1 20 16
M  V30 12 1 21 15
M  V30 13 1 21 18
M  V30 14 1 22 13
M  V30 15 1 24 17
M  V30 16 1 25 2
M  V30 17 2 26 7
M  V30 18 1 27 2
M  V30 19 1 27 12
M  V30 20 1 28 4
M  V30 21 1 29 16
M  V30 22 1 30 14
M  V30 23 1 30 28
M  V30 24 2 31 24
M  V30 25 1 31 26
M  V30 26 1 32 13
M  V30 27 1 32 30
M  V30 28 1 33 9
M  V30 29 1 33 12
M  V30 30 1 33 27
M  V30 31 1 34 23
M  V30 32 1 35 9
M  V30 33 1 36 16
M  V30 34 1 36 17
M  V30 35 1 36 34
M  V30 36 1 37 23
M  V30 37 1 37 25
M  V30 38 1 37 35
M  V30 39 1 38 11
M  V30 40 1 38 18
M  V30 41 1 39 1
M  V30 42 1 39 3
M  V30 43 1 39 5
M  V30 44 1 40 1
M  V30 45 1 41 1
M  V30 46 1 42 1
M  V30 47 1 2 43 CFG=1
M  V30 48 1 44 3
M  V30 49 1 45 3
M  V30 50 1 46 4
M  V30 51 1 47 5
M  V30 52 1 48 5
M  V30 53 1 49 5
M  V30 54 1 50 7
M  V30 55 1 51 8
M  V30 56 1 52 9
M  V30 57 1 53 9
M  V30 58 1 54 10
M  V30 59 1 55 10
M  V30 60 1 56 10
M  V30 61 1 12 57 CFG=1
M  V30 62 1 13 58 CFG=3
M  V30 63 1 59 14
M  V30 64 1 60 14
M  V30 65 1 61 15
M  V30 66 1 16 62 CFG=1
M  V30 67 1 17 63 CFG=1
M  V30 68 1 64 18
M  V30 69 1 65 18
M  V30 70 1 19 66 CFG=3
M  V30 71 1 67 21
M  V30 72 1 68 21
M  V30 73 1 69 22
M  V30 74 1 70 23
M  V30 75 1 71 24
M  V30 76 1 72 25
M  V30 77 1 73 25
M  V30 78 1 74 26
M  V30 79 1 75 28
M  V30 80 1 76 28
M  V30 81 1 30 77 CFG=3
M  V30 82 1 78 31
M  V30 83 1 79 32
M  V30 84 1 33 80 CFG=3
M  V30 85 1 81 34
M  V30 86 1 82 34
M  V30 87 1 83 35
M  V30 88 1 84 35
M  V30 89 1 36 85 CFG=3
M  V30 90 1 37 86 CFG=1
M  V30 91 1 87 38
M  V30 92 1 88 39
M  V30 93 1 89 15
M  V30 94 1 90 38
M  V30 95 1 91 23
M  V30 96 1 27 92 CFG=1
M  V30 END BOND
M  V30 END CTAB
M  END
>  <i_epik_Tot_Q>  (1) 
3

>  <i_epik_Tot_abs_Q>  (1) 
5

>  <i_i_glide_confnum>  (1) 
1366

>  <i_i_glide_lignum>  (1) 
41

>  <i_i_glide_posenum>  (1) 
209

>  <i_i_glide_rotatable_bonds>  (1) 
14

>  <i_lp_mmshare_version>  (1) 
72125

>  <i_m_source_file_index>  (1) 
18

>  <i_f3d_flags>  (1) 
0

>  <num_sample>  (1) 
50

>  <b_lp_Chiralities_Consistent>  (1) 
1

>  <r_epik_Charging_Adjusted_Penalty>  (1) 
1.6860912736117832

>  <r_epik_Ionization_Penalty>  (1) 
0.9299661573909731

>  <r_epik_Ionization_Penalty_Charging>  (1) 
0.33573944846101578

>  <r_epik_Ionization_Penalty_Neutral>  (1) 
0.59422670892995733

>  <r_epik_State_Penalty>  (1) 
1.3503518251507676

>  <r_glide_ring_energy>  (1) 
0.0045750838620950583

>  <r_i_docking_score>  (1) 
-7.3261599030666744

>  <r_i_glide_ecoul>  (1) 
-14.594355636607638

>  <r_i_glide_eff_state_penalty>  (1) 
1.3503518251507676

>  <r_i_glide_einternal>  (1) 
17.435038190145384

>  <r_i_glide_emodel>  (1) 
-72.337429332106382

>  <r_i_glide_emodel_strain>  (1) 
4.5091446504702901

>  <r_i_glide_energy>  (1) 
-51.910378574943557

>  <r_i_glide_erotb>  (1) 
0.56462826385561427

>  <r_i_glide_esite>  (1) 
-0.14572173238697098

>  <r_i_glide_evdw>  (1) 
-37.316022938335919

>  <r_i_glide_gscore>  (1) 
-8.6765117282174415

>  <r_i_glide_gscore_strain>  (1) 
0.12728616261757253

>  <r_i_glide_hbond>  (1) 
-0.52000000000000002

>  <r_i_glide_ligand_efficiency>  (1) 
-0.18785025392478652

>  <r_i_glide_ligand_efficiency_ln>  (1) 
-1.5709366486335083

>  <r_i_glide_ligand_efficiency_sa>  (1) 
-0.63703993068285303

>  <r_i_glide_lipo>  (1) 
-3.8621573542192835

>  <r_i_glide_metal>  (1) 
-0

>  <r_i_glide_rewards>  (1) 
-0.78559257567643215

>  <r_lp_Energy>  (1) 
57.587399999999995

>  <s_epik_Chemistry_Notes>  (1) 
This compound contains an acetal/aminal-like group ( X-CH(R)-Y where X, Y are N, S, or O) that may be acid/base labile, releasing an aldehyde.

>  <s_epik_cmdline>  (1) 
J2VwaWtfcHl0aG9uJywgJy1waHQnLCAnMS4wJywgJy1waCcsICc3LjQnLCAnLXRuJywgJzgnLCAnLW1hJywgJzUwMCcsICctaW1hZScsICc8aW5maWxlLm1hZT4nLCAnLW9tYWUnLCAnPG91dGZpbGUubWFlPic=

>  <s_epik_input>  (1) 
W05IXTFbQ0gyXVtDSDJdW05IXU4xW0NAQEhdKFtDSDJdW0NIXShbQ0gzXSlbQ0gzXSlbQ0BASF0oW09IXSlbTkhdW0NASF0oW0NIMl1bT0hdKVtDSDJdW0NAQEhdMltDSDJdW0NASF0oW0NIMl1bQ0gyXVtDQEBIXShOMjMpW0NIXTNbQ0gzXSlbTkhdW0NIMl1bQ0BASF0oW0NASF0oTzQpW1NIXSlbQ0BIXShDND01KVtDSF09W0NIXVtDSF09W0NIXVtDSF01

>  <s_glide_docking_method>  (1) 
confgen

>  <s_i_glide_gridfile>  (1) 
gpcr_5ht2c_6bqh_protein_autoprepared_prepared

>  <s_lp_Force_Field>  (1) 
S-OPLS

>  <s_lp_Variant>  (1) 
DiffSBDD_17-8

>  <s_m_source_file>  (1) 
generated_GPCR_5HT2C_ligand_DiffSBDD_2026-06-23_prepared.sdf

>  <GenAI_Model>  (1) 
DiffSBDD

>  <Protein>  (1) 
GPCR_5HT2C

$$$$
DiffSBDD_17
     RDKit          3D

  0  0  0  0  0  0  0  0  0  0999 V3000
M  V30 BEGIN CTAB
M  V30 COUNTS 93 97 0 0 1
M  V30 BEGIN ATOM
M  V30 1 C 43.759139 32.205106 67.417994 0
M  V30 2 C 39.098557 31.039729 61.122996 0 CFG=2
M  V30 3 C 42.683586 30.143480 66.399436 0
M  V30 4 O 41.181935 33.903402 64.196810 0
M  V30 5 C 41.263277 32.163585 67.072368 0
M  V30 6 C 39.153326 27.626901 53.200510 0
M  V30 7 C 39.334274 28.287407 50.791469 0
M  V30 8 C 39.245059 27.337746 51.899029 0
M  V30 9 C 36.232083 31.427312 59.433158 0
M  V30 10 C 36.788572 34.092677 61.367658 0
M  V30 11 N 41.878087 28.005957 65.395843 0
M  V30 12 C 37.132810 32.657846 61.712492 0 CFG=2
M  V30 13 C 41.877930 30.127791 63.970482 0 CFG=1
M  V30 14 C 40.523361 31.661369 61.224584 0
M  V30 15 N 40.845153 27.275611 64.641879 0 CHG=1
M  V30 16 C 39.277924 27.142030 55.436376 0 CFG=2
M  V30 17 C 39.047841 28.966536 53.819103 0 CFG=2
M  V30 18 C 41.194833 26.159849 66.727061 0
M  V30 19 C 41.691481 29.476602 65.393107 0 CFG=2
M  V30 20 O 39.115571 26.623925 54.124872 0
M  V30 21 C 40.753337 25.947863 65.271438 0
M  V30 22 O 41.644799 29.253566 62.880188 0
M  V30 23 N 38.895778 29.236132 57.660061 0 CHG=1
M  V30 24 C 39.794059 30.144928 53.284407 0
M  V30 25 C 39.041628 29.880075 60.064083 0
M  V30 26 C 39.682563 29.603559 50.831649 0
M  V30 27 N 38.070414 32.056204 60.782127 0 CFG=2 CHG=1
M  V30 28 C 40.522351 33.509042 63.013682 0
M  V30 29 S 38.045174 26.556923 56.643784 0 CHG=-1
M  V30 30 C 41.058610 32.128537 62.606766 0 CFG=1
M  V30 31 C 40.045148 30.417626 51.995853 0
M  V30 32 N 40.838616 31.160090 63.715896 0 CHG=1
M  V30 33 C 36.731460 31.488167 60.849534 0 CFG=2
M  V30 34 C 38.584200 29.560245 56.251427 0
M  V30 35 C 36.845643 30.198317 58.730828 0
M  V30 36 C 39.399628 28.682939 55.283047 0 CFG=1
M  V30 37 C 38.401885 30.198718 58.672747 0 CFG=2
M  V30 38 N 41.971841 27.415342 66.746371 0 CHG=1
M  V30 39 C 42.618202 31.683672 66.529475 0
M  V30 40 H 43.688982 31.809662 68.432021 0
M  V30 41 H 44.734836 31.926341 67.017311 0
M  V30 42 H 43.738704 33.293771 67.488150 0
M  V30 43 H 38.853648 30.590567 62.085719 0
M  V30 44 H 42.540879 29.755181 67.407323 0
M  V30 45 H 43.700874 29.864334 66.116658 0
M  V30 46 H 41.015730 34.824396 64.353769 0
M  V30 47 H 41.059148 31.751198 68.061010 0
M  V30 48 H 41.238312 33.251160 67.157144 0
M  V30 49 H 40.444656 31.876382 66.418096 0
M  V30 50 H 39.148432 27.882348 49.808986 0
M  V30 51 H 39.262315 26.291825 51.637092 0
M  V30 52 H 36.463346 32.348104 58.896096 0
M  V30 53 H 35.145086 31.339692 59.442036 0
M  V30 54 H 35.977034 34.440066 62.008396 0
M  V30 55 H 37.649992 34.740735 61.531596 0
M  V30 56 H 36.466624 34.193935 60.330879 0
M  V30 57 H 37.440711 32.463525 62.734071 0
M  V30 58 H 42.879555 30.546765 63.855436 0
M  V30 59 H 40.603991 32.498459 60.533821 0
M  V30 60 H 41.245040 30.938215 60.855446 0
M  V30 61 H 39.962983 27.775134 64.725331 0
M  V30 62 H 40.234635 26.759617 55.795379 0
M  V30 63 H 37.989430 29.223053 53.754923 0
M  V30 64 H 41.786348 25.329254 67.110252 0
M  V30 65 H 40.323171 26.267402 67.367712 0
M  V30 66 H 40.672953 29.653640 65.742825 0
M  V30 67 H 41.449963 25.277187 64.765739 0
M  V30 68 H 39.755014 25.516680 65.180624 0
M  V30 69 H 42.480173 28.883628 62.610404 0
M  V30 70 H 39.898263 29.159328 57.732758 0
M  V30 71 H 40.123099 30.858587 54.025638 0
M  V30 72 H 40.037473 29.463056 59.916215 0
M  V30 73 H 38.486972 29.047498 60.497413 0
M  V30 74 H 39.733496 30.103856 49.874968 0
M  V30 75 H 39.448064 33.497153 63.183464 0
M  V30 76 H 40.724670 34.247292 62.235988 0
M  V30 77 H 42.137530 32.259647 62.496126 0
M  V30 78 H 40.556312 31.346181 51.791686 0
M  V30 79 H 40.855212 31.760112 64.533504 0
M  V30 80 H 36.673152 30.537796 61.371557 0
M  V30 81 H 37.521960 29.414680 56.055382 0
M  V30 82 H 38.799545 30.612410 56.061723 0
M  V30 83 H 36.420947 30.137740 57.734626 0
M  V30 84 H 36.494556 29.293118 59.223207 0
M  V30 85 H 40.454671 28.918504 55.430574 0
M  V30 86 H 38.754506 31.175431 58.337986 0
M  V30 87 H 42.951638 27.242516 66.932709 0
M  V30 88 H 42.774821 32.136018 65.551239 0
M  V30 89 H 41.134211 27.229476 63.672801 0
M  V30 90 H 41.587297 28.075509 67.411614 0
M  V30 91 H 38.506163 28.304739 57.799900 0
M  V30 92 H 39.925653 30.736213 63.659295 0
M  V30 93 H 38.190081 32.567756 59.917741 0
M  V30 END ATOM
M  V30 BEGIN BOND
M  V30 1 2 8 6
M  V30 2 1 8 7
M  V30 3 1 12 10
M  V30 4 1 14 2
M  V30 5 1 15 11
M  V30 6 1 17 6
M  V30 7 1 19 3
M  V30 8 1 19 11
M  V30 9 1 19 13
M  V30 10 1 20 6
M  V30 11 1 20 16
M  V30 12 1 21 15
M  V30 13 1 21 18
M  V30 14 1 22 13
M  V30 15 1 24 17
M  V30 16 1 25 2
M  V30 17 2 26 7
M  V30 18 1 27 2
M  V30 19 1 27 12
M  V30 20 1 28 4
M  V30 21 1 29 16
M  V30 22 1 30 14
M  V30 23 1 30 28
M  V30 24 2 31 24
M  V30 25 1 31 26
M  V30 26 1 32 13
M  V30 27 1 32 30
M  V30 28 1 33 9
M  V30 29 1 33 12
M  V30 30 1 33 27
M  V30 31 1 34 23
M  V30 32 1 35 9
M  V30 33 1 36 16
M  V30 34 1 36 17
M  V30 35 1 36 34
M  V30 36 1 37 23
M  V30 37 1 37 25
M  V30 38 1 37 35
M  V30 39 1 38 11
M  V30 40 1 38 18
M  V30 41 1 39 1
M  V30 42 1 39 3
M  V30 43 1 39 5
M  V30 44 1 40 1
M  V30 45 1 41 1
M  V30 46 1 42 1
M  V30 47 1 2 43 CFG=1
M  V30 48 1 44 3
M  V30 49 1 45 3
M  V30 50 1 46 4
M  V30 51 1 47 5
M  V30 52 1 48 5
M  V30 53 1 49 5
M  V30 54 1 50 7
M  V30 55 1 51 8
M  V30 56 1 52 9
M  V30 57 1 53 9
M  V30 58 1 54 10
M  V30 59 1 55 10
M  V30 60 1 56 10
M  V30 61 1 12 57 CFG=1
M  V30 62 1 13 58 CFG=1
M  V30 63 1 59 14
M  V30 64 1 60 14
M  V30 65 1 61 15
M  V30 66 1 16 62 CFG=1
M  V30 67 1 17 63 CFG=1
M  V30 68 1 64 18
M  V30 69 1 65 18
M  V30 70 1 19 66 CFG=1
M  V30 71 1 67 21
M  V30 72 1 68 21
M  V30 73 1 69 22
M  V30 74 1 70 23
M  V30 75 1 71 24
M  V30 76 1 72 25
M  V30 77 1 73 25
M  V30 78 1 74 26
M  V30 79 1 75 28
M  V30 80 1 76 28
M  V30 81 1 30 77 CFG=3
M  V30 82 1 78 31
M  V30 83 1 79 32
M  V30 84 1 33 80 CFG=1
M  V30 85 1 81 34
M  V30 86 1 82 34
M  V30 87 1 83 35
M  V30 88 1 84 35
M  V30 89 1 36 85 CFG=3
M  V30 90 1 37 86 CFG=3
M  V30 91 1 87 38
M  V30 92 1 88 39
M  V30 93 1 89 15
M  V30 94 1 90 38
M  V30 95 1 91 23
M  V30 96 1 92 32
M  V30 97 1 27 93 CFG=3
M  V30 END BOND
M  V30 END CTAB
M  END
>  <i_epik_Tot_Q>  (1) 
4

>  <i_epik_Tot_abs_Q>  (1) 
6

>  <i_i_glide_confnum>  (1) 
2008

>  <i_i_glide_lignum>  (1) 
34

>  <i_i_glide_posenum>  (1) 
201

>  <i_i_glide_rotatable_bonds>  (1) 
14

>  <i_lp_mmshare_version>  (1) 
72125

>  <i_m_source_file_index>  (1) 
18

>  <i_f3d_flags>  (1) 
0

>  <num_sample>  (1) 
50

>  <b_lp_Chiralities_Consistent>  (1) 
1

>  <r_epik_Charging_Adjusted_Penalty>  (1) 
1.6052319346045403

>  <r_epik_Ionization_Penalty>  (1) 
1.3756208669108916

>  <r_epik_Ionization_Penalty_Charging>  (1) 
0.71181796891070681

>  <r_epik_Ionization_Penalty_Neutral>  (1) 
0.66380289800018477

>  <r_epik_State_Penalty>  (1) 
0.89341396569383336

>  <r_glide_ring_energy>  (1) 
0.0045750838620950583

>  <r_i_docking_score>  (1) 
-7.3087445303153586

>  <r_i_glide_ecoul>  (1) 
-7.9629181249354737

>  <r_i_glide_eff_state_penalty>  (1) 
0.89341396569383336

>  <r_i_glide_einternal>  (1) 
14.602023814243637

>  <r_i_glide_emodel>  (1) 
-81.620325591804544

>  <r_i_glide_emodel_strain>  (1) 
2.4946458880652926

>  <r_i_glide_energy>  (1) 
-53.906088302536332

>  <r_i_glide_erotb>  (1) 
0.56146573491919982

>  <r_i_glide_esite>  (1) 
-0.02459305533265594

>  <r_i_glide_evdw>  (1) 
-45.943170177600855

>  <r_i_glide_gscore>  (1) 
-8.2021584960091918

>  <r_i_glide_gscore_strain>  (1) 
0

>  <r_i_glide_hbond>  (1) 
-0.22797738019314168

>  <r_i_glide_ligand_efficiency>  (1) 
-0.18740370590552202

>  <r_i_glide_ligand_efficiency_ln>  (1) 
-1.5672022983508722

>  <r_i_glide_ligand_efficiency_sa>  (1) 
-0.63552559193006797

>  <r_i_glide_lipo>  (1) 
-4.0209421578387339

>  <r_i_glide_metal>  (1) 
-0

>  <r_i_glide_rewards>  (1) 
-0.99851540994349519

>  <r_lp_Energy>  (1) 
72.689052000000004

>  <s_epik_Chemistry_Notes>  (1) 
This compound contains an acetal/aminal-like group ( X-CH(R)-Y where X, Y are N, S, or O) that may be acid/base labile, releasing an aldehyde.

>  <s_epik_cmdline>  (1) 
J2VwaWtfcHl0aG9uJywgJy1waHQnLCAnMS4wJywgJy1waCcsICc3LjQnLCAnLXRuJywgJzgnLCAnLW1hJywgJzUwMCcsICctaW1hZScsICc8aW5maWxlLm1hZT4nLCAnLW9tYWUnLCAnPG91dGZpbGUubWFlPic=

>  <s_epik_input>  (1) 
W05IXTFbQ0gyXVtDSDJdW05IXU4xW0NAQEhdKFtDSDJdW0NIXShbQ0gzXSlbQ0gzXSlbQ0BASF0oW09IXSlbTkhdW0NASF0oW0NIMl1bT0hdKVtDSDJdW0NAQEhdMltDSDJdW0NASF0oW0NIMl1bQ0gyXVtDQEBIXShOMjMpW0NIXTNbQ0gzXSlbTkhdW0NIMl1bQ0BASF0oW0NASF0oTzQpW1NIXSlbQ0BIXShDND01KVtDSF09W0NIXVtDSF09W0NIXVtDSF01

>  <s_glide_docking_method>  (1) 
confgen

>  <s_i_glide_gridfile>  (1) 
gpcr_5ht2c_6bqh_protein_autoprepared_prepared

>  <s_lp_Force_Field>  (1) 
S-OPLS

>  <s_lp_Variant>  (1) 
DiffSBDD_17-1

>  <s_m_source_file>  (1) 
generated_GPCR_5HT2C_ligand_DiffSBDD_2026-06-23_prepared.sdf

>  <GenAI_Model>  (1) 
DiffSBDD

>  <Protein>  (1) 
GPCR_5HT2C

$$$$
DiffSBDD_29
     RDKit          3D

  0  0  0  0  0  0  0  0  0  0999 V3000
M  V30 BEGIN CTAB
M  V30 COUNTS 78 81 0 0 1
M  V30 BEGIN ATOM
M  V30 1 C 38.380919 26.901125 55.591766 0 CFG=1
M  V30 2 C 39.116901 34.641719 60.399758 0
M  V30 3 C 36.760409 33.818520 60.776257 0
M  V30 4 C 39.098433 28.488749 52.233320 0
M  V30 5 C 37.761516 34.273040 59.784866 0 CFG=2
M  V30 6 C 36.496152 23.442215 55.132850 0
M  V30 7 C 37.900219 30.718894 60.076744 0
M  V30 8 C 36.785470 36.157682 62.038177 0
M  V30 9 N 39.300992 28.770715 57.666412 0
M  V30 10 O 37.997248 32.942209 59.144977 0
M  V30 11 C 40.363810 30.418321 50.611469 0
M  V30 12 C 38.299282 36.170427 62.217895 0
M  V30 13 C 36.071961 29.546452 58.498867 0
M  V30 14 N 38.461170 30.820884 57.175673 0
M  V30 15 N 39.167383 27.206084 54.372265 0 CFG=1 CHG=1
M  V30 16 C 39.139920 36.051519 60.968344 0
M  V30 17 C 38.488178 28.595558 58.894962 0
M  V30 18 C 39.295176 29.857795 56.827828 0
M  V30 19 N 37.146448 31.900501 59.791261 0
M  V30 20 C 40.046198 29.156206 50.084562 0
M  V30 21 C 37.279802 25.825448 55.392083 0
M  V30 22 C 39.461569 26.519885 56.630349 0 CFG=1
M  V30 23 C 40.256182 26.206671 54.326918 0
M  V30 24 C 39.418277 28.183137 50.895905 0
M  V30 25 C 36.120792 34.793547 61.716208 0
M  V30 26 C 39.404557 29.762056 52.748014 0
M  V30 27 C 40.498398 25.800761 55.782936 0
M  V30 28 O 40.007207 29.929389 55.830294 0
M  V30 29 C 37.349780 29.490300 59.356970 0 CFG=1
M  V30 30 C 38.408345 27.463989 53.116861 0
M  V30 31 C 37.664035 24.343736 55.503291 0
M  V30 32 C 36.499953 32.577349 60.725825 0
M  V30 33 O 38.816145 36.287305 63.327608 0
M  V30 34 C 40.188215 27.664262 57.380437 0
M  V30 35 C 40.045137 30.720823 51.942377 0
M  V30 36 H 37.831401 27.796901 55.871139 0
M  V30 37 H 39.903759 34.539714 59.651882 0
M  V30 38 H 39.382761 33.917601 61.168518 0
M  V30 39 H 37.358344 35.000640 59.073528 0
M  V30 40 H 36.799143 22.399476 55.069946 0
M  V30 41 H 35.662964 23.522179 55.825734 0
M  V30 42 H 36.119388 23.743968 54.167421 0
M  V30 43 H 38.942182 30.897664 59.804864 0
M  V30 44 H 37.920967 30.547557 61.154480 0
M  V30 45 H 36.552724 36.864762 61.241015 0
M  V30 46 H 36.324699 36.564373 62.938511 0
M  V30 47 H 40.848593 31.157425 49.991163 0
M  V30 48 H 36.238429 29.734775 57.441434 0
M  V30 49 H 35.565224 28.587049 58.567503 0
M  V30 50 H 35.359069 30.283850 58.861802 0
M  V30 51 H 37.882922 30.721934 57.998666 0
M  V30 52 H 38.389474 31.655321 56.610751 0
M  V30 53 H 38.731686 36.738649 60.237181 0
M  V30 54 H 40.157633 36.355800 61.201826 0
M  V30 55 H 39.206448 28.547148 59.714624 0
M  V30 56 H 38.071631 27.591274 58.857760 0
M  V30 57 H 40.287704 28.935312 49.057112 0
M  V30 58 H 36.472294 26.015371 56.100894 0
M  V30 59 H 36.845349 25.964936 54.408969 0
M  V30 60 H 39.045674 25.865597 57.397679 0
M  V30 61 H 41.160579 26.537727 53.829221 0
M  V30 62 H 39.969468 25.337736 53.767758 0
M  V30 63 H 39.179644 27.210993 50.487024 0
M  V30 64 H 35.245373 34.937513 61.104207 0
M  V30 65 H 35.745725 34.287129 62.599408 0
M  V30 66 H 39.143594 30.007399 53.756676 0
M  V30 67 H 41.477553 26.137784 56.101122 0
M  V30 68 H 40.443007 24.725816 55.931575 0
M  V30 69 H 36.944680 28.937674 60.167762 0
M  V30 70 H 38.207481 26.537604 52.577911 0
M  V30 71 H 37.441499 27.899929 53.369769 0
M  V30 72 H 38.472911 24.122537 54.814914 0
M  V30 73 H 38.006751 24.094693 56.505213 0
M  V30 74 H 35.814738 32.024977 61.354935 0
M  V30 75 H 41.067663 28.028730 56.842785 0
M  V30 76 H 40.607776 27.280134 58.313286 0
M  V30 77 H 40.283628 31.693373 52.342612 0
M  V30 78 H 39.616262 28.086225 54.597325 0
M  V30 END ATOM
M  V30 BEGIN BOND
M  V30 1 1 5 2
M  V30 2 1 5 3
M  V30 3 1 10 5
M  V30 4 1 12 8
M  V30 5 1 15 1
M  V30 6 1 16 2
M  V30 7 1 16 12
M  V30 8 1 17 9
M  V30 9 1 18 9
M  V30 10 1 18 14
M  V30 11 1 19 7
M  V30 12 1 19 10
M  V30 13 2 20 11
M  V30 14 1 21 1
M  V30 15 1 22 1
M  V30 16 1 23 15
M  V30 17 2 24 4
M  V30 18 1 24 20
M  V30 19 1 25 3
M  V30 20 1 25 8
M  V30 21 1 26 4
M  V30 22 1 27 22
M  V30 23 1 27 23
M  V30 24 2 28 18
M  V30 25 1 29 7
M  V30 26 1 29 13
M  V30 27 1 29 17
M  V30 28 1 30 4
M  V30 29 1 30 15
M  V30 30 1 31 6
M  V30 31 1 31 21
M  V30 32 2 32 3
M  V30 33 1 32 19
M  V30 34 2 33 12
M  V30 35 1 34 9
M  V30 36 1 34 22
M  V30 37 1 35 11
M  V30 38 2 35 26
M  V30 39 1 1 36 CFG=1
M  V30 40 1 37 2
M  V30 41 1 38 2
M  V30 42 1 5 39 CFG=3
M  V30 43 1 40 6
M  V30 44 1 41 6
M  V30 45 1 42 6
M  V30 46 1 43 7
M  V30 47 1 44 7
M  V30 48 1 45 8
M  V30 49 1 46 8
M  V30 50 1 47 11
M  V30 51 1 48 13
M  V30 52 1 49 13
M  V30 53 1 50 13
M  V30 54 1 51 14
M  V30 55 1 52 14
M  V30 56 1 53 16
M  V30 57 1 54 16
M  V30 58 1 55 17
M  V30 59 1 56 17
M  V30 60 1 57 20
M  V30 61 1 58 21
M  V30 62 1 59 21
M  V30 63 1 22 60 CFG=1
M  V30 64 1 61 23
M  V30 65 1 62 23
M  V30 66 1 63 24
M  V30 67 1 64 25
M  V30 68 1 65 25
M  V30 69 1 66 26
M  V30 70 1 67 27
M  V30 71 1 68 27
M  V30 72 1 29 69 CFG=1
M  V30 73 1 70 30
M  V30 74 1 71 30
M  V30 75 1 72 31
M  V30 76 1 73 31
M  V30 77 1 74 32
M  V30 78 1 75 34
M  V30 79 1 76 34
M  V30 80 1 77 35
M  V30 81 1 15 78 CFG=1
M  V30 END BOND
M  V30 END CTAB
M  END
>  <i_epik_Tot_Q>  (1) 
1

>  <i_epik_Tot_abs_Q>  (1) 
1

>  <i_i_glide_confnum>  (1) 
447

>  <i_i_glide_lignum>  (1) 
64

>  <i_i_glide_posenum>  (1) 
22

>  <i_i_glide_rotatable_bonds>  (1) 
11

>  <i_lp_mmshare_version>  (1) 
72125

>  <i_m_source_file_index>  (1) 
30

>  <i_f3d_flags>  (1) 
0

>  <num_sample>  (1) 
50

>  <b_lp_Chiralities_Consistent>  (1) 
1

>  <r_epik_Charging_Adjusted_Penalty>  (1) 
0.034972120206071468

>  <r_epik_Ionization_Penalty>  (1) 
0.01911812601903189

>  <r_epik_Ionization_Penalty_Charging>  (1) 
0.017486060103035727

>  <r_epik_Ionization_Penalty_Neutral>  (1) 
0.0016320659159961622

>  <r_epik_State_Penalty>  (1) 
0.017486060103035741

>  <r_glide_ring_energy>  (1) 
0

>  <r_i_docking_score>  (1) 
-7.3023358553874527

>  <r_i_glide_ecoul>  (1) 
-0.43532414458628765

>  <r_i_glide_eff_state_penalty>  (1) 
0.017486060103035741

>  <r_i_glide_einternal>  (1) 
26.609588639569573

>  <r_i_glide_emodel>  (1) 
-36.786959523340116

>  <r_i_glide_emodel_strain>  (1) 
3.7540191336788666

>  <r_i_glide_energy>  (1) 
-34.846003340466964

>  <r_i_glide_erotb>  (1) 
0.69426181123573816

>  <r_i_glide_esite>  (1) 
-0.11751469689778987

>  <r_i_glide_evdw>  (1) 
-34.410679195880675

>  <r_i_glide_gscore>  (1) 
-7.319821915490488

>  <r_i_glide_gscore_strain>  (1) 
0

>  <r_i_glide_hbond>  (1) 
0

>  <r_i_glide_ligand_efficiency>  (1) 
-0.20863816729678436

>  <r_i_glide_ligand_efficiency_ln>  (1) 
-1.6030247868699383

>  <r_i_glide_ligand_efficiency_sa>  (1) 
-0.6824692800640022

>  <r_i_glide_lipo>  (1) 
-4.7834198035412943

>  <r_i_glide_metal>  (1) 
-0

>  <r_i_glide_rewards>  (1) 
-1.3273166448051641

>  <r_lp_Energy>  (1) 
30.748728

>  <r_lp_tautomer_probability>  (1) 
0.99999998000000001

>  <s_epik_Chemistry_Notes>  (1) 
This compound has a N-S or N-O group and may undergo hydrolysis at high or low pH.

>  <s_epik_cmdline>  (1) 
J2VwaWtfcHl0aG9uJywgJy1waHQnLCAnMS4wJywgJy1waCcsICc3LjQnLCAnLXRuJywgJzgnLCAnLW1hJywgJzUwMCcsICctaW1hZScsICc8aW5maWxlLm1hZT4nLCAnLW9tYWUnLCAnPG91dGZpbGUubWFlPic=

>  <s_epik_input>  (1) 
W2NIXTFbY0hdW2NIXVtjSF1bY0hdYzFbQ0gyXU4oW0NASF0yW0NIMl1bQ0gyXVtDSDNdKVtDSDJdW0NIMl1bQ0BIXTJbQ0gyXU4oQyg9TylbTkgyXSlbQ0gyXVtDQEhdKFtDSDNdKVtDSDJdTihbQ0hdMylPW0NAQEhdKEM9MzQpW0NIMl1bQ0gyXUMoPU8pW0NIMl1bQ0gyXTQ=

>  <s_glide_docking_method>  (1) 
confgen

>  <s_i_glide_gridfile>  (1) 
gpcr_5ht2c_6bqh_protein_autoprepared_prepared

>  <s_lp_Force_Field>  (1) 
S-OPLS

>  <s_lp_Variant>  (1) 
DiffSBDD_29-1

>  <s_m_source_file>  (1) 
generated_GPCR_5HT2C_ligand_DiffSBDD_2026-06-23_prepared.sdf

>  <GenAI_Model>  (1) 
DiffSBDD

>  <Protein>  (1) 
GPCR_5HT2C

$$$$
DiffSBDD_0
     RDKit          3D

  0  0  0  0  0  0  0  0  0  0999 V3000
M  V30 BEGIN CTAB
M  V30 COUNTS 73 75 0 0 1
M  V30 BEGIN ATOM
M  V30 1 C 38.464942 28.294790 52.189780 0
M  V30 2 C 39.776985 26.038130 55.172875 0
M  V30 3 O 41.246510 35.230510 63.308611 0
M  V30 4 C 38.831697 28.741441 54.628949 0
M  V30 5 C 37.037385 32.333021 59.963505 0 CFG=2
M  V30 6 C 38.059243 32.101624 56.626091 0
M  V30 7 C 39.313204 36.412376 62.597626 0
M  V30 8 C 38.301627 36.390087 61.418755 0 CFG=1
M  V30 9 C 37.508413 38.743376 61.076501 0
M  V30 10 C 37.687836 35.007183 61.155745 0
M  V30 11 N 37.303034 34.842791 59.747700 0
M  V30 12 O 35.970242 31.403142 60.129481 0
M  V30 13 C 39.229969 26.420637 53.776080 0
M  V30 14 C 36.561137 37.517421 62.881833 0
M  V30 15 C 39.142135 29.260093 57.138999 0 CFG=1
M  V30 16 C 36.463875 33.681204 59.446871 0
M  V30 17 C 39.621790 27.125203 56.223726 0
M  V30 18 C 39.697090 28.242484 58.239032 0
M  V30 19 C 38.167752 31.736744 59.089260 0 CFG=1
M  V30 20 C 40.597752 35.623722 62.317205 0
M  V30 21 N 37.206987 37.383411 61.559046 0 CHG=1
M  V30 22 C 35.721912 38.787010 62.767135 0
M  V30 23 F 39.486024 28.139004 51.347274 0
M  V30 24 C 39.200085 28.337102 55.970996 0
M  V30 25 C 38.845135 27.880281 53.597256 0
M  V30 26 O 38.662002 30.724128 59.761817 0 CHG=-1
M  V30 27 N 37.645144 31.244361 57.767759 0 CFG=2 CHG=1
M  V30 28 C 39.993740 26.812269 57.623118 0 CFG=1
M  V30 29 C 37.710135 29.789707 57.436414 0
M  V30 30 C 35.245142 31.636770 61.327014 0
M  V30 31 O 40.901695 35.431873 61.120364 0 CHG=-1
M  V30 32 O 39.143800 25.825347 58.167745 0
M  V30 33 C 36.445111 39.649388 61.724942 0
M  V30 34 H 37.645126 27.681011 51.819307 0
M  V30 35 H 38.161797 29.337773 52.146090 0
M  V30 36 H 40.840081 25.808136 55.101670 0
M  V30 37 H 39.291296 25.125719 55.520446 0
M  V30 38 H 38.539984 29.766625 54.453112 0
M  V30 39 H 37.482414 32.478049 60.946299 0
M  V30 40 H 39.141588 32.114262 56.499098 0
M  V30 41 H 37.608999 31.760708 55.693790 0
M  V30 42 H 37.735244 33.131140 56.776130 0
M  V30 43 H 39.618949 37.434789 62.820874 0
M  V30 44 H 38.861403 36.010548 63.504123 0
M  V30 45 H 38.845140 36.656070 60.518276 0
M  V30 46 H 38.513837 39.046444 61.367761 0
M  V30 47 H 37.495619 38.769874 59.989127 0
M  V30 48 H 36.833845 34.835468 61.811601 0
M  V30 49 H 38.430354 34.252761 61.413614 0
M  V30 50 H 36.874426 35.676387 59.360182 0
M  V30 51 H 38.317758 25.851067 53.600584 0
M  V30 52 H 39.949639 26.137750 53.007019 0
M  V30 53 H 35.965932 36.642378 63.145785 0
M  V30 54 H 37.300744 37.662946 63.668419 0
M  V30 55 H 39.860694 30.062101 56.978858 0
M  V30 56 H 36.276596 33.623841 58.376256 0
M  V30 57 H 35.483576 33.864246 59.880630 0
M  V30 58 H 39.012063 28.158415 59.083426 0
M  V30 59 H 40.617211 28.650875 58.659914 0
M  V30 60 H 38.823587 32.583613 58.878022 0
M  V30 61 H 34.718108 38.541800 62.415990 0
M  V30 62 H 35.627397 39.296291 63.726186 0
M  V30 63 H 41.045992 26.537687 57.709259 0
M  V30 64 H 37.071790 29.651488 56.563642 0
M  V30 65 H 37.219293 29.210362 58.219554 0
M  V30 66 H 34.584283 30.804848 61.550501 0
M  V30 67 H 35.923408 31.737756 62.167761 0
M  V30 68 H 34.645380 32.543568 61.275680 0
M  V30 69 H 39.113951 25.949671 59.103781 0
M  V30 70 H 35.732381 40.014427 60.990758 0
M  V30 71 H 36.887806 40.537754 62.167751 0
M  V30 72 H 36.476207 37.060481 60.942596 0
M  V30 73 H 36.637536 31.416350 57.793254 0
M  V30 END ATOM
M  V30 BEGIN BOND
M  V30 1 1 8 7
M  V30 2 1 10 8
M  V30 3 1 11 10
M  V30 4 1 12 5
M  V30 5 1 13 2
M  V30 6 1 16 5
M  V30 7 1 16 11
M  V30 8 1 17 2
M  V30 9 1 18 15
M  V30 10 1 19 5
M  V30 11 2 20 3
M  V30 12 1 20 7
M  V30 13 1 21 8
M  V30 14 1 21 9
M  V30 15 1 21 14
M  V30 16 1 22 14
M  V30 17 1 23 1
M  V30 18 1 24 4
M  V30 19 1 24 15
M  V30 20 2 24 17
M  V30 21 1 25 1
M  V30 22 2 25 4
M  V30 23 1 25 13
M  V30 24 1 26 19
M  V30 25 1 27 6
M  V30 26 1 27 19
M  V30 27 1 28 17
M  V30 28 1 28 18
M  V30 29 1 29 15
M  V30 30 1 29 27
M  V30 31 1 30 12
M  V30 32 1 31 20
M  V30 33 1 32 28
M  V30 34 1 33 9
M  V30 35 1 33 22
M  V30 36 1 34 1
M  V30 37 1 35 1
M  V30 38 1 36 2
M  V30 39 1 37 2
M  V30 40 1 38 4
M  V30 41 1 5 39 CFG=1
M  V30 42 1 40 6
M  V30 43 1 41 6
M  V30 44 1 42 6
M  V30 45 1 43 7
M  V30 46 1 44 7
M  V30 47 1 8 45 CFG=3
M  V30 48 1 46 9
M  V30 49 1 47 9
M  V30 50 1 48 10
M  V30 51 1 49 10
M  V30 52 1 50 11
M  V30 53 1 51 13
M  V30 54 1 52 13
M  V30 55 1 53 14
M  V30 56 1 54 14
M  V30 57 1 15 55 CFG=3
M  V30 58 1 56 16
M  V30 59 1 57 16
M  V30 60 1 58 18
M  V30 61 1 59 18
M  V30 62 1 19 60 CFG=3
M  V30 63 1 61 22
M  V30 64 1 62 22
M  V30 65 1 28 63 CFG=3
M  V30 66 1 64 29
M  V30 67 1 65 29
M  V30 68 1 66 30
M  V30 69 1 67 30
M  V30 70 1 68 30
M  V30 71 1 69 32
M  V30 72 1 70 33
M  V30 73 1 71 33
M  V30 74 1 72 21
M  V30 75 1 27 73 CFG=1
M  V30 END BOND
M  V30 END CTAB
M  END
>  <i_epik_Tot_Q>  (1) 
0

>  <i_epik_Tot_abs_Q>  (1) 
4

>  <i_i_glide_confnum>  (1) 
1621

>  <i_i_glide_lignum>  (1) 
1

>  <i_i_glide_posenum>  (1) 
97

>  <i_i_glide_rotatable_bonds>  (1) 
14

>  <i_lp_mmshare_version>  (1) 
72125

>  <i_m_source_file_index>  (1) 
1

>  <i_f3d_flags>  (1) 
0

>  <num_sample>  (1) 
50

>  <b_lp_Chiralities_Consistent>  (1) 
1

>  <r_epik_Charging_Adjusted_Penalty>  (1) 
0.35910314693592993

>  <r_epik_Ionization_Penalty>  (1) 
0.058337682991089858

>  <r_epik_Ionization_Penalty_Charging>  (1) 
0.0030320954189955646

>  <r_epik_Ionization_Penalty_Neutral>  (1) 
0.055305587572094292

>  <r_epik_State_Penalty>  (1) 
0.35607105151693436

>  <r_glide_ring_energy>  (1) 
0

>  <r_i_docking_score>  (1) 
-7.2858975984176464

>  <r_i_glide_ecoul>  (1) 
-4.4094292477594781

>  <r_i_glide_eff_state_penalty>  (1) 
0.35607105151693436

>  <r_i_glide_einternal>  (1) 
24.392665335625875

>  <r_i_glide_emodel>  (1) 
-58.953719096524054

>  <r_i_glide_emodel_strain>  (1) 
0.4548592442466628

>  <r_i_glide_energy>  (1) 
-45.574346246472786

>  <r_i_glide_erotb>  (1) 
0.82434179411086872

>  <r_i_glide_esite>  (1) 
-0.14793534607805456

>  <r_i_glide_evdw>  (1) 
-41.164916998713309

>  <r_i_glide_gscore>  (1) 
-7.6419686499345811

>  <r_i_glide_gscore_strain>  (1) 
0

>  <r_i_glide_hbond>  (1) 
-0.1806337502704613

>  <r_i_glide_ligand_efficiency>  (1) 
-0.22078477570962565

>  <r_i_glide_ligand_efficiency_ln>  (1) 
-1.6203459015292843

>  <r_i_glide_ligand_efficiency_sa>  (1) 
-0.70817474762905297

>  <r_i_glide_lipo>  (1) 
-3.4605305259694328

>  <r_i_glide_metal>  (1) 
-0

>  <r_i_glide_rewards>  (1) 
-1.9575505846279138

>  <r_lp_Energy>  (1) 
41.770188999999995

>  <s_epik_Chemistry_Notes>  (1) 
This compound contains an acetal/aminal-like group ( X-CH(R)-Y where X, Y are N, S, or O) that may be acid/base labile, releasing an aldehyde.

>  <s_epik_cmdline>  (1) 
J2VwaWtfcHl0aG9uJywgJy1waHQnLCAnMS4wJywgJy1waCcsICc3LjQnLCAnLXRuJywgJzgnLCAnLW1hJywgJzUwMCcsICctaW1hZScsICc8aW5maWxlLm1hZT4nLCAnLW9tYWUnLCAnPG91dGZpbGUubWFlPic=

>  <s_epik_input>  (1) 
W0NIMl0xW0NIMl1DKFtDSDJdRik9W0NIXUMoPUMxMilbQ0BIXShbQ0gyXVtDQEhdMltPSF0pW0NIMl1OKFtDSDNdKVtDQEhdKFtPSF0pW0NASF0oT1tDSDNdKVtDSDJdW05IXVtDSDJdW0NASF0oW0NIMl1DKD1PKVtPSF0pTjNbQ0gyXVtDSDJdW0NIMl1bQ0gyXTM=

>  <s_glide_docking_method>  (1) 
confgen

>  <s_i_glide_gridfile>  (1) 
gpcr_5ht2c_6bqh_protein_autoprepared_prepared

>  <s_lp_Force_Field>  (1) 
S-OPLS

>  <s_lp_Variant>  (1) 
DiffSBDD_0-1

>  <s_m_source_file>  (1) 
generated_GPCR_5HT2C_ligand_DiffSBDD_2026-06-23_prepared.sdf

>  <GenAI_Model>  (1) 
DiffSBDD

>  <Protein>  (1) 
GPCR_5HT2C

$$$$
DiffSBDD_0
     RDKit          3D

  0  0  0  0  0  0  0  0  0  0999 V3000
M  V30 BEGIN CTAB
M  V30 COUNTS 73 75 0 0 1
M  V30 BEGIN ATOM
M  V30 1 C 40.271335 30.766170 50.172568 0
M  V30 2 C 39.051498 27.241994 51.507543 0
M  V30 3 O 40.241198 31.717809 62.236773 0
M  V30 4 C 39.631356 29.941017 52.437280 0
M  V30 5 C 38.503743 31.149764 58.669505 0 CFG=2
M  V30 6 C 38.415851 32.167490 55.902930 0
M  V30 7 C 39.509596 33.959313 62.477198 0
M  V30 8 C 39.046804 34.778598 61.235069 0 CFG=1
M  V30 9 C 37.463286 36.475543 60.410083 0
M  V30 10 C 38.714751 33.875353 60.021597 0
M  V30 11 N 37.763976 32.803677 60.381805 0 CHG=1
M  V30 12 O 39.258891 30.538718 59.710141 0
M  V30 13 C 39.554570 28.324719 50.528393 0
M  V30 14 C 38.096664 36.592766 62.622684 0
M  V30 15 C 38.991521 29.165359 54.798919 0 CFG=1
M  V30 16 C 37.320337 31.965210 59.246315 0
M  V30 17 C 38.953056 27.699182 52.949404 0
M  V30 18 C 38.775457 27.646459 55.240712 0
M  V30 19 C 38.220877 30.191544 57.481978 0 CFG=1
M  V30 20 C 40.574101 32.917659 62.137576 0
M  V30 21 N 37.888780 35.636612 61.537401 0
M  V30 22 C 36.829796 37.430457 62.517216 0
M  V30 23 F 41.513301 30.537807 49.758932 0
M  V30 24 C 39.190392 28.917051 53.352596 0
M  V30 25 C 39.812233 29.696116 51.132457 0
M  V30 26 O 37.232448 29.393923 57.795541 0 CHG=-1
M  V30 27 N 37.747169 30.880742 56.239609 0 CFG=2 CHG=1
M  V30 28 C 38.573118 26.710538 53.977151 0 CFG=1
M  V30 29 C 37.702417 30.001159 55.040512 0
M  V30 30 C 38.658292 29.459276 60.388530 0
M  V30 31 O 41.687288 33.340840 61.768218 0 CHG=-1
M  V30 32 O 37.245129 26.308924 53.803166 0
M  V30 33 C 36.720893 37.665332 61.020947 0
M  V30 34 H 39.619058 30.815402 49.304519 0
M  V30 35 H 40.264334 31.736903 50.656056 0
M  V30 36 H 39.652905 26.340225 51.445623 0
M  V30 37 H 38.049284 26.941251 51.201420 0
M  V30 38 H 39.821886 30.933844 52.817437 0
M  V30 39 H 39.241886 31.854507 58.292701 0
M  V30 40 H 39.487252 32.029721 55.755729 0
M  V30 41 H 38.003575 32.590866 54.986557 0
M  V30 42 H 38.260331 32.931485 56.661642 0
M  V30 43 H 39.913608 34.611937 63.250551 0
M  V30 44 H 38.683433 33.404094 62.917010 0
M  V30 45 H 39.871744 35.433465 60.949214 0
M  V30 46 H 38.329590 36.830533 59.850343 0
M  V30 47 H 36.819444 35.923600 59.724866 0
M  V30 48 H 39.644288 33.448795 59.648134 0
M  V30 49 H 38.301460 34.426884 59.182100 0
M  V30 50 H 36.961200 33.243795 60.808830 0
M  V30 51 H 38.833728 28.456762 49.732363 0
M  V30 52 H 40.445069 27.964259 50.040306 0
M  V30 53 H 38.186491 36.137710 63.607055 0
M  V30 54 H 38.989267 37.196201 62.443603 0
M  V30 55 H 39.898371 29.615027 55.203205 0
M  V30 56 H 36.871863 32.603665 58.487695 0
M  V30 57 H 36.517358 31.309930 59.582675 0
M  V30 58 H 37.968319 27.522191 55.963463 0
M  V30 59 H 39.675262 27.319254 55.762960 0
M  V30 60 H 39.212306 29.795066 57.277364 0
M  V30 61 H 36.845044 38.355531 63.084758 0
M  V30 62 H 35.987605 36.842992 62.884922 0
M  V30 63 H 39.250156 25.857037 53.994785 0
M  V30 64 H 37.463067 30.610514 54.168572 0
M  V30 65 H 36.846078 29.336696 55.138264 0
M  V30 66 H 39.164325 29.285677 61.338442 0
M  V30 67 H 37.618318 29.709656 60.569426 0
M  V30 68 H 38.704602 28.536360 59.811045 0
M  V30 69 H 37.087630 26.133486 52.884188 0
M  V30 70 H 37.223719 38.592120 60.741089 0
M  V30 71 H 35.688583 37.738705 60.678813 0
M  V30 72 H 36.772988 31.128349 56.453909 0
M  V30 73 H 38.223912 32.208306 61.063036 0
M  V30 END ATOM
M  V30 BEGIN BOND
M  V30 1 1 8 7
M  V30 2 1 10 8
M  V30 3 1 11 10
M  V30 4 1 12 5
M  V30 5 1 13 2
M  V30 6 1 16 5
M  V30 7 1 16 11
M  V30 8 1 17 2
M  V30 9 1 18 15
M  V30 10 1 19 5
M  V30 11 2 20 3
M  V30 12 1 20 7
M  V30 13 1 21 8
M  V30 14 1 21 9
M  V30 15 1 21 14
M  V30 16 1 22 14
M  V30 17 1 23 1
M  V30 18 1 24 4
M  V30 19 1 24 15
M  V30 20 2 24 17
M  V30 21 1 25 1
M  V30 22 2 25 4
M  V30 23 1 25 13
M  V30 24 1 26 19
M  V30 25 1 27 6
M  V30 26 1 27 19
M  V30 27 1 28 17
M  V30 28 1 28 18
M  V30 29 1 29 15
M  V30 30 1 29 27
M  V30 31 1 30 12
M  V30 32 1 31 20
M  V30 33 1 32 28
M  V30 34 1 33 9
M  V30 35 1 33 22
M  V30 36 1 34 1
M  V30 37 1 35 1
M  V30 38 1 36 2
M  V30 39 1 37 2
M  V30 40 1 38 4
M  V30 41 1 5 39 CFG=3
M  V30 42 1 40 6
M  V30 43 1 41 6
M  V30 44 1 42 6
M  V30 45 1 43 7
M  V30 46 1 44 7
M  V30 47 1 8 45 CFG=3
M  V30 48 1 46 9
M  V30 49 1 47 9
M  V30 50 1 48 10
M  V30 51 1 49 10
M  V30 52 1 50 11
M  V30 53 1 51 13
M  V30 54 1 52 13
M  V30 55 1 53 14
M  V30 56 1 54 14
M  V30 57 1 15 55 CFG=1
M  V30 58 1 56 16
M  V30 59 1 57 16
M  V30 60 1 58 18
M  V30 61 1 59 18
M  V30 62 1 19 60 CFG=3
M  V30 63 1 61 22
M  V30 64 1 62 22
M  V30 65 1 28 63 CFG=1
M  V30 66 1 64 29
M  V30 67 1 65 29
M  V30 68 1 66 30
M  V30 69 1 67 30
M  V30 70 1 68 30
M  V30 71 1 69 32
M  V30 72 1 70 33
M  V30 73 1 71 33
M  V30 74 1 27 72 CFG=1
M  V30 75 1 73 11
M  V30 END BOND
M  V30 END CTAB
M  END
>  <i_epik_Tot_Q>  (1) 
0

>  <i_epik_Tot_abs_Q>  (1) 
4

>  <i_i_glide_confnum>  (1) 
961

>  <i_i_glide_lignum>  (1) 
3

>  <i_i_glide_posenum>  (1) 
325

>  <i_i_glide_rotatable_bonds>  (1) 
14

>  <i_lp_mmshare_version>  (1) 
72125

>  <i_m_source_file_index>  (1) 
1

>  <i_f3d_flags>  (1) 
0

>  <num_sample>  (1) 
50

>  <b_lp_Chiralities_Consistent>  (1) 
1

>  <r_epik_Charging_Adjusted_Penalty>  (1) 
0.77514762265790937

>  <r_epik_Ionization_Penalty>  (1) 
0.13961133491552177

>  <r_epik_Ionization_Penalty_Charging>  (1) 
0.038557878483332003

>  <r_epik_Ionization_Penalty_Neutral>  (1) 
0.10105345643218977

>  <r_epik_State_Penalty>  (1) 
0.73658974417457734

>  <r_glide_ring_energy>  (1) 
0.0045750838620950583

>  <r_i_docking_score>  (1) 
-7.2828216168590592

>  <r_i_glide_ecoul>  (1) 
-7.0577253403779867

>  <r_i_glide_eff_state_penalty>  (1) 
0.73658974417457734

>  <r_i_glide_einternal>  (1) 
13.236629786143553

>  <r_i_glide_emodel>  (1) 
-67.846909531824153

>  <r_i_glide_emodel_strain>  (1) 
1.6962543275497666

>  <r_i_glide_energy>  (1) 
-44.084852248989343

>  <r_i_glide_erotb>  (1) 
0.82434179411086872

>  <r_i_glide_esite>  (1) 
-0.15616906944512696

>  <r_i_glide_evdw>  (1) 
-37.027126908611358

>  <r_i_glide_gscore>  (1) 
-8.0194113610336366

>  <r_i_glide_gscore_strain>  (1) 
0

>  <r_i_glide_hbond>  (1) 
-0.40323378882585925

>  <r_i_glide_ligand_efficiency>  (1) 
-0.22069156414724422

>  <r_i_glide_ligand_efficiency_ln>  (1) 
-1.6196618191572345

>  <r_i_glide_ligand_efficiency_sa>  (1) 
-0.707875768342762

>  <r_i_glide_lipo>  (1) 
-4.0437765025781411

>  <r_i_glide_metal>  (1) 
-0

>  <r_i_glide_rewards>  (1) 
-1.3305586478081133

>  <r_lp_Energy>  (1) 
31.454538999999997

>  <s_epik_Chemistry_Notes>  (1) 
This compound contains an acetal/aminal-like group ( X-CH(R)-Y where X, Y are N, S, or O) that may be acid/base labile, releasing an aldehyde.

>  <s_epik_cmdline>  (1) 
J2VwaWtfcHl0aG9uJywgJy1waHQnLCAnMS4wJywgJy1waCcsICc3LjQnLCAnLXRuJywgJzgnLCAnLW1hJywgJzUwMCcsICctaW1hZScsICc8aW5maWxlLm1hZT4nLCAnLW9tYWUnLCAnPG91dGZpbGUubWFlPic=

>  <s_epik_input>  (1) 
W0NIMl0xW0NIMl1DKFtDSDJdRik9W0NIXUMoPUMxMilbQ0BIXShbQ0gyXVtDQEhdMltPSF0pW0NIMl1OKFtDSDNdKVtDQEhdKFtPSF0pW0NASF0oT1tDSDNdKVtDSDJdW05IXVtDSDJdW0NASF0oW0NIMl1DKD1PKVtPSF0pTjNbQ0gyXVtDSDJdW0NIMl1bQ0gyXTM=

>  <s_glide_docking_method>  (1) 
confgen

>  <s_i_glide_gridfile>  (1) 
gpcr_5ht2c_6bqh_protein_autoprepared_prepared

>  <s_lp_Force_Field>  (1) 
S-OPLS

>  <s_lp_Variant>  (1) 
DiffSBDD_0-3

>  <s_m_source_file>  (1) 
generated_GPCR_5HT2C_ligand_DiffSBDD_2026-06-23_prepared.sdf

>  <GenAI_Model>  (1) 
DiffSBDD

>  <Protein>  (1) 
GPCR_5HT2C

$$$$
DiffSBDD_38
     RDKit          3D

  0  0  0  0  0  0  0  0  0  0999 V3000
M  V30 BEGIN CTAB
M  V30 COUNTS 71 72 0 0 1
M  V30 BEGIN ATOM
M  V30 1 C 40.576159 28.138564 56.804706 0
M  V30 2 C 38.546312 33.986805 60.634800 0
M  V30 3 C 36.086198 39.398013 61.767759 0
M  V30 4 F 39.143978 25.631332 56.484244 0
M  V30 5 C 37.245192 39.536188 60.978579 0
M  V30 6 C 35.960854 38.283362 62.587799 0
M  V30 7 C 39.252743 35.461031 62.585727 0 CFG=2
M  V30 8 C 39.780965 36.563557 64.619905 0
M  V30 9 F 38.812940 31.013063 61.504365 0
M  V30 10 C 39.513286 28.447787 59.738328 0
M  V30 11 C 36.984578 37.337759 62.600796 0
M  V30 12 C 38.140095 25.875908 55.643360 0
M  V30 13 C 38.477869 27.036186 54.662570 0 CFG=2
M  V30 14 C 41.382200 28.086235 58.049170 0
M  V30 15 N 38.436892 28.927238 57.694144 0
M  V30 16 O 40.134937 35.577665 63.657612 0
M  V30 17 C 37.979587 31.407937 60.542009 0
M  V30 18 C 39.261695 28.489693 56.672236 0
M  V30 19 C 38.563818 28.449032 55.313186 0 CFG=1
M  V30 20 C 38.604152 32.655517 59.842695 0 CFG=1
M  V30 21 C 38.126194 37.550531 61.767773 0
M  V30 22 F 37.045680 26.137717 56.351106 0
M  V30 23 C 39.547898 34.154191 61.811317 0 CFG=2
M  V30 24 C 37.809352 31.269728 55.105533 0
M  V30 25 F 36.834526 31.747213 61.137323 0
M  V30 26 F 34.865117 38.122988 63.367409 0
M  V30 27 C 40.931766 28.218665 59.319536 0
M  V30 28 N 38.246916 38.634166 60.967770 0
M  V30 29 F 37.931058 24.747436 54.967768 0
M  V30 30 C 37.675807 30.184902 59.626276 0 CFG=2
M  V30 31 C 41.021899 34.128545 61.405512 0
M  V30 32 C 38.911073 30.605320 54.297301 0
M  V30 33 C 37.467323 27.099326 53.495314 0
M  V30 34 N 39.227982 29.371932 54.394037 0
M  V30 35 C 38.881926 29.529754 58.915999 0 CFG=1
M  V30 36 O 38.036290 32.892974 58.566987 0
M  V30 37 F 36.769690 30.542972 58.723036 0
M  V30 38 N 39.205965 36.640982 61.744086 0
M  V30 39 H 41.085600 27.849961 55.898220 0
M  V30 40 H 37.479922 29.148422 57.447062 0
M  V30 41 H 38.725195 34.797259 59.928828 0
M  V30 42 H 37.529019 34.144246 60.994019 0
M  V30 43 H 35.311170 40.137755 61.741317 0
M  V30 44 H 37.371547 40.398876 60.341482 0
M  V30 45 H 38.281995 35.337761 62.967748 0
M  V30 46 H 40.479956 36.526294 65.454910 0
M  V30 47 H 38.778268 36.414286 65.018353 0
M  V30 48 H 39.824539 37.567113 64.195839 0
M  V30 49 H 39.552322 28.754489 60.782572 0
M  V30 50 H 38.948196 27.514155 59.715524 0
M  V30 51 H 36.890701 36.484289 63.238989 0
M  V30 52 H 39.449915 26.793370 54.232034 0
M  V30 53 H 42.440042 27.901705 57.930265 0
M  V30 54 H 37.528759 28.750258 55.475907 0
M  V30 55 H 39.645126 32.438840 59.636268 0
M  V30 56 H 39.385109 33.340398 62.518827 0
M  V30 57 H 37.746739 32.327302 54.848690 0
M  V30 58 H 38.009479 31.200948 56.173976 0
M  V30 59 H 41.645239 28.138687 60.127023 0
M  V30 60 H 37.145525 29.409984 60.167754 0
M  V30 61 H 41.244979 34.937941 60.710292 0
M  V30 62 H 41.282176 33.166950 60.967880 0
M  V30 63 H 41.668477 34.248808 62.273970 0
M  V30 64 H 39.430598 31.272752 53.604541 0
M  V30 65 H 36.483609 27.419065 53.837675 0
M  V30 66 H 37.343100 26.137753 53.003402 0
M  V30 67 H 37.787535 27.805473 52.729004 0
M  V30 68 H 36.837782 30.823521 54.892903 0
M  V30 69 H 39.607992 30.300895 58.664699 0
M  V30 70 H 37.155240 32.537380 58.533258 0
M  V30 71 H 39.995784 36.815876 61.140512 0
M  V30 END ATOM
M  V30 BEGIN BOND
M  V30 1 2 5 3
M  V30 2 1 6 3
M  V30 3 2 11 6
M  V30 4 1 12 4
M  V30 5 1 13 12
M  V30 6 1 14 1
M  V30 7 1 16 7
M  V30 8 1 16 8
M  V30 9 1 17 9
M  V30 10 2 18 1
M  V30 11 1 18 15
M  V30 12 1 19 13
M  V30 13 1 19 18
M  V30 14 1 20 2
M  V30 15 1 20 17
M  V30 16 1 21 11
M  V30 17 1 22 12
M  V30 18 1 23 2
M  V30 19 1 23 7
M  V30 20 1 25 17
M  V30 21 1 26 6
M  V30 22 1 27 10
M  V30 23 2 27 14
M  V30 24 1 28 5
M  V30 25 2 28 21
M  V30 26 1 29 12
M  V30 27 1 30 17
M  V30 28 1 31 23
M  V30 29 1 32 24
M  V30 30 1 33 13
M  V30 31 1 34 19
M  V30 32 2 34 32
M  V30 33 1 35 10
M  V30 34 1 35 15
M  V30 35 1 35 30
M  V30 36 1 36 20
M  V30 37 1 37 30
M  V30 38 1 38 7
M  V30 39 1 38 21
M  V30 40 1 39 1
M  V30 41 1 40 15
M  V30 42 1 41 2
M  V30 43 1 42 2
M  V30 44 1 43 3
M  V30 45 1 44 5
M  V30 46 1 7 45 CFG=1
M  V30 47 1 46 8
M  V30 48 1 47 8
M  V30 49 1 48 8
M  V30 50 1 49 10
M  V30 51 1 50 10
M  V30 52 1 51 11
M  V30 53 1 13 52 CFG=3
M  V30 54 1 53 14
M  V30 55 1 19 54 CFG=1
M  V30 56 1 20 55 CFG=3
M  V30 57 1 23 56 CFG=1
M  V30 58 1 57 24
M  V30 59 1 58 24
M  V30 60 1 59 27
M  V30 61 1 30 60 CFG=1
M  V30 62 1 61 31
M  V30 63 1 62 31
M  V30 64 1 63 31
M  V30 65 1 64 32
M  V30 66 1 65 33
M  V30 67 1 66 33
M  V30 68 1 67 33
M  V30 69 1 68 24
M  V30 70 1 35 69 CFG=3
M  V30 71 1 70 36
M  V30 72 1 71 38
M  V30 END BOND
M  V30 END CTAB
M  END
>  <i_epik_Tot_Q>  (1) 
0

>  <i_epik_Tot_abs_Q>  (1) 
0

>  <i_i_glide_confnum>  (1) 
1323

>  <i_i_glide_lignum>  (1) 
80

>  <i_i_glide_posenum>  (1) 
190

>  <i_i_glide_rotatable_bonds>  (1) 
14

>  <i_lp_mmshare_version>  (1) 
72125

>  <i_m_source_file_index>  (1) 
39

>  <i_f3d_flags>  (1) 
0

>  <num_sample>  (1) 
50

>  <b_lp_Chiralities_Consistent>  (1) 
1

>  <r_epik_Charging_Adjusted_Penalty>  (1) 
0.41068759954161893

>  <r_epik_Ionization_Penalty>  (1) 
0.72091217201864632

>  <r_epik_Ionization_Penalty_Charging>  (1) 
0

>  <r_epik_Ionization_Penalty_Neutral>  (1) 
0.72091217201864632

>  <r_epik_State_Penalty>  (1) 
0.41068759954161893

>  <r_glide_ring_energy>  (1) 
0

>  <r_i_docking_score>  (1) 
-7.27919842908251

>  <r_i_glide_ecoul>  (1) 
-2.475287910979211

>  <r_i_glide_eff_state_penalty>  (1) 
0.41068759954161893

>  <r_i_glide_einternal>  (1) 
12.252676863834186

>  <r_i_glide_emodel>  (1) 
-54.904927998462199

>  <r_i_glide_emodel_strain>  (1) 
0.90904537609920055

>  <r_i_glide_energy>  (1) 
-39.135993039547245

>  <r_i_glide_erotb>  (1) 
0.60130745657359952

>  <r_i_glide_esite>  (1) 
-0.14547993217032612

>  <r_i_glide_evdw>  (1) 
-36.660705128568033

>  <r_i_glide_gscore>  (1) 
-7.6898860286241293

>  <r_i_glide_gscore_strain>  (1) 
0

>  <r_i_glide_hbond>  (1) 
0

>  <r_i_glide_ligand_efficiency>  (1) 
-0.19155785339690815

>  <r_i_glide_ligand_efficiency_ln>  (1) 
-1.5696093136331031

>  <r_i_glide_ligand_efficiency_sa>  (1) 
-0.6440127920996066

>  <r_i_glide_lipo>  (1) 
-3.6013217243513975

>  <r_i_glide_metal>  (1) 
-0

>  <r_i_glide_rewards>  (1) 
-2.3400633856007222

>  <r_lp_Energy>  (1) 
25.10126

>  <r_lp_tautomer_probability>  (1) 
0.49999644301987139

>  <s_epik_Chemistry_Notes>  (1) 
This compound has an imine and may undergo hydrolysis. This compound contains an acetal/aminal-like group ( X-CH(R)-Y where X, Y are N, S, or O) that may be acid/base labile, releasing an aldehyde.

>  <s_epik_cmdline>  (1) 
J2VwaWtfcHl0aG9uJywgJy1waHQnLCAnMS4wJywgJy1waCcsICc3LjQnLCAnLXRuJywgJzgnLCAnLW1hJywgJzUwMCcsICctaW1hZScsICc8aW5maWxlLm1hZT4nLCAnLW9tYWUnLCAnPG91dGZpbGUubWFlPic=

>  <s_epik_input>  (1) 
RkMoRikoRilbQ0BASF0oW0NIM10pW0NASF0oW05IXVtDSF09W0NIMl0pQzE9TltDQEhdKFtDSDJdW0NIXT1bQ0hdW0NIMl0xKVtDQEhdKEYpQyhGKShGKVtDQEBIXShbT0hdKVtDSDJdW0NAQEhdKFtDSDNdKVtDQEBIXShPW0NIM10pW05IXWMoW2NIXTIpbltjSF1bY0hdYzJG

>  <s_glide_docking_method>  (1) 
confgen

>  <s_i_glide_gridfile>  (1) 
gpcr_5ht2c_6bqh_protein_autoprepared_prepared

>  <s_lp_Force_Field>  (1) 
S-OPLS

>  <s_lp_Variant>  (1) 
DiffSBDD_38-1

>  <s_m_source_file>  (1) 
generated_GPCR_5HT2C_ligand_DiffSBDD_2026-06-23_prepared.sdf

>  <GenAI_Model>  (1) 
DiffSBDD

>  <Protein>  (1) 
GPCR_5HT2C

$$$$
DiffSBDD_17
     RDKit          3D

  0  0  0  0  0  0  0  0  0  0999 V3000
M  V30 BEGIN CTAB
M  V30 COUNTS 93 97 0 0 1
M  V30 BEGIN ATOM
M  V30 1 C 41.199085 32.228287 67.474838 0
M  V30 2 C 39.548845 31.627858 61.470927 0 CFG=2
M  V30 3 C 42.425415 29.959224 67.111478 0
M  V30 4 O 42.009927 34.138155 64.547432 0
M  V30 5 C 43.659396 32.222458 66.742986 0
M  V30 6 C 39.142329 27.543588 53.881969 0
M  V30 7 C 39.296971 28.083565 51.435304 0
M  V30 8 C 39.245135 27.192596 52.594987 0
M  V30 9 C 36.902956 32.446861 59.565196 0
M  V30 10 C 38.352343 35.201259 60.808371 0
M  V30 11 N 41.710290 27.991922 65.784913 0
M  V30 12 C 38.196547 33.871852 61.518849 0 CFG=2
M  V30 13 C 42.102545 30.194775 64.540300 0 CFG=1
M  V30 14 C 41.078077 31.863715 61.675867 0
M  V30 15 N 40.845139 27.369528 64.775608 0 CHG=1
M  V30 16 C 39.290178 27.176698 56.139664 0 CFG=2
M  V30 17 C 38.988850 28.906007 54.436136 0 CFG=2
M  V30 18 C 40.938748 25.958762 66.728492 0
M  V30 19 C 41.613110 29.475003 65.860323 0 CFG=2
M  V30 20 O 39.146887 26.586597 54.855171 0
M  V30 21 C 40.643684 25.977816 65.216512 0
M  V30 22 O 42.004028 29.405865 63.367575 0
M  V30 23 N 38.931267 29.418636 58.269656 0 CHG=1
M  V30 24 C 39.645127 30.104929 53.827535 0
M  V30 25 C 39.249992 30.355793 60.591611 0
M  V30 26 C 39.570875 29.417686 51.403258 0
M  V30 27 N 38.881300 32.795066 60.836290 0 CFG=2 CHG=1
M  V30 28 C 41.217947 33.701803 63.468614 0
M  V30 29 S 38.045141 26.652380 57.360382 0 CHG=-1
M  V30 30 C 41.604928 32.260414 63.087831 0 CFG=1
M  V30 31 C 39.870275 30.321735 52.522906 0
M  V30 32 N 41.199727 31.322604 64.174503 0 CHG=1
M  V30 33 C 37.431350 32.700478 60.952381 0 CFG=2
M  V30 34 C 38.575013 29.614637 56.843838 0
M  V30 35 C 37.179038 30.985147 59.159620 0
M  V30 36 C 39.388757 28.705982 55.902600 0 CFG=1
M  V30 37 C 38.681722 30.589776 59.149238 0 CFG=2
M  V30 38 N 41.499124 27.282897 67.062773 0 CHG=1
M  V30 39 C 42.533267 31.465603 67.467949 0
M  V30 40 H 40.796146 32.397625 66.481284 0
M  V30 41 H 40.445442 31.698745 68.055242 0
M  V30 42 H 41.323511 33.210571 67.933881 0
M  V30 43 H 39.110246 31.452185 62.454383 0
M  V30 44 H 41.987063 29.517134 68.006456 0
M  V30 45 H 43.436642 29.552160 67.059330 0
M  V30 46 H 41.887076 35.071719 64.668854 0
M  V30 47 H 43.458227 32.382309 65.689537 0
M  V30 48 H 43.809353 33.207597 67.187676 0
M  V30 49 H 44.607593 31.689176 66.821867 0
M  V30 50 H 39.147362 27.611682 50.474241 0
M  V30 51 H 39.306270 26.137758 52.389082 0
M  V30 52 H 37.340320 33.135473 58.841170 0
M  V30 53 H 35.827983 32.633451 59.556481 0
M  V30 54 H 37.756215 35.961147 61.314751 0
M  V30 55 H 39.395178 35.520935 60.824055 0
M  V30 56 H 38.019264 35.145533 59.771626 0
M  V30 57 H 38.445242 33.855826 62.567749 0
M  V30 58 H 43.140609 30.514139 64.624474 0
M  V30 59 H 41.427789 32.610736 60.967726 0
M  V30 60 H 41.619532 30.969446 61.388626 0
M  V30 61 H 39.958142 27.867962 64.758186 0
M  V30 62 H 40.246490 26.829817 56.532231 0
M  V30 63 H 37.915740 29.100429 54.392215 0
M  V30 64 H 41.670238 25.186854 66.966094 0
M  V30 65 H 40.045306 25.759947 67.322764 0
M  V30 66 H 40.559674 29.709128 66.024942 0
M  V30 67 H 41.355422 25.340626 64.688597 0
M  V30 68 H 39.642135 25.622327 64.974117 0
M  V30 69 H 42.880829 29.140923 63.109652 0
M  V30 70 H 39.913187 29.188487 58.293547 0
M  V30 71 H 39.922071 30.882217 54.524229 0
M  V30 72 H 40.136226 29.724692 60.523986 0
M  V30 73 H 38.533366 29.737389 61.131594 0
M  V30 74 H 39.605462 29.864235 50.419309 0
M  V30 75 H 40.175989 33.774207 63.767687 0
M  V30 76 H 41.377104 34.382876 62.631123 0
M  V30 77 H 42.694722 32.242132 63.026182 0
M  V30 78 H 40.311280 31.274590 52.264413 0
M  V30 79 H 41.182167 31.912200 64.997637 0
M  V30 80 H 37.081363 31.991257 61.701363 0
M  V30 81 H 37.509722 29.422455 56.706449 0
M  V30 82 H 38.740093 30.654727 56.560294 0
M  V30 83 H 36.765033 30.864933 58.167753 0
M  V30 84 H 36.610222 30.300316 59.790762 0
M  V30 85 H 40.444805 28.965580 55.999709 0
M  V30 86 H 39.239918 31.396636 58.676742 0
M  V30 87 H 42.392146 27.204985 67.531575 0
M  V30 88 H 42.858290 31.470230 68.510485 0
M  V30 89 H 41.310670 27.439915 63.878458 0
M  V30 90 H 40.838764 27.812928 67.621988 0
M  V30 91 H 38.420314 28.589955 58.563388 0
M  V30 92 H 40.265340 30.979669 64.015973 0
M  V30 93 H 39.157117 33.028560 59.892627 0
M  V30 END ATOM
M  V30 BEGIN BOND
M  V30 1 2 8 6
M  V30 2 1 8 7
M  V30 3 1 12 10
M  V30 4 1 14 2
M  V30 5 1 15 11
M  V30 6 1 17 6
M  V30 7 1 19 3
M  V30 8 1 19 11
M  V30 9 1 19 13
M  V30 10 1 20 6
M  V30 11 1 20 16
M  V30 12 1 21 15
M  V30 13 1 21 18
M  V30 14 1 22 13
M  V30 15 1 24 17
M  V30 16 1 25 2
M  V30 17 2 26 7
M  V30 18 1 27 2
M  V30 19 1 27 12
M  V30 20 1 28 4
M  V30 21 1 29 16
M  V30 22 1 30 14
M  V30 23 1 30 28
M  V30 24 2 31 24
M  V30 25 1 31 26
M  V30 26 1 32 13
M  V30 27 1 32 30
M  V30 28 1 33 9
M  V30 29 1 33 12
M  V30 30 1 33 27
M  V30 31 1 34 23
M  V30 32 1 35 9
M  V30 33 1 36 16
M  V30 34 1 36 17
M  V30 35 1 36 34
M  V30 36 1 37 23
M  V30 37 1 37 25
M  V30 38 1 37 35
M  V30 39 1 38 11
M  V30 40 1 38 18
M  V30 41 1 39 1
M  V30 42 1 39 3
M  V30 43 1 39 5
M  V30 44 1 40 1
M  V30 45 1 41 1
M  V30 46 1 42 1
M  V30 47 1 2 43 CFG=1
M  V30 48 1 44 3
M  V30 49 1 45 3
M  V30 50 1 46 4
M  V30 51 1 47 5
M  V30 52 1 48 5
M  V30 53 1 49 5
M  V30 54 1 50 7
M  V30 55 1 51 8
M  V30 56 1 52 9
M  V30 57 1 53 9
M  V30 58 1 54 10
M  V30 59 1 55 10
M  V30 60 1 56 10
M  V30 61 1 12 57 CFG=1
M  V30 62 1 13 58 CFG=1
M  V30 63 1 59 14
M  V30 64 1 60 14
M  V30 65 1 61 15
M  V30 66 1 16 62 CFG=1
M  V30 67 1 17 63 CFG=1
M  V30 68 1 64 18
M  V30 69 1 65 18
M  V30 70 1 19 66 CFG=1
M  V30 71 1 67 21
M  V30 72 1 68 21
M  V30 73 1 69 22
M  V30 74 1 70 23
M  V30 75 1 71 24
M  V30 76 1 72 25
M  V30 77 1 73 25
M  V30 78 1 74 26
M  V30 79 1 75 28
M  V30 80 1 76 28
M  V30 81 1 30 77 CFG=3
M  V30 82 1 78 31
M  V30 83 1 79 32
M  V30 84 1 33 80 CFG=1
M  V30 85 1 81 34
M  V30 86 1 82 34
M  V30 87 1 83 35
M  V30 88 1 84 35
M  V30 89 1 36 85 CFG=3
M  V30 90 1 37 86 CFG=3
M  V30 91 1 87 38
M  V30 92 1 88 39
M  V30 93 1 89 15
M  V30 94 1 90 38
M  V30 95 1 91 23
M  V30 96 1 92 32
M  V30 97 1 27 93 CFG=3
M  V30 END BOND
M  V30 END CTAB
M  END
>  <i_epik_Tot_Q>  (1) 
4

>  <i_epik_Tot_abs_Q>  (1) 
6

>  <i_i_glide_confnum>  (1) 
2008

>  <i_i_glide_lignum>  (1) 
34

>  <i_i_glide_posenum>  (1) 
38

>  <i_i_glide_rotatable_bonds>  (1) 
14

>  <i_lp_mmshare_version>  (1) 
72125

>  <i_m_source_file_index>  (1) 
18

>  <i_f3d_flags>  (1) 
0

>  <num_sample>  (1) 
50

>  <b_lp_Chiralities_Consistent>  (1) 
1

>  <r_epik_Charging_Adjusted_Penalty>  (1) 
1.6052319346045403

>  <r_epik_Ionization_Penalty>  (1) 
1.3756208669108916

>  <r_epik_Ionization_Penalty_Charging>  (1) 
0.71181796891070681

>  <r_epik_Ionization_Penalty_Neutral>  (1) 
0.66380289800018477

>  <r_epik_State_Penalty>  (1) 
0.89341396569383336

>  <r_glide_ring_energy>  (1) 
0.0045750838620950583

>  <r_i_docking_score>  (1) 
-7.2786843861386554

>  <r_i_glide_ecoul>  (1) 
-9.1720386984757738

>  <r_i_glide_eff_state_penalty>  (1) 
0.89341396569383336

>  <r_i_glide_einternal>  (1) 
17.621029064614468

>  <r_i_glide_emodel>  (1) 
-76.31674817731647

>  <r_i_glide_emodel_strain>  (1) 
4.6940776109011892

>  <r_i_glide_energy>  (1) 
-52.448915495250787

>  <r_i_glide_erotb>  (1) 
0.56146573491919982

>  <r_i_glide_esite>  (1) 
-0.030844602453247185

>  <r_i_glide_evdw>  (1) 
-43.276876796775014

>  <r_i_glide_gscore>  (1) 
-8.1720983518324886

>  <r_i_glide_gscore_strain>  (1) 
0.17351940272529731

>  <r_i_glide_hbond>  (1) 
-0.017908624096818943

>  <r_i_glide_ligand_efficiency>  (1) 
-0.18663293297791425

>  <r_i_glide_ligand_efficiency_ln>  (1) 
-1.5607565501314506

>  <r_i_glide_ligand_efficiency_sa>  (1) 
-0.63291173795799893

>  <r_i_glide_lipo>  (1) 
-4.3455756247973927

>  <r_i_glide_metal>  (1) 
-0

>  <r_i_glide_rewards>  (1) 
-0.97310499351941104

>  <r_lp_Energy>  (1) 
72.689052000000004

>  <s_epik_Chemistry_Notes>  (1) 
This compound contains an acetal/aminal-like group ( X-CH(R)-Y where X, Y are N, S, or O) that may be acid/base labile, releasing an aldehyde.

>  <s_epik_cmdline>  (1) 
J2VwaWtfcHl0aG9uJywgJy1waHQnLCAnMS4wJywgJy1waCcsICc3LjQnLCAnLXRuJywgJzgnLCAnLW1hJywgJzUwMCcsICctaW1hZScsICc8aW5maWxlLm1hZT4nLCAnLW9tYWUnLCAnPG91dGZpbGUubWFlPic=

>  <s_epik_input>  (1) 
W05IXTFbQ0gyXVtDSDJdW05IXU4xW0NAQEhdKFtDSDJdW0NIXShbQ0gzXSlbQ0gzXSlbQ0BASF0oW09IXSlbTkhdW0NASF0oW0NIMl1bT0hdKVtDSDJdW0NAQEhdMltDSDJdW0NASF0oW0NIMl1bQ0gyXVtDQEBIXShOMjMpW0NIXTNbQ0gzXSlbTkhdW0NIMl1bQ0BASF0oW0NASF0oTzQpW1NIXSlbQ0BIXShDND01KVtDSF09W0NIXVtDSF09W0NIXVtDSF01

>  <s_glide_docking_method>  (1) 
confgen

>  <s_i_glide_gridfile>  (1) 
gpcr_5ht2c_6bqh_protein_autoprepared_prepared

>  <s_lp_Force_Field>  (1) 
S-OPLS

>  <s_lp_Variant>  (1) 
DiffSBDD_17-1

>  <s_m_source_file>  (1) 
generated_GPCR_5HT2C_ligand_DiffSBDD_2026-06-23_prepared.sdf

>  <GenAI_Model>  (1) 
DiffSBDD

>  <Protein>  (1) 
GPCR_5HT2C

$$$$
DiffSBDD_28
     RDKit          3D

  0  0  0  0  0  0  0  0  0  0999 V3000
M  V30 BEGIN CTAB
M  V30 COUNTS 45 48 0 0 1
M  V30 BEGIN ATOM
M  V30 1 O 37.418093 29.517367 57.616127 0
M  V30 2 C 39.245137 27.431772 54.083229 0
M  V30 3 C 39.023180 30.462815 60.598467 0
M  V30 4 C 39.178978 28.562703 53.246064 0
M  V30 5 C 39.896951 29.072374 57.488778 0
M  V30 6 F 39.610653 27.340339 51.290979 0
M  V30 7 C 37.134986 29.646125 59.001334 0 CFG=1
M  V30 8 C 38.936346 28.383560 51.771474 0
M  V30 9 C 39.570089 30.015028 55.164400 0
M  V30 10 C 39.571230 26.346012 56.350060 0 CFG=2
M  V30 11 O 37.604273 25.003328 56.528259 0
M  V30 12 P 38.405365 28.391402 58.405763 0 CFG=1 CHG=1
M  V30 13 C 38.886460 32.520459 62.113652 0
M  V30 14 F 40.445143 26.394718 57.354280 0
M  V30 15 C 39.489889 27.584032 55.460681 0
M  V30 16 C 38.186638 26.021000 56.894687 0
M  V30 17 N 37.645144 26.880697 57.767759 0
M  V30 18 C 39.649811 28.884861 56.006048 0
M  V30 19 C 39.260751 31.241505 61.888773 0
M  V30 20 C 37.726388 30.796380 59.822602 0 CFG=2
M  V30 21 C 37.847191 32.066003 58.962327 0
M  V30 22 C 39.335451 29.854658 53.788738 0
M  V30 23 F 37.645147 28.137749 51.692886 0
M  V30 24 F 39.245123 29.462416 51.053956 0
M  V30 25 C 38.567859 33.226576 59.649913 0
M  V30 26 C 38.165895 33.418360 61.115628 0
M  V30 27 H 39.118913 26.444021 53.663236 0
M  V30 28 H 39.912301 30.537618 59.976021 0
M  V30 29 H 38.968710 29.428598 60.938880 0
M  V30 30 H 40.000568 30.135665 57.697709 0
M  V30 31 H 40.839917 28.625970 57.800414 0
M  V30 32 H 36.127852 29.337754 59.273816 0
M  V30 33 H 39.688915 31.007119 55.576876 0
M  V30 34 H 39.907364 25.504334 55.741305 0
M  V30 35 H 39.105939 32.965132 63.072972 0
M  V30 36 H 36.724279 26.669254 58.119156 0
M  V30 37 H 39.773027 30.704520 62.674814 0
M  V30 38 H 36.967668 30.992678 60.581664 0
M  V30 39 H 38.361436 31.853357 58.024961 0
M  V30 40 H 36.845127 32.388087 58.674384 0
M  V30 41 H 39.278493 30.722719 53.148027 0
M  V30 42 H 39.646800 33.098840 59.579666 0
M  V30 43 H 38.344103 34.137699 59.094433 0
M  V30 44 H 37.086441 33.340538 61.250683 0
M  V30 45 H 38.424067 34.440787 61.393426 0
M  V30 END ATOM
M  V30 BEGIN BOND
M  V30 1 2 4 2
M  V30 2 1 7 1
M  V30 3 1 8 4
M  V30 4 1 8 6
M  V30 5 1 12 1 CFG=3
M  V30 6 1 12 5
M  V30 7 1 12 7
M  V30 8 1 14 10
M  V30 9 1 15 2
M  V30 10 1 15 10
M  V30 11 1 16 10
M  V30 12 2 16 11
M  V30 13 1 17 12
M  V30 14 1 17 16
M  V30 15 1 18 5
M  V30 16 1 18 9
M  V30 17 2 18 15
M  V30 18 1 19 3
M  V30 19 2 19 13
M  V30 20 1 20 3
M  V30 21 1 20 7
M  V30 22 1 21 20
M  V30 23 1 22 4
M  V30 24 2 22 9
M  V30 25 1 23 8
M  V30 26 1 24 8
M  V30 27 1 25 21
M  V30 28 1 26 13
M  V30 29 1 26 25
M  V30 30 1 27 2
M  V30 31 1 28 3
M  V30 32 1 29 3
M  V30 33 1 30 5
M  V30 34 1 31 5
M  V30 35 1 7 32 CFG=3
M  V30 36 1 33 9
M  V30 37 1 10 34 CFG=3
M  V30 38 1 35 13
M  V30 39 1 36 17
M  V30 40 1 37 19
M  V30 41 1 20 38 CFG=1
M  V30 42 1 39 21
M  V30 43 1 40 21
M  V30 44 1 41 22
M  V30 45 1 42 25
M  V30 46 1 43 25
M  V30 47 1 44 26
M  V30 48 1 45 26
M  V30 END BOND
M  V30 END CTAB
M  END
>  <i_epik_Tot_Q>  (1) 
1

>  <i_epik_Tot_abs_Q>  (1) 
1

>  <i_i_glide_confnum>  (1) 
2

>  <i_i_glide_lignum>  (1) 
63

>  <i_i_glide_posenum>  (1) 
231

>  <i_i_glide_rotatable_bonds>  (1) 
2

>  <i_lp_mmshare_version>  (1) 
72125

>  <i_m_source_file_index>  (1) 
29

>  <i_f3d_flags>  (1) 
0

>  <num_sample>  (1) 
50

>  <b_lp_Chiralities_Consistent>  (1) 
1

>  <r_epik_Charging_Adjusted_Penalty>  (1) 
0

>  <r_epik_Ionization_Penalty>  (1) 
1.069405246037928e-05

>  <r_epik_Ionization_Penalty_Charging>  (1) 
0

>  <r_epik_Ionization_Penalty_Neutral>  (1) 
1.069405246037928e-05

>  <r_epik_State_Penalty>  (1) 
-0

>  <r_glide_ring_energy>  (1) 
1.0823529994595977

>  <r_i_docking_score>  (1) 
-7.2631210659759819

>  <r_i_glide_ecoul>  (1) 
1.4335523907662087

>  <r_i_glide_eff_state_penalty>  (1) 
-0

>  <r_i_glide_einternal>  (1) 
3.3006887287353126

>  <r_i_glide_emodel>  (1) 
-45.916525959565412

>  <r_i_glide_emodel_strain>  (1) 
0

>  <r_i_glide_energy>  (1) 
-33.311589682892176

>  <r_i_glide_erotb>  (1) 
0.12919976224793953

>  <r_i_glide_esite>  (1) 
0

>  <r_i_glide_evdw>  (1) 
-34.745142073658386

>  <r_i_glide_gscore>  (1) 
-7.2631210659759819

>  <r_i_glide_gscore_strain>  (1) 
0

>  <r_i_glide_hbond>  (1) 
0

>  <r_i_glide_ligand_efficiency>  (1) 
-0.27935081022984548

>  <r_i_glide_ligand_efficiency_ln>  (1) 
-1.7057201501003969

>  <r_i_glide_ligand_efficiency_sa>  (1) 
-0.82757567701233081

>  <r_i_glide_lipo>  (1) 
-2.5448802752669448

>  <r_i_glide_metal>  (1) 
-0

>  <r_i_glide_rewards>  (1) 
-3.3252163078889874

>  <r_lp_Energy>  (1) 
24.158424

>  <r_lp_tautomer_probability>  (1) 
1

>  <s_epik_cmdline>  (1) 
J2VwaWtfcHl0aG9uJywgJy1waHQnLCAnMS4wJywgJy1waCcsICc3LjQnLCAnLXRuJywgJzgnLCAnLW1hJywgJzUwMCcsICctaW1hZScsICc8aW5maWxlLm1hZT4nLCAnLW9tYWUnLCAnPG91dGZpbGUubWFlPic=

>  <s_epik_input>  (1) 
W0NIMl0xW0NIMl1bQ0gyXVtDSF09W0NIXVtDSDJdW0NAQEhdMVtDQEhdMk9bUEArXTIzW0NIMl1jNGMoW0NAQEhdKEYpQyg9TylbTkhdMylbY0hdYyhDKEYpKEYpRilbY0hdW2NIXTQ=

>  <s_glide_docking_method>  (1) 
confgen

>  <s_i_glide_gridfile>  (1) 
gpcr_5ht2c_6bqh_protein_autoprepared_prepared

>  <s_lp_Force_Field>  (1) 
S-OPLS

>  <s_lp_Variant>  (1) 
DiffSBDD_28-2

>  <s_m_source_file>  (1) 
generated_GPCR_5HT2C_ligand_DiffSBDD_2026-06-23_prepared.sdf

>  <GenAI_Model>  (1) 
DiffSBDD

>  <Protein>  (1) 
GPCR_5HT2C

$$$$
DiffSBDD_17
     RDKit          3D

  0  0  0  0  0  0  0  0  0  0999 V3000
M  V30 BEGIN CTAB
M  V30 COUNTS 93 97 0 0 1
M  V30 BEGIN ATOM
M  V30 1 C 42.752436 33.449823 67.086357 0
M  V30 2 C 38.025993 32.464631 61.586053 0 CFG=2
M  V30 3 C 42.924962 31.220470 65.904113 0
M  V30 4 O 39.245138 28.805360 61.768019 0
M  V30 5 C 41.914103 31.381391 68.260347 0
M  V30 6 C 39.167895 27.712279 54.996396 0
M  V30 7 C 39.033945 27.736208 52.501801 0
M  V30 8 C 39.214003 27.096924 53.810122 0
M  V30 9 C 38.570677 33.502248 58.852164 0
M  V30 10 C 39.784547 35.186953 61.319634 0
M  V30 11 N 43.286039 29.150766 64.551450 0
M  V30 12 C 38.301926 35.086482 60.987930 0 CFG=2
M  V30 13 C 40.918792 29.914439 64.837148 0 CFG=1
M  V30 14 C 39.481511 32.253790 62.105382 0
M  V30 15 N 42.870001 27.761600 64.218745 0 CHG=1
M  V30 16 C 39.656223 27.958069 57.180957 0 CFG=2
M  V30 17 C 38.825426 29.125600 55.244685 0 CFG=2
M  V30 18 C 45.172500 27.745894 64.824751 0
M  V30 19 C 42.346661 29.827341 65.478726 0 CFG=2
M  V30 20 O 39.393489 27.023266 56.147012 0
M  V30 21 C 43.919547 26.870103 64.738979 0
M  V30 22 O 39.919176 30.179187 65.790057 0
M  V30 23 N 37.471354 29.779873 58.822337 0 CHG=1
M  V30 24 C 39.509229 30.166899 54.428406 0
M  V30 25 C 37.410460 31.351661 60.700739 0
M  V30 26 C 39.226071 29.053299 52.189546 0
M  V30 27 N 37.547364 33.834585 61.185843 0 CFG=1 CHG=1
M  V30 28 C 40.236600 29.793716 61.876666 0
M  V30 29 S 39.285221 27.372400 58.854056 0 CHG=-1
M  V30 30 C 39.752811 30.905964 62.839397 0 CFG=1
M  V30 31 C 39.645024 30.142911 53.092198 0
M  V30 32 N 40.741989 31.081845 63.933808 0 CHG=1
M  V30 33 C 37.724794 34.319951 59.816863 0 CFG=2
M  V30 34 C 37.521740 29.451897 57.382636 0
M  V30 35 C 37.888288 32.234259 58.356840 0
M  V30 36 C 38.940294 29.271603 56.774688 0 CFG=1
M  V30 37 C 38.050435 31.051686 59.324195 0 CFG=2
M  V30 38 N 44.669645 29.105974 65.084258 0 CHG=1
M  V30 39 C 42.099597 32.072005 66.898277 0
M  V30 40 H 43.762852 33.360316 67.486771 0
M  V30 41 H 42.810136 33.994188 66.143158 0
M  V30 42 H 42.178012 34.067271 67.778050 0
M  V30 43 H 37.454952 32.366989 62.510303 0
M  V30 44 H 43.901016 31.099853 66.372711 0
M  V30 45 H 43.115973 31.815795 65.010087 0
M  V30 46 H 38.976857 28.504928 62.631056 0
M  V30 47 H 42.872796 31.176859 68.738435 0
M  V30 48 H 41.338237 32.011828 68.940033 0
M  V30 49 H 41.374880 30.438296 68.172452 0
M  V30 50 H 38.782299 27.081925 51.679135 0
M  V30 51 H 39.414096 26.036992 53.815310 0
M  V30 52 H 39.571766 33.301616 59.224745 0
M  V30 53 H 38.689208 34.120990 57.966364 0
M  V30 54 H 40.157624 36.144016 60.960464 0
M  V30 55 H 39.942484 35.175590 62.397670 0
M  V30 56 H 40.398488 34.433071 60.841580 0
M  V30 57 H 37.701851 35.903586 61.383699 0
M  V30 58 H 40.630213 28.977540 64.363214 0
M  V30 59 H 39.673566 33.042978 62.830158 0
M  V30 60 H 40.207444 32.372665 61.303502 0
M  V30 61 H 41.971827 27.557054 64.635235 0
M  V30 62 H 40.733207 28.135335 57.153697 0
M  V30 63 H 37.777151 29.213478 54.954502 0
M  V30 64 H 45.672582 27.749025 63.855616 0
M  V30 65 H 45.887371 27.415550 65.580101 0
M  V30 66 H 42.276465 29.200727 66.370360 0
M  V30 67 H 44.043726 25.991746 64.105034 0
M  V30 68 H 43.634842 26.530350 65.736257 0
M  V30 69 H 39.335788 29.431702 65.854233 0
M  V30 70 H 37.955402 29.002273 59.271207 0
M  V30 71 H 39.862093 31.033992 54.968446 0
M  V30 72 H 37.402853 30.441199 61.289825 0
M  V30 73 H 36.352252 31.571552 60.549029 0
M  V30 74 H 39.106140 29.317052 51.148359 0
M  V30 75 H 41.151344 29.308690 62.213828 0
M  V30 76 H 40.487221 30.173934 60.889337 0
M  V30 77 H 38.830569 30.595847 63.334431 0
M  V30 78 H 40.099414 31.010095 52.632225 0
M  V30 79 H 41.632909 31.317770 63.522146 0
M  V30 80 H 36.756817 34.637398 59.431621 0
M  V30 81 H 36.999510 28.500744 57.325254 0
M  V30 82 H 36.924691 30.168590 56.820534 0
M  V30 83 H 38.323394 31.993984 57.387603 0
M  V30 84 H 36.845140 32.455028 58.168612 0
M  V30 85 H 39.571486 30.118094 57.042622 0
M  V30 86 H 39.115250 30.867307 59.430926 0
M  V30 87 H 45.225626 29.808328 64.613554 0
M  V30 88 H 41.111489 32.267433 66.486127 0
M  V30 89 H 42.838300 27.694216 63.206833 0
M  V30 90 H 44.621374 29.294097 66.078515 0
M  V30 91 H 36.494823 29.751421 59.075704 0
M  V30 92 H 40.454027 31.852951 64.520920 0
M  V30 93 H 36.589386 34.008757 61.459210 0
M  V30 END ATOM
M  V30 BEGIN BOND
M  V30 1 2 8 6
M  V30 2 1 8 7
M  V30 3 1 12 10
M  V30 4 1 14 2
M  V30 5 1 15 11
M  V30 6 1 17 6
M  V30 7 1 19 3
M  V30 8 1 19 11
M  V30 9 1 19 13
M  V30 10 1 20 6
M  V30 11 1 20 16
M  V30 12 1 21 15
M  V30 13 1 21 18
M  V30 14 1 22 13
M  V30 15 1 24 17
M  V30 16 1 25 2
M  V30 17 2 26 7
M  V30 18 1 27 2
M  V30 19 1 27 12
M  V30 20 1 28 4
M  V30 21 1 29 16
M  V30 22 1 30 14
M  V30 23 1 30 28
M  V30 24 2 31 24
M  V30 25 1 31 26
M  V30 26 1 32 13
M  V30 27 1 32 30
M  V30 28 1 33 9
M  V30 29 1 33 12
M  V30 30 1 33 27
M  V30 31 1 34 23
M  V30 32 1 35 9
M  V30 33 1 36 16
M  V30 34 1 36 17
M  V30 35 1 36 34
M  V30 36 1 37 23
M  V30 37 1 37 25
M  V30 38 1 37 35
M  V30 39 1 38 11
M  V30 40 1 38 18
M  V30 41 1 39 1
M  V30 42 1 39 3
M  V30 43 1 39 5
M  V30 44 1 40 1
M  V30 45 1 41 1
M  V30 46 1 42 1
M  V30 47 1 2 43 CFG=1
M  V30 48 1 44 3
M  V30 49 1 45 3
M  V30 50 1 46 4
M  V30 51 1 47 5
M  V30 52 1 48 5
M  V30 53 1 49 5
M  V30 54 1 50 7
M  V30 55 1 51 8
M  V30 56 1 52 9
M  V30 57 1 53 9
M  V30 58 1 54 10
M  V30 59 1 55 10
M  V30 60 1 56 10
M  V30 61 1 12 57 CFG=1
M  V30 62 1 13 58 CFG=3
M  V30 63 1 59 14
M  V30 64 1 60 14
M  V30 65 1 61 15
M  V30 66 1 16 62 CFG=1
M  V30 67 1 17 63 CFG=1
M  V30 68 1 64 18
M  V30 69 1 65 18
M  V30 70 1 19 66 CFG=1
M  V30 71 1 67 21
M  V30 72 1 68 21
M  V30 73 1 69 22
M  V30 74 1 70 23
M  V30 75 1 71 24
M  V30 76 1 72 25
M  V30 77 1 73 25
M  V30 78 1 74 26
M  V30 79 1 75 28
M  V30 80 1 76 28
M  V30 81 1 30 77 CFG=1
M  V30 82 1 78 31
M  V30 83 1 79 32
M  V30 84 1 33 80 CFG=3
M  V30 85 1 81 34
M  V30 86 1 82 34
M  V30 87 1 83 35
M  V30 88 1 84 35
M  V30 89 1 36 85 CFG=3
M  V30 90 1 37 86 CFG=1
M  V30 91 1 87 38
M  V30 92 1 88 39
M  V30 93 1 89 15
M  V30 94 1 90 38
M  V30 95 1 91 23
M  V30 96 1 92 32
M  V30 97 1 27 93 CFG=1
M  V30 END BOND
M  V30 END CTAB
M  END
>  <i_epik_Tot_Q>  (1) 
4

>  <i_epik_Tot_abs_Q>  (1) 
6

>  <i_i_glide_confnum>  (1) 
220

>  <i_i_glide_lignum>  (1) 
35

>  <i_i_glide_posenum>  (1) 
31

>  <i_i_glide_rotatable_bonds>  (1) 
14

>  <i_lp_mmshare_version>  (1) 
72125

>  <i_m_source_file_index>  (1) 
18

>  <i_f3d_flags>  (1) 
0

>  <num_sample>  (1) 
50

>  <b_lp_Chiralities_Consistent>  (1) 
1

>  <r_epik_Charging_Adjusted_Penalty>  (1) 
1.6052319346045403

>  <r_epik_Ionization_Penalty>  (1) 
1.3756208669108916

>  <r_epik_Ionization_Penalty_Charging>  (1) 
0.71181796891070681

>  <r_epik_Ionization_Penalty_Neutral>  (1) 
0.66380289800018477

>  <r_epik_State_Penalty>  (1) 
0.89341396569383336

>  <r_glide_ring_energy>  (1) 
0.0045750838620950583

>  <r_i_docking_score>  (1) 
-7.2435453483945587

>  <r_i_glide_ecoul>  (1) 
-11.402532360630648

>  <r_i_glide_eff_state_penalty>  (1) 
0.89341396569383336

>  <r_i_glide_einternal>  (1) 
8.2234167944630574

>  <r_i_glide_emodel>  (1) 
-81.534694366229274

>  <r_i_glide_emodel_strain>  (1) 
1.0950256624214489

>  <r_i_glide_energy>  (1) 
-53.150671552991568

>  <r_i_glide_erotb>  (1) 
0.56146573491919982

>  <r_i_glide_esite>  (1) 
-0.04406495180061059

>  <r_i_glide_evdw>  (1) 
-41.748139192360924

>  <r_i_glide_gscore>  (1) 
-8.1369593140883918

>  <r_i_glide_gscore_strain>  (1) 
0

>  <r_i_glide_hbond>  (1) 
-0.44296158088223736

>  <r_i_glide_ligand_efficiency>  (1) 
-0.1857319320101169

>  <r_i_glide_ligand_efficiency_ln>  (1) 
-1.5532217429582122

>  <r_i_glide_ligand_efficiency_sa>  (1) 
-0.62985625316583771

>  <r_i_glide_lipo>  (1) 
-3.7111339928042342

>  <r_i_glide_metal>  (1) 
-0

>  <r_i_glide_rewards>  (1) 
-0.70247770980786539

>  <r_lp_Energy>  (1) 
83.500289999999993

>  <s_epik_Chemistry_Notes>  (1) 
This compound contains an acetal/aminal-like group ( X-CH(R)-Y where X, Y are N, S, or O) that may be acid/base labile, releasing an aldehyde.

>  <s_epik_cmdline>  (1) 
J2VwaWtfcHl0aG9uJywgJy1waHQnLCAnMS4wJywgJy1waCcsICc3LjQnLCAnLXRuJywgJzgnLCAnLW1hJywgJzUwMCcsICctaW1hZScsICc8aW5maWxlLm1hZT4nLCAnLW9tYWUnLCAnPG91dGZpbGUubWFlPic=

>  <s_epik_input>  (1) 
W05IXTFbQ0gyXVtDSDJdW05IXU4xW0NAQEhdKFtDSDJdW0NIXShbQ0gzXSlbQ0gzXSlbQ0BASF0oW09IXSlbTkhdW0NASF0oW0NIMl1bT0hdKVtDSDJdW0NAQEhdMltDSDJdW0NASF0oW0NIMl1bQ0gyXVtDQEBIXShOMjMpW0NIXTNbQ0gzXSlbTkhdW0NIMl1bQ0BASF0oW0NASF0oTzQpW1NIXSlbQ0BIXShDND01KVtDSF09W0NIXVtDSF09W0NIXVtDSF01

>  <s_glide_docking_method>  (1) 
confgen

>  <s_i_glide_gridfile>  (1) 
gpcr_5ht2c_6bqh_protein_autoprepared_prepared

>  <s_lp_Force_Field>  (1) 
S-OPLS

>  <s_lp_Variant>  (1) 
DiffSBDD_17-2

>  <s_m_source_file>  (1) 
generated_GPCR_5HT2C_ligand_DiffSBDD_2026-06-23_prepared.sdf

>  <GenAI_Model>  (1) 
DiffSBDD

>  <Protein>  (1) 
GPCR_5HT2C

$$$$
DiffSBDD_28
     RDKit          3D

  0  0  0  0  0  0  0  0  0  0999 V3000
M  V30 BEGIN CTAB
M  V30 COUNTS 45 48 0 0 1
M  V30 BEGIN ATOM
M  V30 1 O 38.445118 28.432461 59.767751 0
M  V30 2 C 39.780954 33.404872 62.293985 0
M  V30 3 C 39.571700 26.210015 57.916139 0
M  V30 4 C 39.496875 34.648194 61.696798 0
M  V30 5 C 37.775546 31.010514 60.044167 0
M  V30 6 F 40.345472 35.791843 63.572252 0
M  V30 7 C 38.630425 28.542067 58.365288 0 CFG=1
M  V30 8 C 40.099036 35.921560 62.268703 0
M  V30 9 C 38.102002 33.529232 60.032436 0
M  V30 10 C 39.515000 30.893098 62.450824 0 CFG=2
M  V30 11 O 41.645121 29.821177 62.567765 0
M  V30 12 P 39.201267 29.922604 59.469689 0 CFG=2 CHG=1
M  V30 13 C 37.820318 25.744728 56.151754 0
M  V30 14 F 38.445140 30.137755 62.567627 0
M  V30 15 C 39.224058 32.220714 61.769705 0
M  V30 16 C 40.665150 30.068861 61.871300 0
M  V30 17 N 40.563364 29.631530 60.599988 0
M  V30 18 C 38.382208 32.281075 60.628354 0
M  V30 19 C 38.239078 25.673880 57.425638 0
M  V30 20 C 39.758602 27.731761 57.735417 0 CFG=2
M  V30 21 C 40.039377 28.139516 56.273152 0
M  V30 22 C 38.655940 34.708918 60.567760 0
M  V30 23 F 41.245135 36.156459 61.637541 0
M  V30 24 F 39.284515 36.963089 62.095151 0
M  V30 25 C 38.913808 27.863520 55.256157 0
M  V30 26 C 38.620132 26.371219 55.027780 0
M  V30 27 H 40.422318 33.359750 63.162609 0
M  V30 28 H 39.645201 25.960214 58.972492 0
M  V30 29 H 40.378464 25.665643 57.423149 0
M  V30 30 H 37.154262 31.264639 59.184038 0
M  V30 31 H 37.101448 30.524184 60.745932 0
M  V30 32 H 37.701126 28.625664 57.806085 0
M  V30 33 H 37.458677 33.583089 59.164662 0
M  V30 34 H 39.775014 31.109468 63.488729 0
M  V30 35 H 36.855161 25.337066 55.886565 0
M  V30 36 H 41.321454 29.073163 60.235668 0
M  V30 37 H 37.605171 25.209548 58.167487 0
M  V30 38 H 40.670835 27.972356 58.282298 0
M  V30 39 H 40.273125 29.204149 56.243263 0
M  V30 40 H 40.944902 27.634761 55.935802 0
M  V30 41 H 38.436509 35.662246 60.110849 0
M  V30 42 H 37.999781 28.392095 55.527706 0
M  V30 43 H 39.220037 28.291874 54.300994 0
M  V30 44 H 39.543315 25.809988 54.878264 0
M  V30 45 H 38.040675 26.254151 54.111025 0
M  V30 END ATOM
M  V30 BEGIN BOND
M  V30 1 2 4 2
M  V30 2 1 7 1
M  V30 3 1 8 4
M  V30 4 1 8 6
M  V30 5 1 12 1 CFG=1
M  V30 6 1 12 5
M  V30 7 1 12 7
M  V30 8 1 14 10
M  V30 9 1 15 2
M  V30 10 1 15 10
M  V30 11 1 16 10
M  V30 12 2 16 11
M  V30 13 1 17 12
M  V30 14 1 17 16
M  V30 15 1 18 5
M  V30 16 1 18 9
M  V30 17 2 18 15
M  V30 18 1 19 3
M  V30 19 2 19 13
M  V30 20 1 20 3
M  V30 21 1 20 7
M  V30 22 1 21 20
M  V30 23 1 22 4
M  V30 24 2 22 9
M  V30 25 1 23 8
M  V30 26 1 24 8
M  V30 27 1 25 21
M  V30 28 1 26 13
M  V30 29 1 26 25
M  V30 30 1 27 2
M  V30 31 1 28 3
M  V30 32 1 29 3
M  V30 33 1 30 5
M  V30 34 1 31 5
M  V30 35 1 7 32 CFG=3
M  V30 36 1 33 9
M  V30 37 1 10 34 CFG=1
M  V30 38 1 35 13
M  V30 39 1 36 17
M  V30 40 1 37 19
M  V30 41 1 20 38 CFG=1
M  V30 42 1 39 21
M  V30 43 1 40 21
M  V30 44 1 41 22
M  V30 45 1 42 25
M  V30 46 1 43 25
M  V30 47 1 44 26
M  V30 48 1 45 26
M  V30 END BOND
M  V30 END CTAB
M  END
>  <i_epik_Tot_Q>  (1) 
1

>  <i_epik_Tot_abs_Q>  (1) 
1

>  <i_i_glide_confnum>  (1) 
4

>  <i_i_glide_lignum>  (1) 
62

>  <i_i_glide_posenum>  (1) 
291

>  <i_i_glide_rotatable_bonds>  (1) 
2

>  <i_lp_mmshare_version>  (1) 
72125

>  <i_m_source_file_index>  (1) 
29

>  <i_f3d_flags>  (1) 
0

>  <num_sample>  (1) 
50

>  <b_lp_Chiralities_Consistent>  (1) 
1

>  <r_epik_Charging_Adjusted_Penalty>  (1) 
0

>  <r_epik_Ionization_Penalty>  (1) 
1.069405246037928e-05

>  <r_epik_Ionization_Penalty_Charging>  (1) 
0

>  <r_epik_Ionization_Penalty_Neutral>  (1) 
1.069405246037928e-05

>  <r_epik_State_Penalty>  (1) 
-0

>  <r_glide_ring_energy>  (1) 
2.0538870019728419

>  <r_i_docking_score>  (1) 
-7.2317766355868152

>  <r_i_glide_ecoul>  (1) 
-0.89095321641754621

>  <r_i_glide_eff_state_penalty>  (1) 
-0

>  <r_i_glide_einternal>  (1) 
0.10599966345433764

>  <r_i_glide_emodel>  (1) 
-54.274168901395214

>  <r_i_glide_emodel_strain>  (1) 
0

>  <r_i_glide_energy>  (1) 
-35.082865478417041

>  <r_i_glide_erotb>  (1) 
0.12919976224793953

>  <r_i_glide_esite>  (1) 
-0.077874291999730338

>  <r_i_glide_evdw>  (1) 
-34.191912261999498

>  <r_i_glide_gscore>  (1) 
-7.2317766355868152

>  <r_i_glide_gscore_strain>  (1) 
0

>  <r_i_glide_hbond>  (1) 
-0.32000000000000001

>  <r_i_glide_ligand_efficiency>  (1) 
-0.27814525521487748

>  <r_i_glide_ligand_efficiency_ln>  (1) 
-1.698359013472966

>  <r_i_glide_ligand_efficiency_sa>  (1) 
-0.8240042250202394

>  <r_i_glide_lipo>  (1) 
-3.2238128419667711

>  <r_i_glide_metal>  (1) 
-0

>  <r_i_glide_rewards>  (1) 
-1.8960506683056462

>  <r_lp_Energy>  (1) 
27.226237999999999

>  <r_lp_tautomer_probability>  (1) 
1

>  <s_epik_cmdline>  (1) 
J2VwaWtfcHl0aG9uJywgJy1waHQnLCAnMS4wJywgJy1waCcsICc3LjQnLCAnLXRuJywgJzgnLCAnLW1hJywgJzUwMCcsICctaW1hZScsICc8aW5maWxlLm1hZT4nLCAnLW9tYWUnLCAnPG91dGZpbGUubWFlPic=

>  <s_epik_input>  (1) 
W0NIMl0xW0NIMl1bQ0gyXVtDSF09W0NIXVtDSDJdW0NAQEhdMVtDQEhdMk9bUEArXTIzW0NIMl1jNGMoW0NAQEhdKEYpQyg9TylbTkhdMylbY0hdYyhDKEYpKEYpRilbY0hdW2NIXTQ=

>  <s_glide_docking_method>  (1) 
confgen

>  <s_i_glide_gridfile>  (1) 
gpcr_5ht2c_6bqh_protein_autoprepared_prepared

>  <s_lp_Force_Field>  (1) 
S-OPLS

>  <s_lp_Variant>  (1) 
DiffSBDD_28-1

>  <s_m_source_file>  (1) 
generated_GPCR_5HT2C_ligand_DiffSBDD_2026-06-23_prepared.sdf

>  <GenAI_Model>  (1) 
DiffSBDD

>  <Protein>  (1) 
GPCR_5HT2C

$$$$
DiffSBDD_27
     RDKit          3D

  0  0  0  0  0  0  0  0  0  0999 V3000
M  V30 BEGIN CTAB
M  V30 COUNTS 67 69 0 0 1
M  V30 BEGIN ATOM
M  V30 1 C 36.930106 28.114911 52.982658 0
M  V30 2 C 40.610589 35.931139 61.541318 0
M  V30 3 N 36.965833 25.336621 56.718209 0
M  V30 4 C 39.164084 30.977533 56.264398 0
M  V30 5 C 36.859780 37.366084 61.330390 0
M  V30 6 C 37.306902 34.160163 60.776145 0
M  V30 7 N 38.044870 31.545899 57.037728 0 CHG=1
M  V30 8 C 36.941232 33.944843 59.390726 0
M  V30 9 O 36.504886 38.487215 61.754787 0
M  V30 10 C 37.997686 25.815769 56.506014 0
M  V30 11 C 39.610183 32.394259 62.915285 0
M  V30 12 C 39.317070 26.444590 56.248588 0 CFG=2
M  V30 13 C 37.680149 28.067887 54.299362 0 CFG=1
M  V30 14 C 36.397624 34.824959 61.770531 0
M  V30 15 C 36.831396 36.207741 62.336335 0
M  V30 16 C 35.624335 34.363889 58.811636 0
M  V30 17 S 39.245130 32.948087 59.695711 0
M  V30 18 C 37.956058 33.337798 58.675786 0
M  V30 19 C 37.991376 28.137821 51.882531 0
M  V30 20 N 39.590427 27.604587 57.117391 0
M  V30 21 O 37.236653 37.109881 60.166072 0 CHG=-1
M  V30 22 C 38.584246 33.704278 61.051345 0
M  V30 23 C 38.654061 28.716713 57.072427 0
M  V30 24 C 40.727566 34.520467 62.138031 0
M  V30 25 N 38.930054 29.572627 55.914566 0
M  V30 26 O 40.671719 26.137755 54.336549 0
M  V30 27 C 39.645158 26.652852 54.755119 0
M  V30 28 N 38.892634 27.376103 53.901125 0
M  V30 29 C 37.918466 29.485430 54.859470 0
M  V30 30 C 38.029290 33.004954 57.220563 0
M  V30 31 C 39.375725 33.789879 62.319768 0 CFG=2
M  V30 32 C 39.180546 27.403284 52.470284 0
M  V30 33 H 36.346982 27.200070 52.967759 0
M  V30 34 H 36.243354 28.937755 52.888665 0
M  V30 35 H 41.596658 36.374153 61.402589 0
M  V30 36 H 40.042489 36.592946 62.196464 0
M  V30 37 H 40.120116 35.918150 60.567685 0
M  V30 38 H 40.045136 31.040453 56.891639 0
M  V30 39 H 39.354999 31.567712 55.366824 0
M  V30 40 H 37.143730 31.337848 56.609715 0
M  V30 41 H 38.676616 31.837799 62.967746 0
M  V30 42 H 40.042633 32.454656 63.915049 0
M  V30 43 H 40.289481 31.808061 62.295652 0
M  V30 44 H 40.027417 25.683918 56.575652 0
M  V30 45 H 37.081011 27.469595 54.967819 0
M  V30 46 H 35.458460 34.937736 61.260533 0
M  V30 47 H 36.054674 34.156860 62.567398 0
M  V30 48 H 37.799594 36.179561 62.823758 0
M  V30 49 H 36.125895 36.484490 63.119681 0
M  V30 50 H 35.536329 34.137754 57.767742 0
M  V30 51 H 35.469688 35.437418 58.919517 0
M  V30 52 H 34.792975 33.861701 59.308000 0
M  V30 53 H 37.645177 27.672131 50.967757 0
M  V30 54 H 38.277079 29.163461 51.649592 0
M  V30 55 H 40.542071 27.930602 57.014682 0
M  V30 56 H 37.615791 28.389886 57.128953 0
M  V30 57 H 38.840883 29.257800 58.000972 0
M  V30 58 H 41.384137 33.928286 61.500312 0
M  V30 59 H 41.234107 34.592789 63.100159 0
M  V30 60 H 38.234243 30.129638 54.037943 0
M  V30 61 H 36.967807 29.888774 55.210049 0
M  V30 62 H 37.245139 33.460827 56.627496 0
M  V30 63 H 38.952313 33.419245 56.818480 0
M  V30 64 H 38.845138 34.390847 63.027982 0
M  V30 65 H 40.109779 27.917055 52.228432 0
M  V30 66 H 39.245178 26.392795 52.069644 0
M  V30 67 H 38.026606 31.134624 57.958248 0
M  V30 END ATOM
M  V30 BEGIN BOND
M  V30 1 1 7 4
M  V30 2 1 8 6
M  V30 3 2 9 5
M  V30 4 3 10 3
M  V30 5 1 12 10
M  V30 6 1 13 1
M  V30 7 1 14 6
M  V30 8 1 15 5
M  V30 9 1 15 14
M  V30 10 1 16 8
M  V30 11 2 18 8
M  V30 12 1 18 17
M  V30 13 1 19 1
M  V30 14 1 20 12
M  V30 15 1 21 5
M  V30 16 2 22 6
M  V30 17 1 22 17
M  V30 18 1 23 20
M  V30 19 1 24 2
M  V30 20 1 25 4
M  V30 21 1 25 23
M  V30 22 1 27 12
M  V30 23 2 27 26
M  V30 24 1 28 13
M  V30 25 1 28 27
M  V30 26 1 29 13
M  V30 27 1 29 25
M  V30 28 1 30 7
M  V30 29 1 30 18
M  V30 30 1 31 11
M  V30 31 1 31 22
M  V30 32 1 31 24
M  V30 33 1 32 19
M  V30 34 1 32 28
M  V30 35 1 33 1
M  V30 36 1 34 1
M  V30 37 1 35 2
M  V30 38 1 36 2
M  V30 39 1 37 2
M  V30 40 1 38 4
M  V30 41 1 39 4
M  V30 42 1 40 7
M  V30 43 1 41 11
M  V30 44 1 42 11
M  V30 45 1 43 11
M  V30 46 1 12 44 CFG=1
M  V30 47 1 13 45 CFG=1
M  V30 48 1 46 14
M  V30 49 1 47 14
M  V30 50 1 48 15
M  V30 51 1 49 15
M  V30 52 1 50 16
M  V30 53 1 51 16
M  V30 54 1 52 16
M  V30 55 1 53 19
M  V30 56 1 54 19
M  V30 57 1 55 20
M  V30 58 1 56 23
M  V30 59 1 57 23
M  V30 60 1 58 24
M  V30 61 1 59 24
M  V30 62 1 60 29
M  V30 63 1 61 29
M  V30 64 1 62 30
M  V30 65 1 63 30
M  V30 66 1 31 64 CFG=1
M  V30 67 1 65 32
M  V30 68 1 66 32
M  V30 69 1 67 7
M  V30 END BOND
M  V30 END CTAB
M  END
>  <i_epik_Tot_Q>  (1) 
0

>  <i_epik_Tot_abs_Q>  (1) 
2

>  <i_i_glide_confnum>  (1) 
128

>  <i_i_glide_lignum>  (1) 
61

>  <i_i_glide_posenum>  (1) 
153

>  <i_i_glide_rotatable_bonds>  (1) 
9

>  <i_lp_mmshare_version>  (1) 
72125

>  <i_m_source_file_index>  (1) 
28

>  <i_f3d_flags>  (1) 
0

>  <num_sample>  (1) 
50

>  <b_lp_Chiralities_Consistent>  (1) 
1

>  <r_epik_Charging_Adjusted_Penalty>  (1) 
0.0027323958996878029

>  <r_epik_Ionization_Penalty>  (1) 
0.002819485543525381

>  <r_epik_Ionization_Penalty_Charging>  (1) 
0.0027323958996878029

>  <r_epik_Ionization_Penalty_Neutral>  (1) 
8.708964383757816e-05

>  <r_epik_State_Penalty>  (1) 
-0

>  <r_glide_ring_energy>  (1) 
0

>  <r_i_docking_score>  (1) 
-7.2185556754908919

>  <r_i_glide_ecoul>  (1) 
-4.1053916828299322

>  <r_i_glide_eff_state_penalty>  (1) 
-0

>  <r_i_glide_einternal>  (1) 
4.7892875563965829

>  <r_i_glide_emodel>  (1) 
-49.427923509946169

>  <r_i_glide_emodel_strain>  (1) 
2.1532406323928441

>  <r_i_glide_energy>  (1) 
-37.049151774310282

>  <r_i_glide_erotb>  (1) 
0.66148182558323176

>  <r_i_glide_esite>  (1) 
-0.10822138244868607

>  <r_i_glide_evdw>  (1) 
-32.94376009148035

>  <r_i_glide_gscore>  (1) 
-7.2185556754908919

>  <r_i_glide_gscore_strain>  (1) 
0

>  <r_i_glide_hbond>  (1) 
-0.14844453076815023

>  <r_i_glide_ligand_efficiency>  (1) 
-0.22557986485909037

>  <r_i_glide_ligand_efficiency_ln>  (1) 
-1.6164313861384694

>  <r_i_glide_ligand_efficiency_sa>  (1) 
-0.71617142956032875

>  <r_i_glide_lipo>  (1) 
-2.984179856486072

>  <r_i_glide_metal>  (1) 
-0

>  <r_i_glide_rewards>  (1) 
-2.3761949743727087

>  <r_lp_Energy>  (1) 
41.659236

>  <r_lp_tautomer_probability>  (1) 
1

>  <s_epik_Chemistry_Notes>  (1) 
This compound contains an acetal/aminal-like group ( X-CH(R)-Y where X, Y are N, S, or O) that may be acid/base labile, releasing an aldehyde.

>  <s_epik_cmdline>  (1) 
J2VwaWtfcHl0aG9uJywgJy1waHQnLCAnMS4wJywgJy1waCcsICc3LjQnLCAnLXRuJywgJzgnLCAnLW1hJywgJzUwMCcsICctaW1hZScsICc8aW5maWxlLm1hZT4nLCAnLW9tYWUnLCAnPG91dGZpbGUubWFlPic=

>  <s_epik_input>  (1) 
W0NIMl0xW0NIMl1bQ0gyXU4oW0NASF0xMilDKD1PKVtDQEBIXShDI04pW05IXVtDSDJdTihbQ0gyXTIpW0NIMl1bTkhdW0NIMl1jKHNjM1tDQEBIXShbQ0gzXSlbQ0gyXVtDSDNdKWMoW0NIM10pYzNbQ0gyXVtDSDJdQyg9TylbT0hd

>  <s_glide_docking_method>  (1) 
confgen

>  <s_i_glide_gridfile>  (1) 
gpcr_5ht2c_6bqh_protein_autoprepared_prepared

>  <s_lp_Force_Field>  (1) 
S-OPLS

>  <s_lp_Variant>  (1) 
DiffSBDD_27-2

>  <s_m_source_file>  (1) 
generated_GPCR_5HT2C_ligand_DiffSBDD_2026-06-23_prepared.sdf

>  <GenAI_Model>  (1) 
DiffSBDD

>  <Protein>  (1) 
GPCR_5HT2C

$$$$
DiffSBDD_21
     RDKit          3D

  0  0  0  0  0  0  0  0  0  0999 V3000
M  V30 BEGIN CTAB
M  V30 COUNTS 51 54 0 0 1
M  V30 BEGIN ATOM
M  V30 1 C 37.401081 34.784415 60.070920 0
M  V30 2 C 38.222774 30.937743 55.863134 0
M  V30 3 N 38.916299 28.687801 55.058071 0
M  V30 4 C 38.612977 29.205929 53.708782 0 CFG=2
M  V30 5 C 38.594575 27.259459 55.307398 0 CFG=1
M  V30 6 C 39.027033 29.306871 57.480968 0
M  V30 7 C 38.640505 32.322387 60.644210 0
M  V30 8 C 38.549114 28.118503 52.611985 0 CFG=2
M  V30 9 C 38.358104 31.553875 58.232549 0
M  V30 10 C 38.052536 31.873712 56.889142 0
M  V30 11 C 39.380909 26.372972 54.315040 0
M  V30 12 C 37.554184 33.822540 59.056214 0
M  V30 13 C 36.730224 36.111073 59.755593 0
M  V30 14 C 38.484948 33.290829 61.653081 0
M  V30 15 F 37.061989 37.071553 60.619794 0
M  V30 16 C 37.867703 34.518665 61.367375 0
M  V30 17 C 39.447195 26.915804 52.874830 0
M  V30 18 C 38.713343 29.635172 56.136608 0
M  V30 19 O 38.783523 26.616599 56.547745 0
M  V30 20 C 39.954570 29.935810 51.764162 0
M  V30 21 C 38.180972 32.571847 59.321449 0
M  V30 22 C 39.496467 28.064074 50.167816 0
M  V30 23 C 38.950034 28.868826 51.338074 0 CFG=1
M  V30 24 C 38.845393 30.250810 58.512013 0
M  V30 25 C 39.632241 30.265516 53.212885 0
M  V30 26 H 37.967651 31.231976 54.866576 0
M  V30 27 H 37.609941 29.631960 53.706195 0
M  V30 28 H 37.531269 27.159417 55.087040 0
M  V30 29 H 39.428265 28.350129 57.733770 0
M  V30 30 H 39.121921 31.392475 60.886144 0
M  V30 31 H 37.524693 27.751018 52.524943 0
M  V30 32 H 37.681084 32.848949 56.633795 0
M  V30 33 H 40.405594 26.242952 54.665589 0
M  V30 34 H 38.943120 25.374491 54.312695 0
M  V30 35 H 37.186670 34.047989 58.071989 0
M  V30 36 H 37.022429 36.460892 58.764719 0
M  V30 37 H 35.645582 35.998840 59.767117 0
M  V30 38 H 38.844095 33.088360 62.651624 0
M  V30 39 H 37.751419 35.257931 62.146573 0
M  V30 40 H 39.242721 26.137754 52.150177 0
M  V30 41 H 40.445239 27.211434 52.608451 0
M  V30 42 H 39.666581 26.280266 56.575247 0
M  V30 43 H 40.965136 29.534907 51.704489 0
M  V30 44 H 39.920216 30.817462 51.121722 0
M  V30 45 H 40.445279 27.602895 50.397981 0
M  V30 46 H 39.667131 28.756225 49.350082 0
M  V30 47 H 38.845181 27.256959 49.852061 0
M  V30 48 H 38.045252 29.337765 50.992095 0
M  V30 49 H 39.093751 29.969669 59.519709 0
M  V30 50 H 39.231056 31.277248 53.244943 0
M  V30 51 H 40.539724 30.268562 53.815925 0
M  V30 END ATOM
M  V30 BEGIN BOND
M  V30 1 1 4 3
M  V30 2 1 5 3
M  V30 3 1 8 4
M  V30 4 2 10 2
M  V30 5 1 10 9
M  V30 6 1 11 5
M  V30 7 2 12 1
M  V30 8 1 13 1
M  V30 9 1 14 7
M  V30 10 1 15 13
M  V30 11 1 16 1
M  V30 12 2 16 14
M  V30 13 1 17 8
M  V30 14 1 17 11
M  V30 15 1 18 2
M  V30 16 1 18 3
M  V30 17 2 18 6
M  V30 18 1 19 5
M  V30 19 2 21 7
M  V30 20 1 21 9
M  V30 21 1 21 12
M  V30 22 1 23 8
M  V30 23 1 23 20
M  V30 24 1 23 22
M  V30 25 1 24 6
M  V30 26 2 24 9
M  V30 27 1 25 4
M  V30 28 1 25 20
M  V30 29 1 26 2
M  V30 30 1 4 27 CFG=1
M  V30 31 1 5 28 CFG=3
M  V30 32 1 29 6
M  V30 33 1 30 7
M  V30 34 1 8 31 CFG=3
M  V30 35 1 32 10
M  V30 36 1 33 11
M  V30 37 1 34 11
M  V30 38 1 35 12
M  V30 39 1 36 13
M  V30 40 1 37 13
M  V30 41 1 38 14
M  V30 42 1 39 16
M  V30 43 1 40 17
M  V30 44 1 41 17
M  V30 45 1 42 19
M  V30 46 1 43 20
M  V30 47 1 44 20
M  V30 48 1 45 22
M  V30 49 1 46 22
M  V30 50 1 47 22
M  V30 51 1 23 48 CFG=3
M  V30 52 1 49 24
M  V30 53 1 50 25
M  V30 54 1 51 25
M  V30 END BOND
M  V30 END CTAB
M  END
>  <i_epik_Tot_Q>  (1) 
0

>  <i_epik_Tot_abs_Q>  (1) 
0

>  <i_i_glide_confnum>  (1) 
4

>  <i_i_glide_lignum>  (1) 
48

>  <i_i_glide_posenum>  (1) 
210

>  <i_i_glide_rotatable_bonds>  (1) 
4

>  <i_lp_mmshare_version>  (1) 
72125

>  <i_m_source_file_index>  (1) 
22

>  <i_f3d_flags>  (1) 
0

>  <num_sample>  (1) 
50

>  <b_lp_Chiralities_Consistent>  (1) 
1

>  <r_epik_Charging_Adjusted_Penalty>  (1) 
0.0079594303855521683

>  <r_epik_Ionization_Penalty>  (1) 
0.0041828556717972551

>  <r_epik_Ionization_Penalty_Charging>  (1) 
0

>  <r_epik_Ionization_Penalty_Neutral>  (1) 
0.0041828556717972551

>  <r_epik_State_Penalty>  (1) 
0.0079594303855521683

>  <r_glide_ring_energy>  (1) 
0

>  <r_i_docking_score>  (1) 
-7.1836040158350238

>  <r_i_glide_ecoul>  (1) 
-0.71346620850696729

>  <r_i_glide_eff_state_penalty>  (1) 
0.0079594303855521683

>  <r_i_glide_einternal>  (1) 
0.8442646038327517

>  <r_i_glide_emodel>  (1) 
-47.619146056670196

>  <r_i_glide_emodel_strain>  (1) 
0.1738388490341265

>  <r_i_glide_energy>  (1) 
-32.476134357491446

>  <r_i_glide_erotb>  (1) 
0.3284693713347695

>  <r_i_glide_esite>  (1) 
0

>  <r_i_glide_evdw>  (1) 
-31.762668148984481

>  <r_i_glide_gscore>  (1) 
-7.1915634462205764

>  <r_i_glide_gscore_strain>  (1) 
0

>  <r_i_glide_hbond>  (1) 
0

>  <r_i_glide_ligand_efficiency>  (1) 
-0.28734416063340096

>  <r_i_glide_ligand_efficiency_ln>  (1) 
-1.7027294269936095

>  <r_i_glide_ligand_efficiency_sa>  (1) 
-0.84019942266395153

>  <r_i_glide_lipo>  (1) 
-3.0792153287848092

>  <r_i_glide_metal>  (1) 
-0

>  <r_i_glide_rewards>  (1) 
-2.7456641500452674

>  <r_lp_Energy>  (1) 
58.552322999999994

>  <s_epik_Chemistry_Notes>  (1) 
This compound contains an acetal/aminal-like group ( X-CH(R)-Y where X, Y are N, S, or O) that may be acid/base labile, releasing an aldehyde.

>  <s_epik_cmdline>  (1) 
J2VwaWtfcHl0aG9uJywgJy1waHQnLCAnMS4wJywgJy1waCcsICc3LjQnLCAnLXRuJywgJzgnLCAnLW1hJywgJzUwMCcsICctaW1hZScsICc8aW5maWxlLm1hZT4nLCAnLW9tYWUnLCAnPG91dGZpbGUubWFlPic=

>  <s_epik_input>  (1) 
RltDSDJdYzFbY0hdYyhbY0hdW2NIXVtjSF0xKS1jMltjSF1bY0hdYyhbY0hdW2NIXTIpTjNbQ0BIXShbT0hdKVtDSDJdW0NIMl1bQ0BASF0oW0NAQEhdMzQpW0NASF0oW0NIM10pW0NIMl1bQ0gyXTQ=

>  <s_glide_docking_method>  (1) 
confgen

>  <s_i_glide_gridfile>  (1) 
gpcr_5ht2c_6bqh_protein_autoprepared_prepared

>  <s_lp_Force_Field>  (1) 
S-OPLS

>  <s_lp_Variant>  (1) 
DiffSBDD_21-1

>  <s_m_source_file>  (1) 
generated_GPCR_5HT2C_ligand_DiffSBDD_2026-06-23_prepared.sdf

>  <GenAI_Model>  (1) 
DiffSBDD

>  <Protein>  (1) 
GPCR_5HT2C

$$$$
DiffSBDD_1
     RDKit          3D

  0  0  0  0  0  0  0  0  0  0999 V3000
M  V30 BEGIN CTAB
M  V30 COUNTS 78 81 0 0 1
M  V30 BEGIN ATOM
M  V30 1 C 38.519424 30.301446 58.833062 0
M  V30 2 N 38.992275 27.807759 55.384328 0
M  V30 3 C 38.205302 28.525251 51.842879 0 CFG=1
M  V30 4 C 38.596406 27.057487 51.990094 0
M  V30 5 C 41.245036 28.418533 67.049260 0
M  V30 6 C 38.426342 31.422462 61.970461 0
M  V30 7 C 38.100046 29.000333 53.300421 0
M  V30 8 C 39.245192 28.254908 54.002066 0 CFG=2
M  V30 9 C 42.199733 27.556286 64.239548 0
M  V30 10 N 39.444633 30.798553 61.135062 0
M  V30 11 O 41.259660 35.622234 65.105386 0
M  V30 12 C 39.336061 30.351319 62.517648 0 CFG=1
M  V30 13 C 42.418142 29.020869 64.188882 0 CFG=1
M  V30 14 O 42.045136 29.648089 62.891927 0
M  V30 15 C 41.271137 35.468070 62.732936 0
M  V30 16 C 40.061355 30.161626 51.447274 0
M  V30 17 C 41.276973 29.623811 64.853198 0
M  V30 18 C 39.822849 28.434952 56.411685 0
M  V30 19 C 41.123928 33.392990 64.241809 0
M  V30 20 O 39.694409 30.136614 66.417477 0
M  V30 21 O 37.347531 26.333974 54.831558 0
M  V30 22 C 41.723420 32.330384 63.310308 0
M  V30 23 O 39.122252 29.202035 50.966285 0
M  V30 24 O 43.632473 26.145209 65.479004 0
M  V30 25 P 40.825257 30.701183 63.554532 0 CFG=2 CHG=1
M  V30 26 C 41.709693 34.804900 64.047712 0 CFG=2
M  V30 27 C 40.751834 29.397371 66.063181 0
M  V30 28 C 40.409219 25.906786 53.586091 0
M  V30 29 O 39.645133 30.137753 58.001427 0
M  V30 30 C 38.045094 26.875358 55.685716 0
M  V30 31 C 37.853444 26.506946 57.162255 0
M  V30 32 C 42.127819 27.383704 66.852569 0
M  V30 33 C 42.730012 26.975775 65.539388 0
M  V30 34 C 39.333928 29.863471 56.658744 0
M  V30 35 C 39.709277 27.158469 53.009712 0 CFG=1
M  V30 36 C 38.910575 29.795380 60.214142 0
M  V30 37 H 37.682595 29.691252 58.488620 0
M  V30 38 H 38.181507 31.338371 58.840848 0
M  V30 39 H 37.245212 28.561212 51.367801 0
M  V30 40 H 37.737209 26.537749 52.398611 0
M  V30 41 H 38.892873 26.589413 51.049388 0
M  V30 42 H 40.876591 28.537139 68.059106 0
M  V30 43 H 37.422109 31.184303 61.623516 0
M  V30 44 H 38.664445 32.470426 62.143375 0
M  V30 45 H 37.133704 28.686317 53.696504 0
M  V30 46 H 38.142483 30.081462 53.426783 0
M  V30 47 H 40.037299 29.002048 54.074971 0
M  V30 48 H 41.152558 27.281348 64.105092 0
M  V30 49 H 42.746939 27.084742 63.422774 0
M  V30 50 H 41.605958 36.499081 64.980010 0
M  V30 51 H 38.937658 29.340232 62.567839 0
M  V30 52 H 43.410705 29.346198 64.507271 0
M  V30 53 H 41.644437 34.925499 61.864043 0
M  V30 54 H 40.184039 35.510170 62.654200 0
M  V30 55 H 41.647244 36.490345 62.663879 0
M  V30 56 H 40.557630 30.614200 50.588267 0
M  V30 57 H 39.617124 30.976856 52.013785 0
M  V30 58 H 40.841105 29.709297 52.052778 0
M  V30 59 H 40.862369 28.457181 56.081460 0
M  V30 60 H 39.873837 27.878787 57.345679 0
M  V30 61 H 40.045132 33.420537 64.100932 0
M  V30 62 H 41.286258 33.074831 65.272707 0
M  V30 63 H 39.394682 29.817486 67.257096 0
M  V30 64 H 42.787241 32.207899 63.509058 0
M  V30 65 H 41.631657 32.634697 62.267866 0
M  V30 66 H 42.797883 34.763119 64.107165 0
M  V30 67 H 39.728516 25.292073 54.167974 0
M  V30 68 H 40.845124 25.284830 52.806943 0
M  V30 69 H 41.234463 26.167025 54.242541 0
M  V30 70 H 37.665428 27.389509 57.773370 0
M  V30 71 H 36.986422 25.853414 57.267257 0
M  V30 72 H 38.718457 25.968685 57.550596 0
M  V30 73 H 42.404734 26.783472 67.706261 0
M  V30 74 H 38.271503 29.983266 56.433073 0
M  V30 75 H 39.865192 30.562156 56.011161 0
M  V30 76 H 40.445229 27.595988 52.359058 0
M  V30 77 H 39.625809 28.977538 60.111584 0
M  V30 78 H 38.015055 29.338131 60.601055 0
M  V30 END ATOM
M  V30 BEGIN BOND
M  V30 1 1 4 3
M  V30 2 1 7 3
M  V30 3 1 8 2
M  V30 4 1 8 7
M  V30 5 1 10 6
M  V30 6 1 12 6
M  V30 7 1 12 10
M  V30 8 1 13 9
M  V30 9 1 14 13
M  V30 10 1 17 13
M  V30 11 1 18 2
M  V30 12 1 22 19
M  V30 13 1 23 3
M  V30 14 1 23 16
M  V30 15 1 25 12
M  V30 16 1 25 14
M  V30 17 1 25 17
M  V30 18 1 25 22 CFG=1
M  V30 19 1 26 11
M  V30 20 1 26 15
M  V30 21 1 26 19
M  V30 22 1 27 5
M  V30 23 2 27 17
M  V30 24 1 27 20
M  V30 25 1 29 1
M  V30 26 1 30 2
M  V30 27 2 30 21
M  V30 28 1 31 30
M  V30 29 2 32 5
M  V30 30 1 33 9
M  V30 31 2 33 24
M  V30 32 1 33 32
M  V30 33 1 34 18
M  V30 34 1 34 29
M  V30 35 1 35 4
M  V30 36 1 35 8
M  V30 37 1 35 28
M  V30 38 1 36 1
M  V30 39 1 36 10
M  V30 40 1 37 1
M  V30 41 1 38 1
M  V30 42 1 3 39 CFG=3
M  V30 43 1 40 4
M  V30 44 1 41 4
M  V30 45 1 42 5
M  V30 46 1 43 6
M  V30 47 1 44 6
M  V30 48 1 45 7
M  V30 49 1 46 7
M  V30 50 1 8 47 CFG=1
M  V30 51 1 48 9
M  V30 52 1 49 9
M  V30 53 1 50 11
M  V30 54 1 12 51 CFG=3
M  V30 55 1 13 52 CFG=1
M  V30 56 1 53 15
M  V30 57 1 54 15
M  V30 58 1 55 15
M  V30 59 1 56 16
M  V30 60 1 57 16
M  V30 61 1 58 16
M  V30 62 1 59 18
M  V30 63 1 60 18
M  V30 64 1 61 19
M  V30 65 1 62 19
M  V30 66 1 63 20
M  V30 67 1 64 22
M  V30 68 1 65 22
M  V30 69 1 26 66 CFG=3
M  V30 70 1 67 28
M  V30 71 1 68 28
M  V30 72 1 69 28
M  V30 73 1 70 31
M  V30 74 1 71 31
M  V30 75 1 72 31
M  V30 76 1 73 32
M  V30 77 1 74 34
M  V30 78 1 75 34
M  V30 79 1 35 76 CFG=3
M  V30 80 1 77 36
M  V30 81 1 78 36
M  V30 END BOND
M  V30 END CTAB
M  END
>  <i_epik_Tot_Q>  (1) 
1

>  <i_epik_Tot_abs_Q>  (1) 
1

>  <i_i_glide_confnum>  (1) 
695

>  <i_i_glide_lignum>  (1) 
6

>  <i_i_glide_posenum>  (1) 
155

>  <i_i_glide_rotatable_bonds>  (1) 
15

>  <i_lp_mmshare_version>  (1) 
72125

>  <i_m_source_file_index>  (1) 
2

>  <i_f3d_flags>  (1) 
0

>  <num_sample>  (1) 
50

>  <b_lp_Chiralities_Consistent>  (1) 
1

>  <r_epik_Charging_Adjusted_Penalty>  (1) 
0.012777702237649643

>  <r_epik_Ionization_Penalty>  (1) 
0.012893064322698497

>  <r_epik_Ionization_Penalty_Charging>  (1) 
0

>  <r_epik_Ionization_Penalty_Neutral>  (1) 
0.012893064322698497

>  <r_epik_State_Penalty>  (1) 
0.012777702237649643

>  <r_glide_ring_energy>  (1) 
0.14646081137369646

>  <r_i_docking_score>  (1) 
-7.1832490418146389

>  <r_i_glide_ecoul>  (1) 
-7.5793752425329295

>  <r_i_glide_eff_state_penalty>  (1) 
0.012777702237649643

>  <r_i_glide_einternal>  (1) 
18.43906306174722

>  <r_i_glide_emodel>  (1) 
-51.522869229628625

>  <r_i_glide_emodel_strain>  (1) 
4.2538112427555035

>  <r_i_glide_energy>  (1) 
-45.99699119427477

>  <r_i_glide_erotb>  (1) 
0.81958699115176215

>  <r_i_glide_esite>  (1) 
0

>  <r_i_glide_evdw>  (1) 
-38.417615951741837

>  <r_i_glide_gscore>  (1) 
-7.1960267440522889

>  <r_i_glide_gscore_strain>  (1) 
0.063452810688875871

>  <r_i_glide_hbond>  (1) 
-0.54783537258878867

>  <r_i_glide_ligand_efficiency>  (1) 
-0.19953469560596218

>  <r_i_glide_ligand_efficiency_ln>  (1) 
-1.5671908719622765

>  <r_i_glide_ligand_efficiency_sa>  (1) 
-0.65884904852122161

>  <r_i_glide_lipo>  (1) 
-3.6666254056031433

>  <r_i_glide_metal>  (1) 
-0

>  <r_i_glide_rewards>  (1) 
-0.80681868373396393

>  <r_lp_Energy>  (1) 
35.539625000000001

>  <s_epik_cmdline>  (1) 
J2VwaWtfcHl0aG9uJywgJy1waHQnLCAnMS4wJywgJy1waCcsICc3LjQnLCAnLXRuJywgJzgnLCAnLW1hJywgJzUwMCcsICctaW1hZScsICc8aW5maWxlLm1hZT4nLCAnLW9tYWUnLCAnPG91dGZpbGUubWFlPic=

>  <s_epik_input>  (1) 
W0NIM11PW0NASF0xW0NIMl1bQ0BIXShbQ0gzXSlbQ0BASF0oW0NIMl0xKU4oQyg9TylbQ0gzXSlbQ0gyXVtDSDJdT1tDSDJdW0NIMl1OMltDSDJdW0NIXTJbUEBAK10oTzMpKFtDSDJdW0NIMl1bQ0BIXShbT0hdKVtDSDNdKUMoW0NAQEhdMzQpPUMoW09IXSlbQ0hdPVtDSF1DKD1PKVtDSDJdNA==

>  <s_glide_docking_method>  (1) 
confgen

>  <s_i_glide_gridfile>  (1) 
gpcr_5ht2c_6bqh_protein_autoprepared_prepared

>  <s_lp_Force_Field>  (1) 
S-OPLS

>  <s_lp_Variant>  (1) 
DiffSBDD_1-2

>  <s_m_source_file>  (1) 
generated_GPCR_5HT2C_ligand_DiffSBDD_2026-06-23_prepared.sdf

>  <GenAI_Model>  (1) 
DiffSBDD

>  <Protein>  (1) 
GPCR_5HT2C

$$$$
DiffSBDD_17
     RDKit          3D

  0  0  0  0  0  0  0  0  0  0999 V3000
M  V30 BEGIN CTAB
M  V30 COUNTS 92 96 0 0 1
M  V30 BEGIN ATOM
M  V30 1 C 39.372711 34.138226 68.567762 0
M  V30 2 C 38.972447 33.188345 61.236071 0 CFG=2
M  V30 3 C 41.082357 32.463961 67.432610 0
M  V30 4 O 41.930379 35.737786 63.772661 0
M  V30 5 C 41.239879 35.127612 67.248917 0
M  V30 6 C 39.242471 27.719653 54.487648 0
M  V30 7 C 39.062477 27.634314 51.993214 0
M  V30 8 C 39.245532 27.059396 53.327620 0
M  V30 9 C 36.622081 33.762006 58.971437 0
M  V30 10 C 37.475330 36.621840 60.409780 0
M  V30 11 N 40.890201 30.651376 65.619926 0
M  V30 12 C 37.388038 35.272801 61.096823 0 CFG=2
M  V30 13 C 41.341412 32.965506 64.898802 0 CFG=1
M  V30 14 C 40.491232 33.481039 61.233525 0
M  V30 15 N 39.900890 29.766931 66.245626 0 CHG=1
M  V30 16 C 39.374495 27.944890 56.753474 0 CFG=2
M  V30 17 C 38.971223 29.156756 54.697403 0 CFG=2
M  V30 18 C 42.120147 28.873170 66.550461 0
M  V30 19 C 40.690213 32.075630 65.958600 0 CFG=2
M  V30 20 O 39.466383 27.055788 55.655707 0
M  V30 21 C 40.667953 28.796359 67.048042 0
M  V30 22 O 42.734291 32.842154 64.974507 0
M  V30 23 N 38.844911 30.552705 58.343507 0 CHG=1
M  V30 24 C 39.561268 30.170558 53.773724 0
M  V30 25 C 38.699656 31.811133 60.538157 0
M  V30 26 C 39.238946 28.930842 51.610102 0
M  V30 27 N 38.264997 34.275665 60.514695 0 CFG=2 CHG=1
M  V30 28 C 40.821719 35.230960 63.055471 0
M  V30 29 S 37.924464 27.637875 57.767746 0 CHG=-1
M  V30 30 C 41.148430 33.789458 62.584112 0 CFG=1
M  V30 31 C 39.645931 30.073625 52.438780 0
M  V30 32 N 40.811556 32.739661 63.560304 0
M  V30 33 C 36.840492 34.036303 60.426898 0 CFG=2
M  V30 34 C 38.609756 30.476684 56.874285 0
M  V30 35 C 37.162941 32.374965 58.567351 0
M  V30 36 C 39.403018 29.362317 56.151136 0 CFG=1
M  V30 37 C 38.553054 31.873890 58.990106 0 CFG=2
M  V30 38 N 42.253481 30.192754 65.910930 0 CHG=1
M  V30 39 C 40.793010 33.887979 68.039646 0
M  V30 40 H 38.715495 34.537873 67.792302 0
M  V30 41 H 38.928639 33.235321 68.967739 0
M  V30 42 H 39.389507 34.880328 69.366756 0
M  V30 43 H 38.598800 33.136367 62.259635 0
M  V30 44 H 40.638496 31.741704 68.116881 0
M  V30 45 H 42.157289 32.310550 67.540021 0
M  V30 46 H 41.765169 36.639521 64.037841 0
M  V30 47 H 40.529530 35.389026 66.465480 0
M  V30 48 H 41.244899 36.007270 67.890937 0
M  V30 49 H 42.236510 35.017273 66.820634 0
M  V30 50 H 38.811564 26.937441 51.205311 0
M  V30 51 H 39.412327 26.001112 53.381279 0
M  V30 52 H 37.077358 34.539358 58.357232 0
M  V30 53 H 35.552351 33.803675 58.760274 0
M  V30 54 H 36.700689 37.283620 60.797479 0
M  V30 55 H 38.444829 37.078482 60.606837 0
M  V30 56 H 37.336642 36.542543 59.331931 0
M  V30 57 H 37.499024 35.283744 62.168338 0
M  V30 58 H 41.083765 33.968225 65.172496 0
M  V30 59 H 40.687942 34.322605 60.568115 0
M  V30 60 H 41.032747 32.635044 60.808135 0
M  V30 61 H 39.277579 30.322708 66.814795 0
M  V30 62 H 40.247216 27.796558 57.391070 0
M  V30 63 H 37.887992 29.257095 54.635619 0
M  V30 64 H 42.296225 28.102831 65.798316 0
M  V30 65 H 42.845034 28.730367 67.353044 0
M  V30 66 H 39.645170 32.253634 65.767781 0
M  V30 67 H 40.253459 27.791993 66.967593 0
M  V30 68 H 40.618657 29.099366 68.093920 0
M  V30 69 H 43.097112 33.717296 64.909060 0
M  V30 70 H 39.803966 30.292178 58.513265 0
M  V30 71 H 39.902709 31.082014 54.240796 0
M  V30 72 H 39.483665 31.104239 60.811619 0
M  V30 73 H 37.794763 31.366893 60.954757 0
M  V30 74 H 39.109077 29.132915 50.556593 0
M  V30 75 H 39.909169 35.276477 63.649846 0
M  V30 76 H 40.670937 35.900351 62.207344 0
M  V30 77 H 42.222290 33.737826 62.407697 0
M  V30 78 H 40.048002 30.930359 51.916424 0
M  V30 79 H 41.125684 31.838207 63.219066 0
M  V30 80 H 36.458582 33.279386 61.110140 0
M  V30 81 H 37.538717 30.335153 56.704438 0
M  V30 82 H 38.883298 31.425979 56.413272 0
M  V30 83 H 37.245162 32.464027 57.486287 0
M  V30 84 H 36.436193 31.604406 58.817533 0
M  V30 85 H 40.445138 29.657598 56.137639 0
M  V30 86 H 39.271563 32.582168 58.586296 0
M  V30 87 H 42.766431 30.156205 65.039472 0
M  V30 88 H 41.411490 33.897713 68.938091 0
M  V30 89 H 39.392306 29.302345 65.497489 0
M  V30 90 H 42.668085 30.880842 66.526125 0
M  V30 91 H 38.260335 29.819521 58.734233 0
M  V30 92 H 38.625637 34.524362 59.604927 0
M  V30 END ATOM
M  V30 BEGIN BOND
M  V30 1 2 8 6
M  V30 2 1 8 7
M  V30 3 1 12 10
M  V30 4 1 14 2
M  V30 5 1 15 11
M  V30 6 1 17 6
M  V30 7 1 19 3
M  V30 8 1 19 11
M  V30 9 1 19 13
M  V30 10 1 20 6
M  V30 11 1 20 16
M  V30 12 1 21 15
M  V30 13 1 21 18
M  V30 14 1 22 13
M  V30 15 1 24 17
M  V30 16 1 25 2
M  V30 17 2 26 7
M  V30 18 1 27 2
M  V30 19 1 27 12
M  V30 20 1 28 4
M  V30 21 1 29 16
M  V30 22 1 30 14
M  V30 23 1 30 28
M  V30 24 2 31 24
M  V30 25 1 31 26
M  V30 26 1 32 13
M  V30 27 1 32 30
M  V30 28 1 33 9
M  V30 29 1 33 12
M  V30 30 1 33 27
M  V30 31 1 34 23
M  V30 32 1 35 9
M  V30 33 1 36 16
M  V30 34 1 36 17
M  V30 35 1 36 34
M  V30 36 1 37 23
M  V30 37 1 37 25
M  V30 38 1 37 35
M  V30 39 1 38 11
M  V30 40 1 38 18
M  V30 41 1 39 1
M  V30 42 1 39 3
M  V30 43 1 39 5
M  V30 44 1 40 1
M  V30 45 1 41 1
M  V30 46 1 42 1
M  V30 47 1 2 43 CFG=1
M  V30 48 1 44 3
M  V30 49 1 45 3
M  V30 50 1 46 4
M  V30 51 1 47 5
M  V30 52 1 48 5
M  V30 53 1 49 5
M  V30 54 1 50 7
M  V30 55 1 51 8
M  V30 56 1 52 9
M  V30 57 1 53 9
M  V30 58 1 54 10
M  V30 59 1 55 10
M  V30 60 1 56 10
M  V30 61 1 12 57 CFG=1
M  V30 62 1 13 58 CFG=1
M  V30 63 1 59 14
M  V30 64 1 60 14
M  V30 65 1 61 15
M  V30 66 1 16 62 CFG=1
M  V30 67 1 17 63 CFG=1
M  V30 68 1 64 18
M  V30 69 1 65 18
M  V30 70 1 19 66 CFG=1
M  V30 71 1 67 21
M  V30 72 1 68 21
M  V30 73 1 69 22
M  V30 74 1 70 23
M  V30 75 1 71 24
M  V30 76 1 72 25
M  V30 77 1 73 25
M  V30 78 1 74 26
M  V30 79 1 75 28
M  V30 80 1 76 28
M  V30 81 1 30 77 CFG=3
M  V30 82 1 78 31
M  V30 83 1 79 32
M  V30 84 1 33 80 CFG=1
M  V30 85 1 81 34
M  V30 86 1 82 34
M  V30 87 1 83 35
M  V30 88 1 84 35
M  V30 89 1 36 85 CFG=3
M  V30 90 1 37 86 CFG=3
M  V30 91 1 87 38
M  V30 92 1 88 39
M  V30 93 1 89 15
M  V30 94 1 90 38
M  V30 95 1 91 23
M  V30 96 1 27 92 CFG=3
M  V30 END BOND
M  V30 END CTAB
M  END
>  <i_epik_Tot_Q>  (1) 
3

>  <i_epik_Tot_abs_Q>  (1) 
5

>  <i_i_glide_confnum>  (1) 
1844

>  <i_i_glide_lignum>  (1) 
40

>  <i_i_glide_posenum>  (1) 
69

>  <i_i_glide_rotatable_bonds>  (1) 
14

>  <i_lp_mmshare_version>  (1) 
72125

>  <i_m_source_file_index>  (1) 
18

>  <i_f3d_flags>  (1) 
0

>  <num_sample>  (1) 
50

>  <b_lp_Chiralities_Consistent>  (1) 
1

>  <r_epik_Charging_Adjusted_Penalty>  (1) 
1.6860912736117832

>  <r_epik_Ionization_Penalty>  (1) 
0.9299661573909731

>  <r_epik_Ionization_Penalty_Charging>  (1) 
0.33573944846101578

>  <r_epik_Ionization_Penalty_Neutral>  (1) 
0.59422670892995733

>  <r_epik_State_Penalty>  (1) 
1.3503518251507676

>  <r_glide_ring_energy>  (1) 
0.0045750838620950583

>  <r_i_docking_score>  (1) 
-7.1784446063877745

>  <r_i_glide_ecoul>  (1) 
-10.371203986785286

>  <r_i_glide_eff_state_penalty>  (1) 
1.3503518251507676

>  <r_i_glide_einternal>  (1) 
21.697401934928369

>  <r_i_glide_emodel>  (1) 
-58.98436337864527

>  <r_i_glide_emodel_strain>  (1) 
3.3440886946964383

>  <r_i_glide_energy>  (1) 
-45.890806541632074

>  <r_i_glide_erotb>  (1) 
0.56462826385561427

>  <r_i_glide_esite>  (1) 
-0.024845800874612023

>  <r_i_glide_evdw>  (1) 
-35.519602554846792

>  <r_i_glide_gscore>  (1) 
-8.5287964315385416

>  <r_i_glide_gscore_strain>  (1) 
0

>  <r_i_glide_hbond>  (1) 
-0.32000000000000001

>  <r_i_glide_ligand_efficiency>  (1) 
-0.18406268221507113

>  <r_i_glide_ligand_efficiency_ln>  (1) 
-1.5392622958775004

>  <r_i_glide_ligand_efficiency_sa>  (1) 
-0.6241954741596295

>  <r_i_glide_lipo>  (1) 
-4.2664994025372955

>  <r_i_glide_metal>  (1) 
-0

>  <r_i_glide_rewards>  (1) 
-1.150418766222117

>  <r_lp_Energy>  (1) 
61.524414999999998

>  <s_epik_Chemistry_Notes>  (1) 
This compound contains an acetal/aminal-like group ( X-CH(R)-Y where X, Y are N, S, or O) that may be acid/base labile, releasing an aldehyde.

>  <s_epik_cmdline>  (1) 
J2VwaWtfcHl0aG9uJywgJy1waHQnLCAnMS4wJywgJy1waCcsICc3LjQnLCAnLXRuJywgJzgnLCAnLW1hJywgJzUwMCcsICctaW1hZScsICc8aW5maWxlLm1hZT4nLCAnLW9tYWUnLCAnPG91dGZpbGUubWFlPic=

>  <s_epik_input>  (1) 
W05IXTFbQ0gyXVtDSDJdW05IXU4xW0NAQEhdKFtDSDJdW0NIXShbQ0gzXSlbQ0gzXSlbQ0BASF0oW09IXSlbTkhdW0NASF0oW0NIMl1bT0hdKVtDSDJdW0NAQEhdMltDSDJdW0NASF0oW0NIMl1bQ0gyXVtDQEBIXShOMjMpW0NIXTNbQ0gzXSlbTkhdW0NIMl1bQ0BASF0oW0NASF0oTzQpW1NIXSlbQ0BIXShDND01KVtDSF09W0NIXVtDSF09W0NIXVtDSF01

>  <s_glide_docking_method>  (1) 
confgen

>  <s_i_glide_gridfile>  (1) 
gpcr_5ht2c_6bqh_protein_autoprepared_prepared

>  <s_lp_Force_Field>  (1) 
S-OPLS

>  <s_lp_Variant>  (1) 
DiffSBDD_17-7

>  <s_m_source_file>  (1) 
generated_GPCR_5HT2C_ligand_DiffSBDD_2026-06-23_prepared.sdf

>  <GenAI_Model>  (1) 
DiffSBDD

>  <Protein>  (1) 
GPCR_5HT2C

$$$$
DiffSBDD_22
     RDKit          3D

  0  0  0  0  0  0  0  0  0  0999 V3000
M  V30 BEGIN CTAB
M  V30 COUNTS 69 72 0 0 1
M  V30 BEGIN ATOM
M  V30 1 N 42.152453 29.386437 67.376326 0
M  V30 2 C 42.625497 33.689672 65.808952 0
M  V30 3 C 36.406556 30.466235 59.367913 0
M  V30 4 O 44.934877 32.568967 66.549502 0
M  V30 5 C 38.540121 31.499871 60.907021 0
M  V30 6 N 40.045750 29.831514 50.527679 0
M  V30 7 C 42.597839 32.141436 66.033874 0 CFG=1
M  V30 8 C 36.140309 31.235190 60.517665 0
M  V30 9 C 38.608847 28.342563 53.595132 0
M  V30 10 C 39.671160 32.064935 61.705054 0 CFG=2
M  V30 11 S 41.946266 32.872078 68.683730 0
M  V30 12 C 40.900574 32.256297 64.006411 0
M  V30 13 C 43.322415 29.356543 66.519061 0
M  V30 14 C 42.082617 31.523195 64.681896 0
M  V30 15 C 39.419869 30.860865 54.571980 0
M  V30 16 C 38.991064 28.214407 58.020326 0
M  V30 17 N 44.295658 30.422092 66.686078 0
M  V30 18 C 41.372681 30.366143 67.622488 0
M  V30 19 C 38.036350 29.407710 57.726369 0 CFG=1
M  V30 20 O 38.279810 26.998144 58.097804 0
M  V30 21 C 37.736990 30.214085 58.984703 0
M  V30 22 C 40.356711 33.711365 68.967605 0
M  V30 23 C 38.797105 30.727817 59.756492 0
M  V30 24 C 39.645098 30.526276 53.224219 0
M  V30 25 C 38.795769 29.943705 55.438791 0
M  V30 26 O 40.846291 31.232153 61.708795 0
M  V30 27 O 38.605502 30.294786 56.762704 0
M  V30 28 C 39.501479 28.878783 51.288851 0
M  V30 29 C 44.052828 31.719569 66.441735 0
M  V30 30 C 38.381876 28.681145 54.943370 0
M  V30 31 C 40.182303 31.427764 62.963540 0 CFG=2
M  V30 32 C 39.245171 29.259541 52.728794 0
M  V30 33 O 39.219253 27.760301 50.867052 0
M  V30 34 C 40.044777 34.828774 67.966683 0
M  V30 35 C 41.617968 31.827980 67.212944 0 CFG=2
M  V30 36 C 37.203978 31.750472 61.284476 0
M  V30 37 H 40.640736 32.162072 66.872779 0
M  V30 38 H 41.636012 34.113519 65.654537 0
M  V30 39 H 43.035580 34.231770 66.658116 0
M  V30 40 H 43.230156 33.969530 64.947090 0
M  V30 41 H 35.589179 30.079614 58.775319 0
M  V30 42 H 40.256574 30.735179 50.921087 0
M  V30 43 H 40.236535 29.644912 49.556077 0
M  V30 44 H 35.119236 31.435053 60.808497 0
M  V30 45 H 38.297818 27.375039 53.225626 0
M  V30 46 H 39.869395 33.113263 61.489125 0
M  V30 47 H 41.250299 33.174917 63.534302 0
M  V30 48 H 40.151766 32.542255 64.743229 0
M  V30 49 H 43.085032 29.162772 65.476217 0
M  V30 50 H 43.879517 28.460238 66.793925 0
M  V30 51 H 41.698650 30.521870 64.840264 0
M  V30 52 H 42.901521 31.426630 63.968289 0
M  V30 53 H 39.731576 31.824443 54.945700 0
M  V30 54 H 39.567368 28.346240 58.934936 0
M  V30 55 H 39.731763 28.096937 57.230533 0
M  V30 56 H 45.228760 30.155082 66.963857 0
M  V30 57 H 40.445894 30.211234 68.171658 0
M  V30 58 H 37.084180 29.049240 57.334639 0
M  V30 59 H 37.614441 27.089907 58.761895 0
M  V30 60 H 39.552824 32.975758 68.967820 0
M  V30 61 H 40.410030 34.154081 69.961869 0
M  V30 62 H 39.812045 30.535894 59.459622 0
M  V30 63 H 40.132191 31.239160 52.576668 0
M  V30 64 H 37.898768 27.969795 55.593635 0
M  V30 65 H 39.654979 30.548918 63.331769 0
M  V30 66 H 39.138993 35.359907 68.259037 0
M  V30 67 H 40.846458 35.563883 67.913977 0
M  V30 68 H 39.869373 34.438795 66.967346 0
M  V30 69 H 36.995459 32.345818 62.161478 0
M  V30 END ATOM
M  V30 BEGIN BOND
M  V30 1 1 7 2 CFG=3
M  V30 2 2 8 3
M  V30 3 1 10 5
M  V30 4 1 13 1
M  V30 5 1 14 7
M  V30 6 1 14 12
M  V30 7 1 17 13
M  V30 8 2 18 1
M  V30 9 1 19 16
M  V30 10 1 20 16
M  V30 11 1 21 3
M  V30 12 1 21 19
M  V30 13 1 22 11
M  V30 14 1 23 5
M  V30 15 2 23 21
M  V30 16 2 24 15
M  V30 17 1 25 15
M  V30 18 1 26 10
M  V30 19 1 27 19
M  V30 20 1 27 25
M  V30 21 1 28 6
M  V30 22 2 29 4
M  V30 23 1 29 7
M  V30 24 1 29 17
M  V30 25 1 30 9
M  V30 26 2 30 25
M  V30 27 1 31 10
M  V30 28 1 31 12
M  V30 29 1 31 26
M  V30 30 2 32 9
M  V30 31 1 32 24
M  V30 32 1 32 28
M  V30 33 2 33 28
M  V30 34 1 34 22
M  V30 35 1 35 7
M  V30 36 1 35 11
M  V30 37 1 35 18
M  V30 38 2 36 5
M  V30 39 1 36 8
M  V30 40 1 35 37 CFG=3
M  V30 41 1 38 2
M  V30 42 1 39 2
M  V30 43 1 40 2
M  V30 44 1 41 3
M  V30 45 1 42 6
M  V30 46 1 43 6
M  V30 47 1 44 8
M  V30 48 1 45 9
M  V30 49 1 10 46 CFG=1
M  V30 50 1 47 12
M  V30 51 1 48 12
M  V30 52 1 49 13
M  V30 53 1 50 13
M  V30 54 1 51 14
M  V30 55 1 52 14
M  V30 56 1 53 15
M  V30 57 1 54 16
M  V30 58 1 55 16
M  V30 59 1 56 17
M  V30 60 1 57 18
M  V30 61 1 19 58 CFG=3
M  V30 62 1 59 20
M  V30 63 1 60 22
M  V30 64 1 61 22
M  V30 65 1 62 23
M  V30 66 1 63 24
M  V30 67 1 64 30
M  V30 68 1 31 65 CFG=1
M  V30 69 1 66 34
M  V30 70 1 67 34
M  V30 71 1 68 34
M  V30 72 1 69 36
M  V30 END BOND
M  V30 END CTAB
M  END
>  <i_epik_Tot_Q>  (1) 
0

>  <i_epik_Tot_abs_Q>  (1) 
0

>  <i_i_glide_confnum>  (1) 
1599

>  <i_i_glide_lignum>  (1) 
49

>  <i_i_glide_posenum>  (1) 
102

>  <i_i_glide_rotatable_bonds>  (1) 
12

>  <i_lp_mmshare_version>  (1) 
72125

>  <i_m_source_file_index>  (1) 
23

>  <i_f3d_flags>  (1) 
0

>  <num_sample>  (1) 
50

>  <b_lp_Chiralities_Consistent>  (1) 
1

>  <r_epik_Charging_Adjusted_Penalty>  (1) 
0

>  <r_epik_Ionization_Penalty>  (1) 
0.00010073509857401548

>  <r_epik_Ionization_Penalty_Charging>  (1) 
0

>  <r_epik_Ionization_Penalty_Neutral>  (1) 
0.00010073509857401548

>  <r_epik_State_Penalty>  (1) 
-0

>  <r_glide_ring_energy>  (1) 
0

>  <r_i_docking_score>  (1) 
-7.1643317570826461

>  <r_i_glide_ecoul>  (1) 
-1.2336801922176668

>  <r_i_glide_eff_state_penalty>  (1) 
-0

>  <r_i_glide_einternal>  (1) 
22.841130377431231

>  <r_i_glide_emodel>  (1) 
-68.985474051482953

>  <r_i_glide_emodel_strain>  (1) 
0.73253641182310503

>  <r_i_glide_energy>  (1) 
-55.876400852073601

>  <r_i_glide_erotb>  (1) 
0.70459601099453772

>  <r_i_glide_esite>  (1) 
0

>  <r_i_glide_evdw>  (1) 
-54.642720659855932

>  <r_i_glide_gscore>  (1) 
-7.1643317570826461

>  <r_i_glide_gscore_strain>  (1) 
0

>  <r_i_glide_hbond>  (1) 
-0.11278522949973903

>  <r_i_glide_ligand_efficiency>  (1) 
-0.19900921547451794

>  <r_i_glide_ligand_efficiency_ln>  (1) 
-1.5630636315197259

>  <r_i_glide_ligand_efficiency_sa>  (1) 
-0.65711395135645312

>  <r_i_glide_lipo>  (1) 
-3.3482836634384348

>  <r_i_glide_metal>  (1) 
-0

>  <r_i_glide_rewards>  (1) 
-1.4906708133135642

>  <r_lp_Energy>  (1) 
55.610787999999999

>  <r_lp_tautomer_probability>  (1) 
1

>  <s_epik_Chemistry_Notes>  (1) 
This compound has an imine and may undergo hydrolysis. This compound contains an acetal/aminal-like group ( X-CH(R)-Y where X, Y are N, S, or O) that may be acid/base labile, releasing an aldehyde.

>  <s_epik_cmdline>  (1) 
J2VwaWtfcHl0aG9uJywgJy1waHQnLCAnMS4wJywgJy1waCcsICc3LjQnLCAnLXRuJywgJzgnLCAnLW1hJywgJzUwMCcsICctaW1hZScsICc8aW5maWxlLm1hZT4nLCAnLW9tYWUnLCAnPG91dGZpbGUubWFlPic=

>  <s_epik_input>  (1) 
W0NIM11bQ0gyXVNDMT1bQ0hdW05IXVtDSDJdW05IXUMoPU8pW0NAQF0xKFtDSDNdKVtDSDJdW0NIMl1bQ0BASF0yT1tDQEhdMmMzW2NIXWMoW2NIXVtjSF1bY0hdMylbQ0BIXShbQ0gyXVtPSF0pT2M0W2NIXVtjSF1jKFtjSF1bY0hdNClDKD1PKVtOSDJd

>  <s_glide_docking_method>  (1) 
confgen

>  <s_i_glide_gridfile>  (1) 
gpcr_5ht2c_6bqh_protein_autoprepared_prepared

>  <s_lp_Force_Field>  (1) 
S-OPLS

>  <s_lp_Variant>  (1) 
DiffSBDD_22-1

>  <s_m_source_file>  (1) 
generated_GPCR_5HT2C_ligand_DiffSBDD_2026-06-23_prepared.sdf

>  <GenAI_Model>  (1) 
DiffSBDD

>  <Protein>  (1) 
GPCR_5HT2C

$$$$
DiffSBDD_42
     RDKit          3D

  0  0  0  0  0  0  0  0  0  0999 V3000
M  V30 BEGIN CTAB
M  V30 COUNTS 90 93 0 0 1
M  V30 BEGIN ATOM
M  V30 1 C 37.967494 32.927120 58.503479 0 CFG=2
M  V30 2 C 40.229876 28.828881 62.331624 0
M  V30 3 C 41.210840 28.933065 64.705640 0
M  V30 4 C 39.151012 28.545596 60.062071 0
M  V30 5 C 39.288769 32.596588 60.670670 0
M  V30 6 C 37.389143 32.776269 62.059539 0
M  V30 7 C 40.370194 30.745553 49.771541 0
M  V30 8 C 39.967356 29.588914 51.965691 0
M  V30 9 C 41.487847 29.046572 63.195324 0 CFG=2
M  V30 10 C 38.021823 37.637066 61.271318 0
M  V30 11 C 38.080557 29.469884 57.901093 0
M  V30 12 C 38.761916 27.555577 52.565353 0
M  V30 13 C 36.854421 32.712397 60.656787 0 CFG=1
M  V30 14 C 36.552916 34.124467 60.125428 0 CFG=1
M  V30 15 C 39.982135 29.516971 48.967699 0
M  V30 16 C 37.427873 36.612027 60.290260 0
M  V30 17 C 38.757810 33.455079 61.808235 0 CFG=1
M  V30 18 C 37.312340 35.221122 60.938364 0 CFG=2
M  V30 19 C 37.755988 30.351999 54.920078 0
M  V30 20 C 38.109222 28.250796 53.592047 0
M  V30 21 C 39.763072 33.499234 62.968283 0
M  V30 22 C 40.470408 28.789145 60.811899 0
M  V30 23 C 36.127050 37.128181 59.686635 0
M  V30 24 C 39.246499 28.669225 58.533226 0
M  V30 25 C 39.696823 28.219133 51.753535 0
M  V30 26 C 38.933045 30.693991 55.850038 0
M  V30 27 N 37.645284 31.979220 57.428441 0 CHG=1
M  V30 28 O 40.445916 30.042376 65.132358 0
M  V30 29 C 38.395873 29.610577 53.801817 0
M  V30 30 O 42.045095 30.329666 62.967750 0
M  V30 31 C 38.560107 30.824793 57.297824 0 CFG=1
M  V30 32 C 38.045761 32.230450 59.857540 0 CFG=1
M  V30 33 C 39.317771 30.272255 52.987661 0
M  V30 34 C 40.958973 30.325144 51.099882 0
M  V30 35 O 38.631454 34.775724 61.262956 0
M  V30 36 C 36.901029 34.018484 58.637917 0
M  V30 37 H 38.922864 33.386285 58.247623 0
M  V30 38 H 39.782884 27.876446 62.609447 0
M  V30 39 H 39.484295 29.589311 62.569591 0
M  V30 40 H 40.686338 28.006839 64.944179 0
M  V30 41 H 42.151405 28.923148 65.257775 0
M  V30 42 H 38.745867 27.564581 60.295100 0
M  V30 43 H 38.416259 29.234100 60.464129 0
M  V30 44 H 40.054844 33.111251 60.096272 0
M  V30 45 H 39.738717 31.688119 61.070904 0
M  V30 46 H 36.628811 33.337576 62.567732 0
M  V30 47 H 37.490700 31.788156 62.512237 0
M  V30 48 H 39.502451 31.387835 49.924701 0
M  V30 49 H 41.127100 31.337233 49.263187 0
M  V30 50 H 42.232468 28.297886 62.920446 0
M  V30 51 H 37.382752 37.754738 62.148047 0
M  V30 52 H 38.138576 38.614078 60.801107 0
M  V30 53 H 39.003149 37.322146 61.626066 0
M  V30 54 H 37.640544 28.829110 57.141038 0
M  V30 55 H 37.255335 29.600211 58.600111 0
M  V30 56 H 38.551209 26.518200 52.404564 0
M  V30 57 H 35.990301 32.053320 60.551768 0
M  V30 58 H 35.485092 34.318509 60.233288 0
M  V30 59 H 39.498913 29.737768 48.029555 0
M  V30 60 H 39.244856 28.895470 49.456593 0
M  V30 61 H 40.845004 28.931508 48.711779 0
M  V30 62 H 38.095839 36.535162 59.446094 0
M  V30 63 H 36.777126 35.374384 61.876292 0
M  V30 64 H 36.976627 29.743835 55.376022 0
M  V30 65 H 37.269629 31.256202 54.548755 0
M  V30 66 H 37.399330 27.738946 54.225929 0
M  V30 67 H 39.689263 32.615705 63.604244 0
M  V30 68 H 39.645201 34.394684 63.574333 0
M  V30 69 H 40.785085 33.544047 62.592035 0
M  V30 70 H 41.197638 28.016056 60.559271 0
M  V30 71 H 40.898268 29.736873 60.487790 0
M  V30 72 H 35.562288 37.737486 60.392089 0
M  V30 73 H 35.491578 36.340615 59.292714 0
M  V30 74 H 36.384670 37.737540 58.828247 0
M  V30 75 H 39.265949 27.665184 58.108010 0
M  V30 76 H 40.211445 29.093010 58.252278 0
M  V30 77 H 40.202942 27.682310 50.965998 0
M  V30 78 H 39.699329 29.915690 55.805511 0
M  V30 79 H 39.431671 31.601005 55.503682 0
M  V30 80 H 36.639156 31.737747 57.389177 0
M  V30 81 H 40.753362 30.788197 64.637894 0
M  V30 82 H 42.893182 30.363020 63.388857 0
M  V30 83 H 39.489308 31.107335 57.778402 0
M  V30 84 H 37.988746 31.158774 59.807730 0
M  V30 85 H 39.531830 31.317782 53.158408 0
M  V30 86 H 41.866055 29.736886 50.967328 0
M  V30 87 H 41.244958 31.236726 51.623895 0
M  V30 88 H 37.229318 34.948967 58.184172 0
M  V30 89 H 35.985034 33.737946 58.126617 0
M  V30 90 H 37.759538 32.513100 56.579039 0
M  V30 END ATOM
M  V30 BEGIN BOND
M  V30 1 1 9 2
M  V30 2 1 9 3
M  V30 3 1 13 6
M  V30 4 1 14 13
M  V30 5 1 15 7
M  V30 6 1 16 10
M  V30 7 1 17 5
M  V30 8 1 17 6
M  V30 9 1 18 14
M  V30 10 1 18 16
M  V30 11 1 20 12
M  V30 12 1 17 21 CFG=1
M  V30 13 1 22 2
M  V30 14 1 22 4
M  V30 15 1 23 16
M  V30 16 1 24 4
M  V30 17 1 24 11
M  V30 18 1 25 8
M  V30 19 2 25 12
M  V30 20 1 26 19
M  V30 21 1 27 1
M  V30 22 1 28 3
M  V30 23 1 29 19
M  V30 24 2 29 20
M  V30 25 1 30 9
M  V30 26 1 31 11
M  V30 27 1 31 26
M  V30 28 1 31 27
M  V30 29 1 32 1
M  V30 30 1 32 5
M  V30 31 1 32 13
M  V30 32 2 33 8
M  V30 33 1 33 29
M  V30 34 1 34 7
M  V30 35 1 34 8
M  V30 36 1 35 17
M  V30 37 1 35 18
M  V30 38 1 36 1
M  V30 39 1 36 14
M  V30 40 1 1 37 CFG=3
M  V30 41 1 38 2
M  V30 42 1 39 2
M  V30 43 1 40 3
M  V30 44 1 41 3
M  V30 45 1 42 4
M  V30 46 1 43 4
M  V30 47 1 44 5
M  V30 48 1 45 5
M  V30 49 1 46 6
M  V30 50 1 47 6
M  V30 51 1 48 7
M  V30 52 1 49 7
M  V30 53 1 9 50 CFG=3
M  V30 54 1 51 10
M  V30 55 1 52 10
M  V30 56 1 53 10
M  V30 57 1 54 11
M  V30 58 1 55 11
M  V30 59 1 56 12
M  V30 60 1 13 57 CFG=1
M  V30 61 1 14 58 CFG=3
M  V30 62 1 59 15
M  V30 63 1 60 15
M  V30 64 1 61 15
M  V30 65 1 62 16
M  V30 66 1 18 63 CFG=1
M  V30 67 1 64 19
M  V30 68 1 65 19
M  V30 69 1 66 20
M  V30 70 1 67 21
M  V30 71 1 68 21
M  V30 72 1 69 21
M  V30 73 1 70 22
M  V30 74 1 71 22
M  V30 75 1 72 23
M  V30 76 1 73 23
M  V30 77 1 74 23
M  V30 78 1 75 24
M  V30 79 1 76 24
M  V30 80 1 77 25
M  V30 81 1 78 26
M  V30 82 1 79 26
M  V30 83 1 80 27
M  V30 84 1 81 28
M  V30 85 1 82 30
M  V30 86 1 31 83 CFG=1
M  V30 87 1 32 84 CFG=3
M  V30 88 1 85 33
M  V30 89 1 86 34
M  V30 90 1 87 34
M  V30 91 1 88 36
M  V30 92 1 89 36
M  V30 93 1 90 27
M  V30 END BOND
M  V30 END CTAB
M  END
>  <i_epik_Tot_Q>  (1) 
1

>  <i_epik_Tot_abs_Q>  (1) 
1

>  <i_i_glide_confnum>  (1) 
1001

>  <i_i_glide_lignum>  (1) 
93

>  <i_i_glide_posenum>  (1) 
301

>  <i_i_glide_rotatable_bonds>  (1) 
17

>  <i_lp_mmshare_version>  (1) 
72125

>  <i_m_source_file_index>  (1) 
43

>  <i_f3d_flags>  (1) 
0

>  <num_sample>  (1) 
50

>  <b_lp_Chiralities_Consistent>  (1) 
1

>  <r_epik_Charging_Adjusted_Penalty>  (1) 
0.00030412636243833623

>  <r_epik_Ionization_Penalty>  (1) 
0.00030431191221991862

>  <r_epik_Ionization_Penalty_Charging>  (1) 
0.00030412636243833623

>  <r_epik_Ionization_Penalty_Neutral>  (1) 
1.8554978158239134e-07

>  <r_epik_State_Penalty>  (1) 
-0

>  <r_glide_ring_energy>  (1) 
0

>  <r_i_docking_score>  (1) 
-7.1558267524789869

>  <r_i_glide_ecoul>  (1) 
-9.3299379714749584

>  <r_i_glide_eff_state_penalty>  (1) 
-0

>  <r_i_glide_einternal>  (1) 
20.139062162667589

>  <r_i_glide_emodel>  (1) 
-44.508708167634836

>  <r_i_glide_emodel_strain>  (1) 
5.4236195094514841

>  <r_i_glide_energy>  (1) 
-39.806080096194265

>  <r_i_glide_erotb>  (1) 
1.0585899969639281

>  <r_i_glide_esite>  (1) 
-0.10000000000000001

>  <r_i_glide_evdw>  (1) 
-30.476142124719306

>  <r_i_glide_gscore>  (1) 
-7.1558267524789869

>  <r_i_glide_gscore_strain>  (1) 
0.35590487736287102

>  <r_i_glide_hbond>  (1) 
-0.3587482037082822

>  <r_i_glide_ligand_efficiency>  (1) 
-0.19877296534663852

>  <r_i_glide_ligand_efficiency_ln>  (1) 
-1.5612080692938777

>  <r_i_glide_ligand_efficiency_sa>  (1) 
-0.65633387062165327

>  <r_i_glide_lipo>  (1) 
-4.2882756211402944

>  <r_i_glide_metal>  (1) 
-0

>  <r_i_glide_rewards>  (1) 
-0.90000000000000002

>  <r_lp_Energy>  (1) 
51.322443999999997

>  <r_lp_tautomer_probability>  (1) 
1

>  <s_epik_cmdline>  (1) 
J2VwaWtfcHl0aG9uJywgJy1waHQnLCAnMS4wJywgJy1waCcsICc3LjQnLCAnLXRuJywgJzgnLCAnLW1hJywgJzUwMCcsICctaW1hZScsICc8aW5maWxlLm1hZT4nLCAnLW9tYWUnLCAnPG91dGZpbGUubWFlPic=

>  <s_epik_input>  (1) 
W0NIM11bQ0BAXTEyW0NIMl1bQ0BIXTNbQ0BASF0oW0NIMl0xKVtDQEBIXShbQ0BASF0oTzIpW0NIXShbQ0gzXSlbQ0gzXSlbQ0gyXVtDQEBIXTNbTkhdW0NAQEhdKFtDSDJdW0NIMl1bQ0gyXVtDSDJdW0NIMl1bQ0BASF0oW09IXSlbQ0gyXVtPSF0pW0NIMl1bQ0gyXWMoW2NIXTQpW2NIXVtjSF1bY0hdYzRbQ0gyXVtDSDJdW0NIM10=

>  <s_glide_docking_method>  (1) 
confgen

>  <s_i_glide_gridfile>  (1) 
gpcr_5ht2c_6bqh_protein_autoprepared_prepared

>  <s_lp_Force_Field>  (1) 
S-OPLS

>  <s_lp_Variant>  (1) 
DiffSBDD_42-1

>  <s_m_source_file>  (1) 
generated_GPCR_5HT2C_ligand_DiffSBDD_2026-06-23_prepared.sdf

>  <GenAI_Model>  (1) 
DiffSBDD

>  <Protein>  (1) 
GPCR_5HT2C

$$$$
DiffSBDD_0
     RDKit          3D

  0  0  0  0  0  0  0  0  0  0999 V3000
M  V30 BEGIN CTAB
M  V30 COUNTS 73 75 0 0 1
M  V30 BEGIN ATOM
M  V30 1 C 40.138038 30.855766 50.429737 0
M  V30 2 C 39.014057 27.240158 51.554633 0
M  V30 3 O 41.728270 32.266659 64.018481 0
M  V30 4 C 39.520079 29.887616 52.645590 0
M  V30 5 C 38.687277 29.992549 59.209754 0 CFG=2
M  V30 6 C 38.714775 31.629309 56.746431 0
M  V30 7 C 40.090549 33.548368 62.869052 0
M  V30 8 C 39.613534 33.824744 61.418938 0 CFG=1
M  V30 9 C 37.690106 34.680414 60.108617 0
M  V30 10 C 39.492712 32.537454 60.576826 0
M  V30 11 N 38.398412 31.669162 61.057154 0 CHG=1
M  V30 12 O 39.067089 28.977629 60.138541 0
M  V30 13 C 39.514021 28.377259 50.640152 0
M  V30 14 C 38.480333 35.939221 61.851318 0
M  V30 15 C 38.968106 28.946022 54.980513 0 CFG=1
M  V30 16 C 37.714170 30.902919 59.991788 0
M  V30 17 C 38.908380 27.605563 53.026795 0
M  V30 18 C 38.707492 27.405032 55.310680 0
M  V30 19 C 38.130455 29.418630 57.872763 0 CFG=1
M  V30 20 C 41.451221 32.842419 62.946700 0
M  V30 21 N 38.332649 34.553215 61.415318 0
M  V30 22 C 37.141996 36.576043 61.485629 0
M  V30 23 F 41.246459 30.537761 49.767746 0
M  V30 24 C 39.122584 28.799666 53.504840 0
M  V30 25 C 39.710389 29.721970 51.324714 0
M  V30 26 O 36.948339 28.937755 58.144121 0 CHG=-1
M  V30 27 N 37.866189 30.412971 56.772464 0 CFG=2 CHG=1
M  V30 28 C 38.561392 26.547457 53.989789 0 CFG=1
M  V30 29 C 37.769118 29.837885 55.397292 0
M  V30 30 C 40.289639 28.309864 59.867423 0
M  V30 31 O 42.180213 32.889772 61.931190 0 CHG=-1
M  V30 32 O 37.245141 26.112145 53.784325 0
M  V30 33 C 36.667351 35.792338 60.265863 0
M  V30 34 H 39.363764 31.095545 49.700331 0
M  V30 35 H 40.349979 31.737755 51.023993 0
M  V30 36 H 39.645140 26.361424 51.448237 0
M  V30 37 H 38.033227 26.937771 51.206686 0
M  V30 38 H 39.678922 30.864399 53.079574 0
M  V30 39 H 39.592156 30.537585 58.960888 0
M  V30 40 H 39.768669 31.375485 56.643556 0
M  V30 41 H 38.443623 32.275797 55.910569 0
M  V30 42 H 38.573054 32.237909 57.632096 0
M  V30 43 H 40.190768 34.476725 63.429785 0
M  V30 44 H 39.355096 32.940432 63.395073 0
M  V30 45 H 40.358540 34.456121 60.930610 0
M  V30 46 H 38.436156 34.937756 59.367759 0
M  V30 47 H 37.203413 33.763596 59.783802 0
M  V30 48 H 40.410296 31.954040 60.567851 0
M  V30 49 H 39.342372 32.820009 59.539442 0
M  V30 50 H 37.724724 32.287575 61.491330 0
M  V30 51 H 38.841117 28.514331 49.798427 0
M  V30 52 H 40.445132 28.068245 50.184547 0
M  V30 53 H 38.692749 36.027478 62.917100 0
M  V30 54 H 39.288661 36.425012 61.301345 0
M  V30 55 H 39.912108 29.300363 55.395727 0
M  V30 56 H 37.207071 31.591015 59.316520 0
M  V30 57 H 36.925013 30.302525 60.444188 0
M  V30 58 H 37.843950 27.262134 55.962600 0
M  V30 59 H 39.561355 27.024013 55.871912 0
M  V30 60 H 38.943844 28.789168 57.530589 0
M  V30 61 H 37.237174 37.643894 61.286225 0
M  V30 62 H 36.445144 36.450283 62.313951 0
M  V30 63 H 39.286760 25.737761 53.959182 0
M  V30 64 H 37.639373 30.651330 54.682191 0
M  V30 65 H 36.845138 29.278579 55.317419 0
M  V30 66 H 40.547011 27.695259 60.728735 0
M  V30 67 H 40.211919 27.650530 59.003480 0
M  V30 68 H 41.111470 29.009090 59.709577 0
M  V30 69 H 37.098432 25.976901 52.856698 0
M  V30 70 H 36.608581 36.409566 59.368585 0
M  V30 71 H 35.689967 35.337763 60.427806 0
M  V30 72 H 36.926913 30.755826 56.967770 0
M  V30 73 H 38.766018 31.037832 61.756605 0
M  V30 END ATOM
M  V30 BEGIN BOND
M  V30 1 1 8 7
M  V30 2 1 10 8
M  V30 3 1 11 10
M  V30 4 1 12 5
M  V30 5 1 13 2
M  V30 6 1 16 5
M  V30 7 1 16 11
M  V30 8 1 17 2
M  V30 9 1 18 15
M  V30 10 1 19 5
M  V30 11 2 20 3
M  V30 12 1 20 7
M  V30 13 1 21 8
M  V30 14 1 21 9
M  V30 15 1 21 14
M  V30 16 1 22 14
M  V30 17 1 23 1
M  V30 18 1 24 4
M  V30 19 1 24 15
M  V30 20 2 24 17
M  V30 21 1 25 1
M  V30 22 2 25 4
M  V30 23 1 25 13
M  V30 24 1 26 19
M  V30 25 1 27 6
M  V30 26 1 27 19
M  V30 27 1 28 17
M  V30 28 1 28 18
M  V30 29 1 29 15
M  V30 30 1 29 27
M  V30 31 1 30 12
M  V30 32 1 31 20
M  V30 33 1 32 28
M  V30 34 1 33 9
M  V30 35 1 33 22
M  V30 36 1 34 1
M  V30 37 1 35 1
M  V30 38 1 36 2
M  V30 39 1 37 2
M  V30 40 1 38 4
M  V30 41 1 5 39 CFG=3
M  V30 42 1 40 6
M  V30 43 1 41 6
M  V30 44 1 42 6
M  V30 45 1 43 7
M  V30 46 1 44 7
M  V30 47 1 8 45 CFG=3
M  V30 48 1 46 9
M  V30 49 1 47 9
M  V30 50 1 48 10
M  V30 51 1 49 10
M  V30 52 1 50 11
M  V30 53 1 51 13
M  V30 54 1 52 13
M  V30 55 1 53 14
M  V30 56 1 54 14
M  V30 57 1 15 55 CFG=1
M  V30 58 1 56 16
M  V30 59 1 57 16
M  V30 60 1 58 18
M  V30 61 1 59 18
M  V30 62 1 19 60 CFG=3
M  V30 63 1 61 22
M  V30 64 1 62 22
M  V30 65 1 28 63 CFG=1
M  V30 66 1 64 29
M  V30 67 1 65 29
M  V30 68 1 66 30
M  V30 69 1 67 30
M  V30 70 1 68 30
M  V30 71 1 69 32
M  V30 72 1 70 33
M  V30 73 1 71 33
M  V30 74 1 27 72 CFG=1
M  V30 75 1 73 11
M  V30 END BOND
M  V30 END CTAB
M  END
>  <i_epik_Tot_Q>  (1) 
0

>  <i_epik_Tot_abs_Q>  (1) 
4

>  <i_i_glide_confnum>  (1) 
961

>  <i_i_glide_lignum>  (1) 
3

>  <i_i_glide_posenum>  (1) 
224

>  <i_i_glide_rotatable_bonds>  (1) 
14

>  <i_lp_mmshare_version>  (1) 
72125

>  <i_m_source_file_index>  (1) 
1

>  <i_f3d_flags>  (1) 
0

>  <num_sample>  (1) 
50

>  <b_lp_Chiralities_Consistent>  (1) 
1

>  <r_epik_Charging_Adjusted_Penalty>  (1) 
0.77514762265790937

>  <r_epik_Ionization_Penalty>  (1) 
0.13961133491552177

>  <r_epik_Ionization_Penalty_Charging>  (1) 
0.038557878483332003

>  <r_epik_Ionization_Penalty_Neutral>  (1) 
0.10105345643218977

>  <r_epik_State_Penalty>  (1) 
0.73658974417457734

>  <r_glide_ring_energy>  (1) 
0.0045750838620950583

>  <r_i_docking_score>  (1) 
-7.150865361585014

>  <r_i_glide_ecoul>  (1) 
-5.226657356405922

>  <r_i_glide_eff_state_penalty>  (1) 
0.73658974417457734

>  <r_i_glide_einternal>  (1) 
14.349642431009343

>  <r_i_glide_emodel>  (1) 
-64.889081537875441

>  <r_i_glide_emodel_strain>  (1) 
2.140595672315655

>  <r_i_glide_energy>  (1) 
-42.655680177068042

>  <r_i_glide_erotb>  (1) 
0.82434179411086872

>  <r_i_glide_esite>  (1) 
-0.1183327606491784

>  <r_i_glide_evdw>  (1) 
-37.429022820662119

>  <r_i_glide_gscore>  (1) 
-7.8874551057595914

>  <r_i_glide_gscore_strain>  (1) 
0

>  <r_i_glide_hbond>  (1) 
-0.39875436084099286

>  <r_i_glide_ligand_efficiency>  (1) 
-0.21669288974500042

>  <r_i_glide_ligand_efficiency_ln>  (1) 
-1.5903154312172108

>  <r_i_glide_ligand_efficiency_sa>  (1) 
-0.69504988292308945

>  <r_i_glide_lipo>  (1) 
-4.1528618532776509

>  <r_i_glide_metal>  (1) 
-0

>  <r_i_glide_rewards>  (1) 
-1.3863981806086447

>  <r_lp_Energy>  (1) 
31.454538999999997

>  <s_epik_Chemistry_Notes>  (1) 
This compound contains an acetal/aminal-like group ( X-CH(R)-Y where X, Y are N, S, or O) that may be acid/base labile, releasing an aldehyde.

>  <s_epik_cmdline>  (1) 
J2VwaWtfcHl0aG9uJywgJy1waHQnLCAnMS4wJywgJy1waCcsICc3LjQnLCAnLXRuJywgJzgnLCAnLW1hJywgJzUwMCcsICctaW1hZScsICc8aW5maWxlLm1hZT4nLCAnLW9tYWUnLCAnPG91dGZpbGUubWFlPic=

>  <s_epik_input>  (1) 
W0NIMl0xW0NIMl1DKFtDSDJdRik9W0NIXUMoPUMxMilbQ0BIXShbQ0gyXVtDQEhdMltPSF0pW0NIMl1OKFtDSDNdKVtDQEhdKFtPSF0pW0NASF0oT1tDSDNdKVtDSDJdW05IXVtDSDJdW0NASF0oW0NIMl1DKD1PKVtPSF0pTjNbQ0gyXVtDSDJdW0NIMl1bQ0gyXTM=

>  <s_glide_docking_method>  (1) 
confgen

>  <s_i_glide_gridfile>  (1) 
gpcr_5ht2c_6bqh_protein_autoprepared_prepared

>  <s_lp_Force_Field>  (1) 
S-OPLS

>  <s_lp_Variant>  (1) 
DiffSBDD_0-3

>  <s_m_source_file>  (1) 
generated_GPCR_5HT2C_ligand_DiffSBDD_2026-06-23_prepared.sdf

>  <GenAI_Model>  (1) 
DiffSBDD

>  <Protein>  (1) 
GPCR_5HT2C

$$$$
DiffSBDD_17
     RDKit          3D

  0  0  0  0  0  0  0  0  0  0999 V3000
M  V30 BEGIN CTAB
M  V30 COUNTS 93 97 0 0 1
M  V30 BEGIN ATOM
M  V30 1 C 41.753571 31.913421 68.748318 0
M  V30 2 C 38.078234 31.899531 61.227188 0 CFG=2
M  V30 3 C 40.921013 30.417091 66.895013 0
M  V30 4 O 40.478986 28.726066 60.421183 0
M  V30 5 C 42.839930 32.128779 66.498982 0
M  V30 6 C 39.469932 27.313865 54.848523 0
M  V30 7 C 39.244675 27.474527 52.366937 0
M  V30 8 C 39.635353 26.818239 53.617792 0
M  V30 9 C 39.380329 33.609725 59.322911 0
M  V30 10 C 40.218884 34.215404 62.306581 0
M  V30 11 N 42.057754 28.447823 65.639355 0
M  V30 12 C 38.825220 34.476283 61.748014 0 CFG=2
M  V30 13 C 40.837016 30.292132 64.274752 0 CFG=1
M  V30 14 C 39.415548 31.243866 61.717676 0
M  V30 15 N 42.233609 27.862723 66.970454 0 CHG=1
M  V30 16 C 39.388557 27.213612 57.111703 0 CFG=2
M  V30 17 C 38.778153 28.569165 55.210911 0 CFG=2
M  V30 18 C 44.357615 28.653006 66.140063 0
M  V30 19 C 41.023505 29.509048 65.621132 0 CFG=2
M  V30 20 O 39.904667 26.624148 55.935356 0
M  V30 21 C 43.690546 27.711821 67.161740 0
M  V30 22 O 41.971508 30.766163 63.829706 0 CHG=-1
M  V30 23 N 37.653115 30.744376 57.461342 0 CHG=1
M  V30 24 C 39.151230 29.801596 54.460882 0
M  V30 25 C 37.442435 31.379250 59.893666 0
M  V30 26 C 39.078740 28.812433 52.153165 0
M  V30 27 N 37.890687 33.391268 61.362860 0 CFG=1 CHG=1
M  V30 28 C 39.288663 28.707934 61.181025 0
M  V30 29 S 38.044843 26.197362 57.767775 0
M  V30 30 C 39.330494 29.793136 62.267734 0 CFG=1
M  V30 31 C 39.245047 29.904177 53.126909 0
M  V30 32 N 40.445268 29.401382 63.172735 0 CHG=1
M  V30 33 C 38.434497 34.251155 60.313436 0 CFG=2
M  V30 34 C 37.744359 29.266074 57.476971 0
M  V30 35 C 38.669300 32.867371 58.188842 0
M  V30 36 C 38.975075 28.668791 56.729202 0 CFG=1
M  V30 37 C 38.312530 31.428023 58.604401 0 CFG=2
M  V30 38 N 43.346213 28.872757 65.091106 0 CHG=1
M  V30 39 C 42.158183 31.155020 67.472625 0
M  V30 40 H 41.018416 32.689172 68.533078 0
M  V30 41 H 41.320566 31.245856 69.493265 0
M  V30 42 H 42.612407 32.398553 69.213786 0
M  V30 43 H 37.362288 31.580043 61.983889 0
M  V30 44 H 40.146057 31.164682 66.717556 0
M  V30 45 H 40.499377 29.811679 67.699247 0
M  V30 46 H 40.569548 27.900129 59.965953 0
M  V30 47 H 42.112760 32.769430 65.998745 0
M  V30 48 H 43.413773 31.606545 65.737861 0
M  V30 49 H 43.550376 32.775295 67.015731 0
M  V30 50 H 39.135397 26.834960 51.502559 0
M  V30 51 H 40.106283 25.849874 53.537949 0
M  V30 52 H 40.064986 32.937902 59.803454 0
M  V30 53 H 40.045076 34.382030 58.967770 0
M  V30 54 H 40.764717 35.159268 62.337844 0
M  V30 55 H 40.158294 33.849095 63.332142 0
M  V30 56 H 40.819465 33.535732 61.707967 0
M  V30 57 H 38.275129 35.256235 62.271107 0
M  V30 58 H 39.977585 30.929987 64.478537 0
M  V30 59 H 39.732111 31.838975 62.556874 0
M  V30 60 H 40.224231 31.291786 60.993073 0
M  V30 61 H 41.840081 28.519146 67.632385 0
M  V30 62 H 40.176443 27.238960 57.865299 0
M  V30 63 H 37.725204 28.381459 54.994320 0
M  V30 64 H 45.274387 28.233250 65.724372 0
M  V30 65 H 44.617273 29.606696 66.598651 0
M  V30 66 H 40.102722 28.926441 65.693586 0
M  V30 67 H 43.956076 26.676279 66.942636 0
M  V30 68 H 43.992080 27.921108 68.188994 0
M  V30 69 H 36.674743 31.052382 57.382238 0
M  V30 70 H 39.299697 30.689362 55.056979 0
M  V30 71 H 37.087998 30.365507 60.059750 0
M  V30 72 H 36.523343 31.934902 59.698911 0
M  V30 73 H 38.852473 29.107738 51.138173 0
M  V30 74 H 38.445172 28.801314 60.514295 0
M  V30 75 H 39.189835 27.737758 61.657578 0
M  V30 76 H 38.797736 25.123001 58.025746 0
M  V30 77 H 38.424380 29.738993 62.862901 0
M  V30 78 H 39.455486 30.886183 52.726946 0
M  V30 79 H 40.179856 28.513812 63.574101 0
M  V30 80 H 37.646879 34.877748 59.897710 0
M  V30 81 H 37.679430 28.896694 58.495347 0
M  V30 82 H 36.845136 28.937450 56.987429 0
M  V30 83 H 39.334762 32.828680 57.324953 0
M  V30 84 H 37.784572 33.415507 57.858882 0
M  V30 85 H 39.851834 29.286697 56.931420 0
M  V30 86 H 39.244698 30.894781 58.795731 0
M  V30 87 H 43.527389 28.286902 64.287894 0
M  V30 88 H 42.897031 30.423240 67.788797 0
M  V30 89 H 41.743461 26.977822 67.001683 0
M  V30 90 H 43.203758 29.838102 64.768414 0
M  V30 91 H 38.092425 31.053453 56.606978 0
M  V30 92 H 41.271230 29.278142 62.607825 0
M  V30 93 H 36.926933 33.651876 61.521710 0
M  V30 END ATOM
M  V30 BEGIN BOND
M  V30 1 2 8 6
M  V30 2 1 8 7
M  V30 3 1 12 10
M  V30 4 1 14 2
M  V30 5 1 15 11
M  V30 6 1 17 6
M  V30 7 1 19 3
M  V30 8 1 19 11
M  V30 9 1 19 13
M  V30 10 1 20 6
M  V30 11 1 20 16
M  V30 12 1 21 15
M  V30 13 1 21 18
M  V30 14 1 22 13
M  V30 15 1 24 17
M  V30 16 1 25 2
M  V30 17 2 26 7
M  V30 18 1 27 2
M  V30 19 1 27 12
M  V30 20 1 28 4
M  V30 21 1 29 16
M  V30 22 1 30 14
M  V30 23 1 30 28
M  V30 24 2 31 24
M  V30 25 1 31 26
M  V30 26 1 32 13
M  V30 27 1 32 30
M  V30 28 1 33 9
M  V30 29 1 33 12
M  V30 30 1 33 27
M  V30 31 1 34 23
M  V30 32 1 35 9
M  V30 33 1 36 16
M  V30 34 1 36 17
M  V30 35 1 36 34
M  V30 36 1 37 23
M  V30 37 1 37 25
M  V30 38 1 37 35
M  V30 39 1 38 11
M  V30 40 1 38 18
M  V30 41 1 39 1
M  V30 42 1 39 3
M  V30 43 1 39 5
M  V30 44 1 40 1
M  V30 45 1 41 1
M  V30 46 1 42 1
M  V30 47 1 2 43 CFG=1
M  V30 48 1 44 3
M  V30 49 1 45 3
M  V30 50 1 46 4
M  V30 51 1 47 5
M  V30 52 1 48 5
M  V30 53 1 49 5
M  V30 54 1 50 7
M  V30 55 1 51 8
M  V30 56 1 52 9
M  V30 57 1 53 9
M  V30 58 1 54 10
M  V30 59 1 55 10
M  V30 60 1 56 10
M  V30 61 1 12 57 CFG=1
M  V30 62 1 13 58 CFG=1
M  V30 63 1 59 14
M  V30 64 1 60 14
M  V30 65 1 61 15
M  V30 66 1 16 62 CFG=1
M  V30 67 1 17 63 CFG=1
M  V30 68 1 64 18
M  V30 69 1 65 18
M  V30 70 1 19 66 CFG=1
M  V30 71 1 67 21
M  V30 72 1 68 21
M  V30 73 1 69 23
M  V30 74 1 70 24
M  V30 75 1 71 25
M  V30 76 1 72 25
M  V30 77 1 73 26
M  V30 78 1 74 28
M  V30 79 1 75 28
M  V30 80 1 76 29
M  V30 81 1 30 77 CFG=1
M  V30 82 1 78 31
M  V30 83 1 79 32
M  V30 84 1 33 80 CFG=3
M  V30 85 1 81 34
M  V30 86 1 82 34
M  V30 87 1 83 35
M  V30 88 1 84 35
M  V30 89 1 36 85 CFG=3
M  V30 90 1 37 86 CFG=1
M  V30 91 1 87 38
M  V30 92 1 88 39
M  V30 93 1 89 15
M  V30 94 1 90 38
M  V30 95 1 91 23
M  V30 96 1 92 32
M  V30 97 1 27 93 CFG=1
M  V30 END BOND
M  V30 END CTAB
M  END
>  <i_epik_Tot_Q>  (1) 
4

>  <i_epik_Tot_abs_Q>  (1) 
6

>  <i_i_glide_confnum>  (1) 
2836

>  <i_i_glide_lignum>  (1) 
37

>  <i_i_glide_posenum>  (1) 
14

>  <i_i_glide_rotatable_bonds>  (1) 
14

>  <i_lp_mmshare_version>  (1) 
72125

>  <i_m_source_file_index>  (1) 
18

>  <i_f3d_flags>  (1) 
0

>  <num_sample>  (1) 
50

>  <b_lp_Chiralities_Consistent>  (1) 
1

>  <r_epik_Charging_Adjusted_Penalty>  (1) 
1.4553498192604928

>  <r_epik_Ionization_Penalty>  (1) 
1.1481457817152785

>  <r_epik_Ionization_Penalty_Charging>  (1) 
0.48043644912001532

>  <r_epik_Ionization_Penalty_Neutral>  (1) 
0.66770933259526311

>  <r_epik_State_Penalty>  (1) 
0.97491337014047741

>  <r_glide_ring_energy>  (1) 
0.0045750838620950583

>  <r_i_docking_score>  (1) 
-7.1424600997953629

>  <r_i_glide_ecoul>  (1) 
-12.297666837157617

>  <r_i_glide_eff_state_penalty>  (1) 
0.97491337014047741

>  <r_i_glide_einternal>  (1) 
11.227963479431232

>  <r_i_glide_emodel>  (1) 
-80.252783485367388

>  <r_i_glide_emodel_strain>  (1) 
1.327601200578016

>  <r_i_glide_energy>  (1) 
-50.566045066441944

>  <r_i_glide_erotb>  (1) 
0.56146573491919982

>  <r_i_glide_esite>  (1) 
-0.15076549746161355

>  <r_i_glide_evdw>  (1) 
-38.26837822928433

>  <r_i_glide_gscore>  (1) 
-8.1173734699358402

>  <r_i_glide_gscore_strain>  (1) 
0

>  <r_i_glide_hbond>  (1) 
-0.20000000000000001

>  <r_i_glide_ligand_efficiency>  (1) 
-0.18314000255885546

>  <r_i_glide_ligand_efficiency_ln>  (1) 
-1.5315461961831229

>  <r_i_glide_ligand_efficiency_sa>  (1) 
-0.62106647235123447

>  <r_i_glide_lipo>  (1) 
-3.4788060657054394

>  <r_i_glide_metal>  (1) 
-0

>  <r_i_glide_rewards>  (1) 
-1.0911987046501286

>  <r_lp_Energy>  (1) 
72.301324999999991

>  <s_epik_Chemistry_Notes>  (1) 
This compound contains an acetal/aminal-like group ( X-CH(R)-Y where X, Y are N, S, or O) that may be acid/base labile, releasing an aldehyde.

>  <s_epik_cmdline>  (1) 
J2VwaWtfcHl0aG9uJywgJy1waHQnLCAnMS4wJywgJy1waCcsICc3LjQnLCAnLXRuJywgJzgnLCAnLW1hJywgJzUwMCcsICctaW1hZScsICc8aW5maWxlLm1hZT4nLCAnLW9tYWUnLCAnPG91dGZpbGUubWFlPic=

>  <s_epik_input>  (1) 
W05IXTFbQ0gyXVtDSDJdW05IXU4xW0NAQEhdKFtDSDJdW0NIXShbQ0gzXSlbQ0gzXSlbQ0BASF0oW09IXSlbTkhdW0NASF0oW0NIMl1bT0hdKVtDSDJdW0NAQEhdMltDSDJdW0NASF0oW0NIMl1bQ0gyXVtDQEBIXShOMjMpW0NIXTNbQ0gzXSlbTkhdW0NIMl1bQ0BASF0oW0NASF0oTzQpW1NIXSlbQ0BIXShDND01KVtDSF09W0NIXVtDSF09W0NIXVtDSF01

>  <s_glide_docking_method>  (1) 
confgen

>  <s_i_glide_gridfile>  (1) 
gpcr_5ht2c_6bqh_protein_autoprepared_prepared

>  <s_lp_Force_Field>  (1) 
S-OPLS

>  <s_lp_Variant>  (1) 
DiffSBDD_17-4

>  <s_m_source_file>  (1) 
generated_GPCR_5HT2C_ligand_DiffSBDD_2026-06-23_prepared.sdf

>  <GenAI_Model>  (1) 
DiffSBDD

>  <Protein>  (1) 
GPCR_5HT2C

$$$$
DiffSBDD_17
     RDKit          3D

  0  0  0  0  0  0  0  0  0  0999 V3000
M  V30 BEGIN CTAB
M  V30 COUNTS 94 98 0 0 1
M  V30 BEGIN ATOM
M  V30 1 C 43.717152 31.845970 67.551491 0
M  V30 2 C 38.849003 34.147583 61.292256 0 CFG=2
M  V30 3 C 41.140599 31.573555 67.296605 0
M  V30 4 O 39.644866 36.137719 63.767679 0
M  V30 5 C 42.177383 32.520658 69.402833 0
M  V30 6 C 38.775792 28.342328 54.990935 0
M  V30 7 C 38.835997 27.767606 52.553595 0
M  V30 8 C 38.813313 27.461147 53.984308 0
M  V30 9 C 36.631588 35.182928 59.027548 0
M  V30 10 C 37.590173 37.753488 60.971989 0
M  V30 11 N 41.124866 30.491300 64.988496 0
M  V30 12 C 37.392261 36.318077 61.417721 0 CFG=2
M  V30 13 C 41.069135 33.051652 65.100206 0 CFG=1
M  V30 14 C 40.391792 34.264461 61.426791 0
M  V30 15 N 40.445148 29.274656 65.481152 0 CHG=1
M  V30 16 C 38.744797 29.002506 57.176224 0 CFG=2
M  V30 17 C 38.671919 29.820417 54.893201 0 CFG=2
M  V30 18 C 42.804230 28.882110 65.446371 0
M  V30 19 C 40.751330 31.681161 65.781983 0 CFG=2
M  V30 20 O 38.786792 27.906478 56.282014 0
M  V30 21 C 41.435226 28.187784 65.407649 0
M  V30 22 O 42.445204 33.160657 64.867198 0
M  V30 23 N 38.444413 31.791025 58.240457 0 CHG=1
M  V30 24 C 39.449199 30.561239 53.857658 0
M  V30 25 C 38.440871 32.911649 60.419753 0
M  V30 26 C 39.196797 28.935864 51.951825 0
M  V30 27 N 38.257558 35.380718 60.722836 0 CFG=2 CHG=1
M  V30 28 C 40.961004 35.727829 63.503422 0
M  V30 29 S 37.232482 29.037786 58.167746 0
M  V30 30 C 40.991108 34.326614 62.855827 0 CFG=1
M  V30 31 C 39.645126 30.183208 52.584827 0
M  V30 32 N 40.491857 33.218215 63.734373 0 CHG=1
M  V30 33 C 36.822362 35.244304 60.522594 0 CFG=2
M  V30 34 C 38.452047 31.651846 56.762361 0
M  V30 35 C 36.924782 33.760106 58.486799 0
M  V30 36 C 39.018802 30.267233 56.319209 0 CFG=1
M  V30 37 C 38.292875 33.122262 58.874831 0 CFG=2
M  V30 38 N 42.578079 30.254420 64.949755 0 CHG=1
M  V30 39 C 42.319563 32.406167 67.876055 0
M  V30 40 H 43.812863 30.807788 67.872024 0
M  V30 41 H 43.971260 31.906056 66.496527 0
M  V30 42 H 44.487156 32.414348 68.076867 0
M  V30 43 H 38.441787 33.989675 62.285893 0
M  V30 44 H 40.256476 31.907665 67.835496 0
M  V30 45 H 41.258478 30.537091 67.613446 0
M  V30 46 H 39.684934 36.994862 64.174342 0
M  V30 47 H 42.193578 31.539974 69.881531 0
M  V30 48 H 42.984630 33.113052 69.835436 0
M  V30 49 H 41.245507 33.013203 69.677626 0
M  V30 50 H 38.586695 26.951359 51.890779 0
M  V30 51 H 38.830463 26.415429 54.255713 0
M  V30 52 H 37.245097 35.932499 58.529282 0
M  V30 53 H 35.595420 35.441772 58.807049 0
M  V30 54 H 36.762666 38.368096 61.330189 0
M  V30 55 H 38.517856 38.155159 61.380995 0
M  V30 56 H 37.628604 37.837271 59.886044 0
M  V30 57 H 37.372782 36.138231 62.489707 0
M  V30 58 H 40.730795 33.879319 65.726033 0
M  V30 59 H 40.763946 35.105433 60.839199 0
M  V30 60 H 40.846717 33.389690 60.967673 0
M  V30 61 H 40.171531 29.441309 66.440736 0
M  V30 62 H 39.561803 28.871336 57.886139 0
M  V30 63 H 37.617748 30.035326 54.709736 0
M  V30 64 H 43.558331 28.357397 64.858361 0
M  V30 65 H 43.160741 28.938278 66.475188 0
M  V30 66 H 39.660843 31.638961 65.767945 0
M  V30 67 H 41.302389 27.670489 64.455903 0
M  V30 68 H 41.304430 27.459007 66.209264 0
M  V30 69 H 42.806019 33.804488 65.464194 0
M  V30 70 H 39.299084 31.380357 58.580771 0
M  V30 71 H 39.840050 31.518440 54.168898 0
M  V30 72 H 39.140854 32.099093 60.617958 0
M  V30 73 H 37.495634 32.514019 60.792823 0
M  V30 74 H 39.195621 28.928998 50.870524 0
M  V30 75 H 41.422268 36.462257 62.840196 0
M  V30 76 H 41.537288 35.759020 64.428513 0
M  V30 77 H 36.397868 29.316546 57.159229 0
M  V30 78 H 42.045150 34.126573 62.680398 0
M  V30 79 H 40.181938 30.877795 51.953610 0
M  V30 80 H 39.498349 33.357519 63.856601 0
M  V30 81 H 36.335464 34.446090 61.081096 0
M  V30 82 H 37.450195 31.791466 56.364447 0
M  V30 83 H 39.063013 32.444753 56.328192 0
M  V30 84 H 36.845014 33.791688 57.400430 0
M  V30 85 H 36.122173 33.098922 58.816965 0
M  V30 86 H 40.096358 30.374681 56.344455 0
M  V30 87 H 39.113802 33.737632 58.508947 0
M  V30 88 H 42.877453 30.346352 63.988387 0
M  V30 89 H 42.263921 33.427880 67.504539 0
M  V30 90 H 39.620156 29.074411 64.913791 0
M  V30 91 H 43.025720 30.953783 65.529297 0
M  V30 92 H 37.675150 31.211270 58.554237 0
M  V30 93 H 40.639950 32.354816 63.236405 0
M  V30 94 H 38.697419 35.759268 59.896395 0
M  V30 END ATOM
M  V30 BEGIN BOND
M  V30 1 2 8 6
M  V30 2 1 8 7
M  V30 3 1 12 10
M  V30 4 1 14 2
M  V30 5 1 15 11
M  V30 6 1 17 6
M  V30 7 1 19 3
M  V30 8 1 19 11
M  V30 9 1 19 13
M  V30 10 1 20 6
M  V30 11 1 20 16
M  V30 12 1 21 15
M  V30 13 1 21 18
M  V30 14 1 22 13
M  V30 15 1 24 17
M  V30 16 1 25 2
M  V30 17 2 26 7
M  V30 18 1 27 2
M  V30 19 1 27 12
M  V30 20 1 28 4
M  V30 21 1 29 16
M  V30 22 1 30 14
M  V30 23 1 30 28
M  V30 24 2 31 24
M  V30 25 1 31 26
M  V30 26 1 32 13
M  V30 27 1 32 30
M  V30 28 1 33 9
M  V30 29 1 33 12
M  V30 30 1 33 27
M  V30 31 1 34 23
M  V30 32 1 35 9
M  V30 33 1 36 16
M  V30 34 1 36 17
M  V30 35 1 36 34
M  V30 36 1 37 23
M  V30 37 1 37 25
M  V30 38 1 37 35
M  V30 39 1 38 11
M  V30 40 1 38 18
M  V30 41 1 39 1
M  V30 42 1 39 3
M  V30 43 1 39 5
M  V30 44 1 40 1
M  V30 45 1 41 1
M  V30 46 1 42 1
M  V30 47 1 2 43 CFG=1
M  V30 48 1 44 3
M  V30 49 1 45 3
M  V30 50 1 46 4
M  V30 51 1 47 5
M  V30 52 1 48 5
M  V30 53 1 49 5
M  V30 54 1 50 7
M  V30 55 1 51 8
M  V30 56 1 52 9
M  V30 57 1 53 9
M  V30 58 1 54 10
M  V30 59 1 55 10
M  V30 60 1 56 10
M  V30 61 1 12 57 CFG=1
M  V30 62 1 13 58 CFG=1
M  V30 63 1 59 14
M  V30 64 1 60 14
M  V30 65 1 61 15
M  V30 66 1 16 62 CFG=1
M  V30 67 1 17 63 CFG=3
M  V30 68 1 64 18
M  V30 69 1 65 18
M  V30 70 1 19 66 CFG=1
M  V30 71 1 67 21
M  V30 72 1 68 21
M  V30 73 1 69 22
M  V30 74 1 70 23
M  V30 75 1 71 24
M  V30 76 1 72 25
M  V30 77 1 73 25
M  V30 78 1 74 26
M  V30 79 1 75 28
M  V30 80 1 76 28
M  V30 81 1 77 29
M  V30 82 1 30 78 CFG=3
M  V30 83 1 79 31
M  V30 84 1 80 32
M  V30 85 1 33 81 CFG=1
M  V30 86 1 82 34
M  V30 87 1 83 34
M  V30 88 1 84 35
M  V30 89 1 85 35
M  V30 90 1 36 86 CFG=3
M  V30 91 1 37 87 CFG=3
M  V30 92 1 88 38
M  V30 93 1 89 39
M  V30 94 1 90 15
M  V30 95 1 91 38
M  V30 96 1 92 23
M  V30 97 1 93 32
M  V30 98 1 27 94 CFG=3
M  V30 END BOND
M  V30 END CTAB
M  END
>  <i_epik_Tot_Q>  (1) 
5

>  <i_epik_Tot_abs_Q>  (1) 
5

>  <i_i_glide_confnum>  (1) 
1618

>  <i_i_glide_lignum>  (1) 
38

>  <i_i_glide_posenum>  (1) 
183

>  <i_i_glide_rotatable_bonds>  (1) 
15

>  <i_lp_mmshare_version>  (1) 
72125

>  <i_m_source_file_index>  (1) 
18

>  <i_f3d_flags>  (1) 
0

>  <num_sample>  (1) 
50

>  <b_lp_Chiralities_Consistent>  (1) 
1

>  <r_epik_Charging_Adjusted_Penalty>  (1) 
1.9019841067917955

>  <r_epik_Ionization_Penalty>  (1) 
1.8906488358708171

>  <r_epik_Ionization_Penalty_Charging>  (1) 
0.55913698057276895

>  <r_epik_Ionization_Penalty_Neutral>  (1) 
1.3315118552980483

>  <r_epik_State_Penalty>  (1) 
1.3428471262190267

>  <r_glide_ring_energy>  (1) 
0.0045750838620950583

>  <r_i_docking_score>  (1) 
-7.1417317617940146

>  <r_i_glide_ecoul>  (1) 
-10.518610850324954

>  <r_i_glide_eff_state_penalty>  (1) 
1.3428471262190267

>  <r_i_glide_einternal>  (1) 
20.493583869252905

>  <r_i_glide_emodel>  (1) 
-85.446367432788591

>  <r_i_glide_emodel_strain>  (1) 
1.3118737511212828

>  <r_i_glide_energy>  (1) 
-54.916488592874707

>  <r_i_glide_erotb>  (1) 
0.55832093698931284

>  <r_i_glide_esite>  (1) 
-0.11163719352823405

>  <r_i_glide_evdw>  (1) 
-44.397877742549753

>  <r_i_glide_gscore>  (1) 
-8.4845788880130417

>  <r_i_glide_gscore_strain>  (1) 
0

>  <r_i_glide_hbond>  (1) 
0

>  <r_i_glide_ligand_efficiency>  (1) 
-0.18312132722548755

>  <r_i_glide_ligand_efficiency_ln>  (1) 
-1.5313900198405301

>  <r_i_glide_ligand_efficiency_sa>  (1) 
-0.62100314034701509

>  <r_i_glide_lipo>  (1) 
-3.9859152679581213

>  <r_i_glide_metal>  (1) 
-0

>  <r_i_glide_rewards>  (1) 
-1.1476618488397683

>  <r_lp_Energy>  (1) 
94.296559999999999

>  <s_epik_Chemistry_Notes>  (1) 
This compound contains an acetal/aminal-like group ( X-CH(R)-Y where X, Y are N, S, or O) that may be acid/base labile, releasing an aldehyde.

>  <s_epik_cmdline>  (1) 
J2VwaWtfcHl0aG9uJywgJy1waHQnLCAnMS4wJywgJy1waCcsICc3LjQnLCAnLXRuJywgJzgnLCAnLW1hJywgJzUwMCcsICctaW1hZScsICc8aW5maWxlLm1hZT4nLCAnLW9tYWUnLCAnPG91dGZpbGUubWFlPic=

>  <s_epik_input>  (1) 
W05IXTFbQ0gyXVtDSDJdW05IXU4xW0NAQEhdKFtDSDJdW0NIXShbQ0gzXSlbQ0gzXSlbQ0BASF0oW09IXSlbTkhdW0NASF0oW0NIMl1bT0hdKVtDSDJdW0NAQEhdMltDSDJdW0NASF0oW0NIMl1bQ0gyXVtDQEBIXShOMjMpW0NIXTNbQ0gzXSlbTkhdW0NIMl1bQ0BASF0oW0NASF0oTzQpW1NIXSlbQ0BIXShDND01KVtDSF09W0NIXVtDSF09W0NIXVtDSF01

>  <s_glide_docking_method>  (1) 
confgen

>  <s_i_glide_gridfile>  (1) 
gpcr_5ht2c_6bqh_protein_autoprepared_prepared

>  <s_lp_Force_Field>  (1) 
S-OPLS

>  <s_lp_Variant>  (1) 
DiffSBDD_17-5

>  <s_m_source_file>  (1) 
generated_GPCR_5HT2C_ligand_DiffSBDD_2026-06-23_prepared.sdf

>  <GenAI_Model>  (1) 
DiffSBDD

>  <Protein>  (1) 
GPCR_5HT2C

$$$$
DiffSBDD_17
     RDKit          3D

  0  0  0  0  0  0  0  0  0  0999 V3000
M  V30 BEGIN CTAB
M  V30 COUNTS 93 97 0 0 1
M  V30 BEGIN ATOM
M  V30 1 C 40.045165 30.831092 55.066903 0
M  V30 2 C 38.581313 32.244446 60.095101 0 CFG=2
M  V30 3 C 38.259004 29.566713 56.384353 0
M  V30 4 O 40.047681 29.325148 62.765279 0
M  V30 5 C 37.620905 31.205808 54.584562 0
M  V30 6 C 41.606731 33.059614 66.538867 0
M  V30 7 C 41.388683 30.589193 66.830145 0
M  V30 8 C 41.580902 31.961872 67.299869 0
M  V30 9 C 37.258203 35.221006 60.923012 0
M  V30 10 C 34.854707 33.056042 60.007973 0
M  V30 11 N 38.951904 27.193217 56.189011 0
M  V30 12 C 36.246723 33.150600 59.421327 0 CFG=2
M  V30 13 C 39.034284 28.351022 58.507047 0 CFG=1
M  V30 14 C 38.520898 30.807244 60.679939 0
M  V30 15 N 37.672012 26.541581 56.503265 0 CHG=1
M  V30 16 C 41.717283 35.308022 66.134347 0 CFG=2
M  V30 17 C 41.358671 33.139397 65.080848 0 CFG=2
M  V30 18 C 39.429812 24.919603 56.362960 0
M  V30 19 C 39.156207 28.442876 56.947229 0 CFG=2
M  V30 20 O 41.819423 34.278847 67.101163 0
M  V30 21 C 37.979905 25.134941 56.821076 0
M  V30 22 O 39.604316 27.237468 58.881385 0 CHG=-1
M  V30 23 N 40.816726 34.519414 62.386693 0 CHG=1
M  V30 24 C 42.047176 32.152111 64.197165 0
M  V30 25 C 39.754955 33.150194 60.609518 0
M  V30 26 C 41.628438 30.099317 65.580508 0
M  V30 27 N 37.302617 32.932285 60.383343 0 CFG=2 CHG=1
M  V30 28 C 39.790881 28.729619 61.513602 0
M  V30 29 S 40.326508 36.424370 66.478241 0
M  V30 30 C 39.746105 29.858685 60.470270 0 CFG=1
M  V30 31 C 42.129851 30.831168 64.409367 0
M  V30 32 N 39.945470 29.353020 59.084162 0 CHG=1
M  V30 33 C 37.227945 34.246584 59.770043 0 CFG=2
M  V30 34 C 40.783093 35.254805 63.674125 0
M  V30 35 C 38.709372 35.420821 61.411620 0
M  V30 36 C 41.691870 34.603263 64.749205 0 CFG=1
M  V30 37 C 39.501743 34.128756 61.809795 0 CFG=2
M  V30 38 N 40.045077 26.253203 56.435860 0 CHG=1
M  V30 39 C 38.663078 30.164248 55.021295 0
M  V30 40 H 40.081550 31.592829 55.844907 0
M  V30 41 H 40.844654 30.116086 55.246952 0
M  V30 42 H 40.277943 31.316889 54.118510 0
M  V30 43 H 38.691468 32.140182 59.014701 0
M  V30 44 H 37.240682 29.203570 56.322153 0
M  V30 45 H 38.224678 30.390071 57.099103 0
M  V30 46 H 39.463256 28.937268 63.414860 0
M  V30 47 H 37.423641 31.922863 55.384075 0
M  V30 48 H 37.971666 31.778884 53.728478 0
M  V30 49 H 36.668966 30.741581 54.323609 0
M  V30 50 H 41.077692 29.868584 67.573390 0
M  V30 51 H 41.717519 32.100216 68.363753 0
M  V30 52 H 36.609494 34.897378 61.739550 0
M  V30 53 H 36.858863 36.176305 60.581434 0
M  V30 54 H 34.143727 33.550123 59.342799 0
M  V30 55 H 34.565996 32.009301 60.103468 0
M  V30 56 H 34.791859 33.528592 60.986439 0
M  V30 57 H 36.445133 32.520783 58.567117 0
M  V30 58 H 38.008209 28.602747 58.778999 0
M  V30 59 H 37.619461 30.310932 60.317257 0
M  V30 60 H 38.354945 30.927094 61.751003 0
M  V30 61 H 37.265146 27.018575 57.298176 0
M  V30 62 H 42.612223 35.925582 66.204270 0
M  V30 63 H 40.288929 32.972079 64.946050 0
M  V30 64 H 39.447794 24.580290 55.324176 0
M  V30 65 H 39.958032 24.186724 56.974478 0
M  V30 66 H 40.187995 28.719236 56.736721 0
M  V30 67 H 37.274076 24.450190 56.348750 0
M  V30 68 H 37.899167 25.010229 57.902131 0
M  V30 69 H 41.330832 33.668125 62.560930 0
M  V30 70 H 42.466697 32.549838 63.286047 0
M  V30 71 H 40.632373 32.540110 60.814124 0
M  V30 72 H 40.044981 33.777251 59.767380 0
M  V30 73 H 41.483071 29.035963 65.451021 0
M  V30 74 H 40.596781 28.027236 61.299970 0
M  V30 75 H 38.863650 28.159634 61.545337 0
M  V30 76 H 40.858695 37.450414 65.796296 0
M  V30 77 H 40.655658 30.429619 60.639286 0
M  V30 78 H 42.605987 30.243586 63.637295 0
M  V30 79 H 39.966747 30.139317 58.453079 0
M  V30 80 H 37.964347 34.431701 58.989328 0
M  V30 81 H 41.110476 36.278771 63.485103 0
M  V30 82 H 39.758610 35.339137 64.025864 0
M  V30 83 H 38.654695 36.112929 62.252419 0
M  V30 84 H 39.269156 35.955218 60.642500 0
M  V30 85 H 42.719298 34.632738 64.381415 0
M  V30 86 H 38.962546 33.585089 62.587416 0
M  V30 87 H 40.804113 26.415748 55.789032 0
M  V30 88 H 38.684776 29.372547 54.270329 0
M  V30 89 H 37.091003 26.622338 55.678345 0
M  V30 90 H 40.303043 26.460110 57.408074 0
M  V30 91 H 41.330729 35.074961 61.716398 0
M  V30 92 H 40.846075 28.892857 59.065160 0
M  V30 93 H 36.998708 32.958080 61.345305 0
M  V30 END ATOM
M  V30 BEGIN BOND
M  V30 1 2 8 6
M  V30 2 1 8 7
M  V30 3 1 12 10
M  V30 4 1 14 2
M  V30 5 1 15 11
M  V30 6 1 17 6
M  V30 7 1 19 3
M  V30 8 1 19 11
M  V30 9 1 19 13
M  V30 10 1 20 6
M  V30 11 1 20 16
M  V30 12 1 21 15
M  V30 13 1 21 18
M  V30 14 1 22 13
M  V30 15 1 24 17
M  V30 16 1 25 2
M  V30 17 2 26 7
M  V30 18 1 27 2
M  V30 19 1 27 12
M  V30 20 1 28 4
M  V30 21 1 29 16
M  V30 22 1 30 14
M  V30 23 1 30 28
M  V30 24 2 31 24
M  V30 25 1 31 26
M  V30 26 1 32 13
M  V30 27 1 32 30
M  V30 28 1 33 9
M  V30 29 1 33 12
M  V30 30 1 33 27
M  V30 31 1 34 23
M  V30 32 1 35 9
M  V30 33 1 36 16
M  V30 34 1 36 17
M  V30 35 1 36 34
M  V30 36 1 37 23
M  V30 37 1 37 25
M  V30 38 1 37 35
M  V30 39 1 38 11
M  V30 40 1 38 18
M  V30 41 1 39 1
M  V30 42 1 39 3
M  V30 43 1 39 5
M  V30 44 1 40 1
M  V30 45 1 41 1
M  V30 46 1 42 1
M  V30 47 1 2 43 CFG=3
M  V30 48 1 44 3
M  V30 49 1 45 3
M  V30 50 1 46 4
M  V30 51 1 47 5
M  V30 52 1 48 5
M  V30 53 1 49 5
M  V30 54 1 50 7
M  V30 55 1 51 8
M  V30 56 1 52 9
M  V30 57 1 53 9
M  V30 58 1 54 10
M  V30 59 1 55 10
M  V30 60 1 56 10
M  V30 61 1 12 57 CFG=3
M  V30 62 1 13 58 CFG=3
M  V30 63 1 59 14
M  V30 64 1 60 14
M  V30 65 1 61 15
M  V30 66 1 16 62 CFG=3
M  V30 67 1 17 63 CFG=1
M  V30 68 1 64 18
M  V30 69 1 65 18
M  V30 70 1 19 66 CFG=1
M  V30 71 1 67 21
M  V30 72 1 68 21
M  V30 73 1 69 23
M  V30 74 1 70 24
M  V30 75 1 71 25
M  V30 76 1 72 25
M  V30 77 1 73 26
M  V30 78 1 74 28
M  V30 79 1 75 28
M  V30 80 1 76 29
M  V30 81 1 30 77 CFG=1
M  V30 82 1 78 31
M  V30 83 1 79 32
M  V30 84 1 33 80 CFG=3
M  V30 85 1 81 34
M  V30 86 1 82 34
M  V30 87 1 83 35
M  V30 88 1 84 35
M  V30 89 1 36 85 CFG=3
M  V30 90 1 37 86 CFG=1
M  V30 91 1 87 38
M  V30 92 1 88 39
M  V30 93 1 89 15
M  V30 94 1 90 38
M  V30 95 1 91 23
M  V30 96 1 92 32
M  V30 97 1 27 93 CFG=1
M  V30 END BOND
M  V30 END CTAB
M  END
>  <i_epik_Tot_Q>  (1) 
4

>  <i_epik_Tot_abs_Q>  (1) 
6

>  <i_i_glide_confnum>  (1) 
3618

>  <i_i_glide_lignum>  (1) 
36

>  <i_i_glide_posenum>  (1) 
262

>  <i_i_glide_rotatable_bonds>  (1) 
14

>  <i_lp_mmshare_version>  (1) 
72125

>  <i_m_source_file_index>  (1) 
18

>  <i_f3d_flags>  (1) 
0

>  <num_sample>  (1) 
50

>  <b_lp_Chiralities_Consistent>  (1) 
1

>  <r_epik_Charging_Adjusted_Penalty>  (1) 
1.4553498192604928

>  <r_epik_Ionization_Penalty>  (1) 
1.1481457817152785

>  <r_epik_Ionization_Penalty_Charging>  (1) 
0.48043644912001532

>  <r_epik_Ionization_Penalty_Neutral>  (1) 
0.66770933259526311

>  <r_epik_State_Penalty>  (1) 
0.97491337014047741

>  <r_glide_ring_energy>  (1) 
0.0045750838620950583

>  <r_i_docking_score>  (1) 
-7.138152984477335

>  <r_i_glide_ecoul>  (1) 
-7.3068867236728687

>  <r_i_glide_eff_state_penalty>  (1) 
0.97491337014047741

>  <r_i_glide_einternal>  (1) 
15.900068275050369

>  <r_i_glide_emodel>  (1) 
-79.819129363213534

>  <r_i_glide_emodel_strain>  (1) 
3.1741165549110377

>  <r_i_glide_energy>  (1) 
-53.744151875055721

>  <r_i_glide_erotb>  (1) 
0.56146573491919982

>  <r_i_glide_esite>  (1) 
-0.0029529108594102504

>  <r_i_glide_evdw>  (1) 
-46.437265151382853

>  <r_i_glide_gscore>  (1) 
-8.1130663546178123

>  <r_i_glide_gscore_strain>  (1) 
0

>  <r_i_glide_hbond>  (1) 
-0.60799999999999998

>  <r_i_glide_ligand_efficiency>  (1) 
-0.18302956370454707

>  <r_i_glide_ligand_efficiency_ln>  (1) 
-1.5306226283941986

>  <r_i_glide_ligand_efficiency_sa>  (1) 
-0.62069195084475048

>  <r_i_glide_lipo>  (1) 
-3.6625652743888462

>  <r_i_glide_metal>  (1) 
-0

>  <r_i_glide_rewards>  (1) 
-0.98311763816868458

>  <r_lp_Energy>  (1) 
77.88823699999999

>  <s_epik_Chemistry_Notes>  (1) 
This compound contains an acetal/aminal-like group ( X-CH(R)-Y where X, Y are N, S, or O) that may be acid/base labile, releasing an aldehyde.

>  <s_epik_cmdline>  (1) 
J2VwaWtfcHl0aG9uJywgJy1waHQnLCAnMS4wJywgJy1waCcsICc3LjQnLCAnLXRuJywgJzgnLCAnLW1hJywgJzUwMCcsICctaW1hZScsICc8aW5maWxlLm1hZT4nLCAnLW9tYWUnLCAnPG91dGZpbGUubWFlPic=

>  <s_epik_input>  (1) 
W05IXTFbQ0gyXVtDSDJdW05IXU4xW0NAQEhdKFtDSDJdW0NIXShbQ0gzXSlbQ0gzXSlbQ0BASF0oW09IXSlbTkhdW0NASF0oW0NIMl1bT0hdKVtDSDJdW0NAQEhdMltDSDJdW0NASF0oW0NIMl1bQ0gyXVtDQEBIXShOMjMpW0NIXTNbQ0gzXSlbTkhdW0NIMl1bQ0BASF0oW0NASF0oTzQpW1NIXSlbQ0BIXShDND01KVtDSF09W0NIXVtDSF09W0NIXVtDSF01

>  <s_glide_docking_method>  (1) 
confgen

>  <s_i_glide_gridfile>  (1) 
gpcr_5ht2c_6bqh_protein_autoprepared_prepared

>  <s_lp_Force_Field>  (1) 
S-OPLS

>  <s_lp_Variant>  (1) 
DiffSBDD_17-3

>  <s_m_source_file>  (1) 
generated_GPCR_5HT2C_ligand_DiffSBDD_2026-06-23_prepared.sdf

>  <GenAI_Model>  (1) 
DiffSBDD

>  <Protein>  (1) 
GPCR_5HT2C

$$$$
DiffSBDD_21
     RDKit          3D

  0  0  0  0  0  0  0  0  0  0999 V3000
M  V30 BEGIN CTAB
M  V30 COUNTS 51 54 0 0 1
M  V30 BEGIN ATOM
M  V30 1 C 39.981177 29.664376 51.205547 0
M  V30 2 C 38.582322 31.610853 56.448996 0
M  V30 3 N 37.683340 31.264629 58.718956 0
M  V30 4 C 38.745803 32.021275 59.400138 0 CFG=2
M  V30 5 C 36.838405 30.408937 59.551450 0 CFG=1
M  V30 6 C 37.899742 29.374223 57.117951 0
M  V30 7 C 38.845044 27.918022 53.090270 0
M  V30 8 C 38.532519 32.189964 60.909546 0 CFG=2
M  V30 9 C 38.754302 29.765810 54.840308 0
M  V30 10 C 38.921524 31.132272 55.176619 0
M  V30 11 C 36.174917 31.282227 60.649730 0
M  V30 12 C 39.672619 30.132585 52.494861 0
M  V30 13 C 40.590157 30.600874 50.190074 0
M  V30 14 C 39.160068 27.465142 51.798125 0
M  V30 15 F 39.645853 31.404213 49.708791 0
M  V30 16 C 39.721759 28.335054 50.860132 0
M  V30 17 C 37.045133 32.435573 61.197235 0
M  V30 18 C 38.060136 30.745777 57.433730 0
M  V30 19 O 35.714850 29.846601 58.914460 0
M  V30 20 C 39.354800 34.320513 60.084363 0
M  V30 21 C 39.095173 29.266663 53.466633 0
M  V30 22 C 39.337963 34.009886 62.582610 0
M  V30 23 C 39.507213 33.338134 61.232296 0 CFG=1
M  V30 24 C 38.244185 28.890399 55.839163 0
M  V30 25 C 39.000214 33.449854 58.884919 0
M  V30 26 H 38.693980 32.656298 56.649422 0
M  V30 27 H 39.645139 31.416470 59.367351 0
M  V30 28 H 37.444295 29.623248 60.003887 0
M  V30 29 H 37.514758 28.684875 57.851648 0
M  V30 30 H 38.408421 27.227175 53.789066 0
M  V30 31 H 38.836833 31.292601 61.450812 0
M  V30 32 H 39.298187 31.827209 54.450199 0
M  V30 33 H 35.253507 31.735285 60.275997 0
M  V30 34 H 35.855381 30.624437 61.446827 0
M  V30 35 H 39.881088 31.159389 52.731453 0
M  V30 36 H 41.356837 31.227505 50.639947 0
M  V30 37 H 41.032995 30.063528 49.353005 0
M  V30 38 H 38.966094 26.445302 51.526886 0
M  V30 39 H 39.956124 27.981825 49.870917 0
M  V30 40 H 36.862684 32.579055 62.259220 0
M  V30 41 H 36.738376 33.363013 60.711968 0
M  V30 42 H 35.535207 30.393322 58.148345 0
M  V30 43 H 38.533058 35.012543 60.273357 0
M  V30 44 H 40.248932 34.924987 59.923268 0
M  V30 45 H 38.457917 34.653597 62.565805 0
M  V30 46 H 40.196346 34.643465 62.808834 0
M  V30 47 H 39.247890 33.260851 63.369028 0
M  V30 48 H 40.519363 32.929183 61.181453 0
M  V30 49 H 38.110306 27.845649 55.626761 0
M  V30 50 H 39.825777 33.458342 58.179319 0
M  V30 51 H 38.112959 33.854705 58.394591 0
M  V30 END ATOM
M  V30 BEGIN BOND
M  V30 1 1 4 3
M  V30 2 1 5 3
M  V30 3 1 8 4
M  V30 4 2 10 2
M  V30 5 1 10 9
M  V30 6 1 11 5
M  V30 7 2 12 1
M  V30 8 1 13 1
M  V30 9 1 14 7
M  V30 10 1 15 13
M  V30 11 1 16 1
M  V30 12 2 16 14
M  V30 13 1 17 8
M  V30 14 1 17 11
M  V30 15 1 18 2
M  V30 16 1 18 3
M  V30 17 2 18 6
M  V30 18 1 19 5
M  V30 19 2 21 7
M  V30 20 1 21 9
M  V30 21 1 21 12
M  V30 22 1 23 8
M  V30 23 1 23 20
M  V30 24 1 23 22
M  V30 25 1 24 6
M  V30 26 2 24 9
M  V30 27 1 25 4
M  V30 28 1 25 20
M  V30 29 1 26 2
M  V30 30 1 4 27 CFG=1
M  V30 31 1 5 28 CFG=1
M  V30 32 1 29 6
M  V30 33 1 30 7
M  V30 34 1 8 31 CFG=1
M  V30 35 1 32 10
M  V30 36 1 33 11
M  V30 37 1 34 11
M  V30 38 1 35 12
M  V30 39 1 36 13
M  V30 40 1 37 13
M  V30 41 1 38 14
M  V30 42 1 39 16
M  V30 43 1 40 17
M  V30 44 1 41 17
M  V30 45 1 42 19
M  V30 46 1 43 20
M  V30 47 1 44 20
M  V30 48 1 45 22
M  V30 49 1 46 22
M  V30 50 1 47 22
M  V30 51 1 23 48 CFG=1
M  V30 52 1 49 24
M  V30 53 1 50 25
M  V30 54 1 51 25
M  V30 END BOND
M  V30 END CTAB
M  END
>  <i_epik_Tot_Q>  (1) 
0

>  <i_epik_Tot_abs_Q>  (1) 
0

>  <i_i_glide_confnum>  (1) 
6

>  <i_i_glide_lignum>  (1) 
48

>  <i_i_glide_posenum>  (1) 
380

>  <i_i_glide_rotatable_bonds>  (1) 
4

>  <i_lp_mmshare_version>  (1) 
72125

>  <i_m_source_file_index>  (1) 
22

>  <i_f3d_flags>  (1) 
0

>  <num_sample>  (1) 
50

>  <b_lp_Chiralities_Consistent>  (1) 
1

>  <r_epik_Charging_Adjusted_Penalty>  (1) 
0.0079594303855521683

>  <r_epik_Ionization_Penalty>  (1) 
0.0041828556717972551

>  <r_epik_Ionization_Penalty_Charging>  (1) 
0

>  <r_epik_Ionization_Penalty_Neutral>  (1) 
0.0041828556717972551

>  <r_epik_State_Penalty>  (1) 
0.0079594303855521683

>  <r_glide_ring_energy>  (1) 
0

>  <r_i_docking_score>  (1) 
-7.1378469903851487

>  <r_i_glide_ecoul>  (1) 
-1.5763280756817613

>  <r_i_glide_eff_state_penalty>  (1) 
0.0079594303855521683

>  <r_i_glide_einternal>  (1) 
0.79112901340263875

>  <r_i_glide_emodel>  (1) 
-44.880873915839082

>  <r_i_glide_emodel_strain>  (1) 
3.2875999141144661

>  <r_i_glide_energy>  (1) 
-32.925196303500122

>  <r_i_glide_erotb>  (1) 
0.3284693713347695

>  <r_i_glide_esite>  (1) 
-0.1386816166674997

>  <r_i_glide_evdw>  (1) 
-31.348868227818365

>  <r_i_glide_gscore>  (1) 
-7.1458064207707013

>  <r_i_glide_gscore_strain>  (1) 
0

>  <r_i_glide_hbond>  (1) 
-0.16

>  <r_i_glide_ligand_efficiency>  (1) 
-0.28551387961540597

>  <r_i_glide_ligand_efficiency_ln>  (1) 
-1.6918836407345876

>  <r_i_glide_ligand_efficiency_sa>  (1) 
-0.8348476485014199

>  <r_i_glide_lipo>  (1) 
-2.9270903254220597

>  <r_i_glide_metal>  (1) 
-0

>  <r_i_glide_rewards>  (1) 
-2.4446112272727278

>  <r_lp_Energy>  (1) 
58.552322999999994

>  <s_epik_Chemistry_Notes>  (1) 
This compound contains an acetal/aminal-like group ( X-CH(R)-Y where X, Y are N, S, or O) that may be acid/base labile, releasing an aldehyde.

>  <s_epik_cmdline>  (1) 
J2VwaWtfcHl0aG9uJywgJy1waHQnLCAnMS4wJywgJy1waCcsICc3LjQnLCAnLXRuJywgJzgnLCAnLW1hJywgJzUwMCcsICctaW1hZScsICc8aW5maWxlLm1hZT4nLCAnLW9tYWUnLCAnPG91dGZpbGUubWFlPic=

>  <s_epik_input>  (1) 
RltDSDJdYzFbY0hdYyhbY0hdW2NIXVtjSF0xKS1jMltjSF1bY0hdYyhbY0hdW2NIXTIpTjNbQ0BIXShbT0hdKVtDSDJdW0NIMl1bQ0BASF0oW0NAQEhdMzQpW0NASF0oW0NIM10pW0NIMl1bQ0gyXTQ=

>  <s_glide_docking_method>  (1) 
confgen

>  <s_i_glide_gridfile>  (1) 
gpcr_5ht2c_6bqh_protein_autoprepared_prepared

>  <s_lp_Force_Field>  (1) 
S-OPLS

>  <s_lp_Variant>  (1) 
DiffSBDD_21-1

>  <s_m_source_file>  (1) 
generated_GPCR_5HT2C_ligand_DiffSBDD_2026-06-23_prepared.sdf

>  <GenAI_Model>  (1) 
DiffSBDD

>  <Protein>  (1) 
GPCR_5HT2C

$$$$
DiffSBDD_16
     RDKit          3D

  0  0  0  0  0  0  0  0  0  0999 V3000
M  V30 BEGIN CTAB
M  V30 COUNTS 73 79 0 0 1
M  V30 BEGIN ATOM
M  V30 1 C 36.636238 31.109601 60.370994 0
M  V30 2 C 41.008474 30.063495 62.729556 0
M  V30 3 C 38.978283 30.544803 56.039805 0 CFG=2
M  V30 4 C 37.873234 32.767087 61.895200 0 CFG=2
M  V30 5 C 39.721321 29.629169 58.440641 0
M  V30 6 C 41.043896 35.100387 66.497502 0
M  V30 7 C 38.941165 29.595599 52.967755 0 CFG=2
M  V30 8 N 38.748414 28.322577 53.730372 0
M  V30 9 C 37.792099 29.637675 55.640174 0 CFG=1
M  V30 10 F 34.640177 31.737759 59.367760 0
M  V30 11 C 35.855389 33.414419 60.559298 0
M  V30 12 C 40.966498 34.119039 64.128377 0 CFG=2
M  V30 13 C 36.859099 33.765634 61.367762 0
M  V30 14 O 40.990696 28.852724 62.529887 0
M  V30 15 C 39.236991 27.056381 51.563380 0
M  V30 16 C 39.170930 27.055586 53.089967 0
M  V30 17 C 39.213988 29.462014 51.453534 0
M  V30 18 O 39.175345 33.259373 62.103376 0
M  V30 19 O 36.791295 30.351858 54.953333 0
M  V30 20 C 38.203738 28.293307 54.981665 0
M  V30 21 C 35.711461 32.056097 60.098930 0
M  V30 22 C 41.456234 35.520798 63.774354 0 CFG=1
M  V30 23 C 40.045136 35.250709 63.694732 0 CFG=2
M  V30 24 C 40.269905 36.336368 65.946628 0
M  V30 25 C 40.186621 30.522961 55.082463 0
M  V30 26 C 40.098133 32.343214 62.547971 0
M  V30 27 C 40.952414 33.810174 65.622484 0
M  V30 28 C 39.423475 30.136701 57.375787 0
M  V30 29 C 38.853835 29.146770 60.717649 0
M  V30 30 C 37.814728 31.424940 61.191212 0
M  V30 31 C 38.845110 30.550483 61.373021 0
M  V30 32 C 40.445141 36.476720 64.439850 0 CFG=1
M  V30 33 O 38.045138 27.242116 55.604552 0
M  V30 34 C 40.023676 28.250674 51.061845 0
M  V30 35 N 41.114455 32.893848 63.335536 0
M  V30 36 C 39.874274 30.656901 53.595636 0
M  V30 37 C 39.995461 28.947499 59.704564 0
M  V30 38 C 39.980532 31.024969 62.211094 0
M  V30 39 H 36.489121 30.121430 59.981474 0
M  V30 40 H 41.799583 30.521644 63.321792 0
M  V30 41 H 38.623631 31.571229 56.144470 0
M  V30 42 H 37.507004 32.537757 62.893940 0
M  V30 43 H 40.731631 34.884635 67.519284 0
M  V30 44 H 42.096333 35.379425 66.566059 0
M  V30 45 H 37.969069 30.055177 52.967826 0
M  V30 46 H 37.246130 29.352196 56.543227 0
M  V30 47 H 35.144470 34.161431 60.237599 0
M  V30 48 H 36.955519 34.788574 61.700346 0
M  V30 49 H 39.681910 26.137756 51.209439 0
M  V30 50 H 38.227392 27.063894 51.149726 0
M  V30 51 H 40.142290 26.777605 53.496595 0
M  V30 52 H 38.493322 26.248281 53.373009 0
M  V30 53 H 39.647175 30.372831 51.038554 0
M  V30 54 H 38.251501 29.337757 50.967765 0
M  V30 55 H 36.399675 30.980496 55.559855 0
M  V30 56 H 41.901873 35.747457 62.808283 0
M  V30 57 H 39.680230 35.383745 62.680257 0
M  V30 58 H 39.205722 36.234471 66.162257 0
M  V30 59 H 40.604597 37.246387 66.444806 0
M  V30 60 H 40.775537 29.617740 55.231510 0
M  V30 61 H 40.845138 31.349403 55.346111 0
M  V30 62 H 40.045147 33.255334 65.853629 0
M  V30 63 H 41.785344 33.148981 65.866069 0
M  V30 64 H 37.961233 28.870058 60.167760 0
M  V30 65 H 38.896218 28.390247 61.500823 0
M  V30 66 H 40.096249 37.397037 63.974473 0
M  V30 67 H 41.023793 28.294613 51.490361 0
M  V30 68 H 40.125961 28.209403 49.978381 0
M  V30 69 H 41.834859 32.265888 63.660082 0
M  V30 70 H 40.825709 30.661023 53.068382 0
M  V30 71 H 39.448292 31.644054 53.411507 0
M  V30 72 H 40.106758 27.886151 59.479181 0
M  V30 73 H 40.963264 29.296139 60.058050 0
M  V30 END ATOM
M  V30 BEGIN BOND
M  V30 1 1 8 7
M  V30 2 1 9 3
M  V30 3 1 13 4
M  V30 4 2 13 11
M  V30 5 2 14 2
M  V30 6 1 16 8
M  V30 7 1 16 15
M  V30 8 1 17 7
M  V30 9 1 18 4
M  V30 10 1 19 9
M  V30 11 1 20 8
M  V30 12 1 20 9
M  V30 13 2 21 1
M  V30 14 1 21 10
M  V30 15 1 21 11
M  V30 16 1 22 12
M  V30 17 1 23 12
M  V30 18 1 23 22
M  V30 19 1 24 6
M  V30 20 1 25 3
M  V30 21 1 26 18
M  V30 22 1 27 6
M  V30 23 1 27 12
M  V30 24 1 28 3
M  V30 25 3 28 5
M  V30 26 1 30 1
M  V30 27 1 30 4
M  V30 28 1 31 29
M  V30 29 2 31 30
M  V30 30 1 32 22
M  V30 31 1 32 23
M  V30 32 1 32 24
M  V30 33 2 33 20
M  V30 34 1 34 15
M  V30 35 1 34 17
M  V30 36 1 12 35 CFG=3
M  V30 37 1 35 26
M  V30 38 1 36 7
M  V30 39 1 36 25
M  V30 40 1 37 5
M  V30 41 1 37 29
M  V30 42 1 38 2
M  V30 43 2 38 26
M  V30 44 1 38 31
M  V30 45 1 39 1
M  V30 46 1 40 2
M  V30 47 1 3 41 CFG=1
M  V30 48 1 4 42 CFG=1
M  V30 49 1 43 6
M  V30 50 1 44 6
M  V30 51 1 7 45 CFG=3
M  V30 52 1 9 46 CFG=1
M  V30 53 1 47 11
M  V30 54 1 48 13
M  V30 55 1 49 15
M  V30 56 1 50 15
M  V30 57 1 51 16
M  V30 58 1 52 16
M  V30 59 1 53 17
M  V30 60 1 54 17
M  V30 61 1 55 19
M  V30 62 1 22 56 CFG=3
M  V30 63 1 23 57 CFG=3
M  V30 64 1 58 24
M  V30 65 1 59 24
M  V30 66 1 60 25
M  V30 67 1 61 25
M  V30 68 1 62 27
M  V30 69 1 63 27
M  V30 70 1 64 29
M  V30 71 1 65 29
M  V30 72 1 32 66 CFG=3
M  V30 73 1 67 34
M  V30 74 1 68 34
M  V30 75 1 69 35
M  V30 76 1 70 36
M  V30 77 1 71 36
M  V30 78 1 72 37
M  V30 79 1 73 37
M  V30 END BOND
M  V30 END CTAB
M  END
>  <i_epik_Tot_Q>  (1) 
0

>  <i_epik_Tot_abs_Q>  (1) 
0

>  <i_i_glide_confnum>  (1) 
11

>  <i_i_glide_lignum>  (1) 
33

>  <i_i_glide_posenum>  (1) 
226

>  <i_i_glide_rotatable_bonds>  (1) 
8

>  <i_lp_mmshare_version>  (1) 
72125

>  <i_m_source_file_index>  (1) 
17

>  <i_f3d_flags>  (1) 
0

>  <num_sample>  (1) 
50

>  <b_lp_Chiralities_Consistent>  (1) 
1

>  <r_epik_Charging_Adjusted_Penalty>  (1) 
0

>  <r_epik_Ionization_Penalty>  (1) 
0.0025850422907693063

>  <r_epik_Ionization_Penalty_Charging>  (1) 
0

>  <r_epik_Ionization_Penalty_Neutral>  (1) 
0.0025850422907693063

>  <r_epik_State_Penalty>  (1) 
-0

>  <r_glide_ring_energy>  (1) 
1.1523545681465099

>  <r_i_docking_score>  (1) 
-7.1364596580502795

>  <r_i_glide_ecoul>  (1) 
-1.2490542850329223

>  <r_i_glide_eff_state_penalty>  (1) 
-0

>  <r_i_glide_einternal>  (1) 
15.885688085276925

>  <r_i_glide_emodel>  (1) 
-44.450160106804361

>  <r_i_glide_emodel_strain>  (1) 
2.3119548647042478

>  <r_i_glide_energy>  (1) 
-45.900828701717117

>  <r_i_glide_erotb>  (1) 
0.45816569176433508

>  <r_i_glide_esite>  (1) 
-0.127544274233446

>  <r_i_glide_evdw>  (1) 
-44.651774416684198

>  <r_i_glide_gscore>  (1) 
-7.1364596580502795

>  <r_i_glide_gscore_strain>  (1) 
0

>  <r_i_glide_hbond>  (1) 
-0.16

>  <r_i_glide_ligand_efficiency>  (1) 
-0.18780156994869157

>  <r_i_glide_ligand_efficiency_ln>  (1) 
-1.538830635649328

>  <r_i_glide_ligand_efficiency_sa>  (1) 
-0.6313842595257364

>  <r_i_glide_lipo>  (1) 
-3.7032581934666582

>  <r_i_glide_metal>  (1) 
-0

>  <r_i_glide_rewards>  (1) 
-1.1838760185253614

>  <r_lp_Energy>  (1) 
67.772257999999994

>  <r_lp_tautomer_probability>  (1) 
1

>  <s_epik_cmdline>  (1) 
J2VwaWtfcHl0aG9uJywgJy1waHQnLCAnMS4wJywgJy1waCcsICc3LjQnLCAnLXRuJywgJzgnLCAnLW1hJywgJzUwMCcsICctaW1hZScsICc8aW5maWxlLm1hZT4nLCAnLW9tYWUnLCAnPG91dGZpbGUubWFlPic=

>  <s_epik_input>  (1) 
W0NIMl0xW0NIMl1bQ0gyXVtDQEBIXTJbQ0BIXTNbQ0BASF0yW0NAQF0xM1tOSF1DKE80KT1DKFtDSF09TylDKD1DKFtDQEhdNDUpW0NIXT1DKEYpW0NIXT1bQ0hdNSlbQ0gyXVtDSDJdQyNDW0NAQEhdKFtDSDJdW0NIMl02KVtDQEBIXShbT0hdKUMoPU8pTihbQ0BASF02NylbQ0gyXVtDSDJdW0NIMl1bQ0gyXTc=

>  <s_glide_docking_method>  (1) 
confgen

>  <s_i_glide_gridfile>  (1) 
gpcr_5ht2c_6bqh_protein_autoprepared_prepared

>  <s_lp_Force_Field>  (1) 
S-OPLS

>  <s_lp_Variant>  (1) 
DiffSBDD_16-2

>  <s_m_source_file>  (1) 
generated_GPCR_5HT2C_ligand_DiffSBDD_2026-06-23_prepared.sdf

>  <GenAI_Model>  (1) 
DiffSBDD

>  <Protein>  (1) 
GPCR_5HT2C

$$$$
DiffSBDD_34
     RDKit          3D

  0  0  0  0  0  0  0  0  0  0999 V3000
M  V30 BEGIN CTAB
M  V30 COUNTS 81 84 0 0 1
M  V30 BEGIN ATOM
M  V30 1 C 40.153229 27.519400 55.642450 0
M  V30 2 C 37.311496 35.062166 61.348807 0 CFG=1
M  V30 3 C 38.455349 29.738503 58.579746 0
M  V30 4 C 38.180045 28.258814 58.791739 0
M  V30 5 O 37.645733 31.959842 55.053729 0
M  V30 6 C 37.297790 33.497782 61.368305 0
M  V30 7 O 38.849351 32.060429 57.015115 0
M  V30 8 C 39.962173 31.401286 55.029336 0 CFG=1
M  V30 9 C 40.424622 27.483079 59.290873 0 CFG=2
M  V30 10 C 38.512619 35.585396 62.084725 0
M  V30 11 C 37.716482 32.015240 57.832696 0 CFG=2
M  V30 12 C 38.333999 28.318148 53.974961 0
M  V30 13 O 40.042444 25.305101 57.180828 0
M  V30 14 C 40.221222 29.930767 54.742238 0 CFG=2
M  V30 15 O 36.845213 29.807917 56.907058 0
M  V30 16 C 42.180171 28.089809 63.978059 0
M  V30 17 O 37.854987 26.385074 56.481316 0
M  V30 18 N 38.028935 32.653687 59.125803 0
M  V30 19 C 36.926690 32.708651 60.096779 0
M  V30 20 C 41.071108 28.779559 59.708246 0 CFG=1
M  V30 21 S 39.257034 26.513467 56.904457 0
M  V30 22 O 41.245218 28.809037 61.114429 0
M  V30 23 C 39.938419 30.901297 53.606495 0
M  V30 24 C 38.755373 27.205508 53.017486 0
M  V30 25 C 39.806317 35.182428 61.836895 0
M  V30 26 S 40.932031 35.974649 62.881649 0
M  V30 27 C 38.447384 36.562713 63.135364 0
M  V30 28 O 37.246147 28.875214 53.858181 0
M  V30 29 C 41.861046 27.778337 58.904523 0
M  V30 30 C 40.283453 29.556721 61.837441 0
M  V30 31 C 38.694405 31.832655 55.677934 0
M  V30 32 C 37.256655 35.750243 59.977097 0
M  V30 33 O 40.955453 28.799850 64.078041 0
M  V30 34 N 39.318102 27.486399 58.343235 0
M  V30 35 C 40.855318 29.925834 63.215923 0
M  V30 36 C 39.674458 36.871094 63.654937 0
M  V30 37 C 39.327242 28.720797 55.089038 0 CFG=2
M  V30 38 C 37.275394 30.511646 58.051644 0 CFG=1
M  V30 39 N 35.983592 35.562276 59.275236 0 CHG=1
M  V30 40 H 41.084117 27.841946 56.089275 0
M  V30 41 H 40.452487 26.828171 54.858721 0
M  V30 42 H 36.428259 35.388323 61.896579 0
M  V30 43 H 39.280072 29.859459 57.877974 0
M  V30 44 H 38.758145 30.175097 59.524453 0
M  V30 45 H 38.046097 28.076776 59.857401 0
M  V30 46 H 37.290779 27.905695 58.277590 0
M  V30 47 H 36.605225 33.200817 62.157277 0
M  V30 48 H 38.249759 33.101048 61.717264 0
M  V30 49 H 40.834282 31.953789 55.366008 0
M  V30 50 H 40.115549 26.937793 60.168639 0
M  V30 51 H 36.982715 32.659684 57.362640 0
M  V30 52 H 41.247734 29.737747 54.967751 0
M  V30 53 H 36.139613 30.359719 56.568660 0
M  V30 54 H 42.134213 27.216981 64.629888 0
M  V30 55 H 42.376642 27.738519 62.967595 0
M  V30 56 H 43.018025 28.716519 64.290765 0
M  V30 57 H 38.423503 33.571625 58.958564 0
M  V30 58 H 36.009659 33.073812 59.639273 0
M  V30 59 H 36.692448 31.696070 60.429045 0
M  V30 60 H 40.955467 29.737989 59.228900 0
M  V30 61 H 40.775387 31.156481 52.962188 0
M  V30 62 H 38.980697 30.854269 53.095187 0
M  V30 63 H 38.739692 26.239227 53.526349 0
M  V30 64 H 38.052470 27.152880 52.187835 0
M  V30 65 H 39.748999 27.397126 52.611864 0
M  V30 66 H 40.154074 34.462666 61.111978 0
M  V30 67 H 37.513260 36.991804 63.468562 0
M  V30 68 H 42.665084 27.229814 59.368508 0
M  V30 69 H 42.085015 28.074026 57.888525 0
M  V30 70 H 40.073180 30.484364 61.304942 0
M  V30 71 H 39.346986 29.007448 61.928512 0
M  V30 72 H 37.435237 36.823291 60.075037 0
M  V30 73 H 38.044821 35.343621 59.367814 0
M  V30 74 H 41.810777 30.449099 63.123353 0
M  V30 75 H 40.165742 30.624914 63.693750 0
M  V30 76 H 39.913066 37.565204 64.447942 0
M  V30 77 H 38.736866 29.044644 55.928395 0
M  V30 78 H 36.435061 30.471740 58.743034 0
M  V30 79 H 36.045466 35.938338 58.333666 0
M  V30 80 H 35.769669 34.579748 59.198441 0
M  V30 81 H 35.231900 36.026439 59.763823 0
M  V30 END ATOM
M  V30 BEGIN BOND
M  V30 1 1 4 3
M  V30 2 1 6 2
M  V30 3 1 10 2
M  V30 4 1 11 7
M  V30 5 1 14 8
M  V30 6 1 18 11
M  V30 7 1 19 6
M  V30 8 1 19 18
M  V30 9 1 20 9
M  V30 10 1 21 1
M  V30 11 2 21 13
M  V30 12 2 21 17
M  V30 13 1 22 20
M  V30 14 1 23 8
M  V30 15 1 23 14
M  V30 16 1 24 12
M  V30 17 2 25 10
M  V30 18 1 26 25
M  V30 19 1 27 10
M  V30 20 2 28 12
M  V30 21 1 29 9
M  V30 22 1 29 20
M  V30 23 1 30 22
M  V30 24 2 31 5
M  V30 25 1 31 7
M  V30 26 1 31 8
M  V30 27 1 32 2
M  V30 28 1 33 16
M  V30 29 1 34 4
M  V30 30 1 34 9
M  V30 31 1 34 21
M  V30 32 1 35 30
M  V30 33 1 35 33
M  V30 34 1 36 26
M  V30 35 2 36 27
M  V30 36 1 37 1
M  V30 37 1 37 12
M  V30 38 1 37 14
M  V30 39 1 38 3
M  V30 40 1 38 11
M  V30 41 1 38 15
M  V30 42 1 39 32
M  V30 43 1 40 1
M  V30 44 1 41 1
M  V30 45 1 2 42 CFG=1
M  V30 46 1 43 3
M  V30 47 1 44 3
M  V30 48 1 45 4
M  V30 49 1 46 4
M  V30 50 1 47 6
M  V30 51 1 48 6
M  V30 52 1 8 49 CFG=3
M  V30 53 1 9 50 CFG=1
M  V30 54 1 11 51 CFG=3
M  V30 55 1 14 52 CFG=3
M  V30 56 1 53 15
M  V30 57 1 54 16
M  V30 58 1 55 16
M  V30 59 1 56 16
M  V30 60 1 57 18
M  V30 61 1 58 19
M  V30 62 1 59 19
M  V30 63 1 20 60 CFG=3
M  V30 64 1 61 23
M  V30 65 1 62 23
M  V30 66 1 63 24
M  V30 67 1 64 24
M  V30 68 1 65 24
M  V30 69 1 66 25
M  V30 70 1 67 27
M  V30 71 1 68 29
M  V30 72 1 69 29
M  V30 73 1 70 30
M  V30 74 1 71 30
M  V30 75 1 72 32
M  V30 76 1 73 32
M  V30 77 1 74 35
M  V30 78 1 75 35
M  V30 79 1 76 36
M  V30 80 1 37 77 CFG=1
M  V30 81 1 38 78 CFG=1
M  V30 82 1 79 39
M  V30 83 1 80 39
M  V30 84 1 81 39
M  V30 END BOND
M  V30 END CTAB
M  END
>  <i_epik_Tot_Q>  (1) 
1

>  <i_epik_Tot_abs_Q>  (1) 
1

>  <i_i_glide_confnum>  (1) 
629

>  <i_i_glide_lignum>  (1) 
73

>  <i_i_glide_posenum>  (1) 
62

>  <i_i_glide_rotatable_bonds>  (1) 
13

>  <i_lp_mmshare_version>  (1) 
72125

>  <i_m_source_file_index>  (1) 
35

>  <i_f3d_flags>  (1) 
0

>  <num_sample>  (1) 
50

>  <b_lp_Chiralities_Consistent>  (1) 
1

>  <r_epik_Charging_Adjusted_Penalty>  (1) 
0.090149450246829993

>  <r_epik_Ionization_Penalty>  (1) 
0.090149516537110494

>  <r_epik_Ionization_Penalty_Charging>  (1) 
0.0016683723163481864

>  <r_epik_Ionization_Penalty_Neutral>  (1) 
0.088481144220762309

>  <r_epik_State_Penalty>  (1) 
0.088481077930481808

>  <r_glide_ring_energy>  (1) 
0

>  <r_i_docking_score>  (1) 
-7.1342806076203278

>  <r_i_glide_ecoul>  (1) 
-9.7767861833751848

>  <r_i_glide_eff_state_penalty>  (1) 
0.088481077930481808

>  <r_i_glide_einternal>  (1) 
22.404811130380011

>  <r_i_glide_emodel>  (1) 
-38.943109205576576

>  <r_i_glide_emodel_strain>  (1) 
7.4818506184464937

>  <r_i_glide_energy>  (1) 
-46.74004807799048

>  <r_i_glide_erotb>  (1) 
0.37606535851870204

>  <r_i_glide_esite>  (1) 
-0.16204004318004489

>  <r_i_glide_evdw>  (1) 
-36.963261894615293

>  <r_i_glide_gscore>  (1) 
-7.2227616855508092

>  <r_i_glide_gscore_strain>  (1) 
0.87046265461162342

>  <r_i_glide_hbond>  (1) 
-0.37022697664189497

>  <r_i_glide_ligand_efficiency>  (1) 
-0.18293027199026482

>  <r_i_glide_ligand_efficiency_ln>  (1) 
-1.5297922808721023

>  <r_i_glide_ligand_efficiency_sa>  (1) 
-0.62035523164708006

>  <r_i_glide_lipo>  (1) 
-3.1255180067829538

>  <r_i_glide_metal>  (1) 
-0

>  <r_i_glide_rewards>  (1) 
-1.4968236498391987

>  <r_lp_Energy>  (1) 
30.250912

>  <r_lp_tautomer_probability>  (1) 
0.9999999700000004

>  <s_epik_Chemistry_Notes>  (1) 
This compound has an ester and may undergo hydrolysis at high or low pH. This compound contains an acetal/aminal-like group ( X-CH(R)-Y where X, Y are N, S, or O) that may be acid/base labile, releasing an aldehyde.

>  <s_epik_cmdline>  (1) 
J2VwaWtfcHl0aG9uJywgJy1waHQnLCAnMS4wJywgJy1waCcsICc3LjQnLCAnLXRuJywgJzgnLCAnLW1hJywgJzUwMCcsICctaW1hZScsICc8aW5maWxlLm1hZT4nLCAnLW9tYWUnLCAnPG91dGZpbGUubWFlPic=

>  <s_epik_input>  (1) 
W0NIM11PW0NIMl1bQ0gyXU9bQ0BASF0oW0NIMl0xKVtDSF0xTihTKD1PKSg9TylbQ0gyXVtDQEhdKEMoPU8pW0NIM10pW0NASF0oW0NIXTIzKVtDSDJdMilbQ0gyXVtDSDJdW0NASF0oW09IXSlbQ0BIXShPQzM9TylbTkhdW0NIMl1bQ0gyXVtDQEhdKFtDSDJdW05IMl0pYzRbY0hdc1tjSF1bY0hdNA==

>  <s_glide_docking_method>  (1) 
confgen

>  <s_i_glide_gridfile>  (1) 
gpcr_5ht2c_6bqh_protein_autoprepared_prepared

>  <s_lp_Force_Field>  (1) 
S-OPLS

>  <s_lp_Variant>  (1) 
DiffSBDD_34-1

>  <s_m_source_file>  (1) 
generated_GPCR_5HT2C_ligand_DiffSBDD_2026-06-23_prepared.sdf

>  <GenAI_Model>  (1) 
DiffSBDD

>  <Protein>  (1) 
GPCR_5HT2C

$$$$
DiffSBDD_10
     RDKit          3D

  0  0  0  0  0  0  0  0  0  0999 V3000
M  V30 BEGIN CTAB
M  V30 COUNTS 64 66 0 0 1
M  V30 BEGIN ATOM
M  V30 1 C 40.098195 31.729502 63.271139 0
M  V30 2 C 41.566551 33.663725 63.523224 0
M  V30 3 C 38.434922 31.272676 60.140463 0
M  V30 4 C 36.979896 36.846210 60.497969 0
M  V30 5 C 40.151152 30.537738 51.877131 0
M  V30 6 C 38.619241 37.123697 62.272248 0
M  V30 7 C 41.348819 32.053633 65.341461 0
M  V30 8 O 40.344615 27.351068 57.463118 0
M  V30 9 F 36.770041 34.767825 59.369988 0
M  V30 10 S 38.036364 27.889039 54.153673 0
M  V30 11 C 41.244989 30.379333 49.620837 0
M  V30 12 C 38.968976 28.635937 52.828379 0
M  V30 13 C 40.440703 29.773230 50.735787 0
M  V30 14 C 39.142721 30.053365 58.067293 0
M  V30 15 C 40.445278 31.300508 64.567517 0
M  V30 16 S 39.077765 27.594718 56.756143 0
M  V30 17 C 37.938013 30.506190 58.901406 0 CFG=1
M  V30 18 O 37.476969 26.626568 53.650506 0
M  V30 19 O 37.877019 26.875405 57.208030 0
M  V30 20 C 37.377186 35.507500 60.324594 0
M  V30 21 C 39.423389 29.978757 52.933817 0
M  V30 22 N 38.873837 33.594068 61.019391 0
M  V30 23 C 37.046559 29.337838 59.304525 0
M  V30 24 C 41.909150 33.234859 64.819574 0
M  V30 25 C 39.985425 28.442248 50.639033 0
M  V30 26 C 37.595331 37.649832 61.467459 0
M  V30 27 C 39.244184 27.873426 51.685160 0
M  V30 28 C 40.657271 32.913248 62.745954 0
M  V30 29 C 38.254568 32.784600 59.968537 0
M  V30 30 C 38.426017 34.957063 61.147320 0
M  V30 31 C 40.296273 33.376209 61.338494 0
M  V30 32 N 38.748046 29.272829 56.909234 0
M  V30 33 Cl 39.100984 30.938211 54.334381 0
M  V30 34 O 37.097396 28.937067 54.567760 0
M  V30 35 C 39.033443 35.794871 62.115535 0
M  V30 36 N 39.266021 27.638757 55.162081 0 CHG=-1
M  V30 37 H 39.405917 31.150809 62.683159 0
M  V30 38 H 41.999874 34.569324 63.124829 0
M  V30 39 H 39.466305 30.995300 60.348556 0
M  V30 40 H 37.872452 30.972605 61.025375 0
M  V30 41 H 36.195105 37.256587 59.879149 0
M  V30 42 H 40.499994 31.556643 51.945840 0
M  V30 43 H 39.090957 37.738774 63.019042 0
M  V30 44 H 41.612646 31.724040 66.335820 0
M  V30 45 H 42.270981 30.538692 49.949602 0
M  V30 46 H 41.245433 29.737626 48.740524 0
M  V30 47 H 40.817309 31.345791 49.367768 0
M  V30 48 H 39.645138 30.937158 57.683935 0
M  V30 49 H 39.861631 29.493913 58.666316 0
M  V30 50 H 40.015557 30.393392 64.969231 0
M  V30 51 H 37.319451 31.167488 58.289854 0
M  V30 52 H 37.645164 28.556396 59.771846 0
M  V30 53 H 36.264213 29.665939 59.988121 0
M  V30 54 H 36.546787 28.911319 58.434737 0
M  V30 55 H 42.603435 33.811867 65.413472 0
M  V30 56 H 40.209849 27.859227 49.767773 0
M  V30 57 H 37.279962 38.674732 61.594279 0
M  V30 58 H 38.896021 26.853588 51.612111 0
M  V30 59 H 37.172575 32.859163 60.040089 0
M  V30 60 H 38.585850 33.120585 58.984415 0
M  V30 61 H 40.855636 34.283113 61.104507 0
M  V30 62 H 40.715834 32.645315 60.650011 0
M  V30 63 H 37.847446 29.540838 56.502416 0
M  V30 64 H 39.813528 35.414642 62.748577 0
M  V30 END ATOM
M  V30 BEGIN BOND
M  V30 1 1 12 10
M  V30 2 2 13 5
M  V30 3 1 13 11
M  V30 4 1 15 1
M  V30 5 2 15 7
M  V30 6 2 16 8
M  V30 7 1 17 3
M  V30 8 1 17 14
M  V30 9 2 18 10
M  V30 10 2 19 16
M  V30 11 2 20 4
M  V30 12 1 20 9
M  V30 13 1 21 5
M  V30 14 2 21 12
M  V30 15 1 23 17
M  V30 16 2 24 2
M  V30 17 1 24 7
M  V30 18 1 25 13
M  V30 19 1 26 4
M  V30 20 2 26 6
M  V30 21 1 27 12
M  V30 22 2 27 25
M  V30 23 2 28 1
M  V30 24 1 28 2
M  V30 25 1 29 3
M  V30 26 1 29 22
M  V30 27 1 30 20
M  V30 28 1 30 22
M  V30 29 1 31 22
M  V30 30 1 31 28
M  V30 31 1 32 14
M  V30 32 1 32 16
M  V30 33 1 33 21
M  V30 34 2 34 10
M  V30 35 1 35 6
M  V30 36 2 35 30
M  V30 37 1 36 10
M  V30 38 1 36 16
M  V30 39 1 37 1
M  V30 40 1 38 2
M  V30 41 1 39 3
M  V30 42 1 40 3
M  V30 43 1 41 4
M  V30 44 1 42 5
M  V30 45 1 43 6
M  V30 46 1 44 7
M  V30 47 1 45 11
M  V30 48 1 46 11
M  V30 49 1 47 11
M  V30 50 1 48 14
M  V30 51 1 49 14
M  V30 52 1 50 15
M  V30 53 1 17 51 CFG=3
M  V30 54 1 52 23
M  V30 55 1 53 23
M  V30 56 1 54 23
M  V30 57 1 55 24
M  V30 58 1 56 25
M  V30 59 1 57 26
M  V30 60 1 58 27
M  V30 61 1 59 29
M  V30 62 1 60 29
M  V30 63 1 61 31
M  V30 64 1 62 31
M  V30 65 1 63 32
M  V30 66 1 64 35
M  V30 END BOND
M  V30 END CTAB
M  END
>  <i_epik_Tot_Q>  (1) 
-1

>  <i_epik_Tot_abs_Q>  (1) 
1

>  <i_i_glide_confnum>  (1) 
2007

>  <i_i_glide_lignum>  (1) 
21

>  <i_i_glide_posenum>  (1) 
113

>  <i_i_glide_rotatable_bonds>  (1) 
12

>  <i_lp_mmshare_version>  (1) 
72125

>  <i_m_source_file_index>  (1) 
11

>  <i_f3d_flags>  (1) 
0

>  <num_sample>  (1) 
50

>  <b_lp_Chiralities_Consistent>  (1) 
1

>  <r_epik_Charging_Adjusted_Penalty>  (1) 
1.043230994850219

>  <r_epik_Ionization_Penalty>  (1) 
0.22830841385829601

>  <r_epik_Ionization_Penalty_Charging>  (1) 
0.22543841040968138

>  <r_epik_Ionization_Penalty_Neutral>  (1) 
0.0028700034486146327

>  <r_epik_State_Penalty>  (1) 
0.81779258444053771

>  <r_glide_ring_energy>  (1) 
0

>  <r_i_docking_score>  (1) 
-7.1148661658020931

>  <r_i_glide_ecoul>  (1) 
0.52478964437119635

>  <r_i_glide_eff_state_penalty>  (1) 
0.81779258444053771

>  <r_i_glide_einternal>  (1) 
6.9464133601296858

>  <r_i_glide_emodel>  (1) 
-74.743310906345897

>  <r_i_glide_emodel_strain>  (1) 
0.67077750755088061

>  <r_i_glide_energy>  (1) 
-52.371734162826002

>  <r_i_glide_erotb>  (1) 
0.74186158489162179

>  <r_i_glide_esite>  (1) 
-0.0056545821818299235

>  <r_i_glide_evdw>  (1) 
-52.896523807197198

>  <r_i_glide_gscore>  (1) 
-7.9326587502426307

>  <r_i_glide_gscore_strain>  (1) 
0

>  <r_i_glide_hbond>  (1) 
0

>  <r_i_glide_ligand_efficiency>  (1) 
-0.19763517127228036

>  <r_i_glide_ligand_efficiency_ln>  (1) 
-1.5522715759081449

>  <r_i_glide_ligand_efficiency_sa>  (1) 
-0.6525769573638992

>  <r_i_glide_lipo>  (1) 
-4.4624497896192352

>  <r_i_glide_metal>  (1) 
-0

>  <r_i_glide_rewards>  (1) 
-1.6403082196290069

>  <r_lp_Energy>  (1) 
36.709097

>  <s_epik_cmdline>  (1) 
J2VwaWtfcHl0aG9uJywgJy1waHQnLCAnMS4wJywgJy1waCcsICc3LjQnLCAnLXRuJywgJzgnLCAnLW1hJywgJzUwMCcsICctaW1hZScsICc8aW5maWxlLm1hZT4nLCAnLW9tYWUnLCAnPG91dGZpbGUubWFlPic=

>  <s_epik_input>  (1) 
W2NIXTFbY0hdW2NIXVtjSF1bY0hdYzFbQ0gyXU4oYzJbY0hdW2NIXVtjSF1bY0hdYzJGKVtDSDJdW0NIMl1bQ0BIXShbQ0gzXSlbQ0gyXVtOSF1TKD1PKSg9TylbTkhdUyg9TykoPU8pYzNjKENsKVtjSF1jKFtDSDNdKVtjSF1bY0hdMw==

>  <s_glide_docking_method>  (1) 
confgen

>  <s_i_glide_gridfile>  (1) 
gpcr_5ht2c_6bqh_protein_autoprepared_prepared

>  <s_lp_Force_Field>  (1) 
S-OPLS

>  <s_lp_Variant>  (1) 
DiffSBDD_10-2

>  <s_m_source_file>  (1) 
generated_GPCR_5HT2C_ligand_DiffSBDD_2026-06-23_prepared.sdf

>  <GenAI_Model>  (1) 
DiffSBDD

>  <Protein>  (1) 
GPCR_5HT2C

$$$$
DiffSBDD_17
     RDKit          3D

  0  0  0  0  0  0  0  0  0  0999 V3000
M  V30 BEGIN CTAB
M  V30 COUNTS 93 97 0 0 1
M  V30 BEGIN ATOM
M  V30 1 C 42.194157 32.003530 63.941791 0
M  V30 2 C 38.289329 33.299560 60.375924 0 CFG=2
M  V30 3 C 40.871076 34.026015 64.707413 0
M  V30 4 O 37.269852 37.278672 62.820579 0
M  V30 5 C 42.975525 33.348968 65.929272 0
M  V30 6 C 39.229755 27.997405 53.468846 0
M  V30 7 C 39.338224 27.929143 50.973057 0
M  V30 8 C 39.322408 27.341110 52.309108 0
M  V30 9 C 36.022877 30.907750 59.776306 0
M  V30 10 C 34.790522 33.333953 61.766892 0
M  V30 11 N 40.035285 36.137717 65.656685 0
M  V30 12 C 36.190895 32.769576 61.749964 0 CFG=2
M  V30 13 C 40.384780 36.041141 63.092172 0 CFG=1
M  V30 14 C 38.570481 34.817013 60.168288 0
M  V30 15 N 39.645136 37.524807 65.551262 0 CHG=1
M  V30 16 C 39.358187 28.206602 55.738572 0 CFG=2
M  V30 17 C 39.032685 29.454090 53.663711 0 CFG=2
M  V30 18 C 40.516969 37.149937 67.735528 0
M  V30 19 C 40.831007 35.588300 64.540236 0 CFG=2
M  V30 20 O 39.266747 27.315298 54.643635 0
M  V30 21 C 39.517801 37.994218 66.941044 0
M  V30 22 O 41.317498 35.640854 62.283800 0 CHG=-1
M  V30 23 N 38.866006 31.123335 57.140025 0 CHG=1
M  V30 24 C 39.805185 30.421744 52.824883 0
M  V30 25 C 38.881322 32.387022 59.250823 0
M  V30 26 C 39.653608 29.209305 50.625873 0
M  V30 27 N 36.857329 32.994733 60.491952 0 CFG=2 CHG=1
M  V30 28 C 37.168033 36.323618 61.781402 0
M  V30 29 S 38.206723 27.787761 57.074489 0
M  V30 30 C 38.555407 35.811456 61.374591 0 CFG=1
M  V30 31 C 40.045164 30.317791 51.507680 0
M  V30 32 N 39.247105 35.271324 62.567815 0 CHG=1
M  V30 33 C 36.657911 31.616452 60.922239 0 CFG=2
M  V30 34 C 38.306490 30.665547 55.843338 0
M  V30 35 C 37.079859 30.551918 58.728819 0
M  V30 36 C 39.281182 29.654195 55.166405 0 CFG=1
M  V30 37 C 37.962995 31.706884 58.167090 0 CFG=2
M  V30 38 N 40.674247 35.904613 66.959585 0 CHG=1
M  V30 39 C 42.268352 33.405447 64.569321 0
M  V30 40 H 41.557123 31.340485 64.527434 0
M  V30 41 H 41.790025 32.052687 62.929419 0
M  V30 42 H 43.179372 31.539310 63.880439 0
M  V30 43 H 38.796560 33.009289 61.298228 0
M  V30 44 H 40.451331 33.692835 65.657087 0
M  V30 45 H 40.226235 33.540007 63.979346 0
M  V30 46 H 36.410475 37.653831 62.964736 0
M  V30 47 H 42.512267 32.615643 66.588569 0
M  V30 48 H 44.022684 33.069220 65.814282 0
M  V30 49 H 42.933195 34.308922 66.437789 0
M  V30 50 H 39.129888 27.252082 50.158446 0
M  V30 51 H 39.404630 26.268517 52.364936 0
M  V30 52 H 35.186157 31.471916 59.362230 0
M  V30 53 H 35.644894 29.965647 60.154987 0
M  V30 54 H 34.147388 32.807511 62.475073 0
M  V30 55 H 34.845232 34.360739 62.106534 0
M  V30 56 H 34.319616 33.312727 60.782923 0
M  V30 57 H 36.845188 33.030283 62.567749 0
M  V30 58 H 40.092332 37.089128 63.113469 0
M  V30 59 H 37.911885 35.193406 59.385940 0
M  V30 60 H 39.584748 34.890104 59.772223 0
M  V30 61 H 40.406707 38.005039 65.072530 0
M  V30 62 H 40.354929 28.059719 56.160750 0
M  V30 63 H 37.975303 29.632085 53.460328 0
M  V30 64 H 40.191966 36.960995 68.759827 0
M  V30 65 H 41.473029 37.669792 67.777202 0
M  V30 66 H 41.837848 35.986432 64.689678 0
M  V30 67 H 38.502804 37.780505 67.281110 0
M  V30 68 H 39.691275 39.064686 67.041199 0
M  V30 69 H 39.577920 31.805934 56.923853 0
M  V30 70 H 40.151450 31.306341 53.336164 0
M  V30 71 H 39.645240 32.960614 58.728376 0
M  V30 72 H 39.422067 31.588660 59.765747 0
M  V30 73 H 39.661125 29.422579 49.566364 0
M  V30 74 H 36.562125 35.509508 62.151636 0
M  V30 75 H 36.655573 36.769122 60.928660 0
M  V30 76 H 37.094569 27.995647 56.363846 0
M  V30 77 H 39.110548 36.684181 61.028410 0
M  V30 78 H 40.566177 31.143067 51.044267 0
M  V30 79 H 38.568160 35.160076 63.304198 0
M  V30 80 H 37.546347 31.125268 61.318390 0
M  V30 81 H 37.309370 30.237758 55.934827 0
M  V30 82 H 38.186082 31.549784 55.216081 0
M  V30 83 H 36.535304 30.063846 57.922966 0
M  V30 84 H 37.729277 29.786402 59.155725 0
M  V30 85 H 40.291030 30.058163 55.266037 0
M  V30 86 H 37.343375 32.471907 57.695540 0
M  V30 87 H 40.189301 35.132001 67.395554 0
M  V30 88 H 42.845143 34.035126 63.893241 0
M  V30 89 H 38.777591 37.592794 65.035825 0
M  V30 90 H 41.646221 35.678173 66.792861 0
M  V30 91 H 39.314906 30.325334 57.566981 0
M  V30 92 H 39.673445 34.388734 62.335634 0
M  V30 93 H 36.261436 33.210630 59.701892 0
M  V30 END ATOM
M  V30 BEGIN BOND
M  V30 1 2 8 6
M  V30 2 1 8 7
M  V30 3 1 12 10
M  V30 4 1 14 2
M  V30 5 1 15 11
M  V30 6 1 17 6
M  V30 7 1 19 3
M  V30 8 1 19 11
M  V30 9 1 19 13
M  V30 10 1 20 6
M  V30 11 1 20 16
M  V30 12 1 21 15
M  V30 13 1 21 18
M  V30 14 1 22 13
M  V30 15 1 24 17
M  V30 16 1 25 2
M  V30 17 2 26 7
M  V30 18 1 27 2
M  V30 19 1 27 12
M  V30 20 1 28 4
M  V30 21 1 29 16
M  V30 22 1 30 14
M  V30 23 1 30 28
M  V30 24 2 31 24
M  V30 25 1 31 26
M  V30 26 1 32 13
M  V30 27 1 32 30
M  V30 28 1 33 9
M  V30 29 1 33 12
M  V30 30 1 33 27
M  V30 31 1 34 23
M  V30 32 1 35 9
M  V30 33 1 36 16
M  V30 34 1 36 17
M  V30 35 1 36 34
M  V30 36 1 37 23
M  V30 37 1 37 25
M  V30 38 1 37 35
M  V30 39 1 38 11
M  V30 40 1 38 18
M  V30 41 1 39 1
M  V30 42 1 39 3
M  V30 43 1 39 5
M  V30 44 1 40 1
M  V30 45 1 41 1
M  V30 46 1 42 1
M  V30 47 1 2 43 CFG=1
M  V30 48 1 44 3
M  V30 49 1 45 3
M  V30 50 1 46 4
M  V30 51 1 47 5
M  V30 52 1 48 5
M  V30 53 1 49 5
M  V30 54 1 50 7
M  V30 55 1 51 8
M  V30 56 1 52 9
M  V30 57 1 53 9
M  V30 58 1 54 10
M  V30 59 1 55 10
M  V30 60 1 56 10
M  V30 61 1 12 57 CFG=1
M  V30 62 1 13 58 CFG=1
M  V30 63 1 59 14
M  V30 64 1 60 14
M  V30 65 1 61 15
M  V30 66 1 16 62 CFG=1
M  V30 67 1 17 63 CFG=1
M  V30 68 1 64 18
M  V30 69 1 65 18
M  V30 70 1 19 66 CFG=1
M  V30 71 1 67 21
M  V30 72 1 68 21
M  V30 73 1 69 23
M  V30 74 1 70 24
M  V30 75 1 71 25
M  V30 76 1 72 25
M  V30 77 1 73 26
M  V30 78 1 74 28
M  V30 79 1 75 28
M  V30 80 1 76 29
M  V30 81 1 30 77 CFG=3
M  V30 82 1 78 31
M  V30 83 1 79 32
M  V30 84 1 33 80 CFG=1
M  V30 85 1 81 34
M  V30 86 1 82 34
M  V30 87 1 83 35
M  V30 88 1 84 35
M  V30 89 1 36 85 CFG=3
M  V30 90 1 37 86 CFG=3
M  V30 91 1 87 38
M  V30 92 1 88 39
M  V30 93 1 89 15
M  V30 94 1 90 38
M  V30 95 1 91 23
M  V30 96 1 92 32
M  V30 97 1 27 93 CFG=3
M  V30 END BOND
M  V30 END CTAB
M  END
>  <i_epik_Tot_Q>  (1) 
4

>  <i_epik_Tot_abs_Q>  (1) 
6

>  <i_i_glide_confnum>  (1) 
1834

>  <i_i_glide_lignum>  (1) 
36

>  <i_i_glide_posenum>  (1) 
360

>  <i_i_glide_rotatable_bonds>  (1) 
14

>  <i_lp_mmshare_version>  (1) 
72125

>  <i_m_source_file_index>  (1) 
18

>  <i_f3d_flags>  (1) 
0

>  <num_sample>  (1) 
50

>  <b_lp_Chiralities_Consistent>  (1) 
1

>  <r_epik_Charging_Adjusted_Penalty>  (1) 
1.4553498192604928

>  <r_epik_Ionization_Penalty>  (1) 
1.1481457817152785

>  <r_epik_Ionization_Penalty_Charging>  (1) 
0.48043644912001532

>  <r_epik_Ionization_Penalty_Neutral>  (1) 
0.66770933259526311

>  <r_epik_State_Penalty>  (1) 
0.97491337014047741

>  <r_glide_ring_energy>  (1) 
0.0045750838620950583

>  <r_i_docking_score>  (1) 
-7.1146683383316098

>  <r_i_glide_ecoul>  (1) 
-8.9209027866066393

>  <r_i_glide_eff_state_penalty>  (1) 
0.97491337014047741

>  <r_i_glide_einternal>  (1) 
9.2310252439048561

>  <r_i_glide_emodel>  (1) 
-78.887680424327243

>  <r_i_glide_emodel_strain>  (1) 
4.8055534283882082

>  <r_i_glide_energy>  (1) 
-51.217297477759253

>  <r_i_glide_erotb>  (1) 
0.56146573491919982

>  <r_i_glide_esite>  (1) 
-0.04290858103936656

>  <r_i_glide_evdw>  (1) 
-42.296394691152614

>  <r_i_glide_gscore>  (1) 
-8.0895817084720871

>  <r_i_glide_gscore_strain>  (1) 
0.20138835709705205

>  <r_i_glide_hbond>  (1) 
0

>  <r_i_glide_ligand_efficiency>  (1) 
-0.1824273932905541

>  <r_i_glide_ligand_efficiency_ln>  (1) 
-1.5255868536092303

>  <r_i_glide_ligand_efficiency_sa>  (1) 
-0.61864986364617292

>  <r_i_glide_lipo>  (1) 
-4.0810346070680872

>  <r_i_glide_metal>  (1) 
-0

>  <r_i_glide_rewards>  (1) 
-1.2755374598322582

>  <r_lp_Energy>  (1) 
77.88823699999999

>  <s_epik_Chemistry_Notes>  (1) 
This compound contains an acetal/aminal-like group ( X-CH(R)-Y where X, Y are N, S, or O) that may be acid/base labile, releasing an aldehyde.

>  <s_epik_cmdline>  (1) 
J2VwaWtfcHl0aG9uJywgJy1waHQnLCAnMS4wJywgJy1waCcsICc3LjQnLCAnLXRuJywgJzgnLCAnLW1hJywgJzUwMCcsICctaW1hZScsICc8aW5maWxlLm1hZT4nLCAnLW9tYWUnLCAnPG91dGZpbGUubWFlPic=

>  <s_epik_input>  (1) 
W05IXTFbQ0gyXVtDSDJdW05IXU4xW0NAQEhdKFtDSDJdW0NIXShbQ0gzXSlbQ0gzXSlbQ0BASF0oW09IXSlbTkhdW0NASF0oW0NIMl1bT0hdKVtDSDJdW0NAQEhdMltDSDJdW0NASF0oW0NIMl1bQ0gyXVtDQEBIXShOMjMpW0NIXTNbQ0gzXSlbTkhdW0NIMl1bQ0BASF0oW0NASF0oTzQpW1NIXSlbQ0BIXShDND01KVtDSF09W0NIXVtDSF09W0NIXVtDSF01

>  <s_glide_docking_method>  (1) 
confgen

>  <s_i_glide_gridfile>  (1) 
gpcr_5ht2c_6bqh_protein_autoprepared_prepared

>  <s_lp_Force_Field>  (1) 
S-OPLS

>  <s_lp_Variant>  (1) 
DiffSBDD_17-3

>  <s_m_source_file>  (1) 
generated_GPCR_5HT2C_ligand_DiffSBDD_2026-06-23_prepared.sdf

>  <GenAI_Model>  (1) 
DiffSBDD

>  <Protein>  (1) 
GPCR_5HT2C

$$$$
DiffSBDD_41
     RDKit          3D

  0  0  0  0  0  0  0  0  0  0999 V3000
M  V30 BEGIN CTAB
M  V30 COUNTS 71 75 0 0 1
M  V30 BEGIN ATOM
M  V30 1 C 37.628566 30.660944 54.717113 0
M  V30 2 O 37.367571 32.639715 60.461058 0
M  V30 3 C 37.257072 31.222423 60.514186 0 CFG=1
M  V30 4 C 39.350239 29.558294 61.900493 0
M  V30 5 C 38.074606 32.134503 54.681478 0
M  V30 6 C 39.740600 29.718793 57.021034 0
M  V30 7 C 38.574582 24.946693 55.134639 0
M  V30 8 C 38.704687 26.137747 54.405142 0
M  V30 9 C 37.626255 35.458164 60.691062 0
M  V30 10 C 39.457867 26.426459 58.558835 0
M  V30 11 C 35.862267 30.906253 59.961671 0
M  V30 12 C 39.082059 36.659360 61.868183 0
M  V30 13 N 38.050047 36.665689 61.013368 0
M  V30 14 C 38.401225 30.562388 59.660927 0 CFG=1
M  V30 15 C 38.419717 30.489508 57.199193 0
M  V30 16 C 38.476356 34.538485 61.398269 0
M  V30 17 O 36.433557 38.389029 61.367763 0
M  V30 18 O 36.689774 35.204760 59.932107 0
M  V30 19 C 38.598818 32.032387 57.120847 0
M  V30 20 C 39.105167 32.481069 55.748241 0
M  V30 21 N 38.937723 29.266988 60.496993 0 CFG=1 CHG=1
M  V30 22 O 39.645022 37.665391 62.300079 0
M  V30 23 O 37.855961 30.085422 58.457761 0
M  V30 24 C 39.060392 27.312775 55.059688 0
M  V30 25 C 40.077422 28.585265 59.822182 0
M  V30 26 C 37.438768 37.896668 60.506589 0
M  V30 27 C 39.273834 27.301769 56.446854 0
M  V30 28 C 38.321207 33.202204 61.271347 0
M  V30 29 C 38.811704 24.933008 56.523961 0
M  V30 30 C 40.984876 34.931623 61.883723 0
M  V30 31 N 39.588362 28.317698 57.345651 0
M  V30 32 C 39.528045 35.224100 62.273480 0 CFG=1
M  V30 33 C 37.409718 30.035239 56.116806 0
M  V30 34 C 39.714260 27.763334 58.626355 0
M  V30 35 C 39.167177 26.117405 57.213419 0
M  V30 36 H 38.375286 30.098365 54.165681 0
M  V30 37 H 36.698581 30.550193 54.167761 0
M  V30 38 H 37.253281 30.925727 61.553998 0
M  V30 39 H 40.027100 30.412694 61.941937 0
M  V30 40 H 38.513693 29.737795 62.567740 0
M  V30 41 H 39.865466 28.712130 62.357063 0
M  V30 42 H 38.445322 32.381362 53.687423 0
M  V30 43 H 37.245138 32.802735 54.841181 0
M  V30 44 H 40.148313 29.812323 56.015336 0
M  V30 45 H 40.445143 30.137753 57.709177 0
M  V30 46 H 38.298304 24.034912 54.627060 0
M  V30 47 H 38.529015 26.142933 53.339667 0
M  V30 48 H 39.470062 25.735303 59.367755 0
M  V30 49 H 35.687094 29.834549 59.881819 0
M  V30 50 H 35.091107 31.337774 60.598876 0
M  V30 51 H 35.730663 31.333268 58.967789 0
M  V30 52 H 39.245139 31.230970 59.547406 0
M  V30 53 H 35.909182 39.000295 60.864596 0
M  V30 54 H 37.645008 32.517739 57.327921 0
M  V30 55 H 39.281291 32.429315 57.863754 0
M  V30 56 H 40.067100 32.028596 55.513738 0
M  V30 57 H 39.262948 33.558950 55.752013 0
M  V30 58 H 39.160378 28.225859 54.503770 0
M  V30 59 H 40.546340 27.888215 60.518480 0
M  V30 60 H 40.868902 29.299771 59.600715 0
M  V30 61 H 37.004243 37.724566 59.520934 0
M  V30 62 H 38.186442 38.678240 60.365813 0
M  V30 63 H 38.927405 32.467721 61.778650 0
M  V30 64 H 38.715742 24.007232 57.071600 0
M  V30 65 H 41.216804 35.300805 60.883953 0
M  V30 66 H 41.663145 35.427084 62.578563 0
M  V30 67 H 41.201193 33.863702 61.911067 0
M  V30 68 H 39.336471 35.045024 63.330882 0
M  V30 69 H 37.405631 28.960974 56.008899 0
M  V30 70 H 36.393344 30.137755 56.461207 0
M  V30 71 H 38.193171 28.586102 60.543144 0
M  V30 END ATOM
M  V30 BEGIN BOND
M  V30 1 1 3 2
M  V30 2 1 5 1
M  V30 3 2 8 7
M  V30 4 1 11 3
M  V30 5 1 13 9
M  V30 6 1 13 12
M  V30 7 1 14 3
M  V30 8 1 15 6
M  V30 9 1 16 9
M  V30 10 2 18 9
M  V30 11 1 19 15
M  V30 12 1 20 5
M  V30 13 1 20 19
M  V30 14 1 21 4
M  V30 15 1 21 14
M  V30 16 2 22 12
M  V30 17 1 23 14
M  V30 18 1 23 15
M  V30 19 1 24 8
M  V30 20 1 25 21
M  V30 21 1 26 13
M  V30 22 1 26 17
M  V30 23 2 27 24
M  V30 24 1 28 2
M  V30 25 2 28 16
M  V30 26 1 29 7
M  V30 27 1 31 6
M  V30 28 1 31 27
M  V30 29 1 32 12
M  V30 30 1 32 16
M  V30 31 1 32 30
M  V30 32 1 33 1
M  V30 33 1 33 15
M  V30 34 2 34 10
M  V30 35 1 34 25
M  V30 36 1 34 31
M  V30 37 1 35 10
M  V30 38 1 35 27
M  V30 39 2 35 29
M  V30 40 1 36 1
M  V30 41 1 37 1
M  V30 42 1 3 38 CFG=1
M  V30 43 1 39 4
M  V30 44 1 40 4
M  V30 45 1 41 4
M  V30 46 1 42 5
M  V30 47 1 43 5
M  V30 48 1 44 6
M  V30 49 1 45 6
M  V30 50 1 46 7
M  V30 51 1 47 8
M  V30 52 1 48 10
M  V30 53 1 49 11
M  V30 54 1 50 11
M  V30 55 1 51 11
M  V30 56 1 14 52 CFG=3
M  V30 57 1 53 17
M  V30 58 1 54 19
M  V30 59 1 55 19
M  V30 60 1 56 20
M  V30 61 1 57 20
M  V30 62 1 58 24
M  V30 63 1 59 25
M  V30 64 1 60 25
M  V30 65 1 61 26
M  V30 66 1 62 26
M  V30 67 1 63 28
M  V30 68 1 64 29
M  V30 69 1 65 30
M  V30 70 1 66 30
M  V30 71 1 67 30
M  V30 72 1 32 68 CFG=1
M  V30 73 1 69 33
M  V30 74 1 70 33
M  V30 75 1 21 71 CFG=1
M  V30 END BOND
M  V30 END CTAB
M  END
>  <i_epik_Tot_Q>  (1) 
1

>  <i_epik_Tot_abs_Q>  (1) 
1

>  <i_i_glide_confnum>  (1) 
6

>  <i_i_glide_lignum>  (1) 
91

>  <i_i_glide_posenum>  (1) 
115

>  <i_i_glide_rotatable_bonds>  (1) 
5

>  <i_lp_mmshare_version>  (1) 
72125

>  <i_m_source_file_index>  (1) 
42

>  <i_f3d_flags>  (1) 
0

>  <num_sample>  (1) 
50

>  <b_lp_Chiralities_Consistent>  (1) 
1

>  <r_epik_Charging_Adjusted_Penalty>  (1) 
1.62722492853585

>  <r_epik_Ionization_Penalty>  (1) 
0.81369786534067623

>  <r_epik_Ionization_Penalty_Charging>  (1) 
0.81361246426792511

>  <r_epik_Ionization_Penalty_Neutral>  (1) 
8.5401072751167088e-05

>  <r_epik_State_Penalty>  (1) 
0.813612464267925

>  <r_glide_ring_energy>  (1) 
1.1929747713027825

>  <r_i_docking_score>  (1) 
-7.1001564049099244

>  <r_i_glide_ecoul>  (1) 
-0.89302970582268615

>  <r_i_glide_eff_state_penalty>  (1) 
0.813612464267925

>  <r_i_glide_einternal>  (1) 
7.0893338361676923

>  <r_i_glide_emodel>  (1) 
-60.688344510928275

>  <r_i_glide_emodel_strain>  (1) 
0.91188774902701653

>  <r_i_glide_energy>  (1) 
-48.002755299292012

>  <r_i_glide_erotb>  (1) 
0.34854586591334119

>  <r_i_glide_esite>  (1) 
0

>  <r_i_glide_evdw>  (1) 
-47.109725593469328

>  <r_i_glide_gscore>  (1) 
-7.9137688691778498

>  <r_i_glide_gscore_strain>  (1) 
0

>  <r_i_glide_hbond>  (1) 
-0.25297502327272275

>  <r_i_glide_ligand_efficiency>  (1) 
-0.20286161156885499

>  <r_i_glide_ligand_efficiency_ln>  (1) 
-1.5586419103589777

>  <r_i_glide_ligand_efficiency_sa>  (1) 
-0.66357378323344551

>  <r_i_glide_lipo>  (1) 
-3.3006146330673607

>  <r_i_glide_metal>  (1) 
-0

>  <r_i_glide_rewards>  (1) 
-2.2192843432042397

>  <r_lp_Energy>  (1) 
42.397202999999998

>  <s_epik_Chemistry_Notes>  (1) 
This compound contains an acetal/aminal-like group ( X-CH(R)-Y where X, Y are N, S, or O) that may be acid/base labile, releasing an aldehyde.

>  <s_epik_cmdline>  (1) 
J2VwaWtfcHl0aG9uJywgJy1waHQnLCAnMS4wJywgJy1waCcsICc3LjQnLCAnLXRuJywgJzgnLCAnLW1hJywgJzUwMCcsICctaW1hZScsICc8aW5maWxlLm1hZT4nLCAnLW9tYWUnLCAnPG91dGZpbGUubWFlPic=

>  <s_epik_input>  (1) 
W0NIMl0xW0NIMl1bQ0gyXVtDSDJdW0NIMl1DMTJbQ0gyXW4zYzRjKFtjSF1bY0hdW2NIXVtjSF00KVtjSF1jM1tDSDJdTihbQ0gzXSlbQ0BASF0oTzIpW0NASF0oW0NIM10pTy9bQ0hdPUNcNVtDQEBIXShbQ0gzXSlDKD1PKU4oQzU9TylbQ0gyXVtPSF0=

>  <s_glide_docking_method>  (1) 
confgen

>  <s_i_glide_gridfile>  (1) 
gpcr_5ht2c_6bqh_protein_autoprepared_prepared

>  <s_lp_Force_Field>  (1) 
S-OPLS

>  <s_lp_Variant>  (1) 
DiffSBDD_41-5

>  <s_m_source_file>  (1) 
generated_GPCR_5HT2C_ligand_DiffSBDD_2026-06-23_prepared.sdf

>  <GenAI_Model>  (1) 
DiffSBDD

>  <Protein>  (1) 
GPCR_5HT2C

$$$$
DiffSBDD_33
     RDKit          3D

  0  0  0  0  0  0  0  0  0  0999 V3000
M  V30 BEGIN CTAB
M  V30 COUNTS 49 51 0 0 1
M  V30 BEGIN ATOM
M  V30 1 C 38.486148 30.208891 55.565778 0 CFG=1
M  V30 2 C 38.172297 28.876633 54.845168 0
M  V30 3 C 39.202667 33.043622 60.670097 0
M  V30 4 C 39.836832 35.183769 61.662528 0
M  V30 5 C 39.365654 29.283224 57.831888 0
M  V30 6 C 38.604182 35.734782 61.262507 0
M  V30 7 C 38.297842 30.131516 57.109296 0 CFG=1
M  V30 8 C 38.369310 27.576726 52.673283 0
M  V30 9 C 37.387462 31.498364 59.093669 0
M  V30 10 C 37.959117 33.596258 60.264660 0
M  V30 11 C 40.844228 36.038072 62.407475 0
M  V30 12 C 38.692735 28.729792 53.416043 0
M  V30 13 C 38.845228 27.426965 51.357427 0
M  V30 14 C 38.169115 31.529938 57.762681 0
M  V30 15 C 37.668351 34.943840 60.567096 0
M  V30 16 C 39.500983 29.737811 52.831262 0
M  V30 17 C 39.972776 29.582637 51.511690 0
M  V30 18 C 39.644922 28.429651 50.777455 0
M  V30 19 C 39.860765 30.982822 53.614285 0
M  V30 20 C 39.846921 30.758247 55.123597 0
M  V30 21 N 37.001290 32.826535 59.567643 0
M  V30 22 C 40.133915 33.838712 61.367777 0
M  V30 23 H 37.741868 30.916933 55.195334 0
M  V30 24 H 37.094462 28.726180 54.829103 0
M  V30 25 H 38.587337 28.038488 55.402532 0
M  V30 26 H 39.446154 32.018541 60.450354 0
M  V30 27 H 40.353471 29.737576 57.767886 0
M  V30 28 H 39.129475 29.176172 58.890430 0
M  V30 29 H 39.438194 28.275961 57.424935 0
M  V30 30 H 38.375038 36.765865 61.488186 0
M  V30 31 H 37.338131 29.633460 57.257328 0
M  V30 32 H 37.754644 26.805023 53.113867 0
M  V30 33 H 36.445794 30.978879 58.912840 0
M  V30 34 H 37.876240 30.899053 59.859382 0
M  V30 35 H 40.348691 36.818219 62.986549 0
M  V30 36 H 41.436133 35.435154 63.096745 0
M  V30 37 H 41.523487 36.516427 61.702188 0
M  V30 38 H 38.595405 26.540554 50.790100 0
M  V30 39 H 39.151477 31.979659 57.902993 0
M  V30 40 H 37.645157 32.196764 57.077568 0
M  V30 41 H 36.724460 35.372338 60.263193 0
M  V30 42 H 40.587086 30.350467 51.063407 0
M  V30 43 H 40.006422 28.314439 49.767762 0
M  V30 44 H 40.843896 31.337446 53.303992 0
M  V30 45 H 39.144729 31.759389 53.349206 0
M  V30 46 H 40.633603 30.045898 55.367916 0
M  V30 47 H 40.074275 31.692807 55.636737 0
M  V30 48 H 36.185913 33.269817 59.164593 0
M  V30 49 H 41.078881 33.415293 61.674559 0
M  V30 END ATOM
M  V30 BEGIN BOND
M  V30 1 1 2 1
M  V30 2 1 6 4
M  V30 3 1 7 1
M  V30 4 1 7 5
M  V30 5 2 10 3
M  V30 6 1 11 4
M  V30 7 1 12 2
M  V30 8 2 12 8
M  V30 9 1 13 8
M  V30 10 1 14 7
M  V30 11 1 14 9
M  V30 12 2 15 6
M  V30 13 1 15 10
M  V30 14 1 16 12
M  V30 15 2 17 16
M  V30 16 2 18 13
M  V30 17 1 18 17
M  V30 18 1 19 16
M  V30 19 1 20 1
M  V30 20 1 20 19
M  V30 21 1 21 9
M  V30 22 1 21 10
M  V30 23 1 22 3
M  V30 24 2 22 4
M  V30 25 1 1 23 CFG=3
M  V30 26 1 24 2
M  V30 27 1 25 2
M  V30 28 1 26 3
M  V30 29 1 27 5
M  V30 30 1 28 5
M  V30 31 1 29 5
M  V30 32 1 30 6
M  V30 33 1 7 31 CFG=3
M  V30 34 1 32 8
M  V30 35 1 33 9
M  V30 36 1 34 9
M  V30 37 1 35 11
M  V30 38 1 36 11
M  V30 39 1 37 11
M  V30 40 1 38 13
M  V30 41 1 39 14
M  V30 42 1 40 14
M  V30 43 1 41 15
M  V30 44 1 42 17
M  V30 45 1 43 18
M  V30 46 1 44 19
M  V30 47 1 45 19
M  V30 48 1 46 20
M  V30 49 1 47 20
M  V30 50 1 48 21
M  V30 51 1 49 22
M  V30 END BOND
M  V30 END CTAB
M  END
>  <i_epik_Tot_Q>  (1) 
0

>  <i_epik_Tot_abs_Q>  (1) 
0

>  <i_i_glide_confnum>  (1) 
9

>  <i_i_glide_lignum>  (1) 
72

>  <i_i_glide_posenum>  (1) 
328

>  <i_i_glide_rotatable_bonds>  (1) 
5

>  <i_lp_mmshare_version>  (1) 
72125

>  <i_m_source_file_index>  (1) 
34

>  <i_f3d_flags>  (1) 
0

>  <num_sample>  (1) 
50

>  <b_lp_Chiralities_Consistent>  (1) 
1

>  <r_epik_Charging_Adjusted_Penalty>  (1) 
0.016607450009884436

>  <r_epik_Ionization_Penalty>  (1) 
0.016607451576217569

>  <r_epik_Ionization_Penalty_Charging>  (1) 
0

>  <r_epik_Ionization_Penalty_Neutral>  (1) 
0.016607451576217569

>  <r_epik_State_Penalty>  (1) 
0.016607450009884436

>  <r_glide_ring_energy>  (1) 
0

>  <r_i_docking_score>  (1) 
-7.0929679765071167

>  <r_i_glide_ecoul>  (1) 
-1.4764814429339173

>  <r_i_glide_eff_state_penalty>  (1) 
0.016607450009884436

>  <r_i_glide_einternal>  (1) 
3.6728236907723462

>  <r_i_glide_emodel>  (1) 
-52.606330183598175

>  <r_i_glide_emodel_strain>  (1) 
0.045917509857211769

>  <r_i_glide_energy>  (1) 
-37.301319878900536

>  <r_i_glide_erotb>  (1) 
0.84876371761229696

>  <r_i_glide_esite>  (1) 
-0.058998760096286879

>  <r_i_glide_evdw>  (1) 
-35.824838435966619

>  <r_i_glide_gscore>  (1) 
-7.1095754265170008

>  <r_i_glide_gscore_strain>  (1) 
0

>  <r_i_glide_hbond>  (1) 
0

>  <r_i_glide_ligand_efficiency>  (1) 
-0.32240763529577804

>  <r_i_glide_ligand_efficiency_ln>  (1) 
-1.7337800957515206

>  <r_i_glide_ligand_efficiency_sa>  (1) 
-0.90339887460236812

>  <r_i_glide_lipo>  (1) 
-3.8695430935716342

>  <r_i_glide_metal>  (1) 
-0

>  <r_i_glide_rewards>  (1) 
-2.0170831522229573

>  <r_lp_Energy>  (1) 
32.477902999999998

>  <s_epik_cmdline>  (1) 
J2VwaWtfcHl0aG9uJywgJy1waHQnLCAnMS4wJywgJy1waCcsICc3LjQnLCAnLXRuJywgJzgnLCAnLW1hJywgJzUwMCcsICctaW1hZScsICc8aW5maWxlLm1hZT4nLCAnLW9tYWUnLCAnPG91dGZpbGUubWFlPic=

>  <s_epik_input>  (1) 
W2NIXTFbY0hdW2NIXVtjSF1jKGMxMilbQ0gyXVtDSDJdW0NAQEhdKFtDSDJdMilbQ0BASF0oW0NIM10pW0NIMl1bQ0gyXVtOSF1jKFtjSF1bY0hdMylbY0hdW2NIXWMzW0NIM10=

>  <s_glide_docking_method>  (1) 
confgen

>  <s_i_glide_gridfile>  (1) 
gpcr_5ht2c_6bqh_protein_autoprepared_prepared

>  <s_lp_Force_Field>  (1) 
S-OPLS

>  <s_lp_Variant>  (1) 
DiffSBDD_33-1

>  <s_m_source_file>  (1) 
generated_GPCR_5HT2C_ligand_DiffSBDD_2026-06-23_prepared.sdf

>  <GenAI_Model>  (1) 
DiffSBDD

>  <Protein>  (1) 
GPCR_5HT2C

$$$$
DiffSBDD_36
     RDKit          3D

  0  0  0  0  0  0  0  0  0  0999 V3000
M  V30 BEGIN CTAB
M  V30 COUNTS 79 82 0 0 1
M  V30 BEGIN ATOM
M  V30 1 O 39.197198 26.537760 52.328007 0
M  V30 2 C 38.224963 29.452400 55.429777 0 CFG=1
M  V30 3 C 38.831229 32.484412 57.933045 0
M  V30 4 C 38.264147 25.082978 56.749841 0
M  V30 5 O 38.152344 27.323672 57.851865 0
M  V30 6 C 39.459694 28.567259 55.535844 0 CFG=1
M  V30 7 C 38.477713 32.103640 59.385604 0
M  V30 8 C 39.229391 31.292556 57.027336 0
M  V30 9 C 40.142321 30.216370 53.704145 0
M  V30 10 C 40.273606 36.099287 63.261115 0
M  V30 11 C 39.485432 28.034349 50.605925 0
M  V30 12 O 39.419000 30.321397 50.568935 0
M  V30 13 C 36.418579 24.224248 55.540015 0
M  V30 14 C 38.049488 30.752288 56.212685 0 CFG=1
M  V30 15 C 39.503856 31.269891 52.874241 0
M  V30 16 C 39.388253 24.312771 57.367146 0
M  V30 17 C 39.450148 27.827325 52.115447 0 CFG=1
M  V30 18 C 39.397840 27.066367 55.700371 0
M  V30 19 C 38.712046 33.293368 60.318734 0
M  V30 20 C 38.275548 26.594407 56.627437 0 CFG=1
M  V30 21 C 39.939871 31.335446 51.389772 0
M  V30 22 N 39.741238 33.173683 61.189416 0
M  V30 23 C 39.115605 29.233976 54.217438 0 CFG=2
M  V30 24 O 37.816647 24.421593 55.575354 0
M  V30 25 C 41.198080 34.048684 62.966965 0
M  V30 26 C 40.151651 34.187348 62.114991 0
M  V30 27 O 37.645211 31.753979 55.314093 0
M  V30 28 C 39.301873 27.458507 58.683477 0
M  V30 29 C 42.265103 35.528604 64.711164 0
M  V30 30 C 40.283342 29.275627 50.254691 0
M  V30 31 N 41.286730 35.233629 63.688209 0
M  V30 32 O 37.986592 34.282767 60.245591 0
M  V30 33 C 39.555659 35.464676 62.280678 0
M  V30 34 C 38.437774 28.543740 53.024405 0
M  V30 35 C 38.044991 24.358064 58.053479 0
M  V30 36 H 38.329620 26.343524 52.001674 0
M  V30 37 H 37.260975 28.957118 55.330662 0
M  V30 38 H 39.644927 33.205314 57.926690 0
M  V30 39 H 37.992909 33.039127 57.508162 0
M  V30 40 H 40.305003 28.993600 56.065705 0
M  V30 41 H 37.437271 31.789810 59.450078 0
M  V30 42 H 39.075104 31.260258 59.732957 0
M  V30 43 H 39.646384 30.495737 57.640084 0
M  V30 44 H 40.020970 31.611779 56.350918 0
M  V30 45 H 40.845142 29.750621 53.036816 0
M  V30 46 H 40.726906 30.640600 54.517612 0
M  V30 47 H 40.166650 37.082289 63.698536 0
M  V30 48 H 39.998145 27.177462 50.167765 0
M  V30 49 H 38.484167 28.071114 50.181925 0
M  V30 50 H 36.090915 24.108938 54.508683 0
M  V30 51 H 36.136336 23.333386 56.098360 0
M  V30 52 H 35.906628 25.079487 55.973443 0
M  V30 53 H 37.244844 30.566793 56.920165 0
M  V30 54 H 39.646725 32.137848 53.458573 0
M  V30 55 H 38.445458 31.188338 52.967773 0
M  V30 56 H 39.644048 23.337931 56.994932 0
M  V30 57 H 40.213353 24.883875 57.779274 0
M  V30 58 H 40.445103 27.820620 52.488159 0
M  V30 59 H 39.277607 26.578724 54.741400 0
M  V30 60 H 40.365630 26.727316 56.072828 0
M  V30 61 H 37.342503 26.836010 56.121654 0
M  V30 62 H 41.011036 31.448900 51.254551 0
M  V30 63 H 39.406698 32.137761 50.916397 0
M  V30 64 H 40.272675 32.317217 61.181629 0
M  V30 65 H 41.889004 33.236230 63.134247 0
M  V30 66 H 36.812186 32.101316 55.635360 0
M  V30 67 H 39.058832 28.132096 59.506460 0
M  V30 68 H 39.609265 26.516091 59.128535 0
M  V30 69 H 40.156445 27.887683 58.161919 0
M  V30 70 H 42.677193 34.604167 65.117166 0
M  V30 71 H 43.061025 36.134387 64.282792 0
M  V30 72 H 41.799510 36.095182 65.518541 0
M  V30 73 H 41.222853 29.317627 50.809424 0
M  V30 74 H 40.506209 29.324760 49.190791 0
M  V30 75 H 38.710708 35.881496 61.758241 0
M  V30 76 H 37.856667 29.246006 52.433542 0
M  V30 77 H 37.672394 27.862954 53.405432 0
M  V30 78 H 38.000908 24.937787 58.967712 0
M  V30 79 H 37.472361 23.436206 58.054068 0
M  V30 END ATOM
M  V30 BEGIN BOND
M  V30 1 1 6 2
M  V30 2 1 7 3
M  V30 3 1 8 3
M  V30 4 1 14 2
M  V30 5 1 14 8
M  V30 6 1 15 9
M  V30 7 1 16 4
M  V30 8 1 17 1
M  V30 9 1 17 11
M  V30 10 1 18 6
M  V30 11 1 19 7
M  V30 12 1 20 4
M  V30 13 1 20 5
M  V30 14 1 20 18
M  V30 15 1 21 12
M  V30 16 1 21 15
M  V30 17 1 22 19
M  V30 18 1 23 2
M  V30 19 1 23 6
M  V30 20 1 23 9 CFG=3
M  V30 21 1 24 4
M  V30 22 1 24 13
M  V30 23 1 26 22
M  V30 24 2 26 25
M  V30 25 1 27 14
M  V30 26 1 28 5
M  V30 27 1 30 11
M  V30 28 1 30 12
M  V30 29 1 31 10
M  V30 30 1 31 25
M  V30 31 1 31 29
M  V30 32 2 32 19
M  V30 33 2 33 10
M  V30 34 1 33 26
M  V30 35 1 34 17
M  V30 36 1 34 23
M  V30 37 1 35 4
M  V30 38 1 35 16
M  V30 39 1 36 1
M  V30 40 1 2 37 CFG=3
M  V30 41 1 38 3
M  V30 42 1 39 3
M  V30 43 1 6 40 CFG=1
M  V30 44 1 41 7
M  V30 45 1 42 7
M  V30 46 1 43 8
M  V30 47 1 44 8
M  V30 48 1 45 9
M  V30 49 1 46 9
M  V30 50 1 47 10
M  V30 51 1 48 11
M  V30 52 1 49 11
M  V30 53 1 50 13
M  V30 54 1 51 13
M  V30 55 1 52 13
M  V30 56 1 14 53 CFG=1
M  V30 57 1 54 15
M  V30 58 1 55 15
M  V30 59 1 56 16
M  V30 60 1 57 16
M  V30 61 1 17 58 CFG=1
M  V30 62 1 59 18
M  V30 63 1 60 18
M  V30 64 1 20 61 CFG=3
M  V30 65 1 62 21
M  V30 66 1 63 21
M  V30 67 1 64 22
M  V30 68 1 65 25
M  V30 69 1 66 27
M  V30 70 1 67 28
M  V30 71 1 68 28
M  V30 72 1 69 28
M  V30 73 1 70 29
M  V30 74 1 71 29
M  V30 75 1 72 29
M  V30 76 1 73 30
M  V30 77 1 74 30
M  V30 78 1 75 33
M  V30 79 1 76 34
M  V30 80 1 77 34
M  V30 81 1 78 35
M  V30 82 1 79 35
M  V30 END BOND
M  V30 END CTAB
M  END
>  <i_epik_Tot_Q>  (1) 
0

>  <i_epik_Tot_abs_Q>  (1) 
0

>  <i_i_glide_confnum>  (1) 
3198

>  <i_i_glide_lignum>  (1) 
77

>  <i_i_glide_posenum>  (1) 
45

>  <i_i_glide_rotatable_bonds>  (1) 
14

>  <i_lp_mmshare_version>  (1) 
72125

>  <i_m_source_file_index>  (1) 
37

>  <i_f3d_flags>  (1) 
0

>  <num_sample>  (1) 
50

>  <b_lp_Chiralities_Consistent>  (1) 
1

>  <r_epik_Charging_Adjusted_Penalty>  (1) 
0

>  <r_epik_Ionization_Penalty>  (1) 
4.0629952699979679e-06

>  <r_epik_Ionization_Penalty_Charging>  (1) 
0

>  <r_epik_Ionization_Penalty_Neutral>  (1) 
4.0629952699979679e-06

>  <r_epik_State_Penalty>  (1) 
-0

>  <r_glide_ring_energy>  (1) 
0

>  <r_i_docking_score>  (1) 
-7.0888070804167054

>  <r_i_glide_ecoul>  (1) 
-4.2301137328053793

>  <r_i_glide_eff_state_penalty>  (1) 
-0

>  <r_i_glide_einternal>  (1) 
25.639740660926904

>  <r_i_glide_emodel>  (1) 
-26.518222862227425

>  <r_i_glide_emodel_strain>  (1) 
2.9980241426774654

>  <r_i_glide_energy>  (1) 
-32.100088317379061

>  <r_i_glide_erotb>  (1) 
0.8390941538197072

>  <r_i_glide_esite>  (1) 
0

>  <r_i_glide_evdw>  (1) 
-27.869974584573683

>  <r_i_glide_gscore>  (1) 
-7.0888070804167054

>  <r_i_glide_gscore_strain>  (1) 
0

>  <r_i_glide_hbond>  (1) 
-0.28711481297436775

>  <r_i_glide_ligand_efficiency>  (1) 
-0.20253734515476302

>  <r_i_glide_ligand_efficiency_ln>  (1) 
-1.5561504817480301

>  <r_i_glide_ligand_efficiency_sa>  (1) 
-0.66251308629078354

>  <r_i_glide_lipo>  (1) 
-4.5892621760338272

>  <r_i_glide_metal>  (1) 
-0

>  <r_i_glide_rewards>  (1) 
-1.0235084560787275

>  <r_lp_Energy>  (1) 
31.017113999999999

>  <r_lp_tautomer_probability>  (1) 
1

>  <s_epik_cmdline>  (1) 
J2VwaWtfcHl0aG9uJywgJy1waHQnLCAnMS4wJywgJy1waCcsICc3LjQnLCAnLXRuJywgJzgnLCAnLW1hJywgJzUwMCcsICctaW1hZScsICc8aW5maWxlLm1hZT4nLCAnLW9tYWUnLCAnPG91dGZpbGUubWFlPic=

>  <s_epik_input>  (1) 
W09IXVtDQEhdKFtDSDJdMSlbQ0gyXVtDSDJdT1tDSDJdW0NIMl1bQ0gyXVtDQF0xMltDQEBIXShbQ0hdMltDSDJdW0NASF0oT1tDSDNdKUMzKFtDSDJdW0NIMl0zKU9bQ0gzXSlbQ0BIXShbT0hdKVtDSDJdW0NIMl1bQ0gyXUMoPU8pW05IXWM0W2NIXW4oW0NIM10pW2NIXVtjSF00

>  <s_glide_docking_method>  (1) 
confgen

>  <s_i_glide_gridfile>  (1) 
gpcr_5ht2c_6bqh_protein_autoprepared_prepared

>  <s_lp_Force_Field>  (1) 
S-OPLS

>  <s_lp_Variant>  (1) 
DiffSBDD_36-1

>  <s_m_source_file>  (1) 
generated_GPCR_5HT2C_ligand_DiffSBDD_2026-06-23_prepared.sdf

>  <GenAI_Model>  (1) 
DiffSBDD

>  <Protein>  (1) 
GPCR_5HT2C

$$$$
DiffSBDD_38
     RDKit          3D

  0  0  0  0  0  0  0  0  0  0999 V3000
M  V30 BEGIN CTAB
M  V30 COUNTS 71 72 0 0 1
M  V30 BEGIN ATOM
M  V30 1 C 40.606516 28.219725 57.192997 0
M  V30 2 C 39.129182 33.256503 62.030266 0
M  V30 3 C 41.015392 29.215862 65.023034 0
M  V30 4 F 39.324600 25.731769 56.681699 0
M  V30 5 C 40.480983 30.110237 65.962215 0
M  V30 6 C 41.537060 29.729843 63.830975 0
M  V30 7 C 41.343790 34.040043 63.265651 0 CFG=2
M  V30 8 C 40.332096 36.103355 63.982327 0
M  V30 9 F 38.492422 30.471547 62.031781 0
M  V30 10 C 39.302637 28.363265 60.010474 0
M  V30 11 C 41.512464 31.117734 63.619724 0
M  V30 12 C 38.431628 25.970625 55.723160 0
M  V30 13 C 38.809923 27.197573 54.846125 0 CFG=2
M  V30 14 C 41.317477 28.137814 58.489490 0
M  V30 15 N 38.416999 29.047413 57.942452 0
M  V30 16 O 41.478428 35.412968 63.492306 0
M  V30 17 C 37.841492 31.177705 61.108608 0
M  V30 18 C 39.308595 28.598084 56.972438 0
M  V30 19 C 38.709624 28.578836 55.565554 0 CFG=1
M  V30 20 C 38.683200 32.445923 60.786268 0 CFG=1
M  V30 21 C 40.945126 31.942724 64.619161 0
M  V30 22 F 37.240513 26.137317 56.287532 0
M  V30 23 C 40.590669 33.771013 61.906228 0 CFG=2
M  V30 24 C 37.713626 31.327545 55.327726 0
M  V30 25 F 36.684634 31.543149 61.665667 0
M  V30 26 F 42.048896 28.902728 62.896047 0
M  V30 27 C 40.760194 28.203224 59.718361 0
M  V30 28 N 40.445193 31.448527 65.774096 0
M  V30 29 F 38.383295 24.875253 54.968573 0
M  V30 30 C 37.549514 30.239751 59.898253 0 CFG=2
M  V30 31 C 40.702215 34.994596 60.967796 0
M  V30 32 C 38.956244 30.793043 54.642335 0
M  V30 33 C 37.950584 27.224890 53.561856 0
M  V30 34 N 39.375536 29.592499 54.751096 0
M  V30 35 C 38.773280 29.542902 59.243542 0 CFG=1
M  V30 36 O 37.979319 33.317738 59.923715 0
M  V30 37 F 36.919685 30.949795 58.967777 0
M  V30 38 N 40.854936 33.336347 64.454420 0
M  V30 39 H 41.176081 27.933055 56.321359 0
M  V30 40 H 37.487294 29.301938 57.633458 0
M  V30 41 H 38.445214 34.086371 62.201421 0
M  V30 42 H 39.014120 32.615362 62.898716 0
M  V30 43 H 41.018965 28.153224 65.213473 0
M  V30 44 H 40.068097 29.745168 66.890980 0
M  V30 45 H 42.380157 33.720068 63.147988 0
M  V30 46 H 40.436211 37.165211 63.767511 0
M  V30 47 H 40.239753 35.984592 65.061857 0
M  V30 48 H 39.404671 35.769290 63.518814 0
M  V30 49 H 39.217027 28.497358 61.085954 0
M  V30 50 H 38.767938 27.441059 59.774679 0
M  V30 51 H 41.909188 31.532902 62.712564 0
M  V30 52 H 39.844525 27.044753 54.536017 0
M  V30 53 H 42.386736 27.987529 58.448691 0
M  V30 54 H 37.643686 28.786690 55.657188 0
M  V30 55 H 39.567511 32.118177 60.243508 0
M  V30 56 H 41.168784 32.986342 61.423168 0
M  V30 57 H 37.617752 32.395322 55.130919 0
M  V30 58 H 37.770373 31.198311 56.407241 0
M  V30 59 H 41.403138 28.113417 60.581785 0
M  V30 60 H 36.822017 29.478479 60.167757 0
M  V30 61 H 40.108055 35.838472 61.314106 0
M  V30 62 H 40.343255 34.768932 59.966100 0
M  V30 63 H 41.733942 35.338364 60.880009 0
M  V30 64 H 39.485817 31.526165 54.028305 0
M  V30 65 H 36.891192 27.336702 53.794980 0
M  V30 66 H 38.065995 26.309755 52.985048 0
M  V30 67 H 38.231905 28.044817 52.901251 0
M  V30 68 H 36.815294 30.836319 54.953820 0
M  V30 69 H 39.555830 30.286343 59.102766 0
M  V30 70 H 38.540793 34.038808 59.686388 0
M  V30 71 H 40.410548 33.890004 65.170646 0
M  V30 END ATOM
M  V30 BEGIN BOND
M  V30 1 2 5 3
M  V30 2 1 6 3
M  V30 3 2 11 6
M  V30 4 1 12 4
M  V30 5 1 13 12
M  V30 6 1 14 1
M  V30 7 1 16 7
M  V30 8 1 16 8
M  V30 9 1 17 9
M  V30 10 2 18 1
M  V30 11 1 18 15
M  V30 12 1 19 13
M  V30 13 1 19 18
M  V30 14 1 20 2
M  V30 15 1 20 17
M  V30 16 1 21 11
M  V30 17 1 22 12
M  V30 18 1 23 2
M  V30 19 1 23 7
M  V30 20 1 25 17
M  V30 21 1 26 6
M  V30 22 1 27 10
M  V30 23 2 27 14
M  V30 24 1 28 5
M  V30 25 2 28 21
M  V30 26 1 29 12
M  V30 27 1 30 17
M  V30 28 1 31 23
M  V30 29 1 32 24
M  V30 30 1 33 13
M  V30 31 1 34 19
M  V30 32 2 34 32
M  V30 33 1 35 10
M  V30 34 1 35 15
M  V30 35 1 35 30
M  V30 36 1 36 20
M  V30 37 1 37 30
M  V30 38 1 38 7
M  V30 39 1 38 21
M  V30 40 1 39 1
M  V30 41 1 40 15
M  V30 42 1 41 2
M  V30 43 1 42 2
M  V30 44 1 43 3
M  V30 45 1 44 5
M  V30 46 1 7 45 CFG=3
M  V30 47 1 46 8
M  V30 48 1 47 8
M  V30 49 1 48 8
M  V30 50 1 49 10
M  V30 51 1 50 10
M  V30 52 1 51 11
M  V30 53 1 13 52 CFG=3
M  V30 54 1 53 14
M  V30 55 1 19 54 CFG=1
M  V30 56 1 20 55 CFG=3
M  V30 57 1 23 56 CFG=3
M  V30 58 1 57 24
M  V30 59 1 58 24
M  V30 60 1 59 27
M  V30 61 1 30 60 CFG=1
M  V30 62 1 61 31
M  V30 63 1 62 31
M  V30 64 1 63 31
M  V30 65 1 64 32
M  V30 66 1 65 33
M  V30 67 1 66 33
M  V30 68 1 67 33
M  V30 69 1 68 24
M  V30 70 1 35 69 CFG=3
M  V30 71 1 70 36
M  V30 72 1 71 38
M  V30 END BOND
M  V30 END CTAB
M  END
>  <i_epik_Tot_Q>  (1) 
0

>  <i_epik_Tot_abs_Q>  (1) 
0

>  <i_i_glide_confnum>  (1) 
1587

>  <i_i_glide_lignum>  (1) 
80

>  <i_i_glide_posenum>  (1) 
198

>  <i_i_glide_rotatable_bonds>  (1) 
14

>  <i_lp_mmshare_version>  (1) 
72125

>  <i_m_source_file_index>  (1) 
39

>  <i_f3d_flags>  (1) 
0

>  <num_sample>  (1) 
50

>  <b_lp_Chiralities_Consistent>  (1) 
1

>  <r_epik_Charging_Adjusted_Penalty>  (1) 
0.41068759954161893

>  <r_epik_Ionization_Penalty>  (1) 
0.72091217201864632

>  <r_epik_Ionization_Penalty_Charging>  (1) 
0

>  <r_epik_Ionization_Penalty_Neutral>  (1) 
0.72091217201864632

>  <r_epik_State_Penalty>  (1) 
0.41068759954161893

>  <r_glide_ring_energy>  (1) 
0

>  <r_i_docking_score>  (1) 
-7.0776060396445963

>  <r_i_glide_ecoul>  (1) 
-0.18141074420260897

>  <r_i_glide_eff_state_penalty>  (1) 
0.41068759954161893

>  <r_i_glide_einternal>  (1) 
30.965323315100079

>  <r_i_glide_emodel>  (1) 
-52.405942608931241

>  <r_i_glide_emodel_strain>  (1) 
2.0649075746332244

>  <r_i_glide_energy>  (1) 
-47.747014302302553

>  <r_i_glide_erotb>  (1) 
0.60130745657359952

>  <r_i_glide_esite>  (1) 
-0.20899080952214516

>  <r_i_glide_evdw>  (1) 
-47.565603558099944

>  <r_i_glide_gscore>  (1) 
-7.4882936391862156

>  <r_i_glide_gscore_strain>  (1) 
0

>  <r_i_glide_hbond>  (1) 
0

>  <r_i_glide_ligand_efficiency>  (1) 
-0.18625279051696306

>  <r_i_glide_ligand_efficiency_ln>  (1) 
-1.5261400642230161

>  <r_i_glide_ligand_efficiency_sa>  (1) 
-0.62617730116570913

>  <r_i_glide_lipo>  (1) 
-3.4875420255609622

>  <r_i_glide_metal>  (1) 
-0

>  <r_i_glide_rewards>  (1) 
-1.98757647114132

>  <r_lp_Energy>  (1) 
25.10126

>  <r_lp_tautomer_probability>  (1) 
0.49999644301987139

>  <s_epik_Chemistry_Notes>  (1) 
This compound has an imine and may undergo hydrolysis. This compound contains an acetal/aminal-like group ( X-CH(R)-Y where X, Y are N, S, or O) that may be acid/base labile, releasing an aldehyde.

>  <s_epik_cmdline>  (1) 
J2VwaWtfcHl0aG9uJywgJy1waHQnLCAnMS4wJywgJy1waCcsICc3LjQnLCAnLXRuJywgJzgnLCAnLW1hJywgJzUwMCcsICctaW1hZScsICc8aW5maWxlLm1hZT4nLCAnLW9tYWUnLCAnPG91dGZpbGUubWFlPic=

>  <s_epik_input>  (1) 
RkMoRikoRilbQ0BASF0oW0NIM10pW0NASF0oW05IXVtDSF09W0NIMl0pQzE9TltDQEhdKFtDSDJdW0NIXT1bQ0hdW0NIMl0xKVtDQEhdKEYpQyhGKShGKVtDQEBIXShbT0hdKVtDSDJdW0NAQEhdKFtDSDNdKVtDQEBIXShPW0NIM10pW05IXWMoW2NIXTIpbltjSF1bY0hdYzJG

>  <s_glide_docking_method>  (1) 
confgen

>  <s_i_glide_gridfile>  (1) 
gpcr_5ht2c_6bqh_protein_autoprepared_prepared

>  <s_lp_Force_Field>  (1) 
S-OPLS

>  <s_lp_Variant>  (1) 
DiffSBDD_38-1

>  <s_m_source_file>  (1) 
generated_GPCR_5HT2C_ligand_DiffSBDD_2026-06-23_prepared.sdf

>  <GenAI_Model>  (1) 
DiffSBDD

>  <Protein>  (1) 
GPCR_5HT2C

$$$$
DiffSBDD_17
     RDKit          3D

  0  0  0  0  0  0  0  0  0  0999 V3000
M  V30 BEGIN CTAB
M  V30 COUNTS 94 98 0 0 1
M  V30 BEGIN ATOM
M  V30 1 C 41.940973 32.330461 68.679455 0
M  V30 2 C 38.183226 32.431877 61.778943 0 CFG=2
M  V30 3 C 42.489258 30.785382 66.758816 0
M  V30 4 O 40.567350 29.199503 60.903507 0
M  V30 5 C 41.436030 29.864536 68.880614 0
M  V30 6 C 38.262747 28.769069 53.993154 0
M  V30 7 C 39.470707 26.916706 52.850071 0
M  V30 8 C 38.506076 28.001327 52.932484 0
M  V30 9 C 39.632122 33.977122 59.770504 0
M  V30 10 C 40.453507 34.596682 62.777035 0
M  V30 11 N 43.086279 28.852706 65.427678 0
M  V30 12 C 39.103163 34.954381 62.168886 0 CFG=2
M  V30 13 C 41.248715 30.523090 64.527577 0 CFG=1
M  V30 14 C 39.480639 31.706562 62.309170 0
M  V30 15 N 44.203768 29.395128 64.647970 0 CHG=1
M  V30 16 C 37.285693 30.472760 55.123902 0 CFG=2
M  V30 17 C 38.953698 28.746769 55.301451 0 CFG=2
M  V30 18 C 43.609866 27.205310 63.864459 0
M  V30 19 C 41.962454 29.771730 65.709310 0 CFG=2
M  V30 20 O 37.317810 29.737573 53.926493 0
M  V30 21 C 44.761994 28.227547 63.939681 0
M  V30 22 O 42.188575 31.085068 63.629553 0
M  V30 23 N 37.693882 31.049671 58.167766 0 CHG=1
M  V30 24 C 39.340781 27.456830 55.941290 0
M  V30 25 C 37.481998 31.893579 60.500551 0
M  V30 26 C 40.045018 26.216231 53.873359 0
M  V30 27 N 38.107713 33.936545 61.767741 0 CFG=1 CHG=1
M  V30 28 C 39.313984 29.209177 61.559229 0
M  V30 29 S 38.045169 32.123930 54.968395 0
M  V30 30 C 39.365985 30.207740 62.735776 0 CFG=1
M  V30 31 C 39.839131 26.381171 55.317384 0
M  V30 32 N 40.445887 29.664169 63.619540 0 CHG=1
M  V30 33 C 38.741278 34.721070 60.724179 0 CFG=2
M  V30 34 C 38.660917 30.285251 57.343969 0
M  V30 35 C 38.832441 33.202903 58.712404 0
M  V30 36 C 37.994098 29.573962 56.157555 0 CFG=1
M  V30 37 C 38.364160 31.824451 59.237904 0 CFG=2
M  V30 38 N 42.731468 27.497485 65.013032 0 CHG=1
M  V30 39 C 41.515070 31.065187 67.918600 0
M  V30 40 H 42.928882 32.212494 69.125919 0
M  V30 41 H 41.972878 33.200613 68.022726 0
M  V30 42 H 41.245838 32.560387 69.485096 0
M  V30 43 H 37.460946 32.220699 62.567168 0
M  V30 44 H 43.428536 30.450061 67.204488 0
M  V30 45 H 42.743471 31.721168 66.258975 0
M  V30 46 H 40.555766 28.535663 60.225474 0
M  V30 47 H 42.425500 29.570853 69.232291 0
M  V30 48 H 40.845139 30.099848 69.764838 0
M  V30 49 H 40.978031 28.992883 68.413806 0
M  V30 50 H 39.722272 26.588549 51.853671 0
M  V30 51 H 37.929415 28.206705 52.041577 0
M  V30 52 H 40.321612 33.313220 60.269068 0
M  V30 53 H 40.275878 34.746851 59.367738 0
M  V30 54 H 41.064314 35.499212 62.817797 0
M  V30 55 H 40.336139 34.252330 63.803004 0
M  V30 56 H 41.020997 33.870490 62.203948 0
M  V30 57 H 38.581301 35.761032 62.680330 0
M  V30 58 H 40.602908 31.292378 64.952205 0
M  V30 59 H 39.734537 32.236958 63.216675 0
M  V30 60 H 40.329466 31.797733 61.638640 0
M  V30 61 H 43.815155 30.084922 64.012399 0
M  V30 62 H 36.231209 30.558578 55.367749 0
M  V30 63 H 39.874565 29.315330 55.161183 0
M  V30 64 H 43.955126 26.170733 63.855854 0
M  V30 65 H 43.019705 27.370175 62.967730 0
M  V30 66 H 41.204712 29.165023 66.205582 0
M  V30 67 H 45.573185 27.820279 64.545473 0
M  V30 68 H 45.180567 28.486043 62.967859 0
M  V30 69 H 42.213163 32.024782 63.765458 0
M  V30 70 H 37.057053 30.385798 58.583344 0
M  V30 71 H 39.252607 27.426205 57.016923 0
M  V30 72 H 37.059615 30.913895 60.717280 0
M  V30 73 H 36.604766 32.505798 60.281062 0
M  V30 74 H 40.697261 25.408334 53.579083 0
M  V30 75 H 38.535083 29.418171 60.836308 0
M  V30 76 H 39.121346 28.199875 61.926392 0
M  V30 77 H 36.893210 32.780136 54.759313 0
M  V30 78 H 38.444985 30.138112 63.309321 0
M  V30 79 H 40.128052 25.549764 55.943621 0
M  V30 80 H 39.955772 28.964883 64.168380 0
M  V30 81 H 38.012816 35.393685 60.274039 0
M  V30 82 H 39.471834 30.927424 56.999900 0
M  V30 83 H 39.131652 29.540436 57.985285 0
M  V30 84 H 39.469113 33.063470 57.838405 0
M  V30 85 H 37.982992 33.792463 58.362540 0
M  V30 86 H 37.245124 28.896284 56.561581 0
M  V30 87 H 39.245141 31.258289 59.527354 0
M  V30 88 H 42.955049 26.892108 65.793527 0
M  V30 89 H 40.519780 31.249616 67.511225 0
M  V30 90 H 44.872509 29.807283 65.287373 0
M  V30 91 H 41.748127 27.447618 64.791474 0
M  V30 92 H 37.117254 31.658430 57.585472 0
M  V30 93 H 41.081279 29.205116 62.980536 0
M  V30 94 H 37.163264 34.276016 61.898104 0
M  V30 END ATOM
M  V30 BEGIN BOND
M  V30 1 2 8 6
M  V30 2 1 8 7
M  V30 3 1 12 10
M  V30 4 1 14 2
M  V30 5 1 15 11
M  V30 6 1 17 6
M  V30 7 1 19 3
M  V30 8 1 19 11
M  V30 9 1 19 13
M  V30 10 1 20 6
M  V30 11 1 20 16
M  V30 12 1 21 15
M  V30 13 1 21 18
M  V30 14 1 22 13
M  V30 15 1 24 17
M  V30 16 1 25 2
M  V30 17 2 26 7
M  V30 18 1 27 2
M  V30 19 1 27 12
M  V30 20 1 28 4
M  V30 21 1 29 16
M  V30 22 1 30 14
M  V30 23 1 30 28
M  V30 24 2 31 24
M  V30 25 1 31 26
M  V30 26 1 32 13
M  V30 27 1 32 30
M  V30 28 1 33 9
M  V30 29 1 33 12
M  V30 30 1 33 27
M  V30 31 1 34 23
M  V30 32 1 35 9
M  V30 33 1 36 16
M  V30 34 1 36 17
M  V30 35 1 36 34
M  V30 36 1 37 23
M  V30 37 1 37 25
M  V30 38 1 37 35
M  V30 39 1 38 11
M  V30 40 1 38 18
M  V30 41 1 39 1
M  V30 42 1 39 3
M  V30 43 1 39 5
M  V30 44 1 40 1
M  V30 45 1 41 1
M  V30 46 1 42 1
M  V30 47 1 2 43 CFG=1
M  V30 48 1 44 3
M  V30 49 1 45 3
M  V30 50 1 46 4
M  V30 51 1 47 5
M  V30 52 1 48 5
M  V30 53 1 49 5
M  V30 54 1 50 7
M  V30 55 1 51 8
M  V30 56 1 52 9
M  V30 57 1 53 9
M  V30 58 1 54 10
M  V30 59 1 55 10
M  V30 60 1 56 10
M  V30 61 1 12 57 CFG=1
M  V30 62 1 13 58 CFG=1
M  V30 63 1 59 14
M  V30 64 1 60 14
M  V30 65 1 61 15
M  V30 66 1 16 62 CFG=1
M  V30 67 1 17 63 CFG=3
M  V30 68 1 64 18
M  V30 69 1 65 18
M  V30 70 1 19 66 CFG=1
M  V30 71 1 67 21
M  V30 72 1 68 21
M  V30 73 1 69 22
M  V30 74 1 70 23
M  V30 75 1 71 24
M  V30 76 1 72 25
M  V30 77 1 73 25
M  V30 78 1 74 26
M  V30 79 1 75 28
M  V30 80 1 76 28
M  V30 81 1 77 29
M  V30 82 1 30 78 CFG=1
M  V30 83 1 79 31
M  V30 84 1 80 32
M  V30 85 1 33 81 CFG=3
M  V30 86 1 82 34
M  V30 87 1 83 34
M  V30 88 1 84 35
M  V30 89 1 85 35
M  V30 90 1 36 86 CFG=1
M  V30 91 1 37 87 CFG=1
M  V30 92 1 88 38
M  V30 93 1 89 39
M  V30 94 1 90 15
M  V30 95 1 91 38
M  V30 96 1 92 23
M  V30 97 1 93 32
M  V30 98 1 27 94 CFG=1
M  V30 END BOND
M  V30 END CTAB
M  END
>  <i_epik_Tot_Q>  (1) 
5

>  <i_epik_Tot_abs_Q>  (1) 
5

>  <i_i_glide_confnum>  (1) 
1402

>  <i_i_glide_lignum>  (1) 
39

>  <i_i_glide_posenum>  (1) 
288

>  <i_i_glide_rotatable_bonds>  (1) 
15

>  <i_lp_mmshare_version>  (1) 
72125

>  <i_m_source_file_index>  (1) 
18

>  <i_f3d_flags>  (1) 
0

>  <num_sample>  (1) 
50

>  <b_lp_Chiralities_Consistent>  (1) 
1

>  <r_epik_Charging_Adjusted_Penalty>  (1) 
1.9019841067917955

>  <r_epik_Ionization_Penalty>  (1) 
1.8906488358708171

>  <r_epik_Ionization_Penalty_Charging>  (1) 
0.55913698057276895

>  <r_epik_Ionization_Penalty_Neutral>  (1) 
1.3315118552980483

>  <r_epik_State_Penalty>  (1) 
1.3428471262190267

>  <r_glide_ring_energy>  (1) 
0.0045750838620950583

>  <r_i_docking_score>  (1) 
-7.077573813946497

>  <r_i_glide_ecoul>  (1) 
-14.735650748509842

>  <r_i_glide_eff_state_penalty>  (1) 
1.3428471262190267

>  <r_i_glide_einternal>  (1) 
17.584018682979355

>  <r_i_glide_emodel>  (1) 
-79.987435983748

>  <r_i_glide_emodel_strain>  (1) 
2.7833678433069053

>  <r_i_glide_energy>  (1) 
-54.170120207722391

>  <r_i_glide_erotb>  (1) 
0.55832093698931284

>  <r_i_glide_esite>  (1) 
-0.19126797647331265

>  <r_i_glide_evdw>  (1) 
-39.434469459212551

>  <r_i_glide_gscore>  (1) 
-8.4204209401655241

>  <r_i_glide_gscore_strain>  (1) 
0

>  <r_i_glide_hbond>  (1) 
-0.45383775271019378

>  <r_i_glide_ligand_efficiency>  (1) 
-0.18147625163965378

>  <r_i_glide_ligand_efficiency_ln>  (1) 
-1.5176327345903688

>  <r_i_glide_ligand_efficiency_sa>  (1) 
-0.61542434119571232

>  <r_i_glide_lipo>  (1) 
-3.3888084519022357

>  <r_i_glide_metal>  (1) 
-0

>  <r_i_glide_rewards>  (1) 
-0.76275661083199042

>  <r_lp_Energy>  (1) 
89.857205999999991

>  <s_epik_Chemistry_Notes>  (1) 
This compound contains an acetal/aminal-like group ( X-CH(R)-Y where X, Y are N, S, or O) that may be acid/base labile, releasing an aldehyde.

>  <s_epik_cmdline>  (1) 
J2VwaWtfcHl0aG9uJywgJy1waHQnLCAnMS4wJywgJy1waCcsICc3LjQnLCAnLXRuJywgJzgnLCAnLW1hJywgJzUwMCcsICctaW1hZScsICc8aW5maWxlLm1hZT4nLCAnLW9tYWUnLCAnPG91dGZpbGUubWFlPic=

>  <s_epik_input>  (1) 
W05IXTFbQ0gyXVtDSDJdW05IXU4xW0NAQEhdKFtDSDJdW0NIXShbQ0gzXSlbQ0gzXSlbQ0BASF0oW09IXSlbTkhdW0NASF0oW0NIMl1bT0hdKVtDSDJdW0NAQEhdMltDSDJdW0NASF0oW0NIMl1bQ0gyXVtDQEBIXShOMjMpW0NIXTNbQ0gzXSlbTkhdW0NIMl1bQ0BASF0oW0NASF0oTzQpW1NIXSlbQ0BIXShDND01KVtDSF09W0NIXVtDSF09W0NIXVtDSF01

>  <s_glide_docking_method>  (1) 
confgen

>  <s_i_glide_gridfile>  (1) 
gpcr_5ht2c_6bqh_protein_autoprepared_prepared

>  <s_lp_Force_Field>  (1) 
S-OPLS

>  <s_lp_Variant>  (1) 
DiffSBDD_17-6

>  <s_m_source_file>  (1) 
generated_GPCR_5HT2C_ligand_DiffSBDD_2026-06-23_prepared.sdf

>  <GenAI_Model>  (1) 
DiffSBDD

>  <Protein>  (1) 
GPCR_5HT2C

$$$$
DiffSBDD_39
     RDKit          3D

  0  0  0  0  0  0  0  0  0  0999 V3000
M  V30 BEGIN CTAB
M  V30 COUNTS 57 60 0 0 1
M  V30 BEGIN ATOM
M  V30 1 C 38.588629 32.070359 61.281229 0 CFG=1
M  V30 2 N 39.408545 30.893359 61.071597 0
M  V30 3 N 38.710262 28.657897 55.635478 0
M  V30 4 C 41.267656 34.733450 65.430303 0
M  V30 5 C 41.538742 31.268786 64.025895 0
M  V30 6 O 37.348372 29.999035 54.223227 0
M  V30 7 O 39.645285 30.144353 54.002035 0
M  V30 8 N 38.922674 27.320097 55.519801 0
M  V30 9 C 38.129882 30.362722 57.406531 0 CFG=2
M  V30 10 F 39.245660 29.412951 51.399423 0
M  V30 11 O 42.444733 35.337559 64.944257 0
M  V30 12 F 44.419838 31.150608 67.056720 0
M  V30 13 C 40.379095 30.497859 61.938757 0
M  V30 14 O 37.208992 31.375880 59.375160 0
M  V30 15 C 38.445385 30.998725 58.786939 0 CFG=1
M  V30 16 C 39.119722 29.288999 56.901890 0
M  V30 17 O 41.052359 29.487459 61.767200 0
M  V30 18 N 39.352349 28.182263 52.155592 0
M  V30 19 C 38.557798 29.297173 54.311291 0
M  V30 20 C 43.329450 30.088639 65.216527 0
M  V30 21 C 42.363342 30.117702 64.194246 0
M  V30 22 N 40.877206 33.518923 64.724779 0
M  V30 23 C 42.676816 32.327390 65.924453 0
M  V30 24 C 37.352324 32.299335 60.442097 0 CFG=1
M  V30 25 C 43.486251 31.188242 66.076800 0
M  V30 26 O 37.282269 31.737459 61.767826 0
M  V30 27 C 38.774010 27.030334 54.284633 0
M  V30 28 C 39.139453 30.118201 59.845479 0
M  V30 29 C 38.450700 28.112507 53.314702 0 CFG=2
M  V30 30 O 38.192501 31.435162 56.482253 0
M  V30 31 N 40.531540 31.355458 62.983057 0
M  V30 32 C 39.244824 27.024053 51.288401 0
M  V30 33 C 41.696727 32.376946 64.897834 0
M  V30 34 H 39.035064 32.972784 61.695994 0
M  V30 35 H 41.309630 34.592678 66.510708 0
M  V30 36 H 40.461199 35.451257 65.274312 0
M  V30 37 H 37.298322 30.561534 54.992261 0
M  V30 38 H 39.714555 30.172676 53.056935 0
M  V30 39 H 37.121799 29.943909 57.412557 0
M  V30 40 H 42.342542 36.282448 64.967874 0
M  V30 41 H 39.072715 31.881093 58.627631 0
M  V30 42 H 40.112435 29.715557 56.772708 0
M  V30 43 H 39.210203 28.504763 57.654738 0
M  V30 44 H 43.952854 29.216066 65.341753 0
M  V30 45 H 42.263114 29.260619 63.560767 0
M  V30 46 H 40.330748 33.607875 63.885357 0
M  V30 47 H 42.812348 33.160454 66.593401 0
M  V30 48 H 36.930641 33.292585 60.299300 0
M  V30 49 H 38.877810 26.005308 53.932642 0
M  V30 50 H 40.076687 29.737966 59.435825 0
M  V30 51 H 38.520210 29.254292 60.092571 0
M  V30 52 H 37.425026 27.981784 52.963414 0
M  V30 53 H 39.065658 31.795406 56.482478 0
M  V30 54 H 39.931019 32.159866 63.009362 0
M  V30 55 H 39.863040 27.162626 50.402068 0
M  V30 56 H 39.603968 26.137706 51.797896 0
M  V30 57 H 38.214182 26.873652 50.967699 0
M  V30 END ATOM
M  V30 BEGIN BOND
M  V30 1 1 2 1
M  V30 2 1 8 3
M  V30 3 1 11 4
M  V30 4 1 13 2
M  V30 5 1 15 9
M  V30 6 1 15 14
M  V30 7 1 16 3
M  V30 8 1 16 9
M  V30 9 2 17 13
M  V30 10 1 18 10
M  V30 11 1 19 3
M  V30 12 1 19 6
M  V30 13 1 19 7
M  V30 14 1 21 5
M  V30 15 2 21 20
M  V30 16 1 22 4
M  V30 17 1 24 1
M  V30 18 1 24 14
M  V30 19 1 25 12
M  V30 20 1 25 20
M  V30 21 2 25 23
M  V30 22 1 26 1
M  V30 23 1 26 24
M  V30 24 2 27 8
M  V30 25 1 28 2
M  V30 26 1 28 15
M  V30 27 1 29 18
M  V30 28 1 29 19
M  V30 29 1 29 27
M  V30 30 1 30 9
M  V30 31 1 31 5
M  V30 32 1 31 13
M  V30 33 1 32 18
M  V30 34 2 33 5
M  V30 35 1 33 22
M  V30 36 1 33 23
M  V30 37 1 1 34 CFG=1
M  V30 38 1 35 4
M  V30 39 1 36 4
M  V30 40 1 37 6
M  V30 41 1 38 7
M  V30 42 1 9 39 CFG=1
M  V30 43 1 40 11
M  V30 44 1 15 41 CFG=3
M  V30 45 1 42 16
M  V30 46 1 43 16
M  V30 47 1 44 20
M  V30 48 1 45 21
M  V30 49 1 46 22
M  V30 50 1 47 23
M  V30 51 1 24 48 CFG=1
M  V30 52 1 49 27
M  V30 53 1 50 28
M  V30 54 1 51 28
M  V30 55 1 29 52 CFG=3
M  V30 56 1 53 30
M  V30 57 1 54 31
M  V30 58 1 55 32
M  V30 59 1 56 32
M  V30 60 1 57 32
M  V30 END BOND
M  V30 END CTAB
M  END
>  <i_epik_Tot_Q>  (1) 
0

>  <i_epik_Tot_abs_Q>  (1) 
0

>  <i_i_glide_confnum>  (1) 
678

>  <i_i_glide_lignum>  (1) 
82

>  <i_i_glide_posenum>  (1) 
336

>  <i_i_glide_rotatable_bonds>  (1) 
13

>  <i_lp_mmshare_version>  (1) 
72125

>  <i_m_source_file_index>  (1) 
40

>  <i_f3d_flags>  (1) 
0

>  <num_sample>  (1) 
50

>  <b_lp_Chiralities_Consistent>  (1) 
1

>  <r_epik_Charging_Adjusted_Penalty>  (1) 
0.0039576598872860577

>  <r_epik_Ionization_Penalty>  (1) 
0.0039962828818057711

>  <r_epik_Ionization_Penalty_Charging>  (1) 
0

>  <r_epik_Ionization_Penalty_Neutral>  (1) 
0.0039962828818057711

>  <r_epik_State_Penalty>  (1) 
0.0039576598872860577

>  <r_glide_ring_energy>  (1) 
0

>  <r_i_docking_score>  (1) 
-7.076987277174112

>  <r_i_glide_ecoul>  (1) 
-6.7566031257565289

>  <r_i_glide_eff_state_penalty>  (1) 
0.0039576598872860577

>  <r_i_glide_einternal>  (1) 
15.327848534872203

>  <r_i_glide_emodel>  (1) 
-63.660994334014404

>  <r_i_glide_emodel_strain>  (1) 
1.9603266987358126

>  <r_i_glide_energy>  (1) 
-50.695196793364538

>  <r_i_glide_erotb>  (1) 
0.71920970627699021

>  <r_i_glide_esite>  (1) 
-0.014819674295719846

>  <r_i_glide_evdw>  (1) 
-43.938593667608011

>  <r_i_glide_gscore>  (1) 
-7.0809449370613979

>  <r_i_glide_gscore_strain>  (1) 
0

>  <r_i_glide_hbond>  (1) 
-0.80066491665529926

>  <r_i_glide_ligand_efficiency>  (1) 
-0.21445415991436703

>  <r_i_glide_ligand_efficiency_ln>  (1) 
-1.5738853277644753

>  <r_i_glide_ligand_efficiency_sa>  (1) 
-0.6878690801357471

>  <r_i_glide_lipo>  (1) 
-1.5597120388371144

>  <r_i_glide_metal>  (1) 
-0

>  <r_i_glide_rewards>  (1) 
-2.2145378613063746

>  <r_lp_Energy>  (1) 
32.683669000000002

>  <s_epik_Chemistry_Notes>  (1) 
This compound has an imine and may undergo hydrolysis. This compound contains an acetal/aminal-like group ( X-CH(R)-Y where X, Y are N, S, or O) that may be acid/base labile, releasing an aldehyde.

>  <s_epik_cmdline>  (1) 
J2VwaWtfcHl0aG9uJywgJy1waHQnLCAnMS4wJywgJy1waCcsICc3LjQnLCAnLXRuJywgJzgnLCAnLW1hJywgJzUwMCcsICctaW1hZScsICc8aW5maWxlLm1hZT4nLCAnLW9tYWUnLCAnPG91dGZpbGUubWFlPic=

>  <s_epik_input>  (1) 
Rk4oW0NIM10pW0NASF0xW0NIXT1OTihDMShbT0hdKVtPSF0pW0NIMl1bQ0BIXShbT0hdKVtDQEBIXShPW0NAQEhdKE8yKVtDQEBIXTIzKVtDSDJdTjNDKD1PKVtOSF1jNFtjSF1bY0hdYyhGKVtjSF1jNFtOSF1bQ0gyXVtPSF0=

>  <s_glide_docking_method>  (1) 
confgen

>  <s_i_glide_gridfile>  (1) 
gpcr_5ht2c_6bqh_protein_autoprepared_prepared

>  <s_lp_Force_Field>  (1) 
S-OPLS

>  <s_lp_Variant>  (1) 
DiffSBDD_39-1

>  <s_m_source_file>  (1) 
generated_GPCR_5HT2C_ligand_DiffSBDD_2026-06-23_prepared.sdf

>  <GenAI_Model>  (1) 
DiffSBDD

>  <Protein>  (1) 
GPCR_5HT2C

$$$$
DiffSBDD_33
     RDKit          3D

  0  0  0  0  0  0  0  0  0  0999 V3000
M  V30 BEGIN CTAB
M  V30 COUNTS 49 51 0 0 1
M  V30 BEGIN ATOM
M  V30 1 C 38.439091 30.225537 55.538857 0 CFG=1
M  V30 2 C 38.106517 28.899837 54.809674 0
M  V30 3 C 39.027255 33.684060 60.270444 0
M  V30 4 C 40.450137 34.465917 62.095245 0
M  V30 5 C 39.302804 29.272387 57.790553 0
M  V30 6 C 40.442818 33.173022 62.654860 0
M  V30 7 C 38.253148 30.155613 57.082413 0 CFG=1
M  V30 8 C 38.345822 27.582388 52.650616 0
M  V30 9 C 37.448718 31.626625 59.076427 0
M  V30 10 C 39.016023 32.379662 60.832605 0
M  V30 11 C 41.220798 35.582947 62.772351 0
M  V30 12 C 38.656505 28.739719 53.391903 0
M  V30 13 C 38.845142 27.425198 51.343729 0
M  V30 14 C 38.185531 31.569045 57.719870 0
M  V30 15 C 39.727815 32.133810 62.026138 0
M  V30 16 C 39.477694 29.741022 52.815881 0
M  V30 17 C 39.969622 29.578985 51.504990 0
M  V30 18 C 39.650783 28.424299 50.771211 0
M  V30 19 C 39.829253 30.986795 53.597935 0
M  V30 20 C 39.808190 30.761761 55.106139 0
M  V30 21 N 38.309268 31.319322 60.220918 0
M  V30 22 C 39.741331 34.720314 60.905468 0
M  V30 23 H 37.705887 30.944827 55.168061 0
M  V30 24 H 37.024493 28.782569 54.764639 0
M  V30 25 H 38.479760 28.048038 55.374814 0
M  V30 26 H 38.495481 33.893266 59.356759 0
M  V30 27 H 40.291075 29.729961 57.767126 0
M  V30 28 H 39.043498 29.117362 58.836800 0
M  V30 29 H 39.386529 28.282970 57.344981 0
M  V30 30 H 40.985563 32.976825 63.568012 0
M  V30 31 H 37.277817 29.692054 57.239342 0
M  V30 32 H 37.722001 26.814005 53.084163 0
M  V30 33 H 36.935481 32.578965 59.205591 0
M  V30 34 H 36.635445 30.900371 59.066770 0
M  V30 35 H 42.044615 35.188748 63.368233 0
M  V30 36 H 41.640480 36.267040 62.033945 0
M  V30 37 H 40.564224 36.152026 63.431033 0
M  V30 38 H 38.603853 26.537788 50.776572 0
M  V30 39 H 39.178340 32.011552 57.798106 0
M  V30 40 H 37.644675 32.225513 57.039074 0
M  V30 41 H 39.725710 31.144812 62.460884 0
M  V30 42 H 40.592486 30.343365 51.062867 0
M  V30 43 H 40.027642 28.303975 49.767852 0
M  V30 44 H 40.814183 31.337741 53.292608 0
M  V30 45 H 39.115608 31.763990 53.327479 0
M  V30 46 H 40.586002 30.045528 55.367735 0
M  V30 47 H 40.042963 31.696585 55.614880 0
M  V30 48 H 38.232068 30.421537 60.675933 0
M  V30 49 H 39.747359 35.711204 60.475509 0
M  V30 END ATOM
M  V30 BEGIN BOND
M  V30 1 1 2 1
M  V30 2 1 6 4
M  V30 3 1 7 1
M  V30 4 1 7 5
M  V30 5 2 10 3
M  V30 6 1 11 4
M  V30 7 1 12 2
M  V30 8 2 12 8
M  V30 9 1 13 8
M  V30 10 1 14 7
M  V30 11 1 14 9
M  V30 12 2 15 6
M  V30 13 1 15 10
M  V30 14 1 16 12
M  V30 15 2 17 16
M  V30 16 2 18 13
M  V30 17 1 18 17
M  V30 18 1 19 16
M  V30 19 1 20 1
M  V30 20 1 20 19
M  V30 21 1 21 9
M  V30 22 1 21 10
M  V30 23 1 22 3
M  V30 24 2 22 4
M  V30 25 1 1 23 CFG=3
M  V30 26 1 24 2
M  V30 27 1 25 2
M  V30 28 1 26 3
M  V30 29 1 27 5
M  V30 30 1 28 5
M  V30 31 1 29 5
M  V30 32 1 30 6
M  V30 33 1 7 31 CFG=3
M  V30 34 1 32 8
M  V30 35 1 33 9
M  V30 36 1 34 9
M  V30 37 1 35 11
M  V30 38 1 36 11
M  V30 39 1 37 11
M  V30 40 1 38 13
M  V30 41 1 39 14
M  V30 42 1 40 14
M  V30 43 1 41 15
M  V30 44 1 42 17
M  V30 45 1 43 18
M  V30 46 1 44 19
M  V30 47 1 45 19
M  V30 48 1 46 20
M  V30 49 1 47 20
M  V30 50 1 48 21
M  V30 51 1 49 22
M  V30 END BOND
M  V30 END CTAB
M  END
>  <i_epik_Tot_Q>  (1) 
0

>  <i_epik_Tot_abs_Q>  (1) 
0

>  <i_i_glide_confnum>  (1) 
43

>  <i_i_glide_lignum>  (1) 
72

>  <i_i_glide_posenum>  (1) 
32

>  <i_i_glide_rotatable_bonds>  (1) 
5

>  <i_lp_mmshare_version>  (1) 
72125

>  <i_m_source_file_index>  (1) 
34

>  <i_f3d_flags>  (1) 
0

>  <num_sample>  (1) 
50

>  <b_lp_Chiralities_Consistent>  (1) 
1

>  <r_epik_Charging_Adjusted_Penalty>  (1) 
0.016607450009884436

>  <r_epik_Ionization_Penalty>  (1) 
0.016607451576217569

>  <r_epik_Ionization_Penalty_Charging>  (1) 
0

>  <r_epik_Ionization_Penalty_Neutral>  (1) 
0.016607451576217569

>  <r_epik_State_Penalty>  (1) 
0.016607450009884436

>  <r_glide_ring_energy>  (1) 
0

>  <r_i_docking_score>  (1) 
-7.0746382100404519

>  <r_i_glide_ecoul>  (1) 
-2.1316311201464457

>  <r_i_glide_eff_state_penalty>  (1) 
0.016607450009884436

>  <r_i_glide_einternal>  (1) 
5.9306226717682238

>  <r_i_glide_emodel>  (1) 
-52.224997438178448

>  <r_i_glide_emodel_strain>  (1) 
0

>  <r_i_glide_energy>  (1) 
-38.04728117261309

>  <r_i_glide_erotb>  (1) 
0.84876371761229696

>  <r_i_glide_esite>  (1) 
0

>  <r_i_glide_evdw>  (1) 
-35.915650052466646

>  <r_i_glide_gscore>  (1) 
-7.091245660050336

>  <r_i_glide_gscore_strain>  (1) 
0

>  <r_i_glide_hbond>  (1) 
0

>  <r_i_glide_ligand_efficiency>  (1) 
-0.32157446409274781

>  <r_i_glide_ligand_efficiency_ln>  (1) 
-1.7292996322325909

>  <r_i_glide_ligand_efficiency_sa>  (1) 
-0.90106429612230798

>  <r_i_glide_lipo>  (1) 
-3.9548779045431215

>  <r_i_glide_metal>  (1) 
-0

>  <r_i_glide_rewards>  (1) 
-1.8696043024742119

>  <r_lp_Energy>  (1) 
32.477902999999998

>  <s_epik_cmdline>  (1) 
J2VwaWtfcHl0aG9uJywgJy1waHQnLCAnMS4wJywgJy1waCcsICc3LjQnLCAnLXRuJywgJzgnLCAnLW1hJywgJzUwMCcsICctaW1hZScsICc8aW5maWxlLm1hZT4nLCAnLW9tYWUnLCAnPG91dGZpbGUubWFlPic=

>  <s_epik_input>  (1) 
W2NIXTFbY0hdW2NIXVtjSF1jKGMxMilbQ0gyXVtDSDJdW0NAQEhdKFtDSDJdMilbQ0BASF0oW0NIM10pW0NIMl1bQ0gyXVtOSF1jKFtjSF1bY0hdMylbY0hdW2NIXWMzW0NIM10=

>  <s_glide_docking_method>  (1) 
confgen

>  <s_i_glide_gridfile>  (1) 
gpcr_5ht2c_6bqh_protein_autoprepared_prepared

>  <s_lp_Force_Field>  (1) 
S-OPLS

>  <s_lp_Variant>  (1) 
DiffSBDD_33-1

>  <s_m_source_file>  (1) 
generated_GPCR_5HT2C_ligand_DiffSBDD_2026-06-23_prepared.sdf

>  <GenAI_Model>  (1) 
DiffSBDD

>  <Protein>  (1) 
GPCR_5HT2C

$$$$
DiffSBDD_33
     RDKit          3D

  0  0  0  0  0  0  0  0  0  0999 V3000
M  V30 BEGIN CTAB
M  V30 COUNTS 49 51 0 0 1
M  V30 BEGIN ATOM
M  V30 1 C 38.230251 29.358276 56.075850 0 CFG=1
M  V30 2 C 38.238541 28.177107 55.077467 0
M  V30 3 C 36.723784 34.122199 60.733543 0
M  V30 4 C 38.637546 35.490348 61.390225 0
M  V30 5 C 39.339310 28.365463 58.221132 0
M  V30 6 C 39.511770 34.470414 60.967762 0
M  V30 7 C 38.047454 28.866605 57.545979 0 CFG=1
M  V30 8 C 38.599993 27.491284 52.661983 0
M  V30 9 C 37.965651 31.052791 59.019906 0
M  V30 10 C 37.592604 33.096320 60.305510 0
M  V30 11 C 39.193494 36.774293 61.973339 0
M  V30 12 C 38.727181 28.476128 53.662954 0
M  V30 13 C 39.058081 27.745493 51.355702 0
M  V30 14 C 37.231946 29.824420 58.450596 0
M  V30 15 C 38.996253 33.276084 60.426020 0
M  V30 16 C 39.316038 29.727762 53.347461 0
M  V30 17 C 39.774032 29.975489 52.035739 0
M  V30 18 C 39.645138 28.985546 51.042746 0
M  V30 19 C 39.466884 30.800021 54.412500 0
M  V30 20 C 39.467175 30.237910 55.835321 0
M  V30 21 N 37.047845 31.909033 59.767757 0
M  V30 22 C 37.245089 35.315589 61.272996 0
M  V30 23 H 37.359733 29.966040 55.820618 0
M  V30 24 H 37.245143 27.737527 55.001978 0
M  V30 25 H 38.886612 27.388141 55.459511 0
M  V30 26 H 35.654456 33.994570 60.646688 0
M  V30 27 H 40.062124 29.168570 58.364782 0
M  V30 28 H 39.124837 27.938938 59.201578 0
M  V30 29 H 39.823669 27.589114 57.628960 0
M  V30 30 H 40.579758 34.602840 61.058568 0
M  V30 31 H 37.404994 27.987666 57.472045 0
M  V30 32 H 38.151710 26.537755 52.898351 0
M  V30 33 H 38.765488 30.699230 59.669760 0
M  V30 34 H 38.402470 31.644099 58.217981 0
M  V30 35 H 40.259680 36.877587 61.767751 0
M  V30 36 H 38.682609 37.638705 61.548413 0
M  V30 37 H 39.052055 36.788699 63.054404 0
M  V30 38 H 38.958827 26.987041 50.592055 0
M  V30 39 H 36.344655 30.137733 57.904489 0
M  V30 40 H 36.850581 29.257348 59.298994 0
M  V30 41 H 39.676513 32.505205 60.108437 0
M  V30 42 H 40.225166 30.926957 51.791945 0
M  V30 43 H 39.995372 29.178753 50.039415 0
M  V30 44 H 40.399148 31.337742 54.240712 0
M  V30 45 H 38.657540 31.521795 54.293041 0
M  V30 46 H 40.368424 29.640207 55.973770 0
M  V30 47 H 39.526015 31.060815 56.542947 0
M  V30 48 H 36.072489 31.899804 59.495910 0
M  V30 49 H 36.574430 36.096820 61.598275 0
M  V30 END ATOM
M  V30 BEGIN BOND
M  V30 1 1 2 1
M  V30 2 1 6 4
M  V30 3 1 7 1
M  V30 4 1 7 5
M  V30 5 2 10 3
M  V30 6 1 11 4
M  V30 7 1 12 2
M  V30 8 2 12 8
M  V30 9 1 13 8
M  V30 10 1 14 7
M  V30 11 1 14 9
M  V30 12 2 15 6
M  V30 13 1 15 10
M  V30 14 1 16 12
M  V30 15 2 17 16
M  V30 16 2 18 13
M  V30 17 1 18 17
M  V30 18 1 19 16
M  V30 19 1 20 1
M  V30 20 1 20 19
M  V30 21 1 21 9
M  V30 22 1 21 10
M  V30 23 1 22 3
M  V30 24 2 22 4
M  V30 25 1 1 23 CFG=3
M  V30 26 1 24 2
M  V30 27 1 25 2
M  V30 28 1 26 3
M  V30 29 1 27 5
M  V30 30 1 28 5
M  V30 31 1 29 5
M  V30 32 1 30 6
M  V30 33 1 7 31 CFG=3
M  V30 34 1 32 8
M  V30 35 1 33 9
M  V30 36 1 34 9
M  V30 37 1 35 11
M  V30 38 1 36 11
M  V30 39 1 37 11
M  V30 40 1 38 13
M  V30 41 1 39 14
M  V30 42 1 40 14
M  V30 43 1 41 15
M  V30 44 1 42 17
M  V30 45 1 43 18
M  V30 46 1 44 19
M  V30 47 1 45 19
M  V30 48 1 46 20
M  V30 49 1 47 20
M  V30 50 1 48 21
M  V30 51 1 49 22
M  V30 END BOND
M  V30 END CTAB
M  END
>  <i_epik_Tot_Q>  (1) 
0

>  <i_epik_Tot_abs_Q>  (1) 
0

>  <i_i_glide_confnum>  (1) 
22

>  <i_i_glide_lignum>  (1) 
72

>  <i_i_glide_posenum>  (1) 
43

>  <i_i_glide_rotatable_bonds>  (1) 
5

>  <i_lp_mmshare_version>  (1) 
72125

>  <i_m_source_file_index>  (1) 
34

>  <i_f3d_flags>  (1) 
0

>  <num_sample>  (1) 
50

>  <b_lp_Chiralities_Consistent>  (1) 
1

>  <r_epik_Charging_Adjusted_Penalty>  (1) 
0.016607450009884436

>  <r_epik_Ionization_Penalty>  (1) 
0.016607451576217569

>  <r_epik_Ionization_Penalty_Charging>  (1) 
0

>  <r_epik_Ionization_Penalty_Neutral>  (1) 
0.016607451576217569

>  <r_epik_State_Penalty>  (1) 
0.016607450009884436

>  <r_glide_ring_energy>  (1) 
0

>  <r_i_docking_score>  (1) 
-7.074635420622692

>  <r_i_glide_ecoul>  (1) 
-1.480168515608979

>  <r_i_glide_eff_state_penalty>  (1) 
0.016607450009884436

>  <r_i_glide_einternal>  (1) 
4.3027073062941055

>  <r_i_glide_emodel>  (1) 
-51.708597858218781

>  <r_i_glide_emodel_strain>  (1) 
0

>  <r_i_glide_energy>  (1) 
-36.716930653310676

>  <r_i_glide_erotb>  (1) 
0.84876371761229696

>  <r_i_glide_esite>  (1) 
-0.058310273880232112

>  <r_i_glide_evdw>  (1) 
-35.236762137701696

>  <r_i_glide_gscore>  (1) 
-7.0912428706325761

>  <r_i_glide_gscore_strain>  (1) 
0

>  <r_i_glide_hbond>  (1) 
0

>  <r_i_glide_ligand_efficiency>  (1) 
-0.32157433730103147

>  <r_i_glide_ligand_efficiency_ln>  (1) 
-1.7292989503971439

>  <r_i_glide_ligand_efficiency_sa>  (1) 
-0.90106394084693198

>  <r_i_glide_lipo>  (1) 
-3.6825836994377132

>  <r_i_glide_metal>  (1) 
-0

>  <r_i_glide_rewards>  (1) 
-2.2152492307004965

>  <r_lp_Energy>  (1) 
32.477902999999998

>  <s_epik_cmdline>  (1) 
J2VwaWtfcHl0aG9uJywgJy1waHQnLCAnMS4wJywgJy1waCcsICc3LjQnLCAnLXRuJywgJzgnLCAnLW1hJywgJzUwMCcsICctaW1hZScsICc8aW5maWxlLm1hZT4nLCAnLW9tYWUnLCAnPG91dGZpbGUubWFlPic=

>  <s_epik_input>  (1) 
W2NIXTFbY0hdW2NIXVtjSF1jKGMxMilbQ0gyXVtDSDJdW0NAQEhdKFtDSDJdMilbQ0BASF0oW0NIM10pW0NIMl1bQ0gyXVtOSF1jKFtjSF1bY0hdMylbY0hdW2NIXWMzW0NIM10=

>  <s_glide_docking_method>  (1) 
confgen

>  <s_i_glide_gridfile>  (1) 
gpcr_5ht2c_6bqh_protein_autoprepared_prepared

>  <s_lp_Force_Field>  (1) 
S-OPLS

>  <s_lp_Variant>  (1) 
DiffSBDD_33-1

>  <s_m_source_file>  (1) 
generated_GPCR_5HT2C_ligand_DiffSBDD_2026-06-23_prepared.sdf

>  <GenAI_Model>  (1) 
DiffSBDD

>  <Protein>  (1) 
GPCR_5HT2C

$$$$
DiffSBDD_19
     RDKit          3D

  0  0  0  0  0  0  0  0  0  0999 V3000
M  V30 BEGIN CTAB
M  V30 COUNTS 69 71 0 0 1
M  V30 BEGIN ATOM
M  V30 1 O 36.574719 24.163973 55.151782 0
M  V30 2 C 39.420869 30.155568 53.703771 0
M  V30 3 C 40.134073 31.059611 63.152490 0
M  V30 4 C 39.685476 29.737769 51.314635 0
M  V30 5 C 39.245156 28.762852 53.932604 0
M  V30 6 C 39.418387 31.144568 54.852668 0
M  V30 7 C 37.921335 23.737756 57.767730 0
M  V30 8 C 39.870656 28.366096 59.006351 0
M  V30 9 C 40.517199 32.293568 62.345755 0 CFG=2
M  V30 10 N 40.100386 33.556274 62.967790 0
M  V30 11 F 41.163931 30.910830 49.944653 0
M  V30 12 C 39.244978 27.872076 52.826285 0
M  V30 13 F 40.045146 29.337755 48.981902 0
M  V30 14 C 40.559167 34.719302 62.233775 0
M  V30 15 C 38.504112 28.837962 59.511000 0 CFG=2
M  V30 16 C 37.535498 30.058448 57.493294 0
M  V30 17 C 37.652186 26.318256 55.233852 0
M  V30 18 O 38.215665 24.606197 56.699052 0
M  V30 19 O 40.268533 30.933774 64.366640 0
M  V30 20 C 39.645141 30.626071 52.401038 0
M  V30 21 C 37.113656 25.120754 56.036214 0 CFG=2
M  V30 22 C 39.228113 28.209802 55.366887 0
M  V30 23 N 39.577412 30.530381 60.967249 0
M  V30 24 C 39.993996 30.273085 49.924574 0
M  V30 25 C 39.460539 28.362100 51.521912 0
M  V30 26 C 37.598267 28.732283 58.261769 0 CFG=1
M  V30 27 O 40.067412 35.822230 62.956177 0
M  V30 28 C 39.536226 27.184968 58.091287 0
M  V30 29 C 38.138664 27.493807 57.487487 0 CFG=2
M  V30 30 N 39.631907 30.173843 62.300121 0
M  V30 31 N 38.045126 27.565967 55.975309 0 CFG=2 CHG=1
M  V30 32 C 39.766713 31.989827 61.034533 0
M  V30 33 N 38.463181 30.154964 60.171766 0
M  V30 34 H 36.203029 23.460181 55.662316 0
M  V30 35 H 39.645102 32.138716 54.482672 0
M  V30 36 H 38.420433 31.217607 55.275930 0
M  V30 37 H 40.161659 30.926194 55.616516 0
M  V30 38 H 38.829632 23.179634 57.972447 0
M  V30 39 H 37.645144 24.299942 58.657660 0
M  V30 40 H 37.135755 23.022651 57.531631 0
M  V30 41 H 40.360806 29.157124 58.437183 0
M  V30 42 H 40.541450 28.079706 59.817515 0
M  V30 43 H 41.598467 32.276687 62.198137 0
M  V30 44 H 39.099886 33.609830 63.091955 0
M  V30 45 H 39.133252 26.813349 52.978554 0
M  V30 46 H 40.150727 34.737069 61.222380 0
M  V30 47 H 41.645166 34.751564 62.175076 0
M  V30 48 H 38.172487 28.097991 60.235550 0
M  V30 49 H 38.531097 30.461448 57.325017 0
M  V30 50 H 36.998698 29.970759 56.549071 0
M  V30 51 H 36.999304 30.805856 58.079447 0
M  V30 52 H 36.915290 26.600288 54.480912 0
M  V30 53 H 38.509441 25.910298 54.702855 0
M  V30 54 H 39.808674 31.681193 52.232545 0
M  V30 55 H 36.305712 25.404713 56.713019 0
M  V30 56 H 39.613273 28.949042 56.058651 0
M  V30 57 H 40.023934 27.465469 55.347308 0
M  V30 58 H 39.245156 31.004052 49.622708 0
M  V30 59 H 39.488298 27.676054 50.687628 0
M  V30 60 H 36.570995 28.537758 58.567766 0
M  V30 61 H 40.790684 36.255853 63.387239 0
M  V30 62 H 40.338051 26.979897 57.386273 0
M  V30 63 H 39.460111 26.285818 58.704349 0
M  V30 64 H 37.487120 26.714356 57.863910 0
M  V30 65 H 39.287436 29.266934 62.587092 0
M  V30 66 H 38.788179 32.474421 61.046199 0
M  V30 67 H 40.301271 32.364708 60.167831 0
M  V30 68 H 37.597081 30.287085 60.689771 0
M  V30 69 H 37.282112 28.208783 55.817950 0
M  V30 END ATOM
M  V30 BEGIN BOND
M  V30 1 2 5 2
M  V30 2 1 6 2
M  V30 3 1 9 3
M  V30 4 1 10 9
M  V30 5 1 12 5
M  V30 6 1 14 10
M  V30 7 1 15 8
M  V30 8 1 18 7
M  V30 9 2 19 3
M  V30 10 1 20 2
M  V30 11 2 20 4
M  V30 12 1 21 1
M  V30 13 1 21 17
M  V30 14 1 21 18
M  V30 15 1 22 5
M  V30 16 1 24 4
M  V30 17 1 24 11
M  V30 18 1 24 13
M  V30 19 1 25 4
M  V30 20 2 25 12
M  V30 21 1 26 15
M  V30 22 1 26 16
M  V30 23 1 27 14
M  V30 24 1 28 8
M  V30 25 1 29 26
M  V30 26 1 29 28
M  V30 27 1 30 3
M  V30 28 1 30 23
M  V30 29 1 31 17
M  V30 30 1 31 22
M  V30 31 1 31 29
M  V30 32 1 32 9
M  V30 33 1 32 23
M  V30 34 1 33 15
M  V30 35 1 33 23
M  V30 36 1 34 1
M  V30 37 1 35 6
M  V30 38 1 36 6
M  V30 39 1 37 6
M  V30 40 1 38 7
M  V30 41 1 39 7
M  V30 42 1 40 7
M  V30 43 1 41 8
M  V30 44 1 42 8
M  V30 45 1 9 43 CFG=3
M  V30 46 1 44 10
M  V30 47 1 45 12
M  V30 48 1 46 14
M  V30 49 1 47 14
M  V30 50 1 15 48 CFG=1
M  V30 51 1 49 16
M  V30 52 1 50 16
M  V30 53 1 51 16
M  V30 54 1 52 17
M  V30 55 1 53 17
M  V30 56 1 54 20
M  V30 57 1 21 55 CFG=1
M  V30 58 1 56 22
M  V30 59 1 57 22
M  V30 60 1 58 24
M  V30 61 1 59 25
M  V30 62 1 26 60 CFG=1
M  V30 63 1 61 27
M  V30 64 1 62 28
M  V30 65 1 63 28
M  V30 66 1 29 64 CFG=1
M  V30 67 1 65 30
M  V30 68 1 66 32
M  V30 69 1 67 32
M  V30 70 1 68 33
M  V30 71 1 31 69 CFG=1
M  V30 END BOND
M  V30 END CTAB
M  END
>  <i_epik_Tot_Q>  (1) 
1

>  <i_epik_Tot_abs_Q>  (1) 
1

>  <i_i_glide_confnum>  (1) 
5130

>  <i_i_glide_lignum>  (1) 
42

>  <i_i_glide_posenum>  (1) 
344

>  <i_i_glide_rotatable_bonds>  (1) 
13

>  <i_lp_mmshare_version>  (1) 
72125

>  <i_m_source_file_index>  (1) 
20

>  <i_f3d_flags>  (1) 
0

>  <num_sample>  (1) 
50

>  <b_lp_Chiralities_Consistent>  (1) 
1

>  <r_epik_Charging_Adjusted_Penalty>  (1) 
0.46831319053283144

>  <r_epik_Ionization_Penalty>  (1) 
0.71387485365223857

>  <r_epik_Ionization_Penalty_Charging>  (1) 
0.049252262366849507

>  <r_epik_Ionization_Penalty_Neutral>  (1) 
0.66462259128538903

>  <r_epik_State_Penalty>  (1) 
0.41906092816598195

>  <r_glide_ring_energy>  (1) 
1.0856690971414245

>  <r_i_docking_score>  (1) 
-7.0707650744552399

>  <r_i_glide_ecoul>  (1) 
-2.0763942785857057

>  <r_i_glide_eff_state_penalty>  (1) 
0.41906092816598195

>  <r_i_glide_einternal>  (1) 
12.936075758704035

>  <r_i_glide_emodel>  (1) 
-56.201224610143235

>  <r_i_glide_emodel_strain>  (1) 
5.5135358891296988

>  <r_i_glide_energy>  (1) 
-44.692006745643823

>  <r_i_glide_erotb>  (1) 
0.81494899861877068

>  <r_i_glide_esite>  (1) 
-0.0018310854749256007

>  <r_i_glide_evdw>  (1) 
-42.615612467058121

>  <r_i_glide_gscore>  (1) 
-7.4898260026212222

>  <r_i_glide_gscore_strain>  (1) 
0.37838397228242471

>  <r_i_glide_hbond>  (1) 
-0.095859603467684157

>  <r_i_glide_ligand_efficiency>  (1) 
-0.21426560831682545

>  <r_i_glide_ligand_efficiency_ln>  (1) 
-1.5725015420966395

>  <r_i_glide_ligand_efficiency_sa>  (1) 
-0.687264294413657

>  <r_i_glide_lipo>  (1) 
-3.8496182446438496

>  <r_i_glide_metal>  (1) 
-0

>  <r_i_glide_rewards>  (1) 
-2.2936102747951965

>  <r_lp_Energy>  (1) 
31.949607

>  <s_epik_Chemistry_Notes>  (1) 
This compound contains an acetal/aminal-like group ( X-CH(R)-Y where X, Y are N, S, or O) that may be acid/base labile, releasing an aldehyde.

>  <s_epik_cmdline>  (1) 
J2VwaWtfcHl0aG9uJywgJy1waHQnLCAnMS4wJywgJy1waCcsICc3LjQnLCAnLXRuJywgJzgnLCAnLW1hJywgJzUwMCcsICctaW1hZScsICc8aW5maWxlLm1hZT4nLCAnLW9tYWUnLCAnPG91dGZpbGUubWFlPic=

>  <s_epik_input>  (1) 
RltDSF0oRiljKFtjSF0xKVtjSF1bY0hdYyhjMVtDSDNdKVtDSDJdTihbQ0gyXVtDQEBIXShbT0hdKU9bQ0gzXSlbQ0BIXShbQ0BASF0yW0NIM10pW0NIMl1bQ0gyXVtDQEhdMltOSF1OKFtOSF0zKVtDSDJdW0NASF0oQzM9TylbTkhdW0NIMl1bT0hd

>  <s_glide_docking_method>  (1) 
confgen

>  <s_i_glide_gridfile>  (1) 
gpcr_5ht2c_6bqh_protein_autoprepared_prepared

>  <s_lp_Force_Field>  (1) 
S-OPLS

>  <s_lp_Variant>  (1) 
DiffSBDD_19-1

>  <s_m_source_file>  (1) 
generated_GPCR_5HT2C_ligand_DiffSBDD_2026-06-23_prepared.sdf

>  <GenAI_Model>  (1) 
DiffSBDD

>  <Protein>  (1) 
GPCR_5HT2C

$$$$
DiffSBDD_17
     RDKit          3D

  0  0  0  0  0  0  0  0  0  0999 V3000
M  V30 BEGIN CTAB
M  V30 COUNTS 93 97 0 0 1
M  V30 BEGIN ATOM
M  V30 1 C 41.473930 35.187217 66.708758 0
M  V30 2 C 38.948312 33.406206 61.070364 0 CFG=2
M  V30 3 C 41.249488 32.663644 67.227009 0
M  V30 4 O 41.808306 36.137728 63.423748 0
M  V30 5 C 40.472702 34.434126 68.876175 0
M  V30 6 C 38.845553 28.238929 54.097381 0
M  V30 7 C 38.963943 28.126447 51.596712 0
M  V30 8 C 38.814489 27.568372 52.940985 0
M  V30 9 C 36.757167 34.331591 58.752474 0
M  V30 10 C 37.604297 36.966096 60.601723 0
M  V30 11 N 41.488016 30.462724 66.047760 0
M  V30 12 C 37.442914 35.542805 61.100744 0 CFG=2
M  V30 13 C 41.625291 32.606255 64.652989 0 CFG=1
M  V30 14 C 40.461909 33.650180 61.263621 0
M  V30 15 N 41.121013 29.570682 64.925139 0 CHG=1
M  V30 16 C 39.109032 28.404882 56.356985 0 CFG=2
M  V30 17 C 38.964264 29.702259 54.289066 0 CFG=2
M  V30 18 C 40.542770 28.481842 66.945655 0
M  V30 19 C 41.002090 31.862715 65.900707 0 CFG=2
M  V30 20 O 38.728286 27.570496 55.277048 0
M  V30 21 C 41.012773 28.226368 65.511481 0
M  V30 22 O 42.379630 31.764138 63.790525 0
M  V30 23 N 38.845132 31.090537 57.917524 0 CHG=1
M  V30 24 C 39.842310 30.537487 53.418194 0
M  V30 25 C 38.705926 32.144358 60.174013 0
M  V30 26 C 39.496397 29.328246 51.236020 0
M  V30 27 N 38.324908 34.596367 60.445629 0 CFG=2 CHG=1
M  V30 28 C 40.614660 35.512401 63.018184 0
M  V30 29 S 38.043392 28.271974 57.820797 0 CHG=-1
M  V30 30 C 40.965259 34.050285 62.661740 0 CFG=1
M  V30 31 C 40.045253 30.381823 52.100261 0
M  V30 32 N 40.570345 33.067767 63.710134 0 CHG=1
M  V30 33 C 36.901109 34.424198 60.242521 0 CFG=2
M  V30 34 C 38.599758 31.024093 56.456548 0
M  V30 35 C 37.243940 32.964496 58.230054 0
M  V30 36 C 39.325596 29.831707 55.778059 0 CFG=1
M  V30 37 C 38.614166 32.381463 58.633715 0 CFG=2
M  V30 38 N 41.090437 29.800948 67.310996 0 CHG=1
M  V30 39 C 40.645550 34.090702 67.386318 0
M  V30 40 H 42.542371 35.016564 66.835288 0
M  V30 41 H 41.239240 36.180380 67.096871 0
M  V30 42 H 41.259312 35.226714 65.651154 0
M  V30 43 H 38.482471 33.219727 62.038483 0
M  V30 44 H 40.828890 32.104835 68.060338 0
M  V30 45 H 42.319717 32.703636 67.433616 0
M  V30 46 H 41.645656 37.002129 63.803109 0
M  V30 47 H 41.420644 34.390631 69.412531 0
M  V30 48 H 40.069296 35.438467 69.007343 0
M  V30 49 H 39.779583 33.751764 69.366896 0
M  V30 50 H 38.660305 27.483125 50.783404 0
M  V30 51 H 38.670756 26.500883 53.006535 0
M  V30 52 H 37.253926 35.155367 58.245986 0
M  V30 53 H 35.698484 34.441883 58.512148 0
M  V30 54 H 36.737435 37.560072 60.893131 0
M  V30 55 H 38.489059 37.423793 61.042341 0
M  V30 56 H 37.692969 37.010482 59.516280 0
M  V30 57 H 37.451964 35.405892 62.174965 0
M  V30 58 H 42.281956 33.421991 64.949559 0
M  V30 59 H 40.785226 34.429659 60.570451 0
M  V30 60 H 41.025233 32.763793 60.972622 0
M  V30 61 H 40.221830 29.863125 64.567663 0
M  V30 62 H 40.080979 28.030563 56.682083 0
M  V30 63 H 37.953071 30.083903 54.143625 0
M  V30 64 H 40.860299 27.701887 67.637541 0
M  V30 65 H 39.454770 28.544835 66.967712 0
M  V30 66 H 39.923765 31.791169 65.763672 0
M  V30 67 H 42.003941 27.769493 65.522838 0
M  V30 68 H 40.354668 27.568107 64.945400 0
M  V30 69 H 43.295071 32.010484 63.850696 0
M  V30 70 H 39.792983 30.785128 58.066972 0
M  V30 71 H 40.317476 31.370482 53.910031 0
M  V30 72 H 39.464998 31.390173 60.387950 0
M  V30 73 H 37.780304 31.662417 60.491283 0
M  V30 74 H 39.556863 29.512916 50.173413 0
M  V30 75 H 39.846603 35.592007 63.787056 0
M  V30 76 H 40.252366 36.064850 62.150909 0
M  V30 77 H 42.045477 33.987263 62.557797 0
M  V30 78 H 40.672523 31.119332 51.619809 0
M  V30 79 H 39.830252 33.489462 64.253722 0
M  V30 80 H 36.455935 33.601289 60.801668 0
M  V30 81 H 37.525569 30.939493 56.287380 0
M  V30 82 H 38.934537 31.951476 55.990053 0
M  V30 83 H 37.241192 33.047083 57.144025 0
M  V30 84 H 36.497115 32.240637 58.567732 0
M  V30 85 H 40.398027 30.017461 55.837364 0
M  V30 86 H 39.399807 33.067498 58.315269 0
M  V30 87 H 41.926258 29.702326 67.873746 0
M  V30 88 H 39.646559 34.140381 66.959951 0
M  V30 89 H 41.844855 29.638845 64.219653 0
M  V30 90 H 40.404646 30.375276 67.781683 0
M  V30 91 H 38.253862 30.346406 58.285060 0
M  V30 92 H 40.213305 32.247165 63.245946 0
M  V30 93 H 38.744874 34.933495 59.591105 0
M  V30 END ATOM
M  V30 BEGIN BOND
M  V30 1 2 8 6
M  V30 2 1 8 7
M  V30 3 1 12 10
M  V30 4 1 14 2
M  V30 5 1 15 11
M  V30 6 1 17 6
M  V30 7 1 19 3
M  V30 8 1 19 11
M  V30 9 1 19 13
M  V30 10 1 20 6
M  V30 11 1 20 16
M  V30 12 1 21 15
M  V30 13 1 21 18
M  V30 14 1 22 13
M  V30 15 1 24 17
M  V30 16 1 25 2
M  V30 17 2 26 7
M  V30 18 1 27 2
M  V30 19 1 27 12
M  V30 20 1 28 4
M  V30 21 1 29 16
M  V30 22 1 30 14
M  V30 23 1 30 28
M  V30 24 2 31 24
M  V30 25 1 31 26
M  V30 26 1 32 13
M  V30 27 1 32 30
M  V30 28 1 33 9
M  V30 29 1 33 12
M  V30 30 1 33 27
M  V30 31 1 34 23
M  V30 32 1 35 9
M  V30 33 1 36 16
M  V30 34 1 36 17
M  V30 35 1 36 34
M  V30 36 1 37 23
M  V30 37 1 37 25
M  V30 38 1 37 35
M  V30 39 1 38 11
M  V30 40 1 38 18
M  V30 41 1 39 1
M  V30 42 1 39 3
M  V30 43 1 39 5
M  V30 44 1 40 1
M  V30 45 1 41 1
M  V30 46 1 42 1
M  V30 47 1 2 43 CFG=1
M  V30 48 1 44 3
M  V30 49 1 45 3
M  V30 50 1 46 4
M  V30 51 1 47 5
M  V30 52 1 48 5
M  V30 53 1 49 5
M  V30 54 1 50 7
M  V30 55 1 51 8
M  V30 56 1 52 9
M  V30 57 1 53 9
M  V30 58 1 54 10
M  V30 59 1 55 10
M  V30 60 1 56 10
M  V30 61 1 12 57 CFG=1
M  V30 62 1 13 58 CFG=1
M  V30 63 1 59 14
M  V30 64 1 60 14
M  V30 65 1 61 15
M  V30 66 1 16 62 CFG=1
M  V30 67 1 17 63 CFG=1
M  V30 68 1 64 18
M  V30 69 1 65 18
M  V30 70 1 19 66 CFG=3
M  V30 71 1 67 21
M  V30 72 1 68 21
M  V30 73 1 69 22
M  V30 74 1 70 23
M  V30 75 1 71 24
M  V30 76 1 72 25
M  V30 77 1 73 25
M  V30 78 1 74 26
M  V30 79 1 75 28
M  V30 80 1 76 28
M  V30 81 1 30 77 CFG=3
M  V30 82 1 78 31
M  V30 83 1 79 32
M  V30 84 1 33 80 CFG=1
M  V30 85 1 81 34
M  V30 86 1 82 34
M  V30 87 1 83 35
M  V30 88 1 84 35
M  V30 89 1 36 85 CFG=3
M  V30 90 1 37 86 CFG=3
M  V30 91 1 87 38
M  V30 92 1 88 39
M  V30 93 1 89 15
M  V30 94 1 90 38
M  V30 95 1 91 23
M  V30 96 1 92 32
M  V30 97 1 27 93 CFG=3
M  V30 END BOND
M  V30 END CTAB
M  END
>  <i_epik_Tot_Q>  (1) 
4

>  <i_epik_Tot_abs_Q>  (1) 
6

>  <i_i_glide_confnum>  (1) 
2008

>  <i_i_glide_lignum>  (1) 
34

>  <i_i_glide_posenum>  (1) 
58

>  <i_i_glide_rotatable_bonds>  (1) 
14

>  <i_lp_mmshare_version>  (1) 
72125

>  <i_m_source_file_index>  (1) 
18

>  <i_f3d_flags>  (1) 
0

>  <num_sample>  (1) 
50

>  <b_lp_Chiralities_Consistent>  (1) 
1

>  <r_epik_Charging_Adjusted_Penalty>  (1) 
1.6052319346045403

>  <r_epik_Ionization_Penalty>  (1) 
1.3756208669108916

>  <r_epik_Ionization_Penalty_Charging>  (1) 
0.71181796891070681

>  <r_epik_Ionization_Penalty_Neutral>  (1) 
0.66380289800018477

>  <r_epik_State_Penalty>  (1) 
0.89341396569383336

>  <r_glide_ring_energy>  (1) 
0.0045750838620950583

>  <r_i_docking_score>  (1) 
-7.0637287941493039

>  <r_i_glide_ecoul>  (1) 
-10.902990455560552

>  <r_i_glide_eff_state_penalty>  (1) 
0.89341396569383336

>  <r_i_glide_einternal>  (1) 
14.918301305006572

>  <r_i_glide_emodel>  (1) 
-73.375606183991778

>  <r_i_glide_emodel_strain>  (1) 
7.5537375068629729

>  <r_i_glide_energy>  (1) 
-51.999098766697031

>  <r_i_glide_erotb>  (1) 
0.56146573491919982

>  <r_i_glide_esite>  (1) 
-0.048480867321866815

>  <r_i_glide_evdw>  (1) 
-41.096108311136476

>  <r_i_glide_gscore>  (1) 
-7.957142759843137

>  <r_i_glide_gscore_strain>  (1) 
0.88843437671574321

>  <r_i_glide_hbond>  (1) 
-0.32000000000000001

>  <r_i_glide_ligand_efficiency>  (1) 
-0.18112125113203342

>  <r_i_glide_ligand_efficiency_ln>  (1) 
-1.5146639693315922

>  <r_i_glide_ligand_efficiency_sa>  (1) 
-0.61422045941199443

>  <r_i_glide_lipo>  (1) 
-4.2161227246305062

>  <r_i_glide_metal>  (1) 
-0

>  <r_i_glide_rewards>  (1) 
-1.1321852956348006

>  <r_lp_Energy>  (1) 
72.689052000000004

>  <s_epik_Chemistry_Notes>  (1) 
This compound contains an acetal/aminal-like group ( X-CH(R)-Y where X, Y are N, S, or O) that may be acid/base labile, releasing an aldehyde.

>  <s_epik_cmdline>  (1) 
J2VwaWtfcHl0aG9uJywgJy1waHQnLCAnMS4wJywgJy1waCcsICc3LjQnLCAnLXRuJywgJzgnLCAnLW1hJywgJzUwMCcsICctaW1hZScsICc8aW5maWxlLm1hZT4nLCAnLW9tYWUnLCAnPG91dGZpbGUubWFlPic=

>  <s_epik_input>  (1) 
W05IXTFbQ0gyXVtDSDJdW05IXU4xW0NAQEhdKFtDSDJdW0NIXShbQ0gzXSlbQ0gzXSlbQ0BASF0oW09IXSlbTkhdW0NASF0oW0NIMl1bT0hdKVtDSDJdW0NAQEhdMltDSDJdW0NASF0oW0NIMl1bQ0gyXVtDQEBIXShOMjMpW0NIXTNbQ0gzXSlbTkhdW0NIMl1bQ0BASF0oW0NASF0oTzQpW1NIXSlbQ0BIXShDND01KVtDSF09W0NIXVtDSF09W0NIXVtDSF01

>  <s_glide_docking_method>  (1) 
confgen

>  <s_i_glide_gridfile>  (1) 
gpcr_5ht2c_6bqh_protein_autoprepared_prepared

>  <s_lp_Force_Field>  (1) 
S-OPLS

>  <s_lp_Variant>  (1) 
DiffSBDD_17-1

>  <s_m_source_file>  (1) 
generated_GPCR_5HT2C_ligand_DiffSBDD_2026-06-23_prepared.sdf

>  <GenAI_Model>  (1) 
DiffSBDD

>  <Protein>  (1) 
GPCR_5HT2C

$$$$
DiffSBDD_28
     RDKit          3D

  0  0  0  0  0  0  0  0  0  0999 V3000
M  V30 BEGIN CTAB
M  V30 COUNTS 45 48 0 0 1
M  V30 BEGIN ATOM
M  V30 1 O 37.379268 29.647354 57.840165 0
M  V30 2 C 39.245136 27.476749 54.035195 0
M  V30 3 C 37.331412 32.212880 59.691016 0
M  V30 4 C 39.180715 28.591747 53.176115 0
M  V30 5 C 39.892235 29.184721 57.406333 0
M  V30 6 F 39.615681 27.337748 51.241764 0
M  V30 7 C 37.398629 29.737756 59.256710 0 CFG=1
M  V30 8 C 38.937994 28.385674 51.704955 0
M  V30 9 C 39.564509 30.079980 55.066639 0
M  V30 10 C 39.543237 26.435218 56.326223 0 CFG=2
M  V30 11 O 37.520881 25.169366 56.500987 0
M  V30 12 P 38.484773 28.480315 58.429123 0 CFG=1 CHG=1
M  V30 13 C 39.245086 33.759382 60.387749 0
M  V30 14 F 40.430017 26.491264 57.320360 0
M  V30 15 C 39.477969 27.655568 55.411179 0
M  V30 16 C 38.146446 26.156564 56.878727 0
M  V30 17 N 37.645146 27.025644 57.767760 0
M  V30 18 C 39.638928 28.966659 55.930944 0
M  V30 19 C 38.132772 33.509189 59.661516 0
M  V30 20 C 38.136524 30.914896 59.886444 0 CFG=2
M  V30 21 C 38.491511 30.642846 61.357156 0
M  V30 22 C 39.334832 29.893338 53.694096 0
M  V30 23 F 37.645137 28.137755 51.630548 0
M  V30 24 F 39.245164 29.453241 50.969772 0
M  V30 25 C 38.919548 31.887488 62.139312 0
M  V30 26 C 39.890874 32.793159 61.373377 0
M  V30 27 H 39.118793 26.481389 53.634204 0
M  V30 28 H 36.520168 32.293902 60.415307 0
M  V30 29 H 36.845249 32.165173 58.715334 0
M  V30 30 H 39.984939 30.252390 57.576175 0
M  V30 31 H 40.855916 28.767544 57.694591 0
M  V30 32 H 36.470047 29.433387 59.735064 0
M  V30 33 H 39.684587 31.079741 55.459650 0
M  V30 34 H 39.856853 25.573779 55.732898 0
M  V30 35 H 39.733936 34.716865 60.277719 0
M  V30 36 H 36.717775 26.850667 58.122012 0
M  V30 37 H 37.761002 34.276107 58.996310 0
M  V30 38 H 39.070245 31.046456 59.347007 0
M  V30 39 H 37.645138 30.207557 61.880723 0
M  V30 40 H 39.285883 29.897487 61.401346 0
M  V30 41 H 39.280359 30.749143 53.036305 0
M  V30 42 H 38.045459 32.464074 62.446423 0
M  V30 43 H 39.391612 31.559236 63.065878 0
M  V30 44 H 40.670561 32.216569 60.876048 0
M  V30 45 H 40.405585 33.416659 62.105435 0
M  V30 END ATOM
M  V30 BEGIN BOND
M  V30 1 2 4 2
M  V30 2 1 7 1
M  V30 3 1 8 4
M  V30 4 1 8 6
M  V30 5 1 12 1 CFG=3
M  V30 6 1 12 5
M  V30 7 1 12 7
M  V30 8 1 14 10
M  V30 9 1 15 2
M  V30 10 1 15 10
M  V30 11 1 16 10
M  V30 12 2 16 11
M  V30 13 1 17 12
M  V30 14 1 17 16
M  V30 15 1 18 5
M  V30 16 1 18 9
M  V30 17 2 18 15
M  V30 18 1 19 3
M  V30 19 2 19 13
M  V30 20 1 20 3
M  V30 21 1 20 7
M  V30 22 1 21 20
M  V30 23 1 22 4
M  V30 24 2 22 9
M  V30 25 1 23 8
M  V30 26 1 24 8
M  V30 27 1 25 21
M  V30 28 1 26 13
M  V30 29 1 26 25
M  V30 30 1 27 2
M  V30 31 1 28 3
M  V30 32 1 29 3
M  V30 33 1 30 5
M  V30 34 1 31 5
M  V30 35 1 7 32 CFG=1
M  V30 36 1 33 9
M  V30 37 1 10 34 CFG=3
M  V30 38 1 35 13
M  V30 39 1 36 17
M  V30 40 1 37 19
M  V30 41 1 20 38 CFG=3
M  V30 42 1 39 21
M  V30 43 1 40 21
M  V30 44 1 41 22
M  V30 45 1 42 25
M  V30 46 1 43 25
M  V30 47 1 44 26
M  V30 48 1 45 26
M  V30 END BOND
M  V30 END CTAB
M  END
>  <i_epik_Tot_Q>  (1) 
1

>  <i_epik_Tot_abs_Q>  (1) 
1

>  <i_i_glide_confnum>  (1) 
2

>  <i_i_glide_lignum>  (1) 
63

>  <i_i_glide_posenum>  (1) 
231

>  <i_i_glide_rotatable_bonds>  (1) 
2

>  <i_lp_mmshare_version>  (1) 
72125

>  <i_m_source_file_index>  (1) 
29

>  <i_f3d_flags>  (1) 
0

>  <num_sample>  (1) 
50

>  <b_lp_Chiralities_Consistent>  (1) 
1

>  <r_epik_Charging_Adjusted_Penalty>  (1) 
0

>  <r_epik_Ionization_Penalty>  (1) 
1.069405246037928e-05

>  <r_epik_Ionization_Penalty_Charging>  (1) 
0

>  <r_epik_Ionization_Penalty_Neutral>  (1) 
1.069405246037928e-05

>  <r_epik_State_Penalty>  (1) 
-0

>  <r_glide_ring_energy>  (1) 
1.0823529994595977

>  <r_i_docking_score>  (1) 
-7.0604071851786472

>  <r_i_glide_ecoul>  (1) 
1.9035090638926597

>  <r_i_glide_eff_state_penalty>  (1) 
-0

>  <r_i_glide_einternal>  (1) 
0.86488771830903621

>  <r_i_glide_emodel>  (1) 
-44.955313480868199

>  <r_i_glide_emodel_strain>  (1) 
0

>  <r_i_glide_energy>  (1) 
-31.530341918954196

>  <r_i_glide_erotb>  (1) 
0.12919976224793953

>  <r_i_glide_esite>  (1) 
0

>  <r_i_glide_evdw>  (1) 
-33.433850982846856

>  <r_i_glide_gscore>  (1) 
-7.0604071851786472

>  <r_i_glide_gscore_strain>  (1) 
0

>  <r_i_glide_hbond>  (1) 
0

>  <r_i_glide_ligand_efficiency>  (1) 
-0.27155412250687105

>  <r_i_glide_ligand_efficiency_ln>  (1) 
-1.6581134603536385

>  <r_i_glide_ligand_efficiency_sa>  (1) 
-0.80447802028641913

>  <r_i_glide_lipo>  (1) 
-2.5015673852488569

>  <r_i_glide_metal>  (1) 
-0

>  <r_i_glide_rewards>  (1) 
-3.3018733726192857

>  <r_lp_Energy>  (1) 
24.158424

>  <r_lp_tautomer_probability>  (1) 
1

>  <s_epik_cmdline>  (1) 
J2VwaWtfcHl0aG9uJywgJy1waHQnLCAnMS4wJywgJy1waCcsICc3LjQnLCAnLXRuJywgJzgnLCAnLW1hJywgJzUwMCcsICctaW1hZScsICc8aW5maWxlLm1hZT4nLCAnLW9tYWUnLCAnPG91dGZpbGUubWFlPic=

>  <s_epik_input>  (1) 
W0NIMl0xW0NIMl1bQ0gyXVtDSF09W0NIXVtDSDJdW0NAQEhdMVtDQEhdMk9bUEArXTIzW0NIMl1jNGMoW0NAQEhdKEYpQyg9TylbTkhdMylbY0hdYyhDKEYpKEYpRilbY0hdW2NIXTQ=

>  <s_glide_docking_method>  (1) 
confgen

>  <s_i_glide_gridfile>  (1) 
gpcr_5ht2c_6bqh_protein_autoprepared_prepared

>  <s_lp_Force_Field>  (1) 
S-OPLS

>  <s_lp_Variant>  (1) 
DiffSBDD_28-2

>  <s_m_source_file>  (1) 
generated_GPCR_5HT2C_ligand_DiffSBDD_2026-06-23_prepared.sdf

>  <GenAI_Model>  (1) 
DiffSBDD

>  <Protein>  (1) 
GPCR_5HT2C

$$$$
DiffSBDD_22
     RDKit          3D

  0  0  0  0  0  0  0  0  0  0999 V3000
M  V30 BEGIN CTAB
M  V30 COUNTS 69 72 0 0 1
M  V30 BEGIN ATOM
M  V30 1 N 43.900297 31.902805 66.503042 0
M  V30 2 C 41.421541 28.057349 66.206412 0
M  V30 3 C 39.245742 28.590512 57.122002 0
M  V30 4 O 40.046532 30.209257 67.003995 0
M  V30 5 C 39.584623 29.015782 59.887267 0
M  V30 6 N 39.245050 27.337957 50.567788 0
M  V30 7 C 42.000449 29.452077 65.781920 0 CFG=1
M  V30 8 C 39.594604 27.524443 57.958458 0
M  V30 9 C 39.645185 30.346885 52.651277 0
M  V30 10 C 39.807462 29.229358 61.340851 0 CFG=2
M  V30 11 S 44.543008 28.328186 65.301735 0
M  V30 12 C 41.283357 28.479252 63.400238 0
M  V30 13 C 42.732588 32.238155 65.735364 0
M  V30 14 C 41.890378 29.632150 64.219547 0
M  V30 15 C 37.643828 28.976446 54.081353 0
M  V30 16 C 38.184365 32.335066 57.418428 0
M  V30 17 N 41.508544 31.812174 66.404043 0
M  V30 18 C 44.259510 30.705528 66.746779 0
M  V30 19 C 38.691970 31.052170 56.736973 0 CFG=1
M  V30 20 O 38.045188 33.337652 56.436663 0
M  V30 21 C 39.050846 29.881110 57.661529 0
M  V30 22 C 45.622842 27.558533 66.543139 0
M  V30 23 C 39.216727 30.087046 59.051046 0
M  V30 24 C 38.129064 28.443023 52.878987 0
M  V30 25 C 38.165078 30.183037 54.581317 0
M  V30 26 O 40.845053 30.177169 61.596395 0
M  V30 27 O 37.701605 30.676681 55.773586 0
M  V30 28 C 39.664567 28.567860 50.870745 0
M  V30 29 C 41.097652 30.532934 66.456592 0
M  V30 30 C 39.162578 30.872634 53.859086 0
M  V30 31 C 41.129095 28.807861 61.936150 0 CFG=2
M  V30 32 C 39.137365 29.126304 52.158156 0
M  V30 33 O 40.436383 29.214524 50.168004 0
M  V30 34 C 44.898628 26.477565 67.353067 0
M  V30 35 C 43.495077 29.437840 66.310539 0 CFG=1
M  V30 36 C 39.763732 27.737908 59.332113 0
M  V30 37 H 43.430705 28.915870 67.263657 0
M  V30 38 H 41.971810 27.224517 65.768118 0
M  V30 39 H 41.460549 27.915160 67.287866 0
M  V30 40 H 40.374080 27.929153 65.932774 0
M  V30 41 H 39.135544 28.419949 56.068113 0
M  V30 42 H 38.607851 26.859573 51.184743 0
M  V30 43 H 39.567498 26.883965 49.725153 0
M  V30 44 H 39.743958 26.538979 57.541859 0
M  V30 45 H 40.411210 30.879062 52.102541 0
M  V30 46 H 38.911224 29.339360 61.948785 0
M  V30 47 H 40.305896 28.202150 63.772145 0
M  V30 48 H 41.911651 27.593220 63.478018 0
M  V30 49 H 42.827344 31.919667 64.701550 0
M  V30 50 H 42.677592 33.324139 65.662196 0
M  V30 51 H 42.858814 29.882568 63.786754 0
M  V30 52 H 41.269512 30.500378 63.995177 0
M  V30 53 H 36.875150 28.454527 54.627838 0
M  V30 54 H 38.916140 32.712982 58.131749 0
M  V30 55 H 37.245208 32.183629 57.951482 0
M  V30 56 H 40.939256 32.523995 66.837045 0
M  V30 57 H 45.172640 30.499574 67.311301 0
M  V30 58 H 39.648873 31.312691 56.286263 0
M  V30 59 H 37.190432 33.201327 56.030691 0
M  V30 60 H 46.457473 27.103795 66.011461 0
M  V30 61 H 46.045105 28.314565 67.203136 0
M  V30 62 H 39.082314 31.068113 59.476275 0
M  V30 63 H 37.725028 27.513784 52.510900 0
M  V30 64 H 39.557313 31.804838 54.232002 0
M  V30 65 H 41.809006 28.293356 61.265770 0
M  V30 66 H 45.604058 25.940337 67.988254 0
M  V30 67 H 44.126657 26.897761 67.997190 0
M  V30 68 H 44.421977 25.750178 66.694966 0
M  V30 69 H 40.045191 26.924641 59.965689 0
M  V30 END ATOM
M  V30 BEGIN BOND
M  V30 1 1 7 2 CFG=3
M  V30 2 2 8 3
M  V30 3 1 10 5
M  V30 4 1 13 1
M  V30 5 1 14 7
M  V30 6 1 14 12
M  V30 7 1 17 13
M  V30 8 2 18 1
M  V30 9 1 19 16
M  V30 10 1 20 16
M  V30 11 1 21 3
M  V30 12 1 21 19
M  V30 13 1 22 11
M  V30 14 1 23 5
M  V30 15 2 23 21
M  V30 16 2 24 15
M  V30 17 1 25 15
M  V30 18 1 26 10
M  V30 19 1 27 19
M  V30 20 1 27 25
M  V30 21 1 28 6
M  V30 22 2 29 4
M  V30 23 1 29 7
M  V30 24 1 29 17
M  V30 25 1 30 9
M  V30 26 2 30 25
M  V30 27 1 31 10
M  V30 28 1 31 12
M  V30 29 1 31 26
M  V30 30 2 32 9
M  V30 31 1 32 24
M  V30 32 1 32 28
M  V30 33 2 33 28
M  V30 34 1 34 22
M  V30 35 1 35 7
M  V30 36 1 35 11
M  V30 37 1 35 18
M  V30 38 2 36 5
M  V30 39 1 36 8
M  V30 40 1 35 37 CFG=1
M  V30 41 1 38 2
M  V30 42 1 39 2
M  V30 43 1 40 2
M  V30 44 1 41 3
M  V30 45 1 42 6
M  V30 46 1 43 6
M  V30 47 1 44 8
M  V30 48 1 45 9
M  V30 49 1 10 46 CFG=1
M  V30 50 1 47 12
M  V30 51 1 48 12
M  V30 52 1 49 13
M  V30 53 1 50 13
M  V30 54 1 51 14
M  V30 55 1 52 14
M  V30 56 1 53 15
M  V30 57 1 54 16
M  V30 58 1 55 16
M  V30 59 1 56 17
M  V30 60 1 57 18
M  V30 61 1 19 58 CFG=3
M  V30 62 1 59 20
M  V30 63 1 60 22
M  V30 64 1 61 22
M  V30 65 1 62 23
M  V30 66 1 63 24
M  V30 67 1 64 30
M  V30 68 1 31 65 CFG=3
M  V30 69 1 66 34
M  V30 70 1 67 34
M  V30 71 1 68 34
M  V30 72 1 69 36
M  V30 END BOND
M  V30 END CTAB
M  END
>  <i_epik_Tot_Q>  (1) 
0

>  <i_epik_Tot_abs_Q>  (1) 
0

>  <i_i_glide_confnum>  (1) 
2545

>  <i_i_glide_lignum>  (1) 
50

>  <i_i_glide_posenum>  (1) 
370

>  <i_i_glide_rotatable_bonds>  (1) 
12

>  <i_lp_mmshare_version>  (1) 
72125

>  <i_m_source_file_index>  (1) 
23

>  <i_f3d_flags>  (1) 
0

>  <num_sample>  (1) 
50

>  <b_lp_Chiralities_Consistent>  (1) 
1

>  <r_epik_Charging_Adjusted_Penalty>  (1) 
0

>  <r_epik_Ionization_Penalty>  (1) 
0.00010073509857401548

>  <r_epik_Ionization_Penalty_Charging>  (1) 
0

>  <r_epik_Ionization_Penalty_Neutral>  (1) 
0.00010073509857401548

>  <r_epik_State_Penalty>  (1) 
-0

>  <r_glide_ring_energy>  (1) 
0

>  <r_i_docking_score>  (1) 
-7.0596460090923525

>  <r_i_glide_ecoul>  (1) 
-6.2799133484035607

>  <r_i_glide_eff_state_penalty>  (1) 
-0

>  <r_i_glide_einternal>  (1) 
20.958240611829801

>  <r_i_glide_emodel>  (1) 
-66.976951282990413

>  <r_i_glide_emodel_strain>  (1) 
1.85627043099106

>  <r_i_glide_energy>  (1) 
-57.512326625245038

>  <r_i_glide_erotb>  (1) 
0.70459601099453772

>  <r_i_glide_esite>  (1) 
0

>  <r_i_glide_evdw>  (1) 
-51.232413276841477

>  <r_i_glide_gscore>  (1) 
-7.0596460090923525

>  <r_i_glide_gscore_strain>  (1) 
0

>  <r_i_glide_hbond>  (1) 
-0.57041800394924369

>  <r_i_glide_ligand_efficiency>  (1) 
-0.19610127803034313

>  <r_i_glide_ligand_efficiency_ln>  (1) 
-1.5402240295903062

>  <r_i_glide_ligand_efficiency_sa>  (1) 
-0.6475121534714513

>  <r_i_glide_lipo>  (1) 
-3.1222202505613978

>  <r_i_glide_metal>  (1) 
-0

>  <r_i_glide_rewards>  (1) 
-0.56799609947364149

>  <r_lp_Energy>  (1) 
59.581189999999999

>  <r_lp_tautomer_probability>  (1) 
1

>  <s_epik_Chemistry_Notes>  (1) 
This compound has an imine and may undergo hydrolysis. This compound contains an acetal/aminal-like group ( X-CH(R)-Y where X, Y are N, S, or O) that may be acid/base labile, releasing an aldehyde.

>  <s_epik_cmdline>  (1) 
J2VwaWtfcHl0aG9uJywgJy1waHQnLCAnMS4wJywgJy1waCcsICc3LjQnLCAnLXRuJywgJzgnLCAnLW1hJywgJzUwMCcsICctaW1hZScsICc8aW5maWxlLm1hZT4nLCAnLW9tYWUnLCAnPG91dGZpbGUubWFlPic=

>  <s_epik_input>  (1) 
W0NIM11bQ0gyXVNDMT1bQ0hdW05IXVtDSDJdW05IXUMoPU8pW0NAQF0xKFtDSDNdKVtDSDJdW0NIMl1bQ0BASF0yT1tDQEhdMmMzW2NIXWMoW2NIXVtjSF1bY0hdMylbQ0BIXShbQ0gyXVtPSF0pT2M0W2NIXVtjSF1jKFtjSF1bY0hdNClDKD1PKVtOSDJd

>  <s_glide_docking_method>  (1) 
confgen

>  <s_i_glide_gridfile>  (1) 
gpcr_5ht2c_6bqh_protein_autoprepared_prepared

>  <s_lp_Force_Field>  (1) 
S-OPLS

>  <s_lp_Variant>  (1) 
DiffSBDD_22-2

>  <s_m_source_file>  (1) 
generated_GPCR_5HT2C_ligand_DiffSBDD_2026-06-23_prepared.sdf

>  <GenAI_Model>  (1) 
DiffSBDD

>  <Protein>  (1) 
GPCR_5HT2C

$$$$
DiffSBDD_0
     RDKit          3D

  0  0  0  0  0  0  0  0  0  0999 V3000
M  V30 BEGIN CTAB
M  V30 COUNTS 73 75 0 0 1
M  V30 BEGIN ATOM
M  V30 1 C 38.714634 28.606798 51.861294 0
M  V30 2 C 39.188985 25.996199 54.816398 0
M  V30 3 O 41.245203 35.349112 61.238484 0
M  V30 4 C 38.844243 28.854666 54.353448 0
M  V30 5 C 38.033814 31.911413 60.457581 0 CFG=2
M  V30 6 C 38.433195 32.266425 57.487710 0
M  V30 7 C 39.332617 35.938414 62.496910 0
M  V30 8 C 38.277262 36.371773 61.455063 0 CFG=1
M  V30 9 C 36.445169 36.732070 63.130036 0
M  V30 10 C 37.658003 35.234951 60.583890 0
M  V30 11 N 37.214636 34.065008 61.367702 0 CHG=1
M  V30 12 O 38.196670 31.430084 61.795389 0
M  V30 13 C 38.960822 26.543051 53.384106 0
M  V30 14 C 36.498017 38.058735 61.177609 0
M  V30 15 C 38.946949 29.195310 56.912032 0 CFG=1
M  V30 16 C 36.842484 32.888445 60.555258 0
M  V30 17 C 39.125201 27.047468 55.914591 0
M  V30 18 C 39.143921 28.037443 57.999600 0
M  V30 19 C 37.858736 30.739495 59.443344 0 CFG=1
M  V30 20 C 40.301008 34.915684 61.923506 0
M  V30 21 N 37.313951 37.276427 62.092501 0
M  V30 22 C 35.397006 38.635855 62.057118 0
M  V30 23 F 39.622517 28.079559 51.039574 0
M  V30 24 C 38.969714 28.328328 55.697963 0
M  V30 25 C 38.844859 28.057337 53.269995 0
M  V30 26 O 36.743481 30.137616 59.767711 0 CHG=-1
M  V30 27 N 37.645140 31.122484 58.014839 0 CFG=2 CHG=1
M  V30 28 C 39.272247 26.608176 57.324101 0 CFG=1
M  V30 29 C 37.615957 29.979092 57.056185 0
M  V30 30 C 39.343690 30.628223 62.036056 0
M  V30 31 O 40.059809 33.714881 62.166167 0 CHG=-1
M  V30 32 O 38.238083 25.728657 57.717329 0
M  V30 33 C 35.389204 37.813180 63.336824 0
M  V30 34 H 37.732750 28.359855 51.455512 0
M  V30 35 H 38.845058 29.688041 51.837073 0
M  V30 36 H 40.167762 25.521393 54.872495 0
M  V30 37 H 38.460542 25.212995 55.027452 0
M  V30 38 H 38.751040 29.922713 54.217859 0
M  V30 39 H 38.931248 32.468867 60.186990 0
M  V30 40 H 39.491322 32.031841 57.391562 0
M  V30 41 H 38.070229 32.533109 56.494053 0
M  V30 42 H 38.326795 33.163251 58.093574 0
M  V30 43 H 39.894249 36.804573 62.850361 0
M  V30 44 H 38.862247 35.493427 63.367876 0
M  V30 45 H 38.814692 37.003253 60.751603 0
M  V30 46 H 35.972751 35.807751 62.806504 0
M  V30 47 H 36.994544 36.537509 64.051286 0
M  V30 48 H 38.416782 34.894582 59.878827 0
M  V30 49 H 36.835799 35.580686 59.960520 0
M  V30 50 H 36.431386 34.340310 61.940878 0
M  V30 51 H 38.026532 26.137985 52.996309 0
M  V30 52 H 39.758745 26.192693 52.728344 0
M  V30 53 H 37.090973 38.833833 60.690643 0
M  V30 54 H 36.045230 37.444697 60.402619 0
M  V30 55 H 39.814195 29.852591 56.872651 0
M  V30 56 H 36.486162 33.198489 59.571955 0
M  V30 57 H 36.002447 32.388900 61.038605 0
M  V30 58 H 38.319992 28.033191 58.714493 0
M  V30 59 H 40.040892 28.239461 58.585803 0
M  V30 60 H 38.823201 30.237537 59.446940 0
M  V30 61 H 34.445011 38.537752 61.552211 0
M  V30 62 H 35.578105 39.691688 62.261621 0
M  V30 63 H 40.253284 26.160243 57.490598 0
M  V30 64 H 37.305124 30.380322 56.090957 0
M  V30 65 H 36.816515 29.295192 57.338576 0
M  V30 66 H 39.473410 30.502364 63.110880 0
M  V30 67 H 39.232746 29.633509 61.604588 0
M  V30 68 H 40.251060 31.085980 61.641405 0
M  V30 69 H 37.411351 26.176093 57.619887 0
M  V30 70 H 34.411853 37.381964 63.557187 0
M  V30 71 H 35.645089 38.458244 64.167730 0
M  V30 72 H 36.675994 31.439755 57.974220 0
M  V30 73 H 37.987816 33.786148 61.968013 0
M  V30 END ATOM
M  V30 BEGIN BOND
M  V30 1 1 8 7
M  V30 2 1 10 8
M  V30 3 1 11 10
M  V30 4 1 12 5
M  V30 5 1 13 2
M  V30 6 1 16 5
M  V30 7 1 16 11
M  V30 8 1 17 2
M  V30 9 1 18 15
M  V30 10 1 19 5
M  V30 11 2 20 3
M  V30 12 1 20 7
M  V30 13 1 21 8
M  V30 14 1 21 9
M  V30 15 1 21 14
M  V30 16 1 22 14
M  V30 17 1 23 1
M  V30 18 1 24 4
M  V30 19 1 24 15
M  V30 20 2 24 17
M  V30 21 1 25 1
M  V30 22 2 25 4
M  V30 23 1 25 13
M  V30 24 1 26 19
M  V30 25 1 27 6
M  V30 26 1 27 19
M  V30 27 1 28 17
M  V30 28 1 28 18
M  V30 29 1 29 15
M  V30 30 1 29 27
M  V30 31 1 30 12
M  V30 32 1 31 20
M  V30 33 1 32 28
M  V30 34 1 33 9
M  V30 35 1 33 22
M  V30 36 1 34 1
M  V30 37 1 35 1
M  V30 38 1 36 2
M  V30 39 1 37 2
M  V30 40 1 38 4
M  V30 41 1 5 39 CFG=3
M  V30 42 1 40 6
M  V30 43 1 41 6
M  V30 44 1 42 6
M  V30 45 1 43 7
M  V30 46 1 44 7
M  V30 47 1 8 45 CFG=3
M  V30 48 1 46 9
M  V30 49 1 47 9
M  V30 50 1 48 10
M  V30 51 1 49 10
M  V30 52 1 50 11
M  V30 53 1 51 13
M  V30 54 1 52 13
M  V30 55 1 53 14
M  V30 56 1 54 14
M  V30 57 1 15 55 CFG=3
M  V30 58 1 56 16
M  V30 59 1 57 16
M  V30 60 1 58 18
M  V30 61 1 59 18
M  V30 62 1 19 60 CFG=3
M  V30 63 1 61 22
M  V30 64 1 62 22
M  V30 65 1 28 63 CFG=3
M  V30 66 1 64 29
M  V30 67 1 65 29
M  V30 68 1 66 30
M  V30 69 1 67 30
M  V30 70 1 68 30
M  V30 71 1 69 32
M  V30 72 1 70 33
M  V30 73 1 71 33
M  V30 74 1 27 72 CFG=1
M  V30 75 1 73 11
M  V30 END BOND
M  V30 END CTAB
M  END
>  <i_epik_Tot_Q>  (1) 
0

>  <i_epik_Tot_abs_Q>  (1) 
4

>  <i_i_glide_confnum>  (1) 
849

>  <i_i_glide_lignum>  (1) 
3

>  <i_i_glide_posenum>  (1) 
111

>  <i_i_glide_rotatable_bonds>  (1) 
14

>  <i_lp_mmshare_version>  (1) 
72125

>  <i_m_source_file_index>  (1) 
1

>  <i_f3d_flags>  (1) 
0

>  <num_sample>  (1) 
50

>  <b_lp_Chiralities_Consistent>  (1) 
1

>  <r_epik_Charging_Adjusted_Penalty>  (1) 
0.77514762265790937

>  <r_epik_Ionization_Penalty>  (1) 
0.13961133491552177

>  <r_epik_Ionization_Penalty_Charging>  (1) 
0.038557878483332003

>  <r_epik_Ionization_Penalty_Neutral>  (1) 
0.10105345643218977

>  <r_epik_State_Penalty>  (1) 
0.73658974417457734

>  <r_glide_ring_energy>  (1) 
0.0045750838620950583

>  <r_i_docking_score>  (1) 
-7.0385208853036652

>  <r_i_glide_ecoul>  (1) 
-6.025963399376538

>  <r_i_glide_eff_state_penalty>  (1) 
0.73658974417457734

>  <r_i_glide_einternal>  (1) 
23.440130914092361

>  <r_i_glide_emodel>  (1) 
-66.614052245204107

>  <r_i_glide_emodel_strain>  (1) 
0.61616868599099917

>  <r_i_glide_energy>  (1) 
-47.850831770330075

>  <r_i_glide_erotb>  (1) 
0.82434179411086872

>  <r_i_glide_esite>  (1) 
-0.12402792682540896

>  <r_i_glide_evdw>  (1) 
-41.824868370953538

>  <r_i_glide_gscore>  (1) 
-7.7751106294782426

>  <r_i_glide_gscore_strain>  (1) 
0

>  <r_i_glide_hbond>  (1) 
-0.18148505547097377

>  <r_i_glide_ligand_efficiency>  (1) 
-0.21328851167586865

>  <r_i_glide_ligand_efficiency_ln>  (1) 
-1.5653306013808057

>  <r_i_glide_ligand_efficiency_sa>  (1) 
-0.68413022339406437

>  <r_i_glide_lipo>  (1) 
-3.5184918339080662

>  <r_i_glide_metal>  (1) 
-0

>  <r_i_glide_rewards>  (1) 
-1.7803096789305051

>  <r_lp_Energy>  (1) 
31.454538999999997

>  <s_epik_Chemistry_Notes>  (1) 
This compound contains an acetal/aminal-like group ( X-CH(R)-Y where X, Y are N, S, or O) that may be acid/base labile, releasing an aldehyde.

>  <s_epik_cmdline>  (1) 
J2VwaWtfcHl0aG9uJywgJy1waHQnLCAnMS4wJywgJy1waCcsICc3LjQnLCAnLXRuJywgJzgnLCAnLW1hJywgJzUwMCcsICctaW1hZScsICc8aW5maWxlLm1hZT4nLCAnLW9tYWUnLCAnPG91dGZpbGUubWFlPic=

>  <s_epik_input>  (1) 
W0NIMl0xW0NIMl1DKFtDSDJdRik9W0NIXUMoPUMxMilbQ0BIXShbQ0gyXVtDQEhdMltPSF0pW0NIMl1OKFtDSDNdKVtDQEhdKFtPSF0pW0NASF0oT1tDSDNdKVtDSDJdW05IXVtDSDJdW0NASF0oW0NIMl1DKD1PKVtPSF0pTjNbQ0gyXVtDSDJdW0NIMl1bQ0gyXTM=

>  <s_glide_docking_method>  (1) 
confgen

>  <s_i_glide_gridfile>  (1) 
gpcr_5ht2c_6bqh_protein_autoprepared_prepared

>  <s_lp_Force_Field>  (1) 
S-OPLS

>  <s_lp_Variant>  (1) 
DiffSBDD_0-3

>  <s_m_source_file>  (1) 
generated_GPCR_5HT2C_ligand_DiffSBDD_2026-06-23_prepared.sdf

>  <GenAI_Model>  (1) 
DiffSBDD

>  <Protein>  (1) 
GPCR_5HT2C

$$$$
DiffSBDD_28
     RDKit          3D

  0  0  0  0  0  0  0  0  0  0999 V3000
M  V30 BEGIN CTAB
M  V30 COUNTS 45 48 0 0 1
M  V30 BEGIN ATOM
M  V30 1 O 36.939490 29.635846 59.471612 0
M  V30 2 C 38.019720 34.883977 61.429221 0
M  V30 3 C 38.171489 27.439068 57.708683 0
M  V30 4 C 37.436920 36.012581 60.824759 0
M  V30 5 C 36.048204 32.049609 59.767826 0
M  V30 6 F 36.997499 37.742210 62.227460 0
M  V30 7 C 37.008471 29.638344 58.053450 0 CFG=1
M  V30 8 C 37.849643 37.403015 61.263202 0
M  V30 9 C 36.006512 34.559185 59.487295 0
M  V30 10 C 38.208719 32.377621 61.769169 0 CFG=2
M  V30 11 O 40.468506 31.643523 61.478546 0
M  V30 12 P 37.474300 31.170932 58.959009 0 CFG=2 CHG=1
M  V30 13 C 39.940020 26.573004 56.127893 0
M  V30 14 F 37.332528 31.467517 62.167760 0
M  V30 15 C 37.586611 33.589309 61.081772 0
M  V30 16 C 39.338763 31.689190 60.997434 0
M  V30 17 N 39.051460 31.141745 59.805782 0
M  V30 18 C 36.561014 33.427863 60.117909 0
M  V30 19 C 39.436391 26.676665 57.366057 0
M  V30 20 C 38.191656 28.950065 57.376330 0 CFG=2
M  V30 21 C 38.163788 29.290145 55.868041 0
M  V30 22 C 36.445204 35.848181 59.837949 0
M  V30 23 F 39.085350 37.432328 61.767682 0
M  V30 24 F 37.746765 38.285131 60.271334 0
M  V30 25 C 39.309521 28.744720 55.014283 0
M  V30 26 C 39.319968 27.212121 54.907201 0
M  V30 27 H 38.783604 35.012358 62.182176 0
M  V30 28 H 37.318535 26.948060 57.238045 0
M  V30 29 H 38.045131 27.309888 58.782771 0
M  V30 30 H 35.213420 32.131628 59.073422 0
M  V30 31 H 35.639761 31.527509 60.629651 0
M  V30 32 H 36.045346 29.592027 57.554119 0
M  V30 33 H 35.229446 34.439599 58.744156 0
M  V30 34 H 38.644130 32.728051 62.705974 0
M  V30 35 H 40.845215 26.006822 55.968367 0
M  V30 36 H 39.798747 30.673046 59.319094 0
M  V30 37 H 39.943513 26.189549 58.187766 0
M  V30 38 H 39.114762 29.355066 57.790324 0
M  V30 39 H 37.242558 28.936344 55.420184 0
M  V30 40 H 38.146029 30.375106 55.754658 0
M  V30 41 H 36.001216 36.713292 59.368141 0
M  V30 42 H 39.202824 29.155495 54.009156 0
M  V30 43 H 40.268278 29.111260 55.383862 0
M  V30 44 H 39.909885 26.910261 54.041423 0
M  V30 45 H 38.315618 26.817290 54.747935 0
M  V30 END ATOM
M  V30 BEGIN BOND
M  V30 1 2 4 2
M  V30 2 1 7 1
M  V30 3 1 8 4
M  V30 4 1 8 6
M  V30 5 1 12 1 CFG=1
M  V30 6 1 12 5
M  V30 7 1 12 7
M  V30 8 1 14 10
M  V30 9 1 15 2
M  V30 10 1 15 10
M  V30 11 1 16 10
M  V30 12 2 16 11
M  V30 13 1 17 12
M  V30 14 1 17 16
M  V30 15 1 18 5
M  V30 16 1 18 9
M  V30 17 2 18 15
M  V30 18 1 19 3
M  V30 19 2 19 13
M  V30 20 1 20 3
M  V30 21 1 20 7
M  V30 22 1 21 20
M  V30 23 1 22 4
M  V30 24 2 22 9
M  V30 25 1 23 8
M  V30 26 1 24 8
M  V30 27 1 25 21
M  V30 28 1 26 13
M  V30 29 1 26 25
M  V30 30 1 27 2
M  V30 31 1 28 3
M  V30 32 1 29 3
M  V30 33 1 30 5
M  V30 34 1 31 5
M  V30 35 1 7 32 CFG=3
M  V30 36 1 33 9
M  V30 37 1 10 34 CFG=1
M  V30 38 1 35 13
M  V30 39 1 36 17
M  V30 40 1 37 19
M  V30 41 1 20 38 CFG=1
M  V30 42 1 39 21
M  V30 43 1 40 21
M  V30 44 1 41 22
M  V30 45 1 42 25
M  V30 46 1 43 25
M  V30 47 1 44 26
M  V30 48 1 45 26
M  V30 END BOND
M  V30 END CTAB
M  END
>  <i_epik_Tot_Q>  (1) 
1

>  <i_epik_Tot_abs_Q>  (1) 
1

>  <i_i_glide_confnum>  (1) 
5

>  <i_i_glide_lignum>  (1) 
62

>  <i_i_glide_posenum>  (1) 
297

>  <i_i_glide_rotatable_bonds>  (1) 
2

>  <i_lp_mmshare_version>  (1) 
72125

>  <i_m_source_file_index>  (1) 
29

>  <i_f3d_flags>  (1) 
0

>  <num_sample>  (1) 
50

>  <b_lp_Chiralities_Consistent>  (1) 
1

>  <r_epik_Charging_Adjusted_Penalty>  (1) 
0

>  <r_epik_Ionization_Penalty>  (1) 
1.069405246037928e-05

>  <r_epik_Ionization_Penalty_Charging>  (1) 
0

>  <r_epik_Ionization_Penalty_Neutral>  (1) 
1.069405246037928e-05

>  <r_epik_State_Penalty>  (1) 
-0

>  <r_glide_ring_energy>  (1) 
0

>  <r_i_docking_score>  (1) 
-7.0347359936908269

>  <r_i_glide_ecoul>  (1) 
-6.1586527465631065

>  <r_i_glide_eff_state_penalty>  (1) 
-0

>  <r_i_glide_einternal>  (1) 
0.18616196932700402

>  <r_i_glide_emodel>  (1) 
-54.144521823149518

>  <r_i_glide_emodel_strain>  (1) 
0

>  <r_i_glide_energy>  (1) 
-35.517639567633097

>  <r_i_glide_erotb>  (1) 
0.12919976224793953

>  <r_i_glide_esite>  (1) 
-0.11901362164998015

>  <r_i_glide_evdw>  (1) 
-29.35898682106999

>  <r_i_glide_gscore>  (1) 
-7.0347359936908269

>  <r_i_glide_gscore_strain>  (1) 
0

>  <r_i_glide_hbond>  (1) 
0

>  <r_i_glide_ligand_efficiency>  (1) 
-0.27056676898810872

>  <r_i_glide_ligand_efficiency_ln>  (1) 
-1.6520846652667736

>  <r_i_glide_ligand_efficiency_sa>  (1) 
-0.80155298936895758

>  <r_i_glide_lipo>  (1) 
-2.0269069810811144

>  <r_i_glide_metal>  (1) 
-0

>  <r_i_glide_rewards>  (1) 
-2.6262679001697058

>  <r_lp_Energy>  (1) 
27.226237999999999

>  <r_lp_tautomer_probability>  (1) 
1

>  <s_epik_cmdline>  (1) 
J2VwaWtfcHl0aG9uJywgJy1waHQnLCAnMS4wJywgJy1waCcsICc3LjQnLCAnLXRuJywgJzgnLCAnLW1hJywgJzUwMCcsICctaW1hZScsICc8aW5maWxlLm1hZT4nLCAnLW9tYWUnLCAnPG91dGZpbGUubWFlPic=

>  <s_epik_input>  (1) 
W0NIMl0xW0NIMl1bQ0gyXVtDSF09W0NIXVtDSDJdW0NAQEhdMVtDQEhdMk9bUEArXTIzW0NIMl1jNGMoW0NAQEhdKEYpQyg9TylbTkhdMylbY0hdYyhDKEYpKEYpRilbY0hdW2NIXTQ=

>  <s_glide_docking_method>  (1) 
confgen

>  <s_i_glide_gridfile>  (1) 
gpcr_5ht2c_6bqh_protein_autoprepared_prepared

>  <s_lp_Force_Field>  (1) 
S-OPLS

>  <s_lp_Variant>  (1) 
DiffSBDD_28-1

>  <s_m_source_file>  (1) 
generated_GPCR_5HT2C_ligand_DiffSBDD_2026-06-23_prepared.sdf

>  <GenAI_Model>  (1) 
DiffSBDD

>  <Protein>  (1) 
GPCR_5HT2C

$$$$
DiffSBDD_32
     RDKit          3D

  0  0  0  0  0  0  0  0  0  0999 V3000
M  V30 BEGIN CTAB
M  V30 COUNTS 71 74 0 0 1
M  V30 BEGIN ATOM
M  V30 1 N 39.437275 28.512120 59.272335 0
M  V30 2 C 41.074897 32.062032 62.515730 0 CFG=1
M  V30 3 C 39.767260 27.068244 55.818962 0 CFG=2
M  V30 4 C 40.044877 30.453591 51.584207 0
M  V30 5 C 42.168047 31.050871 64.470089 0 CFG=2
M  V30 6 N 40.448383 30.735932 62.200999 0
M  V30 7 C 39.417621 29.321897 51.959904 0
M  V30 8 C 41.589263 33.617523 64.126131 0
M  V30 9 N 37.146783 24.840698 55.421723 0
M  V30 10 C 37.955526 28.825445 54.880974 0 CFG=2
M  V30 11 C 40.746733 27.964096 56.601159 0
M  V30 12 C 39.596162 28.920741 60.555751 0
M  V30 13 C 38.785549 26.369433 57.962550 0
M  V30 14 C 41.591446 29.708326 63.973330 0
M  V30 15 Cl 42.310994 31.045273 66.245481 0
M  V30 16 C 40.748906 34.233839 62.986233 0
M  V30 17 C 37.872347 25.559042 55.967888 0
M  V30 18 C 39.151640 27.816009 54.626545 0 CFG=2
M  V30 19 C 39.836059 27.187972 58.747418 0 CFG=1
M  V30 20 C 39.645036 26.931359 52.265835 0
M  V30 21 O 38.045176 25.612390 58.567559 0
M  V30 22 C 38.108950 30.014435 53.917312 0
M  V30 23 N 38.971219 26.841706 53.506967 0
M  V30 24 O 40.283825 33.141969 62.180659 0
M  V30 25 C 37.744133 29.419948 56.287181 0
M  V30 26 C 42.304305 27.983262 58.567788 0
M  V30 27 O 41.406713 29.790915 62.557528 0
M  V30 28 C 41.209084 32.156787 64.015888 0 CFG=1
M  V30 29 O 39.589708 28.137734 61.495088 0
M  V30 30 C 39.876230 30.418622 60.843353 0 CFG=1
M  V30 31 N 38.759815 26.349201 56.614572 0
M  V30 32 N 37.856892 31.713388 61.487202 0
M  V30 33 C 38.573341 31.170710 60.499510 0
M  V30 34 C 41.114526 27.304190 57.910133 0 CFG=2
M  V30 35 C 39.926600 28.062372 51.572620 0
M  V30 36 N 38.253623 29.337757 52.673379 0
M  V30 37 O 38.228453 31.292306 59.326366 0
M  V30 38 H 39.316423 29.238291 58.580956 0
M  V30 39 H 42.024348 32.081552 61.974793 0
M  V30 40 H 40.409103 26.279420 55.420254 0
M  V30 41 H 39.654404 31.423969 51.855422 0
M  V30 42 H 40.954762 30.420414 51.000164 0
M  V30 43 H 43.168463 31.206236 64.063169 0
M  V30 44 H 41.359072 34.041678 65.104488 0
M  V30 45 H 42.654085 33.759483 63.935677 0
M  V30 46 H 37.036618 28.297088 54.625305 0
M  V30 47 H 41.644909 28.140035 56.024246 0
M  V30 48 H 40.346054 28.954580 56.784910 0
M  V30 49 H 40.644098 29.472355 64.462748 0
M  V30 50 H 42.275751 28.891009 64.196996 0
M  V30 51 H 39.889886 34.785818 63.367738 0
M  V30 52 H 41.347960 34.918186 62.385036 0
M  V30 53 H 39.973833 28.463261 54.347592 0
M  V30 54 H 40.045125 26.557428 59.601296 0
M  V30 55 H 39.993616 25.974098 51.912473 0
M  V30 56 H 37.237768 30.665622 53.921943 0
M  V30 57 H 38.988780 30.613802 54.153599 0
M  V30 58 H 38.748693 25.907823 53.822163 0
M  V30 59 H 38.558445 30.072184 56.596701 0
M  V30 60 H 36.847074 30.040218 56.293382 0
M  V30 61 H 37.583340 28.668158 57.052787 0
M  V30 62 H 42.048678 28.965836 58.963583 0
M  V30 63 H 42.646827 27.337763 59.367734 0
M  V30 64 H 43.136032 28.106953 57.872796 0
M  V30 65 H 40.222777 32.005857 64.461989 0
M  V30 66 H 40.658604 30.725765 60.167790 0
M  V30 67 H 38.195050 31.663492 62.436724 0
M  V30 68 H 37.013325 32.223616 61.271832 0
M  V30 69 H 41.439644 26.288576 57.700476 0
M  V30 70 H 40.520473 27.992759 50.675439 0
M  V30 71 H 37.785645 28.440119 52.690044 0
M  V30 END ATOM
M  V30 BEGIN BOND
M  V30 1 1 6 2
M  V30 2 2 7 4
M  V30 3 1 11 3
M  V30 4 1 12 1
M  V30 5 1 14 5
M  V30 6 1 15 5
M  V30 7 1 16 8
M  V30 8 3 17 9
M  V30 9 1 18 3
M  V30 10 1 18 10
M  V30 11 1 19 1
M  V30 12 1 19 13
M  V30 13 2 21 13
M  V30 14 1 22 10
M  V30 15 1 23 18
M  V30 16 1 23 20
M  V30 17 1 24 2
M  V30 18 1 24 16
M  V30 19 1 25 10
M  V30 20 1 27 6
M  V30 21 1 27 14
M  V30 22 1 28 2
M  V30 23 1 28 5
M  V30 24 1 28 8
M  V30 25 2 29 12
M  V30 26 1 30 6
M  V30 27 1 30 12
M  V30 28 1 31 3
M  V30 29 1 31 13
M  V30 30 1 31 17
M  V30 31 1 33 30
M  V30 32 1 33 32
M  V30 33 1 34 11
M  V30 34 1 34 19
M  V30 35 1 34 26
M  V30 36 1 35 7
M  V30 37 2 35 20
M  V30 38 1 36 7
M  V30 39 1 36 22
M  V30 40 2 37 33
M  V30 41 1 38 1
M  V30 42 1 2 39 CFG=3
M  V30 43 1 3 40 CFG=3
M  V30 44 1 41 4
M  V30 45 1 42 4
M  V30 46 1 5 43 CFG=3
M  V30 47 1 44 8
M  V30 48 1 45 8
M  V30 49 1 10 46 CFG=3
M  V30 50 1 47 11
M  V30 51 1 48 11
M  V30 52 1 49 14
M  V30 53 1 50 14
M  V30 54 1 51 16
M  V30 55 1 52 16
M  V30 56 1 18 53 CFG=3
M  V30 57 1 19 54 CFG=1
M  V30 58 1 55 20
M  V30 59 1 56 22
M  V30 60 1 57 22
M  V30 61 1 58 23
M  V30 62 1 59 25
M  V30 63 1 60 25
M  V30 64 1 61 25
M  V30 65 1 62 26
M  V30 66 1 63 26
M  V30 67 1 64 26
M  V30 68 1 28 65 CFG=1
M  V30 69 1 30 66 CFG=3
M  V30 70 1 67 32
M  V30 71 1 68 32
M  V30 72 1 34 69 CFG=3
M  V30 73 1 70 35
M  V30 74 1 71 36
M  V30 END BOND
M  V30 END CTAB
M  END
>  <i_epik_Tot_Q>  (1) 
0

>  <i_epik_Tot_abs_Q>  (1) 
0

>  <i_i_glide_confnum>  (1) 
10

>  <i_i_glide_lignum>  (1) 
71

>  <i_i_glide_posenum>  (1) 
323

>  <i_i_glide_rotatable_bonds>  (1) 
6

>  <i_lp_mmshare_version>  (1) 
72125

>  <i_m_source_file_index>  (1) 
33

>  <i_f3d_flags>  (1) 
0

>  <num_sample>  (1) 
50

>  <b_lp_Chiralities_Consistent>  (1) 
1

>  <r_epik_Charging_Adjusted_Penalty>  (1) 
0.0047334328173529788

>  <r_epik_Ionization_Penalty>  (1) 
0.0056920073273627391

>  <r_epik_Ionization_Penalty_Charging>  (1) 
0.0047334328173529788

>  <r_epik_Ionization_Penalty_Neutral>  (1) 
0.00095857451000976068

>  <r_epik_State_Penalty>  (1) 
-0

>  <r_glide_ring_energy>  (1) 
0

>  <r_i_docking_score>  (1) 
-7.0306306234411533

>  <r_i_glide_ecoul>  (1) 
-1.0318122221862986

>  <r_i_glide_eff_state_penalty>  (1) 
-0

>  <r_i_glide_einternal>  (1) 
6.4153131935138923

>  <r_i_glide_emodel>  (1) 
-36.816399977277442

>  <r_i_glide_emodel_strain>  (1) 
3.1834678200406472

>  <r_i_glide_energy>  (1) 
-37.562305883800704

>  <r_i_glide_erotb>  (1) 
0.28744264244001894

>  <r_i_glide_esite>  (1) 
-0.060449814040147057

>  <r_i_glide_evdw>  (1) 
-36.530493661614408

>  <r_i_glide_gscore>  (1) 
-7.0306306234411533

>  <r_i_glide_gscore_strain>  (1) 
0

>  <r_i_glide_hbond>  (1) 
0

>  <r_i_glide_ligand_efficiency>  (1) 
-0.19001704387678792

>  <r_i_glide_ligand_efficiency_ln>  (1) 
-1.5247789608575566

>  <r_i_glide_ligand_efficiency_sa>  (1) 
-0.63317894579140066

>  <r_i_glide_lipo>  (1) 
-3.5525382390870055

>  <r_i_glide_metal>  (1) 
-0

>  <r_i_glide_rewards>  (1) 
-1.723788696345355

>  <r_lp_Energy>  (1) 
58.609352999999999

>  <r_lp_tautomer_probability>  (1) 
1

>  <s_epik_Chemistry_Notes>  (1) 
This compound has an imine and may undergo hydrolysis. This compound contains an acetal/aminal-like group ( X-CH(R)-Y where X, Y are N, S, or O) that may be acid/base labile, releasing an aldehyde. This compound has a N-S or N-O group and may undergo hydrolysis at high or low pH.

>  <s_epik_cmdline>  (1) 
J2VwaWtfcHl0aG9uJywgJy1waHQnLCAnMS4wJywgJy1waCcsICc3LjQnLCAnLXRuJywgJzgnLCAnLW1hJywgJzUwMCcsICctaW1hZScsICc8aW5maWxlLm1hZT4nLCAnLW9tYWUnLCAnPG91dGZpbGUubWFlPic=

>  <s_epik_input>  (1) 
TzFbQ0gyXVtDSDJdW0NAQEhdKFtDQEhdMTIpW0NAQEhdKENsKVtDSDJdT04yW0NASF0oQyg9TylbTkgyXSlDKD1PKVtOSF1bQ0BASF0oQyg9TylOM0MjTilbQ0BIXShbQ0gzXSlbQ0gyXVtDQEBIXTNbQ0BASF0oW05IXS9bQ0hdPVtDSF1cNClbQ0BASF0oW0NIM10pW0NIMl1cTj1DLzRcW0NIM10=

>  <s_glide_docking_method>  (1) 
confgen

>  <s_i_glide_gridfile>  (1) 
gpcr_5ht2c_6bqh_protein_autoprepared_prepared

>  <s_lp_Force_Field>  (1) 
S-OPLS

>  <s_lp_Variant>  (1) 
DiffSBDD_32-1

>  <s_m_source_file>  (1) 
generated_GPCR_5HT2C_ligand_DiffSBDD_2026-06-23_prepared.sdf

>  <GenAI_Model>  (1) 
DiffSBDD

>  <Protein>  (1) 
GPCR_5HT2C

$$$$
DiffSBDD_27
     RDKit          3D

  0  0  0  0  0  0  0  0  0  0999 V3000
M  V30 BEGIN CTAB
M  V30 COUNTS 67 69 0 0 1
M  V30 BEGIN ATOM
M  V30 1 C 40.465061 26.475046 56.107179 0
M  V30 2 C 41.477827 35.276470 61.064079 0
M  V30 3 N 40.045138 30.137749 52.501428 0
M  V30 4 C 38.231866 30.052507 58.498289 0
M  V30 5 C 36.845132 37.737807 61.976229 0
M  V30 6 C 38.059759 34.160766 61.152250 0
M  V30 7 N 36.845134 30.537767 58.575613 0 CHG=1
M  V30 8 C 37.075949 33.406801 60.401766 0
M  V30 9 O 35.866076 38.241635 62.567676 0
M  V30 10 C 39.209390 29.834692 53.235470 0
M  V30 11 C 40.462960 32.742827 63.816979 0
M  V30 12 C 38.031955 29.541720 54.072460 0 CFG=2
M  V30 13 C 39.738881 27.801602 55.863912 0 CFG=1
M  V30 14 C 38.091938 35.662892 61.196681 0
M  V30 15 C 37.107953 36.251970 62.218278 0
M  V30 16 C 35.983880 34.039654 59.582286 0
M  V30 17 S 38.603026 31.677984 61.531647 0
M  V30 18 C 37.245571 32.045557 60.527519 0
M  V30 19 C 39.355994 25.461282 56.400875 0
M  V30 20 N 37.797471 30.540796 55.130743 0
M  V30 21 O 37.629807 38.343444 61.211097 0 CHG=-1
M  V30 22 C 38.956596 33.344987 61.821497 0
M  V30 23 C 38.760088 30.603007 56.210843 0
M  V30 24 C 41.419806 34.007718 61.931641 0
M  V30 25 N 38.460929 29.532790 57.159806 0
M  V30 26 O 36.845145 27.530213 53.767767 0
M  V30 27 C 37.775705 28.052294 54.376382 0
M  V30 28 N 38.507229 27.319640 55.248234 0
M  V30 29 C 39.519432 28.531967 57.205884 0
M  V30 30 C 36.414363 30.955933 59.922591 0
M  V30 31 C 40.117233 33.758943 62.703865 0 CFG=2
M  V30 32 C 38.203296 25.916046 55.506811 0
M  V30 33 H 40.954918 26.159179 55.187070 0
M  V30 34 H 41.222112 26.537738 56.890025 0
M  V30 35 H 42.444916 35.337755 60.567754 0
M  V30 36 H 41.355621 36.180614 61.661390 0
M  V30 37 H 40.723739 35.272419 60.278269 0
M  V30 38 H 38.336003 29.258794 59.239805 0
M  V30 39 H 38.953887 30.830949 58.750380 0
M  V30 40 H 36.660545 31.302963 57.925079 0
M  V30 41 H 39.645183 32.537768 64.491409 0
M  V30 42 H 41.271812 33.111414 64.448682 0
M  V30 43 H 40.793307 31.789208 63.403359 0
M  V30 44 H 37.245132 29.738482 53.367750 0
M  V30 45 H 40.323433 28.426690 55.195953 0
M  V30 46 H 39.070847 36.045418 61.458160 0
M  V30 47 H 37.892757 36.052216 60.197132 0
M  V30 48 H 37.498541 36.137789 63.228479 0
M  V30 49 H 36.157760 35.720768 62.185233 0
M  V30 50 H 35.510163 33.338004 58.897490 0
M  V30 51 H 36.364584 34.856172 58.968753 0
M  V30 52 H 35.203679 34.448545 60.221768 0
M  V30 53 H 39.656971 24.435943 56.199511 0
M  V30 54 H 39.061801 25.519285 57.449651 0
M  V30 55 H 36.843121 30.564204 55.470364 0
M  V30 56 H 39.785059 30.585374 55.835813 0
M  V30 57 H 38.637404 31.587914 56.666413 0
M  V30 58 H 41.672469 33.121383 61.352107 0
M  V30 59 H 42.200513 34.097934 62.682211 0
M  V30 60 H 39.252911 27.792307 57.962272 0
M  V30 61 H 40.453676 28.986727 57.539573 0
M  V30 62 H 36.445105 30.086240 60.567755 0
M  V30 63 H 35.368260 31.258817 59.876992 0
M  V30 64 H 39.846805 34.686068 63.210659 0
M  V30 65 H 37.233635 25.789595 55.990949 0
M  V30 66 H 38.199815 25.354247 54.570894 0
M  V30 67 H 36.236572 29.789441 58.280543 0
M  V30 END ATOM
M  V30 BEGIN BOND
M  V30 1 1 7 4
M  V30 2 1 8 6
M  V30 3 2 9 5
M  V30 4 3 10 3
M  V30 5 1 12 10
M  V30 6 1 13 1
M  V30 7 1 14 6
M  V30 8 1 15 5
M  V30 9 1 15 14
M  V30 10 1 16 8
M  V30 11 2 18 8
M  V30 12 1 18 17
M  V30 13 1 19 1
M  V30 14 1 20 12
M  V30 15 1 21 5
M  V30 16 2 22 6
M  V30 17 1 22 17
M  V30 18 1 23 20
M  V30 19 1 24 2
M  V30 20 1 25 4
M  V30 21 1 25 23
M  V30 22 1 27 12
M  V30 23 2 27 26
M  V30 24 1 28 13
M  V30 25 1 28 27
M  V30 26 1 29 13
M  V30 27 1 29 25
M  V30 28 1 30 7
M  V30 29 1 30 18
M  V30 30 1 31 11
M  V30 31 1 31 22
M  V30 32 1 31 24
M  V30 33 1 32 19
M  V30 34 1 32 28
M  V30 35 1 33 1
M  V30 36 1 34 1
M  V30 37 1 35 2
M  V30 38 1 36 2
M  V30 39 1 37 2
M  V30 40 1 38 4
M  V30 41 1 39 4
M  V30 42 1 40 7
M  V30 43 1 41 11
M  V30 44 1 42 11
M  V30 45 1 43 11
M  V30 46 1 12 44 CFG=3
M  V30 47 1 13 45 CFG=3
M  V30 48 1 46 14
M  V30 49 1 47 14
M  V30 50 1 48 15
M  V30 51 1 49 15
M  V30 52 1 50 16
M  V30 53 1 51 16
M  V30 54 1 52 16
M  V30 55 1 53 19
M  V30 56 1 54 19
M  V30 57 1 55 20
M  V30 58 1 56 23
M  V30 59 1 57 23
M  V30 60 1 58 24
M  V30 61 1 59 24
M  V30 62 1 60 29
M  V30 63 1 61 29
M  V30 64 1 62 30
M  V30 65 1 63 30
M  V30 66 1 31 64 CFG=1
M  V30 67 1 65 32
M  V30 68 1 66 32
M  V30 69 1 67 7
M  V30 END BOND
M  V30 END CTAB
M  END
>  <i_epik_Tot_Q>  (1) 
0

>  <i_epik_Tot_abs_Q>  (1) 
2

>  <i_i_glide_confnum>  (1) 
51

>  <i_i_glide_lignum>  (1) 
61

>  <i_i_glide_posenum>  (1) 
132

>  <i_i_glide_rotatable_bonds>  (1) 
9

>  <i_lp_mmshare_version>  (1) 
72125

>  <i_m_source_file_index>  (1) 
28

>  <i_f3d_flags>  (1) 
0

>  <num_sample>  (1) 
50

>  <b_lp_Chiralities_Consistent>  (1) 
1

>  <r_epik_Charging_Adjusted_Penalty>  (1) 
0.0027323958996878029

>  <r_epik_Ionization_Penalty>  (1) 
0.002819485543525381

>  <r_epik_Ionization_Penalty_Charging>  (1) 
0.0027323958996878029

>  <r_epik_Ionization_Penalty_Neutral>  (1) 
8.708964383757816e-05

>  <r_epik_State_Penalty>  (1) 
-0

>  <r_glide_ring_energy>  (1) 
0

>  <r_i_docking_score>  (1) 
-7.0216642891473366

>  <r_i_glide_ecoul>  (1) 
-4.1024169765737906

>  <r_i_glide_eff_state_penalty>  (1) 
-0

>  <r_i_glide_einternal>  (1) 
10.102154801941515

>  <r_i_glide_emodel>  (1) 
-54.555150288273936

>  <r_i_glide_emodel_strain>  (1) 
0.97084495638795687

>  <r_i_glide_energy>  (1) 
-44.112103427457846

>  <r_i_glide_erotb>  (1) 
0.66148182558323176

>  <r_i_glide_esite>  (1) 
-0.16075080927160945

>  <r_i_glide_evdw>  (1) 
-40.009686450884054

>  <r_i_glide_gscore>  (1) 
-7.0216642891473366

>  <r_i_glide_gscore_strain>  (1) 
0

>  <r_i_glide_hbond>  (1) 
-0.15802546685376503

>  <r_i_glide_ligand_efficiency>  (1) 
-0.21942700903585427

>  <r_i_glide_ligand_efficiency_ln>  (1) 
-1.5723420376796595

>  <r_i_glide_ligand_efficiency_sa>  (1) 
-0.69663732994750149

>  <r_i_glide_lipo>  (1) 
-2.7087814085384112

>  <r_i_glide_metal>  (1) 
-0

>  <r_i_glide_rewards>  (1) 
-2.0397415610365126

>  <r_lp_Energy>  (1) 
41.659236

>  <r_lp_tautomer_probability>  (1) 
1

>  <s_epik_Chemistry_Notes>  (1) 
This compound contains an acetal/aminal-like group ( X-CH(R)-Y where X, Y are N, S, or O) that may be acid/base labile, releasing an aldehyde.

>  <s_epik_cmdline>  (1) 
J2VwaWtfcHl0aG9uJywgJy1waHQnLCAnMS4wJywgJy1waCcsICc3LjQnLCAnLXRuJywgJzgnLCAnLW1hJywgJzUwMCcsICctaW1hZScsICc8aW5maWxlLm1hZT4nLCAnLW9tYWUnLCAnPG91dGZpbGUubWFlPic=

>  <s_epik_input>  (1) 
W0NIMl0xW0NIMl1bQ0gyXU4oW0NASF0xMilDKD1PKVtDQEBIXShDI04pW05IXVtDSDJdTihbQ0gyXTIpW0NIMl1bTkhdW0NIMl1jKHNjM1tDQEBIXShbQ0gzXSlbQ0gyXVtDSDNdKWMoW0NIM10pYzNbQ0gyXVtDSDJdQyg9TylbT0hd

>  <s_glide_docking_method>  (1) 
confgen

>  <s_i_glide_gridfile>  (1) 
gpcr_5ht2c_6bqh_protein_autoprepared_prepared

>  <s_lp_Force_Field>  (1) 
S-OPLS

>  <s_lp_Variant>  (1) 
DiffSBDD_27-2

>  <s_m_source_file>  (1) 
generated_GPCR_5HT2C_ligand_DiffSBDD_2026-06-23_prepared.sdf

>  <GenAI_Model>  (1) 
DiffSBDD

>  <Protein>  (1) 
GPCR_5HT2C

$$$$
DiffSBDD_0
     RDKit          3D

  0  0  0  0  0  0  0  0  0  0999 V3000
M  V30 BEGIN CTAB
M  V30 COUNTS 73 75 0 0 1
M  V30 BEGIN ATOM
M  V30 1 C 42.230791 31.367023 64.547702 0
M  V30 2 C 41.575524 35.277240 64.262229 0
M  V30 3 O 36.845141 27.737761 53.365974 0
M  V30 4 C 40.886311 32.762727 62.953139 0
M  V30 5 C 37.778063 30.544704 58.541191 0 CFG=2
M  V30 6 C 36.778292 33.267311 59.304768 0
M  V30 7 C 38.901069 28.053106 54.499239 0
M  V30 8 C 38.865013 29.526499 53.968684 0 CFG=1
M  V30 9 C 39.978994 31.005273 52.222190 0
M  V30 10 C 39.359939 30.467444 55.088986 0
M  V30 11 N 38.373651 30.463988 56.162908 0
M  V30 12 O 37.473955 29.146270 58.576330 0
M  V30 13 C 42.059108 33.924364 64.848078 0
M  V30 14 C 39.110555 28.897930 51.547204 0
M  V30 15 C 39.462088 34.121968 61.283596 0 CFG=1
M  V30 16 C 38.845137 30.881976 57.474473 0
M  V30 17 C 40.662251 35.152365 63.049102 0
M  V30 18 C 39.185182 35.690274 61.354697 0
M  V30 19 C 38.004036 31.158654 59.960303 0 CFG=1
M  V30 20 C 37.692124 27.208991 54.112218 0
M  V30 21 N 39.645139 29.645275 52.703743 0 CHG=1
M  V30 22 C 39.873608 29.455182 50.355753 0
M  V30 23 F 42.170603 30.401074 63.629920 0
M  V30 24 C 40.358912 34.021078 62.470395 0
M  V30 25 C 41.674372 32.686635 64.040707 0
M  V30 26 O 39.245479 30.913426 60.296883 0 CHG=-1
M  V30 27 N 37.941627 32.650610 59.989518 0 CFG=2 CHG=1
M  V30 28 C 40.090842 36.387296 62.460727 0 CFG=1
M  V30 29 C 38.190376 33.243875 61.336402 0
M  V30 30 C 38.504477 28.251268 58.974639 0
M  V30 31 O 37.645138 26.046964 54.567800 0 CHG=-1
M  V30 32 O 39.336394 37.121095 63.399945 0
M  V30 33 C 40.050076 30.934893 50.687840 0
M  V30 34 H 43.279854 31.473237 64.822701 0
M  V30 35 H 41.676909 31.031452 65.424155 0
M  V30 36 H 42.439189 35.876555 63.969552 0
M  V30 37 H 41.063181 35.844238 65.040780 0
M  V30 38 H 40.638751 31.855284 62.420080 0
M  V30 39 H 36.845057 30.942224 58.167914 0
M  V30 40 H 35.836654 32.846355 59.660036 0
M  V30 41 H 36.754882 34.345158 59.468184 0
M  V30 42 H 36.845134 33.127486 58.225918 0
M  V30 43 H 39.789282 27.516182 54.176088 0
M  V30 44 H 38.937452 28.025344 55.588830 0
M  V30 45 H 37.849579 29.856981 53.742419 0
M  V30 46 H 39.245029 31.737868 52.535206 0
M  V30 47 H 40.912836 31.337745 52.659603 0
M  V30 48 H 39.503826 31.491933 54.745630 0
M  V30 49 H 40.328535 30.118319 55.449436 0
M  V30 50 H 37.512669 30.950714 55.914741 0
M  V30 51 H 41.646494 33.801672 65.850545 0
M  V30 52 H 43.142147 33.952506 64.968497 0
M  V30 53 H 39.247952 27.821140 51.652651 0
M  V30 54 H 38.045100 29.089695 51.429750 0
M  V30 55 H 40.066303 33.881636 60.409625 0
M  V30 56 H 39.047707 31.952733 57.469135 0
M  V30 57 H 39.784945 30.390493 57.714705 0
M  V30 58 H 38.136632 35.876630 61.589741 0
M  V30 59 H 39.347880 36.137756 60.377326 0
M  V30 60 H 37.164500 30.817479 60.569162 0
M  V30 61 H 40.845122 28.975301 50.314795 0
M  V30 62 H 39.377114 29.275485 49.403848 0
M  V30 63 H 40.880159 36.994260 62.018181 0
M  V30 64 H 38.302926 32.455000 62.081104 0
M  V30 65 H 37.324939 33.808908 61.684216 0
M  V30 66 H 38.167094 27.227812 58.813031 0
M  V30 67 H 39.418600 28.374415 58.395823 0
M  V30 68 H 38.737101 28.353033 60.034555 0
M  V30 69 H 39.933648 37.483565 64.040815 0
M  V30 70 H 40.989625 31.326466 50.296398 0
M  V30 71 H 39.245143 31.520505 50.242133 0
M  V30 72 H 40.540327 29.223861 52.894604 0
M  V30 73 H 38.752886 32.907457 59.448861 0
M  V30 END ATOM
M  V30 BEGIN BOND
M  V30 1 1 8 7
M  V30 2 1 10 8
M  V30 3 1 11 10
M  V30 4 1 12 5
M  V30 5 1 13 2
M  V30 6 1 16 5
M  V30 7 1 16 11
M  V30 8 1 17 2
M  V30 9 1 18 15
M  V30 10 1 19 5
M  V30 11 2 20 3
M  V30 12 1 20 7
M  V30 13 1 21 8
M  V30 14 1 21 9
M  V30 15 1 21 14
M  V30 16 1 22 14
M  V30 17 1 23 1
M  V30 18 1 24 4
M  V30 19 1 24 15
M  V30 20 2 24 17
M  V30 21 1 25 1
M  V30 22 2 25 4
M  V30 23 1 25 13
M  V30 24 1 26 19
M  V30 25 1 27 6
M  V30 26 1 27 19
M  V30 27 1 28 17
M  V30 28 1 28 18
M  V30 29 1 29 15
M  V30 30 1 29 27
M  V30 31 1 30 12
M  V30 32 1 31 20
M  V30 33 1 32 28
M  V30 34 1 33 9
M  V30 35 1 33 22
M  V30 36 1 34 1
M  V30 37 1 35 1
M  V30 38 1 36 2
M  V30 39 1 37 2
M  V30 40 1 38 4
M  V30 41 1 5 39 CFG=3
M  V30 42 1 40 6
M  V30 43 1 41 6
M  V30 44 1 42 6
M  V30 45 1 43 7
M  V30 46 1 44 7
M  V30 47 1 8 45 CFG=3
M  V30 48 1 46 9
M  V30 49 1 47 9
M  V30 50 1 48 10
M  V30 51 1 49 10
M  V30 52 1 50 11
M  V30 53 1 51 13
M  V30 54 1 52 13
M  V30 55 1 53 14
M  V30 56 1 54 14
M  V30 57 1 15 55 CFG=3
M  V30 58 1 56 16
M  V30 59 1 57 16
M  V30 60 1 58 18
M  V30 61 1 59 18
M  V30 62 1 19 60 CFG=1
M  V30 63 1 61 22
M  V30 64 1 62 22
M  V30 65 1 28 63 CFG=3
M  V30 66 1 64 29
M  V30 67 1 65 29
M  V30 68 1 66 30
M  V30 69 1 67 30
M  V30 70 1 68 30
M  V30 71 1 69 32
M  V30 72 1 70 33
M  V30 73 1 71 33
M  V30 74 1 72 21
M  V30 75 1 27 73 CFG=3
M  V30 END BOND
M  V30 END CTAB
M  END
>  <i_epik_Tot_Q>  (1) 
0

>  <i_epik_Tot_abs_Q>  (1) 
4

>  <i_i_glide_confnum>  (1) 
932

>  <i_i_glide_lignum>  (1) 
1

>  <i_i_glide_posenum>  (1) 
396

>  <i_i_glide_rotatable_bonds>  (1) 
14

>  <i_lp_mmshare_version>  (1) 
72125

>  <i_m_source_file_index>  (1) 
1

>  <i_f3d_flags>  (1) 
0

>  <num_sample>  (1) 
50

>  <b_lp_Chiralities_Consistent>  (1) 
1

>  <r_epik_Charging_Adjusted_Penalty>  (1) 
0.35910314693592993

>  <r_epik_Ionization_Penalty>  (1) 
0.058337682991089858

>  <r_epik_Ionization_Penalty_Charging>  (1) 
0.0030320954189955646

>  <r_epik_Ionization_Penalty_Neutral>  (1) 
0.055305587572094292

>  <r_epik_State_Penalty>  (1) 
0.35607105151693436

>  <r_glide_ring_energy>  (1) 
0

>  <r_i_docking_score>  (1) 
-7.01994532358606

>  <r_i_glide_ecoul>  (1) 
-5.2386367538056202

>  <r_i_glide_eff_state_penalty>  (1) 
0.35607105151693436

>  <r_i_glide_einternal>  (1) 
13.95243084411193

>  <r_i_glide_emodel>  (1) 
-63.699654648320859

>  <r_i_glide_emodel_strain>  (1) 
0.67052238765552374

>  <r_i_glide_energy>  (1) 
-46.2217314271143

>  <r_i_glide_erotb>  (1) 
0.82434179411086872

>  <r_i_glide_esite>  (1) 
-0.026238577369566612

>  <r_i_glide_evdw>  (1) 
-40.983094673308678

>  <r_i_glide_gscore>  (1) 
-7.3760163751029948

>  <r_i_glide_gscore_strain>  (1) 
0

>  <r_i_glide_hbond>  (1) 
-0.074830152949946174

>  <r_i_glide_ligand_efficiency>  (1) 
-0.21272561586624425

>  <r_i_glide_ligand_efficiency_ln>  (1) 
-1.5611994926339214

>  <r_i_glide_ligand_efficiency_sa>  (1) 
-0.68232471576048337

>  <r_i_glide_lipo>  (1) 
-3.8515031794501287

>  <r_i_glide_metal>  (1) 
-0

>  <r_i_glide_rewards>  (1) 
-1.4128360127079451

>  <r_lp_Energy>  (1) 
41.770188999999995

>  <s_epik_Chemistry_Notes>  (1) 
This compound contains an acetal/aminal-like group ( X-CH(R)-Y where X, Y are N, S, or O) that may be acid/base labile, releasing an aldehyde.

>  <s_epik_cmdline>  (1) 
J2VwaWtfcHl0aG9uJywgJy1waHQnLCAnMS4wJywgJy1waCcsICc3LjQnLCAnLXRuJywgJzgnLCAnLW1hJywgJzUwMCcsICctaW1hZScsICc8aW5maWxlLm1hZT4nLCAnLW9tYWUnLCAnPG91dGZpbGUubWFlPic=

>  <s_epik_input>  (1) 
W0NIMl0xW0NIMl1DKFtDSDJdRik9W0NIXUMoPUMxMilbQ0BIXShbQ0gyXVtDQEhdMltPSF0pW0NIMl1OKFtDSDNdKVtDQEhdKFtPSF0pW0NASF0oT1tDSDNdKVtDSDJdW05IXVtDSDJdW0NASF0oW0NIMl1DKD1PKVtPSF0pTjNbQ0gyXVtDSDJdW0NIMl1bQ0gyXTM=

>  <s_glide_docking_method>  (1) 
confgen

>  <s_i_glide_gridfile>  (1) 
gpcr_5ht2c_6bqh_protein_autoprepared_prepared

>  <s_lp_Force_Field>  (1) 
S-OPLS

>  <s_lp_Variant>  (1) 
DiffSBDD_0-1

>  <s_m_source_file>  (1) 
generated_GPCR_5HT2C_ligand_DiffSBDD_2026-06-23_prepared.sdf

>  <GenAI_Model>  (1) 
DiffSBDD

>  <Protein>  (1) 
GPCR_5HT2C

$$$$
DiffSBDD_17
     RDKit          3D

  0  0  0  0  0  0  0  0  0  0999 V3000
M  V30 BEGIN CTAB
M  V30 COUNTS 93 97 0 0 1
M  V30 BEGIN ATOM
M  V30 1 C 44.862653 28.477742 64.291334 0
M  V30 2 C 37.515322 32.110300 60.675849 0 CFG=2
M  V30 3 C 42.357734 28.781221 63.792368 0
M  V30 4 O 39.191346 28.500012 60.489652 0
M  V30 5 C 43.371448 26.460603 63.979257 0
M  V30 6 C 39.245084 27.552229 54.461980 0
M  V30 7 C 39.033294 27.999844 52.018991 0
M  V30 8 C 39.245131 27.159502 53.186961 0
M  V30 9 C 38.569540 33.438291 58.283881 0
M  V30 10 C 39.047387 34.953921 61.110409 0
M  V30 11 N 41.914694 30.004270 65.888852 0
M  V30 12 C 37.702495 34.801700 60.416686 0 CFG=2
M  V30 13 C 41.073240 31.070827 63.667336 0 CFG=1
M  V30 14 C 38.916489 31.901486 61.350956 0
M  V30 15 N 40.807015 29.131645 66.297035 0 CHG=1
M  V30 16 C 40.012273 27.425029 56.553561 0 CFG=2
M  V30 17 C 38.928860 28.897863 54.978824 0 CFG=2
M  V30 18 C 40.969877 31.043499 67.745136 0
M  V30 19 C 42.108304 30.171201 64.437654 0 CFG=2
M  V30 20 O 39.533711 26.669592 55.457064 0
M  V30 21 C 40.019988 29.944431 67.231330 0
M  V30 22 O 41.645298 31.482554 62.445521 0
M  V30 23 N 37.245139 29.986361 57.394048 0 CHG=1
M  V30 24 C 39.555747 30.076077 54.313196 0
M  V30 25 C 37.050172 31.099826 59.588810 0
M  V30 26 C 39.217973 29.341005 51.926555 0
M  V30 27 N 37.028631 33.492726 60.332560 0 CFG=1 CHG=1
M  V30 28 C 40.015452 29.554726 60.905876 0
M  V30 29 S 39.983507 26.599037 58.167758 0 CHG=-1
M  V30 30 C 39.222055 30.465000 61.880995 0 CFG=1
M  V30 31 C 39.645204 30.272965 52.986677 0
M  V30 32 N 39.805016 30.383140 63.257299 0 CHG=1
M  V30 33 C 37.468677 34.118260 59.086390 0 CFG=2
M  V30 34 C 37.908270 28.677479 57.305429 0
M  V30 35 C 38.111281 32.241274 57.482324 0
M  V30 36 C 39.221463 28.746151 56.487225 0 CFG=1
M  V30 37 C 37.886977 30.964534 58.295672 0 CFG=2
M  V30 38 N 41.962571 31.240556 66.673368 0 CHG=1
M  V30 39 C 43.445199 27.910218 64.473566 0
M  V30 40 H 45.138388 28.537258 63.238562 0
M  V30 41 H 44.961067 29.474222 64.720664 0
M  V30 42 H 45.602418 27.844645 64.783655 0
M  V30 43 H 36.840422 31.892680 61.504169 0
M  V30 44 H 41.425420 28.216529 63.761817 0
M  V30 45 H 42.647001 28.919569 62.752461 0
M  V30 46 H 39.647472 27.942765 59.856553 0
M  V30 47 H 43.645153 26.382689 62.927860 0
M  V30 48 H 44.045045 25.822104 64.546465 0
M  V30 49 H 42.371587 26.044975 64.103238 0
M  V30 50 H 38.767689 27.489899 51.103712 0
M  V30 51 H 39.450909 26.137699 53.001456 0
M  V30 52 H 39.471126 33.241722 58.851948 0
M  V30 53 H 38.845136 34.137754 57.507532 0
M  V30 54 H 39.374091 35.989736 61.008505 0
M  V30 55 H 38.953861 34.760004 62.178020 0
M  V30 56 H 39.836131 34.345138 60.680939 0
M  V30 57 H 36.962703 35.539514 60.721334 0
M  V30 58 H 40.821278 31.972608 64.225943 0
M  V30 59 H 38.963410 32.566152 62.211097 0
M  V30 60 H 39.726399 32.193585 60.688527 0
M  V30 61 H 40.281657 28.818700 65.492547 0
M  V30 62 H 41.061909 27.639451 56.340713 0
M  V30 63 H 37.856454 29.031768 54.826150 0
M  V30 64 H 41.491906 30.695294 68.638381 0
M  V30 65 H 40.454133 31.970224 67.999196 0
M  V30 66 H 43.056225 30.706818 64.366435 0
M  V30 67 H 39.579870 29.337766 68.020759 0
M  V30 68 H 39.223362 30.402619 66.652626 0
M  V30 69 H 42.139665 32.280665 62.577562 0
M  V30 70 H 36.287317 29.876169 57.697490 0
M  V30 71 H 39.912381 30.852634 54.972448 0
M  V30 72 H 36.983073 30.112297 60.045889 0
M  V30 73 H 36.021529 31.340236 59.312368 0
M  V30 74 H 39.076502 29.769931 50.945227 0
M  V30 75 H 40.881479 29.098250 61.379034 0
M  V30 76 H 40.400979 30.098607 60.045837 0
M  V30 77 H 38.249969 30.010820 62.054303 0
M  V30 78 H 40.067115 31.214042 52.663705 0
M  V30 79 H 39.078062 30.666246 63.897619 0
M  V30 80 H 36.590556 34.418706 58.515421 0
M  V30 81 H 38.046453 28.346721 58.326988 0
M  V30 82 H 37.245144 27.935559 56.869847 0
M  V30 83 H 38.874038 32.029700 56.731504 0
M  V30 84 H 37.245141 32.538098 56.901872 0
M  V30 85 H 39.861418 29.544513 56.863958 0
M  V30 86 H 38.872325 30.606289 58.579009 0
M  V30 87 H 42.898976 31.339508 67.047120 0
M  V30 88 H 43.255220 27.854090 65.544280 0
M  V30 89 H 41.218933 28.342142 66.780845 0
M  V30 90 H 41.724375 32.017476 66.073943 0
M  V30 91 H 37.185722 30.397091 56.472212 0
M  V30 92 H 39.936359 29.389491 63.389100 0
M  V30 93 H 36.021930 33.576670 60.380141 0
M  V30 END ATOM
M  V30 BEGIN BOND
M  V30 1 2 8 6
M  V30 2 1 8 7
M  V30 3 1 12 10
M  V30 4 1 14 2
M  V30 5 1 15 11
M  V30 6 1 17 6
M  V30 7 1 19 3
M  V30 8 1 19 11
M  V30 9 1 19 13
M  V30 10 1 20 6
M  V30 11 1 20 16
M  V30 12 1 21 15
M  V30 13 1 21 18
M  V30 14 1 22 13
M  V30 15 1 24 17
M  V30 16 1 25 2
M  V30 17 2 26 7
M  V30 18 1 27 2
M  V30 19 1 27 12
M  V30 20 1 28 4
M  V30 21 1 29 16
M  V30 22 1 30 14
M  V30 23 1 30 28
M  V30 24 2 31 24
M  V30 25 1 31 26
M  V30 26 1 32 13
M  V30 27 1 32 30
M  V30 28 1 33 9
M  V30 29 1 33 12
M  V30 30 1 33 27
M  V30 31 1 34 23
M  V30 32 1 35 9
M  V30 33 1 36 16
M  V30 34 1 36 17
M  V30 35 1 36 34
M  V30 36 1 37 23
M  V30 37 1 37 25
M  V30 38 1 37 35
M  V30 39 1 38 11
M  V30 40 1 38 18
M  V30 41 1 39 1
M  V30 42 1 39 3
M  V30 43 1 39 5
M  V30 44 1 40 1
M  V30 45 1 41 1
M  V30 46 1 42 1
M  V30 47 1 2 43 CFG=1
M  V30 48 1 44 3
M  V30 49 1 45 3
M  V30 50 1 46 4
M  V30 51 1 47 5
M  V30 52 1 48 5
M  V30 53 1 49 5
M  V30 54 1 50 7
M  V30 55 1 51 8
M  V30 56 1 52 9
M  V30 57 1 53 9
M  V30 58 1 54 10
M  V30 59 1 55 10
M  V30 60 1 56 10
M  V30 61 1 12 57 CFG=3
M  V30 62 1 13 58 CFG=1
M  V30 63 1 59 14
M  V30 64 1 60 14
M  V30 65 1 61 15
M  V30 66 1 16 62 CFG=3
M  V30 67 1 17 63 CFG=1
M  V30 68 1 64 18
M  V30 69 1 65 18
M  V30 70 1 19 66 CFG=1
M  V30 71 1 67 21
M  V30 72 1 68 21
M  V30 73 1 69 22
M  V30 74 1 70 23
M  V30 75 1 71 24
M  V30 76 1 72 25
M  V30 77 1 73 25
M  V30 78 1 74 26
M  V30 79 1 75 28
M  V30 80 1 76 28
M  V30 81 1 30 77 CFG=1
M  V30 82 1 78 31
M  V30 83 1 79 32
M  V30 84 1 33 80 CFG=3
M  V30 85 1 81 34
M  V30 86 1 82 34
M  V30 87 1 83 35
M  V30 88 1 84 35
M  V30 89 1 36 85 CFG=1
M  V30 90 1 37 86 CFG=1
M  V30 91 1 87 38
M  V30 92 1 88 39
M  V30 93 1 89 15
M  V30 94 1 90 38
M  V30 95 1 91 23
M  V30 96 1 92 32
M  V30 97 1 27 93 CFG=3
M  V30 END BOND
M  V30 END CTAB
M  END
>  <i_epik_Tot_Q>  (1) 
4

>  <i_epik_Tot_abs_Q>  (1) 
6

>  <i_i_glide_confnum>  (1) 
2441

>  <i_i_glide_lignum>  (1) 
35

>  <i_i_glide_posenum>  (1) 
63

>  <i_i_glide_rotatable_bonds>  (1) 
14

>  <i_lp_mmshare_version>  (1) 
72125

>  <i_m_source_file_index>  (1) 
18

>  <i_f3d_flags>  (1) 
0

>  <num_sample>  (1) 
50

>  <b_lp_Chiralities_Consistent>  (1) 
1

>  <r_epik_Charging_Adjusted_Penalty>  (1) 
1.6052319346045403

>  <r_epik_Ionization_Penalty>  (1) 
1.3756208669108916

>  <r_epik_Ionization_Penalty_Charging>  (1) 
0.71181796891070681

>  <r_epik_Ionization_Penalty_Neutral>  (1) 
0.66380289800018477

>  <r_epik_State_Penalty>  (1) 
0.89341396569383336

>  <r_glide_ring_energy>  (1) 
0.0045750838620950583

>  <r_i_docking_score>  (1) 
-7.0094961984773247

>  <r_i_glide_ecoul>  (1) 
-10.126844824135201

>  <r_i_glide_eff_state_penalty>  (1) 
0.89341396569383336

>  <r_i_glide_einternal>  (1) 
9.3859091476625895

>  <r_i_glide_emodel>  (1) 
-74.647462435696795

>  <r_i_glide_emodel_strain>  (1) 
3.5175452838895751

>  <r_i_glide_energy>  (1) 
-50.233400259127748

>  <r_i_glide_erotb>  (1) 
0.56146573491919982

>  <r_i_glide_esite>  (1) 
-0.13418246552064125

>  <r_i_glide_evdw>  (1) 
-40.106555434992543

>  <r_i_glide_gscore>  (1) 
-7.9029101641711579

>  <r_i_glide_gscore_strain>  (1) 
0

>  <r_i_glide_hbond>  (1) 
-0.1085468418201221

>  <r_i_glide_ligand_efficiency>  (1) 
-0.17973067175582885

>  <r_i_glide_ligand_efficiency_ln>  (1) 
-1.5030349613357425

>  <r_i_glide_ligand_efficiency_sa>  (1) 
-0.60950471071898993

>  <r_i_glide_lipo>  (1) 
-3.7303619124926986

>  <r_i_glide_metal>  (1) 
-0

>  <r_i_glide_rewards>  (1) 
-0.96693018388698981

>  <r_lp_Energy>  (1) 
83.500289999999993

>  <s_epik_Chemistry_Notes>  (1) 
This compound contains an acetal/aminal-like group ( X-CH(R)-Y where X, Y are N, S, or O) that may be acid/base labile, releasing an aldehyde.

>  <s_epik_cmdline>  (1) 
J2VwaWtfcHl0aG9uJywgJy1waHQnLCAnMS4wJywgJy1waCcsICc3LjQnLCAnLXRuJywgJzgnLCAnLW1hJywgJzUwMCcsICctaW1hZScsICc8aW5maWxlLm1hZT4nLCAnLW9tYWUnLCAnPG91dGZpbGUubWFlPic=

>  <s_epik_input>  (1) 
W05IXTFbQ0gyXVtDSDJdW05IXU4xW0NAQEhdKFtDSDJdW0NIXShbQ0gzXSlbQ0gzXSlbQ0BASF0oW09IXSlbTkhdW0NASF0oW0NIMl1bT0hdKVtDSDJdW0NAQEhdMltDSDJdW0NASF0oW0NIMl1bQ0gyXVtDQEBIXShOMjMpW0NIXTNbQ0gzXSlbTkhdW0NIMl1bQ0BASF0oW0NASF0oTzQpW1NIXSlbQ0BIXShDND01KVtDSF09W0NIXVtDSF09W0NIXVtDSF01

>  <s_glide_docking_method>  (1) 
confgen

>  <s_i_glide_gridfile>  (1) 
gpcr_5ht2c_6bqh_protein_autoprepared_prepared

>  <s_lp_Force_Field>  (1) 
S-OPLS

>  <s_lp_Variant>  (1) 
DiffSBDD_17-2

>  <s_m_source_file>  (1) 
generated_GPCR_5HT2C_ligand_DiffSBDD_2026-06-23_prepared.sdf

>  <GenAI_Model>  (1) 
DiffSBDD

>  <Protein>  (1) 
GPCR_5HT2C

$$$$
DiffSBDD_17
     RDKit          3D

  0  0  0  0  0  0  0  0  0  0999 V3000
M  V30 BEGIN CTAB
M  V30 COUNTS 93 97 0 0 1
M  V30 BEGIN ATOM
M  V30 1 C 44.337272 31.394906 66.215566 0
M  V30 2 C 36.943339 31.405663 60.332135 0 CFG=2
M  V30 3 C 42.472492 31.613166 64.424493 0
M  V30 4 O 40.479427 28.617874 61.363052 0
M  V30 5 C 42.018669 32.160563 66.904433 0
M  V30 6 C 39.245034 27.369230 53.684602 0
M  V30 7 C 39.198321 28.121032 51.299266 0
M  V30 8 C 39.329723 27.143550 52.369743 0
M  V30 9 C 37.619984 33.783605 58.709298 0
M  V30 10 C 36.424071 34.290816 61.707563 0
M  V30 11 N 42.660662 29.240545 63.572148 0
M  V30 12 C 35.645261 33.787411 60.528440 0 CFG=2
M  V30 13 C 40.333794 30.084687 64.106324 0 CFG=1
M  V30 14 C 38.150975 31.696770 61.331900 0
M  V30 15 N 42.230878 27.846626 63.767912 0 CHG=1
M  V30 16 C 39.389836 26.812880 55.900509 0 CFG=2
M  V30 17 C 38.921428 28.650434 54.362425 0 CFG=2
M  V30 18 C 44.539358 28.022506 64.365747 0
M  V30 19 C 41.880577 30.159566 64.418859 0 CFG=2
M  V30 20 O 39.439368 26.346845 54.566057 0
M  V30 21 C 43.450116 27.035539 63.935650 0
M  V30 22 O 39.782601 30.537744 65.187055 0 CHG=-1
M  V30 23 N 38.526623 30.544780 56.819047 0 CHG=1
M  V30 24 C 39.494995 29.934859 53.844684 0
M  V30 25 C 37.256798 30.680158 59.003204 0
M  V30 26 C 39.340252 29.467256 51.377840 0
M  V30 27 N 35.877302 32.433144 60.006400 0 CFG=1 CHG=1
M  V30 28 C 39.989324 29.868138 60.921208 0
M  V30 29 S 38.042231 26.043714 56.853200 0
M  V30 30 C 39.023042 30.526550 61.939588 0 CFG=1
M  V30 31 C 39.645398 30.282243 52.559543 0
M  V30 32 N 39.833626 31.042768 63.091269 0 CHG=1
M  V30 33 C 36.182397 33.582435 59.142831 0 CFG=2
M  V30 34 C 38.559401 29.067996 56.934318 0
M  V30 35 C 38.037371 32.795446 57.614399 0
M  V30 36 C 39.354537 28.362483 55.807603 0 CFG=1
M  V30 37 C 38.307217 31.336546 58.057886 0 CFG=2
M  V30 38 N 44.105530 29.330486 63.844011 0 CHG=1
M  V30 39 C 43.055580 32.119130 65.770140 0
M  V30 40 H 44.143599 30.357418 66.486237 0
M  V30 41 H 45.106842 31.419610 65.444436 0
M  V30 42 H 44.761947 31.877768 67.096724 0
M  V30 43 H 36.347900 30.683355 60.890888 0
M  V30 44 H 43.229524 31.736930 63.648482 0
M  V30 45 H 41.704148 32.335614 64.153143 0
M  V30 46 H 39.784945 27.977186 61.280731 0
M  V30 47 H 41.703643 31.161483 67.206222 0
M  V30 48 H 42.425217 32.653601 67.788117 0
M  V30 49 H 41.125870 32.710627 66.605165 0
M  V30 50 H 39.021544 27.720739 50.310648 0
M  V30 51 H 39.530180 26.137732 52.067666 0
M  V30 52 H 38.319495 33.826997 59.534321 0
M  V30 53 H 37.644835 34.782594 58.276255 0
M  V30 54 H 36.185661 35.338418 61.880005 0
M  V30 55 H 36.069111 33.737832 62.567712 0
M  V30 56 H 37.502018 34.227872 61.585873 0
M  V30 57 H 34.568687 33.915371 60.619096 0
M  V30 58 H 40.066107 29.089469 63.772174 0
M  V30 59 H 37.711900 32.158300 62.212738 0
M  V30 60 H 38.846946 32.418535 60.918328 0
M  V30 61 H 41.656895 27.827502 64.602527 0
M  V30 62 H 40.316876 26.508857 56.387767 0
M  V30 63 H 37.835123 28.745175 54.333653 0
M  V30 64 H 45.530077 27.744417 64.003471 0
M  V30 65 H 44.584896 28.085088 65.454076 0
M  V30 66 H 42.016602 29.759556 65.426298 0
M  V30 67 H 43.706359 26.595137 62.971635 0
M  V30 68 H 43.309305 26.223166 64.649460 0
M  V30 69 H 37.778360 30.781304 56.177888 0
M  V30 70 H 39.770511 30.657298 54.594064 0
M  V30 71 H 37.537089 29.663383 59.265182 0
M  V30 72 H 36.329193 30.537511 58.451104 0
M  V30 73 H 39.259140 30.004063 50.442836 0
M  V30 74 H 40.824901 30.530917 60.694628 0
M  V30 75 H 39.509610 29.651097 59.978398 0
M  V30 76 H 37.047416 26.503064 56.088162 0
M  V30 77 H 38.344950 29.775616 62.339521 0
M  V30 78 H 40.024688 31.276649 52.371548 0
M  V30 79 H 40.593941 31.622435 62.774017 0
M  V30 80 H 35.442555 33.734428 58.360122 0
M  V30 81 H 39.024292 28.784648 57.877541 0
M  V30 82 H 37.523292 28.731001 56.962504 0
M  V30 83 H 38.942824 33.181263 57.143081 0
M  V30 84 H 37.279998 32.824495 56.829375 0
M  V30 85 H 40.393935 28.683973 55.897479 0
M  V30 86 H 39.245130 31.350329 58.599406 0
M  V30 87 H 44.551169 29.527374 62.957277 0
M  V30 88 H 43.342021 33.158153 65.599871 0
M  V30 89 H 41.699406 27.576190 62.948231 0
M  V30 90 H 44.255979 30.079317 64.508945 0
M  V30 91 H 39.395329 30.856299 56.409949 0
M  V30 92 H 39.237363 31.606022 63.679856 0
M  V30 93 H 35.040213 32.008446 59.626973 0
M  V30 END ATOM
M  V30 BEGIN BOND
M  V30 1 2 8 6
M  V30 2 1 8 7
M  V30 3 1 12 10
M  V30 4 1 14 2
M  V30 5 1 15 11
M  V30 6 1 17 6
M  V30 7 1 19 3
M  V30 8 1 19 11
M  V30 9 1 19 13
M  V30 10 1 20 6
M  V30 11 1 20 16
M  V30 12 1 21 15
M  V30 13 1 21 18
M  V30 14 1 22 13
M  V30 15 1 24 17
M  V30 16 1 25 2
M  V30 17 2 26 7
M  V30 18 1 27 2
M  V30 19 1 27 12
M  V30 20 1 28 4
M  V30 21 1 29 16
M  V30 22 1 30 14
M  V30 23 1 30 28
M  V30 24 2 31 24
M  V30 25 1 31 26
M  V30 26 1 32 13
M  V30 27 1 32 30
M  V30 28 1 33 9
M  V30 29 1 33 12
M  V30 30 1 33 27
M  V30 31 1 34 23
M  V30 32 1 35 9
M  V30 33 1 36 16
M  V30 34 1 36 17
M  V30 35 1 36 34
M  V30 36 1 37 23
M  V30 37 1 37 25
M  V30 38 1 37 35
M  V30 39 1 38 11
M  V30 40 1 38 18
M  V30 41 1 39 1
M  V30 42 1 39 3
M  V30 43 1 39 5
M  V30 44 1 40 1
M  V30 45 1 41 1
M  V30 46 1 42 1
M  V30 47 1 2 43 CFG=1
M  V30 48 1 44 3
M  V30 49 1 45 3
M  V30 50 1 46 4
M  V30 51 1 47 5
M  V30 52 1 48 5
M  V30 53 1 49 5
M  V30 54 1 50 7
M  V30 55 1 51 8
M  V30 56 1 52 9
M  V30 57 1 53 9
M  V30 58 1 54 10
M  V30 59 1 55 10
M  V30 60 1 56 10
M  V30 61 1 12 57 CFG=3
M  V30 62 1 13 58 CFG=3
M  V30 63 1 59 14
M  V30 64 1 60 14
M  V30 65 1 61 15
M  V30 66 1 16 62 CFG=1
M  V30 67 1 17 63 CFG=1
M  V30 68 1 64 18
M  V30 69 1 65 18
M  V30 70 1 19 66 CFG=1
M  V30 71 1 67 21
M  V30 72 1 68 21
M  V30 73 1 69 23
M  V30 74 1 70 24
M  V30 75 1 71 25
M  V30 76 1 72 25
M  V30 77 1 73 26
M  V30 78 1 74 28
M  V30 79 1 75 28
M  V30 80 1 76 29
M  V30 81 1 30 77 CFG=1
M  V30 82 1 78 31
M  V30 83 1 79 32
M  V30 84 1 33 80 CFG=3
M  V30 85 1 81 34
M  V30 86 1 82 34
M  V30 87 1 83 35
M  V30 88 1 84 35
M  V30 89 1 36 85 CFG=3
M  V30 90 1 37 86 CFG=1
M  V30 91 1 87 38
M  V30 92 1 88 39
M  V30 93 1 89 15
M  V30 94 1 90 38
M  V30 95 1 91 23
M  V30 96 1 92 32
M  V30 97 1 27 93 CFG=3
M  V30 END BOND
M  V30 END CTAB
M  END
>  <i_epik_Tot_Q>  (1) 
4

>  <i_epik_Tot_abs_Q>  (1) 
6

>  <i_i_glide_confnum>  (1) 
1343

>  <i_i_glide_lignum>  (1) 
37

>  <i_i_glide_posenum>  (1) 
194

>  <i_i_glide_rotatable_bonds>  (1) 
14

>  <i_lp_mmshare_version>  (1) 
72125

>  <i_m_source_file_index>  (1) 
18

>  <i_f3d_flags>  (1) 
0

>  <num_sample>  (1) 
50

>  <b_lp_Chiralities_Consistent>  (1) 
1

>  <r_epik_Charging_Adjusted_Penalty>  (1) 
1.4553498192604928

>  <r_epik_Ionization_Penalty>  (1) 
1.1481457817152785

>  <r_epik_Ionization_Penalty_Charging>  (1) 
0.48043644912001532

>  <r_epik_Ionization_Penalty_Neutral>  (1) 
0.66770933259526311

>  <r_epik_State_Penalty>  (1) 
0.97491337014047741

>  <r_glide_ring_energy>  (1) 
0.0045750838620950583

>  <r_i_docking_score>  (1) 
-7.0010888976143466

>  <r_i_glide_ecoul>  (1) 
-6.2727393609573241

>  <r_i_glide_eff_state_penalty>  (1) 
0.97491337014047741

>  <r_i_glide_einternal>  (1) 
6.4261337263047658

>  <r_i_glide_emodel>  (1) 
-81.91164687043522

>  <r_i_glide_emodel_strain>  (1) 
0.83043537547268897

>  <r_i_glide_energy>  (1) 
-49.964742198844178

>  <r_i_glide_erotb>  (1) 
0.39302601444343988

>  <r_i_glide_esite>  (1) 
-0.16533586922525478

>  <r_i_glide_evdw>  (1) 
-43.692002837886854

>  <r_i_glide_gscore>  (1) 
-7.9760022677548239

>  <r_i_glide_gscore_strain>  (1) 
0

>  <r_i_glide_hbond>  (1) 
0

>  <r_i_glide_ligand_efficiency>  (1) 
-0.17951509993882939

>  <r_i_glide_ligand_efficiency_ln>  (1) 
-1.5012321973752929

>  <r_i_glide_ligand_efficiency_sa>  (1) 
-0.60877366110639008

>  <r_i_glide_lipo>  (1) 
-3.7962338987458435

>  <r_i_glide_metal>  (1) 
-0

>  <r_i_glide_rewards>  (1) 
-1.2819474681892236

>  <r_lp_Energy>  (1) 
72.301324999999991

>  <s_epik_Chemistry_Notes>  (1) 
This compound contains an acetal/aminal-like group ( X-CH(R)-Y where X, Y are N, S, or O) that may be acid/base labile, releasing an aldehyde.

>  <s_epik_cmdline>  (1) 
J2VwaWtfcHl0aG9uJywgJy1waHQnLCAnMS4wJywgJy1waCcsICc3LjQnLCAnLXRuJywgJzgnLCAnLW1hJywgJzUwMCcsICctaW1hZScsICc8aW5maWxlLm1hZT4nLCAnLW9tYWUnLCAnPG91dGZpbGUubWFlPic=

>  <s_epik_input>  (1) 
W05IXTFbQ0gyXVtDSDJdW05IXU4xW0NAQEhdKFtDSDJdW0NIXShbQ0gzXSlbQ0gzXSlbQ0BASF0oW09IXSlbTkhdW0NASF0oW0NIMl1bT0hdKVtDSDJdW0NAQEhdMltDSDJdW0NASF0oW0NIMl1bQ0gyXVtDQEBIXShOMjMpW0NIXTNbQ0gzXSlbTkhdW0NIMl1bQ0BASF0oW0NASF0oTzQpW1NIXSlbQ0BIXShDND01KVtDSF09W0NIXVtDSF09W0NIXVtDSF01

>  <s_glide_docking_method>  (1) 
confgen

>  <s_i_glide_gridfile>  (1) 
gpcr_5ht2c_6bqh_protein_autoprepared_prepared

>  <s_lp_Force_Field>  (1) 
S-OPLS

>  <s_lp_Variant>  (1) 
DiffSBDD_17-4

>  <s_m_source_file>  (1) 
generated_GPCR_5HT2C_ligand_DiffSBDD_2026-06-23_prepared.sdf

>  <GenAI_Model>  (1) 
DiffSBDD

>  <Protein>  (1) 
GPCR_5HT2C

$$$$
DiffSBDD_38
     RDKit          3D

  0  0  0  0  0  0  0  0  0  0999 V3000
M  V30 BEGIN CTAB
M  V30 COUNTS 71 72 0 0 1
M  V30 BEGIN ATOM
M  V30 1 C 39.449651 29.716519 54.265711 0
M  V30 2 C 37.127557 32.880537 60.476519 0
M  V30 3 C 42.387435 35.060900 64.404620 0
M  V30 4 F 36.628462 25.737750 56.166038 0
M  V30 5 C 41.767101 35.941550 63.501672 0
M  V30 6 C 41.875628 33.769739 64.536294 0
M  V30 7 C 38.364628 34.992253 61.306943 0 CFG=2
M  V30 8 C 37.595167 36.698199 62.753021 0
M  V30 9 F 39.141180 32.359185 58.227485 0
M  V30 10 C 37.645136 31.597331 55.872319 0
M  V30 11 C 40.761860 33.410732 63.772478 0
M  V30 12 C 37.764959 25.271126 55.661602 0
M  V30 13 C 38.748894 26.428376 55.376520 0 CFG=2
M  V30 14 C 39.765334 31.098576 54.642819 0
M  V30 15 N 37.645135 29.185758 55.853526 0
M  V30 16 O 37.268503 35.613297 61.899277 0
M  V30 17 C 38.549447 31.367402 58.886709 0
M  V30 18 C 38.493045 28.886767 54.799681 0
M  V30 19 C 38.286285 27.452360 54.279000 0 CFG=1
M  V30 20 C 37.134479 31.802287 59.382100 0 CFG=1
M  V30 21 C 40.196198 34.369502 62.906199 0
M  V30 22 F 37.487646 24.572183 54.567773 0
M  V30 23 C 37.856940 34.205720 60.087096 0 CFG=2
M  V30 24 C 39.126060 27.620556 50.600125 0
M  V30 25 F 39.314910 31.079633 59.941084 0
M  V30 26 F 42.445163 32.883629 65.386467 0
M  V30 27 C 38.989414 31.924495 55.355531 0
M  V30 28 N 40.692234 35.616251 62.759402 0
M  V30 29 F 38.283434 24.452363 56.576379 0
M  V30 30 C 38.615750 30.193901 57.888909 0 CFG=2
M  V30 31 C 36.988164 35.091549 59.178531 0
M  V30 32 C 38.460394 27.737755 51.945797 0
M  V30 33 C 40.179746 25.930010 55.154087 0
M  V30 34 N 38.929654 27.195875 52.992633 0
M  V30 35 C 37.652170 30.336659 56.694793 0 CFG=1
M  V30 36 O 36.443263 30.680608 59.897296 0
M  V30 37 F 38.309956 29.059188 58.525441 0
M  V30 38 N 39.065352 34.035451 62.166354 0
M  V30 39 H 40.045137 29.313007 53.474151 0
M  V30 40 H 36.998571 28.464269 56.135074 0
M  V30 41 H 36.096751 33.116643 60.744884 0
M  V30 42 H 37.529072 32.394299 61.361080 0
M  V30 43 H 43.245140 35.376045 64.972714 0
M  V30 44 H 42.150294 36.937756 63.367753 0
M  V30 45 H 39.062118 35.756952 60.960922 0
M  V30 46 H 36.678475 37.144735 63.137124 0
M  V30 47 H 38.146294 37.470395 62.214427 0
M  V30 48 H 38.188601 36.376973 63.608488 0
M  V30 49 H 36.945307 31.523350 55.037336 0
M  V30 50 H 37.324104 32.456881 56.458303 0
M  V30 51 H 40.335147 32.422421 63.856214 0
M  V30 52 H 38.805367 26.953334 56.330869 0
M  V30 53 H 40.705869 31.492093 54.294322 0
M  V30 54 H 37.205667 27.333109 54.162364 0
M  V30 55 H 36.545552 32.199389 58.567771 0
M  V30 56 H 38.783101 34.008331 59.565634 0
M  V30 57 H 38.844951 28.447590 49.950322 0
M  V30 58 H 38.845132 26.676021 50.139507 0
M  V30 59 H 39.339699 32.926823 55.554333 0
M  V30 60 H 39.639485 30.064903 57.533818 0
M  V30 61 H 36.013072 35.290081 59.624339 0
M  V30 62 H 36.817183 34.595326 58.222413 0
M  V30 63 H 37.453871 36.055546 58.976948 0
M  V30 64 H 37.542386 28.331858 51.959665 0
M  V30 65 H 40.265044 25.337723 54.245057 0
M  V30 66 H 40.518942 25.324211 55.991183 0
M  V30 67 H 40.845129 26.783392 55.070489 0
M  V30 68 H 40.208109 27.653865 50.708924 0
M  V30 69 H 36.670985 30.225967 57.146315 0
M  V30 70 H 36.388883 30.034252 59.208775 0
M  V30 71 H 38.663138 33.116427 62.260362 0
M  V30 END ATOM
M  V30 BEGIN BOND
M  V30 1 2 5 3
M  V30 2 1 6 3
M  V30 3 2 11 6
M  V30 4 1 12 4
M  V30 5 1 13 12
M  V30 6 1 14 1
M  V30 7 1 16 7
M  V30 8 1 16 8
M  V30 9 1 17 9
M  V30 10 2 18 1
M  V30 11 1 18 15
M  V30 12 1 19 13
M  V30 13 1 19 18
M  V30 14 1 20 2
M  V30 15 1 20 17
M  V30 16 1 21 11
M  V30 17 1 22 12
M  V30 18 1 23 2
M  V30 19 1 23 7
M  V30 20 1 25 17
M  V30 21 1 26 6
M  V30 22 1 27 10
M  V30 23 2 27 14
M  V30 24 1 28 5
M  V30 25 2 28 21
M  V30 26 1 29 12
M  V30 27 1 30 17
M  V30 28 1 31 23
M  V30 29 1 32 24
M  V30 30 1 33 13
M  V30 31 1 34 19
M  V30 32 2 34 32
M  V30 33 1 35 10
M  V30 34 1 35 15
M  V30 35 1 35 30
M  V30 36 1 36 20
M  V30 37 1 37 30
M  V30 38 1 38 7
M  V30 39 1 38 21
M  V30 40 1 39 1
M  V30 41 1 40 15
M  V30 42 1 41 2
M  V30 43 1 42 2
M  V30 44 1 43 3
M  V30 45 1 44 5
M  V30 46 1 7 45 CFG=3
M  V30 47 1 46 8
M  V30 48 1 47 8
M  V30 49 1 48 8
M  V30 50 1 49 10
M  V30 51 1 50 10
M  V30 52 1 51 11
M  V30 53 1 13 52 CFG=1
M  V30 54 1 53 14
M  V30 55 1 19 54 CFG=3
M  V30 56 1 20 55 CFG=3
M  V30 57 1 23 56 CFG=3
M  V30 58 1 57 24
M  V30 59 1 58 24
M  V30 60 1 59 27
M  V30 61 1 30 60 CFG=3
M  V30 62 1 61 31
M  V30 63 1 62 31
M  V30 64 1 63 31
M  V30 65 1 64 32
M  V30 66 1 65 33
M  V30 67 1 66 33
M  V30 68 1 67 33
M  V30 69 1 68 24
M  V30 70 1 35 69 CFG=1
M  V30 71 1 70 36
M  V30 72 1 71 38
M  V30 END BOND
M  V30 END CTAB
M  END
>  <i_epik_Tot_Q>  (1) 
0

>  <i_epik_Tot_abs_Q>  (1) 
0

>  <i_i_glide_confnum>  (1) 
3335

>  <i_i_glide_lignum>  (1) 
81

>  <i_i_glide_posenum>  (1) 
239

>  <i_i_glide_rotatable_bonds>  (1) 
14

>  <i_lp_mmshare_version>  (1) 
72125

>  <i_m_source_file_index>  (1) 
39

>  <i_f3d_flags>  (1) 
0

>  <num_sample>  (1) 
50

>  <b_lp_Chiralities_Consistent>  (1) 
1

>  <r_epik_Charging_Adjusted_Penalty>  (1) 
0.41068759954161893

>  <r_epik_Ionization_Penalty>  (1) 
0.7209121720186531

>  <r_epik_Ionization_Penalty_Charging>  (1) 
0

>  <r_epik_Ionization_Penalty_Neutral>  (1) 
0.7209121720186531

>  <r_epik_State_Penalty>  (1) 
0.41068759954161893

>  <r_glide_ring_energy>  (1) 
0

>  <r_i_docking_score>  (1) 
-6.9639395129973272

>  <r_i_glide_ecoul>  (1) 
-4.2514095215918282

>  <r_i_glide_eff_state_penalty>  (1) 
0.41068759954161893

>  <r_i_glide_einternal>  (1) 
11.639503329445347

>  <r_i_glide_emodel>  (1) 
-55.286583039935273

>  <r_i_glide_emodel_strain>  (1) 
1.8494994552312107

>  <r_i_glide_energy>  (1) 
-42.255234466979417

>  <r_i_glide_erotb>  (1) 
0.60130745657359952

>  <r_i_glide_esite>  (1) 
-0.054293377313058666

>  <r_i_glide_evdw>  (1) 
-38.003824945387592

>  <r_i_glide_gscore>  (1) 
-7.3746271125389464

>  <r_i_glide_gscore_strain>  (1) 
0

>  <r_i_glide_hbond>  (1) 
0

>  <r_i_glide_ligand_efficiency>  (1) 
-0.1832615661315086

>  <r_i_glide_ligand_efficiency_ln>  (1) 
-1.5016302173474216

>  <r_i_glide_ligand_efficiency_sa>  (1) 
-0.61612087834559393

>  <r_i_glide_lipo>  (1) 
-3.1999650757928189

>  <r_i_glide_metal>  (1) 
-0

>  <r_i_glide_rewards>  (1) 
-2.1837734404985145

>  <r_lp_Energy>  (1) 
24.236113

>  <r_lp_tautomer_probability>  (1) 
0.49999644301987139

>  <s_epik_Chemistry_Notes>  (1) 
This compound has an imine and may undergo hydrolysis. This compound contains an acetal/aminal-like group ( X-CH(R)-Y where X, Y are N, S, or O) that may be acid/base labile, releasing an aldehyde.

>  <s_epik_cmdline>  (1) 
J2VwaWtfcHl0aG9uJywgJy1waHQnLCAnMS4wJywgJy1waCcsICc3LjQnLCAnLXRuJywgJzgnLCAnLW1hJywgJzUwMCcsICctaW1hZScsICc8aW5maWxlLm1hZT4nLCAnLW9tYWUnLCAnPG91dGZpbGUubWFlPic=

>  <s_epik_input>  (1) 
RkMoRikoRilbQ0BASF0oW0NIM10pW0NASF0oW05IXVtDSF09W0NIMl0pQzE9TltDQEhdKFtDSDJdW0NIXT1bQ0hdW0NIMl0xKVtDQEhdKEYpQyhGKShGKVtDQEBIXShbT0hdKVtDSDJdW0NAQEhdKFtDSDNdKVtDQEBIXShPW0NIM10pW05IXWMoW2NIXTIpbltjSF1bY0hdYzJG

>  <s_glide_docking_method>  (1) 
confgen

>  <s_i_glide_gridfile>  (1) 
gpcr_5ht2c_6bqh_protein_autoprepared_prepared

>  <s_lp_Force_Field>  (1) 
S-OPLS

>  <s_lp_Variant>  (1) 
DiffSBDD_38-2

>  <s_m_source_file>  (1) 
generated_GPCR_5HT2C_ligand_DiffSBDD_2026-06-23_prepared.sdf

>  <GenAI_Model>  (1) 
DiffSBDD

>  <Protein>  (1) 
GPCR_5HT2C

$$$$
DiffSBDD_44
     RDKit          3D

  0  0  0  0  0  0  0  0  0  0999 V3000
M  V30 BEGIN CTAB
M  V30 COUNTS 50 52 0 0 1
M  V30 BEGIN ATOM
M  V30 1 N 39.756382 28.954144 58.362856 0
M  V30 2 N 40.045136 37.337755 62.967763 0
M  V30 3 C 40.171755 31.176324 62.211117 0
M  V30 4 C 41.654442 32.591845 63.677413 0
M  V30 5 C 39.060600 27.612152 55.647248 0
M  V30 6 C 39.612757 29.034989 55.888599 0
M  V30 7 C 40.591310 32.515766 62.750254 0
M  V30 8 C 39.711696 29.357184 59.700617 0
M  V30 9 C 40.741090 28.826046 61.958598 0
M  V30 10 C 40.328334 34.950190 62.857074 0
M  V30 11 C 38.746517 27.533033 54.152774 0
M  V30 12 C 39.169606 29.678306 57.228048 0 CFG=1
M  V30 13 C 42.045136 33.838425 64.200350 0
M  V30 14 C 38.317240 28.951932 53.793117 0
M  V30 15 C 38.908440 31.004164 61.439671 0
M  V30 16 C 36.845184 29.237416 58.167756 0
M  V30 17 C 39.929492 33.697959 62.338023 0
M  V30 18 C 37.649178 29.858440 57.288209 0
M  V30 19 C 41.389700 35.015178 63.794616 0
M  V30 20 C 40.261151 28.458392 60.731695 0
M  V30 21 C 39.224318 29.853692 54.635688 0
M  V30 22 O 38.709874 36.162360 61.584858 0
M  V30 23 N 40.882797 30.148234 62.414715 0
M  V30 24 C 39.619264 36.204918 62.409808 0
M  V30 25 C 39.135764 30.535088 60.036497 0
M  V30 26 H 40.169990 28.057898 58.150115 0
M  V30 27 H 40.796940 37.322798 63.646796 0
M  V30 28 H 39.613304 38.210014 62.713476 0
M  V30 29 H 42.164709 31.694153 63.995751 0
M  V30 30 H 39.764815 26.839074 55.957145 0
M  V30 31 H 38.140249 27.447719 56.207990 0
M  V30 32 H 40.701569 28.963081 55.892947 0
M  V30 33 H 41.124620 28.072748 62.630907 0
M  V30 34 H 39.645138 27.267091 53.595664 0
M  V30 35 H 37.979847 26.792356 53.922133 0
M  V30 36 H 39.595960 30.681723 57.251592 0
M  V30 37 H 42.853245 33.892596 64.914387 0
M  V30 38 H 38.394142 29.158140 52.725039 0
M  V30 39 H 37.277226 29.103134 54.086824 0
M  V30 40 H 38.259994 31.872933 61.435054 0
M  V30 41 H 38.308697 30.246133 61.945565 0
M  V30 42 H 37.245145 28.552726 58.897126 0
M  V30 43 H 35.779569 29.410080 58.167605 0
M  V30 44 H 39.124813 33.655128 61.624324 0
M  V30 45 H 37.218603 30.537736 56.567873 0
M  V30 46 H 41.704060 35.964637 64.202118 0
M  V30 47 H 40.298066 27.406600 60.491995 0
M  V30 48 H 38.742445 30.803925 54.867579 0
M  V30 49 H 40.123728 30.097772 54.068941 0
M  V30 50 H 38.737506 31.172950 59.264157 0
M  V30 END ATOM
M  V30 BEGIN BOND
M  V30 1 1 6 5
M  V30 2 1 7 3
M  V30 3 2 7 4
M  V30 4 1 8 1
M  V30 5 1 11 5
M  V30 6 1 12 1
M  V30 7 1 12 6
M  V30 8 1 13 4
M  V30 9 1 14 11
M  V30 10 1 15 3
M  V30 11 1 17 7
M  V30 12 2 17 10
M  V30 13 1 18 12
M  V30 14 2 18 16
M  V30 15 1 19 10
M  V30 16 2 19 13
M  V30 17 1 20 8
M  V30 18 2 20 9
M  V30 19 1 21 6
M  V30 20 1 21 14
M  V30 21 2 23 3
M  V30 22 1 23 9
M  V30 23 1 24 2
M  V30 24 1 24 10
M  V30 25 2 24 22
M  V30 26 2 25 8
M  V30 27 1 25 15
M  V30 28 1 26 1
M  V30 29 1 27 2
M  V30 30 1 28 2
M  V30 31 1 29 4
M  V30 32 1 30 5
M  V30 33 1 31 5
M  V30 34 1 32 6
M  V30 35 1 33 9
M  V30 36 1 34 11
M  V30 37 1 35 11
M  V30 38 1 12 36 CFG=3
M  V30 39 1 37 13
M  V30 40 1 38 14
M  V30 41 1 39 14
M  V30 42 1 40 15
M  V30 43 1 41 15
M  V30 44 1 42 16
M  V30 45 1 43 16
M  V30 46 1 44 17
M  V30 47 1 45 18
M  V30 48 1 46 19
M  V30 49 1 47 20
M  V30 50 1 48 21
M  V30 51 1 49 21
M  V30 52 1 50 25
M  V30 END BOND
M  V30 END CTAB
M  END
>  <i_epik_Tot_Q>  (1) 
0

>  <i_epik_Tot_abs_Q>  (1) 
0

>  <i_i_glide_confnum>  (1) 
115

>  <i_i_glide_lignum>  (1) 
95

>  <i_i_glide_posenum>  (1) 
276

>  <i_i_glide_rotatable_bonds>  (1) 
6

>  <i_lp_mmshare_version>  (1) 
72125

>  <i_m_source_file_index>  (1) 
45

>  <i_f3d_flags>  (1) 
0

>  <num_sample>  (1) 
50

>  <b_lp_Chiralities_Consistent>  (1) 
1

>  <r_epik_Charging_Adjusted_Penalty>  (1) 
0.0076359767464213076

>  <r_epik_Ionization_Penalty>  (1) 
0.0038263815256696344

>  <r_epik_Ionization_Penalty_Charging>  (1) 
0.0038179969365927696

>  <r_epik_Ionization_Penalty_Neutral>  (1) 
8.3845890768645326e-06

>  <r_epik_State_Penalty>  (1) 
0.003817979809828538

>  <r_glide_ring_energy>  (1) 
0.96380960981361075

>  <r_i_docking_score>  (1) 
-6.9620466871936983

>  <r_i_glide_ecoul>  (1) 
-4.8028819899886503

>  <r_i_glide_eff_state_penalty>  (1) 
0.003817979809828538

>  <r_i_glide_einternal>  (1) 
9.2734745376355736

>  <r_i_glide_emodel>  (1) 
-57.971991547926301

>  <r_i_glide_emodel_strain>  (1) 
0.071890659579580074

>  <r_i_glide_energy>  (1) 
-43.789469741454646

>  <r_i_glide_erotb>  (1) 
0.83861639918750919

>  <r_i_glide_esite>  (1) 
0

>  <r_i_glide_evdw>  (1) 
-38.986587751465997

>  <r_i_glide_gscore>  (1) 
-6.9658646670035269

>  <r_i_glide_gscore_strain>  (1) 
0

>  <r_i_glide_hbond>  (1) 
-0.17480105949980007

>  <r_i_glide_ligand_efficiency>  (1) 
-0.27848186748774795

>  <r_i_glide_ligand_efficiency_ln>  (1) 
-1.6502137005682538

>  <r_i_glide_ligand_efficiency_sa>  (1) 
-0.81428592030481983

>  <r_i_glide_lipo>  (1) 
-2.9724762293394895

>  <r_i_glide_metal>  (1) 
-0

>  <r_i_glide_rewards>  (1) 
-1.9874420912801487

>  <r_lp_Energy>  (1) 
44.465160999999995

>  <s_epik_Chemistry_Notes>  (1) 
This compound has an imine and may undergo hydrolysis.

>  <s_epik_cmdline>  (1) 
J2VwaWtfcHl0aG9uJywgJy1waHQnLCAnMS4wJywgJy1waCcsICc3LjQnLCAnLXRuJywgJzgnLCAnLW1hJywgJzUwMCcsICctaW1hZScsICc8aW5maWxlLm1hZT4nLCAnLW9tYWUnLCAnPG91dGZpbGUubWFlPic=

>  <s_epik_input>  (1) 
W0NIMl0xW0NIMl1bQ0gyXVtDSDJdW0NIXTFbQ0BASF0oW0NIXT1bQ0gyXSlbTkhdQyg9W0NIXVtDSDJdMilbQ0hdPVtDSF1OPUMyYzNbY0hdW2NIXVtjSF1jKFtjSF0zKUMoPU8pW05IMl0=

>  <s_glide_docking_method>  (1) 
confgen

>  <s_i_glide_gridfile>  (1) 
gpcr_5ht2c_6bqh_protein_autoprepared_prepared

>  <s_lp_Force_Field>  (1) 
S-OPLS

>  <s_lp_Variant>  (1) 
DiffSBDD_44-1

>  <s_m_source_file>  (1) 
generated_GPCR_5HT2C_ligand_DiffSBDD_2026-06-23_prepared.sdf

>  <GenAI_Model>  (1) 
DiffSBDD

>  <Protein>  (1) 
GPCR_5HT2C

$$$$
DiffSBDD_19
     RDKit          3D

  0  0  0  0  0  0  0  0  0  0999 V3000
M  V30 BEGIN CTAB
M  V30 COUNTS 69 71 0 0 1
M  V30 BEGIN ATOM
M  V30 1 O 39.470074 27.448257 59.454852 0
M  V30 2 C 39.122662 29.900756 54.228312 0
M  V30 3 C 38.856431 35.998915 61.371805 0
M  V30 4 C 39.041852 28.079028 52.606295 0
M  V30 5 C 39.338750 28.966946 55.269163 0
M  V30 6 C 39.052152 31.388637 54.524409 0
M  V30 7 C 38.399421 24.694679 57.459509 0
M  V30 8 C 35.843696 31.148154 59.630631 0
M  V30 9 C 37.675713 36.675143 60.679965 0 CFG=2
M  V30 10 N 36.845160 37.593570 61.490641 0
M  V30 11 F 39.243582 28.549552 50.298083 0
M  V30 12 C 39.408854 27.586409 54.955354 0
M  V30 13 F 39.645132 26.538298 50.967643 0
M  V30 14 C 36.609235 37.213439 62.876895 0
M  V30 15 C 36.914264 32.209091 59.348337 0 CFG=2
M  V30 16 C 39.086811 30.973351 59.902151 0
M  V30 17 C 37.938084 27.738993 57.643056 0
M  V30 18 O 38.444377 25.587424 58.565679 0
M  V30 19 O 39.669943 36.562196 62.100082 0
M  V30 20 C 38.986408 29.444613 52.901320 0
M  V30 21 C 39.003532 26.820415 58.288667 0 CFG=2
M  V30 22 C 39.530107 29.440562 56.720545 0
M  V30 23 N 37.818994 34.287090 60.207331 0
M  V30 24 C 38.891659 27.608975 51.175170 0
M  V30 25 C 39.245143 27.150580 53.633781 0
M  V30 26 C 38.123553 31.425377 58.770687 0 CFG=1
M  V30 27 O 35.645021 38.129893 63.341117 0
M  V30 28 C 36.353252 29.845737 59.008727 0
M  V30 29 C 37.474024 30.226913 58.020830 0 CFG=2
M  V30 30 N 38.830810 34.715396 61.040047 0
M  V30 31 N 38.442681 29.132805 57.698328 0 CFG=1 CHG=1
M  V30 32 C 36.898282 35.439200 60.173565 0
M  V30 33 N 37.178898 33.060682 60.516372 0
M  V30 34 H 40.091930 26.867299 59.870754 0
M  V30 35 H 38.803230 31.956080 53.627158 0
M  V30 36 H 38.285133 31.606454 55.268679 0
M  V30 37 H 40.015137 31.748023 54.887914 0
M  V30 38 H 37.932365 23.759123 57.767817 0
M  V30 39 H 37.818056 25.098453 56.630058 0
M  V30 40 H 39.403198 24.459915 57.102153 0
M  V30 41 H 35.667297 31.013365 60.698441 0
M  V30 42 H 34.893442 31.449734 59.187843 0
M  V30 43 H 38.045077 37.222396 59.813826 0
M  V30 44 H 37.208222 38.535435 61.481747 0
M  V30 45 H 39.589800 26.862541 55.721973 0
M  V30 46 H 37.510309 37.301234 63.483552 0
M  V30 47 H 36.223167 36.196864 62.965334 0
M  V30 48 H 36.512824 32.854307 58.567542 0
M  V30 49 H 38.556067 30.475251 60.713379 0
M  V30 50 H 39.857810 30.285494 59.560813 0
M  V30 51 H 39.602072 31.829248 60.336890 0
M  V30 52 H 37.006146 27.607971 58.167760 0
M  V30 53 H 37.654464 27.411656 56.648991 0
M  V30 54 H 38.845135 30.138545 52.106069 0
M  V30 55 H 39.900772 26.675094 57.690797 0
M  V30 56 H 39.788832 30.494124 56.780980 0
M  V30 57 H 40.429032 28.937964 57.078285 0
M  V30 58 H 37.857940 27.337405 50.977854 0
M  V30 59 H 39.296368 26.104574 53.407335 0
M  V30 60 H 38.673423 32.059445 58.074266 0
M  V30 61 H 34.921161 37.638362 63.701799 0
M  V30 62 H 36.776571 29.245696 59.807183 0
M  V30 63 H 35.538020 29.275960 58.565119 0
M  V30 64 H 37.025519 30.537704 57.080702 0
M  V30 65 H 39.507501 34.046395 61.376638 0
M  V30 66 H 36.045173 35.234128 60.820855 0
M  V30 67 H 36.516200 35.579861 59.161893 0
M  V30 68 H 36.300271 33.274602 60.984480 0
M  V30 69 H 38.945050 29.075633 58.577033 0
M  V30 END ATOM
M  V30 BEGIN BOND
M  V30 1 2 5 2
M  V30 2 1 6 2
M  V30 3 1 9 3
M  V30 4 1 10 9
M  V30 5 1 12 5
M  V30 6 1 14 10
M  V30 7 1 15 8
M  V30 8 1 18 7
M  V30 9 2 19 3
M  V30 10 1 20 2
M  V30 11 2 20 4
M  V30 12 1 21 1
M  V30 13 1 21 17
M  V30 14 1 21 18
M  V30 15 1 22 5
M  V30 16 1 24 4
M  V30 17 1 24 11
M  V30 18 1 24 13
M  V30 19 1 25 4
M  V30 20 2 25 12
M  V30 21 1 26 15
M  V30 22 1 26 16
M  V30 23 1 27 14
M  V30 24 1 28 8
M  V30 25 1 29 26
M  V30 26 1 29 28
M  V30 27 1 30 3
M  V30 28 1 30 23
M  V30 29 1 31 17
M  V30 30 1 31 22
M  V30 31 1 31 29
M  V30 32 1 32 9
M  V30 33 1 32 23
M  V30 34 1 33 15
M  V30 35 1 33 23
M  V30 36 1 34 1
M  V30 37 1 35 6
M  V30 38 1 36 6
M  V30 39 1 37 6
M  V30 40 1 38 7
M  V30 41 1 39 7
M  V30 42 1 40 7
M  V30 43 1 41 8
M  V30 44 1 42 8
M  V30 45 1 9 43 CFG=3
M  V30 46 1 44 10
M  V30 47 1 45 12
M  V30 48 1 46 14
M  V30 49 1 47 14
M  V30 50 1 15 48 CFG=3
M  V30 51 1 49 16
M  V30 52 1 50 16
M  V30 53 1 51 16
M  V30 54 1 52 17
M  V30 55 1 53 17
M  V30 56 1 54 20
M  V30 57 1 21 55 CFG=3
M  V30 58 1 56 22
M  V30 59 1 57 22
M  V30 60 1 58 24
M  V30 61 1 59 25
M  V30 62 1 26 60 CFG=3
M  V30 63 1 61 27
M  V30 64 1 62 28
M  V30 65 1 63 28
M  V30 66 1 29 64 CFG=3
M  V30 67 1 65 30
M  V30 68 1 66 32
M  V30 69 1 67 32
M  V30 70 1 68 33
M  V30 71 1 31 69 CFG=1
M  V30 END BOND
M  V30 END CTAB
M  END
>  <i_epik_Tot_Q>  (1) 
1

>  <i_epik_Tot_abs_Q>  (1) 
1

>  <i_i_glide_confnum>  (1) 
2069

>  <i_i_glide_lignum>  (1) 
43

>  <i_i_glide_posenum>  (1) 
159

>  <i_i_glide_rotatable_bonds>  (1) 
13

>  <i_lp_mmshare_version>  (1) 
72125

>  <i_m_source_file_index>  (1) 
20

>  <i_f3d_flags>  (1) 
0

>  <num_sample>  (1) 
50

>  <b_lp_Chiralities_Consistent>  (1) 
1

>  <r_epik_Charging_Adjusted_Penalty>  (1) 
0.46831319053283144

>  <r_epik_Ionization_Penalty>  (1) 
0.71387485365223857

>  <r_epik_Ionization_Penalty_Charging>  (1) 
0.049252262366849507

>  <r_epik_Ionization_Penalty_Neutral>  (1) 
0.66462259128538903

>  <r_epik_State_Penalty>  (1) 
0.41906092816598195

>  <r_glide_ring_energy>  (1) 
0

>  <r_i_docking_score>  (1) 
-6.9545616435664313

>  <r_i_glide_ecoul>  (1) 
-3.3184657807362399

>  <r_i_glide_eff_state_penalty>  (1) 
0.41906092816598195

>  <r_i_glide_einternal>  (1) 
18.152285164063116

>  <r_i_glide_emodel>  (1) 
-62.100561140359716

>  <r_i_glide_emodel_strain>  (1) 
0.52450565273837668

>  <r_i_glide_energy>  (1) 
-46.027161867978933

>  <r_i_glide_erotb>  (1) 
0.81494899861877068

>  <r_i_glide_esite>  (1) 
0

>  <r_i_glide_evdw>  (1) 
-42.708696087242693

>  <r_i_glide_gscore>  (1) 
-7.3736225717324135

>  <r_i_glide_gscore_strain>  (1) 
0

>  <r_i_glide_hbond>  (1) 
0

>  <r_i_glide_ligand_efficiency>  (1) 
-0.21074429222928578

>  <r_i_glide_ligand_efficiency_ln>  (1) 
-1.5466585007361331

>  <r_i_glide_ligand_efficiency_sa>  (1) 
-0.67596955217610688

>  <r_i_glide_lipo>  (1) 
-2.8124451937687467

>  <r_i_glide_metal>  (1) 
-0

>  <r_i_glide_rewards>  (1) 
-2.7429217051098678

>  <r_lp_Energy>  (1) 
34.505482000000001

>  <s_epik_Chemistry_Notes>  (1) 
This compound contains an acetal/aminal-like group ( X-CH(R)-Y where X, Y are N, S, or O) that may be acid/base labile, releasing an aldehyde.

>  <s_epik_cmdline>  (1) 
J2VwaWtfcHl0aG9uJywgJy1waHQnLCAnMS4wJywgJy1waCcsICc3LjQnLCAnLXRuJywgJzgnLCAnLW1hJywgJzUwMCcsICctaW1hZScsICc8aW5maWxlLm1hZT4nLCAnLW9tYWUnLCAnPG91dGZpbGUubWFlPic=

>  <s_epik_input>  (1) 
RltDSF0oRiljKFtjSF0xKVtjSF1bY0hdYyhjMVtDSDNdKVtDSDJdTihbQ0gyXVtDQEBIXShbT0hdKU9bQ0gzXSlbQ0BIXShbQ0BASF0yW0NIM10pW0NIMl1bQ0gyXVtDQEhdMltOSF1OKFtOSF0zKVtDSDJdW0NASF0oQzM9TylbTkhdW0NIMl1bT0hd

>  <s_glide_docking_method>  (1) 
confgen

>  <s_i_glide_gridfile>  (1) 
gpcr_5ht2c_6bqh_protein_autoprepared_prepared

>  <s_lp_Force_Field>  (1) 
S-OPLS

>  <s_lp_Variant>  (1) 
DiffSBDD_19-2

>  <s_m_source_file>  (1) 
generated_GPCR_5HT2C_ligand_DiffSBDD_2026-06-23_prepared.sdf

>  <GenAI_Model>  (1) 
DiffSBDD

>  <Protein>  (1) 
GPCR_5HT2C

$$$$
DiffSBDD_28
     RDKit          3D

  0  0  0  0  0  0  0  0  0  0999 V3000
M  V30 BEGIN CTAB
M  V30 COUNTS 45 48 0 0 1
M  V30 BEGIN ATOM
M  V30 1 O 39.245142 30.137752 58.172524 0
M  V30 2 C 38.522238 33.844000 61.560912 0
M  V30 3 C 38.045157 28.332605 55.922488 0
M  V30 4 C 37.876676 34.814504 60.770486 0
M  V30 5 C 37.338060 30.589435 59.846592 0
M  V30 6 F 37.645138 37.074581 60.096385 0
M  V30 7 C 39.285343 28.721114 58.104071 0 CFG=1
M  V30 8 C 38.040043 36.288196 61.099034 0
M  V30 9 C 36.914236 33.050375 59.392106 0
M  V30 10 C 39.046755 31.444738 62.167771 0 CFG=2
M  V30 11 O 41.431538 31.349849 62.133920 0
M  V30 12 P 38.900122 29.525345 59.734796 0 CFG=1 CHG=1
M  V30 13 C 39.744372 26.714144 55.007459 0
M  V30 14 F 38.288543 30.406354 62.471551 0
M  V30 15 C 38.362655 32.471286 61.277480 0
M  V30 16 C 40.384892 30.970201 61.616528 0
M  V30 17 N 40.364099 30.137743 60.567484 0
M  V30 18 C 37.552421 32.069220 60.178221 0
M  V30 19 C 39.273960 27.966383 55.129879 0
M  V30 20 C 38.117633 28.011682 57.433569 0 CFG=2
M  V30 21 C 38.045121 26.503231 57.767760 0
M  V30 22 C 37.074173 34.415126 59.685818 0
M  V30 23 F 37.312029 36.578095 62.176475 0
M  V30 24 F 39.320165 36.537751 61.368501 0
M  V30 25 C 39.144637 25.596688 57.188400 0
M  V30 26 C 39.111453 25.504210 55.657094 0
M  V30 27 H 39.133842 34.153971 62.396180 0
M  V30 28 H 37.839097 29.393622 55.772846 0
M  V30 29 H 37.245137 27.787382 55.434299 0
M  V30 30 H 36.809496 30.528935 58.894262 0
M  V30 31 H 36.643419 30.169392 60.570745 0
M  V30 32 H 40.276472 28.312794 57.917487 0
M  V30 33 H 36.292510 32.754314 58.567761 0
M  V30 34 H 39.245187 31.914779 63.132107 0
M  V30 35 H 40.631244 26.534880 54.417987 0
M  V30 36 H 41.245138 29.823458 60.194060 0
M  V30 37 H 39.785336 28.779004 54.636389 0
M  V30 38 H 37.207643 28.438102 57.856026 0
M  V30 39 H 38.051739 26.387505 58.850709 0
M  V30 40 H 37.075883 26.120420 57.444152 0
M  V30 41 H 36.574745 35.156748 59.078680 0
M  V30 42 H 40.131928 25.908981 57.531097 0
M  V30 43 H 38.998405 24.593299 57.590561 0
M  V30 44 H 38.091519 25.376814 55.291801 0
M  V30 45 H 39.660449 24.621683 55.330875 0
M  V30 END ATOM
M  V30 BEGIN BOND
M  V30 1 2 4 2
M  V30 2 1 7 1
M  V30 3 1 8 4
M  V30 4 1 8 6
M  V30 5 1 12 1 CFG=3
M  V30 6 1 12 5
M  V30 7 1 12 7
M  V30 8 1 14 10
M  V30 9 1 15 2
M  V30 10 1 15 10
M  V30 11 1 16 10
M  V30 12 2 16 11
M  V30 13 1 17 12
M  V30 14 1 17 16
M  V30 15 1 18 5
M  V30 16 1 18 9
M  V30 17 2 18 15
M  V30 18 1 19 3
M  V30 19 2 19 13
M  V30 20 1 20 3
M  V30 21 1 20 7
M  V30 22 1 21 20
M  V30 23 1 22 4
M  V30 24 2 22 9
M  V30 25 1 23 8
M  V30 26 1 24 8
M  V30 27 1 25 21
M  V30 28 1 26 13
M  V30 29 1 26 25
M  V30 30 1 27 2
M  V30 31 1 28 3
M  V30 32 1 29 3
M  V30 33 1 30 5
M  V30 34 1 31 5
M  V30 35 1 7 32 CFG=1
M  V30 36 1 33 9
M  V30 37 1 10 34 CFG=1
M  V30 38 1 35 13
M  V30 39 1 36 17
M  V30 40 1 37 19
M  V30 41 1 20 38 CFG=1
M  V30 42 1 39 21
M  V30 43 1 40 21
M  V30 44 1 41 22
M  V30 45 1 42 25
M  V30 46 1 43 25
M  V30 47 1 44 26
M  V30 48 1 45 26
M  V30 END BOND
M  V30 END CTAB
M  END
>  <i_epik_Tot_Q>  (1) 
1

>  <i_epik_Tot_abs_Q>  (1) 
1

>  <i_i_glide_confnum>  (1) 
3

>  <i_i_glide_lignum>  (1) 
63

>  <i_i_glide_posenum>  (1) 
295

>  <i_i_glide_rotatable_bonds>  (1) 
2

>  <i_lp_mmshare_version>  (1) 
72125

>  <i_m_source_file_index>  (1) 
29

>  <i_f3d_flags>  (1) 
0

>  <num_sample>  (1) 
50

>  <b_lp_Chiralities_Consistent>  (1) 
1

>  <r_epik_Charging_Adjusted_Penalty>  (1) 
0

>  <r_epik_Ionization_Penalty>  (1) 
1.069405246037928e-05

>  <r_epik_Ionization_Penalty_Charging>  (1) 
0

>  <r_epik_Ionization_Penalty_Neutral>  (1) 
1.069405246037928e-05

>  <r_epik_State_Penalty>  (1) 
-0

>  <r_glide_ring_energy>  (1) 
2.0538870019728455

>  <r_i_docking_score>  (1) 
-6.9498705232329252

>  <r_i_glide_ecoul>  (1) 
-1.248715898490893

>  <r_i_glide_eff_state_penalty>  (1) 
-0

>  <r_i_glide_einternal>  (1) 
0.82833174298803336

>  <r_i_glide_emodel>  (1) 
-45.496873690591052

>  <r_i_glide_emodel_strain>  (1) 
0

>  <r_i_glide_energy>  (1) 
-32.270573730985745

>  <r_i_glide_erotb>  (1) 
0.12919976224793953

>  <r_i_glide_esite>  (1) 
-0.021454579397103286

>  <r_i_glide_evdw>  (1) 
-31.021857832494849

>  <r_i_glide_gscore>  (1) 
-6.9498705232329252

>  <r_i_glide_gscore_strain>  (1) 
0

>  <r_i_glide_hbond>  (1) 
-0.20067449523401151

>  <r_i_glide_ligand_efficiency>  (1) 
-0.26730271243203557

>  <r_i_glide_ligand_efficiency_ln>  (1) 
-1.6321542879960567

>  <r_i_glide_ligand_efficiency_sa>  (1) 
-0.79188323465453159

>  <r_i_glide_lipo>  (1) 
-2.537913368078125

>  <r_i_glide_metal>  (1) 
-0

>  <r_i_glide_rewards>  (1) 
-2.5806275663732476

>  <r_lp_Energy>  (1) 
24.158424

>  <r_lp_tautomer_probability>  (1) 
1

>  <s_epik_cmdline>  (1) 
J2VwaWtfcHl0aG9uJywgJy1waHQnLCAnMS4wJywgJy1waCcsICc3LjQnLCAnLXRuJywgJzgnLCAnLW1hJywgJzUwMCcsICctaW1hZScsICc8aW5maWxlLm1hZT4nLCAnLW9tYWUnLCAnPG91dGZpbGUubWFlPic=

>  <s_epik_input>  (1) 
W0NIMl0xW0NIMl1bQ0gyXVtDSF09W0NIXVtDSDJdW0NAQEhdMVtDQEhdMk9bUEArXTIzW0NIMl1jNGMoW0NAQEhdKEYpQyg9TylbTkhdMylbY0hdYyhDKEYpKEYpRilbY0hdW2NIXTQ=

>  <s_glide_docking_method>  (1) 
confgen

>  <s_i_glide_gridfile>  (1) 
gpcr_5ht2c_6bqh_protein_autoprepared_prepared

>  <s_lp_Force_Field>  (1) 
S-OPLS

>  <s_lp_Variant>  (1) 
DiffSBDD_28-2

>  <s_m_source_file>  (1) 
generated_GPCR_5HT2C_ligand_DiffSBDD_2026-06-23_prepared.sdf

>  <GenAI_Model>  (1) 
DiffSBDD

>  <Protein>  (1) 
GPCR_5HT2C

$$$$
DiffSBDD_12
     RDKit          3D

  0  0  0  0  0  0  0  0  0  0999 V3000
M  V30 BEGIN CTAB
M  V30 COUNTS 78 80 0 0 1
M  V30 BEGIN ATOM
M  V30 1 C 39.543999 27.779980 58.026728 0 CFG=2
M  V30 2 C 43.325533 32.396158 67.197117 0
M  V30 3 C 39.871463 28.702448 59.222758 0 CFG=2
M  V30 4 O 39.548609 32.515890 62.567321 0
M  V30 5 N 39.525222 30.308550 61.954229 0
M  V30 6 C 38.737598 30.396337 60.767509 0
M  V30 7 C 39.873392 31.348209 62.758477 0
M  V30 8 C 41.842882 32.535229 66.836453 0 CFG=1
M  V30 9 C 38.152999 31.535662 60.321033 0
M  V30 10 F 45.245193 32.538132 69.461346 0
M  V30 11 C 39.247454 29.654076 53.546508 0
M  V30 12 C 38.322506 31.009428 55.530214 0
M  V30 13 C 39.645151 30.838303 52.891858 0
M  V30 14 F 44.163700 31.021548 70.567668 0
M  V30 15 S 41.193697 33.682290 68.093704 0
M  V30 16 C 40.415383 29.599775 49.385765 0
M  V30 17 C 39.625999 28.414701 51.468816 0
M  V30 18 C 42.170142 34.385839 65.065914 0
M  V30 19 C 39.034262 28.603935 55.757845 0
M  V30 20 C 40.733148 30.986411 63.968803 0
M  V30 21 C 42.376361 33.062529 69.321844 0
M  V30 22 N 38.743831 28.552426 57.097857 0
M  V30 23 C 40.986449 28.137548 60.109542 0
M  V30 24 C 41.864286 31.996311 64.281834 0
M  V30 25 C 38.877500 29.689186 54.979755 0
M  V30 26 O 39.341180 31.930218 55.853771 0
M  V30 27 C 43.125134 31.904246 68.633966 0 CFG=1
M  V30 28 C 38.614614 29.066380 60.043895 0
M  V30 29 C 40.024940 29.607095 50.833342 0
M  V30 30 C 42.155181 30.723613 68.434104 0
M  V30 31 C 40.045180 30.809347 51.546543 0
M  V30 32 C 38.937793 26.417433 58.370055 0
M  V30 33 C 39.245157 28.433535 52.824514 0
M  V30 34 C 41.518901 33.024652 65.389176 0 CFG=1
M  V30 35 C 44.423521 31.499192 69.351500 0
M  V30 36 C 41.316288 31.131956 67.211653 0
M  V30 37 H 40.487842 27.577931 57.517665 0
M  V30 38 H 43.873511 33.337852 67.149961 0
M  V30 39 H 43.846358 31.661121 66.580731 0
M  V30 40 H 40.264929 29.625146 58.791100 0
M  V30 41 H 39.862933 29.388601 62.197235 0
M  V30 42 H 38.236181 32.472220 60.830473 0
M  V30 43 H 37.569395 31.524045 59.411829 0
M  V30 44 H 37.742904 30.838656 56.437051 0
M  V30 45 H 37.619718 31.446993 54.818257 0
M  V30 46 H 39.660159 31.767440 53.427511 0
M  V30 47 H 41.376753 30.092759 49.234730 0
M  V30 48 H 39.645148 30.137171 48.839556 0
M  V30 49 H 40.445154 28.588530 49.008981 0
M  V30 50 H 39.612462 27.484387 50.917686 0
M  V30 51 H 43.253991 34.308988 65.015430 0
M  V30 52 H 41.926783 35.149040 65.804878 0
M  V30 53 H 41.826445 34.765517 64.102466 0
M  V30 54 H 39.438585 27.679486 55.373034 0
M  V30 55 H 40.054985 30.862878 64.812574 0
M  V30 56 H 41.182320 30.007890 63.794939 0
M  V30 57 H 43.060637 33.869522 69.585315 0
M  V30 58 H 41.868352 32.745501 70.232442 0
M  V30 59 H 40.601769 27.337812 60.740849 0
M  V30 60 H 41.402819 28.897807 60.765606 0
M  V30 61 H 41.808169 27.738779 59.513755 0
M  V30 62 H 42.771364 31.455438 64.551061 0
M  V30 63 H 42.134138 32.517984 63.362112 0
M  V30 64 H 38.927402 32.728933 56.145535 0
M  V30 65 H 37.716285 29.102628 59.426102 0
M  V30 66 H 38.445178 28.263110 60.757618 0
M  V30 67 H 42.699949 29.803757 68.216929 0
M  V30 68 H 41.540282 30.537385 69.315749 0
M  V30 69 H 40.350772 31.719193 51.056738 0
M  V30 70 H 39.642180 25.810254 58.938851 0
M  V30 71 H 38.675980 25.861590 57.469249 0
M  V30 72 H 38.045046 26.527524 58.967820 0
M  V30 73 H 38.945525 27.516503 53.306495 0
M  V30 74 H 40.445114 33.198027 65.342656 0
M  V30 75 H 44.960739 30.722061 68.805966 0
M  V30 76 H 40.243595 31.133692 67.409472 0
M  V30 77 H 41.505977 30.398140 66.431291 0
M  V30 78 H 38.318143 29.375608 57.502465 0
M  V30 END ATOM
M  V30 BEGIN BOND
M  V30 1 1 3 1
M  V30 2 1 6 5
M  V30 3 2 7 4
M  V30 4 1 7 5
M  V30 5 1 8 2
M  V30 6 2 9 6
M  V30 7 2 13 11
M  V30 8 1 8 15 CFG=1
M  V30 9 1 20 7
M  V30 10 1 21 15
M  V30 11 1 22 1
M  V30 12 1 22 19
M  V30 13 1 23 3
M  V30 14 1 24 20
M  V30 15 1 25 11
M  V30 16 1 25 12
M  V30 17 2 25 19
M  V30 18 1 26 12
M  V30 19 1 27 2
M  V30 20 1 27 21
M  V30 21 1 28 3
M  V30 22 1 28 6
M  V30 23 1 29 16
M  V30 24 1 29 17
M  V30 25 1 30 27
M  V30 26 1 31 13
M  V30 27 2 31 29
M  V30 28 1 32 1
M  V30 29 1 33 11
M  V30 30 2 33 17
M  V30 31 1 34 8
M  V30 32 1 34 18
M  V30 33 1 34 24
M  V30 34 1 35 10
M  V30 35 1 35 14
M  V30 36 1 27 35 CFG=1
M  V30 37 1 36 8
M  V30 38 1 36 30
M  V30 39 1 1 37 CFG=3
M  V30 40 1 38 2
M  V30 41 1 39 2
M  V30 42 1 3 40 CFG=3
M  V30 43 1 41 5
M  V30 44 1 42 9
M  V30 45 1 43 9
M  V30 46 1 44 12
M  V30 47 1 45 12
M  V30 48 1 46 13
M  V30 49 1 47 16
M  V30 50 1 48 16
M  V30 51 1 49 16
M  V30 52 1 50 17
M  V30 53 1 51 18
M  V30 54 1 52 18
M  V30 55 1 53 18
M  V30 56 1 54 19
M  V30 57 1 55 20
M  V30 58 1 56 20
M  V30 59 1 57 21
M  V30 60 1 58 21
M  V30 61 1 59 23
M  V30 62 1 60 23
M  V30 63 1 61 23
M  V30 64 1 62 24
M  V30 65 1 63 24
M  V30 66 1 64 26
M  V30 67 1 65 28
M  V30 68 1 66 28
M  V30 69 1 67 30
M  V30 70 1 68 30
M  V30 71 1 69 31
M  V30 72 1 70 32
M  V30 73 1 71 32
M  V30 74 1 72 32
M  V30 75 1 73 33
M  V30 76 1 34 74 CFG=1
M  V30 77 1 75 35
M  V30 78 1 76 36
M  V30 79 1 77 36
M  V30 80 1 78 22
M  V30 END BOND
M  V30 END CTAB
M  END
>  <i_epik_Tot_Q>  (1) 
0

>  <i_epik_Tot_abs_Q>  (1) 
0

>  <i_i_glide_confnum>  (1) 
1845

>  <i_i_glide_lignum>  (1) 
23

>  <i_i_glide_posenum>  (1) 
360

>  <i_i_glide_rotatable_bonds>  (1) 
15

>  <i_lp_mmshare_version>  (1) 
72125

>  <i_m_source_file_index>  (1) 
13

>  <i_f3d_flags>  (1) 
0

>  <num_sample>  (1) 
50

>  <b_lp_Chiralities_Consistent>  (1) 
1

>  <r_epik_Charging_Adjusted_Penalty>  (1) 
0

>  <r_epik_Ionization_Penalty>  (1) 
3.3667035854956668e-06

>  <r_epik_Ionization_Penalty_Charging>  (1) 
0

>  <r_epik_Ionization_Penalty_Neutral>  (1) 
3.3667035854956668e-06

>  <r_epik_State_Penalty>  (1) 
-0

>  <r_glide_ring_energy>  (1) 
0

>  <r_i_docking_score>  (1) 
-6.9455137734885986

>  <r_i_glide_ecoul>  (1) 
-2.5366366605928459

>  <r_i_glide_eff_state_penalty>  (1) 
-0

>  <r_i_glide_einternal>  (1) 
5.540903253616742

>  <r_i_glide_emodel>  (1) 
-57.971423113024066

>  <r_i_glide_emodel_strain>  (1) 
5.7514374041306127

>  <r_i_glide_energy>  (1) 
-45.278568266225925

>  <r_i_glide_erotb>  (1) 
0.98535433330626676

>  <r_i_glide_esite>  (1) 
0

>  <r_i_glide_evdw>  (1) 
-42.741931605633077

>  <r_i_glide_gscore>  (1) 
-6.9455137734885986

>  <r_i_glide_gscore_strain>  (1) 
0.43785935103265317

>  <r_i_glide_hbond>  (1) 
0

>  <r_i_glide_ligand_efficiency>  (1) 
-0.19293093815246107

>  <r_i_glide_ligand_efficiency_ln>  (1) 
-1.5153234592782312

>  <r_i_glide_ligand_efficiency_sa>  (1) 
-0.63704392184041525

>  <r_i_glide_lipo>  (1) 
-4.8055469333322884

>  <r_i_glide_metal>  (1) 
-0

>  <r_i_glide_rewards>  (1) 
-1.04558844512465

>  <r_lp_Energy>  (1) 
46.558340999999999

>  <r_lp_tautomer_probability>  (1) 
1

>  <s_epik_cmdline>  (1) 
J2VwaWtfcHl0aG9uJywgJy1waHQnLCAnMS4wJywgJy1waCcsICc3LjQnLCAnLXRuJywgJzgnLCAnLW1hJywgJzUwMCcsICctaW1hZScsICc8aW5maWxlLm1hZT4nLCAnLW9tYWUnLCAnPG91dGZpbGUubWFlPic=

>  <s_epik_input>  (1) 
W2NIXTFbY0hdYyhbQ0gzXSlbY0hdW2NIXWMxW0NAQEhdKFtDSDJdW09IXSkvW0NIXT1OL1tDQEhdKFtDSDNdKVtDQEhdKFtDSDNdKVtDSDJdQyg9W0NIMl0pW05IXUMoPU8pW0NIMl1bQ0gyXVtDQEhdKFtDSDNdKVtDQEBdMjNbQ0gyXVtDQF0oW0NIMl1TMikoW0NIXShGKUYpW0NIMl1bQ0gyXTM=

>  <s_glide_docking_method>  (1) 
confgen

>  <s_i_glide_gridfile>  (1) 
gpcr_5ht2c_6bqh_protein_autoprepared_prepared

>  <s_lp_Force_Field>  (1) 
S-OPLS

>  <s_lp_Variant>  (1) 
DiffSBDD_12-1

>  <s_m_source_file>  (1) 
generated_GPCR_5HT2C_ligand_DiffSBDD_2026-06-23_prepared.sdf

>  <GenAI_Model>  (1) 
DiffSBDD

>  <Protein>  (1) 
GPCR_5HT2C

$$$$
DiffSBDD_42
     RDKit          3D

  0  0  0  0  0  0  0  0  0  0999 V3000
M  V30 BEGIN CTAB
M  V30 COUNTS 90 93 0 0 1
M  V30 BEGIN ATOM
M  V30 1 C 38.239567 28.529304 56.854831 0 CFG=2
M  V30 2 C 36.593326 36.032322 60.503993 0
M  V30 3 C 37.243822 38.396649 61.243384 0
M  V30 4 C 38.176354 34.078843 59.923998 0
M  V30 5 C 37.412487 26.128790 57.280037 0
M  V30 6 C 39.417401 25.121855 56.607515 0
M  V30 7 C 41.757986 32.388421 65.547332 0
M  V30 8 C 41.689449 30.400908 63.898229 0
M  V30 9 C 37.619503 37.169388 60.407703 0 CFG=2
M  V30 10 C 37.498059 28.453003 53.305436 0
M  V30 11 C 37.752587 31.898508 58.586553 0
M  V30 12 C 40.889027 28.194355 63.240588 0
M  V30 13 C 39.753278 26.577916 56.938150 0 CFG=1
M  V30 14 C 39.934752 27.396943 55.647043 0 CFG=1
M  V30 15 C 40.915867 31.880756 66.719559 0
M  V30 16 C 38.851239 27.718241 53.253434 0
M  V30 17 C 37.981745 25.309113 56.116704 0 CFG=1
M  V30 18 C 39.119485 26.768257 54.464493 0 CFG=2
M  V30 19 C 39.437396 30.806053 60.835121 0
M  V30 20 C 40.171586 28.769633 62.173132 0
M  V30 21 C 37.204604 24.009317 55.886166 0
M  V30 22 C 36.870554 34.814893 59.610955 0
M  V30 23 C 38.975844 27.024918 51.888667 0
M  V30 24 C 38.604204 33.168594 58.770219 0
M  V30 25 C 41.646158 29.007587 64.101729 0
M  V30 26 C 38.979256 29.876135 59.698245 0
M  V30 27 N 37.640153 29.649678 57.631629 0 CHG=1
M  V30 28 O 38.197632 39.404404 60.967669 0
M  V30 29 C 40.210432 30.166423 61.971508 0
M  V30 30 O 37.645105 37.581879 59.063517 0
M  V30 31 C 38.518093 30.570969 58.393792 0 CFG=1
M  V30 32 C 38.485374 27.186352 57.591672 0 CFG=1
M  V30 33 C 40.970814 30.978126 62.834317 0
M  V30 34 C 42.522613 31.277754 64.811743 0
M  V30 35 O 37.917898 26.106357 54.911739 0
M  V30 36 C 39.523960 28.807534 56.083953 0
M  V30 37 H 37.498127 28.341732 56.088550 0
M  V30 38 H 36.466817 35.719506 61.541625 0
M  V30 39 H 35.645185 36.438896 60.167547 0
M  V30 40 H 36.248026 38.760017 60.986656 0
M  V30 41 H 37.240117 38.138085 62.302586 0
M  V30 42 H 38.984149 34.789863 60.083446 0
M  V30 43 H 38.087435 33.526397 60.859220 0
M  V30 44 H 36.445181 26.537954 57.042444 0
M  V30 45 H 37.272877 25.486919 58.151660 0
M  V30 46 H 40.075440 24.667433 55.869222 0
M  V30 47 H 39.455640 24.499368 57.503848 0
M  V30 48 H 42.486091 33.098057 65.944891 0
M  V30 49 H 41.139188 32.956338 64.853492 0
M  V30 50 H 38.606497 36.824062 60.714411 0
M  V30 51 H 36.673473 27.761816 53.482341 0
M  V30 52 H 37.300148 28.937745 52.350499 0
M  V30 53 H 37.469474 29.229067 54.066467 0
M  V30 54 H 36.974589 31.803912 59.345074 0
M  V30 55 H 37.245215 32.092848 57.649271 0
M  V30 56 H 40.857422 27.129544 63.400087 0
M  V30 57 H 40.628521 26.669246 57.581348 0
M  V30 58 H 40.981704 27.397837 55.368868 0
M  V30 59 H 40.445536 32.716722 67.236479 0
M  V30 60 H 41.532898 31.357886 67.449944 0
M  V30 61 H 40.135792 31.195698 66.385107 0
M  V30 62 H 39.635211 28.473704 53.241282 0
M  V30 63 H 39.754472 25.967680 54.082812 0
M  V30 64 H 40.088068 31.582056 60.452771 0
M  V30 65 H 38.571899 31.307284 61.267682 0
M  V30 66 H 39.590121 28.139397 61.518873 0
M  V30 67 H 37.182913 23.393265 56.786368 0
M  V30 68 H 37.644921 23.425304 55.077074 0
M  V30 69 H 36.169150 24.215816 55.615391 0
M  V30 70 H 36.864768 35.128273 58.568327 0
M  V30 71 H 36.038275 34.115611 59.698507 0
M  V30 72 H 38.044947 26.537838 51.621448 0
M  V30 73 H 39.772054 26.285718 51.858846 0
M  V30 74 H 39.172184 27.751216 51.098493 0
M  V30 75 H 39.645266 32.932073 58.900080 0
M  V30 76 H 38.589773 33.737468 57.839010 0
M  V30 77 H 42.196093 28.561487 64.916151 0
M  V30 78 H 39.801629 29.207671 59.433867 0
M  V30 79 H 38.177778 29.246620 60.085547 0
M  V30 80 H 37.149918 30.239162 56.967180 0
M  V30 81 H 38.332097 39.376740 60.029049 0
M  V30 82 H 37.765294 36.814254 58.522434 0
M  V30 83 H 39.378859 30.820424 57.777125 0
M  V30 84 H 38.619247 27.304209 58.667205 0
M  V30 85 H 41.004270 32.047904 62.677963 0
M  V30 86 H 43.245991 31.738620 64.153654 0
M  V30 87 H 43.092396 30.675297 65.520320 0
M  V30 88 H 39.400241 29.518870 55.268521 0
M  V30 89 H 40.309536 29.191479 56.734079 0
M  V30 90 H 36.933749 29.280087 58.251119 0
M  V30 END ATOM
M  V30 BEGIN BOND
M  V30 1 1 9 2
M  V30 2 1 9 3
M  V30 3 1 13 6
M  V30 4 1 14 13
M  V30 5 1 15 7
M  V30 6 1 16 10
M  V30 7 1 17 5
M  V30 8 1 17 6
M  V30 9 1 18 14
M  V30 10 1 18 16
M  V30 11 1 20 12
M  V30 12 1 17 21 CFG=3
M  V30 13 1 22 2
M  V30 14 1 22 4
M  V30 15 1 23 16
M  V30 16 1 24 4
M  V30 17 1 24 11
M  V30 18 1 25 8
M  V30 19 2 25 12
M  V30 20 1 26 19
M  V30 21 1 27 1
M  V30 22 1 28 3
M  V30 23 1 29 19
M  V30 24 2 29 20
M  V30 25 1 30 9
M  V30 26 1 31 11
M  V30 27 1 31 26
M  V30 28 1 31 27
M  V30 29 1 32 1
M  V30 30 1 32 5
M  V30 31 1 32 13
M  V30 32 2 33 8
M  V30 33 1 33 29
M  V30 34 1 34 7
M  V30 35 1 34 8
M  V30 36 1 35 17
M  V30 37 1 35 18
M  V30 38 1 36 1
M  V30 39 1 36 14
M  V30 40 1 1 37 CFG=3
M  V30 41 1 38 2
M  V30 42 1 39 2
M  V30 43 1 40 3
M  V30 44 1 41 3
M  V30 45 1 42 4
M  V30 46 1 43 4
M  V30 47 1 44 5
M  V30 48 1 45 5
M  V30 49 1 46 6
M  V30 50 1 47 6
M  V30 51 1 48 7
M  V30 52 1 49 7
M  V30 53 1 9 50 CFG=1
M  V30 54 1 51 10
M  V30 55 1 52 10
M  V30 56 1 53 10
M  V30 57 1 54 11
M  V30 58 1 55 11
M  V30 59 1 56 12
M  V30 60 1 13 57 CFG=1
M  V30 61 1 14 58 CFG=3
M  V30 62 1 59 15
M  V30 63 1 60 15
M  V30 64 1 61 15
M  V30 65 1 62 16
M  V30 66 1 18 63 CFG=3
M  V30 67 1 64 19
M  V30 68 1 65 19
M  V30 69 1 66 20
M  V30 70 1 67 21
M  V30 71 1 68 21
M  V30 72 1 69 21
M  V30 73 1 70 22
M  V30 74 1 71 22
M  V30 75 1 72 23
M  V30 76 1 73 23
M  V30 77 1 74 23
M  V30 78 1 75 24
M  V30 79 1 76 24
M  V30 80 1 77 25
M  V30 81 1 78 26
M  V30 82 1 79 26
M  V30 83 1 80 27
M  V30 84 1 81 28
M  V30 85 1 82 30
M  V30 86 1 31 83 CFG=3
M  V30 87 1 32 84 CFG=1
M  V30 88 1 85 33
M  V30 89 1 86 34
M  V30 90 1 87 34
M  V30 91 1 88 36
M  V30 92 1 89 36
M  V30 93 1 90 27
M  V30 END BOND
M  V30 END CTAB
M  END
>  <i_epik_Tot_Q>  (1) 
1

>  <i_epik_Tot_abs_Q>  (1) 
1

>  <i_i_glide_confnum>  (1) 
164

>  <i_i_glide_lignum>  (1) 
93

>  <i_i_glide_posenum>  (1) 
325

>  <i_i_glide_rotatable_bonds>  (1) 
17

>  <i_lp_mmshare_version>  (1) 
72125

>  <i_m_source_file_index>  (1) 
43

>  <i_f3d_flags>  (1) 
0

>  <num_sample>  (1) 
50

>  <b_lp_Chiralities_Consistent>  (1) 
1

>  <r_epik_Charging_Adjusted_Penalty>  (1) 
0.00030412636243833623

>  <r_epik_Ionization_Penalty>  (1) 
0.00030431191221991862

>  <r_epik_Ionization_Penalty_Charging>  (1) 
0.00030412636243833623

>  <r_epik_Ionization_Penalty_Neutral>  (1) 
1.8554978158239134e-07

>  <r_epik_State_Penalty>  (1) 
-0

>  <r_glide_ring_energy>  (1) 
0

>  <r_i_docking_score>  (1) 
-6.9338170616833619

>  <r_i_glide_ecoul>  (1) 
-4.455289253451225

>  <r_i_glide_eff_state_penalty>  (1) 
-0

>  <r_i_glide_einternal>  (1) 
27.49582181451099

>  <r_i_glide_emodel>  (1) 
-42.661366098265816

>  <r_i_glide_emodel_strain>  (1) 
3.9319461539632385

>  <r_i_glide_energy>  (1) 
-40.772018998188926

>  <r_i_glide_erotb>  (1) 
1.0585899969639281

>  <r_i_glide_esite>  (1) 
-0.05863618182178712

>  <r_i_glide_evdw>  (1) 
-36.3167297447377

>  <r_i_glide_gscore>  (1) 
-6.9338170616833619

>  <r_i_glide_gscore_strain>  (1) 
0

>  <r_i_glide_hbond>  (1) 
-0.06901761777726359

>  <r_i_glide_ligand_efficiency>  (1) 
-0.19260602949120451

>  <r_i_glide_ligand_efficiency_ln>  (1) 
-1.5127715527709622

>  <r_i_glide_ligand_efficiency_sa>  (1) 
-0.63597109707841037

>  <r_i_glide_lipo>  (1) 
-4.7413774320414817

>  <r_i_glide_metal>  (1) 
-0

>  <r_i_glide_rewards>  (1) 
-0.63924595175218757

>  <r_lp_Energy>  (1) 
51.322443999999997

>  <r_lp_tautomer_probability>  (1) 
1

>  <s_epik_cmdline>  (1) 
J2VwaWtfcHl0aG9uJywgJy1waHQnLCAnMS4wJywgJy1waCcsICc3LjQnLCAnLXRuJywgJzgnLCAnLW1hJywgJzUwMCcsICctaW1hZScsICc8aW5maWxlLm1hZT4nLCAnLW9tYWUnLCAnPG91dGZpbGUubWFlPic=

>  <s_epik_input>  (1) 
W0NIM11bQ0BAXTEyW0NIMl1bQ0BIXTNbQ0BASF0oW0NIMl0xKVtDQEBIXShbQ0BASF0oTzIpW0NIXShbQ0gzXSlbQ0gzXSlbQ0gyXVtDQEBIXTNbTkhdW0NAQEhdKFtDSDJdW0NIMl1bQ0gyXVtDSDJdW0NIMl1bQ0BASF0oW09IXSlbQ0gyXVtPSF0pW0NIMl1bQ0gyXWMoW2NIXTQpW2NIXVtjSF1bY0hdYzRbQ0gyXVtDSDJdW0NIM10=

>  <s_glide_docking_method>  (1) 
confgen

>  <s_i_glide_gridfile>  (1) 
gpcr_5ht2c_6bqh_protein_autoprepared_prepared

>  <s_lp_Force_Field>  (1) 
S-OPLS

>  <s_lp_Variant>  (1) 
DiffSBDD_42-1

>  <s_m_source_file>  (1) 
generated_GPCR_5HT2C_ligand_DiffSBDD_2026-06-23_prepared.sdf

>  <GenAI_Model>  (1) 
DiffSBDD

>  <Protein>  (1) 
GPCR_5HT2C

$$$$
DiffSBDD_44
     RDKit          3D

  0  0  0  0  0  0  0  0  0  0999 V3000
M  V30 BEGIN CTAB
M  V30 COUNTS 50 52 0 0 1
M  V30 BEGIN ATOM
M  V30 1 N 38.304253 29.419268 57.164530 0
M  V30 2 N 36.845146 36.338506 60.247134 0
M  V30 3 C 38.815642 31.604148 60.943471 0
M  V30 4 C 40.409086 33.215366 62.055829 0
M  V30 5 C 38.457472 29.158584 54.165888 0
M  V30 6 C 38.419307 27.983883 55.165341 0
M  V30 7 C 39.209484 33.003731 61.336872 0
M  V30 8 C 38.300801 29.754712 58.515303 0
M  V30 9 C 39.526586 29.297025 60.690496 0
M  V30 10 C 38.775725 35.420621 61.363886 0
M  V30 11 C 38.606339 28.542215 52.767521 0
M  V30 12 C 38.997479 28.280276 56.571496 0 CFG=1
M  V30 13 C 40.785162 34.518751 62.431741 0
M  V30 14 C 38.644382 27.026640 52.967747 0
M  V30 15 C 37.484794 31.303392 60.329754 0
M  V30 16 C 41.389272 27.740522 57.180668 0
M  V30 17 C 38.392427 34.107596 60.986294 0
M  V30 18 C 40.498434 28.503652 56.528614 0
M  V30 19 C 39.972796 35.617389 62.090297 0
M  V30 20 C 38.985934 28.889671 59.500948 0
M  V30 21 C 39.070744 26.813515 54.418110 0
M  V30 22 O 38.206046 37.744457 61.367767 0
M  V30 23 N 39.611523 30.633462 61.126306 0
M  V30 24 C 37.916217 36.609718 60.995752 0
M  V30 25 C 37.648536 30.866751 58.906810 0
M  V30 26 H 37.823183 30.033811 56.521066 0
M  V30 27 H 36.654177 35.391045 59.961968 0
M  V30 28 H 36.230533 37.086461 59.964891 0
M  V30 29 H 41.037938 32.378894 62.323718 0
M  V30 30 H 37.553236 29.764233 54.240299 0
M  V30 31 H 39.299662 29.823715 54.355329 0
M  V30 32 H 37.371949 27.709728 55.287390 0
M  V30 33 H 40.008328 28.577308 61.336414 0
M  V30 34 H 37.793789 28.834359 52.101120 0
M  V30 35 H 39.537602 28.883151 52.313049 0
M  V30 36 H 38.801540 27.400124 57.183806 0
M  V30 37 H 41.699282 34.677094 62.984622 0
M  V30 38 H 37.645073 26.614859 52.822263 0
M  V30 39 H 39.309758 26.537758 52.256220 0
M  V30 40 H 36.759079 32.106250 60.393685 0
M  V30 41 H 37.016107 30.493009 60.886897 0
M  V30 42 H 41.070729 26.905310 57.786659 0
M  V30 43 H 42.448047 27.942974 57.115195 0
M  V30 44 H 37.486224 33.955254 60.430974 0
M  V30 45 H 40.845130 29.331022 55.928513 0
M  V30 46 H 40.270304 36.614741 62.382656 0
M  V30 47 H 39.075386 27.841867 59.261109 0
M  V30 48 H 40.157466 26.853650 54.482288 0
M  V30 49 H 38.754880 25.843666 54.804067 0
M  V30 50 H 37.157760 31.478781 58.167550 0
M  V30 END ATOM
M  V30 BEGIN BOND
M  V30 1 1 6 5
M  V30 2 1 7 3
M  V30 3 2 7 4
M  V30 4 1 8 1
M  V30 5 1 11 5
M  V30 6 1 12 1
M  V30 7 1 12 6
M  V30 8 1 13 4
M  V30 9 1 14 11
M  V30 10 1 15 3
M  V30 11 1 17 7
M  V30 12 2 17 10
M  V30 13 1 18 12
M  V30 14 2 18 16
M  V30 15 1 19 10
M  V30 16 2 19 13
M  V30 17 1 20 8
M  V30 18 2 20 9
M  V30 19 1 21 6
M  V30 20 1 21 14
M  V30 21 2 23 3
M  V30 22 1 23 9
M  V30 23 1 24 2
M  V30 24 1 24 10
M  V30 25 2 24 22
M  V30 26 2 25 8
M  V30 27 1 25 15
M  V30 28 1 26 1
M  V30 29 1 27 2
M  V30 30 1 28 2
M  V30 31 1 29 4
M  V30 32 1 30 5
M  V30 33 1 31 5
M  V30 34 1 32 6
M  V30 35 1 33 9
M  V30 36 1 34 11
M  V30 37 1 35 11
M  V30 38 1 12 36 CFG=1
M  V30 39 1 37 13
M  V30 40 1 38 14
M  V30 41 1 39 14
M  V30 42 1 40 15
M  V30 43 1 41 15
M  V30 44 1 42 16
M  V30 45 1 43 16
M  V30 46 1 44 17
M  V30 47 1 45 18
M  V30 48 1 46 19
M  V30 49 1 47 20
M  V30 50 1 48 21
M  V30 51 1 49 21
M  V30 52 1 50 25
M  V30 END BOND
M  V30 END CTAB
M  END
>  <i_epik_Tot_Q>  (1) 
0

>  <i_epik_Tot_abs_Q>  (1) 
0

>  <i_i_glide_confnum>  (1) 
43

>  <i_i_glide_lignum>  (1) 
95

>  <i_i_glide_posenum>  (1) 
397

>  <i_i_glide_rotatable_bonds>  (1) 
6

>  <i_lp_mmshare_version>  (1) 
72125

>  <i_m_source_file_index>  (1) 
45

>  <i_f3d_flags>  (1) 
0

>  <num_sample>  (1) 
50

>  <b_lp_Chiralities_Consistent>  (1) 
1

>  <r_epik_Charging_Adjusted_Penalty>  (1) 
0.0076359767464213076

>  <r_epik_Ionization_Penalty>  (1) 
0.0038263815256696344

>  <r_epik_Ionization_Penalty_Charging>  (1) 
0.0038179969365927696

>  <r_epik_Ionization_Penalty_Neutral>  (1) 
8.3845890768645326e-06

>  <r_epik_State_Penalty>  (1) 
0.003817979809828538

>  <r_glide_ring_energy>  (1) 
0.2204327727677606

>  <r_i_docking_score>  (1) 
-6.9316780234373594

>  <r_i_glide_ecoul>  (1) 
-2.1993157617271795

>  <r_i_glide_eff_state_penalty>  (1) 
0.003817979809828538

>  <r_i_glide_einternal>  (1) 
5.6524686726535869

>  <r_i_glide_emodel>  (1) 
-58.178093974969769

>  <r_i_glide_emodel_strain>  (1) 
0

>  <r_i_glide_energy>  (1) 
-42.195537192578442

>  <r_i_glide_erotb>  (1) 
0.83861639918750919

>  <r_i_glide_esite>  (1) 
-0.015391341073933125

>  <r_i_glide_evdw>  (1) 
-39.996221430851264

>  <r_i_glide_gscore>  (1) 
-6.935496003247188

>  <r_i_glide_gscore_strain>  (1) 
0

>  <r_i_glide_hbond>  (1) 
0

>  <r_i_glide_ligand_efficiency>  (1) 
-0.27726712093749439

>  <r_i_glide_ligand_efficiency_ln>  (1) 
-1.6430154171825873

>  <r_i_glide_ligand_efficiency_sa>  (1) 
-0.81073397984444551

>  <r_i_glide_lipo>  (1) 
-3.3474732941984837

>  <r_i_glide_metal>  (1) 
-0

>  <r_i_glide_rewards>  (1) 
-2.0815393313606396

>  <r_lp_Energy>  (1) 
44.465160999999995

>  <s_epik_Chemistry_Notes>  (1) 
This compound has an imine and may undergo hydrolysis.

>  <s_epik_cmdline>  (1) 
J2VwaWtfcHl0aG9uJywgJy1waHQnLCAnMS4wJywgJy1waCcsICc3LjQnLCAnLXRuJywgJzgnLCAnLW1hJywgJzUwMCcsICctaW1hZScsICc8aW5maWxlLm1hZT4nLCAnLW9tYWUnLCAnPG91dGZpbGUubWFlPic=

>  <s_epik_input>  (1) 
W0NIMl0xW0NIMl1bQ0gyXVtDSDJdW0NIXTFbQ0BASF0oW0NIXT1bQ0gyXSlbTkhdQyg9W0NIXVtDSDJdMilbQ0hdPVtDSF1OPUMyYzNbY0hdW2NIXVtjSF1jKFtjSF0zKUMoPU8pW05IMl0=

>  <s_glide_docking_method>  (1) 
confgen

>  <s_i_glide_gridfile>  (1) 
gpcr_5ht2c_6bqh_protein_autoprepared_prepared

>  <s_lp_Force_Field>  (1) 
S-OPLS

>  <s_lp_Variant>  (1) 
DiffSBDD_44-1

>  <s_m_source_file>  (1) 
generated_GPCR_5HT2C_ligand_DiffSBDD_2026-06-23_prepared.sdf

>  <GenAI_Model>  (1) 
DiffSBDD

>  <Protein>  (1) 
GPCR_5HT2C

$$$$
DiffSBDD_43
     RDKit          3D

  0  0  0  0  0  0  0  0  0  0999 V3000
M  V30 BEGIN CTAB
M  V30 COUNTS 65 67 0 0 1
M  V30 BEGIN ATOM
M  V30 1 C 38.002247 35.839179 59.981058 0
M  V30 2 C 38.615416 27.303561 57.144043 0
M  V30 3 C 39.171161 29.187080 53.523199 0
M  V30 4 C 39.594852 26.306528 56.932411 0
M  V30 5 C 38.311830 31.054888 59.857583 0
M  V30 6 C 38.701574 31.262110 54.954322 0
M  V30 7 C 39.558805 29.439235 52.179942 0
M  V30 8 C 38.012287 27.192649 52.820495 0
M  V30 9 C 38.369789 28.075006 53.810258 0
M  V30 10 C 39.196344 29.411328 58.246407 0
M  V30 11 C 37.971355 24.618229 57.556243 0
M  V30 12 C 36.525829 34.170268 61.156955 0 CFG=1
M  V30 13 N 38.248129 30.266652 58.676794 0
M  V30 14 C 39.991314 29.079642 55.838016 0
M  V30 15 F 37.245292 26.137748 53.140720 0
M  V30 16 Cl 40.445087 30.846191 51.767613 0
M  V30 17 C 37.336255 26.942800 57.574433 0
M  V30 18 C 39.249511 32.291035 55.955801 0
M  V30 19 C 39.267104 24.959990 57.141454 0
M  V30 20 C 39.645551 30.072902 54.671268 0 CFG=1
M  V30 21 C 39.235856 30.787410 60.903517 0
M  V30 22 C 35.396585 34.039528 62.167819 0
M  V30 23 O 37.645026 23.337841 57.767920 0
M  V30 24 C 37.014653 25.605478 57.767549 0
M  V30 25 O 40.164841 31.372015 63.027555 0
M  V30 26 C 37.427007 32.135360 59.963109 0
M  V30 27 O 40.233826 29.153258 58.856193 0
M  V30 28 C 38.400877 32.721536 62.114351 0
M  V30 29 C 38.444829 27.395106 51.493399 0
M  V30 30 C 39.201308 28.530561 51.171916 0
M  V30 31 C 39.273803 31.622413 62.025541 0
M  V30 32 C 37.249072 35.518382 61.263606 0
M  V30 33 C 38.922263 28.761595 56.905770 0 CFG=1
M  V30 34 C 37.471323 32.976862 61.080724 0
M  V30 35 H 38.445033 36.830888 60.034205 0
M  V30 36 H 38.791646 35.105788 59.807215 0
M  V30 37 H 37.333957 35.822007 59.116665 0
M  V30 38 H 40.590927 26.571759 56.617545 0
M  V30 39 H 38.553744 31.784786 54.009929 0
M  V30 40 H 37.706956 30.929264 55.250237 0
M  V30 41 H 38.039837 27.886335 54.806428 0
M  V30 42 H 36.000921 34.195404 60.202222 0
M  V30 43 H 37.458361 30.434167 58.066125 0
M  V30 44 H 40.845197 29.337752 56.397686 0
M  V30 45 H 40.386596 28.182186 55.368091 0
M  V30 46 H 36.593505 27.703475 57.767873 0
M  V30 47 H 38.675148 33.215905 55.908480 0
M  V30 48 H 39.202479 31.935398 56.979291 0
M  V30 49 H 40.292082 32.538111 55.767998 0
M  V30 50 H 40.009212 24.191889 56.982068 0
M  V30 51 H 40.609161 30.491238 54.377369 0
M  V30 52 H 39.907587 29.954356 60.856231 0
M  V30 53 H 34.733256 33.190127 61.994490 0
M  V30 54 H 35.645089 34.137795 63.201483 0
M  V30 55 H 34.845166 34.937763 62.167575 0
M  V30 56 H 38.357541 22.763321 58.022620 0
M  V30 57 H 36.026163 25.335750 58.099486 0
M  V30 58 H 40.067467 31.947825 63.768745 0
M  V30 59 H 36.722041 32.331959 59.166744 0
M  V30 60 H 38.445372 33.360762 62.967677 0
M  V30 61 H 38.168851 26.694732 50.720299 0
M  V30 62 H 39.502439 28.710587 50.148759 0
M  V30 63 H 36.524972 36.316573 61.428469 0
M  V30 64 H 37.926367 35.537669 62.115975 0
M  V30 65 H 37.977309 29.172843 56.549965 0
M  V30 END ATOM
M  V30 BEGIN BOND
M  V30 1 1 4 2
M  V30 2 2 7 3
M  V30 3 1 9 3
M  V30 4 2 9 8
M  V30 5 1 13 5
M  V30 6 1 13 10
M  V30 7 1 15 8
M  V30 8 1 16 7
M  V30 9 2 17 2
M  V30 10 1 18 6
M  V30 11 2 19 4
M  V30 12 1 19 11
M  V30 13 1 20 3
M  V30 14 1 20 6
M  V30 15 1 20 14
M  V30 16 1 21 5
M  V30 17 1 22 12
M  V30 18 1 23 11
M  V30 19 2 24 11
M  V30 20 1 24 17
M  V30 21 2 26 5
M  V30 22 2 27 10
M  V30 23 1 29 8
M  V30 24 1 30 7
M  V30 25 2 30 29
M  V30 26 2 31 21
M  V30 27 1 31 25
M  V30 28 1 31 28
M  V30 29 1 32 1
M  V30 30 1 32 12
M  V30 31 1 33 2
M  V30 32 1 33 10
M  V30 33 1 33 14
M  V30 34 1 34 12
M  V30 35 1 34 26
M  V30 36 2 34 28
M  V30 37 1 35 1
M  V30 38 1 36 1
M  V30 39 1 37 1
M  V30 40 1 38 4
M  V30 41 1 39 6
M  V30 42 1 40 6
M  V30 43 1 41 9
M  V30 44 1 12 42 CFG=3
M  V30 45 1 43 13
M  V30 46 1 44 14
M  V30 47 1 45 14
M  V30 48 1 46 17
M  V30 49 1 47 18
M  V30 50 1 48 18
M  V30 51 1 49 18
M  V30 52 1 50 19
M  V30 53 1 20 51 CFG=3
M  V30 54 1 52 21
M  V30 55 1 53 22
M  V30 56 1 54 22
M  V30 57 1 55 22
M  V30 58 1 56 23
M  V30 59 1 57 24
M  V30 60 1 58 25
M  V30 61 1 59 26
M  V30 62 1 60 28
M  V30 63 1 61 29
M  V30 64 1 62 30
M  V30 65 1 63 32
M  V30 66 1 64 32
M  V30 67 1 33 65 CFG=3
M  V30 END BOND
M  V30 END CTAB
M  END
>  <i_epik_Tot_Q>  (1) 
0

>  <i_epik_Tot_abs_Q>  (1) 
0

>  <i_i_glide_confnum>  (1) 
91

>  <i_i_glide_lignum>  (1) 
94

>  <i_i_glide_posenum>  (1) 
1

>  <i_i_glide_rotatable_bonds>  (1) 
12

>  <i_lp_mmshare_version>  (1) 
72125

>  <i_m_source_file_index>  (1) 
44

>  <i_f3d_flags>  (1) 
0

>  <num_sample>  (1) 
50

>  <b_lp_Chiralities_Consistent>  (1) 
1

>  <r_epik_Charging_Adjusted_Penalty>  (1) 
0

>  <r_epik_Ionization_Penalty>  (1) 
0.0033265205606122501

>  <r_epik_Ionization_Penalty_Charging>  (1) 
0

>  <r_epik_Ionization_Penalty_Neutral>  (1) 
0.0033265205606122501

>  <r_epik_State_Penalty>  (1) 
-0

>  <r_glide_ring_energy>  (1) 
0

>  <r_i_docking_score>  (1) 
-6.9264227886408944

>  <r_i_glide_ecoul>  (1) 
-3.851131961775843

>  <r_i_glide_eff_state_penalty>  (1) 
-0

>  <r_i_glide_einternal>  (1) 
16.526234166642613

>  <r_i_glide_emodel>  (1) 
-24.305058412872512

>  <r_i_glide_emodel_strain>  (1) 
1.4590478825191369

>  <r_i_glide_energy>  (1) 
-16.888386849060577

>  <r_i_glide_erotb>  (1) 
0.60670890069985839

>  <r_i_glide_esite>  (1) 
-0.034361650753071835

>  <r_i_glide_evdw>  (1) 
-13.037254887284734

>  <r_i_glide_gscore>  (1) 
-6.9264227886408944

>  <r_i_glide_gscore_strain>  (1) 
0

>  <r_i_glide_hbond>  (1) 
-0.24522957083879138

>  <r_i_glide_ligand_efficiency>  (1) 
-0.2037183173129675

>  <r_i_glide_ligand_efficiency_ln>  (1) 
-1.5302410735893071

>  <r_i_glide_ligand_efficiency_sa>  (1) 
-0.65996826490348059

>  <r_i_glide_lipo>  (1) 
-4.8271432620210328

>  <r_i_glide_metal>  (1) 
-0

>  <r_i_glide_rewards>  (1) 
-1.1968646670972438

>  <r_lp_Energy>  (1) 
37.902006

>  <r_lp_tautomer_probability>  (1) 
1

>  <s_epik_cmdline>  (1) 
J2VwaWtfcHl0aG9uJywgJy1waHQnLCAnMS4wJywgJy1waCcsICc3LjQnLCAnLXRuJywgJzgnLCAnLW1hJywgJzUwMCcsICctaW1hZScsICc8aW5maWxlLm1hZT4nLCAnLW9tYWUnLCAnPG91dGZpbGUubWFlPic=

>  <s_epik_input>  (1) 
W0NIM11bQ0gyXVtDQEhdKFtDSDNdKWMoW2NIXTEpW2NIXWMoW09IXSlbY0hdYzFbTkhdQyg9TylbQ0BIXShjMltjSF1bY0hdYyhbT0hdKVtjSF1bY0hdMilbQ0gyXVtDQEhdKFtDSDJdW0NIM10pYzNjKENsKVtjSF1bY0hdYyhGKVtjSF0z

>  <s_glide_docking_method>  (1) 
confgen

>  <s_i_glide_gridfile>  (1) 
gpcr_5ht2c_6bqh_protein_autoprepared_prepared

>  <s_lp_Force_Field>  (1) 
S-OPLS

>  <s_lp_Variant>  (1) 
DiffSBDD_43-1

>  <s_m_source_file>  (1) 
generated_GPCR_5HT2C_ligand_DiffSBDD_2026-06-23_prepared.sdf

>  <GenAI_Model>  (1) 
DiffSBDD

>  <Protein>  (1) 
GPCR_5HT2C

$$$$
DiffSBDD_34
     RDKit          3D

  0  0  0  0  0  0  0  0  0  0999 V3000
M  V30 BEGIN CTAB
M  V30 COUNTS 81 84 0 0 1
M  V30 BEGIN ATOM
M  V30 1 C 39.854428 31.873665 60.778184 0
M  V30 2 C 39.464670 30.706300 53.956071 0 CFG=1
M  V30 3 C 37.009663 31.430199 58.967728 0
M  V30 4 C 36.344962 32.261725 60.079856 0
M  V30 5 O 38.652487 27.181877 58.709476 0
M  V30 6 C 39.379472 29.668425 55.099251 0
M  V30 7 O 38.589152 29.375900 58.100553 0
M  V30 8 C 40.557830 28.569116 59.035465 0 CFG=1
M  V30 9 C 37.664977 34.388299 59.791967 0 CFG=2
M  V30 10 C 39.645153 30.069728 52.589750 0
M  V30 11 C 37.289417 29.272994 57.630194 0 CFG=2
M  V30 12 C 40.601009 30.136011 62.541345 0
M  V30 13 O 39.141575 33.858146 62.367695 0
M  V30 14 C 40.845261 29.603125 60.120803 0 CFG=2
M  V30 15 O 36.224637 29.451722 59.767760 0
M  V30 16 C 39.775119 37.085559 63.012765 0
M  V30 17 O 37.874354 31.645893 62.567760 0
M  V30 18 N 37.245136 29.815071 56.285096 0
M  V30 19 C 37.982978 29.047627 55.295776 0
M  V30 20 C 36.659997 35.500486 59.603937 0 CFG=1
M  V30 21 S 38.523019 32.676766 61.754490 0
M  V30 22 O 37.245938 36.783846 59.467293 0
M  V30 23 C 41.035879 28.118331 60.363971 0
M  V30 24 C 41.430958 31.265786 63.152549 0
M  V30 25 C 39.245190 28.789774 52.262217 0
M  V30 26 S 39.645116 28.395954 50.624541 0
M  V30 27 C 40.265275 30.730975 51.474518 0
M  V30 28 O 40.445148 29.077990 63.137244 0
M  V30 29 C 37.004677 34.590218 58.453039 0
M  V30 30 C 37.027174 37.636261 60.583494 0
M  V30 31 C 39.171732 28.293701 58.611057 0
M  V30 32 C 38.304040 31.737410 53.984972 0
M  V30 33 O 39.097648 37.378217 61.802138 0
M  V30 34 N 37.330078 33.227280 60.617965 0
M  V30 35 C 37.699877 37.154837 61.881778 0
M  V30 36 C 40.328352 29.952349 50.349710 0
M  V30 37 C 39.990906 30.362119 61.132378 0 CFG=2
M  V30 38 C 36.375220 30.097945 58.568214 0 CFG=1
M  V30 39 N 38.118163 32.404388 55.288763 0 CHG=1
M  V30 40 H 39.645130 32.083160 59.740026 0
M  V30 41 H 40.773120 32.423208 60.971889 0
M  V30 42 H 40.379404 31.270769 54.145583 0
M  V30 43 H 37.943984 31.142214 59.394446 0
M  V30 44 H 37.245137 32.019710 58.086068 0
M  V30 45 H 35.444687 32.760472 59.724441 0
M  V30 46 H 36.005803 31.632951 60.902316 0
M  V30 47 H 39.703250 30.161266 56.016257 0
M  V30 48 H 40.108019 28.871911 54.967596 0
M  V30 49 H 41.295857 28.456867 58.244321 0
M  V30 50 H 38.713168 34.662074 59.891698 0
M  V30 51 H 36.927038 28.245541 57.594519 0
M  V30 52 H 41.645137 30.209024 59.767748 0
M  V30 53 H 35.778540 28.632683 59.614088 0
M  V30 54 H 40.845446 37.212413 62.866830 0
M  V30 55 H 39.464464 37.748435 63.819112 0
M  V30 56 H 39.602522 36.064130 63.341961 0
M  V30 57 H 36.265782 29.924896 56.023214 0
M  V30 58 H 38.079710 28.008614 55.616098 0
M  V30 59 H 37.426963 29.020266 54.360341 0
M  V30 60 H 35.647184 35.447467 60.001547 0
M  V30 61 H 42.045131 27.737751 60.401193 0
M  V30 62 H 40.321902 27.603250 61.004053 0
M  V30 63 H 40.838703 32.165571 63.304215 0
M  V30 64 H 41.809201 30.957648 64.126692 0
M  V30 65 H 42.286174 31.507459 62.523318 0
M  V30 66 H 38.755873 28.056931 52.885827 0
M  V30 67 H 40.637743 31.737687 51.542702 0
M  V30 68 H 37.645132 34.938467 57.654172 0
M  V30 69 H 36.176861 33.978617 58.110162 0
M  V30 70 H 37.400373 38.629433 60.335328 0
M  V30 71 H 35.952750 37.741836 60.736271 0
M  V30 72 H 38.445137 32.500814 53.221368 0
M  V30 73 H 37.362858 31.240419 53.767757 0
M  V30 74 H 37.297342 37.735779 62.712302 0
M  V30 75 H 37.477225 36.108496 62.092223 0
M  V30 76 H 40.740769 30.204206 49.384229 0
M  V30 77 H 39.001914 29.902200 61.132057 0
M  V30 78 H 35.366506 30.137762 58.167577 0
M  V30 79 H 37.298191 33.000927 55.257917 0
M  V30 80 H 37.931871 31.679998 55.976943 0
M  V30 81 H 38.935190 32.935994 55.548063 0
M  V30 END ATOM
M  V30 BEGIN BOND
M  V30 1 1 4 3
M  V30 2 1 6 2
M  V30 3 1 10 2
M  V30 4 1 11 7
M  V30 5 1 14 8
M  V30 6 1 18 11
M  V30 7 1 19 6
M  V30 8 1 19 18
M  V30 9 1 20 9
M  V30 10 1 21 1
M  V30 11 2 21 13
M  V30 12 2 21 17
M  V30 13 1 22 20
M  V30 14 1 23 8
M  V30 15 1 23 14
M  V30 16 1 24 12
M  V30 17 2 25 10
M  V30 18 1 26 25
M  V30 19 1 27 10
M  V30 20 2 28 12
M  V30 21 1 29 9
M  V30 22 1 29 20
M  V30 23 1 30 22
M  V30 24 2 31 5
M  V30 25 1 31 7
M  V30 26 1 31 8
M  V30 27 1 32 2
M  V30 28 1 33 16
M  V30 29 1 34 4
M  V30 30 1 34 9
M  V30 31 1 34 21
M  V30 32 1 35 30
M  V30 33 1 35 33
M  V30 34 1 36 26
M  V30 35 2 36 27
M  V30 36 1 37 1
M  V30 37 1 37 12
M  V30 38 1 37 14
M  V30 39 1 38 3
M  V30 40 1 38 11
M  V30 41 1 38 15
M  V30 42 1 39 32
M  V30 43 1 40 1
M  V30 44 1 41 1
M  V30 45 1 2 42 CFG=1
M  V30 46 1 43 3
M  V30 47 1 44 3
M  V30 48 1 45 4
M  V30 49 1 46 4
M  V30 50 1 47 6
M  V30 51 1 48 6
M  V30 52 1 8 49 CFG=3
M  V30 53 1 9 50 CFG=3
M  V30 54 1 11 51 CFG=3
M  V30 55 1 14 52 CFG=3
M  V30 56 1 53 15
M  V30 57 1 54 16
M  V30 58 1 55 16
M  V30 59 1 56 16
M  V30 60 1 57 18
M  V30 61 1 58 19
M  V30 62 1 59 19
M  V30 63 1 20 60 CFG=1
M  V30 64 1 61 23
M  V30 65 1 62 23
M  V30 66 1 63 24
M  V30 67 1 64 24
M  V30 68 1 65 24
M  V30 69 1 66 25
M  V30 70 1 67 27
M  V30 71 1 68 29
M  V30 72 1 69 29
M  V30 73 1 70 30
M  V30 74 1 71 30
M  V30 75 1 72 32
M  V30 76 1 73 32
M  V30 77 1 74 35
M  V30 78 1 75 35
M  V30 79 1 76 36
M  V30 80 1 37 77 CFG=1
M  V30 81 1 38 78 CFG=3
M  V30 82 1 79 39
M  V30 83 1 80 39
M  V30 84 1 81 39
M  V30 END BOND
M  V30 END CTAB
M  END
>  <i_epik_Tot_Q>  (1) 
1

>  <i_epik_Tot_abs_Q>  (1) 
1

>  <i_i_glide_confnum>  (1) 
831

>  <i_i_glide_lignum>  (1) 
73

>  <i_i_glide_posenum>  (1) 
378

>  <i_i_glide_rotatable_bonds>  (1) 
13

>  <i_lp_mmshare_version>  (1) 
72125

>  <i_m_source_file_index>  (1) 
35

>  <i_f3d_flags>  (1) 
0

>  <num_sample>  (1) 
50

>  <b_lp_Chiralities_Consistent>  (1) 
1

>  <r_epik_Charging_Adjusted_Penalty>  (1) 
0.090149450246829993

>  <r_epik_Ionization_Penalty>  (1) 
0.090149516537110494

>  <r_epik_Ionization_Penalty_Charging>  (1) 
0.0016683723163481864

>  <r_epik_Ionization_Penalty_Neutral>  (1) 
0.088481144220762309

>  <r_epik_State_Penalty>  (1) 
0.088481077930481808

>  <r_glide_ring_energy>  (1) 
0

>  <r_i_docking_score>  (1) 
-6.9230265607297712

>  <r_i_glide_ecoul>  (1) 
-5.0813781938387237

>  <r_i_glide_eff_state_penalty>  (1) 
0.088481077930481808

>  <r_i_glide_einternal>  (1) 
16.42741036001231

>  <r_i_glide_emodel>  (1) 
-36.103332918426119

>  <r_i_glide_emodel_strain>  (1) 
3.7885605398080315

>  <r_i_glide_energy>  (1) 
-37.536717673377936

>  <r_i_glide_erotb>  (1) 
0.37606535851870204

>  <r_i_glide_esite>  (1) 
-0.14948696410250048

>  <r_i_glide_evdw>  (1) 
-32.455339479539212

>  <r_i_glide_gscore>  (1) 
-7.0115076386602526

>  <r_i_glide_gscore_strain>  (1) 
0

>  <r_i_glide_hbond>  (1) 
-0.21223405887266322

>  <r_i_glide_ligand_efficiency>  (1) 
-0.17751350155717363

>  <r_i_glide_ligand_efficiency_ln>  (1) 
-1.4844934164160317

>  <r_i_glide_ligand_efficiency_sa>  (1) 
-0.60198581777020033

>  <r_i_glide_lipo>  (1) 
-3.5308159820747274

>  <r_i_glide_metal>  (1) 
-0

>  <r_i_glide_rewards>  (1) 
-1.1100622890762941

>  <r_lp_Energy>  (1) 
30.250912

>  <r_lp_tautomer_probability>  (1) 
0.9999999700000004

>  <s_epik_Chemistry_Notes>  (1) 
This compound has an ester and may undergo hydrolysis at high or low pH. This compound contains an acetal/aminal-like group ( X-CH(R)-Y where X, Y are N, S, or O) that may be acid/base labile, releasing an aldehyde.

>  <s_epik_cmdline>  (1) 
J2VwaWtfcHl0aG9uJywgJy1waHQnLCAnMS4wJywgJy1waCcsICc3LjQnLCAnLXRuJywgJzgnLCAnLW1hJywgJzUwMCcsICctaW1hZScsICc8aW5maWxlLm1hZT4nLCAnLW9tYWUnLCAnPG91dGZpbGUubWFlPic=

>  <s_epik_input>  (1) 
W0NIM11PW0NIMl1bQ0gyXU9bQ0BASF0oW0NIMl0xKVtDSF0xTihTKD1PKSg9TylbQ0gyXVtDQEhdKEMoPU8pW0NIM10pW0NASF0oW0NIXTIzKVtDSDJdMilbQ0gyXVtDSDJdW0NASF0oW09IXSlbQ0BIXShPQzM9TylbTkhdW0NIMl1bQ0gyXVtDQEhdKFtDSDJdW05IMl0pYzRbY0hdc1tjSF1bY0hdNA==

>  <s_glide_docking_method>  (1) 
confgen

>  <s_i_glide_gridfile>  (1) 
gpcr_5ht2c_6bqh_protein_autoprepared_prepared

>  <s_lp_Force_Field>  (1) 
S-OPLS

>  <s_lp_Variant>  (1) 
DiffSBDD_34-1

>  <s_m_source_file>  (1) 
generated_GPCR_5HT2C_ligand_DiffSBDD_2026-06-23_prepared.sdf

>  <GenAI_Model>  (1) 
DiffSBDD

>  <Protein>  (1) 
GPCR_5HT2C

$$$$
DiffSBDD_32
     RDKit          3D

  0  0  0  0  0  0  0  0  0  0999 V3000
M  V30 BEGIN CTAB
M  V30 COUNTS 71 74 0 0 1
M  V30 BEGIN ATOM
M  V30 1 N 39.014109 29.907028 59.261240 0
M  V30 2 C 40.003638 34.101583 61.762974 0 CFG=1
M  V30 3 C 39.610833 27.913528 56.113491 0 CFG=2
M  V30 4 C 40.924403 30.259183 50.961400 0
M  V30 5 C 41.679810 33.487389 63.464372 0 CFG=2
M  V30 6 N 39.831248 32.643738 61.507331 0
M  V30 7 C 40.089569 29.564374 51.741744 0
M  V30 8 C 40.194454 35.678376 63.430888 0
M  V30 9 N 37.079667 25.605748 55.905544 0
M  V30 10 C 38.841432 30.207393 54.768727 0 CFG=2
M  V30 11 C 40.648198 28.537632 57.052880 0
M  V30 12 C 39.081381 30.481269 60.466256 0
M  V30 13 C 37.994922 28.197359 57.922043 0
M  V30 14 C 41.585022 32.044924 62.910142 0
M  V30 15 Cl 42.063496 33.470131 65.205386 0
M  V30 16 C 38.995450 35.974986 62.503972 0
M  V30 17 C 37.631040 26.537662 56.313865 0
M  V30 18 C 39.407111 28.717001 54.791741 0 CFG=2
M  V30 19 C 39.078256 28.481300 58.962450 0 CFG=1
M  V30 20 C 39.383168 27.352034 52.567823 0
M  V30 21 O 36.845168 28.537757 58.167761 0
M  V30 22 C 39.610428 30.988200 53.668228 0
M  V30 23 N 38.797204 27.756722 53.804049 0
M  V30 24 O 38.831586 34.828920 61.653038 0
M  V30 25 C 38.816093 31.104373 56.016673 0
M  V30 26 C 41.616975 28.498855 59.369617 0
M  V30 27 O 41.099162 32.073498 61.562447 0
M  V30 28 C 40.354442 34.188278 63.225608 0 CFG=1
M  V30 29 O 39.245585 29.838922 61.505272 0
M  V30 30 C 38.961018 32.018216 60.466788 0 CFG=1
M  V30 31 N 38.356280 27.567820 56.789129 0
M  V30 32 N 36.696385 32.596403 59.648255 0
M  V30 33 C 37.458569 32.281737 60.697737 0
M  V30 34 C 40.474996 28.035421 58.481582 0 CFG=2
M  V30 35 C 40.016009 28.137755 51.643102 0
M  V30 36 N 39.245136 30.181253 52.567820 0
M  V30 37 O 36.959058 32.168004 61.812081 0
M  V30 38 H 38.829077 30.511042 58.474367 0
M  V30 39 H 40.778037 34.452351 61.079090 0
M  V30 40 H 40.048423 26.953422 55.832330 0
M  V30 41 H 40.957082 31.337629 51.004699 0
M  V30 42 H 41.584455 29.762730 50.267654 0
M  V30 43 H 42.445152 34.054721 62.967809 0
M  V30 44 H 40.011740 35.950007 64.470513 0
M  V30 45 H 41.081964 36.214414 63.092232 0
M  V30 46 H 37.785290 30.127272 54.499106 0
M  V30 47 H 41.661341 28.384795 56.679902 0
M  V30 48 H 40.445150 29.595363 57.091614 0
M  V30 49 H 40.915623 31.435226 63.521067 0
M  V30 50 H 42.562758 31.563812 62.934381 0
M  V30 51 H 38.079479 36.137855 63.071721 0
M  V30 52 H 39.179590 36.869119 61.907441 0
M  V30 53 H 40.434713 28.937813 54.567771 0
M  V30 54 H 38.818388 27.909665 59.855734 0
M  V30 55 H 39.302989 26.289229 52.405722 0
M  V30 56 H 39.226049 31.998611 53.536378 0
M  V30 57 H 40.688555 31.023418 53.834051 0
M  V30 58 H 38.218094 27.059708 54.251508 0
M  V30 59 H 39.806921 31.428196 56.333324 0
M  V30 60 H 38.262587 32.018086 55.795779 0
M  V30 61 H 38.282711 30.644459 56.838683 0
M  V30 62 H 41.645093 29.586320 59.397365 0
M  V30 63 H 41.508144 28.129580 60.390562 0
M  V30 64 H 42.562419 28.136981 58.967748 0
M  V30 65 H 39.609976 33.625526 63.767747 0
M  V30 66 H 39.245183 32.421085 59.493239 0
M  V30 67 H 37.094585 32.640500 58.721439 0
M  V30 68 H 35.709608 32.761802 59.779705 0
M  V30 69 H 40.507969 26.943967 58.467227 0
M  V30 70 H 40.445158 27.665406 50.773952 0
M  V30 71 H 38.467841 29.584675 52.825279 0
M  V30 END ATOM
M  V30 BEGIN BOND
M  V30 1 1 6 2
M  V30 2 2 7 4
M  V30 3 1 11 3
M  V30 4 1 12 1
M  V30 5 1 14 5
M  V30 6 1 15 5
M  V30 7 1 16 8
M  V30 8 3 17 9
M  V30 9 1 18 3
M  V30 10 1 18 10
M  V30 11 1 19 1
M  V30 12 1 19 13
M  V30 13 2 21 13
M  V30 14 1 22 10
M  V30 15 1 23 18
M  V30 16 1 23 20
M  V30 17 1 24 2
M  V30 18 1 24 16
M  V30 19 1 25 10
M  V30 20 1 27 6
M  V30 21 1 27 14
M  V30 22 1 28 2
M  V30 23 1 28 5
M  V30 24 1 28 8
M  V30 25 2 29 12
M  V30 26 1 30 6
M  V30 27 1 30 12
M  V30 28 1 31 3
M  V30 29 1 31 13
M  V30 30 1 31 17
M  V30 31 1 33 30
M  V30 32 1 33 32
M  V30 33 1 34 11
M  V30 34 1 34 19
M  V30 35 1 34 26
M  V30 36 1 35 7
M  V30 37 2 35 20
M  V30 38 1 36 7
M  V30 39 1 36 22
M  V30 40 2 37 33
M  V30 41 1 38 1
M  V30 42 1 2 39 CFG=3
M  V30 43 1 3 40 CFG=3
M  V30 44 1 41 4
M  V30 45 1 42 4
M  V30 46 1 5 43 CFG=3
M  V30 47 1 44 8
M  V30 48 1 45 8
M  V30 49 1 10 46 CFG=3
M  V30 50 1 47 11
M  V30 51 1 48 11
M  V30 52 1 49 14
M  V30 53 1 50 14
M  V30 54 1 51 16
M  V30 55 1 52 16
M  V30 56 1 18 53 CFG=3
M  V30 57 1 19 54 CFG=1
M  V30 58 1 55 20
M  V30 59 1 56 22
M  V30 60 1 57 22
M  V30 61 1 58 23
M  V30 62 1 59 25
M  V30 63 1 60 25
M  V30 64 1 61 25
M  V30 65 1 62 26
M  V30 66 1 63 26
M  V30 67 1 64 26
M  V30 68 1 28 65 CFG=1
M  V30 69 1 30 66 CFG=3
M  V30 70 1 67 32
M  V30 71 1 68 32
M  V30 72 1 34 69 CFG=3
M  V30 73 1 70 35
M  V30 74 1 71 36
M  V30 END BOND
M  V30 END CTAB
M  END
>  <i_epik_Tot_Q>  (1) 
0

>  <i_epik_Tot_abs_Q>  (1) 
0

>  <i_i_glide_confnum>  (1) 
33

>  <i_i_glide_lignum>  (1) 
71

>  <i_i_glide_posenum>  (1) 
208

>  <i_i_glide_rotatable_bonds>  (1) 
6

>  <i_lp_mmshare_version>  (1) 
72125

>  <i_m_source_file_index>  (1) 
33

>  <i_f3d_flags>  (1) 
0

>  <num_sample>  (1) 
50

>  <b_lp_Chiralities_Consistent>  (1) 
1

>  <r_epik_Charging_Adjusted_Penalty>  (1) 
0.0047334328173529788

>  <r_epik_Ionization_Penalty>  (1) 
0.0056920073273627391

>  <r_epik_Ionization_Penalty_Charging>  (1) 
0.0047334328173529788

>  <r_epik_Ionization_Penalty_Neutral>  (1) 
0.00095857451000976068

>  <r_epik_State_Penalty>  (1) 
-0

>  <r_glide_ring_energy>  (1) 
0

>  <r_i_docking_score>  (1) 
-6.9164985642508521

>  <r_i_glide_ecoul>  (1) 
-4.1993551528930899

>  <r_i_glide_eff_state_penalty>  (1) 
-0

>  <r_i_glide_einternal>  (1) 
3.1443277266202365

>  <r_i_glide_emodel>  (1) 
-36.641463165968666

>  <r_i_glide_emodel_strain>  (1) 
7.3290382089860202

>  <r_i_glide_energy>  (1) 
-39.989088637182604

>  <r_i_glide_erotb>  (1) 
0.28744264244001894

>  <r_i_glide_esite>  (1) 
-0.070145429811209081

>  <r_i_glide_evdw>  (1) 
-35.789733484289513

>  <r_i_glide_gscore>  (1) 
-6.9164985642508521

>  <r_i_glide_gscore_strain>  (1) 
0.83225955224650505

>  <r_i_glide_hbond>  (1) 
-0.26065482098627163

>  <r_i_glide_ligand_efficiency>  (1) 
-0.18693239362840142

>  <r_i_glide_ligand_efficiency_ln>  (1) 
-1.5000263928542694

>  <r_i_glide_ligand_efficiency_sa>  (1) 
-0.62290020682904201

>  <r_i_glide_lipo>  (1) 
-3.7927376255549259

>  <r_i_glide_metal>  (1) 
-0

>  <r_i_glide_rewards>  (1) 
-1.4932729354365311

>  <r_lp_Energy>  (1) 
58.609352999999999

>  <r_lp_tautomer_probability>  (1) 
1

>  <s_epik_Chemistry_Notes>  (1) 
This compound has an imine and may undergo hydrolysis. This compound contains an acetal/aminal-like group ( X-CH(R)-Y where X, Y are N, S, or O) that may be acid/base labile, releasing an aldehyde. This compound has a N-S or N-O group and may undergo hydrolysis at high or low pH.

>  <s_epik_cmdline>  (1) 
J2VwaWtfcHl0aG9uJywgJy1waHQnLCAnMS4wJywgJy1waCcsICc3LjQnLCAnLXRuJywgJzgnLCAnLW1hJywgJzUwMCcsICctaW1hZScsICc8aW5maWxlLm1hZT4nLCAnLW9tYWUnLCAnPG91dGZpbGUubWFlPic=

>  <s_epik_input>  (1) 
TzFbQ0gyXVtDSDJdW0NAQEhdKFtDQEhdMTIpW0NAQEhdKENsKVtDSDJdT04yW0NASF0oQyg9TylbTkgyXSlDKD1PKVtOSF1bQ0BASF0oQyg9TylOM0MjTilbQ0BIXShbQ0gzXSlbQ0gyXVtDQEBIXTNbQ0BASF0oW05IXS9bQ0hdPVtDSF1cNClbQ0BASF0oW0NIM10pW0NIMl1cTj1DLzRcW0NIM10=

>  <s_glide_docking_method>  (1) 
confgen

>  <s_i_glide_gridfile>  (1) 
gpcr_5ht2c_6bqh_protein_autoprepared_prepared

>  <s_lp_Force_Field>  (1) 
S-OPLS

>  <s_lp_Variant>  (1) 
DiffSBDD_32-1

>  <s_m_source_file>  (1) 
generated_GPCR_5HT2C_ligand_DiffSBDD_2026-06-23_prepared.sdf

>  <GenAI_Model>  (1) 
DiffSBDD

>  <Protein>  (1) 
GPCR_5HT2C

$$$$
DiffSBDD_8
     RDKit          3D

  0  0  0  0  0  0  0  0  0  0999 V3000
M  V30 BEGIN CTAB
M  V30 COUNTS 49 52 0 0 1
M  V30 BEGIN ATOM
M  V30 1 C 38.488216 31.972317 56.538382 0
M  V30 2 C 38.048826 32.514461 57.763554 0
M  V30 3 C 38.574410 24.924839 57.210872 0 CFG=1
M  V30 4 C 38.419932 30.372561 58.850534 0
M  V30 5 C 38.856498 29.822273 57.622404 0
M  V30 6 C 38.445743 27.261183 53.003787 0
M  V30 7 C 38.065334 26.328045 57.375276 0 CFG=2
M  V30 8 C 38.466007 27.745222 55.386242 0
M  V30 9 C 39.332469 29.570559 52.334303 0
M  V30 10 C 40.418770 29.132878 51.337205 0
M  V30 11 C 38.592572 27.540255 56.706617 0
M  V30 12 O 38.967285 25.737753 58.318814 0
M  V30 13 C 39.343555 28.453376 57.582945 0
M  V30 14 C 39.933685 30.960465 49.674418 0
M  V30 15 C 37.946519 26.686954 54.412570 0
M  V30 16 C 38.944220 28.840387 54.670463 0
M  V30 17 F 38.405467 29.611260 59.971294 0
M  V30 18 N 39.297885 30.099601 55.147135 0
M  V30 19 N 37.645138 33.838705 57.833916 0
M  V30 20 C 38.012333 31.712330 58.915240 0
M  V30 21 C 38.873555 30.618968 56.467808 0
M  V30 22 C 37.663890 23.779692 57.559001 0
M  V30 23 N 38.961911 28.593612 53.372227 0 CHG=1
M  V30 24 C 40.963705 30.374851 50.625278 0
M  V30 25 H 38.509251 32.588952 55.651646 0
M  V30 26 H 39.382336 24.719620 56.510554 0
M  V30 27 H 37.638509 27.333709 52.276091 0
M  V30 28 H 39.247488 26.652381 52.584225 0
M  V30 29 H 37.060738 26.472835 57.767757 0
M  V30 30 H 38.445137 29.737754 51.741034 0
M  V30 31 H 39.598877 30.529733 52.773155 0
M  V30 32 H 41.245184 28.581307 51.767760 0
M  V30 33 H 39.985339 28.449700 50.604887 0
M  V30 34 H 40.377693 28.472897 57.235214 0
M  V30 35 H 39.411915 28.054276 58.593975 0
M  V30 36 H 40.346975 31.795263 49.122293 0
M  V30 37 H 39.645137 30.189154 48.967726 0
M  V30 38 H 39.036771 31.324384 50.167758 0
M  V30 39 H 36.860031 26.622448 54.461874 0
M  V30 40 H 38.375040 25.703601 54.600629 0
M  V30 41 H 37.460375 34.353818 56.983506 0
M  V30 42 H 37.140719 34.160327 58.647136 0
M  V30 43 H 37.677558 32.128164 59.853994 0
M  V30 44 H 37.245128 23.337755 56.656209 0
M  V30 45 H 38.194726 23.036225 58.146424 0
M  V30 46 H 36.845137 24.147703 58.167759 0
M  V30 47 H 41.245735 31.132873 51.353663 0
M  V30 48 H 41.867667 30.137756 50.065604 0
M  V30 49 H 39.547940 30.761841 54.428312 0
M  V30 END ATOM
M  V30 BEGIN BOND
M  V30 1 1 2 1
M  V30 2 2 5 4
M  V30 3 1 7 3
M  V30 4 1 10 9
M  V30 5 1 11 7
M  V30 6 2 11 8
M  V30 7 1 12 3
M  V30 8 1 12 7
M  V30 9 1 13 5
M  V30 10 1 13 11
M  V30 11 1 15 6
M  V30 12 1 15 8
M  V30 13 1 16 8
M  V30 14 1 17 4
M  V30 15 1 18 16
M  V30 16 1 19 2
M  V30 17 2 20 2
M  V30 18 1 20 4
M  V30 19 2 21 1
M  V30 20 1 21 5
M  V30 21 1 21 18
M  V30 22 1 22 3
M  V30 23 1 23 6
M  V30 24 1 23 9
M  V30 25 2 23 16
M  V30 26 1 24 10
M  V30 27 1 24 14
M  V30 28 1 25 1
M  V30 29 1 3 26 CFG=3
M  V30 30 1 27 6
M  V30 31 1 28 6
M  V30 32 1 7 29 CFG=1
M  V30 33 1 30 9
M  V30 34 1 31 9
M  V30 35 1 32 10
M  V30 36 1 33 10
M  V30 37 1 34 13
M  V30 38 1 35 13
M  V30 39 1 36 14
M  V30 40 1 37 14
M  V30 41 1 38 14
M  V30 42 1 39 15
M  V30 43 1 40 15
M  V30 44 1 41 19
M  V30 45 1 42 19
M  V30 46 1 43 20
M  V30 47 1 44 22
M  V30 48 1 45 22
M  V30 49 1 46 22
M  V30 50 1 47 24
M  V30 51 1 48 24
M  V30 52 1 49 18
M  V30 END BOND
M  V30 END CTAB
M  END
>  <i_epik_Tot_Q>  (1) 
1

>  <i_epik_Tot_abs_Q>  (1) 
1

>  <i_i_glide_confnum>  (1) 
12

>  <i_i_glide_lignum>  (1) 
17

>  <i_i_glide_posenum>  (1) 
292

>  <i_i_glide_rotatable_bonds>  (1) 
4

>  <i_lp_mmshare_version>  (1) 
72125

>  <i_m_source_file_index>  (1) 
9

>  <i_f3d_flags>  (1) 
0

>  <num_sample>  (1) 
50

>  <b_lp_Chiralities_Consistent>  (1) 
1

>  <r_epik_Charging_Adjusted_Penalty>  (1) 
0.17413095498699085

>  <r_epik_Ionization_Penalty>  (1) 
0.087068242600636711

>  <r_epik_Ionization_Penalty_Charging>  (1) 
0.087065477493495413

>  <r_epik_Ionization_Penalty_Neutral>  (1) 
2.7651071412945434e-06

>  <r_epik_State_Penalty>  (1) 
0.087065477493495441

>  <r_glide_ring_energy>  (1) 
0

>  <r_i_docking_score>  (1) 
-6.8963668454584885

>  <r_i_glide_ecoul>  (1) 
-1.2112543459660468

>  <r_i_glide_eff_state_penalty>  (1) 
0.087065477493495441

>  <r_i_glide_einternal>  (1) 
3.5128871016043037

>  <r_i_glide_emodel>  (1) 
-42.460690386394987

>  <r_i_glide_emodel_strain>  (1) 
0.069489237289829475

>  <r_i_glide_energy>  (1) 
-29.412927959003579

>  <r_i_glide_erotb>  (1) 
0.51678233388810157

>  <r_i_glide_esite>  (1) 
-0.061667527374717805

>  <r_i_glide_evdw>  (1) 
-28.201673613037531

>  <r_i_glide_gscore>  (1) 
-6.9834323229519839

>  <r_i_glide_gscore_strain>  (1) 
0

>  <r_i_glide_hbond>  (1) 
-0.16830718550245496

>  <r_i_glide_ligand_efficiency>  (1) 
-0.28734861856077037

>  <r_i_glide_ligand_efficiency_ln>  (1) 
-1.6506170397723583

>  <r_i_glide_ligand_efficiency_sa>  (1) 
-0.82885684329539688

>  <r_i_glide_lipo>  (1) 
-3.2696317733277578

>  <r_i_glide_metal>  (1) 
-0

>  <r_i_glide_rewards>  (1) 
-2.4088363380883719

>  <r_lp_Energy>  (1) 
35.754514

>  <s_epik_Chemistry_Notes>  (1) 
This compound has an imine and may undergo hydrolysis.

>  <s_epik_cmdline>  (1) 
J2VwaWtfcHl0aG9uJywgJy1waHQnLCAnMS4wJywgJy1waCcsICc3LjQnLCAnLXRuJywgJzgnLCAnLW1hJywgJzUwMCcsICctaW1hZScsICc8aW5maWxlLm1hZT4nLCAnLW9tYWUnLCAnPG91dGZpbGUubWFlPic=

>  <s_epik_input>  (1) 
RmMxW2NIXWMoW05IMl0pW2NIXWMoYzEyKU49QzNDKD1DKFtDSDJdMilbQ0BIXShPNClbQ0BASF00W0NIM10pW0NIMl1bQ0gyXU4zW0NIMl1bQ0gyXVtDSDJdW0NIM10=

>  <s_glide_docking_method>  (1) 
confgen

>  <s_i_glide_gridfile>  (1) 
gpcr_5ht2c_6bqh_protein_autoprepared_prepared

>  <s_lp_Force_Field>  (1) 
S-OPLS

>  <s_lp_Variant>  (1) 
DiffSBDD_8-1

>  <s_m_source_file>  (1) 
generated_GPCR_5HT2C_ligand_DiffSBDD_2026-06-23_prepared.sdf

>  <GenAI_Model>  (1) 
DiffSBDD

>  <Protein>  (1) 
GPCR_5HT2C

$$$$
DiffSBDD_17
     RDKit          3D

  0  0  0  0  0  0  0  0  0  0999 V3000
M  V30 BEGIN CTAB
M  V30 COUNTS 93 97 0 0 1
M  V30 BEGIN ATOM
M  V30 1 C 42.556453 34.076398 65.259879 0
M  V30 2 C 37.498995 32.382296 60.984237 0 CFG=2
M  V30 3 C 42.773339 31.603752 64.771259 0
M  V30 4 O 40.646799 28.791052 61.547966 0
M  V30 5 C 42.156566 32.399359 67.118071 0
M  V30 6 C 39.363259 27.519099 55.090050 0
M  V30 7 C 38.740164 27.337761 52.686632 0
M  V30 8 C 39.245140 26.819315 53.960733 0
M  V30 9 C 38.348712 33.737741 58.469638 0
M  V30 10 C 39.113826 35.237313 61.231799 0
M  V30 11 N 43.082964 29.305676 63.910060 0
M  V30 12 C 37.693979 35.074546 60.707711 0 CFG=2
M  V30 13 C 40.716001 30.101807 64.212495 0 CFG=1
M  V30 14 C 38.939757 32.205653 61.556773 0
M  V30 15 N 42.618030 27.906606 63.767755 0 CHG=1
M  V30 16 C 40.380441 28.057777 56.984114 0 CFG=2
M  V30 17 C 38.907163 28.904662 55.317221 0 CFG=2
M  V30 18 C 44.945296 27.901578 64.315957 0
M  V30 19 C 42.191155 30.149008 64.739592 0 CFG=2
M  V30 20 O 39.918796 26.966009 56.204635 0
M  V30 21 C 43.678573 27.039224 64.309698 0
M  V30 22 O 39.812328 30.537753 65.197197 0
M  V30 23 N 37.245140 30.138268 57.776348 0 CHG=1
M  V30 24 C 39.353742 29.926340 54.335502 0
M  V30 25 C 36.992834 31.358130 59.928439 0
M  V30 26 C 38.746351 28.637903 52.267151 0
M  V30 27 N 37.000868 33.769733 60.665245 0 CFG=1 CHG=1
M  V30 28 C 39.814696 29.844440 61.107930 0
M  V30 29 S 40.795610 27.737769 58.714427 0 CHG=-1
M  V30 30 C 39.353540 30.842667 62.194909 0 CFG=1
M  V30 31 C 39.245142 29.814502 53.002989 0
M  V30 32 N 40.462983 31.102043 63.146064 0 CHG=1
M  V30 33 C 37.338992 34.417755 59.393602 0 CFG=2
M  V30 34 C 38.078883 28.928604 57.701863 0
M  V30 35 C 37.799532 32.536080 57.767342 0
M  V30 36 C 39.307408 29.138053 56.779487 0 CFG=1
M  V30 37 C 37.780131 31.248174 58.603261 0 CFG=2
M  V30 38 N 44.472448 29.292292 64.416092 0 CHG=1
M  V30 39 C 42.036336 32.674148 65.612057 0
M  V30 40 H 43.637954 34.137021 65.367744 0
M  V30 41 H 42.320301 34.336745 64.227614 0
M  V30 42 H 42.110793 34.842334 65.896728 0
M  V30 43 H 36.881356 32.161051 61.855629 0
M  V30 44 H 43.796812 31.595398 65.143637 0
M  V30 45 H 42.845139 31.967161 63.744915 0
M  V30 46 H 40.796989 28.240352 60.773676 0
M  V30 47 H 43.197625 32.393393 67.441866 0
M  V30 48 H 41.635588 33.162748 67.697242 0
M  V30 49 H 41.715752 31.438585 67.384167 0
M  V30 50 H 38.390880 26.607274 51.974401 0
M  V30 51 H 39.573393 25.790723 53.980865 0
M  V30 52 H 39.332577 33.579775 58.903207 0
M  V30 53 H 38.445132 34.366869 57.589751 0
M  V30 54 H 39.431107 36.263444 61.046002 0
M  V30 55 H 39.151266 35.093523 62.311150 0
M  V30 56 H 39.843714 34.604723 60.738049 0
M  V30 57 H 36.992599 35.812439 61.093329 0
M  V30 58 H 40.398147 29.097987 63.944595 0
M  V30 59 H 39.024778 32.929942 62.364007 0
M  V30 60 H 39.684813 32.473793 60.811603 0
M  V30 61 H 41.741368 27.783101 64.254940 0
M  V30 62 H 41.309889 28.398107 56.522174 0
M  V30 63 H 37.820083 28.899560 55.226257 0
M  V30 64 H 45.470435 27.787284 63.367752 0
M  V30 65 H 45.638081 27.646608 65.118666 0
M  V30 66 H 42.205534 29.736701 65.750130 0
M  V30 67 H 43.791828 26.124238 63.726978 0
M  V30 68 H 43.411944 26.760143 65.329981 0
M  V30 69 H 39.213034 29.827091 65.396904 0
M  V30 70 H 36.331014 29.900434 58.133156 0
M  V30 71 H 39.736315 30.848080 54.750619 0
M  V30 72 H 36.958679 30.375300 60.396682 0
M  V30 73 H 35.950252 31.581294 59.691957 0
M  V30 74 H 38.396852 28.815655 51.260491 0
M  V30 75 H 40.371462 30.352203 60.320852 0
M  V30 76 H 38.944142 29.387238 60.649180 0
M  V30 77 H 38.515224 30.431619 62.760637 0
M  V30 78 H 39.544267 30.670308 52.414461 0
M  V30 79 H 41.304118 31.199291 62.599079 0
M  V30 80 H 36.416178 34.740795 58.913935 0
M  V30 81 H 38.339081 28.656278 58.718197 0
M  V30 82 H 37.473313 28.095136 57.345131 0
M  V30 83 H 38.379980 32.352928 56.860979 0
M  V30 84 H 36.845137 32.929803 57.436738 0
M  V30 85 H 39.752972 30.119219 56.943222 0
M  V30 86 H 38.818754 31.029316 58.839045 0
M  V30 87 H 45.028386 29.918482 63.848421 0
M  V30 88 H 40.977918 32.698490 65.364891 0
M  V30 89 H 42.508780 27.740357 62.771541 0
M  V30 90 H 44.450583 29.598747 65.380111 0
M  V30 91 H 37.077250 30.500212 56.845460 0
M  V30 92 H 40.289782 31.973590 63.626013 0
M  V30 93 H 36.005172 33.867305 60.813364 0
M  V30 END ATOM
M  V30 BEGIN BOND
M  V30 1 2 8 6
M  V30 2 1 8 7
M  V30 3 1 12 10
M  V30 4 1 14 2
M  V30 5 1 15 11
M  V30 6 1 17 6
M  V30 7 1 19 3
M  V30 8 1 19 11
M  V30 9 1 19 13
M  V30 10 1 20 6
M  V30 11 1 20 16
M  V30 12 1 21 15
M  V30 13 1 21 18
M  V30 14 1 22 13
M  V30 15 1 24 17
M  V30 16 1 25 2
M  V30 17 2 26 7
M  V30 18 1 27 2
M  V30 19 1 27 12
M  V30 20 1 28 4
M  V30 21 1 29 16
M  V30 22 1 30 14
M  V30 23 1 30 28
M  V30 24 2 31 24
M  V30 25 1 31 26
M  V30 26 1 32 13
M  V30 27 1 32 30
M  V30 28 1 33 9
M  V30 29 1 33 12
M  V30 30 1 33 27
M  V30 31 1 34 23
M  V30 32 1 35 9
M  V30 33 1 36 16
M  V30 34 1 36 17
M  V30 35 1 36 34
M  V30 36 1 37 23
M  V30 37 1 37 25
M  V30 38 1 37 35
M  V30 39 1 38 11
M  V30 40 1 38 18
M  V30 41 1 39 1
M  V30 42 1 39 3
M  V30 43 1 39 5
M  V30 44 1 40 1
M  V30 45 1 41 1
M  V30 46 1 42 1
M  V30 47 1 2 43 CFG=1
M  V30 48 1 44 3
M  V30 49 1 45 3
M  V30 50 1 46 4
M  V30 51 1 47 5
M  V30 52 1 48 5
M  V30 53 1 49 5
M  V30 54 1 50 7
M  V30 55 1 51 8
M  V30 56 1 52 9
M  V30 57 1 53 9
M  V30 58 1 54 10
M  V30 59 1 55 10
M  V30 60 1 56 10
M  V30 61 1 12 57 CFG=1
M  V30 62 1 13 58 CFG=3
M  V30 63 1 59 14
M  V30 64 1 60 14
M  V30 65 1 61 15
M  V30 66 1 16 62 CFG=3
M  V30 67 1 17 63 CFG=1
M  V30 68 1 64 18
M  V30 69 1 65 18
M  V30 70 1 19 66 CFG=1
M  V30 71 1 67 21
M  V30 72 1 68 21
M  V30 73 1 69 22
M  V30 74 1 70 23
M  V30 75 1 71 24
M  V30 76 1 72 25
M  V30 77 1 73 25
M  V30 78 1 74 26
M  V30 79 1 75 28
M  V30 80 1 76 28
M  V30 81 1 30 77 CFG=1
M  V30 82 1 78 31
M  V30 83 1 79 32
M  V30 84 1 33 80 CFG=3
M  V30 85 1 81 34
M  V30 86 1 82 34
M  V30 87 1 83 35
M  V30 88 1 84 35
M  V30 89 1 36 85 CFG=3
M  V30 90 1 37 86 CFG=1
M  V30 91 1 87 38
M  V30 92 1 88 39
M  V30 93 1 89 15
M  V30 94 1 90 38
M  V30 95 1 91 23
M  V30 96 1 92 32
M  V30 97 1 27 93 CFG=1
M  V30 END BOND
M  V30 END CTAB
M  END
>  <i_epik_Tot_Q>  (1) 
4

>  <i_epik_Tot_abs_Q>  (1) 
6

>  <i_i_glide_confnum>  (1) 
2980

>  <i_i_glide_lignum>  (1) 
35

>  <i_i_glide_posenum>  (1) 
204

>  <i_i_glide_rotatable_bonds>  (1) 
14

>  <i_lp_mmshare_version>  (1) 
72125

>  <i_m_source_file_index>  (1) 
18

>  <i_f3d_flags>  (1) 
0

>  <num_sample>  (1) 
50

>  <b_lp_Chiralities_Consistent>  (1) 
1

>  <r_epik_Charging_Adjusted_Penalty>  (1) 
1.6052319346045403

>  <r_epik_Ionization_Penalty>  (1) 
1.3756208669108916

>  <r_epik_Ionization_Penalty_Charging>  (1) 
0.71181796891070681

>  <r_epik_Ionization_Penalty_Neutral>  (1) 
0.66380289800018477

>  <r_epik_State_Penalty>  (1) 
0.89341396569383336

>  <r_glide_ring_energy>  (1) 
0.0045750838620950583

>  <r_i_docking_score>  (1) 
-6.8723059304618541

>  <r_i_glide_ecoul>  (1) 
-9.9433103294324159

>  <r_i_glide_eff_state_penalty>  (1) 
0.89341396569383336

>  <r_i_glide_einternal>  (1) 
10.210105268777907

>  <r_i_glide_emodel>  (1) 
-71.776976659739233

>  <r_i_glide_emodel_strain>  (1) 
3.8504451130870905

>  <r_i_glide_energy>  (1) 
-48.674257215065047

>  <r_i_glide_erotb>  (1) 
0.56146573491919982

>  <r_i_glide_esite>  (1) 
-0.12301359081403179

>  <r_i_glide_evdw>  (1) 
-38.730946885632633

>  <r_i_glide_gscore>  (1) 
-7.7657198961556873

>  <r_i_glide_gscore_strain>  (1) 
0

>  <r_i_glide_hbond>  (1) 
-0.24394096685583069

>  <r_i_glide_ligand_efficiency>  (1) 
-0.17621297257594498

>  <r_i_glide_ligand_efficiency_ln>  (1) 
-1.4736174734958796

>  <r_i_glide_ligand_efficiency_sa>  (1) 
-0.59757544900708626

>  <r_i_glide_lipo>  (1) 
-3.7873264058757572

>  <r_i_glide_metal>  (1) 
-0

>  <r_i_glide_rewards>  (1) 
-0.74486077383277294

>  <r_lp_Energy>  (1) 
83.500289999999993

>  <s_epik_Chemistry_Notes>  (1) 
This compound contains an acetal/aminal-like group ( X-CH(R)-Y where X, Y are N, S, or O) that may be acid/base labile, releasing an aldehyde.

>  <s_epik_cmdline>  (1) 
J2VwaWtfcHl0aG9uJywgJy1waHQnLCAnMS4wJywgJy1waCcsICc3LjQnLCAnLXRuJywgJzgnLCAnLW1hJywgJzUwMCcsICctaW1hZScsICc8aW5maWxlLm1hZT4nLCAnLW9tYWUnLCAnPG91dGZpbGUubWFlPic=

>  <s_epik_input>  (1) 
W05IXTFbQ0gyXVtDSDJdW05IXU4xW0NAQEhdKFtDSDJdW0NIXShbQ0gzXSlbQ0gzXSlbQ0BASF0oW09IXSlbTkhdW0NASF0oW0NIMl1bT0hdKVtDSDJdW0NAQEhdMltDSDJdW0NASF0oW0NIMl1bQ0gyXVtDQEBIXShOMjMpW0NIXTNbQ0gzXSlbTkhdW0NIMl1bQ0BASF0oW0NASF0oTzQpW1NIXSlbQ0BIXShDND01KVtDSF09W0NIXVtDSF09W0NIXVtDSF01

>  <s_glide_docking_method>  (1) 
confgen

>  <s_i_glide_gridfile>  (1) 
gpcr_5ht2c_6bqh_protein_autoprepared_prepared

>  <s_lp_Force_Field>  (1) 
S-OPLS

>  <s_lp_Variant>  (1) 
DiffSBDD_17-2

>  <s_m_source_file>  (1) 
generated_GPCR_5HT2C_ligand_DiffSBDD_2026-06-23_prepared.sdf

>  <GenAI_Model>  (1) 
DiffSBDD

>  <Protein>  (1) 
GPCR_5HT2C

$$$$
DiffSBDD_8
     RDKit          3D

  0  0  0  0  0  0  0  0  0  0999 V3000
M  V30 BEGIN CTAB
M  V30 COUNTS 49 52 0 0 1
M  V30 BEGIN ATOM
M  V30 1 C 38.885181 31.523220 56.518229 0
M  V30 2 C 38.432660 31.971142 57.772435 0
M  V30 3 C 37.875404 24.537272 55.851000 0 CFG=1
M  V30 4 C 38.303720 29.663430 58.545393 0
M  V30 5 C 38.754835 29.207444 57.282501 0
M  V30 6 C 38.429352 27.488140 52.278193 0
M  V30 7 C 37.476351 25.903616 56.348032 0 CFG=2
M  V30 8 C 38.281193 27.574034 54.702650 0
M  V30 9 C 39.700475 29.697948 52.100996 0
M  V30 10 C 40.609845 29.234960 50.965189 0
M  V30 11 C 38.231372 27.135304 55.971418 0
M  V30 12 O 38.132142 24.953703 57.199377 0
M  V30 13 C 38.990689 27.770524 57.068602 0
M  V30 14 C 39.948078 31.337846 49.641156 0
M  V30 15 C 37.710605 26.796411 53.518933 0
M  V30 16 C 38.994657 28.668886 54.228323 0
M  V30 17 F 38.045139 28.778572 59.533258 0
M  V30 18 N 39.495241 29.753403 54.931234 0
M  V30 19 N 38.274222 33.334651 58.012087 0
M  V30 20 C 38.137411 31.040319 58.783156 0
M  V30 21 C 39.031661 30.142199 56.270690 0
M  V30 22 C 36.813863 23.483330 55.631090 0
M  V30 23 N 39.106191 28.633184 52.915297 0 CHG=1
M  V30 24 C 41.092544 30.442337 50.141439 0
M  V30 25 H 39.108424 32.238431 55.739808 0
M  V30 26 H 38.777752 24.442184 55.252060 0
M  V30 27 H 37.713525 27.814192 51.522578 0
M  V30 28 H 39.160537 26.824003 51.815203 0
M  V30 29 H 36.445049 26.090380 56.627678 0
M  V30 30 H 38.845145 30.137764 51.626585 0
M  V30 31 H 40.196531 30.467739 52.689762 0
M  V30 32 H 41.463630 28.694044 51.367814 0
M  V30 33 H 40.076242 28.542199 50.313707 0
M  V30 34 H 40.052450 27.633260 56.859009 0
M  V30 35 H 38.822875 27.219337 57.994221 0
M  V30 36 H 40.282265 32.125164 48.969096 0
M  V30 37 H 39.245133 30.747230 49.070133 0
M  V30 38 H 39.408698 31.830359 50.447311 0
M  V30 39 H 36.633948 26.937425 53.454475 0
M  V30 40 H 37.935893 25.737800 53.554017 0
M  V30 41 H 38.270139 33.980304 57.235687 0
M  V30 42 H 37.747296 33.635377 58.819737 0
M  V30 43 H 37.792415 31.381218 59.747246 0
M  V30 44 H 35.887815 23.949479 55.293215 0
M  V30 45 H 37.138525 22.780352 54.863611 0
M  V30 46 H 36.611029 22.938275 56.552954 0
M  V30 47 H 41.786499 31.020323 50.744402 0
M  V30 48 H 41.657776 30.104193 49.276117 0
M  V30 49 H 39.927070 30.457767 54.352356 0
M  V30 END ATOM
M  V30 BEGIN BOND
M  V30 1 1 2 1
M  V30 2 2 5 4
M  V30 3 1 7 3
M  V30 4 1 10 9
M  V30 5 1 11 7
M  V30 6 2 11 8
M  V30 7 1 12 3
M  V30 8 1 12 7
M  V30 9 1 13 5
M  V30 10 1 13 11
M  V30 11 1 15 6
M  V30 12 1 15 8
M  V30 13 1 16 8
M  V30 14 1 17 4
M  V30 15 1 18 16
M  V30 16 1 19 2
M  V30 17 2 20 2
M  V30 18 1 20 4
M  V30 19 2 21 1
M  V30 20 1 21 5
M  V30 21 1 21 18
M  V30 22 1 22 3
M  V30 23 1 23 6
M  V30 24 1 23 9
M  V30 25 2 23 16
M  V30 26 1 24 10
M  V30 27 1 24 14
M  V30 28 1 25 1
M  V30 29 1 3 26 CFG=3
M  V30 30 1 27 6
M  V30 31 1 28 6
M  V30 32 1 7 29 CFG=1
M  V30 33 1 30 9
M  V30 34 1 31 9
M  V30 35 1 32 10
M  V30 36 1 33 10
M  V30 37 1 34 13
M  V30 38 1 35 13
M  V30 39 1 36 14
M  V30 40 1 37 14
M  V30 41 1 38 14
M  V30 42 1 39 15
M  V30 43 1 40 15
M  V30 44 1 41 19
M  V30 45 1 42 19
M  V30 46 1 43 20
M  V30 47 1 44 22
M  V30 48 1 45 22
M  V30 49 1 46 22
M  V30 50 1 47 24
M  V30 51 1 48 24
M  V30 52 1 49 18
M  V30 END BOND
M  V30 END CTAB
M  END
>  <i_epik_Tot_Q>  (1) 
1

>  <i_epik_Tot_abs_Q>  (1) 
1

>  <i_i_glide_confnum>  (1) 
12

>  <i_i_glide_lignum>  (1) 
17

>  <i_i_glide_posenum>  (1) 
142

>  <i_i_glide_rotatable_bonds>  (1) 
4

>  <i_lp_mmshare_version>  (1) 
72125

>  <i_m_source_file_index>  (1) 
9

>  <i_f3d_flags>  (1) 
0

>  <num_sample>  (1) 
50

>  <b_lp_Chiralities_Consistent>  (1) 
1

>  <r_epik_Charging_Adjusted_Penalty>  (1) 
0.17413095498699085

>  <r_epik_Ionization_Penalty>  (1) 
0.087068242600636711

>  <r_epik_Ionization_Penalty_Charging>  (1) 
0.087065477493495413

>  <r_epik_Ionization_Penalty_Neutral>  (1) 
2.7651071412945434e-06

>  <r_epik_State_Penalty>  (1) 
0.087065477493495441

>  <r_glide_ring_energy>  (1) 
0

>  <r_i_docking_score>  (1) 
-6.8629636838268882

>  <r_i_glide_ecoul>  (1) 
-1.2054999769869472

>  <r_i_glide_eff_state_penalty>  (1) 
0.087065477493495441

>  <r_i_glide_einternal>  (1) 
6.9093550130014307

>  <r_i_glide_emodel>  (1) 
-40.215641409215699

>  <r_i_glide_emodel_strain>  (1) 
1.3620181138660286

>  <r_i_glide_energy>  (1) 
-30.229785690400263

>  <r_i_glide_erotb>  (1) 
0.51678233388810157

>  <r_i_glide_esite>  (1) 
-0.052173628880417745

>  <r_i_glide_evdw>  (1) 
-29.024285713413317

>  <r_i_glide_gscore>  (1) 
-6.9500291613203835

>  <r_i_glide_gscore_strain>  (1) 
0

>  <r_i_glide_hbond>  (1) 
0

>  <r_i_glide_ligand_efficiency>  (1) 
-0.28595682015945367

>  <r_i_glide_ligand_efficiency_ln>  (1) 
-1.6426221304227058

>  <r_i_glide_ligand_efficiency_sa>  (1) 
-0.82484220200288982

>  <r_i_glide_lipo>  (1) 
-3.3303576767894212

>  <r_i_glide_metal>  (1) 
-0

>  <r_i_glide_rewards>  (1) 
-2.4522409073199367

>  <r_lp_Energy>  (1) 
35.754514

>  <s_epik_Chemistry_Notes>  (1) 
This compound has an imine and may undergo hydrolysis.

>  <s_epik_cmdline>  (1) 
J2VwaWtfcHl0aG9uJywgJy1waHQnLCAnMS4wJywgJy1waCcsICc3LjQnLCAnLXRuJywgJzgnLCAnLW1hJywgJzUwMCcsICctaW1hZScsICc8aW5maWxlLm1hZT4nLCAnLW9tYWUnLCAnPG91dGZpbGUubWFlPic=

>  <s_epik_input>  (1) 
RmMxW2NIXWMoW05IMl0pW2NIXWMoYzEyKU49QzNDKD1DKFtDSDJdMilbQ0BIXShPNClbQ0BASF00W0NIM10pW0NIMl1bQ0gyXU4zW0NIMl1bQ0gyXVtDSDJdW0NIM10=

>  <s_glide_docking_method>  (1) 
confgen

>  <s_i_glide_gridfile>  (1) 
gpcr_5ht2c_6bqh_protein_autoprepared_prepared

>  <s_lp_Force_Field>  (1) 
S-OPLS

>  <s_lp_Variant>  (1) 
DiffSBDD_8-1

>  <s_m_source_file>  (1) 
generated_GPCR_5HT2C_ligand_DiffSBDD_2026-06-23_prepared.sdf

>  <GenAI_Model>  (1) 
DiffSBDD

>  <Protein>  (1) 
GPCR_5HT2C

$$$$
DiffSBDD_1
     RDKit          3D

  0  0  0  0  0  0  0  0  0  0999 V3000
M  V30 BEGIN CTAB
M  V30 COUNTS 78 81 0 0 1
M  V30 BEGIN ATOM
M  V30 1 C 39.025481 30.039589 60.088805 0
M  V30 2 N 39.093823 28.227972 56.447119 0
M  V30 3 C 37.645337 24.741356 56.253998 0 CFG=1
M  V30 4 C 38.157681 24.960132 54.832170 0
M  V30 5 C 43.865606 27.932032 65.338345 0
M  V30 6 C 39.926177 31.885626 62.355351 0
M  V30 7 C 37.831908 26.058040 57.010713 0
M  V30 8 C 38.249940 27.102538 55.957967 0 CFG=2
M  V30 9 C 40.936583 27.881129 66.354540 0
M  V30 10 N 40.358509 30.505083 62.222449 0
M  V30 11 O 40.687939 36.137738 64.266349 0
M  V30 12 C 39.877644 30.955492 63.538177 0 CFG=1
M  V30 13 C 41.304208 29.302489 66.549142 0 CFG=2
M  V30 14 O 40.226953 30.270085 66.214016 0
M  V30 15 C 42.445181 35.715764 65.796108 0
M  V30 16 C 36.045177 23.071278 55.767690 0
M  V30 17 C 42.074708 29.684624 65.381192 0
M  V30 18 C 40.166809 27.899159 57.415117 0
M  V30 19 C 41.135978 33.841027 64.722816 0
M  V30 20 O 43.685523 29.736617 63.767869 0
M  V30 21 O 39.636758 30.437454 56.375032 0
M  V30 22 C 41.242030 32.728422 65.778393 0
M  V30 23 O 36.274182 24.414249 56.167832 0
M  V30 24 O 41.757751 26.143429 67.733772 0
M  V30 25 P 41.095569 31.066243 64.920432 0 CFG=1 CHG=1
M  V30 26 C 41.083641 35.260964 65.296716 0 CFG=2
M  V30 27 C 43.168731 29.134595 64.842613 0
M  V30 28 C 40.364292 26.129515 54.783214 0
M  V30 29 O 39.953594 29.514316 59.164350 0
M  V30 30 C 38.931758 29.506355 55.995471 0
M  V30 31 C 37.822788 29.768623 54.968284 0
M  V30 32 C 43.407786 26.991328 66.230646 0
M  V30 33 C 42.034977 26.948157 66.847716 0
M  V30 34 C 39.768159 28.143481 58.874788 0
M  V30 35 C 38.848300 26.318817 54.771466 0 CFG=1
M  V30 36 C 39.368123 29.664036 61.545542 0
M  V30 37 H 38.015294 29.704836 59.842721 0
M  V30 38 H 39.000154 31.117946 59.944548 0
M  V30 39 H 38.209248 23.955668 56.762310 0
M  V30 40 H 38.822937 24.142915 54.567730 0
M  V30 41 H 37.324134 24.960430 54.128709 0
M  V30 42 H 44.867269 27.775246 64.962784 0
M  V30 43 H 39.001128 32.114633 61.832641 0
M  V30 44 H 40.771204 32.553402 62.205669 0
M  V30 45 H 38.583875 25.883516 57.775545 0
M  V30 46 H 36.926841 26.360471 57.539548 0
M  V30 47 H 37.292730 27.457954 55.591103 0
M  V30 48 H 40.045344 27.674265 66.948432 0
M  V30 49 H 40.679033 27.653661 65.318764 0
M  V30 50 H 41.000144 37.014137 64.486931 0
M  V30 51 H 38.910023 30.537612 63.802418 0
M  V30 52 H 41.744797 29.527825 67.521992 0
M  V30 53 H 42.821637 35.043203 66.566344 0
M  V30 54 H 43.168138 35.738322 64.978113 0
M  V30 55 H 42.398442 36.710945 66.232215 0
M  V30 56 H 34.972831 22.897443 55.687856 0
M  V30 57 H 36.503475 22.847472 54.805459 0
M  V30 58 H 36.444912 22.375421 56.507545 0
M  V30 59 H 41.078627 28.452956 57.181695 0
M  V30 60 H 40.463597 26.858061 57.315878 0
M  V30 61 H 41.948741 33.756452 64.000215 0
M  V30 62 H 40.214156 33.692130 64.167052 0
M  V30 63 H 44.369711 29.178137 63.427470 0
M  V30 64 H 40.445230 32.838461 66.514727 0
M  V30 65 H 42.187105 32.792215 66.317409 0
M  V30 66 H 40.352166 35.330436 66.102310 0
M  V30 67 H 40.671218 25.443088 55.571135 0
M  V30 68 H 40.723469 25.739406 53.830727 0
M  V30 69 H 40.845094 27.077932 54.967770 0
M  V30 70 H 36.837604 29.691424 55.427184 0
M  V30 71 H 37.918132 30.786271 54.587789 0
M  V30 72 H 37.887693 29.099913 54.111108 0
M  V30 73 H 44.074393 26.185803 66.503868 0
M  V30 74 H 40.407248 27.567974 59.544102 0
M  V30 75 H 38.744563 27.807665 59.049698 0
M  V30 76 H 38.591933 26.826604 53.840726 0
M  V30 77 H 39.687603 28.622510 61.595318 0
M  V30 78 H 38.442458 29.688886 62.097182 0
M  V30 END ATOM
M  V30 BEGIN BOND
M  V30 1 1 4 3
M  V30 2 1 7 3
M  V30 3 1 8 2
M  V30 4 1 8 7
M  V30 5 1 10 6
M  V30 6 1 12 6
M  V30 7 1 12 10
M  V30 8 1 13 9
M  V30 9 1 14 13
M  V30 10 1 17 13
M  V30 11 1 18 2
M  V30 12 1 22 19
M  V30 13 1 23 3
M  V30 14 1 23 16
M  V30 15 1 25 12
M  V30 16 1 25 14
M  V30 17 1 25 17
M  V30 18 1 25 22 CFG=1
M  V30 19 1 26 11
M  V30 20 1 26 15
M  V30 21 1 26 19
M  V30 22 1 27 5
M  V30 23 2 27 17
M  V30 24 1 27 20
M  V30 25 1 29 1
M  V30 26 1 30 2
M  V30 27 2 30 21
M  V30 28 1 31 30
M  V30 29 2 32 5
M  V30 30 1 33 9
M  V30 31 2 33 24
M  V30 32 1 33 32
M  V30 33 1 34 18
M  V30 34 1 34 29
M  V30 35 1 35 4
M  V30 36 1 35 8
M  V30 37 1 35 28
M  V30 38 1 36 1
M  V30 39 1 36 10
M  V30 40 1 37 1
M  V30 41 1 38 1
M  V30 42 1 3 39 CFG=1
M  V30 43 1 40 4
M  V30 44 1 41 4
M  V30 45 1 42 5
M  V30 46 1 43 6
M  V30 47 1 44 6
M  V30 48 1 45 7
M  V30 49 1 46 7
M  V30 50 1 8 47 CFG=3
M  V30 51 1 48 9
M  V30 52 1 49 9
M  V30 53 1 50 11
M  V30 54 1 12 51 CFG=1
M  V30 55 1 13 52 CFG=1
M  V30 56 1 53 15
M  V30 57 1 54 15
M  V30 58 1 55 15
M  V30 59 1 56 16
M  V30 60 1 57 16
M  V30 61 1 58 16
M  V30 62 1 59 18
M  V30 63 1 60 18
M  V30 64 1 61 19
M  V30 65 1 62 19
M  V30 66 1 63 20
M  V30 67 1 64 22
M  V30 68 1 65 22
M  V30 69 1 26 66 CFG=1
M  V30 70 1 67 28
M  V30 71 1 68 28
M  V30 72 1 69 28
M  V30 73 1 70 31
M  V30 74 1 71 31
M  V30 75 1 72 31
M  V30 76 1 73 32
M  V30 77 1 74 34
M  V30 78 1 75 34
M  V30 79 1 35 76 CFG=3
M  V30 80 1 77 36
M  V30 81 1 78 36
M  V30 END BOND
M  V30 END CTAB
M  END
>  <i_epik_Tot_Q>  (1) 
1

>  <i_epik_Tot_abs_Q>  (1) 
1

>  <i_i_glide_confnum>  (1) 
4531

>  <i_i_glide_lignum>  (1) 
7

>  <i_i_glide_posenum>  (1) 
303

>  <i_i_glide_rotatable_bonds>  (1) 
15

>  <i_lp_mmshare_version>  (1) 
72125

>  <i_m_source_file_index>  (1) 
2

>  <i_f3d_flags>  (1) 
0

>  <num_sample>  (1) 
50

>  <b_lp_Chiralities_Consistent>  (1) 
1

>  <r_epik_Charging_Adjusted_Penalty>  (1) 
0.012777702237649643

>  <r_epik_Ionization_Penalty>  (1) 
0.012893064322698497

>  <r_epik_Ionization_Penalty_Charging>  (1) 
0

>  <r_epik_Ionization_Penalty_Neutral>  (1) 
0.012893064322698497

>  <r_epik_State_Penalty>  (1) 
0.012777702237649643

>  <r_glide_ring_energy>  (1) 
1.6816026439138838

>  <r_i_docking_score>  (1) 
-6.8535320526526977

>  <r_i_glide_ecoul>  (1) 
-7.4086546322676519

>  <r_i_glide_eff_state_penalty>  (1) 
0.012777702237649643

>  <r_i_glide_einternal>  (1) 
13.444687226426524

>  <r_i_glide_emodel>  (1) 
-57.585876097567173

>  <r_i_glide_emodel_strain>  (1) 
3.3918196785606085

>  <r_i_glide_energy>  (1) 
-50.039392444546849

>  <r_i_glide_erotb>  (1) 
0.81958699115176215

>  <r_i_glide_esite>  (1) 
0

>  <r_i_glide_evdw>  (1) 
-42.630737812279193

>  <r_i_glide_gscore>  (1) 
-6.8663097548903478

>  <r_i_glide_gscore_strain>  (1) 
0

>  <r_i_glide_hbond>  (1) 
-0.32000000000000001

>  <r_i_glide_ligand_efficiency>  (1) 
-0.19037589035146382

>  <r_i_glide_ligand_efficiency_ln>  (1) 
-1.4952555328507506

>  <r_i_glide_ligand_efficiency_sa>  (1) 
-0.62860733988407413

>  <r_i_glide_lipo>  (1) 
-3.6609791125875231

>  <r_i_glide_metal>  (1) 
-0

>  <r_i_glide_rewards>  (1) 
-0.4620825480004806

>  <r_lp_Energy>  (1) 
33.116859999999996

>  <s_epik_cmdline>  (1) 
J2VwaWtfcHl0aG9uJywgJy1waHQnLCAnMS4wJywgJy1waCcsICc3LjQnLCAnLXRuJywgJzgnLCAnLW1hJywgJzUwMCcsICctaW1hZScsICc8aW5maWxlLm1hZT4nLCAnLW9tYWUnLCAnPG91dGZpbGUubWFlPic=

>  <s_epik_input>  (1) 
W0NIM11PW0NASF0xW0NIMl1bQ0BIXShbQ0gzXSlbQ0BASF0oW0NIMl0xKU4oQyg9TylbQ0gzXSlbQ0gyXVtDSDJdT1tDSDJdW0NIMl1OMltDSDJdW0NIXTJbUEBAK10oTzMpKFtDSDJdW0NIMl1bQ0BIXShbT0hdKVtDSDNdKUMoW0NAQEhdMzQpPUMoW09IXSlbQ0hdPVtDSF1DKD1PKVtDSDJdNA==

>  <s_glide_docking_method>  (1) 
confgen

>  <s_i_glide_gridfile>  (1) 
gpcr_5ht2c_6bqh_protein_autoprepared_prepared

>  <s_lp_Force_Field>  (1) 
S-OPLS

>  <s_lp_Variant>  (1) 
DiffSBDD_1-3

>  <s_m_source_file>  (1) 
generated_GPCR_5HT2C_ligand_DiffSBDD_2026-06-23_prepared.sdf

>  <GenAI_Model>  (1) 
DiffSBDD

>  <Protein>  (1) 
GPCR_5HT2C

$$$$
DiffSBDD_1
     RDKit          3D

  0  0  0  0  0  0  0  0  0  0999 V3000
M  V30 BEGIN CTAB
M  V30 COUNTS 78 81 0 0 1
M  V30 BEGIN ATOM
M  V30 1 C 40.493693 27.920739 60.076948 0
M  V30 2 N 39.596929 28.398489 55.848297 0
M  V30 3 C 38.153702 31.877453 56.515515 0 CFG=1
M  V30 4 C 39.337627 32.178933 55.582355 0
M  V30 5 C 43.199457 28.487227 66.017555 0
M  V30 6 C 39.725940 31.288248 61.113695 0
M  V30 7 C 38.035967 30.350260 56.602152 0
M  V30 8 C 39.406191 29.846056 56.125508 0 CFG=2
M  V30 9 C 41.563436 30.844776 67.166069 0
M  V30 10 N 40.445420 30.051767 61.375094 0
M  V30 11 O 41.892997 35.737742 64.493763 0
M  V30 12 C 39.821692 30.728711 62.509078 0 CFG=1
M  V30 13 C 40.758509 30.479861 65.975477 0 CFG=1
M  V30 14 O 40.212408 31.644121 65.219432 0
M  V30 15 C 40.115098 36.458057 63.054866 0
M  V30 16 C 37.802826 33.662665 58.021288 0
M  V30 17 C 41.722538 30.193828 64.925763 0
M  V30 18 C 40.830620 27.801384 56.395084 0
M  V30 19 C 40.795433 34.024598 63.235113 0
M  V30 20 O 43.467071 29.284322 63.767862 0
M  V30 21 O 37.690644 28.147907 54.612194 0
M  V30 22 C 41.890657 32.963666 63.439305 0
M  V30 23 O 38.424991 32.406061 57.808815 0
M  V30 24 O 41.560175 29.515042 69.119291 0
M  V30 25 P 41.072919 31.302243 63.741588 0 CFG=1 CHG=1
M  V30 26 C 41.284010 35.481192 63.248740 0 CFG=2
M  V30 27 C 42.766534 29.355713 64.904779 0
M  V30 28 C 39.303110 30.568927 53.616913 0
M  V30 29 O 40.429852 28.350797 58.729485 0
M  V30 30 C 38.707862 27.666911 55.107759 0
M  V30 31 C 39.018996 26.180116 54.895592 0
M  V30 32 C 42.831350 28.556110 67.340856 0
M  V30 33 C 41.952092 29.607528 67.958669 0
M  V30 34 C 40.665144 27.278110 57.826353 0
M  V30 35 C 39.846967 30.836547 55.030480 0 CFG=1
M  V30 36 C 39.710565 28.846321 61.007780 0
M  V30 37 H 41.532941 27.818524 60.393952 0
M  V30 38 H 40.045113 26.937970 60.146306 0
M  V30 39 H 37.245205 32.292419 56.083951 0
M  V30 40 H 39.044871 32.872116 54.795574 0
M  V30 41 H 40.128152 32.666479 56.153890 0
M  V30 42 H 43.879455 27.688066 65.759604 0
M  V30 43 H 38.834281 31.138525 60.508153 0
M  V30 44 H 40.415590 32.068789 60.799303 0
M  V30 45 H 37.216939 30.052297 55.952106 0
M  V30 46 H 37.789507 30.006889 57.607554 0
M  V30 47 H 40.044971 30.068508 56.978864 0
M  V30 48 H 42.457616 31.415890 66.910377 0
M  V30 49 H 40.972927 31.485855 67.821628 0
M  V30 50 H 42.045139 36.678848 64.568047 0
M  V30 51 H 38.953580 30.185664 62.881069 0
M  V30 52 H 39.984250 29.730149 66.155878 0
M  V30 53 H 39.602243 36.267361 62.111564 0
M  V30 54 H 39.381030 36.361832 63.855886 0
M  V30 55 H 40.445819 37.495778 63.037122 0
M  V30 56 H 38.138898 34.085364 58.967990 0
M  V30 57 H 38.044652 34.363370 57.221968 0
M  V30 58 H 36.718567 33.561486 58.068737 0
M  V30 59 H 41.632300 28.537644 56.379135 0
M  V30 60 H 41.211184 26.998462 55.770658 0
M  V30 61 H 40.277137 33.834830 62.296099 0
M  V30 62 H 40.045535 33.904654 64.012668 0
M  V30 63 H 44.123615 28.609930 63.869022 0
M  V30 64 H 42.503556 33.213037 64.304599 0
M  V30 65 H 42.552361 32.926046 62.573763 0
M  V30 66 H 42.020316 35.647671 62.462320 0
M  V30 67 H 38.213262 30.559273 53.611534 0
M  V30 68 H 39.632784 31.339085 52.919635 0
M  V30 69 H 39.651548 29.615731 53.221574 0
M  V30 70 H 39.878680 26.050866 54.238074 0
M  V30 71 H 39.198673 25.659192 55.835224 0
M  V30 72 H 38.169150 25.693452 54.415516 0
M  V30 73 H 43.223258 27.810295 68.017343 0
M  V30 74 H 41.578445 26.754647 58.115564 0
M  V30 75 H 39.850202 26.555412 57.881812 0
M  V30 76 H 40.934506 30.853888 54.965382 0
M  V30 77 H 39.503106 28.276125 61.915759 0
M  V30 78 H 38.737709 29.068092 60.566701 0
M  V30 END ATOM
M  V30 BEGIN BOND
M  V30 1 1 4 3
M  V30 2 1 7 3
M  V30 3 1 8 2
M  V30 4 1 8 7
M  V30 5 1 10 6
M  V30 6 1 12 6
M  V30 7 1 12 10
M  V30 8 1 13 9
M  V30 9 1 14 13
M  V30 10 1 17 13
M  V30 11 1 18 2
M  V30 12 1 22 19
M  V30 13 1 23 3
M  V30 14 1 23 16
M  V30 15 1 25 12
M  V30 16 1 25 14
M  V30 17 1 25 17
M  V30 18 1 25 22 CFG=3
M  V30 19 1 26 11
M  V30 20 1 26 15
M  V30 21 1 26 19
M  V30 22 1 27 5
M  V30 23 2 27 17
M  V30 24 1 27 20
M  V30 25 1 29 1
M  V30 26 1 30 2
M  V30 27 2 30 21
M  V30 28 1 31 30
M  V30 29 2 32 5
M  V30 30 1 33 9
M  V30 31 2 33 24
M  V30 32 1 33 32
M  V30 33 1 34 18
M  V30 34 1 34 29
M  V30 35 1 35 4
M  V30 36 1 35 8
M  V30 37 1 35 28
M  V30 38 1 36 1
M  V30 39 1 36 10
M  V30 40 1 37 1
M  V30 41 1 38 1
M  V30 42 1 3 39 CFG=3
M  V30 43 1 40 4
M  V30 44 1 41 4
M  V30 45 1 42 5
M  V30 46 1 43 6
M  V30 47 1 44 6
M  V30 48 1 45 7
M  V30 49 1 46 7
M  V30 50 1 8 47 CFG=1
M  V30 51 1 48 9
M  V30 52 1 49 9
M  V30 53 1 50 11
M  V30 54 1 12 51 CFG=1
M  V30 55 1 13 52 CFG=1
M  V30 56 1 53 15
M  V30 57 1 54 15
M  V30 58 1 55 15
M  V30 59 1 56 16
M  V30 60 1 57 16
M  V30 61 1 58 16
M  V30 62 1 59 18
M  V30 63 1 60 18
M  V30 64 1 61 19
M  V30 65 1 62 19
M  V30 66 1 63 20
M  V30 67 1 64 22
M  V30 68 1 65 22
M  V30 69 1 26 66 CFG=3
M  V30 70 1 67 28
M  V30 71 1 68 28
M  V30 72 1 69 28
M  V30 73 1 70 31
M  V30 74 1 71 31
M  V30 75 1 72 31
M  V30 76 1 73 32
M  V30 77 1 74 34
M  V30 78 1 75 34
M  V30 79 1 35 76 CFG=3
M  V30 80 1 77 36
M  V30 81 1 78 36
M  V30 END BOND
M  V30 END CTAB
M  END
>  <i_epik_Tot_Q>  (1) 
1

>  <i_epik_Tot_abs_Q>  (1) 
1

>  <i_i_glide_confnum>  (1) 
2521

>  <i_i_glide_lignum>  (1) 
8

>  <i_i_glide_posenum>  (1) 
222

>  <i_i_glide_rotatable_bonds>  (1) 
15

>  <i_lp_mmshare_version>  (1) 
72125

>  <i_m_source_file_index>  (1) 
2

>  <i_f3d_flags>  (1) 
0

>  <num_sample>  (1) 
50

>  <b_lp_Chiralities_Consistent>  (1) 
1

>  <r_epik_Charging_Adjusted_Penalty>  (1) 
0.012777702237649643

>  <r_epik_Ionization_Penalty>  (1) 
0.012893064322698497

>  <r_epik_Ionization_Penalty_Charging>  (1) 
0

>  <r_epik_Ionization_Penalty_Neutral>  (1) 
0.012893064322698497

>  <r_epik_State_Penalty>  (1) 
0.012777702237649643

>  <r_glide_ring_energy>  (1) 
1.0866904989986343

>  <r_i_docking_score>  (1) 
-6.8477409231766373

>  <r_i_glide_ecoul>  (1) 
-7.9578394265398469

>  <r_i_glide_eff_state_penalty>  (1) 
0.012777702237649643

>  <r_i_glide_einternal>  (1) 
14.342438036961855

>  <r_i_glide_emodel>  (1) 
-66.120274713720306

>  <r_i_glide_emodel_strain>  (1) 
1.2363489724245795

>  <r_i_glide_energy>  (1) 
-52.294125526854138

>  <r_i_glide_erotb>  (1) 
0.81958699115176215

>  <r_i_glide_esite>  (1) 
-0.00082195242316544434

>  <r_i_glide_evdw>  (1) 
-44.33628610031429

>  <r_i_glide_gscore>  (1) 
-6.8605186254142874

>  <r_i_glide_gscore_strain>  (1) 
0

>  <r_i_glide_hbond>  (1) 
-0.47391183950933868

>  <r_i_glide_ligand_efficiency>  (1) 
-0.19021502564379547

>  <r_i_glide_ligand_efficiency_ln>  (1) 
-1.4939920648573117

>  <r_i_glide_ligand_efficiency_sa>  (1) 
-0.62807617632243862

>  <r_i_glide_lipo>  (1) 
-3.1926738706597417

>  <r_i_glide_metal>  (1) 
-0

>  <r_i_glide_rewards>  (1) 
-0.602207734977111

>  <r_lp_Energy>  (1) 
26.969071

>  <s_epik_cmdline>  (1) 
J2VwaWtfcHl0aG9uJywgJy1waHQnLCAnMS4wJywgJy1waCcsICc3LjQnLCAnLXRuJywgJzgnLCAnLW1hJywgJzUwMCcsICctaW1hZScsICc8aW5maWxlLm1hZT4nLCAnLW9tYWUnLCAnPG91dGZpbGUubWFlPic=

>  <s_epik_input>  (1) 
W0NIM11PW0NASF0xW0NIMl1bQ0BIXShbQ0gzXSlbQ0BASF0oW0NIMl0xKU4oQyg9TylbQ0gzXSlbQ0gyXVtDSDJdT1tDSDJdW0NIMl1OMltDSDJdW0NIXTJbUEBAK10oTzMpKFtDSDJdW0NIMl1bQ0BIXShbT0hdKVtDSDNdKUMoW0NAQEhdMzQpPUMoW09IXSlbQ0hdPVtDSF1DKD1PKVtDSDJdNA==

>  <s_glide_docking_method>  (1) 
confgen

>  <s_i_glide_gridfile>  (1) 
gpcr_5ht2c_6bqh_protein_autoprepared_prepared

>  <s_lp_Force_Field>  (1) 
S-OPLS

>  <s_lp_Variant>  (1) 
DiffSBDD_1-4

>  <s_m_source_file>  (1) 
generated_GPCR_5HT2C_ligand_DiffSBDD_2026-06-23_prepared.sdf

>  <GenAI_Model>  (1) 
DiffSBDD

>  <Protein>  (1) 
GPCR_5HT2C

$$$$
DiffSBDD_13
     RDKit          3D

  0  0  0  0  0  0  0  0  0  0999 V3000
M  V30 BEGIN CTAB
M  V30 COUNTS 80 81 0 0 1
M  V30 BEGIN ATOM
M  V30 1 N 40.072889 28.371364 58.884929 0
M  V30 2 C 38.884719 30.859373 57.356517 0 CFG=2
M  V30 3 O 41.137877 35.912098 62.388600 0
M  V30 4 C 37.943096 24.680668 56.811729 0
M  V30 5 C 40.130546 30.710210 55.043925 0
M  V30 6 C 38.859688 31.546080 62.357639 0
M  V30 7 C 36.160523 38.654411 62.049755 0
M  V30 8 C 37.238648 30.618375 59.272727 0
M  V30 9 C 38.773306 28.066895 53.662178 0
M  V30 10 O 37.821299 31.027454 61.541903 0
M  V30 11 C 37.666703 31.698988 60.294875 0 CFG=2
M  V30 12 N 38.325532 30.022861 58.474885 0
M  V30 13 O 39.621384 37.152438 63.646701 0
M  V30 14 C 37.672993 27.010790 53.235683 0
M  V30 15 C 38.518660 26.604752 55.447798 0
M  V30 16 C 37.822555 37.221831 61.057356 0 CFG=1
M  V30 17 C 38.650004 25.892573 56.652063 0
M  V30 18 C 37.903251 31.846987 56.664289 0
M  V30 19 C 39.216336 27.885463 55.182241 0 CFG=2
M  V30 20 C 37.027612 34.102511 59.703010 0
M  V30 21 C 36.257484 35.341628 60.167756 0
M  V30 22 C 39.341117 29.502862 59.405134 0
M  V30 23 C 40.078232 36.841109 62.351310 0
M  V30 24 C 36.979540 36.669870 59.876053 0
M  V30 25 O 38.667124 28.944546 55.939256 0
M  V30 26 C 39.584862 29.974080 56.285821 0 CFG=2
M  V30 27 C 38.527713 33.096937 56.023121 0
M  V30 28 C 37.024640 24.937735 54.567767 0
M  V30 29 F 38.045082 23.982801 57.960768 0
M  V30 30 O 36.989205 37.503944 62.179970 0
M  V30 31 C 37.732267 26.148040 54.445080 0
M  V30 32 C 38.947265 36.245535 61.487985 0
M  V30 33 C 37.128153 24.199588 55.762663 0
M  V30 34 O 41.112570 28.137779 59.855194 0
M  V30 35 C 36.646696 32.836433 60.486611 0
M  V30 36 H 39.529317 27.520469 58.928833 0
M  V30 37 H 39.645132 31.508417 57.767768 0
M  V30 38 H 41.889062 36.331698 62.781089 0
M  V30 39 H 40.664311 31.614934 55.328572 0
M  V30 40 H 40.844062 30.106450 54.493335 0
M  V30 41 H 39.336293 30.979990 54.349893 0
M  V30 42 H 38.923767 30.957227 63.273189 0
M  V30 43 H 39.826060 31.478968 61.856616 0
M  V30 44 H 38.680685 32.588465 62.624127 0
M  V30 45 H 35.681820 38.865218 63.006610 0
M  V30 46 H 36.737095 39.536313 61.767537 0
M  V30 47 H 35.365626 38.513887 61.317971 0
M  V30 48 H 36.435915 30.962212 58.628227 0
M  V30 49 H 36.746697 29.818073 59.826955 0
M  V30 50 H 38.442595 29.080523 53.439239 0
M  V30 51 H 39.645111 27.892645 53.032192 0
M  V30 52 H 38.622937 32.121864 59.981828 0
M  V30 53 H 40.301307 37.624343 64.113013 0
M  V30 54 H 37.947162 26.537769 52.299674 0
M  V30 55 H 36.687327 27.467489 53.144879 0
M  V30 56 H 38.293463 38.151218 60.733284 0
M  V30 57 H 39.278545 26.266370 57.443248 0
M  V30 58 H 37.245417 31.331465 55.961784 0
M  V30 59 H 37.255751 32.293997 57.403495 0
M  V30 60 H 40.290920 27.755815 55.320860 0
M  V30 61 H 38.096396 34.273132 59.806836 0
M  V30 62 H 36.852880 33.970101 58.637614 0
M  V30 63 H 35.288951 35.337463 59.665920 0
M  V30 64 H 36.045383 35.277788 61.234335 0
M  V30 65 H 38.866204 29.138309 60.318182 0
M  V30 66 H 40.026912 30.294305 59.708854 0
M  V30 67 H 40.445146 37.743984 61.872146 0
M  V30 68 H 37.601514 36.566980 58.986850 0
M  V30 69 H 36.227243 37.401733 59.594475 0
M  V30 70 H 40.445118 29.505038 56.747817 0
M  V30 71 H 37.866088 33.957913 56.125710 0
M  V30 72 H 39.473746 33.337750 56.502311 0
M  V30 73 H 38.703173 32.974927 54.957851 0
M  V30 74 H 36.404739 24.582244 53.759582 0
M  V30 75 H 38.521947 35.372990 61.985373 0
M  V30 76 H 39.417909 35.875655 60.576984 0
M  V30 77 H 36.586504 23.272323 55.876640 0
M  V30 78 H 41.897484 28.137633 59.324542 0
M  V30 79 H 35.636383 32.509877 60.236897 0
M  V30 80 H 36.615719 33.095662 61.545109 0
M  V30 END ATOM
M  V30 BEGIN BOND
M  V30 1 1 10 6
M  V30 2 1 11 8
M  V30 3 1 11 10
M  V30 4 1 12 2
M  V30 5 1 12 8
M  V30 6 1 14 9
M  V30 7 2 17 4
M  V30 8 1 17 15
M  V30 9 1 18 2
M  V30 10 1 19 9
M  V30 11 1 19 15
M  V30 12 1 21 20
M  V30 13 1 22 1
M  V30 14 1 22 12
M  V30 15 1 23 3
M  V30 16 1 23 13
M  V30 17 1 24 16
M  V30 18 1 24 21
M  V30 19 1 25 19
M  V30 20 1 26 2
M  V30 21 1 26 5
M  V30 22 1 26 25
M  V30 23 1 27 18
M  V30 24 1 29 4
M  V30 25 1 30 7
M  V30 26 1 30 16
M  V30 27 1 31 14
M  V30 28 2 31 15
M  V30 29 1 31 28
M  V30 30 1 32 16
M  V30 31 1 32 23
M  V30 32 1 33 4
M  V30 33 2 33 28
M  V30 34 1 34 1
M  V30 35 1 35 11
M  V30 36 1 35 20
M  V30 37 1 36 1
M  V30 38 1 2 37 CFG=1
M  V30 39 1 38 3
M  V30 40 1 39 5
M  V30 41 1 40 5
M  V30 42 1 41 5
M  V30 43 1 42 6
M  V30 44 1 43 6
M  V30 45 1 44 6
M  V30 46 1 45 7
M  V30 47 1 46 7
M  V30 48 1 47 7
M  V30 49 1 48 8
M  V30 50 1 49 8
M  V30 51 1 50 9
M  V30 52 1 51 9
M  V30 53 1 11 52 CFG=3
M  V30 54 1 53 13
M  V30 55 1 54 14
M  V30 56 1 55 14
M  V30 57 1 16 56 CFG=3
M  V30 58 1 57 17
M  V30 59 1 58 18
M  V30 60 1 59 18
M  V30 61 1 19 60 CFG=3
M  V30 62 1 61 20
M  V30 63 1 62 20
M  V30 64 1 63 21
M  V30 65 1 64 21
M  V30 66 1 65 22
M  V30 67 1 66 22
M  V30 68 1 67 23
M  V30 69 1 68 24
M  V30 70 1 69 24
M  V30 71 1 26 70 CFG=1
M  V30 72 1 71 27
M  V30 73 1 72 27
M  V30 74 1 73 27
M  V30 75 1 74 28
M  V30 76 1 75 32
M  V30 77 1 76 32
M  V30 78 1 77 33
M  V30 79 1 78 34
M  V30 80 1 79 35
M  V30 81 1 80 35
M  V30 END BOND
M  V30 END CTAB
M  END
>  <i_epik_Tot_Q>  (1) 
0

>  <i_epik_Tot_abs_Q>  (1) 
0

>  <i_i_glide_confnum>  (1) 
7603

>  <i_i_glide_lignum>  (1) 
26

>  <i_i_glide_posenum>  (1) 
43

>  <i_i_glide_rotatable_bonds>  (1) 
21

>  <i_lp_mmshare_version>  (1) 
72125

>  <i_m_source_file_index>  (1) 
14

>  <i_f3d_flags>  (1) 
0

>  <num_sample>  (1) 
50

>  <b_lp_Chiralities_Consistent>  (1) 
1

>  <r_epik_Charging_Adjusted_Penalty>  (1) 
0.6814092300501583

>  <r_epik_Ionization_Penalty>  (1) 
0.68170603093061677

>  <r_epik_Ionization_Penalty_Charging>  (1) 
0

>  <r_epik_Ionization_Penalty_Neutral>  (1) 
0.68170603093061677

>  <r_epik_State_Penalty>  (1) 
0.6814092300501583

>  <r_glide_ring_energy>  (1) 
0

>  <r_i_docking_score>  (1) 
-6.8375711332212035

>  <r_i_glide_ecoul>  (1) 
-5.9581600416891813

>  <r_i_glide_eff_state_penalty>  (1) 
0.6814092300501583

>  <r_i_glide_einternal>  (1) 
13.341581750528846

>  <r_i_glide_emodel>  (1) 
-62.408336944343191

>  <r_i_glide_emodel_strain>  (1) 
3.1266058794721658

>  <r_i_glide_energy>  (1) 
-50.51833973856116

>  <r_i_glide_erotb>  (1) 
1.1405850695777229

>  <r_i_glide_esite>  (1) 
0

>  <r_i_glide_evdw>  (1) 
-44.560179696871977

>  <r_i_glide_gscore>  (1) 
-7.5189803632713614

>  <r_i_glide_gscore_strain>  (1) 
0

>  <r_i_glide_hbond>  (1) 
-0.4799273729646214

>  <r_i_glide_ligand_efficiency>  (1) 
-0.19535917523489152

>  <r_i_glide_ligand_efficiency_ln>  (1) 
-1.5009986154571899

>  <r_i_glide_ligand_efficiency_sa>  (1) 
-0.63903281649708288

>  <r_i_glide_lipo>  (1) 
-3.733921168312528

>  <r_i_glide_metal>  (1) 
-0

>  <r_i_glide_rewards>  (1) 
-1.3239839004749603

>  <r_lp_Energy>  (1) 
18.435863999999999

>  <s_epik_Chemistry_Notes>  (1) 
This compound contains an acetal/aminal-like group ( X-CH(R)-Y where X, Y are N, S, or O) that may be acid/base labile, releasing an aldehyde. This compound has a N-S or N-O group and may undergo hydrolysis at high or low pH.

>  <s_epik_cmdline>  (1) 
J2VwaWtfcHl0aG9uJywgJy1waHQnLCAnMS4wJywgJy1waCcsICc3LjQnLCAnLXRuJywgJzgnLCAnLW1hJywgJzUwMCcsICctaW1hZScsICc8aW5maWxlLm1hZT4nLCAnLW9tYWUnLCAnPG91dGZpbGUubWFlPic=

>  <s_epik_input>  (1) 
W09IXVtDSF0oW09IXSlbQ0gyXVtDQEhdKE9bQ0gzXSlbQ0gyXVtDSDJdW0NIMl1bQ0gyXVtDQEBIXShPW0NIM10pW0NIMl1OKFtDSDJdW05IXVtPSF0pW0NASF0oW0NIMl1bQ0gzXSlbQ0BIXShbQ0gzXSlPW0NAQEhdMVtDSDJdW0NIMl1jKGMxMilbY0hdW2NIXWMoRilbY0hdMg==

>  <s_glide_docking_method>  (1) 
confgen

>  <s_i_glide_gridfile>  (1) 
gpcr_5ht2c_6bqh_protein_autoprepared_prepared

>  <s_lp_Force_Field>  (1) 
S-OPLS

>  <s_lp_Variant>  (1) 
DiffSBDD_13-3

>  <s_m_source_file>  (1) 
generated_GPCR_5HT2C_ligand_DiffSBDD_2026-06-23_prepared.sdf

>  <GenAI_Model>  (1) 
DiffSBDD

>  <Protein>  (1) 
GPCR_5HT2C

$$$$
DiffSBDD_30
     RDKit          3D

  0  0  0  0  0  0  0  0  0  0999 V3000
M  V30 BEGIN CTAB
M  V30 COUNTS 75 78 0 0 1
M  V30 BEGIN ATOM
M  V30 1 C 41.383498 30.217555 64.877024 0 CFG=2
M  V30 2 N 39.128626 31.059395 60.455763 0 CFG=2 CHG=1
M  V30 3 C 39.245139 29.936949 52.766818 0
M  V30 4 O 43.759539 30.416054 64.925387 0
M  V30 5 C 41.260432 31.683642 65.354007 0
M  V30 6 C 38.919290 27.627296 58.263562 0 CFG=1
M  V30 7 N 38.332913 28.676276 59.136863 0
M  V30 8 C 37.866134 31.082423 59.628917 0 CFG=1
M  V30 9 O 41.638936 29.143889 62.708681 0
M  V30 10 C 41.313484 28.319982 58.683031 0
M  V30 11 C 37.619037 32.451648 58.909743 0
M  V30 12 C 37.637382 24.529607 56.726850 0
M  V30 13 O 38.430169 25.679799 56.952440 0
M  V30 14 C 37.819358 29.931133 58.569771 0 CFG=2
M  V30 15 C 40.023946 30.936494 62.736043 0 CFG=1
M  V30 16 C 40.277937 27.205326 58.821871 0
M  V30 17 C 39.088458 30.250323 61.707969 0
M  V30 18 C 42.784019 29.693227 65.233365 0
M  V30 19 O 38.516754 32.658269 57.812009 0
M  V30 20 O 36.465810 29.737594 58.196552 0
M  V30 21 C 39.673477 32.372085 60.868018 0
M  V30 22 O 42.237647 28.137671 57.861840 0 CHG=-1
M  V30 23 C 38.292880 31.712728 56.774469 0 CFG=2
M  V30 24 C 38.619327 30.332501 57.322516 0
M  V30 25 C 38.990009 32.024418 55.440151 0 CFG=2
M  V30 26 C 40.045043 28.922787 50.273956 0
M  V30 27 C 40.045145 30.717020 51.912996 0
M  V30 28 C 38.848367 28.641450 52.373574 0
M  V30 29 C 41.074145 30.013132 63.372255 0
M  V30 30 O 42.845138 28.586734 65.813607 0 CHG=-1
M  V30 31 C 38.776914 30.501224 54.083513 0 CFG=2
M  V30 32 C 40.695198 32.062798 61.944415 0
M  V30 33 C 39.249998 28.135531 51.126391 0
M  V30 34 C 40.445262 30.210098 50.667915 0
M  V30 35 O 41.154539 29.337751 59.396222 0
M  V30 36 C 37.999868 26.420786 58.080830 0
M  V30 37 C 38.145030 31.881756 54.172020 0
M  V30 38 O 39.834273 30.924203 54.983445 0
M  V30 39 H 40.672830 29.611070 65.438237 0
M  V30 40 H 41.782125 32.371974 64.688891 0
M  V30 41 H 40.220023 31.996220 65.431455 0
M  V30 42 H 41.695526 31.814737 66.345985 0
M  V30 43 H 39.135582 27.969134 57.260268 0
M  V30 44 H 37.635642 28.268808 59.748620 0
M  V30 45 H 37.034348 30.951629 60.322932 0
M  V30 46 H 37.679420 33.305246 59.580906 0
M  V30 47 H 36.587546 32.498727 58.567501 0
M  V30 48 H 38.006537 24.005220 55.845568 0
M  V30 49 H 37.687370 23.845151 57.575699 0
M  V30 50 H 36.594171 24.795273 56.547938 0
M  V30 51 H 39.395261 31.365903 63.512558 0
M  V30 52 H 40.147674 26.955661 59.871886 0
M  V30 53 H 40.645096 26.318010 58.304851 0
M  V30 54 H 38.082026 30.221707 62.125117 0
M  V30 55 H 39.370577 29.217584 61.500578 0
M  V30 56 H 36.141897 30.481135 57.685884 0
M  V30 57 H 40.091028 32.938312 60.038208 0
M  V30 58 H 38.888656 32.972710 61.331011 0
M  V30 59 H 37.245137 31.712331 56.541307 0
M  V30 60 H 39.690289 30.280914 57.506797 0
M  V30 61 H 38.382481 29.618861 56.547306 0
M  V30 62 H 39.535382 32.967540 55.452659 0
M  V30 63 H 40.353312 28.537954 49.320802 0
M  V30 64 H 40.346443 31.709959 52.211082 0
M  V30 65 H 38.229496 28.041611 53.025607 0
M  V30 66 H 38.114819 29.765803 54.537141 0
M  V30 67 H 41.627833 31.732249 61.483093 0
M  V30 68 H 40.919326 32.934959 62.558212 0
M  V30 69 H 38.946078 27.144235 50.820521 0
M  V30 70 H 41.057170 30.811861 50.011504 0
M  V30 71 H 38.045113 25.791113 58.967764 0
M  V30 72 H 36.972789 26.745219 57.913116 0
M  V30 73 H 37.065097 31.874777 54.317021 0
M  V30 74 H 38.445013 32.537794 53.361957 0
M  V30 75 H 39.840593 30.595208 59.888498 0
M  V30 END ATOM
M  V30 BEGIN BOND
M  V30 1 1 5 1
M  V30 2 1 7 6
M  V30 3 1 8 2
M  V30 4 1 11 8
M  V30 5 1 13 12
M  V30 6 1 14 7
M  V30 7 1 14 8
M  V30 8 1 16 6
M  V30 9 1 16 10
M  V30 10 1 17 2
M  V30 11 1 17 15
M  V30 12 1 18 1
M  V30 13 2 18 4
M  V30 14 1 19 11
M  V30 15 1 14 20 CFG=3
M  V30 16 1 21 2
M  V30 17 1 22 10
M  V30 18 1 23 19
M  V30 19 1 24 14
M  V30 20 1 24 23
M  V30 21 1 25 23
M  V30 22 1 27 3
M  V30 23 2 28 3
M  V30 24 1 29 1
M  V30 25 2 29 9
M  V30 26 1 29 15
M  V30 27 1 30 18
M  V30 28 1 31 3
M  V30 29 1 32 15
M  V30 30 1 32 21
M  V30 31 2 33 26
M  V30 32 1 33 28
M  V30 33 1 34 26
M  V30 34 2 34 27
M  V30 35 2 35 10
M  V30 36 1 36 6
M  V30 37 1 36 13
M  V30 38 1 37 25
M  V30 39 1 37 31
M  V30 40 1 38 25
M  V30 41 1 38 31
M  V30 42 1 1 39 CFG=1
M  V30 43 1 40 5
M  V30 44 1 41 5
M  V30 45 1 42 5
M  V30 46 1 6 43 CFG=3
M  V30 47 1 44 7
M  V30 48 1 8 45 CFG=1
M  V30 49 1 46 11
M  V30 50 1 47 11
M  V30 51 1 48 12
M  V30 52 1 49 12
M  V30 53 1 50 12
M  V30 54 1 15 51 CFG=1
M  V30 55 1 52 16
M  V30 56 1 53 16
M  V30 57 1 54 17
M  V30 58 1 55 17
M  V30 59 1 56 20
M  V30 60 1 57 21
M  V30 61 1 58 21
M  V30 62 1 23 59 CFG=3
M  V30 63 1 60 24
M  V30 64 1 61 24
M  V30 65 1 25 62 CFG=1
M  V30 66 1 63 26
M  V30 67 1 64 27
M  V30 68 1 65 28
M  V30 69 1 31 66 CFG=1
M  V30 70 1 67 32
M  V30 71 1 68 32
M  V30 72 1 69 33
M  V30 73 1 70 34
M  V30 74 1 71 36
M  V30 75 1 72 36
M  V30 76 1 73 37
M  V30 77 1 74 37
M  V30 78 1 2 75 CFG=3
M  V30 END BOND
M  V30 END CTAB
M  END
>  <i_epik_Tot_Q>  (1) 
-1

>  <i_epik_Tot_abs_Q>  (1) 
3

>  <i_i_glide_confnum>  (1) 
3146

>  <i_i_glide_lignum>  (1) 
67

>  <i_i_glide_posenum>  (1) 
270

>  <i_i_glide_rotatable_bonds>  (1) 
13

>  <i_lp_mmshare_version>  (1) 
72125

>  <i_m_source_file_index>  (1) 
31

>  <i_f3d_flags>  (1) 
0

>  <num_sample>  (1) 
50

>  <b_lp_Chiralities_Consistent>  (1) 
1

>  <r_epik_Charging_Adjusted_Penalty>  (1) 
0.42059132601078875

>  <r_epik_Ionization_Penalty>  (1) 
0.042345838263638087

>  <r_epik_Ionization_Penalty_Charging>  (1) 
0.028527830839106344

>  <r_epik_Ionization_Penalty_Neutral>  (1) 
0.013818007424531742

>  <r_epik_State_Penalty>  (1) 
0.39206349517168243

>  <r_glide_ring_energy>  (1) 
0

>  <r_i_docking_score>  (1) 
-6.835924216364309

>  <r_i_glide_ecoul>  (1) 
-4.963892013325685

>  <r_i_glide_eff_state_penalty>  (1) 
0.39206349517168243

>  <r_i_glide_einternal>  (1) 
37.400891755105619

>  <r_i_glide_emodel>  (1) 
-40.766336817982719

>  <r_i_glide_emodel_strain>  (1) 
5.1639752502369447

>  <r_i_glide_energy>  (1) 
-47.14593785372368

>  <r_i_glide_erotb>  (1) 
0.65218633798694536

>  <r_i_glide_esite>  (1) 
-0.055469327727550935

>  <r_i_glide_evdw>  (1) 
-42.182045840397997

>  <r_i_glide_gscore>  (1) 
-7.2279877115359916

>  <r_i_glide_gscore_strain>  (1) 
0.29099381255923618

>  <r_i_glide_hbond>  (1) 
-0.41865845108737132

>  <r_i_glide_ligand_efficiency>  (1) 
-0.17989274253590287

>  <r_i_glide_ligand_efficiency_ln>  (1) 
-1.4740263535648519

>  <r_i_glide_ligand_efficiency_sa>  (1) 
-0.60479497626732337

>  <r_i_glide_lipo>  (1) 
-3.4982647409207765

>  <r_i_glide_metal>  (1) 
-0

>  <r_i_glide_rewards>  (1) 
-1.3450892483277221

>  <r_lp_Energy>  (1) 
35.46461

>  <r_lp_tautomer_probability>  (1) 
0.99999996000000102

>  <s_epik_cmdline>  (1) 
J2VwaWtfcHl0aG9uJywgJy1waHQnLCAnMS4wJywgJy1waCcsICc3LjQnLCAnLXRuJywgJzgnLCAnLW1hJywgJzUwMCcsICctaW1hZScsICc8aW5maWxlLm1hZT4nLCAnLW9tYWUnLCAnPG91dGZpbGUubWFlPic=

>  <s_epik_input>  (1) 
Tz1DKFtPSF0pW0NAQEhdKFtDSDNdKUMoPU8pW0NAQEhdKFtDSDJdW0NIMl0xKVtDSDJdTjFbQ0BIXShbQ0BdMihbT0hdKVtOSF1bQ0BASF0oW0NIMl1DKD1PKVtPSF0pW0NIMl1PW0NIM10pW0NIMl1PW0NASF0oW0NIMl0yKVtDQEBIXTNbQ0gyXVtDSF0oTzMpYzRbY0hdW2NIXVtjSF1bY0hdW2NIXTQ=

>  <s_glide_docking_method>  (1) 
confgen

>  <s_i_glide_gridfile>  (1) 
gpcr_5ht2c_6bqh_protein_autoprepared_prepared

>  <s_lp_Force_Field>  (1) 
S-OPLS

>  <s_lp_Variant>  (1) 
DiffSBDD_30-2

>  <s_m_source_file>  (1) 
generated_GPCR_5HT2C_ligand_DiffSBDD_2026-06-23_prepared.sdf

>  <GenAI_Model>  (1) 
DiffSBDD

>  <Protein>  (1) 
GPCR_5HT2C

$$$$
DiffSBDD_40
     RDKit          3D

  0  0  0  0  0  0  0  0  0  0999 V3000
M  V30 BEGIN CTAB
M  V30 COUNTS 59 62 0 0 1
M  V30 BEGIN ATOM
M  V30 1 C 39.255943 27.064701 57.311737 0 CFG=1
M  V30 2 C 39.775560 30.025431 54.665984 0 CFG=2
M  V30 3 C 39.848095 28.169275 56.446144 0 CFG=1
M  V30 4 C 38.063482 24.893691 56.449004 0
M  V30 5 C 38.645591 33.705700 61.237161 0
M  V30 6 O 40.246588 29.053249 59.100917 0
M  V30 7 C 39.600871 31.211540 55.628431 0
M  V30 8 F 38.736859 27.481804 51.450090 0
M  V30 9 C 40.511427 35.049107 62.926580 0
M  V30 10 F 37.341013 28.535221 52.684360 0
M  V30 11 C 39.222935 30.440981 53.287626 0
M  V30 12 N 40.734980 33.653848 62.555953 0
M  V30 13 O 36.659227 30.954406 59.773635 0
M  V30 14 C 39.154793 28.696809 55.190781 0 CFG=2
M  V30 15 C 37.427920 25.232389 57.770609 0
M  V30 16 C 38.722245 30.894350 61.072843 0
M  V30 17 S 39.245136 27.366445 53.943918 0
M  V30 18 C 36.823607 29.627489 59.278832 0
M  V30 19 C 40.982197 36.010316 61.820636 0
M  V30 20 P 39.227091 28.712993 58.069679 0 CFG=2
M  V30 21 C 41.247287 35.337711 64.242762 0
M  V30 22 C 39.734362 31.584770 61.764620 0
M  V30 23 C 38.638378 28.277597 52.512775 0
M  V30 24 O 39.398708 29.450389 52.282913 0
M  V30 25 C 37.988070 26.332392 56.911022 0
M  V30 26 C 37.667068 31.609047 60.455013 0
M  V30 27 C 37.634902 33.013105 60.542951 0
M  V30 28 C 39.705146 32.989751 61.853942 0
M  V30 29 C 37.576380 29.571541 57.943888 0
M  V30 30 H 39.998426 26.416940 57.776499 0
M  V30 31 H 40.844799 29.886488 54.567211 0
M  V30 32 H 40.933500 28.150804 56.361614 0
M  V30 33 H 37.410335 24.590263 55.633314 0
M  V30 34 H 39.030229 24.396924 56.480358 0
M  V30 35 H 38.604892 34.780167 61.290555 0
M  V30 36 H 38.549162 31.464405 55.756910 0
M  V30 37 H 40.035921 31.019353 56.606505 0
M  V30 38 H 40.087724 32.107478 55.249055 0
M  V30 39 H 39.456112 35.221198 63.138060 0
M  V30 40 H 39.737236 31.337570 52.941395 0
M  V30 41 H 38.170272 30.706479 53.380180 0
M  V30 42 H 41.389583 33.110439 63.099978 0
M  V30 43 H 38.096840 28.862099 55.378005 0
M  V30 44 H 37.985990 24.967149 58.665921 0
M  V30 45 H 36.344913 25.170421 57.844393 0
M  V30 46 H 38.760452 29.821082 61.021793 0
M  V30 47 H 37.254389 28.938917 59.992282 0
M  V30 48 H 35.812039 29.257520 59.109712 0
M  V30 49 H 40.815741 37.047698 62.108512 0
M  V30 50 H 42.045125 35.889570 61.632783 0
M  V30 51 H 40.472905 35.849348 60.870103 0
M  V30 52 H 40.996764 36.331187 64.611818 0
M  V30 53 H 40.960241 34.629592 65.021619 0
M  V30 54 H 42.330992 35.283857 64.126970 0
M  V30 55 H 40.535056 31.031547 62.232325 0
M  V30 56 H 37.245909 26.930443 56.393967 0
M  V30 57 H 36.831268 33.562382 60.074369 0
M  V30 58 H 36.952068 29.058524 57.220350 0
M  V30 59 H 37.712682 30.582543 57.569359 0
M  V30 END ATOM
M  V30 BEGIN BOND
M  V30 1 1 3 1
M  V30 2 1 7 2
M  V30 3 1 11 2
M  V30 4 1 12 9
M  V30 5 1 14 2
M  V30 6 1 14 3
M  V30 7 1 15 4
M  V30 8 1 17 14
M  V30 9 1 18 13
M  V30 10 1 19 9
M  V30 11 1 20 1
M  V30 12 1 20 3
M  V30 13 2 20 6
M  V30 14 1 21 9
M  V30 15 1 22 16
M  V30 16 1 23 8
M  V30 17 1 23 10
M  V30 18 1 23 17
M  V30 19 1 24 11
M  V30 20 1 24 23
M  V30 21 1 25 1
M  V30 22 1 25 4
M  V30 23 1 25 15
M  V30 24 1 26 13
M  V30 25 2 26 16
M  V30 26 2 27 5
M  V30 27 1 27 26
M  V30 28 1 28 5
M  V30 29 1 28 12
M  V30 30 2 28 22
M  V30 31 1 29 18
M  V30 32 1 20 29 CFG=3
M  V30 33 1 1 30 CFG=1
M  V30 34 1 2 31 CFG=3
M  V30 35 1 3 32 CFG=3
M  V30 36 1 33 4
M  V30 37 1 34 4
M  V30 38 1 35 5
M  V30 39 1 36 7
M  V30 40 1 37 7
M  V30 41 1 38 7
M  V30 42 1 39 9
M  V30 43 1 40 11
M  V30 44 1 41 11
M  V30 45 1 42 12
M  V30 46 1 14 43 CFG=1
M  V30 47 1 44 15
M  V30 48 1 45 15
M  V30 49 1 46 16
M  V30 50 1 47 18
M  V30 51 1 48 18
M  V30 52 1 49 19
M  V30 53 1 50 19
M  V30 54 1 51 19
M  V30 55 1 52 21
M  V30 56 1 53 21
M  V30 57 1 54 21
M  V30 58 1 55 22
M  V30 59 1 56 25
M  V30 60 1 57 27
M  V30 61 1 58 29
M  V30 62 1 59 29
M  V30 END BOND
M  V30 END CTAB
M  END
>  <i_epik_Tot_Q>  (1) 
0

>  <i_epik_Tot_abs_Q>  (1) 
0

>  <i_i_glide_confnum>  (1) 
491

>  <i_i_glide_lignum>  (1) 
84

>  <i_i_glide_posenum>  (1) 
241

>  <i_i_glide_rotatable_bonds>  (1) 
8

>  <i_lp_mmshare_version>  (1) 
72125

>  <i_m_source_file_index>  (1) 
41

>  <i_f3d_flags>  (1) 
0

>  <num_sample>  (1) 
50

>  <b_lp_Chiralities_Consistent>  (1) 
1

>  <r_epik_Charging_Adjusted_Penalty>  (1) 
0.10621715127672696

>  <r_epik_Ionization_Penalty>  (1) 
0.10621715241272391

>  <r_epik_Ionization_Penalty_Charging>  (1) 
0

>  <r_epik_Ionization_Penalty_Neutral>  (1) 
0.10621715241272391

>  <r_epik_State_Penalty>  (1) 
0.10621715127672696

>  <r_glide_ring_energy>  (1) 
0

>  <r_i_docking_score>  (1) 
-6.8301314593842397

>  <r_i_glide_ecoul>  (1) 
-1.1268948222246551

>  <r_i_glide_eff_state_penalty>  (1) 
0.10621715127672696

>  <r_i_glide_einternal>  (1) 
10.764258669527024

>  <r_i_glide_emodel>  (1) 
-53.527636438741936

>  <r_i_glide_emodel_strain>  (1) 
1.1949885221201697

>  <r_i_glide_energy>  (1) 
-42.145143351166347

>  <r_i_glide_erotb>  (1) 
0.70566581847089904

>  <r_i_glide_esite>  (1) 
0

>  <r_i_glide_evdw>  (1) 
-41.01824852894169

>  <r_i_glide_gscore>  (1) 
-6.9363486106609669

>  <r_i_glide_gscore_strain>  (1) 
0

>  <r_i_glide_hbond>  (1) 
0

>  <r_i_glide_ligand_efficiency>  (1) 
-0.2355217744615255

>  <r_i_glide_ligand_efficiency_ln>  (1) 
-1.5639269070090434

>  <r_i_glide_ligand_efficiency_sa>  (1) 
-0.72359751049353216

>  <r_i_glide_lipo>  (1) 
-3.9045844775943475

>  <r_i_glide_metal>  (1) 
-0

>  <r_i_glide_rewards>  (1) 
-1.5174833017567355

>  <r_lp_Energy>  (1) 
18.098853999999999

>  <s_epik_cmdline>  (1) 
J2VwaWtfcHl0aG9uJywgJy1waHQnLCAnMS4wJywgJy1waCcsICc3LjQnLCAnLXRuJywgJzgnLCAnLW1hJywgJzUwMCcsICctaW1hZScsICc8aW5maWxlLm1hZT4nLCAnLW9tYWUnLCAnPG91dGZpbGUubWFlPic=

>  <s_epik_input>  (1) 
RkMxKEYpU1tDQEBIXShbQ0BIXShbQ0gzXSlbQ0gyXU8xKVtDQEBIXTJbQ0BIXShbQ0hdM1tDSDJdW0NIMl0zKVAyKD1PKVtDSDJdW0NIMl1PYzRbY0hdW2NIXWMoW2NIXVtjSF00KVtOSF1bQ0hdKFtDSDNdKVtDSDNd

>  <s_glide_docking_method>  (1) 
confgen

>  <s_i_glide_gridfile>  (1) 
gpcr_5ht2c_6bqh_protein_autoprepared_prepared

>  <s_lp_Force_Field>  (1) 
S-OPLS

>  <s_lp_Variant>  (1) 
DiffSBDD_40-2

>  <s_m_source_file>  (1) 
generated_GPCR_5HT2C_ligand_DiffSBDD_2026-06-23_prepared.sdf

>  <GenAI_Model>  (1) 
DiffSBDD

>  <Protein>  (1) 
GPCR_5HT2C

$$$$
DiffSBDD_0
     RDKit          3D

  0  0  0  0  0  0  0  0  0  0999 V3000
M  V30 BEGIN CTAB
M  V30 COUNTS 73 75 0 0 1
M  V30 BEGIN ATOM
M  V30 1 C 40.227719 30.675026 50.074581 0
M  V30 2 C 39.057444 27.217020 51.616571 0
M  V30 3 O 40.129617 31.875656 62.061626 0
M  V30 4 C 39.645023 29.962223 52.396681 0
M  V30 5 C 38.503025 31.186907 58.684082 0 CFG=2
M  V30 6 C 38.337409 32.248020 55.951696 0
M  V30 7 C 39.662405 34.170163 62.399510 0
M  V30 8 C 39.110696 34.916551 61.151329 0 CFG=1
M  V30 9 C 37.503602 36.638134 60.439964 0
M  V30 10 C 38.725178 33.979445 59.976974 0
M  V30 11 N 37.848274 32.871122 60.409071 0 CHG=1
M  V30 12 O 39.271663 30.537877 59.690757 0
M  V30 13 C 39.555240 28.243280 50.577700 0
M  V30 14 C 38.145895 36.638205 62.645004 0
M  V30 15 C 39.052974 29.299230 54.809303 0 CFG=1
M  V30 16 C 37.349228 32.009335 59.312175 0
M  V30 17 C 38.984700 27.743233 53.036041 0
M  V30 18 C 38.919383 27.794506 55.325325 0
M  V30 19 C 38.171177 30.240477 57.497604 0 CFG=1
M  V30 20 C 40.610847 33.027693 62.051915 0
M  V30 21 N 37.947305 35.740799 61.509954 0
M  V30 22 C 36.842012 37.417689 62.612473 0
M  V30 23 F 41.514522 30.537829 49.768199 0
M  V30 24 C 39.228300 28.981109 53.373550 0
M  V30 25 C 39.803659 29.650692 51.102287 0
M  V30 26 O 37.164186 29.467804 57.816459 0 CHG=-1
M  V30 27 N 37.706584 30.934813 56.254649 0 CFG=2 CHG=1
M  V30 28 C 38.620089 26.804630 54.124044 0 CFG=1
M  V30 29 C 37.720677 30.072812 55.040280 0
M  V30 30 C 38.662837 29.458357 60.362270 0
M  V30 31 O 41.786271 33.328708 61.767926 0 CHG=-1
M  V30 32 O 37.258476 26.467199 54.060895 0
M  V30 33 C 36.694622 37.737505 61.134076 0
M  V30 34 H 39.645072 30.557952 49.162341 0
M  V30 35 H 40.077982 31.691869 50.438382 0
M  V30 36 H 39.645176 26.303026 51.584021 0
M  V30 37 H 38.044954 26.937821 51.338629 0
M  V30 38 H 39.832157 30.976481 52.719209 0
M  V30 39 H 39.243832 31.886527 58.299267 0
M  V30 40 H 39.417564 32.149150 55.834708 0
M  V30 41 H 37.936535 32.667317 55.027901 0
M  V30 42 H 38.131389 32.993518 56.717650 0
M  V30 43 H 40.184422 34.857315 63.066054 0
M  V30 44 H 38.845163 33.736772 62.967788 0
M  V30 45 H 39.898069 35.586741 60.799597 0
M  V30 46 H 38.373514 37.066188 59.942013 0
M  V30 47 H 36.899032 36.120374 59.694868 0
M  V30 48 H 39.642125 33.586362 59.541376 0
M  V30 49 H 38.225473 34.507491 59.169197 0
M  V30 50 H 37.067607 33.279636 60.902826 0
M  V30 51 H 38.844635 28.313280 49.767679 0
M  V30 52 H 40.445365 27.852184 50.117982 0
M  V30 53 H 38.284816 36.132304 63.598065 0
M  V30 54 H 39.005697 37.290796 62.480026 0
M  V30 55 H 39.937847 29.814962 55.182253 0
M  V30 56 H 36.848054 32.626053 58.568070 0
M  V30 57 H 36.569892 31.357506 59.704177 0
M  V30 58 H 38.197574 27.681868 56.134556 0
M  V30 59 H 39.880496 27.509340 55.755392 0
M  V30 60 H 39.151996 29.819008 57.288244 0
M  V30 61 H 36.843976 38.296886 63.246965 0
M  V30 62 H 36.027298 36.776406 62.954116 0
M  V30 63 H 39.255101 25.918305 54.159591 0
M  V30 64 H 37.475953 30.683240 54.170235 0
M  V30 65 H 36.891417 29.368409 55.108699 0
M  V30 66 H 39.188883 29.249795 61.293779 0
M  V30 67 H 37.637236 29.731277 60.586126 0
M  V30 68 H 38.671853 28.551115 59.757534 0
M  V30 69 H 36.974343 26.203442 54.922221 0
M  V30 70 H 37.118668 38.716915 60.906392 0
M  V30 71 H 35.653242 37.749282 60.814294 0
M  V30 72 H 36.722262 31.154434 56.458100 0
M  V30 73 H 38.389292 32.298804 61.054122 0
M  V30 END ATOM
M  V30 BEGIN BOND
M  V30 1 1 8 7
M  V30 2 1 10 8
M  V30 3 1 11 10
M  V30 4 1 12 5
M  V30 5 1 13 2
M  V30 6 1 16 5
M  V30 7 1 16 11
M  V30 8 1 17 2
M  V30 9 1 18 15
M  V30 10 1 19 5
M  V30 11 2 20 3
M  V30 12 1 20 7
M  V30 13 1 21 8
M  V30 14 1 21 9
M  V30 15 1 21 14
M  V30 16 1 22 14
M  V30 17 1 23 1
M  V30 18 1 24 4
M  V30 19 1 24 15
M  V30 20 2 24 17
M  V30 21 1 25 1
M  V30 22 2 25 4
M  V30 23 1 25 13
M  V30 24 1 26 19
M  V30 25 1 27 6
M  V30 26 1 27 19
M  V30 27 1 28 17
M  V30 28 1 28 18
M  V30 29 1 29 15
M  V30 30 1 29 27
M  V30 31 1 30 12
M  V30 32 1 31 20
M  V30 33 1 32 28
M  V30 34 1 33 9
M  V30 35 1 33 22
M  V30 36 1 34 1
M  V30 37 1 35 1
M  V30 38 1 36 2
M  V30 39 1 37 2
M  V30 40 1 38 4
M  V30 41 1 5 39 CFG=3
M  V30 42 1 40 6
M  V30 43 1 41 6
M  V30 44 1 42 6
M  V30 45 1 43 7
M  V30 46 1 44 7
M  V30 47 1 8 45 CFG=3
M  V30 48 1 46 9
M  V30 49 1 47 9
M  V30 50 1 48 10
M  V30 51 1 49 10
M  V30 52 1 50 11
M  V30 53 1 51 13
M  V30 54 1 52 13
M  V30 55 1 53 14
M  V30 56 1 54 14
M  V30 57 1 15 55 CFG=1
M  V30 58 1 56 16
M  V30 59 1 57 16
M  V30 60 1 58 18
M  V30 61 1 59 18
M  V30 62 1 19 60 CFG=3
M  V30 63 1 61 22
M  V30 64 1 62 22
M  V30 65 1 28 63 CFG=1
M  V30 66 1 64 29
M  V30 67 1 65 29
M  V30 68 1 66 30
M  V30 69 1 67 30
M  V30 70 1 68 30
M  V30 71 1 69 32
M  V30 72 1 70 33
M  V30 73 1 71 33
M  V30 74 1 27 72 CFG=1
M  V30 75 1 73 11
M  V30 END BOND
M  V30 END CTAB
M  END
>  <i_epik_Tot_Q>  (1) 
0

>  <i_epik_Tot_abs_Q>  (1) 
4

>  <i_i_glide_confnum>  (1) 
961

>  <i_i_glide_lignum>  (1) 
3

>  <i_i_glide_posenum>  (1) 
62

>  <i_i_glide_rotatable_bonds>  (1) 
14

>  <i_lp_mmshare_version>  (1) 
72125

>  <i_m_source_file_index>  (1) 
1

>  <i_f3d_flags>  (1) 
0

>  <num_sample>  (1) 
50

>  <b_lp_Chiralities_Consistent>  (1) 
1

>  <r_epik_Charging_Adjusted_Penalty>  (1) 
0.77514762265790937

>  <r_epik_Ionization_Penalty>  (1) 
0.13961133491552177

>  <r_epik_Ionization_Penalty_Charging>  (1) 
0.038557878483332003

>  <r_epik_Ionization_Penalty_Neutral>  (1) 
0.10105345643218977

>  <r_epik_State_Penalty>  (1) 
0.73658974417457734

>  <r_glide_ring_energy>  (1) 
0.0045750838620950583

>  <r_i_docking_score>  (1) 
-6.8271834494134893

>  <r_i_glide_ecoul>  (1) 
-4.7610787890190096

>  <r_i_glide_eff_state_penalty>  (1) 
0.73658974417457734

>  <r_i_glide_einternal>  (1) 
13.223065346355387

>  <r_i_glide_emodel>  (1) 
-64.633383634939008

>  <r_i_glide_emodel_strain>  (1) 
1.9269838282340999

>  <r_i_glide_energy>  (1) 
-42.917768409616677

>  <r_i_glide_erotb>  (1) 
0.82434179411086872

>  <r_i_glide_esite>  (1) 
-0.16112620837631281

>  <r_i_glide_evdw>  (1) 
-38.156689620597668

>  <r_i_glide_gscore>  (1) 
-7.5637731935880668

>  <r_i_glide_gscore_strain>  (1) 
0

>  <r_i_glide_hbond>  (1) 
-0.20000000000000001

>  <r_i_glide_ligand_efficiency>  (1) 
-0.20688434695192393

>  <r_i_glide_ligand_efficiency_ln>  (1) 
-1.5183302498855109

>  <r_i_glide_ligand_efficiency_sa>  (1) 
-0.6635886451870634

>  <r_i_glide_lipo>  (1) 
-4.0881047729697926

>  <r_i_glide_metal>  (1) 
-0

>  <r_i_glide_rewards>  (1) 
-1.3168877069700953

>  <r_lp_Energy>  (1) 
31.454538999999997

>  <s_epik_Chemistry_Notes>  (1) 
This compound contains an acetal/aminal-like group ( X-CH(R)-Y where X, Y are N, S, or O) that may be acid/base labile, releasing an aldehyde.

>  <s_epik_cmdline>  (1) 
J2VwaWtfcHl0aG9uJywgJy1waHQnLCAnMS4wJywgJy1waCcsICc3LjQnLCAnLXRuJywgJzgnLCAnLW1hJywgJzUwMCcsICctaW1hZScsICc8aW5maWxlLm1hZT4nLCAnLW9tYWUnLCAnPG91dGZpbGUubWFlPic=

>  <s_epik_input>  (1) 
W0NIMl0xW0NIMl1DKFtDSDJdRik9W0NIXUMoPUMxMilbQ0BIXShbQ0gyXVtDQEhdMltPSF0pW0NIMl1OKFtDSDNdKVtDQEhdKFtPSF0pW0NASF0oT1tDSDNdKVtDSDJdW05IXVtDSDJdW0NASF0oW0NIMl1DKD1PKVtPSF0pTjNbQ0gyXVtDSDJdW0NIMl1bQ0gyXTM=

>  <s_glide_docking_method>  (1) 
confgen

>  <s_i_glide_gridfile>  (1) 
gpcr_5ht2c_6bqh_protein_autoprepared_prepared

>  <s_lp_Force_Field>  (1) 
S-OPLS

>  <s_lp_Variant>  (1) 
DiffSBDD_0-3

>  <s_m_source_file>  (1) 
generated_GPCR_5HT2C_ligand_DiffSBDD_2026-06-23_prepared.sdf

>  <GenAI_Model>  (1) 
DiffSBDD

>  <Protein>  (1) 
GPCR_5HT2C

$$$$
DiffSBDD_39
     RDKit          3D

  0  0  0  0  0  0  0  0  0  0999 V3000
M  V30 BEGIN CTAB
M  V30 COUNTS 57 60 0 0 1
M  V30 BEGIN ATOM
M  V30 1 C 38.485998 30.025006 58.679712 0 CFG=1
M  V30 2 N 39.443502 29.120518 59.276599 0
M  V30 3 N 38.865879 27.438323 54.044557 0
M  V30 4 C 40.054361 34.820996 61.379006 0
M  V30 5 C 40.340796 31.167487 62.164565 0
M  V30 6 O 36.845137 28.137754 53.079631 0
M  V30 7 O 37.963486 29.659150 54.409234 0
M  V30 8 N 39.622454 26.896883 53.047906 0
M  V30 9 C 39.168121 26.510072 56.388470 0 CFG=2
M  V30 10 F 40.324971 30.484369 53.463329 0
M  V30 11 O 39.198550 35.577830 62.204312 0
M  V30 12 F 41.906317 32.872100 65.646909 0
M  V30 13 C 40.073958 29.373527 60.451488 0
M  V30 14 O 37.645136 28.133378 57.367753 0
M  V30 15 C 39.018450 27.832703 57.174638 0 CFG=1
M  V30 16 C 38.390827 26.480938 55.056510 0
M  V30 17 O 40.845133 28.576364 60.978678 0
M  V30 18 N 39.645138 30.162620 52.220604 0
M  V30 19 C 38.100650 28.580767 53.511492 0
M  V30 20 C 41.426141 30.925608 64.348951 0
M  V30 21 C 40.901121 30.343373 63.181295 0
M  V30 22 N 39.756656 33.393756 61.322346 0
M  V30 23 C 40.845125 33.145326 63.523848 0
M  V30 24 C 37.432026 29.495114 57.730732 0 CFG=1
M  V30 25 C 41.399191 32.320381 64.519423 0
M  V30 26 O 37.156247 29.737740 59.124484 0
M  V30 27 C 39.561375 27.696853 52.054089 0
M  V30 28 C 39.688818 27.857362 58.562217 0
M  V30 29 C 38.808237 28.955994 52.190465 0 CFG=2
M  V30 30 O 38.720357 25.439141 57.194936 0
M  V30 31 N 39.789688 30.606815 60.950361 0
M  V30 32 C 40.451719 30.346378 51.022970 0
M  V30 33 C 40.309963 32.575963 62.338306 0
M  V30 34 H 38.731828 31.081689 58.586322 0
M  V30 35 H 39.960969 35.216218 60.366879 0
M  V30 36 H 41.095662 34.992231 61.656528 0
M  V30 37 H 36.857852 27.191595 53.072069 0
M  V30 38 H 38.553842 30.344584 54.126172 0
M  V30 39 H 40.225353 26.333926 56.183047 0
M  V30 40 H 39.709864 36.233049 62.655069 0
M  V30 41 H 39.464078 28.615349 56.556395 0
M  V30 42 H 38.438271 25.475696 54.633962 0
M  V30 43 H 37.334509 26.674143 55.246906 0
M  V30 44 H 41.848446 30.297602 65.119863 0
M  V30 45 H 40.919643 29.273895 63.082017 0
M  V30 46 H 39.510581 32.986608 60.434742 0
M  V30 47 H 40.829612 34.212190 63.673944 0
M  V30 48 H 36.930914 30.137748 57.008205 0
M  V30 49 H 40.045204 27.461457 51.108668 0
M  V30 50 H 40.762150 27.694963 58.448121 0
M  V30 51 H 39.309890 27.041806 59.179942 0
M  V30 52 H 38.102905 29.054372 51.365060 0
M  V30 53 H 37.851790 25.658717 57.499170 0
M  V30 54 H 39.195592 31.207299 60.403743 0
M  V30 55 H 39.839290 30.259086 50.124643 0
M  V30 56 H 40.898761 31.337757 51.029284 0
M  V30 57 H 41.259612 29.617333 50.967826 0
M  V30 END ATOM
M  V30 BEGIN BOND
M  V30 1 1 2 1
M  V30 2 1 8 3
M  V30 3 1 11 4
M  V30 4 1 13 2
M  V30 5 1 15 9
M  V30 6 1 15 14
M  V30 7 1 16 3
M  V30 8 1 16 9
M  V30 9 2 17 13
M  V30 10 1 18 10
M  V30 11 1 19 3
M  V30 12 1 19 6
M  V30 13 1 19 7
M  V30 14 1 21 5
M  V30 15 2 21 20
M  V30 16 1 22 4
M  V30 17 1 24 1
M  V30 18 1 24 14
M  V30 19 1 25 12
M  V30 20 1 25 20
M  V30 21 2 25 23
M  V30 22 1 26 1
M  V30 23 1 26 24
M  V30 24 2 27 8
M  V30 25 1 28 2
M  V30 26 1 28 15
M  V30 27 1 29 18
M  V30 28 1 29 19
M  V30 29 1 29 27
M  V30 30 1 30 9
M  V30 31 1 31 5
M  V30 32 1 31 13
M  V30 33 1 32 18
M  V30 34 2 33 5
M  V30 35 1 33 22
M  V30 36 1 33 23
M  V30 37 1 1 34 CFG=3
M  V30 38 1 35 4
M  V30 39 1 36 4
M  V30 40 1 37 6
M  V30 41 1 38 7
M  V30 42 1 9 39 CFG=3
M  V30 43 1 40 11
M  V30 44 1 15 41 CFG=3
M  V30 45 1 42 16
M  V30 46 1 43 16
M  V30 47 1 44 20
M  V30 48 1 45 21
M  V30 49 1 46 22
M  V30 50 1 47 23
M  V30 51 1 24 48 CFG=3
M  V30 52 1 49 27
M  V30 53 1 50 28
M  V30 54 1 51 28
M  V30 55 1 29 52 CFG=3
M  V30 56 1 53 30
M  V30 57 1 54 31
M  V30 58 1 55 32
M  V30 59 1 56 32
M  V30 60 1 57 32
M  V30 END BOND
M  V30 END CTAB
M  END
>  <i_epik_Tot_Q>  (1) 
0

>  <i_epik_Tot_abs_Q>  (1) 
0

>  <i_i_glide_confnum>  (1) 
460

>  <i_i_glide_lignum>  (1) 
82

>  <i_i_glide_posenum>  (1) 
329

>  <i_i_glide_rotatable_bonds>  (1) 
13

>  <i_lp_mmshare_version>  (1) 
72125

>  <i_m_source_file_index>  (1) 
40

>  <i_f3d_flags>  (1) 
0

>  <num_sample>  (1) 
50

>  <b_lp_Chiralities_Consistent>  (1) 
1

>  <r_epik_Charging_Adjusted_Penalty>  (1) 
0.0039576598872860577

>  <r_epik_Ionization_Penalty>  (1) 
0.0039962828818057711

>  <r_epik_Ionization_Penalty_Charging>  (1) 
0

>  <r_epik_Ionization_Penalty_Neutral>  (1) 
0.0039962828818057711

>  <r_epik_State_Penalty>  (1) 
0.0039576598872860577

>  <r_glide_ring_energy>  (1) 
0

>  <r_i_docking_score>  (1) 
-6.8230028371026359

>  <r_i_glide_ecoul>  (1) 
-3.3458208716167572

>  <r_i_glide_eff_state_penalty>  (1) 
0.0039576598872860577

>  <r_i_glide_einternal>  (1) 
13.309497087733206

>  <r_i_glide_emodel>  (1) 
-63.517361955329164

>  <r_i_glide_emodel_strain>  (1) 
1.9250669896714356

>  <r_i_glide_energy>  (1) 
-50.317405134760946

>  <r_i_glide_erotb>  (1) 
0.71920970627699021

>  <r_i_glide_esite>  (1) 
-0.078789955349376606

>  <r_i_glide_evdw>  (1) 
-46.971584263144187

>  <r_i_glide_gscore>  (1) 
-6.8269604969899218

>  <r_i_glide_gscore_strain>  (1) 
0

>  <r_i_glide_hbond>  (1) 
-0.078027763716766257

>  <r_i_glide_ligand_efficiency>  (1) 
-0.2067576617303829

>  <r_i_glide_ligand_efficiency_ln>  (1) 
-1.5174005033536291

>  <r_i_glide_ligand_efficiency_sa>  (1) 
-0.6631822979898675

>  <r_i_glide_lipo>  (1) 
-2.3500277627667021

>  <r_i_glide_metal>  (1) 
-0

>  <r_i_glide_rewards>  (1) 
-2.1888723775343446

>  <r_lp_Energy>  (1) 
32.683669000000002

>  <s_epik_Chemistry_Notes>  (1) 
This compound has an imine and may undergo hydrolysis. This compound contains an acetal/aminal-like group ( X-CH(R)-Y where X, Y are N, S, or O) that may be acid/base labile, releasing an aldehyde.

>  <s_epik_cmdline>  (1) 
J2VwaWtfcHl0aG9uJywgJy1waHQnLCAnMS4wJywgJy1waCcsICc3LjQnLCAnLXRuJywgJzgnLCAnLW1hJywgJzUwMCcsICctaW1hZScsICc8aW5maWxlLm1hZT4nLCAnLW9tYWUnLCAnPG91dGZpbGUubWFlPic=

>  <s_epik_input>  (1) 
Rk4oW0NIM10pW0NASF0xW0NIXT1OTihDMShbT0hdKVtPSF0pW0NIMl1bQ0BIXShbT0hdKVtDQEBIXShPW0NAQEhdKE8yKVtDQEBIXTIzKVtDSDJdTjNDKD1PKVtOSF1jNFtjSF1bY0hdYyhGKVtjSF1jNFtOSF1bQ0gyXVtPSF0=

>  <s_glide_docking_method>  (1) 
confgen

>  <s_i_glide_gridfile>  (1) 
gpcr_5ht2c_6bqh_protein_autoprepared_prepared

>  <s_lp_Force_Field>  (1) 
S-OPLS

>  <s_lp_Variant>  (1) 
DiffSBDD_39-1

>  <s_m_source_file>  (1) 
generated_GPCR_5HT2C_ligand_DiffSBDD_2026-06-23_prepared.sdf

>  <GenAI_Model>  (1) 
DiffSBDD

>  <Protein>  (1) 
GPCR_5HT2C

$$$$
DiffSBDD_1
     RDKit          3D

  0  0  0  0  0  0  0  0  0  0999 V3000
M  V30 BEGIN CTAB
M  V30 COUNTS 78 81 0 0 1
M  V30 BEGIN ATOM
M  V30 1 C 38.916799 30.437909 60.462478 0
M  V30 2 N 38.907890 28.428169 56.811511 0
M  V30 3 C 37.662636 24.880763 56.310370 0 CFG=1
M  V30 4 C 38.224958 25.220553 54.924608 0
M  V30 5 C 43.979571 27.999154 65.078337 0
M  V30 6 C 39.719719 32.164973 62.982329 0
M  V30 7 C 37.763882 26.150223 57.165507 0
M  V30 8 C 38.193679 27.269418 56.199500 0 CFG=2
M  V30 9 C 41.169473 27.751391 66.339378 0
M  V30 10 N 40.135560 30.813677 62.649356 0
M  V30 11 O 42.039792 35.737419 64.246795 0
M  V30 12 C 39.791585 31.092498 64.043688 0 CFG=1
M  V30 13 C 41.523292 29.149553 66.678959 0 CFG=2
M  V30 14 O 40.408434 30.126012 66.567886 0
M  V30 15 C 40.608915 35.797612 66.154506 0
M  V30 16 C 36.106040 23.179266 55.767513 0
M  V30 17 C 42.175817 29.689337 65.502432 0
M  V30 18 C 39.918958 28.132002 57.853028 0
M  V30 19 C 42.141548 33.789987 65.651829 0
M  V30 20 O 43.625502 29.976376 63.767822 0
M  V30 21 O 39.245125 30.675951 56.933067 0
M  V30 22 C 41.407523 32.637131 66.376211 0
M  V30 23 O 36.302615 24.524961 56.167608 0
M  V30 24 O 42.158974 25.929165 67.474888 0
M  V30 25 P 41.142576 31.095036 65.309822 0 CFG=1 CHG=1
M  V30 26 C 41.245013 34.908638 65.074048 0 CFG=2
M  V30 27 C 43.221023 29.235176 64.801031 0
M  V30 28 C 40.431058 26.384698 55.207389 0
M  V30 29 O 39.830771 29.735835 59.639060 0
M  V30 30 C 38.663368 29.716635 56.432191 0
M  V30 31 C 37.621509 29.955206 55.333261 0
M  V30 32 C 43.628105 26.954020 65.898548 0
M  V30 33 C 42.328837 26.814692 66.640424 0
M  V30 34 C 39.419974 28.425286 59.278924 0
M  V30 35 C 38.924309 26.575788 55.032720 0 CFG=1
M  V30 36 C 39.069159 30.082509 61.951933 0
M  V30 37 H 37.891642 30.267630 60.128594 0
M  V30 38 H 39.088631 31.504526 60.317751 0
M  V30 39 H 38.233967 24.084429 56.789493 0
M  V30 40 H 38.883518 24.430549 54.568069 0
M  V30 41 H 37.410130 25.308861 54.203699 0
M  V30 42 H 44.938368 27.909821 64.588019 0
M  V30 43 H 38.762630 32.433711 62.536604 0
M  V30 44 H 40.549686 32.854648 62.844424 0
M  V30 45 H 38.479686 25.956567 57.960325 0
M  V30 46 H 36.822615 26.391651 57.660358 0
M  V30 47 H 37.245445 27.570047 55.762352 0
M  V30 48 H 40.332260 27.434959 66.959491 0
M  V30 49 H 40.846302 27.635998 65.303151 0
M  V30 50 H 42.023857 36.637903 64.568497 0
M  V30 51 H 38.895277 30.537674 64.318466 0
M  V30 52 H 42.045989 29.265674 67.630733 0
M  V30 53 H 39.951825 35.229595 66.812629 0
M  V30 54 H 41.366072 36.274911 66.778335 0
M  V30 55 H 40.004031 36.587842 65.708514 0
M  V30 56 H 35.041569 23.003042 55.613731 0
M  V30 57 H 36.632031 22.948705 54.841154 0
M  V30 58 H 36.444678 22.490921 56.541515 0
M  V30 59 H 40.832246 28.697677 57.658991 0
M  V30 60 H 40.244786 27.096106 57.804434 0
M  V30 61 H 42.842961 34.247498 66.349471 0
M  V30 62 H 42.757720 33.370098 64.856328 0
M  V30 63 H 44.312925 29.499733 63.323409 0
M  V30 64 H 40.457290 32.980550 66.781848 0
M  V30 65 H 42.000614 32.344313 67.242767 0
M  V30 66 H 40.460802 34.480844 64.450412 0
M  V30 67 H 40.662178 25.737184 56.051502 0
M  V30 68 H 40.861448 25.933578 54.313757 0
M  V30 69 H 40.909596 27.345563 55.368686 0
M  V30 70 H 36.617024 29.738362 55.693465 0
M  V30 71 H 37.630632 31.009222 55.051254 0
M  V30 72 H 37.831539 29.378362 54.432962 0
M  V30 73 H 44.328335 26.138799 66.011993 0
M  V30 74 H 39.862528 27.729133 59.992369 0
M  V30 75 H 38.339147 28.284223 59.329866 0
M  V30 76 H 38.772792 27.145146 54.114643 0
M  V30 77 H 39.233786 29.010219 62.061357 0
M  V30 78 H 38.101929 30.274110 62.418002 0
M  V30 END ATOM
M  V30 BEGIN BOND
M  V30 1 1 4 3
M  V30 2 1 7 3
M  V30 3 1 8 2
M  V30 4 1 8 7
M  V30 5 1 10 6
M  V30 6 1 12 6
M  V30 7 1 12 10
M  V30 8 1 13 9
M  V30 9 1 14 13
M  V30 10 1 17 13
M  V30 11 1 18 2
M  V30 12 1 22 19
M  V30 13 1 23 3
M  V30 14 1 23 16
M  V30 15 1 25 12
M  V30 16 1 25 14
M  V30 17 1 25 17
M  V30 18 1 25 22 CFG=1
M  V30 19 1 26 11
M  V30 20 1 26 15
M  V30 21 1 26 19
M  V30 22 1 27 5
M  V30 23 2 27 17
M  V30 24 1 27 20
M  V30 25 1 29 1
M  V30 26 1 30 2
M  V30 27 2 30 21
M  V30 28 1 31 30
M  V30 29 2 32 5
M  V30 30 1 33 9
M  V30 31 2 33 24
M  V30 32 1 33 32
M  V30 33 1 34 18
M  V30 34 1 34 29
M  V30 35 1 35 4
M  V30 36 1 35 8
M  V30 37 1 35 28
M  V30 38 1 36 1
M  V30 39 1 36 10
M  V30 40 1 37 1
M  V30 41 1 38 1
M  V30 42 1 3 39 CFG=1
M  V30 43 1 40 4
M  V30 44 1 41 4
M  V30 45 1 42 5
M  V30 46 1 43 6
M  V30 47 1 44 6
M  V30 48 1 45 7
M  V30 49 1 46 7
M  V30 50 1 8 47 CFG=3
M  V30 51 1 48 9
M  V30 52 1 49 9
M  V30 53 1 50 11
M  V30 54 1 12 51 CFG=1
M  V30 55 1 13 52 CFG=1
M  V30 56 1 53 15
M  V30 57 1 54 15
M  V30 58 1 55 15
M  V30 59 1 56 16
M  V30 60 1 57 16
M  V30 61 1 58 16
M  V30 62 1 59 18
M  V30 63 1 60 18
M  V30 64 1 61 19
M  V30 65 1 62 19
M  V30 66 1 63 20
M  V30 67 1 64 22
M  V30 68 1 65 22
M  V30 69 1 26 66 CFG=3
M  V30 70 1 67 28
M  V30 71 1 68 28
M  V30 72 1 69 28
M  V30 73 1 70 31
M  V30 74 1 71 31
M  V30 75 1 72 31
M  V30 76 1 73 32
M  V30 77 1 74 34
M  V30 78 1 75 34
M  V30 79 1 35 76 CFG=3
M  V30 80 1 77 36
M  V30 81 1 78 36
M  V30 END BOND
M  V30 END CTAB
M  END
>  <i_epik_Tot_Q>  (1) 
1

>  <i_epik_Tot_abs_Q>  (1) 
1

>  <i_i_glide_confnum>  (1) 
4531

>  <i_i_glide_lignum>  (1) 
7

>  <i_i_glide_posenum>  (1) 
303

>  <i_i_glide_rotatable_bonds>  (1) 
15

>  <i_lp_mmshare_version>  (1) 
72125

>  <i_m_source_file_index>  (1) 
2

>  <i_f3d_flags>  (1) 
0

>  <num_sample>  (1) 
50

>  <b_lp_Chiralities_Consistent>  (1) 
1

>  <r_epik_Charging_Adjusted_Penalty>  (1) 
0.012777702237649643

>  <r_epik_Ionization_Penalty>  (1) 
0.012893064322698497

>  <r_epik_Ionization_Penalty_Charging>  (1) 
0

>  <r_epik_Ionization_Penalty_Neutral>  (1) 
0.012893064322698497

>  <r_epik_State_Penalty>  (1) 
0.012777702237649643

>  <r_glide_ring_energy>  (1) 
1.6816026439138838

>  <r_i_docking_score>  (1) 
-6.8128981103046762

>  <r_i_glide_ecoul>  (1) 
-7.2485638682801898

>  <r_i_glide_eff_state_penalty>  (1) 
0.012777702237649643

>  <r_i_glide_einternal>  (1) 
15.57384488531882

>  <r_i_glide_emodel>  (1) 
-57.524082749939247

>  <r_i_glide_emodel_strain>  (1) 
3.8103707377036926

>  <r_i_glide_energy>  (1) 
-51.565242433837867

>  <r_i_glide_erotb>  (1) 
0.81958699115176215

>  <r_i_glide_esite>  (1) 
-0.008232963113962051

>  <r_i_glide_evdw>  (1) 
-44.316678565557673

>  <r_i_glide_gscore>  (1) 
-6.8256758125423262

>  <r_i_glide_gscore_strain>  (1) 
0

>  <r_i_glide_hbond>  (1) 
-0.32000000000000001

>  <r_i_glide_ligand_efficiency>  (1) 
-0.18924716973068545

>  <r_i_glide_ligand_efficiency_ln>  (1) 
-1.4863903044326678

>  <r_i_glide_ligand_efficiency_sa>  (1) 
-0.62488038650993682

>  <r_i_glide_lipo>  (1) 
-3.6846142412483633

>  <r_i_glide_metal>  (1) 
-0

>  <r_i_glide_rewards>  (1) 
-0.3292970908118501

>  <r_lp_Energy>  (1) 
33.116859999999996

>  <s_epik_cmdline>  (1) 
J2VwaWtfcHl0aG9uJywgJy1waHQnLCAnMS4wJywgJy1waCcsICc3LjQnLCAnLXRuJywgJzgnLCAnLW1hJywgJzUwMCcsICctaW1hZScsICc8aW5maWxlLm1hZT4nLCAnLW9tYWUnLCAnPG91dGZpbGUubWFlPic=

>  <s_epik_input>  (1) 
W0NIM11PW0NASF0xW0NIMl1bQ0BIXShbQ0gzXSlbQ0BASF0oW0NIMl0xKU4oQyg9TylbQ0gzXSlbQ0gyXVtDSDJdT1tDSDJdW0NIMl1OMltDSDJdW0NIXTJbUEBAK10oTzMpKFtDSDJdW0NIMl1bQ0BIXShbT0hdKVtDSDNdKUMoW0NAQEhdMzQpPUMoW09IXSlbQ0hdPVtDSF1DKD1PKVtDSDJdNA==

>  <s_glide_docking_method>  (1) 
confgen

>  <s_i_glide_gridfile>  (1) 
gpcr_5ht2c_6bqh_protein_autoprepared_prepared

>  <s_lp_Force_Field>  (1) 
S-OPLS

>  <s_lp_Variant>  (1) 
DiffSBDD_1-3

>  <s_m_source_file>  (1) 
generated_GPCR_5HT2C_ligand_DiffSBDD_2026-06-23_prepared.sdf

>  <GenAI_Model>  (1) 
DiffSBDD

>  <Protein>  (1) 
GPCR_5HT2C

$$$$
DiffSBDD_9
     RDKit          3D

  0  0  0  0  0  0  0  0  0  0999 V3000
M  V30 BEGIN CTAB
M  V30 COUNTS 61 62 0 0 1
M  V30 BEGIN ATOM
M  V30 1 C 36.603588 33.755791 60.020217 0
M  V30 2 C 37.437114 32.918949 61.002869 0 CFG=1
M  V30 3 C 39.116303 31.257661 54.900740 0
M  V30 4 O 39.006571 36.689712 62.759586 0
M  V30 5 C 37.105551 37.449847 60.971414 0
M  V30 6 N 37.645119 31.001776 58.374170 0 CHG=1
M  V30 7 C 39.481715 27.926085 51.761367 0
M  V30 8 C 37.272169 35.939641 61.225091 0 CFG=1
M  V30 9 C 39.195094 27.969841 56.455118 0
M  V30 10 C 40.093638 36.519423 63.655419 0
M  V30 11 C 38.019011 30.989702 55.952140 0
M  V30 12 O 36.445132 38.098927 61.812279 0 CHG=-1
M  V30 13 C 38.525223 28.732039 52.648992 0 CFG=1
M  V30 14 C 37.174636 31.404368 60.835480 0
M  V30 15 C 38.939392 33.285912 61.008123 0
M  V30 16 O 37.245215 28.137901 52.592258 0
M  V30 17 C 39.029530 28.833342 54.082404 0
M  V30 18 C 37.093780 35.195915 59.885118 0
M  V30 19 C 37.999435 30.650285 59.771786 0
M  V30 20 C 38.718644 27.915983 55.018058 0
M  V30 21 C 38.593891 35.644871 61.954758 0
M  V30 22 C 38.284593 28.809510 57.360428 0
M  V30 23 O 37.645007 37.917981 59.943837 0
M  V30 24 C 39.903785 30.041567 54.392396 0
M  V30 25 C 39.320998 34.497550 61.851865 0
M  V30 26 C 38.450836 30.358606 57.302062 0 CFG=2
M  V30 27 H 36.603292 33.313369 59.025801 0
M  V30 28 H 35.561596 33.755334 60.341114 0
M  V30 29 H 37.056281 33.161120 61.995633 0
M  V30 30 H 38.640237 31.739239 54.043465 0
M  V30 31 H 39.819670 31.994597 55.292528 0
M  V30 32 H 37.765650 31.999219 58.269600 0
M  V30 33 H 40.477428 28.367921 51.756579 0
M  V30 34 H 39.577031 26.896628 52.109302 0
M  V30 35 H 39.129664 27.902064 50.729335 0
M  V30 36 H 36.462264 35.644990 61.893727 0
M  V30 37 H 39.203332 26.939403 56.814295 0
M  V30 38 H 40.231499 28.294914 56.538496 0
M  V30 39 H 40.044900 37.336758 64.372673 0
M  V30 40 H 40.044400 35.597456 64.234252 0
M  V30 41 H 41.049291 36.571022 63.132161 0
M  V30 42 H 37.195501 30.421650 55.516316 0
M  V30 43 H 37.596966 31.976441 56.144631 0
M  V30 44 H 38.445398 29.737743 52.248968 0
M  V30 45 H 36.109658 31.224032 60.680048 0
M  V30 46 H 37.403270 30.934531 61.791408 0
M  V30 47 H 39.485308 32.462009 61.467270 0
M  V30 48 H 39.342642 33.386358 60.000096 0
M  V30 49 H 37.215257 27.517206 51.874934 0
M  V30 50 H 36.392648 35.719832 59.231247 0
M  V30 51 H 38.044903 35.205854 59.367772 0
M  V30 52 H 37.803687 29.593774 59.942243 0
M  V30 53 H 39.069391 30.793080 59.925647 0
M  V30 54 H 38.088670 27.078418 54.753876 0
M  V30 55 H 37.245063 28.532927 57.197729 0
M  V30 56 H 38.522547 28.452726 58.358183 0
M  V30 57 H 40.677397 29.788359 55.112850 0
M  V30 58 H 40.445644 30.321595 53.490259 0
M  V30 59 H 40.243227 34.403297 62.402386 0
M  V30 60 H 39.494819 30.613583 57.487850 0
M  V30 61 H 36.663063 30.823353 58.187820 0
M  V30 END ATOM
M  V30 BEGIN BOND
M  V30 1 1 2 1
M  V30 2 1 8 5
M  V30 3 1 10 4
M  V30 4 1 11 3
M  V30 5 1 12 5
M  V30 6 1 13 7
M  V30 7 1 14 2
M  V30 8 1 15 2
M  V30 9 1 16 13
M  V30 10 1 17 13
M  V30 11 1 18 1
M  V30 12 1 18 8
M  V30 13 1 19 6
M  V30 14 1 19 14
M  V30 15 1 20 9
M  V30 16 2 20 17
M  V30 17 1 21 4
M  V30 18 1 21 8
M  V30 19 1 22 9
M  V30 20 2 23 5
M  V30 21 1 24 3
M  V30 22 1 24 17
M  V30 23 1 25 15
M  V30 24 2 25 21
M  V30 25 1 26 6
M  V30 26 1 26 11
M  V30 27 1 26 22
M  V30 28 1 27 1
M  V30 29 1 28 1
M  V30 30 1 2 29 CFG=1
M  V30 31 1 30 3
M  V30 32 1 31 3
M  V30 33 1 32 6
M  V30 34 1 33 7
M  V30 35 1 34 7
M  V30 36 1 35 7
M  V30 37 1 8 36 CFG=1
M  V30 38 1 37 9
M  V30 39 1 38 9
M  V30 40 1 39 10
M  V30 41 1 40 10
M  V30 42 1 41 10
M  V30 43 1 42 11
M  V30 44 1 43 11
M  V30 45 1 13 44 CFG=3
M  V30 46 1 45 14
M  V30 47 1 46 14
M  V30 48 1 47 15
M  V30 49 1 48 15
M  V30 50 1 49 16
M  V30 51 1 50 18
M  V30 52 1 51 18
M  V30 53 1 52 19
M  V30 54 1 53 19
M  V30 55 1 54 20
M  V30 56 1 55 22
M  V30 57 1 56 22
M  V30 58 1 57 24
M  V30 59 1 58 24
M  V30 60 1 59 25
M  V30 61 1 26 60 CFG=1
M  V30 62 1 61 6
M  V30 END BOND
M  V30 END CTAB
M  END
>  <i_epik_Tot_Q>  (1) 
0

>  <i_epik_Tot_abs_Q>  (1) 
2

>  <i_i_glide_confnum>  (1) 
123

>  <i_i_glide_lignum>  (1) 
19

>  <i_i_glide_posenum>  (1) 
106

>  <i_i_glide_rotatable_bonds>  (1) 
8

>  <i_lp_mmshare_version>  (1) 
72125

>  <i_m_source_file_index>  (1) 
10

>  <i_f3d_flags>  (1) 
0

>  <num_sample>  (1) 
50

>  <b_lp_Chiralities_Consistent>  (1) 
1

>  <r_epik_Charging_Adjusted_Penalty>  (1) 
0.00049470438624524575

>  <r_epik_Ionization_Penalty>  (1) 
0.0004947514825463053

>  <r_epik_Ionization_Penalty_Charging>  (1) 
0.00049470438624524575

>  <r_epik_Ionization_Penalty_Neutral>  (1) 
4.7096301059555568e-08

>  <r_epik_State_Penalty>  (1) 
-0

>  <r_glide_ring_energy>  (1) 
1.4314105349030264

>  <r_i_docking_score>  (1) 
-6.8128389308140944

>  <r_i_glide_ecoul>  (1) 
-5.233483014197418

>  <r_i_glide_eff_state_penalty>  (1) 
-0

>  <r_i_glide_einternal>  (1) 
7.6766716679973612

>  <r_i_glide_emodel>  (1) 
-54.830152622629917

>  <r_i_glide_emodel_strain>  (1) 
1.305418893390133

>  <r_i_glide_energy>  (1) 
-38.040837249954791

>  <r_i_glide_erotb>  (1) 
0.71993305512373396

>  <r_i_glide_esite>  (1) 
-0.096909759077782154

>  <r_i_glide_evdw>  (1) 
-32.807354235757373

>  <r_i_glide_gscore>  (1) 
-6.8128389308140944

>  <r_i_glide_gscore_strain>  (1) 
0

>  <r_i_glide_hbond>  (1) 
-0.30717118841274582

>  <r_i_glide_ligand_efficiency>  (1) 
-0.26203226656977285

>  <r_i_glide_ligand_efficiency_ln>  (1) 
-1.599972868153823

>  <r_i_glide_ligand_efficiency_sa>  (1) 
-0.77626955950882437

>  <r_i_glide_lipo>  (1) 
-2.5744348492338958

>  <r_i_glide_metal>  (1) 
-0

>  <r_i_glide_rewards>  (1) 
-2.1288660252959244

>  <r_lp_Energy>  (1) 
30.107592999999998

>  <r_lp_tautomer_probability>  (1) 
1

>  <s_epik_cmdline>  (1) 
J2VwaWtfcHl0aG9uJywgJy1waHQnLCAnMS4wJywgJy1waCcsICc3LjQnLCAnLXRuJywgJzgnLCAnLW1hJywgJzUwMCcsICctaW1hZScsICc8aW5maWxlLm1hZT4nLCAnLW9tYWUnLCAnPG91dGZpbGUubWFlPic=

>  <s_epik_input>  (1) 
W0NIM11PQyg9W0NIXVtDSDJdMSlbQ0BASF0oQyg9TylbT0hdKVtDSDJdW0NIMl1bQ0BIXTFbQ0gyXVtDSDJdW05IXVtDQEhdKFtDSDJdW0NIMl1bQ0gyXTIpW0NIMl1bQ0gyXVxbQ0hdPUMyXFtDQEBIXShbQ0gzXSlbT0hd

>  <s_glide_docking_method>  (1) 
confgen

>  <s_i_glide_gridfile>  (1) 
gpcr_5ht2c_6bqh_protein_autoprepared_prepared

>  <s_lp_Force_Field>  (1) 
S-OPLS

>  <s_lp_Variant>  (1) 
DiffSBDD_9-1

>  <s_m_source_file>  (1) 
generated_GPCR_5HT2C_ligand_DiffSBDD_2026-06-23_prepared.sdf

>  <GenAI_Model>  (1) 
DiffSBDD

>  <Protein>  (1) 
GPCR_5HT2C

$$$$
DiffSBDD_39
     RDKit          3D

  0  0  0  0  0  0  0  0  0  0999 V3000
M  V30 BEGIN CTAB
M  V30 COUNTS 57 60 0 0 1
M  V30 BEGIN ATOM
M  V30 1 C 38.297324 30.430222 59.260884 0 CFG=1
M  V30 2 N 38.445247 31.397698 58.195237 0
M  V30 3 N 40.319927 34.585771 62.640865 0
M  V30 4 C 38.904369 25.476610 56.622179 0
M  V30 5 C 38.582253 29.018509 55.408265 0
M  V30 6 O 41.598592 36.537740 62.967710 0
M  V30 7 O 39.928437 36.137745 64.471479 0
M  V30 8 N 40.870264 33.347391 62.783046 0
M  V30 9 C 38.821462 34.452220 60.586069 0 CFG=2
M  V30 10 F 41.645067 35.976421 66.505762 0
M  V30 11 O 37.847928 24.629620 56.233982 0
M  V30 12 F 38.977329 26.937764 51.801619 0
M  V30 13 C 38.529641 31.055173 56.882472 0
M  V30 14 O 37.770342 32.277409 60.809705 0
M  V30 15 C 38.780078 32.985127 60.102341 0 CFG=1
M  V30 16 C 38.952065 34.592282 62.112551 0
M  V30 17 O 38.675633 31.884350 55.989121 0
M  V30 18 N 41.849341 34.681830 65.883679 0
M  V30 19 C 40.886190 35.538879 63.629495 0
M  V30 20 C 38.787872 29.009587 52.963430 0
M  V30 21 C 38.655739 29.720666 54.168590 0
M  V30 22 N 38.568266 26.895527 56.641151 0
M  V30 23 C 38.768292 26.900473 54.180859 0
M  V30 24 C 37.872562 30.870734 60.643128 0 CFG=1
M  V30 25 C 38.844811 27.608756 52.968333 0
M  V30 26 O 36.943770 30.291345 59.707687 0
M  V30 27 C 41.745861 33.426601 63.706941 0
M  V30 28 C 38.515822 32.810602 58.594792 0
M  V30 29 C 41.943199 34.717962 64.413609 0 CFG=2
M  V30 30 O 37.629364 35.090108 60.173715 0
M  V30 31 N 38.453941 29.708043 56.682837 0
M  V30 32 C 41.075593 33.615013 66.501488 0
M  V30 33 C 38.638303 27.597677 55.411145 0
M  V30 34 H 38.875188 29.508585 59.223350 0
M  V30 35 H 39.177614 25.199638 57.641018 0
M  V30 36 H 39.794077 25.277102 56.022756 0
M  V30 37 H 41.824064 37.205755 63.610674 0
M  V30 38 H 40.330137 36.259734 65.323461 0
M  V30 39 H 39.649627 34.978711 60.112680 0
M  V30 40 H 37.075341 25.162045 56.120404 0
M  V30 41 H 39.748383 32.542508 60.344411 0
M  V30 42 H 38.470272 35.514060 62.440676 0
M  V30 43 H 38.420256 33.765628 62.567781 0
M  V30 44 H 38.845596 29.545234 52.027589 0
M  V30 45 H 38.610131 30.787759 54.126730 0
M  V30 46 H 38.639019 27.399852 57.509779 0
M  V30 47 H 38.811005 25.823811 54.164663 0
M  V30 48 H 38.128738 30.283348 61.523090 0
M  V30 49 H 42.351312 32.563968 63.984902 0
M  V30 50 H 39.301816 33.324707 58.040199 0
M  V30 51 H 37.572446 33.279018 58.309160 0
M  V30 52 H 42.938555 35.091627 64.197755 0
M  V30 53 H 36.907651 34.514080 60.382163 0
M  V30 54 H 38.334835 29.128603 57.494643 0
M  V30 55 H 41.486293 32.632357 66.269730 0
M  V30 56 H 41.089873 33.730055 67.585383 0
M  V30 57 H 40.045099 33.648181 66.167770 0
M  V30 END ATOM
M  V30 BEGIN BOND
M  V30 1 1 2 1
M  V30 2 1 8 3
M  V30 3 1 11 4
M  V30 4 1 13 2
M  V30 5 1 15 9
M  V30 6 1 15 14
M  V30 7 1 16 3
M  V30 8 1 16 9
M  V30 9 2 17 13
M  V30 10 1 18 10
M  V30 11 1 19 3
M  V30 12 1 19 6
M  V30 13 1 19 7
M  V30 14 1 21 5
M  V30 15 2 21 20
M  V30 16 1 22 4
M  V30 17 1 24 1
M  V30 18 1 24 14
M  V30 19 1 25 12
M  V30 20 1 25 20
M  V30 21 2 25 23
M  V30 22 1 26 1
M  V30 23 1 26 24
M  V30 24 2 27 8
M  V30 25 1 28 2
M  V30 26 1 28 15
M  V30 27 1 29 18
M  V30 28 1 29 19
M  V30 29 1 29 27
M  V30 30 1 30 9
M  V30 31 1 31 5
M  V30 32 1 31 13
M  V30 33 1 32 18
M  V30 34 2 33 5
M  V30 35 1 33 22
M  V30 36 1 33 23
M  V30 37 1 1 34 CFG=1
M  V30 38 1 35 4
M  V30 39 1 36 4
M  V30 40 1 37 6
M  V30 41 1 38 7
M  V30 42 1 9 39 CFG=3
M  V30 43 1 40 11
M  V30 44 1 15 41 CFG=3
M  V30 45 1 42 16
M  V30 46 1 43 16
M  V30 47 1 44 20
M  V30 48 1 45 21
M  V30 49 1 46 22
M  V30 50 1 47 23
M  V30 51 1 24 48 CFG=1
M  V30 52 1 49 27
M  V30 53 1 50 28
M  V30 54 1 51 28
M  V30 55 1 29 52 CFG=1
M  V30 56 1 53 30
M  V30 57 1 54 31
M  V30 58 1 55 32
M  V30 59 1 56 32
M  V30 60 1 57 32
M  V30 END BOND
M  V30 END CTAB
M  END
>  <i_epik_Tot_Q>  (1) 
0

>  <i_epik_Tot_abs_Q>  (1) 
0

>  <i_i_glide_confnum>  (1) 
87

>  <i_i_glide_lignum>  (1) 
82

>  <i_i_glide_posenum>  (1) 
127

>  <i_i_glide_rotatable_bonds>  (1) 
13

>  <i_lp_mmshare_version>  (1) 
72125

>  <i_m_source_file_index>  (1) 
40

>  <i_f3d_flags>  (1) 
0

>  <num_sample>  (1) 
50

>  <b_lp_Chiralities_Consistent>  (1) 
1

>  <r_epik_Charging_Adjusted_Penalty>  (1) 
0.0039576598872860577

>  <r_epik_Ionization_Penalty>  (1) 
0.0039962828818057711

>  <r_epik_Ionization_Penalty_Charging>  (1) 
0

>  <r_epik_Ionization_Penalty_Neutral>  (1) 
0.0039962828818057711

>  <r_epik_State_Penalty>  (1) 
0.0039576598872860577

>  <r_glide_ring_energy>  (1) 
0

>  <r_i_docking_score>  (1) 
-6.8128331428094873

>  <r_i_glide_ecoul>  (1) 
-4.4911273903602567

>  <r_i_glide_eff_state_penalty>  (1) 
0.0039576598872860577

>  <r_i_glide_einternal>  (1) 
10.083149991725527

>  <r_i_glide_emodel>  (1) 
-64.526699483117554

>  <r_i_glide_emodel_strain>  (1) 
0.98408944811964716

>  <r_i_glide_energy>  (1) 
-48.80503553201666

>  <r_i_glide_erotb>  (1) 
0.71920970627699021

>  <r_i_glide_esite>  (1) 
-0.18327041467924443

>  <r_i_glide_evdw>  (1) 
-44.313908141656405

>  <r_i_glide_gscore>  (1) 
-6.8167908026967732

>  <r_i_glide_gscore_strain>  (1) 
0

>  <r_i_glide_hbond>  (1) 
-0.32000000000000001

>  <r_i_glide_ligand_efficiency>  (1) 
-0.20644948917604508

>  <r_i_glide_ligand_efficiency_ln>  (1) 
-1.5151388159986918

>  <r_i_glide_ligand_efficiency_sa>  (1) 
-0.66219382394226645

>  <r_i_glide_lipo>  (1) 
-2.1142887810240514

>  <r_i_glide_metal>  (1) 
-0

>  <r_i_glide_rewards>  (1) 
-2.029076797633607

>  <r_lp_Energy>  (1) 
32.683669000000002

>  <s_epik_Chemistry_Notes>  (1) 
This compound has an imine and may undergo hydrolysis. This compound contains an acetal/aminal-like group ( X-CH(R)-Y where X, Y are N, S, or O) that may be acid/base labile, releasing an aldehyde.

>  <s_epik_cmdline>  (1) 
J2VwaWtfcHl0aG9uJywgJy1waHQnLCAnMS4wJywgJy1waCcsICc3LjQnLCAnLXRuJywgJzgnLCAnLW1hJywgJzUwMCcsICctaW1hZScsICc8aW5maWxlLm1hZT4nLCAnLW9tYWUnLCAnPG91dGZpbGUubWFlPic=

>  <s_epik_input>  (1) 
Rk4oW0NIM10pW0NASF0xW0NIXT1OTihDMShbT0hdKVtPSF0pW0NIMl1bQ0BIXShbT0hdKVtDQEBIXShPW0NAQEhdKE8yKVtDQEBIXTIzKVtDSDJdTjNDKD1PKVtOSF1jNFtjSF1bY0hdYyhGKVtjSF1jNFtOSF1bQ0gyXVtPSF0=

>  <s_glide_docking_method>  (1) 
confgen

>  <s_i_glide_gridfile>  (1) 
gpcr_5ht2c_6bqh_protein_autoprepared_prepared

>  <s_lp_Force_Field>  (1) 
S-OPLS

>  <s_lp_Variant>  (1) 
DiffSBDD_39-1

>  <s_m_source_file>  (1) 
generated_GPCR_5HT2C_ligand_DiffSBDD_2026-06-23_prepared.sdf

>  <GenAI_Model>  (1) 
DiffSBDD

>  <Protein>  (1) 
GPCR_5HT2C

$$$$
DiffSBDD_40
     RDKit          3D

  0  0  0  0  0  0  0  0  0  0999 V3000
M  V30 BEGIN CTAB
M  V30 COUNTS 59 62 0 0 1
M  V30 BEGIN ATOM
M  V30 1 C 39.065560 26.628979 57.375652 0 CFG=1
M  V30 2 C 39.490772 29.809185 54.975004 0 CFG=2
M  V30 3 C 39.619614 27.810322 56.591125 0 CFG=1
M  V30 4 C 38.008371 24.742425 55.855506 0
M  V30 5 C 39.428650 31.306136 62.282605 0
M  V30 6 O 39.775728 28.486473 59.371356 0
M  V30 7 C 39.274955 30.877605 56.062203 0
M  V30 8 F 38.799263 27.567594 51.487146 0
M  V30 9 C 40.899989 32.356579 64.498921 0
M  V30 10 F 37.247793 28.300548 52.770705 0
M  V30 11 C 38.878951 30.331628 53.660727 0
M  V30 12 N 40.546256 33.219965 63.370363 0
M  V30 13 O 37.748142 31.103090 58.977819 0
M  V30 14 C 38.958976 28.390707 55.342936 0 CFG=2
M  V30 15 C 37.806819 24.345772 57.292787 0
M  V30 16 C 38.828476 32.950271 60.074247 0
M  V30 17 S 39.245115 27.228552 53.972684 0
M  V30 18 C 36.835601 30.014666 59.109680 0
M  V30 19 C 41.271739 33.231200 65.704494 0
M  V30 20 P 38.886981 28.242240 58.201666 0 CFG=2
M  V30 21 C 42.067866 31.414605 64.156698 0
M  V30 22 C 39.530123 33.480091 61.174376 0
M  V30 23 C 38.571789 28.219117 52.625980 0
M  V30 24 O 39.188779 29.492656 52.555893 0
M  V30 25 C 37.870531 25.810199 56.919191 0
M  V30 26 C 38.425794 31.601965 60.071895 0
M  V30 27 C 38.732629 30.778654 61.182164 0
M  V30 28 C 39.836318 32.664693 62.283100 0
M  V30 29 C 37.154096 28.933019 58.068440 0
M  V30 30 H 39.838546 26.018394 57.839420 0
M  V30 31 H 40.567395 29.737755 54.829854 0
M  V30 32 H 40.705895 27.876123 56.564511 0
M  V30 33 H 37.173876 24.604787 55.170710 0
M  V30 34 H 38.994509 24.568120 55.428996 0
M  V30 35 H 39.650788 30.664280 63.118117 0
M  V30 36 H 38.216505 31.063165 56.244772 0
M  V30 37 H 39.744663 30.610035 57.005721 0
M  V30 38 H 39.715992 31.828446 55.761866 0
M  V30 39 H 40.037889 31.770315 64.811094 0
M  V30 40 H 39.285842 31.317739 53.433717 0
M  V30 41 H 37.801326 30.465677 53.767806 0
M  V30 42 H 40.849189 34.183699 63.356932 0
M  V30 43 H 37.879700 28.415254 55.464276 0
M  V30 44 H 38.667584 23.882571 57.767763 0
M  V30 45 H 36.845145 23.930540 57.570407 0
M  V30 46 H 38.599347 33.580648 59.227249 0
M  V30 47 H 36.744861 29.586433 60.101496 0
M  V30 48 H 35.841558 30.411600 58.901953 0
M  V30 49 H 41.517337 32.618579 66.572564 0
M  V30 50 H 42.135810 33.862127 65.490720 0
M  V30 51 H 40.445137 33.881765 65.991142 0
M  V30 52 H 41.832163 30.707076 63.364076 0
M  V30 53 H 42.372723 30.831629 65.026044 0
M  V30 54 H 42.925407 31.987162 63.821488 0
M  V30 55 H 39.836119 34.515812 61.166365 0
M  V30 56 H 36.919458 26.334757 56.892113 0
M  V30 57 H 38.445081 29.741519 61.190691 0
M  V30 58 H 36.436189 28.125810 58.167766 0
M  V30 59 H 36.986561 29.371733 57.090349 0
M  V30 END ATOM
M  V30 BEGIN BOND
M  V30 1 1 3 1
M  V30 2 1 7 2
M  V30 3 1 11 2
M  V30 4 1 12 9
M  V30 5 1 14 2
M  V30 6 1 14 3
M  V30 7 1 15 4
M  V30 8 1 17 14
M  V30 9 1 18 13
M  V30 10 1 19 9
M  V30 11 1 20 1
M  V30 12 1 20 3
M  V30 13 2 20 6
M  V30 14 1 21 9
M  V30 15 1 22 16
M  V30 16 1 23 8
M  V30 17 1 23 10
M  V30 18 1 23 17
M  V30 19 1 24 11
M  V30 20 1 24 23
M  V30 21 1 25 1
M  V30 22 1 25 4
M  V30 23 1 25 15
M  V30 24 1 26 13
M  V30 25 2 26 16
M  V30 26 2 27 5
M  V30 27 1 27 26
M  V30 28 1 28 5
M  V30 29 1 28 12
M  V30 30 2 28 22
M  V30 31 1 29 18
M  V30 32 1 20 29 CFG=3
M  V30 33 1 1 30 CFG=1
M  V30 34 1 2 31 CFG=3
M  V30 35 1 3 32 CFG=1
M  V30 36 1 33 4
M  V30 37 1 34 4
M  V30 38 1 35 5
M  V30 39 1 36 7
M  V30 40 1 37 7
M  V30 41 1 38 7
M  V30 42 1 39 9
M  V30 43 1 40 11
M  V30 44 1 41 11
M  V30 45 1 42 12
M  V30 46 1 14 43 CFG=1
M  V30 47 1 44 15
M  V30 48 1 45 15
M  V30 49 1 46 16
M  V30 50 1 47 18
M  V30 51 1 48 18
M  V30 52 1 49 19
M  V30 53 1 50 19
M  V30 54 1 51 19
M  V30 55 1 52 21
M  V30 56 1 53 21
M  V30 57 1 54 21
M  V30 58 1 55 22
M  V30 59 1 56 25
M  V30 60 1 57 27
M  V30 61 1 58 29
M  V30 62 1 59 29
M  V30 END BOND
M  V30 END CTAB
M  END
>  <i_epik_Tot_Q>  (1) 
0

>  <i_epik_Tot_abs_Q>  (1) 
0

>  <i_i_glide_confnum>  (1) 
114

>  <i_i_glide_lignum>  (1) 
84

>  <i_i_glide_posenum>  (1) 
400

>  <i_i_glide_rotatable_bonds>  (1) 
8

>  <i_lp_mmshare_version>  (1) 
72125

>  <i_m_source_file_index>  (1) 
41

>  <i_f3d_flags>  (1) 
0

>  <num_sample>  (1) 
50

>  <b_lp_Chiralities_Consistent>  (1) 
1

>  <r_epik_Charging_Adjusted_Penalty>  (1) 
0.10621715127672696

>  <r_epik_Ionization_Penalty>  (1) 
0.10621715241272391

>  <r_epik_Ionization_Penalty_Charging>  (1) 
0

>  <r_epik_Ionization_Penalty_Neutral>  (1) 
0.10621715241272391

>  <r_epik_State_Penalty>  (1) 
0.10621715127672696

>  <r_glide_ring_energy>  (1) 
0

>  <r_i_docking_score>  (1) 
-6.8052044359091548

>  <r_i_glide_ecoul>  (1) 
-0.79154615033812981

>  <r_i_glide_eff_state_penalty>  (1) 
0.10621715127672696

>  <r_i_glide_einternal>  (1) 
9.233349917696108

>  <r_i_glide_emodel>  (1) 
-53.770633477933124

>  <r_i_glide_emodel_strain>  (1) 
2.0977294037196472

>  <r_i_glide_energy>  (1) 
-42.589968006753303

>  <r_i_glide_erotb>  (1) 
0.70566581847089904

>  <r_i_glide_esite>  (1) 
0

>  <r_i_glide_evdw>  (1) 
-41.798421856415175

>  <r_i_glide_gscore>  (1) 
-6.911421587185882

>  <r_i_glide_gscore_strain>  (1) 
0

>  <r_i_glide_hbond>  (1) 
0

>  <r_i_glide_ligand_efficiency>  (1) 
-0.2346622219279019

>  <r_i_glide_ligand_efficiency_ln>  (1) 
-1.5582192507280255

>  <r_i_glide_ligand_efficiency_sa>  (1) 
-0.72095669278191943

>  <r_i_glide_lipo>  (1) 
-3.8356116308258983

>  <r_i_glide_metal>  (1) 
-0

>  <r_i_glide_rewards>  (1) 
-1.5728227594594042

>  <r_lp_Energy>  (1) 
18.098853999999999

>  <s_epik_cmdline>  (1) 
J2VwaWtfcHl0aG9uJywgJy1waHQnLCAnMS4wJywgJy1waCcsICc3LjQnLCAnLXRuJywgJzgnLCAnLW1hJywgJzUwMCcsICctaW1hZScsICc8aW5maWxlLm1hZT4nLCAnLW9tYWUnLCAnPG91dGZpbGUubWFlPic=

>  <s_epik_input>  (1) 
RkMxKEYpU1tDQEBIXShbQ0BIXShbQ0gzXSlbQ0gyXU8xKVtDQEBIXTJbQ0BIXShbQ0hdM1tDSDJdW0NIMl0zKVAyKD1PKVtDSDJdW0NIMl1PYzRbY0hdW2NIXWMoW2NIXVtjSF00KVtOSF1bQ0hdKFtDSDNdKVtDSDNd

>  <s_glide_docking_method>  (1) 
confgen

>  <s_i_glide_gridfile>  (1) 
gpcr_5ht2c_6bqh_protein_autoprepared_prepared

>  <s_lp_Force_Field>  (1) 
S-OPLS

>  <s_lp_Variant>  (1) 
DiffSBDD_40-2

>  <s_m_source_file>  (1) 
generated_GPCR_5HT2C_ligand_DiffSBDD_2026-06-23_prepared.sdf

>  <GenAI_Model>  (1) 
DiffSBDD

>  <Protein>  (1) 
GPCR_5HT2C

$$$$
DiffSBDD_17
     RDKit          3D

  0  0  0  0  0  0  0  0  0  0999 V3000
M  V30 BEGIN CTAB
M  V30 COUNTS 94 98 0 0 1
M  V30 BEGIN ATOM
M  V30 1 C 43.659976 31.688678 67.228249 0
M  V30 2 C 38.199077 32.519046 61.706880 0 CFG=2
M  V30 3 C 41.576026 30.171518 66.975286 0
M  V30 4 O 39.950301 28.137901 61.337494 0
M  V30 5 C 41.536134 32.218825 68.471202 0
M  V30 6 C 38.093995 27.835338 54.882331 0
M  V30 7 C 38.693149 25.470409 55.454426 0
M  V30 8 C 38.201200 26.536864 54.578344 0
M  V30 9 C 39.644855 34.132708 59.766808 0
M  V30 10 C 40.478830 34.628023 62.803214 0
M  V30 11 N 43.162125 29.170783 65.277661 0
M  V30 12 C 39.126867 35.014463 62.215939 0 CFG=2
M  V30 13 C 41.063013 30.431441 64.483979 0 CFG=1
M  V30 14 C 39.477803 31.789075 62.250176 0
M  V30 15 N 43.342835 28.403824 64.028625 0 CHG=1
M  V30 16 C 37.788284 30.040293 54.454088 0 CFG=2
M  V30 17 C 38.502450 28.503702 56.142204 0 CFG=2
M  V30 18 C 44.680323 27.434917 65.766200 0
M  V30 19 C 41.750333 29.524822 65.565314 0 CFG=2
M  V30 20 O 37.607378 28.720674 53.963681 0
M  V30 21 C 44.082721 27.178484 64.374560 0
M  V30 22 O 42.015706 31.205425 63.777022 0
M  V30 23 N 37.645126 31.282247 58.032517 0 CHG=1
M  V30 24 C 38.272460 27.852564 57.465291 0
M  V30 25 C 37.517843 32.006306 60.403758 0
M  V30 26 C 38.793523 25.476318 56.814580 0
M  V30 27 N 38.124037 34.021715 61.767761 0 CFG=1 CHG=1
M  V30 28 C 39.561312 29.477475 61.127196 0
M  V30 29 S 39.335844 30.784720 53.852261 0
M  V30 30 C 39.410643 30.248173 62.464006 0 CFG=1
M  V30 31 C 38.431751 26.550879 57.749995 0
M  V30 32 N 40.445065 29.668246 63.376010 0 CHG=1
M  V30 33 C 38.766649 34.848775 60.760268 0 CFG=2
M  V30 34 C 38.393675 31.049450 56.779759 0
M  V30 35 C 38.828923 33.418158 58.671917 0
M  V30 36 C 37.800857 29.860802 55.983640 0 CFG=1
M  V30 37 C 38.362241 32.011070 59.108840 0 CFG=2
M  V30 38 N 43.813351 28.451979 66.386315 0 CHG=1
M  V30 39 C 42.123625 31.609923 67.186992 0
M  V30 40 H 44.075411 31.026872 67.988867 0
M  V30 41 H 44.109343 31.439579 66.268211 0
M  V30 42 H 43.990608 32.700584 67.466982 0
M  V30 43 H 37.462647 32.273839 62.473137 0
M  V30 44 H 40.500159 30.205472 67.160847 0
M  V30 45 H 41.942329 29.519640 67.768585 0
M  V30 46 H 39.961119 27.678561 60.507422 0
M  V30 47 H 41.802232 31.632671 69.351258 0
M  V30 48 H 41.897989 33.235464 68.632524 0
M  V30 49 H 40.448257 32.272724 68.421396 0
M  V30 50 H 38.968223 24.546790 54.965530 0
M  V30 51 H 37.899850 26.245645 53.582135 0
M  V30 52 H 40.319049 33.432182 60.235340 0
M  V30 53 H 40.311981 34.894631 59.367789 0
M  V30 54 H 41.077022 35.533789 62.913966 0
M  V30 55 H 40.367710 34.205577 63.800129 0
M  V30 56 H 41.063527 33.962578 62.177359 0
M  V30 57 H 38.602541 35.787632 62.773658 0
M  V30 58 H 40.293735 31.054155 64.942617 0
M  V30 59 H 39.642079 32.231881 63.225525 0
M  V30 60 H 40.367922 31.984772 61.662693 0
M  V30 61 H 42.443957 28.171123 63.638634 0
M  V30 62 H 36.952766 30.678006 54.167723 0
M  V30 63 H 39.580127 28.658282 56.063069 0
M  V30 64 H 45.683377 27.853347 65.670145 0
M  V30 65 H 44.751532 26.534574 66.375968 0
M  V30 66 H 41.193933 28.586658 65.610175 0
M  V30 67 H 44.833761 26.939208 63.619876 0
M  V30 68 H 43.373189 26.350929 64.417107 0
M  V30 69 H 42.154514 32.020998 64.241650 0
M  V30 70 H 37.385951 30.374668 58.385906 0
M  V30 71 H 38.004025 28.518090 58.270036 0
M  V30 72 H 37.141285 31.001614 60.587056 0
M  V30 73 H 36.611717 32.588511 60.224707 0
M  V30 74 H 39.138988 24.555493 57.264255 0
M  V30 75 H 40.338569 29.925682 60.507867 0
M  V30 76 H 38.639215 29.464350 60.552586 0
M  V30 77 H 38.953097 30.927209 52.579733 0
M  V30 78 H 38.445788 30.027626 62.917197 0
M  V30 79 H 38.283558 26.261122 58.778942 0
M  V30 80 H 39.949121 28.878478 63.779298 0
M  V30 81 H 38.041889 35.544863 60.341906 0
M  V30 82 H 38.308185 31.971502 56.203028 0
M  V30 83 H 39.455515 30.887683 56.970951 0
M  V30 84 H 39.467232 33.336225 57.791999 0
M  V30 85 H 37.978348 34.028898 58.362408 0
M  V30 86 H 36.754036 29.741798 56.270381 0
M  V30 87 H 39.245144 31.419271 59.304045 0
M  V30 88 H 44.345542 29.119949 66.930581 0
M  V30 89 H 41.784939 32.250303 66.373112 0
M  V30 90 H 43.883088 28.982510 63.396726 0
M  V30 91 H 43.083315 28.028354 66.944863 0
M  V30 92 H 36.761535 31.737687 57.765008 0
M  V30 93 H 41.152954 29.302592 62.761563 0
M  V30 94 H 37.178814 34.356918 61.905658 0
M  V30 END ATOM
M  V30 BEGIN BOND
M  V30 1 2 8 6
M  V30 2 1 8 7
M  V30 3 1 12 10
M  V30 4 1 14 2
M  V30 5 1 15 11
M  V30 6 1 17 6
M  V30 7 1 19 3
M  V30 8 1 19 11
M  V30 9 1 19 13
M  V30 10 1 20 6
M  V30 11 1 20 16
M  V30 12 1 21 15
M  V30 13 1 21 18
M  V30 14 1 22 13
M  V30 15 1 24 17
M  V30 16 1 25 2
M  V30 17 2 26 7
M  V30 18 1 27 2
M  V30 19 1 27 12
M  V30 20 1 28 4
M  V30 21 1 29 16
M  V30 22 1 30 14
M  V30 23 1 30 28
M  V30 24 2 31 24
M  V30 25 1 31 26
M  V30 26 1 32 13
M  V30 27 1 32 30
M  V30 28 1 33 9
M  V30 29 1 33 12
M  V30 30 1 33 27
M  V30 31 1 34 23
M  V30 32 1 35 9
M  V30 33 1 36 16
M  V30 34 1 36 17
M  V30 35 1 36 34
M  V30 36 1 37 23
M  V30 37 1 37 25
M  V30 38 1 37 35
M  V30 39 1 38 11
M  V30 40 1 38 18
M  V30 41 1 39 1
M  V30 42 1 39 3
M  V30 43 1 39 5
M  V30 44 1 40 1
M  V30 45 1 41 1
M  V30 46 1 42 1
M  V30 47 1 2 43 CFG=1
M  V30 48 1 44 3
M  V30 49 1 45 3
M  V30 50 1 46 4
M  V30 51 1 47 5
M  V30 52 1 48 5
M  V30 53 1 49 5
M  V30 54 1 50 7
M  V30 55 1 51 8
M  V30 56 1 52 9
M  V30 57 1 53 9
M  V30 58 1 54 10
M  V30 59 1 55 10
M  V30 60 1 56 10
M  V30 61 1 12 57 CFG=1
M  V30 62 1 13 58 CFG=1
M  V30 63 1 59 14
M  V30 64 1 60 14
M  V30 65 1 61 15
M  V30 66 1 16 62 CFG=1
M  V30 67 1 17 63 CFG=3
M  V30 68 1 64 18
M  V30 69 1 65 18
M  V30 70 1 19 66 CFG=1
M  V30 71 1 67 21
M  V30 72 1 68 21
M  V30 73 1 69 22
M  V30 74 1 70 23
M  V30 75 1 71 24
M  V30 76 1 72 25
M  V30 77 1 73 25
M  V30 78 1 74 26
M  V30 79 1 75 28
M  V30 80 1 76 28
M  V30 81 1 77 29
M  V30 82 1 30 78 CFG=1
M  V30 83 1 79 31
M  V30 84 1 80 32
M  V30 85 1 33 81 CFG=3
M  V30 86 1 82 34
M  V30 87 1 83 34
M  V30 88 1 84 35
M  V30 89 1 85 35
M  V30 90 1 36 86 CFG=1
M  V30 91 1 37 87 CFG=1
M  V30 92 1 88 38
M  V30 93 1 89 39
M  V30 94 1 90 15
M  V30 95 1 91 38
M  V30 96 1 92 23
M  V30 97 1 93 32
M  V30 98 1 27 94 CFG=1
M  V30 END BOND
M  V30 END CTAB
M  END
>  <i_epik_Tot_Q>  (1) 
5

>  <i_epik_Tot_abs_Q>  (1) 
5

>  <i_i_glide_confnum>  (1) 
259

>  <i_i_glide_lignum>  (1) 
39

>  <i_i_glide_posenum>  (1) 
368

>  <i_i_glide_rotatable_bonds>  (1) 
15

>  <i_lp_mmshare_version>  (1) 
72125

>  <i_m_source_file_index>  (1) 
18

>  <i_f3d_flags>  (1) 
0

>  <num_sample>  (1) 
50

>  <b_lp_Chiralities_Consistent>  (1) 
1

>  <r_epik_Charging_Adjusted_Penalty>  (1) 
1.9019841067917955

>  <r_epik_Ionization_Penalty>  (1) 
1.8906488358708171

>  <r_epik_Ionization_Penalty_Charging>  (1) 
0.55913698057276895

>  <r_epik_Ionization_Penalty_Neutral>  (1) 
1.3315118552980483

>  <r_epik_State_Penalty>  (1) 
1.3428471262190267

>  <r_glide_ring_energy>  (1) 
0.0045750838620950583

>  <r_i_docking_score>  (1) 
-6.8051323085052005

>  <r_i_glide_ecoul>  (1) 
-11.110664686155841

>  <r_i_glide_eff_state_penalty>  (1) 
1.3428471262190267

>  <r_i_glide_einternal>  (1) 
18.758703679951584

>  <r_i_glide_emodel>  (1) 
-78.769969483808751

>  <r_i_glide_emodel_strain>  (1) 
3.5602679677552089

>  <r_i_glide_energy>  (1) 
-55.526731520091161

>  <r_i_glide_erotb>  (1) 
0.55832093698931284

>  <r_i_glide_esite>  (1) 
-0.13883926242809466

>  <r_i_glide_evdw>  (1) 
-44.416066833935318

>  <r_i_glide_gscore>  (1) 
-8.1479794347242276

>  <r_i_glide_gscore_strain>  (1) 
0

>  <r_i_glide_hbond>  (1) 
-0.20000000000000001

>  <r_i_glide_ligand_efficiency>  (1) 
-0.17449057201295387

>  <r_i_glide_ligand_efficiency_ln>  (1) 
-1.4592135421117189

>  <r_i_glide_ligand_efficiency_sa>  (1) 
-0.59173442450841673

>  <r_i_glide_lipo>  (1) 
-3.4911909068930997

>  <r_i_glide_metal>  (1) 
-0

>  <r_i_glide_rewards>  (1) 
-0.98886715777220235

>  <r_lp_Energy>  (1) 
89.857205999999991

>  <s_epik_Chemistry_Notes>  (1) 
This compound contains an acetal/aminal-like group ( X-CH(R)-Y where X, Y are N, S, or O) that may be acid/base labile, releasing an aldehyde.

>  <s_epik_cmdline>  (1) 
J2VwaWtfcHl0aG9uJywgJy1waHQnLCAnMS4wJywgJy1waCcsICc3LjQnLCAnLXRuJywgJzgnLCAnLW1hJywgJzUwMCcsICctaW1hZScsICc8aW5maWxlLm1hZT4nLCAnLW9tYWUnLCAnPG91dGZpbGUubWFlPic=

>  <s_epik_input>  (1) 
W05IXTFbQ0gyXVtDSDJdW05IXU4xW0NAQEhdKFtDSDJdW0NIXShbQ0gzXSlbQ0gzXSlbQ0BASF0oW09IXSlbTkhdW0NASF0oW0NIMl1bT0hdKVtDSDJdW0NAQEhdMltDSDJdW0NASF0oW0NIMl1bQ0gyXVtDQEBIXShOMjMpW0NIXTNbQ0gzXSlbTkhdW0NIMl1bQ0BASF0oW0NASF0oTzQpW1NIXSlbQ0BIXShDND01KVtDSF09W0NIXVtDSF09W0NIXVtDSF01

>  <s_glide_docking_method>  (1) 
confgen

>  <s_i_glide_gridfile>  (1) 
gpcr_5ht2c_6bqh_protein_autoprepared_prepared

>  <s_lp_Force_Field>  (1) 
S-OPLS

>  <s_lp_Variant>  (1) 
DiffSBDD_17-6

>  <s_m_source_file>  (1) 
generated_GPCR_5HT2C_ligand_DiffSBDD_2026-06-23_prepared.sdf

>  <GenAI_Model>  (1) 
DiffSBDD

>  <Protein>  (1) 
GPCR_5HT2C

$$$$
DiffSBDD_1
     RDKit          3D

  0  0  0  0  0  0  0  0  0  0999 V3000
M  V30 BEGIN CTAB
M  V30 COUNTS 78 81 0 0 1
M  V30 BEGIN ATOM
M  V30 1 C 39.214844 27.728954 59.405888 0
M  V30 2 N 39.164966 26.533738 55.827362 0
M  V30 3 C 37.553689 29.659002 54.780963 0 CFG=1
M  V30 4 C 37.572982 28.707864 53.585494 0
M  V30 5 C 41.098527 32.110796 66.444244 0
M  V30 6 C 41.219949 28.994843 62.311973 0
M  V30 7 C 38.285498 28.918119 55.906821 0
M  V30 8 C 39.199555 27.886299 55.210928 0 CFG=2
M  V30 9 C 42.070834 33.709397 63.999993 0
M  V30 10 N 40.061793 28.940413 61.430289 0
M  V30 11 O 36.854470 33.204622 58.568160 0
M  V30 12 C 40.746711 30.217806 61.581776 0 CFG=1
M  V30 13 C 40.696468 33.412517 63.570009 0 CFG=1
M  V30 14 O 40.575990 32.999049 62.142945 0
M  V30 15 C 35.936219 33.947675 60.628536 0
M  V30 16 C 37.853081 31.993643 54.945879 0
M  V30 17 C 40.381293 32.063996 64.023093 0
M  V30 18 C 40.420360 26.080549 56.433998 0
M  V30 19 C 38.071588 32.536933 60.498660 0
M  V30 20 O 40.134072 30.200514 65.357890 0
M  V30 21 O 36.971055 26.137727 55.371236 0
M  V30 22 C 38.036425 31.886840 61.889875 0
M  V30 23 O 38.337674 30.782036 54.408235 0
M  V30 24 O 42.440252 35.385949 65.615530 0
M  V30 25 P 39.777309 31.483352 62.484089 0 CFG=2 CHG=1
M  V30 26 C 36.675826 32.809691 59.908757 0 CFG=2
M  V30 27 C 40.540138 31.474846 65.229811 0
M  V30 28 C 39.079383 26.773914 52.826734 0
M  V30 29 O 39.579164 26.631629 58.586505 0
M  V30 30 C 38.023735 25.781602 55.879936 0
M  V30 31 C 38.083887 24.442226 56.623027 0
M  V30 32 C 41.742546 33.317594 66.555711 0
M  V30 33 C 42.091374 34.226902 65.423614 0
M  V30 34 C 40.680229 26.856282 57.722366 0
M  V30 35 C 38.927733 28.018443 53.694340 0 CFG=1
M  V30 36 C 40.414895 28.223302 60.213132 0
M  V30 37 H 38.444204 27.355962 60.076904 0
M  V30 38 H 38.774984 28.531558 58.812722 0
M  V30 39 H 36.532598 29.932531 55.053848 0
M  V30 40 H 36.758501 27.988060 53.652334 0
M  V30 41 H 37.468509 29.232344 52.637841 0
M  V30 42 H 40.961426 31.564764 67.367626 0
M  V30 43 H 42.042682 28.395116 61.937081 0
M  V30 44 H 40.914510 28.816195 63.339542 0
M  V30 45 H 37.573916 28.443404 56.578724 0
M  V30 46 H 38.861025 29.606245 56.526873 0
M  V30 47 H 40.210626 28.267235 55.354130 0
M  V30 48 H 42.737960 32.853304 63.895515 0
M  V30 49 H 42.454595 34.505437 63.368907 0
M  V30 50 H 36.261505 32.701442 57.998201 0
M  V30 51 H 41.243564 30.524106 60.665186 0
M  V30 52 H 39.995111 34.219328 63.767341 0
M  V30 53 H 35.765540 33.723782 61.681141 0
M  V30 54 H 36.501846 34.880095 60.577683 0
M  V30 55 H 34.962371 34.130947 60.174555 0
M  V30 56 H 38.483293 32.813864 54.605952 0
M  V30 57 H 36.846086 32.162393 54.571214 0
M  V30 58 H 37.840197 31.983438 56.037897 0
M  V30 59 H 41.244409 26.254629 55.746521 0
M  V30 60 H 40.445141 25.012948 56.631005 0
M  V30 61 H 38.629629 33.473346 60.547237 0
M  V30 62 H 38.627760 31.888339 59.821525 0
M  V30 63 H 39.549433 29.955845 64.656723 0
M  V30 64 H 37.444463 30.973503 61.842177 0
M  V30 65 H 37.540971 32.549541 62.592547 0
M  V30 66 H 36.074205 31.897502 59.921979 0
M  V30 67 H 38.213785 26.138267 52.975818 0
M  V30 68 H 39.115787 27.027656 51.766761 0
M  V30 69 H 39.985656 26.218104 53.068396 0
M  V30 70 H 38.458366 24.552818 57.639898 0
M  V30 71 H 37.088057 24.002837 56.702827 0
M  V30 72 H 38.708204 23.738606 56.083397 0
M  V30 73 H 42.044484 33.647010 67.540755 0
M  V30 74 H 40.809586 27.916058 57.500252 0
M  V30 75 H 41.605841 26.521003 58.189458 0
M  V30 76 H 39.641681 28.745545 53.311597 0
M  V30 77 H 41.069673 28.810728 59.567812 0
M  V30 78 H 40.981145 27.337765 60.490925 0
M  V30 END ATOM
M  V30 BEGIN BOND
M  V30 1 1 4 3
M  V30 2 1 7 3
M  V30 3 1 8 2
M  V30 4 1 8 7
M  V30 5 1 10 6
M  V30 6 1 12 6
M  V30 7 1 12 10
M  V30 8 1 13 9
M  V30 9 1 14 13
M  V30 10 1 17 13
M  V30 11 1 18 2
M  V30 12 1 22 19
M  V30 13 1 23 3
M  V30 14 1 23 16
M  V30 15 1 25 12
M  V30 16 1 25 14
M  V30 17 1 25 17
M  V30 18 1 25 22 CFG=1
M  V30 19 1 26 11
M  V30 20 1 26 15
M  V30 21 1 26 19
M  V30 22 1 27 5
M  V30 23 2 27 17
M  V30 24 1 27 20
M  V30 25 1 29 1
M  V30 26 1 30 2
M  V30 27 2 30 21
M  V30 28 1 31 30
M  V30 29 2 32 5
M  V30 30 1 33 9
M  V30 31 2 33 24
M  V30 32 1 33 32
M  V30 33 1 34 18
M  V30 34 1 34 29
M  V30 35 1 35 4
M  V30 36 1 35 8
M  V30 37 1 35 28
M  V30 38 1 36 1
M  V30 39 1 36 10
M  V30 40 1 37 1
M  V30 41 1 38 1
M  V30 42 1 3 39 CFG=1
M  V30 43 1 40 4
M  V30 44 1 41 4
M  V30 45 1 42 5
M  V30 46 1 43 6
M  V30 47 1 44 6
M  V30 48 1 45 7
M  V30 49 1 46 7
M  V30 50 1 8 47 CFG=3
M  V30 51 1 48 9
M  V30 52 1 49 9
M  V30 53 1 50 11
M  V30 54 1 12 51 CFG=3
M  V30 55 1 13 52 CFG=1
M  V30 56 1 53 15
M  V30 57 1 54 15
M  V30 58 1 55 15
M  V30 59 1 56 16
M  V30 60 1 57 16
M  V30 61 1 58 16
M  V30 62 1 59 18
M  V30 63 1 60 18
M  V30 64 1 61 19
M  V30 65 1 62 19
M  V30 66 1 63 20
M  V30 67 1 64 22
M  V30 68 1 65 22
M  V30 69 1 26 66 CFG=3
M  V30 70 1 67 28
M  V30 71 1 68 28
M  V30 72 1 69 28
M  V30 73 1 70 31
M  V30 74 1 71 31
M  V30 75 1 72 31
M  V30 76 1 73 32
M  V30 77 1 74 34
M  V30 78 1 75 34
M  V30 79 1 35 76 CFG=3
M  V30 80 1 77 36
M  V30 81 1 78 36
M  V30 END BOND
M  V30 END CTAB
M  END
>  <i_epik_Tot_Q>  (1) 
1

>  <i_epik_Tot_abs_Q>  (1) 
1

>  <i_i_glide_confnum>  (1) 
3870

>  <i_i_glide_lignum>  (1) 
6

>  <i_i_glide_posenum>  (1) 
395

>  <i_i_glide_rotatable_bonds>  (1) 
15

>  <i_lp_mmshare_version>  (1) 
72125

>  <i_m_source_file_index>  (1) 
2

>  <i_f3d_flags>  (1) 
0

>  <num_sample>  (1) 
50

>  <b_lp_Chiralities_Consistent>  (1) 
1

>  <r_epik_Charging_Adjusted_Penalty>  (1) 
0.012777702237649643

>  <r_epik_Ionization_Penalty>  (1) 
0.012893064322698497

>  <r_epik_Ionization_Penalty_Charging>  (1) 
0

>  <r_epik_Ionization_Penalty_Neutral>  (1) 
0.012893064322698497

>  <r_epik_State_Penalty>  (1) 
0.012777702237649643

>  <r_glide_ring_energy>  (1) 
0.14646081137369646

>  <r_i_docking_score>  (1) 
-6.8037150986276069

>  <r_i_glide_ecoul>  (1) 
-4.3368313173020123

>  <r_i_glide_eff_state_penalty>  (1) 
0.012777702237649643

>  <r_i_glide_einternal>  (1) 
19.89507604484119

>  <r_i_glide_emodel>  (1) 
-53.487510921020522

>  <r_i_glide_emodel_strain>  (1) 
2.9551296230968802

>  <r_i_glide_energy>  (1) 
-48.393017567445867

>  <r_i_glide_erotb>  (1) 
0.81958699115176215

>  <r_i_glide_esite>  (1) 
0

>  <r_i_glide_evdw>  (1) 
-44.056186250143853

>  <r_i_glide_gscore>  (1) 
-6.816492800865257

>  <r_i_glide_gscore_strain>  (1) 
0

>  <r_i_glide_hbond>  (1) 
-0.29156352491987952

>  <r_i_glide_ligand_efficiency>  (1) 
-0.18899208607298909

>  <r_i_glide_ligand_efficiency_ln>  (1) 
-1.4843868193810359

>  <r_i_glide_ligand_efficiency_sa>  (1) 
-0.6240381188298415

>  <r_i_glide_lipo>  (1) 
-3.2520117803203763

>  <r_i_glide_metal>  (1) 
-0

>  <r_i_glide_rewards>  (1) 
-1.2391704766742688

>  <r_lp_Energy>  (1) 
35.539625000000001

>  <s_epik_cmdline>  (1) 
J2VwaWtfcHl0aG9uJywgJy1waHQnLCAnMS4wJywgJy1waCcsICc3LjQnLCAnLXRuJywgJzgnLCAnLW1hJywgJzUwMCcsICctaW1hZScsICc8aW5maWxlLm1hZT4nLCAnLW9tYWUnLCAnPG91dGZpbGUubWFlPic=

>  <s_epik_input>  (1) 
W0NIM11PW0NASF0xW0NIMl1bQ0BIXShbQ0gzXSlbQ0BASF0oW0NIMl0xKU4oQyg9TylbQ0gzXSlbQ0gyXVtDSDJdT1tDSDJdW0NIMl1OMltDSDJdW0NIXTJbUEBAK10oTzMpKFtDSDJdW0NIMl1bQ0BIXShbT0hdKVtDSDNdKUMoW0NAQEhdMzQpPUMoW09IXSlbQ0hdPVtDSF1DKD1PKVtDSDJdNA==

>  <s_glide_docking_method>  (1) 
confgen

>  <s_i_glide_gridfile>  (1) 
gpcr_5ht2c_6bqh_protein_autoprepared_prepared

>  <s_lp_Force_Field>  (1) 
S-OPLS

>  <s_lp_Variant>  (1) 
DiffSBDD_1-2

>  <s_m_source_file>  (1) 
generated_GPCR_5HT2C_ligand_DiffSBDD_2026-06-23_prepared.sdf

>  <GenAI_Model>  (1) 
DiffSBDD

>  <Protein>  (1) 
GPCR_5HT2C

$$$$
DiffSBDD_13
     RDKit          3D

  0  0  0  0  0  0  0  0  0  0999 V3000
M  V30 BEGIN CTAB
M  V30 COUNTS 80 81 0 0 1
M  V30 BEGIN ATOM
M  V30 1 N 36.958313 28.879894 58.167723 0
M  V30 2 C 40.078055 28.114140 58.558500 0 CFG=2
M  V30 3 O 36.045824 37.773708 62.652316 0
M  V30 4 C 39.294758 30.859731 54.003074 0
M  V30 5 C 39.778027 25.590329 57.993695 0
M  V30 6 C 38.734008 32.487420 58.177809 0
M  V30 7 C 35.801626 34.462871 60.101012 0
M  V30 8 C 39.750813 30.105502 60.033808 0
M  V30 9 C 38.620963 26.241846 54.215296 0
M  V30 10 O 39.245139 32.550171 59.492098 0
M  V30 11 C 39.040709 31.462830 60.387751 0 CFG=2
M  V30 12 N 39.227658 29.304511 58.903747 0
M  V30 13 O 36.845135 39.557857 61.367722 0
M  V30 14 C 39.168769 26.765679 52.808223 0
M  V30 15 C 38.961259 28.512429 54.442279 0
M  V30 16 C 37.625848 35.868132 60.703040 0 CFG=1
M  V30 17 C 38.976270 29.831087 54.894112 0
M  V30 18 C 41.441165 28.550297 57.979599 0
M  V30 19 C 38.652195 27.376448 55.326847 0 CFG=2
M  V30 20 C 39.030113 33.282986 62.230749 0
M  V30 21 C 39.679590 34.545406 61.628030 0
M  V30 22 C 37.893332 28.877877 59.291755 0
M  V30 23 C 37.004650 38.199940 61.714033 0
M  V30 24 C 38.806352 35.803643 61.707263 0
M  V30 25 O 39.741321 27.187395 56.231750 0
M  V30 26 C 39.417930 27.022483 57.610978 0 CFG=2
M  V30 27 C 42.547026 27.515029 57.858947 0
M  V30 28 C 39.605507 29.204065 52.225249 0
M  V30 29 F 39.256666 32.137754 54.425174 0
M  V30 30 O 36.571676 35.026269 61.155931 0
M  V30 31 C 39.244883 28.203703 53.150600 0
M  V30 32 C 37.089072 37.307847 60.460969 0
M  V30 33 C 39.644922 30.550012 52.660972 0
M  V30 34 O 37.101854 30.137715 57.515236 0
M  V30 35 C 39.618458 31.954719 61.729925 0
M  V30 36 H 37.249533 28.249283 57.437194 0
M  V30 37 H 40.293316 27.611745 59.501792 0
M  V30 38 H 35.199431 37.741099 62.237587 0
M  V30 39 H 39.355471 25.365867 58.967614 0
M  V30 40 H 39.366717 24.873369 57.280017 0
M  V30 41 H 40.845373 25.421996 58.057081 0
M  V30 42 H 39.001083 33.403148 57.653533 0
M  V30 43 H 39.171028 31.664126 57.614649 0
M  V30 44 H 37.648330 32.427350 58.182762 0
M  V30 45 H 35.009295 33.838782 60.513329 0
M  V30 46 H 35.331141 35.226989 59.481834 0
M  V30 47 H 36.413164 33.834118 59.456196 0
M  V30 48 H 39.699054 29.472292 60.922349 0
M  V30 49 H 40.812193 30.291542 59.943326 0
M  V30 50 H 39.096015 25.323229 54.563916 0
M  V30 51 H 37.568849 25.993770 54.065070 0
M  V30 52 H 37.964928 31.358465 60.517359 0
M  V30 53 H 36.229244 39.635935 60.646125 0
M  V30 54 H 38.480919 26.580900 51.983027 0
M  V30 55 H 40.149517 26.358775 52.577697 0
M  V30 56 H 37.999753 35.488634 59.753591 0
M  V30 57 H 38.746482 30.057562 55.913883 0
M  V30 58 H 41.245142 28.937696 56.984931 0
M  V30 59 H 41.880471 29.348717 58.565023 0
M  V30 60 H 37.677219 27.524776 55.790551 0
M  V30 61 H 37.951745 33.268020 62.076277 0
M  V30 62 H 39.185365 33.334947 63.308098 0
M  V30 63 H 40.608743 34.732637 62.166767 0
M  V30 64 H 39.989264 34.415631 60.595533 0
M  V30 65 H 37.432980 29.500688 60.050664 0
M  V30 66 H 38.045118 27.906445 59.765431 0
M  V30 67 H 37.967180 38.137749 62.201280 0
M  V30 68 H 38.449761 35.940152 62.728962 0
M  V30 69 H 39.471522 36.642531 61.505176 0
M  V30 70 H 38.344368 26.967423 57.724260 0
M  V30 71 H 43.517525 27.989861 57.719873 0
M  V30 72 H 42.612101 26.872005 58.734027 0
M  V30 73 H 42.366031 26.933691 56.967745 0
M  V30 74 H 39.846681 28.949618 51.203618 0
M  V30 75 H 37.774406 37.791027 59.763115 0
M  V30 76 H 36.129801 37.292239 59.944002 0
M  V30 77 H 39.905765 31.338643 51.971011 0
M  V30 78 H 36.212995 30.492470 57.428540 0
M  V30 79 H 39.419952 31.195566 62.486113 0
M  V30 80 H 40.703863 32.037295 61.667760 0
M  V30 END ATOM
M  V30 BEGIN BOND
M  V30 1 1 10 6
M  V30 2 1 11 8
M  V30 3 1 11 10
M  V30 4 1 12 2
M  V30 5 1 12 8
M  V30 6 1 14 9
M  V30 7 2 17 4
M  V30 8 1 17 15
M  V30 9 1 18 2
M  V30 10 1 19 9
M  V30 11 1 19 15
M  V30 12 1 21 20
M  V30 13 1 22 1
M  V30 14 1 22 12
M  V30 15 1 23 3
M  V30 16 1 23 13
M  V30 17 1 24 16
M  V30 18 1 24 21
M  V30 19 1 25 19
M  V30 20 1 26 2
M  V30 21 1 26 5
M  V30 22 1 26 25
M  V30 23 1 27 18
M  V30 24 1 29 4
M  V30 25 1 30 7
M  V30 26 1 30 16
M  V30 27 1 31 14
M  V30 28 2 31 15
M  V30 29 1 31 28
M  V30 30 1 32 16
M  V30 31 1 32 23
M  V30 32 1 33 4
M  V30 33 2 33 28
M  V30 34 1 34 1
M  V30 35 1 35 11
M  V30 36 1 35 20
M  V30 37 1 36 1
M  V30 38 1 2 37 CFG=1
M  V30 39 1 38 3
M  V30 40 1 39 5
M  V30 41 1 40 5
M  V30 42 1 41 5
M  V30 43 1 42 6
M  V30 44 1 43 6
M  V30 45 1 44 6
M  V30 46 1 45 7
M  V30 47 1 46 7
M  V30 48 1 47 7
M  V30 49 1 48 8
M  V30 50 1 49 8
M  V30 51 1 50 9
M  V30 52 1 51 9
M  V30 53 1 11 52 CFG=1
M  V30 54 1 53 13
M  V30 55 1 54 14
M  V30 56 1 55 14
M  V30 57 1 16 56 CFG=3
M  V30 58 1 57 17
M  V30 59 1 58 18
M  V30 60 1 59 18
M  V30 61 1 19 60 CFG=1
M  V30 62 1 61 20
M  V30 63 1 62 20
M  V30 64 1 63 21
M  V30 65 1 64 21
M  V30 66 1 65 22
M  V30 67 1 66 22
M  V30 68 1 67 23
M  V30 69 1 68 24
M  V30 70 1 69 24
M  V30 71 1 26 70 CFG=3
M  V30 72 1 71 27
M  V30 73 1 72 27
M  V30 74 1 73 27
M  V30 75 1 74 28
M  V30 76 1 75 32
M  V30 77 1 76 32
M  V30 78 1 77 33
M  V30 79 1 78 34
M  V30 80 1 79 35
M  V30 81 1 80 35
M  V30 END BOND
M  V30 END CTAB
M  END
>  <i_epik_Tot_Q>  (1) 
0

>  <i_epik_Tot_abs_Q>  (1) 
0

>  <i_i_glide_confnum>  (1) 
2433

>  <i_i_glide_lignum>  (1) 
26

>  <i_i_glide_posenum>  (1) 
219

>  <i_i_glide_rotatable_bonds>  (1) 
21

>  <i_lp_mmshare_version>  (1) 
72125

>  <i_m_source_file_index>  (1) 
14

>  <i_f3d_flags>  (1) 
0

>  <num_sample>  (1) 
50

>  <b_lp_Chiralities_Consistent>  (1) 
1

>  <r_epik_Charging_Adjusted_Penalty>  (1) 
0.6814092300501583

>  <r_epik_Ionization_Penalty>  (1) 
0.68170603093061677

>  <r_epik_Ionization_Penalty_Charging>  (1) 
0

>  <r_epik_Ionization_Penalty_Neutral>  (1) 
0.68170603093061677

>  <r_epik_State_Penalty>  (1) 
0.6814092300501583

>  <r_glide_ring_energy>  (1) 
0

>  <r_i_docking_score>  (1) 
-6.802902323187471

>  <r_i_glide_ecoul>  (1) 
-8.4378448362516654

>  <r_i_glide_eff_state_penalty>  (1) 
0.6814092300501583

>  <r_i_glide_einternal>  (1) 
16.556770408643171

>  <r_i_glide_emodel>  (1) 
-48.860963862312715

>  <r_i_glide_emodel_strain>  (1) 
2.1424714813627475

>  <r_i_glide_energy>  (1) 
-37.694423675516674

>  <r_i_glide_erotb>  (1) 
1.1405850695777229

>  <r_i_glide_esite>  (1) 
-0.12847543925940147

>  <r_i_glide_evdw>  (1) 
-29.256578839265011

>  <r_i_glide_gscore>  (1) 
-7.484311553237629

>  <r_i_glide_gscore_strain>  (1) 
0

>  <r_i_glide_hbond>  (1) 
-0.44205826301621004

>  <r_i_glide_ligand_efficiency>  (1) 
-0.19436863780535632

>  <r_i_glide_ligand_efficiency_ln>  (1) 
-1.4933880422220029

>  <r_i_glide_ligand_efficiency_sa>  (1) 
-0.63579270288234935

>  <r_i_glide_lipo>  (1) 
-4.4486811903158561

>  <r_i_glide_metal>  (1) 
-0

>  <r_i_glide_rewards>  (1) 
-0.87717606282288352

>  <r_lp_Energy>  (1) 
18.435863999999999

>  <s_epik_Chemistry_Notes>  (1) 
This compound contains an acetal/aminal-like group ( X-CH(R)-Y where X, Y are N, S, or O) that may be acid/base labile, releasing an aldehyde. This compound has a N-S or N-O group and may undergo hydrolysis at high or low pH.

>  <s_epik_cmdline>  (1) 
J2VwaWtfcHl0aG9uJywgJy1waHQnLCAnMS4wJywgJy1waCcsICc3LjQnLCAnLXRuJywgJzgnLCAnLW1hJywgJzUwMCcsICctaW1hZScsICc8aW5maWxlLm1hZT4nLCAnLW9tYWUnLCAnPG91dGZpbGUubWFlPic=

>  <s_epik_input>  (1) 
W09IXVtDSF0oW09IXSlbQ0gyXVtDQEhdKE9bQ0gzXSlbQ0gyXVtDSDJdW0NIMl1bQ0gyXVtDQEBIXShPW0NIM10pW0NIMl1OKFtDSDJdW05IXVtPSF0pW0NASF0oW0NIMl1bQ0gzXSlbQ0BIXShbQ0gzXSlPW0NAQEhdMVtDSDJdW0NIMl1jKGMxMilbY0hdW2NIXWMoRilbY0hdMg==

>  <s_glide_docking_method>  (1) 
confgen

>  <s_i_glide_gridfile>  (1) 
gpcr_5ht2c_6bqh_protein_autoprepared_prepared

>  <s_lp_Force_Field>  (1) 
S-OPLS

>  <s_lp_Variant>  (1) 
DiffSBDD_13-3

>  <s_m_source_file>  (1) 
generated_GPCR_5HT2C_ligand_DiffSBDD_2026-06-23_prepared.sdf

>  <GenAI_Model>  (1) 
DiffSBDD

>  <Protein>  (1) 
GPCR_5HT2C

$$$$
DiffSBDD_19
     RDKit          3D

  0  0  0  0  0  0  0  0  0  0999 V3000
M  V30 BEGIN CTAB
M  V30 COUNTS 69 71 0 0 1
M  V30 BEGIN ATOM
M  V30 1 O 40.017258 27.472311 59.367746 0
M  V30 2 C 38.762026 30.222242 54.284522 0
M  V30 3 C 41.040866 32.597527 64.419677 0
M  V30 4 C 39.110927 28.518280 52.569866 0
M  V30 5 C 38.148244 29.258584 55.122669 0
M  V30 6 C 38.901043 31.658721 54.738872 0
M  V30 7 C 38.355352 25.589044 57.892422 0
M  V30 8 C 37.977096 33.072726 59.362860 0
M  V30 9 C 41.578275 33.920665 63.882746 0 CFG=2
M  V30 10 N 41.245713 35.092883 64.715694 0
M  V30 11 F 39.238985 26.912789 50.823447 0
M  V30 12 C 38.020188 27.924983 54.674440 0
M  V30 13 F 39.245166 29.007659 50.275462 0
M  V30 14 C 42.322905 35.480463 65.609361 0
M  V30 15 C 39.128368 32.461204 60.167559 0 CFG=2
M  V30 16 C 38.143417 30.133853 60.570259 0
M  V30 17 C 39.862773 28.937626 57.461084 0
M  V30 18 O 38.496542 26.986674 57.675136 0
M  V30 19 O 41.183170 32.185095 65.568441 0
M  V30 20 C 39.245123 29.845258 53.015054 0
M  V30 21 C 39.753376 27.495368 57.985677 0 CFG=2
M  V30 22 C 37.620509 29.655957 56.507784 0
M  V30 23 N 40.306651 32.654949 62.232241 0
M  V30 24 C 39.631914 28.128335 51.196866 0
M  V30 25 C 38.497592 27.556505 53.400821 0
M  V30 26 C 39.160903 30.973982 59.767354 0 CFG=1
M  V30 27 O 42.445008 34.454456 66.567839 0
M  V30 28 C 37.645124 32.047040 58.276808 0
M  V30 29 C 38.816120 31.055952 58.262781 0 CFG=2
M  V30 30 N 40.389473 31.999266 63.435870 0
M  V30 31 N 38.598856 29.718491 57.637291 0 CFG=2 CHG=1
M  V30 32 C 40.867461 33.986011 62.517588 0
M  V30 33 N 39.046373 32.716444 61.602164 0
M  V30 34 H 39.331808 27.932419 59.823847 0
M  V30 35 H 39.201282 32.260991 53.890536 0
M  V30 36 H 37.957182 32.071572 55.093599 0
M  V30 37 H 39.668096 31.760321 55.503332 0
M  V30 38 H 37.366835 25.272186 57.561153 0
M  V30 39 H 39.094051 25.016762 57.329280 0
M  V30 40 H 38.445638 25.339069 58.949985 0
M  V30 41 H 37.097386 33.266190 59.979351 0
M  V30 42 H 38.281916 34.024398 58.926350 0
M  V30 43 H 42.654025 33.833195 63.729596 0
M  V30 44 H 41.036144 35.902519 64.146544 0
M  V30 45 H 37.552989 27.185041 55.306528 0
M  V30 46 H 42.077414 36.413518 66.116778 0
M  V30 47 H 43.245102 35.631496 65.044246 0
M  V30 48 H 40.038023 32.937968 59.798684 0
M  V30 49 H 37.146144 30.574074 60.579013 0
M  V30 50 H 38.045538 29.127207 60.168607 0
M  V30 51 H 38.457090 30.037653 61.610224 0
M  V30 52 H 40.206049 28.910046 56.428964 0
M  V30 53 H 40.690661 29.400920 57.997354 0
M  V30 54 H 39.715140 30.580224 52.377148 0
M  V30 55 H 40.522918 26.880216 57.514566 0
M  V30 56 H 36.898473 28.937762 56.874392 0
M  V30 57 H 37.009617 30.537898 56.387208 0
M  V30 58 H 40.721135 28.137883 51.202023 0
M  V30 59 H 38.393900 26.536366 53.062964 0
M  V30 60 H 40.143429 30.537668 59.943538 0
M  V30 61 H 41.903195 33.720004 66.300745 0
M  V30 62 H 36.727528 31.534715 58.567808 0
M  V30 63 H 37.487109 32.540014 57.318465 0
M  V30 64 H 39.609700 31.539373 57.698112 0
M  V30 65 H 39.932485 31.104913 63.542532 0
M  V30 66 H 40.062161 34.722574 62.545329 0
M  V30 67 H 41.547962 34.279079 61.718117 0
M  V30 68 H 38.646321 33.638010 61.770248 0
M  V30 69 H 38.105275 29.214869 58.359391 0
M  V30 END ATOM
M  V30 BEGIN BOND
M  V30 1 2 5 2
M  V30 2 1 6 2
M  V30 3 1 9 3
M  V30 4 1 10 9
M  V30 5 1 12 5
M  V30 6 1 14 10
M  V30 7 1 15 8
M  V30 8 1 18 7
M  V30 9 2 19 3
M  V30 10 1 20 2
M  V30 11 2 20 4
M  V30 12 1 21 1
M  V30 13 1 21 17
M  V30 14 1 21 18
M  V30 15 1 22 5
M  V30 16 1 24 4
M  V30 17 1 24 11
M  V30 18 1 24 13
M  V30 19 1 25 4
M  V30 20 2 25 12
M  V30 21 1 26 15
M  V30 22 1 26 16
M  V30 23 1 27 14
M  V30 24 1 28 8
M  V30 25 1 29 26
M  V30 26 1 29 28
M  V30 27 1 30 3
M  V30 28 1 30 23
M  V30 29 1 31 17
M  V30 30 1 31 22
M  V30 31 1 31 29
M  V30 32 1 32 9
M  V30 33 1 32 23
M  V30 34 1 33 15
M  V30 35 1 33 23
M  V30 36 1 34 1
M  V30 37 1 35 6
M  V30 38 1 36 6
M  V30 39 1 37 6
M  V30 40 1 38 7
M  V30 41 1 39 7
M  V30 42 1 40 7
M  V30 43 1 41 8
M  V30 44 1 42 8
M  V30 45 1 9 43 CFG=3
M  V30 46 1 44 10
M  V30 47 1 45 12
M  V30 48 1 46 14
M  V30 49 1 47 14
M  V30 50 1 15 48 CFG=3
M  V30 51 1 49 16
M  V30 52 1 50 16
M  V30 53 1 51 16
M  V30 54 1 52 17
M  V30 55 1 53 17
M  V30 56 1 54 20
M  V30 57 1 21 55 CFG=3
M  V30 58 1 56 22
M  V30 59 1 57 22
M  V30 60 1 58 24
M  V30 61 1 59 25
M  V30 62 1 26 60 CFG=3
M  V30 63 1 61 27
M  V30 64 1 62 28
M  V30 65 1 63 28
M  V30 66 1 29 64 CFG=3
M  V30 67 1 65 30
M  V30 68 1 66 32
M  V30 69 1 67 32
M  V30 70 1 68 33
M  V30 71 1 31 69 CFG=1
M  V30 END BOND
M  V30 END CTAB
M  END
>  <i_epik_Tot_Q>  (1) 
1

>  <i_epik_Tot_abs_Q>  (1) 
1

>  <i_i_glide_confnum>  (1) 
2213

>  <i_i_glide_lignum>  (1) 
42

>  <i_i_glide_posenum>  (1) 
212

>  <i_i_glide_rotatable_bonds>  (1) 
13

>  <i_lp_mmshare_version>  (1) 
72125

>  <i_m_source_file_index>  (1) 
20

>  <i_f3d_flags>  (1) 
0

>  <num_sample>  (1) 
50

>  <b_lp_Chiralities_Consistent>  (1) 
1

>  <r_epik_Charging_Adjusted_Penalty>  (1) 
0.46831319053283144

>  <r_epik_Ionization_Penalty>  (1) 
0.71387485365223857

>  <r_epik_Ionization_Penalty_Charging>  (1) 
0.049252262366849507

>  <r_epik_Ionization_Penalty_Neutral>  (1) 
0.66462259128538903

>  <r_epik_State_Penalty>  (1) 
0.41906092816598195

>  <r_glide_ring_energy>  (1) 
0

>  <r_i_docking_score>  (1) 
-6.7988007652136879

>  <r_i_glide_ecoul>  (1) 
-3.3814319885024289

>  <r_i_glide_eff_state_penalty>  (1) 
0.41906092816598195

>  <r_i_glide_einternal>  (1) 
9.8361476390222116

>  <r_i_glide_emodel>  (1) 
-60.375002561798524

>  <r_i_glide_emodel_strain>  (1) 
0.10518055830381456

>  <r_i_glide_energy>  (1) 
-42.760443322111598

>  <r_i_glide_erotb>  (1) 
0.81494899861877068

>  <r_i_glide_esite>  (1) 
-0.029768078731549654

>  <r_i_glide_evdw>  (1) 
-39.379011333609171

>  <r_i_glide_gscore>  (1) 
-7.2178616933796702

>  <r_i_glide_gscore_strain>  (1) 
0

>  <r_i_glide_hbond>  (1) 
0

>  <r_i_glide_ligand_efficiency>  (1) 
-0.20602426561253601

>  <r_i_glide_ligand_efficiency_ln>  (1) 
-1.5120180878771488

>  <r_i_glide_ligand_efficiency_sa>  (1) 
-0.66082990476438785

>  <r_i_glide_lipo>  (1) 
-2.9281086831030678

>  <r_i_glide_metal>  (1) 
-0

>  <r_i_glide_rewards>  (1) 
-2.5987685652080006

>  <r_lp_Energy>  (1) 
31.949607

>  <s_epik_Chemistry_Notes>  (1) 
This compound contains an acetal/aminal-like group ( X-CH(R)-Y where X, Y are N, S, or O) that may be acid/base labile, releasing an aldehyde.

>  <s_epik_cmdline>  (1) 
J2VwaWtfcHl0aG9uJywgJy1waHQnLCAnMS4wJywgJy1waCcsICc3LjQnLCAnLXRuJywgJzgnLCAnLW1hJywgJzUwMCcsICctaW1hZScsICc8aW5maWxlLm1hZT4nLCAnLW9tYWUnLCAnPG91dGZpbGUubWFlPic=

>  <s_epik_input>  (1) 
RltDSF0oRiljKFtjSF0xKVtjSF1bY0hdYyhjMVtDSDNdKVtDSDJdTihbQ0gyXVtDQEBIXShbT0hdKU9bQ0gzXSlbQ0BIXShbQ0BASF0yW0NIM10pW0NIMl1bQ0gyXVtDQEhdMltOSF1OKFtOSF0zKVtDSDJdW0NASF0oQzM9TylbTkhdW0NIMl1bT0hd

>  <s_glide_docking_method>  (1) 
confgen

>  <s_i_glide_gridfile>  (1) 
gpcr_5ht2c_6bqh_protein_autoprepared_prepared

>  <s_lp_Force_Field>  (1) 
S-OPLS

>  <s_lp_Variant>  (1) 
DiffSBDD_19-1

>  <s_m_source_file>  (1) 
generated_GPCR_5HT2C_ligand_DiffSBDD_2026-06-23_prepared.sdf

>  <GenAI_Model>  (1) 
DiffSBDD

>  <Protein>  (1) 
GPCR_5HT2C

$$$$
DiffSBDD_44
     RDKit          3D

  0  0  0  0  0  0  0  0  0  0999 V3000
M  V30 BEGIN CTAB
M  V30 COUNTS 50 52 0 0 1
M  V30 BEGIN ATOM
M  V30 1 N 38.726968 31.025073 56.266727 0
M  V30 2 N 42.250459 34.937755 64.967760 0
M  V30 3 C 38.668939 32.893776 60.323462 0
M  V30 4 C 39.167533 35.310219 60.967457 0
M  V30 5 C 39.545945 30.350112 53.367748 0
M  V30 6 C 38.502140 29.624599 54.243156 0
M  V30 7 C 39.352952 33.924060 61.195136 0
M  V30 8 C 38.378394 31.408104 57.560857 0
M  V30 9 C 38.270017 30.529506 59.931356 0
M  V30 10 C 40.825483 34.440893 63.088499 0
M  V30 11 C 39.645137 29.558015 52.049892 0
M  V30 12 C 38.754996 29.652008 55.769805 0 CFG=1
M  V30 13 C 39.809026 36.251181 61.794309 0
M  V30 14 C 38.603437 28.437496 52.143503 0
M  V30 15 C 37.790792 33.280997 59.164859 0
M  V30 16 C 40.060128 27.843499 56.958062 0
M  V30 17 C 40.183968 33.492955 62.258060 0
M  V30 18 C 40.028025 28.924719 56.163954 0
M  V30 19 C 40.634346 35.823877 62.849382 0
M  V30 20 C 38.105182 30.382600 58.585702 0
M  V30 21 C 38.394839 28.217217 53.638354 0
M  V30 22 O 41.889986 32.775976 64.433108 0
M  V30 23 N 38.816516 31.657835 60.562619 0
M  V30 24 C 41.704141 33.972091 64.224130 0
M  V30 25 C 38.270590 32.722034 57.848203 0
M  V30 26 H 38.888751 31.749355 55.582706 0
M  V30 27 H 42.065705 35.908366 64.754854 0
M  V30 28 H 42.845124 34.694005 65.743883 0
M  V30 29 H 38.540433 35.659295 60.169018 0
M  V30 30 H 39.245127 31.382369 53.185701 0
M  V30 31 H 40.522514 30.395451 53.846033 0
M  V30 32 H 37.541759 30.111664 54.064060 0
M  V30 33 H 38.045137 29.707390 60.590509 0
M  V30 34 H 39.476328 30.187161 51.175527 0
M  V30 35 H 40.642066 29.132647 51.939773 0
M  V30 36 H 37.914420 29.116142 56.208512 0
M  V30 37 H 39.665873 37.306937 61.619212 0
M  V30 38 H 37.664297 28.767101 51.699111 0
M  V30 39 H 38.912491 27.530309 51.622674 0
M  V30 40 H 37.645139 34.343957 59.028316 0
M  V30 41 H 36.786676 32.893466 59.345083 0
M  V30 42 H 39.152571 27.426537 57.369201 0
M  V30 43 H 40.995752 27.363211 57.205819 0
M  V30 44 H 40.327327 32.436993 62.439303 0
M  V30 45 H 40.946916 29.317793 55.767759 0
M  V30 46 H 41.117542 36.558041 63.473909 0
M  V30 47 H 37.752877 29.423171 58.245047 0
M  V30 48 H 39.183269 27.564555 54.013921 0
M  V30 49 H 37.438825 27.740500 53.858607 0
M  V30 50 H 38.472039 33.447527 57.073394 0
M  V30 END ATOM
M  V30 BEGIN BOND
M  V30 1 1 6 5
M  V30 2 1 7 3
M  V30 3 2 7 4
M  V30 4 1 8 1
M  V30 5 1 11 5
M  V30 6 1 12 1
M  V30 7 1 12 6
M  V30 8 1 13 4
M  V30 9 1 14 11
M  V30 10 1 15 3
M  V30 11 1 17 7
M  V30 12 2 17 10
M  V30 13 1 18 12
M  V30 14 2 18 16
M  V30 15 1 19 10
M  V30 16 2 19 13
M  V30 17 1 20 8
M  V30 18 2 20 9
M  V30 19 1 21 6
M  V30 20 1 21 14
M  V30 21 2 23 3
M  V30 22 1 23 9
M  V30 23 1 24 2
M  V30 24 1 24 10
M  V30 25 2 24 22
M  V30 26 2 25 8
M  V30 27 1 25 15
M  V30 28 1 26 1
M  V30 29 1 27 2
M  V30 30 1 28 2
M  V30 31 1 29 4
M  V30 32 1 30 5
M  V30 33 1 31 5
M  V30 34 1 32 6
M  V30 35 1 33 9
M  V30 36 1 34 11
M  V30 37 1 35 11
M  V30 38 1 12 36 CFG=1
M  V30 39 1 37 13
M  V30 40 1 38 14
M  V30 41 1 39 14
M  V30 42 1 40 15
M  V30 43 1 41 15
M  V30 44 1 42 16
M  V30 45 1 43 16
M  V30 46 1 44 17
M  V30 47 1 45 18
M  V30 48 1 46 19
M  V30 49 1 47 20
M  V30 50 1 48 21
M  V30 51 1 49 21
M  V30 52 1 50 25
M  V30 END BOND
M  V30 END CTAB
M  END
>  <i_epik_Tot_Q>  (1) 
0

>  <i_epik_Tot_abs_Q>  (1) 
0

>  <i_i_glide_confnum>  (1) 
66

>  <i_i_glide_lignum>  (1) 
95

>  <i_i_glide_posenum>  (1) 
63

>  <i_i_glide_rotatable_bonds>  (1) 
6

>  <i_lp_mmshare_version>  (1) 
72125

>  <i_m_source_file_index>  (1) 
45

>  <i_f3d_flags>  (1) 
0

>  <num_sample>  (1) 
50

>  <b_lp_Chiralities_Consistent>  (1) 
1

>  <r_epik_Charging_Adjusted_Penalty>  (1) 
0.0076359767464213076

>  <r_epik_Ionization_Penalty>  (1) 
0.0038263815256696344

>  <r_epik_Ionization_Penalty_Charging>  (1) 
0.0038179969365927696

>  <r_epik_Ionization_Penalty_Neutral>  (1) 
8.3845890768645326e-06

>  <r_epik_State_Penalty>  (1) 
0.003817979809828538

>  <r_glide_ring_energy>  (1) 
0.2204327727677606

>  <r_i_docking_score>  (1) 
-6.7967806159034581

>  <r_i_glide_ecoul>  (1) 
-2.1947054360132858

>  <r_i_glide_eff_state_penalty>  (1) 
0.003817979809828538

>  <r_i_glide_einternal>  (1) 
4.4656721137599575

>  <r_i_glide_emodel>  (1) 
-60.342609386689603

>  <r_i_glide_emodel_strain>  (1) 
0

>  <r_i_glide_energy>  (1) 
-44.132490763885357

>  <r_i_glide_erotb>  (1) 
0.83861639918750919

>  <r_i_glide_esite>  (1) 
-0.041764666533794764

>  <r_i_glide_evdw>  (1) 
-41.937785327872071

>  <r_i_glide_gscore>  (1) 
-6.8005985957132866

>  <r_i_glide_gscore_strain>  (1) 
0

>  <r_i_glide_hbond>  (1) 
0

>  <r_i_glide_ligand_efficiency>  (1) 
-0.27187122463613833

>  <r_i_glide_ligand_efficiency_ln>  (1) 
-1.6110406890479625

>  <r_i_glide_ligand_efficiency_sa>  (1) 
-0.79495628334572321

>  <r_i_glide_lipo>  (1) 
-3.2392945884155346

>  <r_i_glide_metal>  (1) 
-0

>  <r_i_glide_rewards>  (1) 
-1.9320606581558692

>  <r_lp_Energy>  (1) 
44.465160999999995

>  <s_epik_Chemistry_Notes>  (1) 
This compound has an imine and may undergo hydrolysis.

>  <s_epik_cmdline>  (1) 
J2VwaWtfcHl0aG9uJywgJy1waHQnLCAnMS4wJywgJy1waCcsICc3LjQnLCAnLXRuJywgJzgnLCAnLW1hJywgJzUwMCcsICctaW1hZScsICc8aW5maWxlLm1hZT4nLCAnLW9tYWUnLCAnPG91dGZpbGUubWFlPic=

>  <s_epik_input>  (1) 
W0NIMl0xW0NIMl1bQ0gyXVtDSDJdW0NIXTFbQ0BASF0oW0NIXT1bQ0gyXSlbTkhdQyg9W0NIXVtDSDJdMilbQ0hdPVtDSF1OPUMyYzNbY0hdW2NIXVtjSF1jKFtjSF0zKUMoPU8pW05IMl0=

>  <s_glide_docking_method>  (1) 
confgen

>  <s_i_glide_gridfile>  (1) 
gpcr_5ht2c_6bqh_protein_autoprepared_prepared

>  <s_lp_Force_Field>  (1) 
S-OPLS

>  <s_lp_Variant>  (1) 
DiffSBDD_44-1

>  <s_m_source_file>  (1) 
generated_GPCR_5HT2C_ligand_DiffSBDD_2026-06-23_prepared.sdf

>  <GenAI_Model>  (1) 
DiffSBDD

>  <Protein>  (1) 
GPCR_5HT2C

$$$$
DiffSBDD_19
     RDKit          3D

  0  0  0  0  0  0  0  0  0  0999 V3000
M  V30 BEGIN CTAB
M  V30 COUNTS 70 72 0 0 1
M  V30 BEGIN ATOM
M  V30 1 O 40.045097 25.541301 56.422391 0
M  V30 2 C 38.698655 28.289832 52.482668 0
M  V30 3 C 36.945396 34.643068 61.385666 0
M  V30 4 C 40.089801 29.839130 51.216787 0
M  V30 5 C 38.518732 29.275062 53.490674 0
M  V30 6 C 38.045594 26.937695 52.592510 0
M  V30 7 C 41.835452 27.874194 57.300687 0
M  V30 8 C 38.253278 30.486143 59.321386 0
M  V30 9 C 38.389196 35.071406 61.576163 0 CFG=2
M  V30 10 N 38.528859 36.519758 61.382652 0
M  V30 11 F 40.252800 31.205434 49.368600 0
M  V30 12 C 39.164233 30.521468 53.359707 0
M  V30 13 F 42.111494 30.537104 50.252703 0
M  V30 14 C 39.749083 37.054443 61.954576 0
M  V30 15 C 37.708594 31.561890 58.363564 0 CFG=2
M  V30 16 C 39.492246 31.305868 56.580293 0
M  V30 17 C 38.391462 27.265255 56.233537 0
M  V30 18 O 40.702406 27.773502 56.444691 0
M  V30 19 O 36.045132 34.937890 62.155099 0
M  V30 20 C 39.480919 28.582603 51.347729 0
M  V30 21 C 39.741026 26.846565 56.849882 0 CFG=2
M  V30 22 C 37.602492 29.020738 54.688193 0
M  V30 23 N 38.087701 33.267815 59.985134 0
M  V30 24 C 40.860734 30.182920 49.968342 0
M  V30 25 C 39.956893 30.790676 52.231969 0
M  V30 26 C 38.026804 31.048688 56.946486 0 CFG=1
M  V30 27 O 39.645159 38.444931 61.767773 0
M  V30 28 C 38.309762 29.199082 58.496234 0
M  V30 29 C 37.751044 29.540295 57.097808 0 CFG=2
M  V30 30 N 36.900971 33.738409 60.440890 0
M  V30 31 N 38.298404 28.726120 55.967666 0 CFG=1 CHG=1
M  V30 32 C 39.102830 34.204025 60.519340 0
M  V30 33 N 38.226102 32.923946 58.617586 0 CHG=1
M  V30 34 H 40.971871 25.381711 56.567876 0
M  V30 35 H 38.045160 26.537767 51.582287 0
M  V30 36 H 38.652538 26.269713 53.200873 0
M  V30 37 H 37.020938 26.943375 52.961799 0
M  V30 38 H 42.578307 28.537683 56.861756 0
M  V30 39 H 41.567520 28.280433 58.276397 0
M  V30 40 H 42.325310 26.921145 57.456366 0
M  V30 41 H 39.252749 30.734790 59.683068 0
M  V30 42 H 37.616759 30.376472 60.200656 0
M  V30 43 H 38.718417 34.783943 62.570502 0
M  V30 44 H 38.412084 36.807461 60.422887 0
M  V30 45 H 39.019739 31.288246 54.096161 0
M  V30 46 H 40.633587 36.665692 61.447822 0
M  V30 47 H 39.825619 36.832860 63.020423 0
M  V30 48 H 36.636025 31.581391 58.567699 0
M  V30 49 H 40.045113 30.894606 57.384112 0
M  V30 50 H 39.903540 30.734282 55.761297 0
M  V30 51 H 39.739687 32.358862 56.443602 0
M  V30 52 H 37.569144 26.907617 56.854274 0
M  V30 53 H 38.307428 26.732020 55.290385 0
M  V30 54 H 39.596073 27.845123 50.567396 0
M  V30 55 H 39.677728 26.810055 57.939132 0
M  V30 56 H 36.845163 28.270970 54.502800 0
M  V30 57 H 37.004743 29.926255 54.773197 0
M  V30 58 H 40.845294 29.360327 49.254801 0
M  V30 59 H 40.429754 31.741901 52.126102 0
M  V30 60 H 37.386415 31.522931 56.202736 0
M  V30 61 H 40.393141 38.741480 61.269646 0
M  V30 62 H 39.354892 28.907657 58.451555 0
M  V30 63 H 37.755969 28.390863 58.967642 0
M  V30 64 H 36.670114 29.402269 57.140564 0
M  V30 65 H 36.047524 33.264137 60.178317 0
M  V30 66 H 39.533131 34.845463 59.766487 0
M  V30 67 H 39.921232 33.630937 60.958325 0
M  V30 68 H 37.695763 33.600126 58.083435 0
M  V30 69 H 39.209043 32.989702 58.399577 0
M  V30 70 H 39.259283 29.014953 55.834264 0
M  V30 END ATOM
M  V30 BEGIN BOND
M  V30 1 2 5 2
M  V30 2 1 6 2
M  V30 3 1 9 3
M  V30 4 1 10 9
M  V30 5 1 12 5
M  V30 6 1 14 10
M  V30 7 1 15 8
M  V30 8 1 18 7
M  V30 9 2 19 3
M  V30 10 1 20 2
M  V30 11 2 20 4
M  V30 12 1 21 1
M  V30 13 1 21 17
M  V30 14 1 21 18
M  V30 15 1 22 5
M  V30 16 1 24 4
M  V30 17 1 24 11
M  V30 18 1 24 13
M  V30 19 1 25 4
M  V30 20 2 25 12
M  V30 21 1 26 15
M  V30 22 1 26 16
M  V30 23 1 27 14
M  V30 24 1 28 8
M  V30 25 1 29 26
M  V30 26 1 29 28
M  V30 27 1 30 3
M  V30 28 1 30 23
M  V30 29 1 31 17
M  V30 30 1 31 22
M  V30 31 1 31 29
M  V30 32 1 32 9
M  V30 33 1 32 23
M  V30 34 1 33 15
M  V30 35 1 33 23
M  V30 36 1 34 1
M  V30 37 1 35 6
M  V30 38 1 36 6
M  V30 39 1 37 6
M  V30 40 1 38 7
M  V30 41 1 39 7
M  V30 42 1 40 7
M  V30 43 1 41 8
M  V30 44 1 42 8
M  V30 45 1 9 43 CFG=1
M  V30 46 1 44 10
M  V30 47 1 45 12
M  V30 48 1 46 14
M  V30 49 1 47 14
M  V30 50 1 15 48 CFG=3
M  V30 51 1 49 16
M  V30 52 1 50 16
M  V30 53 1 51 16
M  V30 54 1 52 17
M  V30 55 1 53 17
M  V30 56 1 54 20
M  V30 57 1 21 55 CFG=1
M  V30 58 1 56 22
M  V30 59 1 57 22
M  V30 60 1 58 24
M  V30 61 1 59 25
M  V30 62 1 26 60 CFG=3
M  V30 63 1 61 27
M  V30 64 1 62 28
M  V30 65 1 63 28
M  V30 66 1 29 64 CFG=1
M  V30 67 1 65 30
M  V30 68 1 66 32
M  V30 69 1 67 32
M  V30 70 1 68 33
M  V30 71 1 69 33
M  V30 72 1 31 70 CFG=3
M  V30 END BOND
M  V30 END CTAB
M  END
>  <i_epik_Tot_Q>  (1) 
2

>  <i_epik_Tot_abs_Q>  (1) 
2

>  <i_i_glide_confnum>  (1) 
232

>  <i_i_glide_lignum>  (1) 
45

>  <i_i_glide_posenum>  (1) 
234

>  <i_i_glide_rotatable_bonds>  (1) 
13

>  <i_lp_mmshare_version>  (1) 
72125

>  <i_m_source_file_index>  (1) 
20

>  <i_f3d_flags>  (1) 
0

>  <num_sample>  (1) 
50

>  <b_lp_Chiralities_Consistent>  (1) 
1

>  <r_epik_Charging_Adjusted_Penalty>  (1) 
1.2214648146791087

>  <r_epik_Ionization_Penalty>  (1) 
0.73374573973567592

>  <r_epik_Ionization_Penalty_Charging>  (1) 
0.65422063123481433

>  <r_epik_Ionization_Penalty_Neutral>  (1) 
0.079525108500861627

>  <r_epik_State_Penalty>  (1) 
0.56724418344429428

>  <r_glide_ring_energy>  (1) 
0

>  <r_i_docking_score>  (1) 
-6.7766316063262169

>  <r_i_glide_ecoul>  (1) 
-7.1645980944331278

>  <r_i_glide_eff_state_penalty>  (1) 
0.56724418344429428

>  <r_i_glide_einternal>  (1) 
7.2829125249439333

>  <r_i_glide_emodel>  (1) 
-60.207704512477832

>  <r_i_glide_emodel_strain>  (1) 
1.714995322353964

>  <r_i_glide_energy>  (1) 
-38.825649768104228

>  <r_i_glide_erotb>  (1) 
0.81178529684743594

>  <r_i_glide_esite>  (1) 
-0.050715124079518475

>  <r_i_glide_evdw>  (1) 
-31.6610516736711

>  <r_i_glide_gscore>  (1) 
-7.3438757897705109

>  <r_i_glide_gscore_strain>  (1) 
0

>  <r_i_glide_hbond>  (1) 
-0.32000000000000001

>  <r_i_glide_ligand_efficiency>  (1) 
-0.20535247291897626

>  <r_i_glide_ligand_efficiency_ln>  (1) 
-1.5070877817263368

>  <r_i_glide_ligand_efficiency_sa>  (1) 
-0.65867510663715467

>  <r_i_glide_lipo>  (1) 
-2.9407399764627282

>  <r_i_glide_metal>  (1) 
-0

>  <r_i_glide_rewards>  (1) 
-2.1864636882271746

>  <r_lp_Energy>  (1) 
45.336860000000001

>  <s_epik_Chemistry_Notes>  (1) 
This compound contains an acetal/aminal-like group ( X-CH(R)-Y where X, Y are N, S, or O) that may be acid/base labile, releasing an aldehyde.

>  <s_epik_cmdline>  (1) 
J2VwaWtfcHl0aG9uJywgJy1waHQnLCAnMS4wJywgJy1waCcsICc3LjQnLCAnLXRuJywgJzgnLCAnLW1hJywgJzUwMCcsICctaW1hZScsICc8aW5maWxlLm1hZT4nLCAnLW9tYWUnLCAnPG91dGZpbGUubWFlPic=

>  <s_epik_input>  (1) 
RltDSF0oRiljKFtjSF0xKVtjSF1bY0hdYyhjMVtDSDNdKVtDSDJdTihbQ0gyXVtDQEBIXShbT0hdKU9bQ0gzXSlbQ0BIXShbQ0BASF0yW0NIM10pW0NIMl1bQ0gyXVtDQEhdMltOSF1OKFtOSF0zKVtDSDJdW0NASF0oQzM9TylbTkhdW0NIMl1bT0hd

>  <s_glide_docking_method>  (1) 
confgen

>  <s_i_glide_gridfile>  (1) 
gpcr_5ht2c_6bqh_protein_autoprepared_prepared

>  <s_lp_Force_Field>  (1) 
S-OPLS

>  <s_lp_Variant>  (1) 
DiffSBDD_19-4

>  <s_m_source_file>  (1) 
generated_GPCR_5HT2C_ligand_DiffSBDD_2026-06-23_prepared.sdf

>  <GenAI_Model>  (1) 
DiffSBDD

>  <Protein>  (1) 
GPCR_5HT2C

$$$$
DiffSBDD_36
     RDKit          3D

  0  0  0  0  0  0  0  0  0  0999 V3000
M  V30 BEGIN CTAB
M  V30 COUNTS 79 82 0 0 1
M  V30 BEGIN ATOM
M  V30 1 O 41.476797 35.036464 62.995809 0
M  V30 2 C 38.932885 33.489690 59.503971 0 CFG=1
M  V30 3 C 38.601903 31.474853 56.893544 0
M  V30 4 C 40.700433 30.049261 62.703696 0
M  V30 5 O 39.962785 30.145554 60.291860 0
M  V30 6 C 38.987799 32.828904 60.876868 0 CFG=1
M  V30 7 C 39.267273 31.192617 55.529274 0
M  V30 8 C 38.234843 32.947909 57.090495 0
M  V30 9 C 37.330356 34.844493 61.100918 0
M  V30 10 C 37.444474 25.784476 54.334238 0
M  V30 11 C 39.821697 36.662388 63.436774 0
M  V30 12 O 38.102422 37.654484 62.102486 0
M  V30 13 C 40.391907 31.179916 64.819686 0
M  V30 14 C 37.773769 33.301402 58.515887 0 CFG=1
M  V30 15 C 36.974587 36.218956 60.496746 0
M  V30 16 C 40.816018 28.535959 62.753952 0
M  V30 17 C 40.115762 35.321881 62.748749 0 CFG=1
M  V30 18 C 40.291383 32.318971 61.488119 0
M  V30 19 C 38.794038 29.865811 54.941503 0
M  V30 20 C 40.617475 30.813378 61.369490 0 CFG=1
M  V30 21 C 36.845128 37.360913 61.522971 0
M  V30 22 N 38.790037 28.808840 55.784312 0
M  V30 23 C 38.736975 34.320966 60.772026 0 CFG=2
M  V30 24 O 39.794992 30.537743 63.696849 0
M  V30 25 C 38.268599 26.472965 56.327297 0
M  V30 26 C 38.316119 27.503818 55.449194 0
M  V30 27 O 36.845122 32.330746 58.967757 0
M  V30 28 C 38.706248 29.551585 60.565913 0
M  V30 29 C 37.470023 24.090619 56.200119 0
M  V30 30 C 38.347001 37.048642 63.367147 0
M  V30 31 N 37.721463 25.395587 55.646276 0
M  V30 32 O 38.445128 29.805431 53.766078 0
M  V30 33 C 37.809834 27.094285 54.190578 0
M  V30 34 C 39.850366 35.288752 61.220155 0
M  V30 35 C 41.973711 29.373019 63.208744 0
M  V30 36 H 41.655124 35.190239 63.911842 0
M  V30 37 H 39.882511 33.662697 59.005982 0
M  V30 38 H 39.245342 31.134301 57.703535 0
M  V30 39 H 37.678181 30.900721 56.991447 0
M  V30 40 H 38.114404 32.280165 61.215749 0
M  V30 41 H 39.005329 31.977791 54.817343 0
M  V30 42 H 40.353539 31.201730 55.609139 0
M  V30 43 H 37.435979 33.194609 56.391083 0
M  V30 44 H 39.070876 33.577460 56.799480 0
M  V30 45 H 37.163645 34.819351 62.167450 0
M  V30 46 H 36.593726 34.126710 60.745778 0
M  V30 47 H 37.005507 25.089949 53.635297 0
M  V30 48 H 40.095728 36.578118 64.489295 0
M  V30 49 H 40.442692 37.459020 63.023930 0
M  V30 50 H 39.645161 31.751240 65.367070 0
M  V30 51 H 40.799332 30.453127 65.521523 0
M  V30 52 H 41.184667 31.869256 64.525845 0
M  V30 53 H 37.247531 34.252489 58.436339 0
M  V30 54 H 36.024838 36.122525 59.973520 0
M  V30 55 H 37.684281 36.495472 59.716977 0
M  V30 56 H 40.277871 27.992940 63.524863 0
M  V30 57 H 40.952183 27.995285 61.819917 0
M  V30 58 H 39.531201 34.549427 63.244256 0
M  V30 59 H 41.111105 32.860716 61.018969 0
M  V30 60 H 40.323009 32.618231 62.529096 0
M  V30 61 H 41.644827 30.840031 61.023526 0
M  V30 62 H 36.087731 37.162924 62.282945 0
M  V30 63 H 36.517017 38.258105 60.997218 0
M  V30 64 H 39.106367 28.953662 56.731077 0
M  V30 65 H 38.555705 26.395993 57.365776 0
M  V30 66 H 36.233626 32.137757 58.249574 0
M  V30 67 H 38.157215 29.427658 59.632380 0
M  V30 68 H 38.845123 28.559990 60.992496 0
M  V30 69 H 38.090982 30.137765 61.245981 0
M  V30 70 H 38.162328 23.885856 57.016966 0
M  V30 71 H 36.445925 24.046994 56.567978 0
M  V30 72 H 37.593950 23.337774 55.420032 0
M  V30 73 H 37.725636 36.186218 63.577407 0
M  V30 74 H 38.108383 37.737758 64.167852 0
M  V30 75 H 37.708394 27.673915 53.287942 0
M  V30 76 H 39.642168 36.285963 60.853384 0
M  V30 77 H 40.768744 35.030353 60.694286 0
M  V30 78 H 42.845145 29.337761 62.567765 0
M  V30 79 H 42.201723 29.329822 64.269850 0
M  V30 END ATOM
M  V30 BEGIN BOND
M  V30 1 1 6 2
M  V30 2 1 7 3
M  V30 3 1 8 3
M  V30 4 1 14 2
M  V30 5 1 14 8
M  V30 6 1 15 9
M  V30 7 1 16 4
M  V30 8 1 17 1
M  V30 9 1 17 11
M  V30 10 1 18 6
M  V30 11 1 19 7
M  V30 12 1 20 4
M  V30 13 1 20 5
M  V30 14 1 20 18
M  V30 15 1 21 12
M  V30 16 1 21 15
M  V30 17 1 22 19
M  V30 18 1 23 2
M  V30 19 1 23 6
M  V30 20 1 23 9 CFG=3
M  V30 21 1 24 4
M  V30 22 1 24 13
M  V30 23 1 26 22
M  V30 24 2 26 25
M  V30 25 1 27 14
M  V30 26 1 28 5
M  V30 27 1 30 11
M  V30 28 1 30 12
M  V30 29 1 31 10
M  V30 30 1 31 25
M  V30 31 1 31 29
M  V30 32 2 32 19
M  V30 33 2 33 10
M  V30 34 1 33 26
M  V30 35 1 34 17
M  V30 36 1 34 23
M  V30 37 1 35 4
M  V30 38 1 35 16
M  V30 39 1 36 1
M  V30 40 1 2 37 CFG=3
M  V30 41 1 38 3
M  V30 42 1 39 3
M  V30 43 1 6 40 CFG=3
M  V30 44 1 41 7
M  V30 45 1 42 7
M  V30 46 1 43 8
M  V30 47 1 44 8
M  V30 48 1 45 9
M  V30 49 1 46 9
M  V30 50 1 47 10
M  V30 51 1 48 11
M  V30 52 1 49 11
M  V30 53 1 50 13
M  V30 54 1 51 13
M  V30 55 1 52 13
M  V30 56 1 14 53 CFG=3
M  V30 57 1 54 15
M  V30 58 1 55 15
M  V30 59 1 56 16
M  V30 60 1 57 16
M  V30 61 1 17 58 CFG=1
M  V30 62 1 59 18
M  V30 63 1 60 18
M  V30 64 1 20 61 CFG=3
M  V30 65 1 62 21
M  V30 66 1 63 21
M  V30 67 1 64 22
M  V30 68 1 65 25
M  V30 69 1 66 27
M  V30 70 1 67 28
M  V30 71 1 68 28
M  V30 72 1 69 28
M  V30 73 1 70 29
M  V30 74 1 71 29
M  V30 75 1 72 29
M  V30 76 1 73 30
M  V30 77 1 74 30
M  V30 78 1 75 33
M  V30 79 1 76 34
M  V30 80 1 77 34
M  V30 81 1 78 35
M  V30 82 1 79 35
M  V30 END BOND
M  V30 END CTAB
M  END
>  <i_epik_Tot_Q>  (1) 
0

>  <i_epik_Tot_abs_Q>  (1) 
0

>  <i_i_glide_confnum>  (1) 
1071

>  <i_i_glide_lignum>  (1) 
77

>  <i_i_glide_posenum>  (1) 
394

>  <i_i_glide_rotatable_bonds>  (1) 
14

>  <i_lp_mmshare_version>  (1) 
72125

>  <i_m_source_file_index>  (1) 
37

>  <i_f3d_flags>  (1) 
0

>  <num_sample>  (1) 
50

>  <b_lp_Chiralities_Consistent>  (1) 
1

>  <r_epik_Charging_Adjusted_Penalty>  (1) 
0

>  <r_epik_Ionization_Penalty>  (1) 
4.0629952699979679e-06

>  <r_epik_Ionization_Penalty_Charging>  (1) 
0

>  <r_epik_Ionization_Penalty_Neutral>  (1) 
4.0629952699979679e-06

>  <r_epik_State_Penalty>  (1) 
-0

>  <r_glide_ring_energy>  (1) 
0

>  <r_i_docking_score>  (1) 
-6.7639827807944179

>  <r_i_glide_ecoul>  (1) 
-5.4629372880667724

>  <r_i_glide_eff_state_penalty>  (1) 
-0

>  <r_i_glide_einternal>  (1) 
15.591537438194923

>  <r_i_glide_emodel>  (1) 
-43.917593088900226

>  <r_i_glide_emodel_strain>  (1) 
2.465231315353563

>  <r_i_glide_energy>  (1) 
-44.411600844401889

>  <r_i_glide_erotb>  (1) 
0.8390941538197072

>  <r_i_glide_esite>  (1) 
0

>  <r_i_glide_evdw>  (1) 
-38.94866355633512

>  <r_i_glide_gscore>  (1) 
-6.7639827807944179

>  <r_i_glide_gscore_strain>  (1) 
0

>  <r_i_glide_hbond>  (1) 
-0.16

>  <r_i_glide_ligand_efficiency>  (1) 
-0.19325665087984051

>  <r_i_glide_ligand_efficiency_ln>  (1) 
-1.4848443388940233

>  <r_i_glide_ligand_efficiency_sa>  (1) 
-0.63215531991292451

>  <r_i_glide_lipo>  (1) 
-3.5236193255502726

>  <r_i_glide_metal>  (1) 
-0

>  <r_i_glide_rewards>  (1) 
-1.1525838380370805

>  <r_lp_Energy>  (1) 
31.017113999999999

>  <r_lp_tautomer_probability>  (1) 
1

>  <s_epik_cmdline>  (1) 
J2VwaWtfcHl0aG9uJywgJy1waHQnLCAnMS4wJywgJy1waCcsICc3LjQnLCAnLXRuJywgJzgnLCAnLW1hJywgJzUwMCcsICctaW1hZScsICc8aW5maWxlLm1hZT4nLCAnLW9tYWUnLCAnPG91dGZpbGUubWFlPic=

>  <s_epik_input>  (1) 
W09IXVtDQEhdKFtDSDJdMSlbQ0gyXVtDSDJdT1tDSDJdW0NIMl1bQ0gyXVtDQF0xMltDQEBIXShbQ0hdMltDSDJdW0NASF0oT1tDSDNdKUMzKFtDSDJdW0NIMl0zKU9bQ0gzXSlbQ0BIXShbT0hdKVtDSDJdW0NIMl1bQ0gyXUMoPU8pW05IXWM0W2NIXW4oW0NIM10pW2NIXVtjSF00

>  <s_glide_docking_method>  (1) 
confgen

>  <s_i_glide_gridfile>  (1) 
gpcr_5ht2c_6bqh_protein_autoprepared_prepared

>  <s_lp_Force_Field>  (1) 
S-OPLS

>  <s_lp_Variant>  (1) 
DiffSBDD_36-1

>  <s_m_source_file>  (1) 
generated_GPCR_5HT2C_ligand_DiffSBDD_2026-06-23_prepared.sdf

>  <GenAI_Model>  (1) 
DiffSBDD

>  <Protein>  (1) 
GPCR_5HT2C

$$$$
DiffSBDD_41
     RDKit          3D

  0  0  0  0  0  0  0  0  0  0999 V3000
M  V30 BEGIN CTAB
M  V30 COUNTS 71 75 0 0 1
M  V30 BEGIN ATOM
M  V30 1 C 37.794832 29.862585 54.273529 0
M  V30 2 O 39.078365 32.435842 59.484112 0
M  V30 3 C 38.402718 31.261601 59.938419 0 CFG=1
M  V30 4 C 39.391517 28.879173 61.485290 0
M  V30 5 C 38.511418 31.192322 54.042034 0
M  V30 6 C 39.685448 28.565806 56.525034 0
M  V30 7 C 36.878865 24.231198 55.339404 0
M  V30 8 C 37.276431 25.245389 54.459285 0
M  V30 9 C 39.880755 34.793221 62.242027 0
M  V30 10 C 38.469103 25.728822 58.476091 0
M  V30 11 C 36.891173 31.432517 59.730675 0
M  V30 12 C 40.855150 33.203290 63.454754 0
M  V30 13 N 40.512787 34.493232 63.363870 0
M  V30 14 C 38.978057 30.037442 59.124749 0 CFG=1
M  V30 15 C 38.690540 29.755366 56.711859 0
M  V30 16 C 39.779371 33.567911 61.503273 0
M  V30 17 O 42.251114 35.737765 64.383942 0
M  V30 18 O 39.478507 35.911754 61.917582 0
M  V30 19 C 39.245791 31.147134 56.403815 0
M  V30 20 C 39.721035 31.236347 54.962482 0
M  V30 21 N 38.964865 28.724289 60.064459 0 CFG=1 CHG=1
M  V30 22 O 41.461541 32.699887 64.399745 0
M  V30 23 O 38.140664 29.736852 58.039698 0
M  V30 24 C 38.047792 26.311343 54.926270 0
M  V30 25 C 39.813653 27.684093 59.428987 0
M  V30 26 C 40.862942 35.480419 64.387415 0
M  V30 27 C 38.390515 26.379207 56.285221 0
M  V30 28 C 39.188239 33.558814 60.279825 0
M  V30 29 C 37.241314 24.292479 56.696598 0
M  V30 30 C 41.609731 31.738636 61.518823 0
M  V30 31 N 39.102543 27.328750 57.031521 0
M  V30 32 C 40.410394 32.368474 62.224471 0 CFG=1
M  V30 33 C 37.507390 29.575076 55.757314 0
M  V30 34 C 39.136546 26.907465 58.362819 0
M  V30 35 C 37.995048 25.379416 57.203114 0
M  V30 36 H 38.411987 29.087468 53.830413 0
M  V30 37 H 36.843294 29.819253 53.767753 0
M  V30 38 H 38.551808 31.155581 60.990262 0
M  V30 39 H 40.399807 29.282599 61.547625 0
M  V30 40 H 38.727777 29.483441 62.097416 0
M  V30 41 H 39.397131 27.914737 61.993221 0
M  V30 42 H 38.845186 31.288318 53.008838 0
M  V30 43 H 37.840935 32.027967 54.249781 0
M  V30 44 H 39.947461 28.411478 55.478761 0
M  V30 45 H 40.630376 28.756028 57.029428 0
M  V30 46 H 36.290212 23.401513 54.974843 0
M  V30 47 H 36.991158 25.201742 53.418856 0
M  V30 48 H 38.321934 25.162290 59.367741 0
M  V30 49 H 36.345177 30.523804 59.981978 0
M  V30 50 H 36.499615 32.238945 60.351168 0
M  V30 51 H 36.670053 31.685289 58.694663 0
M  V30 52 H 40.022807 30.137772 58.845389 0
M  V30 53 H 42.378532 36.666248 64.567167 0
M  V30 54 H 38.477634 31.902127 56.588698 0
M  V30 55 H 40.045123 31.410905 57.054341 0
M  V30 56 H 40.425563 30.444496 54.714337 0
M  V30 57 H 40.278013 32.137738 54.839709 0
M  V30 58 H 38.360521 27.081718 54.248047 0
M  V30 59 H 40.045651 26.937771 60.170383 0
M  V30 60 H 40.782027 28.072003 59.114662 0
M  V30 61 H 40.573657 35.124914 65.377662 0
M  V30 62 H 40.337318 36.425771 64.238110 0
M  V30 63 H 38.766277 34.433536 59.804757 0
M  V30 64 H 36.925874 23.507442 57.366577 0
M  V30 65 H 42.383629 32.476802 61.301918 0
M  V30 66 H 42.045143 30.978003 62.167846 0
M  V30 67 H 41.314245 31.274971 60.579307 0
M  V30 68 H 39.691484 31.645544 62.598841 0
M  V30 69 H 37.245168 28.543708 55.819853 0
M  V30 70 H 36.639977 30.138021 56.093940 0
M  V30 71 H 38.023032 28.361807 60.088407 0
M  V30 END ATOM
M  V30 BEGIN BOND
M  V30 1 1 3 2
M  V30 2 1 5 1
M  V30 3 2 8 7
M  V30 4 1 11 3
M  V30 5 1 13 9
M  V30 6 1 13 12
M  V30 7 1 14 3
M  V30 8 1 15 6
M  V30 9 1 16 9
M  V30 10 2 18 9
M  V30 11 1 19 15
M  V30 12 1 20 5
M  V30 13 1 20 19
M  V30 14 1 21 4
M  V30 15 1 21 14
M  V30 16 2 22 12
M  V30 17 1 23 14
M  V30 18 1 23 15
M  V30 19 1 24 8
M  V30 20 1 25 21
M  V30 21 1 26 13
M  V30 22 1 26 17
M  V30 23 2 27 24
M  V30 24 1 28 2
M  V30 25 2 28 16
M  V30 26 1 29 7
M  V30 27 1 31 6
M  V30 28 1 31 27
M  V30 29 1 32 12
M  V30 30 1 32 16
M  V30 31 1 32 30
M  V30 32 1 33 1
M  V30 33 1 33 15
M  V30 34 2 34 10
M  V30 35 1 34 25
M  V30 36 1 34 31
M  V30 37 1 35 10
M  V30 38 1 35 27
M  V30 39 2 35 29
M  V30 40 1 36 1
M  V30 41 1 37 1
M  V30 42 1 3 38 CFG=1
M  V30 43 1 39 4
M  V30 44 1 40 4
M  V30 45 1 41 4
M  V30 46 1 42 5
M  V30 47 1 43 5
M  V30 48 1 44 6
M  V30 49 1 45 6
M  V30 50 1 46 7
M  V30 51 1 47 8
M  V30 52 1 48 10
M  V30 53 1 49 11
M  V30 54 1 50 11
M  V30 55 1 51 11
M  V30 56 1 14 52 CFG=3
M  V30 57 1 53 17
M  V30 58 1 54 19
M  V30 59 1 55 19
M  V30 60 1 56 20
M  V30 61 1 57 20
M  V30 62 1 58 24
M  V30 63 1 59 25
M  V30 64 1 60 25
M  V30 65 1 61 26
M  V30 66 1 62 26
M  V30 67 1 63 28
M  V30 68 1 64 29
M  V30 69 1 65 30
M  V30 70 1 66 30
M  V30 71 1 67 30
M  V30 72 1 32 68 CFG=1
M  V30 73 1 69 33
M  V30 74 1 70 33
M  V30 75 1 21 71 CFG=1
M  V30 END BOND
M  V30 END CTAB
M  END
>  <i_epik_Tot_Q>  (1) 
1

>  <i_epik_Tot_abs_Q>  (1) 
1

>  <i_i_glide_confnum>  (1) 
4

>  <i_i_glide_lignum>  (1) 
89

>  <i_i_glide_posenum>  (1) 
328

>  <i_i_glide_rotatable_bonds>  (1) 
5

>  <i_lp_mmshare_version>  (1) 
72125

>  <i_m_source_file_index>  (1) 
42

>  <i_f3d_flags>  (1) 
0

>  <num_sample>  (1) 
50

>  <b_lp_Chiralities_Consistent>  (1) 
1

>  <r_epik_Charging_Adjusted_Penalty>  (1) 
1.62722492853585

>  <r_epik_Ionization_Penalty>  (1) 
0.81369786534067623

>  <r_epik_Ionization_Penalty_Charging>  (1) 
0.81361246426792511

>  <r_epik_Ionization_Penalty_Neutral>  (1) 
8.5401072751167088e-05

>  <r_epik_State_Penalty>  (1) 
0.813612464267925

>  <r_glide_ring_energy>  (1) 
1.1929788391020448

>  <r_i_docking_score>  (1) 
-6.7593625164122759

>  <r_i_glide_ecoul>  (1) 
-4.3477544491762163

>  <r_i_glide_eff_state_penalty>  (1) 
0.813612464267925

>  <r_i_glide_einternal>  (1) 
1.1026241799260905

>  <r_i_glide_emodel>  (1) 
-57.858856447420834

>  <r_i_glide_emodel_strain>  (1) 
1.7204255108179751

>  <r_i_glide_energy>  (1) 
-37.078991426059545

>  <r_i_glide_erotb>  (1) 
0.34854586591334119

>  <r_i_glide_esite>  (1) 
-0.0068035819844940865

>  <r_i_glide_evdw>  (1) 
-32.731236976883331

>  <r_i_glide_gscore>  (1) 
-7.5729749806802005

>  <r_i_glide_gscore_strain>  (1) 
0

>  <r_i_glide_hbond>  (1) 
-0.32000000000000001

>  <r_i_glide_ligand_efficiency>  (1) 
-0.19312464332606502

>  <r_i_glide_ligand_efficiency_ln>  (1) 
-1.4838300883208999

>  <r_i_glide_ligand_efficiency_sa>  (1) 
-0.6317235144510791

>  <r_i_glide_lipo>  (1) 
-3.6571101074100061

>  <r_i_glide_metal>  (1) 
-0

>  <r_i_glide_rewards>  (1) 
-1.6488821409784422

>  <r_lp_Energy>  (1) 
42.513731

>  <s_epik_Chemistry_Notes>  (1) 
This compound contains an acetal/aminal-like group ( X-CH(R)-Y where X, Y are N, S, or O) that may be acid/base labile, releasing an aldehyde.

>  <s_epik_cmdline>  (1) 
J2VwaWtfcHl0aG9uJywgJy1waHQnLCAnMS4wJywgJy1waCcsICc3LjQnLCAnLXRuJywgJzgnLCAnLW1hJywgJzUwMCcsICctaW1hZScsICc8aW5maWxlLm1hZT4nLCAnLW9tYWUnLCAnPG91dGZpbGUubWFlPic=

>  <s_epik_input>  (1) 
W0NIMl0xW0NIMl1bQ0gyXVtDSDJdW0NIMl1DMTJbQ0gyXW4zYzRjKFtjSF1bY0hdW2NIXVtjSF00KVtjSF1jM1tDSDJdTihbQ0gzXSlbQ0BASF0oTzIpW0NASF0oW0NIM10pT1xbQ0hdPUNcNVtDQEBIXShbQ0gzXSlDKD1PKU4oQzU9TylbQ0gyXVtPSF0=

>  <s_glide_docking_method>  (1) 
confgen

>  <s_i_glide_gridfile>  (1) 
gpcr_5ht2c_6bqh_protein_autoprepared_prepared

>  <s_lp_Force_Field>  (1) 
S-OPLS

>  <s_lp_Variant>  (1) 
DiffSBDD_41-3

>  <s_m_source_file>  (1) 
generated_GPCR_5HT2C_ligand_DiffSBDD_2026-06-23_prepared.sdf

>  <GenAI_Model>  (1) 
DiffSBDD

>  <Protein>  (1) 
GPCR_5HT2C

$$$$
DiffSBDD_47
     RDKit          3D

  0  0  0  0  0  0  0  0  0  0999 V3000
M  V30 BEGIN CTAB
M  V30 COUNTS 43 46 0 0 1
M  V30 BEGIN ATOM
M  V30 1 C 38.489464 36.230443 61.390311 0
M  V30 2 C 38.412583 26.863607 55.616371 0
M  V30 3 N 38.386461 31.627828 59.105618 0
M  V30 4 C 38.026164 30.081797 57.182175 0 CFG=1
M  V30 5 C 39.387497 29.424692 56.880922 0
M  V30 6 C 38.643918 25.789817 57.759810 0
M  V30 7 N 39.470408 28.052444 57.365731 0
M  V30 8 C 37.800834 26.173249 54.717555 0
M  V30 9 C 37.343244 36.232748 60.574392 0
M  V30 10 C 39.950001 37.353640 62.958078 0
M  V30 11 C 37.561422 32.802656 58.888315 0 CFG=2
M  V30 12 C 39.338366 35.097839 61.398729 0
M  V30 13 C 37.812780 24.538892 57.367196 0
M  V30 14 C 38.832260 26.945785 56.828880 0
M  V30 15 C 38.538742 32.327708 57.837896 0 CFG=2
M  V30 16 C 39.038663 33.985537 60.593207 0
M  V30 17 N 37.245191 24.920019 54.913525 0
M  V30 18 C 37.042842 35.117664 59.767756 0
M  V30 19 C 37.245137 24.217884 56.151423 0
M  V30 20 C 37.886884 33.985451 59.767367 0
M  V30 21 S 37.661334 30.105140 58.943567 0
M  V30 22 O 38.768181 37.336716 62.167849 0
M  V30 23 N 38.045136 31.475463 56.760168 0
M  V30 24 H 37.235008 29.553127 56.650211 0
M  V30 25 H 39.595266 29.451474 55.810711 0
M  V30 26 H 40.177583 29.992651 57.367951 0
M  V30 27 H 38.200281 26.182964 58.674282 0
M  V30 28 H 39.635266 25.430701 58.039730 0
M  V30 29 H 39.717930 27.986193 58.342632 0
M  V30 30 H 37.647178 26.546527 53.715242 0
M  V30 31 H 36.692433 37.094688 60.564160 0
M  V30 32 H 40.045067 38.329986 63.429821 0
M  V30 33 H 40.844916 37.201340 62.353751 0
M  V30 34 H 39.912928 36.603869 63.749428 0
M  V30 35 H 36.491271 32.666694 58.741017 0
M  V30 36 H 40.220229 35.078596 62.018760 0
M  V30 37 H 37.676612 23.831797 58.171906 0
M  V30 38 H 39.428870 32.936874 57.694457 0
M  V30 39 H 39.696159 33.129521 60.605773 0
M  V30 40 H 36.771599 24.490906 54.130634 0
M  V30 41 H 36.162219 35.131427 59.140845 0
M  V30 42 H 36.701375 23.288135 56.070635 0
M  V30 43 H 37.066964 31.737755 56.587732 0
M  V30 END ATOM
M  V30 BEGIN BOND
M  V30 1 1 5 4
M  V30 2 1 7 5
M  V30 3 2 8 2
M  V30 4 1 9 1
M  V30 5 1 11 3
M  V30 6 2 12 1
M  V30 7 1 13 6
M  V30 8 2 14 2
M  V30 9 1 14 6
M  V30 10 1 14 7
M  V30 11 1 15 3
M  V30 12 1 15 11
M  V30 13 1 16 12
M  V30 14 1 17 8
M  V30 15 2 18 9
M  V30 16 2 19 13
M  V30 17 1 19 17
M  V30 18 1 20 11
M  V30 19 2 20 16
M  V30 20 1 20 18
M  V30 21 1 21 3
M  V30 22 1 21 4
M  V30 23 1 22 1
M  V30 24 1 22 10
M  V30 25 1 23 4
M  V30 26 1 23 15
M  V30 27 1 4 24 CFG=3
M  V30 28 1 25 5
M  V30 29 1 26 5
M  V30 30 1 27 6
M  V30 31 1 28 6
M  V30 32 1 29 7
M  V30 33 1 30 8
M  V30 34 1 31 9
M  V30 35 1 32 10
M  V30 36 1 33 10
M  V30 37 1 34 10
M  V30 38 1 11 35 CFG=3
M  V30 39 1 36 12
M  V30 40 1 37 13
M  V30 41 1 15 38 CFG=3
M  V30 42 1 39 16
M  V30 43 1 40 17
M  V30 44 1 41 18
M  V30 45 1 42 19
M  V30 46 1 43 23
M  V30 END BOND
M  V30 END CTAB
M  END
>  <i_epik_Tot_Q>  (1) 
0

>  <i_epik_Tot_abs_Q>  (1) 
0

>  <i_i_glide_confnum>  (1) 
11

>  <i_i_glide_lignum>  (1) 
98

>  <i_i_glide_posenum>  (1) 
299

>  <i_i_glide_rotatable_bonds>  (1) 
5

>  <i_lp_mmshare_version>  (1) 
72125

>  <i_m_source_file_index>  (1) 
48

>  <i_f3d_flags>  (1) 
0

>  <num_sample>  (1) 
50

>  <b_lp_Chiralities_Consistent>  (1) 
1

>  <r_epik_Charging_Adjusted_Penalty>  (1) 
2.8036070843788356e-07

>  <r_epik_Ionization_Penalty>  (1) 
5.6275473319638209e-05

>  <r_epik_Ionization_Penalty_Charging>  (1) 
2.8036070843788356e-07

>  <r_epik_Ionization_Penalty_Neutral>  (1) 
5.5995112611200328e-05

>  <r_epik_State_Penalty>  (1) 
-0

>  <r_glide_ring_energy>  (1) 
0

>  <r_i_docking_score>  (1) 
-6.7527267453927005

>  <r_i_glide_ecoul>  (1) 
-6.0839297683710125

>  <r_i_glide_eff_state_penalty>  (1) 
-0

>  <r_i_glide_einternal>  (1) 
4.2966097665557692

>  <r_i_glide_emodel>  (1) 
-61.828027693941344

>  <r_i_glide_emodel_strain>  (1) 
0.10669233211394413

>  <r_i_glide_energy>  (1) 
-45.045597499688036

>  <r_i_glide_erotb>  (1) 
0.69643727437471581

>  <r_i_glide_esite>  (1) 
-0.063099077230837908

>  <r_i_glide_evdw>  (1) 
-38.961667731317021

>  <r_i_glide_gscore>  (1) 
-6.7527267453927005

>  <r_i_glide_gscore_strain>  (1) 
0

>  <r_i_glide_hbond>  (1) 
-0.16

>  <r_i_glide_ligand_efficiency>  (1) 
-0.29359681501707391

>  <r_i_glide_ligand_efficiency_ln>  (1) 
-1.6328705573767848

>  <r_i_glide_ligand_efficiency_sa>  (1) 
-0.8349502876166448

>  <r_i_glide_lipo>  (1) 
-2.9422348498658497

>  <r_i_glide_metal>  (1) 
-0

>  <r_i_glide_rewards>  (1) 
-1.4231572408492259

>  <r_lp_Energy>  (1) 
12.846019

>  <r_lp_tautomer_probability>  (1) 
1

>  <s_epik_Chemistry_Notes>  (1) 
This compound has an imine and may undergo hydrolysis. This compound contains an acetal/aminal-like group ( X-CH(R)-Y where X, Y are N, S, or O) that may be acid/base labile, releasing an aldehyde. This compound has a N-S or N-O group and may undergo hydrolysis at high or low pH.

>  <s_epik_cmdline>  (1) 
J2VwaWtfcHl0aG9uJywgJy1waHQnLCAnMS4wJywgJy1waCcsICc3LjQnLCAnLXRuJywgJzgnLCAnLW1hJywgJzUwMCcsICctaW1hZScsICc8aW5maWxlLm1hZT4nLCAnLW9tYWUnLCAnPG91dGZpbGUubWFlPic=

>  <s_epik_input>  (1) 
W0NIM11PYzFbY0hdW2NIXWMoW2NIXVtjSF0xKVtDQEhdMltDQEBIXShOMjMpW05IXVtDQEhdKFMzKVtDSDJdW05IXUM0PUM9W0NIXVtOSF1bQ0hdPVtDSF1bQ0gyXTQ=

>  <s_glide_docking_method>  (1) 
confgen

>  <s_i_glide_gridfile>  (1) 
gpcr_5ht2c_6bqh_protein_autoprepared_prepared

>  <s_lp_Force_Field>  (1) 
S-OPLS

>  <s_lp_Variant>  (1) 
DiffSBDD_47-1

>  <s_m_source_file>  (1) 
generated_GPCR_5HT2C_ligand_DiffSBDD_2026-06-23_prepared.sdf

>  <GenAI_Model>  (1) 
DiffSBDD

>  <Protein>  (1) 
GPCR_5HT2C

$$$$
DiffSBDD_4
     RDKit          3D

  0  0  0  0  0  0  0  0  0  0999 V3000
M  V30 BEGIN CTAB
M  V30 COUNTS 84 86 0 0 1
M  V30 BEGIN ATOM
M  V30 1 C 37.841460 25.287023 55.374878 0
M  V30 2 O 38.150580 29.687770 58.858951 0
M  V30 3 C 37.891011 31.645010 56.938483 0
M  V30 4 C 40.477249 30.890390 54.230610 0
M  V30 5 C 38.264359 27.512853 56.508039 0
M  V30 6 C 38.620307 26.615877 55.296077 0 CFG=2
M  V30 7 O 40.844467 28.137318 61.282811 0
M  V30 8 O 37.257048 27.951038 53.818817 0
M  V30 9 C 40.276316 28.724522 60.363892 0
M  V30 10 C 37.690787 32.563405 60.889425 0
M  V30 11 C 37.431120 33.788852 58.076211 0
M  V30 12 C 42.336242 27.964505 57.200831 0
M  V30 13 C 38.314678 27.342116 53.969110 0
M  V30 14 N 39.648409 29.938646 60.556217 0
M  V30 15 C 38.718166 30.416771 59.659178 0
M  V30 16 C 37.474736 35.024031 60.243251 0
M  V30 17 C 38.406118 31.947769 59.640175 0 CFG=1
M  V30 18 C 38.584807 36.785854 61.516360 0
M  V30 19 C 40.396014 28.151834 58.892581 0 CFG=2
M  V30 20 C 39.148356 35.820835 62.370193 0
M  V30 21 C 37.565401 32.289795 58.339592 0 CFG=2
M  V30 22 C 37.754665 36.392021 60.454501 0
M  V30 23 C 39.749539 26.779431 58.513442 0
M  V30 24 F 37.229325 37.329516 59.629209 0
M  V30 25 C 39.317218 31.668864 56.387297 0
M  V30 26 C 39.984530 30.709860 61.775331 0
M  V30 27 C 37.660957 25.441174 57.875589 0
M  V30 28 C 39.255127 31.548641 54.855078 0
M  V30 29 N 39.244557 27.272296 53.015045 0
M  V30 30 C 38.096205 24.570650 56.702520 0
M  V30 31 C 38.869010 34.447148 62.164816 0
M  V30 32 C 40.043869 36.263692 63.515990 0
M  V30 33 C 41.922108 28.116752 58.652229 0
M  V30 34 C 38.337777 26.823690 57.893362 0 CFG=2
M  V30 35 C 36.606893 34.603300 59.082884 0
M  V30 36 N 41.471534 36.137474 63.187658 0 CHG=1
M  V30 37 C 38.020849 34.048073 61.104098 0
M  V30 38 H 38.120428 24.617017 54.564465 0
M  V30 39 H 36.772024 25.471899 55.268394 0
M  V30 40 H 37.502731 30.631502 56.854327 0
M  V30 41 H 37.268071 32.131225 56.186407 0
M  V30 42 H 40.445273 30.977478 53.143777 0
M  V30 43 H 41.408616 31.337846 54.569835 0
M  V30 44 H 40.487386 29.834194 54.497710 0
M  V30 45 H 37.245147 27.870179 56.410427 0
M  V30 46 H 38.872314 28.414521 56.473559 0
M  V30 47 H 39.689008 26.396067 55.336360 0
M  V30 48 H 37.872114 32.051150 61.823465 0
M  V30 49 H 36.609042 32.461168 60.786566 0
M  V30 50 H 38.445160 34.137747 57.949412 0
M  V30 51 H 36.938751 33.938668 57.120276 0
M  V30 52 H 43.372303 28.271845 57.069748 0
M  V30 53 H 42.263840 26.928794 56.916262 0
M  V30 54 H 41.710255 28.537674 56.520738 0
M  V30 55 H 39.378314 32.432943 59.540552 0
M  V30 56 H 38.793955 37.834142 61.673681 0
M  V30 57 H 40.133916 28.881253 58.137032 0
M  V30 58 H 36.561813 31.934308 58.570244 0
M  V30 59 H 40.381938 26.238253 57.811995 0
M  V30 60 H 39.721794 26.127012 59.367760 0
M  V30 61 H 39.848617 32.582901 56.658457 0
M  V30 62 H 39.875459 30.835484 56.811994 0
M  V30 63 H 40.206731 31.758041 61.576631 0
M  V30 64 H 39.174060 30.622570 62.496825 0
M  V30 65 H 40.846554 30.340351 62.341529 0
M  V30 66 H 37.868628 24.911477 58.804273 0
M  V30 67 H 36.578601 25.567867 57.820930 0
M  V30 68 H 38.383070 30.969642 54.549395 0
M  V30 69 H 39.096072 32.537839 54.436724 0
M  V30 70 H 40.092819 26.754627 53.175121 0
M  V30 71 H 39.088115 27.731666 52.129298 0
M  V30 72 H 39.147325 24.299392 56.803011 0
M  V30 73 H 37.523179 23.648054 56.736293 0
M  V30 74 H 39.290990 33.704995 62.827731 0
M  V30 75 H 39.845052 37.314635 63.734627 0
M  V30 76 H 39.826600 35.721041 64.431975 0
M  V30 77 H 42.349647 29.065694 58.966457 0
M  V30 78 H 42.410151 27.348605 59.253154 0
M  V30 79 H 37.716928 27.406358 58.560613 0
M  V30 80 H 35.727484 34.053004 59.417817 0
M  V30 81 H 36.216003 35.488041 58.582068 0
M  V30 82 H 42.001923 36.679733 63.864783 0
M  V30 83 H 41.756049 35.170486 63.217446 0
M  V30 84 H 41.638646 36.520586 62.268557 0
M  V30 END ATOM
M  V30 BEGIN BOND
M  V30 1 1 6 1
M  V30 2 1 6 5
M  V30 3 2 9 7
M  V30 4 1 13 6
M  V30 5 2 13 8
M  V30 6 1 14 9
M  V30 7 2 15 2
M  V30 8 1 15 14
M  V30 9 1 17 10
M  V30 10 1 17 15
M  V30 11 1 19 9
M  V30 12 2 20 18
M  V30 13 1 21 3
M  V30 14 1 21 11
M  V30 15 1 21 17
M  V30 16 2 22 16
M  V30 17 1 22 18
M  V30 18 1 23 19
M  V30 19 1 24 22
M  V30 20 1 25 3
M  V30 21 1 26 14
M  V30 22 1 28 4
M  V30 23 1 28 25
M  V30 24 1 29 13
M  V30 25 1 30 1
M  V30 26 1 30 27
M  V30 27 1 31 20
M  V30 28 1 32 20
M  V30 29 1 33 12
M  V30 30 1 33 19
M  V30 31 1 34 5
M  V30 32 1 34 23
M  V30 33 1 34 27
M  V30 34 1 35 11
M  V30 35 1 35 16
M  V30 36 1 36 32
M  V30 37 1 37 10
M  V30 38 1 37 16
M  V30 39 2 37 31
M  V30 40 1 38 1
M  V30 41 1 39 1
M  V30 42 1 40 3
M  V30 43 1 41 3
M  V30 44 1 42 4
M  V30 45 1 43 4
M  V30 46 1 44 4
M  V30 47 1 45 5
M  V30 48 1 46 5
M  V30 49 1 6 47 CFG=3
M  V30 50 1 48 10
M  V30 51 1 49 10
M  V30 52 1 50 11
M  V30 53 1 51 11
M  V30 54 1 52 12
M  V30 55 1 53 12
M  V30 56 1 54 12
M  V30 57 1 17 55 CFG=3
M  V30 58 1 56 18
M  V30 59 1 19 57 CFG=3
M  V30 60 1 21 58 CFG=1
M  V30 61 1 59 23
M  V30 62 1 60 23
M  V30 63 1 61 25
M  V30 64 1 62 25
M  V30 65 1 63 26
M  V30 66 1 64 26
M  V30 67 1 65 26
M  V30 68 1 66 27
M  V30 69 1 67 27
M  V30 70 1 68 28
M  V30 71 1 69 28
M  V30 72 1 70 29
M  V30 73 1 71 29
M  V30 74 1 72 30
M  V30 75 1 73 30
M  V30 76 1 74 31
M  V30 77 1 75 32
M  V30 78 1 76 32
M  V30 79 1 77 33
M  V30 80 1 78 33
M  V30 81 1 34 79 CFG=1
M  V30 82 1 80 35
M  V30 83 1 81 35
M  V30 84 1 82 36
M  V30 85 1 83 36
M  V30 86 1 84 36
M  V30 END BOND
M  V30 END CTAB
M  END
>  <i_epik_Tot_Q>  (1) 
1

>  <i_epik_Tot_abs_Q>  (1) 
1

>  <i_i_glide_confnum>  (1) 
775

>  <i_i_glide_lignum>  (1) 
12

>  <i_i_glide_posenum>  (1) 
43

>  <i_i_glide_rotatable_bonds>  (1) 
12

>  <i_lp_mmshare_version>  (1) 
72125

>  <i_m_source_file_index>  (1) 
5

>  <i_f3d_flags>  (1) 
0

>  <num_sample>  (1) 
50

>  <b_lp_Chiralities_Consistent>  (1) 
1

>  <r_epik_Charging_Adjusted_Penalty>  (1) 
0.13898695589805143

>  <r_epik_Ionization_Penalty>  (1) 
0.069493509606034093

>  <r_epik_Ionization_Penalty_Charging>  (1) 
0.069493477949025731

>  <r_epik_Ionization_Penalty_Neutral>  (1) 
3.165700835510182e-08

>  <r_epik_State_Penalty>  (1) 
0.069493477949025703

>  <r_glide_ring_energy>  (1) 
0

>  <r_i_docking_score>  (1) 
-6.7434496534118349

>  <r_i_glide_ecoul>  (1) 
-3.127733276981719

>  <r_i_glide_eff_state_penalty>  (1) 
0.069493477949025703

>  <r_i_glide_einternal>  (1) 
21.112753726941779

>  <r_i_glide_emodel>  (1) 
-42.598666872573908

>  <r_i_glide_emodel_strain>  (1) 
8.3878173713283246

>  <r_i_glide_energy>  (1) 
-44.604015338990635

>  <r_i_glide_erotb>  (1) 
0.61504065404150154

>  <r_i_glide_esite>  (1) 
0

>  <r_i_glide_evdw>  (1) 
-41.476282062008913

>  <r_i_glide_gscore>  (1) 
-6.8129431313608606

>  <r_i_glide_gscore_strain>  (1) 
1.0969543428320812

>  <r_i_glide_hbond>  (1) 
0

>  <r_i_glide_ligand_efficiency>  (1) 
-0.18225539603815771

>  <r_i_glide_ligand_efficiency_ln>  (1) 
-1.4624961409353452

>  <r_i_glide_ligand_efficiency_sa>  (1) 
-0.6073154132587365

>  <r_i_glide_lipo>  (1) 
-4.0747619748309276

>  <r_i_glide_metal>  (1) 
-0

>  <r_i_glide_rewards>  (1) 
-1.9072020587558107

>  <r_lp_Energy>  (1) 
65.294674999999998

>  <r_lp_tautomer_probability>  (1) 
0.99980002999550088

>  <s_epik_cmdline>  (1) 
J2VwaWtfcHl0aG9uJywgJy1waHQnLCAnMS4wJywgJy1waCcsICc3LjQnLCAnLXRuJywgJzgnLCAnLW1hJywgJzUwMCcsICctaW1hZScsICc8aW5maWxlLm1hZT4nLCAnLW9tYWUnLCAnPG91dGZpbGUubWFlPic=

>  <s_epik_input>  (1) 
Tz1DKFtOSDJdKVtDQEBIXTFbQ0gyXVtDSDJdW0NIMl1bQ0BASF0oW0NIMl0xKVtDSDJdW0NASF0oW0NIMl1bQ0gzXSlDKD1PKU4oW0NIM10pQyg9TylbQ0BASF0oW0NAQEhdKFtDSDJdW0NIMl0yKVtDSDJdW0NIMl1bQ0gyXVtDSDNdKVtDSDJdYyhjMjMpW2NIXWMoW2NIXWMzRilbQ0gyXVtOSDJd

>  <s_glide_docking_method>  (1) 
confgen

>  <s_i_glide_gridfile>  (1) 
gpcr_5ht2c_6bqh_protein_autoprepared_prepared

>  <s_lp_Force_Field>  (1) 
S-OPLS

>  <s_lp_Variant>  (1) 
DiffSBDD_4-1

>  <s_m_source_file>  (1) 
generated_GPCR_5HT2C_ligand_DiffSBDD_2026-06-23_prepared.sdf

>  <GenAI_Model>  (1) 
DiffSBDD

>  <Protein>  (1) 
GPCR_5HT2C

$$$$
DiffSBDD_17
     RDKit          3D

  0  0  0  0  0  0  0  0  0  0999 V3000
M  V30 BEGIN CTAB
M  V30 COUNTS 92 96 0 0 1
M  V30 BEGIN ATOM
M  V30 1 C 41.946740 25.068154 65.060341 0
M  V30 2 C 38.259496 31.949957 61.684707 0 CFG=2
M  V30 3 C 41.679513 27.622908 65.302935 0
M  V30 4 O 41.569645 32.968387 64.348303 0
M  V30 5 C 41.389596 26.096027 67.296532 0
M  V30 6 C 39.552073 27.444220 55.553459 0
M  V30 7 C 38.858424 27.337756 53.157770 0
M  V30 8 C 39.645133 26.926656 54.324774 0
M  V30 9 C 38.112415 33.885271 58.967554 0
M  V30 10 C 40.285263 35.174230 61.141491 0
M  V30 11 N 43.694925 28.728242 64.167516 0
M  V30 12 C 38.996596 34.463118 61.492501 0 CFG=2
M  V30 13 C 41.478841 28.937229 63.083238 0 CFG=1
M  V30 14 C 39.216413 30.870877 62.255786 0
M  V30 15 N 44.679159 27.834902 64.762219 0 CHG=1
M  V30 16 C 39.821227 27.444100 57.794533 0 CFG=2
M  V30 17 C 38.579039 28.449794 56.012790 0 CFG=2
M  V30 18 C 44.711115 29.934400 65.913767 0
M  V30 19 C 42.392761 28.058127 63.981023 0 CFG=2
M  V30 20 O 40.351424 26.998488 56.558431 0
M  V30 21 C 45.026470 28.440713 66.062827 0
M  V30 22 O 40.445128 28.138074 62.567624 0
M  V30 23 N 37.111115 30.213277 58.358472 0 CHG=1
M  V30 24 C 38.404952 29.675108 55.189856 0
M  V30 25 C 37.296525 31.261504 60.650433 0
M  V30 26 C 38.245036 28.539735 52.956481 0
M  V30 27 N 38.959561 33.080560 61.027078 0 CFG=2 CHG=1
M  V30 28 C 40.307393 32.374432 64.119258 0
M  V30 29 S 38.845154 26.137755 58.567758 0 CHG=-1
M  V30 30 C 40.478297 31.251107 63.080916 0 CFG=1
M  V30 31 C 38.225826 29.700324 53.862654 0
M  V30 32 N 40.968598 30.087057 63.830104 0
M  V30 33 C 37.995219 34.017172 60.462731 0 CFG=2
M  V30 34 C 37.761982 28.890431 58.427902 0
M  V30 35 C 37.373766 32.644748 58.464418 0
M  V30 36 C 38.971909 28.698704 57.470010 0 CFG=1
M  V30 37 C 37.741269 31.301072 59.145230 0 CFG=2
M  V30 38 N 43.617403 29.986718 64.927450 0 CHG=1
M  V30 39 C 42.127238 26.295857 65.964261 0
M  V30 40 H 40.906010 24.937784 64.760802 0
M  V30 41 H 42.551175 25.128514 64.156296 0
M  V30 42 H 42.262858 24.167428 65.587923 0
M  V30 43 H 37.666177 32.337479 62.515218 0
M  V30 44 H 41.730859 28.427495 66.036787 0
M  V30 45 H 40.612823 27.510704 65.101451 0
M  V30 46 H 41.458990 33.700546 64.939081 0
M  V30 47 H 40.333391 25.875410 67.143244 0
M  V30 48 H 41.819689 25.273692 67.866050 0
M  V30 49 H 41.453625 26.983092 67.927041 0
M  V30 50 H 38.807982 26.632549 52.340780 0
M  V30 51 H 40.368496 26.138112 54.177244 0
M  V30 52 H 39.156670 33.828902 58.657017 0
M  V30 53 H 37.645135 34.759484 58.507964 0
M  V30 54 H 40.237204 36.212344 61.472462 0
M  V30 55 H 41.134817 34.697230 61.631715 0
M  V30 56 H 40.445178 35.175098 60.066445 0
M  V30 57 H 38.652809 34.573116 62.515602 0
M  V30 58 H 42.049265 29.277248 62.222768 0
M  V30 59 H 39.562509 30.270034 61.413635 0
M  V30 60 H 38.602422 30.198421 62.857812 0
M  V30 61 H 44.260540 26.919135 64.856631 0
M  V30 62 H 40.638084 27.699561 58.470281 0
M  V30 63 H 37.639935 27.908885 55.990473 0
M  V30 64 H 45.575008 30.462368 65.506734 0
M  V30 65 H 44.437978 30.410632 66.855932 0
M  V30 66 H 42.607791 27.170413 63.387157 0
M  V30 67 H 46.045137 28.220091 66.355687 0
M  V30 68 H 44.385691 28.028812 66.841089 0
M  V30 69 H 39.754259 28.046099 63.212809 0
M  V30 70 H 36.151377 30.125045 58.662158 0
M  V30 71 H 38.367901 30.607524 55.733449 0
M  V30 72 H 37.140618 30.228940 60.958083 0
M  V30 73 H 36.303139 31.706697 60.728562 0
M  V30 74 H 37.765854 28.674199 51.997288 0
M  V30 75 H 39.902475 32.008874 65.063948 0
M  V30 76 H 39.645146 33.152972 63.767743 0
M  V30 77 H 41.236773 31.575962 62.366575 0
M  V30 78 H 38.045119 30.664881 53.415785 0
M  V30 79 H 40.257609 29.780213 64.491163 0
M  V30 80 H 36.980998 33.938833 60.853672 0
M  V30 81 H 38.050925 28.690959 59.460328 0
M  V30 82 H 36.991988 28.162444 58.167775 0
M  V30 83 H 37.564119 32.570448 57.391950 0
M  V30 84 H 36.305369 32.832359 58.567781 0
M  V30 85 H 39.642761 29.557343 57.523022 0
M  V30 86 H 38.820369 31.158423 59.073220 0
M  V30 87 H 43.713740 30.755213 64.276676 0
M  V30 88 H 43.180071 26.338429 66.220175 0
M  V30 89 H 45.469270 27.807988 64.128588 0
M  V30 90 H 42.700215 30.013466 65.355366 0
M  V30 91 H 37.051989 30.501681 57.388550 0
M  V30 92 H 39.659575 32.846754 60.338523 0
M  V30 END ATOM
M  V30 BEGIN BOND
M  V30 1 2 8 6
M  V30 2 1 8 7
M  V30 3 1 12 10
M  V30 4 1 14 2
M  V30 5 1 15 11
M  V30 6 1 17 6
M  V30 7 1 19 3
M  V30 8 1 19 11
M  V30 9 1 19 13
M  V30 10 1 20 6
M  V30 11 1 20 16
M  V30 12 1 21 15
M  V30 13 1 21 18
M  V30 14 1 22 13
M  V30 15 1 24 17
M  V30 16 1 25 2
M  V30 17 2 26 7
M  V30 18 1 27 2
M  V30 19 1 27 12
M  V30 20 1 28 4
M  V30 21 1 29 16
M  V30 22 1 30 14
M  V30 23 1 30 28
M  V30 24 2 31 24
M  V30 25 1 31 26
M  V30 26 1 32 13
M  V30 27 1 32 30
M  V30 28 1 33 9
M  V30 29 1 33 12
M  V30 30 1 33 27
M  V30 31 1 34 23
M  V30 32 1 35 9
M  V30 33 1 36 16
M  V30 34 1 36 17
M  V30 35 1 36 34
M  V30 36 1 37 23
M  V30 37 1 37 25
M  V30 38 1 37 35
M  V30 39 1 38 11
M  V30 40 1 38 18
M  V30 41 1 39 1
M  V30 42 1 39 3
M  V30 43 1 39 5
M  V30 44 1 40 1
M  V30 45 1 41 1
M  V30 46 1 42 1
M  V30 47 1 2 43 CFG=1
M  V30 48 1 44 3
M  V30 49 1 45 3
M  V30 50 1 46 4
M  V30 51 1 47 5
M  V30 52 1 48 5
M  V30 53 1 49 5
M  V30 54 1 50 7
M  V30 55 1 51 8
M  V30 56 1 52 9
M  V30 57 1 53 9
M  V30 58 1 54 10
M  V30 59 1 55 10
M  V30 60 1 56 10
M  V30 61 1 12 57 CFG=1
M  V30 62 1 13 58 CFG=3
M  V30 63 1 59 14
M  V30 64 1 60 14
M  V30 65 1 61 15
M  V30 66 1 16 62 CFG=1
M  V30 67 1 17 63 CFG=1
M  V30 68 1 64 18
M  V30 69 1 65 18
M  V30 70 1 19 66 CFG=3
M  V30 71 1 67 21
M  V30 72 1 68 21
M  V30 73 1 69 22
M  V30 74 1 70 23
M  V30 75 1 71 24
M  V30 76 1 72 25
M  V30 77 1 73 25
M  V30 78 1 74 26
M  V30 79 1 75 28
M  V30 80 1 76 28
M  V30 81 1 30 77 CFG=3
M  V30 82 1 78 31
M  V30 83 1 79 32
M  V30 84 1 33 80 CFG=1
M  V30 85 1 81 34
M  V30 86 1 82 34
M  V30 87 1 83 35
M  V30 88 1 84 35
M  V30 89 1 36 85 CFG=3
M  V30 90 1 37 86 CFG=1
M  V30 91 1 87 38
M  V30 92 1 88 39
M  V30 93 1 89 15
M  V30 94 1 90 38
M  V30 95 1 91 23
M  V30 96 1 27 92 CFG=3
M  V30 END BOND
M  V30 END CTAB
M  END
>  <i_epik_Tot_Q>  (1) 
3

>  <i_epik_Tot_abs_Q>  (1) 
5

>  <i_i_glide_confnum>  (1) 
3139

>  <i_i_glide_lignum>  (1) 
40

>  <i_i_glide_posenum>  (1) 
271

>  <i_i_glide_rotatable_bonds>  (1) 
14

>  <i_lp_mmshare_version>  (1) 
72125

>  <i_m_source_file_index>  (1) 
18

>  <i_f3d_flags>  (1) 
0

>  <num_sample>  (1) 
50

>  <b_lp_Chiralities_Consistent>  (1) 
1

>  <r_epik_Charging_Adjusted_Penalty>  (1) 
1.6860912736117832

>  <r_epik_Ionization_Penalty>  (1) 
0.9299661573909731

>  <r_epik_Ionization_Penalty_Charging>  (1) 
0.33573944846101578

>  <r_epik_Ionization_Penalty_Neutral>  (1) 
0.59422670892995733

>  <r_epik_State_Penalty>  (1) 
1.3503518251507676

>  <r_glide_ring_energy>  (1) 
0.0045750838620950583

>  <r_i_docking_score>  (1) 
-6.7392814341664753

>  <r_i_glide_ecoul>  (1) 
-9.1665686544867562

>  <r_i_glide_eff_state_penalty>  (1) 
1.3503518251507676

>  <r_i_glide_einternal>  (1) 
15.807992650316951

>  <r_i_glide_emodel>  (1) 
-69.371109587493606

>  <r_i_glide_emodel_strain>  (1) 
0.93440966943285275

>  <r_i_glide_energy>  (1) 
-52.328192474323572

>  <r_i_glide_erotb>  (1) 
0.56462826385561427

>  <r_i_glide_esite>  (1) 
-0.10408405351592556

>  <r_i_glide_evdw>  (1) 
-43.161623819836819

>  <r_i_glide_gscore>  (1) 
-8.0896332593172424

>  <r_i_glide_gscore_strain>  (1) 
0

>  <r_i_glide_hbond>  (1) 
-0.35247398462169716

>  <r_i_glide_ligand_efficiency>  (1) 
-0.17280208805555064

>  <r_i_glide_ligand_efficiency_ln>  (1) 
-1.4450932453652665

>  <r_i_glide_ligand_efficiency_sa>  (1) 
-0.58600841839072504

>  <r_i_glide_lipo>  (1) 
-3.7646369958703798

>  <r_i_glide_metal>  (1) 
-0

>  <r_i_glide_rewards>  (1) 
-0.90000000000000002

>  <r_lp_Energy>  (1) 
61.524414999999998

>  <s_epik_Chemistry_Notes>  (1) 
This compound contains an acetal/aminal-like group ( X-CH(R)-Y where X, Y are N, S, or O) that may be acid/base labile, releasing an aldehyde.

>  <s_epik_cmdline>  (1) 
J2VwaWtfcHl0aG9uJywgJy1waHQnLCAnMS4wJywgJy1waCcsICc3LjQnLCAnLXRuJywgJzgnLCAnLW1hJywgJzUwMCcsICctaW1hZScsICc8aW5maWxlLm1hZT4nLCAnLW9tYWUnLCAnPG91dGZpbGUubWFlPic=

>  <s_epik_input>  (1) 
W05IXTFbQ0gyXVtDSDJdW05IXU4xW0NAQEhdKFtDSDJdW0NIXShbQ0gzXSlbQ0gzXSlbQ0BASF0oW09IXSlbTkhdW0NASF0oW0NIMl1bT0hdKVtDSDJdW0NAQEhdMltDSDJdW0NASF0oW0NIMl1bQ0gyXVtDQEBIXShOMjMpW0NIXTNbQ0gzXSlbTkhdW0NIMl1bQ0BASF0oW0NASF0oTzQpW1NIXSlbQ0BIXShDND01KVtDSF09W0NIXVtDSF09W0NIXVtDSF01

>  <s_glide_docking_method>  (1) 
confgen

>  <s_i_glide_gridfile>  (1) 
gpcr_5ht2c_6bqh_protein_autoprepared_prepared

>  <s_lp_Force_Field>  (1) 
S-OPLS

>  <s_lp_Variant>  (1) 
DiffSBDD_17-7

>  <s_m_source_file>  (1) 
generated_GPCR_5HT2C_ligand_DiffSBDD_2026-06-23_prepared.sdf

>  <GenAI_Model>  (1) 
DiffSBDD

>  <Protein>  (1) 
GPCR_5HT2C

$$$$
DiffSBDD_15
     RDKit          3D

  0  0  0  0  0  0  0  0  0  0999 V3000
M  V30 BEGIN CTAB
M  V30 COUNTS 41 43 0 0 1
M  V30 BEGIN ATOM
M  V30 1 C 38.544887 32.066799 56.218887 0
M  V30 2 O 40.089227 27.215205 55.420217 0
M  V30 3 C 40.772672 28.407640 57.443707 0
M  V30 4 O 39.140216 27.313674 52.054721 0
M  V30 5 C 39.245366 29.560909 53.540364 0
M  V30 6 C 38.616035 25.781967 56.416574 0
M  V30 7 N 38.045340 27.104117 54.388657 0
M  V30 8 C 37.305908 30.358150 55.140040 0
M  V30 9 C 39.634672 27.963179 56.539205 0 CFG=2
M  V30 10 C 38.728449 27.014131 57.318920 0 CFG=2
M  V30 11 C 39.358313 31.637014 55.015950 0
M  V30 12 C 40.855660 27.337726 58.509389 0
M  V30 13 C 39.081556 26.293498 55.052142 0 CFG=1
M  V30 14 C 39.425827 26.804674 58.663759 0
M  V30 15 S 38.287445 28.077787 52.976597 0
M  V30 16 O 36.955387 28.537744 52.568607 0
M  V30 17 N 37.645149 30.940284 56.451194 0 CHG=1
M  V30 18 C 38.454194 30.715388 54.183328 0 CFG=1
M  V30 19 H 39.159743 32.302873 57.089584 0
M  V30 20 H 37.942882 32.943084 55.967732 0
M  V30 21 H 41.711785 28.534853 56.904258 0
M  V30 22 H 40.517956 29.355739 57.918015 0
M  V30 23 H 40.044307 29.235616 54.191677 0
M  V30 24 H 39.748500 29.946407 52.653852 0
M  V30 25 H 37.615718 25.347228 56.397187 0
M  V30 26 H 39.306390 25.004774 56.750309 0
M  V30 27 H 37.076720 26.943422 54.661197 0
M  V30 28 H 36.381380 30.823965 54.794586 0
M  V30 29 H 37.090872 29.301571 55.241359 0
M  V30 30 H 39.087125 28.826652 56.199899 0
M  V30 31 H 37.741828 27.457558 57.464452 0
M  V30 32 H 40.262055 31.125383 55.348540 0
M  V30 33 H 39.644853 32.521794 54.466044 0
M  V30 34 H 41.501406 26.533021 58.157184 0
M  V30 35 H 41.282565 27.719242 59.437874 0
M  V30 36 H 39.451958 25.508271 54.392375 0
M  V30 37 H 39.409495 25.759557 58.967993 0
M  V30 38 H 38.907638 27.376225 59.434654 0
M  V30 39 H 38.073929 30.254744 57.052645 0
M  V30 40 H 38.044772 31.306123 53.370396 0
M  V30 41 H 36.749541 31.278841 56.847280 0
M  V30 END ATOM
M  V30 BEGIN BOND
M  V30 1 1 9 2
M  V30 2 1 9 3
M  V30 3 1 10 6
M  V30 4 1 10 9
M  V30 5 1 11 1
M  V30 6 1 12 3
M  V30 7 1 13 2
M  V30 8 1 13 6
M  V30 9 1 13 7
M  V30 10 1 14 10
M  V30 11 1 14 12
M  V30 12 2 15 4
M  V30 13 1 15 5
M  V30 14 1 15 7
M  V30 15 2 16 15
M  V30 16 1 17 1
M  V30 17 1 17 8
M  V30 18 1 18 5
M  V30 19 1 18 8
M  V30 20 1 18 11
M  V30 21 1 19 1
M  V30 22 1 20 1
M  V30 23 1 21 3
M  V30 24 1 22 3
M  V30 25 1 23 5
M  V30 26 1 24 5
M  V30 27 1 25 6
M  V30 28 1 26 6
M  V30 29 1 27 7
M  V30 30 1 28 8
M  V30 31 1 29 8
M  V30 32 1 9 30 CFG=3
M  V30 33 1 10 31 CFG=1
M  V30 34 1 32 11
M  V30 35 1 33 11
M  V30 36 1 34 12
M  V30 37 1 35 12
M  V30 38 1 13 36 CFG=3
M  V30 39 1 37 14
M  V30 40 1 38 14
M  V30 41 1 39 17
M  V30 42 1 18 40 CFG=3
M  V30 43 1 41 17
M  V30 END BOND
M  V30 END CTAB
M  END
>  <i_epik_Tot_Q>  (1) 
1

>  <i_epik_Tot_abs_Q>  (1) 
1

>  <i_i_glide_confnum>  (1) 
26

>  <i_i_glide_lignum>  (1) 
31

>  <i_i_glide_posenum>  (1) 
278

>  <i_i_glide_rotatable_bonds>  (1) 
4

>  <i_lp_mmshare_version>  (1) 
72125

>  <i_m_source_file_index>  (1) 
16

>  <i_f3d_flags>  (1) 
0

>  <num_sample>  (1) 
50

>  <b_lp_Chiralities_Consistent>  (1) 
1

>  <r_epik_Charging_Adjusted_Penalty>  (1) 
0.00041597813202231702

>  <r_epik_Ionization_Penalty>  (1) 
0.00074601898943485131

>  <r_epik_Ionization_Penalty_Charging>  (1) 
0.00041597813202231702

>  <r_epik_Ionization_Penalty_Neutral>  (1) 
0.00033004085741253423

>  <r_epik_State_Penalty>  (1) 
-0

>  <r_glide_ring_energy>  (1) 
0.53097510870218401

>  <r_i_docking_score>  (1) 
-6.7383365694868731

>  <r_i_glide_ecoul>  (1) 
-5.5682350148243742

>  <r_i_glide_eff_state_penalty>  (1) 
-0

>  <r_i_glide_einternal>  (1) 
7.5663906718527372

>  <r_i_glide_emodel>  (1) 
-43.841271879233943

>  <r_i_glide_emodel_strain>  (1) 
3.1210926565886581

>  <r_i_glide_energy>  (1) 
-33.213394359281224

>  <r_i_glide_erotb>  (1) 
0.47397758712995947

>  <r_i_glide_esite>  (1) 
-0.10000000000000001

>  <r_i_glide_evdw>  (1) 
-27.645159344456854

>  <r_i_glide_gscore>  (1) 
-6.7383365694868731

>  <r_i_glide_gscore_strain>  (1) 
0

>  <r_i_glide_hbond>  (1) 
-0.18989214516073444

>  <r_i_glide_ligand_efficiency>  (1) 
-0.37435203163815961

>  <r_i_glide_ligand_efficiency_ln>  (1) 
-1.7320546695339036

>  <r_i_glide_ligand_efficiency_sa>  (1) 
-0.98107986532032343

>  <r_i_glide_lipo>  (1) 
-1.8170386889484136

>  <r_i_glide_metal>  (1) 
-0

>  <r_i_glide_rewards>  (1) 
-2.8878901030611854

>  <r_lp_Energy>  (1) 
10.187014999999999

>  <r_lp_tautomer_probability>  (1) 
1

>  <s_epik_Chemistry_Notes>  (1) 
This compound contains an acetal/aminal-like group ( X-CH(R)-Y where X, Y are N, S, or O) that may be acid/base labile, releasing an aldehyde.

>  <s_epik_cmdline>  (1) 
J2VwaWtfcHl0aG9uJywgJy1waHQnLCAnMS4wJywgJy1waCcsICc3LjQnLCAnLXRuJywgJzgnLCAnLW1hJywgJzUwMCcsICctaW1hZScsICc8aW5maWxlLm1hZT4nLCAnLW9tYWUnLCAnPG91dGZpbGUubWFlPic=

>  <s_epik_input>  (1) 
W0NIMl0xW0NIMl1bTkhdW0NIMl1bQ0BASF0xW0NIMl1TKD1PKSg9TylbTkhdW0NAQEhdKE8yKVtDSDJdW0NASF0oW0NASF0yMylbQ0gyXVtDSDJdW0NIMl0z

>  <s_glide_docking_method>  (1) 
confgen

>  <s_i_glide_gridfile>  (1) 
gpcr_5ht2c_6bqh_protein_autoprepared_prepared

>  <s_lp_Force_Field>  (1) 
S-OPLS

>  <s_lp_Variant>  (1) 
DiffSBDD_15-1

>  <s_m_source_file>  (1) 
generated_GPCR_5HT2C_ligand_DiffSBDD_2026-06-23_prepared.sdf

>  <GenAI_Model>  (1) 
DiffSBDD

>  <Protein>  (1) 
GPCR_5HT2C

$$$$
DiffSBDD_15
     RDKit          3D

  0  0  0  0  0  0  0  0  0  0999 V3000
M  V30 BEGIN CTAB
M  V30 COUNTS 41 43 0 0 1
M  V30 BEGIN ATOM
M  V30 1 C 40.045134 29.718072 49.718704 0
M  V30 2 O 40.053352 26.495041 55.640488 0
M  V30 3 C 39.427964 24.883972 57.359973 0
M  V30 4 O 37.245142 29.337731 53.893139 0
M  V30 5 C 39.529128 30.642051 53.315908 0
M  V30 6 C 37.939608 26.506816 54.739487 0
M  V30 7 N 39.319747 28.585779 55.199364 0
M  V30 8 C 38.771284 28.830514 51.502708 0
M  V30 9 C 39.205604 26.252092 56.756408 0 CFG=2
M  V30 10 C 37.774284 26.245821 56.222096 0 CFG=2
M  V30 11 C 40.591752 30.376014 50.967020 0
M  V30 12 C 38.027001 24.412666 57.741742 0
M  V30 13 C 39.298283 27.206811 54.678461 0 CFG=1
M  V30 14 C 37.150172 24.898569 56.595246 0
M  V30 15 S 38.414117 29.899952 54.571923 0
M  V30 16 O 38.263824 30.870925 55.662325 0
M  V30 17 N 39.287232 28.537773 50.167752 0 CHG=1
M  V30 18 C 39.847725 29.706213 52.137242 0 CFG=1
M  V30 19 H 39.377554 30.429435 49.235805 0
M  V30 20 H 40.816137 29.449905 48.995847 0
M  V30 21 H 39.836848 24.210366 56.609854 0
M  V30 22 H 40.135095 24.937799 58.182136 0
M  V30 23 H 39.044432 31.555404 52.969333 0
M  V30 24 H 40.443369 30.950759 53.824603 0
M  V30 25 H 37.098248 27.034348 54.301197 0
M  V30 26 H 38.026140 25.565186 54.196875 0
M  V30 27 H 39.597500 28.688429 56.174331 0
M  V30 28 H 38.567531 27.904564 52.037321 0
M  V30 29 H 37.822531 29.337749 51.399486 0
M  V30 30 H 39.328267 27.032434 57.509500 0
M  V30 31 H 37.245148 27.066921 56.702387 0
M  V30 32 H 40.411330 31.449294 50.932549 0
M  V30 33 H 41.671094 30.228793 50.968062 0
M  V30 34 H 37.963616 23.337790 57.899059 0
M  V30 35 H 37.718172 24.903356 58.658962 0
M  V30 36 H 39.767207 27.135868 53.701143 0
M  V30 37 H 37.209306 24.188243 55.769809 0
M  V30 38 H 36.101383 24.994626 56.875478 0
M  V30 39 H 38.530634 28.347305 49.523865 0
M  V30 40 H 40.445135 28.937575 52.566966 0
M  V30 41 H 39.906299 27.742451 50.219551 0
M  V30 END ATOM
M  V30 BEGIN BOND
M  V30 1 1 9 2
M  V30 2 1 9 3
M  V30 3 1 10 6
M  V30 4 1 10 9
M  V30 5 1 11 1
M  V30 6 1 12 3
M  V30 7 1 13 2
M  V30 8 1 13 6
M  V30 9 1 13 7
M  V30 10 1 14 10
M  V30 11 1 14 12
M  V30 12 2 15 4
M  V30 13 1 15 5
M  V30 14 1 15 7
M  V30 15 2 16 15
M  V30 16 1 17 1
M  V30 17 1 17 8
M  V30 18 1 18 5
M  V30 19 1 18 8
M  V30 20 1 18 11
M  V30 21 1 19 1
M  V30 22 1 20 1
M  V30 23 1 21 3
M  V30 24 1 22 3
M  V30 25 1 23 5
M  V30 26 1 24 5
M  V30 27 1 25 6
M  V30 28 1 26 6
M  V30 29 1 27 7
M  V30 30 1 28 8
M  V30 31 1 29 8
M  V30 32 1 9 30 CFG=1
M  V30 33 1 10 31 CFG=1
M  V30 34 1 32 11
M  V30 35 1 33 11
M  V30 36 1 34 12
M  V30 37 1 35 12
M  V30 38 1 13 36 CFG=3
M  V30 39 1 37 14
M  V30 40 1 38 14
M  V30 41 1 39 17
M  V30 42 1 18 40 CFG=1
M  V30 43 1 41 17
M  V30 END BOND
M  V30 END CTAB
M  END
>  <i_epik_Tot_Q>  (1) 
1

>  <i_epik_Tot_abs_Q>  (1) 
1

>  <i_i_glide_confnum>  (1) 
70

>  <i_i_glide_lignum>  (1) 
31

>  <i_i_glide_posenum>  (1) 
370

>  <i_i_glide_rotatable_bonds>  (1) 
4

>  <i_lp_mmshare_version>  (1) 
72125

>  <i_m_source_file_index>  (1) 
16

>  <i_f3d_flags>  (1) 
0

>  <num_sample>  (1) 
50

>  <b_lp_Chiralities_Consistent>  (1) 
1

>  <r_epik_Charging_Adjusted_Penalty>  (1) 
0.00041597813202231702

>  <r_epik_Ionization_Penalty>  (1) 
0.00074601898943485131

>  <r_epik_Ionization_Penalty_Charging>  (1) 
0.00041597813202231702

>  <r_epik_Ionization_Penalty_Neutral>  (1) 
0.00033004085741253423

>  <r_epik_State_Penalty>  (1) 
-0

>  <r_glide_ring_energy>  (1) 
2.2558864248930415

>  <r_i_docking_score>  (1) 
-6.7294414522360109

>  <r_i_glide_ecoul>  (1) 
-0.55046819450934559

>  <r_i_glide_eff_state_penalty>  (1) 
-0

>  <r_i_glide_einternal>  (1) 
3.1501651791132916

>  <r_i_glide_emodel>  (1) 
-43.019201187765567

>  <r_i_glide_emodel_strain>  (1) 
1.1362070333762162

>  <r_i_glide_energy>  (1) 
-28.22146909140378

>  <r_i_glide_erotb>  (1) 
0.47397758712995947

>  <r_i_glide_esite>  (1) 
-0.059388499317930048

>  <r_i_glide_evdw>  (1) 
-27.671000896894434

>  <r_i_glide_gscore>  (1) 
-6.7294414522360109

>  <r_i_glide_gscore_strain>  (1) 
0

>  <r_i_glide_hbond>  (1) 
0

>  <r_i_glide_ligand_efficiency>  (1) 
-0.37385785845755615

>  <r_i_glide_ligand_efficiency_ln>  (1) 
-1.7297682255114761

>  <r_i_glide_ligand_efficiency_sa>  (1) 
-0.97978476521000812

>  <r_i_glide_lipo>  (1) 
-3.2397047015848974

>  <r_i_glide_metal>  (1) 
-0

>  <r_i_glide_rewards>  (1) 
-2.4382055644420193

>  <r_lp_Energy>  (1) 
10.187014999999999

>  <r_lp_tautomer_probability>  (1) 
1

>  <s_epik_Chemistry_Notes>  (1) 
This compound contains an acetal/aminal-like group ( X-CH(R)-Y where X, Y are N, S, or O) that may be acid/base labile, releasing an aldehyde.

>  <s_epik_cmdline>  (1) 
J2VwaWtfcHl0aG9uJywgJy1waHQnLCAnMS4wJywgJy1waCcsICc3LjQnLCAnLXRuJywgJzgnLCAnLW1hJywgJzUwMCcsICctaW1hZScsICc8aW5maWxlLm1hZT4nLCAnLW9tYWUnLCAnPG91dGZpbGUubWFlPic=

>  <s_epik_input>  (1) 
W0NIMl0xW0NIMl1bTkhdW0NIMl1bQ0BASF0xW0NIMl1TKD1PKSg9TylbTkhdW0NAQEhdKE8yKVtDSDJdW0NASF0oW0NASF0yMylbQ0gyXVtDSDJdW0NIMl0z

>  <s_glide_docking_method>  (1) 
confgen

>  <s_i_glide_gridfile>  (1) 
gpcr_5ht2c_6bqh_protein_autoprepared_prepared

>  <s_lp_Force_Field>  (1) 
S-OPLS

>  <s_lp_Variant>  (1) 
DiffSBDD_15-1

>  <s_m_source_file>  (1) 
generated_GPCR_5HT2C_ligand_DiffSBDD_2026-06-23_prepared.sdf

>  <GenAI_Model>  (1) 
DiffSBDD

>  <Protein>  (1) 
GPCR_5HT2C

$$$$
DiffSBDD_12
     RDKit          3D

  0  0  0  0  0  0  0  0  0  0999 V3000
M  V30 BEGIN CTAB
M  V30 COUNTS 78 80 0 0 1
M  V30 BEGIN ATOM
M  V30 1 C 38.755828 30.248832 59.242716 0 CFG=2
M  V30 2 C 40.834884 32.866555 65.417392 0
M  V30 3 C 38.817853 31.381227 60.304142 0 CFG=2
M  V30 4 O 38.638886 36.376714 61.436892 0
M  V30 5 N 39.002332 34.154452 60.994371 0
M  V30 6 C 37.650978 33.730513 60.761835 0
M  V30 7 C 39.397716 35.419765 61.317881 0
M  V30 8 C 41.559528 33.872589 64.519511 0 CFG=1
M  V30 9 C 36.571538 34.539791 60.889722 0
M  V30 10 F 42.731718 29.906285 66.656358 0
M  V30 11 C 39.054907 29.862435 54.277067 0
M  V30 12 C 38.764723 32.199307 55.347927 0
M  V30 13 C 39.422780 30.480354 53.055599 0
M  V30 14 F 41.360289 31.173702 67.767829 0
M  V30 15 S 42.021605 32.839721 63.090594 0
M  V30 16 C 39.416334 27.535089 50.623719 0
M  V30 17 C 38.965340 27.702881 53.110800 0
M  V30 18 C 40.355938 36.005740 65.350067 0
M  V30 19 C 38.823100 30.121564 56.742452 0
M  V30 20 C 40.903686 35.613647 61.543196 0
M  V30 21 C 42.249727 31.388012 64.150996 0
M  V30 22 N 38.652462 30.822332 57.920259 0
M  V30 23 C 39.186038 30.842159 61.697268 0
M  V30 24 C 41.263435 36.020180 62.993122 0
M  V30 25 C 38.882305 30.686494 55.522471 0
M  V30 26 O 37.645145 32.537730 54.567754 0
M  V30 27 C 41.983424 31.874603 65.587573 0 CFG=1
M  V30 28 C 37.530370 32.257540 60.349713 0
M  V30 29 C 39.315641 28.336016 51.902372 0
M  V30 30 C 43.132813 32.799388 66.041993 0
M  V30 31 C 39.560888 29.717789 51.880947 0
M  V30 32 C 37.664939 29.201844 59.470267 0
M  V30 33 C 38.845133 28.457395 54.296958 0
M  V30 34 C 40.704551 35.120212 64.130922 0 CFG=1
M  V30 35 C 41.679389 30.717564 66.556332 0
M  V30 36 C 42.821450 34.147912 65.362815 0
M  V30 37 H 39.713124 29.725271 59.256672 0
M  V30 38 H 39.966270 32.419787 64.935004 0
M  V30 39 H 40.522462 33.288792 66.372469 0
M  V30 40 H 39.645134 32.003584 59.976742 0
M  V30 41 H 39.713413 33.444810 60.905266 0
M  V30 42 H 36.643499 35.565916 61.178142 0
M  V30 43 H 35.581073 34.154007 60.697744 0
M  V30 44 H 39.645145 32.587922 54.871200 0
M  V30 45 H 38.683752 32.734435 56.293038 0
M  V30 46 H 39.593407 31.543596 53.014452 0
M  V30 47 H 40.445125 27.452265 50.282073 0
M  V30 48 H 38.845191 28.038726 49.843327 0
M  V30 49 H 39.000326 26.537750 50.746886 0
M  V30 50 H 38.780594 26.638537 53.129637 0
M  V30 51 H 41.226479 36.537754 65.731298 0
M  V30 52 H 39.943080 35.435899 66.179878 0
M  V30 53 H 39.612562 36.757978 65.083488 0
M  V30 54 H 38.912295 29.057946 56.887597 0
M  V30 55 H 41.447779 34.724054 61.239310 0
M  V30 56 H 41.245087 36.401290 60.872175 0
M  V30 57 H 41.529182 30.624125 63.857677 0
M  V30 58 H 43.246486 30.963670 64.031135 0
M  V30 59 H 38.429178 30.157106 62.078333 0
M  V30 60 H 39.287569 31.649775 62.422027 0
M  V30 61 H 40.133930 30.303723 61.670767 0
M  V30 62 H 42.342202 36.134803 63.103051 0
M  V30 63 H 40.863321 37.026724 63.121591 0
M  V30 64 H 36.884442 32.671143 55.130312 0
M  V30 65 H 37.057414 32.273004 59.366937 0
M  V30 66 H 36.797876 31.785428 61.005270 0
M  V30 67 H 43.128106 32.924135 67.125641 0
M  V30 68 H 44.111739 32.406601 65.767783 0
M  V30 69 H 39.833492 30.203026 50.954497 0
M  V30 70 H 38.045111 28.461060 60.167793 0
M  V30 71 H 37.420570 28.650945 58.562658 0
M  V30 72 H 36.737476 29.635308 59.843125 0
M  V30 73 H 38.564494 27.961499 55.210614 0
M  V30 74 H 39.761123 34.722579 63.767761 0
M  V30 75 H 40.837981 30.114414 66.212389 0
M  V30 76 H 43.644818 34.537759 64.769780 0
M  V30 77 H 42.626120 34.881331 66.143199 0
M  V30 78 H 38.522052 31.822916 57.872002 0
M  V30 END ATOM
M  V30 BEGIN BOND
M  V30 1 1 3 1
M  V30 2 1 6 5
M  V30 3 2 7 4
M  V30 4 1 7 5
M  V30 5 1 8 2
M  V30 6 2 9 6
M  V30 7 2 13 11
M  V30 8 1 8 15 CFG=3
M  V30 9 1 20 7
M  V30 10 1 21 15
M  V30 11 1 22 1
M  V30 12 1 22 19
M  V30 13 1 23 3
M  V30 14 1 24 20
M  V30 15 1 25 11
M  V30 16 1 25 12
M  V30 17 2 25 19
M  V30 18 1 26 12
M  V30 19 1 27 2
M  V30 20 1 27 21
M  V30 21 1 28 3
M  V30 22 1 28 6
M  V30 23 1 29 16
M  V30 24 1 29 17
M  V30 25 1 30 27
M  V30 26 1 31 13
M  V30 27 2 31 29
M  V30 28 1 32 1
M  V30 29 1 33 11
M  V30 30 2 33 17
M  V30 31 1 34 8
M  V30 32 1 34 18
M  V30 33 1 34 24
M  V30 34 1 35 10
M  V30 35 1 35 14
M  V30 36 1 27 35 CFG=1
M  V30 37 1 36 8
M  V30 38 1 36 30
M  V30 39 1 1 37 CFG=3
M  V30 40 1 38 2
M  V30 41 1 39 2
M  V30 42 1 3 40 CFG=3
M  V30 43 1 41 5
M  V30 44 1 42 9
M  V30 45 1 43 9
M  V30 46 1 44 12
M  V30 47 1 45 12
M  V30 48 1 46 13
M  V30 49 1 47 16
M  V30 50 1 48 16
M  V30 51 1 49 16
M  V30 52 1 50 17
M  V30 53 1 51 18
M  V30 54 1 52 18
M  V30 55 1 53 18
M  V30 56 1 54 19
M  V30 57 1 55 20
M  V30 58 1 56 20
M  V30 59 1 57 21
M  V30 60 1 58 21
M  V30 61 1 59 23
M  V30 62 1 60 23
M  V30 63 1 61 23
M  V30 64 1 62 24
M  V30 65 1 63 24
M  V30 66 1 64 26
M  V30 67 1 65 28
M  V30 68 1 66 28
M  V30 69 1 67 30
M  V30 70 1 68 30
M  V30 71 1 69 31
M  V30 72 1 70 32
M  V30 73 1 71 32
M  V30 74 1 72 32
M  V30 75 1 73 33
M  V30 76 1 34 74 CFG=3
M  V30 77 1 75 35
M  V30 78 1 76 36
M  V30 79 1 77 36
M  V30 80 1 78 22
M  V30 END BOND
M  V30 END CTAB
M  END
>  <i_epik_Tot_Q>  (1) 
0

>  <i_epik_Tot_abs_Q>  (1) 
0

>  <i_i_glide_confnum>  (1) 
4022

>  <i_i_glide_lignum>  (1) 
23

>  <i_i_glide_posenum>  (1) 
43

>  <i_i_glide_rotatable_bonds>  (1) 
15

>  <i_lp_mmshare_version>  (1) 
72125

>  <i_m_source_file_index>  (1) 
13

>  <i_f3d_flags>  (1) 
0

>  <num_sample>  (1) 
50

>  <b_lp_Chiralities_Consistent>  (1) 
1

>  <r_epik_Charging_Adjusted_Penalty>  (1) 
0

>  <r_epik_Ionization_Penalty>  (1) 
3.3667035854956668e-06

>  <r_epik_Ionization_Penalty_Charging>  (1) 
0

>  <r_epik_Ionization_Penalty_Neutral>  (1) 
3.3667035854956668e-06

>  <r_epik_State_Penalty>  (1) 
-0

>  <r_glide_ring_energy>  (1) 
0

>  <r_i_docking_score>  (1) 
-6.7257626575457401

>  <r_i_glide_ecoul>  (1) 
-3.4503062638534789

>  <r_i_glide_eff_state_penalty>  (1) 
-0

>  <r_i_glide_einternal>  (1) 
9.7772932700662647

>  <r_i_glide_emodel>  (1) 
-60.685148853160676

>  <r_i_glide_emodel_strain>  (1) 
1.5590024133929745

>  <r_i_glide_energy>  (1) 
-46.58927343160169

>  <r_i_glide_erotb>  (1) 
0.98535433330626676

>  <r_i_glide_esite>  (1) 
-0.041631874797123082

>  <r_i_glide_evdw>  (1) 
-43.138967167748213

>  <r_i_glide_gscore>  (1) 
-6.7257626575457401

>  <r_i_glide_gscore_strain>  (1) 
0

>  <r_i_glide_hbond>  (1) 
-0.15704450441483558

>  <r_i_glide_ligand_efficiency>  (1) 
-0.18682674048738168

>  <r_i_glide_ligand_efficiency_ln>  (1) 
-1.4673797027685487

>  <r_i_glide_ligand_efficiency_sa>  (1) 
-0.61688830523745064

>  <r_i_glide_lipo>  (1) 
-4.1459851996070363

>  <r_i_glide_metal>  (1) 
-0

>  <r_i_glide_rewards>  (1) 
-0.69196111406758098

>  <r_lp_Energy>  (1) 
46.558340999999999

>  <r_lp_tautomer_probability>  (1) 
1

>  <s_epik_cmdline>  (1) 
J2VwaWtfcHl0aG9uJywgJy1waHQnLCAnMS4wJywgJy1waCcsICc3LjQnLCAnLXRuJywgJzgnLCAnLW1hJywgJzUwMCcsICctaW1hZScsICc8aW5maWxlLm1hZT4nLCAnLW9tYWUnLCAnPG91dGZpbGUubWFlPic=

>  <s_epik_input>  (1) 
W2NIXTFbY0hdYyhbQ0gzXSlbY0hdW2NIXWMxW0NAQEhdKFtDSDJdW09IXSkvW0NIXT1OL1tDQEhdKFtDSDNdKVtDQEhdKFtDSDNdKVtDSDJdQyg9W0NIMl0pW05IXUMoPU8pW0NIMl1bQ0gyXVtDQEhdKFtDSDNdKVtDQEBdMjNbQ0gyXVtDQF0oW0NIMl1TMikoW0NIXShGKUYpW0NIMl1bQ0gyXTM=

>  <s_glide_docking_method>  (1) 
confgen

>  <s_i_glide_gridfile>  (1) 
gpcr_5ht2c_6bqh_protein_autoprepared_prepared

>  <s_lp_Force_Field>  (1) 
S-OPLS

>  <s_lp_Variant>  (1) 
DiffSBDD_12-1

>  <s_m_source_file>  (1) 
generated_GPCR_5HT2C_ligand_DiffSBDD_2026-06-23_prepared.sdf

>  <GenAI_Model>  (1) 
DiffSBDD

>  <Protein>  (1) 
GPCR_5HT2C

$$$$
DiffSBDD_34
     RDKit          3D

  0  0  0  0  0  0  0  0  0  0999 V3000
M  V30 BEGIN CTAB
M  V30 COUNTS 82 85 0 0 1
M  V30 BEGIN ATOM
M  V30 1 C 39.660358 27.149268 54.597977 0
M  V30 2 C 39.739995 35.209144 61.424691 0 CFG=1
M  V30 3 C 38.126859 28.968262 58.977525 0
M  V30 4 C 37.888881 27.918560 57.859929 0
M  V30 5 O 37.245136 30.349916 55.993195 0
M  V30 6 C 39.276198 33.760032 61.177566 0
M  V30 7 O 38.667552 31.366997 57.475199 0
M  V30 8 C 39.461180 30.837261 55.282723 0 CFG=1
M  V30 9 C 40.434612 27.777172 57.684527 0 CFG=2
M  V30 10 C 38.572975 36.141909 61.661163 0
M  V30 11 C 37.641304 31.472349 58.450566 0 CFG=2
M  V30 12 C 38.198005 28.170594 52.791803 0
M  V30 13 O 39.645806 25.012474 56.227099 0
M  V30 14 C 39.603985 29.750927 54.202658 0 CFG=2
M  V30 15 O 35.834941 29.737686 58.567735 0
M  V30 16 C 45.364455 25.090179 60.905260 0
M  V30 17 O 37.422192 26.121852 55.687381 0
M  V30 18 N 38.351335 32.011938 59.761124 0 CHG=1
M  V30 19 C 38.636789 33.456647 59.812156 0
M  V30 20 C 41.391185 26.734391 58.167780 0 CFG=1
M  V30 21 S 38.863175 26.224847 55.959858 0
M  V30 22 O 42.790017 26.937808 58.112432 0
M  V30 23 C 38.959856 31.067480 53.873898 0
M  V30 24 C 39.121081 27.836875 51.619754 0
M  V30 25 C 37.851983 36.733071 60.650633 0
M  V30 26 S 36.597568 37.743010 61.271027 0
M  V30 27 C 38.068635 36.513249 62.961537 0
M  V30 28 O 36.983940 28.250913 52.643902 0
M  V30 29 C 40.842395 27.728968 59.148187 0
M  V30 30 C 43.385355 25.968604 58.967777 0
M  V30 31 C 38.336361 30.815224 56.270609 0
M  V30 32 C 40.748092 35.193010 62.592641 0
M  V30 33 O 45.245154 24.646481 59.566566 0
M  V30 34 N 39.091164 27.313122 57.285559 0
M  V30 35 C 44.838668 25.660655 58.663084 0
M  V30 36 C 36.982769 37.337604 62.897873 0
M  V30 37 C 38.845044 28.400468 54.157933 0 CFG=2
M  V30 38 C 37.100628 30.109437 59.041043 0 CFG=1
M  V30 39 N 41.244941 36.537745 62.905304 0 CHG=1
M  V30 40 H 40.654740 27.365648 54.968478 0
M  V30 41 H 39.788700 26.432154 53.787649 0
M  V30 42 H 40.281479 35.541989 60.538026 0
M  V30 43 H 39.096924 29.449770 58.919640 0
M  V30 44 H 38.127343 28.437819 59.930114 0
M  V30 45 H 37.243730 27.106666 58.167756 0
M  V30 46 H 37.315706 28.328241 57.045449 0
M  V30 47 H 38.594089 33.467502 61.978065 0
M  V30 48 H 40.144566 33.103587 61.270722 0
M  V30 49 H 40.363120 31.367119 55.581611 0
M  V30 50 H 40.801387 28.581779 57.052667 0
M  V30 51 H 36.846057 32.166154 58.167839 0
M  V30 52 H 40.527348 29.737760 53.659640 0
M  V30 53 H 35.614539 30.327597 57.841215 0
M  V30 54 H 46.163751 24.537598 61.367772 0
M  V30 55 H 45.644356 26.137860 60.977130 0
M  V30 56 H 44.452011 24.909739 61.473619 0
M  V30 57 H 37.743013 31.823325 60.544521 0
M  V30 58 H 39.309811 33.727172 58.997858 0
M  V30 59 H 37.707854 34.013124 59.676418 0
M  V30 60 H 41.038389 25.707568 58.167724 0
M  V30 61 H 39.529237 31.737454 53.238031 0
M  V30 62 H 37.885618 31.088747 53.711251 0
M  V30 63 H 40.146998 28.142923 51.821932 0
M  V30 64 H 39.113937 26.762233 51.431437 0
M  V30 65 H 38.784803 28.343249 50.713899 0
M  V30 66 H 37.990027 36.638055 59.584390 0
M  V30 67 H 38.500352 36.143151 63.878003 0
M  V30 68 H 41.505762 28.514789 59.505651 0
M  V30 69 H 40.146166 27.337801 59.884682 0
M  V30 70 H 43.245139 26.279402 59.981055 0
M  V30 71 H 42.879936 25.003735 58.967758 0
M  V30 72 H 40.297596 34.765716 63.488061 0
M  V30 73 H 41.606031 34.565987 62.345191 0
M  V30 74 H 44.920269 25.289343 57.641226 0
M  V30 75 H 45.474258 26.537753 58.729424 0
M  V30 76 H 36.398377 37.740608 63.711959 0
M  V30 77 H 37.998321 28.464825 54.835777 0
M  V30 78 H 36.874139 30.266310 60.097785 0
M  V30 79 H 41.885074 36.518990 63.688407 0
M  V30 80 H 41.719109 36.925951 62.101287 0
M  V30 81 H 40.472022 37.142800 63.152252 0
M  V30 82 H 39.209235 31.500440 59.906427 0
M  V30 END ATOM
M  V30 BEGIN BOND
M  V30 1 1 4 3
M  V30 2 1 6 2
M  V30 3 1 10 2
M  V30 4 1 11 7
M  V30 5 1 14 8
M  V30 6 1 18 11
M  V30 7 1 19 6
M  V30 8 1 19 18
M  V30 9 1 20 9
M  V30 10 1 21 1
M  V30 11 2 21 13
M  V30 12 2 21 17
M  V30 13 1 22 20
M  V30 14 1 23 8
M  V30 15 1 23 14
M  V30 16 1 24 12
M  V30 17 2 25 10
M  V30 18 1 26 25
M  V30 19 1 27 10
M  V30 20 2 28 12
M  V30 21 1 29 9
M  V30 22 1 29 20
M  V30 23 1 30 22
M  V30 24 2 31 5
M  V30 25 1 31 7
M  V30 26 1 31 8
M  V30 27 1 32 2
M  V30 28 1 33 16
M  V30 29 1 34 4
M  V30 30 1 34 9
M  V30 31 1 34 21
M  V30 32 1 35 30
M  V30 33 1 35 33
M  V30 34 1 36 26
M  V30 35 2 36 27
M  V30 36 1 37 1
M  V30 37 1 37 12
M  V30 38 1 37 14
M  V30 39 1 38 3
M  V30 40 1 38 11
M  V30 41 1 38 15
M  V30 42 1 39 32
M  V30 43 1 40 1
M  V30 44 1 41 1
M  V30 45 1 2 42 CFG=3
M  V30 46 1 43 3
M  V30 47 1 44 3
M  V30 48 1 45 4
M  V30 49 1 46 4
M  V30 50 1 47 6
M  V30 51 1 48 6
M  V30 52 1 8 49 CFG=1
M  V30 53 1 9 50 CFG=3
M  V30 54 1 11 51 CFG=3
M  V30 55 1 14 52 CFG=3
M  V30 56 1 53 15
M  V30 57 1 54 16
M  V30 58 1 55 16
M  V30 59 1 56 16
M  V30 60 1 57 18
M  V30 61 1 58 19
M  V30 62 1 59 19
M  V30 63 1 20 60 CFG=1
M  V30 64 1 61 23
M  V30 65 1 62 23
M  V30 66 1 63 24
M  V30 67 1 64 24
M  V30 68 1 65 24
M  V30 69 1 66 25
M  V30 70 1 67 27
M  V30 71 1 68 29
M  V30 72 1 69 29
M  V30 73 1 70 30
M  V30 74 1 71 30
M  V30 75 1 72 32
M  V30 76 1 73 32
M  V30 77 1 74 35
M  V30 78 1 75 35
M  V30 79 1 76 36
M  V30 80 1 37 77 CFG=1
M  V30 81 1 38 78 CFG=1
M  V30 82 1 79 39
M  V30 83 1 80 39
M  V30 84 1 81 39
M  V30 85 1 82 18
M  V30 END BOND
M  V30 END CTAB
M  END
>  <i_epik_Tot_Q>  (1) 
2

>  <i_epik_Tot_abs_Q>  (1) 
2

>  <i_i_glide_confnum>  (1) 
240

>  <i_i_glide_lignum>  (1) 
74

>  <i_i_glide_posenum>  (1) 
41

>  <i_i_glide_rotatable_bonds>  (1) 
13

>  <i_lp_mmshare_version>  (1) 
72125

>  <i_m_source_file_index>  (1) 
35

>  <i_f3d_flags>  (1) 
0

>  <num_sample>  (1) 
50

>  <b_lp_Chiralities_Consistent>  (1) 
1

>  <r_epik_Charging_Adjusted_Penalty>  (1) 
2.3451396311148152

>  <r_epik_Ionization_Penalty>  (1) 
1.1748262987801661

>  <r_epik_Ionization_Penalty_Charging>  (1) 
1.1748152809562251

>  <r_epik_Ionization_Penalty_Neutral>  (1) 
1.1017823941083724e-05

>  <r_epik_State_Penalty>  (1) 
1.1703243501585898

>  <r_glide_ring_energy>  (1) 
0

>  <r_i_docking_score>  (1) 
-6.723184585064879

>  <r_i_glide_ecoul>  (1) 
-7.3335853408451932

>  <r_i_glide_eff_state_penalty>  (1) 
1.1703243501585898

>  <r_i_glide_einternal>  (1) 
4.1045853733745314

>  <r_i_glide_emodel>  (1) 
-40.17695995048922

>  <r_i_glide_emodel_strain>  (1) 
8.8894644117898736

>  <r_i_glide_energy>  (1) 
-43.699237236541379

>  <r_i_glide_erotb>  (1) 
0.3736599463562138

>  <r_i_glide_esite>  (1) 
-0.19300499805891283

>  <r_i_glide_evdw>  (1) 
-36.365651895696182

>  <r_i_glide_gscore>  (1) 
-7.8935089352234691

>  <r_i_glide_gscore_strain>  (1) 
1.2223661029474684

>  <r_i_glide_hbond>  (1) 
-0.16

>  <r_i_glide_ligand_efficiency>  (1) 
-0.17238934833499689

>  <r_i_glide_ligand_efficiency_ln>  (1) 
-1.4416416239816496

>  <r_i_glide_ligand_efficiency_sa>  (1) 
-0.58460873072739672

>  <r_i_glide_lipo>  (1) 
-4.4156007382471838

>  <r_i_glide_metal>  (1) 
-0

>  <r_i_glide_rewards>  (1) 
-1.8026088523094663

>  <r_lp_Energy>  (1) 
19.937625000000001

>  <r_lp_tautomer_probability>  (1) 
0.9999999700000004

>  <s_epik_Chemistry_Notes>  (1) 
This compound has an ester and may undergo hydrolysis at high or low pH. This compound contains an acetal/aminal-like group ( X-CH(R)-Y where X, Y are N, S, or O) that may be acid/base labile, releasing an aldehyde.

>  <s_epik_cmdline>  (1) 
J2VwaWtfcHl0aG9uJywgJy1waHQnLCAnMS4wJywgJy1waCcsICc3LjQnLCAnLXRuJywgJzgnLCAnLW1hJywgJzUwMCcsICctaW1hZScsICc8aW5maWxlLm1hZT4nLCAnLW9tYWUnLCAnPG91dGZpbGUubWFlPic=

>  <s_epik_input>  (1) 
W0NIM11PW0NIMl1bQ0gyXU9bQ0BASF0oW0NIMl0xKVtDSF0xTihTKD1PKSg9TylbQ0gyXVtDQEhdKEMoPU8pW0NIM10pW0NASF0oW0NIXTIzKVtDSDJdMilbQ0gyXVtDSDJdW0NASF0oW09IXSlbQ0BIXShPQzM9TylbTkhdW0NIMl1bQ0gyXVtDQEhdKFtDSDJdW05IMl0pYzRbY0hdc1tjSF1bY0hdNA==

>  <s_glide_docking_method>  (1) 
confgen

>  <s_i_glide_gridfile>  (1) 
gpcr_5ht2c_6bqh_protein_autoprepared_prepared

>  <s_lp_Force_Field>  (1) 
S-OPLS

>  <s_lp_Variant>  (1) 
DiffSBDD_34-2

>  <s_m_source_file>  (1) 
generated_GPCR_5HT2C_ligand_DiffSBDD_2026-06-23_prepared.sdf

>  <GenAI_Model>  (1) 
DiffSBDD

>  <Protein>  (1) 
GPCR_5HT2C

$$$$
DiffSBDD_17
     RDKit          3D

  0  0  0  0  0  0  0  0  0  0999 V3000
M  V30 BEGIN CTAB
M  V30 COUNTS 92 96 0 0 1
M  V30 BEGIN ATOM
M  V30 1 C 44.272002 29.976581 67.571820 0
M  V30 2 C 38.848225 32.456739 61.882258 0 CFG=2
M  V30 3 C 43.736206 29.379520 65.124127 0
M  V30 4 O 40.693821 28.930788 60.949601 0
M  V30 5 C 43.623395 31.850834 65.973112 0
M  V30 6 C 38.631235 28.149354 55.272905 0
M  V30 7 C 39.560228 25.853827 54.939355 0
M  V30 8 C 38.995889 27.127812 54.494929 0
M  V30 9 C 37.536419 34.815128 59.931577 0
M  V30 10 C 40.182414 36.012398 61.650383 0
M  V30 11 N 42.125170 27.475934 64.639473 0
M  V30 12 C 39.150830 35.029539 62.165776 0 CFG=2
M  V30 13 C 41.124775 29.658535 64.967620 0 CFG=1
M  V30 14 C 40.177919 31.672097 61.963972 0
M  V30 15 N 40.929135 26.765197 65.131751 0 CHG=1
M  V30 16 C 37.836708 30.236152 55.740859 0 CFG=2
M  V30 17 C 38.773140 28.249979 56.739902 0 CFG=2
M  V30 18 C 42.804946 25.302340 65.290366 0
M  V30 19 C 42.321130 28.741364 65.379626 0 CFG=2
M  V30 20 O 38.103632 29.282768 54.722834 0
M  V30 21 C 41.277151 25.337709 65.167082 0
M  V30 22 O 40.831684 30.632188 65.935368 0
M  V30 23 N 37.245136 31.250898 58.567797 0 CHG=1
M  V30 24 C 38.513025 27.081356 57.626321 0
M  V30 25 C 37.776885 31.778196 60.971738 0
M  V30 26 C 39.500557 25.291756 56.180092 0
M  V30 27 N 39.103773 33.820535 61.374547 0 CFG=2 CHG=1
M  V30 28 C 39.874431 29.061048 62.090276 0
M  V30 29 S 39.014706 31.620409 55.768569 0 CHG=-1
M  V30 30 C 40.116692 30.394148 62.843466 0 CFG=1
M  V30 31 C 38.857287 25.813282 57.385806 0
M  V30 32 N 41.326949 30.264413 63.653854 0
M  V30 33 C 37.900305 34.637082 61.385173 0 CFG=2
M  V30 34 C 38.200828 30.154853 58.332034 0
M  V30 35 C 36.854180 33.565047 59.348047 0
M  V30 36 C 37.842976 29.409014 57.044854 0 CFG=1
M  V30 37 C 37.722954 32.288773 59.495112 0 CFG=2
M  V30 38 N 43.280007 26.566245 64.694836 0 CHG=1
M  V30 39 C 44.256962 30.455842 66.111453 0
M  V30 40 H 43.263367 29.883188 67.974910 0
M  V30 41 H 44.766095 29.008925 67.666877 0
M  V30 42 H 44.810747 30.682259 68.205687 0
M  V30 43 H 38.448190 32.537729 62.893389 0
M  V30 44 H 44.510909 28.616569 65.168245 0
M  V30 45 H 43.809038 29.759935 64.104448 0
M  V30 46 H 41.515954 28.537743 61.205184 0
M  V30 47 H 42.798355 31.994850 66.669321 0
M  V30 48 H 44.355075 32.626896 66.200440 0
M  V30 49 H 43.246443 32.036257 64.967507 0
M  V30 50 H 40.045199 25.264506 54.178459 0
M  V30 51 H 38.866610 27.257449 53.430577 0
M  V30 52 H 38.445107 34.937801 59.367762 0
M  V30 53 H 36.919048 35.705329 59.802296 0
M  V30 54 H 40.031764 36.988093 62.114022 0
M  V30 55 H 41.188250 35.669284 61.896723 0
M  V30 56 H 40.114573 36.132384 60.570294 0
M  V30 57 H 39.245168 34.771302 63.217512 0
M  V30 58 H 40.208436 29.073377 64.946361 0
M  V30 59 H 40.912034 32.348027 62.405325 0
M  V30 60 H 40.562693 31.460336 60.967254 0
M  V30 61 H 40.745182 27.109424 66.065359 0
M  V30 62 H 36.845415 30.652138 55.560470 0
M  V30 63 H 39.800964 28.566635 56.923934 0
M  V30 64 H 43.240986 24.428576 64.806052 0
M  V30 65 H 43.093919 25.286098 66.342100 0
M  V30 66 H 42.240737 28.499955 66.440655 0
M  V30 67 H 40.969797 24.890595 64.221454 0
M  V30 68 H 40.765674 24.811289 65.974055 0
M  V30 69 H 40.063114 30.372479 66.422487 0
M  V30 70 H 36.340296 30.895008 58.837506 0
M  V30 71 H 38.045087 27.309244 58.570476 0
M  V30 72 H 37.913477 30.704844 61.000080 0
M  V30 73 H 36.791559 31.922137 61.417493 0
M  V30 74 H 39.944165 24.316168 56.274683 0
M  V30 75 H 38.845135 28.975790 61.764071 0
M  V30 76 H 40.045122 28.199076 62.732845 0
M  V30 77 H 39.276867 30.531174 63.527361 0
M  V30 78 H 38.645955 25.098746 58.167466 0
M  V30 79 H 41.763152 31.171712 63.787567 0
M  V30 80 H 37.085825 34.248230 61.992363 0
M  V30 81 H 39.224198 30.528093 58.279403 0
M  V30 82 H 38.174286 29.471294 59.178531 0
M  V30 83 H 36.667443 33.755618 58.288797 0
M  V30 84 H 35.871594 33.418029 59.799016 0
M  V30 85 H 36.845131 29.002609 57.177137 0
M  V30 86 H 38.728731 32.525206 59.142325 0
M  V30 87 H 43.594269 26.436242 63.740348 0
M  V30 88 H 45.303703 30.598301 65.833240 0
M  V30 89 H 40.153573 26.969254 64.512652 0
M  V30 90 H 44.002581 27.004378 65.250699 0
M  V30 91 H 37.081829 31.697128 57.664475 0
M  V30 92 H 39.588551 33.892289 60.491426 0
M  V30 END ATOM
M  V30 BEGIN BOND
M  V30 1 2 8 6
M  V30 2 1 8 7
M  V30 3 1 12 10
M  V30 4 1 14 2
M  V30 5 1 15 11
M  V30 6 1 17 6
M  V30 7 1 19 3
M  V30 8 1 19 11
M  V30 9 1 19 13
M  V30 10 1 20 6
M  V30 11 1 20 16
M  V30 12 1 21 15
M  V30 13 1 21 18
M  V30 14 1 22 13
M  V30 15 1 24 17
M  V30 16 1 25 2
M  V30 17 2 26 7
M  V30 18 1 27 2
M  V30 19 1 27 12
M  V30 20 1 28 4
M  V30 21 1 29 16
M  V30 22 1 30 14
M  V30 23 1 30 28
M  V30 24 2 31 24
M  V30 25 1 31 26
M  V30 26 1 32 13
M  V30 27 1 32 30
M  V30 28 1 33 9
M  V30 29 1 33 12
M  V30 30 1 33 27
M  V30 31 1 34 23
M  V30 32 1 35 9
M  V30 33 1 36 16
M  V30 34 1 36 17
M  V30 35 1 36 34
M  V30 36 1 37 23
M  V30 37 1 37 25
M  V30 38 1 37 35
M  V30 39 1 38 11
M  V30 40 1 38 18
M  V30 41 1 39 1
M  V30 42 1 39 3
M  V30 43 1 39 5
M  V30 44 1 40 1
M  V30 45 1 41 1
M  V30 46 1 42 1
M  V30 47 1 2 43 CFG=1
M  V30 48 1 44 3
M  V30 49 1 45 3
M  V30 50 1 46 4
M  V30 51 1 47 5
M  V30 52 1 48 5
M  V30 53 1 49 5
M  V30 54 1 50 7
M  V30 55 1 51 8
M  V30 56 1 52 9
M  V30 57 1 53 9
M  V30 58 1 54 10
M  V30 59 1 55 10
M  V30 60 1 56 10
M  V30 61 1 12 57 CFG=1
M  V30 62 1 13 58 CFG=3
M  V30 63 1 59 14
M  V30 64 1 60 14
M  V30 65 1 61 15
M  V30 66 1 16 62 CFG=3
M  V30 67 1 17 63 CFG=3
M  V30 68 1 64 18
M  V30 69 1 65 18
M  V30 70 1 19 66 CFG=1
M  V30 71 1 67 21
M  V30 72 1 68 21
M  V30 73 1 69 22
M  V30 74 1 70 23
M  V30 75 1 71 24
M  V30 76 1 72 25
M  V30 77 1 73 25
M  V30 78 1 74 26
M  V30 79 1 75 28
M  V30 80 1 76 28
M  V30 81 1 30 77 CFG=1
M  V30 82 1 78 31
M  V30 83 1 79 32
M  V30 84 1 33 80 CFG=1
M  V30 85 1 81 34
M  V30 86 1 82 34
M  V30 87 1 83 35
M  V30 88 1 84 35
M  V30 89 1 36 85 CFG=1
M  V30 90 1 37 86 CFG=3
M  V30 91 1 87 38
M  V30 92 1 88 39
M  V30 93 1 89 15
M  V30 94 1 90 38
M  V30 95 1 91 23
M  V30 96 1 27 92 CFG=3
M  V30 END BOND
M  V30 END CTAB
M  END
>  <i_epik_Tot_Q>  (1) 
3

>  <i_epik_Tot_abs_Q>  (1) 
5

>  <i_i_glide_confnum>  (1) 
1933

>  <i_i_glide_lignum>  (1) 
40

>  <i_i_glide_posenum>  (1) 
118

>  <i_i_glide_rotatable_bonds>  (1) 
14

>  <i_lp_mmshare_version>  (1) 
72125

>  <i_m_source_file_index>  (1) 
18

>  <i_f3d_flags>  (1) 
0

>  <num_sample>  (1) 
50

>  <b_lp_Chiralities_Consistent>  (1) 
1

>  <r_epik_Charging_Adjusted_Penalty>  (1) 
1.6860912736117832

>  <r_epik_Ionization_Penalty>  (1) 
0.9299661573909731

>  <r_epik_Ionization_Penalty_Charging>  (1) 
0.33573944846101578

>  <r_epik_Ionization_Penalty_Neutral>  (1) 
0.59422670892995733

>  <r_epik_State_Penalty>  (1) 
1.3503518251507676

>  <r_glide_ring_energy>  (1) 
0.0045750838620950583

>  <r_i_docking_score>  (1) 
-6.7160940396314839

>  <r_i_glide_ecoul>  (1) 
-8.6540093063896251

>  <r_i_glide_eff_state_penalty>  (1) 
1.3503518251507676

>  <r_i_glide_einternal>  (1) 
23.886944300079232

>  <r_i_glide_emodel>  (1) 
-63.554438435923757

>  <r_i_glide_emodel_strain>  (1) 
2.5401933696047649

>  <r_i_glide_energy>  (1) 
-52.230964736093185

>  <r_i_glide_erotb>  (1) 
0.56462826385561427

>  <r_i_glide_esite>  (1) 
-0.10760532451635041

>  <r_i_glide_evdw>  (1) 
-43.57695542970356

>  <r_i_glide_gscore>  (1) 
-8.066445864782251

>  <r_i_glide_gscore_strain>  (1) 
0

>  <r_i_glide_hbond>  (1) 
-0.21385746809137501

>  <r_i_glide_ligand_efficiency>  (1) 
-0.17220753947773035

>  <r_i_glide_ligand_efficiency_ln>  (1) 
-1.4401212097636282

>  <r_i_glide_ligand_efficiency_sa>  (1) 
-0.58399217845019313

>  <r_i_glide_lipo>  (1) 
-3.9326621685865191

>  <r_i_glide_metal>  (1) 
-0

>  <r_i_glide_rewards>  (1) 
-0.90000000000000002

>  <r_lp_Energy>  (1) 
61.524414999999998

>  <s_epik_Chemistry_Notes>  (1) 
This compound contains an acetal/aminal-like group ( X-CH(R)-Y where X, Y are N, S, or O) that may be acid/base labile, releasing an aldehyde.

>  <s_epik_cmdline>  (1) 
J2VwaWtfcHl0aG9uJywgJy1waHQnLCAnMS4wJywgJy1waCcsICc3LjQnLCAnLXRuJywgJzgnLCAnLW1hJywgJzUwMCcsICctaW1hZScsICc8aW5maWxlLm1hZT4nLCAnLW9tYWUnLCAnPG91dGZpbGUubWFlPic=

>  <s_epik_input>  (1) 
W05IXTFbQ0gyXVtDSDJdW05IXU4xW0NAQEhdKFtDSDJdW0NIXShbQ0gzXSlbQ0gzXSlbQ0BASF0oW09IXSlbTkhdW0NASF0oW0NIMl1bT0hdKVtDSDJdW0NAQEhdMltDSDJdW0NASF0oW0NIMl1bQ0gyXVtDQEBIXShOMjMpW0NIXTNbQ0gzXSlbTkhdW0NIMl1bQ0BASF0oW0NASF0oTzQpW1NIXSlbQ0BIXShDND01KVtDSF09W0NIXVtDSF09W0NIXVtDSF01

>  <s_glide_docking_method>  (1) 
confgen

>  <s_i_glide_gridfile>  (1) 
gpcr_5ht2c_6bqh_protein_autoprepared_prepared

>  <s_lp_Force_Field>  (1) 
S-OPLS

>  <s_lp_Variant>  (1) 
DiffSBDD_17-7

>  <s_m_source_file>  (1) 
generated_GPCR_5HT2C_ligand_DiffSBDD_2026-06-23_prepared.sdf

>  <GenAI_Model>  (1) 
DiffSBDD

>  <Protein>  (1) 
GPCR_5HT2C

$$$$
DiffSBDD_9
     RDKit          3D

  0  0  0  0  0  0  0  0  0  0999 V3000
M  V30 BEGIN CTAB
M  V30 COUNTS 61 62 0 0 1
M  V30 BEGIN ATOM
M  V30 1 C 37.934913 34.450408 60.137275 0
M  V30 2 C 38.121440 33.066945 60.801333 0 CFG=1
M  V30 3 C 38.871495 31.168244 54.527841 0
M  V30 4 O 40.833771 35.078382 63.756159 0
M  V30 5 C 39.067405 36.929853 62.821125 0
M  V30 6 N 37.435379 30.537181 57.921114 0 CHG=1
M  V30 7 C 39.931972 27.966922 51.362239 0
M  V30 8 C 39.008201 35.525148 62.197950 0 CFG=1
M  V30 9 C 39.346927 27.809550 55.985149 0
M  V30 10 C 41.829916 34.275030 64.378592 0
M  V30 11 C 37.775530 30.673340 55.485103 0
M  V30 12 O 38.530049 37.072356 63.941782 0 CHG=-1
M  V30 13 C 38.896722 28.736161 52.184264 0 CFG=1
M  V30 14 C 37.387294 31.964737 59.997026 0
M  V30 15 C 39.600038 32.684840 61.046329 0
M  V30 16 O 37.643784 28.138034 52.029910 0
M  V30 17 C 39.245088 28.815829 53.656177 0
M  V30 18 C 38.869701 35.551390 60.658870 0
M  V30 19 C 38.139293 31.554236 58.721427 0
M  V30 20 C 38.999662 27.795852 54.508001 0
M  V30 21 C 40.095169 34.564005 62.704957 0
M  V30 22 C 38.289690 28.489169 56.863502 0
M  V30 23 O 39.644530 37.825251 62.165900 0
M  V30 24 C 39.897868 30.116890 54.106908 0
M  V30 25 C 40.349298 33.330483 62.199685 0
M  V30 26 C 38.267451 30.034573 56.805386 0 CFG=2
M  V30 27 H 38.044794 34.391253 59.055106 0
M  V30 28 H 36.903664 34.763987 60.299408 0
M  V30 29 H 37.629780 33.101117 61.774141 0
M  V30 30 H 38.391735 31.580480 53.640894 0
M  V30 31 H 39.395278 32.008451 54.986573 0
M  V30 32 H 36.595312 30.976409 57.524669 0
M  V30 33 H 40.912486 28.438340 51.432334 0
M  V30 34 H 40.024273 26.938920 51.708365 0
M  V30 35 H 39.656331 27.940449 50.307320 0
M  V30 36 H 38.055489 35.169594 62.567558 0
M  V30 37 H 39.444072 26.767303 56.288934 0
M  V30 38 H 40.331288 28.239518 56.161756 0
M  V30 39 H 42.273803 34.828886 65.204681 0
M  V30 40 H 41.409820 33.357914 64.794195 0
M  V30 41 H 42.632717 34.028872 63.685803 0
M  V30 42 H 37.056917 30.026146 54.978430 0
M  V30 43 H 37.245141 31.589920 55.725049 0
M  V30 44 H 38.846482 29.737790 51.774455 0
M  V30 45 H 36.376486 32.292782 59.750275 0
M  V30 46 H 37.270383 31.084955 60.630700 0
M  V30 47 H 39.643911 31.613390 61.248890 0
M  V30 48 H 40.196048 32.855682 60.155139 0
M  V30 49 H 37.748951 27.206681 51.897458 0
M  V30 50 H 38.450938 36.502453 60.322863 0
M  V30 51 H 39.844627 35.467107 60.175317 0
M  V30 52 H 39.102342 31.132078 59.004380 0
M  V30 53 H 38.329806 32.416268 58.083297 0
M  V30 54 H 38.532412 26.894254 54.137052 0
M  V30 55 H 37.311799 28.062470 56.661618 0
M  V30 56 H 38.510642 28.197491 57.891842 0
M  V30 57 H 40.599553 29.948813 54.920836 0
M  V30 58 H 40.498050 30.517925 53.289903 0
M  V30 59 H 41.144414 32.737481 62.619093 0
M  V30 60 H 39.296693 30.364447 56.963993 0
M  V30 61 H 37.150552 29.773789 58.513877 0
M  V30 END ATOM
M  V30 BEGIN BOND
M  V30 1 1 2 1
M  V30 2 1 8 5
M  V30 3 1 10 4
M  V30 4 1 11 3
M  V30 5 1 12 5
M  V30 6 1 13 7
M  V30 7 1 14 2
M  V30 8 1 15 2
M  V30 9 1 16 13
M  V30 10 1 17 13
M  V30 11 1 18 1
M  V30 12 1 18 8
M  V30 13 1 19 6
M  V30 14 1 19 14
M  V30 15 1 20 9
M  V30 16 2 20 17
M  V30 17 1 21 4
M  V30 18 1 21 8
M  V30 19 1 22 9
M  V30 20 2 23 5
M  V30 21 1 24 3
M  V30 22 1 24 17
M  V30 23 1 25 15
M  V30 24 2 25 21
M  V30 25 1 26 6
M  V30 26 1 26 11
M  V30 27 1 26 22
M  V30 28 1 27 1
M  V30 29 1 28 1
M  V30 30 1 2 29 CFG=1
M  V30 31 1 30 3
M  V30 32 1 31 3
M  V30 33 1 32 6
M  V30 34 1 33 7
M  V30 35 1 34 7
M  V30 36 1 35 7
M  V30 37 1 8 36 CFG=1
M  V30 38 1 37 9
M  V30 39 1 38 9
M  V30 40 1 39 10
M  V30 41 1 40 10
M  V30 42 1 41 10
M  V30 43 1 42 11
M  V30 44 1 43 11
M  V30 45 1 13 44 CFG=3
M  V30 46 1 45 14
M  V30 47 1 46 14
M  V30 48 1 47 15
M  V30 49 1 48 15
M  V30 50 1 49 16
M  V30 51 1 50 18
M  V30 52 1 51 18
M  V30 53 1 52 19
M  V30 54 1 53 19
M  V30 55 1 54 20
M  V30 56 1 55 22
M  V30 57 1 56 22
M  V30 58 1 57 24
M  V30 59 1 58 24
M  V30 60 1 59 25
M  V30 61 1 26 60 CFG=1
M  V30 62 1 61 6
M  V30 END BOND
M  V30 END CTAB
M  END
>  <i_epik_Tot_Q>  (1) 
0

>  <i_epik_Tot_abs_Q>  (1) 
2

>  <i_i_glide_confnum>  (1) 
301

>  <i_i_glide_lignum>  (1) 
19

>  <i_i_glide_posenum>  (1) 
245

>  <i_i_glide_rotatable_bonds>  (1) 
8

>  <i_lp_mmshare_version>  (1) 
72125

>  <i_m_source_file_index>  (1) 
10

>  <i_f3d_flags>  (1) 
0

>  <num_sample>  (1) 
50

>  <b_lp_Chiralities_Consistent>  (1) 
1

>  <r_epik_Charging_Adjusted_Penalty>  (1) 
0.00049470438624524575

>  <r_epik_Ionization_Penalty>  (1) 
0.0004947514825463053

>  <r_epik_Ionization_Penalty_Charging>  (1) 
0.00049470438624524575

>  <r_epik_Ionization_Penalty_Neutral>  (1) 
4.7096301059555568e-08

>  <r_epik_State_Penalty>  (1) 
-0

>  <r_glide_ring_energy>  (1) 
1.4314105349030264

>  <r_i_docking_score>  (1) 
-6.7085550889126804

>  <r_i_glide_ecoul>  (1) 
-5.151546387599975

>  <r_i_glide_eff_state_penalty>  (1) 
-0

>  <r_i_glide_einternal>  (1) 
3.6413799154098498

>  <r_i_glide_emodel>  (1) 
-50.432068319883541

>  <r_i_glide_emodel_strain>  (1) 
1.2734154151150108

>  <r_i_glide_energy>  (1) 
-31.928832183606598

>  <r_i_glide_erotb>  (1) 
0.71993305512373396

>  <r_i_glide_esite>  (1) 
-0.098870909532023904

>  <r_i_glide_evdw>  (1) 
-26.777285796006623

>  <r_i_glide_gscore>  (1) 
-6.7085550889126804

>  <r_i_glide_gscore_strain>  (1) 
0

>  <r_i_glide_hbond>  (1) 
-0.21987363258180492

>  <r_i_glide_ligand_efficiency>  (1) 
-0.25802134957356465

>  <r_i_glide_ligand_efficiency_ln>  (1) 
-1.5754821500664709

>  <r_i_glide_ligand_efficiency_sa>  (1) 
-0.76438723367684913

>  <r_i_glide_lipo>  (1) 
-2.9640095096577124

>  <r_i_glide_metal>  (1) 
-0

>  <r_i_glide_rewards>  (1) 
-2.0341378443245453

>  <r_lp_Energy>  (1) 
30.107592999999998

>  <r_lp_tautomer_probability>  (1) 
1

>  <s_epik_cmdline>  (1) 
J2VwaWtfcHl0aG9uJywgJy1waHQnLCAnMS4wJywgJy1waCcsICc3LjQnLCAnLXRuJywgJzgnLCAnLW1hJywgJzUwMCcsICctaW1hZScsICc8aW5maWxlLm1hZT4nLCAnLW9tYWUnLCAnPG91dGZpbGUubWFlPic=

>  <s_epik_input>  (1) 
W0NIM11PQyg9W0NIXVtDSDJdMSlbQ0BASF0oQyg9TylbT0hdKVtDSDJdW0NIMl1bQ0BIXTFbQ0gyXVtDSDJdW05IXVtDQEhdKFtDSDJdW0NIMl1bQ0gyXTIpW0NIMl1bQ0gyXVxbQ0hdPUMyXFtDQEBIXShbQ0gzXSlbT0hd

>  <s_glide_docking_method>  (1) 
confgen

>  <s_i_glide_gridfile>  (1) 
gpcr_5ht2c_6bqh_protein_autoprepared_prepared

>  <s_lp_Force_Field>  (1) 
S-OPLS

>  <s_lp_Variant>  (1) 
DiffSBDD_9-1

>  <s_m_source_file>  (1) 
generated_GPCR_5HT2C_ligand_DiffSBDD_2026-06-23_prepared.sdf

>  <GenAI_Model>  (1) 
DiffSBDD

>  <Protein>  (1) 
GPCR_5HT2C

$$$$
DiffSBDD_21
     RDKit          3D

  0  0  0  0  0  0  0  0  0  0999 V3000
M  V30 BEGIN CTAB
M  V30 COUNTS 51 54 0 0 1
M  V30 BEGIN ATOM
M  V30 1 C 39.831371 29.737853 51.351312 0
M  V30 2 C 38.848914 31.885124 56.633504 0
M  V30 3 N 38.223569 31.573363 59.021203 0
M  V30 4 C 38.344796 33.035821 59.150968 0 CFG=2
M  V30 5 C 38.671895 30.771208 60.184718 0 CFG=1
M  V30 6 C 38.243919 29.663974 57.423706 0
M  V30 7 C 38.845136 28.072024 53.387844 0
M  V30 8 C 38.379898 33.501561 60.622934 0 CFG=2
M  V30 9 C 38.893565 29.986434 55.071400 0
M  V30 10 C 39.075144 31.365829 55.346803 0
M  V30 11 C 37.796289 31.125336 61.405772 0
M  V30 12 C 39.645153 30.255427 52.648053 0
M  V30 13 C 40.328766 30.636869 50.245866 0
M  V30 14 C 39.053361 27.566304 52.092944 0
M  V30 15 F 41.645521 30.537755 50.121053 0
M  V30 16 C 39.540789 28.395725 51.079148 0
M  V30 17 C 37.452774 32.631843 61.507026 0
M  V30 18 C 38.445141 31.037938 57.697648 0
M  V30 19 O 38.845201 29.371028 60.167760 0
M  V30 20 C 37.017126 35.101592 59.354226 0
M  V30 21 C 39.132756 29.433182 53.693023 0
M  V30 22 C 37.569405 35.705442 61.788528 0
M  V30 23 C 38.021237 34.996293 60.506948 0 CFG=1
M  V30 24 C 38.466572 29.147207 56.133936 0
M  V30 25 C 37.145419 33.799916 58.555902 0
M  V30 26 H 39.001994 32.935371 56.796682 0
M  V30 27 H 39.281707 33.391723 58.723204 0
M  V30 28 H 39.676352 31.143108 60.387488 0
M  V30 29 H 37.898999 28.999259 58.190129 0
M  V30 30 H 38.457748 27.413836 54.143034 0
M  V30 31 H 39.393186 33.409943 61.017305 0
M  V30 32 H 39.386166 32.037814 54.568925 0
M  V30 33 H 36.865046 30.560350 61.356343 0
M  V30 34 H 38.302170 30.799487 62.315718 0
M  V30 35 H 39.876060 31.288770 52.832208 0
M  V30 36 H 39.874126 30.347366 49.300175 0
M  V30 37 H 40.075861 31.680362 50.435417 0
M  V30 38 H 38.828029 26.537752 51.877816 0
M  V30 39 H 39.686978 28.002220 50.085963 0
M  V30 40 H 37.510365 32.937751 62.550609 0
M  V30 41 H 36.416827 32.782410 61.199537 0
M  V30 42 H 39.553617 29.144882 60.750531 0
M  V30 43 H 35.995217 35.214654 59.718341 0
M  V30 44 H 37.240309 35.969549 58.732817 0
M  V30 45 H 36.633185 35.295551 62.166801 0
M  V30 46 H 37.409271 36.768011 61.605403 0
M  V30 47 H 38.326269 35.617670 62.567679 0
M  V30 48 H 38.930491 35.499343 60.172044 0
M  V30 49 H 38.304502 28.098938 55.965837 0
M  V30 50 H 37.243298 33.993052 57.488902 0
M  V30 51 H 36.232270 33.217779 58.685904 0
M  V30 END ATOM
M  V30 BEGIN BOND
M  V30 1 1 4 3
M  V30 2 1 5 3
M  V30 3 1 8 4
M  V30 4 2 10 2
M  V30 5 1 10 9
M  V30 6 1 11 5
M  V30 7 2 12 1
M  V30 8 1 13 1
M  V30 9 1 14 7
M  V30 10 1 15 13
M  V30 11 1 16 1
M  V30 12 2 16 14
M  V30 13 1 17 8
M  V30 14 1 17 11
M  V30 15 1 18 2
M  V30 16 1 18 3
M  V30 17 2 18 6
M  V30 18 1 19 5
M  V30 19 2 21 7
M  V30 20 1 21 9
M  V30 21 1 21 12
M  V30 22 1 23 8
M  V30 23 1 23 20
M  V30 24 1 23 22
M  V30 25 1 24 6
M  V30 26 2 24 9
M  V30 27 1 25 4
M  V30 28 1 25 20
M  V30 29 1 26 2
M  V30 30 1 4 27 CFG=3
M  V30 31 1 5 28 CFG=1
M  V30 32 1 29 6
M  V30 33 1 30 7
M  V30 34 1 8 31 CFG=1
M  V30 35 1 32 10
M  V30 36 1 33 11
M  V30 37 1 34 11
M  V30 38 1 35 12
M  V30 39 1 36 13
M  V30 40 1 37 13
M  V30 41 1 38 14
M  V30 42 1 39 16
M  V30 43 1 40 17
M  V30 44 1 41 17
M  V30 45 1 42 19
M  V30 46 1 43 20
M  V30 47 1 44 20
M  V30 48 1 45 22
M  V30 49 1 46 22
M  V30 50 1 47 22
M  V30 51 1 23 48 CFG=3
M  V30 52 1 49 24
M  V30 53 1 50 25
M  V30 54 1 51 25
M  V30 END BOND
M  V30 END CTAB
M  END
>  <i_epik_Tot_Q>  (1) 
0

>  <i_epik_Tot_abs_Q>  (1) 
0

>  <i_i_glide_confnum>  (1) 
6

>  <i_i_glide_lignum>  (1) 
48

>  <i_i_glide_posenum>  (1) 
396

>  <i_i_glide_rotatable_bonds>  (1) 
4

>  <i_lp_mmshare_version>  (1) 
72125

>  <i_m_source_file_index>  (1) 
22

>  <i_f3d_flags>  (1) 
0

>  <num_sample>  (1) 
50

>  <b_lp_Chiralities_Consistent>  (1) 
1

>  <r_epik_Charging_Adjusted_Penalty>  (1) 
0.0079594303855521683

>  <r_epik_Ionization_Penalty>  (1) 
0.0041828556717972551

>  <r_epik_Ionization_Penalty_Charging>  (1) 
0

>  <r_epik_Ionization_Penalty_Neutral>  (1) 
0.0041828556717972551

>  <r_epik_State_Penalty>  (1) 
0.0079594303855521683

>  <r_glide_ring_energy>  (1) 
0

>  <r_i_docking_score>  (1) 
-6.7011482761196755

>  <r_i_glide_ecoul>  (1) 
-0.12357172874904554

>  <r_i_glide_eff_state_penalty>  (1) 
0.0079594303855521683

>  <r_i_glide_einternal>  (1) 
1.141773566971267

>  <r_i_glide_emodel>  (1) 
-53.802653150135725

>  <r_i_glide_emodel_strain>  (1) 
0

>  <r_i_glide_energy>  (1) 
-39.690427989743633

>  <r_i_glide_erotb>  (1) 
0.3284693713347695

>  <r_i_glide_esite>  (1) 
-0.050890980701297397

>  <r_i_glide_evdw>  (1) 
-39.566856260994584

>  <r_i_glide_gscore>  (1) 
-6.709107706505228

>  <r_i_glide_gscore_strain>  (1) 
0

>  <r_i_glide_hbond>  (1) 
0

>  <r_i_glide_ligand_efficiency>  (1) 
-0.26804593104478702

>  <r_i_glide_ligand_efficiency_ln>  (1) 
-1.5883729586492443

>  <r_i_glide_ligand_efficiency_sa>  (1) 
-0.78377105703074001

>  <r_i_glide_lipo>  (1) 
-2.8992068258754964

>  <r_i_glide_metal>  (1) 
-0

>  <r_i_glide_rewards>  (1) 
-2.0906006989011168

>  <r_lp_Energy>  (1) 
58.552322999999994

>  <s_epik_Chemistry_Notes>  (1) 
This compound contains an acetal/aminal-like group ( X-CH(R)-Y where X, Y are N, S, or O) that may be acid/base labile, releasing an aldehyde.

>  <s_epik_cmdline>  (1) 
J2VwaWtfcHl0aG9uJywgJy1waHQnLCAnMS4wJywgJy1waCcsICc3LjQnLCAnLXRuJywgJzgnLCAnLW1hJywgJzUwMCcsICctaW1hZScsICc8aW5maWxlLm1hZT4nLCAnLW9tYWUnLCAnPG91dGZpbGUubWFlPic=

>  <s_epik_input>  (1) 
RltDSDJdYzFbY0hdYyhbY0hdW2NIXVtjSF0xKS1jMltjSF1bY0hdYyhbY0hdW2NIXTIpTjNbQ0BIXShbT0hdKVtDSDJdW0NIMl1bQ0BASF0oW0NAQEhdMzQpW0NASF0oW0NIM10pW0NIMl1bQ0gyXTQ=

>  <s_glide_docking_method>  (1) 
confgen

>  <s_i_glide_gridfile>  (1) 
gpcr_5ht2c_6bqh_protein_autoprepared_prepared

>  <s_lp_Force_Field>  (1) 
S-OPLS

>  <s_lp_Variant>  (1) 
DiffSBDD_21-1

>  <s_m_source_file>  (1) 
generated_GPCR_5HT2C_ligand_DiffSBDD_2026-06-23_prepared.sdf

>  <GenAI_Model>  (1) 
DiffSBDD

>  <Protein>  (1) 
GPCR_5HT2C

$$$$
DiffSBDD_3
     RDKit          3D

  0  0  0  0  0  0  0  0  0  0999 V3000
M  V30 BEGIN CTAB
M  V30 COUNTS 55 57 0 0 1
M  V30 BEGIN ATOM
M  V30 1 C 38.261195 27.787389 56.568969 0
M  V30 2 C 37.689809 32.734460 58.948665 0
M  V30 3 C 40.359950 29.020048 50.997930 0 CFG=2
M  V30 4 C 37.642503 32.214586 61.675698 0
M  V30 5 C 37.141243 33.590521 61.238984 0 CFG=1
M  V30 6 N 39.245136 28.677280 53.024348 0
M  V30 7 C 37.892558 33.064891 57.472679 0
M  V30 8 C 39.268609 30.090618 55.039295 0
M  V30 9 C 37.200190 30.249763 58.520894 0 CFG=2
M  V30 10 C 37.815818 33.911951 59.901704 0 CFG=2
M  V30 11 O 37.645137 26.938059 57.211664 0
M  V30 12 C 39.905218 29.731921 52.265938 0
M  V30 13 C 38.996694 28.747291 54.403749 0
M  V30 14 C 39.645131 29.842324 56.467641 0
M  V30 15 C 37.402953 31.479052 59.395865 0
M  V30 16 N 38.736395 28.932490 57.147300 0
M  V30 17 C 38.533513 27.686471 55.116377 0
M  V30 18 O 37.245136 35.094306 59.367762 0
M  V30 19 C 35.597735 33.605214 61.180985 0
M  V30 20 O 36.045142 29.580657 58.967760 0
M  V30 21 C 40.557173 29.946239 49.792629 0
M  V30 22 C 38.403365 29.278485 58.533078 0
M  V30 23 C 38.962459 27.494588 52.228444 0
M  V30 24 O 37.241251 31.213812 60.743382 0
M  V30 25 C 39.319736 27.913868 50.801062 0
M  V30 26 H 41.298475 28.537754 51.252699 0
M  V30 27 H 38.730004 32.207608 61.768050 0
M  V30 28 H 37.245147 31.953582 62.652036 0
M  V30 29 H 37.464927 34.346793 61.952007 0
M  V30 30 H 37.108538 33.733078 57.118850 0
M  V30 31 H 38.843800 33.580711 57.350393 0
M  V30 32 H 37.913403 32.214147 56.800918 0
M  V30 33 H 40.062097 30.679386 54.587830 0
M  V30 34 H 36.954235 30.537269 57.503456 0
M  V30 35 H 38.878788 34.100072 60.059268 0
M  V30 36 H 39.245137 30.563340 52.053447 0
M  V30 37 H 40.780105 30.137475 52.766965 0
M  V30 38 H 39.752404 30.787664 56.997627 0
M  V30 39 H 40.608886 29.337751 56.486709 0
M  V30 40 H 38.330730 26.752945 54.614958 0
M  V30 41 H 36.494300 34.854892 58.842508 0
M  V30 42 H 35.199241 32.806078 60.555370 0
M  V30 43 H 35.152695 33.501786 62.167762 0
M  V30 44 H 35.233462 34.537756 60.766955 0
M  V30 45 H 35.305967 30.057351 58.614124 0
M  V30 46 H 39.645123 30.492526 49.556004 0
M  V30 47 H 41.340075 30.681199 49.984215 0
M  V30 48 H 40.841413 29.373143 48.911027 0
M  V30 49 H 39.269683 29.756413 58.992467 0
M  V30 50 H 38.207605 28.403033 59.154570 0
M  V30 51 H 39.596089 26.671002 52.559542 0
M  V30 52 H 37.918931 27.187462 52.305500 0
M  V30 53 H 39.681480 27.081340 50.197261 0
M  V30 54 H 38.445138 28.332932 50.310583 0
M  V30 55 H 38.356262 30.686701 54.987862 0
M  V30 END ATOM
M  V30 BEGIN BOND
M  V30 1 1 5 4
M  V30 2 1 7 2
M  V30 3 1 10 2
M  V30 4 1 10 5
M  V30 5 2 11 1
M  V30 6 1 12 3
M  V30 7 1 12 6
M  V30 8 1 13 6
M  V30 9 1 13 8
M  V30 10 1 14 8
M  V30 11 2 15 2
M  V30 12 1 15 9
M  V30 13 1 16 1
M  V30 14 1 16 14
M  V30 15 1 17 1
M  V30 16 2 17 13
M  V30 17 1 18 10
M  V30 18 1 19 5
M  V30 19 1 20 9
M  V30 20 1 21 3
M  V30 21 1 22 9
M  V30 22 1 22 16
M  V30 23 1 23 6
M  V30 24 1 24 4
M  V30 25 1 24 15
M  V30 26 1 25 3
M  V30 27 1 25 23
M  V30 28 1 3 26 CFG=1
M  V30 29 1 27 4
M  V30 30 1 28 4
M  V30 31 1 5 29 CFG=1
M  V30 32 1 30 7
M  V30 33 1 31 7
M  V30 34 1 32 7
M  V30 35 1 33 8
M  V30 36 1 9 34 CFG=3
M  V30 37 1 10 35 CFG=1
M  V30 38 1 36 12
M  V30 39 1 37 12
M  V30 40 1 38 14
M  V30 41 1 39 14
M  V30 42 1 40 17
M  V30 43 1 41 18
M  V30 44 1 42 19
M  V30 45 1 43 19
M  V30 46 1 44 19
M  V30 47 1 45 20
M  V30 48 1 46 21
M  V30 49 1 47 21
M  V30 50 1 48 21
M  V30 51 1 49 22
M  V30 52 1 50 22
M  V30 53 1 51 23
M  V30 54 1 52 23
M  V30 55 1 53 25
M  V30 56 1 54 25
M  V30 57 1 55 8
M  V30 END BOND
M  V30 END CTAB
M  END
>  <i_epik_Tot_Q>  (1) 
0

>  <i_epik_Tot_abs_Q>  (1) 
0

>  <i_i_glide_confnum>  (1) 
101

>  <i_i_glide_lignum>  (1) 
11

>  <i_i_glide_posenum>  (1) 
160

>  <i_i_glide_rotatable_bonds>  (1) 
6

>  <i_lp_mmshare_version>  (1) 
72125

>  <i_m_source_file_index>  (1) 
4

>  <i_f3d_flags>  (1) 
0

>  <num_sample>  (1) 
50

>  <b_lp_Chiralities_Consistent>  (1) 
1

>  <r_epik_Charging_Adjusted_Penalty>  (1) 
0.0014021342352173091

>  <r_epik_Ionization_Penalty>  (1) 
0.00010460091952456132

>  <r_epik_Ionization_Penalty_Charging>  (1) 
0

>  <r_epik_Ionization_Penalty_Neutral>  (1) 
0.00010460091952456132

>  <r_epik_State_Penalty>  (1) 
0.0014021342352173091

>  <r_glide_ring_energy>  (1) 
2.2161480170540608

>  <r_i_docking_score>  (1) 
-6.6995431110467072

>  <r_i_glide_ecoul>  (1) 
-3.8438371492276131

>  <r_i_glide_eff_state_penalty>  (1) 
0.0014021342352173091

>  <r_i_glide_einternal>  (1) 
6.9271861446414391

>  <r_i_glide_emodel>  (1) 
-49.460561900309287

>  <r_i_glide_emodel_strain>  (1) 
0.49204853678831739

>  <r_i_glide_energy>  (1) 
-38.441118185148845

>  <r_i_glide_erotb>  (1) 
0.62076481070925627

>  <r_i_glide_esite>  (1) 
0

>  <r_i_glide_evdw>  (1) 
-34.597281035921235

>  <r_i_glide_gscore>  (1) 
-6.7009452452819245

>  <r_i_glide_gscore_strain>  (1) 
0

>  <r_i_glide_hbond>  (1) 
-0.0013705853041967638

>  <r_i_glide_ligand_efficiency>  (1) 
-0.2679817244418683

>  <r_i_glide_ligand_efficiency_ln>  (1) 
-1.5879924864240353

>  <r_i_glide_ligand_efficiency_sa>  (1) 
-0.78358331578489526

>  <r_i_glide_lipo>  (1) 
-2.8298765907933787

>  <r_i_glide_metal>  (1) 
-0

>  <r_i_glide_rewards>  (1) 
-2.1840232557134023

>  <r_lp_Energy>  (1) 
-2.7583759999999997

>  <s_epik_cmdline>  (1) 
J2VwaWtfcHl0aG9uJywgJy1waHQnLCAnMS4wJywgJy1waCcsICc3LjQnLCAnLXRuJywgJzgnLCAnLW1hJywgJzUwMCcsICctaW1hZScsICc8aW5maWxlLm1hZT4nLCAnLW9tYWUnLCAnPG91dGZpbGUubWFlPic=

>  <s_epik_input>  (1) 
W0NIM11bQ0BIXTFbQ0gyXU4oW0NIMl1bQ0gyXTEpQyhbQ0gyXTIpPVtDSF1bQ0gyXU4oQzI9TylbQ0gyXVtDQEBIXShbT0hdKUMoPUMzW0NIM10pT1tDSDJdW0NASF0oW0NIM10pW0NAQEhdM1tPSF0=

>  <s_glide_docking_method>  (1) 
confgen

>  <s_i_glide_gridfile>  (1) 
gpcr_5ht2c_6bqh_protein_autoprepared_prepared

>  <s_lp_Force_Field>  (1) 
S-OPLS

>  <s_lp_Variant>  (1) 
DiffSBDD_3-1

>  <s_m_source_file>  (1) 
generated_GPCR_5HT2C_ligand_DiffSBDD_2026-06-23_prepared.sdf

>  <GenAI_Model>  (1) 
DiffSBDD

>  <Protein>  (1) 
GPCR_5HT2C

$$$$
DiffSBDD_27
     RDKit          3D

  0  0  0  0  0  0  0  0  0  0999 V3000
M  V30 BEGIN CTAB
M  V30 COUNTS 67 69 0 0 1
M  V30 BEGIN ATOM
M  V30 1 C 41.305882 28.153204 57.333584 0
M  V30 2 C 41.794555 33.545301 62.390106 0
M  V30 3 N 40.028490 30.137787 52.945054 0
M  V30 4 C 37.024299 30.190223 58.265480 0
M  V30 5 C 36.845137 39.141728 61.367763 0
M  V30 6 C 38.040397 35.533704 60.655728 0
M  V30 7 N 37.324968 31.581668 58.657641 0 CHG=1
M  V30 8 C 37.134681 34.570790 60.049084 0
M  V30 9 O 36.021777 39.629877 62.167748 0
M  V30 10 C 39.241072 29.509047 53.514473 0
M  V30 11 C 39.857044 35.792271 63.690851 0
M  V30 12 C 38.153665 28.788737 54.221707 0 CFG=2
M  V30 13 C 40.110267 28.751657 56.577813 0 CFG=1
M  V30 14 C 37.945410 37.027523 60.454354 0
M  V30 15 C 36.666121 37.662355 61.015140 0
M  V30 16 C 35.998544 34.936531 59.141012 0
M  V30 17 S 38.784822 33.211809 61.462640 0
M  V30 18 C 37.438571 33.271683 60.392285 0
M  V30 19 C 40.783552 26.820090 57.869992 0
M  V30 20 N 37.245145 29.737763 54.894210 0
M  V30 21 O 37.810467 39.752904 60.846489 0 CHG=-1
M  V30 22 C 39.011352 34.925610 61.432926 0
M  V30 23 C 37.834075 30.550048 55.940812 0
M  V30 24 C 41.552850 35.022044 62.000068 0
M  V30 25 N 37.886295 29.751623 57.164006 0
M  V30 26 O 38.074268 26.463419 54.674906 0
M  V30 27 C 38.579889 27.528921 55.031881 0
M  V30 28 N 39.445457 27.543476 56.085997 0
M  V30 29 C 39.259019 29.550668 57.592958 0
M  V30 30 C 36.755427 32.019345 59.944061 0
M  V30 31 C 40.140677 35.589986 62.202545 0 CFG=2
M  V30 32 C 39.845594 26.315188 56.766827 0
M  V30 33 H 42.122371 27.969785 56.636561 0
M  V30 34 H 41.692936 28.796928 58.125324 0
M  V30 35 H 42.845137 33.337749 62.574581 0
M  V30 36 H 41.498028 32.871488 61.588328 0
M  V30 37 H 41.259603 33.257884 63.294039 0
M  V30 38 H 35.977766 30.112956 57.976217 0
M  V30 39 H 37.159295 29.520800 59.116292 0
M  V30 40 H 38.322792 31.720466 58.683271 0
M  V30 41 H 38.837730 36.137769 63.868058 0
M  V30 42 H 40.528390 36.537728 64.118327 0
M  V30 43 H 40.045138 34.871739 64.231963 0
M  V30 44 H 37.557820 28.380385 53.403696 0
M  V30 45 H 40.467761 29.383758 55.767755 0
M  V30 46 H 38.761576 37.523460 60.967691 0
M  V30 47 H 38.045127 37.280121 59.398590 0
M  V30 48 H 36.412663 37.158115 61.947983 0
M  V30 49 H 35.822473 37.551376 60.336865 0
M  V30 50 H 35.946924 34.266500 58.282705 0
M  V30 51 H 36.092928 35.947380 58.749967 0
M  V30 52 H 35.044962 34.866961 59.661335 0
M  V30 53 H 41.586604 26.137756 58.135914 0
M  V30 54 H 40.209103 26.986831 58.781494 0
M  V30 55 H 36.405753 29.295003 55.237990 0
M  V30 56 H 38.806716 30.936792 55.634456 0
M  V30 57 H 37.245138 31.452081 56.057565 0
M  V30 58 H 42.181254 35.670874 62.612753 0
M  V30 59 H 41.867133 35.183814 60.967850 0
M  V30 60 H 39.239764 29.020272 58.545000 0
M  V30 61 H 39.720634 30.517185 57.784800 0
M  V30 62 H 36.892303 31.239720 60.694757 0
M  V30 63 H 35.680854 32.173204 59.836262 0
M  V30 64 H 40.277373 36.596125 61.825545 0
M  V30 65 H 38.992476 25.771938 57.176116 0
M  V30 66 H 40.377859 25.661385 56.073624 0
M  V30 67 H 36.914664 32.154935 57.926084 0
M  V30 END ATOM
M  V30 BEGIN BOND
M  V30 1 1 7 4
M  V30 2 1 8 6
M  V30 3 2 9 5
M  V30 4 3 10 3
M  V30 5 1 12 10
M  V30 6 1 13 1
M  V30 7 1 14 6
M  V30 8 1 15 5
M  V30 9 1 15 14
M  V30 10 1 16 8
M  V30 11 2 18 8
M  V30 12 1 18 17
M  V30 13 1 19 1
M  V30 14 1 20 12
M  V30 15 1 21 5
M  V30 16 2 22 6
M  V30 17 1 22 17
M  V30 18 1 23 20
M  V30 19 1 24 2
M  V30 20 1 25 4
M  V30 21 1 25 23
M  V30 22 1 27 12
M  V30 23 2 27 26
M  V30 24 1 28 13
M  V30 25 1 28 27
M  V30 26 1 29 13
M  V30 27 1 29 25
M  V30 28 1 30 7
M  V30 29 1 30 18
M  V30 30 1 31 11
M  V30 31 1 31 22
M  V30 32 1 31 24
M  V30 33 1 32 19
M  V30 34 1 32 28
M  V30 35 1 33 1
M  V30 36 1 34 1
M  V30 37 1 35 2
M  V30 38 1 36 2
M  V30 39 1 37 2
M  V30 40 1 38 4
M  V30 41 1 39 4
M  V30 42 1 40 7
M  V30 43 1 41 11
M  V30 44 1 42 11
M  V30 45 1 43 11
M  V30 46 1 12 44 CFG=3
M  V30 47 1 13 45 CFG=3
M  V30 48 1 46 14
M  V30 49 1 47 14
M  V30 50 1 48 15
M  V30 51 1 49 15
M  V30 52 1 50 16
M  V30 53 1 51 16
M  V30 54 1 52 16
M  V30 55 1 53 19
M  V30 56 1 54 19
M  V30 57 1 55 20
M  V30 58 1 56 23
M  V30 59 1 57 23
M  V30 60 1 58 24
M  V30 61 1 59 24
M  V30 62 1 60 29
M  V30 63 1 61 29
M  V30 64 1 62 30
M  V30 65 1 63 30
M  V30 66 1 31 64 CFG=3
M  V30 67 1 65 32
M  V30 68 1 66 32
M  V30 69 1 67 7
M  V30 END BOND
M  V30 END CTAB
M  END
>  <i_epik_Tot_Q>  (1) 
0

>  <i_epik_Tot_abs_Q>  (1) 
2

>  <i_i_glide_confnum>  (1) 
308

>  <i_i_glide_lignum>  (1) 
61

>  <i_i_glide_posenum>  (1) 
340

>  <i_i_glide_rotatable_bonds>  (1) 
9

>  <i_lp_mmshare_version>  (1) 
72125

>  <i_m_source_file_index>  (1) 
28

>  <i_f3d_flags>  (1) 
0

>  <num_sample>  (1) 
50

>  <b_lp_Chiralities_Consistent>  (1) 
1

>  <r_epik_Charging_Adjusted_Penalty>  (1) 
0.0027323958996878029

>  <r_epik_Ionization_Penalty>  (1) 
0.002819485543525381

>  <r_epik_Ionization_Penalty_Charging>  (1) 
0.0027323958996878029

>  <r_epik_Ionization_Penalty_Neutral>  (1) 
8.708964383757816e-05

>  <r_epik_State_Penalty>  (1) 
-0

>  <r_glide_ring_energy>  (1) 
0

>  <r_i_docking_score>  (1) 
-6.6967281748181033

>  <r_i_glide_ecoul>  (1) 
-4.4654715852626552

>  <r_i_glide_eff_state_penalty>  (1) 
-0

>  <r_i_glide_einternal>  (1) 
5.9628771699078627

>  <r_i_glide_emodel>  (1) 
-48.516136178619242

>  <r_i_glide_emodel_strain>  (1) 
2.6717805504170897

>  <r_i_glide_energy>  (1) 
-38.466322710838938

>  <r_i_glide_erotb>  (1) 
0.66148182558323176

>  <r_i_glide_esite>  (1) 
-0.28858817001099552

>  <r_i_glide_evdw>  (1) 
-34.000851125576283

>  <r_i_glide_gscore>  (1) 
-6.6967281748181033

>  <r_i_glide_gscore_strain>  (1) 
0

>  <r_i_glide_hbond>  (1) 
-0.11670561218361251

>  <r_i_glide_ligand_efficiency>  (1) 
-0.20927275546306573

>  <r_i_glide_ligand_efficiency_ln>  (1) 
-1.4995799842573962

>  <r_i_glide_ligand_efficiency_sa>  (1) 
-0.66439958434070867

>  <r_i_glide_lipo>  (1) 
-2.7289372081653029

>  <r_i_glide_metal>  (1) 
-0

>  <r_i_glide_rewards>  (1) 
-1.8541157159732122

>  <r_lp_Energy>  (1) 
41.659236

>  <r_lp_tautomer_probability>  (1) 
1

>  <s_epik_Chemistry_Notes>  (1) 
This compound contains an acetal/aminal-like group ( X-CH(R)-Y where X, Y are N, S, or O) that may be acid/base labile, releasing an aldehyde.

>  <s_epik_cmdline>  (1) 
J2VwaWtfcHl0aG9uJywgJy1waHQnLCAnMS4wJywgJy1waCcsICc3LjQnLCAnLXRuJywgJzgnLCAnLW1hJywgJzUwMCcsICctaW1hZScsICc8aW5maWxlLm1hZT4nLCAnLW9tYWUnLCAnPG91dGZpbGUubWFlPic=

>  <s_epik_input>  (1) 
W0NIMl0xW0NIMl1bQ0gyXU4oW0NASF0xMilDKD1PKVtDQEBIXShDI04pW05IXVtDSDJdTihbQ0gyXTIpW0NIMl1bTkhdW0NIMl1jKHNjM1tDQEBIXShbQ0gzXSlbQ0gyXVtDSDNdKWMoW0NIM10pYzNbQ0gyXVtDSDJdQyg9TylbT0hd

>  <s_glide_docking_method>  (1) 
confgen

>  <s_i_glide_gridfile>  (1) 
gpcr_5ht2c_6bqh_protein_autoprepared_prepared

>  <s_lp_Force_Field>  (1) 
S-OPLS

>  <s_lp_Variant>  (1) 
DiffSBDD_27-2

>  <s_m_source_file>  (1) 
generated_GPCR_5HT2C_ligand_DiffSBDD_2026-06-23_prepared.sdf

>  <GenAI_Model>  (1) 
DiffSBDD

>  <Protein>  (1) 
GPCR_5HT2C

$$$$
DiffSBDD_0
     RDKit          3D

  0  0  0  0  0  0  0  0  0  0999 V3000
M  V30 BEGIN CTAB
M  V30 COUNTS 73 75 0 0 1
M  V30 BEGIN ATOM
M  V30 1 C 42.501358 31.812417 67.263238 0
M  V30 2 C 42.198608 35.344893 65.494887 0
M  V30 3 O 40.358803 27.825100 57.006855 0
M  V30 4 C 41.788891 32.517486 64.968693 0
M  V30 5 C 37.018258 32.068766 59.812640 0 CFG=2
M  V30 6 C 39.574585 30.869471 60.967243 0
M  V30 7 C 38.046530 27.612363 56.446662 0
M  V30 8 C 37.853589 29.162300 56.286867 0 CFG=1
M  V30 9 C 38.396900 31.153296 54.909778 0
M  V30 10 C 37.955892 29.882199 57.656437 0
M  V30 11 N 36.623646 30.072444 58.283468 0 CHG=1
M  V30 12 O 35.842175 32.845501 59.577742 0
M  V30 13 C 42.315205 34.305830 66.640187 0
M  V30 14 C 38.627398 29.074695 53.957685 0
M  V30 15 C 40.969960 33.179544 62.622287 0 CFG=1
M  V30 16 C 36.634111 30.565348 59.668592 0
M  V30 17 C 41.655085 34.788997 64.198167 0
M  V30 18 C 40.955653 34.650888 62.010885 0
M  V30 19 C 37.611468 32.453669 61.201469 0 CFG=1
M  V30 20 C 39.474865 27.054141 56.568288 0
M  V30 21 N 38.702721 29.763137 55.245077 0
M  V30 22 C 39.365475 30.001304 53.006492 0
M  V30 23 F 43.667172 32.072155 67.854441 0
M  V30 24 C 41.482962 33.517041 63.965444 0
M  V30 25 C 42.183751 32.853885 66.206850 0
M  V30 26 O 37.044775 31.734818 62.129099 0 CHG=-1
M  V30 27 N 39.076289 32.210837 61.356896 0 CFG=1 CHG=1
M  V30 28 C 41.328481 35.730907 63.107109 0 CFG=1
M  V30 29 C 39.566702 32.586912 62.702046 0
M  V30 30 C 36.062780 34.170134 59.095079 0
M  V30 31 O 39.647566 25.864038 56.224083 0 CHG=-1
M  V30 32 O 40.230343 36.535258 63.458190 0
M  V30 33 C 39.223091 31.374020 53.647661 0
M  V30 34 H 41.730825 31.812462 68.036291 0
M  V30 35 H 42.564702 30.812051 66.833142 0
M  V30 36 H 43.177908 35.746955 65.239666 0
M  V30 37 H 41.587883 36.186132 65.815787 0
M  V30 38 H 41.694096 31.471936 64.713776 0
M  V30 39 H 37.762192 32.330660 59.069937 0
M  V30 40 H 39.123311 30.076765 61.561540 0
M  V30 41 H 39.398204 30.666076 59.917614 0
M  V30 42 H 40.646267 30.794744 61.120540 0
M  V30 43 H 37.520243 27.283848 57.341685 0
M  V30 44 H 37.575750 27.095987 55.610592 0
M  V30 45 H 36.844440 29.338711 55.917834 0
M  V30 46 H 37.334783 31.300930 54.714909 0
M  V30 47 H 38.686982 31.853652 55.692550 0
M  V30 48 H 38.428627 30.856253 57.560449 0
M  V30 49 H 38.588026 29.301544 58.326648 0
M  V30 50 H 36.132805 29.189338 58.261365 0
M  V30 51 H 41.515675 34.496953 67.353172 0
M  V30 52 H 43.240599 34.444724 67.184268 0
M  V30 53 H 39.073239 28.080814 53.978154 0
M  V30 54 H 37.589384 28.977303 53.645785 0
M  V30 55 H 41.685407 32.528293 62.124867 0
M  V30 56 H 37.270363 29.895166 60.232714 0
M  V30 57 H 35.646269 30.426910 60.090857 0
M  V30 58 H 39.986925 34.881262 61.567998 0
M  V30 59 H 41.681230 34.712819 61.200580 0
M  V30 60 H 37.558193 33.537846 61.258108 0
M  V30 61 H 38.984027 29.931946 51.990925 0
M  V30 62 H 40.418062 29.736503 52.968319 0
M  V30 63 H 42.188848 36.336136 62.830925 0
M  V30 64 H 39.519917 31.721781 63.366803 0
M  V30 65 H 38.911779 33.337760 63.139572 0
M  V30 66 H 35.107976 34.645260 58.872555 0
M  V30 67 H 36.567306 34.796705 59.829803 0
M  V30 68 H 36.637726 34.191099 58.168288 0
M  V30 69 H 40.565547 37.200638 64.048458 0
M  V30 70 H 38.808029 32.137371 52.987801 0
M  V30 71 H 40.201601 31.714660 53.969279 0
M  V30 72 H 39.509545 32.870177 60.729323 0
M  V30 73 H 36.056466 30.751589 57.767709 0
M  V30 END ATOM
M  V30 BEGIN BOND
M  V30 1 1 8 7
M  V30 2 1 10 8
M  V30 3 1 11 10
M  V30 4 1 12 5
M  V30 5 1 13 2
M  V30 6 1 16 5
M  V30 7 1 16 11
M  V30 8 1 17 2
M  V30 9 1 18 15
M  V30 10 1 19 5
M  V30 11 2 20 3
M  V30 12 1 20 7
M  V30 13 1 21 8
M  V30 14 1 21 9
M  V30 15 1 21 14
M  V30 16 1 22 14
M  V30 17 1 23 1
M  V30 18 1 24 4
M  V30 19 1 24 15
M  V30 20 2 24 17
M  V30 21 1 25 1
M  V30 22 2 25 4
M  V30 23 1 25 13
M  V30 24 1 26 19
M  V30 25 1 27 6
M  V30 26 1 27 19
M  V30 27 1 28 17
M  V30 28 1 28 18
M  V30 29 1 29 15
M  V30 30 1 29 27
M  V30 31 1 30 12
M  V30 32 1 31 20
M  V30 33 1 32 28
M  V30 34 1 33 9
M  V30 35 1 33 22
M  V30 36 1 34 1
M  V30 37 1 35 1
M  V30 38 1 36 2
M  V30 39 1 37 2
M  V30 40 1 38 4
M  V30 41 1 5 39 CFG=3
M  V30 42 1 40 6
M  V30 43 1 41 6
M  V30 44 1 42 6
M  V30 45 1 43 7
M  V30 46 1 44 7
M  V30 47 1 8 45 CFG=3
M  V30 48 1 46 9
M  V30 49 1 47 9
M  V30 50 1 48 10
M  V30 51 1 49 10
M  V30 52 1 50 11
M  V30 53 1 51 13
M  V30 54 1 52 13
M  V30 55 1 53 14
M  V30 56 1 54 14
M  V30 57 1 15 55 CFG=3
M  V30 58 1 56 16
M  V30 59 1 57 16
M  V30 60 1 58 18
M  V30 61 1 59 18
M  V30 62 1 19 60 CFG=1
M  V30 63 1 61 22
M  V30 64 1 62 22
M  V30 65 1 28 63 CFG=3
M  V30 66 1 64 29
M  V30 67 1 65 29
M  V30 68 1 66 30
M  V30 69 1 67 30
M  V30 70 1 68 30
M  V30 71 1 69 32
M  V30 72 1 70 33
M  V30 73 1 71 33
M  V30 74 1 27 72 CFG=3
M  V30 75 1 73 11
M  V30 END BOND
M  V30 END CTAB
M  END
>  <i_epik_Tot_Q>  (1) 
0

>  <i_epik_Tot_abs_Q>  (1) 
4

>  <i_i_glide_confnum>  (1) 
1158

>  <i_i_glide_lignum>  (1) 
4

>  <i_i_glide_posenum>  (1) 
215

>  <i_i_glide_rotatable_bonds>  (1) 
14

>  <i_lp_mmshare_version>  (1) 
72125

>  <i_m_source_file_index>  (1) 
1

>  <i_f3d_flags>  (1) 
0

>  <num_sample>  (1) 
50

>  <b_lp_Chiralities_Consistent>  (1) 
1

>  <r_epik_Charging_Adjusted_Penalty>  (1) 
0.77514762265790937

>  <r_epik_Ionization_Penalty>  (1) 
0.13961133491552177

>  <r_epik_Ionization_Penalty_Charging>  (1) 
0.038557878483332003

>  <r_epik_Ionization_Penalty_Neutral>  (1) 
0.10105345643218977

>  <r_epik_State_Penalty>  (1) 
0.73658974417457734

>  <r_glide_ring_energy>  (1) 
0.0045750838620950583

>  <r_i_docking_score>  (1) 
-6.6890293998670804

>  <r_i_glide_ecoul>  (1) 
-12.996872681342349

>  <r_i_glide_eff_state_penalty>  (1) 
0.73658974417457734

>  <r_i_glide_einternal>  (1) 
9.5165801318571521

>  <r_i_glide_emodel>  (1) 
-68.74223475442254

>  <r_i_glide_emodel_strain>  (1) 
1.8281855951529451

>  <r_i_glide_energy>  (1) 
-46.529453590266286

>  <r_i_glide_erotb>  (1) 
0.82434179411086872

>  <r_i_glide_esite>  (1) 
-0.10000000000000001

>  <r_i_glide_evdw>  (1) 
-33.53258090892394

>  <r_i_glide_gscore>  (1) 
-7.4256191440416579

>  <r_i_glide_gscore_strain>  (1) 
0

>  <r_i_glide_hbond>  (1) 
-0.67999999999999994

>  <r_i_glide_ligand_efficiency>  (1) 
-0.20269786060203274

>  <r_i_glide_ligand_efficiency_ln>  (1) 
-1.4876055045897747

>  <r_i_glide_ligand_efficiency_sa>  (1) 
-0.65016034649772858

>  <r_i_glide_lipo>  (1) 
-2.824850281723899

>  <r_i_glide_metal>  (1) 
-0

>  <r_i_glide_rewards>  (1) 
-1.0189507087810774

>  <r_lp_Energy>  (1) 
31.744567

>  <s_epik_Chemistry_Notes>  (1) 
This compound contains an acetal/aminal-like group ( X-CH(R)-Y where X, Y are N, S, or O) that may be acid/base labile, releasing an aldehyde.

>  <s_epik_cmdline>  (1) 
J2VwaWtfcHl0aG9uJywgJy1waHQnLCAnMS4wJywgJy1waCcsICc3LjQnLCAnLXRuJywgJzgnLCAnLW1hJywgJzUwMCcsICctaW1hZScsICc8aW5maWxlLm1hZT4nLCAnLW9tYWUnLCAnPG91dGZpbGUubWFlPic=

>  <s_epik_input>  (1) 
W0NIMl0xW0NIMl1DKFtDSDJdRik9W0NIXUMoPUMxMilbQ0BIXShbQ0gyXVtDQEhdMltPSF0pW0NIMl1OKFtDSDNdKVtDQEhdKFtPSF0pW0NASF0oT1tDSDNdKVtDSDJdW05IXVtDSDJdW0NASF0oW0NIMl1DKD1PKVtPSF0pTjNbQ0gyXVtDSDJdW0NIMl1bQ0gyXTM=

>  <s_glide_docking_method>  (1) 
confgen

>  <s_i_glide_gridfile>  (1) 
gpcr_5ht2c_6bqh_protein_autoprepared_prepared

>  <s_lp_Force_Field>  (1) 
S-OPLS

>  <s_lp_Variant>  (1) 
DiffSBDD_0-4

>  <s_m_source_file>  (1) 
generated_GPCR_5HT2C_ligand_DiffSBDD_2026-06-23_prepared.sdf

>  <GenAI_Model>  (1) 
DiffSBDD

>  <Protein>  (1) 
GPCR_5HT2C

$$$$
DiffSBDD_46
     RDKit          3D

  0  0  0  0  0  0  0  0  0  0999 V3000
M  V30 BEGIN CTAB
M  V30 COUNTS 54 56 0 0 1
M  V30 BEGIN ATOM
M  V30 1 C 37.278230 27.168825 53.543997 0
M  V30 2 C 38.380739 27.929935 54.238089 0 CFG=1
M  V30 3 C 38.042432 31.266158 58.995846 0
M  V30 4 C 39.894809 28.644882 51.355956 0
M  V30 5 C 39.454366 37.198103 63.190453 0
M  V30 6 C 39.248588 27.289173 55.328064 0 CFG=2
M  V30 7 C 37.906668 24.489709 57.166174 0
M  V30 8 C 38.222934 29.776714 58.663183 0
M  V30 9 O 38.896244 25.927360 55.529107 0
M  V30 10 C 38.896538 35.683294 61.495963 0
M  V30 11 O 41.244944 35.170438 61.551201 0
M  V30 12 C 38.495036 28.241993 51.830478 0
M  V30 13 C 40.283929 30.872225 50.241962 0
M  V30 14 C 39.956311 34.760096 61.367681 0
M  V30 15 C 39.857117 29.601641 50.185864 0
M  V30 16 N 38.445150 26.855298 57.555734 0
M  V30 17 N 38.596286 27.300331 52.941833 0
M  V30 18 S 38.213199 29.478704 56.872624 0
M  V30 19 C 37.567194 35.260082 61.291218 0
M  V30 20 C 39.684980 33.415791 61.047657 0
M  V30 21 O 39.157968 36.991319 61.815208 0
M  V30 22 C 38.428750 25.857803 56.797223 0
M  V30 23 C 38.067871 31.536946 60.509255 0
M  V30 24 C 38.355291 32.989748 60.849141 0
M  V30 25 C 39.086979 27.880286 56.769646 0 CFG=2
M  V30 26 C 37.295896 33.914103 60.967758 0
M  V30 27 H 37.009063 26.189229 53.931728 0
M  V30 28 H 36.446831 27.737996 53.131515 0
M  V30 29 H 38.371750 29.017948 54.223604 0
M  V30 30 H 38.845139 31.823077 58.513343 0
M  V30 31 H 37.113932 31.646740 58.567761 0
M  V30 32 H 40.445142 29.112242 52.167761 0
M  V30 33 H 40.445136 27.757277 51.049585 0
M  V30 34 H 39.992183 38.137760 63.310766 0
M  V30 35 H 40.076159 36.411568 63.620186 0
M  V30 36 H 38.533104 37.257027 63.770864 0
M  V30 37 H 40.293686 27.337754 55.021583 0
M  V30 38 H 37.280384 24.544255 58.057183 0
M  V30 39 H 38.738196 23.814044 57.367760 0
M  V30 40 H 37.311442 24.079061 56.350441 0
M  V30 41 H 39.172442 29.424759 59.067445 0
M  V30 42 H 37.436734 29.178027 59.123681 0
M  V30 43 H 37.918803 29.130388 52.091585 0
M  V30 44 H 37.967672 27.749994 51.012717 0
M  V30 45 H 40.687695 31.285737 51.154831 0
M  V30 46 H 40.234076 31.514306 49.375116 0
M  V30 47 H 39.458835 29.215389 49.262023 0
M  V30 48 H 36.756155 35.966427 61.385030 0
M  V30 49 H 40.497507 32.710625 60.953491 0
M  V30 50 H 41.294461 36.107089 61.675835 0
M  V30 51 H 37.122089 31.231782 60.958535 0
M  V30 52 H 38.836029 30.924164 60.983146 0
M  V30 53 H 40.083935 28.049432 57.181183 0
M  V30 54 H 36.276223 33.591469 60.813226 0
M  V30 END ATOM
M  V30 BEGIN BOND
M  V30 1 1 2 1
M  V30 2 1 6 2
M  V30 3 1 8 3
M  V30 4 1 9 6
M  V30 5 1 12 4
M  V30 6 1 14 10
M  V30 7 1 14 11
M  V30 8 1 15 4
M  V30 9 2 15 13
M  V30 10 1 17 1
M  V30 11 1 17 2
M  V30 12 1 17 12
M  V30 13 1 18 8
M  V30 14 2 19 10
M  V30 15 2 20 14
M  V30 16 1 21 5
M  V30 17 1 21 10
M  V30 18 1 22 7
M  V30 19 1 22 9
M  V30 20 2 22 16
M  V30 21 1 23 3
M  V30 22 1 24 20
M  V30 23 1 24 23
M  V30 24 1 25 6
M  V30 25 1 25 16
M  V30 26 1 25 18
M  V30 27 1 26 19
M  V30 28 2 26 24
M  V30 29 1 27 1
M  V30 30 1 28 1
M  V30 31 1 2 29 CFG=3
M  V30 32 1 30 3
M  V30 33 1 31 3
M  V30 34 1 32 4
M  V30 35 1 33 4
M  V30 36 1 34 5
M  V30 37 1 35 5
M  V30 38 1 36 5
M  V30 39 1 6 37 CFG=3
M  V30 40 1 38 7
M  V30 41 1 39 7
M  V30 42 1 40 7
M  V30 43 1 41 8
M  V30 44 1 42 8
M  V30 45 1 43 12
M  V30 46 1 44 12
M  V30 47 1 45 13
M  V30 48 1 46 13
M  V30 49 1 47 15
M  V30 50 1 48 19
M  V30 51 1 49 20
M  V30 52 1 50 11
M  V30 53 1 51 23
M  V30 54 1 52 23
M  V30 55 1 25 53 CFG=1
M  V30 56 1 54 26
M  V30 END BOND
M  V30 END CTAB
M  END
>  <i_epik_Tot_Q>  (1) 
0

>  <i_epik_Tot_abs_Q>  (1) 
0

>  <i_i_glide_confnum>  (1) 
116

>  <i_i_glide_lignum>  (1) 
97

>  <i_i_glide_posenum>  (1) 
213

>  <i_i_glide_rotatable_bonds>  (1) 
11

>  <i_lp_mmshare_version>  (1) 
72125

>  <i_m_source_file_index>  (1) 
47

>  <i_f3d_flags>  (1) 
0

>  <num_sample>  (1) 
50

>  <b_lp_Chiralities_Consistent>  (1) 
1

>  <r_epik_Charging_Adjusted_Penalty>  (1) 
0.059256753965672836

>  <r_epik_Ionization_Penalty>  (1) 
0.061027430801307576

>  <r_epik_Ionization_Penalty_Charging>  (1) 
0

>  <r_epik_Ionization_Penalty_Neutral>  (1) 
0.061027430801307576

>  <r_epik_State_Penalty>  (1) 
0.059256753965672836

>  <r_glide_ring_energy>  (1) 
0

>  <r_i_docking_score>  (1) 
-6.6862515187820089

>  <r_i_glide_ecoul>  (1) 
-0.63280681622962776

>  <r_i_glide_eff_state_penalty>  (1) 
0.059256753965672836

>  <r_i_glide_einternal>  (1) 
10.856815556402058

>  <r_i_glide_emodel>  (1) 
-57.093224543869681

>  <r_i_glide_emodel_strain>  (1) 
0.18790140768161478

>  <r_i_glide_energy>  (1) 
-45.854789852969127

>  <r_i_glide_erotb>  (1) 
1.2289544219816615

>  <r_i_glide_esite>  (1) 
0

>  <r_i_glide_evdw>  (1) 
-45.221983036739502

>  <r_i_glide_gscore>  (1) 
-6.7455082727476814

>  <r_i_glide_gscore_strain>  (1) 
0

>  <r_i_glide_hbond>  (1) 
0

>  <r_i_glide_ligand_efficiency>  (1) 
-0.25716351995315417

>  <r_i_glide_ligand_efficiency_ln>  (1) 
-1.5702442298052655

>  <r_i_glide_ligand_efficiency_sa>  (1) 
-0.76184591679901981

>  <r_i_glide_lipo>  (1) 
-3.6534405729694224

>  <r_i_glide_metal>  (1) 
-0

>  <r_i_glide_rewards>  (1) 
-1.9650019474884992

>  <r_lp_Energy>  (1) 
9.3116819999999993

>  <r_lp_tautomer_probability>  (1) 
0.99960115913750414

>  <s_epik_Chemistry_Notes>  (1) 
This compound has an imine and may undergo hydrolysis. This compound contains an acetal/aminal-like group ( X-CH(R)-Y where X, Y are N, S, or O) that may be acid/base labile, releasing an aldehyde.

>  <s_epik_cmdline>  (1) 
J2VwaWtfcHl0aG9uJywgJy1waHQnLCAnMS4wJywgJy1waCcsICc3LjQnLCAnLXRuJywgJzgnLCAnLW1hJywgJzUwMCcsICctaW1hZScsICc8aW5maWxlLm1hZT4nLCAnLW9tYWUnLCAnPG91dGZpbGUubWFlPic=

>  <s_epik_input>  (1) 
W0NIMl09W0NIXVtDSDJdW0NIMl1OMVtDSDJdW0NASF0xW0NAQEhdMk9DKFtDSDNdKT1OW0NAQEhdMlNbQ0gyXVtDSDJdW0NIMl1DKFtDSDJdQzM9Tyk9W0NIXVtDSF09QzNPW0NIM10=

>  <s_glide_docking_method>  (1) 
confgen

>  <s_i_glide_gridfile>  (1) 
gpcr_5ht2c_6bqh_protein_autoprepared_prepared

>  <s_lp_Force_Field>  (1) 
S-OPLS

>  <s_lp_Variant>  (1) 
DiffSBDD_46-1

>  <s_m_source_file>  (1) 
generated_GPCR_5HT2C_ligand_DiffSBDD_2026-06-23_prepared.sdf

>  <GenAI_Model>  (1) 
DiffSBDD

>  <Protein>  (1) 
GPCR_5HT2C

$$$$
DiffSBDD_19
     RDKit          3D

  0  0  0  0  0  0  0  0  0  0999 V3000
M  V30 BEGIN CTAB
M  V30 COUNTS 69 71 0 0 1
M  V30 BEGIN ATOM
M  V30 1 O 40.179279 28.124091 57.806789 0
M  V30 2 C 38.948379 30.425226 53.957603 0
M  V30 3 C 37.245353 36.556107 61.023184 0
M  V30 4 C 39.299354 28.932924 52.065751 0
M  V30 5 C 37.885976 29.599440 54.410937 0
M  V30 6 C 39.333855 31.681597 54.705711 0
M  V30 7 C 39.180699 25.407433 57.677623 0
M  V30 8 C 36.848948 30.977075 60.413685 0
M  V30 9 C 38.149286 36.111071 62.157818 0 CFG=2
M  V30 10 N 39.404065 36.879827 62.221350 0
M  V30 11 F 39.223300 28.607248 49.767751 0
M  V30 12 C 37.547124 28.436263 53.686464 0
M  V30 13 F 41.054820 29.424358 50.568812 0
M  V30 14 C 40.259664 36.468906 63.322115 0
M  V30 15 C 36.884881 32.205911 59.472629 0 CFG=2
M  V30 16 C 39.009819 31.613829 58.299256 0
M  V30 17 C 37.857689 28.018947 57.085547 0
M  V30 18 O 39.458557 26.271087 56.581590 0
M  V30 19 O 37.012734 37.722794 60.718716 0
M  V30 20 C 39.645053 30.088008 52.788854 0
M  V30 21 C 39.326706 27.644232 56.793359 0 CFG=2
M  V30 22 C 37.093122 29.973711 55.650957 0
M  V30 23 N 37.240017 34.241388 60.876534 0
M  V30 24 C 40.045168 28.586182 50.800744 0
M  V30 25 C 38.254068 28.104493 52.516511 0
M  V30 26 C 37.491299 31.632362 58.191192 0 CFG=1
M  V30 27 O 39.645052 36.937881 64.499793 0
M  V30 28 C 37.112968 29.718574 59.535989 0
M  V30 29 C 36.959710 30.195502 58.086128 0 CFG=2
M  V30 30 N 36.796515 35.463041 60.416362 0
M  V30 31 N 37.645688 29.489613 56.958105 0 CFG=1 CHG=1
M  V30 32 C 38.360129 34.636854 61.744962 0
M  V30 33 N 37.700654 33.352464 59.900961 0
M  V30 34 H 41.056445 27.828190 57.606022 0
M  V30 35 H 40.421311 31.737753 54.743939 0
M  V30 36 H 38.981062 31.753584 55.721086 0
M  V30 37 H 38.936554 32.537705 54.168282 0
M  V30 38 H 39.400585 24.382553 57.374381 0
M  V30 39 H 39.804176 25.638145 58.541860 0
M  V30 40 H 38.133487 25.438045 57.977606 0
M  V30 41 H 37.598457 31.051056 61.203532 0
M  V30 42 H 35.875100 30.918219 60.901403 0
M  V30 43 H 37.581687 36.204868 63.083136 0
M  V30 44 H 39.916066 36.801560 61.355366 0
M  V30 45 H 36.737100 27.804460 54.022466 0
M  V30 46 H 41.237000 36.936241 63.201247 0
M  V30 47 H 40.413846 35.390444 63.363528 0
M  V30 48 H 35.867664 32.540217 59.261656 0
M  V30 49 H 39.531574 30.954544 57.607974 0
M  V30 50 H 39.265953 31.282673 59.304032 0
M  V30 51 H 39.407326 32.617434 58.138213 0
M  V30 52 H 37.601668 27.656200 58.077882 0
M  V30 53 H 37.245173 27.453260 56.386377 0
M  V30 54 H 40.444872 30.725426 52.440090 0
M  V30 55 H 39.664407 28.101847 55.864021 0
M  V30 56 H 36.044459 29.737742 55.517560 0
M  V30 57 H 37.017922 31.053358 55.633737 0
M  V30 58 H 40.444848 27.581313 50.845147 0
M  V30 59 H 37.988185 27.218910 51.957401 0
M  V30 60 H 37.245834 32.279737 57.352351 0
M  V30 61 H 40.259220 37.530765 64.916793 0
M  V30 62 H 38.110555 29.320603 59.729246 0
M  V30 63 H 36.384848 28.939223 59.746323 0
M  V30 64 H 35.889685 30.137721 57.903953 0
M  V30 65 H 36.182821 35.491651 59.614247 0
M  V30 66 H 39.293652 34.564935 61.181510 0
M  V30 67 H 38.446866 33.934692 62.567673 0
M  V30 68 H 38.640243 33.046923 60.144900 0
M  V30 69 H 38.587096 29.851534 56.999904 0
M  V30 END ATOM
M  V30 BEGIN BOND
M  V30 1 2 5 2
M  V30 2 1 6 2
M  V30 3 1 9 3
M  V30 4 1 10 9
M  V30 5 1 12 5
M  V30 6 1 14 10
M  V30 7 1 15 8
M  V30 8 1 18 7
M  V30 9 2 19 3
M  V30 10 1 20 2
M  V30 11 2 20 4
M  V30 12 1 21 1
M  V30 13 1 21 17
M  V30 14 1 21 18
M  V30 15 1 22 5
M  V30 16 1 24 4
M  V30 17 1 24 11
M  V30 18 1 24 13
M  V30 19 1 25 4
M  V30 20 2 25 12
M  V30 21 1 26 15
M  V30 22 1 26 16
M  V30 23 1 27 14
M  V30 24 1 28 8
M  V30 25 1 29 26
M  V30 26 1 29 28
M  V30 27 1 30 3
M  V30 28 1 30 23
M  V30 29 1 31 17
M  V30 30 1 31 22
M  V30 31 1 31 29
M  V30 32 1 32 9
M  V30 33 1 32 23
M  V30 34 1 33 15
M  V30 35 1 33 23
M  V30 36 1 34 1
M  V30 37 1 35 6
M  V30 38 1 36 6
M  V30 39 1 37 6
M  V30 40 1 38 7
M  V30 41 1 39 7
M  V30 42 1 40 7
M  V30 43 1 41 8
M  V30 44 1 42 8
M  V30 45 1 9 43 CFG=1
M  V30 46 1 44 10
M  V30 47 1 45 12
M  V30 48 1 46 14
M  V30 49 1 47 14
M  V30 50 1 15 48 CFG=3
M  V30 51 1 49 16
M  V30 52 1 50 16
M  V30 53 1 51 16
M  V30 54 1 52 17
M  V30 55 1 53 17
M  V30 56 1 54 20
M  V30 57 1 21 55 CFG=3
M  V30 58 1 56 22
M  V30 59 1 57 22
M  V30 60 1 58 24
M  V30 61 1 59 25
M  V30 62 1 26 60 CFG=3
M  V30 63 1 61 27
M  V30 64 1 62 28
M  V30 65 1 63 28
M  V30 66 1 29 64 CFG=3
M  V30 67 1 65 30
M  V30 68 1 66 32
M  V30 69 1 67 32
M  V30 70 1 68 33
M  V30 71 1 31 69 CFG=3
M  V30 END BOND
M  V30 END CTAB
M  END
>  <i_epik_Tot_Q>  (1) 
1

>  <i_epik_Tot_abs_Q>  (1) 
1

>  <i_i_glide_confnum>  (1) 
4540

>  <i_i_glide_lignum>  (1) 
43

>  <i_i_glide_posenum>  (1) 
394

>  <i_i_glide_rotatable_bonds>  (1) 
13

>  <i_lp_mmshare_version>  (1) 
72125

>  <i_m_source_file_index>  (1) 
20

>  <i_f3d_flags>  (1) 
0

>  <num_sample>  (1) 
50

>  <b_lp_Chiralities_Consistent>  (1) 
1

>  <r_epik_Charging_Adjusted_Penalty>  (1) 
0.46831319053283144

>  <r_epik_Ionization_Penalty>  (1) 
0.71387485365223857

>  <r_epik_Ionization_Penalty_Charging>  (1) 
0.049252262366849507

>  <r_epik_Ionization_Penalty_Neutral>  (1) 
0.66462259128538903

>  <r_epik_State_Penalty>  (1) 
0.41906092816598195

>  <r_glide_ring_energy>  (1) 
0

>  <r_i_docking_score>  (1) 
-6.6821068734966964

>  <r_i_glide_ecoul>  (1) 
-6.3218514228693765

>  <r_i_glide_eff_state_penalty>  (1) 
0.41906092816598195

>  <r_i_glide_einternal>  (1) 
13.032152973179914

>  <r_i_glide_emodel>  (1) 
-58.244775541449719

>  <r_i_glide_emodel_strain>  (1) 
2.2612914343147139

>  <r_i_glide_energy>  (1) 
-42.296749977330663

>  <r_i_glide_erotb>  (1) 
0.81494899861877068

>  <r_i_glide_esite>  (1) 
-0.064213214588653145

>  <r_i_glide_evdw>  (1) 
-35.974898554461284

>  <r_i_glide_gscore>  (1) 
-7.1011678016626787

>  <r_i_glide_gscore_strain>  (1) 
0

>  <r_i_glide_hbond>  (1) 
-0.29746541703201385

>  <r_i_glide_ligand_efficiency>  (1) 
-0.20248808707565746

>  <r_i_glide_ligand_efficiency_ln>  (1) 
-1.4860659705679247

>  <r_i_glide_ligand_efficiency_sa>  (1) 
-0.64948749071035561

>  <r_i_glide_lipo>  (1) 
-2.9179252791823496

>  <r_i_glide_metal>  (1) 
-0

>  <r_i_glide_rewards>  (1) 
-1.8894902483249623

>  <r_lp_Energy>  (1) 
34.505482000000001

>  <s_epik_Chemistry_Notes>  (1) 
This compound contains an acetal/aminal-like group ( X-CH(R)-Y where X, Y are N, S, or O) that may be acid/base labile, releasing an aldehyde.

>  <s_epik_cmdline>  (1) 
J2VwaWtfcHl0aG9uJywgJy1waHQnLCAnMS4wJywgJy1waCcsICc3LjQnLCAnLXRuJywgJzgnLCAnLW1hJywgJzUwMCcsICctaW1hZScsICc8aW5maWxlLm1hZT4nLCAnLW9tYWUnLCAnPG91dGZpbGUubWFlPic=

>  <s_epik_input>  (1) 
RltDSF0oRiljKFtjSF0xKVtjSF1bY0hdYyhjMVtDSDNdKVtDSDJdTihbQ0gyXVtDQEBIXShbT0hdKU9bQ0gzXSlbQ0BIXShbQ0BASF0yW0NIM10pW0NIMl1bQ0gyXVtDQEhdMltOSF1OKFtOSF0zKVtDSDJdW0NASF0oQzM9TylbTkhdW0NIMl1bT0hd

>  <s_glide_docking_method>  (1) 
confgen

>  <s_i_glide_gridfile>  (1) 
gpcr_5ht2c_6bqh_protein_autoprepared_prepared

>  <s_lp_Force_Field>  (1) 
S-OPLS

>  <s_lp_Variant>  (1) 
DiffSBDD_19-2

>  <s_m_source_file>  (1) 
generated_GPCR_5HT2C_ligand_DiffSBDD_2026-06-23_prepared.sdf

>  <GenAI_Model>  (1) 
DiffSBDD

>  <Protein>  (1) 
GPCR_5HT2C

$$$$
DiffSBDD_1
     RDKit          3D

  0  0  0  0  0  0  0  0  0  0999 V3000
M  V30 BEGIN CTAB
M  V30 COUNTS 78 81 0 0 1
M  V30 BEGIN ATOM
M  V30 1 C 38.657453 30.245548 59.728567 0
M  V30 2 N 38.724376 27.243296 55.902849 0
M  V30 3 C 39.289785 29.696582 53.025490 0 CFG=1
M  V30 4 C 38.926861 28.379806 52.319512 0
M  V30 5 C 41.133521 32.028985 67.409776 0
M  V30 6 C 39.101324 30.351725 62.882298 0
M  V30 7 C 39.489824 29.341225 54.517721 0
M  V30 8 C 39.204285 27.818783 54.621886 0 CFG=2
M  V30 9 C 41.734384 32.956764 64.521003 0
M  V30 10 N 40.057715 30.112046 61.815702 0
M  V30 11 O 42.621735 25.259175 64.568809 0
M  V30 12 C 40.150910 29.270372 63.000184 0 CFG=1
M  V30 13 C 42.492262 31.685056 64.607002 0 CFG=2
M  V30 14 O 42.458352 30.867062 63.363252 0
M  V30 15 C 40.811155 26.483903 65.554783 0
M  V30 16 C 40.257430 30.819876 51.148595 0
M  V30 17 C 41.617825 30.761730 65.304032 0
M  V30 18 C 37.991838 28.132280 56.817186 0
M  V30 19 C 43.204338 27.479111 65.330752 0
M  V30 20 O 40.272660 29.838683 66.922931 0
M  V30 21 O 39.545115 25.175147 55.432831 0
M  V30 22 C 43.017224 28.249091 64.003848 0
M  V30 23 O 40.445131 30.273377 52.446053 0
M  V30 24 O 42.445096 34.926656 65.605046 0
M  V30 25 P 41.624018 29.511129 64.076566 0 CFG=1 CHG=1
M  V30 26 C 42.320109 26.232666 65.544211 0 CFG=2
M  V30 27 C 41.021120 30.870494 66.501509 0
M  V30 28 C 36.857473 27.913992 53.651313 0
M  V30 29 O 38.021741 29.430053 58.765421 0
M  V30 30 C 38.947513 25.930361 56.196054 0
M  V30 31 C 38.423726 25.395805 57.535231 0
M  V30 32 C 41.571800 33.299821 67.116802 0
M  V30 33 C 41.964210 33.808522 65.756144 0
M  V30 34 C 38.897418 28.823902 57.831081 0
M  V30 35 C 38.309672 27.513303 53.412670 0 CFG=1
M  V30 36 C 39.479501 29.378840 60.695088 0
M  V30 37 H 37.866847 30.761215 60.274288 0
M  V30 38 H 39.245356 31.022453 59.244833 0
M  V30 39 H 38.465814 30.403174 52.967760 0
M  V30 40 H 38.265309 28.523759 51.463261 0
M  V30 41 H 39.832960 27.892479 51.953698 0
M  V30 42 H 40.844984 31.855030 68.436721 0
M  V30 43 H 38.082586 30.119001 62.577937 0
M  V30 44 H 39.276571 31.327380 63.328021 0
M  V30 45 H 38.793408 29.954419 55.084656 0
M  V30 46 H 40.477276 29.602978 54.894045 0
M  V30 47 H 40.144208 27.318256 54.421642 0
M  V30 48 H 42.082597 33.530221 63.660274 0
M  V30 49 H 40.664935 32.807643 64.368156 0
M  V30 50 H 42.535936 25.637293 63.707329 0
M  V30 51 H 39.856424 28.242939 62.792562 0
M  V30 52 H 43.509350 31.769941 64.991956 0
M  V30 53 H 40.541997 27.211436 66.319576 0
M  V30 54 H 40.442861 26.836227 64.592929 0
M  V30 55 H 40.275189 25.561755 65.784735 0
M  V30 56 H 41.225581 31.097945 50.730641 0
M  V30 57 H 39.796752 30.111301 50.458388 0
M  V30 58 H 39.644640 31.719643 51.196236 0
M  V30 59 H 37.224285 27.587075 57.362960 0
M  V30 60 H 37.422128 28.884070 56.273255 0
M  V30 61 H 44.246102 27.159030 65.392698 0
M  V30 62 H 43.069861 28.164837 66.168683 0
M  V30 63 H 39.904774 29.383983 66.181905 0
M  V30 64 H 42.861347 27.563316 63.171669 0
M  V30 65 H 43.944566 28.776166 63.775851 0
M  V30 66 H 42.587485 25.796285 66.507842 0
M  V30 67 H 36.798739 28.968518 53.916345 0
M  V30 68 H 36.244219 27.754929 52.769448 0
M  V30 69 H 36.445141 27.336370 54.470769 0
M  V30 70 H 37.333895 25.378926 57.556641 0
M  V30 71 H 38.761890 24.367947 57.674107 0
M  V30 72 H 38.796329 25.971484 58.380806 0
M  V30 73 H 41.614607 34.020119 67.920569 0
M  V30 74 H 39.528110 29.568276 57.345823 0
M  V30 75 H 39.550542 28.097959 58.311588 0
M  V30 76 H 38.353329 26.459213 53.141635 0
M  V30 77 H 40.297061 28.900095 60.155177 0
M  V30 78 H 38.845049 28.560956 61.034828 0
M  V30 END ATOM
M  V30 BEGIN BOND
M  V30 1 1 4 3
M  V30 2 1 7 3
M  V30 3 1 8 2
M  V30 4 1 8 7
M  V30 5 1 10 6
M  V30 6 1 12 6
M  V30 7 1 12 10
M  V30 8 1 13 9
M  V30 9 1 14 13
M  V30 10 1 17 13
M  V30 11 1 18 2
M  V30 12 1 22 19
M  V30 13 1 23 3
M  V30 14 1 23 16
M  V30 15 1 25 12
M  V30 16 1 25 14
M  V30 17 1 25 17
M  V30 18 1 25 22 CFG=1
M  V30 19 1 26 11
M  V30 20 1 26 15
M  V30 21 1 26 19
M  V30 22 1 27 5
M  V30 23 2 27 17
M  V30 24 1 27 20
M  V30 25 1 29 1
M  V30 26 1 30 2
M  V30 27 2 30 21
M  V30 28 1 31 30
M  V30 29 2 32 5
M  V30 30 1 33 9
M  V30 31 2 33 24
M  V30 32 1 33 32
M  V30 33 1 34 18
M  V30 34 1 34 29
M  V30 35 1 35 4
M  V30 36 1 35 8
M  V30 37 1 35 28
M  V30 38 1 36 1
M  V30 39 1 36 10
M  V30 40 1 37 1
M  V30 41 1 38 1
M  V30 42 1 3 39 CFG=1
M  V30 43 1 40 4
M  V30 44 1 41 4
M  V30 45 1 42 5
M  V30 46 1 43 6
M  V30 47 1 44 6
M  V30 48 1 45 7
M  V30 49 1 46 7
M  V30 50 1 8 47 CFG=3
M  V30 51 1 48 9
M  V30 52 1 49 9
M  V30 53 1 50 11
M  V30 54 1 12 51 CFG=3
M  V30 55 1 13 52 CFG=1
M  V30 56 1 53 15
M  V30 57 1 54 15
M  V30 58 1 55 15
M  V30 59 1 56 16
M  V30 60 1 57 16
M  V30 61 1 58 16
M  V30 62 1 59 18
M  V30 63 1 60 18
M  V30 64 1 61 19
M  V30 65 1 62 19
M  V30 66 1 63 20
M  V30 67 1 64 22
M  V30 68 1 65 22
M  V30 69 1 26 66 CFG=1
M  V30 70 1 67 28
M  V30 71 1 68 28
M  V30 72 1 69 28
M  V30 73 1 70 31
M  V30 74 1 71 31
M  V30 75 1 72 31
M  V30 76 1 73 32
M  V30 77 1 74 34
M  V30 78 1 75 34
M  V30 79 1 35 76 CFG=3
M  V30 80 1 77 36
M  V30 81 1 78 36
M  V30 END BOND
M  V30 END CTAB
M  END
>  <i_epik_Tot_Q>  (1) 
1

>  <i_epik_Tot_abs_Q>  (1) 
1

>  <i_i_glide_confnum>  (1) 
2353

>  <i_i_glide_lignum>  (1) 
7

>  <i_i_glide_posenum>  (1) 
313

>  <i_i_glide_rotatable_bonds>  (1) 
15

>  <i_lp_mmshare_version>  (1) 
72125

>  <i_m_source_file_index>  (1) 
2

>  <i_f3d_flags>  (1) 
0

>  <num_sample>  (1) 
50

>  <b_lp_Chiralities_Consistent>  (1) 
1

>  <r_epik_Charging_Adjusted_Penalty>  (1) 
0.012777702237649643

>  <r_epik_Ionization_Penalty>  (1) 
0.012893064322698497

>  <r_epik_Ionization_Penalty_Charging>  (1) 
0

>  <r_epik_Ionization_Penalty_Neutral>  (1) 
0.012893064322698497

>  <r_epik_State_Penalty>  (1) 
0.012777702237649643

>  <r_glide_ring_energy>  (1) 
1.6816026439138838

>  <r_i_docking_score>  (1) 
-6.6714567912068379

>  <r_i_glide_ecoul>  (1) 
-4.2028077353401532

>  <r_i_glide_eff_state_penalty>  (1) 
0.012777702237649643

>  <r_i_glide_einternal>  (1) 
11.250065734943504

>  <r_i_glide_emodel>  (1) 
-60.711318981763988

>  <r_i_glide_emodel_strain>  (1) 
0.72766065270876368

>  <r_i_glide_energy>  (1) 
-49.871676341918835

>  <r_i_glide_erotb>  (1) 
0.81958699115176215

>  <r_i_glide_esite>  (1) 
0

>  <r_i_glide_evdw>  (1) 
-45.668868606578684

>  <r_i_glide_gscore>  (1) 
-6.6842344934444879

>  <r_i_glide_gscore_strain>  (1) 
0

>  <r_i_glide_hbond>  (1) 
-0.017830175358372228

>  <r_i_glide_ligand_efficiency>  (1) 
-0.18531824420018994

>  <r_i_glide_ligand_efficiency_ln>  (1) 
-1.4555316299083556

>  <r_i_glide_ligand_efficiency_sa>  (1) 
-0.61190736024191594

>  <r_i_glide_lipo>  (1) 
-3.6135891938596831

>  <r_i_glide_metal>  (1) 
-0

>  <r_i_glide_rewards>  (1) 
-0.95853752474823617

>  <r_lp_Energy>  (1) 
33.116859999999996

>  <s_epik_cmdline>  (1) 
J2VwaWtfcHl0aG9uJywgJy1waHQnLCAnMS4wJywgJy1waCcsICc3LjQnLCAnLXRuJywgJzgnLCAnLW1hJywgJzUwMCcsICctaW1hZScsICc8aW5maWxlLm1hZT4nLCAnLW9tYWUnLCAnPG91dGZpbGUubWFlPic=

>  <s_epik_input>  (1) 
W0NIM11PW0NASF0xW0NIMl1bQ0BIXShbQ0gzXSlbQ0BASF0oW0NIMl0xKU4oQyg9TylbQ0gzXSlbQ0gyXVtDSDJdT1tDSDJdW0NIMl1OMltDSDJdW0NIXTJbUEBAK10oTzMpKFtDSDJdW0NIMl1bQ0BIXShbT0hdKVtDSDNdKUMoW0NAQEhdMzQpPUMoW09IXSlbQ0hdPVtDSF1DKD1PKVtDSDJdNA==

>  <s_glide_docking_method>  (1) 
confgen

>  <s_i_glide_gridfile>  (1) 
gpcr_5ht2c_6bqh_protein_autoprepared_prepared

>  <s_lp_Force_Field>  (1) 
S-OPLS

>  <s_lp_Variant>  (1) 
DiffSBDD_1-3

>  <s_m_source_file>  (1) 
generated_GPCR_5HT2C_ligand_DiffSBDD_2026-06-23_prepared.sdf

>  <GenAI_Model>  (1) 
DiffSBDD

>  <Protein>  (1) 
GPCR_5HT2C

$$$$
DiffSBDD_41
     RDKit          3D

  0  0  0  0  0  0  0  0  0  0999 V3000
M  V30 BEGIN CTAB
M  V30 COUNTS 71 75 0 0 1
M  V30 BEGIN ATOM
M  V30 1 C 36.929917 30.437603 54.861312 0
M  V30 2 O 38.845137 32.440324 58.670733 0
M  V30 3 C 38.409495 31.259453 59.337701 0 CFG=1
M  V30 4 C 39.287081 29.118795 61.082413 0
M  V30 5 C 37.683767 31.695856 54.428405 0
M  V30 6 C 39.886658 28.355717 56.208599 0
M  V30 7 C 36.832812 24.110068 55.466319 0
M  V30 8 C 37.245136 25.035376 54.502269 0
M  V30 9 C 39.317143 34.211007 60.895665 0
M  V30 10 C 38.594871 25.756840 58.427604 0
M  V30 11 C 36.886893 31.082067 59.522716 0
M  V30 12 C 38.265621 36.102573 61.414021 0
M  V30 13 N 39.196222 35.202942 61.761620 0
M  V30 14 C 39.046448 30.037502 58.594518 0 CFG=1
M  V30 15 C 38.929526 29.570904 56.177272 0
M  V30 16 C 38.340688 34.463881 59.864070 0
M  V30 17 O 41.173644 36.133578 62.725404 0
M  V30 18 O 40.111510 33.274943 60.986235 0
M  V30 19 C 39.645154 30.886883 55.760844 0
M  V30 20 C 38.692478 32.061180 55.498754 0
M  V30 21 N 39.035143 28.804619 59.645911 0 CFG=1 CHG=1
M  V30 22 O 37.970490 37.102170 62.069187 0
M  V30 23 O 38.272925 29.689509 57.466609 0
M  V30 24 C 38.086380 26.088411 54.858715 0
M  V30 25 C 39.982083 27.759212 59.189118 0
M  V30 26 C 40.029880 35.333187 62.963510 0
M  V30 27 C 38.478770 26.238487 56.193252 0
M  V30 28 C 38.139627 33.601523 58.836210 0
M  V30 29 C 37.245145 24.250426 56.801513 0
M  V30 30 C 36.069044 35.619918 60.049847 0
M  V30 31 N 39.256148 27.201868 56.836254 0
M  V30 32 C 37.582348 35.770704 60.057788 0 CFG=1
M  V30 33 C 37.867082 29.279115 55.089118 0
M  V30 34 C 39.294512 26.898501 58.202296 0
M  V30 35 C 38.066962 25.331270 57.199406 0
M  V30 36 H 36.143232 30.191136 54.167754 0
M  V30 37 H 36.445131 30.537756 55.812189 0
M  V30 38 H 38.858336 31.371718 60.312501 0
M  V30 39 H 40.240810 29.632344 61.211119 0
M  V30 40 H 38.500438 29.729194 61.527090 0
M  V30 41 H 39.310218 28.210990 61.687439 0
M  V30 42 H 38.205453 31.529278 53.486872 0
M  V30 43 H 37.002955 32.526123 54.262720 0
M  V30 44 H 40.180108 28.073210 55.200040 0
M  V30 45 H 40.819536 28.590047 56.717161 0
M  V30 46 H 36.189243 23.290156 55.185197 0
M  V30 47 H 36.911373 24.937748 53.480148 0
M  V30 48 H 38.445134 25.283606 59.367759 0
M  V30 49 H 36.649234 30.175603 60.077530 0
M  V30 50 H 36.439368 31.914332 60.066625 0
M  V30 51 H 36.383464 30.997795 58.567766 0
M  V30 52 H 40.091527 30.137755 58.345379 0
M  V30 53 H 41.304348 36.716181 63.463235 0
M  V30 54 H 40.336129 31.219935 56.512563 0
M  V30 55 H 40.239510 30.707511 54.863184 0
M  V30 56 H 39.245156 32.952642 55.206759 0
M  V30 57 H 38.140855 32.316100 56.398360 0
M  V30 58 H 38.410297 26.795709 54.112696 0
M  V30 59 H 40.242921 27.136807 60.036783 0
M  V30 60 H 40.929901 28.159151 58.831184 0
M  V30 61 H 40.349297 34.357158 63.332987 0
M  V30 62 H 39.453332 35.784957 63.771817 0
M  V30 63 H 37.418245 33.756557 58.046347 0
M  V30 64 H 36.914255 23.534755 57.537690 0
M  V30 65 H 35.718174 34.937752 60.829221 0
M  V30 66 H 35.645141 36.615583 60.167755 0
M  V30 67 H 35.715265 35.237936 59.091008 0
M  V30 68 H 37.894808 36.533616 59.349082 0
M  V30 69 H 38.346615 29.038834 54.139383 0
M  V30 70 H 37.245201 28.437745 55.367727 0
M  V30 71 H 38.116842 28.385633 59.618884 0
M  V30 END ATOM
M  V30 BEGIN BOND
M  V30 1 1 3 2
M  V30 2 1 5 1
M  V30 3 2 8 7
M  V30 4 1 11 3
M  V30 5 1 13 9
M  V30 6 1 13 12
M  V30 7 1 14 3
M  V30 8 1 15 6
M  V30 9 1 16 9
M  V30 10 2 18 9
M  V30 11 1 19 15
M  V30 12 1 20 5
M  V30 13 1 20 19
M  V30 14 1 21 4
M  V30 15 1 21 14
M  V30 16 2 22 12
M  V30 17 1 23 14
M  V30 18 1 23 15
M  V30 19 1 24 8
M  V30 20 1 25 21
M  V30 21 1 26 13
M  V30 22 1 26 17
M  V30 23 2 27 24
M  V30 24 1 28 2
M  V30 25 2 28 16
M  V30 26 1 29 7
M  V30 27 1 31 6
M  V30 28 1 31 27
M  V30 29 1 32 12
M  V30 30 1 32 16
M  V30 31 1 32 30
M  V30 32 1 33 1
M  V30 33 1 33 15
M  V30 34 2 34 10
M  V30 35 1 34 25
M  V30 36 1 34 31
M  V30 37 1 35 10
M  V30 38 1 35 27
M  V30 39 2 35 29
M  V30 40 1 36 1
M  V30 41 1 37 1
M  V30 42 1 3 38 CFG=1
M  V30 43 1 39 4
M  V30 44 1 40 4
M  V30 45 1 41 4
M  V30 46 1 42 5
M  V30 47 1 43 5
M  V30 48 1 44 6
M  V30 49 1 45 6
M  V30 50 1 46 7
M  V30 51 1 47 8
M  V30 52 1 48 10
M  V30 53 1 49 11
M  V30 54 1 50 11
M  V30 55 1 51 11
M  V30 56 1 14 52 CFG=3
M  V30 57 1 53 17
M  V30 58 1 54 19
M  V30 59 1 55 19
M  V30 60 1 56 20
M  V30 61 1 57 20
M  V30 62 1 58 24
M  V30 63 1 59 25
M  V30 64 1 60 25
M  V30 65 1 61 26
M  V30 66 1 62 26
M  V30 67 1 63 28
M  V30 68 1 64 29
M  V30 69 1 65 30
M  V30 70 1 66 30
M  V30 71 1 67 30
M  V30 72 1 32 68 CFG=3
M  V30 73 1 69 33
M  V30 74 1 70 33
M  V30 75 1 21 71 CFG=1
M  V30 END BOND
M  V30 END CTAB
M  END
>  <i_epik_Tot_Q>  (1) 
1

>  <i_epik_Tot_abs_Q>  (1) 
1

>  <i_i_glide_confnum>  (1) 
61

>  <i_i_glide_lignum>  (1) 
91

>  <i_i_glide_posenum>  (1) 
240

>  <i_i_glide_rotatable_bonds>  (1) 
5

>  <i_lp_mmshare_version>  (1) 
72125

>  <i_m_source_file_index>  (1) 
42

>  <i_f3d_flags>  (1) 
0

>  <num_sample>  (1) 
50

>  <b_lp_Chiralities_Consistent>  (1) 
1

>  <r_epik_Charging_Adjusted_Penalty>  (1) 
1.62722492853585

>  <r_epik_Ionization_Penalty>  (1) 
0.81369786534067623

>  <r_epik_Ionization_Penalty_Charging>  (1) 
0.81361246426792511

>  <r_epik_Ionization_Penalty_Neutral>  (1) 
8.5401072751167088e-05

>  <r_epik_State_Penalty>  (1) 
0.813612464267925

>  <r_glide_ring_energy>  (1) 
0

>  <r_i_docking_score>  (1) 
-6.6672090722345114

>  <r_i_glide_ecoul>  (1) 
-2.8433878880260197

>  <r_i_glide_eff_state_penalty>  (1) 
0.813612464267925

>  <r_i_glide_einternal>  (1) 
10.133288286668568

>  <r_i_glide_emodel>  (1) 
-48.442740490430275

>  <r_i_glide_emodel_strain>  (1) 
0

>  <r_i_glide_energy>  (1) 
-37.305055036850597

>  <r_i_glide_erotb>  (1) 
0.34854586591334119

>  <r_i_glide_esite>  (1) 
-0.0075466962753509455

>  <r_i_glide_evdw>  (1) 
-34.461667148824574

>  <r_i_glide_gscore>  (1) 
-7.4808215365024369

>  <r_i_glide_gscore_strain>  (1) 
0

>  <r_i_glide_hbond>  (1) 
-0.16322503104501115

>  <r_i_glide_ligand_efficiency>  (1) 
-0.19049168777812889

>  <r_i_glide_ligand_efficiency_ln>  (1) 
-1.4636003620883815

>  <r_i_glide_ligand_efficiency_sa>  (1) 
-0.62311094226200103

>  <r_i_glide_lipo>  (1) 
-3.3716188195525394

>  <r_i_glide_metal>  (1) 
-0

>  <r_i_glide_rewards>  (1) 
-2.1373853148977466

>  <r_lp_Energy>  (1) 
42.397202999999998

>  <s_epik_Chemistry_Notes>  (1) 
This compound contains an acetal/aminal-like group ( X-CH(R)-Y where X, Y are N, S, or O) that may be acid/base labile, releasing an aldehyde.

>  <s_epik_cmdline>  (1) 
J2VwaWtfcHl0aG9uJywgJy1waHQnLCAnMS4wJywgJy1waCcsICc3LjQnLCAnLXRuJywgJzgnLCAnLW1hJywgJzUwMCcsICctaW1hZScsICc8aW5maWxlLm1hZT4nLCAnLW9tYWUnLCAnPG91dGZpbGUubWFlPic=

>  <s_epik_input>  (1) 
W0NIMl0xW0NIMl1bQ0gyXVtDSDJdW0NIMl1DMTJbQ0gyXW4zYzRjKFtjSF1bY0hdW2NIXVtjSF00KVtjSF1jM1tDSDJdTihbQ0gzXSlbQ0BASF0oTzIpW0NASF0oW0NIM10pTy9bQ0hdPUNcNVtDQEBIXShbQ0gzXSlDKD1PKU4oQzU9TylbQ0gyXVtPSF0=

>  <s_glide_docking_method>  (1) 
confgen

>  <s_i_glide_gridfile>  (1) 
gpcr_5ht2c_6bqh_protein_autoprepared_prepared

>  <s_lp_Force_Field>  (1) 
S-OPLS

>  <s_lp_Variant>  (1) 
DiffSBDD_41-5

>  <s_m_source_file>  (1) 
generated_GPCR_5HT2C_ligand_DiffSBDD_2026-06-23_prepared.sdf

>  <GenAI_Model>  (1) 
DiffSBDD

>  <Protein>  (1) 
GPCR_5HT2C

$$$$
DiffSBDD_39
     RDKit          3D

  0  0  0  0  0  0  0  0  0  0999 V3000
M  V30 BEGIN CTAB
M  V30 COUNTS 57 60 0 0 1
M  V30 BEGIN ATOM
M  V30 1 C 38.324831 30.350040 59.177443 0 CFG=1
M  V30 2 N 38.447327 31.346315 58.135874 0
M  V30 3 N 40.166620 34.310450 62.766953 0
M  V30 4 C 38.359572 25.437806 56.392628 0
M  V30 5 C 38.542309 29.032264 55.287804 0
M  V30 6 O 41.645088 36.138201 62.849545 0
M  V30 7 O 39.935910 36.137679 64.364590 0
M  V30 8 N 40.551317 33.046907 63.105585 0
M  V30 9 C 38.760725 34.341175 60.627741 0 CFG=2
M  V30 10 F 41.846270 36.075665 66.401296 0
M  V30 11 O 37.194640 24.779857 55.951915 0
M  V30 12 F 38.847702 27.023145 51.628906 0
M  V30 13 C 38.516867 31.037225 56.813383 0
M  V30 14 O 37.730734 32.139798 60.760639 0
M  V30 15 C 38.736193 32.889804 60.091544 0 CFG=1
M  V30 16 C 38.832541 34.414500 62.167093 0
M  V30 17 O 38.643727 31.889660 55.939137 0
M  V30 18 N 41.670030 34.696773 65.997893 0
M  V30 19 C 40.826709 35.324387 63.628987 0
M  V30 20 C 38.845845 29.070290 52.852534 0
M  V30 21 C 38.744676 29.757099 54.075914 0
M  V30 22 N 38.245899 26.889990 56.447544 0
M  V30 23 C 38.544591 26.941907 53.997606 0
M  V30 24 C 37.870204 30.741062 60.564615 0 CFG=1
M  V30 25 C 38.746147 27.671746 52.812608 0
M  V30 26 O 36.971762 30.156533 59.603333 0
M  V30 27 C 41.419429 33.154876 64.034642 0
M  V30 28 C 38.501960 32.750936 58.572098 0
M  V30 29 C 41.776281 34.502567 64.540779 0 CFG=2
M  V30 30 O 37.588039 35.015742 60.207728 0
M  V30 31 N 38.439247 29.694339 56.581503 0
M  V30 32 C 40.581843 34.053906 66.725582 0
M  V30 33 C 38.444254 27.614084 55.245393 0
M  V30 34 H 38.930765 29.447874 59.119109 0
M  V30 35 H 38.556627 25.091319 57.407920 0
M  V30 36 H 39.225811 25.118497 55.810692 0
M  V30 37 H 41.989141 36.821964 63.411413 0
M  V30 38 H 40.379366 36.413763 65.156650 0
M  V30 39 H 39.604192 34.879917 60.192411 0
M  V30 40 H 36.512425 25.427031 55.859940 0
M  V30 41 H 39.705578 32.453379 60.338975 0
M  V30 42 H 38.398011 35.356618 62.501557 0
M  V30 43 H 38.214522 33.612992 62.565500 0
M  V30 44 H 39.002957 29.622804 51.938004 0
M  V30 45 H 38.826955 30.822616 54.068853 0
M  V30 46 H 38.295951 27.356141 57.339065 0
M  V30 47 H 38.467897 25.868002 53.946349 0
M  V30 48 H 38.119964 30.140042 61.436738 0
M  V30 49 H 41.901722 32.275114 64.461027 0
M  V30 50 H 39.289987 33.283835 58.037833 0
M  V30 51 H 37.556997 33.214380 58.284160 0
M  V30 52 H 42.816958 34.699105 64.279620 0
M  V30 53 H 37.446258 34.843476 59.288257 0
M  V30 54 H 38.313702 29.097731 57.379771 0
M  V30 55 H 40.445232 33.006494 66.458116 0
M  V30 56 H 40.804995 34.084014 67.792554 0
M  V30 57 H 39.645161 34.589708 66.586320 0
M  V30 END ATOM
M  V30 BEGIN BOND
M  V30 1 1 2 1
M  V30 2 1 8 3
M  V30 3 1 11 4
M  V30 4 1 13 2
M  V30 5 1 15 9
M  V30 6 1 15 14
M  V30 7 1 16 3
M  V30 8 1 16 9
M  V30 9 2 17 13
M  V30 10 1 18 10
M  V30 11 1 19 3
M  V30 12 1 19 6
M  V30 13 1 19 7
M  V30 14 1 21 5
M  V30 15 2 21 20
M  V30 16 1 22 4
M  V30 17 1 24 1
M  V30 18 1 24 14
M  V30 19 1 25 12
M  V30 20 1 25 20
M  V30 21 2 25 23
M  V30 22 1 26 1
M  V30 23 1 26 24
M  V30 24 2 27 8
M  V30 25 1 28 2
M  V30 26 1 28 15
M  V30 27 1 29 18
M  V30 28 1 29 19
M  V30 29 1 29 27
M  V30 30 1 30 9
M  V30 31 1 31 5
M  V30 32 1 31 13
M  V30 33 1 32 18
M  V30 34 2 33 5
M  V30 35 1 33 22
M  V30 36 1 33 23
M  V30 37 1 1 34 CFG=1
M  V30 38 1 35 4
M  V30 39 1 36 4
M  V30 40 1 37 6
M  V30 41 1 38 7
M  V30 42 1 9 39 CFG=3
M  V30 43 1 40 11
M  V30 44 1 15 41 CFG=3
M  V30 45 1 42 16
M  V30 46 1 43 16
M  V30 47 1 44 20
M  V30 48 1 45 21
M  V30 49 1 46 22
M  V30 50 1 47 23
M  V30 51 1 24 48 CFG=1
M  V30 52 1 49 27
M  V30 53 1 50 28
M  V30 54 1 51 28
M  V30 55 1 29 52 CFG=3
M  V30 56 1 53 30
M  V30 57 1 54 31
M  V30 58 1 55 32
M  V30 59 1 56 32
M  V30 60 1 57 32
M  V30 END BOND
M  V30 END CTAB
M  END
>  <i_epik_Tot_Q>  (1) 
0

>  <i_epik_Tot_abs_Q>  (1) 
0

>  <i_i_glide_confnum>  (1) 
56

>  <i_i_glide_lignum>  (1) 
82

>  <i_i_glide_posenum>  (1) 
298

>  <i_i_glide_rotatable_bonds>  (1) 
13

>  <i_lp_mmshare_version>  (1) 
72125

>  <i_m_source_file_index>  (1) 
40

>  <i_f3d_flags>  (1) 
0

>  <num_sample>  (1) 
50

>  <b_lp_Chiralities_Consistent>  (1) 
1

>  <r_epik_Charging_Adjusted_Penalty>  (1) 
0.0039576598872860577

>  <r_epik_Ionization_Penalty>  (1) 
0.0039962828818057711

>  <r_epik_Ionization_Penalty_Charging>  (1) 
0

>  <r_epik_Ionization_Penalty_Neutral>  (1) 
0.0039962828818057711

>  <r_epik_State_Penalty>  (1) 
0.0039576598872860577

>  <r_glide_ring_energy>  (1) 
0

>  <r_i_docking_score>  (1) 
-6.666208307697822

>  <r_i_glide_ecoul>  (1) 
-2.4548207362084362

>  <r_i_glide_eff_state_penalty>  (1) 
0.0039576598872860577

>  <r_i_glide_einternal>  (1) 
9.177753788335103

>  <r_i_glide_emodel>  (1) 
-63.695351406608495

>  <r_i_glide_emodel_strain>  (1) 
1.0337877106705662

>  <r_i_glide_energy>  (1) 
-48.038458820195302

>  <r_i_glide_erotb>  (1) 
0.71920970627699021

>  <r_i_glide_esite>  (1) 
-0.19774422608441788

>  <r_i_glide_evdw>  (1) 
-45.58363808398687

>  <r_i_glide_gscore>  (1) 
-6.6701659675851079

>  <r_i_glide_gscore_strain>  (1) 
0

>  <r_i_glide_hbond>  (1) 
-0.29054088083243218

>  <r_i_glide_ligand_efficiency>  (1) 
-0.20200631235447947

>  <r_i_glide_ligand_efficiency_ln>  (1) 
-1.4825302118526231

>  <r_i_glide_ligand_efficiency_sa>  (1) 
-0.6479421817528529

>  <r_i_glide_lipo>  (1) 
-2.1805833506614922

>  <r_i_glide_metal>  (1) 
-0

>  <r_i_glide_rewards>  (1) 
-2.0731022016531462

>  <r_lp_Energy>  (1) 
32.683669000000002

>  <s_epik_Chemistry_Notes>  (1) 
This compound has an imine and may undergo hydrolysis. This compound contains an acetal/aminal-like group ( X-CH(R)-Y where X, Y are N, S, or O) that may be acid/base labile, releasing an aldehyde.

>  <s_epik_cmdline>  (1) 
J2VwaWtfcHl0aG9uJywgJy1waHQnLCAnMS4wJywgJy1waCcsICc3LjQnLCAnLXRuJywgJzgnLCAnLW1hJywgJzUwMCcsICctaW1hZScsICc8aW5maWxlLm1hZT4nLCAnLW9tYWUnLCAnPG91dGZpbGUubWFlPic=

>  <s_epik_input>  (1) 
Rk4oW0NIM10pW0NASF0xW0NIXT1OTihDMShbT0hdKVtPSF0pW0NIMl1bQ0BIXShbT0hdKVtDQEBIXShPW0NAQEhdKE8yKVtDQEBIXTIzKVtDSDJdTjNDKD1PKVtOSF1jNFtjSF1bY0hdYyhGKVtjSF1jNFtOSF1bQ0gyXVtPSF0=

>  <s_glide_docking_method>  (1) 
confgen

>  <s_i_glide_gridfile>  (1) 
gpcr_5ht2c_6bqh_protein_autoprepared_prepared

>  <s_lp_Force_Field>  (1) 
S-OPLS

>  <s_lp_Variant>  (1) 
DiffSBDD_39-1

>  <s_m_source_file>  (1) 
generated_GPCR_5HT2C_ligand_DiffSBDD_2026-06-23_prepared.sdf

>  <GenAI_Model>  (1) 
DiffSBDD

>  <Protein>  (1) 
GPCR_5HT2C

$$$$
DiffSBDD_48
     RDKit          3D

  0  0  0  0  0  0  0  0  0  0999 V3000
M  V30 BEGIN CTAB
M  V30 COUNTS 78 78 0 0 1
M  V30 BEGIN ATOM
M  V30 1 O 37.867426 27.901279 53.922676 0
M  V30 2 C 40.391162 28.539189 59.101266 0
M  V30 3 C 40.315215 27.609855 57.883699 0
M  V30 4 O 42.378708 31.657154 66.495872 0
M  V30 5 C 37.291560 32.147480 59.389946 0
M  V30 6 C 38.714800 27.715096 53.022540 0
M  V30 7 C 40.317887 32.130464 63.328627 0
M  V30 8 C 38.729351 28.715430 51.874202 0
M  V30 9 C 37.239356 30.610472 59.389408 0
M  V30 10 C 40.195742 28.320501 56.522655 0
M  V30 11 N 38.431685 30.066340 58.736981 0
M  V30 12 C 40.457345 29.944764 50.439020 0
M  V30 13 C 38.464465 32.706267 60.218127 0
M  V30 14 C 41.876369 31.485165 65.222039 0
M  V30 15 C 41.872024 32.704930 67.313457 0
M  V30 16 C 40.019139 29.575212 51.873144 0 CFG=1
M  V30 17 C 40.005497 30.811278 52.825738 0
M  V30 18 C 42.528790 30.338402 64.476268 0
M  V30 19 O 41.937299 32.975833 61.767898 0
M  V30 20 C 39.398506 29.647402 56.499065 0 CFG=2
M  V30 21 C 40.208362 30.648891 54.357729 0
M  V30 22 O 39.561674 26.797836 52.990589 0 CHG=-1
M  V30 23 C 38.353741 34.213939 60.489653 0
M  V30 24 O 39.647747 30.937097 49.856342 0
M  V30 25 C 40.914294 33.193308 62.413886 0
M  V30 26 C 39.665856 34.904550 60.926346 0
M  V30 27 C 38.125995 29.612268 57.374648 0
M  V30 28 C 39.006864 29.011950 59.574552 0
M  V30 29 C 40.899515 32.278173 64.720361 0
M  V30 30 N 39.074239 30.046141 55.102907 0 CHG=1
M  V30 31 C 40.187936 34.548388 62.341012 0 CFG=2
M  V30 32 C 41.101805 35.658152 62.896501 0
M  V30 33 H 41.063279 29.377052 58.919318 0
M  V30 34 H 40.837845 27.977997 59.923238 0
M  V30 35 H 41.203149 26.975317 57.862669 0
M  V30 36 H 39.477386 26.924134 58.013238 0
M  V30 37 H 37.332605 32.525653 58.367450 0
M  V30 38 H 36.355593 32.516335 59.810089 0
M  V30 39 H 39.236479 32.239415 63.367078 0
M  V30 40 H 40.528639 31.142735 62.921010 0
M  V30 41 H 37.834459 29.331646 51.918765 0
M  V30 42 H 38.656691 28.126038 50.962428 0
M  V30 43 H 36.324975 30.256927 58.907057 0
M  V30 44 H 37.170678 30.282051 60.427397 0
M  V30 45 H 39.761742 27.609755 55.819171 0
M  V30 46 H 41.203873 28.516268 56.160566 0
M  V30 47 H 40.443622 29.063468 49.797252 0
M  V30 48 H 41.486728 30.307879 50.441133 0
M  V30 49 H 38.507235 32.177518 61.168375 0
M  V30 50 H 39.401483 32.493972 59.704706 0
M  V30 51 H 42.361905 32.665059 68.286719 0
M  V30 52 H 42.079584 33.685674 66.882262 0
M  V30 53 H 40.799565 32.597548 67.483134 0
M  V30 54 H 40.839592 28.933356 52.167295 0
M  V30 55 H 40.846415 31.403978 52.492091 0
M  V30 56 H 39.165865 31.465822 52.632991 0
M  V30 57 H 42.992659 30.687529 63.553413 0
M  V30 58 H 43.303716 29.877546 65.090503 0
M  V30 59 H 41.793398 29.571065 64.233869 0
M  V30 60 H 40.039891 30.438905 56.893577 0
M  V30 61 H 41.139963 30.137726 54.571740 0
M  V30 62 H 40.344869 31.642863 54.787261 0
M  V30 63 H 38.000587 34.703327 59.580551 0
M  V30 64 H 37.579216 34.389840 61.237532 0
M  V30 65 H 38.831949 30.537793 49.567689 0
M  V30 66 H 40.442342 34.751109 60.177429 0
M  V30 67 H 39.473958 35.977832 60.905729 0
M  V30 68 H 37.402709 30.309844 56.946725 0
M  V30 69 H 37.642012 28.634094 57.366483 0
M  V30 70 H 39.130762 29.409280 60.582567 0
M  V30 71 H 38.319314 28.171339 59.666801 0
M  V30 72 H 40.489185 33.075417 65.317959 0
M  V30 73 H 38.322170 30.719653 55.128127 0
M  V30 74 H 39.323997 34.483244 63.000207 0
M  V30 75 H 41.527150 35.382765 63.862885 0
M  V30 76 H 41.928979 35.873271 62.219203 0
M  V30 77 H 40.550440 36.587617 63.045579 0
M  V30 78 H 38.718563 29.215651 54.620678 0
M  V30 END ATOM
M  V30 BEGIN BOND
M  V30 1 1 3 2
M  V30 2 2 6 1
M  V30 3 1 8 6
M  V30 4 1 9 5
M  V30 5 1 10 3
M  V30 6 1 11 9
M  V30 7 1 13 5
M  V30 8 1 14 4
M  V30 9 1 15 4
M  V30 10 1 16 8
M  V30 11 1 16 12
M  V30 12 1 17 16
M  V30 13 1 18 14
M  V30 14 1 20 10
M  V30 15 1 21 17
M  V30 16 1 22 6
M  V30 17 1 23 13
M  V30 18 1 24 12
M  V30 19 1 25 7
M  V30 20 2 25 19
M  V30 21 1 26 23
M  V30 22 1 27 11
M  V30 23 1 27 20
M  V30 24 1 28 2
M  V30 25 1 28 11
M  V30 26 1 29 7
M  V30 27 2 29 14
M  V30 28 1 30 20
M  V30 29 1 30 21
M  V30 30 1 31 25
M  V30 31 1 31 26
M  V30 32 1 32 31
M  V30 33 1 33 2
M  V30 34 1 34 2
M  V30 35 1 35 3
M  V30 36 1 36 3
M  V30 37 1 37 5
M  V30 38 1 38 5
M  V30 39 1 39 7
M  V30 40 1 40 7
M  V30 41 1 41 8
M  V30 42 1 42 8
M  V30 43 1 43 9
M  V30 44 1 44 9
M  V30 45 1 45 10
M  V30 46 1 46 10
M  V30 47 1 47 12
M  V30 48 1 48 12
M  V30 49 1 49 13
M  V30 50 1 50 13
M  V30 51 1 51 15
M  V30 52 1 52 15
M  V30 53 1 53 15
M  V30 54 1 16 54 CFG=1
M  V30 55 1 55 17
M  V30 56 1 56 17
M  V30 57 1 57 18
M  V30 58 1 58 18
M  V30 59 1 59 18
M  V30 60 1 20 60 CFG=1
M  V30 61 1 61 21
M  V30 62 1 62 21
M  V30 63 1 63 23
M  V30 64 1 64 23
M  V30 65 1 65 24
M  V30 66 1 66 26
M  V30 67 1 67 26
M  V30 68 1 68 27
M  V30 69 1 69 27
M  V30 70 1 70 28
M  V30 71 1 71 28
M  V30 72 1 72 29
M  V30 73 1 73 30
M  V30 74 1 31 74 CFG=1
M  V30 75 1 75 32
M  V30 76 1 76 32
M  V30 77 1 77 32
M  V30 78 1 78 30
M  V30 END BOND
M  V30 END CTAB
M  END
>  <i_epik_Tot_Q>  (1) 
0

>  <i_epik_Tot_abs_Q>  (1) 
2

>  <i_i_glide_confnum>  (1) 
2292

>  <i_i_glide_lignum>  (1) 
100

>  <i_i_glide_posenum>  (1) 
115

>  <i_i_glide_rotatable_bonds>  (1) 
18

>  <i_lp_mmshare_version>  (1) 
72125

>  <i_m_source_file_index>  (1) 
49

>  <i_f3d_flags>  (1) 
0

>  <num_sample>  (1) 
50

>  <b_lp_Chiralities_Consistent>  (1) 
1

>  <r_epik_Charging_Adjusted_Penalty>  (1) 
0.04911624183534407

>  <r_epik_Ionization_Penalty>  (1) 
0.025385742012929795

>  <r_epik_Ionization_Penalty_Charging>  (1) 
0.0065475108590220404

>  <r_epik_Ionization_Penalty_Neutral>  (1) 
0.018838231153907755

>  <r_epik_State_Penalty>  (1) 
0.042568730976322029

>  <r_glide_ring_energy>  (1) 
0

>  <r_i_docking_score>  (1) 
-6.665306446432167

>  <r_i_glide_ecoul>  (1) 
-4.2225468539793418

>  <r_i_glide_eff_state_penalty>  (1) 
0.042568730976322029

>  <r_i_glide_einternal>  (1) 
14.663310376364601

>  <r_i_glide_emodel>  (1) 
-56.237683916639696

>  <r_i_glide_emodel_strain>  (1) 
1.387421810265586

>  <r_i_glide_energy>  (1) 
-43.700378789195142

>  <r_i_glide_erotb>  (1) 
1.5544609794247006

>  <r_i_glide_esite>  (1) 
0

>  <r_i_glide_evdw>  (1) 
-39.477831935215796

>  <r_i_glide_gscore>  (1) 
-6.7078751774084893

>  <r_i_glide_gscore_strain>  (1) 
0

>  <r_i_glide_hbond>  (1) 
-0.32000000000000001

>  <r_i_glide_ligand_efficiency>  (1) 
-0.20829082645100522

>  <r_i_glide_ligand_efficiency_ln>  (1) 
-1.4925438027478186

>  <r_i_glide_ligand_efficiency_sa>  (1) 
-0.66128215404730284

>  <r_i_glide_lipo>  (1) 
-3.8338848123554095

>  <r_i_glide_metal>  (1) 
-0

>  <r_i_glide_rewards>  (1) 
-1.5011777196200888

>  <r_lp_Energy>  (1) 
22.905211999999999

>  <r_lp_tautomer_probability>  (1) 
0.99990000499974985

>  <s_epik_cmdline>  (1) 
J2VwaWtfcHl0aG9uJywgJy1waHQnLCAnMS4wJywgJy1waCcsICc3LjQnLCAnLXRuJywgJzgnLCAnLW1hJywgJzUwMCcsICctaW1hZScsICc8aW5maWxlLm1hZT4nLCAnLW9tYWUnLCAnPG91dGZpbGUubWFlPic=

>  <s_epik_input>  (1) 
Tz1DKFtPSF0pW0NIMl1bQ0BASF0oW0NIMl1bT0hdKVtDSDJdW0NIMl1bTkhdW0NASF0oW0NIMl1bQ0gyXVtDSDJdW0NIMl0xKVtDSDJdTjFbQ0gyXVtDSDJdW0NIMl1bQ0gyXVtDSDJdW0NASF0oW0NIM10pQyg9TylbQ0gyXVxbQ0hdPUMoW0NIM10pXE9bQ0gzXQ==

>  <s_glide_docking_method>  (1) 
confgen

>  <s_i_glide_gridfile>  (1) 
gpcr_5ht2c_6bqh_protein_autoprepared_prepared

>  <s_lp_Force_Field>  (1) 
S-OPLS

>  <s_lp_Variant>  (1) 
DiffSBDD_48-2

>  <s_m_source_file>  (1) 
generated_GPCR_5HT2C_ligand_DiffSBDD_2026-06-23_prepared.sdf

>  <GenAI_Model>  (1) 
DiffSBDD

>  <Protein>  (1) 
GPCR_5HT2C

$$$$
DiffSBDD_17
     RDKit          3D

  0  0  0  0  0  0  0  0  0  0999 V3000
M  V30 BEGIN CTAB
M  V30 COUNTS 93 97 0 0 1
M  V30 BEGIN ATOM
M  V30 1 C 44.881605 29.114261 64.161693 0
M  V30 2 C 37.531293 31.699756 60.081575 0 CFG=2
M  V30 3 C 42.417419 28.875547 63.609659 0
M  V30 4 O 40.093358 27.993778 60.057823 0
M  V30 5 C 43.745014 26.868840 64.422636 0
M  V30 6 C 39.163622 27.930870 53.116324 0
M  V30 7 C 39.347801 28.017431 50.635626 0
M  V30 8 C 39.245276 27.338604 51.926748 0
M  V30 9 C 38.489687 33.336791 57.862611 0
M  V30 10 C 38.844806 34.569350 60.833533 0
M  V30 11 N 40.737953 29.587489 65.395666 0
M  V30 12 C 37.516340 34.404991 60.111633 0 CFG=2
M  V30 13 C 40.656719 30.720192 63.208499 0 CFG=1
M  V30 14 C 38.924038 31.508186 60.758189 0
M  V30 15 N 41.119408 30.230512 66.660399 0 CHG=1
M  V30 16 C 39.427971 28.051481 55.350693 0 CFG=2
M  V30 17 C 39.060630 29.376697 53.368562 0 CFG=2
M  V30 18 C 41.039113 27.858263 66.969287 0
M  V30 19 C 41.567412 30.014136 64.251297 0 CFG=2
M  V30 20 O 39.110877 27.193611 54.264929 0
M  V30 21 C 40.892384 29.206540 67.697529 0
M  V30 22 O 41.471624 31.337067 62.229968 0
M  V30 23 N 37.245111 29.893271 56.671732 0 CHG=1
M  V30 24 C 39.995321 30.300283 52.676375 0
M  V30 25 C 37.166295 30.771366 58.901833 0
M  V30 26 C 39.801105 29.284199 50.392188 0
M  V30 27 N 36.940795 33.068757 59.877649 0 CFG=1 CHG=1
M  V30 28 C 40.288892 29.386117 60.052927 0
M  V30 29 S 38.899990 27.507621 57.016255 0 CHG=-1
M  V30 30 C 39.323705 30.030117 61.062928 0 CFG=1
M  V30 31 C 40.282925 30.272852 51.367646 0
M  V30 32 N 39.832706 29.745149 62.433007 0 CHG=1
M  V30 33 C 37.340070 33.854534 58.712663 0 CFG=2
M  V30 34 C 37.544091 29.873243 55.237393 0
M  V30 35 C 38.100799 32.231289 56.905109 0
M  V30 36 C 38.991786 29.471735 54.895562 0 CFG=1
M  V30 37 C 37.931093 30.848896 57.556217 0 CFG=2
M  V30 38 N 40.669640 28.127530 65.573936 0 CHG=1
M  V30 39 C 43.577545 28.391603 64.497976 0
M  V30 40 H 45.245149 28.832316 63.174043 0
M  V30 41 H 44.761187 30.197411 64.184365 0
M  V30 42 H 45.645185 28.854908 64.891304 0
M  V30 43 H 36.863681 31.343698 60.869168 0
M  V30 44 H 41.793136 28.038195 63.293390 0
M  V30 45 H 42.845204 29.223229 62.673638 0
M  V30 46 H 39.867557 27.712797 59.172308 0
M  V30 47 H 44.121825 26.554658 63.447753 0
M  V30 48 H 44.446063 26.531422 65.182776 0
M  V30 49 H 42.809647 26.340390 64.603208 0
M  V30 50 H 39.091218 27.429652 49.769763 0
M  V30 51 H 39.247527 26.260890 51.914792 0
M  V30 52 H 39.376656 33.090205 58.431710 0
M  V30 53 H 38.774832 34.137762 57.201433 0
M  V30 54 H 39.096233 35.629191 60.855793 0
M  V30 55 H 38.767115 34.240868 61.870557 0
M  V30 56 H 39.673178 34.073298 60.339183 0
M  V30 57 H 36.721945 35.046357 60.489073 0
M  V30 58 H 40.020398 31.476817 63.670014 0
M  V30 59 H 38.889447 32.052242 61.697898 0
M  V30 60 H 39.721693 31.946565 60.169648 0
M  V30 61 H 42.097101 30.482400 66.596242 0
M  V30 62 H 40.514934 28.046888 55.405401 0
M  V30 63 H 38.093108 29.645442 52.942388 0
M  V30 64 H 40.445459 27.040893 67.367244 0
M  V30 65 H 42.078420 27.531408 67.003614 0
M  V30 66 H 42.262615 30.779516 64.604746 0
M  V30 67 H 39.871648 29.337705 68.057617 0
M  V30 68 H 41.565872 29.308714 68.549472 0
M  V30 69 H 41.711542 32.206138 62.524880 0
M  V30 70 H 37.457106 28.953778 57.004449 0
M  V30 71 H 40.416887 31.087866 53.282627 0
M  V30 72 H 37.213251 29.737272 59.237398 0
M  V30 73 H 36.104764 30.918791 58.710355 0
M  V30 74 H 39.857460 29.576033 49.352384 0
M  V30 75 H 41.320649 29.598149 60.294582 0
M  V30 76 H 40.159782 29.736308 59.041959 0
M  V30 77 H 38.426267 29.432902 61.013075 0
M  V30 78 H 40.924141 31.057303 50.991715 0
M  V30 79 H 39.047568 29.473708 63.014853 0
M  V30 80 H 36.443702 34.139972 58.165607 0
M  V30 81 H 36.856578 29.150671 54.797493 0
M  V30 82 H 37.282752 30.833400 54.792528 0
M  V30 83 H 38.899983 32.159348 56.168092 0
M  V30 84 H 37.245143 32.549102 56.326208 0
M  V30 85 H 39.689984 30.211207 55.287577 0
M  V30 86 H 38.935313 30.471178 57.671922 0
M  V30 87 H 39.714537 27.853568 65.364886 0
M  V30 88 H 43.365484 28.637401 65.534858 0
M  V30 89 H 40.534405 31.044341 66.800681 0
M  V30 90 H 41.324016 27.697118 64.932250 0
M  V30 91 H 36.253824 30.092805 56.756038 0
M  V30 92 H 40.388706 28.912000 62.293987 0
M  V30 93 H 35.929601 33.067853 59.915524 0
M  V30 END ATOM
M  V30 BEGIN BOND
M  V30 1 2 8 6
M  V30 2 1 8 7
M  V30 3 1 12 10
M  V30 4 1 14 2
M  V30 5 1 15 11
M  V30 6 1 17 6
M  V30 7 1 19 3
M  V30 8 1 19 11
M  V30 9 1 19 13
M  V30 10 1 20 6
M  V30 11 1 20 16
M  V30 12 1 21 15
M  V30 13 1 21 18
M  V30 14 1 22 13
M  V30 15 1 24 17
M  V30 16 1 25 2
M  V30 17 2 26 7
M  V30 18 1 27 2
M  V30 19 1 27 12
M  V30 20 1 28 4
M  V30 21 1 29 16
M  V30 22 1 30 14
M  V30 23 1 30 28
M  V30 24 2 31 24
M  V30 25 1 31 26
M  V30 26 1 32 13
M  V30 27 1 32 30
M  V30 28 1 33 9
M  V30 29 1 33 12
M  V30 30 1 33 27
M  V30 31 1 34 23
M  V30 32 1 35 9
M  V30 33 1 36 16
M  V30 34 1 36 17
M  V30 35 1 36 34
M  V30 36 1 37 23
M  V30 37 1 37 25
M  V30 38 1 37 35
M  V30 39 1 38 11
M  V30 40 1 38 18
M  V30 41 1 39 1
M  V30 42 1 39 3
M  V30 43 1 39 5
M  V30 44 1 40 1
M  V30 45 1 41 1
M  V30 46 1 42 1
M  V30 47 1 2 43 CFG=1
M  V30 48 1 44 3
M  V30 49 1 45 3
M  V30 50 1 46 4
M  V30 51 1 47 5
M  V30 52 1 48 5
M  V30 53 1 49 5
M  V30 54 1 50 7
M  V30 55 1 51 8
M  V30 56 1 52 9
M  V30 57 1 53 9
M  V30 58 1 54 10
M  V30 59 1 55 10
M  V30 60 1 56 10
M  V30 61 1 12 57 CFG=3
M  V30 62 1 13 58 CFG=1
M  V30 63 1 59 14
M  V30 64 1 60 14
M  V30 65 1 61 15
M  V30 66 1 16 62 CFG=1
M  V30 67 1 17 63 CFG=3
M  V30 68 1 64 18
M  V30 69 1 65 18
M  V30 70 1 19 66 CFG=1
M  V30 71 1 67 21
M  V30 72 1 68 21
M  V30 73 1 69 22
M  V30 74 1 70 23
M  V30 75 1 71 24
M  V30 76 1 72 25
M  V30 77 1 73 25
M  V30 78 1 74 26
M  V30 79 1 75 28
M  V30 80 1 76 28
M  V30 81 1 30 77 CFG=1
M  V30 82 1 78 31
M  V30 83 1 79 32
M  V30 84 1 33 80 CFG=3
M  V30 85 1 81 34
M  V30 86 1 82 34
M  V30 87 1 83 35
M  V30 88 1 84 35
M  V30 89 1 36 85 CFG=1
M  V30 90 1 37 86 CFG=1
M  V30 91 1 87 38
M  V30 92 1 88 39
M  V30 93 1 89 15
M  V30 94 1 90 38
M  V30 95 1 91 23
M  V30 96 1 92 32
M  V30 97 1 27 93 CFG=3
M  V30 END BOND
M  V30 END CTAB
M  END
>  <i_epik_Tot_Q>  (1) 
4

>  <i_epik_Tot_abs_Q>  (1) 
6

>  <i_i_glide_confnum>  (1) 
1076

>  <i_i_glide_lignum>  (1) 
35

>  <i_i_glide_posenum>  (1) 
30

>  <i_i_glide_rotatable_bonds>  (1) 
14

>  <i_lp_mmshare_version>  (1) 
72125

>  <i_m_source_file_index>  (1) 
18

>  <i_f3d_flags>  (1) 
0

>  <num_sample>  (1) 
50

>  <b_lp_Chiralities_Consistent>  (1) 
1

>  <r_epik_Charging_Adjusted_Penalty>  (1) 
1.6052319346045403

>  <r_epik_Ionization_Penalty>  (1) 
1.3756208669108916

>  <r_epik_Ionization_Penalty_Charging>  (1) 
0.71181796891070681

>  <r_epik_Ionization_Penalty_Neutral>  (1) 
0.66380289800018477

>  <r_epik_State_Penalty>  (1) 
0.89341396569383336

>  <r_glide_ring_energy>  (1) 
0.0045750838620950583

>  <r_i_docking_score>  (1) 
-6.661358874488144

>  <r_i_glide_ecoul>  (1) 
-13.621269097227069

>  <r_i_glide_eff_state_penalty>  (1) 
0.89341396569383336

>  <r_i_glide_einternal>  (1) 
10.684173554675992

>  <r_i_glide_emodel>  (1) 
-71.669598653023684

>  <r_i_glide_emodel_strain>  (1) 
7.3948065325649566

>  <r_i_glide_energy>  (1) 
-53.21910022248985

>  <r_i_glide_erotb>  (1) 
0.56146573491919982

>  <r_i_glide_esite>  (1) 
-0.19424397614736111

>  <r_i_glide_evdw>  (1) 
-39.597831125262779

>  <r_i_glide_gscore>  (1) 
-7.5547728401819771

>  <r_i_glide_gscore_strain>  (1) 
0.84870163314123914

>  <r_i_glide_hbond>  (1) 
-0.31327485277287964

>  <r_i_glide_ligand_efficiency>  (1) 
-0.1708040737048242

>  <r_i_glide_ligand_efficiency_ln>  (1) 
-1.4283844366068361

>  <r_i_glide_ligand_efficiency_sa>  (1) 
-0.57923272926123504

>  <r_i_glide_lipo>  (1) 
-3.5130641644695855

>  <r_i_glide_metal>  (1) 
-0

>  <r_i_glide_rewards>  (1) 
-0.92127529400538999

>  <r_lp_Energy>  (1) 
83.500289999999993

>  <s_epik_Chemistry_Notes>  (1) 
This compound contains an acetal/aminal-like group ( X-CH(R)-Y where X, Y are N, S, or O) that may be acid/base labile, releasing an aldehyde.

>  <s_epik_cmdline>  (1) 
J2VwaWtfcHl0aG9uJywgJy1waHQnLCAnMS4wJywgJy1waCcsICc3LjQnLCAnLXRuJywgJzgnLCAnLW1hJywgJzUwMCcsICctaW1hZScsICc8aW5maWxlLm1hZT4nLCAnLW9tYWUnLCAnPG91dGZpbGUubWFlPic=

>  <s_epik_input>  (1) 
W05IXTFbQ0gyXVtDSDJdW05IXU4xW0NAQEhdKFtDSDJdW0NIXShbQ0gzXSlbQ0gzXSlbQ0BASF0oW09IXSlbTkhdW0NASF0oW0NIMl1bT0hdKVtDSDJdW0NAQEhdMltDSDJdW0NASF0oW0NIMl1bQ0gyXVtDQEBIXShOMjMpW0NIXTNbQ0gzXSlbTkhdW0NIMl1bQ0BASF0oW0NASF0oTzQpW1NIXSlbQ0BIXShDND01KVtDSF09W0NIXVtDSF09W0NIXVtDSF01

>  <s_glide_docking_method>  (1) 
confgen

>  <s_i_glide_gridfile>  (1) 
gpcr_5ht2c_6bqh_protein_autoprepared_prepared

>  <s_lp_Force_Field>  (1) 
S-OPLS

>  <s_lp_Variant>  (1) 
DiffSBDD_17-2

>  <s_m_source_file>  (1) 
generated_GPCR_5HT2C_ligand_DiffSBDD_2026-06-23_prepared.sdf

>  <GenAI_Model>  (1) 
DiffSBDD

>  <Protein>  (1) 
GPCR_5HT2C

$$$$
DiffSBDD_47
     RDKit          3D

  0  0  0  0  0  0  0  0  0  0999 V3000
M  V30 BEGIN CTAB
M  V30 COUNTS 43 46 0 0 1
M  V30 BEGIN ATOM
M  V30 1 C 37.859350 36.523715 61.003472 0
M  V30 2 C 38.510216 26.967275 55.585809 0
M  V30 3 N 38.443912 31.657285 59.376582 0
M  V30 4 C 38.157952 29.915899 57.580967 0 CFG=1
M  V30 5 C 39.513227 29.306688 57.177994 0
M  V30 6 C 38.565614 25.670038 57.612719 0
M  V30 7 N 39.574204 27.886192 57.488330 0
M  V30 8 C 37.893415 26.422162 54.595256 0
M  V30 9 C 36.900637 36.333197 59.980455 0
M  V30 10 C 37.485365 38.903991 60.967759 0
M  V30 11 C 37.432625 32.659994 59.083600 0 CFG=2
M  V30 12 C 38.663172 35.444959 61.411432 0
M  V30 13 C 37.679731 24.525719 57.054274 0
M  V30 14 C 38.881401 26.892797 56.815350 0
M  V30 15 C 38.453100 32.253907 58.050706 0 CFG=2
M  V30 16 C 38.525269 34.185574 60.798367 0
M  V30 17 N 37.245144 25.199172 54.634687 0
M  V30 18 C 36.764341 35.074471 59.367760 0
M  V30 19 C 37.149441 24.370822 55.789026 0
M  V30 20 C 37.577405 33.992445 59.764577 0
M  V30 21 S 37.970233 30.027703 59.367578 0
M  V30 22 O 38.019429 37.751558 61.608672 0
M  V30 23 N 38.045134 31.267771 57.062289 0
M  V30 24 H 37.346457 29.318957 57.163601 0
M  V30 25 H 39.697811 29.453379 56.113357 0
M  V30 26 H 40.323328 29.805257 57.708733 0
M  V30 27 H 38.104067 25.998208 58.544913 0
M  V30 28 H 39.517499 25.218040 57.894116 0
M  V30 29 H 39.763853 27.697074 58.461985 0
M  V30 30 H 37.813687 26.907294 53.633327 0
M  V30 31 H 36.271222 37.149344 59.661943 0
M  V30 32 H 37.939025 39.809213 61.367755 0
M  V30 33 H 36.409549 38.969371 61.131749 0
M  V30 34 H 37.694638 38.908411 59.897622 0
M  V30 35 H 36.394381 32.353120 58.967940 0
M  V30 36 H 39.392912 35.584430 62.194882 0
M  V30 37 H 37.466224 23.746927 57.772427 0
M  V30 38 H 39.242166 32.968577 57.826111 0
M  V30 39 H 39.152180 33.366554 61.117222 0
M  V30 40 H 36.782585 24.886788 53.792000 0
M  V30 41 H 36.035242 34.937700 58.581006 0
M  V30 42 H 36.556382 23.490177 55.587626 0
M  V30 43 H 37.053213 31.438510 56.863077 0
M  V30 END ATOM
M  V30 BEGIN BOND
M  V30 1 1 5 4
M  V30 2 1 7 5
M  V30 3 2 8 2
M  V30 4 1 9 1
M  V30 5 1 11 3
M  V30 6 2 12 1
M  V30 7 1 13 6
M  V30 8 2 14 2
M  V30 9 1 14 6
M  V30 10 1 14 7
M  V30 11 1 15 3
M  V30 12 1 15 11
M  V30 13 1 16 12
M  V30 14 1 17 8
M  V30 15 2 18 9
M  V30 16 2 19 13
M  V30 17 1 19 17
M  V30 18 1 20 11
M  V30 19 2 20 16
M  V30 20 1 20 18
M  V30 21 1 21 3
M  V30 22 1 21 4
M  V30 23 1 22 1
M  V30 24 1 22 10
M  V30 25 1 23 4
M  V30 26 1 23 15
M  V30 27 1 4 24 CFG=3
M  V30 28 1 25 5
M  V30 29 1 26 5
M  V30 30 1 27 6
M  V30 31 1 28 6
M  V30 32 1 29 7
M  V30 33 1 30 8
M  V30 34 1 31 9
M  V30 35 1 32 10
M  V30 36 1 33 10
M  V30 37 1 34 10
M  V30 38 1 11 35 CFG=3
M  V30 39 1 36 12
M  V30 40 1 37 13
M  V30 41 1 15 38 CFG=3
M  V30 42 1 39 16
M  V30 43 1 40 17
M  V30 44 1 41 18
M  V30 45 1 42 19
M  V30 46 1 43 23
M  V30 END BOND
M  V30 END CTAB
M  END
>  <i_epik_Tot_Q>  (1) 
0

>  <i_epik_Tot_abs_Q>  (1) 
0

>  <i_i_glide_confnum>  (1) 
11

>  <i_i_glide_lignum>  (1) 
98

>  <i_i_glide_posenum>  (1) 
299

>  <i_i_glide_rotatable_bonds>  (1) 
5

>  <i_lp_mmshare_version>  (1) 
72125

>  <i_m_source_file_index>  (1) 
48

>  <i_f3d_flags>  (1) 
0

>  <num_sample>  (1) 
50

>  <b_lp_Chiralities_Consistent>  (1) 
1

>  <r_epik_Charging_Adjusted_Penalty>  (1) 
2.8036070843788356e-07

>  <r_epik_Ionization_Penalty>  (1) 
5.6275473319638209e-05

>  <r_epik_Ionization_Penalty_Charging>  (1) 
2.8036070843788356e-07

>  <r_epik_Ionization_Penalty_Neutral>  (1) 
5.5995112611200328e-05

>  <r_epik_State_Penalty>  (1) 
-0

>  <r_glide_ring_energy>  (1) 
0

>  <r_i_docking_score>  (1) 
-6.6580308089150426

>  <r_i_glide_ecoul>  (1) 
-5.6569787889254455

>  <r_i_glide_eff_state_penalty>  (1) 
-0

>  <r_i_glide_einternal>  (1) 
0.6420459766303992

>  <r_i_glide_emodel>  (1) 
-61.97390368057723

>  <r_i_glide_emodel_strain>  (1) 
0.3791508808251578

>  <r_i_glide_energy>  (1) 
-43.903618889831471

>  <r_i_glide_erotb>  (1) 
0.69643727437471581

>  <r_i_glide_esite>  (1) 
-0.066354459211455122

>  <r_i_glide_evdw>  (1) 
-38.246640100906028

>  <r_i_glide_gscore>  (1) 
-6.6580308089150426

>  <r_i_glide_gscore_strain>  (1) 
0

>  <r_i_glide_hbond>  (1) 
-0.16

>  <r_i_glide_ligand_efficiency>  (1) 
-0.28947960038761056

>  <r_i_glide_ligand_efficiency_ln>  (1) 
-1.6099722212812084

>  <r_i_glide_ligand_efficiency_sa>  (1) 
-0.82324147688295213

>  <r_i_glide_lipo>  (1) 
-2.8791653247116047

>  <r_i_glide_metal>  (1) 
-0

>  <r_i_glide_rewards>  (1) 
-1.4880694759825799

>  <r_lp_Energy>  (1) 
12.846019

>  <r_lp_tautomer_probability>  (1) 
1

>  <s_epik_Chemistry_Notes>  (1) 
This compound has an imine and may undergo hydrolysis. This compound contains an acetal/aminal-like group ( X-CH(R)-Y where X, Y are N, S, or O) that may be acid/base labile, releasing an aldehyde. This compound has a N-S or N-O group and may undergo hydrolysis at high or low pH.

>  <s_epik_cmdline>  (1) 
J2VwaWtfcHl0aG9uJywgJy1waHQnLCAnMS4wJywgJy1waCcsICc3LjQnLCAnLXRuJywgJzgnLCAnLW1hJywgJzUwMCcsICctaW1hZScsICc8aW5maWxlLm1hZT4nLCAnLW9tYWUnLCAnPG91dGZpbGUubWFlPic=

>  <s_epik_input>  (1) 
W0NIM11PYzFbY0hdW2NIXWMoW2NIXVtjSF0xKVtDQEhdMltDQEBIXShOMjMpW05IXVtDQEhdKFMzKVtDSDJdW05IXUM0PUM9W0NIXVtOSF1bQ0hdPVtDSF1bQ0gyXTQ=

>  <s_glide_docking_method>  (1) 
confgen

>  <s_i_glide_gridfile>  (1) 
gpcr_5ht2c_6bqh_protein_autoprepared_prepared

>  <s_lp_Force_Field>  (1) 
S-OPLS

>  <s_lp_Variant>  (1) 
DiffSBDD_47-1

>  <s_m_source_file>  (1) 
generated_GPCR_5HT2C_ligand_DiffSBDD_2026-06-23_prepared.sdf

>  <GenAI_Model>  (1) 
DiffSBDD

>  <Protein>  (1) 
GPCR_5HT2C

$$$$
DiffSBDD_17
     RDKit          3D

  0  0  0  0  0  0  0  0  0  0999 V3000
M  V30 BEGIN CTAB
M  V30 COUNTS 94 98 0 0 1
M  V30 BEGIN ATOM
M  V30 1 C 41.356485 25.398228 65.276503 0
M  V30 2 C 38.242316 32.812702 61.811151 0 CFG=2
M  V30 3 C 41.268758 27.925389 65.296852 0
M  V30 4 O 38.845142 29.321038 60.606008 0
M  V30 5 C 42.067883 26.598866 67.356543 0
M  V30 6 C 38.375736 28.679996 54.326270 0
M  V30 7 C 39.498012 26.537767 53.736146 0
M  V30 8 C 38.786770 27.778908 53.435543 0
M  V30 9 C 39.708218 34.245838 59.780566 0
M  V30 10 C 40.550416 34.933533 62.786152 0
M  V30 11 N 42.255273 29.731721 66.712471 0
M  V30 12 C 39.215404 35.318516 62.161226 0 CFG=2
M  V30 13 C 41.499806 30.324011 64.313602 0 CFG=1
M  V30 14 C 39.502876 32.071738 62.412282 0
M  V30 15 N 41.043416 30.155807 67.418163 0 CHG=1
M  V30 16 C 37.484314 30.656620 55.029838 0 CFG=2
M  V30 17 C 38.623622 28.659428 55.775965 0 CFG=2
M  V30 18 C 42.822818 31.736062 67.790105 0
M  V30 19 C 42.059447 29.265413 65.330305 0 CFG=2
M  V30 20 O 37.711162 29.796416 53.925256 0
M  V30 21 C 41.292030 31.558951 67.809897 0
M  V30 22 O 42.122069 30.076953 63.081843 0
M  V30 23 N 37.645185 31.406823 58.225030 0 CHG=1
M  V30 24 C 38.406965 27.397049 56.535801 0
M  V30 25 C 37.532987 32.236421 60.557752 0
M  V30 26 C 39.510849 25.844979 54.914582 0
M  V30 27 N 38.196537 34.321620 61.767749 0 CFG=1 CHG=1
M  V30 28 C 39.848778 29.598839 61.545246 0
M  V30 29 S 38.445137 32.188003 54.947797 0
M  V30 30 C 39.400575 30.542939 62.701027 0 CFG=1
M  V30 31 C 38.826569 26.182893 56.166076 0
M  V30 32 N 40.045113 30.144227 64.000212 0 CHG=1
M  V30 33 C 38.862528 35.065656 60.714811 0 CFG=2
M  V30 34 C 38.521585 30.502074 57.461279 0
M  V30 35 C 38.865456 33.508321 58.732719 0
M  V30 36 C 37.792304 29.820495 56.295027 0 CFG=1
M  V30 37 C 38.371182 32.155712 59.271873 0 CFG=2
M  V30 38 N 43.331146 30.725808 66.842390 0 CHG=1
M  V30 39 C 42.012000 26.676539 65.821647 0
M  V30 40 H 40.325013 25.298852 65.615344 0
M  V30 41 H 41.358686 25.369053 64.186530 0
M  V30 42 H 41.905658 24.524202 65.620895 0
M  V30 43 H 37.489512 32.626601 62.571981 0
M  V30 44 H 40.304110 28.018356 65.796513 0
M  V30 45 H 41.036444 27.712020 64.251860 0
M  V30 46 H 39.106233 28.557363 60.108800 0
M  V30 47 H 41.067701 26.626178 67.786582 0
M  V30 48 H 42.532724 25.666367 67.678831 0
M  V30 49 H 42.654597 27.402834 67.796470 0
M  V30 50 H 40.030852 26.088315 52.913220 0
M  V30 51 H 38.577655 27.985177 52.395650 0
M  V30 52 H 40.331909 33.537577 60.302340 0
M  V30 53 H 40.440698 34.937725 59.367768 0
M  V30 54 H 41.162788 35.833370 62.863526 0
M  V30 55 H 40.413968 34.561493 63.799847 0
M  V30 56 H 41.127010 34.228281 62.195954 0
M  V30 57 H 38.707103 36.143507 62.657809 0
M  V30 58 H 41.713570 31.354100 64.602277 0
M  V30 59 H 39.685756 32.539135 63.377007 0
M  V30 60 H 40.411605 32.212260 61.837263 0
M  V30 61 H 40.235737 30.028583 66.827978 0
M  V30 62 H 36.433447 30.937830 54.999547 0
M  V30 63 H 39.682315 28.902365 55.881151 0
M  V30 64 H 43.237120 31.515078 68.775744 0
M  V30 65 H 43.131996 32.746733 67.516147 0
M  V30 66 H 43.071226 29.019883 65.000802 0
M  V30 67 H 40.855120 31.803270 68.778913 0
M  V30 68 H 40.840256 32.213488 67.063612 0
M  V30 69 H 42.781142 29.400868 63.182714 0
M  V30 70 H 36.944830 30.826019 58.663220 0
M  V30 71 H 37.915341 27.502197 57.492074 0
M  V30 72 H 37.162710 31.241215 60.805054 0
M  V30 73 H 36.633251 32.819272 60.353549 0
M  V30 74 H 40.045158 24.912696 54.908411 0
M  V30 75 H 40.145338 28.629872 61.949877 0
M  V30 76 H 40.707788 29.994998 61.004773 0
M  V30 77 H 39.646736 31.603034 54.939757 0
M  V30 78 H 38.349754 30.325729 62.891631 0
M  V30 79 H 38.652316 25.373990 56.861114 0
M  V30 80 H 39.513899 30.604829 64.722456 0
M  V30 81 H 38.160540 35.753067 60.244491 0
M  V30 82 H 39.429589 31.010812 57.137253 0
M  V30 83 H 38.868836 29.726619 58.139063 0
M  V30 84 H 39.483608 33.336891 57.850067 0
M  V30 85 H 38.030873 34.125798 58.395145 0
M  V30 86 H 36.845097 29.431481 56.662096 0
M  V30 87 H 39.245209 31.572486 59.536827 0
M  V30 88 H 44.153561 30.254930 67.202529 0
M  V30 89 H 43.035416 26.693323 65.442590 0
M  V30 90 H 40.967895 29.560734 68.235847 0
M  V30 91 H 43.520343 31.118593 65.930375 0
M  V30 92 H 37.129290 32.023205 57.598882 0
M  V30 93 H 39.827021 29.156301 64.085749 0
M  V30 94 H 37.257403 34.683508 61.868805 0
M  V30 END ATOM
M  V30 BEGIN BOND
M  V30 1 2 8 6
M  V30 2 1 8 7
M  V30 3 1 12 10
M  V30 4 1 14 2
M  V30 5 1 15 11
M  V30 6 1 17 6
M  V30 7 1 19 3
M  V30 8 1 19 11
M  V30 9 1 19 13
M  V30 10 1 20 6
M  V30 11 1 20 16
M  V30 12 1 21 15
M  V30 13 1 21 18
M  V30 14 1 22 13
M  V30 15 1 24 17
M  V30 16 1 25 2
M  V30 17 2 26 7
M  V30 18 1 27 2
M  V30 19 1 27 12
M  V30 20 1 28 4
M  V30 21 1 29 16
M  V30 22 1 30 14
M  V30 23 1 30 28
M  V30 24 2 31 24
M  V30 25 1 31 26
M  V30 26 1 32 13
M  V30 27 1 32 30
M  V30 28 1 33 9
M  V30 29 1 33 12
M  V30 30 1 33 27
M  V30 31 1 34 23
M  V30 32 1 35 9
M  V30 33 1 36 16
M  V30 34 1 36 17
M  V30 35 1 36 34
M  V30 36 1 37 23
M  V30 37 1 37 25
M  V30 38 1 37 35
M  V30 39 1 38 11
M  V30 40 1 38 18
M  V30 41 1 39 1
M  V30 42 1 39 3
M  V30 43 1 39 5
M  V30 44 1 40 1
M  V30 45 1 41 1
M  V30 46 1 42 1
M  V30 47 1 2 43 CFG=1
M  V30 48 1 44 3
M  V30 49 1 45 3
M  V30 50 1 46 4
M  V30 51 1 47 5
M  V30 52 1 48 5
M  V30 53 1 49 5
M  V30 54 1 50 7
M  V30 55 1 51 8
M  V30 56 1 52 9
M  V30 57 1 53 9
M  V30 58 1 54 10
M  V30 59 1 55 10
M  V30 60 1 56 10
M  V30 61 1 12 57 CFG=1
M  V30 62 1 13 58 CFG=1
M  V30 63 1 59 14
M  V30 64 1 60 14
M  V30 65 1 61 15
M  V30 66 1 16 62 CFG=1
M  V30 67 1 17 63 CFG=3
M  V30 68 1 64 18
M  V30 69 1 65 18
M  V30 70 1 19 66 CFG=3
M  V30 71 1 67 21
M  V30 72 1 68 21
M  V30 73 1 69 22
M  V30 74 1 70 23
M  V30 75 1 71 24
M  V30 76 1 72 25
M  V30 77 1 73 25
M  V30 78 1 74 26
M  V30 79 1 75 28
M  V30 80 1 76 28
M  V30 81 1 77 29
M  V30 82 1 30 78 CFG=1
M  V30 83 1 79 31
M  V30 84 1 80 32
M  V30 85 1 33 81 CFG=3
M  V30 86 1 82 34
M  V30 87 1 83 34
M  V30 88 1 84 35
M  V30 89 1 85 35
M  V30 90 1 36 86 CFG=1
M  V30 91 1 37 87 CFG=1
M  V30 92 1 88 38
M  V30 93 1 89 39
M  V30 94 1 90 15
M  V30 95 1 91 38
M  V30 96 1 92 23
M  V30 97 1 93 32
M  V30 98 1 27 94 CFG=1
M  V30 END BOND
M  V30 END CTAB
M  END
>  <i_epik_Tot_Q>  (1) 
5

>  <i_epik_Tot_abs_Q>  (1) 
5

>  <i_i_glide_confnum>  (1) 
2793

>  <i_i_glide_lignum>  (1) 
39

>  <i_i_glide_posenum>  (1) 
103

>  <i_i_glide_rotatable_bonds>  (1) 
15

>  <i_lp_mmshare_version>  (1) 
72125

>  <i_m_source_file_index>  (1) 
18

>  <i_f3d_flags>  (1) 
0

>  <num_sample>  (1) 
50

>  <b_lp_Chiralities_Consistent>  (1) 
1

>  <r_epik_Charging_Adjusted_Penalty>  (1) 
1.9019841067917955

>  <r_epik_Ionization_Penalty>  (1) 
1.8906488358708171

>  <r_epik_Ionization_Penalty_Charging>  (1) 
0.55913698057276895

>  <r_epik_Ionization_Penalty_Neutral>  (1) 
1.3315118552980483

>  <r_epik_State_Penalty>  (1) 
1.3428471262190267

>  <r_glide_ring_energy>  (1) 
0.0045750838620950583

>  <r_i_docking_score>  (1) 
-6.6531347190162613

>  <r_i_glide_ecoul>  (1) 
-11.905692394819795

>  <r_i_glide_eff_state_penalty>  (1) 
1.3428471262190267

>  <r_i_glide_einternal>  (1) 
8.6312731021430267

>  <r_i_glide_emodel>  (1) 
-80.174903879210376

>  <r_i_glide_emodel_strain>  (1) 
3.2570738983490912

>  <r_i_glide_energy>  (1) 
-52.239734593901915

>  <r_i_glide_erotb>  (1) 
0.55832093698931284

>  <r_i_glide_esite>  (1) 
-0.15290687857613203

>  <r_i_glide_evdw>  (1) 
-40.33404219908212

>  <r_i_glide_gscore>  (1) 
-7.9959818452352884

>  <r_i_glide_gscore_strain>  (1) 
0

>  <r_i_glide_hbond>  (1) 
-0.34039187496991818

>  <r_i_glide_ligand_efficiency>  (1) 
-0.17059319792349387

>  <r_i_glide_ligand_efficiency_ln>  (1) 
-1.4266209442171283

>  <r_i_glide_ligand_efficiency_sa>  (1) 
-0.5785176048985331

>  <r_i_glide_lipo>  (1) 
-3.4478654602355387

>  <r_i_glide_metal>  (1) 
-0

>  <r_i_glide_rewards>  (1) 
-0.81058259926593668

>  <r_lp_Energy>  (1) 
89.857205999999991

>  <s_epik_Chemistry_Notes>  (1) 
This compound contains an acetal/aminal-like group ( X-CH(R)-Y where X, Y are N, S, or O) that may be acid/base labile, releasing an aldehyde.

>  <s_epik_cmdline>  (1) 
J2VwaWtfcHl0aG9uJywgJy1waHQnLCAnMS4wJywgJy1waCcsICc3LjQnLCAnLXRuJywgJzgnLCAnLW1hJywgJzUwMCcsICctaW1hZScsICc8aW5maWxlLm1hZT4nLCAnLW9tYWUnLCAnPG91dGZpbGUubWFlPic=

>  <s_epik_input>  (1) 
W05IXTFbQ0gyXVtDSDJdW05IXU4xW0NAQEhdKFtDSDJdW0NIXShbQ0gzXSlbQ0gzXSlbQ0BASF0oW09IXSlbTkhdW0NASF0oW0NIMl1bT0hdKVtDSDJdW0NAQEhdMltDSDJdW0NASF0oW0NIMl1bQ0gyXVtDQEBIXShOMjMpW0NIXTNbQ0gzXSlbTkhdW0NIMl1bQ0BASF0oW0NASF0oTzQpW1NIXSlbQ0BIXShDND01KVtDSF09W0NIXVtDSF09W0NIXVtDSF01

>  <s_glide_docking_method>  (1) 
confgen

>  <s_i_glide_gridfile>  (1) 
gpcr_5ht2c_6bqh_protein_autoprepared_prepared

>  <s_lp_Force_Field>  (1) 
S-OPLS

>  <s_lp_Variant>  (1) 
DiffSBDD_17-6

>  <s_m_source_file>  (1) 
generated_GPCR_5HT2C_ligand_DiffSBDD_2026-06-23_prepared.sdf

>  <GenAI_Model>  (1) 
DiffSBDD

>  <Protein>  (1) 
GPCR_5HT2C

$$$$
DiffSBDD_27
     RDKit          3D

  0  0  0  0  0  0  0  0  0  0999 V3000
M  V30 BEGIN CTAB
M  V30 COUNTS 67 69 0 0 1
M  V30 BEGIN ATOM
M  V30 1 C 40.807848 27.483573 56.878444 0
M  V30 2 C 41.305915 35.340440 60.990775 0
M  V30 3 N 40.045124 29.737661 52.182067 0
M  V30 4 C 37.822528 31.166680 57.911633 0
M  V30 5 C 37.009064 38.128928 61.483000 0
M  V30 6 C 38.015515 34.337492 61.081007 0
M  V30 7 N 36.979210 30.392855 58.848237 0 CHG=1
M  V30 8 C 37.027053 33.615246 60.298309 0
M  V30 9 O 38.040394 38.619843 60.967758 0
M  V30 10 C 39.211227 29.517262 52.953083 0
M  V30 11 C 40.407587 32.762146 63.738116 0
M  V30 12 C 38.048617 29.287781 53.842167 0 CFG=2
M  V30 13 C 39.880713 28.484476 56.170511 0 CFG=1
M  V30 14 C 38.144814 35.850284 61.089898 0
M  V30 15 C 36.845148 36.609956 61.418341 0
M  V30 16 C 36.027520 34.271388 59.385177 0
M  V30 17 S 38.383743 31.834308 61.556608 0
M  V30 18 C 37.104861 32.251610 60.477907 0
M  V30 19 C 39.905112 26.322442 57.306212 0
M  V30 20 N 37.634402 30.506486 54.567888 0
M  V30 21 O 36.095682 38.769465 62.049335 0 CHG=-1
M  V30 22 C 38.839290 33.483120 61.804624 0
M  V30 23 C 38.511032 31.031974 55.594334 0
M  V30 24 C 41.293524 34.131797 61.921093 0
M  V30 25 N 38.223167 30.289982 56.815306 0
M  V30 26 O 37.245143 27.092354 54.167290 0
M  V30 27 C 38.045163 27.927056 54.587556 0
M  V30 28 N 38.851576 27.600032 55.632248 0
M  V30 29 C 39.346769 29.464203 57.236746 0
M  V30 30 C 36.251168 31.196880 59.848282 0
M  V30 31 C 40.007831 33.843387 62.701228 0 CFG=2
M  V30 32 C 38.823731 26.266650 56.226103 0
M  V30 33 H 41.534329 27.109664 56.167775 0
M  V30 34 H 41.369504 27.912833 57.709392 0
M  V30 35 H 42.302105 35.427752 60.567754 0
M  V30 36 H 41.102836 36.268172 61.526690 0
M  V30 37 H 40.600075 35.242560 60.168113 0
M  V30 38 H 38.694544 31.588645 58.414296 0
M  V30 39 H 37.245137 32.014236 57.549139 0
M  V30 40 H 36.283160 29.926224 58.283021 0
M  V30 41 H 39.645136 32.537941 64.466819 0
M  V30 42 H 41.266665 33.082347 64.327195 0
M  V30 43 H 40.689502 31.824677 63.258096 0
M  V30 44 H 37.245419 29.151704 53.118516 0
M  V30 45 H 40.433730 29.000160 55.384282 0
M  V30 46 H 38.885474 36.174235 61.815840 0
M  V30 47 H 38.505279 36.184563 60.120121 0
M  V30 48 H 36.445053 36.258436 62.369840 0
M  V30 49 H 36.097063 36.451463 60.649479 0
M  V30 50 H 35.738928 33.626670 58.560007 0
M  V30 51 H 36.437872 35.166306 58.917111 0
M  V30 52 H 35.114723 34.537577 59.916028 0
M  V30 53 H 40.445093 25.380674 57.403028 0
M  V30 54 H 39.453575 26.541684 58.275100 0
M  V30 55 H 36.694224 30.448913 54.936779 0
M  V30 56 H 39.559062 31.028484 55.292822 0
M  V30 57 H 38.252389 32.087482 55.695192 0
M  V30 58 H 41.613062 33.242655 61.375404 0
M  V30 59 H 42.045141 34.329558 62.673837 0
M  V30 60 H 39.036817 28.896561 58.115142 0
M  V30 61 H 40.160480 30.107007 57.565292 0
M  V30 62 H 35.855212 30.537586 60.618042 0
M  V30 63 H 35.377719 31.635239 59.367738 0
M  V30 64 H 39.747366 34.735313 63.270654 0
M  V30 65 H 37.844652 26.021123 56.642929 0
M  V30 66 H 39.076432 25.521417 55.468684 0
M  V30 67 H 37.552290 29.707440 59.314622 0
M  V30 END ATOM
M  V30 BEGIN BOND
M  V30 1 1 7 4
M  V30 2 1 8 6
M  V30 3 2 9 5
M  V30 4 3 10 3
M  V30 5 1 12 10
M  V30 6 1 13 1
M  V30 7 1 14 6
M  V30 8 1 15 5
M  V30 9 1 15 14
M  V30 10 1 16 8
M  V30 11 2 18 8
M  V30 12 1 18 17
M  V30 13 1 19 1
M  V30 14 1 20 12
M  V30 15 1 21 5
M  V30 16 2 22 6
M  V30 17 1 22 17
M  V30 18 1 23 20
M  V30 19 1 24 2
M  V30 20 1 25 4
M  V30 21 1 25 23
M  V30 22 1 27 12
M  V30 23 2 27 26
M  V30 24 1 28 13
M  V30 25 1 28 27
M  V30 26 1 29 13
M  V30 27 1 29 25
M  V30 28 1 30 7
M  V30 29 1 30 18
M  V30 30 1 31 11
M  V30 31 1 31 22
M  V30 32 1 31 24
M  V30 33 1 32 19
M  V30 34 1 32 28
M  V30 35 1 33 1
M  V30 36 1 34 1
M  V30 37 1 35 2
M  V30 38 1 36 2
M  V30 39 1 37 2
M  V30 40 1 38 4
M  V30 41 1 39 4
M  V30 42 1 40 7
M  V30 43 1 41 11
M  V30 44 1 42 11
M  V30 45 1 43 11
M  V30 46 1 12 44 CFG=3
M  V30 47 1 13 45 CFG=3
M  V30 48 1 46 14
M  V30 49 1 47 14
M  V30 50 1 48 15
M  V30 51 1 49 15
M  V30 52 1 50 16
M  V30 53 1 51 16
M  V30 54 1 52 16
M  V30 55 1 53 19
M  V30 56 1 54 19
M  V30 57 1 55 20
M  V30 58 1 56 23
M  V30 59 1 57 23
M  V30 60 1 58 24
M  V30 61 1 59 24
M  V30 62 1 60 29
M  V30 63 1 61 29
M  V30 64 1 62 30
M  V30 65 1 63 30
M  V30 66 1 31 64 CFG=1
M  V30 67 1 65 32
M  V30 68 1 66 32
M  V30 69 1 67 7
M  V30 END BOND
M  V30 END CTAB
M  END
>  <i_epik_Tot_Q>  (1) 
0

>  <i_epik_Tot_abs_Q>  (1) 
2

>  <i_i_glide_confnum>  (1) 
244

>  <i_i_glide_lignum>  (1) 
61

>  <i_i_glide_posenum>  (1) 
205

>  <i_i_glide_rotatable_bonds>  (1) 
9

>  <i_lp_mmshare_version>  (1) 
72125

>  <i_m_source_file_index>  (1) 
28

>  <i_f3d_flags>  (1) 
0

>  <num_sample>  (1) 
50

>  <b_lp_Chiralities_Consistent>  (1) 
1

>  <r_epik_Charging_Adjusted_Penalty>  (1) 
0.0027323958996878029

>  <r_epik_Ionization_Penalty>  (1) 
0.002819485543525381

>  <r_epik_Ionization_Penalty_Charging>  (1) 
0.0027323958996878029

>  <r_epik_Ionization_Penalty_Neutral>  (1) 
8.708964383757816e-05

>  <r_epik_State_Penalty>  (1) 
-0

>  <r_glide_ring_energy>  (1) 
0

>  <r_i_docking_score>  (1) 
-6.6422217342190786

>  <r_i_glide_ecoul>  (1) 
-2.1076364470448388

>  <r_i_glide_eff_state_penalty>  (1) 
-0

>  <r_i_glide_einternal>  (1) 
10.974462357924139

>  <r_i_glide_emodel>  (1) 
-52.311591702318921

>  <r_i_glide_emodel_strain>  (1) 
2.1862932968846067

>  <r_i_glide_energy>  (1) 
-44.409894707774107

>  <r_i_glide_erotb>  (1) 
0.66148182558323176

>  <r_i_glide_esite>  (1) 
-0.22894101378745335

>  <r_i_glide_evdw>  (1) 
-42.302258260729268

>  <r_i_glide_gscore>  (1) 
-6.6422217342190786

>  <r_i_glide_gscore_strain>  (1) 
0

>  <r_i_glide_hbond>  (1) 
0

>  <r_i_glide_ligand_efficiency>  (1) 
-0.20756942919434621

>  <r_i_glide_ligand_efficiency_ln>  (1) 
-1.4873745064178192

>  <r_i_glide_ligand_efficiency_sa>  (1) 
-0.65899186051908787

>  <r_i_glide_lipo>  (1) 
-2.675634522582496

>  <r_i_glide_metal>  (1) 
-0

>  <r_i_glide_rewards>  (1) 
-1.9678696433391714

>  <r_lp_Energy>  (1) 
41.659236

>  <r_lp_tautomer_probability>  (1) 
1

>  <s_epik_Chemistry_Notes>  (1) 
This compound contains an acetal/aminal-like group ( X-CH(R)-Y where X, Y are N, S, or O) that may be acid/base labile, releasing an aldehyde.

>  <s_epik_cmdline>  (1) 
J2VwaWtfcHl0aG9uJywgJy1waHQnLCAnMS4wJywgJy1waCcsICc3LjQnLCAnLXRuJywgJzgnLCAnLW1hJywgJzUwMCcsICctaW1hZScsICc8aW5maWxlLm1hZT4nLCAnLW9tYWUnLCAnPG91dGZpbGUubWFlPic=

>  <s_epik_input>  (1) 
W0NIMl0xW0NIMl1bQ0gyXU4oW0NASF0xMilDKD1PKVtDQEBIXShDI04pW05IXVtDSDJdTihbQ0gyXTIpW0NIMl1bTkhdW0NIMl1jKHNjM1tDQEBIXShbQ0gzXSlbQ0gyXVtDSDNdKWMoW0NIM10pYzNbQ0gyXVtDSDJdQyg9TylbT0hd

>  <s_glide_docking_method>  (1) 
confgen

>  <s_i_glide_gridfile>  (1) 
gpcr_5ht2c_6bqh_protein_autoprepared_prepared

>  <s_lp_Force_Field>  (1) 
S-OPLS

>  <s_lp_Variant>  (1) 
DiffSBDD_27-2

>  <s_m_source_file>  (1) 
generated_GPCR_5HT2C_ligand_DiffSBDD_2026-06-23_prepared.sdf

>  <GenAI_Model>  (1) 
DiffSBDD

>  <Protein>  (1) 
GPCR_5HT2C

$$$$
DiffSBDD_19
     RDKit          3D

  0  0  0  0  0  0  0  0  0  0999 V3000
M  V30 BEGIN CTAB
M  V30 COUNTS 70 72 0 0 1
M  V30 BEGIN ATOM
M  V30 1 O 40.089061 28.335288 56.000518 0
M  V30 2 C 38.074428 28.735750 53.726227 0
M  V30 3 C 38.601023 36.783457 61.772395 0
M  V30 4 C 39.670876 29.725969 52.182344 0
M  V30 5 C 38.066287 29.955302 54.487211 0
M  V30 6 C 37.251494 27.534251 54.131564 0
M  V30 7 C 41.597124 28.044327 58.389673 0
M  V30 8 C 37.814748 31.665753 60.411704 0
M  V30 9 C 39.248176 35.770157 62.688530 0 CFG=2
M  V30 10 N 40.665300 36.039389 62.945357 0
M  V30 11 F 41.644223 28.975046 51.367764 0
M  V30 12 C 38.872563 31.030811 54.071479 0
M  V30 13 F 39.957979 28.913541 49.990369 0
M  V30 14 C 41.143951 35.266345 64.075262 0
M  V30 15 C 37.400263 32.797037 59.460300 0 CFG=2
M  V30 16 C 39.076159 32.620419 57.463150 0
M  V30 17 C 38.075982 28.430045 57.354189 0
M  V30 18 O 40.250282 28.489464 58.301033 0
M  V30 19 O 38.827965 37.986993 61.766382 0
M  V30 20 C 38.876756 28.641724 52.579806 0
M  V30 21 C 39.538496 27.954232 57.238306 0 CFG=2
M  V30 22 C 37.208128 30.126595 55.739725 0
M  V30 23 N 37.827808 34.740785 60.991742 0
M  V30 24 C 40.545697 29.607189 50.964994 0
M  V30 25 C 39.670242 30.913103 52.927519 0
M  V30 26 C 37.686889 32.280994 58.034516 0 CFG=1
M  V30 27 O 42.443949 35.737609 64.307269 0
M  V30 28 C 37.992552 30.413381 59.549186 0
M  V30 29 C 37.417342 30.738264 58.156250 0 CFG=2
M  V30 30 N 37.788517 36.124279 60.961937 0
M  V30 31 N 37.928558 29.879713 57.027337 0 CFG=1 CHG=1
M  V30 32 C 38.979929 34.475918 61.890129 0
M  V30 33 N 38.047709 34.100447 59.725402 0 CHG=1
M  V30 34 H 39.850289 27.696621 55.344855 0
M  V30 35 H 37.035911 26.937195 53.244619 0
M  V30 36 H 37.818233 26.886412 54.799448 0
M  V30 37 H 36.310672 27.784270 54.567716 0
M  V30 38 H 42.044599 28.449063 59.295790 0
M  V30 39 H 41.656310 26.955190 58.432379 0
M  V30 40 H 42.191646 28.394119 57.543467 0
M  V30 41 H 38.744820 31.875231 60.937532 0
M  V30 42 H 37.040013 31.513543 61.164629 0
M  V30 43 H 38.685424 35.797967 63.620035 0
M  V30 44 H 41.250234 35.903241 62.133720 0
M  V30 45 H 38.878027 31.951418 54.634830 0
M  V30 46 H 41.159611 34.198171 63.851826 0
M  V30 47 H 40.536628 35.432540 64.966430 0
M  V30 48 H 36.320612 32.934986 59.547531 0
M  V30 49 H 39.645179 31.720901 57.251025 0
M  V30 50 H 38.975278 33.174213 56.526221 0
M  V30 51 H 39.671877 33.246279 58.117611 0
M  V30 52 H 37.723379 28.173381 58.350311 0
M  V30 53 H 37.459134 27.815829 56.711323 0
M  V30 54 H 38.890947 27.725058 52.006318 0
M  V30 55 H 39.588614 26.864645 57.295615 0
M  V30 56 H 36.199243 29.738381 55.682145 0
M  V30 57 H 37.010436 31.194744 55.705896 0
M  V30 58 H 40.827367 30.584172 50.567943 0
M  V30 59 H 40.285039 31.737419 52.616173 0
M  V30 60 H 37.023267 32.853642 57.388899 0
M  V30 61 H 42.388237 36.660644 64.548074 0
M  V30 62 H 39.056254 30.196174 59.492299 0
M  V30 63 H 37.501903 29.559757 60.016063 0
M  V30 64 H 36.350123 30.537329 58.226878 0
M  V30 65 H 37.194781 36.588241 60.290782 0
M  V30 66 H 39.866360 34.229676 61.302065 0
M  V30 67 H 38.774745 33.627296 62.545556 0
M  V30 68 H 37.740371 34.758719 59.022566 0
M  V30 69 H 39.047265 33.985286 59.650630 0
M  V30 70 H 38.880484 30.176890 56.859297 0
M  V30 END ATOM
M  V30 BEGIN BOND
M  V30 1 2 5 2
M  V30 2 1 6 2
M  V30 3 1 9 3
M  V30 4 1 10 9
M  V30 5 1 12 5
M  V30 6 1 14 10
M  V30 7 1 15 8
M  V30 8 1 18 7
M  V30 9 2 19 3
M  V30 10 1 20 2
M  V30 11 2 20 4
M  V30 12 1 21 1
M  V30 13 1 21 17
M  V30 14 1 21 18
M  V30 15 1 22 5
M  V30 16 1 24 4
M  V30 17 1 24 11
M  V30 18 1 24 13
M  V30 19 1 25 4
M  V30 20 2 25 12
M  V30 21 1 26 15
M  V30 22 1 26 16
M  V30 23 1 27 14
M  V30 24 1 28 8
M  V30 25 1 29 26
M  V30 26 1 29 28
M  V30 27 1 30 3
M  V30 28 1 30 23
M  V30 29 1 31 17
M  V30 30 1 31 22
M  V30 31 1 31 29
M  V30 32 1 32 9
M  V30 33 1 32 23
M  V30 34 1 33 15
M  V30 35 1 33 23
M  V30 36 1 34 1
M  V30 37 1 35 6
M  V30 38 1 36 6
M  V30 39 1 37 6
M  V30 40 1 38 7
M  V30 41 1 39 7
M  V30 42 1 40 7
M  V30 43 1 41 8
M  V30 44 1 42 8
M  V30 45 1 9 43 CFG=1
M  V30 46 1 44 10
M  V30 47 1 45 12
M  V30 48 1 46 14
M  V30 49 1 47 14
M  V30 50 1 15 48 CFG=3
M  V30 51 1 49 16
M  V30 52 1 50 16
M  V30 53 1 51 16
M  V30 54 1 52 17
M  V30 55 1 53 17
M  V30 56 1 54 20
M  V30 57 1 21 55 CFG=1
M  V30 58 1 56 22
M  V30 59 1 57 22
M  V30 60 1 58 24
M  V30 61 1 59 25
M  V30 62 1 26 60 CFG=3
M  V30 63 1 61 27
M  V30 64 1 62 28
M  V30 65 1 63 28
M  V30 66 1 29 64 CFG=1
M  V30 67 1 65 30
M  V30 68 1 66 32
M  V30 69 1 67 32
M  V30 70 1 68 33
M  V30 71 1 69 33
M  V30 72 1 31 70 CFG=3
M  V30 END BOND
M  V30 END CTAB
M  END
>  <i_epik_Tot_Q>  (1) 
2

>  <i_epik_Tot_abs_Q>  (1) 
2

>  <i_i_glide_confnum>  (1) 
12

>  <i_i_glide_lignum>  (1) 
45

>  <i_i_glide_posenum>  (1) 
273

>  <i_i_glide_rotatable_bonds>  (1) 
13

>  <i_lp_mmshare_version>  (1) 
72125

>  <i_m_source_file_index>  (1) 
20

>  <i_f3d_flags>  (1) 
0

>  <num_sample>  (1) 
50

>  <b_lp_Chiralities_Consistent>  (1) 
1

>  <r_epik_Charging_Adjusted_Penalty>  (1) 
1.2214648146791087

>  <r_epik_Ionization_Penalty>  (1) 
0.73374573973567592

>  <r_epik_Ionization_Penalty_Charging>  (1) 
0.65422063123481433

>  <r_epik_Ionization_Penalty_Neutral>  (1) 
0.079525108500861627

>  <r_epik_State_Penalty>  (1) 
0.56724418344429428

>  <r_glide_ring_energy>  (1) 
0

>  <r_i_docking_score>  (1) 
-6.6244452114195065

>  <r_i_glide_ecoul>  (1) 
-9.2837099454012808

>  <r_i_glide_eff_state_penalty>  (1) 
0.56724418344429428

>  <r_i_glide_einternal>  (1) 
4.6803853337434465

>  <r_i_glide_emodel>  (1) 
-59.661893752446758

>  <r_i_glide_emodel_strain>  (1) 
5.128159547038365

>  <r_i_glide_energy>  (1) 
-40.945838998301099

>  <r_i_glide_erotb>  (1) 
0.81178529684743594

>  <r_i_glide_esite>  (1) 
-0.06155892572685448

>  <r_i_glide_evdw>  (1) 
-31.662129052899822

>  <r_i_glide_gscore>  (1) 
-7.1916893948638005

>  <r_i_glide_gscore_strain>  (1) 
0.28203988675959124

>  <r_i_glide_hbond>  (1) 
-0.32000000000000001

>  <r_i_glide_ligand_efficiency>  (1) 
-0.20074076398240928

>  <r_i_glide_ligand_efficiency_ln>  (1) 
-1.4732423154780654

>  <r_i_glide_ligand_efficiency_sa>  (1) 
-0.64388289190316761

>  <r_i_glide_lipo>  (1) 
-2.8211346721041397

>  <r_i_glide_metal>  (1) 
-0

>  <r_i_glide_rewards>  (1) 
-2.1071580361846496

>  <r_lp_Energy>  (1) 
45.336860000000001

>  <s_epik_Chemistry_Notes>  (1) 
This compound contains an acetal/aminal-like group ( X-CH(R)-Y where X, Y are N, S, or O) that may be acid/base labile, releasing an aldehyde.

>  <s_epik_cmdline>  (1) 
J2VwaWtfcHl0aG9uJywgJy1waHQnLCAnMS4wJywgJy1waCcsICc3LjQnLCAnLXRuJywgJzgnLCAnLW1hJywgJzUwMCcsICctaW1hZScsICc8aW5maWxlLm1hZT4nLCAnLW9tYWUnLCAnPG91dGZpbGUubWFlPic=

>  <s_epik_input>  (1) 
RltDSF0oRiljKFtjSF0xKVtjSF1bY0hdYyhjMVtDSDNdKVtDSDJdTihbQ0gyXVtDQEBIXShbT0hdKU9bQ0gzXSlbQ0BIXShbQ0BASF0yW0NIM10pW0NIMl1bQ0gyXVtDQEhdMltOSF1OKFtOSF0zKVtDSDJdW0NASF0oQzM9TylbTkhdW0NIMl1bT0hd

>  <s_glide_docking_method>  (1) 
confgen

>  <s_i_glide_gridfile>  (1) 
gpcr_5ht2c_6bqh_protein_autoprepared_prepared

>  <s_lp_Force_Field>  (1) 
S-OPLS

>  <s_lp_Variant>  (1) 
DiffSBDD_19-4

>  <s_m_source_file>  (1) 
generated_GPCR_5HT2C_ligand_DiffSBDD_2026-06-23_prepared.sdf

>  <GenAI_Model>  (1) 
DiffSBDD

>  <Protein>  (1) 
GPCR_5HT2C

$$$$
DiffSBDD_25
     RDKit          3D

  0  0  0  0  0  0  0  0  0  0999 V3000
M  V30 BEGIN CTAB
M  V30 COUNTS 36 36 0 0 1
M  V30 BEGIN ATOM
M  V30 1 C 38.445135 27.974482 51.532086 0
M  V30 2 O 39.133621 26.119821 58.465680 0
M  V30 3 C 38.475456 25.559224 57.588467 0
M  V30 4 C 39.936898 28.304125 51.618840 0
M  V30 5 C 38.886821 27.943563 55.025118 0
M  V30 6 C 39.595114 26.832607 55.808954 0
M  V30 7 C 37.447418 24.498567 57.973561 0
M  V30 8 C 40.416211 30.771086 51.273360 0
M  V30 9 C 37.494785 26.105901 54.066964 0
M  V30 10 N 38.618767 25.839942 56.269772 0
M  V30 11 C 37.968991 27.357146 53.967921 0
M  V30 12 C 40.446802 30.697791 49.767760 0
M  V30 13 C 40.192015 29.729633 52.084645 0
M  V30 14 C 37.811583 25.173609 55.224362 0
M  V30 15 C 37.617496 28.265585 52.801956 0
M  V30 16 H 38.324618 26.931146 51.248547 0
M  V30 17 H 38.045139 28.537754 50.697511 0
M  V30 18 H 40.412126 27.607041 52.302298 0
M  V30 19 H 40.413579 28.112925 50.659070 0
M  V30 20 H 39.645128 28.575425 54.585392 0
M  V30 21 H 38.295703 28.572586 55.692014 0
M  V30 22 H 40.311943 26.324133 55.162191 0
M  V30 23 H 40.185822 27.276400 56.611537 0
M  V30 24 H 37.490974 23.618313 57.334994 0
M  V30 25 H 37.645137 24.147310 58.981597 0
M  V30 26 H 36.445258 24.927524 57.945783 0
M  V30 27 H 40.589318 31.737755 51.706829 0
M  V30 28 H 36.845134 25.718453 53.297845 0
M  V30 29 H 41.468640 30.823348 49.408540 0
M  V30 30 H 40.042616 29.773058 49.360839 0
M  V30 31 H 39.844684 31.513538 49.367760 0
M  V30 32 H 40.187651 29.896569 53.146441 0
M  V30 33 H 36.837492 24.838182 55.578197 0
M  V30 34 H 38.344943 24.298844 54.851665 0
M  V30 35 H 36.562036 28.124388 52.567741 0
M  V30 36 H 37.704194 29.308518 53.107188 0
M  V30 END ATOM
M  V30 BEGIN BOND
M  V30 1 2 3 2
M  V30 2 1 4 1
M  V30 3 1 6 5
M  V30 4 1 7 3
M  V30 5 1 10 3
M  V30 6 1 10 6
M  V30 7 1 11 5
M  V30 8 2 11 9
M  V30 9 1 12 8
M  V30 10 1 13 4
M  V30 11 2 13 8
M  V30 12 1 14 9
M  V30 13 1 14 10
M  V30 14 1 15 1
M  V30 15 1 15 11
M  V30 16 1 16 1
M  V30 17 1 17 1
M  V30 18 1 18 4
M  V30 19 1 19 4
M  V30 20 1 20 5
M  V30 21 1 21 5
M  V30 22 1 22 6
M  V30 23 1 23 6
M  V30 24 1 24 7
M  V30 25 1 25 7
M  V30 26 1 26 7
M  V30 27 1 27 8
M  V30 28 1 28 9
M  V30 29 1 29 12
M  V30 30 1 30 12
M  V30 31 1 31 12
M  V30 32 1 32 13
M  V30 33 1 33 14
M  V30 34 1 34 14
M  V30 35 1 35 15
M  V30 36 1 36 15
M  V30 END BOND
M  V30 END CTAB
M  END
>  <i_epik_Tot_Q>  (1) 
0

>  <i_epik_Tot_abs_Q>  (1) 
0

>  <i_i_glide_confnum>  (1) 
143

>  <i_i_glide_lignum>  (1) 
55

>  <i_i_glide_posenum>  (1) 
137

>  <i_i_glide_rotatable_bonds>  (1) 
5

>  <i_lp_mmshare_version>  (1) 
72125

>  <i_m_source_file_index>  (1) 
26

>  <i_f3d_flags>  (1) 
0

>  <num_sample>  (1) 
50

>  <b_lp_Chiralities_Consistent>  (1) 
1

>  <r_epik_Charging_Adjusted_Penalty>  (1) 
0

>  <r_epik_Ionization_Penalty>  (1) 
4.9398685500853885e-07

>  <r_epik_Ionization_Penalty_Charging>  (1) 
0

>  <r_epik_Ionization_Penalty_Neutral>  (1) 
4.9398685500853885e-07

>  <r_epik_State_Penalty>  (1) 
-0

>  <r_glide_ring_energy>  (1) 
0.0018408793270636059

>  <r_i_docking_score>  (1) 
-6.6180561453912405

>  <r_i_glide_ecoul>  (1) 
-0.41794659711530202

>  <r_i_glide_eff_state_penalty>  (1) 
-0

>  <r_i_glide_einternal>  (1) 
4.5141950515384881

>  <r_i_glide_emodel>  (1) 
-37.646220318668341

>  <r_i_glide_emodel_strain>  (1) 
0

>  <r_i_glide_energy>  (1) 
-28.333967493844675

>  <r_i_glide_erotb>  (1) 
1.5381532010122589

>  <r_i_glide_esite>  (1) 
0

>  <r_i_glide_evdw>  (1) 
-27.916020896729371

>  <r_i_glide_gscore>  (1) 
-6.6180561453912405

>  <r_i_glide_gscore_strain>  (1) 
0

>  <r_i_glide_hbond>  (1) 
0

>  <r_i_glide_ligand_efficiency>  (1) 
-0.44120374302608273

>  <r_i_glide_ligand_efficiency_ln>  (1) 
-1.7847806222860838

>  <r_i_glide_ligand_efficiency_sa>  (1) 
-1.0881019982907232

>  <r_i_glide_lipo>  (1) 
-3.423534431022377

>  <r_i_glide_metal>  (1) 
-0

>  <r_i_glide_rewards>  (1) 
-3.2741818809773591

>  <r_lp_Energy>  (1) 
14.880616

>  <r_lp_tautomer_probability>  (1) 
1

>  <s_epik_cmdline>  (1) 
J2VwaWtfcHl0aG9uJywgJy1waHQnLCAnMS4wJywgJy1waCcsICc3LjQnLCAnLXRuJywgJzgnLCAnLW1hJywgJzUwMCcsICctaW1hZScsICc8aW5maWxlLm1hZT4nLCAnLW9tYWUnLCAnPG91dGZpbGUubWFlPic=

>  <s_epik_input>  (1) 
W0NIM10vW0NIXT1bQ0hdXFtDSDJdW0NIMl1bQ0gyXUMoPVtDSF1bQ0gyXTEpW0NIMl1bQ0gyXU4xQyg9TylbQ0gzXQ==

>  <s_glide_docking_method>  (1) 
confgen

>  <s_i_glide_gridfile>  (1) 
gpcr_5ht2c_6bqh_protein_autoprepared_prepared

>  <s_lp_Force_Field>  (1) 
S-OPLS

>  <s_lp_Variant>  (1) 
DiffSBDD_25-2

>  <s_m_source_file>  (1) 
generated_GPCR_5HT2C_ligand_DiffSBDD_2026-06-23_prepared.sdf

>  <GenAI_Model>  (1) 
DiffSBDD

>  <Protein>  (1) 
GPCR_5HT2C

$$$$
DiffSBDD_2
     RDKit          3D

  0  0  0  0  0  0  0  0  0  0999 V3000
M  V30 BEGIN CTAB
M  V30 COUNTS 85 88 0 0 1
M  V30 BEGIN ATOM
M  V30 1 C 42.112824 29.339380 64.722815 0 CFG=1
M  V30 2 C 38.050112 27.982708 55.436622 0
M  V30 3 C 37.295733 33.739246 57.788688 0
M  V30 4 C 40.229721 30.758514 65.535735 0
M  V30 5 C 38.516046 29.110728 55.903836 0
M  V30 6 C 40.278585 32.242814 62.696007 0
M  V30 7 C 37.931213 28.563835 58.300200 0 CFG=2
M  V30 8 C 43.578594 29.273495 66.719402 0
M  V30 9 C 39.695541 32.436732 61.277186 0
M  V30 10 C 37.654836 30.910737 58.792981 0 CFG=1
M  V30 11 N 38.560834 29.393451 57.266657 0
M  V30 12 C 41.499969 28.099858 64.036453 0
M  V30 13 C 38.425311 27.714351 52.410855 0
M  V30 14 C 37.443469 29.527759 59.406235 0
M  V30 15 N 37.725848 32.122908 59.663301 0 CFG=1 CHG=1
M  V30 16 C 39.245855 29.982500 53.444478 0
M  V30 17 C 37.657027 26.889118 54.844365 0
M  V30 18 C 38.830831 30.671911 57.887126 0
M  V30 19 C 38.216834 31.991790 61.068683 0 CFG=2
M  V30 20 C 37.813868 26.651250 53.356323 0
M  V30 21 C 39.085597 30.208151 54.967670 0
M  V30 22 C 40.341216 27.827025 59.054089 0
M  V30 23 C 44.406760 28.896996 65.495367 0
M  V30 24 C 40.584621 28.452225 60.425844 0
M  V30 25 C 40.737700 30.807533 63.020409 0
M  V30 26 C 38.864099 27.430427 58.818882 0 CFG=2
M  V30 27 C 43.606616 29.476701 64.326971 0
M  V30 28 F 38.526061 27.421950 51.105558 0
M  V30 29 S 40.988082 30.237692 67.081604 0
M  V30 30 C 38.810731 26.151279 57.977294 0
M  V30 31 C 37.226996 32.774586 61.926894 0
M  V30 32 C 38.852593 28.890472 52.820553 0
M  V30 33 C 41.305697 30.647935 64.452053 0 CFG=2
M  V30 34 C 38.191707 33.352229 58.962222 0
M  V30 35 C 42.129370 29.100370 66.257440 0 CFG=1
M  V30 36 H 37.645135 34.677170 57.365293 0
M  V30 37 H 37.303707 33.006864 56.983017 0
M  V30 38 H 36.264492 33.877102 58.114018 0
M  V30 39 H 39.859915 31.777325 65.633647 0
M  V30 40 H 39.381066 30.110480 65.320391 0
M  V30 41 H 41.150064 32.892256 62.787498 0
M  V30 42 H 39.580406 32.605528 63.447013 0
M  V30 43 H 37.031333 28.113235 57.879393 0
M  V30 44 H 43.771916 30.314475 66.981423 0
M  V30 45 H 43.814382 28.661999 67.591480 0
M  V30 46 H 40.342229 31.923000 60.568026 0
M  V30 47 H 39.791434 33.498347 61.048789 0
M  V30 48 H 36.800374 31.070444 58.167708 0
M  V30 49 H 42.010624 27.185485 64.340871 0
M  V30 50 H 40.444679 27.983253 64.280855 0
M  V30 51 H 41.594240 28.156693 62.955689 0
M  V30 52 H 38.044288 29.341568 60.287073 0
M  V30 53 H 36.398340 29.382296 59.677770 0
M  V30 54 H 39.694308 30.796090 52.892626 0
M  V30 55 H 37.236000 26.074117 55.413715 0
M  V30 56 H 39.656329 30.538175 58.552659 0
M  V30 57 H 39.033407 31.483042 57.191929 0
M  V30 58 H 38.129650 30.977751 61.437278 0
M  V30 59 H 38.446603 25.772494 53.367563 0
M  V30 60 H 36.845687 26.342923 52.972718 0
M  V30 61 H 38.447913 31.088178 55.065767 0
M  V30 62 H 40.068127 30.493762 55.342373 0
M  V30 63 H 40.963906 26.938332 58.967920 0
M  V30 64 H 40.724106 28.478266 58.270039 0
M  V30 65 H 45.425243 29.284428 65.545328 0
M  V30 66 H 44.468187 27.810664 65.405840 0
M  V30 67 H 41.644089 28.482790 60.647366 0
M  V30 68 H 40.220901 29.473680 60.469799 0
M  V30 69 H 40.100213 27.876912 61.215892 0
M  V30 70 H 39.913845 30.109332 62.870228 0
M  V30 71 H 41.512199 30.530886 62.306113 0
M  V30 72 H 38.444887 27.116020 59.767861 0
M  V30 73 H 43.887542 30.523613 64.211504 0
M  V30 74 H 43.848068 28.987982 63.381672 0
M  V30 75 H 39.366339 26.248986 57.046257 0
M  V30 76 H 39.276149 25.338238 58.525199 0
M  V30 77 H 37.788003 25.854206 57.750911 0
M  V30 78 H 37.381965 32.535477 62.967784 0
M  V30 79 H 37.325554 33.851770 61.790392 0
M  V30 80 H 36.195031 32.501965 61.700910 0
M  V30 81 H 41.979413 31.486313 64.630535 0
M  V30 82 H 38.179371 34.195426 59.652288 0
M  V30 83 H 39.225009 33.246513 58.629506 0
M  V30 84 H 41.803212 28.084552 66.489538 0
M  V30 85 H 36.742125 32.303262 59.810066 0
M  V30 END ATOM
M  V30 BEGIN BOND
M  V30 1 2 5 2
M  V30 2 1 9 6
M  V30 3 1 11 5
M  V30 4 1 11 7
M  V30 5 1 1 12 CFG=3
M  V30 6 1 14 7
M  V30 7 1 14 10
M  V30 8 1 15 10
M  V30 9 2 17 2
M  V30 10 1 18 10
M  V30 11 1 18 11
M  V30 12 1 19 9
M  V30 13 1 19 15
M  V30 14 1 20 13
M  V30 15 1 20 17
M  V30 16 1 21 5
M  V30 17 1 21 16
M  V30 18 1 23 8
M  V30 19 1 24 22
M  V30 20 1 25 6
M  V30 21 1 26 7
M  V30 22 1 26 22
M  V30 23 1 27 1
M  V30 24 1 27 23
M  V30 25 1 28 13
M  V30 26 1 29 4
M  V30 27 1 30 26
M  V30 28 1 31 19
M  V30 29 2 32 13
M  V30 30 2 32 16
M  V30 31 1 33 1
M  V30 32 1 33 4
M  V30 33 1 33 25
M  V30 34 1 34 3
M  V30 35 1 34 15
M  V30 36 1 35 1
M  V30 37 1 35 8
M  V30 38 1 35 29
M  V30 39 1 36 3
M  V30 40 1 37 3
M  V30 41 1 38 3
M  V30 42 1 39 4
M  V30 43 1 40 4
M  V30 44 1 41 6
M  V30 45 1 42 6
M  V30 46 1 7 43 CFG=3
M  V30 47 1 44 8
M  V30 48 1 45 8
M  V30 49 1 46 9
M  V30 50 1 47 9
M  V30 51 1 10 48 CFG=3
M  V30 52 1 49 12
M  V30 53 1 50 12
M  V30 54 1 51 12
M  V30 55 1 52 14
M  V30 56 1 53 14
M  V30 57 1 54 16
M  V30 58 1 55 17
M  V30 59 1 56 18
M  V30 60 1 57 18
M  V30 61 1 19 58 CFG=1
M  V30 62 1 59 20
M  V30 63 1 60 20
M  V30 64 1 61 21
M  V30 65 1 62 21
M  V30 66 1 63 22
M  V30 67 1 64 22
M  V30 68 1 65 23
M  V30 69 1 66 23
M  V30 70 1 67 24
M  V30 71 1 68 24
M  V30 72 1 69 24
M  V30 73 1 70 25
M  V30 74 1 71 25
M  V30 75 1 26 72 CFG=1
M  V30 76 1 73 27
M  V30 77 1 74 27
M  V30 78 1 75 30
M  V30 79 1 76 30
M  V30 80 1 77 30
M  V30 81 1 78 31
M  V30 82 1 79 31
M  V30 83 1 80 31
M  V30 84 1 33 81 CFG=1
M  V30 85 1 82 34
M  V30 86 1 83 34
M  V30 87 1 35 84 CFG=3
M  V30 88 1 15 85 CFG=1
M  V30 END BOND
M  V30 END CTAB
M  END
>  <i_epik_Tot_Q>  (1) 
1

>  <i_epik_Tot_abs_Q>  (1) 
1

>  <i_i_glide_confnum>  (1) 
1619

>  <i_i_glide_lignum>  (1) 
9

>  <i_i_glide_posenum>  (1) 
376

>  <i_i_glide_rotatable_bonds>  (1) 
10

>  <i_lp_mmshare_version>  (1) 
72125

>  <i_m_source_file_index>  (1) 
3

>  <i_f3d_flags>  (1) 
0

>  <num_sample>  (1) 
50

>  <b_lp_Chiralities_Consistent>  (1) 
1

>  <r_epik_Charging_Adjusted_Penalty>  (1) 
0.074245454784308482

>  <r_epik_Ionization_Penalty>  (1) 
0.013686655559845946

>  <r_epik_Ionization_Penalty_Charging>  (1) 
0.012771505238954846

>  <r_epik_Ionization_Penalty_Neutral>  (1) 
0.00091515032089109971

>  <r_epik_State_Penalty>  (1) 
0.06147394954535363

>  <r_glide_ring_energy>  (1) 
1.3016869551617385

>  <r_i_docking_score>  (1) 
-6.6115727911556634

>  <r_i_glide_ecoul>  (1) 
-0.56488063975119962

>  <r_i_glide_eff_state_penalty>  (1) 
0.06147394954535363

>  <r_i_glide_einternal>  (1) 
9.434991464958685

>  <r_i_glide_emodel>  (1) 
-39.779596929241968

>  <r_i_glide_emodel_strain>  (1) 
2.2221969248000164

>  <r_i_glide_energy>  (1) 
-40.901233155122547

>  <r_i_glide_erotb>  (1) 
0.64899532480163924

>  <r_i_glide_esite>  (1) 
-0.039701638935384864

>  <r_i_glide_evdw>  (1) 
-40.336352515371345

>  <r_i_glide_gscore>  (1) 
-6.6730467407010172

>  <r_i_glide_gscore_strain>  (1) 
0

>  <r_i_glide_hbond>  (1) 
0

>  <r_i_glide_ligand_efficiency>  (1) 
-0.18890207974730466

>  <r_i_glide_ligand_efficiency_ln>  (1) 
-1.4513869636108441

>  <r_i_glide_ligand_efficiency_sa>  (1) 
-0.61791122898596673

>  <r_i_glide_lipo>  (1) 
-4.1964503191072993

>  <r_i_glide_metal>  (1) 
-0

>  <r_i_glide_rewards>  (1) 
-0.98434038572872451

>  <r_lp_Energy>  (1) 
19.396519999999999

>  <s_epik_cmdline>  (1) 
J2VwaWtfcHl0aG9uJywgJy1waHQnLCAnMS4wJywgJy1waCcsICc3LjQnLCAnLXRuJywgJzgnLCAnLW1hJywgJzUwMCcsICctaW1hZScsICc8aW5maWxlLm1hZT4nLCAnLW9tYWUnLCAnPG91dGZpbGUubWFlPic=

>  <s_epik_input>  (1) 
W0NIMl0xW0NIMl1bQ0gyXVtDQEhdKFtDQF0xMltDSDNdKVNbQ0gyXVtDQEBIXTJbQ0gyXVtDSDJdW0NIMl1bQ0BASF0oW0NIM10pTihbQ0gyXVtDSDNdKVtDQEhdKFtDSDJdMylbQ0gyXU4oW0NASF0zW0NAQEhdKFtDSDNdKVtDSDJdW0NIM10pQzQ9Qz1bQ0hdW0NIMl1DKEYpPUM9W0NIXVtDSDJdNA==

>  <s_glide_docking_method>  (1) 
confgen

>  <s_i_glide_gridfile>  (1) 
gpcr_5ht2c_6bqh_protein_autoprepared_prepared

>  <s_lp_Force_Field>  (1) 
S-OPLS

>  <s_lp_Variant>  (1) 
DiffSBDD_2-1

>  <s_m_source_file>  (1) 
generated_GPCR_5HT2C_ligand_DiffSBDD_2026-06-23_prepared.sdf

>  <GenAI_Model>  (1) 
DiffSBDD

>  <Protein>  (1) 
GPCR_5HT2C

$$$$
DiffSBDD_1
     RDKit          3D

  0  0  0  0  0  0  0  0  0  0999 V3000
M  V30 BEGIN CTAB
M  V30 COUNTS 78 81 0 0 1
M  V30 BEGIN ATOM
M  V30 1 C 39.768390 28.531906 61.351347 0
M  V30 2 N 38.952701 27.361890 56.754453 0
M  V30 3 C 37.862288 30.794654 55.410577 0 CFG=1
M  V30 4 C 38.473508 30.141379 54.174976 0
M  V30 5 C 45.237220 30.537756 65.367858 0
M  V30 6 C 40.718150 31.901933 62.732983 0
M  V30 7 C 38.026529 29.773397 56.543466 0
M  V30 8 C 38.973490 28.662463 56.014619 0 CFG=2
M  V30 9 C 43.239267 31.476857 67.515374 0
M  V30 10 N 40.853985 30.493469 62.404831 0
M  V30 11 O 42.444549 26.419023 66.745922 0
M  V30 12 C 40.175245 30.823554 63.647128 0 CFG=1
M  V30 13 C 42.475432 31.765449 66.282285 0 CFG=2
M  V30 14 O 41.015576 31.447400 66.359294 0
M  V30 15 C 41.034796 24.957722 65.469333 0
M  V30 16 C 39.645149 32.242748 56.171338 0
M  V30 17 C 42.732748 30.628420 65.408785 0
M  V30 18 C 38.403833 27.388116 58.123083 0
M  V30 19 C 40.841960 27.461384 65.296386 0
M  V30 20 O 43.805299 29.033145 64.167809 0
M  V30 21 O 40.045437 26.190884 55.126199 0
M  V30 22 C 40.445104 28.729611 66.065925 0
M  V30 23 O 38.349924 32.116856 55.622610 0
M  V30 24 O 44.991949 32.937230 68.094228 0
M  V30 25 P 41.074607 30.209952 65.136867 0 CFG=2 CHG=1
M  V30 26 C 41.141593 26.280747 66.219480 0 CFG=2
M  V30 27 C 43.886562 30.080551 64.997069 0
M  V30 28 C 37.471770 27.825906 54.043095 0
M  V30 29 O 38.852533 28.137749 60.346584 0
M  V30 30 C 39.519539 26.229140 56.236932 0
M  V30 31 C 39.486653 24.961325 57.102557 0
M  V30 32 C 45.586961 31.406591 66.371462 0
M  V30 33 C 44.646204 32.018162 67.364886 0
M  V30 34 C 39.462233 27.931949 59.088885 0
M  V30 35 C 38.689734 28.657847 54.491677 0 CFG=1
M  V30 36 C 39.937365 30.053881 61.361452 0
M  V30 37 H 40.729263 28.024078 61.251345 0
M  V30 38 H 39.354141 28.210912 62.304552 0
M  V30 39 H 36.795531 30.913863 55.222643 0
M  V30 40 H 37.776124 30.270587 53.367668 0
M  V30 41 H 39.413569 30.613167 53.889920 0
M  V30 42 H 46.049978 30.156142 64.768669 0
M  V30 43 H 40.064289 32.423087 62.034791 0
M  V30 44 H 41.692283 32.341327 62.939376 0
M  V30 45 H 37.027300 29.375151 56.711359 0
M  V30 46 H 38.344281 30.209545 57.488099 0
M  V30 47 H 39.989735 29.042175 56.136962 0
M  V30 48 H 42.774641 31.976753 68.366025 0
M  V30 49 H 43.267495 30.414201 67.762001 0
M  V30 50 H 43.070373 26.324982 66.043881 0
M  V30 51 H 39.110318 30.607005 63.591433 0
M  V30 52 H 42.635860 32.761336 65.862342 0
M  V30 53 H 40.049555 24.841698 65.016554 0
M  V30 54 H 41.780207 24.879868 64.677382 0
M  V30 55 H 41.171829 24.137787 66.163916 0
M  V30 56 H 39.935505 33.291207 56.167406 0
M  V30 57 H 39.644783 31.919392 57.208983 0
M  V30 58 H 40.393705 31.682329 55.612189 0
M  V30 59 H 38.051577 26.422439 58.480951 0
M  V30 60 H 37.500716 27.985701 58.183670 0
M  V30 61 H 40.045157 27.199390 64.605412 0
M  V30 62 H 41.707292 27.636110 64.658420 0
M  V30 63 H 44.685949 28.760046 63.952069 0
M  V30 64 H 40.897728 28.726301 67.057841 0
M  V30 65 H 39.368813 28.787732 66.222537 0
M  V30 66 H 40.445047 26.267674 67.056820 0
M  V30 67 H 36.559100 28.201749 54.491899 0
M  V30 68 H 37.342979 27.878105 52.961627 0
M  V30 69 H 37.560430 26.772253 54.300562 0
M  V30 70 H 38.464188 24.629425 57.283076 0
M  V30 71 H 39.991678 24.140791 56.596919 0
M  V30 72 H 39.996740 25.115412 58.053479 0
M  V30 73 H 46.627305 31.664240 66.481815 0
M  V30 74 H 39.874746 28.872951 58.724511 0
M  V30 75 H 40.290097 27.227283 59.169148 0
M  V30 76 H 39.558904 28.309464 53.935320 0
M  V30 77 H 38.957446 30.524774 61.457770 0
M  V30 78 H 40.328421 30.378927 60.397724 0
M  V30 END ATOM
M  V30 BEGIN BOND
M  V30 1 1 4 3
M  V30 2 1 7 3
M  V30 3 1 8 2
M  V30 4 1 8 7
M  V30 5 1 10 6
M  V30 6 1 12 6
M  V30 7 1 12 10
M  V30 8 1 13 9
M  V30 9 1 14 13
M  V30 10 1 17 13
M  V30 11 1 18 2
M  V30 12 1 22 19
M  V30 13 1 23 3
M  V30 14 1 23 16
M  V30 15 1 25 12
M  V30 16 1 25 14
M  V30 17 1 25 17
M  V30 18 1 25 22 CFG=1
M  V30 19 1 26 11
M  V30 20 1 26 15
M  V30 21 1 26 19
M  V30 22 1 27 5
M  V30 23 2 27 17
M  V30 24 1 27 20
M  V30 25 1 29 1
M  V30 26 1 30 2
M  V30 27 2 30 21
M  V30 28 1 31 30
M  V30 29 2 32 5
M  V30 30 1 33 9
M  V30 31 2 33 24
M  V30 32 1 33 32
M  V30 33 1 34 18
M  V30 34 1 34 29
M  V30 35 1 35 4
M  V30 36 1 35 8
M  V30 37 1 35 28
M  V30 38 1 36 1
M  V30 39 1 36 10
M  V30 40 1 37 1
M  V30 41 1 38 1
M  V30 42 1 3 39 CFG=3
M  V30 43 1 40 4
M  V30 44 1 41 4
M  V30 45 1 42 5
M  V30 46 1 43 6
M  V30 47 1 44 6
M  V30 48 1 45 7
M  V30 49 1 46 7
M  V30 50 1 8 47 CFG=3
M  V30 51 1 48 9
M  V30 52 1 49 9
M  V30 53 1 50 11
M  V30 54 1 12 51 CFG=3
M  V30 55 1 13 52 CFG=3
M  V30 56 1 53 15
M  V30 57 1 54 15
M  V30 58 1 55 15
M  V30 59 1 56 16
M  V30 60 1 57 16
M  V30 61 1 58 16
M  V30 62 1 59 18
M  V30 63 1 60 18
M  V30 64 1 61 19
M  V30 65 1 62 19
M  V30 66 1 63 20
M  V30 67 1 64 22
M  V30 68 1 65 22
M  V30 69 1 26 66 CFG=1
M  V30 70 1 67 28
M  V30 71 1 68 28
M  V30 72 1 69 28
M  V30 73 1 70 31
M  V30 74 1 71 31
M  V30 75 1 72 31
M  V30 76 1 73 32
M  V30 77 1 74 34
M  V30 78 1 75 34
M  V30 79 1 35 76 CFG=3
M  V30 80 1 77 36
M  V30 81 1 78 36
M  V30 END BOND
M  V30 END CTAB
M  END
>  <i_epik_Tot_Q>  (1) 
1

>  <i_epik_Tot_abs_Q>  (1) 
1

>  <i_i_glide_confnum>  (1) 
4833

>  <i_i_glide_lignum>  (1) 
5

>  <i_i_glide_posenum>  (1) 
27

>  <i_i_glide_rotatable_bonds>  (1) 
15

>  <i_lp_mmshare_version>  (1) 
72125

>  <i_m_source_file_index>  (1) 
2

>  <i_f3d_flags>  (1) 
0

>  <num_sample>  (1) 
50

>  <b_lp_Chiralities_Consistent>  (1) 
1

>  <r_epik_Charging_Adjusted_Penalty>  (1) 
0.012777702237649643

>  <r_epik_Ionization_Penalty>  (1) 
0.012893064322698497

>  <r_epik_Ionization_Penalty_Charging>  (1) 
0

>  <r_epik_Ionization_Penalty_Neutral>  (1) 
0.012893064322698497

>  <r_epik_State_Penalty>  (1) 
0.012777702237649643

>  <r_glide_ring_energy>  (1) 
1.6816026439138669

>  <r_i_docking_score>  (1) 
-6.602444006608482

>  <r_i_glide_ecoul>  (1) 
-3.2561468603089492

>  <r_i_glide_eff_state_penalty>  (1) 
0.012777702237649643

>  <r_i_glide_einternal>  (1) 
26.326777604243418

>  <r_i_glide_emodel>  (1) 
-57.523539665484215

>  <r_i_glide_emodel_strain>  (1) 
0.23999045611783743

>  <r_i_glide_energy>  (1) 
-48.936353314687807

>  <r_i_glide_erotb>  (1) 
0.81958699115176215

>  <r_i_glide_esite>  (1) 
0

>  <r_i_glide_evdw>  (1) 
-45.680206454378855

>  <r_i_glide_gscore>  (1) 
-6.615221708846132

>  <r_i_glide_gscore_strain>  (1) 
0

>  <r_i_glide_hbond>  (1) 
-0.12404334383580222

>  <r_i_glide_ligand_efficiency>  (1) 
-0.18340122240579115

>  <r_i_glide_ligand_efficiency_ln>  (1) 
-1.4404749048189636

>  <r_i_glide_ligand_efficiency_sa>  (1) 
-0.60557749374226566

>  <r_i_glide_lipo>  (1) 
-3.3478051214661924

>  <r_i_glide_metal>  (1) 
-0

>  <r_i_glide_rewards>  (1) 
-1.1905278829306141

>  <r_lp_Energy>  (1) 
37.151716

>  <s_epik_cmdline>  (1) 
J2VwaWtfcHl0aG9uJywgJy1waHQnLCAnMS4wJywgJy1waCcsICc3LjQnLCAnLXRuJywgJzgnLCAnLW1hJywgJzUwMCcsICctaW1hZScsICc8aW5maWxlLm1hZT4nLCAnLW9tYWUnLCAnPG91dGZpbGUubWFlPic=

>  <s_epik_input>  (1) 
W0NIM11PW0NASF0xW0NIMl1bQ0BIXShbQ0gzXSlbQ0BASF0oW0NIMl0xKU4oQyg9TylbQ0gzXSlbQ0gyXVtDSDJdT1tDSDJdW0NIMl1OMltDSDJdW0NIXTJbUEBAK10oTzMpKFtDSDJdW0NIMl1bQ0BIXShbT0hdKVtDSDNdKUMoW0NAQEhdMzQpPUMoW09IXSlbQ0hdPVtDSF1DKD1PKVtDSDJdNA==

>  <s_glide_docking_method>  (1) 
confgen

>  <s_i_glide_gridfile>  (1) 
gpcr_5ht2c_6bqh_protein_autoprepared_prepared

>  <s_lp_Force_Field>  (1) 
S-OPLS

>  <s_lp_Variant>  (1) 
DiffSBDD_1-1

>  <s_m_source_file>  (1) 
generated_GPCR_5HT2C_ligand_DiffSBDD_2026-06-23_prepared.sdf

>  <GenAI_Model>  (1) 
DiffSBDD

>  <Protein>  (1) 
GPCR_5HT2C

$$$$
DiffSBDD_9
     RDKit          3D

  0  0  0  0  0  0  0  0  0  0999 V3000
M  V30 BEGIN CTAB
M  V30 COUNTS 61 62 0 0 1
M  V30 BEGIN ATOM
M  V30 1 C 40.121324 29.179169 61.948464 0
M  V30 2 C 39.453735 29.432907 60.585523 0 CFG=1
M  V30 3 C 37.961688 27.265389 54.485450 0
M  V30 4 O 39.786986 33.782745 61.292226 0
M  V30 5 C 41.063804 32.610530 63.436402 0
M  V30 6 N 39.455630 28.800500 57.592362 0 CHG=1
M  V30 7 C 40.224210 28.906198 50.670796 0
M  V30 8 C 40.557617 31.700618 62.301922 0 CFG=1
M  V30 9 C 38.900094 30.832674 54.419901 0
M  V30 10 C 39.029486 34.556481 60.374242 0
M  V30 11 C 39.129746 27.679592 55.404373 0
M  V30 12 O 40.457514 32.554907 64.530078 0 CHG=-1
M  V30 13 C 39.005193 28.308649 51.387027 0 CFG=1
M  V30 14 C 39.132851 28.069861 59.937002 0
M  V30 15 C 38.220593 30.351416 60.722943 0
M  V30 16 O 39.245134 26.937795 51.586301 0
M  V30 17 C 38.623936 28.988798 52.700738 0
M  V30 18 C 40.068085 30.367403 62.913211 0
M  V30 19 C 38.555306 28.092094 58.517704 0
M  V30 20 C 39.245138 30.107602 53.138365 0
M  V30 21 C 39.558898 32.422315 61.377224 0
M  V30 22 C 39.607831 30.223685 55.629279 0
M  V30 23 O 42.045138 33.338362 63.181467 0
M  V30 24 C 37.486695 28.332926 53.480835 0
M  V30 25 C 38.539493 31.831759 60.697166 0
M  V30 26 C 38.919874 28.977521 56.229454 0 CFG=2
M  V30 27 H 39.645186 28.334429 62.448592 0
M  V30 28 H 41.157961 28.877432 61.791341 0
M  V30 29 H 40.181755 29.940537 59.951839 0
M  V30 30 H 38.263912 26.370013 53.942731 0
M  V30 31 H 37.116963 26.942027 55.092502 0
M  V30 32 H 40.348736 28.330499 57.548578 0
M  V30 33 H 40.046361 29.939505 50.369538 0
M  V30 34 H 41.113805 28.877288 51.302020 0
M  V30 35 H 40.445086 28.345064 49.767762 0
M  V30 36 H 41.432521 31.484855 61.688470 0
M  V30 37 H 39.238856 31.861385 54.291585 0
M  V30 38 H 37.825439 30.911801 54.581650 0
M  V30 39 H 39.432943 35.568424 60.341648 0
M  V30 40 H 39.093223 34.137874 59.367783 0
M  V30 41 H 37.984538 34.627482 60.679272 0
M  V30 42 H 40.045137 27.753405 54.822458 0
M  V30 43 H 39.310395 26.834138 56.068764 0
M  V30 44 H 38.148241 28.386084 50.720834 0
M  V30 45 H 38.414107 27.560376 60.567827 0
M  V30 46 H 40.032494 27.451861 59.939199 0
M  V30 47 H 37.531705 30.200536 59.895109 0
M  V30 48 H 37.645137 30.137762 61.619103 0
M  V30 49 H 38.404919 26.503309 51.626173 0
M  V30 50 H 40.683698 30.092541 63.772014 0
M  V30 51 H 39.066247 30.493847 63.325519 0
M  V30 52 H 37.567433 28.551486 58.506180 0
M  V30 53 H 38.411582 27.067172 58.174843 0
M  V30 54 H 40.044399 30.539187 52.556249 0
M  V30 55 H 40.644069 30.005765 55.367757 0
M  V30 56 H 39.645110 31.003986 56.391863 0
M  V30 57 H 36.897385 29.082026 54.005132 0
M  V30 58 H 36.787489 27.886607 52.773370 0
M  V30 59 H 37.888355 32.431899 60.082326 0
M  V30 60 H 37.852982 29.190178 56.322603 0
M  V30 61 H 39.596091 29.722616 57.979512 0
M  V30 END ATOM
M  V30 BEGIN BOND
M  V30 1 1 2 1
M  V30 2 1 8 5
M  V30 3 1 10 4
M  V30 4 1 11 3
M  V30 5 1 12 5
M  V30 6 1 13 7
M  V30 7 1 14 2
M  V30 8 1 15 2
M  V30 9 1 16 13
M  V30 10 1 17 13
M  V30 11 1 18 1
M  V30 12 1 18 8
M  V30 13 1 19 6
M  V30 14 1 19 14
M  V30 15 1 20 9
M  V30 16 2 20 17
M  V30 17 1 21 4
M  V30 18 1 21 8
M  V30 19 1 22 9
M  V30 20 2 23 5
M  V30 21 1 24 3
M  V30 22 1 24 17
M  V30 23 1 25 15
M  V30 24 2 25 21
M  V30 25 1 26 6
M  V30 26 1 26 11
M  V30 27 1 26 22
M  V30 28 1 27 1
M  V30 29 1 28 1
M  V30 30 1 2 29 CFG=3
M  V30 31 1 30 3
M  V30 32 1 31 3
M  V30 33 1 32 6
M  V30 34 1 33 7
M  V30 35 1 34 7
M  V30 36 1 35 7
M  V30 37 1 8 36 CFG=3
M  V30 38 1 37 9
M  V30 39 1 38 9
M  V30 40 1 39 10
M  V30 41 1 40 10
M  V30 42 1 41 10
M  V30 43 1 42 11
M  V30 44 1 43 11
M  V30 45 1 13 44 CFG=3
M  V30 46 1 45 14
M  V30 47 1 46 14
M  V30 48 1 47 15
M  V30 49 1 48 15
M  V30 50 1 49 16
M  V30 51 1 50 18
M  V30 52 1 51 18
M  V30 53 1 52 19
M  V30 54 1 53 19
M  V30 55 1 54 20
M  V30 56 1 55 22
M  V30 57 1 56 22
M  V30 58 1 57 24
M  V30 59 1 58 24
M  V30 60 1 59 25
M  V30 61 1 26 60 CFG=1
M  V30 62 1 61 6
M  V30 END BOND
M  V30 END CTAB
M  END
>  <i_epik_Tot_Q>  (1) 
0

>  <i_epik_Tot_abs_Q>  (1) 
2

>  <i_i_glide_confnum>  (1) 
38

>  <i_i_glide_lignum>  (1) 
19

>  <i_i_glide_posenum>  (1) 
291

>  <i_i_glide_rotatable_bonds>  (1) 
8

>  <i_lp_mmshare_version>  (1) 
72125

>  <i_m_source_file_index>  (1) 
10

>  <i_f3d_flags>  (1) 
0

>  <num_sample>  (1) 
50

>  <b_lp_Chiralities_Consistent>  (1) 
1

>  <r_epik_Charging_Adjusted_Penalty>  (1) 
0.00049470438624524575

>  <r_epik_Ionization_Penalty>  (1) 
0.0004947514825463053

>  <r_epik_Ionization_Penalty_Charging>  (1) 
0.00049470438624524575

>  <r_epik_Ionization_Penalty_Neutral>  (1) 
4.7096301059555568e-08

>  <r_epik_State_Penalty>  (1) 
-0

>  <r_glide_ring_energy>  (1) 
1.4314105349030264

>  <r_i_docking_score>  (1) 
-6.5989340846236004

>  <r_i_glide_ecoul>  (1) 
-1.1427375937626387

>  <r_i_glide_eff_state_penalty>  (1) 
-0

>  <r_i_glide_einternal>  (1) 
4.9613853344417258

>  <r_i_glide_emodel>  (1) 
-52.64557712290366

>  <r_i_glide_emodel_strain>  (1) 
0.3330240303392884

>  <r_i_glide_energy>  (1) 
-34.214863219129207

>  <r_i_glide_erotb>  (1) 
0.71993305512373396

>  <r_i_glide_esite>  (1) 
0

>  <r_i_glide_evdw>  (1) 
-33.072125625366567

>  <r_i_glide_gscore>  (1) 
-6.5989340846236004

>  <r_i_glide_gscore_strain>  (1) 
0

>  <r_i_glide_hbond>  (1) 
0

>  <r_i_glide_ligand_efficiency>  (1) 
-0.25380515710090773

>  <r_i_glide_ligand_efficiency_ln>  (1) 
-1.5497380169050337

>  <r_i_glide_ligand_efficiency_sa>  (1) 
-0.75189678005295424

>  <r_i_glide_lipo>  (1) 
-3.81237704677728

>  <r_i_glide_metal>  (1) 
-0

>  <r_i_glide_rewards>  (1) 
-1.6814731726373306

>  <r_lp_Energy>  (1) 
30.107592999999998

>  <r_lp_tautomer_probability>  (1) 
1

>  <s_epik_cmdline>  (1) 
J2VwaWtfcHl0aG9uJywgJy1waHQnLCAnMS4wJywgJy1waCcsICc3LjQnLCAnLXRuJywgJzgnLCAnLW1hJywgJzUwMCcsICctaW1hZScsICc8aW5maWxlLm1hZT4nLCAnLW9tYWUnLCAnPG91dGZpbGUubWFlPic=

>  <s_epik_input>  (1) 
W0NIM11PQyg9W0NIXVtDSDJdMSlbQ0BASF0oQyg9TylbT0hdKVtDSDJdW0NIMl1bQ0BIXTFbQ0gyXVtDSDJdW05IXVtDQEhdKFtDSDJdW0NIMl1bQ0gyXTIpW0NIMl1bQ0gyXVxbQ0hdPUMyXFtDQEBIXShbQ0gzXSlbT0hd

>  <s_glide_docking_method>  (1) 
confgen

>  <s_i_glide_gridfile>  (1) 
gpcr_5ht2c_6bqh_protein_autoprepared_prepared

>  <s_lp_Force_Field>  (1) 
S-OPLS

>  <s_lp_Variant>  (1) 
DiffSBDD_9-1

>  <s_m_source_file>  (1) 
generated_GPCR_5HT2C_ligand_DiffSBDD_2026-06-23_prepared.sdf

>  <GenAI_Model>  (1) 
DiffSBDD

>  <Protein>  (1) 
GPCR_5HT2C

$$$$
DiffSBDD_38
     RDKit          3D

  0  0  0  0  0  0  0  0  0  0999 V3000
M  V30 BEGIN CTAB
M  V30 COUNTS 71 72 0 0 1
M  V30 BEGIN ATOM
M  V30 1 C 40.421171 28.717973 57.531458 0
M  V30 2 C 36.256528 33.896489 61.222064 0
M  V30 3 C 42.251931 33.429597 64.821131 0
M  V30 4 F 39.127711 26.028449 57.145980 0
M  V30 5 C 41.644895 32.740255 63.755164 0
M  V30 6 C 41.882587 34.758079 65.055765 0
M  V30 7 C 38.783271 34.431663 61.245788 0 CFG=2
M  V30 8 C 39.285912 33.737666 59.046223 0
M  V30 9 F 37.490178 31.381953 61.555181 0
M  V30 10 C 38.817021 28.928622 60.200205 0
M  V30 11 C 40.918966 35.347114 64.228764 0
M  V30 12 C 38.568084 26.078231 55.937504 0
M  V30 13 C 39.085201 27.270857 55.090806 0 CFG=2
M  V30 14 C 40.982407 28.831740 58.895108 0
M  V30 15 N 38.039924 29.181672 57.953665 0
M  V30 16 O 39.640840 34.540613 60.162748 0
M  V30 17 C 36.426503 31.292703 60.758798 0
M  V30 18 C 39.118086 28.855577 57.135300 0
M  V30 19 C 38.724905 28.671518 55.668028 0 CFG=1
M  V30 20 C 35.993782 32.697173 60.248321 0 CFG=2
M  V30 21 C 40.355027 34.580573 63.190267 0
M  V30 22 F 37.244934 26.135816 56.075984 0
M  V30 23 C 37.346452 34.960290 60.864963 0 CFG=2
M  V30 24 C 37.465966 31.231980 55.025907 0
M  V30 25 F 35.393809 30.937789 61.517005 0
M  V30 26 F 42.440534 35.458134 66.068370 0
M  V30 27 C 40.298024 28.928480 60.051996 0
M  V30 28 N 40.714785 33.294228 62.943145 0
M  V30 29 F 38.875129 24.937879 55.323938 0
M  V30 30 C 36.660006 30.133571 59.725459 0 CFG=2
M  V30 31 C 37.067534 36.365913 61.448395 0
M  V30 32 C 38.863155 30.829596 54.604010 0
M  V30 33 C 38.582941 27.144365 53.635121 0
M  V30 34 N 39.398304 29.704936 54.881564 0
M  V30 35 C 38.109066 29.837346 59.231479 0 CFG=1
M  V30 36 O 36.464423 32.951529 58.967763 0
M  V30 37 F 35.781206 30.137738 58.730994 0
M  V30 38 N 39.357781 35.145507 62.379701 0
M  V30 39 H 41.131290 28.490724 56.750678 0
M  V30 40 H 37.132135 29.238549 57.510024 0
M  V30 41 H 35.309414 34.428426 61.305626 0
M  V30 42 H 36.443185 33.509676 62.215646 0
M  V30 43 H 42.989549 32.945276 65.443422 0
M  V30 44 H 41.912515 31.715323 63.545593 0
M  V30 45 H 38.730403 33.379491 61.517354 0
M  V30 46 H 40.046805 33.725777 58.290473 0
M  V30 47 H 38.445612 34.137586 58.486598 0
M  V30 48 H 39.100586 32.714188 59.349321 0
M  V30 49 H 38.655947 29.294125 61.212468 0
M  V30 50 H 38.445021 27.904573 60.167707 0
M  V30 51 H 40.607879 36.368699 64.392758 0
M  V30 52 H 40.170573 27.182170 55.061728 0
M  V30 53 H 42.058838 28.819892 58.972569 0
M  V30 54 H 37.641765 28.753071 55.590429 0
M  V30 55 H 34.913723 32.651692 60.095288 0
M  V30 56 H 37.285897 35.157840 59.800823 0
M  V30 57 H 37.248219 32.250019 54.702798 0
M  V30 58 H 37.372221 31.200020 56.109473 0
M  V30 59 H 40.856371 28.991333 60.975405 0
M  V30 60 H 36.344867 29.211423 60.167732 0
M  V30 61 H 36.859098 36.334953 62.518143 0
M  V30 62 H 36.219734 36.831236 60.948467 0
M  V30 63 H 37.901989 37.046576 61.273985 0
M  V30 64 H 39.399019 31.587563 54.028062 0
M  V30 65 H 37.495859 27.210272 53.582945 0
M  V30 66 H 38.876970 26.191868 53.198267 0
M  V30 67 H 38.992576 27.922736 52.992293 0
M  V30 68 H 36.716816 30.578255 54.582262 0
M  V30 69 H 38.655304 30.762993 59.097916 0
M  V30 70 H 36.006320 32.404816 58.321979 0
M  V30 71 H 39.103168 36.113535 62.498293 0
M  V30 END ATOM
M  V30 BEGIN BOND
M  V30 1 2 5 3
M  V30 2 1 6 3
M  V30 3 2 11 6
M  V30 4 1 12 4
M  V30 5 1 13 12
M  V30 6 1 14 1
M  V30 7 1 16 7
M  V30 8 1 16 8
M  V30 9 1 17 9
M  V30 10 2 18 1
M  V30 11 1 18 15
M  V30 12 1 19 13
M  V30 13 1 19 18
M  V30 14 1 20 2
M  V30 15 1 20 17
M  V30 16 1 21 11
M  V30 17 1 22 12
M  V30 18 1 23 2
M  V30 19 1 23 7
M  V30 20 1 25 17
M  V30 21 1 26 6
M  V30 22 1 27 10
M  V30 23 2 27 14
M  V30 24 1 28 5
M  V30 25 2 28 21
M  V30 26 1 29 12
M  V30 27 1 30 17
M  V30 28 1 31 23
M  V30 29 1 32 24
M  V30 30 1 33 13
M  V30 31 1 34 19
M  V30 32 2 34 32
M  V30 33 1 35 10
M  V30 34 1 35 15
M  V30 35 1 35 30
M  V30 36 1 36 20
M  V30 37 1 37 30
M  V30 38 1 38 7
M  V30 39 1 38 21
M  V30 40 1 39 1
M  V30 41 1 40 15
M  V30 42 1 41 2
M  V30 43 1 42 2
M  V30 44 1 43 3
M  V30 45 1 44 5
M  V30 46 1 7 45 CFG=1
M  V30 47 1 46 8
M  V30 48 1 47 8
M  V30 49 1 48 8
M  V30 50 1 49 10
M  V30 51 1 50 10
M  V30 52 1 51 11
M  V30 53 1 13 52 CFG=3
M  V30 54 1 53 14
M  V30 55 1 19 54 CFG=1
M  V30 56 1 20 55 CFG=3
M  V30 57 1 23 56 CFG=3
M  V30 58 1 57 24
M  V30 59 1 58 24
M  V30 60 1 59 27
M  V30 61 1 30 60 CFG=1
M  V30 62 1 61 31
M  V30 63 1 62 31
M  V30 64 1 63 31
M  V30 65 1 64 32
M  V30 66 1 65 33
M  V30 67 1 66 33
M  V30 68 1 67 33
M  V30 69 1 68 24
M  V30 70 1 35 69 CFG=3
M  V30 71 1 70 36
M  V30 72 1 71 38
M  V30 END BOND
M  V30 END CTAB
M  END
>  <i_epik_Tot_Q>  (1) 
0

>  <i_epik_Tot_abs_Q>  (1) 
0

>  <i_i_glide_confnum>  (1) 
252

>  <i_i_glide_lignum>  (1) 
80

>  <i_i_glide_posenum>  (1) 
392

>  <i_i_glide_rotatable_bonds>  (1) 
14

>  <i_lp_mmshare_version>  (1) 
72125

>  <i_m_source_file_index>  (1) 
39

>  <i_f3d_flags>  (1) 
0

>  <num_sample>  (1) 
50

>  <b_lp_Chiralities_Consistent>  (1) 
1

>  <r_epik_Charging_Adjusted_Penalty>  (1) 
0.41068759954161893

>  <r_epik_Ionization_Penalty>  (1) 
0.72091217201864632

>  <r_epik_Ionization_Penalty_Charging>  (1) 
0

>  <r_epik_Ionization_Penalty_Neutral>  (1) 
0.72091217201864632

>  <r_epik_State_Penalty>  (1) 
0.41068759954161893

>  <r_glide_ring_energy>  (1) 
0

>  <r_i_docking_score>  (1) 
-6.5822630204754917

>  <r_i_glide_ecoul>  (1) 
-6.0826306519397066

>  <r_i_glide_eff_state_penalty>  (1) 
0.41068759954161893

>  <r_i_glide_einternal>  (1) 
23.18739712458855

>  <r_i_glide_emodel>  (1) 
-46.984186123570183

>  <r_i_glide_emodel_strain>  (1) 
5.0720665612777367

>  <r_i_glide_energy>  (1) 
-42.912390967745978

>  <r_i_glide_erotb>  (1) 
0.60130745657359952

>  <r_i_glide_esite>  (1) 
-0.20406333895092585

>  <r_i_glide_evdw>  (1) 
-36.829760315806269

>  <r_i_glide_gscore>  (1) 
-6.992950620017111

>  <r_i_glide_gscore_strain>  (1) 
0.26801664031943417

>  <r_i_glide_hbond>  (1) 
-0.16

>  <r_i_glide_ligand_efficiency>  (1) 
-0.17321744790724977

>  <r_i_glide_ligand_efficiency_ln>  (1) 
-1.4193295377748498

>  <r_i_glide_ligand_efficiency_sa>  (1) 
-0.58235279989265443

>  <r_i_glide_lipo>  (1) 
-3.0015726915997063

>  <r_i_glide_metal>  (1) 
-0

>  <r_i_glide_rewards>  (1) 
-1.7427560727782445

>  <r_lp_Energy>  (1) 
25.10126

>  <r_lp_tautomer_probability>  (1) 
0.49999644301987139

>  <s_epik_Chemistry_Notes>  (1) 
This compound has an imine and may undergo hydrolysis. This compound contains an acetal/aminal-like group ( X-CH(R)-Y where X, Y are N, S, or O) that may be acid/base labile, releasing an aldehyde.

>  <s_epik_cmdline>  (1) 
J2VwaWtfcHl0aG9uJywgJy1waHQnLCAnMS4wJywgJy1waCcsICc3LjQnLCAnLXRuJywgJzgnLCAnLW1hJywgJzUwMCcsICctaW1hZScsICc8aW5maWxlLm1hZT4nLCAnLW9tYWUnLCAnPG91dGZpbGUubWFlPic=

>  <s_epik_input>  (1) 
RkMoRikoRilbQ0BASF0oW0NIM10pW0NASF0oW05IXVtDSF09W0NIMl0pQzE9TltDQEhdKFtDSDJdW0NIXT1bQ0hdW0NIMl0xKVtDQEhdKEYpQyhGKShGKVtDQEBIXShbT0hdKVtDSDJdW0NAQEhdKFtDSDNdKVtDQEBIXShPW0NIM10pW05IXWMoW2NIXTIpbltjSF1bY0hdYzJG

>  <s_glide_docking_method>  (1) 
confgen

>  <s_i_glide_gridfile>  (1) 
gpcr_5ht2c_6bqh_protein_autoprepared_prepared

>  <s_lp_Force_Field>  (1) 
S-OPLS

>  <s_lp_Variant>  (1) 
DiffSBDD_38-1

>  <s_m_source_file>  (1) 
generated_GPCR_5HT2C_ligand_DiffSBDD_2026-06-23_prepared.sdf

>  <GenAI_Model>  (1) 
DiffSBDD

>  <Protein>  (1) 
GPCR_5HT2C

$$$$
DiffSBDD_8
     RDKit          3D

  0  0  0  0  0  0  0  0  0  0999 V3000
M  V30 BEGIN CTAB
M  V30 COUNTS 49 52 0 0 1
M  V30 BEGIN ATOM
M  V30 1 C 38.840026 31.514293 56.027080 0
M  V30 2 C 38.453264 31.981453 57.297670 0
M  V30 3 C 37.929488 24.535583 55.684038 0 CFG=1
M  V30 4 C 38.505606 29.701805 58.155555 0
M  V30 5 C 38.884124 29.226044 56.877805 0
M  V30 6 C 38.048784 27.337926 52.033260 0
M  V30 7 C 37.592998 25.901952 56.223144 0 CFG=2
M  V30 8 C 38.185751 27.520437 54.438435 0
M  V30 9 C 39.319957 29.468771 51.570783 0
M  V30 10 C 40.283500 28.814498 50.576306 0
M  V30 11 C 38.290223 27.124059 55.717699 0
M  V30 12 O 38.356252 24.955275 56.987288 0
M  V30 13 C 39.167530 27.797998 56.690373 0
M  V30 14 C 41.470938 30.875648 49.832851 0
M  V30 15 C 37.490360 26.706762 53.367772 0
M  V30 16 C 38.831960 28.596470 53.841529 0
M  V30 17 F 38.363290 28.837239 59.188820 0
M  V30 18 N 39.392019 29.709687 54.446922 0
M  V30 19 N 38.234090 33.337753 57.502916 0
M  V30 20 C 38.283963 31.074443 58.359407 0
M  V30 21 C 39.034473 30.135823 55.813911 0
M  V30 22 C 36.845128 23.485388 55.581019 0
M  V30 23 N 38.796788 28.494151 52.522669 0 CHG=1
M  V30 24 C 40.574408 29.737759 49.393685 0
M  V30 25 H 38.962539 32.210965 55.210522 0
M  V30 26 H 38.744436 24.451611 54.967911 0
M  V30 27 H 37.264317 27.730852 51.384040 0
M  V30 28 H 38.689082 26.642827 51.490998 0
M  V30 29 H 36.601914 26.088725 56.631936 0
M  V30 30 H 38.447868 29.737756 50.982284 0
M  V30 31 H 39.731802 30.366337 52.029763 0
M  V30 32 H 41.201313 28.544353 51.099098 0
M  V30 33 H 39.872307 27.889187 50.175547 0
M  V30 34 H 40.197356 27.693013 56.345988 0
M  V30 35 H 39.136764 27.270601 57.643880 0
M  V30 36 H 41.927838 31.337753 48.967757 0
M  V30 37 H 40.874472 31.610909 50.367430 0
M  V30 38 H 42.280117 30.537747 50.481679 0
M  V30 39 H 36.445137 26.934627 53.412134 0
M  V30 40 H 37.645109 25.639990 53.416206 0
M  V30 41 H 38.126028 33.949248 56.706637 0
M  V30 42 H 37.742729 33.633577 58.333753 0
M  V30 43 H 37.990451 31.432551 59.335282 0
M  V30 44 H 35.962248 23.907719 55.101450 0
M  V30 45 H 37.185868 22.650771 54.967756 0
M  V30 46 H 36.562668 23.120789 56.567763 0
M  V30 47 H 41.048849 29.207736 48.567760 0
M  V30 48 H 39.645134 30.128491 48.978315 0
M  V30 49 H 39.749681 30.400086 53.803737 0
M  V30 END ATOM
M  V30 BEGIN BOND
M  V30 1 1 2 1
M  V30 2 2 5 4
M  V30 3 1 7 3
M  V30 4 1 10 9
M  V30 5 1 11 7
M  V30 6 2 11 8
M  V30 7 1 12 3
M  V30 8 1 12 7
M  V30 9 1 13 5
M  V30 10 1 13 11
M  V30 11 1 15 6
M  V30 12 1 15 8
M  V30 13 1 16 8
M  V30 14 1 17 4
M  V30 15 1 18 16
M  V30 16 1 19 2
M  V30 17 2 20 2
M  V30 18 1 20 4
M  V30 19 2 21 1
M  V30 20 1 21 5
M  V30 21 1 21 18
M  V30 22 1 22 3
M  V30 23 1 23 6
M  V30 24 1 23 9
M  V30 25 2 23 16
M  V30 26 1 24 10
M  V30 27 1 24 14
M  V30 28 1 25 1
M  V30 29 1 3 26 CFG=3
M  V30 30 1 27 6
M  V30 31 1 28 6
M  V30 32 1 7 29 CFG=1
M  V30 33 1 30 9
M  V30 34 1 31 9
M  V30 35 1 32 10
M  V30 36 1 33 10
M  V30 37 1 34 13
M  V30 38 1 35 13
M  V30 39 1 36 14
M  V30 40 1 37 14
M  V30 41 1 38 14
M  V30 42 1 39 15
M  V30 43 1 40 15
M  V30 44 1 41 19
M  V30 45 1 42 19
M  V30 46 1 43 20
M  V30 47 1 44 22
M  V30 48 1 45 22
M  V30 49 1 46 22
M  V30 50 1 47 24
M  V30 51 1 48 24
M  V30 52 1 49 18
M  V30 END BOND
M  V30 END CTAB
M  END
>  <i_epik_Tot_Q>  (1) 
1

>  <i_epik_Tot_abs_Q>  (1) 
1

>  <i_i_glide_confnum>  (1) 
3

>  <i_i_glide_lignum>  (1) 
17

>  <i_i_glide_posenum>  (1) 
94

>  <i_i_glide_rotatable_bonds>  (1) 
4

>  <i_lp_mmshare_version>  (1) 
72125

>  <i_m_source_file_index>  (1) 
9

>  <i_f3d_flags>  (1) 
0

>  <num_sample>  (1) 
50

>  <b_lp_Chiralities_Consistent>  (1) 
1

>  <r_epik_Charging_Adjusted_Penalty>  (1) 
0.17413095498699085

>  <r_epik_Ionization_Penalty>  (1) 
0.087068242600636711

>  <r_epik_Ionization_Penalty_Charging>  (1) 
0.087065477493495413

>  <r_epik_Ionization_Penalty_Neutral>  (1) 
2.7651071412945434e-06

>  <r_epik_State_Penalty>  (1) 
0.087065477493495441

>  <r_glide_ring_energy>  (1) 
0

>  <r_i_docking_score>  (1) 
-6.5786652962050329

>  <r_i_glide_ecoul>  (1) 
-1.5320430088588823

>  <r_i_glide_eff_state_penalty>  (1) 
0.087065477493495441

>  <r_i_glide_einternal>  (1) 
3.3603766485716315

>  <r_i_glide_emodel>  (1) 
-41.095352936844577

>  <r_i_glide_emodel_strain>  (1) 
1.7739125984882946

>  <r_i_glide_energy>  (1) 
-30.35241673926026

>  <r_i_glide_erotb>  (1) 
0.51678233388810157

>  <r_i_glide_esite>  (1) 
-0.064018298183202663

>  <r_i_glide_evdw>  (1) 
-28.820373730401379

>  <r_i_glide_gscore>  (1) 
-6.6657307736985283

>  <r_i_glide_gscore_strain>  (1) 
0

>  <r_i_glide_hbond>  (1) 
0

>  <r_i_glide_ligand_efficiency>  (1) 
-0.27411105400854302

>  <r_i_glide_ligand_efficiency_ln>  (1) 
-1.5745764806618507

>  <r_i_glide_ligand_efficiency_sa>  (1) 
-0.79067309972066402

>  <r_i_glide_lipo>  (1) 
-2.7823703977845096

>  <r_i_glide_metal>  (1) 
-0

>  <r_i_glide_rewards>  (1) 
-2.6652992737700165

>  <r_lp_Energy>  (1) 
35.754514

>  <s_epik_Chemistry_Notes>  (1) 
This compound has an imine and may undergo hydrolysis.

>  <s_epik_cmdline>  (1) 
J2VwaWtfcHl0aG9uJywgJy1waHQnLCAnMS4wJywgJy1waCcsICc3LjQnLCAnLXRuJywgJzgnLCAnLW1hJywgJzUwMCcsICctaW1hZScsICc8aW5maWxlLm1hZT4nLCAnLW9tYWUnLCAnPG91dGZpbGUubWFlPic=

>  <s_epik_input>  (1) 
RmMxW2NIXWMoW05IMl0pW2NIXWMoYzEyKU49QzNDKD1DKFtDSDJdMilbQ0BIXShPNClbQ0BASF00W0NIM10pW0NIMl1bQ0gyXU4zW0NIMl1bQ0gyXVtDSDJdW0NIM10=

>  <s_glide_docking_method>  (1) 
confgen

>  <s_i_glide_gridfile>  (1) 
gpcr_5ht2c_6bqh_protein_autoprepared_prepared

>  <s_lp_Force_Field>  (1) 
S-OPLS

>  <s_lp_Variant>  (1) 
DiffSBDD_8-1

>  <s_m_source_file>  (1) 
generated_GPCR_5HT2C_ligand_DiffSBDD_2026-06-23_prepared.sdf

>  <GenAI_Model>  (1) 
DiffSBDD

>  <Protein>  (1) 
GPCR_5HT2C

$$$$
DiffSBDD_26
     RDKit          3D

  0  0  0  0  0  0  0  0  0  0999 V3000
M  V30 BEGIN CTAB
M  V30 COUNTS 84 87 0 0 1
M  V30 BEGIN ATOM
M  V30 1 C 39.275238 32.566358 60.316681 0
M  V30 2 C 40.526058 29.600250 50.923402 0
M  V30 3 C 38.255033 31.168802 54.700672 0
M  V30 4 C 38.107839 25.867001 55.560691 0
M  V30 5 N 38.521832 29.837473 55.252895 0
M  V30 6 O 36.636541 24.137791 54.758949 0
M  V30 7 C 39.263359 28.045656 52.573949 0
M  V30 8 C 38.850134 27.887996 54.040354 0 CFG=1
M  V30 9 N 36.974726 32.539537 59.565709 0 CFG=2 CHG=1
M  V30 10 N 39.595104 30.938548 62.171091 0
M  V30 11 C 38.890852 32.223578 55.616793 0
M  V30 12 C 40.274833 30.433276 64.553860 0
M  V30 13 C 40.422654 31.039596 50.424978 0
M  V30 14 C 38.752973 33.253111 57.937679 0
M  V30 15 C 37.242266 24.653348 55.690465 0
M  V30 16 O 40.322139 28.797079 61.882924 0
M  V30 17 C 38.300106 32.109663 57.024888 0
M  V30 18 C 39.583988 29.726894 61.566093 0
M  V30 19 C 37.827708 24.679802 58.040436 0
M  V30 20 C 38.599552 25.740943 57.919001 0
M  V30 21 C 38.749494 26.348482 56.652311 0
M  V30 22 C 40.542500 31.239048 63.260967 0
M  V30 23 O 37.880934 28.882838 54.381661 0
M  V30 24 C 35.353079 34.269649 58.968036 0
M  V30 25 C 37.213954 31.722661 61.662028 0
M  V30 26 C 38.233978 26.490977 54.183949 0
M  V30 27 C 37.833331 29.713699 56.531320 0
M  V30 28 C 35.613031 32.973372 59.702011 0 CFG=2
M  V30 29 C 38.504916 30.667971 57.523942 0
M  V30 30 C 39.742517 29.451052 52.225676 0
M  V30 31 C 36.509265 32.835373 60.920006 0 CFG=2
M  V30 32 C 38.246032 33.274561 59.396392 0 CFG=2
M  V30 33 C 40.040573 28.648229 49.844423 0
M  V30 34 C 38.740905 32.050975 61.689831 0 CFG=2
M  V30 35 O 40.844801 32.124229 66.060804 0
M  V30 36 O 41.181986 30.791418 65.585185 0
M  V30 37 N 37.169660 24.137734 56.951566 0
M  V30 38 H 40.138258 33.212463 60.477141 0
M  V30 39 H 39.645000 31.708909 59.768162 0
M  V30 40 H 41.573302 29.378290 51.122606 0
M  V30 41 H 37.182816 31.340840 54.588684 0
M  V30 42 H 38.694604 31.296166 53.720010 0
M  V30 43 H 36.603266 23.317553 57.115204 0
M  V30 44 H 40.046482 27.323037 52.354177 0
M  V30 45 H 38.420717 27.789781 51.929669 0
M  V30 46 H 39.756638 27.950576 54.642027 0
M  V30 47 H 38.712244 33.217218 55.204561 0
M  V30 48 H 39.972565 32.084481 55.648655 0
M  V30 49 H 40.415915 29.367062 64.374890 0
M  V30 50 H 39.244597 30.537854 64.892091 0
M  V30 51 H 39.441308 31.243848 49.994080 0
M  V30 52 H 40.550981 31.735232 51.252868 0
M  V30 53 H 41.177150 31.257487 49.668137 0
M  V30 54 H 38.366300 34.137741 57.448419 0
M  V30 55 H 39.836218 33.337302 57.907648 0
M  V30 56 H 37.245137 32.274732 56.892509 0
M  V30 57 H 38.836712 29.687304 60.758759 0
M  V30 58 H 37.645138 24.158328 58.967153 0
M  V30 59 H 39.107698 26.146839 58.781347 0
M  V30 60 H 39.383973 27.213181 56.563281 0
M  V30 61 H 40.540678 32.304146 63.492639 0
M  V30 62 H 41.554974 31.026523 62.910330 0
M  V30 63 H 34.296074 34.529387 59.018903 0
M  V30 64 H 35.937267 35.089692 59.384270 0
M  V30 65 H 35.626063 34.137313 57.922648 0
M  V30 66 H 36.974899 30.748591 61.231131 0
M  V30 67 H 36.845193 31.737808 62.676851 0
M  V30 68 H 37.265536 26.477122 53.678483 0
M  V30 69 H 38.873760 25.783400 53.671907 0
M  V30 70 H 36.771359 29.939681 56.419715 0
M  V30 71 H 37.888704 28.699376 56.906621 0
M  V30 72 H 34.963738 32.140896 59.436166 0
M  V30 73 H 39.567064 30.434051 57.610015 0
M  V30 74 H 38.068242 30.492916 58.502454 0
M  V30 75 H 38.846020 30.047583 52.143332 0
M  V30 76 H 40.332298 29.874684 53.038113 0
M  V30 77 H 36.760311 33.818311 61.319437 0
M  V30 78 H 38.156622 34.315698 59.713008 0
M  V30 79 H 38.954020 28.652924 49.766721 0
M  V30 80 H 40.445143 28.937755 48.876469 0
M  V30 81 H 40.347584 27.629624 50.083509 0
M  V30 82 H 38.833055 32.890560 62.379454 0
M  V30 83 H 41.453220 32.654006 65.568110 0
M  V30 84 H 37.026448 31.550578 59.362325 0
M  V30 END ATOM
M  V30 BEGIN BOND
M  V30 1 1 5 3
M  V30 2 1 8 7
M  V30 3 1 11 3
M  V30 4 1 13 2
M  V30 5 1 15 4
M  V30 6 2 15 6
M  V30 7 1 17 11
M  V30 8 1 17 14
M  V30 9 1 18 10
M  V30 10 2 18 16
M  V30 11 2 20 19
M  V30 12 2 21 4
M  V30 13 1 21 20
M  V30 14 1 22 10
M  V30 15 1 22 12
M  V30 16 1 23 5
M  V30 17 1 23 8
M  V30 18 1 26 4
M  V30 19 1 26 8
M  V30 20 1 27 5
M  V30 21 1 28 9
M  V30 22 1 28 24
M  V30 23 1 29 17
M  V30 24 1 29 27
M  V30 25 1 30 2
M  V30 26 1 30 7
M  V30 27 1 31 9
M  V30 28 1 31 25
M  V30 29 1 31 28
M  V30 30 1 32 1
M  V30 31 1 32 9
M  V30 32 1 32 14
M  V30 33 1 33 2
M  V30 34 1 34 1
M  V30 35 1 34 10
M  V30 36 1 34 25
M  V30 37 1 36 12
M  V30 38 1 36 35
M  V30 39 1 37 15
M  V30 40 1 37 19
M  V30 41 1 38 1
M  V30 42 1 39 1
M  V30 43 1 40 2
M  V30 44 1 41 3
M  V30 45 1 42 3
M  V30 46 1 43 37
M  V30 47 1 44 7
M  V30 48 1 45 7
M  V30 49 1 8 46 CFG=1
M  V30 50 1 47 11
M  V30 51 1 48 11
M  V30 52 1 49 12
M  V30 53 1 50 12
M  V30 54 1 51 13
M  V30 55 1 52 13
M  V30 56 1 53 13
M  V30 57 1 54 14
M  V30 58 1 55 14
M  V30 59 1 56 17
M  V30 60 1 57 18
M  V30 61 1 58 19
M  V30 62 1 59 20
M  V30 63 1 60 21
M  V30 64 1 61 22
M  V30 65 1 62 22
M  V30 66 1 63 24
M  V30 67 1 64 24
M  V30 68 1 65 24
M  V30 69 1 66 25
M  V30 70 1 67 25
M  V30 71 1 68 26
M  V30 72 1 69 26
M  V30 73 1 70 27
M  V30 74 1 71 27
M  V30 75 1 28 72 CFG=1
M  V30 76 1 73 29
M  V30 77 1 74 29
M  V30 78 1 75 30
M  V30 79 1 76 30
M  V30 80 1 31 77 CFG=1
M  V30 81 1 32 78 CFG=1
M  V30 82 1 79 33
M  V30 83 1 80 33
M  V30 84 1 81 33
M  V30 85 1 34 82 CFG=1
M  V30 86 1 83 35
M  V30 87 1 9 84 CFG=1
M  V30 END BOND
M  V30 END CTAB
M  END
>  <i_epik_Tot_Q>  (1) 
1

>  <i_epik_Tot_abs_Q>  (1) 
1

>  <i_i_glide_confnum>  (1) 
3245

>  <i_i_glide_lignum>  (1) 
59

>  <i_i_glide_posenum>  (1) 
172

>  <i_i_glide_rotatable_bonds>  (1) 
15

>  <i_lp_mmshare_version>  (1) 
72125

>  <i_m_source_file_index>  (1) 
27

>  <i_f3d_flags>  (1) 
0

>  <num_sample>  (1) 
50

>  <b_lp_Chiralities_Consistent>  (1) 
1

>  <r_epik_Charging_Adjusted_Penalty>  (1) 
0.02425622639956965

>  <r_epik_Ionization_Penalty>  (1) 
0.033094864685368548

>  <r_epik_Ionization_Penalty_Charging>  (1) 
0.02425622639956965

>  <r_epik_Ionization_Penalty_Neutral>  (1) 
0.0088386382857988978

>  <r_epik_State_Penalty>  (1) 
-0

>  <r_glide_ring_energy>  (1) 
0

>  <r_i_docking_score>  (1) 
-6.5746743957121341

>  <r_i_glide_ecoul>  (1) 
-0.1817053263195394

>  <r_i_glide_eff_state_penalty>  (1) 
-0

>  <r_i_glide_einternal>  (1) 
31.770091927833011

>  <r_i_glide_emodel>  (1) 
-45.775324277460093

>  <r_i_glide_emodel_strain>  (1) 
4.3053753469705498

>  <r_i_glide_energy>  (1) 
-48.494875495844042

>  <r_i_glide_erotb>  (1) 
0.83677420797818713

>  <r_i_glide_esite>  (1) 
-0.067907383740700142

>  <r_i_glide_evdw>  (1) 
-48.313170169524504

>  <r_i_glide_gscore>  (1) 
-6.5746743957121341

>  <r_i_glide_gscore_strain>  (1) 
0.07634383674263745

>  <r_i_glide_hbond>  (1) 
0

>  <r_i_glide_ligand_efficiency>  (1) 
-0.17769390258681445

>  <r_i_glide_ligand_efficiency_ln>  (1) 
-1.4258927441936944

>  <r_i_glide_ligand_efficiency_sa>  (1) 
-0.59211550510403055

>  <r_i_glide_lipo>  (1) 
-3.669945973654138

>  <r_i_glide_metal>  (1) 
-0

>  <r_i_glide_rewards>  (1) 
-1.3070247756139644

>  <r_lp_Energy>  (1) 
62.164225999999999

>  <r_lp_tautomer_probability>  (1) 
1

>  <s_epik_Chemistry_Notes>  (1) 
This compound has a N-S or N-O group and may undergo hydrolysis at high or low pH.

>  <s_epik_cmdline>  (1) 
J2VwaWtfcHl0aG9uJywgJy1waHQnLCAnMS4wJywgJy1waCcsICc3LjQnLCAnLXRuJywgJzgnLCAnLW1hJywgJzUwMCcsICctaW1hZScsICc8aW5maWxlLm1hZT4nLCAnLW9tYWUnLCAnPG91dGZpbGUubWFlPic=

>  <s_epik_input>  (1) 
W09IXU9bQ0gyXVtDSDJdTihbQ0hdPU8pW0NASF0oW0NIMl1bQ0BASF0oTjEyKVtDQEhdMVtDSDNdKVtDSDJdW0NASF0yW0NIMl1bQ0hdKFtDSDJdW0NIMl0zKVtDSDJdW0NIMl1OM09bQ0BIXShbQ0gyXVtDSDJdW0NIXShbQ0gzXSlbQ0gzXSlbQ0gyXVtDQEBIXTRDKD1PKU49W0NIXVtDSF09W0NIXTQ=

>  <s_glide_docking_method>  (1) 
confgen

>  <s_i_glide_gridfile>  (1) 
gpcr_5ht2c_6bqh_protein_autoprepared_prepared

>  <s_lp_Force_Field>  (1) 
S-OPLS

>  <s_lp_Variant>  (1) 
DiffSBDD_26-4

>  <s_m_source_file>  (1) 
generated_GPCR_5HT2C_ligand_DiffSBDD_2026-06-23_prepared.sdf

>  <GenAI_Model>  (1) 
DiffSBDD

>  <Protein>  (1) 
GPCR_5HT2C

$$$$
DiffSBDD_28
     RDKit          3D

  0  0  0  0  0  0  0  0  0  0999 V3000
M  V30 BEGIN CTAB
M  V30 COUNTS 45 48 0 0 1
M  V30 BEGIN ATOM
M  V30 1 O 37.177210 30.120770 59.767766 0
M  V30 2 C 39.227697 27.802512 55.315829 0
M  V30 3 C 39.201940 32.943161 60.314293 0
M  V30 4 C 38.364661 28.227567 54.293132 0
M  V30 5 C 38.785316 30.690521 57.837620 0
M  V30 6 F 39.384672 26.937755 52.635011 0
M  V30 7 C 37.818455 30.792499 60.848279 0 CFG=1
M  V30 8 C 38.202183 27.392004 53.048259 0
M  V30 9 C 37.790076 30.206222 55.580856 0
M  V30 10 C 40.301776 28.071373 57.582842 0 CFG=2
M  V30 11 O 39.350802 26.137752 58.602853 0
M  V30 12 P 38.845138 29.909557 59.546560 0 CFG=1 CHG=1
M  V30 13 C 38.745104 35.285901 61.236271 0
M  V30 14 F 41.120699 28.937773 58.167763 0
M  V30 15 C 39.378364 28.575263 56.483003 0
M  V30 16 C 39.448307 27.360607 58.620755 0
M  V30 17 N 38.815595 28.125230 59.519528 0
M  V30 18 C 38.648878 29.798776 56.614582 0
M  V30 19 C 39.594097 34.273084 60.952230 0
M  V30 20 C 37.882457 32.329069 60.835946 0 CFG=2
M  V30 21 C 36.638555 32.928103 60.145016 0
M  V30 22 C 37.645152 29.422973 54.432857 0
M  V30 23 F 37.408166 26.374425 53.367757 0
M  V30 24 F 37.653833 28.105248 52.065548 0
M  V30 25 C 36.757071 34.416783 59.799032 0
M  V30 26 C 37.244597 35.285498 60.963884 0
M  V30 27 H 39.772511 26.875279 55.207941 0
M  V30 28 H 39.211637 33.052489 59.230174 0
M  V30 29 H 40.026523 32.277195 60.567743 0
M  V30 30 H 37.951677 31.392593 57.821402 0
M  V30 31 H 39.645136 31.312791 57.641510 0
M  V30 32 H 37.699012 30.331463 61.824989 0
M  V30 33 H 37.236743 31.130210 55.672792 0
M  V30 34 H 40.978409 27.330983 57.151075 0
M  V30 35 H 39.138969 36.181415 61.695171 0
M  V30 36 H 38.245223 27.672372 60.216535 0
M  V30 37 H 40.642020 34.392528 61.187541 0
M  V30 38 H 37.823644 32.610177 61.888916 0
M  V30 39 H 36.415073 32.403431 59.216068 0
M  V30 40 H 35.768219 32.770529 60.783802 0
M  V30 41 H 36.978744 29.737761 53.658340 0
M  V30 42 H 37.398607 34.562437 58.929233 0
M  V30 43 H 35.772374 34.767303 59.486309 0
M  V30 44 H 36.703819 35.047454 61.879879 0
M  V30 45 H 36.985169 36.318366 60.728493 0
M  V30 END ATOM
M  V30 BEGIN BOND
M  V30 1 2 4 2
M  V30 2 1 7 1
M  V30 3 1 8 4
M  V30 4 1 8 6
M  V30 5 1 12 1 CFG=3
M  V30 6 1 12 5
M  V30 7 1 12 7
M  V30 8 1 14 10
M  V30 9 1 15 2
M  V30 10 1 15 10
M  V30 11 1 16 10
M  V30 12 2 16 11
M  V30 13 1 17 12
M  V30 14 1 17 16
M  V30 15 1 18 5
M  V30 16 1 18 9
M  V30 17 2 18 15
M  V30 18 1 19 3
M  V30 19 2 19 13
M  V30 20 1 20 3
M  V30 21 1 20 7
M  V30 22 1 21 20
M  V30 23 1 22 4
M  V30 24 2 22 9
M  V30 25 1 23 8
M  V30 26 1 24 8
M  V30 27 1 25 21
M  V30 28 1 26 13
M  V30 29 1 26 25
M  V30 30 1 27 2
M  V30 31 1 28 3
M  V30 32 1 29 3
M  V30 33 1 30 5
M  V30 34 1 31 5
M  V30 35 1 7 32 CFG=1
M  V30 36 1 33 9
M  V30 37 1 10 34 CFG=3
M  V30 38 1 35 13
M  V30 39 1 36 17
M  V30 40 1 37 19
M  V30 41 1 20 38 CFG=1
M  V30 42 1 39 21
M  V30 43 1 40 21
M  V30 44 1 41 22
M  V30 45 1 42 25
M  V30 46 1 43 25
M  V30 47 1 44 26
M  V30 48 1 45 26
M  V30 END BOND
M  V30 END CTAB
M  END
>  <i_epik_Tot_Q>  (1) 
1

>  <i_epik_Tot_abs_Q>  (1) 
1

>  <i_i_glide_confnum>  (1) 
2

>  <i_i_glide_lignum>  (1) 
63

>  <i_i_glide_posenum>  (1) 
90

>  <i_i_glide_rotatable_bonds>  (1) 
2

>  <i_lp_mmshare_version>  (1) 
72125

>  <i_m_source_file_index>  (1) 
29

>  <i_f3d_flags>  (1) 
0

>  <num_sample>  (1) 
50

>  <b_lp_Chiralities_Consistent>  (1) 
1

>  <r_epik_Charging_Adjusted_Penalty>  (1) 
0

>  <r_epik_Ionization_Penalty>  (1) 
1.069405246037928e-05

>  <r_epik_Ionization_Penalty_Charging>  (1) 
0

>  <r_epik_Ionization_Penalty_Neutral>  (1) 
1.069405246037928e-05

>  <r_epik_State_Penalty>  (1) 
-0

>  <r_glide_ring_energy>  (1) 
1.0823529994595977

>  <r_i_docking_score>  (1) 
-6.5598861862272368

>  <r_i_glide_ecoul>  (1) 
0.41042958479425029

>  <r_i_glide_eff_state_penalty>  (1) 
-0

>  <r_i_glide_einternal>  (1) 
3.1637995932360123

>  <r_i_glide_emodel>  (1) 
-44.469278801903279

>  <r_i_glide_emodel_strain>  (1) 
0.80325451100659251

>  <r_i_glide_energy>  (1) 
-33.979387009027427

>  <r_i_glide_erotb>  (1) 
0.12919976224793953

>  <r_i_glide_esite>  (1) 
0

>  <r_i_glide_evdw>  (1) 
-34.389816593821678

>  <r_i_glide_gscore>  (1) 
-6.5598861862272368

>  <r_i_glide_gscore_strain>  (1) 
0

>  <r_i_glide_hbond>  (1) 
0

>  <r_i_glide_ligand_efficiency>  (1) 
-0.25230331485489371

>  <r_i_glide_ligand_efficiency_ln>  (1) 
-1.5405677460932528

>  <r_i_glide_ligand_efficiency_sa>  (1) 
-0.74744757830376973

>  <r_i_glide_lipo>  (1) 
-2.0404035432307959

>  <r_i_glide_metal>  (1) 
-0

>  <r_i_glide_rewards>  (1) 
-2.990756013272434

>  <r_lp_Energy>  (1) 
24.158424

>  <r_lp_tautomer_probability>  (1) 
1

>  <s_epik_cmdline>  (1) 
J2VwaWtfcHl0aG9uJywgJy1waHQnLCAnMS4wJywgJy1waCcsICc3LjQnLCAnLXRuJywgJzgnLCAnLW1hJywgJzUwMCcsICctaW1hZScsICc8aW5maWxlLm1hZT4nLCAnLW9tYWUnLCAnPG91dGZpbGUubWFlPic=

>  <s_epik_input>  (1) 
W0NIMl0xW0NIMl1bQ0gyXVtDSF09W0NIXVtDSDJdW0NAQEhdMVtDQEhdMk9bUEArXTIzW0NIMl1jNGMoW0NAQEhdKEYpQyg9TylbTkhdMylbY0hdYyhDKEYpKEYpRilbY0hdW2NIXTQ=

>  <s_glide_docking_method>  (1) 
confgen

>  <s_i_glide_gridfile>  (1) 
gpcr_5ht2c_6bqh_protein_autoprepared_prepared

>  <s_lp_Force_Field>  (1) 
S-OPLS

>  <s_lp_Variant>  (1) 
DiffSBDD_28-2

>  <s_m_source_file>  (1) 
generated_GPCR_5HT2C_ligand_DiffSBDD_2026-06-23_prepared.sdf

>  <GenAI_Model>  (1) 
DiffSBDD

>  <Protein>  (1) 
GPCR_5HT2C

$$$$
DiffSBDD_2
     RDKit          3D

  0  0  0  0  0  0  0  0  0  0999 V3000
M  V30 BEGIN CTAB
M  V30 COUNTS 85 88 0 0 1
M  V30 BEGIN ATOM
M  V30 1 C 39.034711 28.349750 53.156787 0 CFG=1
M  V30 2 C 40.879981 33.509570 64.070156 0
M  V30 3 C 36.023671 30.346810 59.777847 0
M  V30 4 C 39.689616 30.725248 53.470061 0
M  V30 5 C 40.475002 32.629255 63.179806 0
M  V30 6 C 37.878763 30.978365 55.862228 0
M  V30 7 C 38.994172 34.228959 61.804812 0 CFG=2
M  V30 8 C 39.484599 27.999442 50.713559 0
M  V30 9 C 38.954141 31.476232 56.858305 0
M  V30 10 C 38.001426 32.631205 60.365546 0 CFG=1
M  V30 11 N 39.763674 32.978533 62.006621 0
M  V30 12 C 39.645125 27.335954 54.185163 0
M  V30 13 C 41.490844 32.068193 66.720545 0
M  V30 14 C 38.279723 34.118699 60.455007 0
M  V30 15 N 37.649854 32.063027 59.019576 0 CFG=1 CHG=1
M  V30 16 C 40.677931 30.537009 64.771189 0
M  V30 17 C 41.310848 34.153077 65.133263 0
M  V30 18 C 39.248489 32.026274 61.017657 0
M  V30 19 C 38.507238 32.546003 57.880818 0 CFG=2
M  V30 20 C 42.018525 33.451511 66.301646 0
M  V30 21 C 40.824354 31.123487 63.353764 0
M  V30 22 C 38.858908 36.815303 61.682097 0
M  V30 23 C 38.602688 26.937994 51.299862 0
M  V30 24 C 37.650184 36.988017 62.614939 0
M  V30 25 C 38.219122 29.614164 55.275363 0
M  V30 26 C 39.735333 35.581447 61.998908 0 CFG=2
M  V30 27 C 37.882001 27.633591 52.445649 0
M  V30 28 F 41.435923 31.769524 68.029099 0
M  V30 29 S 40.045640 30.492884 51.730548 0
M  V30 30 C 41.059306 35.617095 61.229278 0
M  V30 31 C 37.839326 33.737181 57.181112 0
M  V30 32 C 41.095471 31.163548 65.850424 0
M  V30 33 C 38.608787 29.691609 53.802250 0 CFG=2
M  V30 34 C 37.375642 30.597252 59.120313 0
M  V30 35 C 39.969977 28.710796 51.956230 0 CFG=1
M  V30 36 H 35.737118 29.304094 59.672876 0
M  V30 37 H 36.028692 30.579948 60.840695 0
M  V30 38 H 35.245107 30.942403 59.298976 0
M  V30 39 H 39.369528 31.749649 53.642083 0
M  V30 40 H 40.594364 30.544903 54.050619 0
M  V30 41 H 36.916066 30.820936 56.315716 0
M  V30 42 H 37.674619 31.726877 55.097299 0
M  V30 43 H 38.238946 34.190252 62.567760 0
M  V30 44 H 38.916367 28.655326 50.054686 0
M  V30 45 H 40.315071 27.563488 50.166517 0
M  V30 46 H 39.770161 31.892281 56.266515 0
M  V30 47 H 39.408110 30.642647 57.395751 0
M  V30 48 H 37.160880 32.455879 61.038895 0
M  V30 49 H 40.203193 26.541166 53.687683 0
M  V30 50 H 40.290527 27.760529 54.965101 0
M  V30 51 H 38.849612 26.839077 54.741431 0
M  V30 52 H 38.957780 34.470799 59.686735 0
M  V30 53 H 37.366841 34.713510 60.407672 0
M  V30 54 H 40.243844 29.549780 64.839081 0
M  V30 55 H 41.204235 35.225596 65.211733 0
M  V30 56 H 40.032249 31.827708 60.289241 0
M  V30 57 H 38.934387 31.083612 61.456379 0
M  V30 58 H 39.441225 32.920692 58.294728 0
M  V30 59 H 43.082666 33.376519 66.072704 0
M  V30 60 H 41.931911 34.108854 67.166946 0
M  V30 61 H 40.286068 30.438089 62.712356 0
M  V30 62 H 41.869358 31.002010 63.068420 0
M  V30 63 H 39.475700 37.710791 61.770266 0
M  V30 64 H 38.517096 36.790286 60.647406 0
M  V30 65 H 37.940809 26.525408 50.567760 0
M  V30 66 H 39.245309 26.138690 51.665102 0
M  V30 67 H 37.078823 37.873646 62.335980 0
M  V30 68 H 36.971506 36.137350 62.569820 0
M  V30 69 H 37.966911 37.113721 63.651151 0
M  V30 70 H 38.978158 29.141134 55.890851 0
M  V30 71 H 37.344415 28.966776 55.348151 0
M  V30 72 H 39.979814 35.702046 63.049762 0
M  V30 73 H 37.156787 28.337246 52.032678 0
M  V30 74 H 37.329862 26.939325 53.079539 0
M  V30 75 H 40.891057 35.444475 60.169825 0
M  V30 76 H 41.567462 36.571982 61.362631 0
M  V30 77 H 41.733536 34.840296 61.582274 0
M  V30 78 H 38.437669 34.113743 56.350090 0
M  V30 79 H 36.870618 33.452066 56.793600 0
M  V30 80 H 37.644452 34.564411 57.858570 0
M  V30 81 H 37.704300 30.040330 53.313245 0
M  V30 82 H 37.306881 30.088649 58.171119 0
M  V30 83 H 38.170449 30.065767 59.640704 0
M  V30 84 H 40.966960 28.349504 52.106046 0
M  V30 85 H 36.739419 32.433921 58.774559 0
M  V30 END ATOM
M  V30 BEGIN BOND
M  V30 1 2 5 2
M  V30 2 1 9 6
M  V30 3 1 11 5
M  V30 4 1 11 7
M  V30 5 1 1 12 CFG=1
M  V30 6 1 14 7
M  V30 7 1 14 10
M  V30 8 1 15 10
M  V30 9 2 17 2
M  V30 10 1 18 10
M  V30 11 1 18 11
M  V30 12 1 19 9
M  V30 13 1 19 15
M  V30 14 1 20 13
M  V30 15 1 20 17
M  V30 16 1 21 5
M  V30 17 1 21 16
M  V30 18 1 23 8
M  V30 19 1 24 22
M  V30 20 1 25 6
M  V30 21 1 26 7
M  V30 22 1 26 22
M  V30 23 1 27 1
M  V30 24 1 27 23
M  V30 25 1 28 13
M  V30 26 1 29 4
M  V30 27 1 30 26
M  V30 28 1 31 19
M  V30 29 2 32 13
M  V30 30 2 32 16
M  V30 31 1 33 1
M  V30 32 1 33 4
M  V30 33 1 33 25
M  V30 34 1 34 3
M  V30 35 1 34 15
M  V30 36 1 35 1
M  V30 37 1 35 8
M  V30 38 1 35 29
M  V30 39 1 36 3
M  V30 40 1 37 3
M  V30 41 1 38 3
M  V30 42 1 39 4
M  V30 43 1 40 4
M  V30 44 1 41 6
M  V30 45 1 42 6
M  V30 46 1 7 43 CFG=1
M  V30 47 1 44 8
M  V30 48 1 45 8
M  V30 49 1 46 9
M  V30 50 1 47 9
M  V30 51 1 10 48 CFG=1
M  V30 52 1 49 12
M  V30 53 1 50 12
M  V30 54 1 51 12
M  V30 55 1 52 14
M  V30 56 1 53 14
M  V30 57 1 54 16
M  V30 58 1 55 17
M  V30 59 1 56 18
M  V30 60 1 57 18
M  V30 61 1 19 58 CFG=1
M  V30 62 1 59 20
M  V30 63 1 60 20
M  V30 64 1 61 21
M  V30 65 1 62 21
M  V30 66 1 63 22
M  V30 67 1 64 22
M  V30 68 1 65 23
M  V30 69 1 66 23
M  V30 70 1 67 24
M  V30 71 1 68 24
M  V30 72 1 69 24
M  V30 73 1 70 25
M  V30 74 1 71 25
M  V30 75 1 26 72 CFG=1
M  V30 76 1 73 27
M  V30 77 1 74 27
M  V30 78 1 75 30
M  V30 79 1 76 30
M  V30 80 1 77 30
M  V30 81 1 78 31
M  V30 82 1 79 31
M  V30 83 1 80 31
M  V30 84 1 33 81 CFG=3
M  V30 85 1 82 34
M  V30 86 1 83 34
M  V30 87 1 35 84 CFG=1
M  V30 88 1 15 85 CFG=3
M  V30 END BOND
M  V30 END CTAB
M  END
>  <i_epik_Tot_Q>  (1) 
1

>  <i_epik_Tot_abs_Q>  (1) 
1

>  <i_i_glide_confnum>  (1) 
1531

>  <i_i_glide_lignum>  (1) 
9

>  <i_i_glide_posenum>  (1) 
212

>  <i_i_glide_rotatable_bonds>  (1) 
10

>  <i_lp_mmshare_version>  (1) 
72125

>  <i_m_source_file_index>  (1) 
3

>  <i_f3d_flags>  (1) 
0

>  <num_sample>  (1) 
50

>  <b_lp_Chiralities_Consistent>  (1) 
1

>  <r_epik_Charging_Adjusted_Penalty>  (1) 
0.074245454784308482

>  <r_epik_Ionization_Penalty>  (1) 
0.013686655559845946

>  <r_epik_Ionization_Penalty_Charging>  (1) 
0.012771505238954846

>  <r_epik_Ionization_Penalty_Neutral>  (1) 
0.00091515032089109971

>  <r_epik_State_Penalty>  (1) 
0.06147394954535363

>  <r_glide_ring_energy>  (1) 
1.3016869551617385

>  <r_i_docking_score>  (1) 
-6.549868527250287

>  <r_i_glide_ecoul>  (1) 
-1.699928985225986

>  <r_i_glide_eff_state_penalty>  (1) 
0.06147394954535363

>  <r_i_glide_einternal>  (1) 
15.225266866340021

>  <r_i_glide_emodel>  (1) 
-27.828753423484883

>  <r_i_glide_emodel_strain>  (1) 
6.0209692290326018

>  <r_i_glide_energy>  (1) 
-35.698098002091335

>  <r_i_glide_erotb>  (1) 
0.64899532480163924

>  <r_i_glide_esite>  (1) 
-0.072998636890832705

>  <r_i_glide_evdw>  (1) 
-33.998169016865347

>  <r_i_glide_gscore>  (1) 
-6.6113424767956408

>  <r_i_glide_gscore_strain>  (1) 
0.50524230725815045

>  <r_i_glide_hbond>  (1) 
-0.010899284323448959

>  <r_i_glide_ligand_efficiency>  (1) 
-0.18713910077857962

>  <r_i_glide_ligand_efficiency_ln>  (1) 
-1.4378415082312606

>  <r_i_glide_ligand_efficiency_sa>  (1) 
-0.61214440787579916

>  <r_i_glide_lipo>  (1) 
-4.5518042814701474

>  <r_i_glide_metal>  (1) 
-0

>  <r_i_glide_rewards>  (1) 
-1.1749801075438369

>  <r_lp_Energy>  (1) 
19.396519999999999

>  <s_epik_cmdline>  (1) 
J2VwaWtfcHl0aG9uJywgJy1waHQnLCAnMS4wJywgJy1waCcsICc3LjQnLCAnLXRuJywgJzgnLCAnLW1hJywgJzUwMCcsICctaW1hZScsICc8aW5maWxlLm1hZT4nLCAnLW9tYWUnLCAnPG91dGZpbGUubWFlPic=

>  <s_epik_input>  (1) 
W0NIMl0xW0NIMl1bQ0gyXVtDQEhdKFtDQF0xMltDSDNdKVNbQ0gyXVtDQEBIXTJbQ0gyXVtDSDJdW0NIMl1bQ0BASF0oW0NIM10pTihbQ0gyXVtDSDNdKVtDQEhdKFtDSDJdMylbQ0gyXU4oW0NASF0zW0NAQEhdKFtDSDNdKVtDSDJdW0NIM10pQzQ9Qz1bQ0hdW0NIMl1DKEYpPUM9W0NIXVtDSDJdNA==

>  <s_glide_docking_method>  (1) 
confgen

>  <s_i_glide_gridfile>  (1) 
gpcr_5ht2c_6bqh_protein_autoprepared_prepared

>  <s_lp_Force_Field>  (1) 
S-OPLS

>  <s_lp_Variant>  (1) 
DiffSBDD_2-1

>  <s_m_source_file>  (1) 
generated_GPCR_5HT2C_ligand_DiffSBDD_2026-06-23_prepared.sdf

>  <GenAI_Model>  (1) 
DiffSBDD

>  <Protein>  (1) 
GPCR_5HT2C

$$$$
DiffSBDD_39
     RDKit          3D

  0  0  0  0  0  0  0  0  0  0999 V3000
M  V30 BEGIN CTAB
M  V30 COUNTS 57 60 0 0 1
M  V30 BEGIN ATOM
M  V30 1 C 38.482797 31.929856 60.612909 0 CFG=1
M  V30 2 N 39.287299 30.732162 60.609215 0
M  V30 3 N 38.927051 27.484229 55.933492 0
M  V30 4 C 41.105348 34.817205 64.881155 0
M  V30 5 C 40.939284 31.201569 63.831778 0
M  V30 6 O 40.045139 25.649063 56.954734 0
M  V30 7 O 37.994878 26.282435 57.788264 0
M  V30 8 N 38.318499 27.467053 54.719321 0
M  V30 9 C 37.908600 29.429249 57.213111 0 CFG=2
M  V30 10 F 37.245177 23.745692 57.224266 0
M  V30 11 O 42.445049 35.245837 64.881004 0
M  V30 12 F 43.072704 30.922013 67.418075 0
M  V30 13 C 40.116472 30.384471 61.625775 0
M  V30 14 O 37.047335 30.803533 58.987101 0
M  V30 15 C 38.253532 30.440013 58.331651 0 CFG=1
M  V30 16 C 39.150504 28.804497 56.526016 0
M  V30 17 O 40.761040 29.337716 61.630231 0
M  V30 18 N 36.993596 24.513693 56.019510 0
M  V30 19 C 38.794112 26.191319 56.632956 0
M  V30 20 C 42.075501 29.848480 65.532316 0
M  V30 21 C 41.357168 29.932673 64.326109 0
M  V30 22 N 40.845146 33.638556 64.065064 0
M  V30 23 C 41.973567 32.271149 65.780204 0
M  V30 24 C 37.202507 31.956151 59.807242 0 CFG=1
M  V30 25 C 42.382292 31.012202 66.256355 0
M  V30 26 O 37.206558 31.714562 61.229237 0
M  V30 27 C 37.917947 26.272480 54.531289 0
M  V30 28 C 39.139073 29.846226 59.447104 0
M  V30 29 C 38.178274 25.246955 55.572159 0 CFG=2
M  V30 30 O 37.245142 30.137739 56.188201 0
M  V30 31 N 40.181991 31.324620 62.604359 0
M  V30 32 C 36.444561 23.677005 54.967832 0
M  V30 33 C 41.248859 32.376721 64.563584 0
M  V30 34 H 38.951470 32.889564 60.825721 0
M  V30 35 H 40.749023 34.683885 65.902978 0
M  V30 36 H 40.507802 35.631630 64.469640 0
M  V30 37 H 40.716325 26.247563 56.663005 0
M  V30 38 H 37.556861 25.447323 57.885504 0
M  V30 39 H 37.242729 28.669939 57.618947 0
M  V30 40 H 42.892445 34.817058 64.169384 0
M  V30 41 H 38.733145 31.318718 57.893183 0
M  V30 42 H 39.561483 29.476557 55.771258 0
M  V30 43 H 39.950870 28.654774 57.244687 0
M  V30 44 H 42.387627 28.884717 65.906814 0
M  V30 45 H 41.118146 29.026669 63.800983 0
M  V30 46 H 40.305009 33.720812 63.218664 0
M  V30 47 H 42.220502 33.152615 66.348530 0
M  V30 48 H 36.771726 32.891143 59.452830 0
M  V30 49 H 37.392268 25.993994 53.618698 0
M  V30 50 H 40.136273 29.632086 59.063983 0
M  V30 51 H 38.713764 28.898702 59.783522 0
M  V30 52 H 38.915965 24.537142 55.194550 0
M  V30 53 H 36.569556 30.707635 56.567757 0
M  V30 54 H 39.685704 32.187257 62.461824 0
M  V30 55 H 35.602631 23.110185 55.367875 0
M  V30 56 H 36.071286 24.270418 54.136071 0
M  V30 57 H 37.186347 22.970805 54.592961 0
M  V30 END ATOM
M  V30 BEGIN BOND
M  V30 1 1 2 1
M  V30 2 1 8 3
M  V30 3 1 11 4
M  V30 4 1 13 2
M  V30 5 1 15 9
M  V30 6 1 15 14
M  V30 7 1 16 3
M  V30 8 1 16 9
M  V30 9 2 17 13
M  V30 10 1 18 10
M  V30 11 1 19 3
M  V30 12 1 19 6
M  V30 13 1 19 7
M  V30 14 1 21 5
M  V30 15 2 21 20
M  V30 16 1 22 4
M  V30 17 1 24 1
M  V30 18 1 24 14
M  V30 19 1 25 12
M  V30 20 1 25 20
M  V30 21 2 25 23
M  V30 22 1 26 1
M  V30 23 1 26 24
M  V30 24 2 27 8
M  V30 25 1 28 2
M  V30 26 1 28 15
M  V30 27 1 29 18
M  V30 28 1 29 19
M  V30 29 1 29 27
M  V30 30 1 30 9
M  V30 31 1 31 5
M  V30 32 1 31 13
M  V30 33 1 32 18
M  V30 34 2 33 5
M  V30 35 1 33 22
M  V30 36 1 33 23
M  V30 37 1 1 34 CFG=1
M  V30 38 1 35 4
M  V30 39 1 36 4
M  V30 40 1 37 6
M  V30 41 1 38 7
M  V30 42 1 9 39 CFG=1
M  V30 43 1 40 11
M  V30 44 1 15 41 CFG=3
M  V30 45 1 42 16
M  V30 46 1 43 16
M  V30 47 1 44 20
M  V30 48 1 45 21
M  V30 49 1 46 22
M  V30 50 1 47 23
M  V30 51 1 24 48 CFG=1
M  V30 52 1 49 27
M  V30 53 1 50 28
M  V30 54 1 51 28
M  V30 55 1 29 52 CFG=3
M  V30 56 1 53 30
M  V30 57 1 54 31
M  V30 58 1 55 32
M  V30 59 1 56 32
M  V30 60 1 57 32
M  V30 END BOND
M  V30 END CTAB
M  END
>  <i_epik_Tot_Q>  (1) 
0

>  <i_epik_Tot_abs_Q>  (1) 
0

>  <i_i_glide_confnum>  (1) 
873

>  <i_i_glide_lignum>  (1) 
82

>  <i_i_glide_posenum>  (1) 
229

>  <i_i_glide_rotatable_bonds>  (1) 
13

>  <i_lp_mmshare_version>  (1) 
72125

>  <i_m_source_file_index>  (1) 
40

>  <i_f3d_flags>  (1) 
0

>  <num_sample>  (1) 
50

>  <b_lp_Chiralities_Consistent>  (1) 
1

>  <r_epik_Charging_Adjusted_Penalty>  (1) 
0.0039576598872860577

>  <r_epik_Ionization_Penalty>  (1) 
0.0039962828818057711

>  <r_epik_Ionization_Penalty_Charging>  (1) 
0

>  <r_epik_Ionization_Penalty_Neutral>  (1) 
0.0039962828818057711

>  <r_epik_State_Penalty>  (1) 
0.0039576598872860577

>  <r_glide_ring_energy>  (1) 
0

>  <r_i_docking_score>  (1) 
-6.5443678556396803

>  <r_i_glide_ecoul>  (1) 
-6.2305340845287356

>  <r_i_glide_eff_state_penalty>  (1) 
0.0039576598872860577

>  <r_i_glide_einternal>  (1) 
12.246825123210314

>  <r_i_glide_emodel>  (1) 
-65.050707362338201

>  <r_i_glide_emodel_strain>  (1) 
0.54032302545279265

>  <r_i_glide_energy>  (1) 
-50.823588360205868

>  <r_i_glide_erotb>  (1) 
0.71920970627699021

>  <r_i_glide_esite>  (1) 
-0.050775036284576407

>  <r_i_glide_evdw>  (1) 
-44.593054275677133

>  <r_i_glide_gscore>  (1) 
-6.5483255155269662

>  <r_i_glide_gscore_strain>  (1) 
0

>  <r_i_glide_hbond>  (1) 
-0.50807147801987806

>  <r_i_glide_ligand_efficiency>  (1) 
-0.19831417744362667

>  <r_i_glide_ligand_efficiency_ln>  (1) 
-1.4554335261709905

>  <r_i_glide_ligand_efficiency_sa>  (1) 
-0.63609953227531657

>  <r_i_glide_lipo>  (1) 
-1.4063481738277099

>  <r_i_glide_metal>  (1) 
-0

>  <r_i_glide_rewards>  (1) 
-2.1381077072086248

>  <r_lp_Energy>  (1) 
32.683669000000002

>  <s_epik_Chemistry_Notes>  (1) 
This compound has an imine and may undergo hydrolysis. This compound contains an acetal/aminal-like group ( X-CH(R)-Y where X, Y are N, S, or O) that may be acid/base labile, releasing an aldehyde.

>  <s_epik_cmdline>  (1) 
J2VwaWtfcHl0aG9uJywgJy1waHQnLCAnMS4wJywgJy1waCcsICc3LjQnLCAnLXRuJywgJzgnLCAnLW1hJywgJzUwMCcsICctaW1hZScsICc8aW5maWxlLm1hZT4nLCAnLW9tYWUnLCAnPG91dGZpbGUubWFlPic=

>  <s_epik_input>  (1) 
Rk4oW0NIM10pW0NASF0xW0NIXT1OTihDMShbT0hdKVtPSF0pW0NIMl1bQ0BIXShbT0hdKVtDQEBIXShPW0NAQEhdKE8yKVtDQEBIXTIzKVtDSDJdTjNDKD1PKVtOSF1jNFtjSF1bY0hdYyhGKVtjSF1jNFtOSF1bQ0gyXVtPSF0=

>  <s_glide_docking_method>  (1) 
confgen

>  <s_i_glide_gridfile>  (1) 
gpcr_5ht2c_6bqh_protein_autoprepared_prepared

>  <s_lp_Force_Field>  (1) 
S-OPLS

>  <s_lp_Variant>  (1) 
DiffSBDD_39-1

>  <s_m_source_file>  (1) 
generated_GPCR_5HT2C_ligand_DiffSBDD_2026-06-23_prepared.sdf

>  <GenAI_Model>  (1) 
DiffSBDD

>  <Protein>  (1) 
GPCR_5HT2C

$$$$
DiffSBDD_1
     RDKit          3D

  0  0  0  0  0  0  0  0  0  0999 V3000
M  V30 BEGIN CTAB
M  V30 COUNTS 78 81 0 0 1
M  V30 BEGIN ATOM
M  V30 1 C 41.059027 28.444684 59.354638 0
M  V30 2 N 38.813835 28.409596 55.427901 0
M  V30 3 C 39.234648 28.785044 51.622986 0 CFG=1
M  V30 4 C 38.755146 27.338380 51.811640 0
M  V30 5 C 41.643117 31.547524 67.380469 0
M  V30 6 C 40.135097 30.128871 62.412869 0
M  V30 7 C 39.450663 29.342618 53.037210 0
M  V30 8 C 39.155650 28.164935 54.004057 0 CFG=2
M  V30 9 C 44.128106 30.486072 65.863274 0
M  V30 10 N 41.004204 29.151225 61.759673 0
M  V30 11 O 43.830311 26.967429 68.193033 0
M  V30 12 C 40.419150 28.794834 63.037472 0 CFG=1
M  V30 13 C 43.076455 30.423723 64.818269 0 CFG=1
M  V30 14 O 43.134026 29.242438 63.906901 0
M  V30 15 C 41.673262 26.015986 67.845445 0
M  V30 16 C 40.696688 30.145113 50.342268 0
M  V30 17 C 41.887231 29.918915 65.490349 0
M  V30 18 C 39.283097 27.384628 56.373603 0
M  V30 19 C 43.218008 26.689287 65.903955 0
M  V30 20 O 40.123672 29.738017 66.955725 0
M  V30 21 O 37.634061 30.335023 55.074034 0
M  V30 22 C 42.173810 26.802413 64.779456 0
M  V30 23 O 40.425828 28.845541 50.854799 0
M  V30 24 O 45.070453 32.537869 66.565706 0
M  V30 25 P 41.607738 28.564836 64.417201 0 CFG=1 CHG=1
M  V30 26 C 42.719203 27.012881 67.325220 0 CFG=2
M  V30 27 C 41.242223 30.377222 66.576431 0
M  V30 28 C 36.746204 27.737341 53.364713 0
M  V30 29 O 40.216376 27.716164 58.493314 0
M  V30 30 C 38.079230 29.489299 55.843671 0
M  V30 31 C 37.811421 29.623241 57.346201 0
M  V30 32 C 42.851230 32.207548 67.381983 0
M  V30 33 C 44.076593 31.816042 66.601152 0
M  V30 34 C 40.549040 27.816502 57.126553 0
M  V30 35 C 38.190756 27.264420 53.241078 0 CFG=1
M  V30 36 C 40.355821 28.385812 60.703998 0
M  V30 37 H 41.163455 29.479253 59.027767 0
M  V30 38 H 42.045189 27.988279 59.393019 0
M  V30 39 H 38.445042 29.337783 51.118946 0
M  V30 40 H 38.046060 27.028144 51.046413 0
M  V30 41 H 39.610473 26.664250 51.735086 0
M  V30 42 H 40.887070 31.944996 68.043354 0
M  V30 43 H 39.216625 30.308853 61.856573 0
M  V30 44 H 40.707680 30.998187 62.731080 0
M  V30 45 H 38.787555 30.194497 53.114649 0
M  V30 46 H 40.445304 29.743988 53.186757 0
M  V30 47 H 40.045109 27.543949 54.041544 0
M  V30 48 H 44.068170 29.665082 66.577352 0
M  V30 49 H 45.111928 30.407313 65.398263 0
M  V30 50 H 44.471090 27.603943 67.915005 0
M  V30 51 H 39.646064 28.037068 62.926943 0
M  V30 52 H 42.962503 31.343004 64.240189 0
M  V30 53 H 40.760371 26.040651 67.252221 0
M  V30 54 H 42.055778 24.994724 67.838219 0
M  V30 55 H 41.389003 26.253553 68.869659 0
M  V30 56 H 41.625360 30.138989 49.773597 0
M  V30 57 H 39.901242 30.474549 49.673099 0
M  V30 58 H 40.805298 30.880898 51.139223 0
M  V30 59 H 39.493234 26.451119 55.850143 0
M  V30 60 H 38.483637 27.100702 57.058977 0
M  V30 61 H 43.620859 25.675650 65.896164 0
M  V30 62 H 44.060079 27.335143 65.650315 0
M  V30 63 H 39.763839 29.246335 66.235999 0
M  V30 64 H 41.315504 26.166498 64.991064 0
M  V30 65 H 42.611530 26.398891 63.866505 0
M  V30 66 H 42.313620 28.019391 67.381206 0
M  V30 67 H 36.582172 28.688687 52.864297 0
M  V30 68 H 36.059129 27.014461 52.967766 0
M  V30 69 H 36.449723 27.836083 54.400647 0
M  V30 70 H 37.218755 28.792707 57.729148 0
M  V30 71 H 38.735869 29.712957 57.911843 0
M  V30 72 H 37.245548 30.535688 57.531417 0
M  V30 73 H 42.955275 33.073822 68.019470 0
M  V30 74 H 40.838962 28.834613 56.857984 0
M  V30 75 H 41.395565 27.167726 56.894740 0
M  V30 76 H 38.247899 26.242155 53.618036 0
M  V30 77 H 40.323955 27.338373 60.993450 0
M  V30 78 H 39.315257 28.686627 60.573780 0
M  V30 END ATOM
M  V30 BEGIN BOND
M  V30 1 1 4 3
M  V30 2 1 7 3
M  V30 3 1 8 2
M  V30 4 1 8 7
M  V30 5 1 10 6
M  V30 6 1 12 6
M  V30 7 1 12 10
M  V30 8 1 13 9
M  V30 9 1 14 13
M  V30 10 1 17 13
M  V30 11 1 18 2
M  V30 12 1 22 19
M  V30 13 1 23 3
M  V30 14 1 23 16
M  V30 15 1 25 12
M  V30 16 1 25 14
M  V30 17 1 25 17
M  V30 18 1 25 22 CFG=1
M  V30 19 1 26 11
M  V30 20 1 26 15
M  V30 21 1 26 19
M  V30 22 1 27 5
M  V30 23 2 27 17
M  V30 24 1 27 20
M  V30 25 1 29 1
M  V30 26 1 30 2
M  V30 27 2 30 21
M  V30 28 1 31 30
M  V30 29 2 32 5
M  V30 30 1 33 9
M  V30 31 2 33 24
M  V30 32 1 33 32
M  V30 33 1 34 18
M  V30 34 1 34 29
M  V30 35 1 35 4
M  V30 36 1 35 8
M  V30 37 1 35 28
M  V30 38 1 36 1
M  V30 39 1 36 10
M  V30 40 1 37 1
M  V30 41 1 38 1
M  V30 42 1 3 39 CFG=3
M  V30 43 1 40 4
M  V30 44 1 41 4
M  V30 45 1 42 5
M  V30 46 1 43 6
M  V30 47 1 44 6
M  V30 48 1 45 7
M  V30 49 1 46 7
M  V30 50 1 8 47 CFG=1
M  V30 51 1 48 9
M  V30 52 1 49 9
M  V30 53 1 50 11
M  V30 54 1 12 51 CFG=3
M  V30 55 1 13 52 CFG=3
M  V30 56 1 53 15
M  V30 57 1 54 15
M  V30 58 1 55 15
M  V30 59 1 56 16
M  V30 60 1 57 16
M  V30 61 1 58 16
M  V30 62 1 59 18
M  V30 63 1 60 18
M  V30 64 1 61 19
M  V30 65 1 62 19
M  V30 66 1 63 20
M  V30 67 1 64 22
M  V30 68 1 65 22
M  V30 69 1 26 66 CFG=3
M  V30 70 1 67 28
M  V30 71 1 68 28
M  V30 72 1 69 28
M  V30 73 1 70 31
M  V30 74 1 71 31
M  V30 75 1 72 31
M  V30 76 1 73 32
M  V30 77 1 74 34
M  V30 78 1 75 34
M  V30 79 1 35 76 CFG=1
M  V30 80 1 77 36
M  V30 81 1 78 36
M  V30 END BOND
M  V30 END CTAB
M  END
>  <i_epik_Tot_Q>  (1) 
1

>  <i_epik_Tot_abs_Q>  (1) 
1

>  <i_i_glide_confnum>  (1) 
2478

>  <i_i_glide_lignum>  (1) 
8

>  <i_i_glide_posenum>  (1) 
324

>  <i_i_glide_rotatable_bonds>  (1) 
15

>  <i_lp_mmshare_version>  (1) 
72125

>  <i_m_source_file_index>  (1) 
2

>  <i_f3d_flags>  (1) 
0

>  <num_sample>  (1) 
50

>  <b_lp_Chiralities_Consistent>  (1) 
1

>  <r_epik_Charging_Adjusted_Penalty>  (1) 
0.012777702237649643

>  <r_epik_Ionization_Penalty>  (1) 
0.012893064322698497

>  <r_epik_Ionization_Penalty_Charging>  (1) 
0

>  <r_epik_Ionization_Penalty_Neutral>  (1) 
0.012893064322698497

>  <r_epik_State_Penalty>  (1) 
0.012777702237649643

>  <r_glide_ring_energy>  (1) 
1.0866904989986343

>  <r_i_docking_score>  (1) 
-6.5375972319353437

>  <r_i_glide_ecoul>  (1) 
-5.6470233350764794

>  <r_i_glide_eff_state_penalty>  (1) 
0.012777702237649643

>  <r_i_glide_einternal>  (1) 
8.5112522342935151

>  <r_i_glide_emodel>  (1) 
-62.577194982458508

>  <r_i_glide_emodel_strain>  (1) 
3.8099243620275871

>  <r_i_glide_energy>  (1) 
-49.414148667906872

>  <r_i_glide_erotb>  (1) 
0.81958699115176215

>  <r_i_glide_esite>  (1) 
-0.022055836008975052

>  <r_i_glide_evdw>  (1) 
-43.767125332830396

>  <r_i_glide_gscore>  (1) 
-6.5503749341729938

>  <r_i_glide_gscore_strain>  (1) 
0

>  <r_i_glide_hbond>  (1) 
-0.32000000000000001

>  <r_i_glide_ligand_efficiency>  (1) 
-0.18159992310931511

>  <r_i_glide_ligand_efficiency_ln>  (1) 
-1.4263270905426728

>  <r_i_glide_ligand_efficiency_sa>  (1) 
-0.59962973451181667

>  <r_i_glide_lipo>  (1) 
-3.5506042948719845

>  <r_i_glide_metal>  (1) 
-0

>  <r_i_glide_rewards>  (1) 
-0.44189202754080487

>  <r_lp_Energy>  (1) 
26.969071

>  <s_epik_cmdline>  (1) 
J2VwaWtfcHl0aG9uJywgJy1waHQnLCAnMS4wJywgJy1waCcsICc3LjQnLCAnLXRuJywgJzgnLCAnLW1hJywgJzUwMCcsICctaW1hZScsICc8aW5maWxlLm1hZT4nLCAnLW9tYWUnLCAnPG91dGZpbGUubWFlPic=

>  <s_epik_input>  (1) 
W0NIM11PW0NASF0xW0NIMl1bQ0BIXShbQ0gzXSlbQ0BASF0oW0NIMl0xKU4oQyg9TylbQ0gzXSlbQ0gyXVtDSDJdT1tDSDJdW0NIMl1OMltDSDJdW0NIXTJbUEBAK10oTzMpKFtDSDJdW0NIMl1bQ0BIXShbT0hdKVtDSDNdKUMoW0NAQEhdMzQpPUMoW09IXSlbQ0hdPVtDSF1DKD1PKVtDSDJdNA==

>  <s_glide_docking_method>  (1) 
confgen

>  <s_i_glide_gridfile>  (1) 
gpcr_5ht2c_6bqh_protein_autoprepared_prepared

>  <s_lp_Force_Field>  (1) 
S-OPLS

>  <s_lp_Variant>  (1) 
DiffSBDD_1-4

>  <s_m_source_file>  (1) 
generated_GPCR_5HT2C_ligand_DiffSBDD_2026-06-23_prepared.sdf

>  <GenAI_Model>  (1) 
DiffSBDD

>  <Protein>  (1) 
GPCR_5HT2C

$$$$
DiffSBDD_14
     RDKit          3D

  0  0  0  0  0  0  0  0  0  0999 V3000
M  V30 BEGIN CTAB
M  V30 COUNTS 59 60 0 0 1
M  V30 BEGIN ATOM
M  V30 1 Cl 37.301957 37.865170 61.379040 0
M  V30 2 C 38.794328 29.919597 60.362223 0
M  V30 3 N 39.946341 35.103436 62.571160 0
M  V30 4 C 39.757480 34.139558 61.639243 0
M  V30 5 C 39.212210 31.121436 54.594689 0
M  V30 6 C 39.369270 28.406092 50.816253 0
M  V30 7 C 39.811980 30.714607 49.976551 0
M  V30 8 C 37.537514 29.913760 59.466930 0 CFG=1
M  V30 9 C 37.479351 28.800568 54.830334 0
M  V30 10 C 38.227855 36.415907 61.451990 0
M  V30 11 C 39.738225 29.864694 51.010993 0
M  V30 12 C 39.186336 36.222365 62.467608 0
M  V30 13 O 36.340765 33.245352 58.967760 0
M  V30 14 N 37.246205 31.209274 58.799826 0 CHG=1
M  V30 15 C 40.034156 30.310379 52.442401 0
M  V30 16 C 38.018700 31.151937 55.554872 0
M  V30 17 C 38.040942 35.410380 60.498037 0
M  V30 18 C 37.289648 32.431337 59.630582 0 CFG=1
M  V30 19 C 38.821070 34.246955 60.589051 0
M  V30 20 C 38.666440 33.129103 59.574699 0
M  V30 21 C 38.457938 29.141330 57.159032 0
M  V30 22 C 37.584965 29.748734 56.032824 0 CFG=2
M  V30 23 C 38.736439 28.820509 53.968349 0
M  V30 24 N 38.960464 30.197456 53.457179 0 CFG=1 CHG=1
M  V30 25 C 37.641260 28.786222 58.419500 0
M  V30 26 H 38.928509 28.946874 60.837953 0
M  V30 27 H 39.703436 30.123369 59.796504 0
M  V30 28 H 38.723219 30.640155 61.176790 0
M  V30 29 H 40.375628 33.258140 61.731318 0
M  V30 30 H 39.380629 32.136130 54.232553 0
M  V30 31 H 40.119384 30.817168 55.122136 0
M  V30 32 H 38.332044 28.207065 51.082148 0
M  V30 33 H 39.468767 28.137407 49.768363 0
M  V30 34 H 40.030772 27.747719 51.380824 0
M  V30 35 H 39.608264 30.385177 48.969312 0
M  V30 36 H 40.078312 31.743225 50.122168 0
M  V30 37 H 36.686460 29.700957 60.114794 0
M  V30 38 H 37.253866 27.779731 55.146480 0
M  V30 39 H 36.655167 29.120433 54.202321 0
M  V30 40 H 39.350073 36.984191 63.218106 0
M  V30 41 H 35.979272 32.814611 58.194780 0
M  V30 42 H 36.330437 31.128516 58.365581 0
M  V30 43 H 40.384363 31.339460 52.404160 0
M  V30 44 H 40.844994 29.737594 52.817784 0
M  V30 45 H 37.178644 31.618138 55.037467 0
M  V30 46 H 38.242760 31.809529 56.392557 0
M  V30 47 H 37.316187 35.532511 59.705622 0
M  V30 48 H 36.964639 32.223115 60.649510 0
M  V30 49 H 39.464363 32.416583 59.765555 0
M  V30 50 H 38.859761 33.526298 58.577022 0
M  V30 51 H 39.295304 29.789990 57.413489 0
M  V30 52 H 38.926276 28.223546 56.800761 0
M  V30 53 H 36.570893 29.866746 56.416531 0
M  V30 54 H 38.590922 28.091248 53.180836 0
M  V30 55 H 39.603845 28.479059 54.533173 0
M  V30 56 H 38.090375 27.911664 58.893026 0
M  V30 57 H 36.640528 28.461629 58.132936 0
M  V30 58 H 38.104097 30.503638 53.022873 0
M  V30 59 H 37.904683 31.326608 58.045113 0
M  V30 END ATOM
M  V30 BEGIN BOND
M  V30 1 1 4 3
M  V30 2 1 8 2
M  V30 3 1 10 1
M  V30 4 1 11 6
M  V30 5 2 11 7
M  V30 6 2 12 3
M  V30 7 1 12 10
M  V30 8 1 14 8
M  V30 9 1 15 11
M  V30 10 1 16 5
M  V30 11 2 17 10
M  V30 12 1 18 13
M  V30 13 1 18 14
M  V30 14 2 19 4
M  V30 15 1 19 17
M  V30 16 1 20 18
M  V30 17 1 20 19
M  V30 18 1 22 9
M  V30 19 1 22 16
M  V30 20 1 22 21
M  V30 21 1 23 9
M  V30 22 1 24 5
M  V30 23 1 24 15
M  V30 24 1 24 23
M  V30 25 1 25 8
M  V30 26 1 25 21
M  V30 27 1 26 2
M  V30 28 1 27 2
M  V30 29 1 28 2
M  V30 30 1 29 4
M  V30 31 1 30 5
M  V30 32 1 31 5
M  V30 33 1 32 6
M  V30 34 1 33 6
M  V30 35 1 34 6
M  V30 36 1 35 7
M  V30 37 1 36 7
M  V30 38 1 8 37 CFG=1
M  V30 39 1 38 9
M  V30 40 1 39 9
M  V30 41 1 40 12
M  V30 42 1 41 13
M  V30 43 1 42 14
M  V30 44 1 43 15
M  V30 45 1 44 15
M  V30 46 1 45 16
M  V30 47 1 46 16
M  V30 48 1 47 17
M  V30 49 1 18 48 CFG=1
M  V30 50 1 49 20
M  V30 51 1 50 20
M  V30 52 1 51 21
M  V30 53 1 52 21
M  V30 54 1 22 53 CFG=1
M  V30 55 1 54 23
M  V30 56 1 55 23
M  V30 57 1 56 25
M  V30 58 1 57 25
M  V30 59 1 24 58 CFG=3
M  V30 60 1 59 14
M  V30 END BOND
M  V30 END CTAB
M  END
>  <i_epik_Tot_Q>  (1) 
2

>  <i_epik_Tot_abs_Q>  (1) 
2

>  <i_i_glide_confnum>  (1) 
355

>  <i_i_glide_lignum>  (1) 
28

>  <i_i_glide_posenum>  (1) 
163

>  <i_i_glide_rotatable_bonds>  (1) 
10

>  <i_lp_mmshare_version>  (1) 
72125

>  <i_m_source_file_index>  (1) 
15

>  <i_f3d_flags>  (1) 
0

>  <num_sample>  (1) 
50

>  <b_lp_Chiralities_Consistent>  (1) 
1

>  <r_epik_Charging_Adjusted_Penalty>  (1) 
0.35265002497065456

>  <r_epik_Ionization_Penalty>  (1) 
0.35265410833524857

>  <r_epik_Ionization_Penalty_Charging>  (1) 
0.072075358936459305

>  <r_epik_Ionization_Penalty_Neutral>  (1) 
0.2805787493987893

>  <r_epik_State_Penalty>  (1) 
0.28057466603419523

>  <r_glide_ring_energy>  (1) 
0

>  <r_i_docking_score>  (1) 
-6.5354315220143659

>  <r_i_glide_ecoul>  (1) 
-5.835433024879018

>  <r_i_glide_eff_state_penalty>  (1) 
0.28057466603419523

>  <r_i_glide_einternal>  (1) 
10.051361709419011

>  <r_i_glide_emodel>  (1) 
-49.804617432777427

>  <r_i_glide_emodel_strain>  (1) 
1.7174852753099614

>  <r_i_glide_energy>  (1) 
-37.239981706130841

>  <r_i_glide_erotb>  (1) 
1.1382379647718497

>  <r_i_glide_esite>  (1) 
-0.15331516993140781

>  <r_i_glide_evdw>  (1) 
-31.404548681251821

>  <r_i_glide_gscore>  (1) 
-6.8160061880485614

>  <r_i_glide_gscore_strain>  (1) 
0

>  <r_i_glide_hbond>  (1) 
-0.32466568797257039

>  <r_i_glide_ligand_efficiency>  (1) 
-0.26141726088057465

>  <r_i_glide_ligand_efficiency_ln>  (1) 
-1.5490931217959076

>  <r_i_glide_ligand_efficiency_sa>  (1) 
-0.76438870788982061

>  <r_i_glide_lipo>  (1) 
-3.2304923616674421

>  <r_i_glide_metal>  (1) 
-0

>  <r_i_glide_rewards>  (1) 
-1.8002285454545464

>  <r_lp_Energy>  (1) 
34.603625000000001

>  <s_epik_Chemistry_Notes>  (1) 
This compound contains an acetal/aminal-like group ( X-CH(R)-Y where X, Y are N, S, or O) that may be acid/base labile, releasing an aldehyde.

>  <s_epik_cmdline>  (1) 
J2VwaWtfcHl0aG9uJywgJy1waHQnLCAnMS4wJywgJy1waCcsICc3LjQnLCAnLXRuJywgJzgnLCAnLW1hJywgJzUwMCcsICctaW1hZScsICc8aW5maWxlLm1hZT4nLCAnLW9tYWUnLCAnPG91dGZpbGUubWFlPic=

>  <s_epik_input>  (1) 
Q2xjMVtjSF1uW2NIXWMoW2NIXTEpW0NIMl1bQ0BASF0oW09IXSlbTkhdW0NASF0oW0NIM10pW0NIMl1bQ0gyXVtDSF0yW0NIMl1bQ0gyXU4oW0NIMl1bQ0gyXTIpW0NIMl1DKFtDSDNdKT1bQ0gyXQ==

>  <s_glide_docking_method>  (1) 
confgen

>  <s_i_glide_gridfile>  (1) 
gpcr_5ht2c_6bqh_protein_autoprepared_prepared

>  <s_lp_Force_Field>  (1) 
S-OPLS

>  <s_lp_Variant>  (1) 
DiffSBDD_14-2

>  <s_m_source_file>  (1) 
generated_GPCR_5HT2C_ligand_DiffSBDD_2026-06-23_prepared.sdf

>  <GenAI_Model>  (1) 
DiffSBDD

>  <Protein>  (1) 
GPCR_5HT2C

$$$$
DiffSBDD_42
     RDKit          3D

  0  0  0  0  0  0  0  0  0  0999 V3000
M  V30 BEGIN CTAB
M  V30 COUNTS 90 93 0 0 1
M  V30 BEGIN ATOM
M  V30 1 C 37.906290 29.939958 58.495124 0 CFG=2
M  V30 2 C 39.191447 36.957593 63.212341 0
M  V30 3 C 40.120714 36.235821 65.496402 0
M  V30 4 C 38.042877 35.301461 61.576175 0
M  V30 5 C 40.358476 29.192547 58.383979 0
M  V30 6 C 40.335969 28.660952 56.048950 0
M  V30 7 C 41.528383 28.893049 66.486132 0
M  V30 8 C 41.389031 30.124938 64.250436 0
M  V30 9 C 40.124463 35.998242 63.970672 0 CFG=2
M  V30 10 C 38.146945 24.855453 58.167758 0
M  V30 11 C 37.196869 33.517448 59.880511 0
M  V30 12 C 41.928039 32.463122 63.811298 0
M  V30 13 C 39.037259 29.403422 56.337480 0 CFG=1
M  V30 14 C 37.886297 28.406990 56.530106 0 CFG=1
M  V30 15 C 40.141301 29.367721 66.945782 0
M  V30 16 C 37.434773 25.930472 57.367267 0
M  V30 17 C 40.569028 28.031755 57.428964 0 CFG=1
M  V30 18 C 38.441342 26.989878 56.881850 0 CFG=2
M  V30 19 C 38.763144 31.554265 61.841131 0
M  V30 20 C 40.813164 32.560766 62.959026 0
M  V30 21 C 41.925093 27.359293 57.577534 0
M  V30 22 C 38.933408 36.549500 61.747694 0
M  V30 23 C 36.676878 25.304978 56.202384 0
M  V30 24 C 37.974539 34.834594 60.116129 0
M  V30 25 C 42.216439 31.247164 64.458486 0
M  V30 26 C 39.179883 31.930310 60.412422 0
M  V30 27 N 37.245144 31.221482 58.877552 0 CHG=1
M  V30 28 O 40.943566 35.287285 66.147040 0
M  V30 29 C 39.979413 31.441816 62.751769 0
M  V30 30 O 41.436499 36.137755 63.466825 0
M  V30 31 C 38.081120 32.344175 59.391233 0 CFG=1
M  V30 32 C 39.245121 30.045369 57.722238 0 CFG=1
M  V30 33 C 40.274270 30.222354 63.392716 0
M  V30 34 C 41.693390 28.813449 64.955489 0
M  V30 35 O 39.542214 27.102942 57.785561 0
M  V30 36 C 37.002968 29.097785 57.591648 0
M  V30 37 H 38.052486 29.388028 59.423926 0
M  V30 38 H 38.234596 37.032917 63.729803 0
M  V30 39 H 39.635137 37.954660 63.236199 0
M  V30 40 H 40.445012 37.238625 65.767702 0
M  V30 41 H 39.107622 36.137805 65.886074 0
M  V30 42 H 38.443721 34.485507 62.167754 0
M  V30 43 H 37.039866 35.500887 61.955131 0
M  V30 44 H 40.120213 28.833943 59.385953 0
M  V30 45 H 41.289070 29.737756 58.494069 0
M  V30 46 H 40.258760 27.939535 55.238351 0
M  V30 47 H 41.130706 29.337742 55.767715 0
M  V30 48 H 41.731512 27.912051 66.917490 0
M  V30 49 H 42.282424 29.563640 66.899689 0
M  V30 50 H 39.805327 34.983087 63.767759 0
M  V30 51 H 38.965863 24.401744 57.607658 0
M  V30 52 H 37.472806 24.066389 58.489254 0
M  V30 53 H 38.551459 25.337739 59.058532 0
M  V30 54 H 36.633442 33.237641 60.770885 0
M  V30 55 H 36.439686 33.714478 59.119082 0
M  V30 56 H 42.560602 33.323423 63.970493 0
M  V30 57 H 38.790791 30.147660 55.578414 0
M  V30 58 H 37.347906 28.326272 55.583915 0
M  V30 59 H 40.067500 29.337882 68.032554 0
M  V30 60 H 39.351384 28.732437 66.549087 0
M  V30 61 H 39.938240 30.390890 66.628677 0
M  V30 62 H 36.706169 26.364953 58.041579 0
M  V30 63 H 38.862823 26.551983 55.976853 0
M  V30 64 H 38.092364 32.294209 62.272878 0
M  V30 65 H 38.213104 30.613080 61.831660 0
M  V30 66 H 40.597657 33.494042 62.464731 0
M  V30 67 H 42.746266 28.043424 57.361860 0
M  V30 68 H 41.965716 26.538056 56.872267 0
M  V30 69 H 42.069651 26.958292 58.579161 0
M  V30 70 H 39.892719 36.390922 61.253551 0
M  V30 71 H 38.461880 37.384404 61.227926 0
M  V30 72 H 37.341834 24.916620 55.430266 0
M  V30 73 H 36.045138 26.065611 55.767762 0
M  V30 74 H 36.045111 24.485766 56.532602 0
M  V30 75 H 38.999150 34.724521 59.767761 0
M  V30 76 H 37.533869 35.626986 59.509131 0
M  V30 77 H 43.071531 31.174785 65.115412 0
M  V30 78 H 39.884501 32.759277 60.457990 0
M  V30 79 H 39.769723 31.098153 60.055570 0
M  V30 80 H 36.722909 31.558283 58.064627 0
M  V30 81 H 40.787864 34.437635 65.763637 0
M  V30 82 H 41.827104 36.888986 63.904316 0
M  V30 83 H 38.602118 32.726859 58.513049 0
M  V30 84 H 39.592883 31.062079 57.568230 0
M  V30 85 H 39.645146 29.362685 63.232859 0
M  V30 86 H 42.714372 28.517271 64.711099 0
M  V30 87 H 41.046248 28.028182 64.561296 0
M  V30 88 H 36.370712 28.430574 58.167758 0
M  V30 89 H 36.313174 29.737768 57.048555 0
M  V30 90 H 36.550162 31.002922 59.575068 0
M  V30 END ATOM
M  V30 BEGIN BOND
M  V30 1 1 9 2
M  V30 2 1 9 3
M  V30 3 1 13 6
M  V30 4 1 14 13
M  V30 5 1 15 7
M  V30 6 1 16 10
M  V30 7 1 17 5
M  V30 8 1 17 6
M  V30 9 1 18 14
M  V30 10 1 18 16
M  V30 11 1 20 12
M  V30 12 1 17 21 CFG=3
M  V30 13 1 22 2
M  V30 14 1 22 4
M  V30 15 1 23 16
M  V30 16 1 24 4
M  V30 17 1 24 11
M  V30 18 1 25 8
M  V30 19 2 25 12
M  V30 20 1 26 19
M  V30 21 1 27 1
M  V30 22 1 28 3
M  V30 23 1 29 19
M  V30 24 2 29 20
M  V30 25 1 30 9
M  V30 26 1 31 11
M  V30 27 1 31 26
M  V30 28 1 31 27
M  V30 29 1 32 1
M  V30 30 1 32 5
M  V30 31 1 32 13
M  V30 32 2 33 8
M  V30 33 1 33 29
M  V30 34 1 34 7
M  V30 35 1 34 8
M  V30 36 1 35 17
M  V30 37 1 35 18
M  V30 38 1 36 1
M  V30 39 1 36 14
M  V30 40 1 1 37 CFG=1
M  V30 41 1 38 2
M  V30 42 1 39 2
M  V30 43 1 40 3
M  V30 44 1 41 3
M  V30 45 1 42 4
M  V30 46 1 43 4
M  V30 47 1 44 5
M  V30 48 1 45 5
M  V30 49 1 46 6
M  V30 50 1 47 6
M  V30 51 1 48 7
M  V30 52 1 49 7
M  V30 53 1 9 50 CFG=1
M  V30 54 1 51 10
M  V30 55 1 52 10
M  V30 56 1 53 10
M  V30 57 1 54 11
M  V30 58 1 55 11
M  V30 59 1 56 12
M  V30 60 1 13 57 CFG=3
M  V30 61 1 14 58 CFG=3
M  V30 62 1 59 15
M  V30 63 1 60 15
M  V30 64 1 61 15
M  V30 65 1 62 16
M  V30 66 1 18 63 CFG=3
M  V30 67 1 64 19
M  V30 68 1 65 19
M  V30 69 1 66 20
M  V30 70 1 67 21
M  V30 71 1 68 21
M  V30 72 1 69 21
M  V30 73 1 70 22
M  V30 74 1 71 22
M  V30 75 1 72 23
M  V30 76 1 73 23
M  V30 77 1 74 23
M  V30 78 1 75 24
M  V30 79 1 76 24
M  V30 80 1 77 25
M  V30 81 1 78 26
M  V30 82 1 79 26
M  V30 83 1 80 27
M  V30 84 1 81 28
M  V30 85 1 82 30
M  V30 86 1 31 83 CFG=3
M  V30 87 1 32 84 CFG=3
M  V30 88 1 85 33
M  V30 89 1 86 34
M  V30 90 1 87 34
M  V30 91 1 88 36
M  V30 92 1 89 36
M  V30 93 1 90 27
M  V30 END BOND
M  V30 END CTAB
M  END
>  <i_epik_Tot_Q>  (1) 
1

>  <i_epik_Tot_abs_Q>  (1) 
1

>  <i_i_glide_confnum>  (1) 
1933

>  <i_i_glide_lignum>  (1) 
93

>  <i_i_glide_posenum>  (1) 
150

>  <i_i_glide_rotatable_bonds>  (1) 
17

>  <i_lp_mmshare_version>  (1) 
72125

>  <i_m_source_file_index>  (1) 
43

>  <i_f3d_flags>  (1) 
0

>  <num_sample>  (1) 
50

>  <b_lp_Chiralities_Consistent>  (1) 
1

>  <r_epik_Charging_Adjusted_Penalty>  (1) 
0.00030412636243833623

>  <r_epik_Ionization_Penalty>  (1) 
0.00030431191221991862

>  <r_epik_Ionization_Penalty_Charging>  (1) 
0.00030412636243833623

>  <r_epik_Ionization_Penalty_Neutral>  (1) 
1.8554978158239134e-07

>  <r_epik_State_Penalty>  (1) 
-0

>  <r_glide_ring_energy>  (1) 
0

>  <r_i_docking_score>  (1) 
-6.5338124431889852

>  <r_i_glide_ecoul>  (1) 
-8.3872702709293883

>  <r_i_glide_eff_state_penalty>  (1) 
-0

>  <r_i_glide_einternal>  (1) 
19.442446445024601

>  <r_i_glide_emodel>  (1) 
-46.45977830132238

>  <r_i_glide_emodel_strain>  (1) 
2.3240195168403091

>  <r_i_glide_energy>  (1) 
-40.064743699216351

>  <r_i_glide_erotb>  (1) 
1.0585899969639281

>  <r_i_glide_esite>  (1) 
-0.10000000000000001

>  <r_i_glide_evdw>  (1) 
-31.677473428286966

>  <r_i_glide_gscore>  (1) 
-6.5338124431889852

>  <r_i_glide_gscore_strain>  (1) 
0

>  <r_i_glide_hbond>  (1) 
-0.52000000000000002

>  <r_i_glide_ligand_efficiency>  (1) 
-0.18149479008858294

>  <r_i_glide_ligand_efficiency_ln>  (1) 
-1.4255013518913926

>  <r_i_glide_ligand_efficiency_sa>  (1) 
-0.59928259292590247

>  <r_i_glide_lipo>  (1) 
-3.6362922008073886

>  <r_i_glide_metal>  (1) 
-0

>  <r_i_glide_rewards>  (1) 
-0.49414602729176665

>  <r_lp_Energy>  (1) 
51.322443999999997

>  <r_lp_tautomer_probability>  (1) 
1

>  <s_epik_cmdline>  (1) 
J2VwaWtfcHl0aG9uJywgJy1waHQnLCAnMS4wJywgJy1waCcsICc3LjQnLCAnLXRuJywgJzgnLCAnLW1hJywgJzUwMCcsICctaW1hZScsICc8aW5maWxlLm1hZT4nLCAnLW9tYWUnLCAnPG91dGZpbGUubWFlPic=

>  <s_epik_input>  (1) 
W0NIM11bQ0BAXTEyW0NIMl1bQ0BIXTNbQ0BASF0oW0NIMl0xKVtDQEBIXShbQ0BASF0oTzIpW0NIXShbQ0gzXSlbQ0gzXSlbQ0gyXVtDQEBIXTNbTkhdW0NAQEhdKFtDSDJdW0NIMl1bQ0gyXVtDSDJdW0NIMl1bQ0BASF0oW09IXSlbQ0gyXVtPSF0pW0NIMl1bQ0gyXWMoW2NIXTQpW2NIXVtjSF1bY0hdYzRbQ0gyXVtDSDJdW0NIM10=

>  <s_glide_docking_method>  (1) 
confgen

>  <s_i_glide_gridfile>  (1) 
gpcr_5ht2c_6bqh_protein_autoprepared_prepared

>  <s_lp_Force_Field>  (1) 
S-OPLS

>  <s_lp_Variant>  (1) 
DiffSBDD_42-1

>  <s_m_source_file>  (1) 
generated_GPCR_5HT2C_ligand_DiffSBDD_2026-06-23_prepared.sdf

>  <GenAI_Model>  (1) 
DiffSBDD

>  <Protein>  (1) 
GPCR_5HT2C

$$$$
DiffSBDD_0
     RDKit          3D

  0  0  0  0  0  0  0  0  0  0999 V3000
M  V30 BEGIN CTAB
M  V30 COUNTS 73 75 0 0 1
M  V30 BEGIN ATOM
M  V30 1 C 37.538927 36.737464 60.122849 0
M  V30 2 C 40.148684 36.521123 63.120727 0
M  V30 3 O 39.869783 26.366555 55.569499 0
M  V30 4 C 38.723853 34.822658 61.223246 0
M  V30 5 C 37.971051 31.102677 59.318917 0 CFG=2
M  V30 6 C 40.358899 29.843566 62.185223 0
M  V30 7 C 39.612163 28.729427 55.653403 0
M  V30 8 C 38.539384 29.664633 55.010745 0 CFG=1
M  V30 9 C 38.517383 28.256551 52.938501 0
M  V30 10 C 38.672577 31.145357 55.484302 0
M  V30 11 N 38.045252 31.459133 56.792765 0 CHG=1
M  V30 12 O 36.543344 31.136293 59.333039 0
M  V30 13 C 39.162260 37.139831 62.091041 0
M  V30 14 C 39.652160 30.299661 52.884414 0
M  V30 15 C 39.802403 32.774382 62.368766 0 CFG=1
M  V30 16 C 38.557032 30.681184 57.942698 0
M  V30 17 C 40.235515 34.999826 63.085457 0
M  V30 18 C 40.859861 32.825965 63.572437 0
M  V30 19 C 38.528520 30.310562 60.559790 0 CFG=1
M  V30 20 C 39.133179 27.303134 55.950362 0
M  V30 21 N 38.541779 29.597496 53.530202 0
M  V30 22 C 39.757933 29.721498 51.469803 0
M  V30 23 F 36.585584 37.450073 60.719142 0
M  V30 24 C 39.602799 34.247247 62.220429 0
M  V30 25 C 38.493174 36.144351 61.145752 0
M  V30 26 O 38.642401 29.069341 60.167756 0 CHG=-1
M  V30 27 N 39.930001 30.621847 60.986527 0 CFG=1 CHG=1
M  V30 28 C 41.054123 34.307604 64.118912 0 CFG=1
M  V30 29 C 40.322086 32.061593 61.089915 0
M  V30 30 C 35.839582 29.961759 58.934173 0
M  V30 31 O 38.044980 27.181731 56.549566 0 CHG=-1
M  V30 32 O 42.399268 34.733913 64.167684 0
M  V30 33 C 38.923068 28.449105 51.482041 0
M  V30 34 H 38.045084 37.413536 59.437779 0
M  V30 35 H 37.042869 35.966459 59.531264 0
M  V30 36 H 39.869220 36.835054 64.126866 0
M  V30 37 H 41.148877 36.921789 62.945023 0
M  V30 38 H 38.218616 34.166538 60.533742 0
M  V30 39 H 38.186216 32.157262 59.449639 0
M  V30 40 H 39.700917 30.034112 63.032796 0
M  V30 41 H 40.343603 28.769487 61.998125 0
M  V30 42 H 41.376317 30.094676 62.482802 0
M  V30 43 H 40.445173 28.665538 54.982089 0
M  V30 44 H 40.052499 29.119936 56.563533 0
M  V30 45 H 37.547244 29.319921 55.307423 0
M  V30 46 H 39.271285 27.604538 53.372046 0
M  V30 47 H 37.547655 27.770124 53.056195 0
M  V30 48 H 38.177446 31.805878 54.769756 0
M  V30 49 H 39.721403 31.444458 55.505000 0
M  V30 50 H 37.031468 31.337139 56.731609 0
M  V30 51 H 39.690088 37.880422 61.490533 0
M  V30 52 H 38.379080 37.688269 62.615239 0
M  V30 53 H 39.480871 31.376193 52.861066 0
M  V30 54 H 40.583521 30.138190 53.422595 0
M  V30 55 H 38.849133 32.361244 62.699968 0
M  V30 56 H 39.640319 30.747586 57.964876 0
M  V30 57 H 38.331791 29.635176 57.760677 0
M  V30 58 H 41.828403 32.451513 63.238499 0
M  V30 59 H 40.549528 32.160843 64.380176 0
M  V30 60 H 37.898389 30.593146 61.404184 0
M  V30 61 H 40.799049 29.513389 51.220583 0
M  V30 62 H 39.376013 30.420080 50.724599 0
M  V30 63 H 40.595316 34.431271 65.100064 0
M  V30 64 H 40.047323 32.606438 60.191579 0
M  V30 65 H 41.410969 32.107635 61.070968 0
M  V30 66 H 34.849670 30.239641 58.567681 0
M  V30 67 H 36.290797 29.411437 58.113184 0
M  V30 68 H 35.725274 29.278670 59.767012 0
M  V30 69 H 42.425521 35.608326 64.532050 0
M  V30 70 H 39.472248 27.588413 51.099000 0
M  V30 71 H 38.045190 28.563041 50.857830 0
M  V30 72 H 40.458321 30.228123 60.222294 0
M  V30 73 H 38.194858 32.440435 56.972106 0
M  V30 END ATOM
M  V30 BEGIN BOND
M  V30 1 1 8 7
M  V30 2 1 10 8
M  V30 3 1 11 10
M  V30 4 1 12 5
M  V30 5 1 13 2
M  V30 6 1 16 5
M  V30 7 1 16 11
M  V30 8 1 17 2
M  V30 9 1 18 15
M  V30 10 1 19 5
M  V30 11 2 20 3
M  V30 12 1 20 7
M  V30 13 1 21 8
M  V30 14 1 21 9
M  V30 15 1 21 14
M  V30 16 1 22 14
M  V30 17 1 23 1
M  V30 18 1 24 4
M  V30 19 1 24 15
M  V30 20 2 24 17
M  V30 21 1 25 1
M  V30 22 2 25 4
M  V30 23 1 25 13
M  V30 24 1 26 19
M  V30 25 1 27 6
M  V30 26 1 27 19
M  V30 27 1 28 17
M  V30 28 1 28 18
M  V30 29 1 29 15
M  V30 30 1 29 27
M  V30 31 1 30 12
M  V30 32 1 31 20
M  V30 33 1 32 28
M  V30 34 1 33 9
M  V30 35 1 33 22
M  V30 36 1 34 1
M  V30 37 1 35 1
M  V30 38 1 36 2
M  V30 39 1 37 2
M  V30 40 1 38 4
M  V30 41 1 5 39 CFG=1
M  V30 42 1 40 6
M  V30 43 1 41 6
M  V30 44 1 42 6
M  V30 45 1 43 7
M  V30 46 1 44 7
M  V30 47 1 8 45 CFG=1
M  V30 48 1 46 9
M  V30 49 1 47 9
M  V30 50 1 48 10
M  V30 51 1 49 10
M  V30 52 1 50 11
M  V30 53 1 51 13
M  V30 54 1 52 13
M  V30 55 1 53 14
M  V30 56 1 54 14
M  V30 57 1 15 55 CFG=1
M  V30 58 1 56 16
M  V30 59 1 57 16
M  V30 60 1 58 18
M  V30 61 1 59 18
M  V30 62 1 19 60 CFG=1
M  V30 63 1 61 22
M  V30 64 1 62 22
M  V30 65 1 28 63 CFG=1
M  V30 66 1 64 29
M  V30 67 1 65 29
M  V30 68 1 66 30
M  V30 69 1 67 30
M  V30 70 1 68 30
M  V30 71 1 69 32
M  V30 72 1 70 33
M  V30 73 1 71 33
M  V30 74 1 27 72 CFG=3
M  V30 75 1 73 11
M  V30 END BOND
M  V30 END CTAB
M  END
>  <i_epik_Tot_Q>  (1) 
0

>  <i_epik_Tot_abs_Q>  (1) 
4

>  <i_i_glide_confnum>  (1) 
60

>  <i_i_glide_lignum>  (1) 
4

>  <i_i_glide_posenum>  (1) 
324

>  <i_i_glide_rotatable_bonds>  (1) 
14

>  <i_lp_mmshare_version>  (1) 
72125

>  <i_m_source_file_index>  (1) 
1

>  <i_f3d_flags>  (1) 
0

>  <num_sample>  (1) 
50

>  <b_lp_Chiralities_Consistent>  (1) 
1

>  <r_epik_Charging_Adjusted_Penalty>  (1) 
0.77514762265790937

>  <r_epik_Ionization_Penalty>  (1) 
0.13961133491552177

>  <r_epik_Ionization_Penalty_Charging>  (1) 
0.038557878483332003

>  <r_epik_Ionization_Penalty_Neutral>  (1) 
0.10105345643218977

>  <r_epik_State_Penalty>  (1) 
0.73658974417457734

>  <r_glide_ring_energy>  (1) 
0.0045750838620950583

>  <r_i_docking_score>  (1) 
-6.529933988503279

>  <r_i_glide_ecoul>  (1) 
-4.7077140293431858

>  <r_i_glide_eff_state_penalty>  (1) 
0.73658974417457734

>  <r_i_glide_einternal>  (1) 
14.538766067571332

>  <r_i_glide_emodel>  (1) 
-61.334079403595219

>  <r_i_glide_emodel_strain>  (1) 
1.0835751836932133

>  <r_i_glide_energy>  (1) 
-41.504810773095457

>  <r_i_glide_erotb>  (1) 
0.82434179411086872

>  <r_i_glide_esite>  (1) 
-0.10000000000000001

>  <r_i_glide_evdw>  (1) 
-36.79709674375227

>  <r_i_glide_gscore>  (1) 
-7.2665237326778565

>  <r_i_glide_gscore_strain>  (1) 
0

>  <r_i_glide_hbond>  (1) 
-0.20000000000000001

>  <r_i_glide_ligand_efficiency>  (1) 
-0.19787678753040239

>  <r_i_glide_ligand_efficiency_ln>  (1) 
-1.4522235088544191

>  <r_i_glide_ligand_efficiency_sa>  (1) 
-0.63469658911305582

>  <r_i_glide_lipo>  (1) 
-3.6733693218531291

>  <r_i_glide_metal>  (1) 
-0

>  <r_i_glide_rewards>  (1) 
-1.5714842633465052

>  <r_lp_Energy>  (1) 
31.744567

>  <s_epik_Chemistry_Notes>  (1) 
This compound contains an acetal/aminal-like group ( X-CH(R)-Y where X, Y are N, S, or O) that may be acid/base labile, releasing an aldehyde.

>  <s_epik_cmdline>  (1) 
J2VwaWtfcHl0aG9uJywgJy1waHQnLCAnMS4wJywgJy1waCcsICc3LjQnLCAnLXRuJywgJzgnLCAnLW1hJywgJzUwMCcsICctaW1hZScsICc8aW5maWxlLm1hZT4nLCAnLW9tYWUnLCAnPG91dGZpbGUubWFlPic=

>  <s_epik_input>  (1) 
W0NIMl0xW0NIMl1DKFtDSDJdRik9W0NIXUMoPUMxMilbQ0BIXShbQ0gyXVtDQEhdMltPSF0pW0NIMl1OKFtDSDNdKVtDQEhdKFtPSF0pW0NASF0oT1tDSDNdKVtDSDJdW05IXVtDSDJdW0NASF0oW0NIMl1DKD1PKVtPSF0pTjNbQ0gyXVtDSDJdW0NIMl1bQ0gyXTM=

>  <s_glide_docking_method>  (1) 
confgen

>  <s_i_glide_gridfile>  (1) 
gpcr_5ht2c_6bqh_protein_autoprepared_prepared

>  <s_lp_Force_Field>  (1) 
S-OPLS

>  <s_lp_Variant>  (1) 
DiffSBDD_0-4

>  <s_m_source_file>  (1) 
generated_GPCR_5HT2C_ligand_DiffSBDD_2026-06-23_prepared.sdf

>  <GenAI_Model>  (1) 
DiffSBDD

>  <Protein>  (1) 
GPCR_5HT2C

$$$$
DiffSBDD_19
     RDKit          3D

  0  0  0  0  0  0  0  0  0  0999 V3000
M  V30 BEGIN CTAB
M  V30 COUNTS 69 71 0 0 1
M  V30 BEGIN ATOM
M  V30 1 O 36.892828 24.137728 56.041414 0
M  V30 2 C 39.245136 28.064239 52.475054 0
M  V30 3 C 37.864722 33.712716 61.198788 0
M  V30 4 C 39.810970 30.003415 51.115328 0
M  V30 5 C 39.362882 28.851673 53.652662 0
M  V30 6 C 38.967574 26.600795 52.556815 0
M  V30 7 C 39.420445 24.826735 57.294411 0
M  V30 8 C 38.701427 29.609107 58.803653 0
M  V30 9 C 37.777562 32.388933 61.953021 0 CFG=2
M  V30 10 N 39.046310 31.690664 62.236239 0
M  V30 11 F 40.045130 29.702603 48.811100 0
M  V30 12 C 39.703106 30.215564 53.533029 0
M  V30 13 F 39.245148 31.613817 49.494339 0
M  V30 14 C 40.074232 31.797068 61.218284 0
M  V30 15 C 37.329727 30.196374 58.448268 0 CFG=2
M  V30 16 C 37.707437 30.730311 55.973152 0
M  V30 17 C 37.676265 26.341020 55.411684 0
M  V30 18 O 38.133953 25.351847 57.597223 0
M  V30 19 O 38.460481 34.712624 61.588436 0
M  V30 20 C 39.452331 28.649697 51.213888 0
M  V30 21 C 37.201829 25.410398 56.559484 0 CFG=2
M  V30 22 C 39.295326 28.211253 55.058012 0
M  V30 23 N 36.701552 32.316928 59.758165 0
M  V30 24 C 40.090549 30.621770 49.767775 0
M  V30 25 C 39.933842 30.779218 52.271685 0
M  V30 26 C 37.114525 29.753241 57.001072 0 CFG=1
M  V30 27 O 40.845131 30.636237 61.385347 0
M  V30 28 C 38.744236 28.251485 58.102672 0
M  V30 29 C 37.681791 28.316808 56.983520 0 CFG=2
M  V30 30 N 37.215435 33.564778 60.053260 0
M  V30 31 N 38.044982 27.752053 55.663811 0
M  V30 32 C 36.865680 31.566648 61.023233 0
M  V30 33 N 37.245137 31.667735 58.567765 0 CHG=1
M  V30 34 H 37.642781 23.830007 55.557475 0
M  V30 35 H 39.245125 26.137787 51.608107 0
M  V30 36 H 39.613319 26.137750 53.297083 0
M  V30 37 H 37.909479 26.447393 52.757267 0
M  V30 38 H 40.059166 24.937749 58.167757 0
M  V30 39 H 39.361596 23.766231 57.053694 0
M  V30 40 H 39.920534 25.351620 56.482147 0
M  V30 41 H 39.501008 30.233031 58.405227 0
M  V30 42 H 38.858693 29.503675 59.876086 0
M  V30 43 H 37.253297 32.537738 62.891412 0
M  V30 44 H 39.444813 32.007035 63.111066 0
M  V30 45 H 39.840047 30.818904 54.411858 0
M  V30 46 H 40.677642 32.696341 61.348035 0
M  V30 47 H 39.654548 31.800805 60.213930 0
M  V30 48 H 36.544333 29.722757 59.040841 0
M  V30 49 H 38.765934 30.886387 56.161436 0
M  V30 50 H 37.534562 30.362089 54.965326 0
M  V30 51 H 37.245138 31.714346 55.983940 0
M  V30 52 H 36.870227 26.340470 54.678973 0
M  V30 53 H 38.499286 25.813569 54.947478 0
M  V30 54 H 39.370457 28.046110 50.321665 0
M  V30 55 H 36.271132 25.764074 56.998246 0
M  V30 56 H 39.750314 28.947617 55.717523 0
M  V30 57 H 40.023795 27.400877 55.089685 0
M  V30 58 H 41.095586 31.046859 49.761296 0
M  V30 59 H 40.218854 31.806871 52.189974 0
M  V30 60 H 36.045148 29.737762 56.806196 0
M  V30 61 H 40.387783 30.067625 61.988837 0
M  V30 62 H 39.748952 28.024393 57.746347 0
M  V30 63 H 38.483332 27.471693 58.819316 0
M  V30 64 H 36.846372 27.749537 57.383671 0
M  V30 65 H 37.084130 34.320887 59.394281 0
M  V30 66 H 37.227500 30.550705 60.897509 0
M  V30 67 H 35.876863 31.480644 61.476152 0
M  V30 68 H 36.552544 31.900322 57.843471 0
M  V30 69 H 38.118122 32.116203 58.337119 0
M  V30 END ATOM
M  V30 BEGIN BOND
M  V30 1 2 5 2
M  V30 2 1 6 2
M  V30 3 1 9 3
M  V30 4 1 10 9
M  V30 5 1 12 5
M  V30 6 1 14 10
M  V30 7 1 15 8
M  V30 8 1 18 7
M  V30 9 2 19 3
M  V30 10 1 20 2
M  V30 11 2 20 4
M  V30 12 1 21 1
M  V30 13 1 21 17
M  V30 14 1 21 18
M  V30 15 1 22 5
M  V30 16 1 24 4
M  V30 17 1 24 11
M  V30 18 1 24 13
M  V30 19 1 25 4
M  V30 20 2 25 12
M  V30 21 1 26 15
M  V30 22 1 26 16
M  V30 23 1 27 14
M  V30 24 1 28 8
M  V30 25 1 29 26
M  V30 26 1 29 28
M  V30 27 1 30 3
M  V30 28 1 30 23
M  V30 29 1 31 17
M  V30 30 1 31 22
M  V30 31 1 31 29
M  V30 32 1 32 9
M  V30 33 1 32 23
M  V30 34 1 33 15
M  V30 35 1 33 23
M  V30 36 1 34 1
M  V30 37 1 35 6
M  V30 38 1 36 6
M  V30 39 1 37 6
M  V30 40 1 38 7
M  V30 41 1 39 7
M  V30 42 1 40 7
M  V30 43 1 41 8
M  V30 44 1 42 8
M  V30 45 1 9 43 CFG=1
M  V30 46 1 44 10
M  V30 47 1 45 12
M  V30 48 1 46 14
M  V30 49 1 47 14
M  V30 50 1 15 48 CFG=1
M  V30 51 1 49 16
M  V30 52 1 50 16
M  V30 53 1 51 16
M  V30 54 1 52 17
M  V30 55 1 53 17
M  V30 56 1 54 20
M  V30 57 1 21 55 CFG=1
M  V30 58 1 56 22
M  V30 59 1 57 22
M  V30 60 1 58 24
M  V30 61 1 59 25
M  V30 62 1 26 60 CFG=3
M  V30 63 1 61 27
M  V30 64 1 62 28
M  V30 65 1 63 28
M  V30 66 1 29 64 CFG=1
M  V30 67 1 65 30
M  V30 68 1 66 32
M  V30 69 1 67 32
M  V30 70 1 68 33
M  V30 71 1 69 33
M  V30 END BOND
M  V30 END CTAB
M  END
>  <i_epik_Tot_Q>  (1) 
1

>  <i_epik_Tot_abs_Q>  (1) 
1

>  <i_i_glide_confnum>  (1) 
1156

>  <i_i_glide_lignum>  (1) 
46

>  <i_i_glide_posenum>  (1) 
84

>  <i_i_glide_rotatable_bonds>  (1) 
13

>  <i_lp_mmshare_version>  (1) 
72125

>  <i_m_source_file_index>  (1) 
20

>  <i_f3d_flags>  (1) 
0

>  <num_sample>  (1) 
50

>  <b_lp_Chiralities_Consistent>  (1) 
1

>  <r_epik_Charging_Adjusted_Penalty>  (1) 
1.2715343408434996

>  <r_epik_Ionization_Penalty>  (1) 
0.95026790690721108

>  <r_epik_Ionization_Penalty_Charging>  (1) 
0.030575006456493324

>  <r_epik_Ionization_Penalty_Neutral>  (1) 
0.91969290045071772

>  <r_epik_State_Penalty>  (1) 
1.2409593343870062

>  <r_glide_ring_energy>  (1) 
0

>  <r_i_docking_score>  (1) 
-6.5291077205227577

>  <r_i_glide_ecoul>  (1) 
-9.7403094990356589

>  <r_i_glide_eff_state_penalty>  (1) 
1.2409593343870062

>  <r_i_glide_einternal>  (1) 
48.92012908844886

>  <r_i_glide_emodel>  (1) 
-47.394108220252839

>  <r_i_glide_emodel_strain>  (1) 
3.12064959722521

>  <r_i_glide_energy>  (1) 
-41.44705797724577

>  <r_i_glide_erotb>  (1) 
0.81494899861877068

>  <r_i_glide_esite>  (1) 
-0.11259803249911245

>  <r_i_glide_evdw>  (1) 
-31.706748478210113

>  <r_i_glide_gscore>  (1) 
-7.7700670549097639

>  <r_i_glide_gscore_strain>  (1) 
0

>  <r_i_glide_hbond>  (1) 
-0.51830750750925803

>  <r_i_glide_ligand_efficiency>  (1) 
-0.19785174910675024

>  <r_i_glide_ligand_efficiency_ln>  (1) 
-1.4520397511337377

>  <r_i_glide_ligand_efficiency_sa>  (1) 
-0.63461627750962246

>  <r_i_glide_lipo>  (1) 
-2.9496733545538381

>  <r_i_glide_metal>  (1) 
-0

>  <r_i_glide_rewards>  (1) 
-1.958053310200472

>  <r_lp_Energy>  (1) 
47.540732999999996

>  <s_epik_Chemistry_Notes>  (1) 
This compound contains an acetal/aminal-like group ( X-CH(R)-Y where X, Y are N, S, or O) that may be acid/base labile, releasing an aldehyde.

>  <s_epik_cmdline>  (1) 
J2VwaWtfcHl0aG9uJywgJy1waHQnLCAnMS4wJywgJy1waCcsICc3LjQnLCAnLXRuJywgJzgnLCAnLW1hJywgJzUwMCcsICctaW1hZScsICc8aW5maWxlLm1hZT4nLCAnLW9tYWUnLCAnPG91dGZpbGUubWFlPic=

>  <s_epik_input>  (1) 
RltDSF0oRiljKFtjSF0xKVtjSF1bY0hdYyhjMVtDSDNdKVtDSDJdTihbQ0gyXVtDQEBIXShbT0hdKU9bQ0gzXSlbQ0BIXShbQ0BASF0yW0NIM10pW0NIMl1bQ0gyXVtDQEhdMltOSF1OKFtOSF0zKVtDSDJdW0NASF0oQzM9TylbTkhdW0NIMl1bT0hd

>  <s_glide_docking_method>  (1) 
confgen

>  <s_i_glide_gridfile>  (1) 
gpcr_5ht2c_6bqh_protein_autoprepared_prepared

>  <s_lp_Force_Field>  (1) 
S-OPLS

>  <s_lp_Variant>  (1) 
DiffSBDD_19-5

>  <s_m_source_file>  (1) 
generated_GPCR_5HT2C_ligand_DiffSBDD_2026-06-23_prepared.sdf

>  <GenAI_Model>  (1) 
DiffSBDD

>  <Protein>  (1) 
GPCR_5HT2C

$$$$
DiffSBDD_41
     RDKit          3D

  0  0  0  0  0  0  0  0  0  0999 V3000
M  V30 BEGIN CTAB
M  V30 COUNTS 71 75 0 0 1
M  V30 BEGIN ATOM
M  V30 1 C 37.621819 30.666784 54.712518 0
M  V30 2 O 37.392422 32.635222 60.471107 0
M  V30 3 C 37.259253 31.219876 60.506300 0 CFG=1
M  V30 4 C 39.317684 29.521612 61.904230 0
M  V30 5 C 38.073702 32.139258 54.679964 0
M  V30 6 C 39.739310 29.716566 57.019542 0
M  V30 7 C 38.579468 24.945614 55.129862 0
M  V30 8 C 38.712967 26.137710 54.400690 0
M  V30 9 C 37.572116 35.424922 60.941189 0
M  V30 10 C 39.452606 26.423701 58.557300 0
M  V30 11 C 35.859765 30.918000 59.954496 0
M  V30 12 C 39.093994 36.582385 62.078882 0
M  V30 13 N 37.968006 36.615045 61.351230 0
M  V30 14 C 38.394988 30.549166 59.653805 0 CFG=1
M  V30 15 C 38.417038 30.486150 57.193928 0
M  V30 16 C 38.539326 34.489729 61.446463 0
M  V30 17 O 36.327425 38.166496 62.126780 0
M  V30 18 O 36.566962 35.195924 60.267414 0
M  V30 19 C 38.596860 32.028872 57.118912 0
M  V30 20 C 39.103962 32.482779 55.748081 0
M  V30 21 N 38.919591 29.250586 60.491775 0 CFG=1 CHG=1
M  V30 22 O 39.645109 37.567639 62.567177 0
M  V30 23 O 37.847469 30.078983 58.449513 0
M  V30 24 C 39.066787 27.312053 55.057022 0
M  V30 25 C 40.067082 28.581364 59.821261 0
M  V30 26 C 37.223915 37.848236 61.077685 0
M  V30 27 C 39.275277 27.299943 56.444545 0
M  V30 28 C 38.418378 33.166005 61.212046 0
M  V30 29 C 38.811657 24.931230 56.520016 0
M  V30 30 C 41.063506 34.984712 61.655641 0
M  V30 31 N 39.586741 28.315224 57.344183 0
M  V30 32 C 39.661042 35.143033 62.257953 0 CFG=1
M  V30 33 C 37.408500 30.034884 56.109276 0
M  V30 34 C 39.708992 27.760472 58.625220 0
M  V30 35 C 39.165605 26.114976 57.210671 0
M  V30 36 H 38.361407 30.099569 54.155620 0
M  V30 37 H 36.687022 30.566195 54.167759 0
M  V30 38 H 37.252558 30.925595 61.546467 0
M  V30 39 H 40.034742 30.340871 61.959634 0
M  V30 40 H 38.486518 29.738064 62.567714 0
M  V30 41 H 39.785855 28.649362 62.362139 0
M  V30 42 H 38.448904 32.385312 53.687733 0
M  V30 43 H 37.245133 32.810367 54.834849 0
M  V30 44 H 40.145755 29.810651 56.012981 0
M  V30 45 H 40.445139 30.137748 57.705427 0
M  V30 46 H 38.304264 24.033732 54.621361 0
M  V30 47 H 38.540300 26.143436 53.334676 0
M  V30 48 H 39.462064 25.732457 59.367742 0
M  V30 49 H 35.679421 29.848202 59.858537 0
M  V30 50 H 35.091340 31.337969 60.603507 0
M  V30 51 H 35.723277 31.359428 58.968169 0
M  V30 52 H 39.245276 31.206680 59.533416 0
M  V30 53 H 36.274253 37.438303 62.726457 0
M  V30 54 H 37.643820 32.514127 57.328137 0
M  V30 55 H 39.279031 32.423348 57.862587 0
M  V30 56 H 40.065361 32.029030 55.513657 0
M  V30 57 H 39.265390 33.560781 55.755954 0
M  V30 58 H 39.168960 28.225876 54.502358 0
M  V30 59 H 40.540792 27.886487 60.516097 0
M  V30 60 H 40.853084 29.302908 59.603146 0
M  V30 61 H 36.649544 37.750138 60.155324 0
M  V30 62 H 37.903722 38.687133 60.919285 0
M  V30 63 H 39.107547 32.418347 61.571956 0
M  V30 64 H 38.713502 24.005259 57.067403 0
M  V30 65 H 41.101010 35.339629 60.625066 0
M  V30 66 H 41.784593 35.566346 62.231073 0
M  V30 67 H 41.385931 33.943489 61.668160 0
M  V30 68 H 39.625503 34.841602 63.304973 0
M  V30 69 H 37.406539 28.961626 55.997299 0
M  V30 70 H 36.391939 30.137754 56.453601 0
M  V30 71 H 38.175822 28.567982 60.522930 0
M  V30 END ATOM
M  V30 BEGIN BOND
M  V30 1 1 3 2
M  V30 2 1 5 1
M  V30 3 2 8 7
M  V30 4 1 11 3
M  V30 5 1 13 9
M  V30 6 1 13 12
M  V30 7 1 14 3
M  V30 8 1 15 6
M  V30 9 1 16 9
M  V30 10 2 18 9
M  V30 11 1 19 15
M  V30 12 1 20 5
M  V30 13 1 20 19
M  V30 14 1 21 4
M  V30 15 1 21 14
M  V30 16 2 22 12
M  V30 17 1 23 14
M  V30 18 1 23 15
M  V30 19 1 24 8
M  V30 20 1 25 21
M  V30 21 1 26 13
M  V30 22 1 26 17
M  V30 23 2 27 24
M  V30 24 1 28 2
M  V30 25 2 28 16
M  V30 26 1 29 7
M  V30 27 1 31 6
M  V30 28 1 31 27
M  V30 29 1 32 12
M  V30 30 1 32 16
M  V30 31 1 32 30
M  V30 32 1 33 1
M  V30 33 1 33 15
M  V30 34 2 34 10
M  V30 35 1 34 25
M  V30 36 1 34 31
M  V30 37 1 35 10
M  V30 38 1 35 27
M  V30 39 2 35 29
M  V30 40 1 36 1
M  V30 41 1 37 1
M  V30 42 1 3 38 CFG=1
M  V30 43 1 39 4
M  V30 44 1 40 4
M  V30 45 1 41 4
M  V30 46 1 42 5
M  V30 47 1 43 5
M  V30 48 1 44 6
M  V30 49 1 45 6
M  V30 50 1 46 7
M  V30 51 1 47 8
M  V30 52 1 48 10
M  V30 53 1 49 11
M  V30 54 1 50 11
M  V30 55 1 51 11
M  V30 56 1 14 52 CFG=3
M  V30 57 1 53 17
M  V30 58 1 54 19
M  V30 59 1 55 19
M  V30 60 1 56 20
M  V30 61 1 57 20
M  V30 62 1 58 24
M  V30 63 1 59 25
M  V30 64 1 60 25
M  V30 65 1 61 26
M  V30 66 1 62 26
M  V30 67 1 63 28
M  V30 68 1 64 29
M  V30 69 1 65 30
M  V30 70 1 66 30
M  V30 71 1 67 30
M  V30 72 1 32 68 CFG=1
M  V30 73 1 69 33
M  V30 74 1 70 33
M  V30 75 1 21 71 CFG=1
M  V30 END BOND
M  V30 END CTAB
M  END
>  <i_epik_Tot_Q>  (1) 
1

>  <i_epik_Tot_abs_Q>  (1) 
1

>  <i_i_glide_confnum>  (1) 
6

>  <i_i_glide_lignum>  (1) 
91

>  <i_i_glide_posenum>  (1) 
115

>  <i_i_glide_rotatable_bonds>  (1) 
5

>  <i_lp_mmshare_version>  (1) 
72125

>  <i_m_source_file_index>  (1) 
42

>  <i_f3d_flags>  (1) 
0

>  <num_sample>  (1) 
50

>  <b_lp_Chiralities_Consistent>  (1) 
1

>  <r_epik_Charging_Adjusted_Penalty>  (1) 
1.62722492853585

>  <r_epik_Ionization_Penalty>  (1) 
0.81369786534067623

>  <r_epik_Ionization_Penalty_Charging>  (1) 
0.81361246426792511

>  <r_epik_Ionization_Penalty_Neutral>  (1) 
8.5401072751167088e-05

>  <r_epik_State_Penalty>  (1) 
0.813612464267925

>  <r_glide_ring_energy>  (1) 
1.1929747713027825

>  <r_i_docking_score>  (1) 
-6.5174618395782815

>  <r_i_glide_ecoul>  (1) 
1.0850784415304435

>  <r_i_glide_eff_state_penalty>  (1) 
0.813612464267925

>  <r_i_glide_einternal>  (1) 
8.0128954785747215

>  <r_i_glide_emodel>  (1) 
-56.761806015106629

>  <r_i_glide_emodel_strain>  (1) 
1.6328552328800683

>  <r_i_glide_energy>  (1) 
-46.521149314485001

>  <r_i_glide_erotb>  (1) 
0.34854586591334119

>  <r_i_glide_esite>  (1) 
0

>  <r_i_glide_evdw>  (1) 
-47.606227756015443

>  <r_i_glide_gscore>  (1) 
-7.331074303846207

>  <r_i_glide_gscore_strain>  (1) 
0

>  <r_i_glide_hbond>  (1) 
0

>  <r_i_glide_ligand_efficiency>  (1) 
-0.18621319541652234

>  <r_i_glide_ligand_efficiency_ln>  (1) 
-1.4307275210595736

>  <r_i_glide_ligand_efficiency_sa>  (1) 
-0.60911571003955056

>  <r_i_glide_lipo>  (1) 
-3.2880920228833679

>  <r_i_glide_metal>  (1) 
-0

>  <r_i_glide_rewards>  (1) 
-2.173978525304975

>  <r_lp_Energy>  (1) 
42.397202999999998

>  <s_epik_Chemistry_Notes>  (1) 
This compound contains an acetal/aminal-like group ( X-CH(R)-Y where X, Y are N, S, or O) that may be acid/base labile, releasing an aldehyde.

>  <s_epik_cmdline>  (1) 
J2VwaWtfcHl0aG9uJywgJy1waHQnLCAnMS4wJywgJy1waCcsICc3LjQnLCAnLXRuJywgJzgnLCAnLW1hJywgJzUwMCcsICctaW1hZScsICc8aW5maWxlLm1hZT4nLCAnLW9tYWUnLCAnPG91dGZpbGUubWFlPic=

>  <s_epik_input>  (1) 
W0NIMl0xW0NIMl1bQ0gyXVtDSDJdW0NIMl1DMTJbQ0gyXW4zYzRjKFtjSF1bY0hdW2NIXVtjSF00KVtjSF1jM1tDSDJdTihbQ0gzXSlbQ0BASF0oTzIpW0NASF0oW0NIM10pTy9bQ0hdPUNcNVtDQEBIXShbQ0gzXSlDKD1PKU4oQzU9TylbQ0gyXVtPSF0=

>  <s_glide_docking_method>  (1) 
confgen

>  <s_i_glide_gridfile>  (1) 
gpcr_5ht2c_6bqh_protein_autoprepared_prepared

>  <s_lp_Force_Field>  (1) 
S-OPLS

>  <s_lp_Variant>  (1) 
DiffSBDD_41-5

>  <s_m_source_file>  (1) 
generated_GPCR_5HT2C_ligand_DiffSBDD_2026-06-23_prepared.sdf

>  <GenAI_Model>  (1) 
DiffSBDD

>  <Protein>  (1) 
GPCR_5HT2C

$$$$
DiffSBDD_4
     RDKit          3D

  0  0  0  0  0  0  0  0  0  0999 V3000
M  V30 BEGIN CTAB
M  V30 COUNTS 84 86 0 0 1
M  V30 BEGIN ATOM
M  V30 1 C 39.239494 35.938744 61.607770 0
M  V30 2 O 37.290997 29.586502 57.551332 0
M  V30 3 C 38.398961 25.972978 57.246158 0
M  V30 4 C 36.264473 22.860915 55.917969 0
M  V30 5 C 37.462780 34.565667 60.481244 0
M  V30 6 C 37.732674 35.849718 61.299856 0 CFG=2
M  V30 7 O 39.939332 30.178549 60.500981 0
M  V30 8 O 37.422427 37.252649 59.367855 0
M  V30 9 C 39.245133 30.242538 59.480949 0
M  V30 10 C 38.401717 29.348956 54.984943 0
M  V30 11 C 38.860745 26.371369 54.760458 0
M  V30 12 C 39.190436 32.636058 57.065207 0
M  V30 13 C 37.245137 37.116747 60.574155 0
M  V30 14 N 39.368473 29.306491 58.468574 0
M  V30 15 C 38.437368 29.159892 57.469472 0
M  V30 16 C 38.645434 27.887474 52.886967 0
M  V30 17 C 38.881133 28.422344 56.172375 0 CFG=1
M  V30 18 C 39.720146 28.706564 50.877827 0
M  V30 19 C 38.300097 31.500989 59.291805 0 CFG=2
M  V30 20 C 39.962362 29.924003 51.501923 0
M  V30 21 C 38.310591 26.973847 56.059440 0 CFG=2
M  V30 22 C 39.069877 27.695155 51.559361 0
M  V30 23 C 37.471099 31.937422 60.535081 0
M  V30 24 F 38.845105 26.537763 50.942886 0
M  V30 25 C 37.254954 24.914650 57.250649 0
M  V30 26 C 40.562225 28.430916 58.487040 0
M  V30 27 C 39.375042 33.389239 61.677401 0
M  V30 28 C 37.173223 24.084985 55.952289 0
M  V30 29 N 36.627294 38.038205 61.316235 0
M  V30 30 C 39.710423 34.709286 62.393230 0
M  V30 31 C 39.557210 30.137865 52.841816 0
M  V30 32 C 40.620793 31.001252 50.736425 0
M  V30 33 C 37.995696 32.267461 57.952472 0
M  V30 34 C 37.881891 33.282853 61.245119 0 CFG=1
M  V30 35 C 37.954486 26.786222 53.609478 0
M  V30 36 N 39.645118 31.528973 49.767794 0 CHG=1
M  V30 37 C 38.888048 29.114616 53.539047 0
M  V30 38 H 39.455630 36.841411 62.179283 0
M  V30 39 H 39.812791 36.016661 60.683115 0
M  V30 40 H 39.368477 25.473320 57.243120 0
M  V30 41 H 38.337098 26.503680 58.196350 0
M  V30 42 H 36.479418 22.262521 55.033333 0
M  V30 43 H 36.445028 22.225896 56.784077 0
M  V30 44 H 35.211469 23.135277 55.847873 0
M  V30 45 H 38.035849 34.648018 59.559549 0
M  V30 46 H 36.408833 34.509981 60.202989 0
M  V30 47 H 37.182615 35.774796 62.238927 0
M  V30 48 H 38.647710 30.383799 55.224263 0
M  V30 49 H 37.312177 29.338163 54.939071 0
M  V30 50 H 39.898518 26.670046 54.595230 0
M  V30 51 H 38.970367 25.299510 54.755211 0
M  V30 52 H 38.847245 33.128571 56.155564 0
M  V30 53 H 39.844140 33.337330 57.581567 0
M  V30 54 H 39.759381 31.756847 56.770309 0
M  V30 55 H 39.966393 28.407123 56.087923 0
M  V30 56 H 40.031649 28.550461 49.855518 0
M  V30 57 H 39.156571 32.134691 59.461585 0
M  V30 58 H 37.245149 27.110298 55.964216 0
M  V30 59 H 36.416639 31.977596 60.255925 0
M  V30 60 H 37.530468 31.148695 61.285818 0
M  V30 61 H 37.407839 24.247423 58.099029 0
M  V30 62 H 36.297273 25.404661 57.423915 0
M  V30 63 H 40.849286 28.146572 59.499830 0
M  V30 64 H 40.444544 27.478590 57.976411 0
M  V30 65 H 41.413646 28.937863 58.037432 0
M  V30 66 H 39.638993 32.549334 62.320088 0
M  V30 67 H 40.047911 33.345147 60.823449 0
M  V30 68 H 36.859083 24.717801 55.124530 0
M  V30 69 H 38.179243 23.737016 55.750831 0
M  V30 70 H 36.496917 37.888417 62.304716 0
M  V30 71 H 36.282535 38.884264 60.876542 0
M  V30 72 H 39.245125 34.722121 63.367608 0
M  V30 73 H 40.784096 34.773341 62.571492 0
M  V30 74 H 39.741800 31.089130 53.321105 0
M  V30 75 H 40.877774 31.737769 51.473763 0
M  V30 76 H 41.527448 30.648234 50.240529 0
M  V30 77 H 37.245376 31.808048 57.333817 0
M  V30 78 H 37.486978 33.197020 58.186487 0
M  V30 79 H 37.301405 33.295827 62.167792 0
M  V30 80 H 36.963762 27.123800 53.907593 0
M  V30 81 H 37.748878 25.948982 52.967812 0
M  V30 82 H 40.125623 32.197030 49.180130 0
M  V30 83 H 39.239380 30.783582 49.214754 0
M  V30 84 H 38.910666 31.999494 50.277062 0
M  V30 END ATOM
M  V30 BEGIN BOND
M  V30 1 1 6 1
M  V30 2 1 6 5
M  V30 3 2 9 7
M  V30 4 1 13 6
M  V30 5 2 13 8
M  V30 6 1 14 9
M  V30 7 2 15 2
M  V30 8 1 15 14
M  V30 9 1 17 10
M  V30 10 1 17 15
M  V30 11 1 19 9
M  V30 12 2 20 18
M  V30 13 1 21 3
M  V30 14 1 21 11
M  V30 15 1 21 17
M  V30 16 2 22 16
M  V30 17 1 22 18
M  V30 18 1 23 19
M  V30 19 1 24 22
M  V30 20 1 25 3
M  V30 21 1 26 14
M  V30 22 1 28 4
M  V30 23 1 28 25
M  V30 24 1 29 13
M  V30 25 1 30 1
M  V30 26 1 30 27
M  V30 27 1 31 20
M  V30 28 1 32 20
M  V30 29 1 33 12
M  V30 30 1 33 19
M  V30 31 1 34 5
M  V30 32 1 34 23
M  V30 33 1 34 27
M  V30 34 1 35 11
M  V30 35 1 35 16
M  V30 36 1 36 32
M  V30 37 1 37 10
M  V30 38 1 37 16
M  V30 39 2 37 31
M  V30 40 1 38 1
M  V30 41 1 39 1
M  V30 42 1 40 3
M  V30 43 1 41 3
M  V30 44 1 42 4
M  V30 45 1 43 4
M  V30 46 1 44 4
M  V30 47 1 45 5
M  V30 48 1 46 5
M  V30 49 1 6 47 CFG=1
M  V30 50 1 48 10
M  V30 51 1 49 10
M  V30 52 1 50 11
M  V30 53 1 51 11
M  V30 54 1 52 12
M  V30 55 1 53 12
M  V30 56 1 54 12
M  V30 57 1 17 55 CFG=1
M  V30 58 1 56 18
M  V30 59 1 19 57 CFG=1
M  V30 60 1 21 58 CFG=3
M  V30 61 1 59 23
M  V30 62 1 60 23
M  V30 63 1 61 25
M  V30 64 1 62 25
M  V30 65 1 63 26
M  V30 66 1 64 26
M  V30 67 1 65 26
M  V30 68 1 66 27
M  V30 69 1 67 27
M  V30 70 1 68 28
M  V30 71 1 69 28
M  V30 72 1 70 29
M  V30 73 1 71 29
M  V30 74 1 72 30
M  V30 75 1 73 30
M  V30 76 1 74 31
M  V30 77 1 75 32
M  V30 78 1 76 32
M  V30 79 1 77 33
M  V30 80 1 78 33
M  V30 81 1 34 79 CFG=1
M  V30 82 1 80 35
M  V30 83 1 81 35
M  V30 84 1 82 36
M  V30 85 1 83 36
M  V30 86 1 84 36
M  V30 END BOND
M  V30 END CTAB
M  END
>  <i_epik_Tot_Q>  (1) 
1

>  <i_epik_Tot_abs_Q>  (1) 
1

>  <i_i_glide_confnum>  (1) 
1206

>  <i_i_glide_lignum>  (1) 
12

>  <i_i_glide_posenum>  (1) 
49

>  <i_i_glide_rotatable_bonds>  (1) 
12

>  <i_lp_mmshare_version>  (1) 
72125

>  <i_m_source_file_index>  (1) 
5

>  <i_f3d_flags>  (1) 
0

>  <num_sample>  (1) 
50

>  <b_lp_Chiralities_Consistent>  (1) 
1

>  <r_epik_Charging_Adjusted_Penalty>  (1) 
0.13898695589805143

>  <r_epik_Ionization_Penalty>  (1) 
0.069493509606034093

>  <r_epik_Ionization_Penalty_Charging>  (1) 
0.069493477949025731

>  <r_epik_Ionization_Penalty_Neutral>  (1) 
3.165700835510182e-08

>  <r_epik_State_Penalty>  (1) 
0.069493477949025703

>  <r_glide_ring_energy>  (1) 
0

>  <r_i_docking_score>  (1) 
-6.5161398009485509

>  <r_i_glide_ecoul>  (1) 
-4.2762491061775165

>  <r_i_glide_eff_state_penalty>  (1) 
0.069493477949025703

>  <r_i_glide_einternal>  (1) 
21.407310744561808

>  <r_i_glide_emodel>  (1) 
-37.64082474366181

>  <r_i_glide_emodel_strain>  (1) 
15.269214843999563

>  <r_i_glide_energy>  (1) 
-47.240003847670984

>  <r_i_glide_erotb>  (1) 
0.61504065404150154

>  <r_i_glide_esite>  (1) 
0

>  <r_i_glide_evdw>  (1) 
-42.963754741493467

>  <r_i_glide_gscore>  (1) 
-6.5856332788975767

>  <r_i_glide_gscore_strain>  (1) 
2.8173037109998909

>  <r_i_glide_hbond>  (1) 
-0.17108685694092951

>  <r_i_glide_ligand_efficiency>  (1) 
-0.17611188651212301

>  <r_i_glide_ligand_efficiency_ln>  (1) 
-1.4131979628350702

>  <r_i_glide_ligand_efficiency_sa>  (1) 
-0.58684387657028858

>  <r_i_glide_lipo>  (1) 
-5.553288657130075

>  <r_i_glide_metal>  (1) 
-0

>  <r_i_glide_rewards>  (1) 
-1.5039770268666628

>  <r_lp_Energy>  (1) 
65.294674999999998

>  <r_lp_tautomer_probability>  (1) 
0.99980002999550088

>  <s_epik_cmdline>  (1) 
J2VwaWtfcHl0aG9uJywgJy1waHQnLCAnMS4wJywgJy1waCcsICc3LjQnLCAnLXRuJywgJzgnLCAnLW1hJywgJzUwMCcsICctaW1hZScsICc8aW5maWxlLm1hZT4nLCAnLW9tYWUnLCAnPG91dGZpbGUubWFlPic=

>  <s_epik_input>  (1) 
Tz1DKFtOSDJdKVtDQEBIXTFbQ0gyXVtDSDJdW0NIMl1bQ0BASF0oW0NIMl0xKVtDSDJdW0NASF0oW0NIMl1bQ0gzXSlDKD1PKU4oW0NIM10pQyg9TylbQ0BASF0oW0NAQEhdKFtDSDJdW0NIMl0yKVtDSDJdW0NIMl1bQ0gyXVtDSDNdKVtDSDJdYyhjMjMpW2NIXWMoW2NIXWMzRilbQ0gyXVtOSDJd

>  <s_glide_docking_method>  (1) 
confgen

>  <s_i_glide_gridfile>  (1) 
gpcr_5ht2c_6bqh_protein_autoprepared_prepared

>  <s_lp_Force_Field>  (1) 
S-OPLS

>  <s_lp_Variant>  (1) 
DiffSBDD_4-1

>  <s_m_source_file>  (1) 
generated_GPCR_5HT2C_ligand_DiffSBDD_2026-06-23_prepared.sdf

>  <GenAI_Model>  (1) 
DiffSBDD

>  <Protein>  (1) 
GPCR_5HT2C

$$$$
DiffSBDD_1
     RDKit          3D

  0  0  0  0  0  0  0  0  0  0999 V3000
M  V30 BEGIN CTAB
M  V30 COUNTS 78 81 0 0 1
M  V30 BEGIN ATOM
M  V30 1 C 39.747593 28.652881 60.737741 0
M  V30 2 N 39.047054 28.842225 56.322200 0
M  V30 3 C 37.734464 25.250875 56.392614 0 CFG=1
M  V30 4 C 38.487491 25.343600 55.054634 0
M  V30 5 C 42.484703 33.135549 68.250522 0
M  V30 6 C 38.989234 30.910710 62.961210 0
M  V30 7 C 37.810394 26.653686 57.025562 0
M  V30 8 C 38.378883 27.573918 55.919780 0 CFG=2
M  V30 9 C 44.376298 32.011887 66.101815 0
M  V30 10 N 40.262537 30.467118 62.419175 0
M  V30 11 O 39.836586 35.268939 61.612553 0
M  V30 12 C 40.206808 30.756644 63.844120 0 CFG=1
M  V30 13 C 43.110308 31.329293 65.739461 0 CFG=2
M  V30 14 O 42.873467 31.276596 64.270907 0
M  V30 15 C 39.564937 36.593520 63.582295 0
M  V30 16 C 36.161947 23.567025 55.767354 0
M  V30 17 C 42.056059 32.311761 65.909882 0
M  V30 18 C 39.747872 28.862606 57.620548 0
M  V30 19 C 41.388617 34.826541 63.385191 0
M  V30 20 O 40.710507 33.927287 66.845351 0
M  V30 21 O 39.630223 30.987231 55.826519 0
M  V30 22 C 41.776500 33.392143 62.965463 0
M  V30 23 O 36.378236 24.912302 56.169665 0
M  V30 24 O 45.644258 31.338690 67.970098 0
M  V30 25 P 41.352640 32.135397 64.296587 0 CFG=2 CHG=1
M  V30 26 C 39.949560 35.219264 63.017865 0 CFG=2
M  V30 27 C 41.761711 33.103518 66.961287 0
M  V30 28 C 40.662959 26.408118 55.730072 0
M  V30 29 O 39.743452 29.779564 59.870817 0
M  V30 30 C 39.054575 29.945148 55.517388 0
M  V30 31 C 38.310863 29.860098 54.179245 0
M  V30 32 C 43.714090 32.601893 68.553672 0
M  V30 33 C 44.639614 31.930294 67.589469 0
M  V30 34 C 38.960578 29.626398 58.695484 0
M  V30 35 C 39.285811 26.643626 55.099877 0 CFG=1
M  V30 36 C 40.338343 29.036125 62.107773 0
M  V30 37 H 40.303110 27.822773 60.299517 0
M  V30 38 H 38.727872 28.301800 60.879802 0
M  V30 39 H 38.201129 24.523197 57.059044 0
M  V30 40 H 39.115997 24.474565 54.875713 0
M  V30 41 H 37.773641 25.403963 54.231149 0
M  V30 42 H 41.973799 33.629865 69.064641 0
M  V30 43 H 38.234921 30.131664 62.906295 0
M  V30 44 H 38.729548 31.890851 62.565816 0
M  V30 45 H 38.440546 26.570980 57.906421 0
M  V30 46 H 36.845374 27.001443 57.384153 0
M  V30 47 H 37.509367 27.792133 55.302693 0
M  V30 48 H 45.211123 31.528448 65.592742 0
M  V30 49 H 44.390676 33.056280 65.786557 0
M  V30 50 H 40.411264 35.943896 61.282921 0
M  V30 51 H 40.258160 29.849081 64.443368 0
M  V30 52 H 42.964911 30.350561 66.201372 0
M  V30 53 H 39.618842 36.605584 64.672012 0
M  V30 54 H 40.231037 37.374588 63.212889 0
M  V30 55 H 38.547398 36.866949 63.301838 0
M  V30 56 H 35.102196 23.408592 55.567573 0
M  V30 57 H 36.710315 23.318151 54.859237 0
M  V30 58 H 36.446443 22.871033 56.556006 0
M  V30 59 H 40.717313 29.337868 57.494595 0
M  V30 60 H 40.020157 27.872497 57.971246 0
M  V30 61 H 41.546773 34.941144 64.458669 0
M  V30 62 H 42.058054 35.552545 62.928256 0
M  V30 63 H 40.255319 33.763513 66.038110 0
M  V30 64 H 42.845127 33.336841 62.780914 0
M  V30 65 H 41.306777 33.120162 62.019243 0
M  V30 66 H 39.250727 34.463022 63.367759 0
M  V30 67 H 40.581507 25.953606 56.716715 0
M  V30 68 H 41.245072 25.737914 55.107854 0
M  V30 69 H 41.236944 27.329422 55.827279 0
M  V30 70 H 37.236787 29.757562 54.330983 0
M  V30 71 H 38.465717 30.781162 53.617068 0
M  V30 72 H 38.675364 29.046032 53.556639 0
M  V30 73 H 44.072454 32.692576 69.568757 0
M  V30 74 H 38.002674 29.148050 58.906357 0
M  V30 75 H 38.726944 30.630051 58.338191 0
M  V30 76 H 39.433538 27.021802 54.089640 0
M  V30 77 H 41.392071 28.753906 62.105403 0
M  V30 78 H 39.882312 28.418603 62.880330 0
M  V30 END ATOM
M  V30 BEGIN BOND
M  V30 1 1 4 3
M  V30 2 1 7 3
M  V30 3 1 8 2
M  V30 4 1 8 7
M  V30 5 1 10 6
M  V30 6 1 12 6
M  V30 7 1 12 10
M  V30 8 1 13 9
M  V30 9 1 14 13
M  V30 10 1 17 13
M  V30 11 1 18 2
M  V30 12 1 22 19
M  V30 13 1 23 3
M  V30 14 1 23 16
M  V30 15 1 25 12
M  V30 16 1 25 14
M  V30 17 1 25 17
M  V30 18 1 25 22 CFG=3
M  V30 19 1 26 11
M  V30 20 1 26 15
M  V30 21 1 26 19
M  V30 22 1 27 5
M  V30 23 2 27 17
M  V30 24 1 27 20
M  V30 25 1 29 1
M  V30 26 1 30 2
M  V30 27 2 30 21
M  V30 28 1 31 30
M  V30 29 2 32 5
M  V30 30 1 33 9
M  V30 31 2 33 24
M  V30 32 1 33 32
M  V30 33 1 34 18
M  V30 34 1 34 29
M  V30 35 1 35 4
M  V30 36 1 35 8
M  V30 37 1 35 28
M  V30 38 1 36 1
M  V30 39 1 36 10
M  V30 40 1 37 1
M  V30 41 1 38 1
M  V30 42 1 3 39 CFG=1
M  V30 43 1 40 4
M  V30 44 1 41 4
M  V30 45 1 42 5
M  V30 46 1 43 6
M  V30 47 1 44 6
M  V30 48 1 45 7
M  V30 49 1 46 7
M  V30 50 1 8 47 CFG=3
M  V30 51 1 48 9
M  V30 52 1 49 9
M  V30 53 1 50 11
M  V30 54 1 12 51 CFG=1
M  V30 55 1 13 52 CFG=1
M  V30 56 1 53 15
M  V30 57 1 54 15
M  V30 58 1 55 15
M  V30 59 1 56 16
M  V30 60 1 57 16
M  V30 61 1 58 16
M  V30 62 1 59 18
M  V30 63 1 60 18
M  V30 64 1 61 19
M  V30 65 1 62 19
M  V30 66 1 63 20
M  V30 67 1 64 22
M  V30 68 1 65 22
M  V30 69 1 26 66 CFG=1
M  V30 70 1 67 28
M  V30 71 1 68 28
M  V30 72 1 69 28
M  V30 73 1 70 31
M  V30 74 1 71 31
M  V30 75 1 72 31
M  V30 76 1 73 32
M  V30 77 1 74 34
M  V30 78 1 75 34
M  V30 79 1 35 76 CFG=3
M  V30 80 1 77 36
M  V30 81 1 78 36
M  V30 END BOND
M  V30 END CTAB
M  END
>  <i_epik_Tot_Q>  (1) 
1

>  <i_epik_Tot_abs_Q>  (1) 
1

>  <i_i_glide_confnum>  (1) 
4530

>  <i_i_glide_lignum>  (1) 
5

>  <i_i_glide_posenum>  (1) 
294

>  <i_i_glide_rotatable_bonds>  (1) 
15

>  <i_lp_mmshare_version>  (1) 
72125

>  <i_m_source_file_index>  (1) 
2

>  <i_f3d_flags>  (1) 
0

>  <num_sample>  (1) 
50

>  <b_lp_Chiralities_Consistent>  (1) 
1

>  <r_epik_Charging_Adjusted_Penalty>  (1) 
0.012777702237649643

>  <r_epik_Ionization_Penalty>  (1) 
0.012893064322698497

>  <r_epik_Ionization_Penalty_Charging>  (1) 
0

>  <r_epik_Ionization_Penalty_Neutral>  (1) 
0.012893064322698497

>  <r_epik_State_Penalty>  (1) 
0.012777702237649643

>  <r_glide_ring_energy>  (1) 
1.6816026439138669

>  <r_i_docking_score>  (1) 
-6.5147507799423217

>  <r_i_glide_ecoul>  (1) 
-2.0396309489172419

>  <r_i_glide_eff_state_penalty>  (1) 
0.012777702237649643

>  <r_i_glide_einternal>  (1) 
43.029117563723283

>  <r_i_glide_emodel>  (1) 
-45.783579124765907

>  <r_i_glide_emodel_strain>  (1) 
2.8478394064796362

>  <r_i_glide_energy>  (1) 
-48.44692478395659

>  <r_i_glide_erotb>  (1) 
0.81958699115176215

>  <r_i_glide_esite>  (1) 
0

>  <r_i_glide_evdw>  (1) 
-46.407293835039347

>  <r_i_glide_gscore>  (1) 
-6.5275284821799717

>  <r_i_glide_gscore_strain>  (1) 
0

>  <r_i_glide_hbond>  (1) 
0

>  <r_i_glide_ligand_efficiency>  (1) 
-0.18096529944284226

>  <r_i_glide_ligand_efficiency_ln>  (1) 
-1.4213426119575974

>  <r_i_glide_ligand_efficiency_sa>  (1) 
-0.59753425333469656

>  <r_i_glide_lipo>  (1) 
-4.0195383708304737

>  <r_i_glide_metal>  (1) 
-0

>  <r_i_glide_rewards>  (1) 
-0.70126776841170646

>  <r_lp_Energy>  (1) 
37.151716

>  <s_epik_cmdline>  (1) 
J2VwaWtfcHl0aG9uJywgJy1waHQnLCAnMS4wJywgJy1waCcsICc3LjQnLCAnLXRuJywgJzgnLCAnLW1hJywgJzUwMCcsICctaW1hZScsICc8aW5maWxlLm1hZT4nLCAnLW9tYWUnLCAnPG91dGZpbGUubWFlPic=

>  <s_epik_input>  (1) 
W0NIM11PW0NASF0xW0NIMl1bQ0BIXShbQ0gzXSlbQ0BASF0oW0NIMl0xKU4oQyg9TylbQ0gzXSlbQ0gyXVtDSDJdT1tDSDJdW0NIMl1OMltDSDJdW0NIXTJbUEBAK10oTzMpKFtDSDJdW0NIMl1bQ0BIXShbT0hdKVtDSDNdKUMoW0NAQEhdMzQpPUMoW09IXSlbQ0hdPVtDSF1DKD1PKVtDSDJdNA==

>  <s_glide_docking_method>  (1) 
confgen

>  <s_i_glide_gridfile>  (1) 
gpcr_5ht2c_6bqh_protein_autoprepared_prepared

>  <s_lp_Force_Field>  (1) 
S-OPLS

>  <s_lp_Variant>  (1) 
DiffSBDD_1-1

>  <s_m_source_file>  (1) 
generated_GPCR_5HT2C_ligand_DiffSBDD_2026-06-23_prepared.sdf

>  <GenAI_Model>  (1) 
DiffSBDD

>  <Protein>  (1) 
GPCR_5HT2C

$$$$
DiffSBDD_13
     RDKit          3D

  0  0  0  0  0  0  0  0  0  0999 V3000
M  V30 BEGIN CTAB
M  V30 COUNTS 80 81 0 0 1
M  V30 BEGIN ATOM
M  V30 1 N 40.706292 28.891293 61.265118 0
M  V30 2 C 39.754312 27.542920 58.672888 0 CFG=2
M  V30 3 O 36.123319 38.651360 62.168167 0
M  V30 4 C 39.678789 29.787080 52.278682 0
M  V30 5 C 39.280678 25.582078 57.134462 0
M  V30 6 C 38.574400 32.249277 56.795728 0
M  V30 7 C 39.304570 35.466441 62.059760 0
M  V30 8 C 39.264190 29.978251 58.792611 0
M  V30 9 C 37.244848 26.918302 54.958093 0
M  V30 10 O 38.436414 32.127584 58.204638 0
M  V30 11 C 37.994182 30.846418 58.646706 0 CFG=2
M  V30 12 N 39.115043 28.659922 59.405944 0
M  V30 13 O 37.645340 39.607957 60.670842 0
M  V30 14 C 37.752765 26.228903 53.644783 0
M  V30 15 C 38.628850 28.435582 54.001750 0
M  V30 16 C 37.251801 35.943064 60.913161 0 CFG=1
M  V30 17 C 39.244894 29.637128 53.617512 0
M  V30 18 C 41.303727 27.623626 58.439883 0
M  V30 19 C 38.119943 28.175719 55.382329 0 CFG=2
M  V30 20 C 36.280333 32.258282 59.977384 0
M  V30 21 C 37.003047 33.441762 60.637572 0
M  V30 22 C 39.325532 28.660105 60.869916 0
M  V30 23 C 37.254860 38.441010 61.351964 0
M  V30 24 C 36.586031 34.814531 60.110956 0
M  V30 25 O 39.188334 27.847327 56.268088 0
M  V30 26 C 38.934323 27.057459 57.435208 0 CFG=2
M  V30 27 C 41.796183 28.079305 57.067173 0
M  V30 28 C 38.864294 27.538042 51.774600 0
M  V30 29 F 40.273274 30.936561 51.882868 0
M  V30 30 O 38.668103 35.807658 60.837579 0
M  V30 31 C 38.443016 27.424947 53.110917 0
M  V30 32 C 36.926606 37.331362 60.346603 0
M  V30 33 C 39.490121 28.730250 51.353858 0
M  V30 34 O 40.747623 28.667518 62.690633 0
M  V30 35 C 37.199123 31.027997 59.957336 0
M  V30 36 H 41.352778 28.190000 60.922400 0
M  V30 37 H 39.655932 26.708037 59.366430 0
M  V30 38 H 36.028166 37.912635 62.750204 0
M  V30 39 H 39.035840 24.945459 57.984236 0
M  V30 40 H 38.746035 25.179770 56.279216 0
M  V30 41 H 40.340767 25.452730 56.918901 0
M  V30 42 H 38.830569 33.278558 56.541450 0
M  V30 43 H 39.368060 31.606385 56.413884 0
M  V30 44 H 37.645582 32.003194 56.278770 0
M  V30 45 H 40.381363 35.407722 61.900530 0
M  V30 46 H 39.118317 36.214196 62.830797 0
M  V30 47 H 38.967966 34.498133 62.427739 0
M  V30 48 H 39.987640 30.536766 59.381665 0
M  V30 49 H 39.690310 29.873809 57.799271 0
M  V30 50 H 36.911465 26.248314 55.748891 0
M  V30 51 H 36.348692 27.377607 54.567774 0
M  V30 52 H 37.318707 30.407887 57.910386 0
M  V30 53 H 36.943543 39.789605 60.051569 0
M  V30 54 H 36.943322 25.859229 53.014847 0
M  V30 55 H 38.446038 25.442148 53.911417 0
M  V30 56 H 36.899361 35.887436 61.944583 0
M  V30 57 H 39.385513 30.433675 54.330613 0
M  V30 58 H 41.804208 28.244791 59.174879 0
M  V30 59 H 41.730244 26.630647 58.567453 0
M  V30 60 H 37.518760 28.999040 55.769925 0
M  V30 61 H 35.961931 32.508607 58.967847 0
M  V30 62 H 35.371324 32.037573 60.538057 0
M  V30 63 H 36.866286 33.387023 61.719136 0
M  V30 64 H 38.075602 33.347602 60.463686 0
M  V30 65 H 38.964849 27.737708 61.298035 0
M  V30 66 H 38.727762 29.418902 61.355802 0
M  V30 67 H 38.098060 38.137889 61.969970 0
M  V30 68 H 36.852728 34.895734 59.056389 0
M  V30 69 H 35.502533 34.905726 60.165114 0
M  V30 70 H 37.877167 27.124813 57.696770 0
M  V30 71 H 42.858079 28.324500 57.080504 0
M  V30 72 H 41.644714 27.289671 56.336012 0
M  V30 73 H 41.245103 28.937759 56.703848 0
M  V30 74 H 38.706536 26.727660 51.077106 0
M  V30 75 H 37.499231 37.470045 59.428036 0
M  V30 76 H 35.877697 37.394714 60.058330 0
M  V30 77 H 39.818083 28.838304 50.330374 0
M  V30 78 H 40.979599 29.518006 63.031932 0
M  V30 79 H 36.614796 30.125636 60.138402 0
M  V30 80 H 37.878883 31.130950 60.799100 0
M  V30 END ATOM
M  V30 BEGIN BOND
M  V30 1 1 10 6
M  V30 2 1 11 8
M  V30 3 1 11 10
M  V30 4 1 12 2
M  V30 5 1 12 8
M  V30 6 1 14 9
M  V30 7 2 17 4
M  V30 8 1 17 15
M  V30 9 1 18 2
M  V30 10 1 19 9
M  V30 11 1 19 15
M  V30 12 1 21 20
M  V30 13 1 22 1
M  V30 14 1 22 12
M  V30 15 1 23 3
M  V30 16 1 23 13
M  V30 17 1 24 16
M  V30 18 1 24 21
M  V30 19 1 25 19
M  V30 20 1 26 2
M  V30 21 1 26 5
M  V30 22 1 26 25
M  V30 23 1 27 18
M  V30 24 1 29 4
M  V30 25 1 30 7
M  V30 26 1 30 16
M  V30 27 1 31 14
M  V30 28 2 31 15
M  V30 29 1 31 28
M  V30 30 1 32 16
M  V30 31 1 32 23
M  V30 32 1 33 4
M  V30 33 2 33 28
M  V30 34 1 34 1
M  V30 35 1 35 11
M  V30 36 1 35 20
M  V30 37 1 36 1
M  V30 38 1 2 37 CFG=1
M  V30 39 1 38 3
M  V30 40 1 39 5
M  V30 41 1 40 5
M  V30 42 1 41 5
M  V30 43 1 42 6
M  V30 44 1 43 6
M  V30 45 1 44 6
M  V30 46 1 45 7
M  V30 47 1 46 7
M  V30 48 1 47 7
M  V30 49 1 48 8
M  V30 50 1 49 8
M  V30 51 1 50 9
M  V30 52 1 51 9
M  V30 53 1 11 52 CFG=3
M  V30 54 1 53 13
M  V30 55 1 54 14
M  V30 56 1 55 14
M  V30 57 1 16 56 CFG=1
M  V30 58 1 57 17
M  V30 59 1 58 18
M  V30 60 1 59 18
M  V30 61 1 19 60 CFG=1
M  V30 62 1 61 20
M  V30 63 1 62 20
M  V30 64 1 63 21
M  V30 65 1 64 21
M  V30 66 1 65 22
M  V30 67 1 66 22
M  V30 68 1 67 23
M  V30 69 1 68 24
M  V30 70 1 69 24
M  V30 71 1 26 70 CFG=1
M  V30 72 1 71 27
M  V30 73 1 72 27
M  V30 74 1 73 27
M  V30 75 1 74 28
M  V30 76 1 75 32
M  V30 77 1 76 32
M  V30 78 1 77 33
M  V30 79 1 78 34
M  V30 80 1 79 35
M  V30 81 1 80 35
M  V30 END BOND
M  V30 END CTAB
M  END
>  <i_epik_Tot_Q>  (1) 
0

>  <i_epik_Tot_abs_Q>  (1) 
0

>  <i_i_glide_confnum>  (1) 
6538

>  <i_i_glide_lignum>  (1) 
26

>  <i_i_glide_posenum>  (1) 
10

>  <i_i_glide_rotatable_bonds>  (1) 
21

>  <i_lp_mmshare_version>  (1) 
72125

>  <i_m_source_file_index>  (1) 
14

>  <i_f3d_flags>  (1) 
0

>  <num_sample>  (1) 
50

>  <b_lp_Chiralities_Consistent>  (1) 
1

>  <r_epik_Charging_Adjusted_Penalty>  (1) 
0.6814092300501583

>  <r_epik_Ionization_Penalty>  (1) 
0.68170603093061677

>  <r_epik_Ionization_Penalty_Charging>  (1) 
0

>  <r_epik_Ionization_Penalty_Neutral>  (1) 
0.68170603093061677

>  <r_epik_State_Penalty>  (1) 
0.6814092300501583

>  <r_glide_ring_energy>  (1) 
0

>  <r_i_docking_score>  (1) 
-6.5075518583201735

>  <r_i_glide_ecoul>  (1) 
-5.6705153296778477

>  <r_i_glide_eff_state_penalty>  (1) 
0.6814092300501583

>  <r_i_glide_einternal>  (1) 
23.642471213178982

>  <r_i_glide_emodel>  (1) 
-53.41584744648349

>  <r_i_glide_emodel_strain>  (1) 
4.2186016757760427

>  <r_i_glide_energy>  (1) 
-48.72018287118852

>  <r_i_glide_erotb>  (1) 
1.1405850695777229

>  <r_i_glide_esite>  (1) 
0

>  <r_i_glide_evdw>  (1) 
-43.049667541510672

>  <r_i_glide_gscore>  (1) 
-7.1889610883703314

>  <r_i_glide_gscore_strain>  (1) 
0.054650418944010681

>  <r_i_glide_hbond>  (1) 
-0.32000000000000001

>  <r_i_glide_ligand_efficiency>  (1) 
-0.1859300530948621

>  <r_i_glide_ligand_efficiency_ln>  (1) 
-1.4285520602332349

>  <r_i_glide_ligand_efficiency_sa>  (1) 
-0.60818953273017928

>  <r_i_glide_lipo>  (1) 
-4.2359474026542117

>  <r_i_glide_metal>  (1) 
-0

>  <r_i_glide_rewards>  (1) 
-0.82518849771064284

>  <r_lp_Energy>  (1) 
18.435863999999999

>  <s_epik_Chemistry_Notes>  (1) 
This compound contains an acetal/aminal-like group ( X-CH(R)-Y where X, Y are N, S, or O) that may be acid/base labile, releasing an aldehyde. This compound has a N-S or N-O group and may undergo hydrolysis at high or low pH.

>  <s_epik_cmdline>  (1) 
J2VwaWtfcHl0aG9uJywgJy1waHQnLCAnMS4wJywgJy1waCcsICc3LjQnLCAnLXRuJywgJzgnLCAnLW1hJywgJzUwMCcsICctaW1hZScsICc8aW5maWxlLm1hZT4nLCAnLW9tYWUnLCAnPG91dGZpbGUubWFlPic=

>  <s_epik_input>  (1) 
W09IXVtDSF0oW09IXSlbQ0gyXVtDQEhdKE9bQ0gzXSlbQ0gyXVtDSDJdW0NIMl1bQ0gyXVtDQEBIXShPW0NIM10pW0NIMl1OKFtDSDJdW05IXVtPSF0pW0NASF0oW0NIMl1bQ0gzXSlbQ0BIXShbQ0gzXSlPW0NAQEhdMVtDSDJdW0NIMl1jKGMxMilbY0hdW2NIXWMoRilbY0hdMg==

>  <s_glide_docking_method>  (1) 
confgen

>  <s_i_glide_gridfile>  (1) 
gpcr_5ht2c_6bqh_protein_autoprepared_prepared

>  <s_lp_Force_Field>  (1) 
S-OPLS

>  <s_lp_Variant>  (1) 
DiffSBDD_13-3

>  <s_m_source_file>  (1) 
generated_GPCR_5HT2C_ligand_DiffSBDD_2026-06-23_prepared.sdf

>  <GenAI_Model>  (1) 
DiffSBDD

>  <Protein>  (1) 
GPCR_5HT2C

$$$$
DiffSBDD_41
     RDKit          3D

  0  0  0  0  0  0  0  0  0  0999 V3000
M  V30 BEGIN CTAB
M  V30 COUNTS 71 75 0 0 1
M  V30 BEGIN ATOM
M  V30 1 C 38.144424 29.597375 53.825252 0
M  V30 2 O 37.823308 32.395366 58.539963 0
M  V30 3 C 37.765998 31.285241 59.434546 0 CFG=1
M  V30 4 C 39.244949 29.387207 61.186999 0
M  V30 5 C 38.814345 30.953367 53.610115 0
M  V30 6 C 39.701160 28.545813 56.331271 0
M  V30 7 C 36.920970 24.110268 55.526281 0
M  V30 8 C 37.291099 25.056864 54.567731 0
M  V30 9 C 37.242975 35.686677 60.167760 0
M  V30 10 C 38.567654 25.841595 58.500887 0
M  V30 11 C 36.313777 30.840333 59.678512 0
M  V30 12 C 38.647481 35.223863 61.821213 0
M  V30 13 N 37.838901 36.124461 61.260446 0
M  V30 14 C 38.645858 30.178223 58.764421 0 CFG=1
M  V30 15 C 38.675076 29.708273 56.359001 0
M  V30 16 C 37.711604 34.344994 59.972337 0
M  V30 17 O 38.970659 38.137749 61.767759 0
M  V30 18 O 36.466732 36.332570 59.462199 0
M  V30 19 C 39.279400 31.094864 56.068296 0
M  V30 20 C 39.882873 31.159364 54.673769 0
M  V30 21 N 38.843951 28.958993 59.818913 0 CFG=1 CHG=1
M  V30 22 O 39.345855 35.429600 62.814489 0
M  V30 23 O 37.985495 29.688625 57.625912 0
M  V30 24 C 38.065068 26.160154 54.934567 0
M  V30 25 C 39.817982 27.950590 59.304752 0
M  V30 26 C 37.709542 37.490867 61.766469 0
M  V30 27 C 38.433036 26.334276 56.275192 0
M  V30 28 C 37.362274 33.660374 58.852249 0
M  V30 29 C 37.314289 24.272350 56.864134 0
M  V30 30 C 40.047416 33.467346 60.665674 0
M  V30 31 N 39.141549 27.347640 56.936051 0
M  V30 32 C 38.641271 33.858401 61.089328 0 CFG=1
M  V30 33 C 37.612416 29.475065 55.268382 0
M  V30 34 C 39.187334 27.038669 58.297810 0
M  V30 35 C 38.070559 25.399571 57.270872 0
M  V30 36 H 38.883781 28.833674 53.599949 0
M  V30 37 H 37.337203 29.398476 53.123222 0
M  V30 38 H 38.225270 31.547488 60.369333 0
M  V30 39 H 40.115792 30.041763 61.145170 0
M  V30 40 H 38.445663 29.907742 61.712338 0
M  V30 41 H 39.496527 28.536371 61.821996 0
M  V30 42 H 39.256052 31.016764 52.615206 0
M  V30 43 H 38.074091 31.751451 53.691144 0
M  V30 44 H 40.042046 28.301079 55.328705 0
M  V30 45 H 40.610041 28.826966 56.855142 0
M  V30 46 H 36.329440 23.253347 55.237888 0
M  V30 47 H 36.978228 24.937805 53.542588 0
M  V30 48 H 38.445100 25.337739 59.416403 0
M  V30 49 H 36.253698 30.137773 60.503812 0
M  V30 50 H 35.687808 31.691468 59.947600 0
M  V30 51 H 35.869594 30.380357 58.795814 0
M  V30 52 H 39.645128 30.537733 58.577711 0
M  V30 53 H 39.567127 37.621809 62.294366 0
M  V30 54 H 38.499328 31.854284 56.151705 0
M  V30 55 H 40.045139 31.385380 56.770681 0
M  V30 56 H 40.706325 30.454935 54.555850 0
M  V30 57 H 40.296256 32.137349 54.567924 0
M  V30 58 H 38.352356 26.882632 54.193536 0
M  V30 59 H 40.164675 27.337658 60.133144 0
M  V30 60 H 40.720988 28.433196 58.933592 0
M  V30 61 H 37.319587 37.463659 62.785578 0
M  V30 62 H 37.011674 38.092729 61.181003 0
M  V30 63 H 36.718618 34.056102 58.078125 0
M  V30 64 H 37.022930 23.535269 57.597553 0
M  V30 65 H 40.667789 34.359428 60.567763 0
M  V30 66 H 40.516960 32.826078 61.411502 0
M  V30 67 H 40.045215 32.937907 59.718790 0
M  V30 68 H 38.155910 33.130675 61.738268 0
M  V30 69 H 37.245140 28.476292 55.385893 0
M  V30 70 H 36.768075 30.152378 55.411518 0
M  V30 71 H 37.963448 28.475094 59.917009 0
M  V30 END ATOM
M  V30 BEGIN BOND
M  V30 1 1 3 2
M  V30 2 1 5 1
M  V30 3 2 8 7
M  V30 4 1 11 3
M  V30 5 1 13 9
M  V30 6 1 13 12
M  V30 7 1 14 3
M  V30 8 1 15 6
M  V30 9 1 16 9
M  V30 10 2 18 9
M  V30 11 1 19 15
M  V30 12 1 20 5
M  V30 13 1 20 19
M  V30 14 1 21 4
M  V30 15 1 21 14
M  V30 16 2 22 12
M  V30 17 1 23 14
M  V30 18 1 23 15
M  V30 19 1 24 8
M  V30 20 1 25 21
M  V30 21 1 26 13
M  V30 22 1 26 17
M  V30 23 2 27 24
M  V30 24 1 28 2
M  V30 25 2 28 16
M  V30 26 1 29 7
M  V30 27 1 31 6
M  V30 28 1 31 27
M  V30 29 1 32 12
M  V30 30 1 32 16
M  V30 31 1 32 30
M  V30 32 1 33 1
M  V30 33 1 33 15
M  V30 34 2 34 10
M  V30 35 1 34 25
M  V30 36 1 34 31
M  V30 37 1 35 10
M  V30 38 1 35 27
M  V30 39 2 35 29
M  V30 40 1 36 1
M  V30 41 1 37 1
M  V30 42 1 3 38 CFG=1
M  V30 43 1 39 4
M  V30 44 1 40 4
M  V30 45 1 41 4
M  V30 46 1 42 5
M  V30 47 1 43 5
M  V30 48 1 44 6
M  V30 49 1 45 6
M  V30 50 1 46 7
M  V30 51 1 47 8
M  V30 52 1 48 10
M  V30 53 1 49 11
M  V30 54 1 50 11
M  V30 55 1 51 11
M  V30 56 1 14 52 CFG=3
M  V30 57 1 53 17
M  V30 58 1 54 19
M  V30 59 1 55 19
M  V30 60 1 56 20
M  V30 61 1 57 20
M  V30 62 1 58 24
M  V30 63 1 59 25
M  V30 64 1 60 25
M  V30 65 1 61 26
M  V30 66 1 62 26
M  V30 67 1 63 28
M  V30 68 1 64 29
M  V30 69 1 65 30
M  V30 70 1 66 30
M  V30 71 1 67 30
M  V30 72 1 32 68 CFG=1
M  V30 73 1 69 33
M  V30 74 1 70 33
M  V30 75 1 21 71 CFG=1
M  V30 END BOND
M  V30 END CTAB
M  END
>  <i_epik_Tot_Q>  (1) 
1

>  <i_epik_Tot_abs_Q>  (1) 
1

>  <i_i_glide_confnum>  (1) 
4

>  <i_i_glide_lignum>  (1) 
89

>  <i_i_glide_posenum>  (1) 
369

>  <i_i_glide_rotatable_bonds>  (1) 
5

>  <i_lp_mmshare_version>  (1) 
72125

>  <i_m_source_file_index>  (1) 
42

>  <i_f3d_flags>  (1) 
0

>  <num_sample>  (1) 
50

>  <b_lp_Chiralities_Consistent>  (1) 
1

>  <r_epik_Charging_Adjusted_Penalty>  (1) 
1.62722492853585

>  <r_epik_Ionization_Penalty>  (1) 
0.81369786534067623

>  <r_epik_Ionization_Penalty_Charging>  (1) 
0.81361246426792511

>  <r_epik_Ionization_Penalty_Neutral>  (1) 
8.5401072751167088e-05

>  <r_epik_State_Penalty>  (1) 
0.813612464267925

>  <r_glide_ring_energy>  (1) 
1.1929788391020448

>  <r_i_docking_score>  (1) 
-6.5028323640737486

>  <r_i_glide_ecoul>  (1) 
0.24429455589670346

>  <r_i_glide_eff_state_penalty>  (1) 
0.813612464267925

>  <r_i_glide_einternal>  (1) 
3.5680927902108976

>  <r_i_glide_emodel>  (1) 
-53.141290012561932

>  <r_i_glide_emodel_strain>  (1) 
2.7650530230922072

>  <r_i_glide_energy>  (1) 
-35.419646529848549

>  <r_i_glide_erotb>  (1) 
0.34854586591334119

>  <r_i_glide_esite>  (1) 
-0.018984286050773465

>  <r_i_glide_evdw>  (1) 
-35.66394108574525

>  <r_i_glide_gscore>  (1) 
-7.3164448283416732

>  <r_i_glide_gscore_strain>  (1) 
0

>  <r_i_glide_hbond>  (1) 
0

>  <r_i_glide_ligand_efficiency>  (1) 
-0.18579521040210711

>  <r_i_glide_ligand_efficiency_ln>  (1) 
-1.4275160265026132

>  <r_i_glide_ligand_efficiency_sa>  (1) 
-0.60774845334073324

>  <r_i_glide_lipo>  (1) 
-3.8988370325139634

>  <r_i_glide_metal>  (1) 
-0

>  <r_i_glide_rewards>  (1) 
-2.0006165047875211

>  <r_lp_Energy>  (1) 
42.513731

>  <s_epik_Chemistry_Notes>  (1) 
This compound contains an acetal/aminal-like group ( X-CH(R)-Y where X, Y are N, S, or O) that may be acid/base labile, releasing an aldehyde.

>  <s_epik_cmdline>  (1) 
J2VwaWtfcHl0aG9uJywgJy1waHQnLCAnMS4wJywgJy1waCcsICc3LjQnLCAnLXRuJywgJzgnLCAnLW1hJywgJzUwMCcsICctaW1hZScsICc8aW5maWxlLm1hZT4nLCAnLW9tYWUnLCAnPG91dGZpbGUubWFlPic=

>  <s_epik_input>  (1) 
W0NIMl0xW0NIMl1bQ0gyXVtDSDJdW0NIMl1DMTJbQ0gyXW4zYzRjKFtjSF1bY0hdW2NIXVtjSF00KVtjSF1jM1tDSDJdTihbQ0gzXSlbQ0BASF0oTzIpW0NASF0oW0NIM10pT1xbQ0hdPUNcNVtDQEBIXShbQ0gzXSlDKD1PKU4oQzU9TylbQ0gyXVtPSF0=

>  <s_glide_docking_method>  (1) 
confgen

>  <s_i_glide_gridfile>  (1) 
gpcr_5ht2c_6bqh_protein_autoprepared_prepared

>  <s_lp_Force_Field>  (1) 
S-OPLS

>  <s_lp_Variant>  (1) 
DiffSBDD_41-3

>  <s_m_source_file>  (1) 
generated_GPCR_5HT2C_ligand_DiffSBDD_2026-06-23_prepared.sdf

>  <GenAI_Model>  (1) 
DiffSBDD

>  <Protein>  (1) 
GPCR_5HT2C

$$$$
DiffSBDD_2
     RDKit          3D

  0  0  0  0  0  0  0  0  0  0999 V3000
M  V30 BEGIN CTAB
M  V30 COUNTS 85 88 0 0 1
M  V30 BEGIN ATOM
M  V30 1 C 38.783600 29.904175 54.366263 0 CFG=1
M  V30 2 C 40.887557 35.349855 61.986698 0
M  V30 3 C 41.133282 29.549091 63.325627 0
M  V30 4 C 38.714648 27.560213 55.172783 0
M  V30 5 C 39.675408 35.062061 61.567616 0
M  V30 6 C 40.511053 28.451150 57.632606 0
M  V30 7 C 37.936208 33.279358 60.846629 0 CFG=2
M  V30 8 C 39.566850 29.551428 52.051259 0
M  V30 9 C 40.833580 28.975076 59.048978 0
M  V30 10 C 39.292901 31.370504 61.606472 0 CFG=1
M  V30 11 N 39.235946 33.748608 61.331407 0
M  V30 12 C 37.474297 30.508627 54.926825 0
M  V30 13 C 40.045140 36.301585 64.864191 0
M  V30 14 C 37.909582 31.742295 61.035909 0
M  V30 15 N 39.996451 30.126222 61.133348 0 CFG=2 CHG=1
M  V30 16 C 38.271776 36.768858 62.993137 0
M  V30 17 C 41.603011 35.846355 62.967785 0
M  V30 18 C 40.135301 32.602419 61.311841 0
M  V30 19 C 39.618143 29.567276 59.797302 0 CFG=2
M  V30 20 C 41.278425 35.497457 64.412353 0
M  V30 21 C 38.570320 36.149078 61.608316 0
M  V30 22 C 36.179546 33.424217 58.967761 0
M  V30 23 C 39.927514 30.979763 52.456602 0
M  V30 24 C 35.099955 34.137745 59.781625 0
M  V30 25 C 39.614590 29.379561 56.781231 0
M  V30 26 C 37.623566 33.740857 59.389074 0 CFG=2
M  V30 27 C 39.778972 31.022940 53.976706 0
M  V30 28 F 39.973669 36.713698 66.141120 0
M  V30 29 S 38.512947 27.336810 53.395493 0
M  V30 30 C 38.599912 33.223708 58.314056 0
M  V30 31 C 38.445082 28.570045 59.867064 0
M  V30 32 C 39.072804 36.634193 64.033717 0
M  V30 33 C 39.443449 28.894585 55.336141 0 CFG=2
M  V30 34 C 40.205414 29.095015 62.185939 0
M  V30 35 C 38.500879 29.116871 53.061650 0 CFG=1
M  V30 36 H 41.280912 28.731071 64.032008 0
M  V30 37 H 42.117894 29.838903 62.959385 0
M  V30 38 H 40.726469 30.382597 63.896815 0
M  V30 39 H 39.270919 26.723258 55.594364 0
M  V30 40 H 37.732301 27.586279 55.644781 0
M  V30 41 H 41.451691 28.270408 57.110276 0
M  V30 42 H 40.041635 27.470737 57.714846 0
M  V30 43 H 37.191126 33.696710 61.522458 0
M  V30 44 H 40.445277 28.914584 52.138573 0
M  V30 45 H 39.218379 29.487781 51.020165 0
M  V30 46 H 41.608426 29.736911 58.967792 0
M  V30 47 H 41.283753 28.160145 59.617028 0
M  V30 48 H 39.166584 31.333337 62.688190 0
M  V30 49 H 37.007004 31.175462 54.202316 0
M  V30 50 H 36.743012 29.740596 55.176098 0
M  V30 51 H 37.647733 31.102678 55.824999 0
M  V30 52 H 37.648720 31.261938 60.100692 0
M  V30 53 H 37.127217 31.459052 61.739772 0
M  V30 54 H 37.355555 37.335804 63.073296 0
M  V30 55 H 42.045074 36.823331 62.860247 0
M  V30 56 H 40.594195 32.537768 60.330028 0
M  V30 57 H 40.937029 32.691589 62.046201 0
M  V30 58 H 39.321194 30.409908 59.183852 0
M  V30 59 H 41.074176 34.430519 64.516438 0
M  V30 60 H 42.134342 35.737169 65.045360 0
M  V30 61 H 38.844752 36.961321 60.940010 0
M  V30 62 H 37.609077 35.793590 61.252059 0
M  V30 63 H 36.062744 33.738437 57.932453 0
M  V30 64 H 35.995478 32.350681 58.972817 0
M  V30 65 H 40.912537 31.284393 52.114856 0
M  V30 66 H 39.245151 31.704490 52.021663 0
M  V30 67 H 34.112012 33.952311 59.357534 0
M  V30 68 H 35.079419 33.805869 60.819427 0
M  V30 69 H 35.266518 35.214217 59.767369 0
M  V30 70 H 38.625225 29.484369 57.221190 0
M  V30 71 H 40.044391 30.380104 56.771583 0
M  V30 72 H 37.712134 34.824363 59.349371 0
M  V30 73 H 40.756431 30.868701 54.434940 0
M  V30 74 H 39.441171 32.005438 54.309346 0
M  V30 75 H 38.498646 32.154046 58.146977 0
M  V30 76 H 38.397711 33.704223 57.355944 0
M  V30 77 H 39.636491 33.443417 58.562369 0
M  V30 78 H 38.209009 28.123589 58.904393 0
M  V30 79 H 38.625184 27.738879 60.546322 0
M  V30 80 H 37.535050 29.078121 60.167549 0
M  V30 81 H 40.445118 28.725887 54.967765 0
M  V30 82 H 39.237748 28.793650 62.567656 0
M  V30 83 H 40.645000 28.196875 61.752887 0
M  V30 84 H 37.514949 29.337778 52.665184 0
M  V30 85 H 40.923375 30.475634 60.959851 0
M  V30 END ATOM
M  V30 BEGIN BOND
M  V30 1 2 5 2
M  V30 2 1 9 6
M  V30 3 1 11 5
M  V30 4 1 11 7
M  V30 5 1 1 12 CFG=1
M  V30 6 1 14 7
M  V30 7 1 14 10
M  V30 8 1 15 10
M  V30 9 2 17 2
M  V30 10 1 18 10
M  V30 11 1 18 11
M  V30 12 1 19 9
M  V30 13 1 19 15
M  V30 14 1 20 13
M  V30 15 1 20 17
M  V30 16 1 21 5
M  V30 17 1 21 16
M  V30 18 1 23 8
M  V30 19 1 24 22
M  V30 20 1 25 6
M  V30 21 1 26 7
M  V30 22 1 26 22
M  V30 23 1 27 1
M  V30 24 1 27 23
M  V30 25 1 28 13
M  V30 26 1 29 4
M  V30 27 1 30 26
M  V30 28 1 31 19
M  V30 29 2 32 13
M  V30 30 2 32 16
M  V30 31 1 33 1
M  V30 32 1 33 4
M  V30 33 1 33 25
M  V30 34 1 34 3
M  V30 35 1 34 15
M  V30 36 1 35 1
M  V30 37 1 35 8
M  V30 38 1 35 29
M  V30 39 1 36 3
M  V30 40 1 37 3
M  V30 41 1 38 3
M  V30 42 1 39 4
M  V30 43 1 40 4
M  V30 44 1 41 6
M  V30 45 1 42 6
M  V30 46 1 7 43 CFG=1
M  V30 47 1 44 8
M  V30 48 1 45 8
M  V30 49 1 46 9
M  V30 50 1 47 9
M  V30 51 1 10 48 CFG=1
M  V30 52 1 49 12
M  V30 53 1 50 12
M  V30 54 1 51 12
M  V30 55 1 52 14
M  V30 56 1 53 14
M  V30 57 1 54 16
M  V30 58 1 55 17
M  V30 59 1 56 18
M  V30 60 1 57 18
M  V30 61 1 19 58 CFG=3
M  V30 62 1 59 20
M  V30 63 1 60 20
M  V30 64 1 61 21
M  V30 65 1 62 21
M  V30 66 1 63 22
M  V30 67 1 64 22
M  V30 68 1 65 23
M  V30 69 1 66 23
M  V30 70 1 67 24
M  V30 71 1 68 24
M  V30 72 1 69 24
M  V30 73 1 70 25
M  V30 74 1 71 25
M  V30 75 1 26 72 CFG=1
M  V30 76 1 73 27
M  V30 77 1 74 27
M  V30 78 1 75 30
M  V30 79 1 76 30
M  V30 80 1 77 30
M  V30 81 1 78 31
M  V30 82 1 79 31
M  V30 83 1 80 31
M  V30 84 1 33 81 CFG=3
M  V30 85 1 82 34
M  V30 86 1 83 34
M  V30 87 1 35 84 CFG=3
M  V30 88 1 15 85 CFG=3
M  V30 END BOND
M  V30 END CTAB
M  END
>  <i_epik_Tot_Q>  (1) 
1

>  <i_epik_Tot_abs_Q>  (1) 
1

>  <i_i_glide_confnum>  (1) 
722

>  <i_i_glide_lignum>  (1) 
10

>  <i_i_glide_posenum>  (1) 
179

>  <i_i_glide_rotatable_bonds>  (1) 
10

>  <i_lp_mmshare_version>  (1) 
72125

>  <i_m_source_file_index>  (1) 
3

>  <i_f3d_flags>  (1) 
0

>  <num_sample>  (1) 
50

>  <b_lp_Chiralities_Consistent>  (1) 
1

>  <r_epik_Charging_Adjusted_Penalty>  (1) 
0.074245454784308482

>  <r_epik_Ionization_Penalty>  (1) 
0.013686655559845946

>  <r_epik_Ionization_Penalty_Charging>  (1) 
0.012771505238954846

>  <r_epik_Ionization_Penalty_Neutral>  (1) 
0.00091515032089109971

>  <r_epik_State_Penalty>  (1) 
0.06147394954535363

>  <r_glide_ring_energy>  (1) 
1.3016869551617385

>  <r_i_docking_score>  (1) 
-6.4926273770667216

>  <r_i_glide_ecoul>  (1) 
1.5467100139280758

>  <r_i_glide_eff_state_penalty>  (1) 
0.06147394954535363

>  <r_i_glide_einternal>  (1) 
22.571525882995527

>  <r_i_glide_emodel>  (1) 
-28.981409152112086

>  <r_i_glide_emodel_strain>  (1) 
4.6871923033467624

>  <r_i_glide_energy>  (1) 
-39.884417753270547

>  <r_i_glide_erotb>  (1) 
0.64899532480163924

>  <r_i_glide_esite>  (1) 
0

>  <r_i_glide_evdw>  (1) 
-41.431127767198625

>  <r_i_glide_gscore>  (1) 
-6.5541013266120753

>  <r_i_glide_gscore_strain>  (1) 
0.1717980758366906

>  <r_i_glide_hbond>  (1) 
0

>  <r_i_glide_ligand_efficiency>  (1) 
-0.18550363934476347

>  <r_i_glide_ligand_efficiency_ln>  (1) 
-1.4252758053670869

>  <r_i_glide_ligand_efficiency_sa>  (1) 
-0.60679470507803046

>  <r_i_glide_lipo>  (1) 
-4.497315991659196

>  <r_i_glide_metal>  (1) 
-0

>  <r_i_glide_rewards>  (1) 
-1.0380288493204883

>  <r_lp_Energy>  (1) 
18.681577999999998

>  <s_epik_cmdline>  (1) 
J2VwaWtfcHl0aG9uJywgJy1waHQnLCAnMS4wJywgJy1waCcsICc3LjQnLCAnLXRuJywgJzgnLCAnLW1hJywgJzUwMCcsICctaW1hZScsICc8aW5maWxlLm1hZT4nLCAnLW9tYWUnLCAnPG91dGZpbGUubWFlPic=

>  <s_epik_input>  (1) 
W0NIMl0xW0NIMl1bQ0gyXVtDQEhdKFtDQF0xMltDSDNdKVNbQ0gyXVtDQEBIXTJbQ0gyXVtDSDJdW0NIMl1bQ0BASF0oW0NIM10pTihbQ0gyXVtDSDNdKVtDQEhdKFtDSDJdMylbQ0gyXU4oW0NASF0zW0NAQEhdKFtDSDNdKVtDSDJdW0NIM10pQzQ9Qz1bQ0hdW0NIMl1DKEYpPUM9W0NIXVtDSDJdNA==

>  <s_glide_docking_method>  (1) 
confgen

>  <s_i_glide_gridfile>  (1) 
gpcr_5ht2c_6bqh_protein_autoprepared_prepared

>  <s_lp_Force_Field>  (1) 
S-OPLS

>  <s_lp_Variant>  (1) 
DiffSBDD_2-2

>  <s_m_source_file>  (1) 
generated_GPCR_5HT2C_ligand_DiffSBDD_2026-06-23_prepared.sdf

>  <GenAI_Model>  (1) 
DiffSBDD

>  <Protein>  (1) 
GPCR_5HT2C

$$$$
DiffSBDD_21
     RDKit          3D

  0  0  0  0  0  0  0  0  0  0999 V3000
M  V30 BEGIN CTAB
M  V30 COUNTS 51 54 0 0 1
M  V30 BEGIN ATOM
M  V30 1 C 36.892476 34.247906 60.286789 0
M  V30 2 C 38.260647 28.726474 57.657393 0
M  V30 3 N 39.375543 28.342106 55.459159 0
M  V30 4 C 38.897289 28.727916 54.110311 0 CFG=2
M  V30 5 C 39.336654 26.899359 55.790217 0 CFG=1
M  V30 6 C 38.960056 30.625008 56.302166 0
M  V30 7 C 36.341364 31.494770 60.454161 0
M  V30 8 C 38.764418 27.560855 53.111499 0 CFG=2
M  V30 9 C 37.806716 31.017208 58.432026 0
M  V30 10 C 37.730734 29.611732 58.615797 0
M  V30 11 C 39.952992 25.983583 54.691670 0
M  V30 12 C 37.473327 33.359250 59.363166 0
M  V30 13 C 37.188513 35.730889 60.191886 0
M  V30 14 C 35.758323 32.391294 61.367746 0
M  V30 15 F 38.361327 36.008792 60.757959 0
M  V30 16 C 36.036307 33.762999 61.288062 0
M  V30 17 C 39.898242 26.537776 53.262307 0
M  V30 18 C 38.870800 29.225809 56.477138 0
M  V30 19 O 40.045514 26.513811 56.956344 0
M  V30 20 C 39.790550 29.403323 51.912040 0
M  V30 21 C 37.209026 31.963220 59.429658 0
M  V30 22 C 39.020148 27.391978 50.567699 0
M  V30 23 C 38.763359 28.282792 51.768228 0 CFG=1
M  V30 24 C 38.445112 31.503961 57.263714 0
M  V30 25 C 39.645193 29.860547 53.360507 0
M  V30 26 H 38.170291 27.668321 57.825104 0
M  V30 27 H 37.876841 29.092791 54.248388 0
M  V30 28 H 38.286654 26.623256 55.905183 0
M  V30 29 H 39.426958 31.034520 55.431430 0
M  V30 30 H 36.106172 30.448909 60.528327 0
M  V30 31 H 37.813374 27.043171 53.257723 0
M  V30 32 H 37.259188 29.205649 59.492638 0
M  V30 33 H 40.993613 25.744644 54.907298 0
M  V30 34 H 39.432847 25.025528 54.723672 0
M  V30 35 H 38.123242 33.752105 58.602110 0
M  V30 36 H 37.240891 36.043261 59.147959 0
M  V30 37 H 36.433371 36.334896 60.689851 0
M  V30 38 H 35.088156 32.021561 62.129381 0
M  V30 39 H 35.585902 34.445941 61.993242 0
M  V30 40 H 39.891965 25.757369 52.512228 0
M  V30 41 H 40.845159 26.937748 52.967991 0
M  V30 42 H 40.935317 26.294809 56.716299 0
M  V30 43 H 40.799896 29.023638 51.747691 0
M  V30 44 H 39.627336 30.210210 51.197404 0
M  V30 45 H 40.044867 27.021039 50.531366 0
M  V30 46 H 38.845674 27.993658 49.684408 0
M  V30 47 H 38.343286 26.538044 50.567755 0
M  V30 48 H 37.778491 28.738506 51.652495 0
M  V30 49 H 38.519381 32.561068 57.086632 0
M  V30 50 H 39.031024 30.761489 53.365125 0
M  V30 51 H 40.604888 30.137551 53.797598 0
M  V30 END ATOM
M  V30 BEGIN BOND
M  V30 1 1 4 3
M  V30 2 1 5 3
M  V30 3 1 8 4
M  V30 4 2 10 2
M  V30 5 1 10 9
M  V30 6 1 11 5
M  V30 7 2 12 1
M  V30 8 1 13 1
M  V30 9 1 14 7
M  V30 10 1 15 13
M  V30 11 1 16 1
M  V30 12 2 16 14
M  V30 13 1 17 8
M  V30 14 1 17 11
M  V30 15 1 18 2
M  V30 16 1 18 3
M  V30 17 2 18 6
M  V30 18 1 19 5
M  V30 19 2 21 7
M  V30 20 1 21 9
M  V30 21 1 21 12
M  V30 22 1 23 8
M  V30 23 1 23 20
M  V30 24 1 23 22
M  V30 25 1 24 6
M  V30 26 2 24 9
M  V30 27 1 25 4
M  V30 28 1 25 20
M  V30 29 1 26 2
M  V30 30 1 4 27 CFG=1
M  V30 31 1 5 28 CFG=1
M  V30 32 1 29 6
M  V30 33 1 30 7
M  V30 34 1 8 31 CFG=1
M  V30 35 1 32 10
M  V30 36 1 33 11
M  V30 37 1 34 11
M  V30 38 1 35 12
M  V30 39 1 36 13
M  V30 40 1 37 13
M  V30 41 1 38 14
M  V30 42 1 39 16
M  V30 43 1 40 17
M  V30 44 1 41 17
M  V30 45 1 42 19
M  V30 46 1 43 20
M  V30 47 1 44 20
M  V30 48 1 45 22
M  V30 49 1 46 22
M  V30 50 1 47 22
M  V30 51 1 23 48 CFG=3
M  V30 52 1 49 24
M  V30 53 1 50 25
M  V30 54 1 51 25
M  V30 END BOND
M  V30 END CTAB
M  END
>  <i_epik_Tot_Q>  (1) 
0

>  <i_epik_Tot_abs_Q>  (1) 
0

>  <i_i_glide_confnum>  (1) 
2

>  <i_i_glide_lignum>  (1) 
48

>  <i_i_glide_posenum>  (1) 
293

>  <i_i_glide_rotatable_bonds>  (1) 
4

>  <i_lp_mmshare_version>  (1) 
72125

>  <i_m_source_file_index>  (1) 
22

>  <i_f3d_flags>  (1) 
0

>  <num_sample>  (1) 
50

>  <b_lp_Chiralities_Consistent>  (1) 
1

>  <r_epik_Charging_Adjusted_Penalty>  (1) 
0.0079594303855521683

>  <r_epik_Ionization_Penalty>  (1) 
0.0041828556717972551

>  <r_epik_Ionization_Penalty_Charging>  (1) 
0

>  <r_epik_Ionization_Penalty_Neutral>  (1) 
0.0041828556717972551

>  <r_epik_State_Penalty>  (1) 
0.0079594303855521683

>  <r_glide_ring_energy>  (1) 
0

>  <r_i_docking_score>  (1) 
-6.4560837751234716

>  <r_i_glide_ecoul>  (1) 
-0.49878427455596908

>  <r_i_glide_eff_state_penalty>  (1) 
0.0079594303855521683

>  <r_i_glide_einternal>  (1) 
0.25969432530110481

>  <r_i_glide_emodel>  (1) 
-40.889547921409189

>  <r_i_glide_emodel_strain>  (1) 
5.3056438655344778

>  <r_i_glide_energy>  (1) 
-32.178259057459961

>  <r_i_glide_erotb>  (1) 
0.3284693713347695

>  <r_i_glide_esite>  (1) 
0

>  <r_i_glide_evdw>  (1) 
-31.679474782903991

>  <r_i_glide_gscore>  (1) 
-6.4640432055090242

>  <r_i_glide_gscore_strain>  (1) 
0.32641096638361944

>  <r_i_glide_hbond>  (1) 
-0.033900329191205086

>  <r_i_glide_ligand_efficiency>  (1) 
-0.25824335100493889

>  <r_i_glide_ligand_efficiency_ln>  (1) 
-1.5302853279226727

>  <r_i_glide_ligand_efficiency_sa>  (1) 
-0.75510813911397268

>  <r_i_glide_lipo>  (1) 
-2.7553011811969923

>  <r_i_glide_metal>  (1) 
-0

>  <r_i_glide_rewards>  (1) 
-2.6709306525106209

>  <r_lp_Energy>  (1) 
58.552322999999994

>  <s_epik_Chemistry_Notes>  (1) 
This compound contains an acetal/aminal-like group ( X-CH(R)-Y where X, Y are N, S, or O) that may be acid/base labile, releasing an aldehyde.

>  <s_epik_cmdline>  (1) 
J2VwaWtfcHl0aG9uJywgJy1waHQnLCAnMS4wJywgJy1waCcsICc3LjQnLCAnLXRuJywgJzgnLCAnLW1hJywgJzUwMCcsICctaW1hZScsICc8aW5maWxlLm1hZT4nLCAnLW9tYWUnLCAnPG91dGZpbGUubWFlPic=

>  <s_epik_input>  (1) 
RltDSDJdYzFbY0hdYyhbY0hdW2NIXVtjSF0xKS1jMltjSF1bY0hdYyhbY0hdW2NIXTIpTjNbQ0BIXShbT0hdKVtDSDJdW0NIMl1bQ0BASF0oW0NAQEhdMzQpW0NASF0oW0NIM10pW0NIMl1bQ0gyXTQ=

>  <s_glide_docking_method>  (1) 
confgen

>  <s_i_glide_gridfile>  (1) 
gpcr_5ht2c_6bqh_protein_autoprepared_prepared

>  <s_lp_Force_Field>  (1) 
S-OPLS

>  <s_lp_Variant>  (1) 
DiffSBDD_21-1

>  <s_m_source_file>  (1) 
generated_GPCR_5HT2C_ligand_DiffSBDD_2026-06-23_prepared.sdf

>  <GenAI_Model>  (1) 
DiffSBDD

>  <Protein>  (1) 
GPCR_5HT2C

$$$$
DiffSBDD_17
     RDKit          3D

  0  0  0  0  0  0  0  0  0  0999 V3000
M  V30 BEGIN CTAB
M  V30 COUNTS 92 96 0 0 1
M  V30 BEGIN ATOM
M  V30 1 C 43.122602 31.969303 67.393299 0
M  V30 2 C 38.842727 32.523606 61.900161 0 CFG=2
M  V30 3 C 43.629271 30.458304 65.376229 0
M  V30 4 O 40.733491 29.019324 60.463141 0
M  V30 5 C 45.496999 31.648086 66.634812 0
M  V30 6 C 38.668138 28.601797 55.330091 0
M  V30 7 C 39.569984 26.338420 54.739046 0
M  V30 8 C 39.162169 27.717588 54.456006 0
M  V30 9 C 37.263436 34.867994 60.060748 0
M  V30 10 C 40.135983 36.061640 61.444572 0
M  V30 11 N 42.629061 28.195307 64.964986 0
M  V30 12 C 39.153328 35.105047 62.082683 0 CFG=2
M  V30 13 C 41.147983 30.181733 64.681344 0 CFG=1
M  V30 14 C 40.130628 31.681525 61.717682 0
M  V30 15 N 41.430321 27.331869 65.005303 0 CHG=1
M  V30 16 C 37.815751 30.614870 56.005397 0 CFG=2
M  V30 17 C 38.478477 28.415888 56.783160 0 CFG=2
M  V30 18 C 43.257041 26.197986 66.050875 0
M  V30 19 C 42.352051 29.561596 65.453523 0 CFG=2
M  V30 20 O 38.325297 29.855526 54.919223 0
M  V30 21 C 41.725602 26.247179 65.958515 0
M  V30 22 O 40.882381 31.503521 65.090548 0
M  V30 23 N 36.845110 31.163216 58.967727 0 CHG=1
M  V30 24 C 37.978305 27.121283 57.328817 0
M  V30 25 C 37.608244 31.867406 61.224319 0
M  V30 26 C 39.210903 25.555605 55.795582 0
M  V30 27 N 39.021558 33.879239 61.326193 0 CFG=2 CHG=1
M  V30 28 C 39.870018 29.064054 61.579007 0
M  V30 29 S 38.845543 32.040051 56.465282 0 CHG=-1
M  V30 30 C 40.113624 30.312237 62.458655 0 CFG=1
M  V30 31 C 38.323718 25.893770 56.915038 0
M  V30 32 N 41.337512 30.100768 63.236562 0
M  V30 33 C 37.824186 34.705052 61.457210 0 CFG=2
M  V30 34 C 37.802122 30.094377 58.600380 0
M  V30 35 C 36.563464 33.570306 59.579581 0
M  V30 36 C 37.584472 29.605289 57.154638 0 CFG=1
M  V30 37 C 37.418842 32.278351 59.735575 0 CFG=2
M  V30 38 N 43.718121 27.560688 65.722801 0 CHG=1
M  V30 39 C 44.114526 30.985843 66.747582 0
M  V30 40 H 42.950955 32.838222 66.756873 0
M  V30 41 H 42.159471 31.506485 67.605148 0
M  V30 42 H 43.510013 32.339927 68.343001 0
M  V30 43 H 38.651915 32.614024 62.967737 0
M  V30 44 H 44.450818 29.927082 64.893261 0
M  V30 45 H 43.461375 31.309511 64.715095 0
M  V30 46 H 41.512208 28.530268 60.689112 0
M  V30 47 H 45.462775 32.545699 66.017364 0
M  V30 48 H 45.873170 31.941584 67.615683 0
M  V30 49 H 46.232134 30.972526 66.199309 0
M  V30 50 H 40.196174 25.868588 53.993975 0
M  V30 51 H 39.278188 28.058543 53.437234 0
M  V30 52 H 38.045093 35.147969 59.367914 0
M  V30 53 H 36.553070 35.694526 60.058705 0
M  V30 54 H 40.031848 37.052275 61.887134 0
M  V30 55 H 41.159431 35.720845 61.604132 0
M  V30 56 H 39.963692 36.137615 60.373806 0
M  V30 57 H 39.319477 34.892031 63.135768 0
M  V30 58 H 40.253105 29.620370 64.952206 0
M  V30 59 H 40.967213 32.276613 62.088897 0
M  V30 60 H 40.334630 31.540523 60.656006 0
M  V30 61 H 40.628856 27.883210 65.282578 0
M  V30 62 H 36.858147 30.999536 55.659400 0
M  V30 63 H 39.461845 28.577761 57.227704 0
M  V30 64 H 43.645150 25.511420 65.296744 0
M  V30 65 H 43.614728 25.862208 67.025197 0
M  V30 66 H 42.054572 29.470436 66.500213 0
M  V30 67 H 41.286564 25.297877 65.648902 0
M  V30 68 H 41.299956 26.512877 66.927388 0
M  V30 69 H 41.587575 31.803589 65.646213 0
M  V30 70 H 36.028434 30.780902 59.418367 0
M  V30 71 H 37.310616 27.202746 58.167682 0
M  V30 72 H 37.654901 30.788919 61.330035 0
M  V30 73 H 36.705317 32.130322 61.776757 0
M  V30 74 H 39.587782 24.542870 55.780936 0
M  V30 75 H 38.849649 29.035280 61.208587 0
M  V30 76 H 39.987969 28.151585 62.165700 0
M  V30 77 H 39.268452 30.337194 63.149268 0
M  V30 78 H 37.908029 25.064437 57.468218 0
M  V30 79 H 42.042928 30.779369 62.967731 0
M  V30 80 H 37.087263 34.342105 62.167760 0
M  V30 81 H 38.838137 30.407836 58.729437 0
M  V30 82 H 37.651595 29.268944 59.294225 0
M  V30 83 H 36.292738 33.705934 58.529688 0
M  V30 84 H 35.617498 33.451701 60.110554 0
M  V30 85 H 36.534403 29.337774 57.079913 0
M  V30 86 H 38.384143 32.481103 59.270383 0
M  V30 87 H 44.544671 27.551660 65.137568 0
M  V30 88 H 44.226913 30.136194 67.421547 0
M  V30 89 H 41.305731 26.971598 64.067807 0
M  V30 90 H 43.869883 28.120004 66.552358 0
M  V30 91 H 36.521135 31.550116 58.073886 0
M  V30 92 H 39.383088 33.926094 60.382592 0
M  V30 END ATOM
M  V30 BEGIN BOND
M  V30 1 2 8 6
M  V30 2 1 8 7
M  V30 3 1 12 10
M  V30 4 1 14 2
M  V30 5 1 15 11
M  V30 6 1 17 6
M  V30 7 1 19 3
M  V30 8 1 19 11
M  V30 9 1 19 13
M  V30 10 1 20 6
M  V30 11 1 20 16
M  V30 12 1 21 15
M  V30 13 1 21 18
M  V30 14 1 22 13
M  V30 15 1 24 17
M  V30 16 1 25 2
M  V30 17 2 26 7
M  V30 18 1 27 2
M  V30 19 1 27 12
M  V30 20 1 28 4
M  V30 21 1 29 16
M  V30 22 1 30 14
M  V30 23 1 30 28
M  V30 24 2 31 24
M  V30 25 1 31 26
M  V30 26 1 32 13
M  V30 27 1 32 30
M  V30 28 1 33 9
M  V30 29 1 33 12
M  V30 30 1 33 27
M  V30 31 1 34 23
M  V30 32 1 35 9
M  V30 33 1 36 16
M  V30 34 1 36 17
M  V30 35 1 36 34
M  V30 36 1 37 23
M  V30 37 1 37 25
M  V30 38 1 37 35
M  V30 39 1 38 11
M  V30 40 1 38 18
M  V30 41 1 39 1
M  V30 42 1 39 3
M  V30 43 1 39 5
M  V30 44 1 40 1
M  V30 45 1 41 1
M  V30 46 1 42 1
M  V30 47 1 2 43 CFG=1
M  V30 48 1 44 3
M  V30 49 1 45 3
M  V30 50 1 46 4
M  V30 51 1 47 5
M  V30 52 1 48 5
M  V30 53 1 49 5
M  V30 54 1 50 7
M  V30 55 1 51 8
M  V30 56 1 52 9
M  V30 57 1 53 9
M  V30 58 1 54 10
M  V30 59 1 55 10
M  V30 60 1 56 10
M  V30 61 1 12 57 CFG=1
M  V30 62 1 13 58 CFG=3
M  V30 63 1 59 14
M  V30 64 1 60 14
M  V30 65 1 61 15
M  V30 66 1 16 62 CFG=3
M  V30 67 1 17 63 CFG=1
M  V30 68 1 64 18
M  V30 69 1 65 18
M  V30 70 1 19 66 CFG=1
M  V30 71 1 67 21
M  V30 72 1 68 21
M  V30 73 1 69 22
M  V30 74 1 70 23
M  V30 75 1 71 24
M  V30 76 1 72 25
M  V30 77 1 73 25
M  V30 78 1 74 26
M  V30 79 1 75 28
M  V30 80 1 76 28
M  V30 81 1 30 77 CFG=1
M  V30 82 1 78 31
M  V30 83 1 79 32
M  V30 84 1 33 80 CFG=1
M  V30 85 1 81 34
M  V30 86 1 82 34
M  V30 87 1 83 35
M  V30 88 1 84 35
M  V30 89 1 36 85 CFG=1
M  V30 90 1 37 86 CFG=3
M  V30 91 1 87 38
M  V30 92 1 88 39
M  V30 93 1 89 15
M  V30 94 1 90 38
M  V30 95 1 91 23
M  V30 96 1 27 92 CFG=3
M  V30 END BOND
M  V30 END CTAB
M  END
>  <i_epik_Tot_Q>  (1) 
3

>  <i_epik_Tot_abs_Q>  (1) 
5

>  <i_i_glide_confnum>  (1) 
1933

>  <i_i_glide_lignum>  (1) 
40

>  <i_i_glide_posenum>  (1) 
118

>  <i_i_glide_rotatable_bonds>  (1) 
14

>  <i_lp_mmshare_version>  (1) 
72125

>  <i_m_source_file_index>  (1) 
18

>  <i_f3d_flags>  (1) 
0

>  <num_sample>  (1) 
50

>  <b_lp_Chiralities_Consistent>  (1) 
1

>  <r_epik_Charging_Adjusted_Penalty>  (1) 
1.6860912736117832

>  <r_epik_Ionization_Penalty>  (1) 
0.9299661573909731

>  <r_epik_Ionization_Penalty_Charging>  (1) 
0.33573944846101578

>  <r_epik_Ionization_Penalty_Neutral>  (1) 
0.59422670892995733

>  <r_epik_State_Penalty>  (1) 
1.3503518251507676

>  <r_glide_ring_energy>  (1) 
0.0045750838620950583

>  <r_i_docking_score>  (1) 
-6.455915420688914

>  <r_i_glide_ecoul>  (1) 
-8.2065831229827282

>  <r_i_glide_eff_state_penalty>  (1) 
1.3503518251507676

>  <r_i_glide_einternal>  (1) 
19.723798686925466

>  <r_i_glide_emodel>  (1) 
-64.473722504780284

>  <r_i_glide_emodel_strain>  (1) 
1.5866908236293398

>  <r_i_glide_energy>  (1) 
-50.947568035282636

>  <r_i_glide_erotb>  (1) 
0.56462826385561427

>  <r_i_glide_esite>  (1) 
-0.10210613759942129

>  <r_i_glide_evdw>  (1) 
-42.740984912299908

>  <r_i_glide_gscore>  (1) 
-7.806267245839682

>  <r_i_glide_gscore_strain>  (1) 
0

>  <r_i_glide_hbond>  (1) 
-0.29244271234527225

>  <r_i_glide_ligand_efficiency>  (1) 
-0.16553629283817728

>  <r_i_glide_ligand_efficiency_ln>  (1) 
-1.3843315282530395

>  <r_i_glide_ligand_efficiency_sa>  (1) 
-0.56136857050697098

>  <r_i_glide_lipo>  (1) 
-3.7083099456881983

>  <r_i_glide_metal>  (1) 
-0

>  <r_i_glide_rewards>  (1) 
-0.90000000000000002

>  <r_lp_Energy>  (1) 
61.524414999999998

>  <s_epik_Chemistry_Notes>  (1) 
This compound contains an acetal/aminal-like group ( X-CH(R)-Y where X, Y are N, S, or O) that may be acid/base labile, releasing an aldehyde.

>  <s_epik_cmdline>  (1) 
J2VwaWtfcHl0aG9uJywgJy1waHQnLCAnMS4wJywgJy1waCcsICc3LjQnLCAnLXRuJywgJzgnLCAnLW1hJywgJzUwMCcsICctaW1hZScsICc8aW5maWxlLm1hZT4nLCAnLW9tYWUnLCAnPG91dGZpbGUubWFlPic=

>  <s_epik_input>  (1) 
W05IXTFbQ0gyXVtDSDJdW05IXU4xW0NAQEhdKFtDSDJdW0NIXShbQ0gzXSlbQ0gzXSlbQ0BASF0oW09IXSlbTkhdW0NASF0oW0NIMl1bT0hdKVtDSDJdW0NAQEhdMltDSDJdW0NASF0oW0NIMl1bQ0gyXVtDQEBIXShOMjMpW0NIXTNbQ0gzXSlbTkhdW0NIMl1bQ0BASF0oW0NASF0oTzQpW1NIXSlbQ0BIXShDND01KVtDSF09W0NIXVtDSF09W0NIXVtDSF01

>  <s_glide_docking_method>  (1) 
confgen

>  <s_i_glide_gridfile>  (1) 
gpcr_5ht2c_6bqh_protein_autoprepared_prepared

>  <s_lp_Force_Field>  (1) 
S-OPLS

>  <s_lp_Variant>  (1) 
DiffSBDD_17-7

>  <s_m_source_file>  (1) 
generated_GPCR_5HT2C_ligand_DiffSBDD_2026-06-23_prepared.sdf

>  <GenAI_Model>  (1) 
DiffSBDD

>  <Protein>  (1) 
GPCR_5HT2C

$$$$
DiffSBDD_48
     RDKit          3D

  0  0  0  0  0  0  0  0  0  0999 V3000
M  V30 BEGIN CTAB
M  V30 COUNTS 78 78 0 0 1
M  V30 BEGIN ATOM
M  V30 1 O 41.244739 30.987269 61.759381 0
M  V30 2 C 35.000491 32.347902 59.700833 0
M  V30 3 C 34.865766 33.156497 60.984063 0
M  V30 4 O 37.600064 25.382526 56.094127 0
M  V30 5 C 38.777719 29.804231 58.815658 0
M  V30 6 C 41.118476 31.800696 62.700944 0
M  V30 7 C 39.153906 26.945039 53.003426 0
M  V30 8 C 41.990863 33.063628 62.652589 0
M  V30 9 C 37.877632 29.922401 60.046068 0
M  V30 10 C 36.042459 34.105316 61.228717 0
M  V30 11 N 37.225566 31.230103 60.047505 0
M  V30 12 C 41.846200 35.298076 63.937291 0
M  V30 13 C 38.021488 29.957047 57.484444 0
M  V30 14 C 38.548622 25.940953 55.260607 0
M  V30 15 C 37.947896 25.003480 57.421365 0
M  V30 16 C 41.175310 34.360073 62.921576 0 CFG=1
M  V30 17 C 40.814676 35.107653 61.615665 0
M  V30 18 C 39.948203 26.070661 55.876472 0
M  V30 19 O 38.162006 28.752728 51.775915 0
M  V30 20 C 37.422822 33.542294 60.835597 0 CFG=2
M  V30 21 C 39.782164 34.362923 60.760095 0
M  V30 22 O 40.339601 31.681851 63.671616 0 CHG=-1
M  V30 23 C 38.953783 29.803156 56.286186 0
M  V30 24 O 40.845311 36.135937 64.473595 0
M  V30 25 C 38.788824 28.407316 52.770560 0
M  V30 26 C 38.225206 29.712311 54.934418 0
M  V30 27 C 37.616440 32.050051 61.190285 0
M  V30 28 C 35.780852 31.048304 59.915162 0
M  V30 29 C 38.206424 26.320314 54.012857 0
M  V30 30 N 38.476157 34.370305 61.446033 0 CHG=1
M  V30 31 C 39.247910 29.424820 53.821896 0 CFG=2
M  V30 32 C 39.854416 30.695644 53.199595 0
M  V30 33 H 35.445419 32.958269 58.919230 0
M  V30 34 H 34.006974 32.086793 59.338425 0
M  V30 35 H 33.953256 33.735525 60.920723 0
M  V30 36 H 34.739491 32.486699 61.832189 0
M  V30 37 H 39.579365 30.534603 58.883496 0
M  V30 38 H 39.258326 28.826451 58.839404 0
M  V30 39 H 39.051401 26.425847 52.052854 0
M  V30 40 H 40.199448 26.856912 53.280830 0
M  V30 41 H 42.496679 33.116955 61.685925 0
M  V30 42 H 42.773098 32.936332 63.398480 0
M  V30 43 H 38.460240 29.758070 60.954682 0
M  V30 44 H 37.145322 29.118903 60.005183 0
M  V30 45 H 36.015723 34.415683 62.271361 0
M  V30 46 H 35.876782 35.007005 60.640303 0
M  V30 47 H 42.617806 35.910815 63.472411 0
M  V30 48 H 42.307631 34.746183 64.757362 0
M  V30 49 H 37.222837 29.216853 57.432504 0
M  V30 50 H 37.544893 30.935730 57.427395 0
M  V30 51 H 37.062646 24.584955 57.898631 0
M  V30 52 H 38.717898 24.231619 57.445340 0
M  V30 53 H 38.256121 25.858120 58.023763 0
M  V30 54 H 40.237733 34.081130 63.403697 0
M  V30 55 H 40.424603 36.098599 61.851740 0
M  V30 56 H 41.719480 35.294003 61.035687 0
M  V30 57 H 40.670734 26.546965 55.220640 0
M  V30 58 H 39.928937 26.674222 56.782825 0
M  V30 59 H 40.355320 25.091030 56.126447 0
M  V30 60 H 37.529931 33.665318 59.755107 0
M  V30 61 H 39.682250 34.843785 59.788652 0
M  V30 62 H 40.113258 33.344899 60.563331 0
M  V30 63 H 39.660390 30.634188 56.268744 0
M  V30 64 H 39.549835 28.903777 56.432017 0
M  V30 65 H 41.245130 36.981519 64.689590 0
M  V30 66 H 37.476285 28.920652 54.983329 0
M  V30 67 H 37.677717 30.634397 54.733095 0
M  V30 68 H 38.675938 31.869755 61.363227 0
M  V30 69 H 37.107928 31.758407 62.109916 0
M  V30 70 H 35.592943 30.405513 59.052280 0
M  V30 71 H 35.391546 30.538460 60.794079 0
M  V30 72 H 37.186997 26.182218 53.682726 0
M  V30 73 H 38.613126 34.047019 62.393468 0
M  V30 74 H 40.044878 28.903987 54.329356 0
M  V30 75 H 40.403617 30.480373 52.281761 0
M  V30 76 H 39.087238 31.433373 52.973673 0
M  V30 77 H 40.552196 31.165567 53.891992 0
M  V30 78 H 38.148058 35.324166 61.478285 0
M  V30 END ATOM
M  V30 BEGIN BOND
M  V30 1 1 3 2
M  V30 2 2 6 1
M  V30 3 1 8 6
M  V30 4 1 9 5
M  V30 5 1 10 3
M  V30 6 1 11 9
M  V30 7 1 13 5
M  V30 8 1 14 4
M  V30 9 1 15 4
M  V30 10 1 16 8
M  V30 11 1 16 12
M  V30 12 1 17 16
M  V30 13 1 18 14
M  V30 14 1 20 10
M  V30 15 1 21 17
M  V30 16 1 22 6
M  V30 17 1 23 13
M  V30 18 1 24 12
M  V30 19 1 25 7
M  V30 20 2 25 19
M  V30 21 1 26 23
M  V30 22 1 27 11
M  V30 23 1 27 20
M  V30 24 1 28 2
M  V30 25 1 28 11
M  V30 26 1 29 7
M  V30 27 2 29 14
M  V30 28 1 30 20
M  V30 29 1 30 21
M  V30 30 1 31 25
M  V30 31 1 31 26
M  V30 32 1 32 31
M  V30 33 1 33 2
M  V30 34 1 34 2
M  V30 35 1 35 3
M  V30 36 1 36 3
M  V30 37 1 37 5
M  V30 38 1 38 5
M  V30 39 1 39 7
M  V30 40 1 40 7
M  V30 41 1 41 8
M  V30 42 1 42 8
M  V30 43 1 43 9
M  V30 44 1 44 9
M  V30 45 1 45 10
M  V30 46 1 46 10
M  V30 47 1 47 12
M  V30 48 1 48 12
M  V30 49 1 49 13
M  V30 50 1 50 13
M  V30 51 1 51 15
M  V30 52 1 52 15
M  V30 53 1 53 15
M  V30 54 1 16 54 CFG=1
M  V30 55 1 55 17
M  V30 56 1 56 17
M  V30 57 1 57 18
M  V30 58 1 58 18
M  V30 59 1 59 18
M  V30 60 1 20 60 CFG=3
M  V30 61 1 61 21
M  V30 62 1 62 21
M  V30 63 1 63 23
M  V30 64 1 64 23
M  V30 65 1 65 24
M  V30 66 1 66 26
M  V30 67 1 67 26
M  V30 68 1 68 27
M  V30 69 1 69 27
M  V30 70 1 70 28
M  V30 71 1 71 28
M  V30 72 1 72 29
M  V30 73 1 73 30
M  V30 74 1 31 74 CFG=1
M  V30 75 1 75 32
M  V30 76 1 76 32
M  V30 77 1 77 32
M  V30 78 1 78 30
M  V30 END BOND
M  V30 END CTAB
M  END
>  <i_epik_Tot_Q>  (1) 
0

>  <i_epik_Tot_abs_Q>  (1) 
2

>  <i_i_glide_confnum>  (1) 
5949

>  <i_i_glide_lignum>  (1) 
100

>  <i_i_glide_posenum>  (1) 
174

>  <i_i_glide_rotatable_bonds>  (1) 
18

>  <i_lp_mmshare_version>  (1) 
72125

>  <i_m_source_file_index>  (1) 
49

>  <i_f3d_flags>  (1) 
0

>  <num_sample>  (1) 
50

>  <b_lp_Chiralities_Consistent>  (1) 
1

>  <r_epik_Charging_Adjusted_Penalty>  (1) 
0.04911624183534407

>  <r_epik_Ionization_Penalty>  (1) 
0.025385742012929795

>  <r_epik_Ionization_Penalty_Charging>  (1) 
0.0065475108590220404

>  <r_epik_Ionization_Penalty_Neutral>  (1) 
0.018838231153907755

>  <r_epik_State_Penalty>  (1) 
0.042568730976322029

>  <r_glide_ring_energy>  (1) 
0

>  <r_i_docking_score>  (1) 
-6.4535801481077621

>  <r_i_glide_ecoul>  (1) 
-6.5860901501679541

>  <r_i_glide_eff_state_penalty>  (1) 
0.042568730976322029

>  <r_i_glide_einternal>  (1) 
16.700302551858016

>  <r_i_glide_emodel>  (1) 
-57.104436264752948

>  <r_i_glide_emodel_strain>  (1) 
0.79367705756909857

>  <r_i_glide_energy>  (1) 
-45.662815515126255

>  <r_i_glide_erotb>  (1) 
1.5544609794247006

>  <r_i_glide_esite>  (1) 
0

>  <r_i_glide_evdw>  (1) 
-39.0767253649583

>  <r_i_glide_gscore>  (1) 
-6.4961488790840844

>  <r_i_glide_gscore_strain>  (1) 
0

>  <r_i_glide_hbond>  (1) 
-0.45928083177055073

>  <r_i_glide_ligand_efficiency>  (1) 
-0.20167437962836757

>  <r_i_glide_ligand_efficiency_ln>  (1) 
-1.4451325131120687

>  <r_i_glide_ligand_efficiency_sa>  (1) 
-0.64027624475420952

>  <r_i_glide_lipo>  (1) 
-3.5219011275342291

>  <r_i_glide_metal>  (1) 
-0

>  <r_i_glide_rewards>  (1) 
-1.127678108430898

>  <r_lp_Energy>  (1) 
22.905211999999999

>  <r_lp_tautomer_probability>  (1) 
0.99990000499974985

>  <s_epik_cmdline>  (1) 
J2VwaWtfcHl0aG9uJywgJy1waHQnLCAnMS4wJywgJy1waCcsICc3LjQnLCAnLXRuJywgJzgnLCAnLW1hJywgJzUwMCcsICctaW1hZScsICc8aW5maWxlLm1hZT4nLCAnLW9tYWUnLCAnPG91dGZpbGUubWFlPic=

>  <s_epik_input>  (1) 
Tz1DKFtPSF0pW0NIMl1bQ0BASF0oW0NIMl1bT0hdKVtDSDJdW0NIMl1bTkhdW0NASF0oW0NIMl1bQ0gyXVtDSDJdW0NIMl0xKVtDSDJdTjFbQ0gyXVtDSDJdW0NIMl1bQ0gyXVtDSDJdW0NASF0oW0NIM10pQyg9TylbQ0gyXVxbQ0hdPUMoW0NIM10pXE9bQ0gzXQ==

>  <s_glide_docking_method>  (1) 
confgen

>  <s_i_glide_gridfile>  (1) 
gpcr_5ht2c_6bqh_protein_autoprepared_prepared

>  <s_lp_Force_Field>  (1) 
S-OPLS

>  <s_lp_Variant>  (1) 
DiffSBDD_48-2

>  <s_m_source_file>  (1) 
generated_GPCR_5HT2C_ligand_DiffSBDD_2026-06-23_prepared.sdf

>  <GenAI_Model>  (1) 
DiffSBDD

>  <Protein>  (1) 
GPCR_5HT2C

$$$$
DiffSBDD_17
     RDKit          3D

  0  0  0  0  0  0  0  0  0  0999 V3000
M  V30 BEGIN CTAB
M  V30 COUNTS 92 96 0 0 1
M  V30 BEGIN ATOM
M  V30 1 C 41.306684 33.414589 66.403933 0
M  V30 2 C 36.952526 31.403264 60.024959 0 CFG=2
M  V30 3 C 42.290595 32.211629 64.302159 0
M  V30 4 O 38.845249 28.218185 60.139178 0
M  V30 5 C 41.685301 34.762007 64.302767 0
M  V30 6 C 39.237291 27.695788 53.562999 0
M  V30 7 C 39.297280 27.963899 51.067216 0
M  V30 8 C 39.240856 27.209010 52.319103 0
M  V30 9 C 37.639325 33.772369 58.261396 0
M  V30 10 C 36.964846 34.352949 61.327343 0
M  V30 11 N 41.817119 29.757172 64.291171 0
M  V30 12 C 35.951396 33.918875 60.307834 0 CFG=2
M  V30 13 C 40.015305 31.291617 63.436526 0 CFG=1
M  V30 14 C 38.301074 31.580031 60.815352 0
M  V30 15 N 40.845327 28.657057 64.192534 0 CHG=1
M  V30 16 C 39.496878 27.534231 55.843412 0 CFG=2
M  V30 17 C 39.248114 29.113435 53.980877 0 CFG=2
M  V30 18 C 42.383219 28.173788 65.960538 0
M  V30 19 C 41.199718 31.095247 64.432629 0 CFG=2
M  V30 20 O 39.215772 26.841004 54.632945 0
M  V30 21 C 41.383460 27.539634 64.981955 0
M  V30 22 O 39.653124 32.640792 63.367826 0
M  V30 23 N 38.247693 30.374003 56.604529 0 CHG=1
M  V30 24 C 39.897588 30.208071 53.191426 0
M  V30 25 C 37.087897 30.679801 58.692935 0
M  V30 26 C 39.643983 29.265236 50.871894 0
M  V30 27 N 35.974980 32.536311 59.801254 0 CFG=1 CHG=1
M  V30 28 C 39.692657 29.329580 60.289711 0
M  V30 29 S 38.196333 27.440730 57.110840 0 CHG=-1
M  V30 30 C 39.124736 30.333251 61.326691 0 CFG=1
M  V30 31 C 40.045096 30.268618 51.861002 0
M  V30 32 N 40.295358 30.772914 62.105913 0
M  V30 33 C 36.256768 33.632208 58.865550 0 CFG=2
M  V30 34 C 39.651432 30.126670 56.312751 0
M  V30 35 C 37.949556 32.733845 57.190729 0
M  V30 36 C 39.856833 28.959432 55.378164 0 CFG=1
M  V30 37 C 38.105526 31.299143 57.724475 0 CFG=2
M  V30 38 N 42.777923 29.463981 65.362924 0 CHG=1
M  V30 39 C 42.135292 33.534930 65.117064 0
M  V30 40 H 40.248743 33.292491 66.172094 0
M  V30 41 H 41.631979 32.577893 67.022472 0
M  V30 42 H 41.402077 34.317501 67.008249 0
M  V30 43 H 36.367779 30.734466 60.657800 0
M  V30 44 H 43.245224 31.805018 64.621336 0
M  V30 45 H 42.451656 32.439036 63.247035 0
M  V30 46 H 38.918238 27.866354 59.254376 0
M  V30 47 H 40.610008 34.808322 64.141677 0
M  V30 48 H 41.940918 35.681832 64.832648 0
M  V30 49 H 42.173328 34.808486 63.332562 0
M  V30 50 H 39.073823 27.402295 50.172843 0
M  V30 51 H 39.204184 26.138206 52.228611 0
M  V30 52 H 38.428494 33.809027 59.001116 0
M  V30 53 H 37.645124 34.748385 57.780073 0
M  V30 54 H 36.758194 35.376134 61.642489 0
M  V30 55 H 36.826705 33.702907 62.167654 0
M  V30 56 H 37.995547 34.304435 60.989540 0
M  V30 57 H 34.919942 34.135149 60.579163 0
M  V30 58 H 39.164816 30.746711 63.841573 0
M  V30 59 H 37.999398 32.063638 61.729868 0
M  V30 60 H 38.987331 32.258493 60.318239 0
M  V30 61 H 39.953537 28.963665 64.567701 0
M  V30 62 H 40.378531 27.069607 56.285019 0
M  V30 63 H 38.199460 29.395362 54.074707 0
M  V30 64 H 43.249884 27.536167 66.140537 0
M  V30 65 H 41.903181 28.366990 66.920927 0
M  V30 66 H 40.783728 31.124409 65.439932 0
M  V30 67 H 41.897987 26.865647 64.295362 0
M  V30 68 H 40.594642 26.976316 65.484977 0
M  V30 69 H 40.266032 33.144046 63.887501 0
M  V30 70 H 37.881997 29.458787 56.872828 0
M  V30 71 H 40.248432 31.047135 53.769339 0
M  V30 72 H 37.378156 29.657232 58.892703 0
M  V30 73 H 36.113698 30.536165 58.235580 0
M  V30 74 H 39.653648 29.594715 49.842330 0
M  V30 75 H 40.646713 28.911574 60.614971 0
M  V30 76 H 39.908881 29.795000 59.341241 0
M  V30 77 H 38.473052 29.755962 61.984500 0
M  V30 78 H 40.500948 31.168229 51.471473 0
M  V30 79 H 40.794128 31.489927 61.588210 0
M  V30 80 H 35.430665 33.743481 58.168485 0
M  V30 81 H 40.091302 31.044060 55.923561 0
M  V30 82 H 40.180167 29.871997 57.227542 0
M  V30 83 H 38.891982 33.026644 56.725735 0
M  V30 84 H 37.245052 32.788403 56.371283 0
M  V30 85 H 40.939334 28.934470 55.367756 0
M  V30 86 H 39.037913 31.347624 58.272374 0
M  V30 87 H 43.687936 29.397000 64.926019 0
M  V30 88 H 43.147964 33.788726 65.436134 0
M  V30 89 H 40.737034 28.418379 63.215323 0
M  V30 90 H 42.754009 30.220562 66.034391 0
M  V30 91 H 37.738791 30.706467 55.798367 0
M  V30 92 H 35.058153 32.186804 59.556095 0
M  V30 END ATOM
M  V30 BEGIN BOND
M  V30 1 2 8 6
M  V30 2 1 8 7
M  V30 3 1 12 10
M  V30 4 1 14 2
M  V30 5 1 15 11
M  V30 6 1 17 6
M  V30 7 1 19 3
M  V30 8 1 19 11
M  V30 9 1 19 13
M  V30 10 1 20 6
M  V30 11 1 20 16
M  V30 12 1 21 15
M  V30 13 1 21 18
M  V30 14 1 22 13
M  V30 15 1 24 17
M  V30 16 1 25 2
M  V30 17 2 26 7
M  V30 18 1 27 2
M  V30 19 1 27 12
M  V30 20 1 28 4
M  V30 21 1 29 16
M  V30 22 1 30 14
M  V30 23 1 30 28
M  V30 24 2 31 24
M  V30 25 1 31 26
M  V30 26 1 32 13
M  V30 27 1 32 30
M  V30 28 1 33 9
M  V30 29 1 33 12
M  V30 30 1 33 27
M  V30 31 1 34 23
M  V30 32 1 35 9
M  V30 33 1 36 16
M  V30 34 1 36 17
M  V30 35 1 36 34
M  V30 36 1 37 23
M  V30 37 1 37 25
M  V30 38 1 37 35
M  V30 39 1 38 11
M  V30 40 1 38 18
M  V30 41 1 39 1
M  V30 42 1 39 3
M  V30 43 1 39 5
M  V30 44 1 40 1
M  V30 45 1 41 1
M  V30 46 1 42 1
M  V30 47 1 2 43 CFG=1
M  V30 48 1 44 3
M  V30 49 1 45 3
M  V30 50 1 46 4
M  V30 51 1 47 5
M  V30 52 1 48 5
M  V30 53 1 49 5
M  V30 54 1 50 7
M  V30 55 1 51 8
M  V30 56 1 52 9
M  V30 57 1 53 9
M  V30 58 1 54 10
M  V30 59 1 55 10
M  V30 60 1 56 10
M  V30 61 1 12 57 CFG=3
M  V30 62 1 13 58 CFG=1
M  V30 63 1 59 14
M  V30 64 1 60 14
M  V30 65 1 61 15
M  V30 66 1 16 62 CFG=1
M  V30 67 1 17 63 CFG=1
M  V30 68 1 64 18
M  V30 69 1 65 18
M  V30 70 1 19 66 CFG=1
M  V30 71 1 67 21
M  V30 72 1 68 21
M  V30 73 1 69 22
M  V30 74 1 70 23
M  V30 75 1 71 24
M  V30 76 1 72 25
M  V30 77 1 73 25
M  V30 78 1 74 26
M  V30 79 1 75 28
M  V30 80 1 76 28
M  V30 81 1 30 77 CFG=1
M  V30 82 1 78 31
M  V30 83 1 79 32
M  V30 84 1 33 80 CFG=3
M  V30 85 1 81 34
M  V30 86 1 82 34
M  V30 87 1 83 35
M  V30 88 1 84 35
M  V30 89 1 36 85 CFG=3
M  V30 90 1 37 86 CFG=1
M  V30 91 1 87 38
M  V30 92 1 88 39
M  V30 93 1 89 15
M  V30 94 1 90 38
M  V30 95 1 91 23
M  V30 96 1 27 92 CFG=3
M  V30 END BOND
M  V30 END CTAB
M  END
>  <i_epik_Tot_Q>  (1) 
3

>  <i_epik_Tot_abs_Q>  (1) 
5

>  <i_i_glide_confnum>  (1) 
2418

>  <i_i_glide_lignum>  (1) 
41

>  <i_i_glide_posenum>  (1) 
45

>  <i_i_glide_rotatable_bonds>  (1) 
14

>  <i_lp_mmshare_version>  (1) 
72125

>  <i_m_source_file_index>  (1) 
18

>  <i_f3d_flags>  (1) 
0

>  <num_sample>  (1) 
50

>  <b_lp_Chiralities_Consistent>  (1) 
1

>  <r_epik_Charging_Adjusted_Penalty>  (1) 
1.6860912736117832

>  <r_epik_Ionization_Penalty>  (1) 
0.9299661573909731

>  <r_epik_Ionization_Penalty_Charging>  (1) 
0.33573944846101578

>  <r_epik_Ionization_Penalty_Neutral>  (1) 
0.59422670892995733

>  <r_epik_State_Penalty>  (1) 
1.3503518251507676

>  <r_glide_ring_energy>  (1) 
0.0045750838620950583

>  <r_i_docking_score>  (1) 
-6.4457549076966707

>  <r_i_glide_ecoul>  (1) 
-9.6756808126862932

>  <r_i_glide_eff_state_penalty>  (1) 
1.3503518251507676

>  <r_i_glide_einternal>  (1) 
16.726510205266059

>  <r_i_glide_emodel>  (1) 
-68.082808095819274

>  <r_i_glide_emodel_strain>  (1) 
2.471785877107834

>  <r_i_glide_energy>  (1) 
-48.678974463473061

>  <r_i_glide_erotb>  (1) 
0.56462826385561427

>  <r_i_glide_esite>  (1) 
-0.18920333416073101

>  <r_i_glide_evdw>  (1) 
-39.003293650786766

>  <r_i_glide_gscore>  (1) 
-7.7961067328474378

>  <r_i_glide_gscore_strain>  (1) 
0

>  <r_i_glide_hbond>  (1) 
0

>  <r_i_glide_ligand_efficiency>  (1) 
-0.16527576686401721

>  <r_i_glide_ligand_efficiency_ln>  (1) 
-1.3821528258441895

>  <r_i_glide_ligand_efficiency_sa>  (1) 
-0.56048507184219687

>  <r_i_glide_lipo>  (1) 
-3.7878677230597564

>  <r_i_glide_metal>  (1) 
-0

>  <r_i_glide_rewards>  (1) 
-0.98214713504028328

>  <r_lp_Energy>  (1) 
57.587399999999995

>  <s_epik_Chemistry_Notes>  (1) 
This compound contains an acetal/aminal-like group ( X-CH(R)-Y where X, Y are N, S, or O) that may be acid/base labile, releasing an aldehyde.

>  <s_epik_cmdline>  (1) 
J2VwaWtfcHl0aG9uJywgJy1waHQnLCAnMS4wJywgJy1waCcsICc3LjQnLCAnLXRuJywgJzgnLCAnLW1hJywgJzUwMCcsICctaW1hZScsICc8aW5maWxlLm1hZT4nLCAnLW9tYWUnLCAnPG91dGZpbGUubWFlPic=

>  <s_epik_input>  (1) 
W05IXTFbQ0gyXVtDSDJdW05IXU4xW0NAQEhdKFtDSDJdW0NIXShbQ0gzXSlbQ0gzXSlbQ0BASF0oW09IXSlbTkhdW0NASF0oW0NIMl1bT0hdKVtDSDJdW0NAQEhdMltDSDJdW0NASF0oW0NIMl1bQ0gyXVtDQEBIXShOMjMpW0NIXTNbQ0gzXSlbTkhdW0NIMl1bQ0BASF0oW0NASF0oTzQpW1NIXSlbQ0BIXShDND01KVtDSF09W0NIXVtDSF09W0NIXVtDSF01

>  <s_glide_docking_method>  (1) 
confgen

>  <s_i_glide_gridfile>  (1) 
gpcr_5ht2c_6bqh_protein_autoprepared_prepared

>  <s_lp_Force_Field>  (1) 
S-OPLS

>  <s_lp_Variant>  (1) 
DiffSBDD_17-8

>  <s_m_source_file>  (1) 
generated_GPCR_5HT2C_ligand_DiffSBDD_2026-06-23_prepared.sdf

>  <GenAI_Model>  (1) 
DiffSBDD

>  <Protein>  (1) 
GPCR_5HT2C

$$$$
DiffSBDD_3
     RDKit          3D

  0  0  0  0  0  0  0  0  0  0999 V3000
M  V30 BEGIN CTAB
M  V30 COUNTS 55 57 0 0 1
M  V30 BEGIN ATOM
M  V30 1 C 38.045138 28.029595 56.437439 0
M  V30 2 C 38.925687 31.496965 61.182603 0
M  V30 3 C 40.519587 29.330230 51.028251 0 CFG=2
M  V30 4 C 38.601103 33.422708 59.176195 0
M  V30 5 C 38.259072 33.853085 60.601415 0 CFG=1
M  V30 6 N 39.245137 28.929610 52.964600 0
M  V30 7 C 39.232254 30.492489 62.285867 0
M  V30 8 C 38.655299 30.440470 54.794567 0
M  V30 9 C 38.436757 29.677319 59.440322 0 CFG=2
M  V30 10 C 39.015092 32.956700 61.590822 0 CFG=2
M  V30 11 O 37.703581 27.045694 57.096913 0
M  V30 12 C 39.907699 30.013300 52.252396 0
M  V30 13 C 38.806093 29.033941 54.290218 0
M  V30 14 C 38.479198 30.500249 56.280217 0
M  V30 15 C 38.580987 31.120040 59.922995 0
M  V30 16 N 37.980291 29.300933 56.954648 0
M  V30 17 C 38.525511 27.942630 55.041412 0
M  V30 18 O 40.373469 33.335156 61.715108 0
M  V30 19 C 38.477940 35.357672 60.836546 0
M  V30 20 O 39.705720 29.141401 59.116927 0
M  V30 21 C 40.657732 30.255433 49.813041 0
M  V30 22 C 37.403466 29.527357 58.291681 0
M  V30 23 C 39.245017 27.679446 52.223326 0
M  V30 24 O 38.307060 32.049992 58.940916 0
M  V30 25 C 39.618620 28.108119 50.802743 0
M  V30 26 H 41.502215 28.966125 51.331537 0
M  V30 27 H 38.030322 34.013066 58.458278 0
M  V30 28 H 39.652663 33.602850 58.961663 0
M  V30 29 H 37.193377 33.661902 60.739780 0
M  V30 30 H 40.171066 30.751281 62.775261 0
M  V30 31 H 38.445138 30.517489 63.039232 0
M  V30 32 H 39.335843 29.466053 61.938999 0
M  V30 33 H 39.486331 31.089906 54.524467 0
M  V30 34 H 38.045151 29.087399 60.262095 0
M  V30 35 H 38.548057 33.066620 62.568460 0
M  V30 36 H 39.245137 30.817763 51.971241 0
M  V30 37 H 40.694324 30.458520 52.858491 0
M  V30 38 H 37.832718 31.348930 56.509668 0
M  V30 39 H 39.443898 30.735922 56.730607 0
M  V30 40 H 38.644401 26.962276 54.607013 0
M  V30 41 H 40.749186 32.863952 62.442891 0
M  V30 42 H 39.512554 35.646467 60.648708 0
M  V30 43 H 37.845558 35.951352 60.176172 0
M  V30 44 H 38.234733 35.633991 61.862542 0
M  V30 45 H 39.951866 29.465021 58.264390 0
M  V30 46 H 39.686039 30.634861 49.493671 0
M  V30 47 H 41.287595 31.113782 50.045756 0
M  V30 48 H 41.107834 29.737754 48.967759 0
M  V30 49 H 36.723294 28.716107 58.548288 0
M  V30 50 H 36.724500 30.379660 58.253510 0
M  V30 51 H 39.994201 27.003490 52.637452 0
M  V30 52 H 38.272101 27.186532 52.249477 0
M  V30 53 H 40.096820 27.312544 50.232606 0
M  V30 54 H 38.721338 28.408079 50.261870 0
M  V30 55 H 37.766360 30.856211 54.317547 0
M  V30 END ATOM
M  V30 BEGIN BOND
M  V30 1 1 5 4
M  V30 2 1 7 2
M  V30 3 1 10 2
M  V30 4 1 10 5
M  V30 5 2 11 1
M  V30 6 1 12 3
M  V30 7 1 12 6
M  V30 8 1 13 6
M  V30 9 1 13 8
M  V30 10 1 14 8
M  V30 11 2 15 2
M  V30 12 1 15 9
M  V30 13 1 16 1
M  V30 14 1 16 14
M  V30 15 1 17 1
M  V30 16 2 17 13
M  V30 17 1 18 10
M  V30 18 1 19 5
M  V30 19 1 20 9
M  V30 20 1 21 3
M  V30 21 1 22 9
M  V30 22 1 22 16
M  V30 23 1 23 6
M  V30 24 1 24 4
M  V30 25 1 24 15
M  V30 26 1 25 3
M  V30 27 1 25 23
M  V30 28 1 3 26 CFG=1
M  V30 29 1 27 4
M  V30 30 1 28 4
M  V30 31 1 5 29 CFG=1
M  V30 32 1 30 7
M  V30 33 1 31 7
M  V30 34 1 32 7
M  V30 35 1 33 8
M  V30 36 1 9 34 CFG=1
M  V30 37 1 10 35 CFG=1
M  V30 38 1 36 12
M  V30 39 1 37 12
M  V30 40 1 38 14
M  V30 41 1 39 14
M  V30 42 1 40 17
M  V30 43 1 41 18
M  V30 44 1 42 19
M  V30 45 1 43 19
M  V30 46 1 44 19
M  V30 47 1 45 20
M  V30 48 1 46 21
M  V30 49 1 47 21
M  V30 50 1 48 21
M  V30 51 1 49 22
M  V30 52 1 50 22
M  V30 53 1 51 23
M  V30 54 1 52 23
M  V30 55 1 53 25
M  V30 56 1 54 25
M  V30 57 1 55 8
M  V30 END BOND
M  V30 END CTAB
M  END
>  <i_epik_Tot_Q>  (1) 
0

>  <i_epik_Tot_abs_Q>  (1) 
0

>  <i_i_glide_confnum>  (1) 
23

>  <i_i_glide_lignum>  (1) 
11

>  <i_i_glide_posenum>  (1) 
149

>  <i_i_glide_rotatable_bonds>  (1) 
6

>  <i_lp_mmshare_version>  (1) 
72125

>  <i_m_source_file_index>  (1) 
4

>  <i_f3d_flags>  (1) 
0

>  <num_sample>  (1) 
50

>  <b_lp_Chiralities_Consistent>  (1) 
1

>  <r_epik_Charging_Adjusted_Penalty>  (1) 
0.0014021342352173091

>  <r_epik_Ionization_Penalty>  (1) 
0.00010460091952456132

>  <r_epik_Ionization_Penalty_Charging>  (1) 
0

>  <r_epik_Ionization_Penalty_Neutral>  (1) 
0.00010460091952456132

>  <r_epik_State_Penalty>  (1) 
0.0014021342352173091

>  <r_glide_ring_energy>  (1) 
0

>  <r_i_docking_score>  (1) 
-6.4406161476204398

>  <r_i_glide_ecoul>  (1) 
-1.1663230325524192

>  <r_i_glide_eff_state_penalty>  (1) 
0.0014021342352173091

>  <r_i_glide_einternal>  (1) 
9.9621130487380647

>  <r_i_glide_emodel>  (1) 
-45.59318754942592

>  <r_i_glide_emodel_strain>  (1) 
0.90873682664378208

>  <r_i_glide_energy>  (1) 
-37.086538324040156

>  <r_i_glide_erotb>  (1) 
0.62076481070925627

>  <r_i_glide_esite>  (1) 
-0.027691925978246192

>  <r_i_glide_evdw>  (1) 
-35.920215291487736

>  <r_i_glide_gscore>  (1) 
-6.4420182818556571

>  <r_i_glide_gscore_strain>  (1) 
0

>  <r_i_glide_hbond>  (1) 
0

>  <r_i_glide_ligand_efficiency>  (1) 
-0.2576246459048176

>  <r_i_glide_ligand_efficiency_ln>  (1) 
-1.5266190366770624

>  <r_i_glide_ligand_efficiency_sa>  (1) 
-0.75329903442649526

>  <r_i_glide_lipo>  (1) 
-2.9280566267812289

>  <r_i_glide_metal>  (1) 
-0

>  <r_i_glide_rewards>  (1) 
-2.1360753203481879

>  <r_lp_Energy>  (1) 
-2.7583759999999997

>  <s_epik_cmdline>  (1) 
J2VwaWtfcHl0aG9uJywgJy1waHQnLCAnMS4wJywgJy1waCcsICc3LjQnLCAnLXRuJywgJzgnLCAnLW1hJywgJzUwMCcsICctaW1hZScsICc8aW5maWxlLm1hZT4nLCAnLW9tYWUnLCAnPG91dGZpbGUubWFlPic=

>  <s_epik_input>  (1) 
W0NIM11bQ0BIXTFbQ0gyXU4oW0NIMl1bQ0gyXTEpQyhbQ0gyXTIpPVtDSF1bQ0gyXU4oQzI9TylbQ0gyXVtDQEBIXShbT0hdKUMoPUMzW0NIM10pT1tDSDJdW0NASF0oW0NIM10pW0NAQEhdM1tPSF0=

>  <s_glide_docking_method>  (1) 
confgen

>  <s_i_glide_gridfile>  (1) 
gpcr_5ht2c_6bqh_protein_autoprepared_prepared

>  <s_lp_Force_Field>  (1) 
S-OPLS

>  <s_lp_Variant>  (1) 
DiffSBDD_3-1

>  <s_m_source_file>  (1) 
generated_GPCR_5HT2C_ligand_DiffSBDD_2026-06-23_prepared.sdf

>  <GenAI_Model>  (1) 
DiffSBDD

>  <Protein>  (1) 
GPCR_5HT2C

$$$$
DiffSBDD_19
     RDKit          3D

  0  0  0  0  0  0  0  0  0  0999 V3000
M  V30 BEGIN CTAB
M  V30 COUNTS 69 71 0 0 1
M  V30 BEGIN ATOM
M  V30 1 O 39.645114 25.337661 55.185238 0
M  V30 2 C 39.553807 30.173535 53.678014 0
M  V30 3 C 40.411759 32.087059 62.086166 0
M  V30 4 C 39.712568 29.568946 51.326201 0
M  V30 5 C 39.270106 28.820399 54.016045 0
M  V30 6 C 39.665738 31.236090 54.744679 0
M  V30 7 C 37.434389 24.329526 57.767784 0
M  V30 8 C 39.443587 28.896602 59.259330 0
M  V30 9 C 40.227266 30.710980 62.702530 0 CFG=2
M  V30 10 N 41.222145 29.746225 62.209428 0
M  V30 11 F 41.169462 30.648821 49.851332 0
M  V30 12 C 39.170023 27.855796 52.982752 0
M  V30 13 F 40.112523 28.937925 49.081526 0
M  V30 14 C 41.400021 28.620352 63.113493 0
M  V30 15 C 38.053194 29.514462 59.462659 0 CFG=2
M  V30 16 C 37.652689 30.527733 57.190191 0
M  V30 17 C 37.567497 26.514625 55.564564 0
M  V30 18 O 38.545363 24.978661 57.169267 0
M  V30 19 O 41.392246 32.809642 62.241235 0
M  V30 20 C 39.774364 30.530934 52.340367 0
M  V30 21 C 38.398827 25.233623 55.810727 0 CFG=2
M  V30 22 C 39.230840 28.383003 55.486878 0
M  V30 23 N 38.366714 31.387011 61.251192 0
M  V30 24 C 40.019458 29.975876 49.898585 0
M  V30 25 C 39.386541 28.231726 51.640817 0
M  V30 26 C 37.381835 29.321112 58.093478 0 CFG=1
M  V30 27 O 42.096408 29.114123 64.236658 0
M  V30 28 C 39.191599 27.657667 58.395721 0
M  V30 29 C 37.925660 27.958435 57.561215 0 CFG=2
M  V30 30 N 39.340605 32.358487 61.356665 0
M  V30 31 N 38.044004 27.808712 56.091954 0
M  V30 32 C 38.801278 30.356154 62.225697 0
M  V30 33 N 38.039551 30.937813 59.894473 0 CHG=1
M  V30 34 H 40.147831 25.978069 55.664152 0
M  V30 35 H 40.045076 32.137750 54.302617 0
M  V30 36 H 38.681646 31.522696 55.094113 0
M  V30 37 H 40.346914 30.991103 55.555430 0
M  V30 38 H 37.645142 24.145677 58.817983 0
M  V30 39 H 36.530019 24.937256 57.719475 0
M  V30 40 H 37.239923 23.361500 57.305312 0
M  V30 41 H 40.095530 29.588169 58.723748 0
M  V30 42 H 39.940097 28.615351 60.183963 0
M  V30 43 H 40.270490 30.818220 63.787458 0
M  V30 44 H 40.931219 29.371703 61.318443 0
M  V30 45 H 38.975263 26.824152 53.219091 0
M  V30 46 H 42.009441 27.858901 62.626815 0
M  V30 47 H 40.447636 28.169432 63.396140 0
M  V30 48 H 37.477212 28.937382 60.167748 0
M  V30 49 H 38.717172 30.722752 57.129081 0
M  V30 50 H 37.226607 30.378017 56.198496 0
M  V30 51 H 37.245151 31.455633 57.575724 0
M  V30 52 H 36.580423 26.308412 55.973790 0
M  V30 53 H 37.377028 26.597973 54.497388 0
M  V30 54 H 40.017203 31.552857 52.091089 0
M  V30 55 H 37.912536 24.377986 55.337523 0
M  V30 56 H 39.589355 29.182621 56.114397 0
M  V30 57 H 40.053040 27.679788 55.586061 0
M  V30 58 H 39.245354 30.643612 49.522419 0
M  V30 59 H 39.335368 27.487203 50.859343 0
M  V30 60 H 36.299244 29.254209 58.216226 0
M  V30 61 H 41.612902 28.888274 65.017266 0
M  V30 62 H 40.069871 27.400030 57.805342 0
M  V30 63 H 38.997152 26.799631 59.039158 0
M  V30 64 H 37.185180 27.231481 57.892560 0
M  V30 65 H 39.199712 33.250752 60.903534 0
M  V30 66 H 38.739687 29.337615 61.861552 0
M  V30 67 H 38.124198 30.406368 63.078374 0
M  V30 68 H 37.101297 31.281373 59.732117 0
M  V30 69 H 38.654716 31.451691 59.281190 0
M  V30 END ATOM
M  V30 BEGIN BOND
M  V30 1 2 5 2
M  V30 2 1 6 2
M  V30 3 1 9 3
M  V30 4 1 10 9
M  V30 5 1 12 5
M  V30 6 1 14 10
M  V30 7 1 15 8
M  V30 8 1 18 7
M  V30 9 2 19 3
M  V30 10 1 20 2
M  V30 11 2 20 4
M  V30 12 1 21 1
M  V30 13 1 21 17
M  V30 14 1 21 18
M  V30 15 1 22 5
M  V30 16 1 24 4
M  V30 17 1 24 11
M  V30 18 1 24 13
M  V30 19 1 25 4
M  V30 20 2 25 12
M  V30 21 1 26 15
M  V30 22 1 26 16
M  V30 23 1 27 14
M  V30 24 1 28 8
M  V30 25 1 29 26
M  V30 26 1 29 28
M  V30 27 1 30 3
M  V30 28 1 30 23
M  V30 29 1 31 17
M  V30 30 1 31 22
M  V30 31 1 31 29
M  V30 32 1 32 9
M  V30 33 1 32 23
M  V30 34 1 33 15
M  V30 35 1 33 23
M  V30 36 1 34 1
M  V30 37 1 35 6
M  V30 38 1 36 6
M  V30 39 1 37 6
M  V30 40 1 38 7
M  V30 41 1 39 7
M  V30 42 1 40 7
M  V30 43 1 41 8
M  V30 44 1 42 8
M  V30 45 1 9 43 CFG=1
M  V30 46 1 44 10
M  V30 47 1 45 12
M  V30 48 1 46 14
M  V30 49 1 47 14
M  V30 50 1 15 48 CFG=1
M  V30 51 1 49 16
M  V30 52 1 50 16
M  V30 53 1 51 16
M  V30 54 1 52 17
M  V30 55 1 53 17
M  V30 56 1 54 20
M  V30 57 1 21 55 CFG=3
M  V30 58 1 56 22
M  V30 59 1 57 22
M  V30 60 1 58 24
M  V30 61 1 59 25
M  V30 62 1 26 60 CFG=1
M  V30 63 1 61 27
M  V30 64 1 62 28
M  V30 65 1 63 28
M  V30 66 1 29 64 CFG=1
M  V30 67 1 65 30
M  V30 68 1 66 32
M  V30 69 1 67 32
M  V30 70 1 68 33
M  V30 71 1 69 33
M  V30 END BOND
M  V30 END CTAB
M  END
>  <i_epik_Tot_Q>  (1) 
1

>  <i_epik_Tot_abs_Q>  (1) 
1

>  <i_i_glide_confnum>  (1) 
2453

>  <i_i_glide_lignum>  (1) 
46

>  <i_i_glide_posenum>  (1) 
39

>  <i_i_glide_rotatable_bonds>  (1) 
13

>  <i_lp_mmshare_version>  (1) 
72125

>  <i_m_source_file_index>  (1) 
20

>  <i_f3d_flags>  (1) 
0

>  <num_sample>  (1) 
50

>  <b_lp_Chiralities_Consistent>  (1) 
1

>  <r_epik_Charging_Adjusted_Penalty>  (1) 
1.2715343408434996

>  <r_epik_Ionization_Penalty>  (1) 
0.95026790690721108

>  <r_epik_Ionization_Penalty_Charging>  (1) 
0.030575006456493324

>  <r_epik_Ionization_Penalty_Neutral>  (1) 
0.91969290045071772

>  <r_epik_State_Penalty>  (1) 
1.2409593343870062

>  <r_glide_ring_energy>  (1) 
0

>  <r_i_docking_score>  (1) 
-6.4366358457144877

>  <r_i_glide_ecoul>  (1) 
-6.2785018271346855

>  <r_i_glide_eff_state_penalty>  (1) 
1.2409593343870062

>  <r_i_glide_einternal>  (1) 
57.741694079398215

>  <r_i_glide_emodel>  (1) 
-47.173727684639864

>  <r_i_glide_emodel_strain>  (1) 
0.71854995100413532

>  <r_i_glide_energy>  (1) 
-43.634375538612169

>  <r_i_glide_erotb>  (1) 
0.81494899861877068

>  <r_i_glide_esite>  (1) 
-0.0098311594244682027

>  <r_i_glide_evdw>  (1) 
-37.355873711477486

>  <r_i_glide_gscore>  (1) 
-7.6775951801014939

>  <r_i_glide_gscore_strain>  (1) 
0

>  <r_i_glide_hbond>  (1) 
-0.32000000000000001

>  <r_i_glide_ligand_efficiency>  (1) 
-0.19504957108225721

>  <r_i_glide_ligand_efficiency_ln>  (1) 
-1.4314744849701218

>  <r_i_glide_ligand_efficiency_sa>  (1) 
-0.62562819529730118

>  <r_i_glide_lipo>  (1) 
-3.3571856181377089

>  <r_i_glide_metal>  (1) 
-0

>  <r_i_glide_rewards>  (1) 
-1.9959584415140101

>  <r_lp_Energy>  (1) 
47.540732999999996

>  <s_epik_Chemistry_Notes>  (1) 
This compound contains an acetal/aminal-like group ( X-CH(R)-Y where X, Y are N, S, or O) that may be acid/base labile, releasing an aldehyde.

>  <s_epik_cmdline>  (1) 
J2VwaWtfcHl0aG9uJywgJy1waHQnLCAnMS4wJywgJy1waCcsICc3LjQnLCAnLXRuJywgJzgnLCAnLW1hJywgJzUwMCcsICctaW1hZScsICc8aW5maWxlLm1hZT4nLCAnLW9tYWUnLCAnPG91dGZpbGUubWFlPic=

>  <s_epik_input>  (1) 
RltDSF0oRiljKFtjSF0xKVtjSF1bY0hdYyhjMVtDSDNdKVtDSDJdTihbQ0gyXVtDQEBIXShbT0hdKU9bQ0gzXSlbQ0BIXShbQ0BASF0yW0NIM10pW0NIMl1bQ0gyXVtDQEhdMltOSF1OKFtOSF0zKVtDSDJdW0NASF0oQzM9TylbTkhdW0NIMl1bT0hd

>  <s_glide_docking_method>  (1) 
confgen

>  <s_i_glide_gridfile>  (1) 
gpcr_5ht2c_6bqh_protein_autoprepared_prepared

>  <s_lp_Force_Field>  (1) 
S-OPLS

>  <s_lp_Variant>  (1) 
DiffSBDD_19-5

>  <s_m_source_file>  (1) 
generated_GPCR_5HT2C_ligand_DiffSBDD_2026-06-23_prepared.sdf

>  <GenAI_Model>  (1) 
DiffSBDD

>  <Protein>  (1) 
GPCR_5HT2C

$$$$
DiffSBDD_19
     RDKit          3D

  0  0  0  0  0  0  0  0  0  0999 V3000
M  V30 BEGIN CTAB
M  V30 COUNTS 69 71 0 0 1
M  V30 BEGIN ATOM
M  V30 1 O 38.039489 24.644352 57.810154 0
M  V30 2 C 39.633998 29.654479 54.356372 0
M  V30 3 C 36.064433 33.384548 61.280266 0
M  V30 4 C 39.303163 28.819893 52.083756 0
M  V30 5 C 39.522868 28.312460 54.855391 0
M  V30 6 C 39.925667 30.831552 55.275414 0
M  V30 7 C 36.323232 24.192023 55.644889 0
M  V30 8 C 36.829312 30.419502 59.282993 0
M  V30 9 C 36.912743 34.575292 60.857536 0 CFG=2
M  V30 10 N 36.311507 35.360999 59.767711 0
M  V30 11 F 39.245151 30.359049 50.277254 0
M  V30 12 C 39.246567 27.259348 53.950976 0
M  V30 13 F 40.380099 28.536283 50.072474 0
M  V30 14 C 36.978239 36.629855 59.516909 0
M  V30 15 C 38.296780 30.897544 59.284414 0 CFG=2
M  V30 16 C 39.354160 28.620438 59.896779 0
M  V30 17 C 37.605799 26.798336 56.709498 0
M  V30 18 O 37.647243 24.679056 55.511078 0
M  V30 19 O 34.845087 33.337907 61.367209 0
M  V30 20 C 39.523502 29.889710 52.972745 0
M  V30 21 C 38.182353 25.351444 56.606648 0 CFG=2
M  V30 22 C 39.780471 27.981031 56.326678 0
M  V30 23 N 38.189965 32.536246 61.152716 0
M  V30 24 C 39.278960 29.064098 50.595298 0
M  V30 25 C 39.140177 27.514613 52.575795 0
M  V30 26 C 39.059023 29.669008 58.792925 0 CFG=1
M  V30 27 O 36.740121 37.462465 60.631568 0
M  V30 28 C 36.702236 29.359762 58.180074 0
M  V30 29 C 38.133925 29.134663 57.679224 0 CFG=2
M  V30 30 N 36.878461 32.370264 61.482606 0
M  V30 31 N 38.595326 27.798371 57.203376 0 CFG=1 CHG=1
M  V30 32 C 38.213543 33.837241 60.452276 0
M  V30 33 N 38.861687 31.446590 60.534938 0
M  V30 34 H 37.122206 24.456064 57.935947 0
M  V30 35 H 40.837930 31.326049 54.942041 0
M  V30 36 H 39.118703 31.558838 55.181023 0
M  V30 37 H 40.045119 30.628692 56.327049 0
M  V30 38 H 35.909156 24.010483 54.654395 0
M  V30 39 H 36.325158 23.244836 56.183482 0
M  V30 40 H 35.673340 24.892502 56.167817 0
M  V30 41 H 36.572471 29.965653 60.237444 0
M  V30 42 H 36.136670 31.244581 59.112654 0
M  V30 43 H 37.066122 35.186254 61.748595 0
M  V30 44 H 36.249357 34.824705 58.911544 0
M  V30 45 H 39.165140 26.247370 54.308123 0
M  V30 46 H 36.552191 37.085143 58.623816 0
M  V30 47 H 38.045166 36.515134 59.367743 0
M  V30 48 H 38.387625 31.665471 58.514607 0
M  V30 49 H 38.445011 28.212875 60.335565 0
M  V30 50 H 39.935548 27.781114 59.513266 0
M  V30 51 H 39.947440 29.045598 60.706503 0
M  V30 52 H 36.741904 26.752255 57.368343 0
M  V30 53 H 37.246433 27.097295 55.725321 0
M  V30 54 H 39.643760 30.893584 52.589751 0
M  V30 55 H 39.248012 25.335212 56.398686 0
M  V30 56 H 40.510372 28.657637 56.760171 0
M  V30 57 H 40.361963 27.062404 56.331218 0
M  V30 58 H 38.445073 28.538532 50.143111 0
M  V30 59 H 38.966513 26.698978 51.890006 0
M  V30 60 H 40.019895 29.990577 58.401494 0
M  V30 61 H 36.381704 38.285835 60.326316 0
M  V30 62 H 36.187757 28.500896 58.567610 0
M  V30 63 H 36.080290 29.737875 57.369716 0
M  V30 64 H 38.164415 29.812345 56.831980 0
M  V30 65 H 36.545771 31.445388 61.689794 0
M  V30 66 H 38.237860 33.677996 59.373873 0
M  V30 67 H 39.109054 34.395727 60.726415 0
M  V30 68 H 38.987725 30.706919 61.223769 0
M  V30 69 H 38.949227 27.365904 58.045013 0
M  V30 END ATOM
M  V30 BEGIN BOND
M  V30 1 2 5 2
M  V30 2 1 6 2
M  V30 3 1 9 3
M  V30 4 1 10 9
M  V30 5 1 12 5
M  V30 6 1 14 10
M  V30 7 1 15 8
M  V30 8 1 18 7
M  V30 9 2 19 3
M  V30 10 1 20 2
M  V30 11 2 20 4
M  V30 12 1 21 1
M  V30 13 1 21 17
M  V30 14 1 21 18
M  V30 15 1 22 5
M  V30 16 1 24 4
M  V30 17 1 24 11
M  V30 18 1 24 13
M  V30 19 1 25 4
M  V30 20 2 25 12
M  V30 21 1 26 15
M  V30 22 1 26 16
M  V30 23 1 27 14
M  V30 24 1 28 8
M  V30 25 1 29 26
M  V30 26 1 29 28
M  V30 27 1 30 3
M  V30 28 1 30 23
M  V30 29 1 31 17
M  V30 30 1 31 22
M  V30 31 1 31 29
M  V30 32 1 32 9
M  V30 33 1 32 23
M  V30 34 1 33 15
M  V30 35 1 33 23
M  V30 36 1 34 1
M  V30 37 1 35 6
M  V30 38 1 36 6
M  V30 39 1 37 6
M  V30 40 1 38 7
M  V30 41 1 39 7
M  V30 42 1 40 7
M  V30 43 1 41 8
M  V30 44 1 42 8
M  V30 45 1 9 43 CFG=1
M  V30 46 1 44 10
M  V30 47 1 45 12
M  V30 48 1 46 14
M  V30 49 1 47 14
M  V30 50 1 15 48 CFG=3
M  V30 51 1 49 16
M  V30 52 1 50 16
M  V30 53 1 51 16
M  V30 54 1 52 17
M  V30 55 1 53 17
M  V30 56 1 54 20
M  V30 57 1 21 55 CFG=3
M  V30 58 1 56 22
M  V30 59 1 57 22
M  V30 60 1 58 24
M  V30 61 1 59 25
M  V30 62 1 26 60 CFG=3
M  V30 63 1 61 27
M  V30 64 1 62 28
M  V30 65 1 63 28
M  V30 66 1 29 64 CFG=3
M  V30 67 1 65 30
M  V30 68 1 66 32
M  V30 69 1 67 32
M  V30 70 1 68 33
M  V30 71 1 31 69 CFG=1
M  V30 END BOND
M  V30 END CTAB
M  END
>  <i_epik_Tot_Q>  (1) 
1

>  <i_epik_Tot_abs_Q>  (1) 
1

>  <i_i_glide_confnum>  (1) 
1725

>  <i_i_glide_lignum>  (1) 
43

>  <i_i_glide_posenum>  (1) 
339

>  <i_i_glide_rotatable_bonds>  (1) 
13

>  <i_lp_mmshare_version>  (1) 
72125

>  <i_m_source_file_index>  (1) 
20

>  <i_f3d_flags>  (1) 
0

>  <num_sample>  (1) 
50

>  <b_lp_Chiralities_Consistent>  (1) 
1

>  <r_epik_Charging_Adjusted_Penalty>  (1) 
0.46831319053283144

>  <r_epik_Ionization_Penalty>  (1) 
0.71387485365223857

>  <r_epik_Ionization_Penalty_Charging>  (1) 
0.049252262366849507

>  <r_epik_Ionization_Penalty_Neutral>  (1) 
0.66462259128538903

>  <r_epik_State_Penalty>  (1) 
0.41906092816598195

>  <r_glide_ring_energy>  (1) 
0

>  <r_i_docking_score>  (1) 
-6.4359106792921574

>  <r_i_glide_ecoul>  (1) 
-1.4021899101112028

>  <r_i_glide_eff_state_penalty>  (1) 
0.41906092816598195

>  <r_i_glide_einternal>  (1) 
16.755755439997358

>  <r_i_glide_emodel>  (1) 
-53.930745289639958

>  <r_i_glide_emodel_strain>  (1) 
2.5757744358360384

>  <r_i_glide_energy>  (1) 
-41.016228848841443

>  <r_i_glide_erotb>  (1) 
0.81494899861877068

>  <r_i_glide_esite>  (1) 
-0.012365378815819719

>  <r_i_glide_evdw>  (1) 
-39.614038938730239

>  <r_i_glide_gscore>  (1) 
-6.8549716074581397

>  <r_i_glide_gscore_strain>  (1) 
0

>  <r_i_glide_hbond>  (1) 
-0.27285998784945958

>  <r_i_glide_ligand_efficiency>  (1) 
-0.19502759634218658

>  <r_i_glide_ligand_efficiency_ln>  (1) 
-1.4313132117125065

>  <r_i_glide_ligand_efficiency_sa>  (1) 
-0.62555771056413201

>  <r_i_glide_lipo>  (1) 
-3.0765783261948978

>  <r_i_glide_metal>  (1) 
-0

>  <r_i_glide_rewards>  (1) 
-2.1170864797635414

>  <r_lp_Energy>  (1) 
34.505482000000001

>  <s_epik_Chemistry_Notes>  (1) 
This compound contains an acetal/aminal-like group ( X-CH(R)-Y where X, Y are N, S, or O) that may be acid/base labile, releasing an aldehyde.

>  <s_epik_cmdline>  (1) 
J2VwaWtfcHl0aG9uJywgJy1waHQnLCAnMS4wJywgJy1waCcsICc3LjQnLCAnLXRuJywgJzgnLCAnLW1hJywgJzUwMCcsICctaW1hZScsICc8aW5maWxlLm1hZT4nLCAnLW9tYWUnLCAnPG91dGZpbGUubWFlPic=

>  <s_epik_input>  (1) 
RltDSF0oRiljKFtjSF0xKVtjSF1bY0hdYyhjMVtDSDNdKVtDSDJdTihbQ0gyXVtDQEBIXShbT0hdKU9bQ0gzXSlbQ0BIXShbQ0BASF0yW0NIM10pW0NIMl1bQ0gyXVtDQEhdMltOSF1OKFtOSF0zKVtDSDJdW0NASF0oQzM9TylbTkhdW0NIMl1bT0hd

>  <s_glide_docking_method>  (1) 
confgen

>  <s_i_glide_gridfile>  (1) 
gpcr_5ht2c_6bqh_protein_autoprepared_prepared

>  <s_lp_Force_Field>  (1) 
S-OPLS

>  <s_lp_Variant>  (1) 
DiffSBDD_19-2

>  <s_m_source_file>  (1) 
generated_GPCR_5HT2C_ligand_DiffSBDD_2026-06-23_prepared.sdf

>  <GenAI_Model>  (1) 
DiffSBDD

>  <Protein>  (1) 
GPCR_5HT2C

$$$$
DiffSBDD_19
     RDKit          3D

  0  0  0  0  0  0  0  0  0  0999 V3000
M  V30 BEGIN CTAB
M  V30 COUNTS 69 71 0 0 1
M  V30 BEGIN ATOM
M  V30 1 O 38.045440 24.937815 58.167461 0
M  V30 2 C 39.644830 29.828601 54.432156 0
M  V30 3 C 40.640765 33.593954 62.166173 0
M  V30 4 C 39.316329 28.901928 52.190206 0
M  V30 5 C 39.515857 28.514024 54.986601 0
M  V30 6 C 39.925432 31.042876 55.310613 0
M  V30 7 C 36.491719 24.277091 55.902941 0
M  V30 8 C 36.385481 30.505209 59.298404 0
M  V30 9 C 39.917409 34.779408 61.542602 0 CFG=2
M  V30 10 N 39.509843 35.785700 62.535442 0
M  V30 11 F 39.245171 30.365921 50.319681 0
M  V30 12 C 39.245012 27.421593 54.125655 0
M  V30 13 F 40.375671 28.530357 50.167847 0
M  V30 14 C 38.760316 36.887427 61.963793 0
M  V30 15 C 37.765024 31.152221 59.378153 0 CFG=2
M  V30 16 C 39.234951 29.085858 59.972443 0
M  V30 17 C 37.613759 26.969596 56.876624 0
M  V30 18 O 37.817976 24.779201 55.843734 0
M  V30 19 O 41.525899 33.660396 63.015580 0
M  V30 20 C 39.545842 30.007759 53.036751 0
M  V30 21 C 38.255319 25.552762 56.919196 0 CFG=2
M  V30 22 C 39.731318 28.254320 56.486092 0
M  V30 23 N 39.137740 32.642717 60.686317 0
M  V30 24 C 39.285158 29.085256 50.688135 0
M  V30 25 C 39.145747 27.618276 52.737828 0
M  V30 26 C 38.738751 30.063207 58.879234 0 CFG=1
M  V30 27 O 37.422123 36.662398 62.340783 0
M  V30 28 C 36.468159 29.447012 58.193098 0
M  V30 29 C 37.938522 29.379141 57.745672 0 CFG=2
M  V30 30 N 40.129424 32.493544 61.629267 0
M  V30 31 N 38.525299 28.060621 57.339181 0 CFG=1 CHG=1
M  V30 32 C 38.738046 34.049858 60.854445 0
M  V30 33 N 38.054050 31.730979 60.694387 0
M  V30 34 H 37.119745 24.776193 58.265137 0
M  V30 35 H 40.835618 31.535758 54.968004 0
M  V30 36 H 39.111455 31.758880 55.190744 0
M  V30 37 H 40.043846 30.879289 56.370893 0
M  V30 38 H 36.180857 23.945582 54.912328 0
M  V30 39 H 36.444970 23.415133 56.567629 0
M  V30 40 H 35.783033 25.025439 56.251602 0
M  V30 41 H 36.143819 30.022642 60.241242 0
M  V30 42 H 35.604396 31.242079 59.108403 0
M  V30 43 H 40.578676 35.230125 60.800603 0
M  V30 44 H 38.978674 35.392101 63.298764 0
M  V30 45 H 39.150611 26.426061 54.527687 0
M  V30 46 H 38.844943 36.937935 60.879493 0
M  V30 47 H 39.110676 37.830459 62.382230 0
M  V30 48 H 37.764812 31.964786 58.647992 0
M  V30 49 H 38.441076 28.461344 60.371842 0
M  V30 50 H 40.007702 28.419449 59.589015 0
M  V30 51 H 39.685306 29.617413 60.809845 0
M  V30 52 H 36.726644 26.902410 57.496211 0
M  V30 53 H 37.253310 27.174578 55.868675 0
M  V30 54 H 39.671918 30.995360 52.613255 0
M  V30 55 H 39.333842 25.573707 56.785459 0
M  V30 56 H 40.411108 28.967445 56.939227 0
M  V30 57 H 40.343894 27.358008 56.540942 0
M  V30 58 H 38.445124 28.556492 50.247594 0
M  V30 59 H 38.966055 26.774990 52.086968 0
M  V30 60 H 39.624447 30.537681 58.470977 0
M  V30 61 H 36.857922 36.937315 61.633215 0
M  V30 62 H 36.034508 28.537591 58.568124 0
M  V30 63 H 35.866400 29.737688 57.339992 0
M  V30 64 H 37.968858 30.034074 56.874886 0
M  V30 65 H 40.415840 31.564673 61.899662 0
M  V30 66 H 37.848541 34.095669 61.485139 0
M  V30 67 H 38.482338 34.486626 59.888503 0
M  V30 68 H 37.230557 32.220727 61.039726 0
M  V30 69 H 38.880828 27.698288 58.212692 0
M  V30 END ATOM
M  V30 BEGIN BOND
M  V30 1 2 5 2
M  V30 2 1 6 2
M  V30 3 1 9 3
M  V30 4 1 10 9
M  V30 5 1 12 5
M  V30 6 1 14 10
M  V30 7 1 15 8
M  V30 8 1 18 7
M  V30 9 2 19 3
M  V30 10 1 20 2
M  V30 11 2 20 4
M  V30 12 1 21 1
M  V30 13 1 21 17
M  V30 14 1 21 18
M  V30 15 1 22 5
M  V30 16 1 24 4
M  V30 17 1 24 11
M  V30 18 1 24 13
M  V30 19 1 25 4
M  V30 20 2 25 12
M  V30 21 1 26 15
M  V30 22 1 26 16
M  V30 23 1 27 14
M  V30 24 1 28 8
M  V30 25 1 29 26
M  V30 26 1 29 28
M  V30 27 1 30 3
M  V30 28 1 30 23
M  V30 29 1 31 17
M  V30 30 1 31 22
M  V30 31 1 31 29
M  V30 32 1 32 9
M  V30 33 1 32 23
M  V30 34 1 33 15
M  V30 35 1 33 23
M  V30 36 1 34 1
M  V30 37 1 35 6
M  V30 38 1 36 6
M  V30 39 1 37 6
M  V30 40 1 38 7
M  V30 41 1 39 7
M  V30 42 1 40 7
M  V30 43 1 41 8
M  V30 44 1 42 8
M  V30 45 1 9 43 CFG=3
M  V30 46 1 44 10
M  V30 47 1 45 12
M  V30 48 1 46 14
M  V30 49 1 47 14
M  V30 50 1 15 48 CFG=3
M  V30 51 1 49 16
M  V30 52 1 50 16
M  V30 53 1 51 16
M  V30 54 1 52 17
M  V30 55 1 53 17
M  V30 56 1 54 20
M  V30 57 1 21 55 CFG=3
M  V30 58 1 56 22
M  V30 59 1 57 22
M  V30 60 1 58 24
M  V30 61 1 59 25
M  V30 62 1 26 60 CFG=3
M  V30 63 1 61 27
M  V30 64 1 62 28
M  V30 65 1 63 28
M  V30 66 1 29 64 CFG=3
M  V30 67 1 65 30
M  V30 68 1 66 32
M  V30 69 1 67 32
M  V30 70 1 68 33
M  V30 71 1 31 69 CFG=1
M  V30 END BOND
M  V30 END CTAB
M  END
>  <i_epik_Tot_Q>  (1) 
1

>  <i_epik_Tot_abs_Q>  (1) 
1

>  <i_i_glide_confnum>  (1) 
85

>  <i_i_glide_lignum>  (1) 
43

>  <i_i_glide_posenum>  (1) 
73

>  <i_i_glide_rotatable_bonds>  (1) 
13

>  <i_lp_mmshare_version>  (1) 
72125

>  <i_m_source_file_index>  (1) 
20

>  <i_f3d_flags>  (1) 
0

>  <num_sample>  (1) 
50

>  <b_lp_Chiralities_Consistent>  (1) 
1

>  <r_epik_Charging_Adjusted_Penalty>  (1) 
0.46831319053283144

>  <r_epik_Ionization_Penalty>  (1) 
0.71387485365223857

>  <r_epik_Ionization_Penalty_Charging>  (1) 
0.049252262366849507

>  <r_epik_Ionization_Penalty_Neutral>  (1) 
0.66462259128538903

>  <r_epik_State_Penalty>  (1) 
0.41906092816598195

>  <r_glide_ring_energy>  (1) 
0

>  <r_i_docking_score>  (1) 
-6.4305274485224633

>  <r_i_glide_ecoul>  (1) 
-0.93185919277189866

>  <r_i_glide_eff_state_penalty>  (1) 
0.41906092816598195

>  <r_i_glide_einternal>  (1) 
7.5668691396510841

>  <r_i_glide_emodel>  (1) 
-58.036096935001268

>  <r_i_glide_emodel_strain>  (1) 
1.8275664311450726

>  <r_i_glide_energy>  (1) 
-39.797673087229001

>  <r_i_glide_erotb>  (1) 
0.81494899861877068

>  <r_i_glide_esite>  (1) 
0

>  <r_i_glide_evdw>  (1) 
-38.865813894457105

>  <r_i_glide_gscore>  (1) 
-6.8495883766884456

>  <r_i_glide_gscore_strain>  (1) 
0

>  <r_i_glide_hbond>  (1) 
0

>  <r_i_glide_ligand_efficiency>  (1) 
-0.19486446813704433

>  <r_i_glide_ligand_efficiency_ln>  (1) 
-1.4301160090622036

>  <r_i_glide_ligand_efficiency_sa>  (1) 
-0.62503447124594769

>  <r_i_glide_lipo>  (1) 
-3.1564061003078354

>  <r_i_glide_metal>  (1) 
-0

>  <r_i_glide_rewards>  (1) 
-2.4250617013607405

>  <r_lp_Energy>  (1) 
34.505482000000001

>  <s_epik_Chemistry_Notes>  (1) 
This compound contains an acetal/aminal-like group ( X-CH(R)-Y where X, Y are N, S, or O) that may be acid/base labile, releasing an aldehyde.

>  <s_epik_cmdline>  (1) 
J2VwaWtfcHl0aG9uJywgJy1waHQnLCAnMS4wJywgJy1waCcsICc3LjQnLCAnLXRuJywgJzgnLCAnLW1hJywgJzUwMCcsICctaW1hZScsICc8aW5maWxlLm1hZT4nLCAnLW9tYWUnLCAnPG91dGZpbGUubWFlPic=

>  <s_epik_input>  (1) 
RltDSF0oRiljKFtjSF0xKVtjSF1bY0hdYyhjMVtDSDNdKVtDSDJdTihbQ0gyXVtDQEBIXShbT0hdKU9bQ0gzXSlbQ0BIXShbQ0BASF0yW0NIM10pW0NIMl1bQ0gyXVtDQEhdMltOSF1OKFtOSF0zKVtDSDJdW0NASF0oQzM9TylbTkhdW0NIMl1bT0hd

>  <s_glide_docking_method>  (1) 
confgen

>  <s_i_glide_gridfile>  (1) 
gpcr_5ht2c_6bqh_protein_autoprepared_prepared

>  <s_lp_Force_Field>  (1) 
S-OPLS

>  <s_lp_Variant>  (1) 
DiffSBDD_19-2

>  <s_m_source_file>  (1) 
generated_GPCR_5HT2C_ligand_DiffSBDD_2026-06-23_prepared.sdf

>  <GenAI_Model>  (1) 
DiffSBDD

>  <Protein>  (1) 
GPCR_5HT2C

$$$$
DiffSBDD_47
     RDKit          3D

  0  0  0  0  0  0  0  0  0  0999 V3000
M  V30 BEGIN CTAB
M  V30 COUNTS 43 46 0 0 1
M  V30 BEGIN ATOM
M  V30 1 C 37.808710 31.787004 61.086201 0
M  V30 2 C 39.245137 27.713333 51.829538 0
M  V30 3 N 39.148087 28.332756 57.582481 0
M  V30 4 C 39.022979 26.225322 56.315398 0 CFG=1
M  V30 5 C 38.045351 26.705071 55.208602 0
M  V30 6 C 39.023663 29.143178 53.753346 0
M  V30 7 N 38.623970 26.717878 53.873962 0
M  V30 8 C 39.645136 28.299340 50.755338 0
M  V30 9 C 38.786340 30.937774 61.640450 0
M  V30 10 C 36.331925 33.695164 61.303846 0
M  V30 11 C 38.991169 28.156302 59.011743 0 CFG=2
M  V30 12 C 37.222903 31.457810 59.841960 0
M  V30 13 C 39.645138 30.383663 53.061246 0
M  V30 14 C 38.970999 27.802501 53.079171 0
M  V30 15 C 38.045680 27.490327 58.035359 0 CFG=2
M  V30 16 C 37.609718 30.287252 59.168071 0
M  V30 17 N 40.016980 29.628591 50.659436 0
M  V30 18 C 39.174701 29.762721 60.964197 0
M  V30 19 C 40.045138 30.538871 51.750457 0
M  V30 20 C 38.587513 29.424153 59.724659 0
M  V30 21 S 40.294553 27.427405 56.711747 0
M  V30 22 O 37.438259 32.928810 61.767751 0
M  V30 23 N 38.303330 26.125841 57.573505 0
M  V30 24 H 39.466496 25.263697 56.054718 0
M  V30 25 H 37.186328 26.034392 55.177661 0
M  V30 26 H 37.645094 27.690341 55.439737 0
M  V30 27 H 39.565201 29.045391 54.688125 0
M  V30 28 H 38.003938 29.423101 54.019927 0
M  V30 29 H 38.529023 25.840922 53.382359 0
M  V30 30 H 39.762839 27.768174 49.829001 0
M  V30 31 H 39.237586 31.185389 62.590102 0
M  V30 32 H 36.119508 34.493964 62.014351 0
M  V30 33 H 35.428496 33.088902 61.221588 0
M  V30 34 H 36.545348 34.162521 60.341580 0
M  V30 35 H 39.735272 27.569727 59.547939 0
M  V30 36 H 36.475457 32.099189 59.399951 0
M  V30 37 H 39.762618 31.237146 53.713478 0
M  V30 38 H 37.047882 27.907655 57.922352 0
M  V30 39 H 37.152638 30.048237 58.218994 0
M  V30 40 H 40.335755 29.963411 49.761670 0
M  V30 41 H 39.920891 29.114981 61.400841 0
M  V30 42 H 40.447581 31.493852 51.449333 0
M  V30 43 H 38.904606 25.663649 58.238732 0
M  V30 END ATOM
M  V30 BEGIN BOND
M  V30 1 1 5 4
M  V30 2 1 7 5
M  V30 3 2 8 2
M  V30 4 1 9 1
M  V30 5 1 11 3
M  V30 6 2 12 1
M  V30 7 1 13 6
M  V30 8 2 14 2
M  V30 9 1 14 6
M  V30 10 1 14 7
M  V30 11 1 15 3
M  V30 12 1 15 11
M  V30 13 1 16 12
M  V30 14 1 17 8
M  V30 15 2 18 9
M  V30 16 2 19 13
M  V30 17 1 19 17
M  V30 18 1 20 11
M  V30 19 2 20 16
M  V30 20 1 20 18
M  V30 21 1 21 3
M  V30 22 1 21 4
M  V30 23 1 22 1
M  V30 24 1 22 10
M  V30 25 1 23 4
M  V30 26 1 23 15
M  V30 27 1 4 24 CFG=3
M  V30 28 1 25 5
M  V30 29 1 26 5
M  V30 30 1 27 6
M  V30 31 1 28 6
M  V30 32 1 29 7
M  V30 33 1 30 8
M  V30 34 1 31 9
M  V30 35 1 32 10
M  V30 36 1 33 10
M  V30 37 1 34 10
M  V30 38 1 11 35 CFG=1
M  V30 39 1 36 12
M  V30 40 1 37 13
M  V30 41 1 15 38 CFG=1
M  V30 42 1 39 16
M  V30 43 1 40 17
M  V30 44 1 41 18
M  V30 45 1 42 19
M  V30 46 1 43 23
M  V30 END BOND
M  V30 END CTAB
M  END
>  <i_epik_Tot_Q>  (1) 
0

>  <i_epik_Tot_abs_Q>  (1) 
0

>  <i_i_glide_confnum>  (1) 
15

>  <i_i_glide_lignum>  (1) 
98

>  <i_i_glide_posenum>  (1) 
292

>  <i_i_glide_rotatable_bonds>  (1) 
5

>  <i_lp_mmshare_version>  (1) 
72125

>  <i_m_source_file_index>  (1) 
48

>  <i_f3d_flags>  (1) 
0

>  <num_sample>  (1) 
50

>  <b_lp_Chiralities_Consistent>  (1) 
1

>  <r_epik_Charging_Adjusted_Penalty>  (1) 
2.8036070843788356e-07

>  <r_epik_Ionization_Penalty>  (1) 
5.6275473319638209e-05

>  <r_epik_Ionization_Penalty_Charging>  (1) 
2.8036070843788356e-07

>  <r_epik_Ionization_Penalty_Neutral>  (1) 
5.5995112611200328e-05

>  <r_epik_State_Penalty>  (1) 
-0

>  <r_glide_ring_energy>  (1) 
0

>  <r_i_docking_score>  (1) 
-6.4280685441686254

>  <r_i_glide_ecoul>  (1) 
-1.627150716807352

>  <r_i_glide_eff_state_penalty>  (1) 
-0

>  <r_i_glide_einternal>  (1) 
4.9080960434603069

>  <r_i_glide_emodel>  (1) 
-58.658783879095743

>  <r_i_glide_emodel_strain>  (1) 
0.32717164401248056

>  <r_i_glide_energy>  (1) 
-43.317859275143526

>  <r_i_glide_erotb>  (1) 
0.69643727437471581

>  <r_i_glide_esite>  (1) 
0

>  <r_i_glide_evdw>  (1) 
-41.690708558336176

>  <r_i_glide_gscore>  (1) 
-6.4280685441686254

>  <r_i_glide_gscore_strain>  (1) 
0

>  <r_i_glide_hbond>  (1) 
0

>  <r_i_glide_ligand_efficiency>  (1) 
-0.27948124105080979

>  <r_i_glide_ligand_efficiency_ln>  (1) 
-1.5543652604829934

>  <r_i_glide_ligand_efficiency_sa>  (1) 
-0.79480747291233389

>  <r_i_glide_lipo>  (1) 
-3.3207739076381491

>  <r_i_glide_metal>  (1) 
-0

>  <r_i_glide_rewards>  (1) 
-1.4751238754672802

>  <r_lp_Energy>  (1) 
12.846019

>  <r_lp_tautomer_probability>  (1) 
1

>  <s_epik_Chemistry_Notes>  (1) 
This compound has an imine and may undergo hydrolysis. This compound contains an acetal/aminal-like group ( X-CH(R)-Y where X, Y are N, S, or O) that may be acid/base labile, releasing an aldehyde. This compound has a N-S or N-O group and may undergo hydrolysis at high or low pH.

>  <s_epik_cmdline>  (1) 
J2VwaWtfcHl0aG9uJywgJy1waHQnLCAnMS4wJywgJy1waCcsICc3LjQnLCAnLXRuJywgJzgnLCAnLW1hJywgJzUwMCcsICctaW1hZScsICc8aW5maWxlLm1hZT4nLCAnLW9tYWUnLCAnPG91dGZpbGUubWFlPic=

>  <s_epik_input>  (1) 
W0NIM11PYzFbY0hdW2NIXWMoW2NIXVtjSF0xKVtDQEhdMltDQEBIXShOMjMpW05IXVtDQEhdKFMzKVtDSDJdW05IXUM0PUM9W0NIXVtOSF1bQ0hdPVtDSF1bQ0gyXTQ=

>  <s_glide_docking_method>  (1) 
confgen

>  <s_i_glide_gridfile>  (1) 
gpcr_5ht2c_6bqh_protein_autoprepared_prepared

>  <s_lp_Force_Field>  (1) 
S-OPLS

>  <s_lp_Variant>  (1) 
DiffSBDD_47-1

>  <s_m_source_file>  (1) 
generated_GPCR_5HT2C_ligand_DiffSBDD_2026-06-23_prepared.sdf

>  <GenAI_Model>  (1) 
DiffSBDD

>  <Protein>  (1) 
GPCR_5HT2C

$$$$
DiffSBDD_0
     RDKit          3D

  0  0  0  0  0  0  0  0  0  0999 V3000
M  V30 BEGIN CTAB
M  V30 COUNTS 73 75 0 0 1
M  V30 BEGIN ATOM
M  V30 1 C 38.679202 28.622049 51.840577 0
M  V30 2 C 39.324594 26.025490 54.773345 0
M  V30 3 O 42.445142 34.612749 66.071784 0
M  V30 4 C 38.832269 28.865918 54.330953 0
M  V30 5 C 38.090079 31.895749 60.452094 0 CFG=2
M  V30 6 C 38.446873 32.238067 57.421948 0
M  V30 7 C 41.084656 33.198480 64.735348 0
M  V30 8 C 41.324072 34.095558 63.482787 0 CFG=1
M  V30 9 C 40.663724 36.088124 62.174667 0
M  V30 10 C 41.260370 33.204122 62.229601 0
M  V30 11 N 39.858095 32.805574 61.991443 0 CHG=1
M  V30 12 O 37.327822 33.040102 60.075838 0
M  V30 13 C 39.010831 26.563710 53.355375 0
M  V30 14 C 40.238540 36.137678 64.400751 0
M  V30 15 C 38.939199 29.193555 56.891036 0 CFG=1
M  V30 16 C 39.582843 32.268567 60.645961 0
M  V30 17 C 39.209194 27.063298 55.878154 0
M  V30 18 C 39.164707 28.033320 57.970744 0
M  V30 19 C 37.894028 30.741314 59.414621 0 CFG=1
M  V30 20 C 41.493711 33.807237 66.078690 0
M  V30 21 N 40.355599 35.196209 63.293961 0
M  V30 22 C 39.373102 37.248481 63.829538 0
M  V30 23 F 39.535247 28.065503 50.983228 0
M  V30 24 C 38.990933 28.337098 55.671267 0
M  V30 25 C 38.845132 28.073165 53.245788 0
M  V30 26 O 36.789110 30.137821 59.767797 0 CHG=-1
M  V30 27 N 37.645139 31.121255 57.988878 0 CFG=2 CHG=1
M  V30 28 C 39.384787 26.622331 57.282442 0 CFG=1
M  V30 29 C 37.597253 29.961271 57.049336 0
M  V30 30 C 36.798854 33.806342 61.145276 0
M  V30 31 O 40.845042 33.448952 67.083790 0 CHG=-1
M  V30 32 O 38.407607 25.677072 57.668950 0
M  V30 33 C 39.654183 37.221438 62.334085 0
M  V30 34 H 37.675827 28.405037 51.473996 0
M  V30 35 H 38.845204 29.698292 51.807727 0
M  V30 36 H 40.346359 25.646412 54.799393 0
M  V30 37 H 38.673816 25.179614 54.998459 0
M  V30 38 H 38.700973 29.930565 54.200543 0
M  V30 39 H 37.740613 31.525529 61.421253 0
M  V30 40 H 39.505832 31.998189 57.367922 0
M  V30 41 H 38.107283 32.454570 56.407886 0
M  V30 42 H 38.340487 33.170762 57.968079 0
M  V30 43 H 40.045025 32.884604 64.789346 0
M  V30 44 H 41.671075 32.283305 64.646436 0
M  V30 45 H 42.325917 34.522887 63.549319 0
M  V30 46 H 41.678987 36.473730 62.277390 0
M  V30 47 H 40.570168 35.615398 61.197293 0
M  V30 48 H 41.884716 32.316851 62.341991 0
M  V30 49 H 41.659850 33.733579 61.367766 0
M  V30 50 H 39.316542 33.648826 62.139779 0
M  V30 51 H 38.068086 26.137875 53.013992 0
M  V30 52 H 39.783809 26.229972 52.662142 0
M  V30 53 H 39.790616 35.737743 65.306349 0
M  V30 54 H 41.226574 36.514093 64.660172 0
M  V30 55 H 39.798560 29.861495 56.853249 0
M  V30 56 H 40.217637 31.386204 60.567804 0
M  V30 57 H 39.904889 32.975152 59.881541 0
M  V30 58 H 38.313670 27.976217 58.650847 0
M  V30 59 H 40.026556 28.269277 58.595260 0
M  V30 60 H 38.833447 30.197201 59.415410 0
M  V30 61 H 39.645173 38.185579 64.300320 0
M  V30 62 H 38.317354 37.060187 64.026890 0
M  V30 63 H 40.392502 26.236381 57.440342 0
M  V30 64 H 37.257916 30.342208 56.085893 0
M  V30 65 H 36.812612 29.273998 57.365442 0
M  V30 66 H 36.213805 34.631979 60.739348 0
M  V30 67 H 36.135455 33.205857 61.767742 0
M  V30 68 H 37.584194 34.232823 61.767634 0
M  V30 69 H 37.553470 26.058011 57.531587 0
M  V30 70 H 40.044969 38.168496 61.963022 0
M  V30 71 H 38.739127 36.996232 61.784523 0
M  V30 72 H 36.681731 31.459417 57.969512 0
M  V30 73 H 39.593517 32.135274 62.699979 0
M  V30 END ATOM
M  V30 BEGIN BOND
M  V30 1 1 8 7
M  V30 2 1 10 8
M  V30 3 1 11 10
M  V30 4 1 12 5
M  V30 5 1 13 2
M  V30 6 1 16 5
M  V30 7 1 16 11
M  V30 8 1 17 2
M  V30 9 1 18 15
M  V30 10 1 19 5
M  V30 11 2 20 3
M  V30 12 1 20 7
M  V30 13 1 21 8
M  V30 14 1 21 9
M  V30 15 1 21 14
M  V30 16 1 22 14
M  V30 17 1 23 1
M  V30 18 1 24 4
M  V30 19 1 24 15
M  V30 20 2 24 17
M  V30 21 1 25 1
M  V30 22 2 25 4
M  V30 23 1 25 13
M  V30 24 1 26 19
M  V30 25 1 27 6
M  V30 26 1 27 19
M  V30 27 1 28 17
M  V30 28 1 28 18
M  V30 29 1 29 15
M  V30 30 1 29 27
M  V30 31 1 30 12
M  V30 32 1 31 20
M  V30 33 1 32 28
M  V30 34 1 33 9
M  V30 35 1 33 22
M  V30 36 1 34 1
M  V30 37 1 35 1
M  V30 38 1 36 2
M  V30 39 1 37 2
M  V30 40 1 38 4
M  V30 41 1 5 39 CFG=1
M  V30 42 1 40 6
M  V30 43 1 41 6
M  V30 44 1 42 6
M  V30 45 1 43 7
M  V30 46 1 44 7
M  V30 47 1 8 45 CFG=1
M  V30 48 1 46 9
M  V30 49 1 47 9
M  V30 50 1 48 10
M  V30 51 1 49 10
M  V30 52 1 50 11
M  V30 53 1 51 13
M  V30 54 1 52 13
M  V30 55 1 53 14
M  V30 56 1 54 14
M  V30 57 1 15 55 CFG=3
M  V30 58 1 56 16
M  V30 59 1 57 16
M  V30 60 1 58 18
M  V30 61 1 59 18
M  V30 62 1 19 60 CFG=3
M  V30 63 1 61 22
M  V30 64 1 62 22
M  V30 65 1 28 63 CFG=3
M  V30 66 1 64 29
M  V30 67 1 65 29
M  V30 68 1 66 30
M  V30 69 1 67 30
M  V30 70 1 68 30
M  V30 71 1 69 32
M  V30 72 1 70 33
M  V30 73 1 71 33
M  V30 74 1 27 72 CFG=1
M  V30 75 1 73 11
M  V30 END BOND
M  V30 END CTAB
M  END
>  <i_epik_Tot_Q>  (1) 
0

>  <i_epik_Tot_abs_Q>  (1) 
4

>  <i_i_glide_confnum>  (1) 
1323

>  <i_i_glide_lignum>  (1) 
3

>  <i_i_glide_posenum>  (1) 
220

>  <i_i_glide_rotatable_bonds>  (1) 
14

>  <i_lp_mmshare_version>  (1) 
72125

>  <i_m_source_file_index>  (1) 
1

>  <i_f3d_flags>  (1) 
0

>  <num_sample>  (1) 
50

>  <b_lp_Chiralities_Consistent>  (1) 
1

>  <r_epik_Charging_Adjusted_Penalty>  (1) 
0.77514762265790937

>  <r_epik_Ionization_Penalty>  (1) 
0.13961133491552177

>  <r_epik_Ionization_Penalty_Charging>  (1) 
0.038557878483332003

>  <r_epik_Ionization_Penalty_Neutral>  (1) 
0.10105345643218977

>  <r_epik_State_Penalty>  (1) 
0.73658974417457734

>  <r_glide_ring_energy>  (1) 
0.0045750838620950583

>  <r_i_docking_score>  (1) 
-6.4152161224982631

>  <r_i_glide_ecoul>  (1) 
-2.8773575931962583

>  <r_i_glide_eff_state_penalty>  (1) 
0.73658974417457734

>  <r_i_glide_einternal>  (1) 
11.300519969200334

>  <r_i_glide_emodel>  (1) 
-65.605921665900382

>  <r_i_glide_emodel_strain>  (1) 
0.28538608171119506

>  <r_i_glide_energy>  (1) 
-42.935252968864297

>  <r_i_glide_erotb>  (1) 
0.82434179411086872

>  <r_i_glide_esite>  (1) 
-0.12471310814965392

>  <r_i_glide_evdw>  (1) 
-40.057895375668039

>  <r_i_glide_gscore>  (1) 
-7.1518058666728406

>  <r_i_glide_gscore_strain>  (1) 
0

>  <r_i_glide_hbond>  (1) 
-0.17665786401253536

>  <r_i_glide_ligand_efficiency>  (1) 
-0.19440048856055342

>  <r_i_glide_ligand_efficiency_ln>  (1) 
-1.4267108494322247

>  <r_i_glide_ligand_efficiency_sa>  (1) 
-0.62354624082593613

>  <r_i_glide_lipo>  (1) 
-3.7497242847606711

>  <r_i_glide_metal>  (1) 
-0

>  <r_i_glide_rewards>  (1) 
-1.4905539960980079

>  <r_lp_Energy>  (1) 
31.454538999999997

>  <s_epik_Chemistry_Notes>  (1) 
This compound contains an acetal/aminal-like group ( X-CH(R)-Y where X, Y are N, S, or O) that may be acid/base labile, releasing an aldehyde.

>  <s_epik_cmdline>  (1) 
J2VwaWtfcHl0aG9uJywgJy1waHQnLCAnMS4wJywgJy1waCcsICc3LjQnLCAnLXRuJywgJzgnLCAnLW1hJywgJzUwMCcsICctaW1hZScsICc8aW5maWxlLm1hZT4nLCAnLW9tYWUnLCAnPG91dGZpbGUubWFlPic=

>  <s_epik_input>  (1) 
W0NIMl0xW0NIMl1DKFtDSDJdRik9W0NIXUMoPUMxMilbQ0BIXShbQ0gyXVtDQEhdMltPSF0pW0NIMl1OKFtDSDNdKVtDQEhdKFtPSF0pW0NASF0oT1tDSDNdKVtDSDJdW05IXVtDSDJdW0NASF0oW0NIMl1DKD1PKVtPSF0pTjNbQ0gyXVtDSDJdW0NIMl1bQ0gyXTM=

>  <s_glide_docking_method>  (1) 
confgen

>  <s_i_glide_gridfile>  (1) 
gpcr_5ht2c_6bqh_protein_autoprepared_prepared

>  <s_lp_Force_Field>  (1) 
S-OPLS

>  <s_lp_Variant>  (1) 
DiffSBDD_0-3

>  <s_m_source_file>  (1) 
generated_GPCR_5HT2C_ligand_DiffSBDD_2026-06-23_prepared.sdf

>  <GenAI_Model>  (1) 
DiffSBDD

>  <Protein>  (1) 
GPCR_5HT2C

$$$$
DiffSBDD_2
     RDKit          3D

  0  0  0  0  0  0  0  0  0  0999 V3000
M  V30 BEGIN CTAB
M  V30 COUNTS 85 88 0 0 1
M  V30 BEGIN ATOM
M  V30 1 C 38.956996 27.480158 55.974453 0 CFG=1
M  V30 2 C 39.992005 36.243915 64.362797 0
M  V30 3 C 35.141740 32.792816 60.531011 0
M  V30 4 C 37.916729 29.764170 55.675083 0
M  V30 5 C 40.219224 35.669482 63.200995 0
M  V30 6 C 37.971427 29.876576 58.992578 0
M  V30 7 C 37.909945 36.139725 62.290409 0 CFG=2
M  V30 8 C 37.958926 26.342528 54.016136 0
M  V30 9 C 37.403528 31.266583 58.635935 0
M  V30 10 C 37.799601 34.191989 60.958925 0 CFG=1
M  V30 11 N 39.292888 35.664760 62.144676 0
M  V30 12 C 40.480300 27.474955 56.219318 0
M  V30 13 C 41.661809 34.731008 66.445481 0
M  V30 14 C 37.051184 35.455793 61.266920 0
M  V30 15 N 37.383407 33.657030 59.639602 0 CFG=1 CHG=1
M  V30 16 C 42.025329 33.982269 63.977282 0
M  V30 17 C 39.933964 36.529585 65.644963 0
M  V30 18 C 39.246012 34.698955 61.047398 0
M  V30 19 C 38.198025 32.489224 59.166254 0 CFG=2
M  V30 20 C 41.044467 36.134876 66.627470 0
M  V30 21 C 41.572488 34.996658 62.919703 0
M  V30 22 C 36.238761 38.074603 62.165149 0
M  V30 23 C 38.389940 25.288369 55.026757 0
M  V30 24 C 35.912012 39.568653 62.223361 0
M  V30 25 C 38.909864 29.201419 57.977678 0
M  V30 26 C 37.721323 37.650083 62.339080 0 CFG=2
M  V30 27 C 38.396046 26.078512 56.338317 0
M  V30 28 F 41.905508 33.987315 67.535504 0
M  V30 29 S 37.743837 29.057779 54.042125 0
M  V30 30 C 38.659077 38.401152 61.366913 0
M  V30 31 C 39.143612 33.015484 58.072328 0
M  V30 32 C 41.972542 34.235572 65.267048 0
M  V30 33 C 38.216913 28.654244 56.698160 0 CFG=2
M  V30 34 C 35.897443 33.621686 59.464286 0
M  V30 35 C 38.697706 27.594698 54.449355 0 CFG=1
M  V30 36 H 34.179820 32.484308 60.127163 0
M  V30 37 H 35.675895 31.899460 60.853814 0
M  V30 38 H 34.936532 33.364829 61.435143 0
M  V30 39 H 36.973650 30.265602 55.879993 0
M  V30 40 H 38.712660 30.507924 55.642777 0
M  V30 41 H 38.462121 29.915907 59.966543 0
M  V30 42 H 37.122633 29.207776 59.139436 0
M  V30 43 H 37.559086 35.775074 63.241491 0
M  V30 44 H 36.882969 26.489446 54.091931 0
M  V30 45 H 38.186737 26.137843 52.972829 0
M  V30 46 H 36.389963 31.221563 59.008530 0
M  V30 47 H 37.245142 31.395321 57.575694 0
M  V30 48 H 37.626715 33.455531 61.745586 0
M  V30 49 H 40.949399 26.690140 55.630451 0
M  V30 50 H 40.935779 28.425539 55.943520 0
M  V30 51 H 40.740488 27.258237 57.255785 0
M  V30 52 H 36.977119 36.070047 60.368381 0
M  V30 53 H 36.051773 35.270347 61.658089 0
M  V30 54 H 42.426720 33.049262 63.610312 0
M  V30 55 H 39.082590 37.049431 66.061456 0
M  V30 56 H 39.541248 35.248183 60.156196 0
M  V30 57 H 39.912608 33.848893 61.171109 0
M  V30 58 H 38.809995 32.144668 60.000286 0
M  V30 59 H 41.830436 36.887840 66.582604 0
M  V30 60 H 40.628054 36.185951 67.635078 0
M  V30 61 H 41.648033 34.553071 61.931685 0
M  V30 62 H 42.305882 35.802468 62.933493 0
M  V30 63 H 35.897689 37.765993 61.180540 0
M  V30 64 H 35.621035 37.544339 62.888724 0
M  V30 65 H 37.720903 24.428446 55.049373 0
M  V30 66 H 39.393608 24.928120 54.800676 0
M  V30 67 H 34.867126 39.711021 61.951681 0
M  V30 68 H 36.046911 39.994896 63.215654 0
M  V30 69 H 36.486032 40.142568 61.500662 0
M  V30 70 H 39.752548 29.847539 57.729842 0
M  V30 71 H 39.338058 28.361353 58.522287 0
M  V30 72 H 38.010539 37.737764 63.379815 0
M  V30 73 H 37.367819 26.141653 56.695056 0
M  V30 74 H 38.964766 25.575414 57.121348 0
M  V30 75 H 38.443523 38.086002 60.345089 0
M  V30 76 H 38.551533 39.486262 61.368449 0
M  V30 77 H 39.709684 38.209185 61.589202 0
M  V30 78 H 39.640297 32.225795 57.506456 0
M  V30 79 H 38.602669 33.614873 57.338746 0
M  V30 80 H 39.919312 33.647691 58.502868 0
M  V30 81 H 37.246274 28.275491 57.010459 0
M  V30 82 H 35.480662 34.627998 59.480770 0
M  V30 83 H 35.662765 33.338235 58.451595 0
M  V30 84 H 39.635607 27.654682 53.897092 0
M  V30 85 H 37.648652 34.382818 58.989727 0
M  V30 END ATOM
M  V30 BEGIN BOND
M  V30 1 2 5 2
M  V30 2 1 9 6
M  V30 3 1 11 5
M  V30 4 1 11 7
M  V30 5 1 1 12 CFG=3
M  V30 6 1 14 7
M  V30 7 1 14 10
M  V30 8 1 15 10
M  V30 9 2 17 2
M  V30 10 1 18 10
M  V30 11 1 18 11
M  V30 12 1 19 9
M  V30 13 1 19 15
M  V30 14 1 20 13
M  V30 15 1 20 17
M  V30 16 1 21 5
M  V30 17 1 21 16
M  V30 18 1 23 8
M  V30 19 1 24 22
M  V30 20 1 25 6
M  V30 21 1 26 7
M  V30 22 1 26 22
M  V30 23 1 27 1
M  V30 24 1 27 23
M  V30 25 1 28 13
M  V30 26 1 29 4
M  V30 27 1 30 26
M  V30 28 1 31 19
M  V30 29 2 32 13
M  V30 30 2 32 16
M  V30 31 1 33 1
M  V30 32 1 33 4
M  V30 33 1 33 25
M  V30 34 1 34 3
M  V30 35 1 34 15
M  V30 36 1 35 1
M  V30 37 1 35 8
M  V30 38 1 35 29
M  V30 39 1 36 3
M  V30 40 1 37 3
M  V30 41 1 38 3
M  V30 42 1 39 4
M  V30 43 1 40 4
M  V30 44 1 41 6
M  V30 45 1 42 6
M  V30 46 1 7 43 CFG=1
M  V30 47 1 44 8
M  V30 48 1 45 8
M  V30 49 1 46 9
M  V30 50 1 47 9
M  V30 51 1 10 48 CFG=1
M  V30 52 1 49 12
M  V30 53 1 50 12
M  V30 54 1 51 12
M  V30 55 1 52 14
M  V30 56 1 53 14
M  V30 57 1 54 16
M  V30 58 1 55 17
M  V30 59 1 56 18
M  V30 60 1 57 18
M  V30 61 1 19 58 CFG=1
M  V30 62 1 59 20
M  V30 63 1 60 20
M  V30 64 1 61 21
M  V30 65 1 62 21
M  V30 66 1 63 22
M  V30 67 1 64 22
M  V30 68 1 65 23
M  V30 69 1 66 23
M  V30 70 1 67 24
M  V30 71 1 68 24
M  V30 72 1 69 24
M  V30 73 1 70 25
M  V30 74 1 71 25
M  V30 75 1 26 72 CFG=1
M  V30 76 1 73 27
M  V30 77 1 74 27
M  V30 78 1 75 30
M  V30 79 1 76 30
M  V30 80 1 77 30
M  V30 81 1 78 31
M  V30 82 1 79 31
M  V30 83 1 80 31
M  V30 84 1 33 81 CFG=1
M  V30 85 1 82 34
M  V30 86 1 83 34
M  V30 87 1 35 84 CFG=3
M  V30 88 1 15 85 CFG=3
M  V30 END BOND
M  V30 END CTAB
M  END
>  <i_epik_Tot_Q>  (1) 
1

>  <i_epik_Tot_abs_Q>  (1) 
1

>  <i_i_glide_confnum>  (1) 
443

>  <i_i_glide_lignum>  (1) 
9

>  <i_i_glide_posenum>  (1) 
355

>  <i_i_glide_rotatable_bonds>  (1) 
10

>  <i_lp_mmshare_version>  (1) 
72125

>  <i_m_source_file_index>  (1) 
3

>  <i_f3d_flags>  (1) 
0

>  <num_sample>  (1) 
50

>  <b_lp_Chiralities_Consistent>  (1) 
1

>  <r_epik_Charging_Adjusted_Penalty>  (1) 
0.074245454784308482

>  <r_epik_Ionization_Penalty>  (1) 
0.013686655559845946

>  <r_epik_Ionization_Penalty_Charging>  (1) 
0.012771505238954846

>  <r_epik_Ionization_Penalty_Neutral>  (1) 
0.00091515032089109971

>  <r_epik_State_Penalty>  (1) 
0.06147394954535363

>  <r_glide_ring_energy>  (1) 
1.3016869551617385

>  <r_i_docking_score>  (1) 
-6.412301444499934

>  <r_i_glide_ecoul>  (1) 
-1.5482162082464903

>  <r_i_glide_eff_state_penalty>  (1) 
0.06147394954535363

>  <r_i_glide_einternal>  (1) 
17.049294569891181

>  <r_i_glide_emodel>  (1) 
-28.865141211175796

>  <r_i_glide_emodel_strain>  (1) 
5.025710297780094

>  <r_i_glide_energy>  (1) 
-36.7711818828529

>  <r_i_glide_erotb>  (1) 
0.64899532480163924

>  <r_i_glide_esite>  (1) 
-0.015091544698881576

>  <r_i_glide_evdw>  (1) 
-35.222965674606414

>  <r_i_glide_gscore>  (1) 
-6.4737753940452878

>  <r_i_glide_gscore_strain>  (1) 
0.25642757444502351

>  <r_i_glide_hbond>  (1) 
0

>  <r_i_glide_ligand_efficiency>  (1) 
-0.18320861269999811

>  <r_i_glide_ligand_efficiency_ln>  (1) 
-1.4076424804306551

>  <r_i_glide_ligand_efficiency_sa>  (1) 
-0.59928752073935332

>  <r_i_glide_lipo>  (1) 
-4.0316283633900181

>  <r_i_glide_metal>  (1) 
-0

>  <r_i_glide_rewards>  (1) 
-1.3390976702357571

>  <r_lp_Energy>  (1) 
19.396519999999999

>  <s_epik_cmdline>  (1) 
J2VwaWtfcHl0aG9uJywgJy1waHQnLCAnMS4wJywgJy1waCcsICc3LjQnLCAnLXRuJywgJzgnLCAnLW1hJywgJzUwMCcsICctaW1hZScsICc8aW5maWxlLm1hZT4nLCAnLW9tYWUnLCAnPG91dGZpbGUubWFlPic=

>  <s_epik_input>  (1) 
W0NIMl0xW0NIMl1bQ0gyXVtDQEhdKFtDQF0xMltDSDNdKVNbQ0gyXVtDQEBIXTJbQ0gyXVtDSDJdW0NIMl1bQ0BASF0oW0NIM10pTihbQ0gyXVtDSDNdKVtDQEhdKFtDSDJdMylbQ0gyXU4oW0NASF0zW0NAQEhdKFtDSDNdKVtDSDJdW0NIM10pQzQ9Qz1bQ0hdW0NIMl1DKEYpPUM9W0NIXVtDSDJdNA==

>  <s_glide_docking_method>  (1) 
confgen

>  <s_i_glide_gridfile>  (1) 
gpcr_5ht2c_6bqh_protein_autoprepared_prepared

>  <s_lp_Force_Field>  (1) 
S-OPLS

>  <s_lp_Variant>  (1) 
DiffSBDD_2-1

>  <s_m_source_file>  (1) 
generated_GPCR_5HT2C_ligand_DiffSBDD_2026-06-23_prepared.sdf

>  <GenAI_Model>  (1) 
DiffSBDD

>  <Protein>  (1) 
GPCR_5HT2C

$$$$
DiffSBDD_28
     RDKit          3D

  0  0  0  0  0  0  0  0  0  0999 V3000
M  V30 BEGIN CTAB
M  V30 COUNTS 45 48 0 0 1
M  V30 BEGIN ATOM
M  V30 1 O 37.459527 31.521723 61.452861 0
M  V30 2 C 40.596855 34.936480 63.694849 0
M  V30 3 C 38.690381 29.058243 60.109957 0
M  V30 4 C 41.172771 34.123970 64.697593 0
M  V30 5 C 39.860057 32.319438 60.967978 0
M  V30 6 F 42.444386 35.757418 65.759481 0
M  V30 7 C 37.130619 31.131319 60.116018 0 CFG=1
M  V30 8 C 41.629899 34.744052 66.009847 0
M  V30 9 C 40.879701 32.160832 63.277303 0
M  V30 10 C 39.529113 35.250179 61.401375 0 CFG=2
M  V30 11 O 37.392259 36.240608 61.885083 0
M  V30 12 P 38.117377 32.679046 60.394928 0 CFG=1 CHG=1
M  V30 13 C 40.466568 28.503269 58.362283 0
M  V30 14 F 39.941487 34.961703 60.167760 0
M  V30 15 C 40.155388 34.360882 62.478669 0
M  V30 16 C 37.987670 35.251251 61.467027 0
M  V30 17 N 37.341704 34.142474 61.062068 0
M  V30 18 C 40.300953 32.963342 62.271351 0
M  V30 19 C 40.070013 28.607977 59.648856 0
M  V30 20 C 38.050636 30.204827 59.294400 0 CFG=2
M  V30 21 C 37.352367 29.719839 58.019131 0
M  V30 22 C 41.312473 32.737504 64.484062 0
M  V30 23 F 40.572581 35.201171 66.680570 0
M  V30 24 F 42.287349 33.873639 66.778429 0
M  V30 25 C 38.090262 28.579750 57.302631 0
M  V30 26 C 39.601725 28.809924 57.144177 0
M  V30 27 H 40.488664 35.999501 63.861769 0
M  V30 28 H 38.049913 28.182898 60.157325 0
M  V30 29 H 38.817788 29.370240 61.145849 0
M  V30 30 H 40.044161 31.249155 61.024266 0
M  V30 31 H 40.485759 32.665633 60.167522 0
M  V30 32 H 36.076868 31.196658 59.850820 0
M  V30 33 H 40.992949 31.096873 63.120859 0
M  V30 34 H 39.874483 36.271605 61.572619 0
M  V30 35 H 41.474537 28.176510 58.153828 0
M  V30 36 H 36.333692 34.134112 61.109959 0
M  V30 37 H 40.769778 28.354892 60.431762 0
M  V30 38 H 38.883995 30.800784 58.924768 0
M  V30 39 H 36.339637 29.385168 58.245310 0
M  V30 40 H 37.250512 30.560367 57.331937 0
M  V30 41 H 41.753535 32.114429 65.248330 0
M  V30 42 H 37.907190 27.625826 57.800577 0
M  V30 43 H 37.647145 28.476488 56.312277 0
M  V30 44 H 39.812461 29.822706 56.799606 0
M  V30 45 H 39.948904 28.146679 56.350228 0
M  V30 END ATOM
M  V30 BEGIN BOND
M  V30 1 2 4 2
M  V30 2 1 7 1
M  V30 3 1 8 4
M  V30 4 1 8 6
M  V30 5 1 12 1 CFG=1
M  V30 6 1 12 5
M  V30 7 1 12 7
M  V30 8 1 14 10
M  V30 9 1 15 2
M  V30 10 1 15 10
M  V30 11 1 16 10
M  V30 12 2 16 11
M  V30 13 1 17 12
M  V30 14 1 17 16
M  V30 15 1 18 5
M  V30 16 1 18 9
M  V30 17 2 18 15
M  V30 18 1 19 3
M  V30 19 2 19 13
M  V30 20 1 20 3
M  V30 21 1 20 7
M  V30 22 1 21 20
M  V30 23 1 22 4
M  V30 24 2 22 9
M  V30 25 1 23 8
M  V30 26 1 24 8
M  V30 27 1 25 21
M  V30 28 1 26 13
M  V30 29 1 26 25
M  V30 30 1 27 2
M  V30 31 1 28 3
M  V30 32 1 29 3
M  V30 33 1 30 5
M  V30 34 1 31 5
M  V30 35 1 7 32 CFG=1
M  V30 36 1 33 9
M  V30 37 1 10 34 CFG=1
M  V30 38 1 35 13
M  V30 39 1 36 17
M  V30 40 1 37 19
M  V30 41 1 20 38 CFG=3
M  V30 42 1 39 21
M  V30 43 1 40 21
M  V30 44 1 41 22
M  V30 45 1 42 25
M  V30 46 1 43 25
M  V30 47 1 44 26
M  V30 48 1 45 26
M  V30 END BOND
M  V30 END CTAB
M  END
>  <i_epik_Tot_Q>  (1) 
1

>  <i_epik_Tot_abs_Q>  (1) 
1

>  <i_i_glide_confnum>  (1) 
1

>  <i_i_glide_lignum>  (1) 
63

>  <i_i_glide_posenum>  (1) 
387

>  <i_i_glide_rotatable_bonds>  (1) 
2

>  <i_lp_mmshare_version>  (1) 
72125

>  <i_m_source_file_index>  (1) 
29

>  <i_f3d_flags>  (1) 
0

>  <num_sample>  (1) 
50

>  <b_lp_Chiralities_Consistent>  (1) 
1

>  <r_epik_Charging_Adjusted_Penalty>  (1) 
0

>  <r_epik_Ionization_Penalty>  (1) 
1.069405246037928e-05

>  <r_epik_Ionization_Penalty_Charging>  (1) 
0

>  <r_epik_Ionization_Penalty_Neutral>  (1) 
1.069405246037928e-05

>  <r_epik_State_Penalty>  (1) 
-0

>  <r_glide_ring_energy>  (1) 
1.0823529994595977

>  <r_i_docking_score>  (1) 
-6.4049033679655745

>  <r_i_glide_ecoul>  (1) 
-2.7064305958131429

>  <r_i_glide_eff_state_penalty>  (1) 
-0

>  <r_i_glide_einternal>  (1) 
0.36555324643822384

>  <r_i_glide_emodel>  (1) 
-45.289383823763742

>  <r_i_glide_emodel_strain>  (1) 
0.9116200099504681

>  <r_i_glide_energy>  (1) 
-33.812918129330313

>  <r_i_glide_erotb>  (1) 
0.12919976224793953

>  <r_i_glide_esite>  (1) 
-0.049901948955847833

>  <r_i_glide_evdw>  (1) 
-31.106487533517171

>  <r_i_glide_gscore>  (1) 
-6.4049033679655745

>  <r_i_glide_gscore_strain>  (1) 
0

>  <r_i_glide_hbond>  (1) 
-0.19548527419313055

>  <r_i_glide_ligand_efficiency>  (1) 
-0.24634243722944518

>  <r_i_glide_ligand_efficiency_ln>  (1) 
-1.5041705397646066

>  <r_i_glide_ligand_efficiency_sa>  (1) 
-0.72978850177412091

>  <r_i_glide_lipo>  (1) 
-2.3923727600895193

>  <r_i_glide_metal>  (1) 
-0

>  <r_i_glide_rewards>  (1) 
-1.9350541809271853

>  <r_lp_Energy>  (1) 
24.158424

>  <r_lp_tautomer_probability>  (1) 
1

>  <s_epik_cmdline>  (1) 
J2VwaWtfcHl0aG9uJywgJy1waHQnLCAnMS4wJywgJy1waCcsICc3LjQnLCAnLXRuJywgJzgnLCAnLW1hJywgJzUwMCcsICctaW1hZScsICc8aW5maWxlLm1hZT4nLCAnLW9tYWUnLCAnPG91dGZpbGUubWFlPic=

>  <s_epik_input>  (1) 
W0NIMl0xW0NIMl1bQ0gyXVtDSF09W0NIXVtDSDJdW0NAQEhdMVtDQEhdMk9bUEArXTIzW0NIMl1jNGMoW0NAQEhdKEYpQyg9TylbTkhdMylbY0hdYyhDKEYpKEYpRilbY0hdW2NIXTQ=

>  <s_glide_docking_method>  (1) 
confgen

>  <s_i_glide_gridfile>  (1) 
gpcr_5ht2c_6bqh_protein_autoprepared_prepared

>  <s_lp_Force_Field>  (1) 
S-OPLS

>  <s_lp_Variant>  (1) 
DiffSBDD_28-2

>  <s_m_source_file>  (1) 
generated_GPCR_5HT2C_ligand_DiffSBDD_2026-06-23_prepared.sdf

>  <GenAI_Model>  (1) 
DiffSBDD

>  <Protein>  (1) 
GPCR_5HT2C

$$$$
DiffSBDD_0
     RDKit          3D

  0  0  0  0  0  0  0  0  0  0999 V3000
M  V30 BEGIN CTAB
M  V30 COUNTS 73 75 0 0 1
M  V30 BEGIN ATOM
M  V30 1 C 41.081520 31.507143 66.120388 0
M  V30 2 C 41.188255 35.389257 65.248425 0
M  V30 3 O 39.701514 26.997897 57.917820 0
M  V30 4 C 41.083676 32.771401 63.961084 0
M  V30 5 C 36.864391 32.313418 60.298687 0 CFG=2
M  V30 6 C 38.013889 34.900118 61.511410 0
M  V30 7 C 39.462644 29.314189 57.433522 0
M  V30 8 C 38.532101 30.238393 56.576131 0 CFG=1
M  V30 9 C 38.332715 28.772145 54.569854 0
M  V30 10 C 38.657070 31.730336 56.949730 0
M  V30 11 N 37.645147 32.174169 57.920598 0 CHG=1
M  V30 12 O 35.577338 31.758304 60.567218 0
M  V30 13 C 41.187533 34.087500 66.096410 0
M  V30 14 C 39.907150 30.465343 54.510714 0
M  V30 15 C 41.085736 33.986687 61.697646 0 CFG=1
M  V30 16 C 37.677623 31.515619 59.250579 0
M  V30 17 C 41.154111 35.162420 63.744266 0
M  V30 18 C 41.166859 35.554688 61.459895 0
M  V30 19 C 37.517697 32.485270 61.696928 0 CFG=1
M  V30 20 C 38.884873 27.923754 57.727960 0
M  V30 21 N 38.636243 30.087742 55.117568 0
M  V30 22 C 39.685354 30.088427 53.047381 0
M  V30 23 F 41.881780 31.573283 67.183985 0
M  V30 24 C 41.107478 33.985485 63.179748 0
M  V30 25 C 41.117306 32.784958 65.302892 0
M  V30 26 O 38.074186 31.392640 62.148787 0 CHG=-1
M  V30 27 N 38.567959 33.543666 61.765310 0 CFG=1 CHG=1
M  V30 28 C 41.189740 36.345106 62.842425 0 CFG=1
M  V30 29 C 39.867736 33.281573 61.061053 0
M  V30 30 C 34.693840 31.803052 59.466385 0
M  V30 31 O 37.641263 27.819605 57.765238 0 CHG=-1
M  V30 32 O 40.068892 37.193069 63.018748 0
M  V30 33 C 38.705631 28.915420 53.092821 0
M  V30 34 H 40.067622 31.330104 66.481874 0
M  V30 35 H 41.388963 30.642342 65.530948 0
M  V30 36 H 42.074046 35.981704 65.482447 0
M  V30 37 H 40.330558 36.003964 65.518630 0
M  V30 38 H 41.032485 31.820588 63.446828 0
M  V30 39 H 36.698467 33.318774 59.905255 0
M  V30 40 H 38.154030 35.204607 60.474403 0
M  V30 41 H 36.950256 34.986556 61.737051 0
M  V30 42 H 38.496856 35.619787 62.157198 0
M  V30 43 H 40.442838 29.194059 56.976124 0
M  V30 44 H 39.655694 29.755796 58.408535 0
M  V30 45 H 37.493061 29.974090 56.777966 0
M  V30 46 H 38.965508 28.013484 55.031272 0
M  V30 47 H 37.289576 28.492802 54.718088 0
M  V30 48 H 38.496068 32.355982 56.071529 0
M  V30 49 H 39.645554 31.977290 57.310866 0
M  V30 50 H 36.711919 32.019704 57.499919 0
M  V30 51 H 40.354371 34.106575 66.800739 0
M  V30 52 H 42.097187 34.065466 66.694562 0
M  V30 53 H 40.133463 31.525170 54.624860 0
M  V30 54 H 40.728779 29.891338 54.941272 0
M  V30 55 H 42.012671 33.515427 61.367585 0
M  V30 56 H 38.713989 31.427749 59.560243 0
M  V30 57 H 37.300571 30.494818 59.183426 0
M  V30 58 H 40.371974 35.914940 60.813043 0
M  V30 59 H 42.073343 35.737770 60.891907 0
M  V30 60 H 36.713243 32.914257 62.282260 0
M  V30 61 H 40.610345 29.836998 52.532689 0
M  V30 62 H 39.246697 30.933349 52.519505 0
M  V30 63 H 42.106421 36.907008 62.975262 0
M  V30 64 H 39.790380 33.536529 60.003073 0
M  V30 65 H 40.116271 32.220812 61.091091 0
M  V30 66 H 33.654191 31.737755 59.766826 0
M  V30 67 H 34.778104 32.755534 58.947305 0
M  V30 68 H 34.885674 30.938296 58.828751 0
M  V30 69 H 40.244206 37.723570 63.786253 0
M  V30 70 H 39.152494 27.996157 52.714491 0
M  V30 71 H 37.824954 29.124634 52.486093 0
M  V30 72 H 38.808341 33.515805 62.745983 0
M  V30 73 H 37.751503 33.169541 58.029056 0
M  V30 END ATOM
M  V30 BEGIN BOND
M  V30 1 1 8 7
M  V30 2 1 10 8
M  V30 3 1 11 10
M  V30 4 1 12 5
M  V30 5 1 13 2
M  V30 6 1 16 5
M  V30 7 1 16 11
M  V30 8 1 17 2
M  V30 9 1 18 15
M  V30 10 1 19 5
M  V30 11 2 20 3
M  V30 12 1 20 7
M  V30 13 1 21 8
M  V30 14 1 21 9
M  V30 15 1 21 14
M  V30 16 1 22 14
M  V30 17 1 23 1
M  V30 18 1 24 4
M  V30 19 1 24 15
M  V30 20 2 24 17
M  V30 21 1 25 1
M  V30 22 2 25 4
M  V30 23 1 25 13
M  V30 24 1 26 19
M  V30 25 1 27 6
M  V30 26 1 27 19
M  V30 27 1 28 17
M  V30 28 1 28 18
M  V30 29 1 29 15
M  V30 30 1 29 27
M  V30 31 1 30 12
M  V30 32 1 31 20
M  V30 33 1 32 28
M  V30 34 1 33 9
M  V30 35 1 33 22
M  V30 36 1 34 1
M  V30 37 1 35 1
M  V30 38 1 36 2
M  V30 39 1 37 2
M  V30 40 1 38 4
M  V30 41 1 5 39 CFG=3
M  V30 42 1 40 6
M  V30 43 1 41 6
M  V30 44 1 42 6
M  V30 45 1 43 7
M  V30 46 1 44 7
M  V30 47 1 8 45 CFG=1
M  V30 48 1 46 9
M  V30 49 1 47 9
M  V30 50 1 48 10
M  V30 51 1 49 10
M  V30 52 1 50 11
M  V30 53 1 51 13
M  V30 54 1 52 13
M  V30 55 1 53 14
M  V30 56 1 54 14
M  V30 57 1 15 55 CFG=3
M  V30 58 1 56 16
M  V30 59 1 57 16
M  V30 60 1 58 18
M  V30 61 1 59 18
M  V30 62 1 19 60 CFG=1
M  V30 63 1 61 22
M  V30 64 1 62 22
M  V30 65 1 28 63 CFG=1
M  V30 66 1 64 29
M  V30 67 1 65 29
M  V30 68 1 66 30
M  V30 69 1 67 30
M  V30 70 1 68 30
M  V30 71 1 69 32
M  V30 72 1 70 33
M  V30 73 1 71 33
M  V30 74 1 27 72 CFG=1
M  V30 75 1 73 11
M  V30 END BOND
M  V30 END CTAB
M  END
>  <i_epik_Tot_Q>  (1) 
0

>  <i_epik_Tot_abs_Q>  (1) 
4

>  <i_i_glide_confnum>  (1) 
654

>  <i_i_glide_lignum>  (1) 
4

>  <i_i_glide_posenum>  (1) 
122

>  <i_i_glide_rotatable_bonds>  (1) 
14

>  <i_lp_mmshare_version>  (1) 
72125

>  <i_m_source_file_index>  (1) 
1

>  <i_f3d_flags>  (1) 
0

>  <num_sample>  (1) 
50

>  <b_lp_Chiralities_Consistent>  (1) 
1

>  <r_epik_Charging_Adjusted_Penalty>  (1) 
0.77514762265790937

>  <r_epik_Ionization_Penalty>  (1) 
0.13961133491552177

>  <r_epik_Ionization_Penalty_Charging>  (1) 
0.038557878483332003

>  <r_epik_Ionization_Penalty_Neutral>  (1) 
0.10105345643218977

>  <r_epik_State_Penalty>  (1) 
0.73658974417457734

>  <r_glide_ring_energy>  (1) 
0.0045750838620950583

>  <r_i_docking_score>  (1) 
-6.3984445520384838

>  <r_i_glide_ecoul>  (1) 
-10.684299088352766

>  <r_i_glide_eff_state_penalty>  (1) 
0.73658974417457734

>  <r_i_glide_einternal>  (1) 
18.051545673133283

>  <r_i_glide_emodel>  (1) 
-63.29333591465155

>  <r_i_glide_emodel_strain>  (1) 
0.77991984082689214

>  <r_i_glide_energy>  (1) 
-45.426765691462528

>  <r_i_glide_erotb>  (1) 
0.82434179411086872

>  <r_i_glide_esite>  (1) 
-0.10000000000000001

>  <r_i_glide_evdw>  (1) 
-34.742466603109762

>  <r_i_glide_gscore>  (1) 
-7.1350342962130613

>  <r_i_glide_gscore_strain>  (1) 
0

>  <r_i_glide_hbond>  (1) 
-0.44257922925126403

>  <r_i_glide_ligand_efficiency>  (1) 
-0.19389225915268132

>  <r_i_glide_ligand_efficiency_ln>  (1) 
-1.4229809390005141

>  <r_i_glide_ligand_efficiency_sa>  (1) 
-0.62191607755267286

>  <r_i_glide_lipo>  (1) 
-3.0405716904169937

>  <r_i_glide_metal>  (1) 
-0

>  <r_i_glide_rewards>  (1) 
-1.0364569772472689

>  <r_lp_Energy>  (1) 
31.744567

>  <s_epik_Chemistry_Notes>  (1) 
This compound contains an acetal/aminal-like group ( X-CH(R)-Y where X, Y are N, S, or O) that may be acid/base labile, releasing an aldehyde.

>  <s_epik_cmdline>  (1) 
J2VwaWtfcHl0aG9uJywgJy1waHQnLCAnMS4wJywgJy1waCcsICc3LjQnLCAnLXRuJywgJzgnLCAnLW1hJywgJzUwMCcsICctaW1hZScsICc8aW5maWxlLm1hZT4nLCAnLW9tYWUnLCAnPG91dGZpbGUubWFlPic=

>  <s_epik_input>  (1) 
W0NIMl0xW0NIMl1DKFtDSDJdRik9W0NIXUMoPUMxMilbQ0BIXShbQ0gyXVtDQEhdMltPSF0pW0NIMl1OKFtDSDNdKVtDQEhdKFtPSF0pW0NASF0oT1tDSDNdKVtDSDJdW05IXVtDSDJdW0NASF0oW0NIMl1DKD1PKVtPSF0pTjNbQ0gyXVtDSDJdW0NIMl1bQ0gyXTM=

>  <s_glide_docking_method>  (1) 
confgen

>  <s_i_glide_gridfile>  (1) 
gpcr_5ht2c_6bqh_protein_autoprepared_prepared

>  <s_lp_Force_Field>  (1) 
S-OPLS

>  <s_lp_Variant>  (1) 
DiffSBDD_0-4

>  <s_m_source_file>  (1) 
generated_GPCR_5HT2C_ligand_DiffSBDD_2026-06-23_prepared.sdf

>  <GenAI_Model>  (1) 
DiffSBDD

>  <Protein>  (1) 
GPCR_5HT2C

$$$$
DiffSBDD_1
     RDKit          3D

  0  0  0  0  0  0  0  0  0  0999 V3000
M  V30 BEGIN CTAB
M  V30 COUNTS 78 81 0 0 1
M  V30 BEGIN ATOM
M  V30 1 C 39.802477 29.680077 59.637022 0
M  V30 2 N 38.710439 27.467994 56.107399 0
M  V30 3 C 39.245132 29.402751 52.887637 0 CFG=1
M  V30 4 C 39.404134 27.957029 52.412112 0
M  V30 5 C 41.097801 32.356858 67.807517 0
M  V30 6 C 39.403314 30.613789 62.888973 0
M  V30 7 C 39.436782 29.364987 54.416001 0
M  V30 8 C 39.409344 27.869555 54.854692 0 CFG=2
M  V30 9 C 41.518653 33.386219 64.921383 0
M  V30 10 N 40.430041 30.066594 62.005313 0
M  V30 11 O 43.929422 26.137747 63.367770 0
M  V30 12 C 40.368734 29.562654 63.365159 0 CFG=1
M  V30 13 C 42.440967 32.225043 64.975187 0 CFG=2
M  V30 14 O 42.539312 31.401426 63.729797 0
M  V30 15 C 42.806356 24.946325 65.132295 0
M  V30 16 C 40.165973 30.410045 50.893853 0
M  V30 17 C 41.689566 31.191678 65.672274 0
M  V30 18 C 37.839372 28.469475 56.754870 0
M  V30 19 C 42.616986 27.435921 64.882663 0
M  V30 20 O 40.503600 30.085490 67.304512 0
M  V30 21 O 39.627220 25.380531 56.103153 0
M  V30 22 C 43.225982 28.778408 64.454587 0
M  V30 23 O 40.191198 30.293970 52.309736 0
M  V30 24 O 42.045145 35.404704 66.026339 0
M  V30 25 P 41.810056 29.983334 64.423809 0 CFG=1 CHG=1
M  V30 26 C 43.545705 26.233242 64.725660 0 CFG=2
M  V30 27 C 41.109823 31.207895 66.883508 0
M  V30 28 C 37.466515 26.815617 53.540800 0
M  V30 29 O 38.986061 28.844060 58.844020 0
M  V30 30 C 38.887274 26.215184 56.624548 0
M  V30 31 C 38.117229 25.850583 57.898246 0
M  V30 32 C 41.376157 33.674200 67.526673 0
M  V30 33 C 41.684411 34.241245 66.167265 0
M  V30 34 C 38.632865 29.458693 57.618499 0
M  V30 35 C 38.969286 27.091834 53.597351 0 CFG=1
M  V30 36 C 39.894467 29.103225 61.046000 0
M  V30 37 H 39.377150 30.685289 59.681660 0
M  V30 38 H 40.797240 29.737754 59.194503 0
M  V30 39 H 38.232619 29.737645 52.671975 0
M  V30 40 H 38.831931 27.755718 51.505072 0
M  V30 41 H 40.445128 27.750643 52.167735 0
M  V30 42 H 40.846217 32.135174 68.835053 0
M  V30 43 H 38.394784 30.344789 62.582277 0
M  V30 44 H 39.601978 31.662367 63.102046 0
M  V30 45 H 38.685654 30.011440 54.859790 0
M  V30 46 H 40.397554 29.801390 54.693686 0
M  V30 47 H 40.445136 27.593031 55.028938 0
M  V30 48 H 41.759333 34.010013 64.059536 0
M  V30 49 H 40.473338 33.097003 64.805245 0
M  V30 50 H 44.414857 26.909232 63.111098 0
M  V30 51 H 40.045151 28.524656 63.367763 0
M  V30 52 H 43.433478 32.452283 65.367913 0
M  V30 53 H 42.477712 24.997371 66.170172 0
M  V30 54 H 41.919668 24.795861 64.515643 0
M  V30 55 H 43.420286 24.053371 65.038259 0
M  V30 56 H 40.985256 31.053184 50.574829 0
M  V30 57 H 40.294593 29.451450 50.391765 0
M  V30 58 H 39.245132 30.865315 50.542729 0
M  V30 59 H 37.060660 28.038401 57.377010 0
M  V30 60 H 37.271372 29.002136 55.993930 0
M  V30 61 H 42.287091 27.504260 65.920561 0
M  V30 62 H 41.719663 27.238958 64.294502 0
M  V30 63 H 40.519912 29.425508 66.633151 0
M  V30 64 H 43.672110 28.722648 63.461607 0
M  V30 65 H 44.006139 29.091276 65.148078 0
M  V30 66 H 44.433942 26.367973 65.345237 0
M  V30 67 H 36.872700 27.721131 53.665377 0
M  V30 68 H 37.245143 26.397764 52.568002 0
M  V30 69 H 37.157712 26.088316 54.290210 0
M  V30 70 H 37.039016 25.906079 57.748849 0
M  V30 71 H 38.340905 24.819101 58.167614 0
M  V30 72 H 38.407664 26.474580 58.740752 0
M  V30 73 H 41.346025 34.384924 68.339809 0
M  V30 74 H 38.009097 30.331141 57.822321 0
M  V30 75 H 39.523135 29.814493 57.099442 0
M  V30 76 H 39.491246 26.137754 53.544721 0
M  V30 77 H 40.531691 28.217726 61.018185 0
M  V30 78 H 38.909289 28.744935 61.347562 0
M  V30 END ATOM
M  V30 BEGIN BOND
M  V30 1 1 4 3
M  V30 2 1 7 3
M  V30 3 1 8 2
M  V30 4 1 8 7
M  V30 5 1 10 6
M  V30 6 1 12 6
M  V30 7 1 12 10
M  V30 8 1 13 9
M  V30 9 1 14 13
M  V30 10 1 17 13
M  V30 11 1 18 2
M  V30 12 1 22 19
M  V30 13 1 23 3
M  V30 14 1 23 16
M  V30 15 1 25 12
M  V30 16 1 25 14
M  V30 17 1 25 17
M  V30 18 1 25 22 CFG=1
M  V30 19 1 26 11
M  V30 20 1 26 15
M  V30 21 1 26 19
M  V30 22 1 27 5
M  V30 23 2 27 17
M  V30 24 1 27 20
M  V30 25 1 29 1
M  V30 26 1 30 2
M  V30 27 2 30 21
M  V30 28 1 31 30
M  V30 29 2 32 5
M  V30 30 1 33 9
M  V30 31 2 33 24
M  V30 32 1 33 32
M  V30 33 1 34 18
M  V30 34 1 34 29
M  V30 35 1 35 4
M  V30 36 1 35 8
M  V30 37 1 35 28
M  V30 38 1 36 1
M  V30 39 1 36 10
M  V30 40 1 37 1
M  V30 41 1 38 1
M  V30 42 1 3 39 CFG=1
M  V30 43 1 40 4
M  V30 44 1 41 4
M  V30 45 1 42 5
M  V30 46 1 43 6
M  V30 47 1 44 6
M  V30 48 1 45 7
M  V30 49 1 46 7
M  V30 50 1 8 47 CFG=1
M  V30 51 1 48 9
M  V30 52 1 49 9
M  V30 53 1 50 11
M  V30 54 1 12 51 CFG=3
M  V30 55 1 13 52 CFG=1
M  V30 56 1 53 15
M  V30 57 1 54 15
M  V30 58 1 55 15
M  V30 59 1 56 16
M  V30 60 1 57 16
M  V30 61 1 58 16
M  V30 62 1 59 18
M  V30 63 1 60 18
M  V30 64 1 61 19
M  V30 65 1 62 19
M  V30 66 1 63 20
M  V30 67 1 64 22
M  V30 68 1 65 22
M  V30 69 1 26 66 CFG=1
M  V30 70 1 67 28
M  V30 71 1 68 28
M  V30 72 1 69 28
M  V30 73 1 70 31
M  V30 74 1 71 31
M  V30 75 1 72 31
M  V30 76 1 73 32
M  V30 77 1 74 34
M  V30 78 1 75 34
M  V30 79 1 35 76 CFG=3
M  V30 80 1 77 36
M  V30 81 1 78 36
M  V30 END BOND
M  V30 END CTAB
M  END
>  <i_epik_Tot_Q>  (1) 
1

>  <i_epik_Tot_abs_Q>  (1) 
1

>  <i_i_glide_confnum>  (1) 
1706

>  <i_i_glide_lignum>  (1) 
7

>  <i_i_glide_posenum>  (1) 
332

>  <i_i_glide_rotatable_bonds>  (1) 
15

>  <i_lp_mmshare_version>  (1) 
72125

>  <i_m_source_file_index>  (1) 
2

>  <i_f3d_flags>  (1) 
0

>  <num_sample>  (1) 
50

>  <b_lp_Chiralities_Consistent>  (1) 
1

>  <r_epik_Charging_Adjusted_Penalty>  (1) 
0.012777702237649643

>  <r_epik_Ionization_Penalty>  (1) 
0.012893064322698497

>  <r_epik_Ionization_Penalty_Charging>  (1) 
0

>  <r_epik_Ionization_Penalty_Neutral>  (1) 
0.012893064322698497

>  <r_epik_State_Penalty>  (1) 
0.012777702237649643

>  <r_glide_ring_energy>  (1) 
1.6816026439138838

>  <r_i_docking_score>  (1) 
-6.3954626056375492

>  <r_i_glide_ecoul>  (1) 
-3.6029167850148305

>  <r_i_glide_eff_state_penalty>  (1) 
0.012777702237649643

>  <r_i_glide_einternal>  (1) 
6.6742378975309009

>  <r_i_glide_emodel>  (1) 
-60.54458581043211

>  <r_i_glide_emodel_strain>  (1) 
0.013026789438086439

>  <r_i_glide_energy>  (1) 
-47.412272461470494

>  <r_i_glide_erotb>  (1) 
0.81958699115176215

>  <r_i_glide_esite>  (1) 
0

>  <r_i_glide_evdw>  (1) 
-43.809355676455667

>  <r_i_glide_gscore>  (1) 
-6.4082403078751993

>  <r_i_glide_gscore_strain>  (1) 
0

>  <r_i_glide_hbond>  (1) 
-0.035119080742884536

>  <r_i_glide_ligand_efficiency>  (1) 
-0.17765173904548748

>  <r_i_glide_ligand_efficiency_ln>  (1) 
-1.3953171551183261

>  <r_i_glide_ligand_efficiency_sa>  (1) 
-0.58659311796781277

>  <r_i_glide_lipo>  (1) 
-3.5569168076851696

>  <r_i_glide_metal>  (1) 
-0

>  <r_i_glide_rewards>  (1) 
-0.90488610902389977

>  <r_lp_Energy>  (1) 
33.116859999999996

>  <s_epik_cmdline>  (1) 
J2VwaWtfcHl0aG9uJywgJy1waHQnLCAnMS4wJywgJy1waCcsICc3LjQnLCAnLXRuJywgJzgnLCAnLW1hJywgJzUwMCcsICctaW1hZScsICc8aW5maWxlLm1hZT4nLCAnLW9tYWUnLCAnPG91dGZpbGUubWFlPic=

>  <s_epik_input>  (1) 
W0NIM11PW0NASF0xW0NIMl1bQ0BIXShbQ0gzXSlbQ0BASF0oW0NIMl0xKU4oQyg9TylbQ0gzXSlbQ0gyXVtDSDJdT1tDSDJdW0NIMl1OMltDSDJdW0NIXTJbUEBAK10oTzMpKFtDSDJdW0NIMl1bQ0BIXShbT0hdKVtDSDNdKUMoW0NAQEhdMzQpPUMoW09IXSlbQ0hdPVtDSF1DKD1PKVtDSDJdNA==

>  <s_glide_docking_method>  (1) 
confgen

>  <s_i_glide_gridfile>  (1) 
gpcr_5ht2c_6bqh_protein_autoprepared_prepared

>  <s_lp_Force_Field>  (1) 
S-OPLS

>  <s_lp_Variant>  (1) 
DiffSBDD_1-3

>  <s_m_source_file>  (1) 
generated_GPCR_5HT2C_ligand_DiffSBDD_2026-06-23_prepared.sdf

>  <GenAI_Model>  (1) 
DiffSBDD

>  <Protein>  (1) 
GPCR_5HT2C

$$$$
DiffSBDD_0
     RDKit          3D

  0  0  0  0  0  0  0  0  0  0999 V3000
M  V30 BEGIN CTAB
M  V30 COUNTS 73 75 0 0 1
M  V30 BEGIN ATOM
M  V30 1 C 40.112221 29.305024 50.034251 0
M  V30 2 C 39.368116 31.424117 53.287056 0
M  V30 3 O 40.045113 33.876101 60.903431 0
M  V30 4 C 39.090495 28.736983 52.239405 0
M  V30 5 C 40.228473 27.748960 57.866895 0 CFG=2
M  V30 6 C 38.333297 25.058303 55.726508 0
M  V30 7 C 39.320763 31.768056 61.746075 0
M  V30 8 C 38.391078 31.605401 60.501981 0 CFG=1
M  V30 9 C 37.078792 33.644398 60.927502 0
M  V30 10 C 38.274320 30.095948 60.188014 0
M  V30 11 N 39.239562 29.668756 59.158679 0 CHG=1
M  V30 12 O 41.447868 27.697184 58.603156 0
M  V30 13 C 39.897548 31.082452 51.873273 0
M  V30 14 C 36.248172 32.170018 59.429366 0
M  V30 15 C 38.039307 28.090380 54.491667 0 CFG=1
M  V30 16 C 39.164803 28.222168 58.886050 0
M  V30 17 C 38.756216 30.285916 54.041967 0
M  V30 18 C 37.554560 29.145567 55.581432 0
M  V30 19 C 39.903335 26.352701 57.209207 0 CFG=1
M  V30 20 C 40.070200 33.100629 61.882169 0
M  V30 21 N 37.051118 32.209434 60.654999 0
M  V30 22 C 35.083960 33.117756 59.712818 0
M  V30 23 F 41.066261 30.137303 49.606189 0
M  V30 24 C 38.640480 29.074661 53.571434 0
M  V30 25 C 39.666240 29.643959 51.433242 0
M  V30 26 O 39.392334 25.628771 58.167760 0 CHG=-1
M  V30 27 N 38.824796 26.392136 56.169494 0 CFG=1 CHG=1
M  V30 28 C 38.233420 30.547604 55.405620 0 CFG=1
M  V30 29 C 39.188428 27.195919 54.980832 0
M  V30 30 C 42.648085 27.798503 57.851938 0
M  V30 31 O 40.659045 33.308205 62.963803 0 CHG=-1
M  V30 32 O 39.258049 30.759372 56.351315 0
M  V30 33 C 35.650717 34.121116 60.701039 0
M  V30 34 H 40.445024 28.272175 49.971575 0
M  V30 35 H 39.267537 29.407362 49.362007 0
M  V30 36 H 38.635697 32.228472 53.252177 0
M  V30 37 H 40.196296 31.737620 53.914426 0
M  V30 38 H 38.947167 27.728107 51.878247 0
M  V30 39 H 40.349029 28.524366 57.114884 0
M  V30 40 H 39.157018 24.488783 55.298269 0
M  V30 41 H 37.897919 24.476656 56.538775 0
M  V30 42 H 37.560451 25.161859 54.964068 0
M  V30 43 H 38.756878 31.585213 62.661018 0
M  V30 44 H 40.103226 31.008833 61.722433 0
M  V30 45 H 38.855534 32.094101 59.644064 0
M  V30 46 H 37.433661 33.875098 61.930127 0
M  V30 47 H 37.728452 34.145885 60.208317 0
M  V30 48 H 37.284234 29.807788 59.842040 0
M  V30 49 H 38.445189 29.510539 61.091173 0
M  V30 50 H 40.170553 29.882581 59.484150 0
M  V30 51 H 40.961086 31.305286 51.823848 0
M  V30 52 H 39.436558 31.738481 51.135288 0
M  V30 53 H 36.834611 32.542641 58.585886 0
M  V30 54 H 35.877249 31.179592 59.168847 0
M  V30 55 H 37.215860 27.532194 54.042075 0
M  V30 56 H 38.161118 27.987239 58.537736 0
M  V30 57 H 39.289238 27.672298 59.820501 0
M  V30 58 H 37.589059 28.782401 56.603064 0
M  V30 59 H 36.507292 29.352726 55.365470 0
M  V30 60 H 40.788887 26.031394 56.664357 0
M  V30 61 H 34.251623 32.577835 60.160618 0
M  V30 62 H 34.720924 33.596008 58.803256 0
M  V30 63 H 37.506327 31.362085 55.419162 0
M  V30 64 H 39.525792 26.542464 54.173607 0
M  V30 65 H 40.053320 27.821408 55.183399 0
M  V30 66 H 43.484320 27.477239 58.471990 0
M  V30 67 H 42.651519 27.166955 56.969534 0
M  V30 68 H 42.839573 28.827788 57.551913 0
M  V30 69 H 39.608581 31.626166 56.196774 0
M  V30 70 H 35.086817 34.110181 61.634824 0
M  V30 71 H 35.645173 35.133352 60.295930 0
M  V30 72 H 38.048685 26.846542 56.625124 0
M  V30 73 H 39.071794 30.179720 58.298224 0
M  V30 END ATOM
M  V30 BEGIN BOND
M  V30 1 1 8 7
M  V30 2 1 10 8
M  V30 3 1 11 10
M  V30 4 1 12 5
M  V30 5 1 13 2
M  V30 6 1 16 5
M  V30 7 1 16 11
M  V30 8 1 17 2
M  V30 9 1 18 15
M  V30 10 1 19 5
M  V30 11 2 20 3
M  V30 12 1 20 7
M  V30 13 1 21 8
M  V30 14 1 21 9
M  V30 15 1 21 14
M  V30 16 1 22 14
M  V30 17 1 23 1
M  V30 18 1 24 4
M  V30 19 1 24 15
M  V30 20 2 24 17
M  V30 21 1 25 1
M  V30 22 2 25 4
M  V30 23 1 25 13
M  V30 24 1 26 19
M  V30 25 1 27 6
M  V30 26 1 27 19
M  V30 27 1 28 17
M  V30 28 1 28 18
M  V30 29 1 29 15
M  V30 30 1 29 27
M  V30 31 1 30 12
M  V30 32 1 31 20
M  V30 33 1 32 28
M  V30 34 1 33 9
M  V30 35 1 33 22
M  V30 36 1 34 1
M  V30 37 1 35 1
M  V30 38 1 36 2
M  V30 39 1 37 2
M  V30 40 1 38 4
M  V30 41 1 5 39 CFG=3
M  V30 42 1 40 6
M  V30 43 1 41 6
M  V30 44 1 42 6
M  V30 45 1 43 7
M  V30 46 1 44 7
M  V30 47 1 8 45 CFG=3
M  V30 48 1 46 9
M  V30 49 1 47 9
M  V30 50 1 48 10
M  V30 51 1 49 10
M  V30 52 1 50 11
M  V30 53 1 51 13
M  V30 54 1 52 13
M  V30 55 1 53 14
M  V30 56 1 54 14
M  V30 57 1 15 55 CFG=3
M  V30 58 1 56 16
M  V30 59 1 57 16
M  V30 60 1 58 18
M  V30 61 1 59 18
M  V30 62 1 19 60 CFG=3
M  V30 63 1 61 22
M  V30 64 1 62 22
M  V30 65 1 28 63 CFG=3
M  V30 66 1 64 29
M  V30 67 1 65 29
M  V30 68 1 66 30
M  V30 69 1 67 30
M  V30 70 1 68 30
M  V30 71 1 69 32
M  V30 72 1 70 33
M  V30 73 1 71 33
M  V30 74 1 27 72 CFG=1
M  V30 75 1 73 11
M  V30 END BOND
M  V30 END CTAB
M  END
>  <i_epik_Tot_Q>  (1) 
0

>  <i_epik_Tot_abs_Q>  (1) 
4

>  <i_i_glide_confnum>  (1) 
3221

>  <i_i_glide_lignum>  (1) 
4

>  <i_i_glide_posenum>  (1) 
372

>  <i_i_glide_rotatable_bonds>  (1) 
14

>  <i_lp_mmshare_version>  (1) 
72125

>  <i_m_source_file_index>  (1) 
1

>  <i_f3d_flags>  (1) 
0

>  <num_sample>  (1) 
50

>  <b_lp_Chiralities_Consistent>  (1) 
1

>  <r_epik_Charging_Adjusted_Penalty>  (1) 
0.77514762265790937

>  <r_epik_Ionization_Penalty>  (1) 
0.13961133491552177

>  <r_epik_Ionization_Penalty_Charging>  (1) 
0.038557878483332003

>  <r_epik_Ionization_Penalty_Neutral>  (1) 
0.10105345643218977

>  <r_epik_State_Penalty>  (1) 
0.73658974417457734

>  <r_glide_ring_energy>  (1) 
0

>  <r_i_docking_score>  (1) 
-6.391444788751893

>  <r_i_glide_ecoul>  (1) 
-3.633338592134411

>  <r_i_glide_eff_state_penalty>  (1) 
0.73658974417457734

>  <r_i_glide_einternal>  (1) 
5.8125146807408044

>  <r_i_glide_emodel>  (1) 
-64.547906244754188

>  <r_i_glide_emodel_strain>  (1) 
1.3781913332101823

>  <r_i_glide_energy>  (1) 
-41.187239650386744

>  <r_i_glide_erotb>  (1) 
0.82434179411086872

>  <r_i_glide_esite>  (1) 
0

>  <r_i_glide_evdw>  (1) 
-37.553901058252329

>  <r_i_glide_gscore>  (1) 
-7.1280345329264705

>  <r_i_glide_gscore_strain>  (1) 
0

>  <r_i_glide_hbond>  (1) 
0

>  <r_i_glide_ligand_efficiency>  (1) 
-0.19368014511369372

>  <r_i_glide_ligand_efficiency_ln>  (1) 
-1.4214242278884111

>  <r_i_glide_ligand_efficiency_sa>  (1) 
-0.6212357144907461

>  <r_i_glide_lipo>  (1) 
-3.692785869055955

>  <r_i_glide_metal>  (1) 
-0

>  <r_i_glide_rewards>  (1) 
-1.8368946162486062

>  <r_lp_Energy>  (1) 
31.744567

>  <s_epik_Chemistry_Notes>  (1) 
This compound contains an acetal/aminal-like group ( X-CH(R)-Y where X, Y are N, S, or O) that may be acid/base labile, releasing an aldehyde.

>  <s_epik_cmdline>  (1) 
J2VwaWtfcHl0aG9uJywgJy1waHQnLCAnMS4wJywgJy1waCcsICc3LjQnLCAnLXRuJywgJzgnLCAnLW1hJywgJzUwMCcsICctaW1hZScsICc8aW5maWxlLm1hZT4nLCAnLW9tYWUnLCAnPG91dGZpbGUubWFlPic=

>  <s_epik_input>  (1) 
W0NIMl0xW0NIMl1DKFtDSDJdRik9W0NIXUMoPUMxMilbQ0BIXShbQ0gyXVtDQEhdMltPSF0pW0NIMl1OKFtDSDNdKVtDQEhdKFtPSF0pW0NASF0oT1tDSDNdKVtDSDJdW05IXVtDSDJdW0NASF0oW0NIMl1DKD1PKVtPSF0pTjNbQ0gyXVtDSDJdW0NIMl1bQ0gyXTM=

>  <s_glide_docking_method>  (1) 
confgen

>  <s_i_glide_gridfile>  (1) 
gpcr_5ht2c_6bqh_protein_autoprepared_prepared

>  <s_lp_Force_Field>  (1) 
S-OPLS

>  <s_lp_Variant>  (1) 
DiffSBDD_0-4

>  <s_m_source_file>  (1) 
generated_GPCR_5HT2C_ligand_DiffSBDD_2026-06-23_prepared.sdf

>  <GenAI_Model>  (1) 
DiffSBDD

>  <Protein>  (1) 
GPCR_5HT2C

$$$$
DiffSBDD_19
     RDKit          3D

  0  0  0  0  0  0  0  0  0  0999 V3000
M  V30 BEGIN CTAB
M  V30 COUNTS 70 72 0 0 1
M  V30 BEGIN ATOM
M  V30 1 O 39.011515 25.113709 57.135309 0
M  V30 2 C 39.645119 29.671589 53.544683 0
M  V30 3 C 36.421355 33.713640 61.079382 0
M  V30 4 C 39.638549 29.588673 51.110818 0
M  V30 5 C 39.245141 28.295450 53.595099 0
M  V30 6 C 39.952289 30.445244 54.803451 0
M  V30 7 C 36.450860 23.335272 55.377965 0
M  V30 8 C 39.086014 29.962462 58.473697 0
M  V30 9 C 37.220454 34.494466 60.047289 0 CFG=2
M  V30 10 N 36.446848 35.550844 59.371526 0
M  V30 11 F 39.246412 31.410734 49.688672 0
M  V30 12 C 38.997757 27.603285 52.387918 0
M  V30 13 F 41.225610 30.513888 49.678865 0
M  V30 14 C 37.002681 36.877397 59.584060 0
M  V30 15 C 37.582811 29.863021 58.705063 0 CFG=2
M  V30 16 C 36.865995 30.070005 56.189873 0
M  V30 17 C 37.302965 26.176541 55.745987 0
M  V30 18 O 37.213141 23.892816 56.439514 0
M  V30 19 O 35.645142 34.170731 61.906904 0
M  V30 20 C 39.835083 30.298641 52.303809 0
M  V30 21 C 38.108888 24.889270 56.078540 0 CFG=2
M  V30 22 C 39.244742 27.518934 54.927661 0
M  V30 23 N 37.446235 32.072373 59.827756 0
M  V30 24 C 39.920668 30.264168 49.785246 0
M  V30 25 C 39.196716 28.248365 51.149135 0
M  V30 26 C 37.073064 29.155848 57.445601 0 CFG=1
M  V30 27 O 36.845217 37.190566 60.949623 0
M  V30 28 C 39.450407 28.618026 57.808548 0
M  V30 29 C 38.119762 28.051160 57.207026 0 CFG=2
M  V30 30 N 36.684410 32.431910 60.908625 0
M  V30 31 N 38.045163 27.477233 55.806071 0 CFG=2 CHG=1
M  V30 32 C 37.605013 33.346471 59.090232 0
M  V30 33 N 36.845138 31.113678 58.967717 0 CHG=1
M  V30 34 H 39.476714 24.304947 57.294646 0
M  V30 35 H 39.668836 31.490808 54.679907 0
M  V30 36 H 39.441388 30.076405 55.673354 0
M  V30 37 H 41.028390 30.416145 54.967744 0
M  V30 38 H 37.090162 22.964525 54.575021 0
M  V30 39 H 35.874771 22.493363 55.763027 0
M  V30 40 H 35.741354 24.053215 54.967743 0
M  V30 41 H 39.295738 30.791542 57.798720 0
M  V30 42 H 39.645837 30.134869 59.394738 0
M  V30 43 H 38.113134 34.889210 60.535815 0
M  V30 44 H 36.369741 35.392933 58.371913 0
M  V30 45 H 38.710135 26.561931 52.409216 0
M  V30 46 H 36.444155 37.581790 58.976781 0
M  V30 47 H 38.045131 36.937850 59.287921 0
M  V30 48 H 37.429118 29.217002 59.571166 0
M  V30 49 H 37.246321 31.079970 56.330695 0
M  V30 50 H 37.322545 29.724965 55.269619 0
M  V30 51 H 35.819819 30.137730 55.902326 0
M  V30 52 H 36.445890 26.188591 56.420681 0
M  V30 53 H 36.895458 26.064519 54.740569 0
M  V30 54 H 40.171128 31.326508 52.266704 0
M  V30 55 H 38.703060 24.541860 55.230274 0
M  V30 56 H 40.160580 27.759378 55.446540 0
M  V30 57 H 39.476437 26.502056 54.621158 0
M  V30 58 H 39.645142 29.634510 48.941699 0
M  V30 59 H 39.041046 27.704610 50.228131 0
M  V30 60 H 36.125521 28.726506 57.767763 0
M  V30 61 H 36.364744 38.001851 61.018011 0
M  V30 62 H 40.298195 28.773865 57.152219 0
M  V30 63 H 39.811088 27.920903 58.567177 0
M  V30 64 H 37.841075 27.252671 57.897014 0
M  V30 65 H 36.280617 31.713171 61.485382 0
M  V30 66 H 36.945994 33.361690 58.218210 0
M  V30 67 H 38.627995 33.445581 58.725738 0
M  V30 68 H 35.941881 30.896375 59.360074 0
M  V30 69 H 36.644356 31.586819 58.084442 0
M  V30 70 H 37.420793 28.123014 55.345174 0
M  V30 END ATOM
M  V30 BEGIN BOND
M  V30 1 2 5 2
M  V30 2 1 6 2
M  V30 3 1 9 3
M  V30 4 1 10 9
M  V30 5 1 12 5
M  V30 6 1 14 10
M  V30 7 1 15 8
M  V30 8 1 18 7
M  V30 9 2 19 3
M  V30 10 1 20 2
M  V30 11 2 20 4
M  V30 12 1 21 1
M  V30 13 1 21 17
M  V30 14 1 21 18
M  V30 15 1 22 5
M  V30 16 1 24 4
M  V30 17 1 24 11
M  V30 18 1 24 13
M  V30 19 1 25 4
M  V30 20 2 25 12
M  V30 21 1 26 15
M  V30 22 1 26 16
M  V30 23 1 27 14
M  V30 24 1 28 8
M  V30 25 1 29 26
M  V30 26 1 29 28
M  V30 27 1 30 3
M  V30 28 1 30 23
M  V30 29 1 31 17
M  V30 30 1 31 22
M  V30 31 1 31 29
M  V30 32 1 32 9
M  V30 33 1 32 23
M  V30 34 1 33 15
M  V30 35 1 33 23
M  V30 36 1 34 1
M  V30 37 1 35 6
M  V30 38 1 36 6
M  V30 39 1 37 6
M  V30 40 1 38 7
M  V30 41 1 39 7
M  V30 42 1 40 7
M  V30 43 1 41 8
M  V30 44 1 42 8
M  V30 45 1 9 43 CFG=1
M  V30 46 1 44 10
M  V30 47 1 45 12
M  V30 48 1 46 14
M  V30 49 1 47 14
M  V30 50 1 15 48 CFG=1
M  V30 51 1 49 16
M  V30 52 1 50 16
M  V30 53 1 51 16
M  V30 54 1 52 17
M  V30 55 1 53 17
M  V30 56 1 54 20
M  V30 57 1 21 55 CFG=3
M  V30 58 1 56 22
M  V30 59 1 57 22
M  V30 60 1 58 24
M  V30 61 1 59 25
M  V30 62 1 26 60 CFG=1
M  V30 63 1 61 27
M  V30 64 1 62 28
M  V30 65 1 63 28
M  V30 66 1 29 64 CFG=1
M  V30 67 1 65 30
M  V30 68 1 66 32
M  V30 69 1 67 32
M  V30 70 1 68 33
M  V30 71 1 69 33
M  V30 72 1 31 70 CFG=3
M  V30 END BOND
M  V30 END CTAB
M  END
>  <i_epik_Tot_Q>  (1) 
2

>  <i_epik_Tot_abs_Q>  (1) 
2

>  <i_i_glide_confnum>  (1) 
2760

>  <i_i_glide_lignum>  (1) 
44

>  <i_i_glide_posenum>  (1) 
295

>  <i_i_glide_rotatable_bonds>  (1) 
13

>  <i_lp_mmshare_version>  (1) 
72125

>  <i_m_source_file_index>  (1) 
20

>  <i_f3d_flags>  (1) 
0

>  <num_sample>  (1) 
50

>  <b_lp_Chiralities_Consistent>  (1) 
1

>  <r_epik_Charging_Adjusted_Penalty>  (1) 
1.2214648146791087

>  <r_epik_Ionization_Penalty>  (1) 
0.73374573973567592

>  <r_epik_Ionization_Penalty_Charging>  (1) 
0.65422063123481433

>  <r_epik_Ionization_Penalty_Neutral>  (1) 
0.079525108500861627

>  <r_epik_State_Penalty>  (1) 
0.56724418344429428

>  <r_glide_ring_energy>  (1) 
0

>  <r_i_docking_score>  (1) 
-6.3869552920490928

>  <r_i_glide_ecoul>  (1) 
-5.9586574929695715

>  <r_i_glide_eff_state_penalty>  (1) 
0.56724418344429428

>  <r_i_glide_einternal>  (1) 
10.929584309789483

>  <r_i_glide_emodel>  (1) 
-53.763286785272811

>  <r_i_glide_emodel_strain>  (1) 
7.3658522088519334

>  <r_i_glide_energy>  (1) 
-45.103312534642825

>  <r_i_glide_erotb>  (1) 
0.81178529684743594

>  <r_i_glide_esite>  (1) 
-0.11953942373083491

>  <r_i_glide_evdw>  (1) 
-39.144655041673253

>  <r_i_glide_gscore>  (1) 
-6.9541994754933869

>  <r_i_glide_gscore_strain>  (1) 
0.84146305221298334

>  <r_i_glide_hbond>  (1) 
-0.48413236718853309

>  <r_i_glide_ligand_efficiency>  (1) 
-0.19354409975906342

>  <r_i_glide_ligand_efficiency_ln>  (1) 
-1.4204257870670782

>  <r_i_glide_ligand_efficiency_sa>  (1) 
-0.6207993443453329

>  <r_i_glide_lipo>  (1) 
-2.877918107951118

>  <r_i_glide_metal>  (1) 
-0

>  <r_i_glide_rewards>  (1) 
-2.2748265496542222

>  <r_lp_Energy>  (1) 
44.756732999999997

>  <s_epik_Chemistry_Notes>  (1) 
This compound contains an acetal/aminal-like group ( X-CH(R)-Y where X, Y are N, S, or O) that may be acid/base labile, releasing an aldehyde.

>  <s_epik_cmdline>  (1) 
J2VwaWtfcHl0aG9uJywgJy1waHQnLCAnMS4wJywgJy1waCcsICc3LjQnLCAnLXRuJywgJzgnLCAnLW1hJywgJzUwMCcsICctaW1hZScsICc8aW5maWxlLm1hZT4nLCAnLW9tYWUnLCAnPG91dGZpbGUubWFlPic=

>  <s_epik_input>  (1) 
RltDSF0oRiljKFtjSF0xKVtjSF1bY0hdYyhjMVtDSDNdKVtDSDJdTihbQ0gyXVtDQEBIXShbT0hdKU9bQ0gzXSlbQ0BIXShbQ0BASF0yW0NIM10pW0NIMl1bQ0gyXVtDQEhdMltOSF1OKFtOSF0zKVtDSDJdW0NASF0oQzM9TylbTkhdW0NIMl1bT0hd

>  <s_glide_docking_method>  (1) 
confgen

>  <s_i_glide_gridfile>  (1) 
gpcr_5ht2c_6bqh_protein_autoprepared_prepared

>  <s_lp_Force_Field>  (1) 
S-OPLS

>  <s_lp_Variant>  (1) 
DiffSBDD_19-3

>  <s_m_source_file>  (1) 
generated_GPCR_5HT2C_ligand_DiffSBDD_2026-06-23_prepared.sdf

>  <GenAI_Model>  (1) 
DiffSBDD

>  <Protein>  (1) 
GPCR_5HT2C

$$$$
DiffSBDD_13
     RDKit          3D

  0  0  0  0  0  0  0  0  0  0999 V3000
M  V30 BEGIN CTAB
M  V30 COUNTS 81 82 0 0 1
M  V30 BEGIN ATOM
M  V30 1 N 37.345023 30.713326 60.282590 0
M  V30 2 C 38.236558 28.735679 57.274615 0 CFG=2
M  V30 3 O 38.448834 36.937637 63.998624 0
M  V30 4 C 40.189755 30.254277 50.939571 0
M  V30 5 C 40.803464 28.652465 57.346225 0
M  V30 6 C 38.654801 33.639698 55.775965 0
M  V30 7 C 42.234306 33.447165 63.562846 0
M  V30 8 C 38.295725 31.239902 57.241120 0
M  V30 9 C 37.846414 27.889837 54.174399 0
M  V30 10 O 37.780361 33.656286 56.894747 0
M  V30 11 C 37.923200 32.623237 57.864327 0 CFG=2
M  V30 12 N 38.151120 30.010034 58.088598 0 CFG=1 CHG=1
M  V30 13 O 39.588810 37.737796 62.128321 0
M  V30 14 C 38.396789 26.999339 53.000194 0
M  V30 15 C 39.167332 29.262230 52.903078 0
M  V30 16 C 40.221968 34.687161 63.055564 0 CFG=1
M  V30 17 C 39.753411 30.374601 52.280201 0
M  V30 18 C 37.963455 27.454660 58.118363 0
M  V30 19 C 38.622248 29.290950 54.293102 0 CFG=2
M  V30 20 C 38.151303 34.102407 59.932504 0
M  V30 21 C 39.035594 35.030198 60.782896 0
M  V30 22 C 36.983672 30.063139 59.026170 0
M  V30 23 C 39.698532 37.254074 63.436301 0
M  V30 24 C 40.200324 34.369533 61.546304 0
M  V30 25 O 39.653867 29.401902 55.291156 0
M  V30 26 C 39.557942 28.571911 56.453021 0 CFG=2
M  V30 27 C 38.396784 26.065789 57.605759 0
M  V30 28 C 39.468521 27.927262 50.920234 0
M  V30 29 F 40.731995 31.308488 50.305711 0
M  V30 30 O 40.850373 33.639640 63.787401 0
M  V30 31 C 39.036658 28.080187 52.244121 0
M  V30 32 C 40.717835 36.087448 63.513684 0
M  V30 33 C 40.045188 29.027652 50.259746 0
M  V30 34 O 38.608257 30.137710 60.717172 0
M  V30 35 C 38.882563 33.177309 58.939831 0
M  V30 36 H 37.565086 31.697002 60.193579 0
M  V30 37 H 37.399961 28.820909 56.586915 0
M  V30 38 H 38.542378 36.923723 64.939775 0
M  V30 39 H 40.806852 27.859753 58.093598 0
M  V30 40 H 41.715307 28.536887 56.760072 0
M  V30 41 H 40.845193 29.592506 57.891918 0
M  V30 42 H 38.700916 34.646155 55.367763 0
M  V30 43 H 39.668178 33.337730 56.039489 0
M  V30 44 H 38.283422 32.970466 54.999168 0
M  V30 45 H 42.572197 32.610969 64.175225 0
M  V30 46 H 42.445222 33.199604 62.522770 0
M  V30 47 H 42.816199 34.323162 63.846719 0
M  V30 48 H 39.319212 31.279622 56.872791 0
M  V30 49 H 37.645791 31.108911 56.377970 0
M  V30 50 H 37.677912 27.314986 55.075536 0
M  V30 51 H 36.838346 28.162336 53.861098 0
M  V30 52 H 36.931209 32.559664 58.306847 0
M  V30 53 H 39.290281 37.027128 61.582853 0
M  V30 54 H 37.615678 26.537712 52.420320 0
M  V30 55 H 39.135979 26.272309 53.334702 0
M  V30 56 H 39.200444 34.592720 63.367636 0
M  V30 57 H 39.850816 31.312543 52.807045 0
M  V30 58 H 38.364967 27.575704 59.126421 0
M  V30 59 H 36.880333 27.383209 58.167718 0
M  V30 60 H 37.910525 30.110747 54.395707 0
M  V30 61 H 37.456413 34.736757 59.378010 0
M  V30 62 H 37.527874 33.503601 60.596738 0
M  V30 63 H 39.443029 35.826032 60.167708 0
M  V30 64 H 38.359442 35.520547 61.483368 0
M  V30 65 H 36.628444 29.085549 59.324187 0
M  V30 66 H 36.118853 30.541938 58.567727 0
M  V30 67 H 40.045161 38.100390 64.019583 0
M  V30 68 H 40.117673 33.287264 61.443929 0
M  V30 69 H 41.151060 34.643505 61.089802 0
M  V30 70 H 39.618899 27.576614 56.021573 0
M  V30 71 H 38.042781 25.291976 58.287935 0
M  V30 72 H 37.978110 25.832356 56.628084 0
M  V30 73 H 39.480105 25.958346 57.555735 0
M  V30 74 H 39.348732 26.981840 50.409214 0
M  V30 75 H 41.000990 36.003039 64.563295 0
M  V30 76 H 41.638187 36.357694 62.992284 0
M  V30 77 H 40.374160 28.937849 49.235712 0
M  V30 78 H 38.401931 29.811046 61.583951 0
M  V30 79 H 39.332937 32.360838 59.494838 0
M  V30 80 H 39.703671 33.712704 58.467005 0
M  V30 81 H 38.937637 29.990821 58.724311 0
M  V30 END ATOM
M  V30 BEGIN BOND
M  V30 1 1 10 6
M  V30 2 1 11 8
M  V30 3 1 11 10
M  V30 4 1 12 2
M  V30 5 1 12 8
M  V30 6 1 14 9
M  V30 7 2 17 4
M  V30 8 1 17 15
M  V30 9 1 18 2
M  V30 10 1 19 9
M  V30 11 1 19 15
M  V30 12 1 21 20
M  V30 13 1 22 1
M  V30 14 1 22 12
M  V30 15 1 23 3
M  V30 16 1 23 13
M  V30 17 1 24 16
M  V30 18 1 24 21
M  V30 19 1 25 19
M  V30 20 1 26 2
M  V30 21 1 26 5
M  V30 22 1 26 25
M  V30 23 1 27 18
M  V30 24 1 29 4
M  V30 25 1 30 7
M  V30 26 1 30 16
M  V30 27 1 31 14
M  V30 28 2 31 15
M  V30 29 1 31 28
M  V30 30 1 32 16
M  V30 31 1 32 23
M  V30 32 1 33 4
M  V30 33 2 33 28
M  V30 34 1 34 1
M  V30 35 1 35 11
M  V30 36 1 35 20
M  V30 37 1 36 1
M  V30 38 1 2 37 CFG=3
M  V30 39 1 38 3
M  V30 40 1 39 5
M  V30 41 1 40 5
M  V30 42 1 41 5
M  V30 43 1 42 6
M  V30 44 1 43 6
M  V30 45 1 44 6
M  V30 46 1 45 7
M  V30 47 1 46 7
M  V30 48 1 47 7
M  V30 49 1 48 8
M  V30 50 1 49 8
M  V30 51 1 50 9
M  V30 52 1 51 9
M  V30 53 1 11 52 CFG=1
M  V30 54 1 53 13
M  V30 55 1 54 14
M  V30 56 1 55 14
M  V30 57 1 16 56 CFG=1
M  V30 58 1 57 17
M  V30 59 1 58 18
M  V30 60 1 59 18
M  V30 61 1 19 60 CFG=3
M  V30 62 1 61 20
M  V30 63 1 62 20
M  V30 64 1 63 21
M  V30 65 1 64 21
M  V30 66 1 65 22
M  V30 67 1 66 22
M  V30 68 1 67 23
M  V30 69 1 68 24
M  V30 70 1 69 24
M  V30 71 1 26 70 CFG=3
M  V30 72 1 71 27
M  V30 73 1 72 27
M  V30 74 1 73 27
M  V30 75 1 74 28
M  V30 76 1 75 32
M  V30 77 1 76 32
M  V30 78 1 77 33
M  V30 79 1 78 34
M  V30 80 1 79 35
M  V30 81 1 80 35
M  V30 82 1 12 81 CFG=1
M  V30 END BOND
M  V30 END CTAB
M  END
>  <i_epik_Tot_Q>  (1) 
1

>  <i_epik_Tot_abs_Q>  (1) 
1

>  <i_i_glide_confnum>  (1) 
5601

>  <i_i_glide_lignum>  (1) 
24

>  <i_i_glide_posenum>  (1) 
152

>  <i_i_glide_rotatable_bonds>  (1) 
21

>  <i_lp_mmshare_version>  (1) 
72125

>  <i_m_source_file_index>  (1) 
14

>  <i_f3d_flags>  (1) 
0

>  <num_sample>  (1) 
50

>  <b_lp_Chiralities_Consistent>  (1) 
1

>  <r_epik_Charging_Adjusted_Penalty>  (1) 
0.45110583801900384

>  <r_epik_Ionization_Penalty>  (1) 
0.22670498176529164

>  <r_epik_Ionization_Penalty_Charging>  (1) 
0.22555291900950195

>  <r_epik_Ionization_Penalty_Neutral>  (1) 
0.001152062755789702

>  <r_epik_State_Penalty>  (1) 
0.22555291900950192

>  <r_glide_ring_energy>  (1) 
0

>  <r_i_docking_score>  (1) 
-6.3641948675103359

>  <r_i_glide_ecoul>  (1) 
-3.8096655190800792

>  <r_i_glide_eff_state_penalty>  (1) 
0.22555291900950192

>  <r_i_glide_einternal>  (1) 
34.865215821011972

>  <r_i_glide_emodel>  (1) 
-42.260026203890284

>  <r_i_glide_emodel_strain>  (1) 
4.9306341112031475

>  <r_i_glide_energy>  (1) 
-43.956227604651112

>  <r_i_glide_erotb>  (1) 
1.1363863637419909

>  <r_i_glide_esite>  (1) 
-0.11539680945189493

>  <r_i_glide_evdw>  (1) 
-40.146562085571034

>  <r_i_glide_gscore>  (1) 
-6.5897477865198377

>  <r_i_glide_gscore_strain>  (1) 
0.23265852780078689

>  <r_i_glide_hbond>  (1) 
0

>  <r_i_glide_ligand_efficiency>  (1) 
-0.18183413907172388

>  <r_i_glide_ligand_efficiency_ln>  (1) 
-1.3970820191134865

>  <r_i_glide_ligand_efficiency_sa>  (1) 
-0.59479152635966281

>  <r_i_glide_lipo>  (1) 
-4.2101958608684331

>  <r_i_glide_metal>  (1) 
-0

>  <r_i_glide_rewards>  (1) 
-1.054422075601724

>  <r_lp_Energy>  (1) 
19.389523000000001

>  <s_epik_Chemistry_Notes>  (1) 
This compound contains an acetal/aminal-like group ( X-CH(R)-Y where X, Y are N, S, or O) that may be acid/base labile, releasing an aldehyde. This compound has a N-S or N-O group and may undergo hydrolysis at high or low pH.

>  <s_epik_cmdline>  (1) 
J2VwaWtfcHl0aG9uJywgJy1waHQnLCAnMS4wJywgJy1waCcsICc3LjQnLCAnLXRuJywgJzgnLCAnLW1hJywgJzUwMCcsICctaW1hZScsICc8aW5maWxlLm1hZT4nLCAnLW9tYWUnLCAnPG91dGZpbGUubWFlPic=

>  <s_epik_input>  (1) 
W09IXVtDSF0oW09IXSlbQ0gyXVtDQEhdKE9bQ0gzXSlbQ0gyXVtDSDJdW0NIMl1bQ0gyXVtDQEBIXShPW0NIM10pW0NIMl1OKFtDSDJdW05IXVtPSF0pW0NASF0oW0NIMl1bQ0gzXSlbQ0BIXShbQ0gzXSlPW0NAQEhdMVtDSDJdW0NIMl1jKGMxMilbY0hdW2NIXWMoRilbY0hdMg==

>  <s_glide_docking_method>  (1) 
confgen

>  <s_i_glide_gridfile>  (1) 
gpcr_5ht2c_6bqh_protein_autoprepared_prepared

>  <s_lp_Force_Field>  (1) 
S-OPLS

>  <s_lp_Variant>  (1) 
DiffSBDD_13-1

>  <s_m_source_file>  (1) 
generated_GPCR_5HT2C_ligand_DiffSBDD_2026-06-23_prepared.sdf

>  <GenAI_Model>  (1) 
DiffSBDD

>  <Protein>  (1) 
GPCR_5HT2C

$$$$
DiffSBDD_14
     RDKit          3D

  0  0  0  0  0  0  0  0  0  0999 V3000
M  V30 BEGIN CTAB
M  V30 COUNTS 59 60 0 0 1
M  V30 BEGIN ATOM
M  V30 1 Cl 40.851046 30.537747 49.781527 0
M  V30 2 C 37.274844 29.190950 57.953714 0
M  V30 3 N 38.760219 27.731613 51.701793 0
M  V30 4 C 38.707875 28.245633 52.949808 0
M  V30 5 C 38.096233 35.705894 60.167749 0
M  V30 6 C 35.602483 37.498619 63.814875 0
M  V30 7 C 38.047473 36.945713 63.804650 0
M  V30 8 C 38.183879 30.365675 57.555352 0 CFG=1
M  V30 9 C 36.122788 33.636998 60.838748 0
M  V30 10 C 40.036074 29.687981 51.028001 0
M  V30 11 C 36.928253 37.238767 63.120239 0
M  V30 12 C 39.417012 28.452649 50.764163 0
M  V30 13 O 36.845140 29.737762 54.922102 0
M  V30 14 N 37.652249 31.148470 56.406267 0 CHG=1
M  V30 15 C 36.911699 37.335521 61.599050 0
M  V30 16 C 37.975268 34.387421 59.360376 0
M  V30 17 C 39.975834 30.212371 52.323438 0
M  V30 18 C 37.868397 30.672622 55.021856 0 CFG=1
M  V30 19 C 39.296287 29.478194 53.307442 0
M  V30 20 C 39.213920 29.986861 54.731794 0
M  V30 21 C 37.174597 31.941354 59.332901 0
M  V30 22 C 37.427799 33.192570 60.172525 0 CFG=2
M  V30 23 C 36.440830 34.853918 61.687803 0
M  V30 24 N 36.845145 36.024620 60.879536 0 CFG=2 CHG=1
M  V30 25 C 38.445138 31.317578 58.729953 0
M  V30 26 H 37.642802 28.714235 58.862675 0
M  V30 27 H 36.249376 29.516144 58.133913 0
M  V30 28 H 37.250485 28.421343 57.183591 0
M  V30 29 H 38.185973 27.654330 53.687461 0
M  V30 30 H 38.928948 35.646941 60.871012 0
M  V30 31 H 38.291309 36.552768 59.513612 0
M  V30 32 H 34.806570 36.882681 63.401115 0
M  V30 33 H 35.659884 37.289734 64.883695 0
M  V30 34 H 35.312020 38.541915 63.691020 0
M  V30 35 H 38.040996 36.884022 64.884194 0
M  V30 36 H 38.982419 36.765213 63.294223 0
M  V30 37 H 39.166449 29.967647 57.312683 0
M  V30 38 H 35.345226 33.863976 60.106657 0
M  V30 39 H 35.736555 32.840020 61.476007 0
M  V30 40 H 39.446724 28.031454 49.773737 0
M  V30 41 H 36.385626 29.881318 54.108705 0
M  V30 42 H 38.108067 32.046448 56.451495 0
M  V30 43 H 37.784081 37.910330 61.283395 0
M  V30 44 H 36.052831 37.937607 61.297737 0
M  V30 45 H 38.958220 34.135217 58.967781 0
M  V30 46 H 37.327478 34.558346 58.498060 0
M  V30 47 H 40.443533 31.157390 52.559825 0
M  V30 48 H 37.680461 31.496227 54.331003 0
M  V30 49 H 40.040206 30.673430 54.923973 0
M  V30 50 H 39.368537 29.118621 55.372817 0
M  V30 51 H 36.462013 32.222881 58.567778 0
M  V30 52 H 36.669645 31.187137 59.938179 0
M  V30 53 H 38.153874 32.926814 60.943581 0
M  V30 54 H 37.366734 34.594407 62.167759 0
M  V30 55 H 35.647330 35.030770 62.413279 0
M  V30 56 H 38.988438 30.794703 59.517941 0
M  V30 57 H 39.123687 32.089273 58.373119 0
M  V30 58 H 36.138054 36.136831 60.166202 0
M  V30 59 H 36.647336 31.337775 56.567760 0
M  V30 END ATOM
M  V30 BEGIN BOND
M  V30 1 1 4 3
M  V30 2 1 8 2
M  V30 3 1 10 1
M  V30 4 1 11 6
M  V30 5 2 11 7
M  V30 6 2 12 3
M  V30 7 1 12 10
M  V30 8 1 14 8
M  V30 9 1 15 11
M  V30 10 1 16 5
M  V30 11 2 17 10
M  V30 12 1 18 13
M  V30 13 1 18 14
M  V30 14 2 19 4
M  V30 15 1 19 17
M  V30 16 1 20 18
M  V30 17 1 20 19
M  V30 18 1 22 9
M  V30 19 1 22 16
M  V30 20 1 22 21
M  V30 21 1 23 9
M  V30 22 1 24 5
M  V30 23 1 24 15
M  V30 24 1 24 23
M  V30 25 1 25 8
M  V30 26 1 25 21
M  V30 27 1 26 2
M  V30 28 1 27 2
M  V30 29 1 28 2
M  V30 30 1 29 4
M  V30 31 1 30 5
M  V30 32 1 31 5
M  V30 33 1 32 6
M  V30 34 1 33 6
M  V30 35 1 34 6
M  V30 36 1 35 7
M  V30 37 1 36 7
M  V30 38 1 8 37 CFG=3
M  V30 39 1 38 9
M  V30 40 1 39 9
M  V30 41 1 40 12
M  V30 42 1 41 13
M  V30 43 1 42 14
M  V30 44 1 43 15
M  V30 45 1 44 15
M  V30 46 1 45 16
M  V30 47 1 46 16
M  V30 48 1 47 17
M  V30 49 1 18 48 CFG=3
M  V30 50 1 49 20
M  V30 51 1 50 20
M  V30 52 1 51 21
M  V30 53 1 52 21
M  V30 54 1 22 53 CFG=1
M  V30 55 1 54 23
M  V30 56 1 55 23
M  V30 57 1 56 25
M  V30 58 1 57 25
M  V30 59 1 24 58 CFG=3
M  V30 60 1 59 14
M  V30 END BOND
M  V30 END CTAB
M  END
>  <i_epik_Tot_Q>  (1) 
2

>  <i_epik_Tot_abs_Q>  (1) 
2

>  <i_i_glide_confnum>  (1) 
342

>  <i_i_glide_lignum>  (1) 
27

>  <i_i_glide_posenum>  (1) 
43

>  <i_i_glide_rotatable_bonds>  (1) 
10

>  <i_lp_mmshare_version>  (1) 
72125

>  <i_m_source_file_index>  (1) 
15

>  <i_f3d_flags>  (1) 
0

>  <num_sample>  (1) 
50

>  <b_lp_Chiralities_Consistent>  (1) 
1

>  <r_epik_Charging_Adjusted_Penalty>  (1) 
0.35265002497065456

>  <r_epik_Ionization_Penalty>  (1) 
0.35265410833524857

>  <r_epik_Ionization_Penalty_Charging>  (1) 
0.072075358936459305

>  <r_epik_Ionization_Penalty_Neutral>  (1) 
0.2805787493987893

>  <r_epik_State_Penalty>  (1) 
0.28057466603419523

>  <r_glide_ring_energy>  (1) 
0

>  <r_i_docking_score>  (1) 
-6.3620832578357307

>  <r_i_glide_ecoul>  (1) 
-5.8138257835801728

>  <r_i_glide_eff_state_penalty>  (1) 
0.28057466603419523

>  <r_i_glide_einternal>  (1) 
7.0563625684312061

>  <r_i_glide_emodel>  (1) 
-56.103323222989573

>  <r_i_glide_emodel_strain>  (1) 
2.4439711631496834

>  <r_i_glide_energy>  (1) 
-36.459342309830923

>  <r_i_glide_erotb>  (1) 
1.1382379647718497

>  <r_i_glide_esite>  (1) 
-0.14918494955350456

>  <r_i_glide_evdw>  (1) 
-30.645516526250752

>  <r_i_glide_gscore>  (1) 
-6.6426579238699262

>  <r_i_glide_gscore_strain>  (1) 
0

>  <r_i_glide_hbond>  (1) 
-0.14802151380861145

>  <r_i_glide_ligand_efficiency>  (1) 
-0.25448333031342923

>  <r_i_glide_ligand_efficiency_ln>  (1) 
-1.5080043883572904

>  <r_i_glide_ligand_efficiency_sa>  (1) 
-0.74411377191595107

>  <r_i_glide_lipo>  (1) 
-3.2791111859755495

>  <r_i_glide_metal>  (1) 
-0

>  <r_i_glide_rewards>  (1) 
-1.8002285454545464

>  <r_lp_Energy>  (1) 
35.566913

>  <s_epik_Chemistry_Notes>  (1) 
This compound contains an acetal/aminal-like group ( X-CH(R)-Y where X, Y are N, S, or O) that may be acid/base labile, releasing an aldehyde.

>  <s_epik_cmdline>  (1) 
J2VwaWtfcHl0aG9uJywgJy1waHQnLCAnMS4wJywgJy1waCcsICc3LjQnLCAnLXRuJywgJzgnLCAnLW1hJywgJzUwMCcsICctaW1hZScsICc8aW5maWxlLm1hZT4nLCAnLW9tYWUnLCAnPG91dGZpbGUubWFlPic=

>  <s_epik_input>  (1) 
Q2xjMVtjSF1uW2NIXWMoW2NIXTEpW0NIMl1bQ0BASF0oW09IXSlbTkhdW0NASF0oW0NIM10pW0NIMl1bQ0gyXVtDSF0yW0NIMl1bQ0gyXU4oW0NIMl1bQ0gyXTIpW0NIMl1DKFtDSDNdKT1bQ0gyXQ==

>  <s_glide_docking_method>  (1) 
confgen

>  <s_i_glide_gridfile>  (1) 
gpcr_5ht2c_6bqh_protein_autoprepared_prepared

>  <s_lp_Force_Field>  (1) 
S-OPLS

>  <s_lp_Variant>  (1) 
DiffSBDD_14-1

>  <s_m_source_file>  (1) 
generated_GPCR_5HT2C_ligand_DiffSBDD_2026-06-23_prepared.sdf

>  <GenAI_Model>  (1) 
DiffSBDD

>  <Protein>  (1) 
GPCR_5HT2C

$$$$
DiffSBDD_46
     RDKit          3D

  0  0  0  0  0  0  0  0  0  0999 V3000
M  V30 BEGIN CTAB
M  V30 COUNTS 54 56 0 0 1
M  V30 BEGIN ATOM
M  V30 1 C 39.529856 34.534889 60.764606 0
M  V30 2 C 38.185009 33.939485 60.417518 0 CFG=1
M  V30 3 C 38.213567 29.437782 56.658860 0
M  V30 4 C 38.340981 37.475704 61.632105 0
M  V30 5 C 41.133158 30.317504 49.996638 0
M  V30 6 C 37.620703 32.707513 61.123305 0 CFG=2
M  V30 7 C 39.770649 30.564147 63.069610 0
M  V30 8 C 37.581661 29.817194 58.004987 0
M  V30 9 O 38.433933 32.358500 62.232392 0
M  V30 10 C 39.725296 29.453592 51.757900 0
M  V30 11 O 38.445489 27.447966 51.394827 0
M  V30 12 C 37.893407 36.297759 60.760977 0
M  V30 13 C 38.976609 39.737763 60.709782 0
M  V30 14 C 38.730227 28.537714 52.168249 0
M  V30 15 C 38.045101 38.806741 60.968134 0
M  V30 16 N 38.469307 30.462184 60.991644 0
M  V30 17 N 38.304391 35.038502 61.367826 0
M  V30 18 S 38.055169 31.489417 58.553735 0
M  V30 19 C 40.018316 30.578299 52.568442 0
M  V30 20 C 38.025591 28.751967 53.372321 0
M  V30 21 O 40.398610 29.241819 50.570991 0
M  V30 22 C 38.845127 31.094279 62.001976 0
M  V30 23 C 37.549957 30.123490 55.457439 0
M  V30 24 C 38.314659 29.880928 54.169229 0
M  V30 25 C 37.588174 31.372579 60.305392 0 CFG=2
M  V30 26 C 39.313226 30.787603 53.767749 0
M  V30 27 H 40.193835 33.947656 61.395287 0
M  V30 28 H 40.039535 35.144220 60.021576 0
M  V30 29 H 37.737657 34.174161 59.452341 0
M  V30 30 H 39.277100 29.678936 56.686465 0
M  V30 31 H 38.151004 28.357095 56.523538 0
M  V30 32 H 37.827832 37.439530 62.593715 0
M  V30 33 H 39.409582 37.405857 61.841898 0
M  V30 34 H 41.447450 30.042969 48.990438 0
M  V30 35 H 42.036210 30.537755 50.567122 0
M  V30 36 H 40.527968 31.221182 49.910840 0
M  V30 37 H 36.616984 32.942673 61.481981 0
M  V30 38 H 40.097638 29.552100 62.828587 0
M  V30 39 H 39.257168 30.537756 64.030623 0
M  V30 40 H 40.648771 31.203239 63.159784 0
M  V30 41 H 36.494191 29.738313 57.963871 0
M  V30 42 H 37.919632 29.101517 58.754309 0
M  V30 43 H 36.807918 36.303120 60.654386 0
M  V30 44 H 38.308566 36.420418 59.767748 0
M  V30 45 H 40.013704 39.576346 60.967801 0
M  V30 46 H 38.713982 40.669267 60.237422 0
M  V30 47 H 37.015759 38.992922 60.699015 0
M  V30 48 H 40.776969 31.284930 52.270442 0
M  V30 49 H 37.260977 28.054310 53.682451 0
M  V30 50 H 37.659890 26.977088 51.637988 0
M  V30 51 H 36.519374 29.785185 55.345711 0
M  V30 52 H 37.489771 31.199652 55.627392 0
M  V30 53 H 36.572336 30.973901 60.334845 0
M  V30 54 H 39.536003 31.650350 54.378923 0
M  V30 END ATOM
M  V30 BEGIN BOND
M  V30 1 1 2 1
M  V30 2 1 6 2
M  V30 3 1 8 3
M  V30 4 1 9 6
M  V30 5 1 12 4
M  V30 6 1 14 10
M  V30 7 1 14 11
M  V30 8 1 15 4
M  V30 9 2 15 13
M  V30 10 1 17 1
M  V30 11 1 17 2
M  V30 12 1 17 12
M  V30 13 1 18 8
M  V30 14 2 19 10
M  V30 15 2 20 14
M  V30 16 1 21 5
M  V30 17 1 21 10
M  V30 18 1 22 7
M  V30 19 1 22 9
M  V30 20 2 22 16
M  V30 21 1 23 3
M  V30 22 1 24 20
M  V30 23 1 24 23
M  V30 24 1 25 6
M  V30 25 1 25 16
M  V30 26 1 25 18
M  V30 27 1 26 19
M  V30 28 2 26 24
M  V30 29 1 27 1
M  V30 30 1 28 1
M  V30 31 1 2 29 CFG=3
M  V30 32 1 30 3
M  V30 33 1 31 3
M  V30 34 1 32 4
M  V30 35 1 33 4
M  V30 36 1 34 5
M  V30 37 1 35 5
M  V30 38 1 36 5
M  V30 39 1 6 37 CFG=1
M  V30 40 1 38 7
M  V30 41 1 39 7
M  V30 42 1 40 7
M  V30 43 1 41 8
M  V30 44 1 42 8
M  V30 45 1 43 12
M  V30 46 1 44 12
M  V30 47 1 45 13
M  V30 48 1 46 13
M  V30 49 1 47 15
M  V30 50 1 48 19
M  V30 51 1 49 20
M  V30 52 1 50 11
M  V30 53 1 51 23
M  V30 54 1 52 23
M  V30 55 1 25 53 CFG=3
M  V30 56 1 54 26
M  V30 END BOND
M  V30 END CTAB
M  END
>  <i_epik_Tot_Q>  (1) 
0

>  <i_epik_Tot_abs_Q>  (1) 
0

>  <i_i_glide_confnum>  (1) 
330

>  <i_i_glide_lignum>  (1) 
97

>  <i_i_glide_posenum>  (1) 
242

>  <i_i_glide_rotatable_bonds>  (1) 
11

>  <i_lp_mmshare_version>  (1) 
72125

>  <i_m_source_file_index>  (1) 
47

>  <i_f3d_flags>  (1) 
0

>  <num_sample>  (1) 
50

>  <b_lp_Chiralities_Consistent>  (1) 
1

>  <r_epik_Charging_Adjusted_Penalty>  (1) 
0.059256753965672836

>  <r_epik_Ionization_Penalty>  (1) 
0.061027430801307576

>  <r_epik_Ionization_Penalty_Charging>  (1) 
0

>  <r_epik_Ionization_Penalty_Neutral>  (1) 
0.061027430801307576

>  <r_epik_State_Penalty>  (1) 
0.059256753965672836

>  <r_glide_ring_energy>  (1) 
0

>  <r_i_docking_score>  (1) 
-6.3612154666268541

>  <r_i_glide_ecoul>  (1) 
-2.9447222917999025

>  <r_i_glide_eff_state_penalty>  (1) 
0.059256753965672836

>  <r_i_glide_einternal>  (1) 
11.697073391671342

>  <r_i_glide_emodel>  (1) 
-57.120414997673521

>  <r_i_glide_emodel_strain>  (1) 
0.20616819084161619

>  <r_i_glide_energy>  (1) 
-47.132531176352884

>  <r_i_glide_erotb>  (1) 
1.2289544219816615

>  <r_i_glide_esite>  (1) 
0

>  <r_i_glide_evdw>  (1) 
-44.187808884552979

>  <r_i_glide_gscore>  (1) 
-6.4204722205925266

>  <r_i_glide_gscore_strain>  (1) 
0

>  <r_i_glide_hbond>  (1) 
-0.27760024824039575

>  <r_i_glide_ligand_efficiency>  (1) 
-0.24466213333180209

>  <r_i_glide_ligand_efficiency_ln>  (1) 
-1.4939105794869045

>  <r_i_glide_ligand_efficiency_sa>  (1) 
-0.72481060808362374

>  <r_i_glide_lipo>  (1) 
-2.9846040027682941

>  <r_i_glide_metal>  (1) 
-0

>  <r_i_glide_rewards>  (1) 
-1.7361236035678647

>  <r_lp_Energy>  (1) 
9.3116819999999993

>  <r_lp_tautomer_probability>  (1) 
0.99960115913750414

>  <s_epik_Chemistry_Notes>  (1) 
This compound has an imine and may undergo hydrolysis. This compound contains an acetal/aminal-like group ( X-CH(R)-Y where X, Y are N, S, or O) that may be acid/base labile, releasing an aldehyde.

>  <s_epik_cmdline>  (1) 
J2VwaWtfcHl0aG9uJywgJy1waHQnLCAnMS4wJywgJy1waCcsICc3LjQnLCAnLXRuJywgJzgnLCAnLW1hJywgJzUwMCcsICctaW1hZScsICc8aW5maWxlLm1hZT4nLCAnLW9tYWUnLCAnPG91dGZpbGUubWFlPic=

>  <s_epik_input>  (1) 
W0NIMl09W0NIXVtDSDJdW0NIMl1OMVtDSDJdW0NASF0xW0NAQEhdMk9DKFtDSDNdKT1OW0NAQEhdMlNbQ0gyXVtDSDJdW0NIMl1DKFtDSDJdQzM9Tyk9W0NIXVtDSF09QzNPW0NIM10=

>  <s_glide_docking_method>  (1) 
confgen

>  <s_i_glide_gridfile>  (1) 
gpcr_5ht2c_6bqh_protein_autoprepared_prepared

>  <s_lp_Force_Field>  (1) 
S-OPLS

>  <s_lp_Variant>  (1) 
DiffSBDD_46-1

>  <s_m_source_file>  (1) 
generated_GPCR_5HT2C_ligand_DiffSBDD_2026-06-23_prepared.sdf

>  <GenAI_Model>  (1) 
DiffSBDD

>  <Protein>  (1) 
GPCR_5HT2C

$$$$
DiffSBDD_8
     RDKit          3D

  0  0  0  0  0  0  0  0  0  0999 V3000
M  V30 BEGIN CTAB
M  V30 COUNTS 48 51 0 0 1
M  V30 BEGIN ATOM
M  V30 1 C 38.040595 25.971092 54.841126 0
M  V30 2 C 37.505992 24.906726 55.599280 0
M  V30 3 C 37.115994 30.515677 58.977031 0 CFG=1
M  V30 4 C 38.298745 25.962874 57.633929 0
M  V30 5 C 38.807939 27.038950 56.887638 0
M  V30 6 C 38.709118 31.617106 54.268475 0
M  V30 7 C 38.554051 30.347072 58.551094 0 CFG=2
M  V30 8 C 38.692838 30.057869 56.088256 0
M  V30 9 C 39.589300 30.005243 52.563316 0
M  V30 10 C 38.884077 28.955643 51.682050 0
M  V30 11 C 38.870180 29.547519 57.331459 0
M  V30 12 O 38.005870 29.629545 59.667586 0
M  V30 13 C 39.475326 28.174927 57.587804 0
M  V30 14 C 40.357635 29.709223 49.679284 0
M  V30 15 C 38.311147 31.496512 55.794724 0
M  V30 16 C 38.991974 29.346376 54.893319 0
M  V30 17 F 38.445138 25.948363 58.967760 0
M  V30 18 N 39.245138 28.083854 54.718814 0
M  V30 19 N 36.845138 23.857904 54.967763 0
M  V30 20 C 37.645164 24.902310 56.993308 0
M  V30 21 C 38.698939 27.042902 55.486168 0
M  V30 22 C 36.631601 31.700921 59.780576 0
M  V30 23 N 38.966493 30.239581 53.865367 0
M  V30 24 C 39.686740 28.552896 50.438633 0
M  V30 25 H 37.945530 25.967920 53.765288 0
M  V30 26 H 36.354769 30.010631 58.384220 0
M  V30 27 H 37.939915 32.106131 53.676113 0
M  V30 28 H 39.645105 32.157527 54.167783 0
M  V30 29 H 39.245136 31.141839 58.802126 0
M  V30 30 H 39.644014 30.953546 52.026574 0
M  V30 31 H 40.627710 29.737755 52.725238 0
M  V30 32 H 38.663968 28.044422 52.235239 0
M  V30 33 H 37.917608 29.337752 51.375257 0
M  V30 34 H 39.525323 27.988442 58.659774 0
M  V30 35 H 40.518356 28.203117 57.270001 0
M  V30 36 H 40.822463 29.337754 48.766692 0
M  V30 37 H 39.645135 30.482313 49.396713 0
M  V30 38 H 41.141791 30.181487 50.271973 0
M  V30 39 H 37.245141 31.633111 55.928685 0
M  V30 40 H 38.847719 32.213573 56.416657 0
M  V30 41 H 36.594880 23.926797 53.991439 0
M  V30 42 H 36.320922 23.186435 55.510976 0
M  V30 43 H 37.249867 24.082698 57.575270 0
M  V30 44 H 36.234014 32.465455 59.112089 0
M  V30 45 H 35.839736 31.390658 60.461897 0
M  V30 46 H 37.446345 32.134082 60.360693 0
M  V30 47 H 40.445142 27.829016 50.727347 0
M  V30 48 H 39.013629 28.023138 49.767871 0
M  V30 END ATOM
M  V30 BEGIN BOND
M  V30 1 1 2 1
M  V30 2 2 5 4
M  V30 3 1 7 3
M  V30 4 1 10 9
M  V30 5 1 11 7
M  V30 6 2 11 8
M  V30 7 1 12 3
M  V30 8 1 12 7
M  V30 9 1 13 5
M  V30 10 1 13 11
M  V30 11 1 15 6
M  V30 12 1 15 8
M  V30 13 1 16 8
M  V30 14 1 17 4
M  V30 15 2 18 16
M  V30 16 1 19 2
M  V30 17 2 20 2
M  V30 18 1 20 4
M  V30 19 2 21 1
M  V30 20 1 21 5
M  V30 21 1 21 18
M  V30 22 1 22 3
M  V30 23 1 23 6
M  V30 24 1 23 9
M  V30 25 1 23 16
M  V30 26 1 24 10
M  V30 27 1 24 14
M  V30 28 1 25 1
M  V30 29 1 3 26 CFG=3
M  V30 30 1 27 6
M  V30 31 1 28 6
M  V30 32 1 7 29 CFG=1
M  V30 33 1 30 9
M  V30 34 1 31 9
M  V30 35 1 32 10
M  V30 36 1 33 10
M  V30 37 1 34 13
M  V30 38 1 35 13
M  V30 39 1 36 14
M  V30 40 1 37 14
M  V30 41 1 38 14
M  V30 42 1 39 15
M  V30 43 1 40 15
M  V30 44 1 41 19
M  V30 45 1 42 19
M  V30 46 1 43 20
M  V30 47 1 44 22
M  V30 48 1 45 22
M  V30 49 1 46 22
M  V30 50 1 47 24
M  V30 51 1 48 24
M  V30 END BOND
M  V30 END CTAB
M  END
>  <i_epik_Tot_Q>  (1) 
0

>  <i_epik_Tot_abs_Q>  (1) 
0

>  <i_i_glide_confnum>  (1) 
15

>  <i_i_glide_lignum>  (1) 
18

>  <i_i_glide_posenum>  (1) 
216

>  <i_i_glide_rotatable_bonds>  (1) 
4

>  <i_lp_mmshare_version>  (1) 
72125

>  <i_m_source_file_index>  (1) 
9

>  <i_f3d_flags>  (1) 
0

>  <num_sample>  (1) 
50

>  <b_lp_Chiralities_Consistent>  (1) 
1

>  <r_epik_Charging_Adjusted_Penalty>  (1) 
1.179189790050359

>  <r_epik_Ionization_Penalty>  (1) 
1.1792430132501708

>  <r_epik_Ionization_Penalty_Charging>  (1) 
0

>  <r_epik_Ionization_Penalty_Neutral>  (1) 
1.1792430132501708

>  <r_epik_State_Penalty>  (1) 
1.179189790050359

>  <r_glide_ring_energy>  (1) 
0

>  <r_i_docking_score>  (1) 
-6.3557024440513494

>  <r_i_glide_ecoul>  (1) 
-1.8617988181463567

>  <r_i_glide_eff_state_penalty>  (1) 
1.179189790050359

>  <r_i_glide_einternal>  (1) 
4.736784985757776

>  <r_i_glide_emodel>  (1) 
-50.436492019421401

>  <r_i_glide_emodel_strain>  (1) 
1.9976908528577297

>  <r_i_glide_energy>  (1) 
-38.060509019644606

>  <r_i_glide_erotb>  (1) 
0.51958033910786883

>  <r_i_glide_esite>  (1) 
0

>  <r_i_glide_evdw>  (1) 
-36.198710201498251

>  <r_i_glide_gscore>  (1) 
-7.5348922341017088

>  <r_i_glide_gscore_strain>  (1) 
0

>  <r_i_glide_hbond>  (1) 
0

>  <r_i_glide_ligand_efficiency>  (1) 
-0.26482093516880623

>  <r_i_glide_ligand_efficiency_ln>  (1) 
-1.5212112390428563

>  <r_i_glide_ligand_efficiency_sa>  (1) 
-0.76387575991123369

>  <r_i_glide_lipo>  (1) 
-3.2804017855575198

>  <r_i_glide_metal>  (1) 
-0

>  <r_i_glide_rewards>  (1) 
-2.6848654548551916

>  <r_lp_Energy>  (1) 
37.01735

>  <s_epik_Chemistry_Notes>  (1) 
This compound has an imine and may undergo hydrolysis.

>  <s_epik_cmdline>  (1) 
J2VwaWtfcHl0aG9uJywgJy1waHQnLCAnMS4wJywgJy1waCcsICc3LjQnLCAnLXRuJywgJzgnLCAnLW1hJywgJzUwMCcsICctaW1hZScsICc8aW5maWxlLm1hZT4nLCAnLW9tYWUnLCAnPG91dGZpbGUubWFlPic=

>  <s_epik_input>  (1) 
RmMxW2NIXWMoW05IMl0pW2NIXWMoYzEyKU49QzNDKD1DKFtDSDJdMilbQ0BIXShPNClbQ0BASF00W0NIM10pW0NIMl1bQ0gyXU4zW0NIMl1bQ0gyXVtDSDJdW0NIM10=

>  <s_glide_docking_method>  (1) 
confgen

>  <s_i_glide_gridfile>  (1) 
gpcr_5ht2c_6bqh_protein_autoprepared_prepared

>  <s_lp_Force_Field>  (1) 
S-OPLS

>  <s_lp_Variant>  (1) 
DiffSBDD_8-2

>  <s_m_source_file>  (1) 
generated_GPCR_5HT2C_ligand_DiffSBDD_2026-06-23_prepared.sdf

>  <GenAI_Model>  (1) 
DiffSBDD

>  <Protein>  (1) 
GPCR_5HT2C

$$$$
DiffSBDD_41
     RDKit          3D

  0  0  0  0  0  0  0  0  0  0999 V3000
M  V30 BEGIN CTAB
M  V30 COUNTS 70 74 0 0 1
M  V30 BEGIN ATOM
M  V30 1 C 40.415087 34.190389 61.149000 0
M  V30 2 O 38.713476 29.723193 58.167903 0
M  V30 3 C 38.331617 30.521515 59.274541 0 CFG=1
M  V30 4 C 41.031268 28.813719 59.728180 0
M  V30 5 C 39.034028 34.826194 61.287183 0
M  V30 6 C 39.688641 31.052790 63.355299 0
M  V30 7 C 44.394860 30.695055 65.729772 0
M  V30 8 C 43.461581 31.737932 65.846024 0
M  V30 9 C 38.753639 28.171649 55.800703 0
M  V30 10 C 42.351917 28.538967 63.285790 0
M  V30 11 C 36.811149 30.347411 59.473116 0
M  V30 12 C 38.445424 28.790267 53.688188 0
M  V30 13 N 38.695155 27.787327 54.543224 0
M  V30 14 C 39.114555 30.140205 60.571665 0 CFG=1
M  V30 15 C 39.602340 31.956808 62.095138 0
M  V30 16 C 38.499006 29.584768 55.795504 0
M  V30 17 O 40.320829 26.137702 54.031558 0
M  V30 18 O 38.986048 27.437787 56.764134 0
M  V30 19 C 38.174649 32.561726 61.998951 0
M  V30 20 C 37.976606 33.748656 61.040616 0
M  V30 21 N 39.886168 28.917570 60.625183 0
M  V30 22 O 38.370577 28.672409 52.465084 0
M  V30 23 O 39.920261 31.231933 60.908335 0
M  V30 24 C 42.257565 31.677830 65.131933 0
M  V30 25 C 40.125432 28.361168 61.960171 0
M  V30 26 C 38.937030 26.408121 54.121368 0
M  V30 27 C 41.989630 30.570825 64.305208 0
M  V30 28 C 38.481966 30.292777 56.940774 0
M  V30 29 C 44.123565 29.586169 64.899343 0
M  V30 30 C 39.278148 31.229253 53.982657 0
M  V30 31 N 40.890641 30.251494 63.501619 0
M  V30 32 C 38.253259 30.162639 54.401582 0 CFG=1
M  V30 33 C 40.644223 33.095268 62.199094 0
M  V30 34 C 41.128604 29.010516 62.882512 0
M  V30 35 C 42.907485 29.497197 64.167746 0
M  V30 36 H 41.198169 34.947765 61.200396 0
M  V30 37 H 40.445131 33.726601 60.167770 0
M  V30 38 H 38.548357 31.567953 59.067335 0
M  V30 39 H 41.649865 27.953350 59.981598 0
M  V30 40 H 40.718738 28.677321 58.695146 0
M  V30 41 H 41.645113 29.709584 59.767790 0
M  V30 42 H 38.915179 35.265183 62.279091 0
M  V30 43 H 38.917926 35.636973 60.567046 0
M  V30 44 H 39.645173 31.682527 64.241182 0
M  V30 45 H 38.827792 30.390435 63.427005 0
M  V30 46 H 45.325460 30.740856 66.278654 0
M  V30 47 H 43.672251 32.585040 66.482810 0
M  V30 48 H 42.816947 27.610292 62.989583 0
M  V30 49 H 36.392631 31.021971 60.212812 0
M  V30 50 H 36.262558 30.538009 58.555552 0
M  V30 51 H 36.565213 29.334885 59.767820 0
M  V30 52 H 38.361562 30.020813 61.345146 0
M  V30 53 H 40.597838 25.737890 54.843666 0
M  V30 54 H 37.405133 31.813240 61.858655 0
M  V30 55 H 37.956626 32.937734 62.967760 0
M  V30 56 H 36.980849 34.171843 61.179079 0
M  V30 57 H 38.021126 33.425504 60.003434 0
M  V30 58 H 41.538334 32.477711 65.218775 0
M  V30 59 H 40.444569 27.337778 61.799859 0
M  V30 60 H 39.175948 28.275510 62.475820 0
M  V30 61 H 38.473940 26.215995 53.153018 0
M  V30 62 H 38.477232 25.702299 54.815421 0
M  V30 63 H 38.290552 31.355762 56.996800 0
M  V30 64 H 44.850063 28.790253 64.821362 0
M  V30 65 H 40.298879 30.846491 54.017101 0
M  V30 66 H 39.090191 31.580197 52.968621 0
M  V30 67 H 39.227537 32.098900 54.638266 0
M  V30 68 H 37.224841 30.513165 54.306993 0
M  V30 69 H 40.599122 33.555496 63.186593 0
M  V30 70 H 41.651459 32.689056 62.097768 0
M  V30 END ATOM
M  V30 BEGIN BOND
M  V30 1 1 3 2
M  V30 2 1 5 1
M  V30 3 2 8 7
M  V30 4 1 11 3
M  V30 5 1 13 9
M  V30 6 1 13 12
M  V30 7 1 14 3
M  V30 8 1 15 6
M  V30 9 1 16 9
M  V30 10 2 18 9
M  V30 11 1 19 15
M  V30 12 1 20 5
M  V30 13 1 20 19
M  V30 14 1 21 4
M  V30 15 1 21 14
M  V30 16 2 22 12
M  V30 17 1 23 14
M  V30 18 1 23 15
M  V30 19 1 24 8
M  V30 20 1 25 21
M  V30 21 1 26 13
M  V30 22 1 26 17
M  V30 23 2 27 24
M  V30 24 1 28 2
M  V30 25 2 28 16
M  V30 26 1 29 7
M  V30 27 1 31 6
M  V30 28 1 31 27
M  V30 29 1 32 12
M  V30 30 1 32 16
M  V30 31 1 32 30
M  V30 32 1 33 1
M  V30 33 1 33 15
M  V30 34 2 34 10
M  V30 35 1 34 25
M  V30 36 1 34 31
M  V30 37 1 35 10
M  V30 38 1 35 27
M  V30 39 2 35 29
M  V30 40 1 36 1
M  V30 41 1 37 1
M  V30 42 1 3 38 CFG=3
M  V30 43 1 39 4
M  V30 44 1 40 4
M  V30 45 1 41 4
M  V30 46 1 42 5
M  V30 47 1 43 5
M  V30 48 1 44 6
M  V30 49 1 45 6
M  V30 50 1 46 7
M  V30 51 1 47 8
M  V30 52 1 48 10
M  V30 53 1 49 11
M  V30 54 1 50 11
M  V30 55 1 51 11
M  V30 56 1 14 52 CFG=1
M  V30 57 1 53 17
M  V30 58 1 54 19
M  V30 59 1 55 19
M  V30 60 1 56 20
M  V30 61 1 57 20
M  V30 62 1 58 24
M  V30 63 1 59 25
M  V30 64 1 60 25
M  V30 65 1 61 26
M  V30 66 1 62 26
M  V30 67 1 63 28
M  V30 68 1 64 29
M  V30 69 1 65 30
M  V30 70 1 66 30
M  V30 71 1 67 30
M  V30 72 1 32 68 CFG=1
M  V30 73 1 69 33
M  V30 74 1 70 33
M  V30 END BOND
M  V30 END CTAB
M  END
>  <i_epik_Tot_Q>  (1) 
0

>  <i_epik_Tot_abs_Q>  (1) 
0

>  <i_i_glide_confnum>  (1) 
65

>  <i_i_glide_lignum>  (1) 
88

>  <i_i_glide_posenum>  (1) 
353

>  <i_i_glide_rotatable_bonds>  (1) 
5

>  <i_lp_mmshare_version>  (1) 
72125

>  <i_m_source_file_index>  (1) 
42

>  <i_f3d_flags>  (1) 
0

>  <num_sample>  (1) 
50

>  <b_lp_Chiralities_Consistent>  (1) 
1

>  <r_epik_Charging_Adjusted_Penalty>  (1) 
0.17305261392596941

>  <r_epik_Ionization_Penalty>  (1) 
0.17312613183816786

>  <r_epik_Ionization_Penalty_Charging>  (1) 
0

>  <r_epik_Ionization_Penalty_Neutral>  (1) 
0.17312613183816786

>  <r_epik_State_Penalty>  (1) 
0.17305261392596941

>  <r_glide_ring_energy>  (1) 
0

>  <r_i_docking_score>  (1) 
-6.3545084094397781

>  <r_i_glide_ecoul>  (1) 
-3.1514229266049227

>  <r_i_glide_eff_state_penalty>  (1) 
0.17305261392596941

>  <r_i_glide_einternal>  (1) 
4.0367754836094214

>  <r_i_glide_emodel>  (1) 
-53.260106823593645

>  <r_i_glide_emodel_strain>  (1) 
0.99144836893933785

>  <r_i_glide_energy>  (1) 
-44.640994248897329

>  <r_i_glide_erotb>  (1) 
0.34988069477117673

>  <r_i_glide_esite>  (1) 
-0.015586039228566212

>  <r_i_glide_evdw>  (1) 
-41.489571322292406

>  <r_i_glide_gscore>  (1) 
-6.5275610233657479

>  <r_i_glide_gscore_strain>  (1) 
0

>  <r_i_glide_hbond>  (1) 
0

>  <r_i_glide_ligand_efficiency>  (1) 
-0.1815573831268508

>  <r_i_glide_ligand_efficiency_ln>  (1) 
-1.394955626587645

>  <r_i_glide_ligand_efficiency_sa>  (1) 
-0.59388623931224405

>  <r_i_glide_lipo>  (1) 
-2.4407478779873415

>  <r_i_glide_metal>  (1) 
-0

>  <r_i_glide_rewards>  (1) 
-1.8739157958156583

>  <r_lp_Energy>  (1) 
37.188876

>  <s_epik_Chemistry_Notes>  (1) 
This compound contains an acetal/aminal-like group ( X-CH(R)-Y where X, Y are N, S, or O) that may be acid/base labile, releasing an aldehyde.

>  <s_epik_cmdline>  (1) 
J2VwaWtfcHl0aG9uJywgJy1waHQnLCAnMS4wJywgJy1waCcsICc3LjQnLCAnLXRuJywgJzgnLCAnLW1hJywgJzUwMCcsICctaW1hZScsICc8aW5maWxlLm1hZT4nLCAnLW9tYWUnLCAnPG91dGZpbGUubWFlPic=

>  <s_epik_input>  (1) 
W0NIMl0xW0NIMl1bQ0gyXVtDSDJdW0NIMl1DMTJbQ0gyXW4zYzRjKFtjSF1bY0hdW2NIXVtjSF00KVtjSF1jM1tDSDJdTihbQ0gzXSlbQ0BASF0oTzIpW0NASF0oW0NIM10pTy9bQ0hdPUNcNVtDQEBIXShbQ0gzXSlDKD1PKU4oQzU9TylbQ0gyXVtPSF0=

>  <s_glide_docking_method>  (1) 
confgen

>  <s_i_glide_gridfile>  (1) 
gpcr_5ht2c_6bqh_protein_autoprepared_prepared

>  <s_lp_Force_Field>  (1) 
S-OPLS

>  <s_lp_Variant>  (1) 
DiffSBDD_41-2

>  <s_m_source_file>  (1) 
generated_GPCR_5HT2C_ligand_DiffSBDD_2026-06-23_prepared.sdf

>  <GenAI_Model>  (1) 
DiffSBDD

>  <Protein>  (1) 
GPCR_5HT2C

$$$$
DiffSBDD_3
     RDKit          3D

  0  0  0  0  0  0  0  0  0  0999 V3000
M  V30 BEGIN CTAB
M  V30 COUNTS 55 57 0 0 1
M  V30 BEGIN ATOM
M  V30 1 C 38.212600 27.718856 56.637720 0
M  V30 2 C 38.138199 32.641338 59.061222 0
M  V30 3 C 40.299021 29.108314 51.076762 0 CFG=2
M  V30 4 C 38.164457 32.184828 61.823837 0
M  V30 5 C 39.207271 33.154919 61.267855 0 CFG=1
M  V30 6 N 39.244880 28.688813 53.129998 0
M  V30 7 C 38.045188 33.000120 57.580812 0
M  V30 8 C 39.229371 30.062923 55.170613 0
M  V30 9 C 37.258437 30.251137 58.733795 0 CFG=2
M  V30 10 C 38.679496 33.738950 59.954502 0 CFG=2
M  V30 11 O 37.603523 26.844059 57.252739 0
M  V30 12 C 39.902544 29.765288 52.398836 0
M  V30 13 C 38.974895 28.730971 54.505705 0
M  V30 14 C 39.566811 29.801339 56.607322 0
M  V30 15 C 37.780788 31.422889 59.554327 0
M  V30 16 N 38.663259 28.856742 57.250168 0
M  V30 17 C 38.506761 27.653777 55.188480 0
M  V30 18 O 37.681430 34.719825 60.167076 0
M  V30 19 C 39.662238 34.222210 62.277432 0
M  V30 20 O 36.115810 29.737754 59.367762 0
M  V30 21 C 40.444958 30.087157 49.905562 0
M  V30 22 C 38.339849 29.141525 58.649394 0
M  V30 23 C 38.976709 27.522771 52.306767 0
M  V30 24 O 37.869134 31.133432 60.904836 0
M  V30 25 C 39.234209 28.024595 50.887798 0
M  V30 26 H 41.245135 28.600487 51.245578 0
M  V30 27 H 38.536920 31.725930 62.739101 0
M  V30 28 H 37.242844 32.707900 62.083233 0
M  V30 29 H 40.090033 32.559880 61.028087 0
M  V30 30 H 37.360890 33.837343 57.447465 0
M  V30 31 H 39.023829 33.311702 57.216114 0
M  V30 32 H 37.700278 32.213060 56.919130 0
M  V30 33 H 40.030775 30.658643 54.741201 0
M  V30 34 H 36.909643 30.536167 57.747315 0
M  V30 35 H 39.517838 34.205890 59.438544 0
M  V30 36 H 39.245137 30.614451 52.251089 0
M  V30 37 H 40.793907 30.137615 52.897885 0
M  V30 38 H 39.634485 30.739314 57.156368 0
M  V30 39 H 40.546886 29.336909 56.660929 0
M  V30 40 H 38.318563 26.729782 54.664238 0
M  V30 41 H 37.285649 34.927999 59.332766 0
M  V30 42 H 38.845123 34.881553 62.567832 0
M  V30 43 H 40.053132 33.762549 63.185270 0
M  V30 44 H 40.451834 34.844453 61.855240 0
M  V30 45 H 36.289529 29.734116 60.295647 0
M  V30 46 H 39.532437 30.663971 49.756985 0
M  V30 47 H 41.255866 30.794142 50.084804 0
M  V30 48 H 40.660918 29.557454 48.977694 0
M  V30 49 H 39.258661 29.460835 59.144472 0
M  V30 50 H 38.045154 28.249152 59.202570 0
M  V30 51 H 39.666574 26.720819 52.572290 0
M  V30 52 H 37.953622 27.161797 52.420040 0
M  V30 53 H 39.528248 27.231981 50.199809 0
M  V30 54 H 38.324031 28.485170 50.515924 0
M  V30 55 H 38.316495 30.656886 55.104928 0
M  V30 END ATOM
M  V30 BEGIN BOND
M  V30 1 1 5 4
M  V30 2 1 7 2
M  V30 3 1 10 2
M  V30 4 1 10 5
M  V30 5 2 11 1
M  V30 6 1 12 3
M  V30 7 1 12 6
M  V30 8 1 13 6
M  V30 9 1 13 8
M  V30 10 1 14 8
M  V30 11 2 15 2
M  V30 12 1 15 9
M  V30 13 1 16 1
M  V30 14 1 16 14
M  V30 15 1 17 1
M  V30 16 2 17 13
M  V30 17 1 18 10
M  V30 18 1 19 5
M  V30 19 1 20 9
M  V30 20 1 21 3
M  V30 21 1 22 9
M  V30 22 1 22 16
M  V30 23 1 23 6
M  V30 24 1 24 4
M  V30 25 1 24 15
M  V30 26 1 25 3
M  V30 27 1 25 23
M  V30 28 1 3 26 CFG=1
M  V30 29 1 27 4
M  V30 30 1 28 4
M  V30 31 1 5 29 CFG=3
M  V30 32 1 30 7
M  V30 33 1 31 7
M  V30 34 1 32 7
M  V30 35 1 33 8
M  V30 36 1 9 34 CFG=3
M  V30 37 1 10 35 CFG=3
M  V30 38 1 36 12
M  V30 39 1 37 12
M  V30 40 1 38 14
M  V30 41 1 39 14
M  V30 42 1 40 17
M  V30 43 1 41 18
M  V30 44 1 42 19
M  V30 45 1 43 19
M  V30 46 1 44 19
M  V30 47 1 45 20
M  V30 48 1 46 21
M  V30 49 1 47 21
M  V30 50 1 48 21
M  V30 51 1 49 22
M  V30 52 1 50 22
M  V30 53 1 51 23
M  V30 54 1 52 23
M  V30 55 1 53 25
M  V30 56 1 54 25
M  V30 57 1 55 8
M  V30 END BOND
M  V30 END CTAB
M  END
>  <i_epik_Tot_Q>  (1) 
0

>  <i_epik_Tot_abs_Q>  (1) 
0

>  <i_i_glide_confnum>  (1) 
5

>  <i_i_glide_lignum>  (1) 
11

>  <i_i_glide_posenum>  (1) 
42

>  <i_i_glide_rotatable_bonds>  (1) 
6

>  <i_lp_mmshare_version>  (1) 
72125

>  <i_m_source_file_index>  (1) 
4

>  <i_f3d_flags>  (1) 
0

>  <num_sample>  (1) 
50

>  <b_lp_Chiralities_Consistent>  (1) 
1

>  <r_epik_Charging_Adjusted_Penalty>  (1) 
0.0014021342352173091

>  <r_epik_Ionization_Penalty>  (1) 
0.00010460091952456132

>  <r_epik_Ionization_Penalty_Charging>  (1) 
0

>  <r_epik_Ionization_Penalty_Neutral>  (1) 
0.00010460091952456132

>  <r_epik_State_Penalty>  (1) 
0.0014021342352173091

>  <r_glide_ring_energy>  (1) 
0

>  <r_i_docking_score>  (1) 
-6.3534437484213697

>  <r_i_glide_ecoul>  (1) 
-0.85703462900037164

>  <r_i_glide_eff_state_penalty>  (1) 
0.0014021342352173091

>  <r_i_glide_einternal>  (1) 
6.6975702564391959

>  <r_i_glide_emodel>  (1) 
-45.984922143488362

>  <r_i_glide_emodel_strain>  (1) 
1.21613164232744

>  <r_i_glide_energy>  (1) 
-36.348206781259904

>  <r_i_glide_erotb>  (1) 
0.62076481070925627

>  <r_i_glide_esite>  (1) 
0

>  <r_i_glide_evdw>  (1) 
-35.49117215225953

>  <r_i_glide_gscore>  (1) 
-6.354845882656587

>  <r_i_glide_gscore_strain>  (1) 
0

>  <r_i_glide_hbond>  (1) 
0

>  <r_i_glide_ligand_efficiency>  (1) 
-0.25413774993685478

>  <r_i_glide_ligand_efficiency_ln>  (1) 
-1.5059565657208822

>  <r_i_glide_ligand_efficiency_sa>  (1) 
-0.74310328876486909

>  <r_i_glide_lipo>  (1) 
-2.9022420115021657

>  <r_i_glide_metal>  (1) 
-0

>  <r_i_glide_rewards>  (1) 
-2.1702548799006451

>  <r_lp_Energy>  (1) 
-2.7583759999999997

>  <s_epik_cmdline>  (1) 
J2VwaWtfcHl0aG9uJywgJy1waHQnLCAnMS4wJywgJy1waCcsICc3LjQnLCAnLXRuJywgJzgnLCAnLW1hJywgJzUwMCcsICctaW1hZScsICc8aW5maWxlLm1hZT4nLCAnLW9tYWUnLCAnPG91dGZpbGUubWFlPic=

>  <s_epik_input>  (1) 
W0NIM11bQ0BIXTFbQ0gyXU4oW0NIMl1bQ0gyXTEpQyhbQ0gyXTIpPVtDSF1bQ0gyXU4oQzI9TylbQ0gyXVtDQEBIXShbT0hdKUMoPUMzW0NIM10pT1tDSDJdW0NASF0oW0NIM10pW0NAQEhdM1tPSF0=

>  <s_glide_docking_method>  (1) 
confgen

>  <s_i_glide_gridfile>  (1) 
gpcr_5ht2c_6bqh_protein_autoprepared_prepared

>  <s_lp_Force_Field>  (1) 
S-OPLS

>  <s_lp_Variant>  (1) 
DiffSBDD_3-1

>  <s_m_source_file>  (1) 
generated_GPCR_5HT2C_ligand_DiffSBDD_2026-06-23_prepared.sdf

>  <GenAI_Model>  (1) 
DiffSBDD

>  <Protein>  (1) 
GPCR_5HT2C

$$$$
DiffSBDD_14
     RDKit          3D

  0  0  0  0  0  0  0  0  0  0999 V3000
M  V30 BEGIN CTAB
M  V30 COUNTS 59 60 0 0 1
M  V30 BEGIN ATOM
M  V30 1 Cl 40.449809 30.146294 49.768689 0
M  V30 2 C 39.331783 33.237863 55.767765 0
M  V30 3 N 38.803124 27.360335 52.112945 0
M  V30 4 C 38.768288 27.998843 53.302865 0
M  V30 5 C 39.744557 32.084365 61.649360 0
M  V30 6 C 41.107160 33.414801 65.270640 0
M  V30 7 C 41.959004 35.497558 64.165659 0
M  V30 8 C 37.946066 32.880798 56.306814 0 CFG=1
M  V30 9 C 38.132750 34.412859 60.914702 0
M  V30 10 C 39.805390 29.355107 51.152026 0
M  V30 11 C 41.525948 34.230120 64.058427 0
M  V30 12 C 39.311474 28.039589 51.060481 0
M  V30 13 O 36.845254 29.794722 55.075902 0
M  V30 14 N 37.657265 31.428108 56.273502 0 CHG=1
M  V30 15 C 41.429736 33.520758 62.720434 0
M  V30 16 C 38.268376 31.943847 61.250468 0
M  V30 17 C 39.764314 30.007691 52.389973 0
M  V30 18 C 37.839077 30.761628 54.971881 0 CFG=1
M  V30 19 C 39.234807 29.316459 53.489695 0
M  V30 20 C 39.156332 29.973783 54.850358 0
M  V30 21 C 38.481703 32.856715 58.864031 0
M  V30 22 C 37.844768 33.045071 60.264695 0 CFG=2
M  V30 23 C 39.589114 34.546198 61.416131 0
M  V30 24 N 40.016195 33.403347 62.275501 0 CFG=1 CHG=1
M  V30 25 C 37.652169 33.462637 57.709942 0
M  V30 26 H 39.348210 34.263717 55.395410 0
M  V30 27 H 40.110500 33.085059 56.511237 0
M  V30 28 H 39.602202 32.651754 54.897874 0
M  V30 29 H 38.355007 27.441928 54.131135 0
M  V30 30 H 40.006014 31.283775 62.344038 0
M  V30 31 H 40.384660 31.959944 60.775900 0
M  V30 32 H 41.835095 32.625417 65.460300 0
M  V30 33 H 41.050906 34.035881 66.165714 0
M  V30 34 H 40.134927 32.939349 65.128987 0
M  V30 35 H 42.024601 35.986057 65.128664 0
M  V30 36 H 42.253292 36.063432 63.293659 0
M  V30 37 H 37.245146 33.347792 55.618718 0
M  V30 38 H 37.898577 35.217167 60.215246 0
M  V30 39 H 37.452827 34.549779 61.757265 0
M  V30 40 H 39.329630 27.514244 50.121084 0
M  V30 41 H 36.026220 30.166134 54.780111 0
M  V30 42 H 36.656774 31.400369 56.537678 0
M  V30 43 H 41.887786 32.538525 62.851760 0
M  V30 44 H 42.028502 34.023886 61.959183 0
M  V30 45 H 37.644041 31.994810 62.144067 0
M  V30 46 H 38.089035 30.959096 60.816971 0
M  V30 47 H 40.132906 31.017747 52.495045 0
M  V30 48 H 37.644492 31.428431 54.130137 0
M  V30 49 H 40.039078 30.595480 54.985823 0
M  V30 50 H 39.214123 29.207685 55.626364 0
M  V30 51 H 38.598614 31.786793 58.695073 0
M  V30 52 H 39.492654 33.261132 58.839679 0
M  V30 53 H 36.764609 32.952033 60.142631 0
M  V30 54 H 39.698885 35.477064 61.974933 0
M  V30 55 H 40.257290 34.627382 60.559429 0
M  V30 56 H 37.792823 34.538250 57.674479 0
M  V30 57 H 36.594098 33.341203 57.933431 0
M  V30 58 H 39.450536 33.434663 63.113104 0
M  V30 59 H 38.182166 30.938073 56.979864 0
M  V30 END ATOM
M  V30 BEGIN BOND
M  V30 1 1 4 3
M  V30 2 1 8 2
M  V30 3 1 10 1
M  V30 4 1 11 6
M  V30 5 2 11 7
M  V30 6 2 12 3
M  V30 7 1 12 10
M  V30 8 1 14 8
M  V30 9 1 15 11
M  V30 10 1 16 5
M  V30 11 2 17 10
M  V30 12 1 18 13
M  V30 13 1 18 14
M  V30 14 2 19 4
M  V30 15 1 19 17
M  V30 16 1 20 18
M  V30 17 1 20 19
M  V30 18 1 22 9
M  V30 19 1 22 16
M  V30 20 1 22 21
M  V30 21 1 23 9
M  V30 22 1 24 5
M  V30 23 1 24 15
M  V30 24 1 24 23
M  V30 25 1 25 8
M  V30 26 1 25 21
M  V30 27 1 26 2
M  V30 28 1 27 2
M  V30 29 1 28 2
M  V30 30 1 29 4
M  V30 31 1 30 5
M  V30 32 1 31 5
M  V30 33 1 32 6
M  V30 34 1 33 6
M  V30 35 1 34 6
M  V30 36 1 35 7
M  V30 37 1 36 7
M  V30 38 1 8 37 CFG=3
M  V30 39 1 38 9
M  V30 40 1 39 9
M  V30 41 1 40 12
M  V30 42 1 41 13
M  V30 43 1 42 14
M  V30 44 1 43 15
M  V30 45 1 44 15
M  V30 46 1 45 16
M  V30 47 1 46 16
M  V30 48 1 47 17
M  V30 49 1 18 48 CFG=3
M  V30 50 1 49 20
M  V30 51 1 50 20
M  V30 52 1 51 21
M  V30 53 1 52 21
M  V30 54 1 22 53 CFG=3
M  V30 55 1 54 23
M  V30 56 1 55 23
M  V30 57 1 56 25
M  V30 58 1 57 25
M  V30 59 1 24 58 CFG=1
M  V30 60 1 59 14
M  V30 END BOND
M  V30 END CTAB
M  END
>  <i_epik_Tot_Q>  (1) 
2

>  <i_epik_Tot_abs_Q>  (1) 
2

>  <i_i_glide_confnum>  (1) 
355

>  <i_i_glide_lignum>  (1) 
28

>  <i_i_glide_posenum>  (1) 
201

>  <i_i_glide_rotatable_bonds>  (1) 
10

>  <i_lp_mmshare_version>  (1) 
72125

>  <i_m_source_file_index>  (1) 
15

>  <i_f3d_flags>  (1) 
0

>  <num_sample>  (1) 
50

>  <b_lp_Chiralities_Consistent>  (1) 
1

>  <r_epik_Charging_Adjusted_Penalty>  (1) 
0.35265002497065456

>  <r_epik_Ionization_Penalty>  (1) 
0.35265410833524857

>  <r_epik_Ionization_Penalty_Charging>  (1) 
0.072075358936459305

>  <r_epik_Ionization_Penalty_Neutral>  (1) 
0.2805787493987893

>  <r_epik_State_Penalty>  (1) 
0.28057466603419523

>  <r_glide_ring_energy>  (1) 
0

>  <r_i_docking_score>  (1) 
-6.3476578333732538

>  <r_i_glide_ecoul>  (1) 
-6.2967291067496287

>  <r_i_glide_eff_state_penalty>  (1) 
0.28057466603419523

>  <r_i_glide_einternal>  (1) 
10.76707844972797

>  <r_i_glide_emodel>  (1) 
-50.949419251786338

>  <r_i_glide_emodel_strain>  (1) 
1.3782552098938261

>  <r_i_glide_energy>  (1) 
-38.9353211436541

>  <r_i_glide_erotb>  (1) 
1.1382379647718497

>  <r_i_glide_esite>  (1) 
-0.15214100181002674

>  <r_i_glide_evdw>  (1) 
-32.63859203690447

>  <r_i_glide_gscore>  (1) 
-6.6282324994074493

>  <r_i_glide_gscore_strain>  (1) 
0

>  <r_i_glide_hbond>  (1) 
-0.14558232826665513

>  <r_i_glide_ligand_efficiency>  (1) 
-0.25390631333493013

>  <r_i_glide_ligand_efficiency_ln>  (1) 
-1.5045851304645963

>  <r_i_glide_ligand_efficiency_sa>  (1) 
-0.74242656403556984

>  <r_i_glide_lipo>  (1) 
-3.261874600259282

>  <r_i_glide_metal>  (1) 
-0

>  <r_i_glide_rewards>  (1) 
-1.6304335659856681

>  <r_lp_Energy>  (1) 
34.603625000000001

>  <s_epik_Chemistry_Notes>  (1) 
This compound contains an acetal/aminal-like group ( X-CH(R)-Y where X, Y are N, S, or O) that may be acid/base labile, releasing an aldehyde.

>  <s_epik_cmdline>  (1) 
J2VwaWtfcHl0aG9uJywgJy1waHQnLCAnMS4wJywgJy1waCcsICc3LjQnLCAnLXRuJywgJzgnLCAnLW1hJywgJzUwMCcsICctaW1hZScsICc8aW5maWxlLm1hZT4nLCAnLW9tYWUnLCAnPG91dGZpbGUubWFlPic=

>  <s_epik_input>  (1) 
Q2xjMVtjSF1uW2NIXWMoW2NIXTEpW0NIMl1bQ0BASF0oW09IXSlbTkhdW0NASF0oW0NIM10pW0NIMl1bQ0gyXVtDSF0yW0NIMl1bQ0gyXU4oW0NIMl1bQ0gyXTIpW0NIMl1DKFtDSDNdKT1bQ0gyXQ==

>  <s_glide_docking_method>  (1) 
confgen

>  <s_i_glide_gridfile>  (1) 
gpcr_5ht2c_6bqh_protein_autoprepared_prepared

>  <s_lp_Force_Field>  (1) 
S-OPLS

>  <s_lp_Variant>  (1) 
DiffSBDD_14-2

>  <s_m_source_file>  (1) 
generated_GPCR_5HT2C_ligand_DiffSBDD_2026-06-23_prepared.sdf

>  <GenAI_Model>  (1) 
DiffSBDD

>  <Protein>  (1) 
GPCR_5HT2C

$$$$
DiffSBDD_1
     RDKit          3D

  0  0  0  0  0  0  0  0  0  0999 V3000
M  V30 BEGIN CTAB
M  V30 COUNTS 78 81 0 0 1
M  V30 BEGIN ATOM
M  V30 1 C 39.191632 33.817172 61.752404 0
M  V30 2 N 41.725226 33.612873 65.154235 0
M  V30 3 C 40.624417 30.439733 66.470000 0 CFG=1
M  V30 4 C 41.993082 30.737914 67.102834 0
M  V30 5 C 40.747335 26.889241 57.702679 0
M  V30 6 C 38.824800 30.167206 61.279651 0
M  V30 7 C 40.452173 31.408583 65.282988 0
M  V30 8 C 41.802571 32.127915 65.076524 0 CFG=2
M  V30 9 C 37.690934 26.986768 57.767744 0
M  V30 10 N 38.985236 31.526673 60.771480 0
M  V30 11 O 37.592959 30.508692 54.788686 0
M  V30 12 C 38.005370 30.656711 60.121043 0 CFG=1
M  V30 13 C 37.986897 28.307394 57.163267 0 CFG=1
M  V30 14 O 37.130704 29.434308 57.644916 0
M  V30 15 C 39.663162 30.761690 53.587878 0
M  V30 16 C 41.371405 28.495946 65.194824 0
M  V30 17 C 39.135935 28.801689 57.904344 0
M  V30 18 C 42.142681 34.348464 63.946052 0
M  V30 19 C 39.460797 31.520568 55.972827 0
M  V30 20 O 41.206465 28.937754 58.869154 0
M  V30 21 O 40.921002 33.660006 67.288586 0
M  V30 22 C 38.612442 31.839454 57.216186 0
M  V30 23 O 40.445160 29.070164 66.108726 0
M  V30 24 O 37.865582 25.060802 56.418387 0
M  V30 25 P 38.437371 30.340366 58.354571 0 CFG=2 CHG=1
M  V30 26 C 38.711440 31.356524 54.640845 0 CFG=2
M  V30 27 C 40.322678 28.228356 58.158148 0
M  V30 28 C 43.987104 32.284052 66.569035 0
M  V30 29 O 40.280214 33.540306 62.619549 0
M  V30 30 C 41.291974 34.256736 66.279769 0
M  V30 31 C 41.285040 35.789675 66.263688 0
M  V30 32 C 39.965069 25.881522 57.183482 0
M  V30 33 C 38.478945 25.913093 57.056968 0
M  V30 34 C 40.959820 34.715981 63.030837 0
M  V30 35 C 42.824331 31.435191 66.018195 0 CFG=1
M  V30 36 C 38.335642 32.557141 61.582383 0
M  V30 37 H 39.557064 34.172128 60.787222 0
M  V30 38 H 38.568390 34.609453 62.167691 0
M  V30 39 H 39.848453 30.645617 67.207599 0
M  V30 40 H 41.856290 31.406576 67.952525 0
M  V30 41 H 42.479308 29.845853 67.497689 0
M  V30 42 H 41.806201 26.679935 57.765415 0
M  V30 43 H 38.411452 30.140434 62.286081 0
M  V30 44 H 39.720453 29.578578 61.091897 0
M  V30 45 H 39.652128 32.118071 65.476075 0
M  V30 46 H 40.144613 30.884455 64.378008 0
M  V30 47 H 42.112479 31.870681 64.063149 0
M  V30 48 H 37.979056 26.945987 58.819262 0
M  V30 49 H 36.628841 26.751195 57.702771 0
M  V30 50 H 36.929547 30.961238 55.298431 0
M  V30 51 H 36.978988 30.941651 60.342956 0
M  V30 52 H 38.060675 28.302631 56.074374 0
M  V30 53 H 40.585535 31.337677 53.530251 0
M  V30 54 H 39.938457 29.737816 53.841413 0
M  V30 55 H 39.245148 30.749387 52.584288 0
M  V30 56 H 41.046817 27.483256 64.955886 0
M  V30 57 H 41.431666 29.047104 64.256816 0
M  V30 58 H 42.370677 28.423437 65.623663 0
M  V30 59 H 42.839795 33.737860 63.372642 0
M  V30 60 H 42.717164 35.240595 64.192030 0
M  V30 61 H 40.193470 32.316846 55.842036 0
M  V30 62 H 40.045125 30.622783 56.159325 0
M  V30 63 H 41.978321 28.402477 58.992997 0
M  V30 64 H 37.645138 32.248873 56.933882 0
M  V30 65 H 39.105500 32.632173 57.779306 0
M  V30 66 H 38.351234 32.329227 54.301623 0
M  V30 67 H 43.647358 33.054449 67.260757 0
M  V30 68 H 44.692971 31.655788 67.112812 0
M  V30 69 H 44.539211 32.773437 65.767763 0
M  V30 70 H 40.629054 36.196532 65.497822 0
M  V30 71 H 40.916999 36.159923 67.221040 0
M  V30 72 H 42.289875 36.192274 66.136671 0
M  V30 73 H 40.445162 24.973107 56.858420 0
M  V30 74 H 41.332740 35.247880 62.154065 0
M  V30 75 H 40.262068 35.385212 63.531893 0
M  V30 76 H 43.285424 30.642699 65.427362 0
M  V30 77 H 37.403885 32.868296 61.107627 0
M  V30 78 H 38.062522 32.180921 62.567741 0
M  V30 END ATOM
M  V30 BEGIN BOND
M  V30 1 1 4 3
M  V30 2 1 7 3
M  V30 3 1 8 2
M  V30 4 1 8 7
M  V30 5 1 10 6
M  V30 6 1 12 6
M  V30 7 1 12 10
M  V30 8 1 13 9
M  V30 9 1 14 13
M  V30 10 1 17 13
M  V30 11 1 18 2
M  V30 12 1 22 19
M  V30 13 1 23 3
M  V30 14 1 23 16
M  V30 15 1 25 12
M  V30 16 1 25 14
M  V30 17 1 25 17
M  V30 18 1 25 22 CFG=3
M  V30 19 1 26 11
M  V30 20 1 26 15
M  V30 21 1 26 19
M  V30 22 1 27 5
M  V30 23 2 27 17
M  V30 24 1 27 20
M  V30 25 1 29 1
M  V30 26 1 30 2
M  V30 27 2 30 21
M  V30 28 1 31 30
M  V30 29 2 32 5
M  V30 30 1 33 9
M  V30 31 2 33 24
M  V30 32 1 33 32
M  V30 33 1 34 18
M  V30 34 1 34 29
M  V30 35 1 35 4
M  V30 36 1 35 8
M  V30 37 1 35 28
M  V30 38 1 36 1
M  V30 39 1 36 10
M  V30 40 1 37 1
M  V30 41 1 38 1
M  V30 42 1 3 39 CFG=1
M  V30 43 1 40 4
M  V30 44 1 41 4
M  V30 45 1 42 5
M  V30 46 1 43 6
M  V30 47 1 44 6
M  V30 48 1 45 7
M  V30 49 1 46 7
M  V30 50 1 8 47 CFG=3
M  V30 51 1 48 9
M  V30 52 1 49 9
M  V30 53 1 50 11
M  V30 54 1 12 51 CFG=1
M  V30 55 1 13 52 CFG=3
M  V30 56 1 53 15
M  V30 57 1 54 15
M  V30 58 1 55 15
M  V30 59 1 56 16
M  V30 60 1 57 16
M  V30 61 1 58 16
M  V30 62 1 59 18
M  V30 63 1 60 18
M  V30 64 1 61 19
M  V30 65 1 62 19
M  V30 66 1 63 20
M  V30 67 1 64 22
M  V30 68 1 65 22
M  V30 69 1 26 66 CFG=3
M  V30 70 1 67 28
M  V30 71 1 68 28
M  V30 72 1 69 28
M  V30 73 1 70 31
M  V30 74 1 71 31
M  V30 75 1 72 31
M  V30 76 1 73 32
M  V30 77 1 74 34
M  V30 78 1 75 34
M  V30 79 1 35 76 CFG=3
M  V30 80 1 77 36
M  V30 81 1 78 36
M  V30 END BOND
M  V30 END CTAB
M  END
>  <i_epik_Tot_Q>  (1) 
1

>  <i_epik_Tot_abs_Q>  (1) 
1

>  <i_i_glide_confnum>  (1) 
2155

>  <i_i_glide_lignum>  (1) 
6

>  <i_i_glide_posenum>  (1) 
330

>  <i_i_glide_rotatable_bonds>  (1) 
15

>  <i_lp_mmshare_version>  (1) 
72125

>  <i_m_source_file_index>  (1) 
2

>  <i_f3d_flags>  (1) 
0

>  <num_sample>  (1) 
50

>  <b_lp_Chiralities_Consistent>  (1) 
1

>  <r_epik_Charging_Adjusted_Penalty>  (1) 
0.012777702237649643

>  <r_epik_Ionization_Penalty>  (1) 
0.012893064322698497

>  <r_epik_Ionization_Penalty_Charging>  (1) 
0

>  <r_epik_Ionization_Penalty_Neutral>  (1) 
0.012893064322698497

>  <r_epik_State_Penalty>  (1) 
0.012777702237649643

>  <r_glide_ring_energy>  (1) 
0.14646081137369646

>  <r_i_docking_score>  (1) 
-6.3474921634946142

>  <r_i_glide_ecoul>  (1) 
-2.6568662222951227

>  <r_i_glide_eff_state_penalty>  (1) 
0.012777702237649643

>  <r_i_glide_einternal>  (1) 
17.054901636158405

>  <r_i_glide_emodel>  (1) 
-59.17737498649727

>  <r_i_glide_emodel_strain>  (1) 
0.28974291273971176

>  <r_i_glide_energy>  (1) 
-51.201944692725746

>  <r_i_glide_erotb>  (1) 
0.81958699115176215

>  <r_i_glide_esite>  (1) 
-0.0353760689799162

>  <r_i_glide_evdw>  (1) 
-48.545078470430624

>  <r_i_glide_gscore>  (1) 
-6.3602698657322643

>  <r_i_glide_gscore_strain>  (1) 
0

>  <r_i_glide_hbond>  (1) 
-0.018182567603229182

>  <r_i_glide_ligand_efficiency>  (1) 
-0.17631922676373929

>  <r_i_glide_ligand_efficiency_ln>  (1) 
-1.3848513006543117

>  <r_i_glide_ligand_efficiency_sa>  (1) 
-0.58219325935522159

>  <r_i_glide_lipo>  (1) 
-3.3865550014992261

>  <r_i_glide_metal>  (1) 
-0

>  <r_i_glide_rewards>  (1) 
-0.91395936193585547

>  <r_lp_Energy>  (1) 
35.539625000000001

>  <s_epik_cmdline>  (1) 
J2VwaWtfcHl0aG9uJywgJy1waHQnLCAnMS4wJywgJy1waCcsICc3LjQnLCAnLXRuJywgJzgnLCAnLW1hJywgJzUwMCcsICctaW1hZScsICc8aW5maWxlLm1hZT4nLCAnLW9tYWUnLCAnPG91dGZpbGUubWFlPic=

>  <s_epik_input>  (1) 
W0NIM11PW0NASF0xW0NIMl1bQ0BIXShbQ0gzXSlbQ0BASF0oW0NIMl0xKU4oQyg9TylbQ0gzXSlbQ0gyXVtDSDJdT1tDSDJdW0NIMl1OMltDSDJdW0NIXTJbUEBAK10oTzMpKFtDSDJdW0NIMl1bQ0BIXShbT0hdKVtDSDNdKUMoW0NAQEhdMzQpPUMoW09IXSlbQ0hdPVtDSF1DKD1PKVtDSDJdNA==

>  <s_glide_docking_method>  (1) 
confgen

>  <s_i_glide_gridfile>  (1) 
gpcr_5ht2c_6bqh_protein_autoprepared_prepared

>  <s_lp_Force_Field>  (1) 
S-OPLS

>  <s_lp_Variant>  (1) 
DiffSBDD_1-2

>  <s_m_source_file>  (1) 
generated_GPCR_5HT2C_ligand_DiffSBDD_2026-06-23_prepared.sdf

>  <GenAI_Model>  (1) 
DiffSBDD

>  <Protein>  (1) 
GPCR_5HT2C

$$$$
DiffSBDD_19
     RDKit          3D

  0  0  0  0  0  0  0  0  0  0999 V3000
M  V30 BEGIN CTAB
M  V30 COUNTS 70 72 0 0 1
M  V30 BEGIN ATOM
M  V30 1 O 39.540593 27.132080 55.631599 0
M  V30 2 C 39.179646 30.086741 53.368039 0
M  V30 3 C 37.492890 36.069583 61.440956 0
M  V30 4 C 38.733416 28.065702 52.115161 0
M  V30 5 C 38.058909 29.818471 54.183927 0
M  V30 6 C 40.014222 31.304947 53.604080 0
M  V30 7 C 38.371249 25.936467 57.937973 0
M  V30 8 C 37.511117 33.389267 58.642527 0
M  V30 9 C 38.723998 35.814932 62.297958 0 CFG=2
M  V30 10 N 39.902663 36.588680 61.878903 0
M  V30 11 F 39.955803 27.623134 50.167799 0
M  V30 12 C 37.287477 28.676225 53.951119 0
M  V30 13 F 39.654654 26.137730 51.714728 0
M  V30 14 C 41.144099 36.182105 62.526980 0
M  V30 15 C 38.238124 32.528242 59.677168 0 CFG=2
M  V30 16 C 36.982505 30.321462 59.269477 0
M  V30 17 C 39.281243 29.290536 56.682345 0
M  V30 18 O 38.877838 27.262306 57.857495 0
M  V30 19 O 37.127844 37.160755 61.010540 0
M  V30 20 C 39.508705 29.212425 52.328812 0
M  V30 21 C 38.776322 27.831219 56.593035 0 CFG=2
M  V30 22 C 37.689406 30.751671 55.314998 0
M  V30 23 N 37.557528 33.773502 61.748569 0
M  V30 24 C 39.095851 27.112136 51.041294 0
M  V30 25 C 37.628052 27.798551 52.929435 0
M  V30 26 C 38.285420 31.131494 59.046828 0 CFG=1
M  V30 27 O 40.912357 36.137580 63.916119 0
M  V30 28 C 38.022682 32.879810 57.300894 0
M  V30 29 C 38.576690 31.457738 57.560906 0 CFG=2
M  V30 30 N 36.918219 34.890045 61.240964 0
M  V30 31 N 38.205263 30.336282 56.654702 0 CFG=2 CHG=1
M  V30 32 C 38.884886 34.286472 62.131912 0
M  V30 33 N 37.614755 32.529662 61.020887 0 CHG=1
M  V30 34 H 39.256853 27.404628 54.769628 0
M  V30 35 H 40.845178 31.338059 52.903882 0
M  V30 36 H 39.352796 32.137741 53.411215 0
M  V30 37 H 40.393376 31.360109 54.622973 0
M  V30 38 H 38.445537 25.585850 58.966855 0
M  V30 39 H 37.323241 25.888169 57.642280 0
M  V30 40 H 38.944316 25.246239 57.317003 0
M  V30 41 H 36.432376 33.237947 58.699600 0
M  V30 42 H 37.697241 34.456156 58.761526 0
M  V30 43 H 38.451420 36.068334 63.324099 0
M  V30 44 H 40.027473 36.571571 60.877742 0
M  V30 45 H 36.445343 28.466990 54.567797 0
M  V30 46 H 41.923981 36.905638 62.311243 0
M  V30 47 H 41.475964 35.209382 62.163967 0
M  V30 48 H 39.269175 32.871074 59.743324 0
M  V30 49 H 36.108366 30.823923 58.856412 0
M  V30 50 H 37.043843 29.332883 58.814878 0
M  V30 51 H 36.784849 30.147578 60.326842 0
M  V30 52 H 40.032043 29.484065 55.917096 0
M  V30 53 H 39.850466 29.348742 57.610144 0
M  V30 54 H 40.365736 29.414703 51.701567 0
M  V30 55 H 37.731185 27.770628 56.296102 0
M  V30 56 H 36.603519 30.797620 55.367415 0
M  V30 57 H 37.995541 31.754170 55.037062 0
M  V30 58 H 38.218829 26.685872 50.567293 0
M  V30 59 H 37.042522 26.910294 52.768619 0
M  V30 60 H 39.108656 30.556833 59.476088 0
M  V30 61 H 41.322720 36.905423 64.307160 0
M  V30 62 H 37.245114 32.966649 56.555987 0
M  V30 63 H 38.831253 33.523998 56.952039 0
M  V30 64 H 39.645051 31.591797 57.413642 0
M  V30 65 H 36.051337 34.777499 60.733152 0
M  V30 66 H 39.620167 34.089783 61.353543 0
M  V30 67 H 39.244063 33.803248 63.040419 0
M  V30 68 H 38.115461 31.889641 61.622390 0
M  V30 69 H 36.655939 32.223118 60.927848 0
M  V30 70 H 37.400789 29.923769 57.105088 0
M  V30 END ATOM
M  V30 BEGIN BOND
M  V30 1 2 5 2
M  V30 2 1 6 2
M  V30 3 1 9 3
M  V30 4 1 10 9
M  V30 5 1 12 5
M  V30 6 1 14 10
M  V30 7 1 15 8
M  V30 8 1 18 7
M  V30 9 2 19 3
M  V30 10 1 20 2
M  V30 11 2 20 4
M  V30 12 1 21 1
M  V30 13 1 21 17
M  V30 14 1 21 18
M  V30 15 1 22 5
M  V30 16 1 24 4
M  V30 17 1 24 11
M  V30 18 1 24 13
M  V30 19 1 25 4
M  V30 20 2 25 12
M  V30 21 1 26 15
M  V30 22 1 26 16
M  V30 23 1 27 14
M  V30 24 1 28 8
M  V30 25 1 29 26
M  V30 26 1 29 28
M  V30 27 1 30 3
M  V30 28 1 30 23
M  V30 29 1 31 17
M  V30 30 1 31 22
M  V30 31 1 31 29
M  V30 32 1 32 9
M  V30 33 1 32 23
M  V30 34 1 33 15
M  V30 35 1 33 23
M  V30 36 1 34 1
M  V30 37 1 35 6
M  V30 38 1 36 6
M  V30 39 1 37 6
M  V30 40 1 38 7
M  V30 41 1 39 7
M  V30 42 1 40 7
M  V30 43 1 41 8
M  V30 44 1 42 8
M  V30 45 1 9 43 CFG=1
M  V30 46 1 44 10
M  V30 47 1 45 12
M  V30 48 1 46 14
M  V30 49 1 47 14
M  V30 50 1 15 48 CFG=1
M  V30 51 1 49 16
M  V30 52 1 50 16
M  V30 53 1 51 16
M  V30 54 1 52 17
M  V30 55 1 53 17
M  V30 56 1 54 20
M  V30 57 1 21 55 CFG=3
M  V30 58 1 56 22
M  V30 59 1 57 22
M  V30 60 1 58 24
M  V30 61 1 59 25
M  V30 62 1 26 60 CFG=1
M  V30 63 1 61 27
M  V30 64 1 62 28
M  V30 65 1 63 28
M  V30 66 1 29 64 CFG=1
M  V30 67 1 65 30
M  V30 68 1 66 32
M  V30 69 1 67 32
M  V30 70 1 68 33
M  V30 71 1 69 33
M  V30 72 1 31 70 CFG=1
M  V30 END BOND
M  V30 END CTAB
M  END
>  <i_epik_Tot_Q>  (1) 
2

>  <i_epik_Tot_abs_Q>  (1) 
2

>  <i_i_glide_confnum>  (1) 
1376

>  <i_i_glide_lignum>  (1) 
44

>  <i_i_glide_posenum>  (1) 
232

>  <i_i_glide_rotatable_bonds>  (1) 
13

>  <i_lp_mmshare_version>  (1) 
72125

>  <i_m_source_file_index>  (1) 
20

>  <i_f3d_flags>  (1) 
0

>  <num_sample>  (1) 
50

>  <b_lp_Chiralities_Consistent>  (1) 
1

>  <r_epik_Charging_Adjusted_Penalty>  (1) 
1.2214648146791087

>  <r_epik_Ionization_Penalty>  (1) 
0.73374573973567592

>  <r_epik_Ionization_Penalty_Charging>  (1) 
0.65422063123481433

>  <r_epik_Ionization_Penalty_Neutral>  (1) 
0.079525108500861627

>  <r_epik_State_Penalty>  (1) 
0.56724418344429428

>  <r_glide_ring_energy>  (1) 
0

>  <r_i_docking_score>  (1) 
-6.3471152340408361

>  <r_i_glide_ecoul>  (1) 
-7.3257234705070395

>  <r_i_glide_eff_state_penalty>  (1) 
0.56724418344429428

>  <r_i_glide_einternal>  (1) 
10.813553674021122

>  <r_i_glide_emodel>  (1) 
-52.048005948613493

>  <r_i_glide_emodel_strain>  (1) 
4.5988244623049255

>  <r_i_glide_energy>  (1) 
-40.686106685493058

>  <r_i_glide_erotb>  (1) 
0.81178529684743594

>  <r_i_glide_esite>  (1) 
-0.068790641246954193

>  <r_i_glide_evdw>  (1) 
-33.360383214986022

>  <r_i_glide_gscore>  (1) 
-6.9143594174851302

>  <r_i_glide_gscore_strain>  (1) 
0.14970611557623137

>  <r_i_glide_hbond>  (1) 
-0.32000000000000001

>  <r_i_glide_ligand_efficiency>  (1) 
-0.19233682527396473

>  <r_i_glide_ligand_efficiency_ln>  (1) 
-1.4115655644468224

>  <r_i_glide_ligand_efficiency_sa>  (1) 
-0.61692696998865082

>  <r_i_glide_lipo>  (1) 
-2.7202956909569771

>  <r_i_glide_metal>  (1) 
-0

>  <r_i_glide_rewards>  (1) 
-1.9998868163795089

>  <r_lp_Energy>  (1) 
44.756732999999997

>  <s_epik_Chemistry_Notes>  (1) 
This compound contains an acetal/aminal-like group ( X-CH(R)-Y where X, Y are N, S, or O) that may be acid/base labile, releasing an aldehyde.

>  <s_epik_cmdline>  (1) 
J2VwaWtfcHl0aG9uJywgJy1waHQnLCAnMS4wJywgJy1waCcsICc3LjQnLCAnLXRuJywgJzgnLCAnLW1hJywgJzUwMCcsICctaW1hZScsICc8aW5maWxlLm1hZT4nLCAnLW9tYWUnLCAnPG91dGZpbGUubWFlPic=

>  <s_epik_input>  (1) 
RltDSF0oRiljKFtjSF0xKVtjSF1bY0hdYyhjMVtDSDNdKVtDSDJdTihbQ0gyXVtDQEBIXShbT0hdKU9bQ0gzXSlbQ0BIXShbQ0BASF0yW0NIM10pW0NIMl1bQ0gyXVtDQEhdMltOSF1OKFtOSF0zKVtDSDJdW0NASF0oQzM9TylbTkhdW0NIMl1bT0hd

>  <s_glide_docking_method>  (1) 
confgen

>  <s_i_glide_gridfile>  (1) 
gpcr_5ht2c_6bqh_protein_autoprepared_prepared

>  <s_lp_Force_Field>  (1) 
S-OPLS

>  <s_lp_Variant>  (1) 
DiffSBDD_19-3

>  <s_m_source_file>  (1) 
generated_GPCR_5HT2C_ligand_DiffSBDD_2026-06-23_prepared.sdf

>  <GenAI_Model>  (1) 
DiffSBDD

>  <Protein>  (1) 
GPCR_5HT2C

$$$$
DiffSBDD_19
     RDKit          3D

  0  0  0  0  0  0  0  0  0  0999 V3000
M  V30 BEGIN CTAB
M  V30 COUNTS 70 72 0 0 1
M  V30 BEGIN ATOM
M  V30 1 O 38.458519 25.929437 58.042001 0
M  V30 2 C 39.088772 30.473913 54.222512 0
M  V30 3 C 40.527922 34.896585 61.769109 0
M  V30 4 C 39.250100 29.065416 52.241867 0
M  V30 5 C 37.952186 29.744110 54.643059 0
M  V30 6 C 39.633804 31.616748 55.063148 0
M  V30 7 C 40.263483 27.063567 56.155678 0
M  V30 8 C 36.626295 30.980989 60.464291 0
M  V30 9 C 40.511834 34.511664 63.240067 0 CFG=2
M  V30 10 N 41.822862 34.404001 63.886855 0
M  V30 11 F 39.869302 29.650305 50.057926 0
M  V30 12 C 37.470850 28.675686 53.853012 0
M  V30 13 F 41.245118 28.537756 51.331483 0
M  V30 14 C 42.191355 35.675599 64.470766 0
M  V30 15 C 37.943724 31.753698 60.262019 0 CFG=2
M  V30 16 C 39.752309 30.005626 59.708681 0
M  V30 17 C 37.663352 28.090444 57.291043 0
M  V30 18 O 40.010972 27.567858 57.462507 0
M  V30 19 O 41.245130 35.742920 61.251059 0
M  V30 20 C 39.723370 30.137759 53.019449 0
M  V30 21 C 38.762980 27.304680 58.026770 0 CFG=2
M  V30 22 C 37.245248 30.111709 55.928919 0
M  V30 23 N 38.954071 33.212005 61.964467 0
M  V30 24 C 39.971133 28.691386 50.976664 0
M  V30 25 C 38.122735 28.335340 52.656753 0
M  V30 26 C 38.730609 31.021419 59.152964 0 CFG=1
M  V30 27 O 41.475164 35.737757 65.682151 0
M  V30 28 C 36.581461 29.913701 59.366225 0
M  V30 29 C 37.576893 30.432162 58.335038 0 CFG=2
M  V30 30 N 39.626772 34.126990 61.175633 0
M  V30 31 N 37.904999 29.563653 57.152969 0 CFG=1 CHG=1
M  V30 32 C 39.820105 33.152394 63.145662 0
M  V30 33 N 38.717617 31.883449 61.510995 0 CHG=1
M  V30 34 H 39.150882 25.484155 58.507383 0
M  V30 35 H 40.696779 31.737749 54.859381 0
M  V30 36 H 39.119861 32.547260 54.823890 0
M  V30 37 H 39.558262 31.434620 56.133083 0
M  V30 38 H 41.245136 27.405813 55.847461 0
M  V30 39 H 40.270993 25.973022 56.132761 0
M  V30 40 H 39.562847 27.427759 55.408038 0
M  V30 41 H 36.554815 30.537762 61.450233 0
M  V30 42 H 35.778580 31.660716 60.361248 0
M  V30 43 H 39.859127 35.210249 63.767607 0
M  V30 44 H 41.815046 33.734868 64.642813 0
M  V30 45 H 36.603768 28.115718 54.167754 0
M  V30 46 H 41.976040 36.506133 63.793629 0
M  V30 47 H 43.245172 35.698993 64.708592 0
M  V30 48 H 37.678132 32.744964 59.886893 0
M  V30 49 H 39.293315 29.276726 60.376877 0
M  V30 50 H 40.261012 29.481401 58.904743 0
M  V30 51 H 40.546136 30.498043 60.269611 0
M  V30 52 H 36.707754 27.881722 57.767763 0
M  V30 53 H 37.604133 27.633052 56.307473 0
M  V30 54 H 40.588130 30.695717 52.694165 0
M  V30 55 H 38.805083 27.596890 59.071665 0
M  V30 56 H 36.198559 29.816699 55.887049 0
M  V30 57 H 37.245138 31.201297 55.921469 0
M  V30 58 H 39.614030 27.754405 50.547145 0
M  V30 59 H 37.758787 27.512010 52.058319 0
M  V30 60 H 39.245133 31.762629 58.542972 0
M  V30 61 H 41.326450 36.657803 65.861350 0
M  V30 62 H 36.928067 28.966298 59.767765 0
M  V30 63 H 35.581121 29.778497 58.953973 0
M  V30 64 H 37.136394 31.346772 57.955630 0
M  V30 65 H 39.386574 34.212944 60.198608 0
M  V30 66 H 40.568447 32.365098 63.023858 0
M  V30 67 H 39.245168 32.936386 64.035621 0
M  V30 68 H 39.628439 31.464000 61.391076 0
M  V30 69 H 38.239195 31.417667 62.268321 0
M  V30 70 H 38.894431 29.665579 56.976127 0
M  V30 END ATOM
M  V30 BEGIN BOND
M  V30 1 2 5 2
M  V30 2 1 6 2
M  V30 3 1 9 3
M  V30 4 1 10 9
M  V30 5 1 12 5
M  V30 6 1 14 10
M  V30 7 1 15 8
M  V30 8 1 18 7
M  V30 9 2 19 3
M  V30 10 1 20 2
M  V30 11 2 20 4
M  V30 12 1 21 1
M  V30 13 1 21 17
M  V30 14 1 21 18
M  V30 15 1 22 5
M  V30 16 1 24 4
M  V30 17 1 24 11
M  V30 18 1 24 13
M  V30 19 1 25 4
M  V30 20 2 25 12
M  V30 21 1 26 15
M  V30 22 1 26 16
M  V30 23 1 27 14
M  V30 24 1 28 8
M  V30 25 1 29 26
M  V30 26 1 29 28
M  V30 27 1 30 3
M  V30 28 1 30 23
M  V30 29 1 31 17
M  V30 30 1 31 22
M  V30 31 1 31 29
M  V30 32 1 32 9
M  V30 33 1 32 23
M  V30 34 1 33 15
M  V30 35 1 33 23
M  V30 36 1 34 1
M  V30 37 1 35 6
M  V30 38 1 36 6
M  V30 39 1 37 6
M  V30 40 1 38 7
M  V30 41 1 39 7
M  V30 42 1 40 7
M  V30 43 1 41 8
M  V30 44 1 42 8
M  V30 45 1 9 43 CFG=1
M  V30 46 1 44 10
M  V30 47 1 45 12
M  V30 48 1 46 14
M  V30 49 1 47 14
M  V30 50 1 15 48 CFG=3
M  V30 51 1 49 16
M  V30 52 1 50 16
M  V30 53 1 51 16
M  V30 54 1 52 17
M  V30 55 1 53 17
M  V30 56 1 54 20
M  V30 57 1 21 55 CFG=1
M  V30 58 1 56 22
M  V30 59 1 57 22
M  V30 60 1 58 24
M  V30 61 1 59 25
M  V30 62 1 26 60 CFG=3
M  V30 63 1 61 27
M  V30 64 1 62 28
M  V30 65 1 63 28
M  V30 66 1 29 64 CFG=3
M  V30 67 1 65 30
M  V30 68 1 66 32
M  V30 69 1 67 32
M  V30 70 1 68 33
M  V30 71 1 69 33
M  V30 72 1 31 70 CFG=3
M  V30 END BOND
M  V30 END CTAB
M  END
>  <i_epik_Tot_Q>  (1) 
2

>  <i_epik_Tot_abs_Q>  (1) 
2

>  <i_i_glide_confnum>  (1) 
3634

>  <i_i_glide_lignum>  (1) 
45

>  <i_i_glide_posenum>  (1) 
262

>  <i_i_glide_rotatable_bonds>  (1) 
13

>  <i_lp_mmshare_version>  (1) 
72125

>  <i_m_source_file_index>  (1) 
20

>  <i_f3d_flags>  (1) 
0

>  <num_sample>  (1) 
50

>  <b_lp_Chiralities_Consistent>  (1) 
1

>  <r_epik_Charging_Adjusted_Penalty>  (1) 
1.2214648146791087

>  <r_epik_Ionization_Penalty>  (1) 
0.73374573973567592

>  <r_epik_Ionization_Penalty_Charging>  (1) 
0.65422063123481433

>  <r_epik_Ionization_Penalty_Neutral>  (1) 
0.079525108500861627

>  <r_epik_State_Penalty>  (1) 
0.56724418344429428

>  <r_glide_ring_energy>  (1) 
0

>  <r_i_docking_score>  (1) 
-6.3429899304068487

>  <r_i_glide_ecoul>  (1) 
-4.3570520776832407

>  <r_i_glide_eff_state_penalty>  (1) 
0.56724418344429428

>  <r_i_glide_einternal>  (1) 
20.227818719612721

>  <r_i_glide_emodel>  (1) 
-57.252194367183357

>  <r_i_glide_emodel_strain>  (1) 
2.1101406172016581

>  <r_i_glide_energy>  (1) 
-44.316595150937083

>  <r_i_glide_erotb>  (1) 
0.81178529684743594

>  <r_i_glide_esite>  (1) 
-0.068645833425427294

>  <r_i_glide_evdw>  (1) 
-39.95954307325384

>  <r_i_glide_gscore>  (1) 
-6.9102341138511427

>  <r_i_glide_gscore_strain>  (1) 
0

>  <r_i_glide_hbond>  (1) 
-0.14888845764488168

>  <r_i_glide_ligand_efficiency>  (1) 
-0.1922118160729348

>  <r_i_glide_ligand_efficiency_ln>  (1) 
-1.4106481182783026

>  <r_i_glide_ligand_efficiency_sa>  (1) 
-0.61652599868478197

>  <r_i_glide_lipo>  (1) 
-2.7607578632390912

>  <r_i_glide_metal>  (1) 
-0

>  <r_i_glide_rewards>  (1) 
-2.0921922910740003

>  <r_lp_Energy>  (1) 
45.336860000000001

>  <s_epik_Chemistry_Notes>  (1) 
This compound contains an acetal/aminal-like group ( X-CH(R)-Y where X, Y are N, S, or O) that may be acid/base labile, releasing an aldehyde.

>  <s_epik_cmdline>  (1) 
J2VwaWtfcHl0aG9uJywgJy1waHQnLCAnMS4wJywgJy1waCcsICc3LjQnLCAnLXRuJywgJzgnLCAnLW1hJywgJzUwMCcsICctaW1hZScsICc8aW5maWxlLm1hZT4nLCAnLW9tYWUnLCAnPG91dGZpbGUubWFlPic=

>  <s_epik_input>  (1) 
RltDSF0oRiljKFtjSF0xKVtjSF1bY0hdYyhjMVtDSDNdKVtDSDJdTihbQ0gyXVtDQEBIXShbT0hdKU9bQ0gzXSlbQ0BIXShbQ0BASF0yW0NIM10pW0NIMl1bQ0gyXVtDQEhdMltOSF1OKFtOSF0zKVtDSDJdW0NASF0oQzM9TylbTkhdW0NIMl1bT0hd

>  <s_glide_docking_method>  (1) 
confgen

>  <s_i_glide_gridfile>  (1) 
gpcr_5ht2c_6bqh_protein_autoprepared_prepared

>  <s_lp_Force_Field>  (1) 
S-OPLS

>  <s_lp_Variant>  (1) 
DiffSBDD_19-4

>  <s_m_source_file>  (1) 
generated_GPCR_5HT2C_ligand_DiffSBDD_2026-06-23_prepared.sdf

>  <GenAI_Model>  (1) 
DiffSBDD

>  <Protein>  (1) 
GPCR_5HT2C

$$$$
DiffSBDD_14
     RDKit          3D

  0  0  0  0  0  0  0  0  0  0999 V3000
M  V30 BEGIN CTAB
M  V30 COUNTS 58 59 0 0 1
M  V30 BEGIN ATOM
M  V30 1 Cl 36.045144 22.848741 55.767760 0
M  V30 2 C 40.341001 28.535936 51.472474 0
M  V30 3 N 38.517663 25.446312 57.551366 0
M  V30 4 C 38.908039 26.195431 56.489053 0
M  V30 5 C 38.408393 33.251967 57.312288 0
M  V30 6 C 37.487492 34.808441 60.515206 0
M  V30 7 C 35.477305 34.067888 59.221486 0
M  V30 8 C 39.263140 29.371717 52.144889 0 CFG=1
M  V30 9 C 38.262384 30.521340 56.316139 0
M  V30 10 C 37.140406 24.149649 56.017523 0
M  V30 11 C 36.703292 33.799191 59.700719 0
M  V30 12 C 37.645293 24.438180 57.302107 0
M  V30 13 O 37.245150 28.462408 54.262728 0 CHG=-1
M  V30 14 N 38.028491 28.537762 52.257031 0 CHG=1
M  V30 15 C 37.390391 32.463810 59.461874 0
M  V30 16 C 38.489697 32.977881 55.800257 0
M  V30 17 C 37.547249 24.933772 54.943372 0
M  V30 18 C 37.745712 27.640949 53.395860 0 CFG=1
M  V30 19 C 38.450433 25.972399 55.173937 0
M  V30 20 C 38.918556 26.845876 54.026302 0
M  V30 21 C 38.800139 31.250334 53.942320 0
M  V30 22 C 38.996097 31.565829 55.449338 0 CFG=2
M  V30 23 C 38.241599 30.860229 57.806346 0
M  V30 24 N 37.645141 32.195072 58.023060 0 CFG=2 CHG=1
M  V30 25 C 39.728232 30.135266 53.424977 0
M  V30 26 H 41.296534 29.053794 51.406252 0
M  V30 27 H 40.445138 27.618503 52.034745 0
M  V30 28 H 40.045360 28.260169 50.459651 0
M  V30 29 H 39.604412 26.994506 56.697003 0
M  V30 30 H 37.925786 34.219512 57.443784 0
M  V30 31 H 39.406690 33.336536 57.742945 0
M  V30 32 H 38.465960 34.984640 60.068869 0
M  V30 33 H 36.964201 35.762834 60.576721 0
M  V30 34 H 37.635719 34.439250 61.530292 0
M  V30 35 H 34.931187 33.337745 58.644290 0
M  V30 36 H 35.006735 35.021122 59.399667 0
M  V30 37 H 39.062434 30.137757 51.401177 0
M  V30 38 H 37.228835 30.436180 55.978746 0
M  V30 39 H 38.714295 29.538198 56.187060 0
M  V30 40 H 37.346890 23.843477 58.152001 0
M  V30 41 H 37.251163 29.173294 52.331091 0
M  V30 42 H 38.331587 32.425957 60.013767 0
M  V30 43 H 36.754308 31.676412 59.869759 0
M  V30 44 H 37.513050 33.127093 55.346007 0
M  V30 45 H 39.145674 33.730782 55.367638 0
M  V30 46 H 37.173424 24.739195 53.951534 0
M  V30 47 H 37.099476 26.879402 52.967730 0
M  V30 48 H 39.367749 26.187253 53.285473 0
M  V30 49 H 39.719758 27.466779 54.402006 0
M  V30 50 H 37.756145 30.992485 53.769516 0
M  V30 51 H 38.965108 32.137742 53.338096 0
M  V30 52 H 40.058423 31.533956 55.690974 0
M  V30 53 H 39.245139 30.822178 58.224332 0
M  V30 54 H 37.651291 30.105517 58.328276 0
M  V30 55 H 40.684873 30.611812 53.217144 0
M  V30 56 H 39.942928 29.463233 54.243546 0
M  V30 57 H 36.718721 32.137944 57.573721 0
M  V30 58 H 37.921966 28.000486 51.409339 0
M  V30 END ATOM
M  V30 BEGIN BOND
M  V30 1 1 4 3
M  V30 2 1 8 2
M  V30 3 1 10 1
M  V30 4 1 11 6
M  V30 5 2 11 7
M  V30 6 2 12 3
M  V30 7 1 12 10
M  V30 8 1 14 8
M  V30 9 1 15 11
M  V30 10 1 16 5
M  V30 11 2 17 10
M  V30 12 1 18 13
M  V30 13 1 18 14
M  V30 14 2 19 4
M  V30 15 1 19 17
M  V30 16 1 20 18
M  V30 17 1 20 19
M  V30 18 1 22 9
M  V30 19 1 22 16
M  V30 20 1 22 21
M  V30 21 1 23 9
M  V30 22 1 24 5
M  V30 23 1 24 15
M  V30 24 1 24 23
M  V30 25 1 25 8
M  V30 26 1 25 21
M  V30 27 1 26 2
M  V30 28 1 27 2
M  V30 29 1 28 2
M  V30 30 1 29 4
M  V30 31 1 30 5
M  V30 32 1 31 5
M  V30 33 1 32 6
M  V30 34 1 33 6
M  V30 35 1 34 6
M  V30 36 1 35 7
M  V30 37 1 36 7
M  V30 38 1 8 37 CFG=3
M  V30 39 1 38 9
M  V30 40 1 39 9
M  V30 41 1 40 12
M  V30 42 1 41 14
M  V30 43 1 42 15
M  V30 44 1 43 15
M  V30 45 1 44 16
M  V30 46 1 45 16
M  V30 47 1 46 17
M  V30 48 1 18 47 CFG=3
M  V30 49 1 48 20
M  V30 50 1 49 20
M  V30 51 1 50 21
M  V30 52 1 51 21
M  V30 53 1 22 52 CFG=1
M  V30 54 1 53 23
M  V30 55 1 54 23
M  V30 56 1 55 25
M  V30 57 1 56 25
M  V30 58 1 24 57 CFG=3
M  V30 59 1 58 14
M  V30 END BOND
M  V30 END CTAB
M  END
>  <i_epik_Tot_Q>  (1) 
1

>  <i_epik_Tot_abs_Q>  (1) 
3

>  <i_i_glide_confnum>  (1) 
155

>  <i_i_glide_lignum>  (1) 
29

>  <i_i_glide_posenum>  (1) 
307

>  <i_i_glide_rotatable_bonds>  (1) 
9

>  <i_lp_mmshare_version>  (1) 
72125

>  <i_m_source_file_index>  (1) 
15

>  <i_f3d_flags>  (1) 
0

>  <num_sample>  (1) 
50

>  <b_lp_Chiralities_Consistent>  (1) 
1

>  <r_epik_Charging_Adjusted_Penalty>  (1) 
1.1654849776379888

>  <r_epik_Ionization_Penalty>  (1) 
0.58785290175030958

>  <r_epik_Ionization_Penalty_Charging>  (1) 
0.58784809198166499

>  <r_epik_Ionization_Penalty_Neutral>  (1) 
4.8097686445928234e-06

>  <r_epik_State_Penalty>  (1) 
0.57763688565632376

>  <r_glide_ring_energy>  (1) 
0

>  <r_i_docking_score>  (1) 
-6.3411244061857097

>  <r_i_glide_ecoul>  (1) 
-5.3041153816278159

>  <r_i_glide_eff_state_penalty>  (1) 
0.57763688565632376

>  <r_i_glide_einternal>  (1) 
8.6538528896440461

>  <r_i_glide_emodel>  (1) 
-50.198647654884127

>  <r_i_glide_emodel_strain>  (1) 
1.1319597714494876

>  <r_i_glide_energy>  (1) 
-36.101167497195405

>  <r_i_glide_erotb>  (1) 
1.143828235945936

>  <r_i_glide_esite>  (1) 
-0.10000000000000001

>  <r_i_glide_evdw>  (1) 
-30.797052115567588

>  <r_i_glide_gscore>  (1) 
-6.9187612918420331

>  <r_i_glide_gscore_strain>  (1) 
0

>  <r_i_glide_hbond>  (1) 
-0.20000000000000001

>  <r_i_glide_ligand_efficiency>  (1) 
-0.25364497624742838

>  <r_i_glide_ligand_efficiency_ln>  (1) 
-1.503036512430135

>  <r_i_glide_ligand_efficiency_sa>  (1) 
-0.74166240975606179

>  <r_i_glide_lipo>  (1) 
-3.1967137948412803

>  <r_i_glide_metal>  (1) 
-0

>  <r_i_glide_rewards>  (1) 
-2.2304058199241363

>  <r_lp_Energy>  (1) 
30.160715

>  <s_epik_Chemistry_Notes>  (1) 
This compound contains an acetal/aminal-like group ( X-CH(R)-Y where X, Y are N, S, or O) that may be acid/base labile, releasing an aldehyde.

>  <s_epik_cmdline>  (1) 
J2VwaWtfcHl0aG9uJywgJy1waHQnLCAnMS4wJywgJy1waCcsICc3LjQnLCAnLXRuJywgJzgnLCAnLW1hJywgJzUwMCcsICctaW1hZScsICc8aW5maWxlLm1hZT4nLCAnLW9tYWUnLCAnPG91dGZpbGUubWFlPic=

>  <s_epik_input>  (1) 
Q2xjMVtjSF1uW2NIXWMoW2NIXTEpW0NIMl1bQ0BASF0oW09IXSlbTkhdW0NASF0oW0NIM10pW0NIMl1bQ0gyXVtDSF0yW0NIMl1bQ0gyXU4oW0NIMl1bQ0gyXTIpW0NIMl1DKFtDSDNdKT1bQ0gyXQ==

>  <s_glide_docking_method>  (1) 
confgen

>  <s_i_glide_gridfile>  (1) 
gpcr_5ht2c_6bqh_protein_autoprepared_prepared

>  <s_lp_Force_Field>  (1) 
S-OPLS

>  <s_lp_Variant>  (1) 
DiffSBDD_14-3

>  <s_m_source_file>  (1) 
generated_GPCR_5HT2C_ligand_DiffSBDD_2026-06-23_prepared.sdf

>  <GenAI_Model>  (1) 
DiffSBDD

>  <Protein>  (1) 
GPCR_5HT2C

$$$$
DiffSBDD_8
     RDKit          3D

  0  0  0  0  0  0  0  0  0  0999 V3000
M  V30 BEGIN CTAB
M  V30 COUNTS 48 51 0 0 1
M  V30 BEGIN ATOM
M  V30 1 C 38.047628 25.850731 54.848384 0
M  V30 2 C 37.512921 24.777517 55.600150 0
M  V30 3 C 39.203042 30.340376 59.781990 0 CFG=1
M  V30 4 C 38.302421 25.814057 57.638887 0
M  V30 5 C 38.801528 26.900046 56.906214 0
M  V30 6 C 38.437103 31.476767 54.372732 0
M  V30 7 C 38.266355 30.073080 58.625839 0 CFG=2
M  V30 8 C 38.470494 29.864499 56.141493 0
M  V30 9 C 39.569629 30.005567 52.696128 0
M  V30 10 C 39.001255 28.984589 51.704790 0
M  V30 11 C 38.688579 29.352867 57.384590 0
M  V30 12 O 38.845133 31.364356 58.845240 0
M  V30 13 C 39.430306 28.043664 57.617882 0
M  V30 14 C 40.451287 29.999217 49.817001 0
M  V30 15 C 37.933881 31.250388 55.848889 0
M  V30 16 C 38.880145 29.215854 54.947713 0
M  V30 17 F 38.445134 25.789135 58.967762 0
M  V30 18 N 39.245129 27.981854 54.759092 0
M  V30 19 N 36.845129 23.737701 54.967720 0
M  V30 20 C 37.656509 24.758804 56.990683 0
M  V30 21 C 38.701633 26.918880 55.506846 0
M  V30 22 C 38.718427 30.571847 61.196542 0
M  V30 23 N 38.827483 30.134472 53.942737 0
M  V30 24 C 39.956978 28.732266 50.534647 0
M  V30 25 H 37.950178 25.859575 53.772117 0
M  V30 26 H 40.233405 30.001773 59.694865 0
M  V30 27 H 37.645323 31.908644 53.767752 0
M  V30 28 H 39.302792 32.137809 54.351203 0
M  V30 29 H 37.198278 30.015039 58.827426 0
M  V30 30 H 39.638558 30.986775 52.225084 0
M  V30 31 H 40.591562 29.737833 52.941101 0
M  V30 32 H 38.797211 28.030355 52.189459 0
M  V30 33 H 38.045189 29.337072 51.339556 0
M  V30 34 H 39.494763 27.843286 58.686541 0
M  V30 35 H 40.462400 28.153511 57.281465 0
M  V30 36 H 41.078052 29.737718 48.967153 0
M  V30 37 H 39.626665 30.606145 49.446789 0
M  V30 38 H 41.059928 30.624751 50.469936 0
M  V30 39 H 36.853618 31.160397 55.767783 0
M  V30 40 H 38.218197 32.042260 56.540414 0
M  V30 41 H 36.587416 23.814255 53.993906 0
M  V30 42 H 36.321709 23.065383 55.510416 0
M  V30 43 H 37.263544 23.933043 57.565979 0
M  V30 44 H 38.845491 29.667325 61.791863 0
M  V30 45 H 39.289555 31.376186 61.660070 0
M  V30 46 H 37.664289 30.848759 61.201175 0
M  V30 47 H 40.813896 28.175653 50.914065 0
M  V30 48 H 39.452113 28.090692 49.814458 0
M  V30 END ATOM
M  V30 BEGIN BOND
M  V30 1 1 2 1
M  V30 2 2 5 4
M  V30 3 1 7 3
M  V30 4 1 10 9
M  V30 5 1 11 7
M  V30 6 2 11 8
M  V30 7 1 12 3
M  V30 8 1 12 7
M  V30 9 1 13 5
M  V30 10 1 13 11
M  V30 11 1 15 6
M  V30 12 1 15 8
M  V30 13 1 16 8
M  V30 14 1 17 4
M  V30 15 2 18 16
M  V30 16 1 19 2
M  V30 17 2 20 2
M  V30 18 1 20 4
M  V30 19 2 21 1
M  V30 20 1 21 5
M  V30 21 1 21 18
M  V30 22 1 22 3
M  V30 23 1 23 6
M  V30 24 1 23 9
M  V30 25 1 23 16
M  V30 26 1 24 10
M  V30 27 1 24 14
M  V30 28 1 25 1
M  V30 29 1 3 26 CFG=1
M  V30 30 1 27 6
M  V30 31 1 28 6
M  V30 32 1 7 29 CFG=1
M  V30 33 1 30 9
M  V30 34 1 31 9
M  V30 35 1 32 10
M  V30 36 1 33 10
M  V30 37 1 34 13
M  V30 38 1 35 13
M  V30 39 1 36 14
M  V30 40 1 37 14
M  V30 41 1 38 14
M  V30 42 1 39 15
M  V30 43 1 40 15
M  V30 44 1 41 19
M  V30 45 1 42 19
M  V30 46 1 43 20
M  V30 47 1 44 22
M  V30 48 1 45 22
M  V30 49 1 46 22
M  V30 50 1 47 24
M  V30 51 1 48 24
M  V30 END BOND
M  V30 END CTAB
M  END
>  <i_epik_Tot_Q>  (1) 
0

>  <i_epik_Tot_abs_Q>  (1) 
0

>  <i_i_glide_confnum>  (1) 
12

>  <i_i_glide_lignum>  (1) 
18

>  <i_i_glide_posenum>  (1) 
376

>  <i_i_glide_rotatable_bonds>  (1) 
4

>  <i_lp_mmshare_version>  (1) 
72125

>  <i_m_source_file_index>  (1) 
9

>  <i_f3d_flags>  (1) 
0

>  <num_sample>  (1) 
50

>  <b_lp_Chiralities_Consistent>  (1) 
1

>  <r_epik_Charging_Adjusted_Penalty>  (1) 
1.179189790050359

>  <r_epik_Ionization_Penalty>  (1) 
1.1792430132501708

>  <r_epik_Ionization_Penalty_Charging>  (1) 
0

>  <r_epik_Ionization_Penalty_Neutral>  (1) 
1.1792430132501708

>  <r_epik_State_Penalty>  (1) 
1.179189790050359

>  <r_glide_ring_energy>  (1) 
0

>  <r_i_docking_score>  (1) 
-6.3334229377229363

>  <r_i_glide_ecoul>  (1) 
-1.1911947736441699

>  <r_i_glide_eff_state_penalty>  (1) 
1.179189790050359

>  <r_i_glide_einternal>  (1) 
4.9213264741602263

>  <r_i_glide_emodel>  (1) 
-46.697800694447352

>  <r_i_glide_emodel_strain>  (1) 
3.0150934809325065

>  <r_i_glide_energy>  (1) 
-35.48099475744494

>  <r_i_glide_erotb>  (1) 
0.51958033910786883

>  <r_i_glide_esite>  (1) 
0

>  <r_i_glide_evdw>  (1) 
-34.289799983800769

>  <r_i_glide_gscore>  (1) 
-7.5126127277732948

>  <r_i_glide_gscore_strain>  (1) 
0

>  <r_i_glide_hbond>  (1) 
0

>  <r_i_glide_ligand_efficiency>  (1) 
-0.26389262240512235

>  <r_i_glide_ligand_efficiency_ln>  (1) 
-1.5158787308385382

>  <r_i_glide_ligand_efficiency_sa>  (1) 
-0.76119804254216572

>  <r_i_glide_lipo>  (1) 
-3.6165190414198589

>  <r_i_glide_metal>  (1) 
-0

>  <r_i_glide_rewards>  (1) 
-2.5225048102246408

>  <r_lp_Energy>  (1) 
37.01735

>  <s_epik_Chemistry_Notes>  (1) 
This compound has an imine and may undergo hydrolysis.

>  <s_epik_cmdline>  (1) 
J2VwaWtfcHl0aG9uJywgJy1waHQnLCAnMS4wJywgJy1waCcsICc3LjQnLCAnLXRuJywgJzgnLCAnLW1hJywgJzUwMCcsICctaW1hZScsICc8aW5maWxlLm1hZT4nLCAnLW9tYWUnLCAnPG91dGZpbGUubWFlPic=

>  <s_epik_input>  (1) 
RmMxW2NIXWMoW05IMl0pW2NIXWMoYzEyKU49QzNDKD1DKFtDSDJdMilbQ0BIXShPNClbQ0BASF00W0NIM10pW0NIMl1bQ0gyXU4zW0NIMl1bQ0gyXVtDSDJdW0NIM10=

>  <s_glide_docking_method>  (1) 
confgen

>  <s_i_glide_gridfile>  (1) 
gpcr_5ht2c_6bqh_protein_autoprepared_prepared

>  <s_lp_Force_Field>  (1) 
S-OPLS

>  <s_lp_Variant>  (1) 
DiffSBDD_8-2

>  <s_m_source_file>  (1) 
generated_GPCR_5HT2C_ligand_DiffSBDD_2026-06-23_prepared.sdf

>  <GenAI_Model>  (1) 
DiffSBDD

>  <Protein>  (1) 
GPCR_5HT2C

$$$$
DiffSBDD_40
     RDKit          3D

  0  0  0  0  0  0  0  0  0  0999 V3000
M  V30 BEGIN CTAB
M  V30 COUNTS 60 63 0 0 1
M  V30 BEGIN ATOM
M  V30 1 C 38.031971 28.006887 52.997219 0 CFG=1
M  V30 2 C 38.427322 25.402603 55.707245 0 CFG=2
M  V30 3 C 37.730153 27.528221 54.417350 0 CFG=1
M  V30 4 C 39.303522 27.707498 50.721488 0
M  V30 5 C 37.644847 33.737752 58.074726 0
M  V30 6 O 36.845139 30.159249 54.567758 0
M  V30 7 C 37.002712 25.000841 56.138648 0
M  V30 8 F 40.886851 27.121946 57.470055 0
M  V30 9 C 36.863380 34.990720 60.980998 0
M  V30 10 F 39.692270 27.337723 59.228866 0
M  V30 11 C 39.450718 24.848974 56.719648 0
M  V30 12 N 36.173047 34.029403 60.083563 0 CHG=1
M  V30 13 O 39.373092 30.753654 56.727663 0
M  V30 14 C 38.646410 26.922351 55.478243 0 CFG=1
M  V30 15 C 40.124992 28.667895 51.513088 0
M  V30 16 C 37.979717 31.000281 58.675898 0
M  V30 17 S 38.445113 27.780295 57.066058 0
M  V30 18 C 39.679369 31.166690 55.401498 0
M  V30 19 C 37.004087 36.373680 60.324732 0
M  V30 20 P 38.027057 29.314642 54.251800 0 CFG=2
M  V30 21 C 38.210748 34.468110 61.514451 0
M  V30 22 C 37.185318 31.809079 59.508529 0
M  V30 23 C 39.685025 26.862236 57.984823 0
M  V30 24 O 39.387918 25.476933 57.996514 0
M  V30 25 C 39.290651 27.618770 52.235413 0
M  V30 26 C 38.605572 31.558281 57.534449 0
M  V30 27 C 38.440366 32.937676 57.241090 0
M  V30 28 C 37.027305 33.164914 59.192527 0
M  V30 29 C 39.757822 29.894650 54.573023 0
M  V30 30 H 37.157953 28.079359 52.352572 0
M  V30 31 H 38.617491 24.901246 54.757426 0
M  V30 32 H 36.683459 27.294310 54.567761 0
M  V30 33 H 39.835005 26.937771 50.167762 0
M  V30 34 H 38.445155 28.137787 50.215584 0
M  V30 35 H 37.510201 34.782896 57.852241 0
M  V30 36 H 36.688217 25.503465 57.052933 0
M  V30 37 H 36.273640 25.224090 55.367762 0
M  V30 38 H 36.939292 23.928089 56.321967 0
M  V30 39 H 36.202548 35.109786 61.840774 0
M  V30 40 H 40.445205 24.938823 56.301035 0
M  V30 41 H 39.277491 23.785527 56.882422 0
M  V30 42 H 35.516223 34.550236 59.519134 0
M  V30 43 H 39.676484 27.059504 55.152015 0
M  V30 44 H 39.781181 29.700345 51.495856 0
M  V30 45 H 41.204007 28.537757 51.476854 0
M  V30 46 H 38.107382 29.953264 58.904909 0
M  V30 47 H 38.922800 31.812268 54.954491 0
M  V30 48 H 40.626071 31.703631 55.367758 0
M  V30 49 H 37.415833 37.096732 61.029632 0
M  V30 50 H 37.662876 36.354548 59.459495 0
M  V30 51 H 36.043567 36.762043 59.990359 0
M  V30 52 H 38.618285 35.149959 62.261092 0
M  V30 53 H 38.103590 33.491906 61.988859 0
M  V30 54 H 38.958087 34.380623 60.724977 0
M  V30 55 H 36.701922 31.388133 60.376858 0
M  V30 56 H 39.851448 26.789098 52.660850 0
M  V30 57 H 38.918399 33.377155 56.380550 0
M  V30 58 H 40.245848 30.137674 53.634784 0
M  V30 59 H 40.358508 29.147610 55.084957 0
M  V30 60 H 35.621793 33.426659 60.676528 0
M  V30 END ATOM
M  V30 BEGIN BOND
M  V30 1 1 3 1
M  V30 2 1 7 2
M  V30 3 1 11 2
M  V30 4 1 12 9
M  V30 5 1 14 2
M  V30 6 1 14 3
M  V30 7 1 15 4
M  V30 8 1 17 14
M  V30 9 1 18 13
M  V30 10 1 19 9
M  V30 11 1 20 1
M  V30 12 1 20 3
M  V30 13 2 20 6
M  V30 14 1 21 9
M  V30 15 1 22 16
M  V30 16 1 23 8
M  V30 17 1 23 10
M  V30 18 1 23 17
M  V30 19 1 24 11
M  V30 20 1 24 23
M  V30 21 1 25 1
M  V30 22 1 25 4
M  V30 23 1 25 15
M  V30 24 1 26 13
M  V30 25 2 26 16
M  V30 26 2 27 5
M  V30 27 1 27 26
M  V30 28 1 28 5
M  V30 29 1 28 12
M  V30 30 2 28 22
M  V30 31 1 29 18
M  V30 32 1 20 29 CFG=1
M  V30 33 1 1 30 CFG=3
M  V30 34 1 2 31 CFG=3
M  V30 35 1 3 32 CFG=3
M  V30 36 1 33 4
M  V30 37 1 34 4
M  V30 38 1 35 5
M  V30 39 1 36 7
M  V30 40 1 37 7
M  V30 41 1 38 7
M  V30 42 1 39 9
M  V30 43 1 40 11
M  V30 44 1 41 11
M  V30 45 1 42 12
M  V30 46 1 14 43 CFG=3
M  V30 47 1 44 15
M  V30 48 1 45 15
M  V30 49 1 46 16
M  V30 50 1 47 18
M  V30 51 1 48 18
M  V30 52 1 49 19
M  V30 53 1 50 19
M  V30 54 1 51 19
M  V30 55 1 52 21
M  V30 56 1 53 21
M  V30 57 1 54 21
M  V30 58 1 55 22
M  V30 59 1 56 25
M  V30 60 1 57 27
M  V30 61 1 58 29
M  V30 62 1 59 29
M  V30 63 1 60 12
M  V30 END BOND
M  V30 END CTAB
M  END
>  <i_epik_Tot_Q>  (1) 
1

>  <i_epik_Tot_abs_Q>  (1) 
1

>  <i_i_glide_confnum>  (1) 
426

>  <i_i_glide_lignum>  (1) 
85

>  <i_i_glide_posenum>  (1) 
311

>  <i_i_glide_rotatable_bonds>  (1) 
8

>  <i_lp_mmshare_version>  (1) 
72125

>  <i_m_source_file_index>  (1) 
41

>  <i_f3d_flags>  (1) 
0

>  <num_sample>  (1) 
50

>  <b_lp_Chiralities_Consistent>  (1) 
1

>  <r_epik_Charging_Adjusted_Penalty>  (1) 
2.1414087062306124

>  <r_epik_Ionization_Penalty>  (1) 
1.0707043531153062

>  <r_epik_Ionization_Penalty_Charging>  (1) 
1.0707043531153062

>  <r_epik_Ionization_Penalty_Neutral>  (1) 
0

>  <r_epik_State_Penalty>  (1) 
1.0707043531153062

>  <r_glide_ring_energy>  (1) 
0

>  <r_i_docking_score>  (1) 
-6.3307674434559162

>  <r_i_glide_ecoul>  (1) 
-1.166425711154766

>  <r_i_glide_eff_state_penalty>  (1) 
1.0707043531153062

>  <r_i_glide_einternal>  (1) 
7.0337794766631472

>  <r_i_glide_emodel>  (1) 
-55.312287173063751

>  <r_i_glide_emodel_strain>  (1) 
1.5421920252926

>  <r_i_glide_energy>  (1) 
-43.54212537455323

>  <r_i_glide_erotb>  (1) 
0.70277430803170493

>  <r_i_glide_esite>  (1) 
0

>  <r_i_glide_evdw>  (1) 
-42.375699663398464

>  <r_i_glide_gscore>  (1) 
-7.4014717965712222

>  <r_i_glide_gscore_strain>  (1) 
0

>  <r_i_glide_hbond>  (1) 
0

>  <r_i_glide_ligand_efficiency>  (1) 
-0.21830232563641092

>  <r_i_glide_ligand_efficiency_ln>  (1) 
-1.4495852101403266

>  <r_i_glide_ligand_efficiency_sa>  (1) 
-0.67069390813909624

>  <r_i_glide_lipo>  (1) 
-4.14615302332626

>  <r_i_glide_metal>  (1) 
-0

>  <r_i_glide_rewards>  (1) 
-1.6643442414335294

>  <r_lp_Energy>  (1) 
20.817494999999997

>  <s_epik_cmdline>  (1) 
J2VwaWtfcHl0aG9uJywgJy1waHQnLCAnMS4wJywgJy1waCcsICc3LjQnLCAnLXRuJywgJzgnLCAnLW1hJywgJzUwMCcsICctaW1hZScsICc8aW5maWxlLm1hZT4nLCAnLW9tYWUnLCAnPG91dGZpbGUubWFlPic=

>  <s_epik_input>  (1) 
RkMxKEYpU1tDQEBIXShbQ0BIXShbQ0gzXSlbQ0gyXU8xKVtDQEBIXTJbQ0BIXShbQ0hdM1tDSDJdW0NIMl0zKVAyKD1PKVtDSDJdW0NIMl1PYzRbY0hdW2NIXWMoW2NIXVtjSF00KVtOSF1bQ0hdKFtDSDNdKVtDSDNd

>  <s_glide_docking_method>  (1) 
confgen

>  <s_i_glide_gridfile>  (1) 
gpcr_5ht2c_6bqh_protein_autoprepared_prepared

>  <s_lp_Force_Field>  (1) 
S-OPLS

>  <s_lp_Variant>  (1) 
DiffSBDD_40-3

>  <s_m_source_file>  (1) 
generated_GPCR_5HT2C_ligand_DiffSBDD_2026-06-23_prepared.sdf

>  <GenAI_Model>  (1) 
DiffSBDD

>  <Protein>  (1) 
GPCR_5HT2C

$$$$
DiffSBDD_23
     RDKit          3D

  0  0  0  0  0  0  0  0  0  0999 V3000
M  V30 BEGIN CTAB
M  V30 COUNTS 19 19 0 0 1
M  V30 BEGIN ATOM
M  V30 1 C 39.329322 28.561501 51.536002 0
M  V30 2 C 39.968786 29.815269 51.497717 0
M  V30 3 C 38.646286 28.149689 52.697396 0
M  V30 4 S 39.192117 31.337761 55.160725 0 CHG=-1
M  V30 5 C 37.836273 28.538473 55.084301 0
M  V30 6 C 40.692467 30.255850 50.247203 0
M  V30 7 O 38.036240 26.937757 52.724689 0
M  V30 8 C 39.241815 30.259344 53.785482 0
M  V30 9 C 38.592787 28.993325 53.830400 0
M  V30 10 C 39.929312 30.661037 52.622472 0
M  V30 11 H 39.362256 27.913801 50.672356 0
M  V30 12 H 37.088417 29.280714 55.367510 0
M  V30 13 H 37.304465 27.598991 54.943716 0
M  V30 14 H 38.525326 28.397553 55.917366 0
M  V30 15 H 40.872862 31.332971 50.245512 0
M  V30 16 H 41.645132 29.737783 50.180374 0
M  V30 17 H 40.099513 30.009328 49.367501 0
M  V30 18 H 37.570691 26.715172 51.927696 0
M  V30 19 H 40.418997 31.622181 52.586885 0
M  V30 END ATOM
M  V30 BEGIN BOND
M  V30 1 2 2 1
M  V30 2 1 3 1
M  V30 3 1 6 2
M  V30 4 1 7 3
M  V30 5 1 8 4
M  V30 6 2 9 3
M  V30 7 1 9 5
M  V30 8 1 9 8
M  V30 9 1 10 2
M  V30 10 2 10 8
M  V30 11 1 11 1
M  V30 12 1 12 5
M  V30 13 1 13 5
M  V30 14 1 14 5
M  V30 15 1 15 6
M  V30 16 1 16 6
M  V30 17 1 17 6
M  V30 18 1 18 7
M  V30 19 1 19 10
M  V30 END BOND
M  V30 END CTAB
M  END
>  <i_epik_Tot_Q>  (1) 
-1

>  <i_epik_Tot_abs_Q>  (1) 
1

>  <i_i_glide_confnum>  (1) 
1

>  <i_i_glide_lignum>  (1) 
51

>  <i_i_glide_posenum>  (1) 
93

>  <i_i_glide_rotatable_bonds>  (1) 
1

>  <i_lp_mmshare_version>  (1) 
72125

>  <i_m_source_file_index>  (1) 
24

>  <i_f3d_flags>  (1) 
0

>  <num_sample>  (1) 
50

>  <b_lp_Chiralities_Consistent>  (1) 
1

>  <r_epik_Charging_Adjusted_Penalty>  (1) 
0.20721936488096054

>  <r_epik_Ionization_Penalty>  (1) 
0.10365679981868296

>  <r_epik_Ionization_Penalty_Charging>  (1) 
0.10360968244048027

>  <r_epik_Ionization_Penalty_Neutral>  (1) 
4.7117378202688286e-05

>  <r_epik_State_Penalty>  (1) 
0.10360968244048026

>  <r_glide_ring_energy>  (1) 
0

>  <r_i_docking_score>  (1) 
-6.3247874439724727

>  <r_i_glide_ecoul>  (1) 
-3.2293393682719049

>  <r_i_glide_eff_state_penalty>  (1) 
0.10360968244048026

>  <r_i_glide_einternal>  (1) 
0.59618549272658128

>  <r_i_glide_emodel>  (1) 
-29.340529608242438

>  <r_i_glide_emodel_strain>  (1) 
0.69035732463337851

>  <r_i_glide_energy>  (1) 
-20.224502010134149

>  <r_i_glide_erotb>  (1) 
0

>  <r_i_glide_esite>  (1) 
0

>  <r_i_glide_evdw>  (1) 
-16.995162641862244

>  <r_i_glide_gscore>  (1) 
-6.4283971264129534

>  <r_i_glide_gscore_strain>  (1) 
0

>  <r_i_glide_hbond>  (1) 
-0.29215486981701105

>  <r_i_glide_ligand_efficiency>  (1) 
-0.63247874439724727

>  <r_i_glide_ligand_efficiency_ln>  (1) 
-1.9151020385181261

>  <r_i_glide_ligand_efficiency_sa>  (1) 
-1.3626341476372386

>  <r_i_glide_lipo>  (1) 
-2.2158864588426175

>  <r_i_glide_metal>  (1) 
-0

>  <r_i_glide_rewards>  (1) 
-2.5861967604194267

>  <r_lp_Energy>  (1) 
12.729156

>  <s_epik_cmdline>  (1) 
J2VwaWtfcHl0aG9uJywgJy1waHQnLCAnMS4wJywgJy1waCcsICc3LjQnLCAnLXRuJywgJzgnLCAnLW1hJywgJzUwMCcsICctaW1hZScsICc8aW5maWxlLm1hZT4nLCAnLW9tYWUnLCAnPG91dGZpbGUubWFlPic=

>  <s_epik_input>  (1) 
W0NIM11jMVtjSF1jKFtPSF0pYyhbQ0gzXSljKFtTSF0pW2NIXTE=

>  <s_glide_docking_method>  (1) 
confgen

>  <s_i_glide_gridfile>  (1) 
gpcr_5ht2c_6bqh_protein_autoprepared_prepared

>  <s_lp_Force_Field>  (1) 
S-OPLS

>  <s_lp_Variant>  (1) 
DiffSBDD_23-1

>  <s_m_source_file>  (1) 
generated_GPCR_5HT2C_ligand_DiffSBDD_2026-06-23_prepared.sdf

>  <GenAI_Model>  (1) 
DiffSBDD

>  <Protein>  (1) 
GPCR_5HT2C

$$$$
DiffSBDD_1
     RDKit          3D

  0  0  0  0  0  0  0  0  0  0999 V3000
M  V30 BEGIN CTAB
M  V30 COUNTS 78 81 0 0 1
M  V30 BEGIN ATOM
M  V30 1 C 38.854511 28.609965 60.044684 0
M  V30 2 N 38.833777 30.356415 55.600883 0
M  V30 3 C 39.285414 26.872006 54.106502 0 CFG=1
M  V30 4 C 39.214806 27.728773 52.835410 0
M  V30 5 C 41.001437 34.648500 66.110941 0
M  V30 6 C 38.843654 30.555265 62.629649 0
M  V30 7 C 39.446982 27.872599 55.251037 0
M  V30 8 C 38.644711 29.110790 54.799862 0 CFG=2
M  V30 9 C 41.649069 34.646805 63.116444 0
M  V30 10 N 39.922169 29.965740 61.857062 0
M  V30 11 O 45.244730 29.747083 65.952293 0
M  V30 12 C 40.091486 30.035449 63.300162 0 CFG=1
M  V30 13 C 40.926090 33.368266 63.182993 0 CFG=1
M  V30 14 O 41.651645 32.257370 62.488030 0
M  V30 15 C 45.189671 28.067140 64.204190 0
M  V30 16 C 38.097010 25.139842 55.225067 0
M  V30 17 C 41.197494 32.733870 64.464056 0
M  V30 18 C 39.578643 30.236737 56.863355 0
M  V30 19 C 43.097248 29.271054 65.020992 0
M  V30 20 O 41.549373 32.386763 66.709073 0
M  V30 21 O 37.645271 31.657485 54.168715 0
M  V30 22 C 43.153959 30.358968 63.935509 0
M  V30 23 O 38.059984 26.159995 54.240022 0
M  V30 24 O 40.355050 36.613980 63.132225 0
M  V30 25 P 41.469846 31.133185 63.819207 0 CFG=1 CHG=1
M  V30 26 C 44.470223 28.703598 65.397628 0 CFG=2
M  V30 27 C 41.254543 33.239648 65.716178 0
M  V30 28 C 40.045207 30.153094 52.856989 0
M  V30 29 O 39.539678 29.378788 59.077339 0
M  V30 30 C 38.275304 31.537601 55.211215 0
M  V30 31 C 38.453762 32.753377 56.132494 0
M  V30 32 C 40.796695 35.737903 65.301461 0
M  V30 33 C 40.871978 35.732508 63.814114 0
M  V30 34 C 38.687861 29.748002 58.006685 0
M  V30 35 C 38.915771 29.180071 53.268240 0 CFG=1
M  V30 36 C 39.619025 28.618913 61.377719 0
M  V30 37 H 38.726479 27.588997 59.680745 0
M  V30 38 H 37.854588 29.026687 60.167632 0
M  V30 39 H 40.127783 26.179719 54.055559 0
M  V30 40 H 40.140494 27.668291 52.264122 0
M  V30 41 H 38.443371 27.347300 52.164862 0
M  V30 42 H 40.933295 34.835657 67.173168 0
M  V30 43 H 37.952730 29.948036 62.571226 0
M  V30 44 H 38.742516 31.608531 62.379901 0
M  V30 45 H 40.506497 28.091588 55.367735 0
M  V30 46 H 39.124449 27.485315 56.214138 0
M  V30 47 H 37.591885 28.846571 54.927680 0
M  V30 48 H 42.639334 34.574898 63.563543 0
M  V30 49 H 41.779046 34.946909 62.076545 0
M  V30 50 H 46.121883 29.429926 66.161407 0
M  V30 51 H 40.047538 29.049028 63.756875 0
M  V30 52 H 39.882561 33.429781 62.867871 0
M  V30 53 H 44.537004 27.377223 63.669385 0
M  V30 54 H 45.538902 28.813101 63.491462 0
M  V30 55 H 46.045398 27.493160 64.540159 0
M  V30 56 H 37.202981 24.522178 55.149537 0
M  V30 57 H 38.963144 24.499101 55.075180 0
M  V30 58 H 38.136655 25.547912 56.235278 0
M  V30 59 H 40.045133 31.174186 57.128463 0
M  V30 60 H 40.437295 29.581429 56.777396 0
M  V30 61 H 42.624901 29.671127 65.919928 0
M  V30 62 H 42.454709 28.457021 64.680631 0
M  V30 63 H 41.944070 31.606525 66.356861 0
M  V30 64 H 43.448515 29.926530 62.981384 0
M  V30 65 H 43.886785 31.116023 64.199694 0
M  V30 66 H 44.329252 27.945714 66.168980 0
M  V30 67 H 40.845291 30.139834 53.589951 0
M  V30 68 H 40.460148 29.919572 51.876162 0
M  V30 69 H 39.703802 31.185774 52.810545 0
M  V30 70 H 38.141369 32.536947 57.153044 0
M  V30 71 H 39.484938 33.104715 56.131266 0
M  V30 72 H 37.829221 33.579207 55.787954 0
M  V30 73 H 40.561115 36.683805 65.766729 0
M  V30 74 H 38.094902 28.888172 57.689378 0
M  V30 75 H 37.989448 30.524041 58.324628 0
M  V30 76 H 38.003079 29.482380 52.756716 0
M  V30 77 H 40.558559 28.081639 61.255110 0
M  V30 78 H 39.053796 28.047341 62.114623 0
M  V30 END ATOM
M  V30 BEGIN BOND
M  V30 1 1 4 3
M  V30 2 1 7 3
M  V30 3 1 8 2
M  V30 4 1 8 7
M  V30 5 1 10 6
M  V30 6 1 12 6
M  V30 7 1 12 10
M  V30 8 1 13 9
M  V30 9 1 14 13
M  V30 10 1 17 13
M  V30 11 1 18 2
M  V30 12 1 22 19
M  V30 13 1 23 3
M  V30 14 1 23 16
M  V30 15 1 25 12
M  V30 16 1 25 14
M  V30 17 1 25 17
M  V30 18 1 25 22 CFG=1
M  V30 19 1 26 11
M  V30 20 1 26 15
M  V30 21 1 26 19
M  V30 22 1 27 5
M  V30 23 2 27 17
M  V30 24 1 27 20
M  V30 25 1 29 1
M  V30 26 1 30 2
M  V30 27 2 30 21
M  V30 28 1 31 30
M  V30 29 2 32 5
M  V30 30 1 33 9
M  V30 31 2 33 24
M  V30 32 1 33 32
M  V30 33 1 34 18
M  V30 34 1 34 29
M  V30 35 1 35 4
M  V30 36 1 35 8
M  V30 37 1 35 28
M  V30 38 1 36 1
M  V30 39 1 36 10
M  V30 40 1 37 1
M  V30 41 1 38 1
M  V30 42 1 3 39 CFG=3
M  V30 43 1 40 4
M  V30 44 1 41 4
M  V30 45 1 42 5
M  V30 46 1 43 6
M  V30 47 1 44 6
M  V30 48 1 45 7
M  V30 49 1 46 7
M  V30 50 1 8 47 CFG=3
M  V30 51 1 48 9
M  V30 52 1 49 9
M  V30 53 1 50 11
M  V30 54 1 12 51 CFG=1
M  V30 55 1 13 52 CFG=3
M  V30 56 1 53 15
M  V30 57 1 54 15
M  V30 58 1 55 15
M  V30 59 1 56 16
M  V30 60 1 57 16
M  V30 61 1 58 16
M  V30 62 1 59 18
M  V30 63 1 60 18
M  V30 64 1 61 19
M  V30 65 1 62 19
M  V30 66 1 63 20
M  V30 67 1 64 22
M  V30 68 1 65 22
M  V30 69 1 26 66 CFG=1
M  V30 70 1 67 28
M  V30 71 1 68 28
M  V30 72 1 69 28
M  V30 73 1 70 31
M  V30 74 1 71 31
M  V30 75 1 72 31
M  V30 76 1 73 32
M  V30 77 1 74 34
M  V30 78 1 75 34
M  V30 79 1 35 76 CFG=3
M  V30 80 1 77 36
M  V30 81 1 78 36
M  V30 END BOND
M  V30 END CTAB
M  END
>  <i_epik_Tot_Q>  (1) 
1

>  <i_epik_Tot_abs_Q>  (1) 
1

>  <i_i_glide_confnum>  (1) 
2624

>  <i_i_glide_lignum>  (1) 
8

>  <i_i_glide_posenum>  (1) 
33

>  <i_i_glide_rotatable_bonds>  (1) 
15

>  <i_lp_mmshare_version>  (1) 
72125

>  <i_m_source_file_index>  (1) 
2

>  <i_f3d_flags>  (1) 
0

>  <num_sample>  (1) 
50

>  <b_lp_Chiralities_Consistent>  (1) 
1

>  <r_epik_Charging_Adjusted_Penalty>  (1) 
0.012777702237649643

>  <r_epik_Ionization_Penalty>  (1) 
0.012893064322698497

>  <r_epik_Ionization_Penalty_Charging>  (1) 
0

>  <r_epik_Ionization_Penalty_Neutral>  (1) 
0.012893064322698497

>  <r_epik_State_Penalty>  (1) 
0.012777702237649643

>  <r_glide_ring_energy>  (1) 
1.0866904989986343

>  <r_i_docking_score>  (1) 
-6.3215133127983307

>  <r_i_glide_ecoul>  (1) 
-7.3795319976532987

>  <r_i_glide_eff_state_penalty>  (1) 
0.012777702237649643

>  <r_i_glide_einternal>  (1) 
12.419607027672239

>  <r_i_glide_emodel>  (1) 
-63.021146751751559

>  <r_i_glide_emodel_strain>  (1) 
1.2053917412092829

>  <r_i_glide_energy>  (1) 
-49.908034652845899

>  <r_i_glide_erotb>  (1) 
0.81958699115176215

>  <r_i_glide_esite>  (1) 
-0.046229180170280916

>  <r_i_glide_evdw>  (1) 
-42.528502655192604

>  <r_i_glide_gscore>  (1) 
-6.3342910150359808

>  <r_i_glide_gscore_strain>  (1) 
0

>  <r_i_glide_hbond>  (1) 
-0.32000000000000001

>  <r_i_glide_ligand_efficiency>  (1) 
-0.17559759202217584

>  <r_i_glide_ligand_efficiency_ln>  (1) 
-1.3791834172998179

>  <r_i_glide_ligand_efficiency_sa>  (1) 
-0.57981047393830432

>  <r_i_glide_lipo>  (1) 
-3.3532103570041607

>  <r_i_glide_metal>  (1) 
-0

>  <r_i_glide_rewards>  (1) 
-0.20108353660567657

>  <r_lp_Energy>  (1) 
26.969071

>  <s_epik_cmdline>  (1) 
J2VwaWtfcHl0aG9uJywgJy1waHQnLCAnMS4wJywgJy1waCcsICc3LjQnLCAnLXRuJywgJzgnLCAnLW1hJywgJzUwMCcsICctaW1hZScsICc8aW5maWxlLm1hZT4nLCAnLW9tYWUnLCAnPG91dGZpbGUubWFlPic=

>  <s_epik_input>  (1) 
W0NIM11PW0NASF0xW0NIMl1bQ0BIXShbQ0gzXSlbQ0BASF0oW0NIMl0xKU4oQyg9TylbQ0gzXSlbQ0gyXVtDSDJdT1tDSDJdW0NIMl1OMltDSDJdW0NIXTJbUEBAK10oTzMpKFtDSDJdW0NIMl1bQ0BIXShbT0hdKVtDSDNdKUMoW0NAQEhdMzQpPUMoW09IXSlbQ0hdPVtDSF1DKD1PKVtDSDJdNA==

>  <s_glide_docking_method>  (1) 
confgen

>  <s_i_glide_gridfile>  (1) 
gpcr_5ht2c_6bqh_protein_autoprepared_prepared

>  <s_lp_Force_Field>  (1) 
S-OPLS

>  <s_lp_Variant>  (1) 
DiffSBDD_1-4

>  <s_m_source_file>  (1) 
generated_GPCR_5HT2C_ligand_DiffSBDD_2026-06-23_prepared.sdf

>  <GenAI_Model>  (1) 
DiffSBDD

>  <Protein>  (1) 
GPCR_5HT2C

$$$$
DiffSBDD_13
     RDKit          3D

  0  0  0  0  0  0  0  0  0  0999 V3000
M  V30 BEGIN CTAB
M  V30 COUNTS 80 81 0 0 1
M  V30 BEGIN ATOM
M  V30 1 N 39.936300 28.647434 61.794885 0
M  V30 2 C 39.819878 27.732004 58.200940 0 CFG=2
M  V30 3 O 42.043151 35.736643 63.852826 0
M  V30 4 C 39.920103 30.172885 52.124149 0
M  V30 5 C 37.823373 26.339141 57.519006 0
M  V30 6 C 35.959458 30.180888 59.327211 0
M  V30 7 C 40.254404 30.595126 65.022927 0
M  V30 8 C 39.527657 29.987671 59.220345 0
M  V30 9 C 37.210773 27.298917 54.490604 0
M  V30 10 O 37.242051 30.377283 58.772609 0
M  V30 11 C 38.246477 30.681074 59.718364 0 CFG=2
M  V30 12 N 39.573991 28.534238 59.422854 0
M  V30 13 O 42.043830 35.749466 66.166501 0
M  V30 14 C 37.917218 26.633165 53.263130 0
M  V30 15 C 38.727132 28.799393 53.729327 0
M  V30 16 C 40.710193 32.804790 64.265304 0 CFG=1
M  V30 17 C 39.354715 30.014183 53.414639 0
M  V30 18 C 41.070104 28.068480 57.343653 0
M  V30 19 C 38.061072 28.514038 55.040007 0 CFG=2
M  V30 20 C 39.444922 32.846046 60.569123 0
M  V30 21 C 39.402170 32.502279 62.060385 0
M  V30 22 C 40.437301 28.145290 60.534338 0
M  V30 23 C 41.480487 35.183978 65.014888 0
M  V30 24 C 40.579177 33.169713 62.779636 0
M  V30 25 O 38.961570 27.889468 55.937236 0
M  V30 26 C 38.557643 27.679057 57.294593 0 CFG=2
M  V30 27 C 42.423843 28.185931 58.031589 0
M  V30 28 C 39.224624 27.912144 51.548232 0
M  V30 29 F 40.495930 31.333090 51.778995 0
M  V30 30 O 41.154418 31.453409 64.341983 0
M  V30 31 C 38.662214 27.799156 52.829236 0
M  V30 32 C 41.737460 33.661299 65.031963 0
M  V30 33 C 39.860692 29.113500 51.190340 0
M  V30 34 O 40.845628 28.138219 62.806278 0
M  V30 35 C 38.319137 32.225263 59.733474 0
M  V30 36 H 39.987672 29.649246 61.917230 0
M  V30 37 H 40.002027 26.708357 58.526655 0
M  V30 38 H 42.022059 36.683136 63.942127 0
M  V30 39 H 37.822558 26.072160 58.570058 0
M  V30 40 H 36.769468 26.369391 57.249988 0
M  V30 41 H 38.308318 25.522433 56.981018 0
M  V30 42 H 35.193681 30.180867 58.563088 0
M  V30 43 H 35.922204 29.197279 59.769850 0
M  V30 44 H 35.684139 30.935481 60.065610 0
M  V30 45 H 40.674439 29.590869 65.099878 0
M  V30 46 H 40.069193 30.954977 66.035782 0
M  V30 47 H 39.309045 30.531985 64.485197 0
M  V30 48 H 40.369534 30.409353 59.767373 0
M  V30 49 H 39.633608 30.243743 58.167803 0
M  V30 50 H 36.870147 26.553069 55.196649 0
M  V30 51 H 36.296926 27.738076 54.098119 0
M  V30 52 H 37.986020 30.297621 60.705355 0
M  V30 53 H 41.875134 36.681801 66.159018 0
M  V30 54 H 37.249989 26.536470 52.445758 0
M  V30 55 H 38.495720 25.747349 53.531668 0
M  V30 56 H 39.741483 32.935784 64.741573 0
M  V30 57 H 39.394237 30.817432 54.133981 0
M  V30 58 H 41.192205 27.293393 56.582849 0
M  V30 59 H 40.850394 28.975543 56.787707 0
M  V30 60 H 37.495410 29.352926 55.452686 0
M  V30 61 H 40.412697 32.552489 60.171707 0
M  V30 62 H 39.392388 33.929636 60.454971 0
M  V30 63 H 38.458059 32.842109 62.490568 0
M  V30 64 H 39.440005 31.423959 62.202562 0
M  V30 65 H 41.461616 28.482588 60.397391 0
M  V30 66 H 40.444869 27.066081 60.625409 0
M  V30 67 H 40.414727 35.407792 65.028971 0
M  V30 68 H 41.518352 32.941003 62.274545 0
M  V30 69 H 40.425412 34.241948 62.671450 0
M  V30 70 H 37.882963 28.483354 57.561954 0
M  V30 71 H 43.216711 28.221537 57.285593 0
M  V30 72 H 42.470992 29.122310 58.576944 0
M  V30 73 H 42.623746 27.349647 58.702233 0
M  V30 74 H 39.149306 27.095236 50.841602 0
M  V30 75 H 41.733039 33.307399 66.064087 0
M  V30 76 H 42.739756 33.454639 64.662450 0
M  V30 77 H 40.286077 29.233018 50.203103 0
M  V30 78 H 41.699138 28.347737 62.457132 0
M  V30 79 H 38.432729 32.574665 58.706316 0
M  V30 80 H 37.364976 32.629705 60.076178 0
M  V30 END ATOM
M  V30 BEGIN BOND
M  V30 1 1 10 6
M  V30 2 1 11 8
M  V30 3 1 11 10
M  V30 4 1 12 2
M  V30 5 1 12 8
M  V30 6 1 14 9
M  V30 7 2 17 4
M  V30 8 1 17 15
M  V30 9 1 18 2
M  V30 10 1 19 9
M  V30 11 1 19 15
M  V30 12 1 21 20
M  V30 13 1 22 1
M  V30 14 1 22 12
M  V30 15 1 23 3
M  V30 16 1 23 13
M  V30 17 1 24 16
M  V30 18 1 24 21
M  V30 19 1 25 19
M  V30 20 1 26 2
M  V30 21 1 26 5
M  V30 22 1 26 25
M  V30 23 1 27 18
M  V30 24 1 29 4
M  V30 25 1 30 7
M  V30 26 1 30 16
M  V30 27 1 31 14
M  V30 28 2 31 15
M  V30 29 1 31 28
M  V30 30 1 32 16
M  V30 31 1 32 23
M  V30 32 1 33 4
M  V30 33 2 33 28
M  V30 34 1 34 1
M  V30 35 1 35 11
M  V30 36 1 35 20
M  V30 37 1 36 1
M  V30 38 1 2 37 CFG=1
M  V30 39 1 38 3
M  V30 40 1 39 5
M  V30 41 1 40 5
M  V30 42 1 41 5
M  V30 43 1 42 6
M  V30 44 1 43 6
M  V30 45 1 44 6
M  V30 46 1 45 7
M  V30 47 1 46 7
M  V30 48 1 47 7
M  V30 49 1 48 8
M  V30 50 1 49 8
M  V30 51 1 50 9
M  V30 52 1 51 9
M  V30 53 1 11 52 CFG=1
M  V30 54 1 53 13
M  V30 55 1 54 14
M  V30 56 1 55 14
M  V30 57 1 16 56 CFG=1
M  V30 58 1 57 17
M  V30 59 1 58 18
M  V30 60 1 59 18
M  V30 61 1 19 60 CFG=1
M  V30 62 1 61 20
M  V30 63 1 62 20
M  V30 64 1 63 21
M  V30 65 1 64 21
M  V30 66 1 65 22
M  V30 67 1 66 22
M  V30 68 1 67 23
M  V30 69 1 68 24
M  V30 70 1 69 24
M  V30 71 1 26 70 CFG=1
M  V30 72 1 71 27
M  V30 73 1 72 27
M  V30 74 1 73 27
M  V30 75 1 74 28
M  V30 76 1 75 32
M  V30 77 1 76 32
M  V30 78 1 77 33
M  V30 79 1 78 34
M  V30 80 1 79 35
M  V30 81 1 80 35
M  V30 END BOND
M  V30 END CTAB
M  END
>  <i_epik_Tot_Q>  (1) 
0

>  <i_epik_Tot_abs_Q>  (1) 
0

>  <i_i_glide_confnum>  (1) 
7040

>  <i_i_glide_lignum>  (1) 
26

>  <i_i_glide_posenum>  (1) 
18

>  <i_i_glide_rotatable_bonds>  (1) 
21

>  <i_lp_mmshare_version>  (1) 
72125

>  <i_m_source_file_index>  (1) 
14

>  <i_f3d_flags>  (1) 
0

>  <num_sample>  (1) 
50

>  <b_lp_Chiralities_Consistent>  (1) 
1

>  <r_epik_Charging_Adjusted_Penalty>  (1) 
0.6814092300501583

>  <r_epik_Ionization_Penalty>  (1) 
0.68170603093061677

>  <r_epik_Ionization_Penalty_Charging>  (1) 
0

>  <r_epik_Ionization_Penalty_Neutral>  (1) 
0.68170603093061677

>  <r_epik_State_Penalty>  (1) 
0.6814092300501583

>  <r_glide_ring_energy>  (1) 
0

>  <r_i_docking_score>  (1) 
-6.319123479588213

>  <r_i_glide_ecoul>  (1) 
-3.9477845732614969

>  <r_i_glide_eff_state_penalty>  (1) 
0.6814092300501583

>  <r_i_glide_einternal>  (1) 
19.845598299160979

>  <r_i_glide_emodel>  (1) 
-47.681877215777767

>  <r_i_glide_emodel_strain>  (1) 
5.5166286324312779

>  <r_i_glide_energy>  (1) 
-42.929297109452811

>  <r_i_glide_erotb>  (1) 
1.1405850695777229

>  <r_i_glide_esite>  (1) 
-0.013514469713513555

>  <r_i_glide_evdw>  (1) 
-38.981512536191318

>  <r_i_glide_gscore>  (1) 
-7.0005327096383709

>  <r_i_glide_gscore_strain>  (1) 
0.37915715810781947

>  <r_i_glide_hbond>  (1) 
-0.47513942095559791

>  <r_i_glide_ligand_efficiency>  (1) 
-0.18054638513109181

>  <r_i_glide_ligand_efficiency_ln>  (1) 
-1.3871878491590206

>  <r_i_glide_ligand_efficiency_sa>  (1) 
-0.59057919782864865

>  <r_i_glide_lipo>  (1) 
-4.3982439147731522

>  <r_i_glide_metal>  (1) 
-0

>  <r_i_glide_rewards>  (1) 
-1.0921338190828598

>  <r_lp_Energy>  (1) 
18.435863999999999

>  <s_epik_Chemistry_Notes>  (1) 
This compound contains an acetal/aminal-like group ( X-CH(R)-Y where X, Y are N, S, or O) that may be acid/base labile, releasing an aldehyde. This compound has a N-S or N-O group and may undergo hydrolysis at high or low pH.

>  <s_epik_cmdline>  (1) 
J2VwaWtfcHl0aG9uJywgJy1waHQnLCAnMS4wJywgJy1waCcsICc3LjQnLCAnLXRuJywgJzgnLCAnLW1hJywgJzUwMCcsICctaW1hZScsICc8aW5maWxlLm1hZT4nLCAnLW9tYWUnLCAnPG91dGZpbGUubWFlPic=

>  <s_epik_input>  (1) 
W09IXVtDSF0oW09IXSlbQ0gyXVtDQEhdKE9bQ0gzXSlbQ0gyXVtDSDJdW0NIMl1bQ0gyXVtDQEBIXShPW0NIM10pW0NIMl1OKFtDSDJdW05IXVtPSF0pW0NASF0oW0NIMl1bQ0gzXSlbQ0BIXShbQ0gzXSlPW0NAQEhdMVtDSDJdW0NIMl1jKGMxMilbY0hdW2NIXWMoRilbY0hdMg==

>  <s_glide_docking_method>  (1) 
confgen

>  <s_i_glide_gridfile>  (1) 
gpcr_5ht2c_6bqh_protein_autoprepared_prepared

>  <s_lp_Force_Field>  (1) 
S-OPLS

>  <s_lp_Variant>  (1) 
DiffSBDD_13-3

>  <s_m_source_file>  (1) 
generated_GPCR_5HT2C_ligand_DiffSBDD_2026-06-23_prepared.sdf

>  <GenAI_Model>  (1) 
DiffSBDD

>  <Protein>  (1) 
GPCR_5HT2C

$$$$
DiffSBDD_21
     RDKit          3D

  0  0  0  0  0  0  0  0  0  0999 V3000
M  V30 BEGIN CTAB
M  V30 COUNTS 51 54 0 0 1
M  V30 BEGIN ATOM
M  V30 1 C 37.290787 34.596576 60.047409 0
M  V30 2 C 38.461735 31.239378 55.519317 0
M  V30 3 N 38.853911 28.997370 54.490960 0
M  V30 4 C 38.898476 29.740803 53.212485 0 CFG=2
M  V30 5 C 38.128797 27.702482 54.452825 0 CFG=1
M  V30 6 C 38.547257 29.278715 56.960839 0
M  V30 7 C 37.712700 31.840969 60.431543 0
M  V30 8 C 38.771343 28.892525 51.930694 0 CFG=2
M  V30 9 C 38.116457 31.499015 57.934185 0
M  V30 10 C 38.220555 32.049347 56.633577 0
M  V30 11 C 38.713248 26.785332 53.354589 0
M  V30 12 C 37.593517 33.774598 58.948145 0
M  V30 13 C 37.065253 36.082014 59.842292 0
M  V30 14 C 37.406514 32.673717 61.524440 0
M  V30 15 F 37.877937 36.797732 60.619134 0
M  V30 16 C 37.194482 34.046644 61.330349 0
M  V30 17 C 39.328522 27.483257 52.134770 0
M  V30 18 C 38.616621 29.833890 55.656233 0
M  V30 19 O 38.074154 26.819873 55.552600 0
M  V30 20 C 40.638491 30.425111 51.555162 0
M  V30 21 C 37.810441 32.376987 59.115982 0
M  V30 22 C 40.047950 29.025242 49.646156 0
M  V30 23 C 39.505359 29.737130 50.862425 0 CFG=1
M  V30 24 C 38.296810 30.098874 58.079956 0
M  V30 25 C 40.159617 30.607565 53.005359 0
M  V30 26 H 38.507156 31.708682 54.560852 0
M  V30 27 H 38.018487 30.366640 53.201370 0
M  V30 28 H 37.098109 27.938951 54.184461 0
M  V30 29 H 38.692583 28.232703 57.120084 0
M  V30 30 H 37.867203 30.791945 60.605716 0
M  V30 31 H 37.719585 28.786300 51.661602 0
M  V30 32 H 38.094629 33.102924 56.478325 0
M  V30 33 H 39.488950 26.138867 53.767498 0
M  V30 34 H 37.906231 26.137823 53.016614 0
M  V30 35 H 37.651857 34.220563 57.974436 0
M  V30 36 H 37.244356 36.383746 58.809245 0
M  V30 37 H 36.044684 36.351175 60.103076 0
M  V30 38 H 37.333033 32.254164 62.516179 0
M  V30 39 H 36.956810 34.682246 62.167749 0
M  V30 40 H 39.152443 26.868468 51.251495 0
M  V30 41 H 40.407883 27.544756 52.250132 0
M  V30 42 H 37.886703 25.951875 55.229826 0
M  V30 43 H 41.519704 29.804558 51.367869 0
M  V30 44 H 40.846756 31.376395 51.076732 0
M  V30 45 H 40.445103 28.039095 49.859672 0
M  V30 46 H 40.813099 29.609360 49.132013 0
M  V30 47 H 39.245121 28.937764 48.967752 0
M  V30 48 H 38.845291 30.522074 50.505383 0
M  V30 49 H 38.237695 29.642836 59.051402 0
M  V30 50 H 39.923564 31.662488 53.114124 0
M  V30 51 H 40.898418 30.389767 53.767530 0
M  V30 END ATOM
M  V30 BEGIN BOND
M  V30 1 1 4 3
M  V30 2 1 5 3
M  V30 3 1 8 4
M  V30 4 2 10 2
M  V30 5 1 10 9
M  V30 6 1 11 5
M  V30 7 2 12 1
M  V30 8 1 13 1
M  V30 9 1 14 7
M  V30 10 1 15 13
M  V30 11 1 16 1
M  V30 12 2 16 14
M  V30 13 1 17 8
M  V30 14 1 17 11
M  V30 15 1 18 2
M  V30 16 1 18 3
M  V30 17 2 18 6
M  V30 18 1 19 5
M  V30 19 2 21 7
M  V30 20 1 21 9
M  V30 21 1 21 12
M  V30 22 1 23 8
M  V30 23 1 23 20
M  V30 24 1 23 22
M  V30 25 1 24 6
M  V30 26 2 24 9
M  V30 27 1 25 4
M  V30 28 1 25 20
M  V30 29 1 26 2
M  V30 30 1 4 27 CFG=1
M  V30 31 1 5 28 CFG=3
M  V30 32 1 29 6
M  V30 33 1 30 7
M  V30 34 1 8 31 CFG=3
M  V30 35 1 32 10
M  V30 36 1 33 11
M  V30 37 1 34 11
M  V30 38 1 35 12
M  V30 39 1 36 13
M  V30 40 1 37 13
M  V30 41 1 38 14
M  V30 42 1 39 16
M  V30 43 1 40 17
M  V30 44 1 41 17
M  V30 45 1 42 19
M  V30 46 1 43 20
M  V30 47 1 44 20
M  V30 48 1 45 22
M  V30 49 1 46 22
M  V30 50 1 47 22
M  V30 51 1 23 48 CFG=3
M  V30 52 1 49 24
M  V30 53 1 50 25
M  V30 54 1 51 25
M  V30 END BOND
M  V30 END CTAB
M  END
>  <i_epik_Tot_Q>  (1) 
0

>  <i_epik_Tot_abs_Q>  (1) 
0

>  <i_i_glide_confnum>  (1) 
4

>  <i_i_glide_lignum>  (1) 
48

>  <i_i_glide_posenum>  (1) 
366

>  <i_i_glide_rotatable_bonds>  (1) 
4

>  <i_lp_mmshare_version>  (1) 
72125

>  <i_m_source_file_index>  (1) 
22

>  <i_f3d_flags>  (1) 
0

>  <num_sample>  (1) 
50

>  <b_lp_Chiralities_Consistent>  (1) 
1

>  <r_epik_Charging_Adjusted_Penalty>  (1) 
0.0079594303855521683

>  <r_epik_Ionization_Penalty>  (1) 
0.0041828556717972551

>  <r_epik_Ionization_Penalty_Charging>  (1) 
0

>  <r_epik_Ionization_Penalty_Neutral>  (1) 
0.0041828556717972551

>  <r_epik_State_Penalty>  (1) 
0.0079594303855521683

>  <r_glide_ring_energy>  (1) 
0

>  <r_i_docking_score>  (1) 
-6.3176571976328137

>  <r_i_glide_ecoul>  (1) 
0.27180281615666468

>  <r_i_glide_eff_state_penalty>  (1) 
0.0079594303855521683

>  <r_i_glide_einternal>  (1) 
0.92539175129567752

>  <r_i_glide_emodel>  (1) 
-40.956832138100516

>  <r_i_glide_emodel_strain>  (1) 
0.66790059694584158

>  <r_i_glide_energy>  (1) 
-28.243600023296391

>  <r_i_glide_erotb>  (1) 
0.3284693713347695

>  <r_i_glide_esite>  (1) 
0

>  <r_i_glide_evdw>  (1) 
-28.515402839453056

>  <r_i_glide_gscore>  (1) 
-6.3256166280183663

>  <r_i_glide_gscore_strain>  (1) 
0

>  <r_i_glide_hbond>  (1) 
0

>  <r_i_glide_ligand_efficiency>  (1) 
-0.25270628790531258

>  <r_i_glide_ligand_efficiency_ln>  (1) 
-1.4974740807476075

>  <r_i_glide_ligand_efficiency_sa>  (1) 
-0.73891766839306139

>  <r_i_glide_lipo>  (1) 
-2.3703160933268514

>  <r_i_glide_metal>  (1) 
-0

>  <r_i_glide_rewards>  (1) 
-2.89877018647713

>  <r_lp_Energy>  (1) 
58.552322999999994

>  <s_epik_Chemistry_Notes>  (1) 
This compound contains an acetal/aminal-like group ( X-CH(R)-Y where X, Y are N, S, or O) that may be acid/base labile, releasing an aldehyde.

>  <s_epik_cmdline>  (1) 
J2VwaWtfcHl0aG9uJywgJy1waHQnLCAnMS4wJywgJy1waCcsICc3LjQnLCAnLXRuJywgJzgnLCAnLW1hJywgJzUwMCcsICctaW1hZScsICc8aW5maWxlLm1hZT4nLCAnLW9tYWUnLCAnPG91dGZpbGUubWFlPic=

>  <s_epik_input>  (1) 
RltDSDJdYzFbY0hdYyhbY0hdW2NIXVtjSF0xKS1jMltjSF1bY0hdYyhbY0hdW2NIXTIpTjNbQ0BIXShbT0hdKVtDSDJdW0NIMl1bQ0BASF0oW0NAQEhdMzQpW0NASF0oW0NIM10pW0NIMl1bQ0gyXTQ=

>  <s_glide_docking_method>  (1) 
confgen

>  <s_i_glide_gridfile>  (1) 
gpcr_5ht2c_6bqh_protein_autoprepared_prepared

>  <s_lp_Force_Field>  (1) 
S-OPLS

>  <s_lp_Variant>  (1) 
DiffSBDD_21-1

>  <s_m_source_file>  (1) 
generated_GPCR_5HT2C_ligand_DiffSBDD_2026-06-23_prepared.sdf

>  <GenAI_Model>  (1) 
DiffSBDD

>  <Protein>  (1) 
GPCR_5HT2C

$$$$
DiffSBDD_14
     RDKit          3D

  0  0  0  0  0  0  0  0  0  0999 V3000
M  V30 BEGIN CTAB
M  V30 COUNTS 58 59 0 0 1
M  V30 BEGIN ATOM
M  V30 1 Cl 40.845144 35.763729 61.640971 0
M  V30 2 C 38.847513 30.499743 57.378470 0
M  V30 3 N 36.845425 35.804881 61.599589 0
M  V30 4 C 36.573721 34.683481 60.887195 0
M  V30 5 C 37.411360 27.269553 54.736607 0
M  V30 6 C 39.634393 27.214927 50.729662 0
M  V30 7 C 40.269000 29.402825 51.750139 0
M  V30 8 C 38.532612 29.558946 58.562387 0 CFG=1
M  V30 9 C 39.824297 25.799445 55.344059 0
M  V30 10 C 39.211517 35.318511 61.325227 0
M  V30 11 C 39.449799 28.337744 51.719538 0
M  V30 12 C 38.149012 36.104217 61.809725 0
M  V30 13 O 36.971078 31.051148 61.262774 0 CHG=-1
M  V30 14 N 37.408319 30.125057 59.360914 0 CHG=1
M  V30 15 C 38.278973 28.192015 52.676160 0
M  V30 16 C 37.452015 26.160734 55.802885 0
M  V30 17 C 38.917283 34.166305 60.583149 0
M  V30 18 C 37.707027 31.290426 60.209107 0 CFG=1
M  V30 19 C 37.569938 33.840754 60.359424 0
M  V30 20 C 37.193449 32.600812 59.564360 0
M  V30 21 C 39.266776 27.389701 57.269036 0
M  V30 22 C 38.832972 26.114140 56.478961 0 CFG=2
M  V30 23 C 39.751102 26.841854 54.200519 0
M  V30 24 N 38.389798 27.060832 53.649573 0 CFG=1 CHG=1
M  V30 25 C 38.192921 28.109922 58.118239 0
M  V30 26 H 39.683177 30.164936 56.770335 0
M  V30 27 H 37.982591 30.618677 56.723888 0
M  V30 28 H 39.143425 31.487455 57.723691 0
M  V30 29 H 35.529324 34.457304 60.732687 0
M  V30 30 H 37.593373 28.236715 55.207922 0
M  V30 31 H 36.445082 27.337976 54.264526 0
M  V30 32 H 38.845135 27.206437 49.993295 0
M  V30 33 H 40.550948 27.337733 50.167743 0
M  V30 34 H 39.645118 26.247761 51.229243 0
M  V30 35 H 40.122071 30.200644 52.465064 0
M  V30 36 H 41.096539 29.489726 51.059980 0
M  V30 37 H 39.413463 29.493368 59.202598 0
M  V30 38 H 40.841214 25.749763 55.736701 0
M  V30 39 H 39.615129 24.807575 54.941257 0
M  V30 40 H 38.348499 36.996941 62.384062 0
M  V30 41 H 36.622964 30.359115 58.768310 0
M  V30 42 H 38.178684 29.134085 53.219340 0
M  V30 43 H 37.361906 28.080805 52.095113 0
M  V30 44 H 36.668794 26.280125 56.548668 0
M  V30 45 H 37.237383 25.200793 55.329980 0
M  V30 46 H 39.708774 33.543279 60.195104 0
M  V30 47 H 38.791249 31.371310 60.292841 0
M  V30 48 H 37.594666 32.735054 58.561915 0
M  V30 49 H 36.109876 32.563006 59.430344 0
M  V30 50 H 40.107866 27.130375 57.914771 0
M  V30 51 H 39.680361 28.104547 56.574873 0
M  V30 52 H 38.828564 25.279972 57.182545 0
M  V30 53 H 40.445132 26.537871 53.416619 0
M  V30 54 H 40.045139 27.816747 54.567898 0
M  V30 55 H 37.244674 28.145462 57.589124 0
M  V30 56 H 38.045191 27.495383 59.002316 0
M  V30 57 H 38.129327 26.216387 53.159066 0
M  V30 58 H 37.103350 29.442545 60.037242 0
M  V30 END ATOM
M  V30 BEGIN BOND
M  V30 1 1 4 3
M  V30 2 1 8 2
M  V30 3 1 10 1
M  V30 4 1 11 6
M  V30 5 2 11 7
M  V30 6 2 12 3
M  V30 7 1 12 10
M  V30 8 1 14 8
M  V30 9 1 15 11
M  V30 10 1 16 5
M  V30 11 2 17 10
M  V30 12 1 18 13
M  V30 13 1 18 14
M  V30 14 2 19 4
M  V30 15 1 19 17
M  V30 16 1 20 18
M  V30 17 1 20 19
M  V30 18 1 22 9
M  V30 19 1 22 16
M  V30 20 1 22 21
M  V30 21 1 23 9
M  V30 22 1 24 5
M  V30 23 1 24 15
M  V30 24 1 24 23
M  V30 25 1 25 8
M  V30 26 1 25 21
M  V30 27 1 26 2
M  V30 28 1 27 2
M  V30 29 1 28 2
M  V30 30 1 29 4
M  V30 31 1 30 5
M  V30 32 1 31 5
M  V30 33 1 32 6
M  V30 34 1 33 6
M  V30 35 1 34 6
M  V30 36 1 35 7
M  V30 37 1 36 7
M  V30 38 1 8 37 CFG=1
M  V30 39 1 38 9
M  V30 40 1 39 9
M  V30 41 1 40 12
M  V30 42 1 41 14
M  V30 43 1 42 15
M  V30 44 1 43 15
M  V30 45 1 44 16
M  V30 46 1 45 16
M  V30 47 1 46 17
M  V30 48 1 18 47 CFG=1
M  V30 49 1 48 20
M  V30 50 1 49 20
M  V30 51 1 50 21
M  V30 52 1 51 21
M  V30 53 1 22 52 CFG=1
M  V30 54 1 53 23
M  V30 55 1 54 23
M  V30 56 1 55 25
M  V30 57 1 56 25
M  V30 58 1 24 57 CFG=3
M  V30 59 1 58 14
M  V30 END BOND
M  V30 END CTAB
M  END
>  <i_epik_Tot_Q>  (1) 
1

>  <i_epik_Tot_abs_Q>  (1) 
3

>  <i_i_glide_confnum>  (1) 
59

>  <i_i_glide_lignum>  (1) 
30

>  <i_i_glide_posenum>  (1) 
234

>  <i_i_glide_rotatable_bonds>  (1) 
9

>  <i_lp_mmshare_version>  (1) 
72125

>  <i_m_source_file_index>  (1) 
15

>  <i_f3d_flags>  (1) 
0

>  <num_sample>  (1) 
50

>  <b_lp_Chiralities_Consistent>  (1) 
1

>  <r_epik_Charging_Adjusted_Penalty>  (1) 
1.1654849776379888

>  <r_epik_Ionization_Penalty>  (1) 
0.58785290175030958

>  <r_epik_Ionization_Penalty_Charging>  (1) 
0.58784809198166499

>  <r_epik_Ionization_Penalty_Neutral>  (1) 
4.8097686445928234e-06

>  <r_epik_State_Penalty>  (1) 
0.57763688565632376

>  <r_glide_ring_energy>  (1) 
0

>  <r_i_docking_score>  (1) 
-6.3136280098073048

>  <r_i_glide_ecoul>  (1) 
-4.6299610372720332

>  <r_i_glide_eff_state_penalty>  (1) 
0.57763688565632376

>  <r_i_glide_einternal>  (1) 
6.1505844873913649

>  <r_i_glide_emodel>  (1) 
-46.862870379456801

>  <r_i_glide_emodel_strain>  (1) 
2.4793532726968124

>  <r_i_glide_energy>  (1) 
-37.077180037957788

>  <r_i_glide_erotb>  (1) 
1.143828235945936

>  <r_i_glide_esite>  (1) 
-0.025344246889209238

>  <r_i_glide_evdw>  (1) 
-32.447219000685756

>  <r_i_glide_gscore>  (1) 
-6.8912648954636282

>  <r_i_glide_gscore_strain>  (1) 
0

>  <r_i_glide_hbond>  (1) 
-0.16

>  <r_i_glide_ligand_efficiency>  (1) 
-0.25254512039229221

>  <r_i_glide_ligand_efficiency_ln>  (1) 
-1.4965190424879462

>  <r_i_glide_ligand_efficiency_sa>  (1) 
-0.73844641172616621

>  <r_i_glide_lipo>  (1) 
-4.0045039934272779

>  <r_i_glide_metal>  (1) 
-0

>  <r_i_glide_rewards>  (1) 
-1.5283897854679831

>  <r_lp_Energy>  (1) 
31.530553999999999

>  <s_epik_Chemistry_Notes>  (1) 
This compound contains an acetal/aminal-like group ( X-CH(R)-Y where X, Y are N, S, or O) that may be acid/base labile, releasing an aldehyde.

>  <s_epik_cmdline>  (1) 
J2VwaWtfcHl0aG9uJywgJy1waHQnLCAnMS4wJywgJy1waCcsICc3LjQnLCAnLXRuJywgJzgnLCAnLW1hJywgJzUwMCcsICctaW1hZScsICc8aW5maWxlLm1hZT4nLCAnLW9tYWUnLCAnPG91dGZpbGUubWFlPic=

>  <s_epik_input>  (1) 
Q2xjMVtjSF1uW2NIXWMoW2NIXTEpW0NIMl1bQ0BASF0oW09IXSlbTkhdW0NASF0oW0NIM10pW0NIMl1bQ0gyXVtDSF0yW0NIMl1bQ0gyXU4oW0NIMl1bQ0gyXTIpW0NIMl1DKFtDSDNdKT1bQ0gyXQ==

>  <s_glide_docking_method>  (1) 
confgen

>  <s_i_glide_gridfile>  (1) 
gpcr_5ht2c_6bqh_protein_autoprepared_prepared

>  <s_lp_Force_Field>  (1) 
S-OPLS

>  <s_lp_Variant>  (1) 
DiffSBDD_14-4

>  <s_m_source_file>  (1) 
generated_GPCR_5HT2C_ligand_DiffSBDD_2026-06-23_prepared.sdf

>  <GenAI_Model>  (1) 
DiffSBDD

>  <Protein>  (1) 
GPCR_5HT2C

$$$$
DiffSBDD_46
     RDKit          3D

  0  0  0  0  0  0  0  0  0  0999 V3000
M  V30 BEGIN CTAB
M  V30 COUNTS 54 56 0 0 1
M  V30 BEGIN ATOM
M  V30 1 C 39.722635 32.840647 61.358750 0
M  V30 2 C 39.170397 31.485643 60.982410 0 CFG=1
M  V30 3 C 39.326198 28.972090 57.248327 0
M  V30 4 C 36.930057 34.466461 60.873702 0
M  V30 5 C 40.462097 30.805556 50.437131 0
M  V30 6 C 39.167686 30.301646 61.950776 0 CFG=2
M  V30 7 C 41.795562 29.723430 64.346273 0
M  V30 8 C 38.968479 28.710961 58.717929 0
M  V30 9 O 39.955101 30.593292 63.093552 0
M  V30 10 C 39.400372 29.461049 52.153766 0
M  V30 11 O 38.445140 27.337739 51.595203 0
M  V30 12 C 37.551997 33.148086 60.394908 0
M  V30 13 C 36.476784 36.442343 59.372628 0
M  V30 14 C 38.709695 28.293374 52.528922 0
M  V30 15 C 36.205537 35.184860 59.754621 0
M  V30 16 N 40.845160 28.636354 62.359249 0
M  V30 17 N 38.304914 32.541528 61.488858 0
M  V30 18 S 40.445126 28.937788 59.750971 0
M  V30 19 C 39.663241 30.461469 53.123182 0
M  V30 20 C 38.293110 28.112438 53.864642 0
M  V30 21 O 39.805258 29.614151 50.840746 0
M  V30 22 C 40.845133 29.580300 63.182864 0
M  V30 23 C 38.134075 28.904826 56.276738 0
M  V30 24 C 38.566337 29.104757 54.830712 0
M  V30 25 C 39.776082 28.945292 61.444805 0 CFG=2
M  V30 26 C 39.245919 30.281463 54.454536 0
M  V30 27 H 40.301142 32.918628 62.276768 0
M  V30 28 H 40.045341 33.508983 60.562470 0
M  V30 29 H 39.044185 31.249882 59.929257 0
M  V30 30 H 39.792731 29.954846 57.180782 0
M  V30 31 H 40.084421 28.252429 56.935834 0
M  V30 32 H 36.218237 34.274615 61.677800 0
M  V30 33 H 37.701549 35.119917 61.284136 0
M  V30 34 H 40.694952 30.742477 49.374951 0
M  V30 35 H 41.405260 30.937761 50.967741 0
M  V30 36 H 39.826858 31.680394 50.582178 0
M  V30 37 H 38.142469 30.137754 62.285930 0
M  V30 38 H 42.584224 28.972360 64.292162 0
M  V30 39 H 41.258228 29.595461 65.285965 0
M  V30 40 H 42.256624 30.711188 64.338090 0
M  V30 41 H 38.182835 29.393597 59.041011 0
M  V30 42 H 38.589082 27.697466 58.851790 0
M  V30 43 H 36.762947 32.460253 60.086952 0
M  V30 44 H 38.167934 33.325849 59.510650 0
M  V30 45 H 37.249062 37.019078 59.859964 0
M  V30 46 H 35.928882 36.908385 58.567757 0
M  V30 47 H 35.427054 34.630749 59.248635 0
M  V30 48 H 40.186642 31.362113 52.849706 0
M  V30 49 H 37.768626 27.211745 54.148753 0
M  V30 50 H 37.710373 26.775121 51.798015 0
M  V30 51 H 37.645132 27.936194 56.379245 0
M  V30 52 H 37.391620 29.663626 56.530756 0
M  V30 53 H 39.026114 28.155591 61.507657 0
M  V30 54 H 39.452433 31.045670 55.189683 0
M  V30 END ATOM
M  V30 BEGIN BOND
M  V30 1 1 2 1
M  V30 2 1 6 2
M  V30 3 1 8 3
M  V30 4 1 9 6
M  V30 5 1 12 4
M  V30 6 1 14 10
M  V30 7 1 14 11
M  V30 8 1 15 4
M  V30 9 2 15 13
M  V30 10 1 17 1
M  V30 11 1 17 2
M  V30 12 1 17 12
M  V30 13 1 18 8
M  V30 14 2 19 10
M  V30 15 2 20 14
M  V30 16 1 21 5
M  V30 17 1 21 10
M  V30 18 1 22 7
M  V30 19 1 22 9
M  V30 20 2 22 16
M  V30 21 1 23 3
M  V30 22 1 24 20
M  V30 23 1 24 23
M  V30 24 1 25 6
M  V30 25 1 25 16
M  V30 26 1 25 18
M  V30 27 1 26 19
M  V30 28 2 26 24
M  V30 29 1 27 1
M  V30 30 1 28 1
M  V30 31 1 2 29 CFG=3
M  V30 32 1 30 3
M  V30 33 1 31 3
M  V30 34 1 32 4
M  V30 35 1 33 4
M  V30 36 1 34 5
M  V30 37 1 35 5
M  V30 38 1 36 5
M  V30 39 1 6 37 CFG=1
M  V30 40 1 38 7
M  V30 41 1 39 7
M  V30 42 1 40 7
M  V30 43 1 41 8
M  V30 44 1 42 8
M  V30 45 1 43 12
M  V30 46 1 44 12
M  V30 47 1 45 13
M  V30 48 1 46 13
M  V30 49 1 47 15
M  V30 50 1 48 19
M  V30 51 1 49 20
M  V30 52 1 50 11
M  V30 53 1 51 23
M  V30 54 1 52 23
M  V30 55 1 25 53 CFG=3
M  V30 56 1 54 26
M  V30 END BOND
M  V30 END CTAB
M  END
>  <i_epik_Tot_Q>  (1) 
0

>  <i_epik_Tot_abs_Q>  (1) 
0

>  <i_i_glide_confnum>  (1) 
311

>  <i_i_glide_lignum>  (1) 
97

>  <i_i_glide_posenum>  (1) 
225

>  <i_i_glide_rotatable_bonds>  (1) 
11

>  <i_lp_mmshare_version>  (1) 
72125

>  <i_m_source_file_index>  (1) 
47

>  <i_f3d_flags>  (1) 
0

>  <num_sample>  (1) 
50

>  <b_lp_Chiralities_Consistent>  (1) 
1

>  <r_epik_Charging_Adjusted_Penalty>  (1) 
0.059256753965672836

>  <r_epik_Ionization_Penalty>  (1) 
0.061027430801307576

>  <r_epik_Ionization_Penalty_Charging>  (1) 
0

>  <r_epik_Ionization_Penalty_Neutral>  (1) 
0.061027430801307576

>  <r_epik_State_Penalty>  (1) 
0.059256753965672836

>  <r_glide_ring_energy>  (1) 
0

>  <r_i_docking_score>  (1) 
-6.3000010044924091

>  <r_i_glide_ecoul>  (1) 
-2.8633324562405407

>  <r_i_glide_eff_state_penalty>  (1) 
0.059256753965672836

>  <r_i_glide_einternal>  (1) 
7.1978005850356199

>  <r_i_glide_emodel>  (1) 
-58.43634053025098

>  <r_i_glide_emodel_strain>  (1) 
0.24277221259195869

>  <r_i_glide_energy>  (1) 
-46.388378565815025

>  <r_i_glide_erotb>  (1) 
1.2289544219816615

>  <r_i_glide_esite>  (1) 
-0.033521397806059658

>  <r_i_glide_evdw>  (1) 
-43.525046109574483

>  <r_i_glide_gscore>  (1) 
-6.3592577584580816

>  <r_i_glide_gscore_strain>  (1) 
0

>  <r_i_glide_hbond>  (1) 
-0.21946640546457055

>  <r_i_glide_ligand_efficiency>  (1) 
-0.24230773094201574

>  <r_i_glide_ligand_efficiency_ln>  (1) 
-1.4795345639156634

>  <r_i_glide_ligand_efficiency_sa>  (1) 
-0.71783570026043275

>  <r_i_glide_lipo>  (1) 
-3.4387221720000265

>  <r_i_glide_metal>  (1) 
-0

>  <r_i_glide_rewards>  (1) 
-1.2907500312542806

>  <r_lp_Energy>  (1) 
9.3116819999999993

>  <r_lp_tautomer_probability>  (1) 
0.99960115913750414

>  <s_epik_Chemistry_Notes>  (1) 
This compound has an imine and may undergo hydrolysis. This compound contains an acetal/aminal-like group ( X-CH(R)-Y where X, Y are N, S, or O) that may be acid/base labile, releasing an aldehyde.

>  <s_epik_cmdline>  (1) 
J2VwaWtfcHl0aG9uJywgJy1waHQnLCAnMS4wJywgJy1waCcsICc3LjQnLCAnLXRuJywgJzgnLCAnLW1hJywgJzUwMCcsICctaW1hZScsICc8aW5maWxlLm1hZT4nLCAnLW9tYWUnLCAnPG91dGZpbGUubWFlPic=

>  <s_epik_input>  (1) 
W0NIMl09W0NIXVtDSDJdW0NIMl1OMVtDSDJdW0NASF0xW0NAQEhdMk9DKFtDSDNdKT1OW0NAQEhdMlNbQ0gyXVtDSDJdW0NIMl1DKFtDSDJdQzM9Tyk9W0NIXVtDSF09QzNPW0NIM10=

>  <s_glide_docking_method>  (1) 
confgen

>  <s_i_glide_gridfile>  (1) 
gpcr_5ht2c_6bqh_protein_autoprepared_prepared

>  <s_lp_Force_Field>  (1) 
S-OPLS

>  <s_lp_Variant>  (1) 
DiffSBDD_46-1

>  <s_m_source_file>  (1) 
generated_GPCR_5HT2C_ligand_DiffSBDD_2026-06-23_prepared.sdf

>  <GenAI_Model>  (1) 
DiffSBDD

>  <Protein>  (1) 
GPCR_5HT2C

$$$$
DiffSBDD_40
     RDKit          3D

  0  0  0  0  0  0  0  0  0  0999 V3000
M  V30 BEGIN CTAB
M  V30 COUNTS 59 62 0 0 1
M  V30 BEGIN ATOM
M  V30 1 C 39.222848 27.016693 57.571451 0 CFG=1
M  V30 2 C 39.648238 29.988673 54.925600 0 CFG=2
M  V30 3 C 39.751273 28.152950 56.709381 0 CFG=1
M  V30 4 C 38.250971 24.715210 56.764149 0
M  V30 5 C 36.782482 34.322851 60.917297 0
M  V30 6 O 39.962669 29.122773 59.364293 0
M  V30 7 C 39.504749 31.159745 55.913101 0
M  V30 8 F 38.701872 27.457951 51.699660 0
M  V30 9 C 38.290634 36.519717 61.947424 0
M  V30 10 F 37.245269 28.416911 52.940408 0
M  V30 11 C 39.030600 30.413020 53.579950 0
M  V30 12 N 38.891985 35.611055 60.973719 0
M  V30 13 O 36.045502 31.003480 59.477636 0
M  V30 14 C 39.052976 28.650160 55.448413 0 CFG=2
M  V30 15 C 37.521943 25.082387 58.029699 0
M  V30 16 C 38.115407 32.269386 59.523054 0
M  V30 17 S 39.204683 27.337458 54.194543 0
M  V30 18 C 36.723175 29.756240 59.496847 0
M  V30 19 C 37.440683 37.602400 61.256321 0
M  V30 20 P 39.026504 28.668083 58.297906 0 CFG=2
M  V30 21 C 39.403946 37.149637 62.794728 0
M  V30 22 C 38.816389 33.428804 59.901472 0
M  V30 23 C 38.554580 28.233653 52.771359 0
M  V30 24 O 39.245146 29.451837 52.554600 0
M  V30 25 C 38.043042 26.169166 57.129975 0
M  V30 26 C 36.744961 32.132304 59.841238 0
M  V30 27 C 36.082855 33.162962 60.533366 0
M  V30 28 C 38.160614 34.460399 60.602408 0
M  V30 29 C 37.285227 29.308355 58.142018 0
M  V30 30 H 39.991575 26.442856 58.086381 0
M  V30 31 H 40.716514 29.845577 54.771660 0
M  V30 32 H 40.836757 28.221296 56.657680 0
M  V30 33 H 37.660032 24.311029 55.944678 0
M  V30 34 H 39.253083 24.302003 56.864354 0
M  V30 35 H 36.259653 35.100080 61.447116 0
M  V30 36 H 38.460221 31.426148 56.072675 0
M  V30 37 H 39.952413 30.937872 56.878546 0
M  V30 38 H 40.005660 32.050524 55.533295 0
M  V30 39 H 37.673835 35.965175 62.651495 0
M  V30 40 H 39.492646 31.341548 53.244183 0
M  V30 41 H 37.968852 30.627417 53.706722 0
M  V30 42 H 39.894461 35.623651 60.853354 0
M  V30 43 H 37.987809 28.780395 55.632513 0
M  V30 44 H 38.045134 24.937571 58.967748 0
M  V30 45 H 36.445134 24.937704 58.062179 0
M  V30 46 H 38.628868 31.489113 58.987613 0
M  V30 47 H 37.477554 29.737726 60.283755 0
M  V30 48 H 35.952335 29.041127 59.767763 0
M  V30 49 H 36.952373 38.244143 61.989960 0
M  V30 50 H 38.049311 38.237836 60.613131 0
M  V30 51 H 36.658360 37.173558 60.630996 0
M  V30 52 H 38.991518 37.737735 63.613335 0
M  V30 53 H 40.036482 36.384696 63.246854 0
M  V30 54 H 40.045149 37.800058 62.199557 0
M  V30 55 H 39.862138 33.526227 59.654451 0
M  V30 56 H 37.285658 26.680360 56.541348 0
M  V30 57 H 35.034702 33.062810 60.773476 0
M  V30 58 H 36.647578 28.514908 57.767765 0
M  V30 59 H 37.246601 30.127566 57.426927 0
M  V30 END ATOM
M  V30 BEGIN BOND
M  V30 1 1 3 1
M  V30 2 1 7 2
M  V30 3 1 11 2
M  V30 4 1 12 9
M  V30 5 1 14 2
M  V30 6 1 14 3
M  V30 7 1 15 4
M  V30 8 1 17 14
M  V30 9 1 18 13
M  V30 10 1 19 9
M  V30 11 1 20 1
M  V30 12 1 20 3
M  V30 13 2 20 6
M  V30 14 1 21 9
M  V30 15 1 22 16
M  V30 16 1 23 8
M  V30 17 1 23 10
M  V30 18 1 23 17
M  V30 19 1 24 11
M  V30 20 1 24 23
M  V30 21 1 25 1
M  V30 22 1 25 4
M  V30 23 1 25 15
M  V30 24 1 26 13
M  V30 25 2 26 16
M  V30 26 2 27 5
M  V30 27 1 27 26
M  V30 28 1 28 5
M  V30 29 1 28 12
M  V30 30 2 28 22
M  V30 31 1 29 18
M  V30 32 1 20 29 CFG=3
M  V30 33 1 1 30 CFG=1
M  V30 34 1 2 31 CFG=3
M  V30 35 1 3 32 CFG=1
M  V30 36 1 33 4
M  V30 37 1 34 4
M  V30 38 1 35 5
M  V30 39 1 36 7
M  V30 40 1 37 7
M  V30 41 1 38 7
M  V30 42 1 39 9
M  V30 43 1 40 11
M  V30 44 1 41 11
M  V30 45 1 42 12
M  V30 46 1 14 43 CFG=1
M  V30 47 1 44 15
M  V30 48 1 45 15
M  V30 49 1 46 16
M  V30 50 1 47 18
M  V30 51 1 48 18
M  V30 52 1 49 19
M  V30 53 1 50 19
M  V30 54 1 51 19
M  V30 55 1 52 21
M  V30 56 1 53 21
M  V30 57 1 54 21
M  V30 58 1 55 22
M  V30 59 1 56 25
M  V30 60 1 57 27
M  V30 61 1 58 29
M  V30 62 1 59 29
M  V30 END BOND
M  V30 END CTAB
M  END
>  <i_epik_Tot_Q>  (1) 
0

>  <i_epik_Tot_abs_Q>  (1) 
0

>  <i_i_glide_confnum>  (1) 
147

>  <i_i_glide_lignum>  (1) 
84

>  <i_i_glide_posenum>  (1) 
314

>  <i_i_glide_rotatable_bonds>  (1) 
8

>  <i_lp_mmshare_version>  (1) 
72125

>  <i_m_source_file_index>  (1) 
41

>  <i_f3d_flags>  (1) 
0

>  <num_sample>  (1) 
50

>  <b_lp_Chiralities_Consistent>  (1) 
1

>  <r_epik_Charging_Adjusted_Penalty>  (1) 
0.10621715127672696

>  <r_epik_Ionization_Penalty>  (1) 
0.10621715241272391

>  <r_epik_Ionization_Penalty_Charging>  (1) 
0

>  <r_epik_Ionization_Penalty_Neutral>  (1) 
0.10621715241272391

>  <r_epik_State_Penalty>  (1) 
0.10621715127672696

>  <r_glide_ring_energy>  (1) 
0

>  <r_i_docking_score>  (1) 
-6.2720816295055819

>  <r_i_glide_ecoul>  (1) 
0.46695745476064998

>  <r_i_glide_eff_state_penalty>  (1) 
0.10621715127672696

>  <r_i_glide_einternal>  (1) 
11.212855721057128

>  <r_i_glide_emodel>  (1) 
-49.669325069614445

>  <r_i_glide_emodel_strain>  (1) 
3.0139361384218617

>  <r_i_glide_energy>  (1) 
-41.77498212112188

>  <r_i_glide_erotb>  (1) 
0.70566581847089904

>  <r_i_glide_esite>  (1) 
0

>  <r_i_glide_evdw>  (1) 
-42.241939575882533

>  <r_i_glide_gscore>  (1) 
-6.3782987807823091

>  <r_i_glide_gscore_strain>  (1) 
0

>  <r_i_glide_hbond>  (1) 
0

>  <r_i_glide_ligand_efficiency>  (1) 
-0.21627867687950283

>  <r_i_glide_ligand_efficiency_ln>  (1) 
-1.4361476468895413

>  <r_i_glide_ligand_efficiency_sa>  (1) 
-0.66447661801396929

>  <r_i_glide_lipo>  (1) 
-3.7789853119458701

>  <r_i_glide_metal>  (1) 
-0

>  <r_i_glide_rewards>  (1) 
-1.2629259267273081

>  <r_lp_Energy>  (1) 
18.098853999999999

>  <s_epik_cmdline>  (1) 
J2VwaWtfcHl0aG9uJywgJy1waHQnLCAnMS4wJywgJy1waCcsICc3LjQnLCAnLXRuJywgJzgnLCAnLW1hJywgJzUwMCcsICctaW1hZScsICc8aW5maWxlLm1hZT4nLCAnLW9tYWUnLCAnPG91dGZpbGUubWFlPic=

>  <s_epik_input>  (1) 
RkMxKEYpU1tDQEBIXShbQ0BIXShbQ0gzXSlbQ0gyXU8xKVtDQEBIXTJbQ0BIXShbQ0hdM1tDSDJdW0NIMl0zKVAyKD1PKVtDSDJdW0NIMl1PYzRbY0hdW2NIXWMoW2NIXVtjSF00KVtOSF1bQ0hdKFtDSDNdKVtDSDNd

>  <s_glide_docking_method>  (1) 
confgen

>  <s_i_glide_gridfile>  (1) 
gpcr_5ht2c_6bqh_protein_autoprepared_prepared

>  <s_lp_Force_Field>  (1) 
S-OPLS

>  <s_lp_Variant>  (1) 
DiffSBDD_40-2

>  <s_m_source_file>  (1) 
generated_GPCR_5HT2C_ligand_DiffSBDD_2026-06-23_prepared.sdf

>  <GenAI_Model>  (1) 
DiffSBDD

>  <Protein>  (1) 
GPCR_5HT2C

$$$$
DiffSBDD_6
     RDKit          3D

  0  0  0  0  0  0  0  0  0  0999 V3000
M  V30 BEGIN CTAB
M  V30 COUNTS 51 52 0 0 1
M  V30 BEGIN ATOM
M  V30 1 O 37.099350 31.913946 61.630297 0
M  V30 2 C 36.174976 34.900714 60.098327 0
M  V30 3 N 37.120553 31.871644 59.367608 0
M  V30 4 C 37.323168 35.415606 60.486799 0
M  V30 5 C 39.568956 34.269411 62.136223 0
M  V30 6 C 36.703424 32.355445 60.549201 0
M  V30 7 C 37.647939 28.696298 54.689256 0
M  V30 8 C 39.714788 36.497455 62.881845 0
M  V30 9 O 40.546856 34.305515 63.173324 0
M  V30 10 C 39.092649 29.122395 57.628764 0
M  V30 11 C 38.229895 27.999032 57.056156 0
M  V30 12 C 39.153359 27.102013 54.822033 0
M  V30 13 C 38.978051 27.331770 53.528867 0
M  V30 14 C 38.092113 30.787335 59.268894 0
M  V30 15 C 38.333905 27.942286 55.538145 0
M  V30 16 C 34.442444 33.142345 59.674880 0
M  V30 17 C 37.933784 28.452911 53.159088 0
M  V30 18 C 39.555658 35.700118 61.598952 0 CFG=2
M  V30 19 O 40.266411 28.933187 57.941727 0
M  V30 20 C 35.686293 33.512354 60.508891 0 CFG=2
M  V30 21 C 40.099077 26.075579 55.413032 0
M  V30 22 C 40.655685 35.625144 63.711026 0
M  V30 23 C 38.433936 30.490376 57.801297 0
M  V30 24 C 38.375895 36.160254 60.747330 0
M  V30 25 H 35.513840 35.464769 59.454533 0
M  V30 26 H 36.741284 32.254916 58.507168 0
M  V30 27 H 38.611155 33.987436 62.567563 0
M  V30 28 H 39.826015 33.536586 61.370586 0
M  V30 29 H 36.931111 29.444729 54.999801 0
M  V30 30 H 40.109311 37.501144 62.722618 0
M  V30 31 H 38.757705 36.588040 63.398660 0
M  V30 32 H 38.533742 27.047367 57.490375 0
M  V30 33 H 37.197398 28.165341 57.359484 0
M  V30 34 H 39.506450 26.797053 52.750662 0
M  V30 35 H 38.999789 31.059527 59.811321 0
M  V30 36 H 37.680626 29.902329 59.757926 0
M  V30 37 H 34.604310 33.333008 58.613926 0
M  V30 38 H 34.159993 32.096012 59.772250 0
M  V30 39 H 33.580657 33.737800 59.975169 0
M  V30 40 H 37.073240 28.069667 52.611166 0
M  V30 41 H 38.383810 29.318003 52.668955 0
M  V30 42 H 40.448169 35.830715 60.984075 0
M  V30 43 H 35.342807 33.623366 61.540018 0
M  V30 44 H 39.535117 25.203119 55.744193 0
M  V30 45 H 40.830503 25.744620 54.674474 0
M  V30 46 H 40.639474 26.485944 56.268562 0
M  V30 47 H 40.394322 35.647755 64.769989 0
M  V30 48 H 41.688037 35.965993 63.618394 0
M  V30 49 H 37.527414 30.506377 57.197349 0
M  V30 50 H 39.087373 31.266199 57.401040 0
M  V30 51 H 38.445137 37.160344 60.350395 0
M  V30 END ATOM
M  V30 BEGIN BOND
M  V30 1 2 4 2
M  V30 2 2 6 1
M  V30 3 1 6 3
M  V30 4 1 9 5
M  V30 5 1 11 10
M  V30 6 2 13 12
M  V30 7 1 14 3
M  V30 8 2 15 7
M  V30 9 1 15 11
M  V30 10 1 15 12
M  V30 11 1 17 7
M  V30 12 1 17 13
M  V30 13 1 18 5
M  V30 14 1 18 8
M  V30 15 2 19 10
M  V30 16 1 20 2
M  V30 17 1 20 6
M  V30 18 1 20 16
M  V30 19 1 21 12
M  V30 20 1 22 8
M  V30 21 1 22 9
M  V30 22 1 23 10
M  V30 23 1 23 14
M  V30 24 2 24 4
M  V30 25 1 24 18
M  V30 26 1 25 2
M  V30 27 1 26 3
M  V30 28 1 27 5
M  V30 29 1 28 5
M  V30 30 1 29 7
M  V30 31 1 30 8
M  V30 32 1 31 8
M  V30 33 1 32 11
M  V30 34 1 33 11
M  V30 35 1 34 13
M  V30 36 1 35 14
M  V30 37 1 36 14
M  V30 38 1 37 16
M  V30 39 1 38 16
M  V30 40 1 39 16
M  V30 41 1 40 17
M  V30 42 1 41 17
M  V30 43 1 18 42 CFG=3
M  V30 44 1 20 43 CFG=1
M  V30 45 1 44 21
M  V30 46 1 45 21
M  V30 47 1 46 21
M  V30 48 1 47 22
M  V30 49 1 48 22
M  V30 50 1 49 23
M  V30 51 1 50 23
M  V30 52 1 51 24
M  V30 END BOND
M  V30 END CTAB
M  END
>  <i_epik_Tot_Q>  (1) 
0

>  <i_epik_Tot_abs_Q>  (1) 
0

>  <i_i_glide_confnum>  (1) 
433

>  <i_i_glide_lignum>  (1) 
15

>  <i_i_glide_posenum>  (1) 
145

>  <i_i_glide_rotatable_bonds>  (1) 
9

>  <i_lp_mmshare_version>  (1) 
72125

>  <i_m_source_file_index>  (1) 
7

>  <i_f3d_flags>  (1) 
0

>  <num_sample>  (1) 
50

>  <b_lp_Chiralities_Consistent>  (1) 
1

>  <r_epik_Charging_Adjusted_Penalty>  (1) 
0

>  <r_epik_Ionization_Penalty>  (1) 
2.8772612766536324e-08

>  <r_epik_Ionization_Penalty_Charging>  (1) 
0

>  <r_epik_Ionization_Penalty_Neutral>  (1) 
2.8772612766536324e-08

>  <r_epik_State_Penalty>  (1) 
-0

>  <r_glide_ring_energy>  (1) 
0

>  <r_i_docking_score>  (1) 
-6.2687645669496783

>  <r_i_glide_ecoul>  (1) 
-4.6387292284416368

>  <r_i_glide_eff_state_penalty>  (1) 
-0

>  <r_i_glide_einternal>  (1) 
8.6001011424754985

>  <r_i_glide_emodel>  (1) 
-50.308637315537283

>  <r_i_glide_emodel_strain>  (1) 
0.96672763560822261

>  <r_i_glide_energy>  (1) 
-39.120170717220887

>  <r_i_glide_erotb>  (1) 
1.3853836233983141

>  <r_i_glide_esite>  (1) 
-0.11873183466359255

>  <r_i_glide_evdw>  (1) 
-34.481441488779247

>  <r_i_glide_gscore>  (1) 
-6.2687645669496783

>  <r_i_glide_gscore_strain>  (1) 
0

>  <r_i_glide_hbond>  (1) 
-0.36510200965698653

>  <r_i_glide_ligand_efficiency>  (1) 
-0.26119852362290324

>  <r_i_glide_ligand_efficiency_ln>  (1) 
-1.5004030157331938

>  <r_i_glide_ligand_efficiency_sa>  (1) 
-0.75342691692012342

>  <r_i_glide_lipo>  (1) 
-3.0523556439725694

>  <r_i_glide_metal>  (1) 
-0

>  <r_i_glide_rewards>  (1) 
-1.6980772433496361

>  <r_lp_Energy>  (1) 
-19.353403999999998

>  <r_lp_tautomer_probability>  (1) 
1

>  <s_epik_cmdline>  (1) 
J2VwaWtfcHl0aG9uJywgJy1waHQnLCAnMS4wJywgJy1waCcsICc3LjQnLCAnLXRuJywgJzgnLCAnLW1hJywgJzUwMCcsICctaW1hZScsICc8aW5maWxlLm1hZT4nLCAnLW9tYWUnLCAnPG91dGZpbGUubWFlPic=

>  <s_epik_input>  (1) 
W0NIMl0xW0NIMl1PW0NIMl1bQ0BIXTFbQ0hdPUM9W0NIXVtDQEBIXShbQ0gzXSlDKD1PKVtOSF1bQ0gyXVtDSDJdQyg9TylbQ0gyXUMyPVtDSF1bQ0gyXVtDSF09QzJbQ0gzXQ==

>  <s_glide_docking_method>  (1) 
confgen

>  <s_i_glide_gridfile>  (1) 
gpcr_5ht2c_6bqh_protein_autoprepared_prepared

>  <s_lp_Force_Field>  (1) 
S-OPLS

>  <s_lp_Variant>  (1) 
DiffSBDD_6-1

>  <s_m_source_file>  (1) 
generated_GPCR_5HT2C_ligand_DiffSBDD_2026-06-23_prepared.sdf

>  <GenAI_Model>  (1) 
DiffSBDD

>  <Protein>  (1) 
GPCR_5HT2C

$$$$
DiffSBDD_12
     RDKit          3D

  0  0  0  0  0  0  0  0  0  0999 V3000
M  V30 BEGIN CTAB
M  V30 COUNTS 78 80 0 0 1
M  V30 BEGIN ATOM
M  V30 1 C 37.934972 31.420339 58.341321 0 CFG=2
M  V30 2 C 40.826488 32.564061 65.469424 0
M  V30 3 C 38.487980 31.306723 59.799446 0 CFG=2
M  V30 4 O 38.925123 36.261715 61.315677 0
M  V30 5 N 39.186898 33.990409 61.139615 0
M  V30 6 C 37.833365 33.614584 60.869113 0
M  V30 7 C 39.634598 35.261787 61.341994 0
M  V30 8 C 41.590925 33.566250 64.599784 0 CFG=1
M  V30 9 C 36.823220 34.497555 60.672531 0
M  V30 10 F 42.630639 29.532374 66.688287 0
M  V30 11 C 39.245156 29.282784 53.964173 0
M  V30 12 C 38.703667 27.738946 55.987263 0
M  V30 13 C 39.645427 30.537286 53.425595 0
M  V30 14 F 41.291772 30.829135 67.808743 0
M  V30 15 S 42.044955 32.538020 63.165089 0
M  V30 16 C 40.402913 29.643481 49.792074 0
M  V30 17 C 39.618783 28.266548 51.758722 0
M  V30 18 C 40.445243 35.729715 65.424533 0
M  V30 19 C 38.645434 30.258767 56.184992 0
M  V30 20 C 41.129018 35.400872 61.642567 0
M  V30 21 C 42.222740 31.063752 64.205705 0
M  V30 22 N 38.283970 30.242664 57.529601 0
M  V30 23 C 38.550670 29.839821 60.281330 0
M  V30 24 C 41.413807 35.771805 63.117328 0
M  V30 25 C 38.848603 29.159272 55.415855 0
M  V30 26 O 37.645161 27.003014 55.416766 0
M  V30 27 C 41.949502 31.538230 65.643193 0 CFG=1
M  V30 28 C 37.633482 32.105894 60.824664 0
M  V30 29 C 40.014289 29.513769 51.243422 0
M  V30 30 C 43.125417 32.419480 66.116833 0
M  V30 31 C 40.041209 30.641332 52.077007 0
M  V30 32 C 38.283292 32.770832 57.670463 0
M  V30 33 C 39.245078 28.144557 53.109943 0
M  V30 34 C 40.791570 34.848493 64.200577 0 CFG=1
M  V30 35 C 41.604424 30.377718 66.593910 0
M  V30 36 C 42.825520 33.796357 65.496756 0
M  V30 37 H 36.847839 31.376763 58.422515 0
M  V30 38 H 39.957761 32.143438 64.967212 0
M  V30 39 H 40.506941 32.978008 66.425610 0
M  V30 40 H 39.512437 31.674739 59.828199 0
M  V30 41 H 39.852595 33.236033 61.217844 0
M  V30 42 H 36.963772 35.557083 60.699796 0
M  V30 43 H 35.822021 34.141294 60.475230 0
M  V30 44 H 38.531429 27.756714 57.062225 0
M  V30 45 H 39.639312 27.197318 55.841916 0
M  V30 46 H 39.666939 31.417113 54.045158 0
M  V30 47 H 41.370834 30.137617 49.686435 0
M  V30 48 H 39.649214 30.227061 49.263147 0
M  V30 49 H 40.445083 28.655308 49.339495 0
M  V30 50 H 39.603307 27.396735 51.117506 0
M  V30 51 H 41.318401 36.270010 65.790670 0
M  V30 52 H 40.045429 35.157193 66.259888 0
M  V30 53 H 39.696170 36.479705 65.165165 0
M  V30 54 H 38.748424 31.248229 55.786387 0
M  V30 55 H 41.644540 34.486888 61.367412 0
M  V30 56 H 41.534735 36.170639 60.986533 0
M  V30 57 H 41.491663 30.318746 63.889076 0
M  V30 58 H 43.215086 30.624303 64.093284 0
M  V30 59 H 37.583306 29.352030 60.167207 0
M  V30 60 H 38.839686 29.772910 61.330687 0
M  V30 61 H 39.285875 29.258197 59.725579 0
M  V30 62 H 42.479442 35.869627 63.298598 0
M  V30 63 H 41.027030 36.784526 63.247654 0
M  V30 64 H 36.851201 27.508473 55.506575 0
M  V30 65 H 36.575709 31.885304 60.674100 0
M  V30 66 H 37.857196 31.762294 61.835451 0
M  V30 67 H 43.150749 32.500634 67.204100 0
M  V30 68 H 44.091642 32.022734 65.800429 0
M  V30 69 H 40.348916 31.597291 51.679109 0
M  V30 70 H 38.008448 33.622631 58.285538 0
M  V30 71 H 37.732801 32.902838 56.737371 0
M  V30 72 H 39.349000 32.853001 57.457644 0
M  V30 73 H 38.956639 27.179283 53.486354 0
M  V30 74 H 39.864628 34.476580 63.767748 0
M  V30 75 H 40.746305 29.806566 66.234440 0
M  V30 76 H 43.662986 34.227142 64.967769 0
M  V30 77 H 42.601813 34.485527 66.310249 0
M  V30 78 H 38.151680 29.347587 57.975895 0
M  V30 END ATOM
M  V30 BEGIN BOND
M  V30 1 1 3 1
M  V30 2 1 6 5
M  V30 3 2 7 4
M  V30 4 1 7 5
M  V30 5 1 8 2
M  V30 6 2 9 6
M  V30 7 2 13 11
M  V30 8 1 8 15 CFG=3
M  V30 9 1 20 7
M  V30 10 1 21 15
M  V30 11 1 22 1
M  V30 12 1 22 19
M  V30 13 1 23 3
M  V30 14 1 24 20
M  V30 15 1 25 11
M  V30 16 1 25 12
M  V30 17 2 25 19
M  V30 18 1 26 12
M  V30 19 1 27 2
M  V30 20 1 27 21
M  V30 21 1 28 3
M  V30 22 1 28 6
M  V30 23 1 29 16
M  V30 24 1 29 17
M  V30 25 1 30 27
M  V30 26 1 31 13
M  V30 27 2 31 29
M  V30 28 1 32 1
M  V30 29 1 33 11
M  V30 30 2 33 17
M  V30 31 1 34 8
M  V30 32 1 34 18
M  V30 33 1 34 24
M  V30 34 1 35 10
M  V30 35 1 35 14
M  V30 36 1 27 35 CFG=1
M  V30 37 1 36 8
M  V30 38 1 36 30
M  V30 39 1 1 37 CFG=1
M  V30 40 1 38 2
M  V30 41 1 39 2
M  V30 42 1 3 40 CFG=3
M  V30 43 1 41 5
M  V30 44 1 42 9
M  V30 45 1 43 9
M  V30 46 1 44 12
M  V30 47 1 45 12
M  V30 48 1 46 13
M  V30 49 1 47 16
M  V30 50 1 48 16
M  V30 51 1 49 16
M  V30 52 1 50 17
M  V30 53 1 51 18
M  V30 54 1 52 18
M  V30 55 1 53 18
M  V30 56 1 54 19
M  V30 57 1 55 20
M  V30 58 1 56 20
M  V30 59 1 57 21
M  V30 60 1 58 21
M  V30 61 1 59 23
M  V30 62 1 60 23
M  V30 63 1 61 23
M  V30 64 1 62 24
M  V30 65 1 63 24
M  V30 66 1 64 26
M  V30 67 1 65 28
M  V30 68 1 66 28
M  V30 69 1 67 30
M  V30 70 1 68 30
M  V30 71 1 69 31
M  V30 72 1 70 32
M  V30 73 1 71 32
M  V30 74 1 72 32
M  V30 75 1 73 33
M  V30 76 1 34 74 CFG=3
M  V30 77 1 75 35
M  V30 78 1 76 36
M  V30 79 1 77 36
M  V30 80 1 78 22
M  V30 END BOND
M  V30 END CTAB
M  END
>  <i_epik_Tot_Q>  (1) 
0

>  <i_epik_Tot_abs_Q>  (1) 
0

>  <i_i_glide_confnum>  (1) 
33

>  <i_i_glide_lignum>  (1) 
23

>  <i_i_glide_posenum>  (1) 
236

>  <i_i_glide_rotatable_bonds>  (1) 
15

>  <i_lp_mmshare_version>  (1) 
72125

>  <i_m_source_file_index>  (1) 
13

>  <i_f3d_flags>  (1) 
0

>  <num_sample>  (1) 
50

>  <b_lp_Chiralities_Consistent>  (1) 
1

>  <r_epik_Charging_Adjusted_Penalty>  (1) 
0

>  <r_epik_Ionization_Penalty>  (1) 
3.3667035854956668e-06

>  <r_epik_Ionization_Penalty_Charging>  (1) 
0

>  <r_epik_Ionization_Penalty_Neutral>  (1) 
3.3667035854956668e-06

>  <r_epik_State_Penalty>  (1) 
-0

>  <r_glide_ring_energy>  (1) 
0

>  <r_i_docking_score>  (1) 
-6.262385194876571

>  <r_i_glide_ecoul>  (1) 
-0.90125423198332111

>  <r_i_glide_eff_state_penalty>  (1) 
-0

>  <r_i_glide_einternal>  (1) 
9.2087870608917246

>  <r_i_glide_emodel>  (1) 
-60.003225142510146

>  <r_i_glide_emodel_strain>  (1) 
0.034475945004516007

>  <r_i_glide_energy>  (1) 
-45.513934728600908

>  <r_i_glide_erotb>  (1) 
0.98535433330626676

>  <r_i_glide_esite>  (1) 
-0.053424673615865774

>  <r_i_glide_evdw>  (1) 
-44.612680496617585

>  <r_i_glide_gscore>  (1) 
-6.262385194876571

>  <r_i_glide_gscore_strain>  (1) 
0

>  <r_i_glide_hbond>  (1) 
0

>  <r_i_glide_ligand_efficiency>  (1) 
-0.17395514430212697

>  <r_i_glide_ligand_efficiency_ln>  (1) 
-1.3662832594264271

>  <r_i_glide_ligand_efficiency_sa>  (1) 
-0.57438723105659006

>  <r_i_glide_lipo>  (1) 
-3.9115768681264633

>  <r_i_glide_metal>  (1) 
-0

>  <r_i_glide_rewards>  (1) 
-0.91691582681213246

>  <r_lp_Energy>  (1) 
46.558340999999999

>  <r_lp_tautomer_probability>  (1) 
1

>  <s_epik_cmdline>  (1) 
J2VwaWtfcHl0aG9uJywgJy1waHQnLCAnMS4wJywgJy1waCcsICc3LjQnLCAnLXRuJywgJzgnLCAnLW1hJywgJzUwMCcsICctaW1hZScsICc8aW5maWxlLm1hZT4nLCAnLW9tYWUnLCAnPG91dGZpbGUubWFlPic=

>  <s_epik_input>  (1) 
W2NIXTFbY0hdYyhbQ0gzXSlbY0hdW2NIXWMxW0NAQEhdKFtDSDJdW09IXSkvW0NIXT1OL1tDQEhdKFtDSDNdKVtDQEhdKFtDSDNdKVtDSDJdQyg9W0NIMl0pW05IXUMoPU8pW0NIMl1bQ0gyXVtDQEhdKFtDSDNdKVtDQEBdMjNbQ0gyXVtDQF0oW0NIMl1TMikoW0NIXShGKUYpW0NIMl1bQ0gyXTM=

>  <s_glide_docking_method>  (1) 
confgen

>  <s_i_glide_gridfile>  (1) 
gpcr_5ht2c_6bqh_protein_autoprepared_prepared

>  <s_lp_Force_Field>  (1) 
S-OPLS

>  <s_lp_Variant>  (1) 
DiffSBDD_12-1

>  <s_m_source_file>  (1) 
generated_GPCR_5HT2C_ligand_DiffSBDD_2026-06-23_prepared.sdf

>  <GenAI_Model>  (1) 
DiffSBDD

>  <Protein>  (1) 
GPCR_5HT2C

$$$$
DiffSBDD_1
     RDKit          3D

  0  0  0  0  0  0  0  0  0  0999 V3000
M  V30 BEGIN CTAB
M  V30 COUNTS 78 81 0 0 1
M  V30 BEGIN ATOM
M  V30 1 C 38.935150 30.569279 59.860022 0
M  V30 2 N 38.689177 27.947214 56.494541 0
M  V30 3 C 39.110176 29.410525 53.081281 0 CFG=1
M  V30 4 C 39.071821 27.914482 52.745416 0
M  V30 5 C 44.465176 29.157239 66.541146 0
M  V30 6 C 39.187749 30.840167 62.979031 0
M  V30 7 C 39.463874 29.506869 54.568366 0
M  V30 8 C 39.353482 28.080252 55.167826 0 CFG=2
M  V30 9 C 41.630658 29.989381 67.446563 0
M  V30 10 N 40.197851 30.957674 61.948158 0
M  V30 11 O 41.525008 35.737758 64.886067 0
M  V30 12 C 40.595016 30.346150 63.208346 0 CFG=1
M  V30 13 C 42.014406 31.150918 66.606842 0 CFG=2
M  V30 14 O 40.925844 31.697821 65.740355 0
M  V30 15 C 39.984778 36.294369 63.141936 0
M  V30 16 C 40.023450 30.125605 50.935973 0
M  V30 17 C 42.713940 30.592109 65.457449 0
M  V30 18 C 37.652364 28.943053 56.842079 0
M  V30 19 C 40.956464 33.945252 63.402885 0
M  V30 20 O 44.199973 29.429474 64.167358 0
M  V30 21 O 38.445137 26.797049 58.448630 0
M  V30 22 C 42.209529 33.087343 63.654615 0
M  V30 23 O 40.096673 30.137186 52.354291 0
M  V30 24 O 42.564734 29.745716 69.604599 0
M  V30 25 P 41.743761 31.363528 64.235027 0 CFG=1 CHG=1
M  V30 26 C 41.205971 35.455781 63.540248 0 CFG=2
M  V30 27 C 43.753973 29.748982 65.389144 0
M  V30 28 C 37.245131 26.910487 54.183815 0
M  V30 29 O 38.818201 29.615440 58.834248 0
M  V30 30 C 38.989346 26.927261 57.354097 0
M  V30 31 C 40.046729 25.913061 56.914939 0
M  V30 32 C 44.070935 29.128711 67.858122 0
M  V30 33 C 42.763212 29.636316 68.396791 0
M  V30 34 C 38.159409 30.116115 57.691527 0
M  V30 35 C 38.750670 27.185369 54.052556 0 CFG=1
M  V30 36 C 39.944714 30.017909 60.868280 0
M  V30 37 H 37.960337 30.714623 60.327222 0
M  V30 38 H 39.245147 31.538082 59.467500 0
M  V30 39 H 38.114053 29.833322 52.967514 0
M  V30 40 H 38.363158 27.687443 51.947201 0
M  V30 41 H 40.046210 27.584942 52.394405 0
M  V30 42 H 45.424832 28.706389 66.327335 0
M  V30 43 H 38.396449 30.139143 62.721141 0
M  V30 44 H 38.896093 31.836492 63.294269 0
M  V30 45 H 38.826470 30.266664 55.008414 0
M  V30 46 H 40.477682 29.881483 54.707061 0
M  V30 47 H 40.396179 27.788955 55.281718 0
M  V30 48 H 40.757840 30.240000 68.050262 0
M  V30 49 H 41.349207 29.115061 66.857650 0
M  V30 50 H 41.678527 36.677509 64.967603 0
M  V30 51 H 40.786927 29.280114 63.096492 0
M  V30 52 H 42.519793 31.954335 67.147261 0
M  V30 53 H 39.696193 36.098698 62.108647 0
M  V30 54 H 39.122508 36.081469 63.773896 0
M  V30 55 H 40.198165 37.360175 63.226344 0
M  V30 56 H 40.964217 30.506721 50.538382 0
M  V30 57 H 39.875683 29.129191 50.519699 0
M  V30 58 H 39.244994 30.785834 50.567769 0
M  V30 59 H 36.856789 28.455016 57.404751 0
M  V30 60 H 37.158858 29.337783 55.954419 0
M  V30 61 H 40.570851 33.727537 62.406450 0
M  V30 62 H 40.169896 33.655533 64.097885 0
M  V30 63 H 44.915075 28.817458 64.267846 0
M  V30 64 H 42.824622 33.545735 64.429268 0
M  V30 65 H 42.828690 33.039389 62.758000 0
M  V30 66 H 42.045036 35.750178 62.910756 0
M  V30 67 H 36.669189 27.834044 54.165928 0
M  V30 68 H 36.887342 26.284881 53.367230 0
M  V30 69 H 37.010738 26.381270 55.107477 0
M  V30 70 H 41.021150 26.387511 56.804820 0
M  V30 71 H 40.150302 25.142385 57.679219 0
M  V30 72 H 39.772978 25.403388 55.994003 0
M  V30 73 H 44.740527 28.685183 68.580152 0
M  V30 74 H 37.302553 30.728581 57.979397 0
M  V30 75 H 38.844330 30.761185 57.142194 0
M  V30 76 H 39.251609 26.218007 54.033211 0
M  V30 77 H 40.879917 29.813779 60.347954 0
M  V30 78 H 39.594116 29.052887 61.241121 0
M  V30 END ATOM
M  V30 BEGIN BOND
M  V30 1 1 4 3
M  V30 2 1 7 3
M  V30 3 1 8 2
M  V30 4 1 8 7
M  V30 5 1 10 6
M  V30 6 1 12 6
M  V30 7 1 12 10
M  V30 8 1 13 9
M  V30 9 1 14 13
M  V30 10 1 17 13
M  V30 11 1 18 2
M  V30 12 1 22 19
M  V30 13 1 23 3
M  V30 14 1 23 16
M  V30 15 1 25 12
M  V30 16 1 25 14
M  V30 17 1 25 17
M  V30 18 1 25 22 CFG=3
M  V30 19 1 26 11
M  V30 20 1 26 15
M  V30 21 1 26 19
M  V30 22 1 27 5
M  V30 23 2 27 17
M  V30 24 1 27 20
M  V30 25 1 29 1
M  V30 26 1 30 2
M  V30 27 2 30 21
M  V30 28 1 31 30
M  V30 29 2 32 5
M  V30 30 1 33 9
M  V30 31 2 33 24
M  V30 32 1 33 32
M  V30 33 1 34 18
M  V30 34 1 34 29
M  V30 35 1 35 4
M  V30 36 1 35 8
M  V30 37 1 35 28
M  V30 38 1 36 1
M  V30 39 1 36 10
M  V30 40 1 37 1
M  V30 41 1 38 1
M  V30 42 1 3 39 CFG=1
M  V30 43 1 40 4
M  V30 44 1 41 4
M  V30 45 1 42 5
M  V30 46 1 43 6
M  V30 47 1 44 6
M  V30 48 1 45 7
M  V30 49 1 46 7
M  V30 50 1 8 47 CFG=1
M  V30 51 1 48 9
M  V30 52 1 49 9
M  V30 53 1 50 11
M  V30 54 1 12 51 CFG=3
M  V30 55 1 13 52 CFG=1
M  V30 56 1 53 15
M  V30 57 1 54 15
M  V30 58 1 55 15
M  V30 59 1 56 16
M  V30 60 1 57 16
M  V30 61 1 58 16
M  V30 62 1 59 18
M  V30 63 1 60 18
M  V30 64 1 61 19
M  V30 65 1 62 19
M  V30 66 1 63 20
M  V30 67 1 64 22
M  V30 68 1 65 22
M  V30 69 1 26 66 CFG=3
M  V30 70 1 67 28
M  V30 71 1 68 28
M  V30 72 1 69 28
M  V30 73 1 70 31
M  V30 74 1 71 31
M  V30 75 1 72 31
M  V30 76 1 73 32
M  V30 77 1 74 34
M  V30 78 1 75 34
M  V30 79 1 35 76 CFG=3
M  V30 80 1 77 36
M  V30 81 1 78 36
M  V30 END BOND
M  V30 END CTAB
M  END
>  <i_epik_Tot_Q>  (1) 
1

>  <i_epik_Tot_abs_Q>  (1) 
1

>  <i_i_glide_confnum>  (1) 
4531

>  <i_i_glide_lignum>  (1) 
7

>  <i_i_glide_posenum>  (1) 
303

>  <i_i_glide_rotatable_bonds>  (1) 
15

>  <i_lp_mmshare_version>  (1) 
72125

>  <i_m_source_file_index>  (1) 
2

>  <i_f3d_flags>  (1) 
0

>  <num_sample>  (1) 
50

>  <b_lp_Chiralities_Consistent>  (1) 
1

>  <r_epik_Charging_Adjusted_Penalty>  (1) 
0.012777702237649643

>  <r_epik_Ionization_Penalty>  (1) 
0.012893064322698497

>  <r_epik_Ionization_Penalty_Charging>  (1) 
0

>  <r_epik_Ionization_Penalty_Neutral>  (1) 
0.012893064322698497

>  <r_epik_State_Penalty>  (1) 
0.012777702237649643

>  <r_glide_ring_energy>  (1) 
1.6816026439138838

>  <r_i_docking_score>  (1) 
-6.2605172835344707

>  <r_i_glide_ecoul>  (1) 
-7.3542557291999247

>  <r_i_glide_eff_state_penalty>  (1) 
0.012777702237649643

>  <r_i_glide_einternal>  (1) 
10.187076426603234

>  <r_i_glide_emodel>  (1) 
-61.243362399371208

>  <r_i_glide_emodel_strain>  (1) 
1.4766650887252553

>  <r_i_glide_energy>  (1) 
-51.678195775017819

>  <r_i_glide_erotb>  (1) 
0.81958699115176215

>  <r_i_glide_esite>  (1) 
0

>  <r_i_glide_evdw>  (1) 
-44.323940045817892

>  <r_i_glide_gscore>  (1) 
-6.2732949857721207

>  <r_i_glide_gscore_strain>  (1) 
0

>  <r_i_glide_hbond>  (1) 
-0.32000000000000001

>  <r_i_glide_ligand_efficiency>  (1) 
-0.17390325787595751

>  <r_i_glide_ligand_efficiency_ln>  (1) 
-1.3658757316367134

>  <r_i_glide_ligand_efficiency_sa>  (1) 
-0.5742159058521733

>  <r_i_glide_lipo>  (1) 
-2.8040364032893788

>  <r_i_glide_metal>  (1) 
-0

>  <r_i_glide_rewards>  (1) 
-0.64951021196361958

>  <r_lp_Energy>  (1) 
33.116859999999996

>  <s_epik_cmdline>  (1) 
J2VwaWtfcHl0aG9uJywgJy1waHQnLCAnMS4wJywgJy1waCcsICc3LjQnLCAnLXRuJywgJzgnLCAnLW1hJywgJzUwMCcsICctaW1hZScsICc8aW5maWxlLm1hZT4nLCAnLW9tYWUnLCAnPG91dGZpbGUubWFlPic=

>  <s_epik_input>  (1) 
W0NIM11PW0NASF0xW0NIMl1bQ0BIXShbQ0gzXSlbQ0BASF0oW0NIMl0xKU4oQyg9TylbQ0gzXSlbQ0gyXVtDSDJdT1tDSDJdW0NIMl1OMltDSDJdW0NIXTJbUEBAK10oTzMpKFtDSDJdW0NIMl1bQ0BIXShbT0hdKVtDSDNdKUMoW0NAQEhdMzQpPUMoW09IXSlbQ0hdPVtDSF1DKD1PKVtDSDJdNA==

>  <s_glide_docking_method>  (1) 
confgen

>  <s_i_glide_gridfile>  (1) 
gpcr_5ht2c_6bqh_protein_autoprepared_prepared

>  <s_lp_Force_Field>  (1) 
S-OPLS

>  <s_lp_Variant>  (1) 
DiffSBDD_1-3

>  <s_m_source_file>  (1) 
generated_GPCR_5HT2C_ligand_DiffSBDD_2026-06-23_prepared.sdf

>  <GenAI_Model>  (1) 
DiffSBDD

>  <Protein>  (1) 
GPCR_5HT2C

$$$$
DiffSBDD_36
     RDKit          3D

  0  0  0  0  0  0  0  0  0  0999 V3000
M  V30 BEGIN CTAB
M  V30 COUNTS 79 82 0 0 1
M  V30 BEGIN ATOM
M  V30 1 O 40.771610 26.137745 54.621404 0
M  V30 2 C 38.847266 29.378453 57.249065 0 CFG=1
M  V30 3 C 39.217070 31.065997 60.079937 0
M  V30 4 C 39.310317 29.302480 52.065579 0
M  V30 5 O 37.181015 28.937759 53.194209 0
M  V30 6 C 38.325262 28.978644 55.894354 0 CFG=1
M  V30 7 C 39.355482 31.180784 61.612351 0
M  V30 8 C 37.977238 30.334007 59.556050 0
M  V30 9 C 37.645112 27.224364 57.889970 0
M  V30 10 C 42.292336 27.537749 65.125646 0
M  V30 11 C 39.122946 24.628760 55.374994 0
M  V30 12 O 36.776745 24.126908 56.059221 0
M  V30 13 C 40.224529 30.841034 50.409454 0
M  V30 14 C 37.883867 30.299558 58.010250 0 CFG=1
M  V30 15 C 37.380960 25.715625 57.724873 0
M  V30 16 C 40.045031 28.024003 51.766524 0
M  V30 17 C 39.560619 26.114837 55.316081 0 CFG=1
M  V30 18 C 39.206635 29.338331 54.691447 0
M  V30 19 C 40.227242 30.110511 62.283499 0
M  V30 20 C 38.472222 29.503585 53.337285 0 CFG=1
M  V30 21 C 36.435104 25.374689 56.596494 0
M  V30 22 N 40.273680 30.149465 63.632658 0
M  V30 23 C 38.641471 27.890885 56.940990 0 CFG=2
M  V30 24 O 40.113526 30.447104 51.771315 0
M  V30 25 C 40.984278 29.260907 65.808163 0
M  V30 26 C 40.999927 29.228445 64.453586 0
M  V30 27 O 38.045092 31.597766 57.479877 0
M  V30 28 C 36.968752 27.566770 53.365901 0
M  V30 29 C 42.039969 27.868830 67.625157 0
M  V30 30 C 37.678157 24.240645 54.982196 0
M  V30 31 N 41.781923 28.211961 66.243510 0
M  V30 32 O 40.836821 29.287954 61.600610 0
M  V30 33 C 41.814917 28.157980 64.000497 0
M  V30 34 C 39.804492 26.947802 56.615704 0
M  V30 35 C 38.888132 28.411457 50.887214 0
M  V30 36 H 41.427589 25.737699 55.177418 0
M  V30 37 H 39.888673 29.692364 57.313248 0
M  V30 38 H 40.058066 30.533663 59.668654 0
M  V30 39 H 39.245255 32.073601 59.665491 0
M  V30 40 H 37.273417 29.200850 55.727754 0
M  V30 41 H 39.821076 32.140201 61.839315 0
M  V30 42 H 38.373093 31.207675 62.084959 0
M  V30 43 H 37.089567 30.837749 59.941252 0
M  V30 44 H 37.950671 29.323528 59.959566 0
M  V30 45 H 36.699016 27.761098 57.850777 0
M  V30 46 H 38.045725 27.362683 58.891545 0
M  V30 47 H 42.941210 26.682774 65.244687 0
M  V30 48 H 39.645391 24.137756 54.567741 0
M  V30 49 H 39.473287 24.137780 56.279558 0
M  V30 50 H 40.821169 31.737741 50.339313 0
M  V30 51 H 40.745740 30.096790 49.808919 0
M  V30 52 H 39.249218 31.053677 49.967920 0
M  V30 53 H 36.862961 30.005679 57.769270 0
M  V30 54 H 36.887498 25.280023 58.567746 0
M  V30 55 H 38.298138 25.142097 57.723251 0
M  V30 56 H 41.049163 28.137788 51.367663 0
M  V30 57 H 39.898310 27.167212 52.414058 0
M  V30 58 H 38.894382 26.637757 54.659838 0
M  V30 59 H 39.722106 30.273418 54.916015 0
M  V30 60 H 40.007921 28.621376 54.593179 0
M  V30 61 H 38.218851 30.563221 53.367749 0
M  V30 62 H 36.418518 26.137682 55.843739 0
M  V30 63 H 35.419465 25.337755 56.980588 0
M  V30 64 H 39.738179 30.859899 64.107793 0
M  V30 65 H 40.484756 29.915641 66.507840 0
M  V30 66 H 37.165152 31.899664 57.246833 0
M  V30 67 H 35.992249 27.337853 52.967764 0
M  V30 68 H 37.692347 26.915955 52.884166 0
M  V30 69 H 36.930542 27.367651 54.416277 0
M  V30 70 H 41.873078 28.737388 68.263180 0
M  V30 71 H 41.364295 27.071014 67.932283 0
M  V30 72 H 43.072012 27.535582 67.741398 0
M  V30 73 H 37.285704 24.875516 54.187299 0
M  V30 74 H 37.681303 23.234524 54.567845 0
M  V30 75 H 42.031371 27.863188 62.985327 0
M  V30 76 H 40.073803 26.326808 57.468829 0
M  V30 77 H 40.684004 27.583924 56.487134 0
M  V30 78 H 37.982054 27.824407 50.968485 0
M  V30 79 H 39.139218 28.640981 49.857192 0
M  V30 END ATOM
M  V30 BEGIN BOND
M  V30 1 1 6 2
M  V30 2 1 7 3
M  V30 3 1 8 3
M  V30 4 1 14 2
M  V30 5 1 14 8
M  V30 6 1 15 9
M  V30 7 1 16 4
M  V30 8 1 17 1
M  V30 9 1 17 11
M  V30 10 1 18 6
M  V30 11 1 19 7
M  V30 12 1 20 4
M  V30 13 1 20 5
M  V30 14 1 20 18
M  V30 15 1 21 12
M  V30 16 1 21 15
M  V30 17 1 22 19
M  V30 18 1 23 2
M  V30 19 1 23 6
M  V30 20 1 23 9 CFG=1
M  V30 21 1 24 4
M  V30 22 1 24 13
M  V30 23 1 26 22
M  V30 24 2 26 25
M  V30 25 1 27 14
M  V30 26 1 28 5
M  V30 27 1 30 11
M  V30 28 1 30 12
M  V30 29 1 31 10
M  V30 30 1 31 25
M  V30 31 1 31 29
M  V30 32 2 32 19
M  V30 33 2 33 10
M  V30 34 1 33 26
M  V30 35 1 34 17
M  V30 36 1 34 23
M  V30 37 1 35 4
M  V30 38 1 35 16
M  V30 39 1 36 1
M  V30 40 1 2 37 CFG=3
M  V30 41 1 38 3
M  V30 42 1 39 3
M  V30 43 1 6 40 CFG=3
M  V30 44 1 41 7
M  V30 45 1 42 7
M  V30 46 1 43 8
M  V30 47 1 44 8
M  V30 48 1 45 9
M  V30 49 1 46 9
M  V30 50 1 47 10
M  V30 51 1 48 11
M  V30 52 1 49 11
M  V30 53 1 50 13
M  V30 54 1 51 13
M  V30 55 1 52 13
M  V30 56 1 14 53 CFG=1
M  V30 57 1 54 15
M  V30 58 1 55 15
M  V30 59 1 56 16
M  V30 60 1 57 16
M  V30 61 1 17 58 CFG=3
M  V30 62 1 59 18
M  V30 63 1 60 18
M  V30 64 1 20 61 CFG=3
M  V30 65 1 62 21
M  V30 66 1 63 21
M  V30 67 1 64 22
M  V30 68 1 65 25
M  V30 69 1 66 27
M  V30 70 1 67 28
M  V30 71 1 68 28
M  V30 72 1 69 28
M  V30 73 1 70 29
M  V30 74 1 71 29
M  V30 75 1 72 29
M  V30 76 1 73 30
M  V30 77 1 74 30
M  V30 78 1 75 33
M  V30 79 1 76 34
M  V30 80 1 77 34
M  V30 81 1 78 35
M  V30 82 1 79 35
M  V30 END BOND
M  V30 END CTAB
M  END
>  <i_epik_Tot_Q>  (1) 
0

>  <i_epik_Tot_abs_Q>  (1) 
0

>  <i_i_glide_confnum>  (1) 
6056

>  <i_i_glide_lignum>  (1) 
77

>  <i_i_glide_posenum>  (1) 
139

>  <i_i_glide_rotatable_bonds>  (1) 
14

>  <i_lp_mmshare_version>  (1) 
72125

>  <i_m_source_file_index>  (1) 
37

>  <i_f3d_flags>  (1) 
0

>  <num_sample>  (1) 
50

>  <b_lp_Chiralities_Consistent>  (1) 
1

>  <r_epik_Charging_Adjusted_Penalty>  (1) 
0

>  <r_epik_Ionization_Penalty>  (1) 
4.0629952699979679e-06

>  <r_epik_Ionization_Penalty_Charging>  (1) 
0

>  <r_epik_Ionization_Penalty_Neutral>  (1) 
4.0629952699979679e-06

>  <r_epik_State_Penalty>  (1) 
-0

>  <r_glide_ring_energy>  (1) 
0.99381632011659193

>  <r_i_docking_score>  (1) 
-6.2599075626631837

>  <r_i_glide_ecoul>  (1) 
-6.9497202252247163

>  <r_i_glide_eff_state_penalty>  (1) 
-0

>  <r_i_glide_einternal>  (1) 
16.948657660620441

>  <r_i_glide_emodel>  (1) 
-31.057169628145196

>  <r_i_glide_emodel_strain>  (1) 
7.6354362149037058

>  <r_i_glide_energy>  (1) 
-38.127812189920867

>  <r_i_glide_erotb>  (1) 
0.8390941538197072

>  <r_i_glide_esite>  (1) 
-0.062406033656970998

>  <r_i_glide_evdw>  (1) 
-31.178091964696151

>  <r_i_glide_gscore>  (1) 
-6.2599075626631837

>  <r_i_glide_gscore_strain>  (1) 
0.90885905372592646

>  <r_i_glide_hbond>  (1) 
-0.52966821480978643

>  <r_i_glide_ligand_efficiency>  (1) 
-0.17885450179037668

>  <r_i_glide_ligand_efficiency_ln>  (1) 
-1.3741886411675093

>  <r_i_glide_ligand_efficiency_sa>  (1) 
-0.58504493523206602

>  <r_i_glide_lipo>  (1) 
-4.2917015088355202

>  <r_i_glide_metal>  (1) 
-0

>  <r_i_glide_rewards>  (1) 
-0.52272238088802603

>  <r_lp_Energy>  (1) 
31.017113999999999

>  <r_lp_tautomer_probability>  (1) 
1

>  <s_epik_cmdline>  (1) 
J2VwaWtfcHl0aG9uJywgJy1waHQnLCAnMS4wJywgJy1waCcsICc3LjQnLCAnLXRuJywgJzgnLCAnLW1hJywgJzUwMCcsICctaW1hZScsICc8aW5maWxlLm1hZT4nLCAnLW9tYWUnLCAnPG91dGZpbGUubWFlPic=

>  <s_epik_input>  (1) 
W09IXVtDQEhdKFtDSDJdMSlbQ0gyXVtDSDJdT1tDSDJdW0NIMl1bQ0gyXVtDQF0xMltDQEBIXShbQ0hdMltDSDJdW0NASF0oT1tDSDNdKUMzKFtDSDJdW0NIMl0zKU9bQ0gzXSlbQ0BIXShbT0hdKVtDSDJdW0NIMl1bQ0gyXUMoPU8pW05IXWM0W2NIXW4oW0NIM10pW2NIXVtjSF00

>  <s_glide_docking_method>  (1) 
confgen

>  <s_i_glide_gridfile>  (1) 
gpcr_5ht2c_6bqh_protein_autoprepared_prepared

>  <s_lp_Force_Field>  (1) 
S-OPLS

>  <s_lp_Variant>  (1) 
DiffSBDD_36-1

>  <s_m_source_file>  (1) 
generated_GPCR_5HT2C_ligand_DiffSBDD_2026-06-23_prepared.sdf

>  <GenAI_Model>  (1) 
DiffSBDD

>  <Protein>  (1) 
GPCR_5HT2C

$$$$
DiffSBDD_0
     RDKit          3D

  0  0  0  0  0  0  0  0  0  0999 V3000
M  V30 BEGIN CTAB
M  V30 COUNTS 73 75 0 0 1
M  V30 BEGIN ATOM
M  V30 1 C 38.523347 28.285054 52.156574 0
M  V30 2 C 39.767321 26.053924 55.183087 0
M  V30 3 O 42.220975 32.072582 65.038612 0
M  V30 4 C 38.765276 28.729692 54.614367 0
M  V30 5 C 37.368660 32.631302 59.708664 0 CFG=2
M  V30 6 C 36.198894 29.844222 59.477143 0
M  V30 7 C 40.596070 33.300386 63.821947 0
M  V30 8 C 40.835714 34.320198 62.683088 0 CFG=1
M  V30 9 C 38.881430 35.926391 62.350871 0
M  V30 10 C 40.531242 33.812783 61.264779 0
M  V30 11 N 39.208734 33.216597 61.163650 0
M  V30 12 O 36.353652 33.284117 58.967764 0
M  V30 13 C 39.240837 26.419101 53.774248 0
M  V30 14 C 40.990155 36.810989 62.650646 0
M  V30 15 C 38.888109 29.219855 57.149980 0 CFG=1
M  V30 16 C 38.427500 33.676382 60.024775 0
M  V30 17 C 39.509430 27.118617 56.237304 0
M  V30 18 C 39.411665 28.204736 58.268267 0
M  V30 19 C 38.013624 31.486404 58.889462 0 CFG=1
M  V30 20 C 41.715499 32.261952 63.912282 0
M  V30 21 N 40.183958 35.625157 62.973528 0 CHG=1
M  V30 22 C 39.985735 37.979393 62.599781 0
M  V30 23 F 39.559532 28.079785 51.343479 0
M  V30 24 C 39.066544 28.321075 55.973238 0
M  V30 25 C 38.844954 27.873131 53.580310 0
M  V30 26 O 38.806552 30.828099 59.708106 0 CHG=-1
M  V30 27 N 37.000125 30.507515 58.424988 0 CFG=1 CHG=1
M  V30 28 C 39.792352 26.793052 57.655326 0 CFG=1
M  V30 29 C 37.398357 29.607174 57.303234 0
M  V30 30 C 35.264596 33.748234 59.750388 0
M  V30 31 O 42.045103 31.683877 62.854307 0 CHG=-1
M  V30 32 O 38.939410 25.767745 58.122347 0
M  V30 33 C 38.606926 37.337750 62.777241 0
M  V30 34 H 37.682923 27.708613 51.769237 0
M  V30 35 H 38.268615 29.337683 52.094620 0
M  V30 36 H 40.845004 25.898627 55.139549 0
M  V30 37 H 39.333466 25.105918 55.502982 0
M  V30 38 H 38.463467 29.750803 54.429197 0
M  V30 39 H 36.946649 32.248305 60.641753 0
M  V30 40 H 36.848732 29.318965 60.167740 0
M  V30 41 H 35.644187 30.575958 60.057569 0
M  V30 42 H 35.474361 29.147627 59.053123 0
M  V30 43 H 40.559982 33.817596 64.780441 0
M  V30 44 H 39.645019 32.783419 63.715209 0
M  V30 45 H 41.906317 34.526790 62.706481 0
M  V30 46 H 39.003078 35.976543 61.271130 0
M  V30 47 H 38.070748 35.243284 62.567746 0
M  V30 48 H 41.265977 33.066341 60.967857 0
M  V30 49 H 40.645850 34.641958 60.567730 0
M  V30 50 H 39.317150 32.204242 60.995410 0
M  V30 51 H 38.335415 25.840560 53.587716 0
M  V30 52 H 39.977358 26.138070 53.020212 0
M  V30 53 H 41.795671 36.937700 63.367747 0
M  V30 54 H 41.448313 36.684910 61.668437 0
M  V30 55 H 39.542459 30.086721 57.052049 0
M  V30 56 H 39.056420 33.834535 59.149012 0
M  V30 57 H 37.928305 34.616459 60.233639 0
M  V30 58 H 38.684043 28.096181 59.073214 0
M  V30 59 H 40.297418 28.633621 58.738529 0
M  V30 60 H 38.385043 31.955823 57.977011 0
M  V30 61 H 40.166020 38.724556 63.367760 0
M  V30 62 H 40.045087 38.487139 61.636366 0
M  V30 63 H 40.843092 26.543319 57.809935 0
M  V30 64 H 37.062434 30.106079 56.393323 0
M  V30 65 H 36.845144 28.676298 57.367775 0
M  V30 66 H 34.557687 34.280470 59.114629 0
M  V30 67 H 34.734098 32.916291 60.214693 0
M  V30 68 H 35.596916 34.430067 60.533354 0
M  V30 69 H 38.051380 26.000578 57.901558 0
M  V30 70 H 38.296744 37.350115 63.823602 0
M  V30 71 H 37.832200 37.809318 62.170900 0
M  V30 72 H 40.043047 35.650517 63.973029 0
M  V30 73 H 36.312294 31.106814 57.950175 0
M  V30 END ATOM
M  V30 BEGIN BOND
M  V30 1 1 8 7
M  V30 2 1 10 8
M  V30 3 1 11 10
M  V30 4 1 12 5
M  V30 5 1 13 2
M  V30 6 1 16 5
M  V30 7 1 16 11
M  V30 8 1 17 2
M  V30 9 1 18 15
M  V30 10 1 19 5
M  V30 11 2 20 3
M  V30 12 1 20 7
M  V30 13 1 21 8
M  V30 14 1 21 9
M  V30 15 1 21 14
M  V30 16 1 22 14
M  V30 17 1 23 1
M  V30 18 1 24 4
M  V30 19 1 24 15
M  V30 20 2 24 17
M  V30 21 1 25 1
M  V30 22 2 25 4
M  V30 23 1 25 13
M  V30 24 1 26 19
M  V30 25 1 27 6
M  V30 26 1 27 19
M  V30 27 1 28 17
M  V30 28 1 28 18
M  V30 29 1 29 15
M  V30 30 1 29 27
M  V30 31 1 30 12
M  V30 32 1 31 20
M  V30 33 1 32 28
M  V30 34 1 33 9
M  V30 35 1 33 22
M  V30 36 1 34 1
M  V30 37 1 35 1
M  V30 38 1 36 2
M  V30 39 1 37 2
M  V30 40 1 38 4
M  V30 41 1 5 39 CFG=1
M  V30 42 1 40 6
M  V30 43 1 41 6
M  V30 44 1 42 6
M  V30 45 1 43 7
M  V30 46 1 44 7
M  V30 47 1 8 45 CFG=3
M  V30 48 1 46 9
M  V30 49 1 47 9
M  V30 50 1 48 10
M  V30 51 1 49 10
M  V30 52 1 50 11
M  V30 53 1 51 13
M  V30 54 1 52 13
M  V30 55 1 53 14
M  V30 56 1 54 14
M  V30 57 1 15 55 CFG=3
M  V30 58 1 56 16
M  V30 59 1 57 16
M  V30 60 1 58 18
M  V30 61 1 59 18
M  V30 62 1 19 60 CFG=3
M  V30 63 1 61 22
M  V30 64 1 62 22
M  V30 65 1 28 63 CFG=3
M  V30 66 1 64 29
M  V30 67 1 65 29
M  V30 68 1 66 30
M  V30 69 1 67 30
M  V30 70 1 68 30
M  V30 71 1 69 32
M  V30 72 1 70 33
M  V30 73 1 71 33
M  V30 74 1 72 21
M  V30 75 1 27 73 CFG=3
M  V30 END BOND
M  V30 END CTAB
M  END
>  <i_epik_Tot_Q>  (1) 
0

>  <i_epik_Tot_abs_Q>  (1) 
4

>  <i_i_glide_confnum>  (1) 
1405

>  <i_i_glide_lignum>  (1) 
2

>  <i_i_glide_posenum>  (1) 
81

>  <i_i_glide_rotatable_bonds>  (1) 
14

>  <i_lp_mmshare_version>  (1) 
72125

>  <i_m_source_file_index>  (1) 
1

>  <i_f3d_flags>  (1) 
0

>  <num_sample>  (1) 
50

>  <b_lp_Chiralities_Consistent>  (1) 
1

>  <r_epik_Charging_Adjusted_Penalty>  (1) 
0.35910314693592993

>  <r_epik_Ionization_Penalty>  (1) 
0.058337682991089858

>  <r_epik_Ionization_Penalty_Charging>  (1) 
0.0030320954189955646

>  <r_epik_Ionization_Penalty_Neutral>  (1) 
0.055305587572094292

>  <r_epik_State_Penalty>  (1) 
0.35607105151693436

>  <r_glide_ring_energy>  (1) 
0

>  <r_i_docking_score>  (1) 
-6.2570288368163265

>  <r_i_glide_ecoul>  (1) 
-5.9945813920024547

>  <r_i_glide_eff_state_penalty>  (1) 
0.35607105151693436

>  <r_i_glide_einternal>  (1) 
23.053083726161972

>  <r_i_glide_emodel>  (1) 
-47.005281920157643

>  <r_i_glide_emodel_strain>  (1) 
4.7969787654777178

>  <r_i_glide_energy>  (1) 
-40.852493061852421

>  <r_i_glide_erotb>  (1) 
0.82434179411086872

>  <r_i_glide_esite>  (1) 
-0.15967198001506017

>  <r_i_glide_evdw>  (1) 
-34.857911669849969

>  <r_i_glide_gscore>  (1) 
-6.6130998883332612

>  <r_i_glide_gscore_strain>  (1) 
0.19924469136942946

>  <r_i_glide_hbond>  (1) 
-0.20000000000000001

>  <r_i_glide_ligand_efficiency>  (1) 
-0.18960693444897958

>  <r_i_glide_ligand_efficiency_ln>  (1) 
-1.3915308161464928

>  <r_i_glide_ligand_efficiency_sa>  (1) 
-0.60817075145037036

>  <r_i_glide_lipo>  (1) 
-3.2658857782693818

>  <r_i_glide_metal>  (1) 
-0

>  <r_i_glide_rewards>  (1) 
-1.369045823236251

>  <r_lp_Energy>  (1) 
38.728972999999996

>  <s_epik_Chemistry_Notes>  (1) 
This compound contains an acetal/aminal-like group ( X-CH(R)-Y where X, Y are N, S, or O) that may be acid/base labile, releasing an aldehyde.

>  <s_epik_cmdline>  (1) 
J2VwaWtfcHl0aG9uJywgJy1waHQnLCAnMS4wJywgJy1waCcsICc3LjQnLCAnLXRuJywgJzgnLCAnLW1hJywgJzUwMCcsICctaW1hZScsICc8aW5maWxlLm1hZT4nLCAnLW9tYWUnLCAnPG91dGZpbGUubWFlPic=

>  <s_epik_input>  (1) 
W0NIMl0xW0NIMl1DKFtDSDJdRik9W0NIXUMoPUMxMilbQ0BIXShbQ0gyXVtDQEhdMltPSF0pW0NIMl1OKFtDSDNdKVtDQEhdKFtPSF0pW0NASF0oT1tDSDNdKVtDSDJdW05IXVtDSDJdW0NASF0oW0NIMl1DKD1PKVtPSF0pTjNbQ0gyXVtDSDJdW0NIMl1bQ0gyXTM=

>  <s_glide_docking_method>  (1) 
confgen

>  <s_i_glide_gridfile>  (1) 
gpcr_5ht2c_6bqh_protein_autoprepared_prepared

>  <s_lp_Force_Field>  (1) 
S-OPLS

>  <s_lp_Variant>  (1) 
DiffSBDD_0-2

>  <s_m_source_file>  (1) 
generated_GPCR_5HT2C_ligand_DiffSBDD_2026-06-23_prepared.sdf

>  <GenAI_Model>  (1) 
DiffSBDD

>  <Protein>  (1) 
GPCR_5HT2C

$$$$
DiffSBDD_8
     RDKit          3D

  0  0  0  0  0  0  0  0  0  0999 V3000
M  V30 BEGIN CTAB
M  V30 COUNTS 49 52 0 0 1
M  V30 BEGIN ATOM
M  V30 1 C 40.884315 28.001308 57.444044 0
M  V30 2 C 41.588668 27.703176 58.620903 0
M  V30 3 C 38.355970 32.784041 60.278953 0 CFG=1
M  V30 4 C 39.945030 28.944069 59.922970 0
M  V30 5 C 39.244801 29.258710 58.741413 0
M  V30 6 C 37.923954 32.133496 54.546478 0
M  V30 7 C 37.670916 32.489855 58.965556 0 CFG=2
M  V30 8 C 38.315440 31.428382 56.821740 0
M  V30 9 C 38.654304 29.886799 53.514366 0
M  V30 10 C 39.722279 30.484982 52.580804 0
M  V30 11 C 38.055101 31.318247 58.133611 0
M  V30 12 O 38.679832 33.502343 59.085051 0
M  V30 13 C 37.996886 30.018189 58.819731 0
M  V30 14 C 40.813297 30.341593 50.269161 0
M  V30 15 C 38.097155 32.710728 56.028472 0
M  V30 16 C 38.587857 30.381025 55.946074 0
M  V30 17 F 39.488253 29.379137 61.121831 0
M  V30 18 N 39.066962 29.118092 56.238853 0
M  V30 19 N 42.753840 26.937779 58.567328 0
M  V30 20 C 41.115110 28.175217 59.860265 0
M  V30 21 C 39.726638 28.798270 57.505500 0
M  V30 22 C 37.699928 33.599339 61.367679 0
M  V30 23 N 38.401901 30.743242 54.696853 0 CHG=1
M  V30 24 C 39.931037 29.643020 51.311854 0
M  V30 25 H 41.246517 27.643026 56.491500 0
M  V30 26 H 39.146361 32.112537 60.609092 0
M  V30 27 H 38.445189 32.708202 53.791377 0
M  V30 28 H 36.867742 32.102261 54.282261 0
M  V30 29 H 36.657871 32.856763 58.808906 0
M  V30 30 H 38.969561 28.886545 53.803739 0
M  V30 31 H 37.715463 29.737749 52.983073 0
M  V30 32 H 39.455665 31.499686 52.288771 0
M  V30 33 H 40.659219 30.581658 53.127102 0
M  V30 34 H 37.202947 29.430267 58.356345 0
M  V30 35 H 37.673741 30.147093 59.852930 0
M  V30 36 H 40.890393 29.737804 49.365228 0
M  V30 37 H 40.395467 31.307248 49.981277 0
M  V30 38 H 41.822857 30.514070 50.641573 0
M  V30 39 H 38.983349 33.340620 56.101835 0
M  V30 40 H 37.245138 33.285388 56.376492 0
M  V30 41 H 42.981040 26.400785 57.734642 0
M  V30 42 H 43.201215 26.634087 59.425003 0
M  V30 43 H 41.645418 27.938267 60.768430 0
M  V30 44 H 37.283428 32.937839 62.127803 0
M  V30 45 H 38.434536 34.254448 61.836084 0
M  V30 46 H 36.896537 34.212821 60.958684 0
M  V30 47 H 40.366061 28.677651 51.573242 0
M  V30 48 H 38.964161 29.428223 50.854518 0
M  V30 49 H 39.266932 28.548778 55.431004 0
M  V30 END ATOM
M  V30 BEGIN BOND
M  V30 1 1 2 1
M  V30 2 2 5 4
M  V30 3 1 7 3
M  V30 4 1 10 9
M  V30 5 1 11 7
M  V30 6 2 11 8
M  V30 7 1 12 3
M  V30 8 1 12 7
M  V30 9 1 13 5
M  V30 10 1 13 11
M  V30 11 1 15 6
M  V30 12 1 15 8
M  V30 13 1 16 8
M  V30 14 1 17 4
M  V30 15 1 18 16
M  V30 16 1 19 2
M  V30 17 2 20 2
M  V30 18 1 20 4
M  V30 19 2 21 1
M  V30 20 1 21 5
M  V30 21 1 21 18
M  V30 22 1 22 3
M  V30 23 1 23 6
M  V30 24 1 23 9
M  V30 25 2 23 16
M  V30 26 1 24 10
M  V30 27 1 24 14
M  V30 28 1 25 1
M  V30 29 1 3 26 CFG=1
M  V30 30 1 27 6
M  V30 31 1 28 6
M  V30 32 1 7 29 CFG=1
M  V30 33 1 30 9
M  V30 34 1 31 9
M  V30 35 1 32 10
M  V30 36 1 33 10
M  V30 37 1 34 13
M  V30 38 1 35 13
M  V30 39 1 36 14
M  V30 40 1 37 14
M  V30 41 1 38 14
M  V30 42 1 39 15
M  V30 43 1 40 15
M  V30 44 1 41 19
M  V30 45 1 42 19
M  V30 46 1 43 20
M  V30 47 1 44 22
M  V30 48 1 45 22
M  V30 49 1 46 22
M  V30 50 1 47 24
M  V30 51 1 48 24
M  V30 52 1 49 18
M  V30 END BOND
M  V30 END CTAB
M  END
>  <i_epik_Tot_Q>  (1) 
1

>  <i_epik_Tot_abs_Q>  (1) 
1

>  <i_i_glide_confnum>  (1) 
32

>  <i_i_glide_lignum>  (1) 
17

>  <i_i_glide_posenum>  (1) 
240

>  <i_i_glide_rotatable_bonds>  (1) 
4

>  <i_lp_mmshare_version>  (1) 
72125

>  <i_m_source_file_index>  (1) 
9

>  <i_f3d_flags>  (1) 
0

>  <num_sample>  (1) 
50

>  <b_lp_Chiralities_Consistent>  (1) 
1

>  <r_epik_Charging_Adjusted_Penalty>  (1) 
0.17413095498699085

>  <r_epik_Ionization_Penalty>  (1) 
0.087068242600636711

>  <r_epik_Ionization_Penalty_Charging>  (1) 
0.087065477493495413

>  <r_epik_Ionization_Penalty_Neutral>  (1) 
2.7651071412945434e-06

>  <r_epik_State_Penalty>  (1) 
0.087065477493495441

>  <r_glide_ring_energy>  (1) 
0

>  <r_i_docking_score>  (1) 
-6.2526803708019445

>  <r_i_glide_ecoul>  (1) 
-4.1610141407419672

>  <r_i_glide_eff_state_penalty>  (1) 
0.087065477493495441

>  <r_i_glide_einternal>  (1) 
4.13793444241547

>  <r_i_glide_emodel>  (1) 
-40.890836147203565

>  <r_i_glide_emodel_strain>  (1) 
0.21973681148857338

>  <r_i_glide_energy>  (1) 
-29.676803541175964

>  <r_i_glide_erotb>  (1) 
0.51678233388810157

>  <r_i_glide_esite>  (1) 
-0.059728940666112354

>  <r_i_glide_evdw>  (1) 
-25.515789400433999

>  <r_i_glide_gscore>  (1) 
-6.3397458482954399

>  <r_i_glide_gscore_strain>  (1) 
0

>  <r_i_glide_hbond>  (1) 
-0.41576374387185355

>  <r_i_glide_ligand_efficiency>  (1) 
-0.26052834878341435

>  <r_i_glide_ligand_efficiency_ln>  (1) 
-1.496553329539372

>  <r_i_glide_ligand_efficiency_sa>  (1) 
-0.75149379817155593

>  <r_i_glide_lipo>  (1) 
-2.3458448348704417

>  <r_i_glide_metal>  (1) 
-0

>  <r_i_glide_rewards>  (1) 
-2.1352490716421393

>  <r_lp_Energy>  (1) 
35.754514

>  <s_epik_Chemistry_Notes>  (1) 
This compound has an imine and may undergo hydrolysis.

>  <s_epik_cmdline>  (1) 
J2VwaWtfcHl0aG9uJywgJy1waHQnLCAnMS4wJywgJy1waCcsICc3LjQnLCAnLXRuJywgJzgnLCAnLW1hJywgJzUwMCcsICctaW1hZScsICc8aW5maWxlLm1hZT4nLCAnLW9tYWUnLCAnPG91dGZpbGUubWFlPic=

>  <s_epik_input>  (1) 
RmMxW2NIXWMoW05IMl0pW2NIXWMoYzEyKU49QzNDKD1DKFtDSDJdMilbQ0BIXShPNClbQ0BASF00W0NIM10pW0NIMl1bQ0gyXU4zW0NIMl1bQ0gyXVtDSDJdW0NIM10=

>  <s_glide_docking_method>  (1) 
confgen

>  <s_i_glide_gridfile>  (1) 
gpcr_5ht2c_6bqh_protein_autoprepared_prepared

>  <s_lp_Force_Field>  (1) 
S-OPLS

>  <s_lp_Variant>  (1) 
DiffSBDD_8-1

>  <s_m_source_file>  (1) 
generated_GPCR_5HT2C_ligand_DiffSBDD_2026-06-23_prepared.sdf

>  <GenAI_Model>  (1) 
DiffSBDD

>  <Protein>  (1) 
GPCR_5HT2C

$$$$
DiffSBDD_14
     RDKit          3D

  0  0  0  0  0  0  0  0  0  0999 V3000
M  V30 BEGIN CTAB
M  V30 COUNTS 58 59 0 0 1
M  V30 BEGIN ATOM
M  V30 1 Cl 40.443316 35.824414 61.767127 0
M  V30 2 C 36.955315 29.814625 59.027947 0
M  V30 3 N 41.275384 32.716518 64.151414 0
M  V30 4 C 40.552817 31.729708 63.567401 0
M  V30 5 C 37.336951 27.289612 54.550990 0
M  V30 6 C 39.456286 27.498162 50.572483 0
M  V30 7 C 40.441757 29.465151 51.747360 0
M  V30 8 C 38.279462 29.056590 58.815560 0 CFG=1
M  V30 9 C 39.759979 25.805031 55.155845 0
M  V30 10 C 40.456167 34.233258 62.433238 0
M  V30 11 C 39.482443 28.527953 51.671857 0
M  V30 12 C 41.221820 33.943767 63.580012 0
M  V30 13 O 40.845138 29.707482 60.967795 0 CHG=-1
M  V30 14 N 39.057362 28.958261 60.074547 0 CHG=1
M  V30 15 C 38.354568 28.443508 52.681654 0
M  V30 16 C 37.360344 26.099391 55.527114 0
M  V30 17 C 39.706916 33.204403 61.841571 0
M  V30 18 C 39.698961 30.182236 60.570657 0 CFG=1
M  V30 19 C 39.756726 31.925218 62.419557 0
M  V30 20 C 38.982468 30.764625 61.809865 0
M  V30 21 C 39.072481 27.269665 57.126722 0
M  V30 22 C 38.714648 26.028869 56.256805 0 CFG=2
M  V30 23 C 39.731867 26.933845 54.105554 0
M  V30 24 N 38.394959 27.211273 53.520741 0 CFG=1 CHG=1
M  V30 25 C 38.045248 27.650616 58.203338 0
M  V30 26 H 36.388442 29.872877 58.098124 0
M  V30 27 H 36.316480 29.337763 59.767778 0
M  V30 28 H 37.125665 30.842354 59.347838 0
M  V30 29 H 40.614318 30.755231 64.029664 0
M  V30 30 H 37.417561 28.229811 55.098127 0
M  V30 31 H 36.408934 27.337826 54.004982 0
M  V30 32 H 38.845131 27.881252 49.767781 0
M  V30 33 H 40.445145 27.335769 50.167763 0
M  V30 34 H 39.064080 26.537799 50.905164 0
M  V30 35 H 40.444908 30.198639 52.540796 0
M  V30 36 H 41.235425 29.509995 51.015370 0
M  V30 37 H 38.865209 29.641792 58.105062 0
M  V30 38 H 40.756553 25.737898 55.594796 0
M  V30 39 H 39.583124 24.846759 54.667137 0
M  V30 40 H 41.808119 34.717610 64.053570 0
M  V30 41 H 38.523831 28.535842 60.817049 0
M  V30 42 H 38.391763 29.325783 53.323360 0
M  V30 43 H 37.405125 28.489509 52.145698 0
M  V30 44 H 36.533074 26.137758 56.234293 0
M  V30 45 H 37.197877 25.175595 54.968763 0
M  V30 46 H 39.110877 33.391059 60.959680 0
M  V30 47 H 39.644021 30.945000 59.794523 0
M  V30 48 H 37.984196 31.113730 61.546167 0
M  V30 49 H 38.841804 29.992009 62.567914 0
M  V30 50 H 40.036581 27.099597 57.608825 0
M  V30 51 H 39.219918 28.143139 56.496872 0
M  V30 52 H 38.706784 25.154309 56.908898 0
M  V30 53 H 40.441872 26.679088 53.317101 0
M  V30 54 H 40.045136 27.862889 54.569584 0
M  V30 55 H 37.048856 27.635938 57.767773 0
M  V30 56 H 38.045215 26.875383 58.967714 0
M  V30 57 H 38.169429 26.430815 52.919323 0
M  V30 58 H 39.863206 28.374279 59.904512 0
M  V30 END ATOM
M  V30 BEGIN BOND
M  V30 1 1 4 3
M  V30 2 1 8 2
M  V30 3 1 10 1
M  V30 4 1 11 6
M  V30 5 2 11 7
M  V30 6 2 12 3
M  V30 7 1 12 10
M  V30 8 1 14 8
M  V30 9 1 15 11
M  V30 10 1 16 5
M  V30 11 2 17 10
M  V30 12 1 18 13
M  V30 13 1 18 14
M  V30 14 2 19 4
M  V30 15 1 19 17
M  V30 16 1 20 18
M  V30 17 1 20 19
M  V30 18 1 22 9
M  V30 19 1 22 16
M  V30 20 1 22 21
M  V30 21 1 23 9
M  V30 22 1 24 5
M  V30 23 1 24 15
M  V30 24 1 24 23
M  V30 25 1 25 8
M  V30 26 1 25 21
M  V30 27 1 26 2
M  V30 28 1 27 2
M  V30 29 1 28 2
M  V30 30 1 29 4
M  V30 31 1 30 5
M  V30 32 1 31 5
M  V30 33 1 32 6
M  V30 34 1 33 6
M  V30 35 1 34 6
M  V30 36 1 35 7
M  V30 37 1 36 7
M  V30 38 1 8 37 CFG=3
M  V30 39 1 38 9
M  V30 40 1 39 9
M  V30 41 1 40 12
M  V30 42 1 41 14
M  V30 43 1 42 15
M  V30 44 1 43 15
M  V30 45 1 44 16
M  V30 46 1 45 16
M  V30 47 1 46 17
M  V30 48 1 18 47 CFG=3
M  V30 49 1 48 20
M  V30 50 1 49 20
M  V30 51 1 50 21
M  V30 52 1 51 21
M  V30 53 1 22 52 CFG=1
M  V30 54 1 53 23
M  V30 55 1 54 23
M  V30 56 1 55 25
M  V30 57 1 56 25
M  V30 58 1 24 57 CFG=3
M  V30 59 1 58 14
M  V30 END BOND
M  V30 END CTAB
M  END
>  <i_epik_Tot_Q>  (1) 
1

>  <i_epik_Tot_abs_Q>  (1) 
3

>  <i_i_glide_confnum>  (1) 
59

>  <i_i_glide_lignum>  (1) 
30

>  <i_i_glide_posenum>  (1) 
234

>  <i_i_glide_rotatable_bonds>  (1) 
9

>  <i_lp_mmshare_version>  (1) 
72125

>  <i_m_source_file_index>  (1) 
15

>  <i_f3d_flags>  (1) 
0

>  <num_sample>  (1) 
50

>  <b_lp_Chiralities_Consistent>  (1) 
1

>  <r_epik_Charging_Adjusted_Penalty>  (1) 
1.1654849776379888

>  <r_epik_Ionization_Penalty>  (1) 
0.58785290175030958

>  <r_epik_Ionization_Penalty_Charging>  (1) 
0.58784809198166499

>  <r_epik_Ionization_Penalty_Neutral>  (1) 
4.8097686445928234e-06

>  <r_epik_State_Penalty>  (1) 
0.57763688565632376

>  <r_glide_ring_energy>  (1) 
0

>  <r_i_docking_score>  (1) 
-6.2483528931363272

>  <r_i_glide_ecoul>  (1) 
-3.0905118981655493

>  <r_i_glide_eff_state_penalty>  (1) 
0.57763688565632376

>  <r_i_glide_einternal>  (1) 
8.2584866602666782

>  <r_i_glide_emodel>  (1) 
-45.777432615368795

>  <r_i_glide_emodel_strain>  (1) 
2.5976747054490801

>  <r_i_glide_energy>  (1) 
-37.309320804087527

>  <r_i_glide_erotb>  (1) 
1.143828235945936

>  <r_i_glide_esite>  (1) 
0

>  <r_i_glide_evdw>  (1) 
-34.218808905921975

>  <r_i_glide_gscore>  (1) 
-6.8259897787926507

>  <r_i_glide_gscore_strain>  (1) 
0

>  <r_i_glide_hbond>  (1) 
-0.15471223888567401

>  <r_i_glide_ligand_efficiency>  (1) 
-0.2499341157254531

>  <r_i_glide_ligand_efficiency_ln>  (1) 
-1.4810468836995285

>  <r_i_glide_ligand_efficiency_sa>  (1) 
-0.73081178776577216

>  <r_i_glide_lipo>  (1) 
-4.3401526078104222

>  <r_i_glide_metal>  (1) 
-0

>  <r_i_glide_rewards>  (1) 
-1.3004359380215589

>  <r_lp_Energy>  (1) 
31.530553999999999

>  <s_epik_Chemistry_Notes>  (1) 
This compound contains an acetal/aminal-like group ( X-CH(R)-Y where X, Y are N, S, or O) that may be acid/base labile, releasing an aldehyde.

>  <s_epik_cmdline>  (1) 
J2VwaWtfcHl0aG9uJywgJy1waHQnLCAnMS4wJywgJy1waCcsICc3LjQnLCAnLXRuJywgJzgnLCAnLW1hJywgJzUwMCcsICctaW1hZScsICc8aW5maWxlLm1hZT4nLCAnLW9tYWUnLCAnPG91dGZpbGUubWFlPic=

>  <s_epik_input>  (1) 
Q2xjMVtjSF1uW2NIXWMoW2NIXTEpW0NIMl1bQ0BASF0oW09IXSlbTkhdW0NASF0oW0NIM10pW0NIMl1bQ0gyXVtDSF0yW0NIMl1bQ0gyXU4oW0NIMl1bQ0gyXTIpW0NIMl1DKFtDSDNdKT1bQ0gyXQ==

>  <s_glide_docking_method>  (1) 
confgen

>  <s_i_glide_gridfile>  (1) 
gpcr_5ht2c_6bqh_protein_autoprepared_prepared

>  <s_lp_Force_Field>  (1) 
S-OPLS

>  <s_lp_Variant>  (1) 
DiffSBDD_14-4

>  <s_m_source_file>  (1) 
generated_GPCR_5HT2C_ligand_DiffSBDD_2026-06-23_prepared.sdf

>  <GenAI_Model>  (1) 
DiffSBDD

>  <Protein>  (1) 
GPCR_5HT2C

$$$$
DiffSBDD_41
     RDKit          3D

  0  0  0  0  0  0  0  0  0  0999 V3000
M  V30 BEGIN CTAB
M  V30 COUNTS 70 74 0 0 1
M  V30 BEGIN ATOM
M  V30 1 C 41.271034 35.532412 62.845823 0
M  V30 2 O 38.444625 31.036042 57.998503 0
M  V30 3 C 38.553455 32.234054 58.764110 0 CFG=1
M  V30 4 C 40.295701 29.765760 59.901194 0
M  V30 5 C 40.283964 36.578520 62.335146 0
M  V30 6 C 39.532829 32.835506 62.990525 0
M  V30 7 C 43.652072 30.998400 65.780196 0
M  V30 8 C 43.155217 32.310982 65.767954 0
M  V30 9 C 38.462495 28.798163 56.240930 0
M  V30 10 C 41.079115 29.521963 63.332855 0
M  V30 11 C 37.217481 33.008165 58.741326 0
M  V30 12 C 38.334405 28.751180 54.020348 0
M  V30 13 N 38.443903 28.045391 55.155488 0
M  V30 14 C 38.947648 31.874786 60.231085 0 CFG=1
M  V30 15 C 39.922749 33.602568 61.709035 0
M  V30 16 C 38.345056 30.158135 55.781488 0
M  V30 17 O 39.945615 26.193876 55.070754 0
M  V30 18 O 38.567784 28.385582 57.397671 0
M  V30 19 C 38.878542 34.697636 61.341571 0
M  V30 20 C 38.887712 35.961686 62.227248 0
M  V30 21 N 39.170430 30.461919 60.527158 0
M  V30 22 O 38.314424 28.268861 52.887968 0
M  V30 23 O 40.045274 32.678469 60.607021 0
M  V30 24 C 42.048700 32.629120 64.970430 0
M  V30 25 C 38.991137 30.046822 61.907707 0
M  V30 26 C 38.588792 26.584747 55.185127 0
M  V30 27 C 41.436676 31.629827 64.191835 0
M  V30 28 C 38.345442 31.196494 56.643614 0
M  V30 29 C 43.035931 29.995930 65.000582 0
M  V30 30 C 39.376168 31.095567 53.646229 0
M  V30 31 N 40.340513 31.660977 63.320046 0
M  V30 32 C 38.233237 30.284517 54.267597 0 CFG=1
M  V30 33 C 41.299716 34.299152 61.910991 0
M  V30 34 C 40.123486 30.364612 62.827805 0
M  V30 35 C 41.905900 30.288176 64.189992 0
M  V30 36 H 40.988279 35.271350 63.860772 0
M  V30 37 H 42.261606 35.979403 62.927711 0
M  V30 38 H 39.334478 32.869836 58.343664 0
M  V30 39 H 40.303314 28.714325 60.190790 0
M  V30 40 H 40.253260 29.774599 58.814471 0
M  V30 41 H 41.242177 30.204048 60.211661 0
M  V30 42 H 40.265884 37.437726 63.006967 0
M  V30 43 H 40.614076 36.950531 61.367563 0
M  V30 44 H 39.645179 33.540520 63.789379 0
M  V30 45 H 38.483104 32.550176 62.967621 0
M  V30 46 H 44.509208 30.753344 66.391290 0
M  V30 47 H 43.627723 33.074787 66.367893 0
M  V30 48 H 41.180210 28.464874 63.134863 0
M  V30 49 H 37.251405 33.920288 59.327721 0
M  V30 50 H 36.942918 33.327202 57.736849 0
M  V30 51 H 36.401713 32.392879 59.120766 0
M  V30 52 H 38.097071 32.163653 60.845127 0
M  V30 53 H 40.207407 25.749215 55.864046 0
M  V30 54 H 39.060094 35.014553 60.314167 0
M  V30 55 H 37.871578 34.285794 61.373670 0
M  V30 56 H 38.523598 35.737890 63.228638 0
M  V30 57 H 38.193694 36.696516 61.817773 0
M  V30 58 H 41.667911 33.633601 64.959751 0
M  V30 59 H 38.845311 28.966566 61.911475 0
M  V30 60 H 38.062229 30.460478 62.298492 0
M  V30 61 H 38.025216 26.127458 54.369043 0
M  V30 62 H 38.172344 26.166973 56.103591 0
M  V30 63 H 38.263786 32.232689 56.348116 0
M  V30 64 H 43.426298 28.989098 65.024219 0
M  V30 65 H 40.353490 30.723012 53.956462 0
M  V30 66 H 39.343017 31.070237 52.558917 0
M  V30 67 H 39.297973 32.137256 53.955644 0
M  V30 68 H 37.248084 30.663504 53.999810 0
M  V30 69 H 42.045121 33.580486 62.247194 0
M  V30 70 H 41.667236 34.676495 60.967767 0
M  V30 END ATOM
M  V30 BEGIN BOND
M  V30 1 1 3 2
M  V30 2 1 5 1
M  V30 3 2 8 7
M  V30 4 1 11 3
M  V30 5 1 13 9
M  V30 6 1 13 12
M  V30 7 1 14 3
M  V30 8 1 15 6
M  V30 9 1 16 9
M  V30 10 2 18 9
M  V30 11 1 19 15
M  V30 12 1 20 5
M  V30 13 1 20 19
M  V30 14 1 21 4
M  V30 15 1 21 14
M  V30 16 2 22 12
M  V30 17 1 23 14
M  V30 18 1 23 15
M  V30 19 1 24 8
M  V30 20 1 25 21
M  V30 21 1 26 13
M  V30 22 1 26 17
M  V30 23 2 27 24
M  V30 24 1 28 2
M  V30 25 2 28 16
M  V30 26 1 29 7
M  V30 27 1 31 6
M  V30 28 1 31 27
M  V30 29 1 32 12
M  V30 30 1 32 16
M  V30 31 1 32 30
M  V30 32 1 33 1
M  V30 33 1 33 15
M  V30 34 2 34 10
M  V30 35 1 34 25
M  V30 36 1 34 31
M  V30 37 1 35 10
M  V30 38 1 35 27
M  V30 39 2 35 29
M  V30 40 1 36 1
M  V30 41 1 37 1
M  V30 42 1 3 38 CFG=3
M  V30 43 1 39 4
M  V30 44 1 40 4
M  V30 45 1 41 4
M  V30 46 1 42 5
M  V30 47 1 43 5
M  V30 48 1 44 6
M  V30 49 1 45 6
M  V30 50 1 46 7
M  V30 51 1 47 8
M  V30 52 1 48 10
M  V30 53 1 49 11
M  V30 54 1 50 11
M  V30 55 1 51 11
M  V30 56 1 14 52 CFG=1
M  V30 57 1 53 17
M  V30 58 1 54 19
M  V30 59 1 55 19
M  V30 60 1 56 20
M  V30 61 1 57 20
M  V30 62 1 58 24
M  V30 63 1 59 25
M  V30 64 1 60 25
M  V30 65 1 61 26
M  V30 66 1 62 26
M  V30 67 1 63 28
M  V30 68 1 64 29
M  V30 69 1 65 30
M  V30 70 1 66 30
M  V30 71 1 67 30
M  V30 72 1 32 68 CFG=1
M  V30 73 1 69 33
M  V30 74 1 70 33
M  V30 END BOND
M  V30 END CTAB
M  END
>  <i_epik_Tot_Q>  (1) 
0

>  <i_epik_Tot_abs_Q>  (1) 
0

>  <i_i_glide_confnum>  (1) 
29

>  <i_i_glide_lignum>  (1) 
88

>  <i_i_glide_posenum>  (1) 
316

>  <i_i_glide_rotatable_bonds>  (1) 
5

>  <i_lp_mmshare_version>  (1) 
72125

>  <i_m_source_file_index>  (1) 
42

>  <i_f3d_flags>  (1) 
0

>  <num_sample>  (1) 
50

>  <b_lp_Chiralities_Consistent>  (1) 
1

>  <r_epik_Charging_Adjusted_Penalty>  (1) 
0.17305261392596941

>  <r_epik_Ionization_Penalty>  (1) 
0.17312613183816786

>  <r_epik_Ionization_Penalty_Charging>  (1) 
0

>  <r_epik_Ionization_Penalty_Neutral>  (1) 
0.17312613183816786

>  <r_epik_State_Penalty>  (1) 
0.17305261392596941

>  <r_glide_ring_energy>  (1) 
1.1930087166834973

>  <r_i_docking_score>  (1) 
-6.2404800999522232

>  <r_i_glide_ecoul>  (1) 
-1.0763254896452574

>  <r_i_glide_eff_state_penalty>  (1) 
0.17305261392596941

>  <r_i_glide_einternal>  (1) 
4.4397679638379905

>  <r_i_glide_emodel>  (1) 
-54.927327331242047

>  <r_i_glide_emodel_strain>  (1) 
0.17266216440904003

>  <r_i_glide_energy>  (1) 
-45.894067950036892

>  <r_i_glide_erotb>  (1) 
0.34988069477117673

>  <r_i_glide_esite>  (1) 
0

>  <r_i_glide_evdw>  (1) 
-44.817742460391635

>  <r_i_glide_gscore>  (1) 
-6.413532713878193

>  <r_i_glide_gscore_strain>  (1) 
0

>  <r_i_glide_hbond>  (1) 
0

>  <r_i_glide_ligand_efficiency>  (1) 
-0.17829943142720639

>  <r_i_glide_ligand_efficiency_ln>  (1) 
-1.3699238819331492

>  <r_i_glide_ligand_efficiency_sa>  (1) 
-0.5832292632673155

>  <r_i_glide_lipo>  (1) 
-2.6391887444197746

>  <r_i_glide_metal>  (1) 
-0

>  <r_i_glide_rewards>  (1) 
-1.7218887177632238

>  <r_lp_Energy>  (1) 
37.188876

>  <s_epik_Chemistry_Notes>  (1) 
This compound contains an acetal/aminal-like group ( X-CH(R)-Y where X, Y are N, S, or O) that may be acid/base labile, releasing an aldehyde.

>  <s_epik_cmdline>  (1) 
J2VwaWtfcHl0aG9uJywgJy1waHQnLCAnMS4wJywgJy1waCcsICc3LjQnLCAnLXRuJywgJzgnLCAnLW1hJywgJzUwMCcsICctaW1hZScsICc8aW5maWxlLm1hZT4nLCAnLW9tYWUnLCAnPG91dGZpbGUubWFlPic=

>  <s_epik_input>  (1) 
W0NIMl0xW0NIMl1bQ0gyXVtDSDJdW0NIMl1DMTJbQ0gyXW4zYzRjKFtjSF1bY0hdW2NIXVtjSF00KVtjSF1jM1tDSDJdTihbQ0gzXSlbQ0BASF0oTzIpW0NASF0oW0NIM10pTy9bQ0hdPUNcNVtDQEBIXShbQ0gzXSlDKD1PKU4oQzU9TylbQ0gyXVtPSF0=

>  <s_glide_docking_method>  (1) 
confgen

>  <s_i_glide_gridfile>  (1) 
gpcr_5ht2c_6bqh_protein_autoprepared_prepared

>  <s_lp_Force_Field>  (1) 
S-OPLS

>  <s_lp_Variant>  (1) 
DiffSBDD_41-2

>  <s_m_source_file>  (1) 
generated_GPCR_5HT2C_ligand_DiffSBDD_2026-06-23_prepared.sdf

>  <GenAI_Model>  (1) 
DiffSBDD

>  <Protein>  (1) 
GPCR_5HT2C

$$$$
DiffSBDD_48
     RDKit          3D

  0  0  0  0  0  0  0  0  0  0999 V3000
M  V30 BEGIN CTAB
M  V30 COUNTS 78 78 0 0 1
M  V30 BEGIN ATOM
M  V30 1 O 41.637625 30.940245 62.291438 0
M  V30 2 C 37.218932 36.917131 59.778539 0
M  V30 3 C 37.487829 37.810072 61.004875 0
M  V30 4 O 39.581400 28.472706 50.470205 0
M  V30 5 C 38.268150 32.141813 60.911884 0
M  V30 6 C 41.248966 31.677132 63.221891 0
M  V30 7 C 39.762601 30.614215 53.614121 0
M  V30 8 C 41.798370 33.108378 63.244002 0
M  V30 9 C 37.239366 33.290770 60.891545 0
M  V30 10 C 38.843998 37.599285 61.712500 0
M  V30 11 N 37.863334 34.580941 60.574585 0
M  V30 12 C 42.647045 33.290632 65.648431 0
M  V30 13 C 38.091573 31.163756 59.742971 0
M  V30 14 C 39.743950 29.556346 51.306373 0
M  V30 15 C 39.001000 27.282489 50.991800 0
M  V30 16 C 41.646059 33.837545 64.608863 0 CFG=1
M  V30 17 C 41.767518 35.376458 64.479713 0
M  V30 18 C 40.089707 30.832855 50.566752 0
M  V30 19 O 37.653032 29.905258 54.559298 0
M  V30 20 C 39.486565 36.217135 61.509157 0 CFG=2
M  V30 21 C 40.572495 36.039341 63.771534 0
M  V30 22 O 40.448642 31.355348 64.126333 0 CHG=-1
M  V30 23 C 38.315918 31.849261 58.387832 0
M  V30 24 O 42.265737 33.669260 66.953928 0
M  V30 25 C 38.660755 30.606101 54.678687 0
M  V30 26 C 38.310838 30.881312 57.195781 0
M  V30 27 C 38.483807 35.089097 61.795126 0
M  V30 28 C 36.791864 35.478278 60.139087 0
M  V30 29 C 39.601231 29.453580 52.647798 0
M  V30 30 N 40.731948 36.056309 62.299005 0 CHG=1
M  V30 31 C 38.865703 31.513271 55.897786 0 CFG=2
M  V30 32 C 38.291988 32.911893 55.618106 0
M  V30 33 H 38.041478 36.936759 59.067875 0
M  V30 34 H 36.380402 37.355509 59.239566 0
M  V30 35 H 37.412701 38.857168 60.708800 0
M  V30 36 H 36.678703 37.664530 61.722215 0
M  V30 37 H 39.291667 32.519129 60.905423 0
M  V30 38 H 38.172398 31.592914 61.848818 0
M  V30 39 H 39.736214 31.566255 53.084166 0
M  V30 40 H 40.732409 30.540526 54.108132 0
M  V30 41 H 41.245231 33.609646 62.458667 0
M  V30 42 H 42.841810 33.099909 62.927432 0
M  V30 43 H 36.723305 33.352818 61.851153 0
M  V30 44 H 36.459244 33.051756 60.166246 0
M  V30 45 H 38.684996 37.736803 62.780801 0
M  V30 46 H 39.537256 38.374138 61.378824 0
M  V30 47 H 43.646601 33.671851 65.446092 0
M  V30 48 H 42.703632 32.201835 65.615679 0
M  V30 49 H 38.799682 30.343868 59.863973 0
M  V30 50 H 37.095827 30.718302 59.773827 0
M  V30 51 H 38.845141 26.577512 50.177994 0
M  V30 52 H 39.645251 26.795525 51.724161 0
M  V30 53 H 38.027977 27.478415 51.442235 0
M  V30 54 H 40.647034 33.634718 64.995641 0
M  V30 55 H 41.810094 35.797445 65.485041 0
M  V30 56 H 42.710840 35.664776 64.017415 0
M  V30 57 H 40.938878 31.333820 51.030822 0
M  V30 58 H 40.345089 30.616660 49.529142 0
M  V30 59 H 39.245137 31.522418 50.567296 0
M  V30 60 H 39.821506 36.129408 60.477530 0
M  V30 61 H 39.662367 35.519500 64.061186 0
M  V30 62 H 40.445043 37.060376 64.118196 0
M  V30 63 H 37.535549 32.592435 58.230581 0
M  V30 64 H 39.245263 32.409417 58.413180 0
M  V30 65 H 41.443220 33.248348 67.152339 0
M  V30 66 H 38.911069 30.004126 57.438602 0
M  V30 67 H 37.288505 30.523971 57.052590 0
M  V30 68 H 39.004026 34.264521 62.284058 0
M  V30 69 H 37.731133 35.444363 62.499525 0
M  V30 70 H 36.308326 35.040968 59.263224 0
M  V30 71 H 36.045116 35.511623 60.926639 0
M  V30 72 H 39.358507 28.502150 53.093248 0
M  V30 73 H 41.388202 36.781287 62.046745 0
M  V30 74 H 39.944367 31.628591 56.016529 0
M  V30 75 H 38.356602 33.193978 54.569738 0
M  V30 76 H 37.245128 32.956156 55.901083 0
M  V30 77 H 38.814250 33.672107 56.197963 0
M  V30 78 H 41.126371 35.164152 62.036274 0
M  V30 END ATOM
M  V30 BEGIN BOND
M  V30 1 1 3 2
M  V30 2 2 6 1
M  V30 3 1 8 6
M  V30 4 1 9 5
M  V30 5 1 10 3
M  V30 6 1 11 9
M  V30 7 1 13 5
M  V30 8 1 14 4
M  V30 9 1 15 4
M  V30 10 1 16 8
M  V30 11 1 16 12
M  V30 12 1 17 16
M  V30 13 1 18 14
M  V30 14 1 20 10
M  V30 15 1 21 17
M  V30 16 1 22 6
M  V30 17 1 23 13
M  V30 18 1 24 12
M  V30 19 1 25 7
M  V30 20 2 25 19
M  V30 21 1 26 23
M  V30 22 1 27 11
M  V30 23 1 27 20
M  V30 24 1 28 2
M  V30 25 1 28 11
M  V30 26 1 29 7
M  V30 27 2 29 14
M  V30 28 1 30 20
M  V30 29 1 30 21
M  V30 30 1 31 25
M  V30 31 1 31 26
M  V30 32 1 32 31
M  V30 33 1 33 2
M  V30 34 1 34 2
M  V30 35 1 35 3
M  V30 36 1 36 3
M  V30 37 1 37 5
M  V30 38 1 38 5
M  V30 39 1 39 7
M  V30 40 1 40 7
M  V30 41 1 41 8
M  V30 42 1 42 8
M  V30 43 1 43 9
M  V30 44 1 44 9
M  V30 45 1 45 10
M  V30 46 1 46 10
M  V30 47 1 47 12
M  V30 48 1 48 12
M  V30 49 1 49 13
M  V30 50 1 50 13
M  V30 51 1 51 15
M  V30 52 1 52 15
M  V30 53 1 53 15
M  V30 54 1 16 54 CFG=1
M  V30 55 1 55 17
M  V30 56 1 56 17
M  V30 57 1 57 18
M  V30 58 1 58 18
M  V30 59 1 59 18
M  V30 60 1 20 60 CFG=3
M  V30 61 1 61 21
M  V30 62 1 62 21
M  V30 63 1 63 23
M  V30 64 1 64 23
M  V30 65 1 65 24
M  V30 66 1 66 26
M  V30 67 1 67 26
M  V30 68 1 68 27
M  V30 69 1 69 27
M  V30 70 1 70 28
M  V30 71 1 71 28
M  V30 72 1 72 29
M  V30 73 1 73 30
M  V30 74 1 31 74 CFG=1
M  V30 75 1 75 32
M  V30 76 1 76 32
M  V30 77 1 77 32
M  V30 78 1 78 30
M  V30 END BOND
M  V30 END CTAB
M  END
>  <i_epik_Tot_Q>  (1) 
0

>  <i_epik_Tot_abs_Q>  (1) 
2

>  <i_i_glide_confnum>  (1) 
1652

>  <i_i_glide_lignum>  (1) 
100

>  <i_i_glide_posenum>  (1) 
119

>  <i_i_glide_rotatable_bonds>  (1) 
18

>  <i_lp_mmshare_version>  (1) 
72125

>  <i_m_source_file_index>  (1) 
49

>  <i_f3d_flags>  (1) 
0

>  <num_sample>  (1) 
50

>  <b_lp_Chiralities_Consistent>  (1) 
1

>  <r_epik_Charging_Adjusted_Penalty>  (1) 
0.04911624183534407

>  <r_epik_Ionization_Penalty>  (1) 
0.025385742012929795

>  <r_epik_Ionization_Penalty_Charging>  (1) 
0.0065475108590220404

>  <r_epik_Ionization_Penalty_Neutral>  (1) 
0.018838231153907755

>  <r_epik_State_Penalty>  (1) 
0.042568730976322029

>  <r_glide_ring_energy>  (1) 
0

>  <r_i_docking_score>  (1) 
-6.2386437633300318

>  <r_i_glide_ecoul>  (1) 
-4.4217881908975185

>  <r_i_glide_eff_state_penalty>  (1) 
0.042568730976322029

>  <r_i_glide_einternal>  (1) 
15.296435328603133

>  <r_i_glide_emodel>  (1) 
-59.62462487740661

>  <r_i_glide_emodel_strain>  (1) 
0.75575517155429139

>  <r_i_glide_energy>  (1) 
-48.124254018469955

>  <r_i_glide_erotb>  (1) 
1.5544609794247006

>  <r_i_glide_esite>  (1) 
0

>  <r_i_glide_evdw>  (1) 
-43.702465827572439

>  <r_i_glide_gscore>  (1) 
-6.2812124943063541

>  <r_i_glide_gscore_strain>  (1) 
0

>  <r_i_glide_hbond>  (1) 
-0.12844282079519054

>  <r_i_glide_ligand_efficiency>  (1) 
-0.19495761760406349

>  <r_i_glide_ligand_efficiency_ln>  (1) 
-1.3970023976157673

>  <r_i_glide_ligand_efficiency_sa>  (1) 
-0.61895185454780877

>  <r_i_glide_lipo>  (1) 
-3.6764007468817779

>  <r_i_glide_metal>  (1) 
-0

>  <r_i_glide_rewards>  (1) 
-1.1824383860408361

>  <r_lp_Energy>  (1) 
22.905211999999999

>  <r_lp_tautomer_probability>  (1) 
0.99990000499974985

>  <s_epik_cmdline>  (1) 
J2VwaWtfcHl0aG9uJywgJy1waHQnLCAnMS4wJywgJy1waCcsICc3LjQnLCAnLXRuJywgJzgnLCAnLW1hJywgJzUwMCcsICctaW1hZScsICc8aW5maWxlLm1hZT4nLCAnLW9tYWUnLCAnPG91dGZpbGUubWFlPic=

>  <s_epik_input>  (1) 
Tz1DKFtPSF0pW0NIMl1bQ0BASF0oW0NIMl1bT0hdKVtDSDJdW0NIMl1bTkhdW0NASF0oW0NIMl1bQ0gyXVtDSDJdW0NIMl0xKVtDSDJdTjFbQ0gyXVtDSDJdW0NIMl1bQ0gyXVtDSDJdW0NASF0oW0NIM10pQyg9TylbQ0gyXVxbQ0hdPUMoW0NIM10pXE9bQ0gzXQ==

>  <s_glide_docking_method>  (1) 
confgen

>  <s_i_glide_gridfile>  (1) 
gpcr_5ht2c_6bqh_protein_autoprepared_prepared

>  <s_lp_Force_Field>  (1) 
S-OPLS

>  <s_lp_Variant>  (1) 
DiffSBDD_48-2

>  <s_m_source_file>  (1) 
generated_GPCR_5HT2C_ligand_DiffSBDD_2026-06-23_prepared.sdf

>  <GenAI_Model>  (1) 
DiffSBDD

>  <Protein>  (1) 
GPCR_5HT2C

$$$$
DiffSBDD_22
     RDKit          3D

  0  0  0  0  0  0  0  0  0  0999 V3000
M  V30 BEGIN CTAB
M  V30 COUNTS 69 72 0 0 1
M  V30 BEGIN ATOM
M  V30 1 N 38.045251 24.905081 57.718850 0
M  V30 2 C 40.025933 28.197216 55.363192 0
M  V30 3 C 35.716205 34.137741 61.572286 0
M  V30 4 O 38.176801 26.883329 54.009797 0
M  V30 5 C 36.500835 32.066883 59.829070 0
M  V30 6 N 41.989095 35.737636 66.163561 0
M  V30 7 C 38.902539 27.589618 56.227501 0 CFG=1
M  V30 8 C 35.008273 32.937524 61.551914 0
M  V30 9 C 41.160210 33.896633 63.067453 0
M  V30 10 C 36.928317 30.956844 58.914128 0 CFG=2
M  V30 11 S 40.345696 27.747743 58.664395 0
M  V30 12 C 38.756949 30.134080 57.079794 0
M  V30 13 C 36.969050 25.667442 57.162146 0
M  V30 14 C 38.051052 28.773653 56.824033 0
M  V30 15 C 39.694017 36.272234 62.674858 0
M  V30 16 C 37.047023 36.482701 59.526935 0
M  V30 17 N 37.176743 25.854204 55.738372 0
M  V30 18 C 39.236026 25.347739 57.767769 0
M  V30 19 C 37.544963 35.642482 60.707911 0 CFG=1
M  V30 20 O 37.644979 37.749612 59.602248 0
M  V30 21 C 36.802933 34.326565 60.711895 0
M  V30 22 C 42.110151 27.339577 58.592824 0
M  V30 23 C 37.193712 33.298320 59.838205 0
M  V30 24 C 40.443159 36.100941 63.849608 0
M  V30 25 C 39.672166 35.259237 61.696012 0
M  V30 26 O 38.009811 30.194590 59.478290 0
M  V30 27 O 38.945009 35.426013 60.549164 0
M  V30 28 C 41.986321 34.709013 65.316920 0
M  V30 29 C 38.045154 26.736173 55.225264 0
M  V30 30 C 40.407925 34.075099 61.891094 0
M  V30 31 C 38.298922 30.932107 58.283178 0 CFG=2
M  V30 32 C 41.183141 34.908304 64.054005 0
M  V30 33 O 42.589664 33.660995 65.529754 0
M  V30 34 C 42.942659 28.326156 57.768453 0
M  V30 35 C 39.684312 26.735038 57.303562 0 CFG=1
M  V30 36 C 35.399791 31.898001 60.692962 0
M  V30 37 H 40.596842 26.428028 56.798394 0
M  V30 38 H 40.743284 28.805970 55.898275 0
M  V30 39 H 40.601789 27.361793 54.967761 0
M  V30 40 H 39.645157 28.808988 54.543426 0
M  V30 41 H 35.418478 34.924400 62.247982 0
M  V30 42 H 41.494248 36.586701 65.927875 0
M  V30 43 H 42.501542 35.673599 67.028307 0
M  V30 44 H 34.166137 32.806877 62.212548 0
M  V30 45 H 41.719783 32.983063 63.214233 0
M  V30 46 H 36.111723 30.351517 58.526303 0
M  V30 47 H 38.672939 30.763612 56.193229 0
M  V30 48 H 39.820142 30.019262 57.255480 0
M  V30 49 H 36.769838 26.574161 57.723449 0
M  V30 50 H 36.052927 25.088214 57.257999 0
M  V30 51 H 37.584263 28.458404 57.751943 0
M  V30 52 H 37.245122 29.004458 56.136205 0
M  V30 53 H 39.134320 37.182949 62.523140 0
M  V30 54 H 35.967480 36.618031 59.587273 0
M  V30 55 H 37.245096 36.006655 58.567749 0
M  V30 56 H 36.622281 25.295994 55.107232 0
M  V30 57 H 40.045249 24.734397 58.165334 0
M  V30 58 H 37.313439 36.172657 61.632611 0
M  V30 59 H 38.580918 37.623124 59.573388 0
M  V30 60 H 42.445076 27.337874 59.622959 0
M  V30 61 H 42.250115 26.331170 58.223048 0
M  V30 62 H 38.027713 33.456157 59.175653 0
M  V30 63 H 40.445061 36.882016 64.593087 0
M  V30 64 H 40.391327 33.300416 61.138212 0
M  V30 65 H 38.953123 31.776890 58.463421 0
M  V30 66 H 43.995593 28.046249 57.774858 0
M  V30 67 H 42.633825 28.345817 56.730012 0
M  V30 68 H 42.864525 29.336113 58.168698 0
M  V30 69 H 34.854097 30.969398 60.699384 0
M  V30 END ATOM
M  V30 BEGIN BOND
M  V30 1 1 7 2 CFG=3
M  V30 2 2 8 3
M  V30 3 1 10 5
M  V30 4 1 13 1
M  V30 5 1 14 7
M  V30 6 1 14 12
M  V30 7 1 17 13
M  V30 8 2 18 1
M  V30 9 1 19 16
M  V30 10 1 20 16
M  V30 11 1 21 3
M  V30 12 1 21 19
M  V30 13 1 22 11
M  V30 14 1 23 5
M  V30 15 2 23 21
M  V30 16 2 24 15
M  V30 17 1 25 15
M  V30 18 1 26 10
M  V30 19 1 27 19
M  V30 20 1 27 25
M  V30 21 1 28 6
M  V30 22 2 29 4
M  V30 23 1 29 7
M  V30 24 1 29 17
M  V30 25 1 30 9
M  V30 26 2 30 25
M  V30 27 1 31 10
M  V30 28 1 31 12
M  V30 29 1 31 26
M  V30 30 2 32 9
M  V30 31 1 32 24
M  V30 32 1 32 28
M  V30 33 2 33 28
M  V30 34 1 34 22
M  V30 35 1 35 7
M  V30 36 1 35 11
M  V30 37 1 35 18
M  V30 38 2 36 5
M  V30 39 1 36 8
M  V30 40 1 35 37 CFG=3
M  V30 41 1 38 2
M  V30 42 1 39 2
M  V30 43 1 40 2
M  V30 44 1 41 3
M  V30 45 1 42 6
M  V30 46 1 43 6
M  V30 47 1 44 8
M  V30 48 1 45 9
M  V30 49 1 10 46 CFG=3
M  V30 50 1 47 12
M  V30 51 1 48 12
M  V30 52 1 49 13
M  V30 53 1 50 13
M  V30 54 1 51 14
M  V30 55 1 52 14
M  V30 56 1 53 15
M  V30 57 1 54 16
M  V30 58 1 55 16
M  V30 59 1 56 17
M  V30 60 1 57 18
M  V30 61 1 19 58 CFG=1
M  V30 62 1 59 20
M  V30 63 1 60 22
M  V30 64 1 61 22
M  V30 65 1 62 23
M  V30 66 1 63 24
M  V30 67 1 64 30
M  V30 68 1 31 65 CFG=1
M  V30 69 1 66 34
M  V30 70 1 67 34
M  V30 71 1 68 34
M  V30 72 1 69 36
M  V30 END BOND
M  V30 END CTAB
M  END
>  <i_epik_Tot_Q>  (1) 
0

>  <i_epik_Tot_abs_Q>  (1) 
0

>  <i_i_glide_confnum>  (1) 
894

>  <i_i_glide_lignum>  (1) 
50

>  <i_i_glide_posenum>  (1) 
198

>  <i_i_glide_rotatable_bonds>  (1) 
12

>  <i_lp_mmshare_version>  (1) 
72125

>  <i_m_source_file_index>  (1) 
23

>  <i_f3d_flags>  (1) 
0

>  <num_sample>  (1) 
50

>  <b_lp_Chiralities_Consistent>  (1) 
1

>  <r_epik_Charging_Adjusted_Penalty>  (1) 
0

>  <r_epik_Ionization_Penalty>  (1) 
0.00010073509857401548

>  <r_epik_Ionization_Penalty_Charging>  (1) 
0

>  <r_epik_Ionization_Penalty_Neutral>  (1) 
0.00010073509857401548

>  <r_epik_State_Penalty>  (1) 
-0

>  <r_glide_ring_energy>  (1) 
0

>  <r_i_docking_score>  (1) 
-6.2246919636800957

>  <r_i_glide_ecoul>  (1) 
-4.8853301350026275

>  <r_i_glide_eff_state_penalty>  (1) 
-0

>  <r_i_glide_einternal>  (1) 
14.592323759143445

>  <r_i_glide_emodel>  (1) 
-58.241286235588582

>  <r_i_glide_emodel_strain>  (1) 
2.1791420318731696

>  <r_i_glide_energy>  (1) 
-48.494892563271037

>  <r_i_glide_erotb>  (1) 
0.70459601099453772

>  <r_i_glide_esite>  (1) 
-0.020058974114732345

>  <r_i_glide_evdw>  (1) 
-43.609562428268411

>  <r_i_glide_gscore>  (1) 
-6.2246919636800957

>  <r_i_glide_gscore_strain>  (1) 
0

>  <r_i_glide_hbond>  (1) 
-0.0048231142320344844

>  <r_i_glide_ligand_efficiency>  (1) 
-0.17290811010222487

>  <r_i_glide_ligand_efficiency_ln>  (1) 
-1.3580596147327779

>  <r_i_glide_ligand_efficiency_sa>  (1) 
-0.57093000030140872

>  <r_i_glide_lipo>  (1) 
-3.0389299654086424

>  <r_i_glide_metal>  (1) 
-0

>  <r_i_glide_rewards>  (1) 
-0.95219827925540979

>  <r_lp_Energy>  (1) 
59.581189999999999

>  <r_lp_tautomer_probability>  (1) 
1

>  <s_epik_Chemistry_Notes>  (1) 
This compound has an imine and may undergo hydrolysis. This compound contains an acetal/aminal-like group ( X-CH(R)-Y where X, Y are N, S, or O) that may be acid/base labile, releasing an aldehyde.

>  <s_epik_cmdline>  (1) 
J2VwaWtfcHl0aG9uJywgJy1waHQnLCAnMS4wJywgJy1waCcsICc3LjQnLCAnLXRuJywgJzgnLCAnLW1hJywgJzUwMCcsICctaW1hZScsICc8aW5maWxlLm1hZT4nLCAnLW9tYWUnLCAnPG91dGZpbGUubWFlPic=

>  <s_epik_input>  (1) 
W0NIM11bQ0gyXVNDMT1bQ0hdW05IXVtDSDJdW05IXUMoPU8pW0NAQF0xKFtDSDNdKVtDSDJdW0NIMl1bQ0BASF0yT1tDQEhdMmMzW2NIXWMoW2NIXVtjSF1bY0hdMylbQ0BIXShbQ0gyXVtPSF0pT2M0W2NIXVtjSF1jKFtjSF1bY0hdNClDKD1PKVtOSDJd

>  <s_glide_docking_method>  (1) 
confgen

>  <s_i_glide_gridfile>  (1) 
gpcr_5ht2c_6bqh_protein_autoprepared_prepared

>  <s_lp_Force_Field>  (1) 
S-OPLS

>  <s_lp_Variant>  (1) 
DiffSBDD_22-2

>  <s_m_source_file>  (1) 
generated_GPCR_5HT2C_ligand_DiffSBDD_2026-06-23_prepared.sdf

>  <GenAI_Model>  (1) 
DiffSBDD

>  <Protein>  (1) 
GPCR_5HT2C

$$$$
DiffSBDD_3
     RDKit          3D

  0  0  0  0  0  0  0  0  0  0999 V3000
M  V30 BEGIN CTAB
M  V30 COUNTS 55 57 0 0 1
M  V30 BEGIN ATOM
M  V30 1 C 38.045552 28.521411 56.813607 0
M  V30 2 C 39.382164 31.540277 61.683580 0
M  V30 3 C 40.331321 29.478233 51.210062 0 CFG=2
M  V30 4 C 39.013577 33.760192 60.017190 0
M  V30 5 C 38.883758 33.999828 61.520902 0 CFG=1
M  V30 6 N 39.245163 29.191582 53.287536 0
M  V30 7 C 39.722275 30.363728 62.588198 0
M  V30 8 C 38.764767 30.818192 55.058354 0
M  V30 9 C 38.540906 30.036317 59.781332 0 CFG=2
M  V30 10 C 39.659107 32.911494 62.273388 0 CFG=2
M  V30 11 O 37.654079 27.590945 57.520020 0
M  V30 12 C 39.894809 30.220376 52.486175 0
M  V30 13 C 38.832864 29.382650 54.614839 0
M  V30 14 C 38.647819 30.943246 56.551334 0
M  V30 15 C 38.860802 31.380554 60.437439 0
M  V30 16 N 38.063263 29.812626 57.274351 0
M  V30 17 C 38.504579 28.343812 55.419299 0
M  V30 18 O 41.053913 33.152127 62.266407 0
M  V30 19 C 39.271709 35.431175 61.930058 0
M  V30 20 O 39.742753 29.379262 59.417461 0
M  V30 21 C 40.341739 30.341757 49.944581 0
M  V30 22 C 37.519937 30.127018 58.608513 0
M  V30 23 C 39.163545 27.908831 52.608199 0
M  V30 24 O 38.565214 32.463996 59.633560 0
M  V30 25 C 39.392737 28.265362 51.139732 0
M  V30 26 H 41.337857 29.091443 51.368038 0
M  V30 27 H 38.415875 34.491208 59.472959 0
M  V30 28 H 40.045137 33.891859 59.692394 0
M  V30 29 H 37.828263 33.873076 61.767528 0
M  V30 30 H 40.767566 30.420384 62.891850 0
M  V30 31 H 39.113382 30.406673 63.490575 0
M  V30 32 H 39.572279 29.386545 62.134543 0
M  V30 33 H 39.617564 31.410415 54.728747 0
M  V30 34 H 38.068816 29.419760 60.542742 0
M  V30 35 H 39.333662 32.914122 63.314407 0
M  V30 36 H 39.245336 31.060808 52.273206 0
M  V30 37 H 40.760555 30.625715 53.009216 0
M  V30 38 H 38.106172 31.862154 56.782332 0
M  V30 39 H 39.645212 31.080191 56.967454 0
M  V30 40 H 38.563875 27.339524 55.030106 0
M  V30 41 H 41.355675 33.121255 61.372300 0
M  V30 42 H 40.300713 35.664869 61.655001 0
M  V30 43 H 38.628287 36.164295 61.442914 0
M  V30 44 H 39.174890 35.570632 63.007028 0
M  V30 45 H 39.522677 28.514782 59.102436 0
M  V30 46 H 39.368756 30.801109 49.768282 0
M  V30 47 H 41.078008 31.142098 50.021997 0
M  V30 48 H 40.593491 29.737833 49.072011 0
M  V30 49 H 36.696224 29.444475 58.826598 0
M  V30 50 H 37.002505 31.085703 58.575463 0
M  V30 51 H 39.943218 27.240019 52.973438 0
M  V30 52 H 38.194762 27.426798 52.747601 0
M  V30 53 H 39.806078 27.434697 50.567611 0
M  V30 54 H 38.445390 28.547654 50.679850 0
M  V30 55 H 37.877299 31.256039 54.597868 0
M  V30 END ATOM
M  V30 BEGIN BOND
M  V30 1 1 5 4
M  V30 2 1 7 2
M  V30 3 1 10 2
M  V30 4 1 10 5
M  V30 5 2 11 1
M  V30 6 1 12 3
M  V30 7 1 12 6
M  V30 8 1 13 6
M  V30 9 1 13 8
M  V30 10 1 14 8
M  V30 11 2 15 2
M  V30 12 1 15 9
M  V30 13 1 16 1
M  V30 14 1 16 14
M  V30 15 1 17 1
M  V30 16 2 17 13
M  V30 17 1 18 10
M  V30 18 1 19 5
M  V30 19 1 20 9
M  V30 20 1 21 3
M  V30 21 1 22 9
M  V30 22 1 22 16
M  V30 23 1 23 6
M  V30 24 1 24 4
M  V30 25 1 24 15
M  V30 26 1 25 3
M  V30 27 1 25 23
M  V30 28 1 3 26 CFG=1
M  V30 29 1 27 4
M  V30 30 1 28 4
M  V30 31 1 5 29 CFG=1
M  V30 32 1 30 7
M  V30 33 1 31 7
M  V30 34 1 32 7
M  V30 35 1 33 8
M  V30 36 1 9 34 CFG=1
M  V30 37 1 10 35 CFG=1
M  V30 38 1 36 12
M  V30 39 1 37 12
M  V30 40 1 38 14
M  V30 41 1 39 14
M  V30 42 1 40 17
M  V30 43 1 41 18
M  V30 44 1 42 19
M  V30 45 1 43 19
M  V30 46 1 44 19
M  V30 47 1 45 20
M  V30 48 1 46 21
M  V30 49 1 47 21
M  V30 50 1 48 21
M  V30 51 1 49 22
M  V30 52 1 50 22
M  V30 53 1 51 23
M  V30 54 1 52 23
M  V30 55 1 53 25
M  V30 56 1 54 25
M  V30 57 1 55 8
M  V30 END BOND
M  V30 END CTAB
M  END
>  <i_epik_Tot_Q>  (1) 
0

>  <i_epik_Tot_abs_Q>  (1) 
0

>  <i_i_glide_confnum>  (1) 
23

>  <i_i_glide_lignum>  (1) 
11

>  <i_i_glide_posenum>  (1) 
149

>  <i_i_glide_rotatable_bonds>  (1) 
6

>  <i_lp_mmshare_version>  (1) 
72125

>  <i_m_source_file_index>  (1) 
4

>  <i_f3d_flags>  (1) 
0

>  <num_sample>  (1) 
50

>  <b_lp_Chiralities_Consistent>  (1) 
1

>  <r_epik_Charging_Adjusted_Penalty>  (1) 
0.0014021342352173091

>  <r_epik_Ionization_Penalty>  (1) 
0.00010460091952456132

>  <r_epik_Ionization_Penalty_Charging>  (1) 
0

>  <r_epik_Ionization_Penalty_Neutral>  (1) 
0.00010460091952456132

>  <r_epik_State_Penalty>  (1) 
0.0014021342352173091

>  <r_glide_ring_energy>  (1) 
0

>  <r_i_docking_score>  (1) 
-6.1952387167491842

>  <r_i_glide_ecoul>  (1) 
-0.89673480307202946

>  <r_i_glide_eff_state_penalty>  (1) 
0.0014021342352173091

>  <r_i_glide_einternal>  (1) 
10.032882348097786

>  <r_i_glide_emodel>  (1) 
-45.83354213447781

>  <r_i_glide_emodel_strain>  (1) 
0.37193548673414512

>  <r_i_glide_energy>  (1) 
-37.373838849721594

>  <r_i_glide_erotb>  (1) 
0.62076481070925627

>  <r_i_glide_esite>  (1) 
-0.047824210782429405

>  <r_i_glide_evdw>  (1) 
-36.477104046649565

>  <r_i_glide_gscore>  (1) 
-6.1966408509844015

>  <r_i_glide_gscore_strain>  (1) 
0

>  <r_i_glide_hbond>  (1) 
0

>  <r_i_glide_ligand_efficiency>  (1) 
-0.24780954866996738

>  <r_i_glide_ligand_efficiency_ln>  (1) 
-1.4684572321923519

>  <r_i_glide_ligand_efficiency_sa>  (1) 
-0.72459951600950923

>  <r_i_glide_lipo>  (1) 
-2.9751728062472589

>  <r_i_glide_metal>  (1) 
-0

>  <r_i_glide_rewards>  (1) 
-1.8360432218706859

>  <r_lp_Energy>  (1) 
-2.7583759999999997

>  <s_epik_cmdline>  (1) 
J2VwaWtfcHl0aG9uJywgJy1waHQnLCAnMS4wJywgJy1waCcsICc3LjQnLCAnLXRuJywgJzgnLCAnLW1hJywgJzUwMCcsICctaW1hZScsICc8aW5maWxlLm1hZT4nLCAnLW9tYWUnLCAnPG91dGZpbGUubWFlPic=

>  <s_epik_input>  (1) 
W0NIM11bQ0BIXTFbQ0gyXU4oW0NIMl1bQ0gyXTEpQyhbQ0gyXTIpPVtDSF1bQ0gyXU4oQzI9TylbQ0gyXVtDQEBIXShbT0hdKUMoPUMzW0NIM10pT1tDSDJdW0NASF0oW0NIM10pW0NAQEhdM1tPSF0=

>  <s_glide_docking_method>  (1) 
confgen

>  <s_i_glide_gridfile>  (1) 
gpcr_5ht2c_6bqh_protein_autoprepared_prepared

>  <s_lp_Force_Field>  (1) 
S-OPLS

>  <s_lp_Variant>  (1) 
DiffSBDD_3-1

>  <s_m_source_file>  (1) 
generated_GPCR_5HT2C_ligand_DiffSBDD_2026-06-23_prepared.sdf

>  <GenAI_Model>  (1) 
DiffSBDD

>  <Protein>  (1) 
GPCR_5HT2C

$$$$
DiffSBDD_17
     RDKit          3D

  0  0  0  0  0  0  0  0  0  0999 V3000
M  V30 BEGIN CTAB
M  V30 COUNTS 92 96 0 0 1
M  V30 BEGIN ATOM
M  V30 1 C 42.112207 34.122976 65.223750 0
M  V30 2 C 37.147961 31.273415 59.939849 0 CFG=2
M  V30 3 C 42.227276 31.569490 64.749045 0
M  V30 4 O 40.640336 28.304652 60.990963 0
M  V30 5 C 43.655753 32.664430 66.566384 0
M  V30 6 C 39.211908 27.619125 53.185493 0
M  V30 7 C 39.293893 28.418108 50.817239 0
M  V30 8 C 39.245408 27.406785 51.868617 0
M  V30 9 C 37.696818 33.735979 58.375622 0
M  V30 10 C 36.886622 34.073944 61.519189 0
M  V30 11 N 40.866048 29.414080 64.689277 0
M  V30 12 C 35.948407 33.660206 60.421319 0 CFG=2
M  V30 13 C 39.955606 31.330938 63.420415 0 CFG=1
M  V30 14 C 38.518436 31.517107 60.667752 0
M  V30 15 N 41.192759 28.916337 66.025905 0 CHG=1
M  V30 16 C 39.667980 27.000370 55.325397 0 CFG=2
M  V30 17 C 39.129287 28.919774 53.887073 0 CFG=2
M  V30 18 C 42.417957 27.688397 64.355434 0
M  V30 19 C 40.828814 30.884805 64.628073 0 CFG=2
M  V30 20 O 39.228496 26.565706 54.048871 0
M  V30 21 C 42.357685 28.025147 65.856625 0
M  V30 22 O 39.867544 32.729092 63.356998 0
M  V30 23 N 38.334858 30.534196 56.296440 0 CHG=1
M  V30 24 C 39.845617 30.137697 53.390304 0
M  V30 25 C 37.274454 30.596339 58.574780 0
M  V30 26 C 39.645510 29.731468 50.917932 0
M  V30 27 N 36.089537 32.343534 59.781335 0 CFG=1 CHG=1
M  V30 28 C 39.931374 29.302269 60.278307 0
M  V30 29 S 38.894370 26.145427 56.738799 0 CHG=-1
M  V30 30 C 39.305767 30.307571 61.272431 0 CFG=1
M  V30 31 C 40.045359 30.483394 52.110595 0
M  V30 32 N 40.397478 30.808873 62.132604 0
M  V30 33 C 36.317155 33.535657 58.965786 0 CFG=2
M  V30 34 C 38.603685 29.088217 56.412171 0
M  V30 35 C 38.026747 32.767755 57.227749 0
M  V30 36 C 39.539598 28.547013 55.321110 0 CFG=1
M  V30 37 C 38.257991 31.274880 57.573773 0 CFG=2
M  V30 38 N 41.741546 28.806806 63.679968 0 CHG=1
M  V30 39 C 42.316871 32.709517 65.806584 0
M  V30 40 H 42.844240 34.350468 64.445751 0
M  V30 41 H 41.118742 34.282778 64.814886 0
M  V30 42 H 42.220168 34.878744 66.002870 0
M  V30 43 H 36.634146 30.554168 60.578243 0
M  V30 44 H 42.973348 30.820771 65.014308 0
M  V30 45 H 42.553212 31.937734 63.775526 0
M  V30 46 H 40.921273 27.646682 60.367630 0
M  V30 47 H 44.505602 32.808940 65.896994 0
M  V30 48 H 43.703974 33.445683 67.327220 0
M  V30 49 H 43.788852 31.712208 67.081034 0
M  V30 50 H 39.072531 28.068630 49.825114 0
M  V30 51 H 39.254648 26.377887 51.545817 0
M  V30 52 H 38.478669 33.790908 59.123394 0
M  V30 53 H 37.645024 34.734289 57.942089 0
M  V30 54 H 36.567866 35.036962 61.918219 0
M  V30 55 H 36.816063 33.337608 62.314870 0
M  V30 56 H 37.915980 34.193091 61.186424 0
M  V30 57 H 34.894567 33.785427 60.665041 0
M  V30 58 H 38.957113 30.937754 63.623040 0
M  V30 59 H 38.292572 32.097664 61.539737 0
M  V30 60 H 39.210093 32.113420 60.081564 0
M  V30 61 H 41.394042 29.707998 66.621656 0
M  V30 62 H 40.729004 26.749676 55.375733 0
M  V30 63 H 38.067328 29.170777 53.879418 0
M  V30 64 H 41.853232 26.777258 64.153184 0
M  V30 65 H 43.434633 27.542640 63.986424 0
M  V30 66 H 40.246361 31.171999 65.504838 0
M  V30 67 H 42.293070 27.137297 66.487422 0
M  V30 68 H 43.253569 28.576002 66.146090 0
M  V30 69 H 40.397008 33.103130 64.046656 0
M  V30 70 H 37.454849 30.658856 55.811033 0
M  V30 71 H 40.198267 30.812104 54.155723 0
M  V30 72 H 37.548874 29.563643 58.751688 0
M  V30 73 H 36.276474 30.490115 58.167427 0
M  V30 74 H 39.661019 30.283600 49.989345 0
M  V30 75 H 40.604624 29.772770 59.564336 0
M  V30 76 H 39.174656 28.764234 59.718563 0
M  V30 77 H 38.605322 29.737477 61.885025 0
M  V30 78 H 40.539232 31.428096 51.938180 0
M  V30 79 H 40.867204 31.567595 61.645699 0
M  V30 80 H 35.497970 33.737407 58.279624 0
M  V30 81 H 39.092024 28.878570 57.362734 0
M  V30 82 H 37.645246 28.571008 56.412751 0
M  V30 83 H 38.924779 33.137951 56.731647 0
M  V30 84 H 37.245672 32.862046 56.476058 0
M  V30 85 H 40.535198 28.943146 55.526104 0
M  V30 86 H 39.245196 31.201283 58.014726 0
M  V30 87 H 41.168782 28.524049 62.885630 0
M  V30 88 H 41.544445 32.557721 66.561376 0
M  V30 89 H 40.382011 28.407694 66.357129 0
M  V30 90 H 42.395449 29.520940 63.392184 0
M  V30 91 H 39.066281 30.945920 55.735854 0
M  V30 92 H 35.207469 31.954631 59.477165 0
M  V30 END ATOM
M  V30 BEGIN BOND
M  V30 1 2 8 6
M  V30 2 1 8 7
M  V30 3 1 12 10
M  V30 4 1 14 2
M  V30 5 1 15 11
M  V30 6 1 17 6
M  V30 7 1 19 3
M  V30 8 1 19 11
M  V30 9 1 19 13
M  V30 10 1 20 6
M  V30 11 1 20 16
M  V30 12 1 21 15
M  V30 13 1 21 18
M  V30 14 1 22 13
M  V30 15 1 24 17
M  V30 16 1 25 2
M  V30 17 2 26 7
M  V30 18 1 27 2
M  V30 19 1 27 12
M  V30 20 1 28 4
M  V30 21 1 29 16
M  V30 22 1 30 14
M  V30 23 1 30 28
M  V30 24 2 31 24
M  V30 25 1 31 26
M  V30 26 1 32 13
M  V30 27 1 32 30
M  V30 28 1 33 9
M  V30 29 1 33 12
M  V30 30 1 33 27
M  V30 31 1 34 23
M  V30 32 1 35 9
M  V30 33 1 36 16
M  V30 34 1 36 17
M  V30 35 1 36 34
M  V30 36 1 37 23
M  V30 37 1 37 25
M  V30 38 1 37 35
M  V30 39 1 38 11
M  V30 40 1 38 18
M  V30 41 1 39 1
M  V30 42 1 39 3
M  V30 43 1 39 5
M  V30 44 1 40 1
M  V30 45 1 41 1
M  V30 46 1 42 1
M  V30 47 1 2 43 CFG=1
M  V30 48 1 44 3
M  V30 49 1 45 3
M  V30 50 1 46 4
M  V30 51 1 47 5
M  V30 52 1 48 5
M  V30 53 1 49 5
M  V30 54 1 50 7
M  V30 55 1 51 8
M  V30 56 1 52 9
M  V30 57 1 53 9
M  V30 58 1 54 10
M  V30 59 1 55 10
M  V30 60 1 56 10
M  V30 61 1 12 57 CFG=3
M  V30 62 1 13 58 CFG=1
M  V30 63 1 59 14
M  V30 64 1 60 14
M  V30 65 1 61 15
M  V30 66 1 16 62 CFG=3
M  V30 67 1 17 63 CFG=1
M  V30 68 1 64 18
M  V30 69 1 65 18
M  V30 70 1 19 66 CFG=1
M  V30 71 1 67 21
M  V30 72 1 68 21
M  V30 73 1 69 22
M  V30 74 1 70 23
M  V30 75 1 71 24
M  V30 76 1 72 25
M  V30 77 1 73 25
M  V30 78 1 74 26
M  V30 79 1 75 28
M  V30 80 1 76 28
M  V30 81 1 30 77 CFG=1
M  V30 82 1 78 31
M  V30 83 1 79 32
M  V30 84 1 33 80 CFG=3
M  V30 85 1 81 34
M  V30 86 1 82 34
M  V30 87 1 83 35
M  V30 88 1 84 35
M  V30 89 1 36 85 CFG=1
M  V30 90 1 37 86 CFG=1
M  V30 91 1 87 38
M  V30 92 1 88 39
M  V30 93 1 89 15
M  V30 94 1 90 38
M  V30 95 1 91 23
M  V30 96 1 27 92 CFG=3
M  V30 END BOND
M  V30 END CTAB
M  END
>  <i_epik_Tot_Q>  (1) 
3

>  <i_epik_Tot_abs_Q>  (1) 
5

>  <i_i_glide_confnum>  (1) 
942

>  <i_i_glide_lignum>  (1) 
41

>  <i_i_glide_posenum>  (1) 
34

>  <i_i_glide_rotatable_bonds>  (1) 
14

>  <i_lp_mmshare_version>  (1) 
72125

>  <i_m_source_file_index>  (1) 
18

>  <i_f3d_flags>  (1) 
0

>  <num_sample>  (1) 
50

>  <b_lp_Chiralities_Consistent>  (1) 
1

>  <r_epik_Charging_Adjusted_Penalty>  (1) 
1.6860912736117832

>  <r_epik_Ionization_Penalty>  (1) 
0.9299661573909731

>  <r_epik_Ionization_Penalty_Charging>  (1) 
0.33573944846101578

>  <r_epik_Ionization_Penalty_Neutral>  (1) 
0.59422670892995733

>  <r_epik_State_Penalty>  (1) 
1.3503518251507676

>  <r_glide_ring_energy>  (1) 
0.0045750838620950583

>  <r_i_docking_score>  (1) 
-6.1940986000257698

>  <r_i_glide_ecoul>  (1) 
-7.2606787195188192

>  <r_i_glide_eff_state_penalty>  (1) 
1.3503518251507676

>  <r_i_glide_einternal>  (1) 
13.166302935475919

>  <r_i_glide_emodel>  (1) 
-68.660178597271141

>  <r_i_glide_emodel_strain>  (1) 
4.5771710901051108

>  <r_i_glide_energy>  (1) 
-50.557729589556594

>  <r_i_glide_erotb>  (1) 
0.56462826385561427

>  <r_i_glide_esite>  (1) 
-0.14686102202569837

>  <r_i_glide_evdw>  (1) 
-43.297050870037772

>  <r_i_glide_gscore>  (1) 
-7.5444504251765379

>  <r_i_glide_gscore_strain>  (1) 
0.1442927725262777

>  <r_i_glide_hbond>  (1) 
0

>  <r_i_glide_ligand_efficiency>  (1) 
-0.15882304102630179

>  <r_i_glide_ligand_efficiency_ln>  (1) 
-1.3281905697904384

>  <r_i_glide_ligand_efficiency_sa>  (1) 
-0.53860251414270321

>  <r_i_glide_lipo>  (1) 
-3.8705564148193541

>  <r_i_glide_metal>  (1) 
-0

>  <r_i_glide_rewards>  (1) 
-0.98199967328366589

>  <r_lp_Energy>  (1) 
57.587399999999995

>  <s_epik_Chemistry_Notes>  (1) 
This compound contains an acetal/aminal-like group ( X-CH(R)-Y where X, Y are N, S, or O) that may be acid/base labile, releasing an aldehyde.

>  <s_epik_cmdline>  (1) 
J2VwaWtfcHl0aG9uJywgJy1waHQnLCAnMS4wJywgJy1waCcsICc3LjQnLCAnLXRuJywgJzgnLCAnLW1hJywgJzUwMCcsICctaW1hZScsICc8aW5maWxlLm1hZT4nLCAnLW9tYWUnLCAnPG91dGZpbGUubWFlPic=

>  <s_epik_input>  (1) 
W05IXTFbQ0gyXVtDSDJdW05IXU4xW0NAQEhdKFtDSDJdW0NIXShbQ0gzXSlbQ0gzXSlbQ0BASF0oW09IXSlbTkhdW0NASF0oW0NIMl1bT0hdKVtDSDJdW0NAQEhdMltDSDJdW0NASF0oW0NIMl1bQ0gyXVtDQEBIXShOMjMpW0NIXTNbQ0gzXSlbTkhdW0NIMl1bQ0BASF0oW0NASF0oTzQpW1NIXSlbQ0BIXShDND01KVtDSF09W0NIXVtDSF09W0NIXVtDSF01

>  <s_glide_docking_method>  (1) 
confgen

>  <s_i_glide_gridfile>  (1) 
gpcr_5ht2c_6bqh_protein_autoprepared_prepared

>  <s_lp_Force_Field>  (1) 
S-OPLS

>  <s_lp_Variant>  (1) 
DiffSBDD_17-8

>  <s_m_source_file>  (1) 
generated_GPCR_5HT2C_ligand_DiffSBDD_2026-06-23_prepared.sdf

>  <GenAI_Model>  (1) 
DiffSBDD

>  <Protein>  (1) 
GPCR_5HT2C

$$$$
DiffSBDD_1
     RDKit          3D

  0  0  0  0  0  0  0  0  0  0999 V3000
M  V30 BEGIN CTAB
M  V30 COUNTS 78 81 0 0 1
M  V30 BEGIN ATOM
M  V30 1 C 39.317255 33.748033 61.823047 0
M  V30 2 N 41.856355 33.909052 65.373939 0
M  V30 3 C 41.237633 30.813822 66.998911 0 CFG=1
M  V30 4 C 42.595525 31.313326 67.502943 0
M  V30 5 C 40.652173 26.772507 57.518351 0
M  V30 6 C 39.108872 30.105820 61.287182 0
M  V30 7 C 40.928470 31.575161 65.691061 0
M  V30 8 C 42.145333 32.448915 65.367119 0 CFG=2
M  V30 9 C 37.603777 26.763334 57.794394 0
M  V30 10 N 39.127799 31.467328 60.757044 0
M  V30 11 O 40.320791 31.337733 54.967765 0
M  V30 12 C 38.134264 30.529480 60.227656 0 CFG=1
M  V30 13 C 37.802560 28.133695 57.272134 0 CFG=1
M  V30 14 O 36.980712 29.196090 57.931749 0
M  V30 15 C 38.882524 30.071690 53.610414 0
M  V30 16 C 40.131055 28.786511 66.533055 0
M  V30 17 C 39.014968 28.640084 57.900900 0
M  V30 18 C 42.121754 34.628771 64.114260 0
M  V30 19 C 38.044972 31.220151 55.738094 0
M  V30 20 O 41.162902 28.822056 58.658674 0
M  V30 21 O 41.102753 33.960064 67.527230 0
M  V30 22 C 38.257074 31.616952 57.218490 0
M  V30 23 O 41.372888 29.425480 66.749338 0
M  V30 24 O 37.748838 24.927378 56.322470 0
M  V30 25 P 38.347382 30.164875 58.422558 0 CFG=2 CHG=1
M  V30 26 C 39.210967 30.484442 55.045950 0 CFG=2
M  V30 27 C 40.232813 28.092778 58.030695 0
M  V30 28 C 44.400120 32.925546 66.660784 0
M  V30 29 O 40.362985 33.573306 62.772051 0
M  V30 30 C 41.368514 34.546441 66.480771 0
M  V30 31 C 41.166267 36.060246 66.393861 0
M  V30 32 C 39.866304 25.760314 57.019410 0
M  V30 33 C 38.376332 25.757923 56.975840 0
M  V30 34 C 40.873087 34.820138 63.231097 0
M  V30 35 C 43.283031 31.940856 66.290099 0 CFG=1
M  V30 36 C 38.502729 32.459432 61.636454 0
M  V30 37 H 39.723195 34.094701 60.871912 0
M  V30 38 H 38.634320 34.525782 62.167795 0
M  V30 39 H 40.472040 30.992419 67.756628 0
M  V30 40 H 42.453986 32.051508 68.290835 0
M  V30 41 H 43.191726 30.513663 67.943515 0
M  V30 42 H 41.715452 26.586729 57.509261 0
M  V30 43 H 38.815699 30.065318 62.334797 0
M  V30 44 H 40.009892 29.567704 61.000404 0
M  V30 45 H 40.020339 32.166155 65.767772 0
M  V30 46 H 40.763871 30.887109 64.862618 0
M  V30 47 H 42.438707 32.178045 64.351592 0
M  V30 48 H 37.942993 26.667027 58.826695 0
M  V30 49 H 36.547605 26.494754 57.767731 0
M  V30 50 H 40.510206 31.696151 55.821279 0
M  V30 51 H 37.126257 30.759501 60.569117 0
M  V30 52 H 37.733279 28.208705 56.185651 0
M  V30 53 H 37.929589 29.545985 53.550025 0
M  V30 54 H 38.845581 30.950040 52.967767 0
M  V30 55 H 39.646780 29.411582 53.202456 0
M  V30 56 H 40.296701 27.720388 66.390451 0
M  V30 57 H 39.450572 28.937899 67.367914 0
M  V30 58 H 39.645197 29.176912 65.645392 0
M  V30 59 H 42.845133 34.073705 63.527271 0
M  V30 60 H 42.606975 35.588544 64.290749 0
M  V30 61 H 37.149412 30.601389 55.676273 0
M  V30 62 H 37.802785 32.119320 55.169877 0
M  V30 63 H 41.950264 28.299054 58.719205 0
M  V30 64 H 37.447705 32.275236 57.531802 0
M  V30 65 H 39.158544 32.221441 57.310812 0
M  V30 66 H 39.515203 29.598315 55.590850 0
M  V30 67 H 44.023945 33.737679 67.281833 0
M  V30 68 H 45.182016 32.424954 67.232729 0
M  V30 69 H 44.868764 33.337708 65.767764 0
M  V30 70 H 40.432874 36.351429 65.645552 0
M  V30 71 H 40.813757 36.441212 67.353223 0
M  V30 72 H 42.117751 36.546266 66.185988 0
M  V30 73 H 40.354152 24.874054 56.640788 0
M  V30 74 H 41.150862 35.432408 62.370715 0
M  V30 75 H 40.088156 35.360995 63.757989 0
M  V30 76 H 43.758354 31.116050 65.755264 0
M  V30 77 H 37.546878 32.761814 61.204388 0
M  V30 78 H 38.264201 32.043703 62.614478 0
M  V30 END ATOM
M  V30 BEGIN BOND
M  V30 1 1 4 3
M  V30 2 1 7 3
M  V30 3 1 8 2
M  V30 4 1 8 7
M  V30 5 1 10 6
M  V30 6 1 12 6
M  V30 7 1 12 10
M  V30 8 1 13 9
M  V30 9 1 14 13
M  V30 10 1 17 13
M  V30 11 1 18 2
M  V30 12 1 22 19
M  V30 13 1 23 3
M  V30 14 1 23 16
M  V30 15 1 25 12
M  V30 16 1 25 14
M  V30 17 1 25 17
M  V30 18 1 25 22 CFG=3
M  V30 19 1 26 11
M  V30 20 1 26 15
M  V30 21 1 26 19
M  V30 22 1 27 5
M  V30 23 2 27 17
M  V30 24 1 27 20
M  V30 25 1 29 1
M  V30 26 1 30 2
M  V30 27 2 30 21
M  V30 28 1 31 30
M  V30 29 2 32 5
M  V30 30 1 33 9
M  V30 31 2 33 24
M  V30 32 1 33 32
M  V30 33 1 34 18
M  V30 34 1 34 29
M  V30 35 1 35 4
M  V30 36 1 35 8
M  V30 37 1 35 28
M  V30 38 1 36 1
M  V30 39 1 36 10
M  V30 40 1 37 1
M  V30 41 1 38 1
M  V30 42 1 3 39 CFG=1
M  V30 43 1 40 4
M  V30 44 1 41 4
M  V30 45 1 42 5
M  V30 46 1 43 6
M  V30 47 1 44 6
M  V30 48 1 45 7
M  V30 49 1 46 7
M  V30 50 1 8 47 CFG=3
M  V30 51 1 48 9
M  V30 52 1 49 9
M  V30 53 1 50 11
M  V30 54 1 12 51 CFG=1
M  V30 55 1 13 52 CFG=3
M  V30 56 1 53 15
M  V30 57 1 54 15
M  V30 58 1 55 15
M  V30 59 1 56 16
M  V30 60 1 57 16
M  V30 61 1 58 16
M  V30 62 1 59 18
M  V30 63 1 60 18
M  V30 64 1 61 19
M  V30 65 1 62 19
M  V30 66 1 63 20
M  V30 67 1 64 22
M  V30 68 1 65 22
M  V30 69 1 26 66 CFG=1
M  V30 70 1 67 28
M  V30 71 1 68 28
M  V30 72 1 69 28
M  V30 73 1 70 31
M  V30 74 1 71 31
M  V30 75 1 72 31
M  V30 76 1 73 32
M  V30 77 1 74 34
M  V30 78 1 75 34
M  V30 79 1 35 76 CFG=3
M  V30 80 1 77 36
M  V30 81 1 78 36
M  V30 END BOND
M  V30 END CTAB
M  END
>  <i_epik_Tot_Q>  (1) 
1

>  <i_epik_Tot_abs_Q>  (1) 
1

>  <i_i_glide_confnum>  (1) 
2155

>  <i_i_glide_lignum>  (1) 
6

>  <i_i_glide_posenum>  (1) 
330

>  <i_i_glide_rotatable_bonds>  (1) 
15

>  <i_lp_mmshare_version>  (1) 
72125

>  <i_m_source_file_index>  (1) 
2

>  <i_f3d_flags>  (1) 
0

>  <num_sample>  (1) 
50

>  <b_lp_Chiralities_Consistent>  (1) 
1

>  <r_epik_Charging_Adjusted_Penalty>  (1) 
0.012777702237649643

>  <r_epik_Ionization_Penalty>  (1) 
0.012893064322698497

>  <r_epik_Ionization_Penalty_Charging>  (1) 
0

>  <r_epik_Ionization_Penalty_Neutral>  (1) 
0.012893064322698497

>  <r_epik_State_Penalty>  (1) 
0.012777702237649643

>  <r_glide_ring_energy>  (1) 
0.14646081137369646

>  <r_i_docking_score>  (1) 
-6.1929353265786506

>  <r_i_glide_ecoul>  (1) 
-3.2163624812914318

>  <r_i_glide_eff_state_penalty>  (1) 
0.012777702237649643

>  <r_i_glide_einternal>  (1) 
14.257993872840032

>  <r_i_glide_emodel>  (1) 
-56.17076298320908

>  <r_i_glide_emodel_strain>  (1) 
0.43949837708376549

>  <r_i_glide_energy>  (1) 
-47.354701053493329

>  <r_i_glide_erotb>  (1) 
0.81958699115176215

>  <r_i_glide_esite>  (1) 
-0.033454407223101112

>  <r_i_glide_evdw>  (1) 
-44.138338572201896

>  <r_i_glide_gscore>  (1) 
-6.2057130288163007

>  <r_i_glide_gscore_strain>  (1) 
0

>  <r_i_glide_hbond>  (1) 
0

>  <r_i_glide_ligand_efficiency>  (1) 
-0.17202598129385141

>  <r_i_glide_ligand_efficiency_ln>  (1) 
-1.351131174482427

>  <r_i_glide_ligand_efficiency_sa>  (1) 
-0.5680172751520054

>  <r_i_glide_lipo>  (1) 
-3.3331397826704459

>  <r_i_glide_metal>  (1) 
-0

>  <r_i_glide_rewards>  (1) 
-0.96933452927070651

>  <r_lp_Energy>  (1) 
35.539625000000001

>  <s_epik_cmdline>  (1) 
J2VwaWtfcHl0aG9uJywgJy1waHQnLCAnMS4wJywgJy1waCcsICc3LjQnLCAnLXRuJywgJzgnLCAnLW1hJywgJzUwMCcsICctaW1hZScsICc8aW5maWxlLm1hZT4nLCAnLW9tYWUnLCAnPG91dGZpbGUubWFlPic=

>  <s_epik_input>  (1) 
W0NIM11PW0NASF0xW0NIMl1bQ0BIXShbQ0gzXSlbQ0BASF0oW0NIMl0xKU4oQyg9TylbQ0gzXSlbQ0gyXVtDSDJdT1tDSDJdW0NIMl1OMltDSDJdW0NIXTJbUEBAK10oTzMpKFtDSDJdW0NIMl1bQ0BIXShbT0hdKVtDSDNdKUMoW0NAQEhdMzQpPUMoW09IXSlbQ0hdPVtDSF1DKD1PKVtDSDJdNA==

>  <s_glide_docking_method>  (1) 
confgen

>  <s_i_glide_gridfile>  (1) 
gpcr_5ht2c_6bqh_protein_autoprepared_prepared

>  <s_lp_Force_Field>  (1) 
S-OPLS

>  <s_lp_Variant>  (1) 
DiffSBDD_1-2

>  <s_m_source_file>  (1) 
generated_GPCR_5HT2C_ligand_DiffSBDD_2026-06-23_prepared.sdf

>  <GenAI_Model>  (1) 
DiffSBDD

>  <Protein>  (1) 
GPCR_5HT2C

$$$$
DiffSBDD_6
     RDKit          3D

  0  0  0  0  0  0  0  0  0  0999 V3000
M  V30 BEGIN CTAB
M  V30 COUNTS 51 52 0 0 1
M  V30 BEGIN ATOM
M  V30 1 O 38.815472 29.207847 59.260166 0
M  V30 2 C 38.279341 32.547590 59.862583 0
M  V30 3 N 37.645139 30.343821 57.694087 0
M  V30 4 C 37.708442 33.649474 60.295948 0
M  V30 5 C 38.032117 36.732096 62.055690 0
M  V30 6 C 38.086932 30.149685 58.946746 0
M  V30 7 C 39.202140 28.039211 53.030401 0
M  V30 8 C 36.938174 37.121921 59.958335 0
M  V30 9 O 36.845243 37.476830 62.264365 0
M  V30 10 C 38.603435 30.920226 54.609861 0
M  V30 11 C 39.869704 30.263042 54.046392 0
M  V30 12 C 39.648674 29.604063 51.561087 0
M  V30 13 C 39.324143 28.529478 50.861601 0
M  V30 14 C 37.977182 29.435335 56.602489 0
M  V30 15 C 39.571520 29.304758 52.899307 0
M  V30 16 C 36.105375 31.165249 60.170617 0
M  V30 17 C 38.954153 27.248882 51.693408 0
M  V30 18 C 37.825473 36.105313 60.674345 0 CFG=2
M  V30 19 O 38.444757 32.137291 54.567750 0
M  V30 20 C 37.642992 31.167239 60.005467 0 CFG=2
M  V30 21 C 40.045149 30.937798 50.978674 0
M  V30 22 C 36.565334 38.137741 61.042014 0
M  V30 23 C 37.549143 30.000614 55.235838 0
M  V30 24 C 37.159790 34.742636 60.773572 0
M  V30 25 H 39.245109 32.580739 59.380360 0
M  V30 26 H 37.029170 31.130398 57.492917 0
M  V30 27 H 38.197976 36.000330 62.846181 0
M  V30 28 H 38.885244 37.412892 62.046609 0
M  V30 29 H 39.070501 27.552227 53.985659 0
M  V30 30 H 37.468140 37.606536 59.137758 0
M  V30 31 H 36.045297 36.654422 59.539864 0
M  V30 32 H 40.549280 31.041475 53.700062 0
M  V30 33 H 40.388729 29.734880 54.845245 0
M  V30 34 H 39.307180 28.504596 49.781362 0
M  V30 35 H 39.044642 29.208663 56.613428 0
M  V30 36 H 37.472020 28.488164 56.787317 0
M  V30 37 H 35.614036 31.715909 59.367748 0
M  V30 38 H 35.706917 30.150603 60.159713 0
M  V30 39 H 35.804198 31.619432 61.114784 0
M  V30 40 H 39.645140 26.421933 51.542243 0
M  V30 41 H 37.919633 26.944771 51.566899 0
M  V30 42 H 38.786802 36.005430 60.167867 0
M  V30 43 H 38.048600 30.779927 60.941635 0
M  V30 44 H 41.130894 31.025641 50.944418 0
M  V30 45 H 39.654070 31.058485 49.967850 0
M  V30 46 H 39.645278 31.737753 51.596416 0
M  V30 47 H 35.521292 38.446656 60.986654 0
M  V30 48 H 37.188832 39.030144 60.967709 0
M  V30 49 H 37.354727 29.181071 54.546415 0
M  V30 50 H 36.604639 30.538022 55.328346 0
M  V30 51 H 36.197580 34.711794 61.264012 0
M  V30 END ATOM
M  V30 BEGIN BOND
M  V30 1 2 4 2
M  V30 2 2 6 1
M  V30 3 1 6 3
M  V30 4 1 9 5
M  V30 5 1 11 10
M  V30 6 2 13 12
M  V30 7 1 14 3
M  V30 8 2 15 7
M  V30 9 1 15 11
M  V30 10 1 15 12
M  V30 11 1 17 7
M  V30 12 1 17 13
M  V30 13 1 18 5
M  V30 14 1 18 8
M  V30 15 2 19 10
M  V30 16 1 20 2
M  V30 17 1 20 6
M  V30 18 1 20 16
M  V30 19 1 21 12
M  V30 20 1 22 8
M  V30 21 1 22 9
M  V30 22 1 23 10
M  V30 23 1 23 14
M  V30 24 2 24 4
M  V30 25 1 24 18
M  V30 26 1 25 2
M  V30 27 1 26 3
M  V30 28 1 27 5
M  V30 29 1 28 5
M  V30 30 1 29 7
M  V30 31 1 30 8
M  V30 32 1 31 8
M  V30 33 1 32 11
M  V30 34 1 33 11
M  V30 35 1 34 13
M  V30 36 1 35 14
M  V30 37 1 36 14
M  V30 38 1 37 16
M  V30 39 1 38 16
M  V30 40 1 39 16
M  V30 41 1 40 17
M  V30 42 1 41 17
M  V30 43 1 18 42 CFG=3
M  V30 44 1 20 43 CFG=1
M  V30 45 1 44 21
M  V30 46 1 45 21
M  V30 47 1 46 21
M  V30 48 1 47 22
M  V30 49 1 48 22
M  V30 50 1 49 23
M  V30 51 1 50 23
M  V30 52 1 51 24
M  V30 END BOND
M  V30 END CTAB
M  END
>  <i_epik_Tot_Q>  (1) 
0

>  <i_epik_Tot_abs_Q>  (1) 
0

>  <i_i_glide_confnum>  (1) 
521

>  <i_i_glide_lignum>  (1) 
15

>  <i_i_glide_posenum>  (1) 
333

>  <i_i_glide_rotatable_bonds>  (1) 
9

>  <i_lp_mmshare_version>  (1) 
72125

>  <i_m_source_file_index>  (1) 
7

>  <i_f3d_flags>  (1) 
0

>  <num_sample>  (1) 
50

>  <b_lp_Chiralities_Consistent>  (1) 
1

>  <r_epik_Charging_Adjusted_Penalty>  (1) 
0

>  <r_epik_Ionization_Penalty>  (1) 
2.8772612766536324e-08

>  <r_epik_Ionization_Penalty_Charging>  (1) 
0

>  <r_epik_Ionization_Penalty_Neutral>  (1) 
2.8772612766536324e-08

>  <r_epik_State_Penalty>  (1) 
-0

>  <r_glide_ring_energy>  (1) 
0

>  <r_i_docking_score>  (1) 
-6.182956420777729

>  <r_i_glide_ecoul>  (1) 
-2.6871461940663899

>  <r_i_glide_eff_state_penalty>  (1) 
-0

>  <r_i_glide_einternal>  (1) 
9.4334384375097571

>  <r_i_glide_emodel>  (1) 
-50.230403830972463

>  <r_i_glide_emodel_strain>  (1) 
1.8524332878907757

>  <r_i_glide_energy>  (1) 
-40.569554327340867

>  <r_i_glide_erotb>  (1) 
1.3853836233983141

>  <r_i_glide_esite>  (1) 
-0.11714386203234853

>  <r_i_glide_evdw>  (1) 
-37.882408133274481

>  <r_i_glide_gscore>  (1) 
-6.182956420777729

>  <r_i_glide_gscore_strain>  (1) 
0

>  <r_i_glide_hbond>  (1) 
-0.16

>  <r_i_glide_ligand_efficiency>  (1) 
-0.25762318419907204

>  <r_i_glide_ligand_efficiency_ln>  (1) 
-1.4798651888749879

>  <r_i_glide_ligand_efficiency_sa>  (1) 
-0.74311385342467595

>  <r_i_glide_lipo>  (1) 
-2.8466831638226751

>  <r_i_glide_metal>  (1) 
-0

>  <r_i_glide_rewards>  (1) 
-2.1473206825473365

>  <r_lp_Energy>  (1) 
-19.353403999999998

>  <r_lp_tautomer_probability>  (1) 
1

>  <s_epik_cmdline>  (1) 
J2VwaWtfcHl0aG9uJywgJy1waHQnLCAnMS4wJywgJy1waCcsICc3LjQnLCAnLXRuJywgJzgnLCAnLW1hJywgJzUwMCcsICctaW1hZScsICc8aW5maWxlLm1hZT4nLCAnLW9tYWUnLCAnPG91dGZpbGUubWFlPic=

>  <s_epik_input>  (1) 
W0NIMl0xW0NIMl1PW0NIMl1bQ0BIXTFbQ0hdPUM9W0NIXVtDQEBIXShbQ0gzXSlDKD1PKVtOSF1bQ0gyXVtDSDJdQyg9TylbQ0gyXUMyPVtDSF1bQ0gyXVtDSF09QzJbQ0gzXQ==

>  <s_glide_docking_method>  (1) 
confgen

>  <s_i_glide_gridfile>  (1) 
gpcr_5ht2c_6bqh_protein_autoprepared_prepared

>  <s_lp_Force_Field>  (1) 
S-OPLS

>  <s_lp_Variant>  (1) 
DiffSBDD_6-1

>  <s_m_source_file>  (1) 
generated_GPCR_5HT2C_ligand_DiffSBDD_2026-06-23_prepared.sdf

>  <GenAI_Model>  (1) 
DiffSBDD

>  <Protein>  (1) 
GPCR_5HT2C

$$$$
DiffSBDD_25
     RDKit          3D

  0  0  0  0  0  0  0  0  0  0999 V3000
M  V30 BEGIN CTAB
M  V30 COUNTS 36 36 0 0 1
M  V30 BEGIN ATOM
M  V30 1 C 39.656703 30.530901 53.017017 0
M  V30 2 O 36.845166 24.256162 55.398652 0
M  V30 3 C 37.729795 24.937747 55.917275 0
M  V30 4 C 39.632144 29.690125 51.723704 0
M  V30 5 C 37.595808 27.825607 53.762205 0
M  V30 6 C 37.961962 26.339955 53.898113 0
M  V30 7 C 38.201588 24.614451 57.339727 0
M  V30 8 C 40.668594 30.937776 49.767752 0
M  V30 9 C 39.394176 28.233857 55.453239 0
M  V30 10 N 38.327433 25.980429 55.278237 0
M  V30 11 C 38.585360 28.715339 54.494105 0
M  V30 12 C 39.406988 31.715842 49.388506 0
M  V30 13 C 40.763220 30.060061 50.785987 0
M  V30 14 C 39.399897 26.781751 55.906254 0
M  V30 15 C 38.598971 30.178365 54.083589 0
M  V30 16 H 39.548411 31.584158 52.756474 0
M  V30 17 H 40.639410 30.448634 53.479547 0
M  V30 18 H 39.770271 28.636391 51.965765 0
M  V30 19 H 38.678671 29.737738 51.205922 0
M  V30 20 H 36.601669 28.002358 54.167755 0
M  V30 21 H 37.547489 28.091246 52.706407 0
M  V30 22 H 37.151298 25.737515 53.487087 0
M  V30 23 H 38.832202 26.137791 53.274591 0
M  V30 24 H 37.936091 25.412571 58.033284 0
M  V30 25 H 37.718541 23.704723 57.697377 0
M  V30 26 H 39.279004 24.447580 57.368313 0
M  V30 27 H 41.541474 31.123037 49.159342 0
M  V30 28 H 40.085671 28.897710 55.951743 0
M  V30 29 H 38.911233 31.337782 48.500741 0
M  V30 30 H 38.667866 31.753457 50.167760 0
M  V30 31 H 39.645136 32.746676 49.155231 0
M  V30 32 H 41.706262 29.571481 50.967753 0
M  V30 33 H 40.368583 26.338903 55.670583 0
M  V30 34 H 39.321444 26.827325 56.991080 0
M  V30 35 H 37.599409 30.468569 53.767762 0
M  V30 36 H 38.797304 30.779990 54.971920 0
M  V30 END ATOM
M  V30 BEGIN BOND
M  V30 1 2 3 2
M  V30 2 1 4 1
M  V30 3 1 6 5
M  V30 4 1 7 3
M  V30 5 1 10 3
M  V30 6 1 10 6
M  V30 7 1 11 5
M  V30 8 2 11 9
M  V30 9 1 12 8
M  V30 10 1 13 4
M  V30 11 2 13 8
M  V30 12 1 14 9
M  V30 13 1 14 10
M  V30 14 1 15 1
M  V30 15 1 15 11
M  V30 16 1 16 1
M  V30 17 1 17 1
M  V30 18 1 18 4
M  V30 19 1 19 4
M  V30 20 1 20 5
M  V30 21 1 21 5
M  V30 22 1 22 6
M  V30 23 1 23 6
M  V30 24 1 24 7
M  V30 25 1 25 7
M  V30 26 1 26 7
M  V30 27 1 27 8
M  V30 28 1 28 9
M  V30 29 1 29 12
M  V30 30 1 30 12
M  V30 31 1 31 12
M  V30 32 1 32 13
M  V30 33 1 33 14
M  V30 34 1 34 14
M  V30 35 1 35 15
M  V30 36 1 36 15
M  V30 END BOND
M  V30 END CTAB
M  END
>  <i_epik_Tot_Q>  (1) 
0

>  <i_epik_Tot_abs_Q>  (1) 
0

>  <i_i_glide_confnum>  (1) 
51

>  <i_i_glide_lignum>  (1) 
55

>  <i_i_glide_posenum>  (1) 
261

>  <i_i_glide_rotatable_bonds>  (1) 
5

>  <i_lp_mmshare_version>  (1) 
72125

>  <i_m_source_file_index>  (1) 
26

>  <i_f3d_flags>  (1) 
0

>  <num_sample>  (1) 
50

>  <b_lp_Chiralities_Consistent>  (1) 
1

>  <r_epik_Charging_Adjusted_Penalty>  (1) 
0

>  <r_epik_Ionization_Penalty>  (1) 
4.9398685500853885e-07

>  <r_epik_Ionization_Penalty_Charging>  (1) 
0

>  <r_epik_Ionization_Penalty_Neutral>  (1) 
4.9398685500853885e-07

>  <r_epik_State_Penalty>  (1) 
-0

>  <r_glide_ring_energy>  (1) 
0

>  <r_i_docking_score>  (1) 
-6.1762778051399376

>  <r_i_glide_ecoul>  (1) 
-0.029945375711178279

>  <r_i_glide_eff_state_penalty>  (1) 
-0

>  <r_i_glide_einternal>  (1) 
1.7277923556626851

>  <r_i_glide_emodel>  (1) 
-34.227888231946906

>  <r_i_glide_emodel_strain>  (1) 
0

>  <r_i_glide_energy>  (1) 
-24.294728564306766

>  <r_i_glide_erotb>  (1) 
1.5381532010122589

>  <r_i_glide_esite>  (1) 
0

>  <r_i_glide_evdw>  (1) 
-24.264783188595587

>  <r_i_glide_gscore>  (1) 
-6.1762778051399376

>  <r_i_glide_gscore_strain>  (1) 
0

>  <r_i_glide_hbond>  (1) 
0

>  <r_i_glide_ligand_efficiency>  (1) 
-0.41175185367599582

>  <r_i_glide_ligand_efficiency_ln>  (1) 
-1.665640288069469

>  <r_i_glide_ligand_efficiency_sa>  (1) 
-1.0154673931636942

>  <r_i_glide_lipo>  (1) 
-3.083122923848312

>  <r_i_glide_metal>  (1) 
-0

>  <r_i_glide_rewards>  (1) 
-3.4135771165174296

>  <r_lp_Energy>  (1) 
14.880616

>  <r_lp_tautomer_probability>  (1) 
1

>  <s_epik_cmdline>  (1) 
J2VwaWtfcHl0aG9uJywgJy1waHQnLCAnMS4wJywgJy1waCcsICc3LjQnLCAnLXRuJywgJzgnLCAnLW1hJywgJzUwMCcsICctaW1hZScsICc8aW5maWxlLm1hZT4nLCAnLW9tYWUnLCAnPG91dGZpbGUubWFlPic=

>  <s_epik_input>  (1) 
W0NIM10vW0NIXT1bQ0hdXFtDSDJdW0NIMl1bQ0gyXUMoPVtDSF1bQ0gyXTEpW0NIMl1bQ0gyXU4xQyg9TylbQ0gzXQ==

>  <s_glide_docking_method>  (1) 
confgen

>  <s_i_glide_gridfile>  (1) 
gpcr_5ht2c_6bqh_protein_autoprepared_prepared

>  <s_lp_Force_Field>  (1) 
S-OPLS

>  <s_lp_Variant>  (1) 
DiffSBDD_25-2

>  <s_m_source_file>  (1) 
generated_GPCR_5HT2C_ligand_DiffSBDD_2026-06-23_prepared.sdf

>  <GenAI_Model>  (1) 
DiffSBDD

>  <Protein>  (1) 
GPCR_5HT2C

$$$$
DiffSBDD_48
     RDKit          3D

  0  0  0  0  0  0  0  0  0  0999 V3000
M  V30 BEGIN CTAB
M  V30 COUNTS 78 78 0 0 1
M  V30 BEGIN ATOM
M  V30 1 O 37.729467 36.557540 62.354586 0
M  V30 2 C 36.922440 34.009421 59.408188 0
M  V30 3 C 36.424219 33.541908 60.786759 0
M  V30 4 O 38.452084 24.756457 56.526577 0
M  V30 5 C 39.081848 32.086514 56.083188 0
M  V30 6 C 38.687995 37.337755 62.156031 0
M  V30 7 C 39.636381 26.023028 54.237438 0
M  V30 8 C 39.985304 37.102423 62.962334 0
M  V30 9 C 38.677791 31.326942 57.364769 0
M  V30 10 C 37.369015 32.592818 61.549592 0
M  V30 11 N 38.541631 32.235327 58.507615 0
M  V30 12 C 41.060836 35.609970 64.794377 0
M  V30 13 C 38.565084 31.425628 54.799373 0
M  V30 14 C 39.470114 25.672060 56.719007 0
M  V30 15 C 37.791662 24.150853 57.629094 0
M  V30 16 C 40.033002 35.726461 63.657850 0 CFG=2
M  V30 17 C 40.151533 34.591146 62.599243 0
M  V30 18 C 39.862019 25.910763 58.169218 0
M  V30 19 O 37.425295 26.968357 54.254432 0
M  V30 20 C 38.779321 32.458922 60.938699 0 CFG=2
M  V30 21 C 40.043808 33.109768 63.049695 0
M  V30 22 O 38.685619 38.306448 61.367760 0 CHG=-1
M  V30 23 C 39.156818 30.038876 54.495363 0
M  V30 24 O 42.371360 35.737736 64.303661 0
M  V30 25 C 38.566947 27.013974 53.799864 0
M  V30 26 C 38.553469 29.479469 53.193878 0
M  V30 27 C 38.716505 31.480534 59.752577 0
M  V30 28 C 37.208538 32.852714 58.436201 0
M  V30 29 C 40.040151 26.278364 55.668823 0
M  V30 30 N 39.844529 32.138887 61.929007 0 CHG=1
M  V30 31 C 38.973407 28.065712 52.773088 0 CFG=2
M  V30 32 C 38.445322 27.711686 51.378844 0
M  V30 33 H 37.770962 34.689017 59.485898 0
M  V30 34 H 36.129421 34.614952 58.968320 0
M  V30 35 H 36.235850 34.424451 61.399527 0
M  V30 36 H 35.450198 33.063547 60.677843 0
M  V30 37 H 38.697815 33.105807 56.098418 0
M  V30 38 H 40.164304 32.194609 56.042092 0
M  V30 39 H 39.194241 25.031654 54.192497 0
M  V30 40 H 40.504333 26.040951 53.578213 0
M  V30 41 H 40.045137 37.892551 63.710590 0
M  V30 42 H 40.845104 37.224696 62.304969 0
M  V30 43 H 39.442310 30.572248 57.556708 0
M  V30 44 H 37.746469 30.775674 57.218484 0
M  V30 45 H 36.909758 31.608004 61.627100 0
M  V30 46 H 37.414570 32.937754 62.567908 0
M  V30 47 H 40.960036 34.648858 65.297779 0
M  V30 48 H 40.886733 36.374330 65.553020 0
M  V30 49 H 37.477840 31.355461 54.857500 0
M  V30 50 H 38.772028 32.091229 53.961117 0
M  V30 51 H 36.976797 23.541856 57.239783 0
M  V30 52 H 38.445146 23.472841 58.167756 0
M  V30 53 H 37.340472 24.878226 58.302660 0
M  V30 54 H 39.076175 35.737761 64.167698 0
M  V30 55 H 39.356358 34.797713 61.897800 0
M  V30 56 H 41.079975 34.720370 62.040818 0
M  V30 57 H 40.552485 26.752661 58.226787 0
M  V30 58 H 39.017121 26.162376 58.809013 0
M  V30 59 H 40.397488 25.050202 58.564446 0
M  V30 60 H 39.130779 33.389367 60.510069 0
M  V30 61 H 40.957780 32.830439 63.574592 0
M  V30 62 H 39.245268 32.962261 63.767085 0
M  V30 63 H 40.241278 30.108391 54.406363 0
M  V30 64 H 38.949683 29.364589 55.326369 0
M  V30 65 H 42.523783 36.671123 64.190693 0
M  V30 66 H 37.468051 29.513141 53.276244 0
M  V30 67 H 38.845141 30.137758 52.381140 0
M  V30 68 H 39.645162 30.914996 59.708133 0
M  V30 69 H 37.923121 30.738657 59.867735 0
M  V30 70 H 37.066233 33.266658 57.438311 0
M  V30 71 H 36.445353 32.085855 58.567778 0
M  V30 72 H 40.832503 26.994330 55.829300 0
M  V30 73 H 40.715408 32.097971 61.419926 0
M  V30 74 H 40.045137 28.043931 52.686984 0
M  V30 75 H 38.767206 26.718607 51.062737 0
M  V30 76 H 37.359104 27.737916 51.367996 0
M  V30 77 H 38.801892 28.420486 50.630210 0
M  V30 78 H 39.660145 31.227400 62.323379 0
M  V30 END ATOM
M  V30 BEGIN BOND
M  V30 1 1 3 2
M  V30 2 2 6 1
M  V30 3 1 8 6
M  V30 4 1 9 5
M  V30 5 1 10 3
M  V30 6 1 11 9
M  V30 7 1 13 5
M  V30 8 1 14 4
M  V30 9 1 15 4
M  V30 10 1 16 8
M  V30 11 1 16 12
M  V30 12 1 17 16
M  V30 13 1 18 14
M  V30 14 1 20 10
M  V30 15 1 21 17
M  V30 16 1 22 6
M  V30 17 1 23 13
M  V30 18 1 24 12
M  V30 19 1 25 7
M  V30 20 2 25 19
M  V30 21 1 26 23
M  V30 22 1 27 11
M  V30 23 1 27 20
M  V30 24 1 28 2
M  V30 25 1 28 11
M  V30 26 1 29 7
M  V30 27 2 29 14
M  V30 28 1 30 20
M  V30 29 1 30 21
M  V30 30 1 31 25
M  V30 31 1 31 26
M  V30 32 1 32 31
M  V30 33 1 33 2
M  V30 34 1 34 2
M  V30 35 1 35 3
M  V30 36 1 36 3
M  V30 37 1 37 5
M  V30 38 1 38 5
M  V30 39 1 39 7
M  V30 40 1 40 7
M  V30 41 1 41 8
M  V30 42 1 42 8
M  V30 43 1 43 9
M  V30 44 1 44 9
M  V30 45 1 45 10
M  V30 46 1 46 10
M  V30 47 1 47 12
M  V30 48 1 48 12
M  V30 49 1 49 13
M  V30 50 1 50 13
M  V30 51 1 51 15
M  V30 52 1 52 15
M  V30 53 1 53 15
M  V30 54 1 16 54 CFG=1
M  V30 55 1 55 17
M  V30 56 1 56 17
M  V30 57 1 57 18
M  V30 58 1 58 18
M  V30 59 1 59 18
M  V30 60 1 20 60 CFG=3
M  V30 61 1 61 21
M  V30 62 1 62 21
M  V30 63 1 63 23
M  V30 64 1 64 23
M  V30 65 1 65 24
M  V30 66 1 66 26
M  V30 67 1 67 26
M  V30 68 1 68 27
M  V30 69 1 69 27
M  V30 70 1 70 28
M  V30 71 1 71 28
M  V30 72 1 72 29
M  V30 73 1 73 30
M  V30 74 1 31 74 CFG=3
M  V30 75 1 75 32
M  V30 76 1 76 32
M  V30 77 1 77 32
M  V30 78 1 78 30
M  V30 END BOND
M  V30 END CTAB
M  END
>  <i_epik_Tot_Q>  (1) 
0

>  <i_epik_Tot_abs_Q>  (1) 
2

>  <i_i_glide_confnum>  (1) 
736

>  <i_i_glide_lignum>  (1) 
101

>  <i_i_glide_posenum>  (1) 
229

>  <i_i_glide_rotatable_bonds>  (1) 
18

>  <i_lp_mmshare_version>  (1) 
72125

>  <i_m_source_file_index>  (1) 
49

>  <i_f3d_flags>  (1) 
0

>  <num_sample>  (1) 
50

>  <b_lp_Chiralities_Consistent>  (1) 
1

>  <r_epik_Charging_Adjusted_Penalty>  (1) 
0.04911624183534407

>  <r_epik_Ionization_Penalty>  (1) 
0.025385742012929795

>  <r_epik_Ionization_Penalty_Charging>  (1) 
0.0065475108590220404

>  <r_epik_Ionization_Penalty_Neutral>  (1) 
0.018838231153907755

>  <r_epik_State_Penalty>  (1) 
0.042568730976322029

>  <r_glide_ring_energy>  (1) 
0

>  <r_i_docking_score>  (1) 
-6.1724711738071809

>  <r_i_glide_ecoul>  (1) 
-4.428738266051127

>  <r_i_glide_eff_state_penalty>  (1) 
0.042568730976322029

>  <r_i_glide_einternal>  (1) 
17.434716448698083

>  <r_i_glide_emodel>  (1) 
-49.896895577705003

>  <r_i_glide_emodel_strain>  (1) 
1.4078453196154399

>  <r_i_glide_energy>  (1) 
-41.521590650847202

>  <r_i_glide_erotb>  (1) 
1.5544609794247006

>  <r_i_glide_esite>  (1) 
0

>  <r_i_glide_evdw>  (1) 
-37.092852384796075

>  <r_i_glide_gscore>  (1) 
-6.2150399047835032

>  <r_i_glide_gscore_strain>  (1) 
0

>  <r_i_glide_hbond>  (1) 
-0.28589254900695232

>  <r_i_glide_ligand_efficiency>  (1) 
-0.1928897241814744

>  <r_i_glide_ligand_efficiency_ln>  (1) 
-1.3821845510249366

>  <r_i_glide_ligand_efficiency_sa>  (1) 
-0.61238670215905677

>  <r_i_glide_lipo>  (1) 
-3.5484728748073455

>  <r_i_glide_metal>  (1) 
-0

>  <r_i_glide_rewards>  (1) 
-1.4161821012464335

>  <r_lp_Energy>  (1) 
26.260809999999999

>  <r_lp_tautomer_probability>  (1) 
0.99990000499974985

>  <s_epik_cmdline>  (1) 
J2VwaWtfcHl0aG9uJywgJy1waHQnLCAnMS4wJywgJy1waCcsICc3LjQnLCAnLXRuJywgJzgnLCAnLW1hJywgJzUwMCcsICctaW1hZScsICc8aW5maWxlLm1hZT4nLCAnLW9tYWUnLCAnPG91dGZpbGUubWFlPic=

>  <s_epik_input>  (1) 
Tz1DKFtPSF0pW0NIMl1bQ0BASF0oW0NIMl1bT0hdKVtDSDJdW0NIMl1bTkhdW0NASF0oW0NIMl1bQ0gyXVtDSDJdW0NIMl0xKVtDSDJdTjFbQ0gyXVtDSDJdW0NIMl1bQ0gyXVtDSDJdW0NASF0oW0NIM10pQyg9TylbQ0gyXS9bQ0hdPUMoW0NIM10pXE9bQ0gzXQ==

>  <s_glide_docking_method>  (1) 
confgen

>  <s_i_glide_gridfile>  (1) 
gpcr_5ht2c_6bqh_protein_autoprepared_prepared

>  <s_lp_Force_Field>  (1) 
S-OPLS

>  <s_lp_Variant>  (1) 
DiffSBDD_48-3

>  <s_m_source_file>  (1) 
generated_GPCR_5HT2C_ligand_DiffSBDD_2026-06-23_prepared.sdf

>  <GenAI_Model>  (1) 
DiffSBDD

>  <Protein>  (1) 
GPCR_5HT2C

$$$$
DiffSBDD_46
     RDKit          3D

  0  0  0  0  0  0  0  0  0  0999 V3000
M  V30 BEGIN CTAB
M  V30 COUNTS 54 56 0 0 1
M  V30 BEGIN ATOM
M  V30 1 C 39.845564 34.165353 60.611617 0
M  V30 2 C 38.437714 33.628964 60.533056 0 CFG=1
M  V30 3 C 38.271432 29.274217 56.652059 0
M  V30 4 C 36.987555 36.269382 61.666806 0
M  V30 5 C 41.141633 30.343858 49.990938 0
M  V30 6 C 37.977909 32.367079 61.262313 0 CFG=2
M  V30 7 C 40.275793 30.198871 63.003164 0
M  V30 8 C 37.695058 29.624433 58.031046 0
M  V30 9 O 38.878926 32.004808 62.298614 0
M  V30 10 C 39.731922 29.461705 51.744512 0
M  V30 11 O 38.445138 27.462805 51.367760 0
M  V30 12 C 38.364389 35.981061 61.062581 0
M  V30 13 C 36.034554 38.569900 62.079643 0
M  V30 14 C 38.743835 28.537772 52.155595 0
M  V30 15 C 36.457079 37.619816 61.231220 0
M  V30 16 N 38.845074 30.137830 61.009296 0
M  V30 17 N 38.805921 34.661728 61.494757 0
M  V30 18 S 38.269067 31.243459 58.632150 0
M  V30 19 C 40.038498 30.571602 52.569876 0
M  V30 20 C 38.061353 28.728483 53.375623 0
M  V30 21 O 40.385038 29.271496 50.542702 0
M  V30 22 C 39.280267 30.748234 62.010897 0
M  V30 23 C 37.627012 30.054406 55.497855 0
M  V30 24 C 38.365077 29.841131 54.188721 0
M  V30 25 C 37.912210 31.057028 60.406441 0 CFG=2
M  V30 26 C 39.355099 30.757279 53.785559 0
M  V30 27 H 40.604927 33.515655 61.041361 0
M  V30 28 H 40.191004 34.817521 59.811777 0
M  V30 29 H 37.818764 33.924811 59.686903 0
M  V30 30 H 39.347677 29.451848 56.664715 0
M  V30 31 H 38.142329 28.207193 56.468091 0
M  V30 32 H 36.292705 35.495391 61.340261 0
M  V30 33 H 37.028395 36.219229 62.755888 0
M  V30 34 H 41.456724 30.082669 48.981666 0
M  V30 35 H 42.046257 30.537512 50.567760 0
M  V30 36 H 40.552593 31.259524 49.919665 0
M  V30 37 H 37.001284 32.566463 61.706685 0
M  V30 38 H 40.524705 29.163844 62.766248 0
M  V30 39 H 39.857988 30.228540 64.009725 0
M  V30 40 H 41.190205 30.791516 62.986124 0
M  V30 41 H 36.604417 29.605968 58.018984 0
M  V30 42 H 38.016626 28.863174 58.741758 0
M  V30 43 H 38.317944 36.069525 59.976182 0
M  V30 44 H 39.083993 36.722235 61.412316 0
M  V30 45 H 36.052689 38.412206 63.148274 0
M  V30 46 H 35.664760 39.517350 61.713544 0
M  V30 47 H 36.426447 37.803432 60.167856 0
M  V30 48 H 40.791024 31.284722 52.271353 0
M  V30 49 H 37.303815 28.023894 53.686870 0
M  V30 50 H 37.664972 26.986037 51.616924 0
M  V30 51 H 36.581875 29.765645 55.380785 0
M  V30 52 H 37.616246 31.121790 55.724937 0
M  V30 53 H 36.904918 30.643914 60.484252 0
M  V30 54 H 39.588989 31.608070 54.409132 0
M  V30 END ATOM
M  V30 BEGIN BOND
M  V30 1 1 2 1
M  V30 2 1 6 2
M  V30 3 1 8 3
M  V30 4 1 9 6
M  V30 5 1 12 4
M  V30 6 1 14 10
M  V30 7 1 14 11
M  V30 8 1 15 4
M  V30 9 2 15 13
M  V30 10 1 17 1
M  V30 11 1 17 2
M  V30 12 1 17 12
M  V30 13 1 18 8
M  V30 14 2 19 10
M  V30 15 2 20 14
M  V30 16 1 21 5
M  V30 17 1 21 10
M  V30 18 1 22 7
M  V30 19 1 22 9
M  V30 20 2 22 16
M  V30 21 1 23 3
M  V30 22 1 24 20
M  V30 23 1 24 23
M  V30 24 1 25 6
M  V30 25 1 25 16
M  V30 26 1 25 18
M  V30 27 1 26 19
M  V30 28 2 26 24
M  V30 29 1 27 1
M  V30 30 1 28 1
M  V30 31 1 2 29 CFG=3
M  V30 32 1 30 3
M  V30 33 1 31 3
M  V30 34 1 32 4
M  V30 35 1 33 4
M  V30 36 1 34 5
M  V30 37 1 35 5
M  V30 38 1 36 5
M  V30 39 1 6 37 CFG=1
M  V30 40 1 38 7
M  V30 41 1 39 7
M  V30 42 1 40 7
M  V30 43 1 41 8
M  V30 44 1 42 8
M  V30 45 1 43 12
M  V30 46 1 44 12
M  V30 47 1 45 13
M  V30 48 1 46 13
M  V30 49 1 47 15
M  V30 50 1 48 19
M  V30 51 1 49 20
M  V30 52 1 50 11
M  V30 53 1 51 23
M  V30 54 1 52 23
M  V30 55 1 25 53 CFG=3
M  V30 56 1 54 26
M  V30 END BOND
M  V30 END CTAB
M  END
>  <i_epik_Tot_Q>  (1) 
0

>  <i_epik_Tot_abs_Q>  (1) 
0

>  <i_i_glide_confnum>  (1) 
330

>  <i_i_glide_lignum>  (1) 
97

>  <i_i_glide_posenum>  (1) 
242

>  <i_i_glide_rotatable_bonds>  (1) 
11

>  <i_lp_mmshare_version>  (1) 
72125

>  <i_m_source_file_index>  (1) 
47

>  <i_f3d_flags>  (1) 
0

>  <num_sample>  (1) 
50

>  <b_lp_Chiralities_Consistent>  (1) 
1

>  <r_epik_Charging_Adjusted_Penalty>  (1) 
0.059256753965672836

>  <r_epik_Ionization_Penalty>  (1) 
0.061027430801307576

>  <r_epik_Ionization_Penalty_Charging>  (1) 
0

>  <r_epik_Ionization_Penalty_Neutral>  (1) 
0.061027430801307576

>  <r_epik_State_Penalty>  (1) 
0.059256753965672836

>  <r_glide_ring_energy>  (1) 
0

>  <r_i_docking_score>  (1) 
-6.1610143603620999

>  <r_i_glide_ecoul>  (1) 
-2.6213866041882801

>  <r_i_glide_eff_state_penalty>  (1) 
0.059256753965672836

>  <r_i_glide_einternal>  (1) 
3.7467061406619235

>  <r_i_glide_emodel>  (1) 
-59.180545011957463

>  <r_i_glide_emodel_strain>  (1) 
0.20779727020904204

>  <r_i_glide_energy>  (1) 
-45.719341502052636

>  <r_i_glide_erotb>  (1) 
1.2289544219816615

>  <r_i_glide_esite>  (1) 
0

>  <r_i_glide_evdw>  (1) 
-43.097954897864355

>  <r_i_glide_gscore>  (1) 
-6.2202711143277725

>  <r_i_glide_gscore_strain>  (1) 
0

>  <r_i_glide_hbond>  (1) 
-0.27621888791932842

>  <r_i_glide_ligand_efficiency>  (1) 
-0.23696209078315769

>  <r_i_glide_ligand_efficiency_ln>  (1) 
-1.446894006594037

>  <r_i_glide_ligand_efficiency_sa>  (1) 
-0.70199926230669518

>  <r_i_glide_lipo>  (1) 
-3.0254446902720873

>  <r_i_glide_metal>  (1) 
-0

>  <r_i_glide_rewards>  (1) 
-1.5994562225965585

>  <r_lp_Energy>  (1) 
9.3116819999999993

>  <r_lp_tautomer_probability>  (1) 
0.99960115913750414

>  <s_epik_Chemistry_Notes>  (1) 
This compound has an imine and may undergo hydrolysis. This compound contains an acetal/aminal-like group ( X-CH(R)-Y where X, Y are N, S, or O) that may be acid/base labile, releasing an aldehyde.

>  <s_epik_cmdline>  (1) 
J2VwaWtfcHl0aG9uJywgJy1waHQnLCAnMS4wJywgJy1waCcsICc3LjQnLCAnLXRuJywgJzgnLCAnLW1hJywgJzUwMCcsICctaW1hZScsICc8aW5maWxlLm1hZT4nLCAnLW9tYWUnLCAnPG91dGZpbGUubWFlPic=

>  <s_epik_input>  (1) 
W0NIMl09W0NIXVtDSDJdW0NIMl1OMVtDSDJdW0NASF0xW0NAQEhdMk9DKFtDSDNdKT1OW0NAQEhdMlNbQ0gyXVtDSDJdW0NIMl1DKFtDSDJdQzM9Tyk9W0NIXVtDSF09QzNPW0NIM10=

>  <s_glide_docking_method>  (1) 
confgen

>  <s_i_glide_gridfile>  (1) 
gpcr_5ht2c_6bqh_protein_autoprepared_prepared

>  <s_lp_Force_Field>  (1) 
S-OPLS

>  <s_lp_Variant>  (1) 
DiffSBDD_46-1

>  <s_m_source_file>  (1) 
generated_GPCR_5HT2C_ligand_DiffSBDD_2026-06-23_prepared.sdf

>  <GenAI_Model>  (1) 
DiffSBDD

>  <Protein>  (1) 
GPCR_5HT2C

$$$$
DiffSBDD_13
     RDKit          3D

  0  0  0  0  0  0  0  0  0  0999 V3000
M  V30 BEGIN CTAB
M  V30 COUNTS 80 81 0 0 1
M  V30 BEGIN ATOM
M  V30 1 N 37.457031 30.462618 58.976138 0
M  V30 2 C 38.464866 26.885956 58.044745 0 CFG=2
M  V30 3 O 43.169209 28.796401 66.511851 0
M  V30 4 C 39.052353 31.047993 54.097334 0
M  V30 5 C 36.912217 25.333608 56.547480 0
M  V30 6 C 41.645769 28.937766 58.721698 0
M  V30 7 C 41.163618 32.465791 67.027007 0
M  V30 8 C 38.981326 28.270868 59.955277 0
M  V30 9 C 38.061127 26.537739 53.333696 0
M  V30 10 O 41.245142 28.892359 60.087078 0
M  V30 11 C 39.955514 29.372152 60.397337 0 CFG=2
M  V30 12 N 38.551915 28.295732 58.554333 0
M  V30 13 O 45.245051 28.693398 65.448387 0
M  V30 14 C 38.853318 27.253500 52.150361 0
M  V30 15 C 38.350778 28.738040 53.967198 0
M  V30 16 C 42.904995 31.720535 65.584513 0 CFG=1
M  V30 17 C 38.374573 29.956190 54.658973 0
M  V30 18 C 39.865474 26.290788 57.795651 0
M  V30 19 C 37.696618 27.533313 54.499847 0 CFG=2
M  V30 20 C 40.745791 30.780767 62.390753 0
M  V30 21 C 41.153609 30.733832 63.875038 0
M  V30 22 C 37.329570 29.130864 58.403890 0
M  V30 23 C 43.981735 29.316153 65.486092 0
M  V30 24 C 42.233747 31.789386 64.189454 0
M  V30 25 O 38.388374 27.132965 55.662267 0
M  V30 26 C 37.633754 26.683492 56.767720 0 CFG=2
M  V30 27 C 39.864914 24.868018 57.248941 0
M  V30 28 C 39.645192 29.665008 52.167157 0
M  V30 29 F 39.091510 32.227002 54.755054 0
M  V30 30 O 41.983119 31.382200 66.613008 0
M  V30 31 C 38.957172 28.596383 52.764043 0
M  V30 32 C 44.167315 30.828919 65.690304 0
M  V30 33 C 39.696025 30.904937 52.842992 0
M  V30 34 O 36.121244 30.865574 59.367763 0
M  V30 35 C 39.918377 29.570015 61.926226 0
M  V30 36 H 37.966702 30.531325 59.843986 0
M  V30 37 H 37.996025 26.279385 58.817082 0
M  V30 38 H 42.466289 29.414510 66.665871 0
M  V30 39 H 36.509996 24.947845 57.484714 0
M  V30 40 H 36.069639 25.457216 55.870371 0
M  V30 41 H 37.531905 24.561197 56.100737 0
M  V30 42 H 42.427086 29.679231 58.567776 0
M  V30 43 H 42.084990 27.976647 58.456915 0
M  V30 44 H 40.847687 29.165883 58.017157 0
M  V30 45 H 40.510112 32.135243 67.833606 0
M  V30 46 H 41.761478 33.296214 67.406033 0
M  V30 47 H 40.537143 32.833228 66.213402 0
M  V30 48 H 38.091870 28.277762 60.567731 0
M  V30 49 H 39.469880 27.337747 60.202224 0
M  V30 50 H 38.663009 25.737813 53.767697 0
M  V30 51 H 37.145907 26.082049 52.967843 0
M  V30 52 H 39.789393 30.327968 59.904257 0
M  V30 53 H 45.783388 29.008881 66.162363 0
M  V30 54 H 38.281848 27.289641 51.222349 0
M  V30 55 H 39.833634 26.815119 51.976254 0
M  V30 56 H 43.283314 32.724563 65.788543 0
M  V30 57 H 37.887842 30.053936 55.612245 0
M  V30 58 H 40.416739 26.922798 57.098247 0
M  V30 59 H 40.445124 26.294630 58.706979 0
M  V30 60 H 36.621933 27.675746 54.567747 0
M  V30 61 H 41.644982 30.839171 61.783728 0
M  V30 62 H 40.199376 31.701293 62.183962 0
M  V30 63 H 40.277067 30.888096 64.506216 0
M  V30 64 H 41.517132 29.737450 64.110672 0
M  V30 65 H 36.459872 28.631317 58.811807 0
M  V30 66 H 37.101358 29.302928 57.356174 0
M  V30 67 H 43.519453 29.117039 64.522023 0
M  V30 68 H 43.011909 31.739050 63.430960 0
M  V30 69 H 41.781303 32.773815 64.070020 0
M  V30 70 H 36.845136 27.337792 56.967774 0
M  V30 71 H 40.844999 24.456639 57.367677 0
M  V30 72 H 39.168067 24.211901 57.767741 0
M  V30 73 H 39.663453 24.843893 56.178442 0
M  V30 74 H 40.132492 29.540476 51.210063 0
M  V30 75 H 44.896694 31.185821 64.967905 0
M  V30 76 H 44.628949 30.999687 66.663233 0
M  V30 77 H 40.220645 31.737710 52.403373 0
M  V30 78 H 35.874801 31.447010 58.648165 0
M  V30 79 H 38.891147 29.698546 62.270443 0
M  V30 80 H 40.280938 28.657073 62.402468 0
M  V30 END ATOM
M  V30 BEGIN BOND
M  V30 1 1 10 6
M  V30 2 1 11 8
M  V30 3 1 11 10
M  V30 4 1 12 2
M  V30 5 1 12 8
M  V30 6 1 14 9
M  V30 7 2 17 4
M  V30 8 1 17 15
M  V30 9 1 18 2
M  V30 10 1 19 9
M  V30 11 1 19 15
M  V30 12 1 21 20
M  V30 13 1 22 1
M  V30 14 1 22 12
M  V30 15 1 23 3
M  V30 16 1 23 13
M  V30 17 1 24 16
M  V30 18 1 24 21
M  V30 19 1 25 19
M  V30 20 1 26 2
M  V30 21 1 26 5
M  V30 22 1 26 25
M  V30 23 1 27 18
M  V30 24 1 29 4
M  V30 25 1 30 7
M  V30 26 1 30 16
M  V30 27 1 31 14
M  V30 28 2 31 15
M  V30 29 1 31 28
M  V30 30 1 32 16
M  V30 31 1 32 23
M  V30 32 1 33 4
M  V30 33 2 33 28
M  V30 34 1 34 1
M  V30 35 1 35 11
M  V30 36 1 35 20
M  V30 37 1 36 1
M  V30 38 1 2 37 CFG=1
M  V30 39 1 38 3
M  V30 40 1 39 5
M  V30 41 1 40 5
M  V30 42 1 41 5
M  V30 43 1 42 6
M  V30 44 1 43 6
M  V30 45 1 44 6
M  V30 46 1 45 7
M  V30 47 1 46 7
M  V30 48 1 47 7
M  V30 49 1 48 8
M  V30 50 1 49 8
M  V30 51 1 50 9
M  V30 52 1 51 9
M  V30 53 1 11 52 CFG=3
M  V30 54 1 53 13
M  V30 55 1 54 14
M  V30 56 1 55 14
M  V30 57 1 16 56 CFG=1
M  V30 58 1 57 17
M  V30 59 1 58 18
M  V30 60 1 59 18
M  V30 61 1 19 60 CFG=1
M  V30 62 1 61 20
M  V30 63 1 62 20
M  V30 64 1 63 21
M  V30 65 1 64 21
M  V30 66 1 65 22
M  V30 67 1 66 22
M  V30 68 1 67 23
M  V30 69 1 68 24
M  V30 70 1 69 24
M  V30 71 1 26 70 CFG=1
M  V30 72 1 71 27
M  V30 73 1 72 27
M  V30 74 1 73 27
M  V30 75 1 74 28
M  V30 76 1 75 32
M  V30 77 1 76 32
M  V30 78 1 77 33
M  V30 79 1 78 34
M  V30 80 1 79 35
M  V30 81 1 80 35
M  V30 END BOND
M  V30 END CTAB
M  END
>  <i_epik_Tot_Q>  (1) 
0

>  <i_epik_Tot_abs_Q>  (1) 
0

>  <i_i_glide_confnum>  (1) 
6608

>  <i_i_glide_lignum>  (1) 
26

>  <i_i_glide_posenum>  (1) 
140

>  <i_i_glide_rotatable_bonds>  (1) 
21

>  <i_lp_mmshare_version>  (1) 
72125

>  <i_m_source_file_index>  (1) 
14

>  <i_f3d_flags>  (1) 
0

>  <num_sample>  (1) 
50

>  <b_lp_Chiralities_Consistent>  (1) 
1

>  <r_epik_Charging_Adjusted_Penalty>  (1) 
0.6814092300501583

>  <r_epik_Ionization_Penalty>  (1) 
0.68170603093061677

>  <r_epik_Ionization_Penalty_Charging>  (1) 
0

>  <r_epik_Ionization_Penalty_Neutral>  (1) 
0.68170603093061677

>  <r_epik_State_Penalty>  (1) 
0.6814092300501583

>  <r_glide_ring_energy>  (1) 
0

>  <r_i_docking_score>  (1) 
-6.1521110872368414

>  <r_i_glide_ecoul>  (1) 
-5.0341402260875121

>  <r_i_glide_eff_state_penalty>  (1) 
0.6814092300501583

>  <r_i_glide_einternal>  (1) 
9.5690026450909365

>  <r_i_glide_emodel>  (1) 
-44.409166653811027

>  <r_i_glide_emodel_strain>  (1) 
4.3563151280194603

>  <r_i_glide_energy>  (1) 
-33.839697919679452

>  <r_i_glide_erotb>  (1) 
1.1405850695777229

>  <r_i_glide_esite>  (1) 
-0.1692336964833791

>  <r_i_glide_evdw>  (1) 
-28.805557693591943

>  <r_i_glide_gscore>  (1) 
-6.8335203172869994

>  <r_i_glide_gscore_strain>  (1) 
0.089078782004865076

>  <r_i_glide_hbond>  (1) 
-0.35615530967783648

>  <r_i_glide_ligand_efficiency>  (1) 
-0.1757746024924812

>  <r_i_glide_ligand_efficiency_ln>  (1) 
-1.3505249223975548

>  <r_i_glide_ligand_efficiency_sa>  (1) 
-0.57497038039994663

>  <r_i_glide_lipo>  (1) 
-4.6288982707797075

>  <r_i_glide_metal>  (1) 
-0

>  <r_i_glide_rewards>  (1) 
-0.71349797333594123

>  <r_lp_Energy>  (1) 
18.435863999999999

>  <s_epik_Chemistry_Notes>  (1) 
This compound contains an acetal/aminal-like group ( X-CH(R)-Y where X, Y are N, S, or O) that may be acid/base labile, releasing an aldehyde. This compound has a N-S or N-O group and may undergo hydrolysis at high or low pH.

>  <s_epik_cmdline>  (1) 
J2VwaWtfcHl0aG9uJywgJy1waHQnLCAnMS4wJywgJy1waCcsICc3LjQnLCAnLXRuJywgJzgnLCAnLW1hJywgJzUwMCcsICctaW1hZScsICc8aW5maWxlLm1hZT4nLCAnLW9tYWUnLCAnPG91dGZpbGUubWFlPic=

>  <s_epik_input>  (1) 
W09IXVtDSF0oW09IXSlbQ0gyXVtDQEhdKE9bQ0gzXSlbQ0gyXVtDSDJdW0NIMl1bQ0gyXVtDQEBIXShPW0NIM10pW0NIMl1OKFtDSDJdW05IXVtPSF0pW0NASF0oW0NIMl1bQ0gzXSlbQ0BIXShbQ0gzXSlPW0NAQEhdMVtDSDJdW0NIMl1jKGMxMilbY0hdW2NIXWMoRilbY0hdMg==

>  <s_glide_docking_method>  (1) 
confgen

>  <s_i_glide_gridfile>  (1) 
gpcr_5ht2c_6bqh_protein_autoprepared_prepared

>  <s_lp_Force_Field>  (1) 
S-OPLS

>  <s_lp_Variant>  (1) 
DiffSBDD_13-3

>  <s_m_source_file>  (1) 
generated_GPCR_5HT2C_ligand_DiffSBDD_2026-06-23_prepared.sdf

>  <GenAI_Model>  (1) 
DiffSBDD

>  <Protein>  (1) 
GPCR_5HT2C

$$$$
DiffSBDD_1
     RDKit          3D

  0  0  0  0  0  0  0  0  0  0999 V3000
M  V30 BEGIN CTAB
M  V30 COUNTS 78 81 0 0 1
M  V30 BEGIN ATOM
M  V30 1 C 39.515278 29.415892 59.534947 0
M  V30 2 N 39.136450 28.011743 55.523727 0
M  V30 3 C 37.882931 31.581914 54.970661 0 CFG=1
M  V30 4 C 39.082970 31.509945 54.012798 0
M  V30 5 C 40.931631 32.311746 67.646674 0
M  V30 6 C 39.363815 30.159866 62.654236 0
M  V30 7 C 37.704447 30.171338 55.555915 0
M  V30 8 C 39.062654 29.482530 55.314468 0 CFG=2
M  V30 9 C 42.710878 33.176431 65.291240 0
M  V30 10 N 40.495033 29.808607 61.809393 0
M  V30 11 O 43.645202 25.838324 66.485551 0
M  V30 12 C 40.473840 29.274551 63.165352 0 CFG=1
M  V30 13 C 41.752994 32.295108 64.582010 0 CFG=1
M  V30 14 O 42.367825 31.392480 63.561317 0
M  V30 15 C 43.573402 28.030526 67.377800 0
M  V30 16 C 39.004865 32.468107 56.958239 0
M  V30 17 C 41.484027 31.172501 65.468049 0
M  V30 18 C 40.212374 27.542417 56.423546 0
M  V30 19 C 43.173321 27.526803 64.872360 0
M  V30 20 O 40.928737 29.930800 67.303853 0
M  V30 21 O 37.367264 27.508075 54.167760 0
M  V30 22 C 43.411530 28.953300 64.340021 0
M  V30 23 O 38.045152 32.635914 55.924931 0
M  V30 24 O 42.040746 35.337779 65.954438 0
M  V30 25 P 41.797279 29.909029 64.296184 0 CFG=1 CHG=1
M  V30 26 C 43.945370 27.177786 66.158378 0 CFG=2
M  V30 27 C 41.134789 31.138293 66.764618 0
M  V30 28 C 39.246012 29.355426 52.684039 0
M  V30 29 O 40.116585 28.985147 58.324161 0
M  V30 30 C 38.260870 27.143484 54.930485 0
M  V30 31 C 38.419076 25.652321 55.248324 0
M  V30 32 C 41.257662 33.623750 67.406893 0
M  V30 33 C 41.981857 34.137700 66.205599 0
M  V30 34 C 39.810977 27.661777 57.908294 0
M  V30 35 C 39.612386 30.072858 53.995731 0 CFG=1
M  V30 36 C 40.167034 28.808019 60.789752 0
M  V30 37 H 38.440315 29.230497 59.523322 0
M  V30 38 H 39.625744 30.499756 59.561095 0
M  V30 39 H 36.989325 31.827611 54.397048 0
M  V30 40 H 38.845123 31.890863 53.019866 0
M  V30 41 H 39.875557 32.137750 54.399382 0
M  V30 42 H 40.445105 32.119091 68.589541 0
M  V30 43 H 38.436186 29.737676 62.280064 0
M  V30 44 H 39.375736 31.222875 62.885495 0
M  V30 45 H 36.894457 29.698751 55.006032 0
M  V30 46 H 37.399733 30.171959 56.602073 0
M  V30 47 H 39.709351 29.917117 56.075030 0
M  V30 48 H 43.463999 32.619205 65.850466 0
M  V30 49 H 43.245128 33.795985 64.571984 0
M  V30 50 H 43.970191 25.277319 65.797568 0
M  V30 51 H 40.286577 28.202240 63.173592 0
M  V30 52 H 40.884796 32.813586 64.169967 0
M  V30 53 H 43.735416 29.093592 67.199787 0
M  V30 54 H 42.529859 27.884804 67.654715 0
M  V30 55 H 44.179706 27.753396 68.240640 0
M  V30 56 H 39.000288 33.350945 57.594519 0
M  V30 57 H 38.774532 31.618980 57.598713 0
M  V30 58 H 40.014151 32.352859 56.567366 0
M  V30 59 H 41.113438 28.130934 56.242663 0
M  V30 60 H 40.535839 26.525051 56.211700 0
M  V30 61 H 42.108496 27.360624 65.042388 0
M  V30 62 H 43.452126 26.821287 64.086790 0
M  V30 63 H 40.646313 30.046831 68.199711 0
M  V30 64 H 43.835590 28.903432 63.338529 0
M  V30 65 H 44.147860 29.485687 64.941212 0
M  V30 66 H 45.018204 27.257566 65.973493 0
M  V30 67 H 38.166640 29.320545 52.536164 0
M  V30 68 H 39.672619 29.876544 51.826475 0
M  V30 69 H 39.629353 28.335557 52.657336 0
M  V30 70 H 39.334871 25.252306 54.813193 0
M  V30 71 H 38.412283 25.468401 56.322902 0
M  V30 72 H 37.585851 25.094808 54.818933 0
M  V30 73 H 40.990397 34.360361 68.151208 0
M  V30 74 H 40.381693 26.958868 58.515791 0
M  V30 75 H 38.753481 27.427996 58.043732 0
M  V30 76 H 40.698512 30.137752 54.054393 0
M  V30 77 H 41.091280 28.305569 60.501212 0
M  V30 78 H 39.516001 28.024012 61.180959 0
M  V30 END ATOM
M  V30 BEGIN BOND
M  V30 1 1 4 3
M  V30 2 1 7 3
M  V30 3 1 8 2
M  V30 4 1 8 7
M  V30 5 1 10 6
M  V30 6 1 12 6
M  V30 7 1 12 10
M  V30 8 1 13 9
M  V30 9 1 14 13
M  V30 10 1 17 13
M  V30 11 1 18 2
M  V30 12 1 22 19
M  V30 13 1 23 3
M  V30 14 1 23 16
M  V30 15 1 25 12
M  V30 16 1 25 14
M  V30 17 1 25 17
M  V30 18 1 25 22 CFG=1
M  V30 19 1 26 11
M  V30 20 1 26 15
M  V30 21 1 26 19
M  V30 22 1 27 5
M  V30 23 2 27 17
M  V30 24 1 27 20
M  V30 25 1 29 1
M  V30 26 1 30 2
M  V30 27 2 30 21
M  V30 28 1 31 30
M  V30 29 2 32 5
M  V30 30 1 33 9
M  V30 31 2 33 24
M  V30 32 1 33 32
M  V30 33 1 34 18
M  V30 34 1 34 29
M  V30 35 1 35 4
M  V30 36 1 35 8
M  V30 37 1 35 28
M  V30 38 1 36 1
M  V30 39 1 36 10
M  V30 40 1 37 1
M  V30 41 1 38 1
M  V30 42 1 3 39 CFG=3
M  V30 43 1 40 4
M  V30 44 1 41 4
M  V30 45 1 42 5
M  V30 46 1 43 6
M  V30 47 1 44 6
M  V30 48 1 45 7
M  V30 49 1 46 7
M  V30 50 1 8 47 CFG=1
M  V30 51 1 48 9
M  V30 52 1 49 9
M  V30 53 1 50 11
M  V30 54 1 12 51 CFG=3
M  V30 55 1 13 52 CFG=3
M  V30 56 1 53 15
M  V30 57 1 54 15
M  V30 58 1 55 15
M  V30 59 1 56 16
M  V30 60 1 57 16
M  V30 61 1 58 16
M  V30 62 1 59 18
M  V30 63 1 60 18
M  V30 64 1 61 19
M  V30 65 1 62 19
M  V30 66 1 63 20
M  V30 67 1 64 22
M  V30 68 1 65 22
M  V30 69 1 26 66 CFG=3
M  V30 70 1 67 28
M  V30 71 1 68 28
M  V30 72 1 69 28
M  V30 73 1 70 31
M  V30 74 1 71 31
M  V30 75 1 72 31
M  V30 76 1 73 32
M  V30 77 1 74 34
M  V30 78 1 75 34
M  V30 79 1 35 76 CFG=1
M  V30 80 1 77 36
M  V30 81 1 78 36
M  V30 END BOND
M  V30 END CTAB
M  END
>  <i_epik_Tot_Q>  (1) 
1

>  <i_epik_Tot_abs_Q>  (1) 
1

>  <i_i_glide_confnum>  (1) 
6011

>  <i_i_glide_lignum>  (1) 
8

>  <i_i_glide_posenum>  (1) 
268

>  <i_i_glide_rotatable_bonds>  (1) 
15

>  <i_lp_mmshare_version>  (1) 
72125

>  <i_m_source_file_index>  (1) 
2

>  <i_f3d_flags>  (1) 
0

>  <num_sample>  (1) 
50

>  <b_lp_Chiralities_Consistent>  (1) 
1

>  <r_epik_Charging_Adjusted_Penalty>  (1) 
0.012777702237649643

>  <r_epik_Ionization_Penalty>  (1) 
0.012893064322698497

>  <r_epik_Ionization_Penalty_Charging>  (1) 
0

>  <r_epik_Ionization_Penalty_Neutral>  (1) 
0.012893064322698497

>  <r_epik_State_Penalty>  (1) 
0.012777702237649643

>  <r_glide_ring_energy>  (1) 
1.0866904989986343

>  <r_i_docking_score>  (1) 
-6.1493709446853169

>  <r_i_glide_ecoul>  (1) 
-2.3213267481867677

>  <r_i_glide_eff_state_penalty>  (1) 
0.012777702237649643

>  <r_i_glide_einternal>  (1) 
20.555076171340627

>  <r_i_glide_emodel>  (1) 
-57.084240178540895

>  <r_i_glide_emodel_strain>  (1) 
1.242471168057051

>  <r_i_glide_energy>  (1) 
-48.633824788927221

>  <r_i_glide_erotb>  (1) 
0.81958699115176215

>  <r_i_glide_esite>  (1) 
0

>  <r_i_glide_evdw>  (1) 
-46.312498040740451

>  <r_i_glide_gscore>  (1) 
-6.1621486469229669

>  <r_i_glide_gscore_strain>  (1) 
0

>  <r_i_glide_hbond>  (1) 
-0.11061118796488226

>  <r_i_glide_ligand_efficiency>  (1) 
-0.17081585957459214

>  <r_i_glide_ligand_efficiency_ln>  (1) 
-1.3416266033268842

>  <r_i_glide_ligand_efficiency_sa>  (1) 
-0.56402154127270399

>  <r_i_glide_lipo>  (1) 
-3.1858138182635325

>  <r_i_glide_metal>  (1) 
-0

>  <r_i_glide_rewards>  (1) 
-1.0214867175812754

>  <r_lp_Energy>  (1) 
26.969071

>  <s_epik_cmdline>  (1) 
J2VwaWtfcHl0aG9uJywgJy1waHQnLCAnMS4wJywgJy1waCcsICc3LjQnLCAnLXRuJywgJzgnLCAnLW1hJywgJzUwMCcsICctaW1hZScsICc8aW5maWxlLm1hZT4nLCAnLW9tYWUnLCAnPG91dGZpbGUubWFlPic=

>  <s_epik_input>  (1) 
W0NIM11PW0NASF0xW0NIMl1bQ0BIXShbQ0gzXSlbQ0BASF0oW0NIMl0xKU4oQyg9TylbQ0gzXSlbQ0gyXVtDSDJdT1tDSDJdW0NIMl1OMltDSDJdW0NIXTJbUEBAK10oTzMpKFtDSDJdW0NIMl1bQ0BIXShbT0hdKVtDSDNdKUMoW0NAQEhdMzQpPUMoW09IXSlbQ0hdPVtDSF1DKD1PKVtDSDJdNA==

>  <s_glide_docking_method>  (1) 
confgen

>  <s_i_glide_gridfile>  (1) 
gpcr_5ht2c_6bqh_protein_autoprepared_prepared

>  <s_lp_Force_Field>  (1) 
S-OPLS

>  <s_lp_Variant>  (1) 
DiffSBDD_1-4

>  <s_m_source_file>  (1) 
generated_GPCR_5HT2C_ligand_DiffSBDD_2026-06-23_prepared.sdf

>  <GenAI_Model>  (1) 
DiffSBDD

>  <Protein>  (1) 
GPCR_5HT2C

$$$$
DiffSBDD_0
     RDKit          3D

  0  0  0  0  0  0  0  0  0  0999 V3000
M  V30 BEGIN CTAB
M  V30 COUNTS 73 75 0 0 1
M  V30 BEGIN ATOM
M  V30 1 C 38.986194 28.814115 51.651079 0
M  V30 2 C 38.665217 26.141576 54.565090 0
M  V30 3 O 38.044689 38.731968 60.651323 0
M  V30 4 C 38.986504 29.009137 54.147763 0
M  V30 5 C 38.378785 31.936922 59.728507 0 CFG=2
M  V30 6 C 38.619553 32.512050 55.913311 0
M  V30 7 C 39.209742 37.141381 61.981541 0
M  V30 8 C 39.181120 35.627167 62.348642 0 CFG=1
M  V30 9 C 40.729198 33.791036 63.184377 0
M  V30 10 C 38.642152 34.684178 61.227566 0
M  V30 11 N 38.156382 33.399845 61.767612 0
M  V30 12 O 38.351934 30.516932 59.816052 0
M  V30 13 C 38.662509 26.735739 53.135989 0
M  V30 14 C 41.173070 36.029370 63.841796 0
M  V30 15 C 39.039918 29.290137 56.719397 0 CFG=1
M  V30 16 C 37.452470 32.535893 60.823830 0
M  V30 17 C 38.778448 27.169072 55.680014 0
M  V30 18 C 38.927270 28.104192 57.787016 0
M  V30 19 C 37.903937 32.416421 58.332392 0 CFG=1
M  V30 20 C 37.921813 37.729841 61.387388 0
M  V30 21 N 40.552694 35.204571 62.777727 0 CHG=1
M  V30 22 C 41.871936 35.086469 64.822209 0
M  V30 23 F 39.931307 28.196153 50.945341 0
M  V30 24 C 38.919442 28.454875 55.484866 0
M  V30 25 C 38.883614 28.240470 53.049857 0
M  V30 26 O 38.357301 33.636909 58.295080 0 CHG=-1
M  V30 27 N 38.538631 31.710491 57.169887 0 CFG=1 CHG=1
M  V30 28 C 38.756100 26.692413 57.081585 0 CFG=1
M  V30 29 C 37.944492 30.374234 56.877580 0
M  V30 30 C 39.134789 29.980090 60.874005 0
M  V30 31 O 36.846304 37.179003 61.700651 0 CHG=-1
M  V30 32 O 37.530104 26.064217 57.389990 0
M  V30 33 C 41.958347 33.765598 64.075676 0
M  V30 34 H 38.046805 28.675696 51.119657 0
M  V30 35 H 39.246513 29.872770 51.662209 0
M  V30 36 H 39.502627 25.449854 54.669950 0
M  V30 37 H 37.759898 25.551896 54.714895 0
M  V30 38 H 39.139967 30.069494 54.028220 0
M  V30 39 H 39.416139 32.246064 59.887249 0
M  V30 40 H 37.639280 32.884709 55.623469 0
M  V30 41 H 39.282269 33.369196 56.014012 0
M  V30 42 H 39.017158 31.928525 55.087256 0
M  V30 43 H 39.363543 37.724144 62.886684 0
M  V30 44 H 40.074039 37.368498 61.367800 0
M  V30 45 H 38.517638 35.565360 63.203844 0
M  V30 46 H 39.876589 33.444005 63.767682 0
M  V30 47 H 40.847472 33.135769 62.320348 0
M  V30 48 H 39.421167 34.526413 60.480330 0
M  V30 49 H 37.819729 35.156262 60.691961 0
M  V30 50 H 38.930609 32.880589 62.159847 0
M  V30 51 H 37.698751 26.536280 52.666726 0
M  V30 52 H 39.412229 26.214447 52.537427 0
M  V30 53 H 41.890200 36.697432 63.365082 0
M  V30 54 H 40.445522 36.625442 64.387909 0
M  V30 55 H 40.043654 29.720420 56.735681 0
M  V30 56 H 36.626566 33.089938 60.374902 0
M  V30 57 H 36.974476 31.724213 61.371108 0
M  V30 58 H 38.103219 28.265339 58.481215 0
M  V30 59 H 39.829442 28.090650 58.402646 0
M  V30 60 H 36.845260 32.219284 58.296265 0
M  V30 61 H 42.845531 35.462265 65.132599 0
M  V30 62 H 41.262856 34.969654 65.719268 0
M  V30 63 H 39.599167 26.030560 57.277403 0
M  V30 64 H 37.317280 30.439698 55.985931 0
M  V30 65 H 37.236395 30.089048 57.653965 0
M  V30 66 H 39.092683 28.891294 60.840026 0
M  V30 67 H 40.181499 30.269667 60.776068 0
M  V30 68 H 38.771422 30.293205 61.853717 0
M  V30 69 H 36.824482 26.619829 57.095615 0
M  V30 70 H 42.845202 33.739909 63.450076 0
M  V30 71 H 41.982113 32.901772 64.740672 0
M  V30 72 H 41.140983 35.331852 61.966637 0
M  V30 73 H 39.489546 31.563881 57.463528 0
M  V30 END ATOM
M  V30 BEGIN BOND
M  V30 1 1 8 7
M  V30 2 1 10 8
M  V30 3 1 11 10
M  V30 4 1 12 5
M  V30 5 1 13 2
M  V30 6 1 16 5
M  V30 7 1 16 11
M  V30 8 1 17 2
M  V30 9 1 18 15
M  V30 10 1 19 5
M  V30 11 2 20 3
M  V30 12 1 20 7
M  V30 13 1 21 8
M  V30 14 1 21 9
M  V30 15 1 21 14
M  V30 16 1 22 14
M  V30 17 1 23 1
M  V30 18 1 24 4
M  V30 19 1 24 15
M  V30 20 2 24 17
M  V30 21 1 25 1
M  V30 22 2 25 4
M  V30 23 1 25 13
M  V30 24 1 26 19
M  V30 25 1 27 6
M  V30 26 1 27 19
M  V30 27 1 28 17
M  V30 28 1 28 18
M  V30 29 1 29 15
M  V30 30 1 29 27
M  V30 31 1 30 12
M  V30 32 1 31 20
M  V30 33 1 32 28
M  V30 34 1 33 9
M  V30 35 1 33 22
M  V30 36 1 34 1
M  V30 37 1 35 1
M  V30 38 1 36 2
M  V30 39 1 37 2
M  V30 40 1 38 4
M  V30 41 1 5 39 CFG=1
M  V30 42 1 40 6
M  V30 43 1 41 6
M  V30 44 1 42 6
M  V30 45 1 43 7
M  V30 46 1 44 7
M  V30 47 1 8 45 CFG=1
M  V30 48 1 46 9
M  V30 49 1 47 9
M  V30 50 1 48 10
M  V30 51 1 49 10
M  V30 52 1 50 11
M  V30 53 1 51 13
M  V30 54 1 52 13
M  V30 55 1 53 14
M  V30 56 1 54 14
M  V30 57 1 15 55 CFG=3
M  V30 58 1 56 16
M  V30 59 1 57 16
M  V30 60 1 58 18
M  V30 61 1 59 18
M  V30 62 1 19 60 CFG=1
M  V30 63 1 61 22
M  V30 64 1 62 22
M  V30 65 1 28 63 CFG=3
M  V30 66 1 64 29
M  V30 67 1 65 29
M  V30 68 1 66 30
M  V30 69 1 67 30
M  V30 70 1 68 30
M  V30 71 1 69 32
M  V30 72 1 70 33
M  V30 73 1 71 33
M  V30 74 1 72 21
M  V30 75 1 27 73 CFG=1
M  V30 END BOND
M  V30 END CTAB
M  END
>  <i_epik_Tot_Q>  (1) 
0

>  <i_epik_Tot_abs_Q>  (1) 
4

>  <i_i_glide_confnum>  (1) 
14

>  <i_i_glide_lignum>  (1) 
2

>  <i_i_glide_posenum>  (1) 
357

>  <i_i_glide_rotatable_bonds>  (1) 
14

>  <i_lp_mmshare_version>  (1) 
72125

>  <i_m_source_file_index>  (1) 
1

>  <i_f3d_flags>  (1) 
0

>  <num_sample>  (1) 
50

>  <b_lp_Chiralities_Consistent>  (1) 
1

>  <r_epik_Charging_Adjusted_Penalty>  (1) 
0.35910314693592993

>  <r_epik_Ionization_Penalty>  (1) 
0.058337682991089858

>  <r_epik_Ionization_Penalty_Charging>  (1) 
0.0030320954189955646

>  <r_epik_Ionization_Penalty_Neutral>  (1) 
0.055305587572094292

>  <r_epik_State_Penalty>  (1) 
0.35607105151693436

>  <r_glide_ring_energy>  (1) 
0

>  <r_i_docking_score>  (1) 
-6.1446669187346785

>  <r_i_glide_ecoul>  (1) 
-1.9679098448827665

>  <r_i_glide_eff_state_penalty>  (1) 
0.35607105151693436

>  <r_i_glide_einternal>  (1) 
17.500384173588621

>  <r_i_glide_emodel>  (1) 
-51.200077926224736

>  <r_i_glide_emodel_strain>  (1) 
0.80794274411930189

>  <r_i_glide_energy>  (1) 
-38.663793955124987

>  <r_i_glide_erotb>  (1) 
0.82434179411086872

>  <r_i_glide_esite>  (1) 
-0.16233724044634054

>  <r_i_glide_evdw>  (1) 
-36.695884110242218

>  <r_i_glide_gscore>  (1) 
-6.5007379702516133

>  <r_i_glide_gscore_strain>  (1) 
0

>  <r_i_glide_hbond>  (1) 
0

>  <r_i_glide_ligand_efficiency>  (1) 
-0.18620202784044482

>  <r_i_glide_ligand_efficiency_ln>  (1) 
-1.3665421073440098

>  <r_i_glide_ligand_efficiency_sa>  (1) 
-0.59724939661306542

>  <r_i_glide_lipo>  (1) 
-3.4718149380122827

>  <r_i_glide_metal>  (1) 
-0

>  <r_i_glide_rewards>  (1) 
-1.5609469036593318

>  <r_lp_Energy>  (1) 
38.728972999999996

>  <s_epik_Chemistry_Notes>  (1) 
This compound contains an acetal/aminal-like group ( X-CH(R)-Y where X, Y are N, S, or O) that may be acid/base labile, releasing an aldehyde.

>  <s_epik_cmdline>  (1) 
J2VwaWtfcHl0aG9uJywgJy1waHQnLCAnMS4wJywgJy1waCcsICc3LjQnLCAnLXRuJywgJzgnLCAnLW1hJywgJzUwMCcsICctaW1hZScsICc8aW5maWxlLm1hZT4nLCAnLW9tYWUnLCAnPG91dGZpbGUubWFlPic=

>  <s_epik_input>  (1) 
W0NIMl0xW0NIMl1DKFtDSDJdRik9W0NIXUMoPUMxMilbQ0BIXShbQ0gyXVtDQEhdMltPSF0pW0NIMl1OKFtDSDNdKVtDQEhdKFtPSF0pW0NASF0oT1tDSDNdKVtDSDJdW05IXVtDSDJdW0NASF0oW0NIMl1DKD1PKVtPSF0pTjNbQ0gyXVtDSDJdW0NIMl1bQ0gyXTM=

>  <s_glide_docking_method>  (1) 
confgen

>  <s_i_glide_gridfile>  (1) 
gpcr_5ht2c_6bqh_protein_autoprepared_prepared

>  <s_lp_Force_Field>  (1) 
S-OPLS

>  <s_lp_Variant>  (1) 
DiffSBDD_0-2

>  <s_m_source_file>  (1) 
generated_GPCR_5HT2C_ligand_DiffSBDD_2026-06-23_prepared.sdf

>  <GenAI_Model>  (1) 
DiffSBDD

>  <Protein>  (1) 
GPCR_5HT2C

$$$$
DiffSBDD_17
     RDKit          3D

  0  0  0  0  0  0  0  0  0  0999 V3000
M  V30 BEGIN CTAB
M  V30 COUNTS 92 96 0 0 1
M  V30 BEGIN ATOM
M  V30 1 C 38.511525 30.879678 54.308852 0
M  V30 2 C 37.592729 35.293143 60.992446 0 CFG=2
M  V30 3 C 38.530798 30.329357 56.782247 0
M  V30 4 O 34.248388 32.937076 59.367760 0
M  V30 5 C 39.115846 32.711445 55.930078 0
M  V30 6 C 41.175871 31.125772 65.259284 0
M  V30 7 C 42.491552 31.527011 67.352496 0
M  V30 8 C 41.615170 30.753270 66.467251 0
M  V30 9 C 39.253709 37.712644 62.567937 0
M  V30 10 C 35.910279 38.176126 62.866528 0
M  V30 11 N 39.241278 29.870186 59.192975 0
M  V30 12 C 36.630165 37.628275 61.657224 0 CFG=2
M  V30 13 C 37.292240 31.445591 58.798974 0 CFG=1
M  V30 14 C 36.880017 34.027589 61.540881 0
M  V30 15 N 40.530167 29.337757 58.728318 0 CHG=1
M  V30 16 C 40.082421 30.863980 63.265309 0 CFG=2
M  V30 17 C 41.531910 32.355318 64.521057 0 CFG=2
M  V30 18 C 39.184462 27.545067 59.388763 0
M  V30 19 C 38.598372 30.813680 58.257474 0 CFG=2
M  V30 20 O 40.351857 30.308700 64.542447 0
M  V30 21 C 40.327654 27.912448 58.453553 0
M  V30 22 O 36.273436 30.486265 58.967759 0
M  V30 23 N 41.227942 34.411193 62.054168 0 CHG=1
M  V30 24 C 41.585240 33.663288 65.242834 0
M  V30 25 C 39.123718 35.045359 60.822991 0
M  V30 26 C 42.713685 32.873045 67.343855 0
M  V30 27 N 37.382938 36.419121 61.931642 0 CFG=2 CHG=1
M  V30 28 C 35.431684 33.683579 59.490125 0
M  V30 29 S 40.845125 29.932507 61.899428 0 CHG=-1
M  V30 30 C 36.365082 33.003688 60.523001 0 CFG=1
M  V30 31 C 42.128993 33.879902 66.448378 0
M  V30 32 N 37.517476 32.258897 59.983890 0
M  V30 33 C 38.137986 37.598305 61.544268 0 CFG=2
M  V30 34 C 41.080327 32.936154 62.043132 0
M  V30 35 C 40.399881 36.707189 62.306649 0
M  V30 36 C 40.533469 32.340040 63.362626 0 CFG=1
M  V30 37 C 39.987541 35.222709 62.108072 0 CFG=2
M  V30 38 N 38.392810 28.773006 59.569188 0 CHG=1
M  V30 39 C 38.286038 31.432465 55.722295 0
M  V30 40 H 39.535186 30.531319 54.171997 0
M  V30 41 H 37.841301 30.046443 54.096842 0
M  V30 42 H 38.329086 31.650182 53.560497 0
M  V30 43 H 37.180200 35.571271 60.022259 0
M  V30 44 H 39.469521 29.859514 56.499276 0
M  V30 45 H 37.768510 29.555509 56.681117 0
M  V30 46 H 34.388633 32.308457 58.669905 0
M  V30 47 H 40.182079 32.498395 55.994704 0
M  V30 48 H 38.962255 33.398424 55.099799 0
M  V30 49 H 38.818068 33.253664 56.827910 0
M  V30 50 H 42.981690 30.971186 68.137813 0
M  V30 51 H 41.296249 29.784249 66.823477 0
M  V30 52 H 38.868424 37.599695 63.583615 0
M  V30 53 H 39.682026 38.709770 62.496464 0
M  V30 54 H 35.789829 39.255117 62.773718 0
M  V30 55 H 34.919476 37.735664 62.967798 0
M  V30 56 H 36.472578 37.960750 63.767762 0
M  V30 57 H 36.051526 37.550964 60.738052 0
M  V30 58 H 36.976593 32.139517 58.034402 0
M  V30 59 H 36.033792 34.319138 62.166792 0
M  V30 60 H 37.575920 33.485574 62.167761 0
M  V30 61 H 40.831035 29.861685 57.919285 0
M  V30 62 H 39.004129 30.822234 63.102691 0
M  V30 63 H 42.531393 32.173631 64.125612 0
M  V30 64 H 39.630945 27.337765 60.358577 0
M  V30 65 H 38.592460 26.689205 59.063725 0
M  V30 66 H 39.245148 31.676468 58.252400 0
M  V30 67 H 41.234855 27.335268 58.635147 0
M  V30 68 H 40.031696 27.778003 57.412606 0
M  V30 69 H 35.645332 30.682731 58.271304 0
M  V30 70 H 41.743095 34.686284 61.230775 0
M  V30 71 H 41.191603 34.509841 64.705833 0
M  V30 72 H 39.269106 34.086070 60.341496 0
M  V30 73 H 39.532403 35.737699 60.099024 0
M  V30 74 H 43.357693 33.250416 68.125308 0
M  V30 75 H 35.895144 33.873943 58.522549 0
M  V30 76 H 35.102509 34.655606 59.852057 0
M  V30 77 H 35.758393 32.294938 61.090799 0
M  V30 78 H 42.144125 34.902638 66.795437 0
M  V30 79 H 37.955413 31.704884 60.712388 0
M  V30 80 H 38.445136 37.634767 60.507090 0
M  V30 81 H 40.459877 32.623013 61.206984 0
M  V30 82 H 42.068056 32.518631 61.839371 0
M  V30 83 H 41.102221 36.783141 63.139144 0
M  V30 84 H 40.960417 37.035862 61.429215 0
M  V30 85 H 39.645036 32.882239 63.677867 0
M  V30 86 H 39.421712 34.908868 62.983419 0
M  V30 87 H 38.156969 28.906672 60.543597 0
M  V30 88 H 37.245130 31.734212 55.767726 0
M  V30 89 H 41.162077 29.453377 59.515589 0
M  V30 90 H 37.561659 28.833304 58.991255 0
M  V30 91 H 41.794097 34.645083 62.857837 0
M  V30 92 H 37.497117 36.220748 62.915478 0
M  V30 END ATOM
M  V30 BEGIN BOND
M  V30 1 2 8 6
M  V30 2 1 8 7
M  V30 3 1 12 10
M  V30 4 1 14 2
M  V30 5 1 15 11
M  V30 6 1 17 6
M  V30 7 1 19 3
M  V30 8 1 19 11
M  V30 9 1 19 13
M  V30 10 1 20 6
M  V30 11 1 20 16
M  V30 12 1 21 15
M  V30 13 1 21 18
M  V30 14 1 22 13
M  V30 15 1 24 17
M  V30 16 1 25 2
M  V30 17 2 26 7
M  V30 18 1 27 2
M  V30 19 1 27 12
M  V30 20 1 28 4
M  V30 21 1 29 16
M  V30 22 1 30 14
M  V30 23 1 30 28
M  V30 24 2 31 24
M  V30 25 1 31 26
M  V30 26 1 32 13
M  V30 27 1 32 30
M  V30 28 1 33 9
M  V30 29 1 33 12
M  V30 30 1 33 27
M  V30 31 1 34 23
M  V30 32 1 35 9
M  V30 33 1 36 16
M  V30 34 1 36 17
M  V30 35 1 36 34
M  V30 36 1 37 23
M  V30 37 1 37 25
M  V30 38 1 37 35
M  V30 39 1 38 11
M  V30 40 1 38 18
M  V30 41 1 39 1
M  V30 42 1 39 3
M  V30 43 1 39 5
M  V30 44 1 40 1
M  V30 45 1 41 1
M  V30 46 1 42 1
M  V30 47 1 2 43 CFG=3
M  V30 48 1 44 3
M  V30 49 1 45 3
M  V30 50 1 46 4
M  V30 51 1 47 5
M  V30 52 1 48 5
M  V30 53 1 49 5
M  V30 54 1 50 7
M  V30 55 1 51 8
M  V30 56 1 52 9
M  V30 57 1 53 9
M  V30 58 1 54 10
M  V30 59 1 55 10
M  V30 60 1 56 10
M  V30 61 1 12 57 CFG=3
M  V30 62 1 13 58 CFG=3
M  V30 63 1 59 14
M  V30 64 1 60 14
M  V30 65 1 61 15
M  V30 66 1 16 62 CFG=3
M  V30 67 1 17 63 CFG=3
M  V30 68 1 64 18
M  V30 69 1 65 18
M  V30 70 1 19 66 CFG=3
M  V30 71 1 67 21
M  V30 72 1 68 21
M  V30 73 1 69 22
M  V30 74 1 70 23
M  V30 75 1 71 24
M  V30 76 1 72 25
M  V30 77 1 73 25
M  V30 78 1 74 26
M  V30 79 1 75 28
M  V30 80 1 76 28
M  V30 81 1 30 77 CFG=1
M  V30 82 1 78 31
M  V30 83 1 79 32
M  V30 84 1 33 80 CFG=3
M  V30 85 1 81 34
M  V30 86 1 82 34
M  V30 87 1 83 35
M  V30 88 1 84 35
M  V30 89 1 36 85 CFG=1
M  V30 90 1 37 86 CFG=1
M  V30 91 1 87 38
M  V30 92 1 88 39
M  V30 93 1 89 15
M  V30 94 1 90 38
M  V30 95 1 91 23
M  V30 96 1 27 92 CFG=1
M  V30 END BOND
M  V30 END CTAB
M  END
>  <i_epik_Tot_Q>  (1) 
3

>  <i_epik_Tot_abs_Q>  (1) 
5

>  <i_i_glide_confnum>  (1) 
818

>  <i_i_glide_lignum>  (1) 
40

>  <i_i_glide_posenum>  (1) 
32

>  <i_i_glide_rotatable_bonds>  (1) 
14

>  <i_lp_mmshare_version>  (1) 
72125

>  <i_m_source_file_index>  (1) 
18

>  <i_f3d_flags>  (1) 
0

>  <num_sample>  (1) 
50

>  <b_lp_Chiralities_Consistent>  (1) 
1

>  <r_epik_Charging_Adjusted_Penalty>  (1) 
1.6860912736117832

>  <r_epik_Ionization_Penalty>  (1) 
0.9299661573909731

>  <r_epik_Ionization_Penalty_Charging>  (1) 
0.33573944846101578

>  <r_epik_Ionization_Penalty_Neutral>  (1) 
0.59422670892995733

>  <r_epik_State_Penalty>  (1) 
1.3503518251507676

>  <r_glide_ring_energy>  (1) 
0.0045750838620950583

>  <r_i_docking_score>  (1) 
-6.1437598736587145

>  <r_i_glide_ecoul>  (1) 
-6.5013230781120512

>  <r_i_glide_eff_state_penalty>  (1) 
1.3503518251507676

>  <r_i_glide_einternal>  (1) 
21.109913547099072

>  <r_i_glide_emodel>  (1) 
-57.720740626699438

>  <r_i_glide_emodel_strain>  (1) 
2.6862781161428302

>  <r_i_glide_energy>  (1) 
-46.985916273019818

>  <r_i_glide_erotb>  (1) 
0.56462826385561427

>  <r_i_glide_esite>  (1) 
-0.10000000000000001

>  <r_i_glide_evdw>  (1) 
-40.484593194907767

>  <r_i_glide_gscore>  (1) 
-7.4941116988094816

>  <r_i_glide_gscore_strain>  (1) 
0

>  <r_i_glide_hbond>  (1) 
-0.43583908814966643

>  <r_i_glide_ligand_efficiency>  (1) 
-0.15753230445278754

>  <r_i_glide_ligand_efficiency_ln>  (1) 
-1.3173965179076179

>  <r_i_glide_ligand_efficiency_sa>  (1) 
-0.53422535350468481

>  <r_i_glide_lipo>  (1) 
-3.7786466413168474

>  <r_i_glide_metal>  (1) 
-0

>  <r_i_glide_rewards>  (1) 
-0.74482611173638658

>  <r_lp_Energy>  (1) 
61.524414999999998

>  <s_epik_Chemistry_Notes>  (1) 
This compound contains an acetal/aminal-like group ( X-CH(R)-Y where X, Y are N, S, or O) that may be acid/base labile, releasing an aldehyde.

>  <s_epik_cmdline>  (1) 
J2VwaWtfcHl0aG9uJywgJy1waHQnLCAnMS4wJywgJy1waCcsICc3LjQnLCAnLXRuJywgJzgnLCAnLW1hJywgJzUwMCcsICctaW1hZScsICc8aW5maWxlLm1hZT4nLCAnLW9tYWUnLCAnPG91dGZpbGUubWFlPic=

>  <s_epik_input>  (1) 
W05IXTFbQ0gyXVtDSDJdW05IXU4xW0NAQEhdKFtDSDJdW0NIXShbQ0gzXSlbQ0gzXSlbQ0BASF0oW09IXSlbTkhdW0NASF0oW0NIMl1bT0hdKVtDSDJdW0NAQEhdMltDSDJdW0NASF0oW0NIMl1bQ0gyXVtDQEBIXShOMjMpW0NIXTNbQ0gzXSlbTkhdW0NIMl1bQ0BASF0oW0NASF0oTzQpW1NIXSlbQ0BIXShDND01KVtDSF09W0NIXVtDSF09W0NIXVtDSF01

>  <s_glide_docking_method>  (1) 
confgen

>  <s_i_glide_gridfile>  (1) 
gpcr_5ht2c_6bqh_protein_autoprepared_prepared

>  <s_lp_Force_Field>  (1) 
S-OPLS

>  <s_lp_Variant>  (1) 
DiffSBDD_17-7

>  <s_m_source_file>  (1) 
generated_GPCR_5HT2C_ligand_DiffSBDD_2026-06-23_prepared.sdf

>  <GenAI_Model>  (1) 
DiffSBDD

>  <Protein>  (1) 
GPCR_5HT2C

$$$$
DiffSBDD_40
     RDKit          3D

  0  0  0  0  0  0  0  0  0  0999 V3000
M  V30 BEGIN CTAB
M  V30 COUNTS 59 62 0 0 1
M  V30 BEGIN ATOM
M  V30 1 C 39.442223 26.477720 56.863599 0 CFG=1
M  V30 2 C 39.676705 29.860728 54.758073 0 CFG=2
M  V30 3 C 39.945779 27.733111 56.170873 0 CFG=1
M  V30 4 C 38.003337 24.283112 56.655540 0
M  V30 5 C 38.916810 33.976235 60.917373 0
M  V30 6 O 40.509928 28.122445 58.933583 0
M  V30 7 C 39.529927 30.868660 55.911191 0
M  V30 8 F 38.733685 27.833750 51.184060 0
M  V30 9 C 38.344504 36.732859 61.443452 0
M  V30 10 F 37.258439 28.537777 52.568118 0
M  V30 11 C 39.011724 30.460272 53.506582 0
M  V30 12 N 37.279919 35.828536 61.005500 0
M  V30 13 O 38.654432 30.612777 59.395626 0
M  V30 14 C 39.149173 28.429559 55.073668 0 CFG=2
M  V30 15 C 37.265491 25.223654 57.560063 0
M  V30 16 C 37.030901 32.420183 59.511605 0
M  V30 17 S 39.245137 27.335880 53.615964 0
M  V30 18 C 37.689753 29.558152 59.371779 0
M  V30 19 C 38.546720 36.675032 62.966867 0
M  V30 20 P 39.446794 27.975097 57.900218 0 CFG=2
M  V30 21 C 37.997743 38.164827 61.010186 0
M  V30 22 C 36.700803 33.728101 59.919100 0
M  V30 23 C 38.571825 28.427675 52.364301 0
M  V30 24 O 39.245165 29.675824 52.344602 0
M  V30 25 C 38.147408 25.780576 56.474852 0
M  V30 26 C 38.305663 31.885562 59.804295 0
M  V30 27 C 39.243561 32.667441 60.508388 0
M  V30 28 C 37.638287 34.516149 60.618608 0
M  V30 29 C 37.771493 28.771197 58.056941 0
M  V30 30 H 40.223703 25.784858 57.170313 0
M  V30 31 H 40.744193 29.796425 54.567762 0
M  V30 32 H 41.021361 27.774671 56.014599 0
M  V30 33 H 37.428565 23.739138 55.908115 0
M  V30 34 H 38.841009 23.737756 57.087559 0
M  V30 35 H 39.646480 34.557009 61.456258 0
M  V30 36 H 38.485932 31.103403 56.116643 0
M  V30 37 H 39.991351 30.518368 56.831297 0
M  V30 38 H 40.018412 31.810597 55.661860 0
M  V30 39 H 39.284310 36.498507 60.947825 0
M  V30 40 H 39.424874 31.449513 53.311095 0
M  V30 41 H 37.945923 30.608414 53.681553 0
M  V30 42 H 36.423873 36.228726 60.651315 0
M  V30 43 H 38.095899 28.484084 55.340118 0
M  V30 44 H 37.645138 25.311360 58.567744 0
M  V30 45 H 36.190244 25.336641 57.437463 0
M  V30 46 H 36.307377 31.835589 58.967573 0
M  V30 47 H 37.967333 28.873423 60.167765 0
M  V30 48 H 36.665021 29.860138 59.579960 0
M  V30 49 H 39.322995 37.372699 63.284399 0
M  V30 50 H 37.630466 36.934224 63.499172 0
M  V30 51 H 38.852573 35.685011 63.298748 0
M  V30 52 H 38.789537 38.860739 61.289064 0
M  V30 53 H 37.870901 38.231070 59.928899 0
M  V30 54 H 37.072979 38.511876 61.472544 0
M  V30 55 H 35.725701 34.130076 59.687361 0
M  V30 56 H 37.596178 26.208658 55.641866 0
M  V30 57 H 40.218664 32.262359 60.733163 0
M  V30 58 H 37.011695 27.993231 58.040214 0
M  V30 59 H 37.555320 29.435650 57.226153 0
M  V30 END ATOM
M  V30 BEGIN BOND
M  V30 1 1 3 1
M  V30 2 1 7 2
M  V30 3 1 11 2
M  V30 4 1 12 9
M  V30 5 1 14 2
M  V30 6 1 14 3
M  V30 7 1 15 4
M  V30 8 1 17 14
M  V30 9 1 18 13
M  V30 10 1 19 9
M  V30 11 1 20 1
M  V30 12 1 20 3
M  V30 13 2 20 6
M  V30 14 1 21 9
M  V30 15 1 22 16
M  V30 16 1 23 8
M  V30 17 1 23 10
M  V30 18 1 23 17
M  V30 19 1 24 11
M  V30 20 1 24 23
M  V30 21 1 25 1
M  V30 22 1 25 4
M  V30 23 1 25 15
M  V30 24 1 26 13
M  V30 25 2 26 16
M  V30 26 2 27 5
M  V30 27 1 27 26
M  V30 28 1 28 5
M  V30 29 1 28 12
M  V30 30 2 28 22
M  V30 31 1 29 18
M  V30 32 1 20 29 CFG=3
M  V30 33 1 1 30 CFG=1
M  V30 34 1 2 31 CFG=3
M  V30 35 1 3 32 CFG=1
M  V30 36 1 33 4
M  V30 37 1 34 4
M  V30 38 1 35 5
M  V30 39 1 36 7
M  V30 40 1 37 7
M  V30 41 1 38 7
M  V30 42 1 39 9
M  V30 43 1 40 11
M  V30 44 1 41 11
M  V30 45 1 42 12
M  V30 46 1 14 43 CFG=1
M  V30 47 1 44 15
M  V30 48 1 45 15
M  V30 49 1 46 16
M  V30 50 1 47 18
M  V30 51 1 48 18
M  V30 52 1 49 19
M  V30 53 1 50 19
M  V30 54 1 51 19
M  V30 55 1 52 21
M  V30 56 1 53 21
M  V30 57 1 54 21
M  V30 58 1 55 22
M  V30 59 1 56 25
M  V30 60 1 57 27
M  V30 61 1 58 29
M  V30 62 1 59 29
M  V30 END BOND
M  V30 END CTAB
M  END
>  <i_epik_Tot_Q>  (1) 
0

>  <i_epik_Tot_abs_Q>  (1) 
0

>  <i_i_glide_confnum>  (1) 
502

>  <i_i_glide_lignum>  (1) 
84

>  <i_i_glide_posenum>  (1) 
89

>  <i_i_glide_rotatable_bonds>  (1) 
8

>  <i_lp_mmshare_version>  (1) 
72125

>  <i_m_source_file_index>  (1) 
41

>  <i_f3d_flags>  (1) 
0

>  <num_sample>  (1) 
50

>  <b_lp_Chiralities_Consistent>  (1) 
1

>  <r_epik_Charging_Adjusted_Penalty>  (1) 
0.10621715127672696

>  <r_epik_Ionization_Penalty>  (1) 
0.10621715241272391

>  <r_epik_Ionization_Penalty_Charging>  (1) 
0

>  <r_epik_Ionization_Penalty_Neutral>  (1) 
0.10621715241272391

>  <r_epik_State_Penalty>  (1) 
0.10621715127672696

>  <r_glide_ring_energy>  (1) 
0

>  <r_i_docking_score>  (1) 
-6.1269259868813455

>  <r_i_glide_ecoul>  (1) 
-0.17525643045104666

>  <r_i_glide_eff_state_penalty>  (1) 
0.10621715127672696

>  <r_i_glide_einternal>  (1) 
4.2716295636613406

>  <r_i_glide_emodel>  (1) 
-56.034921751062974

>  <r_i_glide_emodel_strain>  (1) 
0

>  <r_i_glide_energy>  (1) 
-42.031866933636628

>  <r_i_glide_erotb>  (1) 
0.70566581847089904

>  <r_i_glide_esite>  (1) 
0

>  <r_i_glide_evdw>  (1) 
-41.856610503185578

>  <r_i_glide_gscore>  (1) 
-6.2331431381580726

>  <r_i_glide_gscore_strain>  (1) 
0

>  <r_i_glide_hbond>  (1) 
0

>  <r_i_glide_ligand_efficiency>  (1) 
-0.21127330989246018

>  <r_i_glide_ligand_efficiency_ln>  (1) 
-1.4029106855580975

>  <r_i_glide_ligand_efficiency_sa>  (1) 
-0.64909854480094575

>  <r_i_glide_lipo>  (1) 
-3.6388488395944227

>  <r_i_glide_metal>  (1) 
-0

>  <r_i_glide_rewards>  (1) 
-1.180841127307612

>  <r_lp_Energy>  (1) 
18.098853999999999

>  <s_epik_cmdline>  (1) 
J2VwaWtfcHl0aG9uJywgJy1waHQnLCAnMS4wJywgJy1waCcsICc3LjQnLCAnLXRuJywgJzgnLCAnLW1hJywgJzUwMCcsICctaW1hZScsICc8aW5maWxlLm1hZT4nLCAnLW9tYWUnLCAnPG91dGZpbGUubWFlPic=

>  <s_epik_input>  (1) 
RkMxKEYpU1tDQEBIXShbQ0BIXShbQ0gzXSlbQ0gyXU8xKVtDQEBIXTJbQ0BIXShbQ0hdM1tDSDJdW0NIMl0zKVAyKD1PKVtDSDJdW0NIMl1PYzRbY0hdW2NIXWMoW2NIXVtjSF00KVtOSF1bQ0hdKFtDSDNdKVtDSDNd

>  <s_glide_docking_method>  (1) 
confgen

>  <s_i_glide_gridfile>  (1) 
gpcr_5ht2c_6bqh_protein_autoprepared_prepared

>  <s_lp_Force_Field>  (1) 
S-OPLS

>  <s_lp_Variant>  (1) 
DiffSBDD_40-2

>  <s_m_source_file>  (1) 
generated_GPCR_5HT2C_ligand_DiffSBDD_2026-06-23_prepared.sdf

>  <GenAI_Model>  (1) 
DiffSBDD

>  <Protein>  (1) 
GPCR_5HT2C

$$$$
DiffSBDD_17
     RDKit          3D

  0  0  0  0  0  0  0  0  0  0999 V3000
M  V30 BEGIN CTAB
M  V30 COUNTS 92 96 0 0 1
M  V30 BEGIN ATOM
M  V30 1 C 42.080307 34.240911 64.162675 0
M  V30 2 C 37.164352 32.015323 60.659372 0 CFG=2
M  V30 3 C 42.103437 31.803224 64.914268 0
M  V30 4 O 40.033613 28.446772 60.597345 0
M  V30 5 C 41.009850 33.588875 66.350874 0
M  V30 6 C 38.845152 27.873695 54.115514 0
M  V30 7 C 38.819413 27.751641 51.612108 0
M  V30 8 C 38.767975 27.203801 52.964320 0
M  V30 9 C 37.670784 34.285483 58.758390 0
M  V30 10 C 38.210174 34.942184 61.746461 0
M  V30 11 N 41.762779 29.368438 65.372190 0
M  V30 12 C 36.810306 34.644144 61.195211 0 CFG=2
M  V30 13 C 40.864758 30.385250 63.233213 0 CFG=1
M  V30 14 C 38.524436 31.858239 61.389743 0
M  V30 15 N 40.908983 28.183476 65.253569 0 CHG=1
M  V30 16 C 39.260559 28.023988 56.363604 0 CFG=2
M  V30 17 C 38.936505 29.338497 54.310818 0 CFG=2
M  V30 18 C 41.688508 28.366266 67.506260 0
M  V30 19 C 41.166407 30.572029 64.761863 0 CFG=2
M  V30 20 O 38.833046 27.192983 55.298560 0
M  V30 21 C 41.248400 27.362949 66.429070 0
M  V30 22 O 41.645153 29.338441 62.697773 0
M  V30 23 N 38.045141 30.888361 57.041427 0 CHG=1
M  V30 24 C 39.645125 30.241040 53.353495 0
M  V30 25 C 37.009501 31.356064 59.269225 0
M  V30 26 C 39.246533 28.978805 51.210957 0
M  V30 27 N 36.394358 33.292775 60.776317 0 CFG=1 CHG=1
M  V30 28 C 39.878750 29.843408 60.479626 0
M  V30 29 S 38.104246 28.063256 57.767759 0 CHG=-1
M  V30 30 C 38.945759 30.377897 61.588966 0 CFG=1
M  V30 31 C 39.756492 30.085340 52.026411 0
M  V30 32 N 39.452652 30.162635 62.960106 0
M  V30 33 C 36.514215 34.311172 59.740662 0 CFG=2
M  V30 34 C 39.403111 30.671315 56.512910 0
M  V30 35 C 37.701589 33.257736 57.645508 0
M  V30 36 C 39.582686 29.382006 55.690462 0 CFG=1
M  V30 37 C 37.976375 31.848039 58.167558 0 CFG=2
M  V30 38 N 42.171196 29.548575 66.769826 0 CHG=1
M  V30 39 C 41.326490 33.139441 64.916277 0
M  V30 40 H 42.252819 33.949104 63.127308 0
M  V30 41 H 43.046269 34.449754 64.623189 0
M  V30 42 H 41.510976 35.171563 64.148432 0
M  V30 43 H 36.511271 31.398050 61.276530 0
M  V30 44 H 42.719085 31.776507 65.812182 0
M  V30 45 H 42.833728 31.786837 64.103617 0
M  V30 46 H 39.488796 28.033511 59.933678 0
M  V30 47 H 41.921633 33.787017 66.915640 0
M  V30 48 H 40.423768 34.507403 66.357428 0
M  V30 49 H 40.445210 32.827944 66.889276 0
M  V30 50 H 38.521586 27.076627 50.821970 0
M  V30 51 H 38.666193 26.137763 53.042777 0
M  V30 52 H 38.625931 34.164441 59.251057 0
M  V30 53 H 37.645133 35.265477 58.294753 0
M  V30 54 H 38.211619 35.960558 62.134808 0
M  V30 55 H 38.477645 34.300428 62.567750 0
M  V30 56 H 39.024958 34.900934 61.034589 0
M  V30 57 H 36.008091 35.019547 61.821762 0
M  V30 58 H 41.153249 31.295429 62.704973 0
M  V30 59 H 38.389368 32.261594 62.390275 0
M  V30 60 H 39.317207 32.436668 60.916679 0
M  V30 61 H 39.941480 28.490765 65.260181 0
M  V30 62 H 40.185832 27.596266 56.754957 0
M  V30 63 H 37.910229 29.698939 54.390883 0
M  V30 64 H 42.454274 27.958643 68.167973 0
M  V30 65 H 40.845106 28.673011 68.122032 0
M  V30 66 H 40.238493 30.788172 65.295376 0
M  V30 67 H 42.094074 26.728894 66.158312 0
M  V30 68 H 40.445130 26.705447 66.752401 0
M  V30 69 H 41.152989 28.924169 61.989484 0
M  V30 70 H 37.785624 29.963052 57.392344 0
M  V30 71 H 40.076877 31.127766 53.792296 0
M  V30 72 H 37.145002 30.282437 59.394748 0
M  V30 73 H 35.968438 31.453490 58.967763 0
M  V30 74 H 39.241942 29.149335 50.144193 0
M  V30 75 H 40.845117 30.346333 60.471095 0
M  V30 76 H 39.448705 30.000237 59.500457 0
M  V30 77 H 38.045142 29.787323 61.507984 0
M  V30 78 H 40.269709 30.873960 51.493836 0
M  V30 79 H 39.106823 29.276994 63.336850 0
M  V30 80 H 35.528425 34.533714 59.334821 0
M  V30 81 H 39.749935 31.555943 55.979458 0
M  V30 82 H 40.045136 30.537800 57.370455 0
M  V30 83 H 38.524287 33.529149 56.982846 0
M  V30 84 H 36.845135 33.337754 57.005630 0
M  V30 85 H 40.656076 29.329869 55.497702 0
M  V30 86 H 38.958331 31.901603 58.629009 0
M  V30 87 H 43.182277 29.595650 66.772551 0
M  V30 88 H 40.380698 32.998679 64.390851 0
M  V30 89 H 41.135915 27.734241 64.374370 0
M  V30 90 H 41.761618 30.408282 67.108853 0
M  V30 91 H 37.371092 31.143296 56.329822 0
M  V30 92 H 35.408926 33.133077 60.933934 0
M  V30 END ATOM
M  V30 BEGIN BOND
M  V30 1 2 8 6
M  V30 2 1 8 7
M  V30 3 1 12 10
M  V30 4 1 14 2
M  V30 5 1 15 11
M  V30 6 1 17 6
M  V30 7 1 19 3
M  V30 8 1 19 11
M  V30 9 1 19 13
M  V30 10 1 20 6
M  V30 11 1 20 16
M  V30 12 1 21 15
M  V30 13 1 21 18
M  V30 14 1 22 13
M  V30 15 1 24 17
M  V30 16 1 25 2
M  V30 17 2 26 7
M  V30 18 1 27 2
M  V30 19 1 27 12
M  V30 20 1 28 4
M  V30 21 1 29 16
M  V30 22 1 30 14
M  V30 23 1 30 28
M  V30 24 2 31 24
M  V30 25 1 31 26
M  V30 26 1 32 13
M  V30 27 1 32 30
M  V30 28 1 33 9
M  V30 29 1 33 12
M  V30 30 1 33 27
M  V30 31 1 34 23
M  V30 32 1 35 9
M  V30 33 1 36 16
M  V30 34 1 36 17
M  V30 35 1 36 34
M  V30 36 1 37 23
M  V30 37 1 37 25
M  V30 38 1 37 35
M  V30 39 1 38 11
M  V30 40 1 38 18
M  V30 41 1 39 1
M  V30 42 1 39 3
M  V30 43 1 39 5
M  V30 44 1 40 1
M  V30 45 1 41 1
M  V30 46 1 42 1
M  V30 47 1 2 43 CFG=1
M  V30 48 1 44 3
M  V30 49 1 45 3
M  V30 50 1 46 4
M  V30 51 1 47 5
M  V30 52 1 48 5
M  V30 53 1 49 5
M  V30 54 1 50 7
M  V30 55 1 51 8
M  V30 56 1 52 9
M  V30 57 1 53 9
M  V30 58 1 54 10
M  V30 59 1 55 10
M  V30 60 1 56 10
M  V30 61 1 12 57 CFG=1
M  V30 62 1 13 58 CFG=3
M  V30 63 1 59 14
M  V30 64 1 60 14
M  V30 65 1 61 15
M  V30 66 1 16 62 CFG=1
M  V30 67 1 17 63 CFG=1
M  V30 68 1 64 18
M  V30 69 1 65 18
M  V30 70 1 19 66 CFG=1
M  V30 71 1 67 21
M  V30 72 1 68 21
M  V30 73 1 69 22
M  V30 74 1 70 23
M  V30 75 1 71 24
M  V30 76 1 72 25
M  V30 77 1 73 25
M  V30 78 1 74 26
M  V30 79 1 75 28
M  V30 80 1 76 28
M  V30 81 1 30 77 CFG=1
M  V30 82 1 78 31
M  V30 83 1 79 32
M  V30 84 1 33 80 CFG=3
M  V30 85 1 81 34
M  V30 86 1 82 34
M  V30 87 1 83 35
M  V30 88 1 84 35
M  V30 89 1 36 85 CFG=3
M  V30 90 1 37 86 CFG=1
M  V30 91 1 87 38
M  V30 92 1 88 39
M  V30 93 1 89 15
M  V30 94 1 90 38
M  V30 95 1 91 23
M  V30 96 1 27 92 CFG=1
M  V30 END BOND
M  V30 END CTAB
M  END
>  <i_epik_Tot_Q>  (1) 
3

>  <i_epik_Tot_abs_Q>  (1) 
5

>  <i_i_glide_confnum>  (1) 
2444

>  <i_i_glide_lignum>  (1) 
41

>  <i_i_glide_posenum>  (1) 
62

>  <i_i_glide_rotatable_bonds>  (1) 
14

>  <i_lp_mmshare_version>  (1) 
72125

>  <i_m_source_file_index>  (1) 
18

>  <i_f3d_flags>  (1) 
0

>  <num_sample>  (1) 
50

>  <b_lp_Chiralities_Consistent>  (1) 
1

>  <r_epik_Charging_Adjusted_Penalty>  (1) 
1.6860912736117832

>  <r_epik_Ionization_Penalty>  (1) 
0.9299661573909731

>  <r_epik_Ionization_Penalty_Charging>  (1) 
0.33573944846101578

>  <r_epik_Ionization_Penalty_Neutral>  (1) 
0.59422670892995733

>  <r_epik_State_Penalty>  (1) 
1.3503518251507676

>  <r_glide_ring_energy>  (1) 
0.0045750838620950583

>  <r_i_docking_score>  (1) 
-6.1173353030081294

>  <r_i_glide_ecoul>  (1) 
-12.533867659132301

>  <r_i_glide_eff_state_penalty>  (1) 
1.3503518251507676

>  <r_i_glide_einternal>  (1) 
14.614875976898617

>  <r_i_glide_emodel>  (1) 
-63.684191295264355

>  <r_i_glide_emodel_strain>  (1) 
8.5622793365547523

>  <r_i_glide_energy>  (1) 
-50.588879991393114

>  <r_i_glide_erotb>  (1) 
0.56462826385561427

>  <r_i_glide_esite>  (1) 
-0.1441046333000067

>  <r_i_glide_evdw>  (1) 
-38.055012332260809

>  <r_i_glide_gscore>  (1) 
-7.4676871281588966

>  <r_i_glide_gscore_strain>  (1) 
1.1405698341386881

>  <r_i_glide_hbond>  (1) 
-0.65341906899768687

>  <r_i_glide_ligand_efficiency>  (1) 
-0.15685475135918281

>  <r_i_glide_ligand_efficiency_ln>  (1) 
-1.3117303398540876

>  <r_i_glide_ligand_efficiency_sa>  (1) 
-0.53192762770040269

>  <r_i_glide_lipo>  (1) 
-3.8392852687903676

>  <r_i_glide_metal>  (1) 
-0

>  <r_i_glide_rewards>  (1) 
-0.75324548958225357

>  <r_lp_Energy>  (1) 
57.587399999999995

>  <s_epik_Chemistry_Notes>  (1) 
This compound contains an acetal/aminal-like group ( X-CH(R)-Y where X, Y are N, S, or O) that may be acid/base labile, releasing an aldehyde.

>  <s_epik_cmdline>  (1) 
J2VwaWtfcHl0aG9uJywgJy1waHQnLCAnMS4wJywgJy1waCcsICc3LjQnLCAnLXRuJywgJzgnLCAnLW1hJywgJzUwMCcsICctaW1hZScsICc8aW5maWxlLm1hZT4nLCAnLW9tYWUnLCAnPG91dGZpbGUubWFlPic=

>  <s_epik_input>  (1) 
W05IXTFbQ0gyXVtDSDJdW05IXU4xW0NAQEhdKFtDSDJdW0NIXShbQ0gzXSlbQ0gzXSlbQ0BASF0oW09IXSlbTkhdW0NASF0oW0NIMl1bT0hdKVtDSDJdW0NAQEhdMltDSDJdW0NASF0oW0NIMl1bQ0gyXVtDQEBIXShOMjMpW0NIXTNbQ0gzXSlbTkhdW0NIMl1bQ0BASF0oW0NASF0oTzQpW1NIXSlbQ0BIXShDND01KVtDSF09W0NIXVtDSF09W0NIXVtDSF01

>  <s_glide_docking_method>  (1) 
confgen

>  <s_i_glide_gridfile>  (1) 
gpcr_5ht2c_6bqh_protein_autoprepared_prepared

>  <s_lp_Force_Field>  (1) 
S-OPLS

>  <s_lp_Variant>  (1) 
DiffSBDD_17-8

>  <s_m_source_file>  (1) 
generated_GPCR_5HT2C_ligand_DiffSBDD_2026-06-23_prepared.sdf

>  <GenAI_Model>  (1) 
DiffSBDD

>  <Protein>  (1) 
GPCR_5HT2C

$$$$
DiffSBDD_1
     RDKit          3D

  0  0  0  0  0  0  0  0  0  0999 V3000
M  V30 BEGIN CTAB
M  V30 COUNTS 78 81 0 0 1
M  V30 BEGIN ATOM
M  V30 1 C 39.242158 33.695027 61.890172 0
M  V30 2 N 41.856102 33.043637 65.219962 0
M  V30 3 C 40.921515 29.587672 66.076629 0 CFG=1
M  V30 4 C 42.289556 29.862093 66.715703 0
M  V30 5 C 40.717858 26.936959 57.620518 0
M  V30 6 C 38.819337 30.104025 61.423367 0
M  V30 7 C 40.603150 30.815508 65.206145 0
M  V30 8 C 41.933764 31.577174 64.978981 0 CFG=2
M  V30 9 C 37.658981 26.943180 57.767567 0
M  V30 10 N 38.949188 31.439937 60.856658 0
M  V30 11 O 37.368172 30.552869 55.100603 0
M  V30 12 C 37.951309 30.545654 60.275604 0 CFG=1
M  V30 13 C 37.907240 28.298634 57.224702 0 CFG=1
M  V30 14 O 37.027440 29.383470 57.768010 0
M  V30 15 C 39.385967 30.701863 53.816502 0
M  V30 16 C 41.756018 28.137120 64.291867 0
M  V30 17 C 39.061791 28.794537 57.960016 0
M  V30 18 C 42.212805 33.912671 64.080032 0
M  V30 19 C 39.315970 31.624234 56.152931 0
M  V30 20 O 41.170138 28.936002 58.870835 0
M  V30 21 O 41.203025 32.846682 67.396201 0
M  V30 22 C 38.509068 31.856275 57.441177 0
M  V30 23 O 40.845537 28.350859 65.362622 0
M  V30 24 O 37.852010 25.091435 56.320172 0
M  V30 25 P 38.324953 30.292675 58.488788 0 CFG=2 CHG=1
M  V30 26 C 38.496807 31.372295 54.872502 0 CFG=2
M  V30 27 C 40.274245 28.241774 58.153349 0
M  V30 28 C 44.155995 31.605703 66.453604 0
M  V30 29 O 40.272202 33.303727 62.781211 0
M  V30 30 C 41.491882 33.555450 66.432641 0
M  V30 31 C 41.453502 35.081049 66.577208 0
M  V30 32 C 39.948321 25.934178 57.072375 0
M  V30 33 C 38.458221 25.928904 56.985061 0
M  V30 34 C 40.998063 34.413161 63.283333 0
M  V30 35 C 43.036376 30.803225 65.759869 0 CFG=1
M  V30 36 C 38.310421 32.508306 61.624696 0
M  V30 37 H 39.676916 34.059376 60.957886 0
M  V30 38 H 38.664293 34.515883 62.315383 0
M  V30 39 H 40.173106 29.506164 66.866394 0
M  V30 40 H 42.132170 30.368085 67.668625 0
M  V30 41 H 42.843863 28.948655 66.934504 0
M  V30 42 H 41.783029 26.755134 57.645934 0
M  V30 43 H 38.447043 30.120888 62.446428 0
M  V30 44 H 39.704056 29.503634 61.221766 0
M  V30 45 H 39.866254 31.433307 65.717049 0
M  V30 46 H 40.135771 30.529336 64.263660 0
M  V30 47 H 42.162681 31.429524 63.922999 0
M  V30 48 H 37.964987 26.853951 58.811147 0
M  V30 49 H 36.601207 26.685224 57.709758 0
M  V30 50 H 36.718912 31.039965 55.604612 0
M  V30 51 H 36.933944 30.836055 60.533003 0
M  V30 52 H 37.964702 28.337273 56.136029 0
M  V30 53 H 40.235525 31.337228 53.563644 0
M  V30 54 H 39.774375 29.747406 54.173807 0
M  V30 55 H 38.845161 30.498349 52.898970 0
M  V30 56 H 41.498931 27.206396 63.786802 0
M  V30 57 H 41.718523 28.931117 63.546855 0
M  V30 58 H 42.778979 28.035686 64.652772 0
M  V30 59 H 42.843542 33.365568 63.381914 0
M  V30 60 H 42.838795 34.748553 64.391151 0
M  V30 61 H 39.932398 32.506373 55.973485 0
M  V30 62 H 40.039086 30.821317 56.312158 0
M  V30 63 H 40.763668 29.697971 59.245083 0
M  V30 64 H 37.549575 32.318912 57.223877 0
M  V30 65 H 39.040750 32.592737 58.043770 0
M  V30 66 H 38.128550 32.324421 54.486120 0
M  V30 67 H 43.788964 32.185745 67.299385 0
M  V30 68 H 44.921215 30.932549 66.841372 0
M  V30 69 H 44.648471 32.291537 65.767797 0
M  V30 70 H 40.709266 35.541734 65.932898 0
M  V30 71 H 41.176445 35.335523 67.599842 0
M  V30 72 H 42.426409 35.532287 66.391000 0
M  V30 73 H 40.444349 25.056546 56.690486 0
M  V30 74 H 41.349839 35.030939 62.455270 0
M  V30 75 H 40.341576 35.040466 63.882495 0
M  V30 76 H 43.540650 30.175909 65.024576 0
M  V30 77 H 37.456192 32.892840 61.064366 0
M  V30 78 H 37.906235 32.144097 62.567914 0
M  V30 END ATOM
M  V30 BEGIN BOND
M  V30 1 1 4 3
M  V30 2 1 7 3
M  V30 3 1 8 2
M  V30 4 1 8 7
M  V30 5 1 10 6
M  V30 6 1 12 6
M  V30 7 1 12 10
M  V30 8 1 13 9
M  V30 9 1 14 13
M  V30 10 1 17 13
M  V30 11 1 18 2
M  V30 12 1 22 19
M  V30 13 1 23 3
M  V30 14 1 23 16
M  V30 15 1 25 12
M  V30 16 1 25 14
M  V30 17 1 25 17
M  V30 18 1 25 22 CFG=3
M  V30 19 1 26 11
M  V30 20 1 26 15
M  V30 21 1 26 19
M  V30 22 1 27 5
M  V30 23 2 27 17
M  V30 24 1 27 20
M  V30 25 1 29 1
M  V30 26 1 30 2
M  V30 27 2 30 21
M  V30 28 1 31 30
M  V30 29 2 32 5
M  V30 30 1 33 9
M  V30 31 2 33 24
M  V30 32 1 33 32
M  V30 33 1 34 18
M  V30 34 1 34 29
M  V30 35 1 35 4
M  V30 36 1 35 8
M  V30 37 1 35 28
M  V30 38 1 36 1
M  V30 39 1 36 10
M  V30 40 1 37 1
M  V30 41 1 38 1
M  V30 42 1 3 39 CFG=1
M  V30 43 1 40 4
M  V30 44 1 41 4
M  V30 45 1 42 5
M  V30 46 1 43 6
M  V30 47 1 44 6
M  V30 48 1 45 7
M  V30 49 1 46 7
M  V30 50 1 8 47 CFG=3
M  V30 51 1 48 9
M  V30 52 1 49 9
M  V30 53 1 50 11
M  V30 54 1 12 51 CFG=1
M  V30 55 1 13 52 CFG=3
M  V30 56 1 53 15
M  V30 57 1 54 15
M  V30 58 1 55 15
M  V30 59 1 56 16
M  V30 60 1 57 16
M  V30 61 1 58 16
M  V30 62 1 59 18
M  V30 63 1 60 18
M  V30 64 1 61 19
M  V30 65 1 62 19
M  V30 66 1 63 20
M  V30 67 1 64 22
M  V30 68 1 65 22
M  V30 69 1 26 66 CFG=3
M  V30 70 1 67 28
M  V30 71 1 68 28
M  V30 72 1 69 28
M  V30 73 1 70 31
M  V30 74 1 71 31
M  V30 75 1 72 31
M  V30 76 1 73 32
M  V30 77 1 74 34
M  V30 78 1 75 34
M  V30 79 1 35 76 CFG=3
M  V30 80 1 77 36
M  V30 81 1 78 36
M  V30 END BOND
M  V30 END CTAB
M  END
>  <i_epik_Tot_Q>  (1) 
1

>  <i_epik_Tot_abs_Q>  (1) 
1

>  <i_i_glide_confnum>  (1) 
2155

>  <i_i_glide_lignum>  (1) 
6

>  <i_i_glide_posenum>  (1) 
330

>  <i_i_glide_rotatable_bonds>  (1) 
15

>  <i_lp_mmshare_version>  (1) 
72125

>  <i_m_source_file_index>  (1) 
2

>  <i_f3d_flags>  (1) 
0

>  <num_sample>  (1) 
50

>  <b_lp_Chiralities_Consistent>  (1) 
1

>  <r_epik_Charging_Adjusted_Penalty>  (1) 
0.012777702237649643

>  <r_epik_Ionization_Penalty>  (1) 
0.012893064322698497

>  <r_epik_Ionization_Penalty_Charging>  (1) 
0

>  <r_epik_Ionization_Penalty_Neutral>  (1) 
0.012893064322698497

>  <r_epik_State_Penalty>  (1) 
0.012777702237649643

>  <r_glide_ring_energy>  (1) 
0.14646081137369646

>  <r_i_docking_score>  (1) 
-6.0877959358277351

>  <r_i_glide_ecoul>  (1) 
-1.4641253706358812

>  <r_i_glide_eff_state_penalty>  (1) 
0.012777702237649643

>  <r_i_glide_einternal>  (1) 
19.688215347373344

>  <r_i_glide_emodel>  (1) 
-54.400410266005558

>  <r_i_glide_emodel_strain>  (1) 
0.58764642447493998

>  <r_i_glide_energy>  (1) 
-48.72520009991338

>  <r_i_glide_erotb>  (1) 
0.81958699115176215

>  <r_i_glide_esite>  (1) 
-0.036200391968921976

>  <r_i_glide_evdw>  (1) 
-47.261074729277496

>  <r_i_glide_gscore>  (1) 
-6.1005736380653852

>  <r_i_glide_gscore_strain>  (1) 
0

>  <r_i_glide_hbond>  (1) 
-0.16

>  <r_i_glide_ligand_efficiency>  (1) 
-0.16910544266188154

>  <r_i_glide_ligand_efficiency_ln>  (1) 
-1.3281925999586506

>  <r_i_glide_ligand_efficiency_sa>  (1) 
-0.55837386906165465

>  <r_i_glide_lipo>  (1) 
-3.2556803866115716

>  <r_i_glide_metal>  (1) 
-0

>  <r_i_glide_rewards>  (1) 
-0.88560730857739756

>  <r_lp_Energy>  (1) 
35.539625000000001

>  <s_epik_cmdline>  (1) 
J2VwaWtfcHl0aG9uJywgJy1waHQnLCAnMS4wJywgJy1waCcsICc3LjQnLCAnLXRuJywgJzgnLCAnLW1hJywgJzUwMCcsICctaW1hZScsICc8aW5maWxlLm1hZT4nLCAnLW9tYWUnLCAnPG91dGZpbGUubWFlPic=

>  <s_epik_input>  (1) 
W0NIM11PW0NASF0xW0NIMl1bQ0BIXShbQ0gzXSlbQ0BASF0oW0NIMl0xKU4oQyg9TylbQ0gzXSlbQ0gyXVtDSDJdT1tDSDJdW0NIMl1OMltDSDJdW0NIXTJbUEBAK10oTzMpKFtDSDJdW0NIMl1bQ0BIXShbT0hdKVtDSDNdKUMoW0NAQEhdMzQpPUMoW09IXSlbQ0hdPVtDSF1DKD1PKVtDSDJdNA==

>  <s_glide_docking_method>  (1) 
confgen

>  <s_i_glide_gridfile>  (1) 
gpcr_5ht2c_6bqh_protein_autoprepared_prepared

>  <s_lp_Force_Field>  (1) 
S-OPLS

>  <s_lp_Variant>  (1) 
DiffSBDD_1-2

>  <s_m_source_file>  (1) 
generated_GPCR_5HT2C_ligand_DiffSBDD_2026-06-23_prepared.sdf

>  <GenAI_Model>  (1) 
DiffSBDD

>  <Protein>  (1) 
GPCR_5HT2C

$$$$
DiffSBDD_40
     RDKit          3D

  0  0  0  0  0  0  0  0  0  0999 V3000
M  V30 BEGIN CTAB
M  V30 COUNTS 59 62 0 0 1
M  V30 BEGIN ATOM
M  V30 1 C 39.657523 25.964264 57.203956 0 CFG=1
M  V30 2 C 38.551652 27.213724 54.077133 0 CFG=2
M  V30 3 C 39.988617 27.057621 56.200829 0 CFG=1
M  V30 4 C 37.859689 24.364860 56.165081 0
M  V30 5 C 36.049675 33.148884 61.233082 0
M  V30 6 O 41.416289 27.733145 58.568481 0
M  V30 7 C 39.675105 26.877025 53.084013 0
M  V30 8 F 37.204600 30.287638 54.934906 0
M  V30 9 C 37.677575 36.500787 60.798429 0
M  V30 10 F 38.613258 31.393723 53.767772 0
M  V30 11 C 37.503774 28.063234 53.352295 0
M  V30 12 N 36.845144 35.442818 61.367747 0
M  V30 13 O 37.395549 30.158809 59.532520 0
M  V30 14 C 38.989892 27.881912 55.410637 0 CFG=1
M  V30 15 C 38.108110 23.907263 57.581076 0
M  V30 16 C 38.231178 32.445147 59.595087 0
M  V30 17 S 39.645133 29.552935 55.159823 0
M  V30 18 C 38.606675 29.740519 58.917329 0
M  V30 19 C 37.618524 37.723630 61.720547 0
M  V30 20 P 40.080871 27.581793 57.928492 0 CFG=2
M  V30 21 C 37.208401 36.885098 59.383060 0
M  V30 22 C 38.096137 33.768178 60.052030 0
M  V30 23 C 38.283798 30.167865 54.163824 0
M  V30 24 O 38.045136 29.337753 53.034046 0
M  V30 25 C 38.264974 25.358682 57.224499 0
M  V30 26 C 37.275739 31.464650 59.960490 0
M  V30 27 C 36.185659 31.824836 60.773749 0
M  V30 28 C 37.001737 34.126960 60.880517 0
M  V30 29 C 38.536529 28.229801 58.718842 0
M  V30 30 H 40.445137 25.229213 57.346115 0
M  V30 31 H 38.070846 26.270835 54.328472 0
M  V30 32 H 40.960426 26.979083 55.727210 0
M  V30 33 H 36.828708 24.393066 55.817353 0
M  V30 34 H 38.602661 24.137745 55.404349 0
M  V30 35 H 35.210695 33.415693 61.859070 0
M  V30 36 H 40.045135 27.772611 52.586850 0
M  V30 37 H 40.506398 26.351451 53.551429 0
M  V30 38 H 39.302006 26.239501 52.284501 0
M  V30 39 H 38.724808 36.204314 60.785522 0
M  V30 40 H 36.588255 28.138423 53.937249 0
M  V30 41 H 37.237545 27.582676 52.413205 0
M  V30 42 H 36.019994 35.694466 61.890291 0
M  V30 43 H 38.085826 27.996575 56.004799 0
M  V30 44 H 39.014510 23.337747 57.767756 0
M  V30 45 H 37.245143 23.618051 58.167753 0
M  V30 46 H 39.067242 32.186681 58.966701 0
M  V30 47 H 38.725165 30.232994 57.951346 0
M  V30 48 H 39.466385 29.987029 59.543160 0
M  V30 49 H 38.264182 38.522470 61.354953 0
M  V30 50 H 36.605868 38.122309 61.795003 0
M  V30 51 H 37.951192 37.462819 62.726049 0
M  V30 52 H 37.832789 37.675324 58.967780 0
M  V30 53 H 37.244839 36.043435 58.691586 0
M  V30 54 H 36.179902 37.246345 59.395550 0
M  V30 55 H 38.833213 34.497911 59.767783 0
M  V30 56 H 37.452125 25.998563 57.547503 0
M  V30 57 H 35.451829 31.081749 61.048743 0
M  V30 58 H 38.445126 27.735124 59.685156 0
M  V30 59 H 37.647464 27.999265 58.140368 0
M  V30 END ATOM
M  V30 BEGIN BOND
M  V30 1 1 3 1
M  V30 2 1 7 2
M  V30 3 1 11 2
M  V30 4 1 12 9
M  V30 5 1 14 2
M  V30 6 1 14 3
M  V30 7 1 15 4
M  V30 8 1 17 14
M  V30 9 1 18 13
M  V30 10 1 19 9
M  V30 11 1 20 1
M  V30 12 1 20 3
M  V30 13 2 20 6
M  V30 14 1 21 9
M  V30 15 1 22 16
M  V30 16 1 23 8
M  V30 17 1 23 10
M  V30 18 1 23 17
M  V30 19 1 24 11
M  V30 20 1 24 23
M  V30 21 1 25 1
M  V30 22 1 25 4
M  V30 23 1 25 15
M  V30 24 1 26 13
M  V30 25 2 26 16
M  V30 26 2 27 5
M  V30 27 1 27 26
M  V30 28 1 28 5
M  V30 29 1 28 12
M  V30 30 2 28 22
M  V30 31 1 29 18
M  V30 32 1 20 29 CFG=3
M  V30 33 1 1 30 CFG=1
M  V30 34 1 2 31 CFG=1
M  V30 35 1 3 32 CFG=3
M  V30 36 1 33 4
M  V30 37 1 34 4
M  V30 38 1 35 5
M  V30 39 1 36 7
M  V30 40 1 37 7
M  V30 41 1 38 7
M  V30 42 1 39 9
M  V30 43 1 40 11
M  V30 44 1 41 11
M  V30 45 1 42 12
M  V30 46 1 14 43 CFG=1
M  V30 47 1 44 15
M  V30 48 1 45 15
M  V30 49 1 46 16
M  V30 50 1 47 18
M  V30 51 1 48 18
M  V30 52 1 49 19
M  V30 53 1 50 19
M  V30 54 1 51 19
M  V30 55 1 52 21
M  V30 56 1 53 21
M  V30 57 1 54 21
M  V30 58 1 55 22
M  V30 59 1 56 25
M  V30 60 1 57 27
M  V30 61 1 58 29
M  V30 62 1 59 29
M  V30 END BOND
M  V30 END CTAB
M  END
>  <i_epik_Tot_Q>  (1) 
0

>  <i_epik_Tot_abs_Q>  (1) 
0

>  <i_i_glide_confnum>  (1) 
359

>  <i_i_glide_lignum>  (1) 
83

>  <i_i_glide_posenum>  (1) 
60

>  <i_i_glide_rotatable_bonds>  (1) 
8

>  <i_lp_mmshare_version>  (1) 
72125

>  <i_m_source_file_index>  (1) 
41

>  <i_f3d_flags>  (1) 
0

>  <num_sample>  (1) 
50

>  <b_lp_Chiralities_Consistent>  (1) 
1

>  <r_epik_Charging_Adjusted_Penalty>  (1) 
0.10621715127672696

>  <r_epik_Ionization_Penalty>  (1) 
0.10621715241272391

>  <r_epik_Ionization_Penalty_Charging>  (1) 
0

>  <r_epik_Ionization_Penalty_Neutral>  (1) 
0.10621715241272391

>  <r_epik_State_Penalty>  (1) 
0.10621715127672696

>  <r_glide_ring_energy>  (1) 
0

>  <r_i_docking_score>  (1) 
-6.0677517987203986

>  <r_i_glide_ecoul>  (1) 
2.0681163304989356

>  <r_i_glide_eff_state_penalty>  (1) 
0.10621715127672696

>  <r_i_glide_einternal>  (1) 
10.219536377960164

>  <r_i_glide_emodel>  (1) 
-47.68187233442157

>  <r_i_glide_emodel_strain>  (1) 
2.4098697433319813

>  <r_i_glide_energy>  (1) 
-41.97673232252081

>  <r_i_glide_erotb>  (1) 
0.70566581847089904

>  <r_i_glide_esite>  (1) 
-0.076712776792758577

>  <r_i_glide_evdw>  (1) 
-44.044848653019748

>  <r_i_glide_gscore>  (1) 
-6.1739689499971258

>  <r_i_glide_gscore_strain>  (1) 
0

>  <r_i_glide_hbond>  (1) 
0

>  <r_i_glide_ligand_efficiency>  (1) 
-0.20923282064553098

>  <r_i_glide_ligand_efficiency_ln>  (1) 
-1.3893612969971834

>  <r_i_glide_ligand_efficiency_sa>  (1) 
-0.64282951535497412

>  <r_i_glide_lipo>  (1) 
-3.8216372629590718

>  <r_i_glide_metal>  (1) 
-0

>  <r_i_glide_rewards>  (1) 
-1.0892597456400459

>  <r_lp_Energy>  (1) 
16.736861999999999

>  <s_epik_cmdline>  (1) 
J2VwaWtfcHl0aG9uJywgJy1waHQnLCAnMS4wJywgJy1waCcsICc3LjQnLCAnLXRuJywgJzgnLCAnLW1hJywgJzUwMCcsICctaW1hZScsICc8aW5maWxlLm1hZT4nLCAnLW9tYWUnLCAnPG91dGZpbGUubWFlPic=

>  <s_epik_input>  (1) 
RkMxKEYpU1tDQEBIXShbQ0BIXShbQ0gzXSlbQ0gyXU8xKVtDQEBIXTJbQ0BIXShbQ0hdM1tDSDJdW0NIMl0zKVAyKD1PKVtDSDJdW0NIMl1PYzRbY0hdW2NIXWMoW2NIXVtjSF00KVtOSF1bQ0hdKFtDSDNdKVtDSDNd

>  <s_glide_docking_method>  (1) 
confgen

>  <s_i_glide_gridfile>  (1) 
gpcr_5ht2c_6bqh_protein_autoprepared_prepared

>  <s_lp_Force_Field>  (1) 
S-OPLS

>  <s_lp_Variant>  (1) 
DiffSBDD_40-1

>  <s_m_source_file>  (1) 
generated_GPCR_5HT2C_ligand_DiffSBDD_2026-06-23_prepared.sdf

>  <GenAI_Model>  (1) 
DiffSBDD

>  <Protein>  (1) 
GPCR_5HT2C

$$$$
DiffSBDD_14
     RDKit          3D

  0  0  0  0  0  0  0  0  0  0999 V3000
M  V30 BEGIN CTAB
M  V30 COUNTS 59 60 0 0 1
M  V30 BEGIN ATOM
M  V30 1 Cl 40.445066 30.137871 49.767788 0
M  V30 2 C 39.363667 33.084401 55.812957 0
M  V30 3 N 38.844732 27.289613 52.058909 0
M  V30 4 C 38.801892 27.904900 53.258472 0
M  V30 5 C 39.454402 32.582633 61.707403 0
M  V30 6 C 40.443838 36.859295 62.693382 0
M  V30 7 C 41.558674 35.365161 64.376098 0
M  V30 8 C 37.951349 32.744588 56.276471 0 CFG=1
M  V30 9 C 37.644196 34.493490 60.435767 0
M  V30 10 C 39.815383 29.313432 51.133109 0
M  V30 11 C 41.056027 35.541110 63.142822 0
M  V30 12 C 39.344014 27.992907 51.018776 0
M  V30 13 O 36.845150 29.737760 54.967826 0
M  V30 14 N 37.645154 31.304961 56.222025 0 CHG=1
M  V30 15 C 41.060860 34.432247 62.112063 0
M  V30 16 C 37.976079 32.235235 61.427324 0
M  V30 17 C 39.762870 29.943738 52.379279 0
M  V30 18 C 37.867492 30.666628 54.923862 0 CFG=1
M  V30 19 C 39.245115 29.226261 53.466012 0
M  V30 20 C 39.164875 29.858645 54.832205 0
M  V30 21 C 38.025761 32.486783 58.874422 0
M  V30 22 C 37.421435 32.993338 60.204979 0 CFG=2
M  V30 23 C 39.138595 34.771286 60.596686 0
M  V30 24 N 39.666003 34.053844 61.786738 0 CFG=1 CHG=1
M  V30 25 C 37.601903 33.333818 57.657107 0
M  V30 26 H 39.393081 34.137755 55.557059 0
M  V30 27 H 40.116201 32.873659 56.566499 0
M  V30 28 H 39.644855 32.567751 54.901549 0
M  V30 29 H 38.397976 27.328233 54.077289 0
M  V30 30 H 39.754382 32.121506 62.649920 0
M  V30 31 H 40.100690 32.157212 60.939151 0
M  V30 32 H 39.360172 36.774244 62.622894 0
M  V30 33 H 40.622147 37.682313 63.367750 0
M  V30 34 H 40.844871 37.151732 61.722112 0
M  V30 35 H 41.546271 36.160000 65.103485 0
M  V30 36 H 41.989160 34.419723 64.672334 0
M  V30 37 H 37.293466 33.215969 55.550247 0
M  V30 38 H 37.223189 35.093553 59.629747 0
M  V30 39 H 37.113503 34.811657 61.334220 0
M  V30 40 H 39.369598 27.484471 50.070606 0
M  V30 41 H 36.776561 29.331277 54.116006 0
M  V30 42 H 36.634351 31.304335 56.430726 0
M  V30 43 H 41.609328 33.576745 62.510247 0
M  V30 44 H 41.605948 34.761515 61.227950 0
M  V30 45 H 37.379404 32.493551 62.303673 0
M  V30 46 H 37.858923 31.158706 61.294895 0
M  V30 47 H 40.114875 30.958764 52.501013 0
M  V30 48 H 37.714250 31.359357 54.095261 0
M  V30 49 H 40.052470 30.471491 54.981838 0
M  V30 50 H 39.206433 29.087021 55.602867 0
M  V30 51 H 37.696583 31.454514 58.757753 0
M  V30 52 H 39.112369 32.449973 58.910691 0
M  V30 53 H 36.344318 32.821629 60.159910 0
M  V30 54 H 39.275334 35.845767 60.658854 0
M  V30 55 H 39.700939 34.466133 59.716745 0
M  V30 56 H 38.036396 34.327207 57.705777 0
M  V30 57 H 36.529546 33.505248 57.739402 0
M  V30 58 H 39.113428 34.363608 62.573764 0
M  V30 59 H 38.113952 30.796543 56.954054 0
M  V30 END ATOM
M  V30 BEGIN BOND
M  V30 1 1 4 3
M  V30 2 1 8 2
M  V30 3 1 10 1
M  V30 4 1 11 6
M  V30 5 2 11 7
M  V30 6 2 12 3
M  V30 7 1 12 10
M  V30 8 1 14 8
M  V30 9 1 15 11
M  V30 10 1 16 5
M  V30 11 2 17 10
M  V30 12 1 18 13
M  V30 13 1 18 14
M  V30 14 2 19 4
M  V30 15 1 19 17
M  V30 16 1 20 18
M  V30 17 1 20 19
M  V30 18 1 22 9
M  V30 19 1 22 16
M  V30 20 1 22 21
M  V30 21 1 23 9
M  V30 22 1 24 5
M  V30 23 1 24 15
M  V30 24 1 24 23
M  V30 25 1 25 8
M  V30 26 1 25 21
M  V30 27 1 26 2
M  V30 28 1 27 2
M  V30 29 1 28 2
M  V30 30 1 29 4
M  V30 31 1 30 5
M  V30 32 1 31 5
M  V30 33 1 32 6
M  V30 34 1 33 6
M  V30 35 1 34 6
M  V30 36 1 35 7
M  V30 37 1 36 7
M  V30 38 1 8 37 CFG=3
M  V30 39 1 38 9
M  V30 40 1 39 9
M  V30 41 1 40 12
M  V30 42 1 41 13
M  V30 43 1 42 14
M  V30 44 1 43 15
M  V30 45 1 44 15
M  V30 46 1 45 16
M  V30 47 1 46 16
M  V30 48 1 47 17
M  V30 49 1 18 48 CFG=3
M  V30 50 1 49 20
M  V30 51 1 50 20
M  V30 52 1 51 21
M  V30 53 1 52 21
M  V30 54 1 22 53 CFG=3
M  V30 55 1 54 23
M  V30 56 1 55 23
M  V30 57 1 56 25
M  V30 58 1 57 25
M  V30 59 1 24 58 CFG=1
M  V30 60 1 59 14
M  V30 END BOND
M  V30 END CTAB
M  END
>  <i_epik_Tot_Q>  (1) 
2

>  <i_epik_Tot_abs_Q>  (1) 
2

>  <i_i_glide_confnum>  (1) 
355

>  <i_i_glide_lignum>  (1) 
28

>  <i_i_glide_posenum>  (1) 
201

>  <i_i_glide_rotatable_bonds>  (1) 
10

>  <i_lp_mmshare_version>  (1) 
72125

>  <i_m_source_file_index>  (1) 
15

>  <i_f3d_flags>  (1) 
0

>  <num_sample>  (1) 
50

>  <b_lp_Chiralities_Consistent>  (1) 
1

>  <r_epik_Charging_Adjusted_Penalty>  (1) 
0.35265002497065456

>  <r_epik_Ionization_Penalty>  (1) 
0.35265410833524857

>  <r_epik_Ionization_Penalty_Charging>  (1) 
0.072075358936459305

>  <r_epik_Ionization_Penalty_Neutral>  (1) 
0.2805787493987893

>  <r_epik_State_Penalty>  (1) 
0.28057466603419523

>  <r_glide_ring_energy>  (1) 
0

>  <r_i_docking_score>  (1) 
-6.0664364493490348

>  <r_i_glide_ecoul>  (1) 
-5.0089099938096791

>  <r_i_glide_eff_state_penalty>  (1) 
0.28057466603419523

>  <r_i_glide_einternal>  (1) 
6.9162247284507163

>  <r_i_glide_emodel>  (1) 
-50.574061082145448

>  <r_i_glide_emodel_strain>  (1) 
1.1396954416710834

>  <r_i_glide_energy>  (1) 
-37.192596332105154

>  <r_i_glide_erotb>  (1) 
1.1382379647718497

>  <r_i_glide_esite>  (1) 
-0.14419082633857203

>  <r_i_glide_evdw>  (1) 
-32.183686338295473

>  <r_i_glide_gscore>  (1) 
-6.3470111153832303

>  <r_i_glide_gscore_strain>  (1) 
0

>  <r_i_glide_hbond>  (1) 
-0.16529358335910188

>  <r_i_glide_ligand_efficiency>  (1) 
-0.2426574579739614

>  <r_i_glide_ligand_efficiency_ln>  (1) 
-1.4379272349260368

>  <r_i_glide_ligand_efficiency_sa>  (1) 
-0.70953471142550628

>  <r_i_glide_lipo>  (1) 
-3.086161467488477

>  <r_i_glide_metal>  (1) 
-0

>  <r_i_glide_rewards>  (1) 
-1.7290823869827041

>  <r_lp_Energy>  (1) 
34.603625000000001

>  <s_epik_Chemistry_Notes>  (1) 
This compound contains an acetal/aminal-like group ( X-CH(R)-Y where X, Y are N, S, or O) that may be acid/base labile, releasing an aldehyde.

>  <s_epik_cmdline>  (1) 
J2VwaWtfcHl0aG9uJywgJy1waHQnLCAnMS4wJywgJy1waCcsICc3LjQnLCAnLXRuJywgJzgnLCAnLW1hJywgJzUwMCcsICctaW1hZScsICc8aW5maWxlLm1hZT4nLCAnLW9tYWUnLCAnPG91dGZpbGUubWFlPic=

>  <s_epik_input>  (1) 
Q2xjMVtjSF1uW2NIXWMoW2NIXTEpW0NIMl1bQ0BASF0oW09IXSlbTkhdW0NASF0oW0NIM10pW0NIMl1bQ0gyXVtDSF0yW0NIMl1bQ0gyXU4oW0NIMl1bQ0gyXTIpW0NIMl1DKFtDSDNdKT1bQ0gyXQ==

>  <s_glide_docking_method>  (1) 
confgen

>  <s_i_glide_gridfile>  (1) 
gpcr_5ht2c_6bqh_protein_autoprepared_prepared

>  <s_lp_Force_Field>  (1) 
S-OPLS

>  <s_lp_Variant>  (1) 
DiffSBDD_14-2

>  <s_m_source_file>  (1) 
generated_GPCR_5HT2C_ligand_DiffSBDD_2026-06-23_prepared.sdf

>  <GenAI_Model>  (1) 
DiffSBDD

>  <Protein>  (1) 
GPCR_5HT2C

$$$$
DiffSBDD_40
     RDKit          3D

  0  0  0  0  0  0  0  0  0  0999 V3000
M  V30 BEGIN CTAB
M  V30 COUNTS 59 62 0 0 1
M  V30 BEGIN ATOM
M  V30 1 C 37.998937 27.983366 52.962483 0 CFG=1
M  V30 2 C 38.472869 25.363375 55.537013 0 CFG=2
M  V30 3 C 37.695892 27.523660 54.384194 0 CFG=1
M  V30 4 C 39.305250 27.714878 50.705802 0
M  V30 5 C 38.004928 31.526421 60.086482 0
M  V30 6 O 36.845092 30.138326 54.567716 0
M  V30 7 C 37.042279 24.842217 55.757630 0
M  V30 8 F 40.716584 27.094517 57.477788 0
M  V30 9 C 36.933230 35.067292 60.632859 0
M  V30 10 F 39.483184 27.195153 59.214887 0
M  V30 11 C 39.429118 24.804574 56.608714 0
M  V30 12 N 37.349658 33.703984 60.951054 0
M  V30 13 O 39.245112 30.492196 56.769774 0
M  V30 14 C 38.602078 26.902445 55.431090 0 CFG=1
M  V30 15 C 40.110571 28.663765 51.530278 0
M  V30 16 C 38.565004 32.672870 57.575401 0
M  V30 17 S 38.253138 27.643134 57.048374 0
M  V30 18 C 39.583200 31.054744 55.511600 0
M  V30 19 C 36.759001 35.862715 61.930808 0
M  V30 20 P 38.014974 29.300856 54.206215 0 CFG=2
M  V30 21 C 35.653996 35.064265 59.767745 0
M  V30 22 C 38.093736 33.472740 58.618411 0
M  V30 23 C 39.517314 26.761998 57.957843 0
M  V30 24 O 39.275340 25.368664 57.904502 0
M  V30 25 C 39.263360 27.600501 52.214527 0
M  V30 26 C 38.763826 31.290503 57.777705 0
M  V30 27 C 38.476806 30.720142 59.034857 0
M  V30 28 C 37.813225 32.906889 59.885928 0
M  V30 29 C 39.735099 29.872139 54.570871 0
M  V30 30 H 37.126345 28.053466 52.317073 0
M  V30 31 H 38.799016 24.946352 54.582742 0
M  V30 32 H 36.647769 27.317275 54.567738 0
M  V30 33 H 39.839119 26.937737 50.167802 0
M  V30 34 H 38.445925 28.137893 50.193704 0
M  V30 35 H 37.793912 31.084951 61.048668 0
M  V30 36 H 36.545007 25.331755 56.597131 0
M  V30 37 H 36.445128 24.992030 54.862916 0
M  V30 38 H 37.038000 23.769743 55.953369 0
M  V30 39 H 37.733551 35.588667 60.109601 0
M  V30 40 H 40.446648 24.937609 56.266269 0
M  V30 41 H 39.265976 23.737756 56.720638 0
M  V30 42 H 37.008570 33.271681 61.795753 0
M  V30 43 H 39.635236 27.115192 55.166116 0
M  V30 44 H 39.765797 29.695602 51.522507 0
M  V30 45 H 41.190545 28.537726 51.518741 0
M  V30 46 H 38.779103 33.126061 56.622819 0
M  V30 47 H 38.808394 31.711882 55.113605 0
M  V30 48 H 40.493921 31.640707 55.576057 0
M  V30 49 H 36.446351 36.887230 61.725631 0
M  V30 50 H 36.010220 35.406345 62.576948 0
M  V30 51 H 37.696474 35.915091 62.484424 0
M  V30 52 H 35.343153 36.079611 59.529760 0
M  V30 53 H 35.771721 34.566070 58.807900 0
M  V30 54 H 34.845131 34.537765 60.272011 0
M  V30 55 H 37.951590 34.522560 58.442190 0
M  V30 56 H 39.811527 26.758096 52.631841 0
M  V30 57 H 38.628076 29.663295 59.193997 0
M  V30 58 H 40.216760 30.212376 53.658152 0
M  V30 59 H 40.358008 29.108608 55.026238 0
M  V30 END ATOM
M  V30 BEGIN BOND
M  V30 1 1 3 1
M  V30 2 1 7 2
M  V30 3 1 11 2
M  V30 4 1 12 9
M  V30 5 1 14 2
M  V30 6 1 14 3
M  V30 7 1 15 4
M  V30 8 1 17 14
M  V30 9 1 18 13
M  V30 10 1 19 9
M  V30 11 1 20 1
M  V30 12 1 20 3
M  V30 13 2 20 6
M  V30 14 1 21 9
M  V30 15 1 22 16
M  V30 16 1 23 8
M  V30 17 1 23 10
M  V30 18 1 23 17
M  V30 19 1 24 11
M  V30 20 1 24 23
M  V30 21 1 25 1
M  V30 22 1 25 4
M  V30 23 1 25 15
M  V30 24 1 26 13
M  V30 25 2 26 16
M  V30 26 2 27 5
M  V30 27 1 27 26
M  V30 28 1 28 5
M  V30 29 1 28 12
M  V30 30 2 28 22
M  V30 31 1 29 18
M  V30 32 1 20 29 CFG=1
M  V30 33 1 1 30 CFG=3
M  V30 34 1 2 31 CFG=3
M  V30 35 1 3 32 CFG=3
M  V30 36 1 33 4
M  V30 37 1 34 4
M  V30 38 1 35 5
M  V30 39 1 36 7
M  V30 40 1 37 7
M  V30 41 1 38 7
M  V30 42 1 39 9
M  V30 43 1 40 11
M  V30 44 1 41 11
M  V30 45 1 42 12
M  V30 46 1 14 43 CFG=3
M  V30 47 1 44 15
M  V30 48 1 45 15
M  V30 49 1 46 16
M  V30 50 1 47 18
M  V30 51 1 48 18
M  V30 52 1 49 19
M  V30 53 1 50 19
M  V30 54 1 51 19
M  V30 55 1 52 21
M  V30 56 1 53 21
M  V30 57 1 54 21
M  V30 58 1 55 22
M  V30 59 1 56 25
M  V30 60 1 57 27
M  V30 61 1 58 29
M  V30 62 1 59 29
M  V30 END BOND
M  V30 END CTAB
M  END
>  <i_epik_Tot_Q>  (1) 
0

>  <i_epik_Tot_abs_Q>  (1) 
0

>  <i_i_glide_confnum>  (1) 
432

>  <i_i_glide_lignum>  (1) 
83

>  <i_i_glide_posenum>  (1) 
297

>  <i_i_glide_rotatable_bonds>  (1) 
8

>  <i_lp_mmshare_version>  (1) 
72125

>  <i_m_source_file_index>  (1) 
41

>  <i_f3d_flags>  (1) 
0

>  <num_sample>  (1) 
50

>  <b_lp_Chiralities_Consistent>  (1) 
1

>  <r_epik_Charging_Adjusted_Penalty>  (1) 
0.10621715127672696

>  <r_epik_Ionization_Penalty>  (1) 
0.10621715241272391

>  <r_epik_Ionization_Penalty_Charging>  (1) 
0

>  <r_epik_Ionization_Penalty_Neutral>  (1) 
0.10621715241272391

>  <r_epik_State_Penalty>  (1) 
0.10621715127672696

>  <r_glide_ring_energy>  (1) 
0

>  <r_i_docking_score>  (1) 
-6.0608138029546925

>  <r_i_glide_ecoul>  (1) 
0.64837465856656129

>  <r_i_glide_eff_state_penalty>  (1) 
0.10621715127672696

>  <r_i_glide_einternal>  (1) 
6.8708726705551886

>  <r_i_glide_emodel>  (1) 
-47.175751458715219

>  <r_i_glide_emodel_strain>  (1) 
1.5705955570501615

>  <r_i_glide_energy>  (1) 
-38.971866747099668

>  <r_i_glide_erotb>  (1) 
0.70566581847089904

>  <r_i_glide_esite>  (1) 
0

>  <r_i_glide_evdw>  (1) 
-39.620241405666228

>  <r_i_glide_gscore>  (1) 
-6.1670309542314197

>  <r_i_glide_gscore_strain>  (1) 
0

>  <r_i_glide_hbond>  (1) 
0

>  <r_i_glide_ligand_efficiency>  (1) 
-0.20899357941223079

>  <r_i_glide_ligand_efficiency_ln>  (1) 
-1.3877726718992294

>  <r_i_glide_ligand_efficiency_sa>  (1) 
-0.64209449048850797

>  <r_i_glide_lipo>  (1) 
-3.8868834895610278

>  <r_i_glide_metal>  (1) 
-0

>  <r_i_glide_rewards>  (1) 
-1.1020574116429647

>  <r_lp_Energy>  (1) 
16.736861999999999

>  <s_epik_cmdline>  (1) 
J2VwaWtfcHl0aG9uJywgJy1waHQnLCAnMS4wJywgJy1waCcsICc3LjQnLCAnLXRuJywgJzgnLCAnLW1hJywgJzUwMCcsICctaW1hZScsICc8aW5maWxlLm1hZT4nLCAnLW9tYWUnLCAnPG91dGZpbGUubWFlPic=

>  <s_epik_input>  (1) 
RkMxKEYpU1tDQEBIXShbQ0BIXShbQ0gzXSlbQ0gyXU8xKVtDQEBIXTJbQ0BIXShbQ0hdM1tDSDJdW0NIMl0zKVAyKD1PKVtDSDJdW0NIMl1PYzRbY0hdW2NIXWMoW2NIXVtjSF00KVtOSF1bQ0hdKFtDSDNdKVtDSDNd

>  <s_glide_docking_method>  (1) 
confgen

>  <s_i_glide_gridfile>  (1) 
gpcr_5ht2c_6bqh_protein_autoprepared_prepared

>  <s_lp_Force_Field>  (1) 
S-OPLS

>  <s_lp_Variant>  (1) 
DiffSBDD_40-1

>  <s_m_source_file>  (1) 
generated_GPCR_5HT2C_ligand_DiffSBDD_2026-06-23_prepared.sdf

>  <GenAI_Model>  (1) 
DiffSBDD

>  <Protein>  (1) 
GPCR_5HT2C

$$$$
DiffSBDD_48
     RDKit          3D

  0  0  0  0  0  0  0  0  0  0999 V3000
M  V30 BEGIN CTAB
M  V30 COUNTS 78 78 0 0 1
M  V30 BEGIN ATOM
M  V30 1 O 41.034617 25.337807 65.595435 0
M  V30 2 C 40.771906 33.304745 61.730857 0
M  V30 3 C 41.335489 33.340009 63.157457 0
M  V30 4 O 39.019580 24.654669 55.867048 0
M  V30 5 C 37.887214 31.262513 59.324585 0
M  V30 6 C 42.265122 25.332862 65.367780 0
M  V30 7 C 37.604397 27.515558 53.839752 0
M  V30 8 C 43.162719 26.069359 66.365567 0
M  V30 9 C 37.861500 31.150370 60.856604 0
M  V30 10 C 40.907705 32.181260 64.071552 0
M  V30 11 N 39.173555 31.444436 61.437348 0
M  V30 12 C 44.780073 28.033675 66.556998 0
M  V30 13 C 38.625946 30.089336 58.662144 0
M  V30 14 C 38.171439 25.650777 55.467917 0
M  V30 15 C 39.121828 24.376584 57.252151 0
M  V30 16 C 43.559475 27.456462 65.813965 0 CFG=2
M  V30 17 C 42.342898 28.415557 65.817476 0
M  V30 18 C 36.932493 25.815581 56.346510 0
M  V30 19 O 37.245117 29.867435 54.211767 0
M  V30 20 C 40.701777 30.822464 63.366433 0 CFG=2
M  V30 21 C 42.225286 29.243493 64.533617 0
M  V30 22 O 42.828941 24.786014 64.395715 0 CHG=-1
M  V30 23 C 38.652349 30.220774 57.135828 0
M  V30 24 O 45.245141 29.211084 65.927371 0
M  V30 25 C 38.016253 28.920997 54.311870 0
M  V30 26 C 39.413133 29.067550 56.450767 0
M  V30 27 C 39.315825 30.696135 62.687718 0
M  V30 28 C 39.297445 32.892407 61.632373 0
M  V30 29 C 38.462478 26.385240 54.378333 0
M  V30 30 N 40.845092 29.741125 64.363894 0 CHG=1
M  V30 31 C 39.425724 29.106570 54.904770 0 CFG=2
M  V30 32 C 40.082657 30.391952 54.357705 0
M  V30 33 H 41.380358 32.655079 61.099584 0
M  V30 34 H 40.881519 34.305368 61.311436 0
M  V30 35 H 42.423979 33.361587 63.089834 0
M  V30 36 H 41.053913 34.278458 63.637121 0
M  V30 37 H 36.858330 31.274392 58.960054 0
M  V30 38 H 38.325156 32.208211 59.006901 0
M  V30 39 H 36.562902 27.363845 54.112908 0
M  V30 40 H 37.633759 27.484739 52.750313 0
M  V30 41 H 44.045007 25.453634 66.535249 0
M  V30 42 H 42.659648 26.160720 67.328875 0
M  V30 43 H 37.550442 30.137758 61.101766 0
M  V30 44 H 37.103424 31.811100 61.280508 0
M  V30 45 H 39.995244 32.456385 64.598897 0
M  V30 46 H 41.666846 32.094753 64.850948 0
M  V30 47 H 45.596847 27.311324 66.549856 0
M  V30 48 H 44.547554 28.242966 67.601395 0
M  V30 49 H 39.645268 30.035700 59.043029 0
M  V30 50 H 38.146720 29.149240 58.939360 0
M  V30 51 H 40.044968 23.819884 57.367816 0
M  V30 52 H 39.193857 25.281212 57.857960 0
M  V30 53 H 38.313570 23.743484 57.618296 0
M  V30 54 H 43.881721 27.296363 64.782787 0
M  V30 55 H 41.418989 27.850358 65.936848 0
M  V30 56 H 42.372600 29.068457 66.690714 0
M  V30 57 H 36.076506 26.137752 55.767747 0
M  V30 58 H 36.615452 24.878144 56.800150 0
M  V30 59 H 37.110140 26.543504 57.138162 0
M  V30 60 H 41.470836 30.674558 62.606309 0
M  V30 61 H 42.940282 30.067123 64.566024 0
M  V30 62 H 42.469825 28.641878 63.656996 0
M  V30 63 H 37.623391 30.269706 56.776820 0
M  V30 64 H 39.112729 31.173472 56.874255 0
M  V30 65 H 46.161647 29.337563 66.167792 0
M  V30 66 H 40.443966 29.057896 56.805617 0
M  V30 67 H 38.987396 28.120102 56.781178 0
M  V30 68 H 39.177423 29.643043 62.436121 0
M  V30 69 H 38.503983 30.937805 63.367747 0
M  V30 70 H 38.884769 33.403391 60.762268 0
M  V30 71 H 38.714803 33.239640 62.487135 0
M  V30 72 H 39.370764 26.175924 53.832396 0
M  V30 73 H 40.258470 28.958175 64.097911 0
M  V30 74 H 40.043926 28.277104 54.574183 0
M  V30 75 H 40.189526 30.347907 53.273163 0
M  V30 76 H 39.504053 31.286708 54.590010 0
M  V30 77 H 41.079321 30.534344 54.774240 0
M  V30 78 H 40.505727 30.082243 65.251420 0
M  V30 END ATOM
M  V30 BEGIN BOND
M  V30 1 1 3 2
M  V30 2 2 6 1
M  V30 3 1 8 6
M  V30 4 1 9 5
M  V30 5 1 10 3
M  V30 6 1 11 9
M  V30 7 1 13 5
M  V30 8 1 14 4
M  V30 9 1 15 4
M  V30 10 1 16 8
M  V30 11 1 16 12
M  V30 12 1 17 16
M  V30 13 1 18 14
M  V30 14 1 20 10
M  V30 15 1 21 17
M  V30 16 1 22 6
M  V30 17 1 23 13
M  V30 18 1 24 12
M  V30 19 1 25 7
M  V30 20 2 25 19
M  V30 21 1 26 23
M  V30 22 1 27 11
M  V30 23 1 27 20
M  V30 24 1 28 2
M  V30 25 1 28 11
M  V30 26 1 29 7
M  V30 27 2 29 14
M  V30 28 1 30 20
M  V30 29 1 30 21
M  V30 30 1 31 25
M  V30 31 1 31 26
M  V30 32 1 32 31
M  V30 33 1 33 2
M  V30 34 1 34 2
M  V30 35 1 35 3
M  V30 36 1 36 3
M  V30 37 1 37 5
M  V30 38 1 38 5
M  V30 39 1 39 7
M  V30 40 1 40 7
M  V30 41 1 41 8
M  V30 42 1 42 8
M  V30 43 1 43 9
M  V30 44 1 44 9
M  V30 45 1 45 10
M  V30 46 1 46 10
M  V30 47 1 47 12
M  V30 48 1 48 12
M  V30 49 1 49 13
M  V30 50 1 50 13
M  V30 51 1 51 15
M  V30 52 1 52 15
M  V30 53 1 53 15
M  V30 54 1 16 54 CFG=3
M  V30 55 1 55 17
M  V30 56 1 56 17
M  V30 57 1 57 18
M  V30 58 1 58 18
M  V30 59 1 59 18
M  V30 60 1 20 60 CFG=3
M  V30 61 1 61 21
M  V30 62 1 62 21
M  V30 63 1 63 23
M  V30 64 1 64 23
M  V30 65 1 65 24
M  V30 66 1 66 26
M  V30 67 1 67 26
M  V30 68 1 68 27
M  V30 69 1 69 27
M  V30 70 1 70 28
M  V30 71 1 71 28
M  V30 72 1 72 29
M  V30 73 1 73 30
M  V30 74 1 31 74 CFG=3
M  V30 75 1 75 32
M  V30 76 1 76 32
M  V30 77 1 77 32
M  V30 78 1 78 30
M  V30 END BOND
M  V30 END CTAB
M  END
>  <i_epik_Tot_Q>  (1) 
0

>  <i_epik_Tot_abs_Q>  (1) 
2

>  <i_i_glide_confnum>  (1) 
818

>  <i_i_glide_lignum>  (1) 
102

>  <i_i_glide_posenum>  (1) 
235

>  <i_i_glide_rotatable_bonds>  (1) 
18

>  <i_lp_mmshare_version>  (1) 
72125

>  <i_m_source_file_index>  (1) 
49

>  <i_f3d_flags>  (1) 
0

>  <num_sample>  (1) 
50

>  <b_lp_Chiralities_Consistent>  (1) 
1

>  <r_epik_Charging_Adjusted_Penalty>  (1) 
0.04911624183534407

>  <r_epik_Ionization_Penalty>  (1) 
0.025385742012929795

>  <r_epik_Ionization_Penalty_Charging>  (1) 
0.0065475108590220404

>  <r_epik_Ionization_Penalty_Neutral>  (1) 
0.018838231153907755

>  <r_epik_State_Penalty>  (1) 
0.042568730976322029

>  <r_glide_ring_energy>  (1) 
0

>  <r_i_docking_score>  (1) 
-6.0565221944001868

>  <r_i_glide_ecoul>  (1) 
-7.2446491728384625

>  <r_i_glide_eff_state_penalty>  (1) 
0.042568730976322029

>  <r_i_glide_einternal>  (1) 
7.5896105427331184

>  <r_i_glide_emodel>  (1) 
-55.128005265971069

>  <r_i_glide_emodel_strain>  (1) 
2.2812965677981651

>  <r_i_glide_energy>  (1) 
-44.076850282911536

>  <r_i_glide_erotb>  (1) 
1.5544609794247006

>  <r_i_glide_esite>  (1) 
-0.025281242274670858

>  <r_i_glide_evdw>  (1) 
-36.832201110073072

>  <r_i_glide_gscore>  (1) 
-6.0990909253765091

>  <r_i_glide_gscore_strain>  (1) 
0

>  <r_i_glide_hbond>  (1) 
-0.32000000000000001

>  <r_i_glide_ligand_efficiency>  (1) 
-0.18926631857500584

>  <r_i_glide_ligand_efficiency_ln>  (1) 
-1.356220413885904

>  <r_i_glide_ligand_efficiency_sa>  (1) 
-0.60088310641622533

>  <r_i_glide_lipo>  (1) 
-3.1549750713643574

>  <r_i_glide_metal>  (1) 
-0

>  <r_i_glide_rewards>  (1) 
-1.2249881597327583

>  <r_lp_Energy>  (1) 
19.305907999999999

>  <r_lp_tautomer_probability>  (1) 
0.99990000499974985

>  <s_epik_cmdline>  (1) 
J2VwaWtfcHl0aG9uJywgJy1waHQnLCAnMS4wJywgJy1waCcsICc3LjQnLCAnLXRuJywgJzgnLCAnLW1hJywgJzUwMCcsICctaW1hZScsICc8aW5maWxlLm1hZT4nLCAnLW9tYWUnLCAnPG91dGZpbGUubWFlPic=

>  <s_epik_input>  (1) 
Tz1DKFtPSF0pW0NIMl1bQ0BASF0oW0NIMl1bT0hdKVtDSDJdW0NIMl1bTkhdW0NASF0oW0NIMl1bQ0gyXVtDSDJdW0NIMl0xKVtDSDJdTjFbQ0gyXVtDSDJdW0NIMl1bQ0gyXVtDSDJdW0NASF0oW0NIM10pQyg9TylbQ0gyXVxbQ0hdPUMoW0NIM10pXE9bQ0gzXQ==

>  <s_glide_docking_method>  (1) 
confgen

>  <s_i_glide_gridfile>  (1) 
gpcr_5ht2c_6bqh_protein_autoprepared_prepared

>  <s_lp_Force_Field>  (1) 
S-OPLS

>  <s_lp_Variant>  (1) 
DiffSBDD_48-4

>  <s_m_source_file>  (1) 
generated_GPCR_5HT2C_ligand_DiffSBDD_2026-06-23_prepared.sdf

>  <GenAI_Model>  (1) 
DiffSBDD

>  <Protein>  (1) 
GPCR_5HT2C

$$$$
DiffSBDD_17
     RDKit          3D

  0  0  0  0  0  0  0  0  0  0999 V3000
M  V30 BEGIN CTAB
M  V30 COUNTS 94 98 0 0 1
M  V30 BEGIN ATOM
M  V30 1 C 42.920071 30.691526 67.724438 0
M  V30 2 C 38.135164 32.540118 61.766012 0 CFG=2
M  V30 3 C 41.185406 28.842249 67.020077 0
M  V30 4 O 39.994103 28.143780 61.529640 0
M  V30 5 C 41.275856 29.787695 69.361386 0
M  V30 6 C 38.305413 28.749912 54.051821 0
M  V30 7 C 39.512756 26.853107 52.975879 0
M  V30 8 C 38.563505 27.957257 53.012021 0
M  V30 9 C 39.568930 34.108141 59.768149 0
M  V30 10 C 40.371796 34.708143 62.800925 0
M  V30 11 N 42.840900 28.783603 65.045700 0
M  V30 12 C 39.028075 35.066357 62.183293 0 CFG=2
M  V30 13 C 40.614469 30.019821 64.781433 0 CFG=1
M  V30 14 C 39.439903 31.842431 62.281451 0
M  V30 15 N 43.011080 28.038738 63.771464 0 CHG=1
M  V30 16 C 37.309306 30.479399 55.133623 0 CFG=2
M  V30 17 C 38.964145 28.741990 55.376961 0 CFG=2
M  V30 18 C 44.458434 27.080061 65.429486 0
M  V30 19 C 41.416757 28.864350 65.472351 0 CFG=2
M  V30 20 O 37.374890 29.730887 53.943962 0
M  V30 21 C 43.788453 26.827070 64.073086 0
M  V30 22 O 41.253461 31.268188 64.933546 0
M  V30 23 N 37.693842 31.143319 58.158159 0 CHG=1
M  V30 24 C 39.308108 27.456031 56.050629 0
M  V30 25 C 37.458914 31.976232 60.487519 0
M  V30 26 C 40.044961 26.162172 54.027696 0
M  V30 27 N 38.042667 34.043841 61.767676 0 CFG=1 CHG=1
M  V30 28 C 39.583157 29.465321 61.213924 0
M  V30 29 S 38.045234 32.138345 54.967572 0
M  V30 30 C 39.442992 30.309637 62.504318 0 CFG=1
M  V30 31 C 39.802680 26.359028 55.461058 0
M  V30 32 N 40.620224 29.915585 63.310827 0 CHG=1
M  V30 33 C 38.677668 34.843241 60.733603 0 CFG=2
M  V30 34 C 38.668303 30.354271 57.364965 0
M  V30 35 C 38.761755 33.339767 58.705343 0
M  V30 36 C 38.004247 29.605168 56.197663 0 CFG=1
M  V30 37 C 38.335698 31.950578 59.219671 0 CFG=2
M  V30 38 N 43.707388 28.169839 66.067467 0 CHG=1
M  V30 39 C 41.505914 30.100565 67.874932 0
M  V30 40 H 43.683756 30.000624 68.079568 0
M  V30 41 H 43.156017 30.974927 66.700518 0
M  V30 42 H 43.017090 31.596604 68.326032 0
M  V30 43 H 37.420080 32.303550 62.555242 0
M  V30 44 H 40.120398 28.648957 67.159472 0
M  V30 45 H 41.641136 27.963672 67.475862 0
M  V30 46 H 39.920714 27.604701 60.751930 0
M  V30 47 H 42.017480 29.085867 69.745205 0
M  V30 48 H 41.330396 30.692595 69.967922 0
M  V30 49 H 40.301926 29.337776 69.528679 0
M  V30 50 H 39.786922 26.502811 51.992953 0
M  V30 51 H 38.012267 28.154495 52.102739 0
M  V30 52 H 40.257665 33.439690 60.254739 0
M  V30 53 H 40.234252 34.863967 59.367828 0
M  V30 54 H 40.945232 35.625924 62.938128 0
M  V30 55 H 40.244912 34.270158 63.787846 0
M  V30 56 H 40.985385 34.061764 62.182037 0
M  V30 57 H 38.492997 35.859010 62.704003 0
M  V30 58 H 39.591064 30.069949 65.156408 0
M  V30 59 H 39.622307 32.274519 63.259689 0
M  V30 60 H 40.319456 32.054182 61.688292 0
M  V30 61 H 42.110597 27.786911 63.392794 0
M  V30 62 H 36.251666 30.563119 55.367990 0
M  V30 63 H 39.899718 29.289572 55.248943 0
M  V30 64 H 45.489404 27.408595 65.295656 0
M  V30 65 H 44.453155 26.193310 66.062949 0
M  V30 66 H 40.954657 27.933534 65.137559 0
M  V30 67 H 44.499728 26.599961 63.278192 0
M  V30 68 H 43.097509 25.987210 64.147377 0
M  V30 69 H 40.999607 31.645253 65.765681 0
M  V30 70 H 37.051179 30.487087 58.577512 0
M  V30 71 H 39.188747 27.446550 57.123733 0
M  V30 72 H 37.106782 30.968575 60.704948 0
M  V30 73 H 36.547563 32.538249 60.275733 0
M  V30 74 H 40.687506 25.337870 53.767122 0
M  V30 75 H 40.346825 29.878529 60.553878 0
M  V30 76 H 38.652387 29.408584 60.653789 0
M  V30 77 H 36.881045 32.793553 54.828308 0
M  V30 78 H 38.518348 30.026171 62.996828 0
M  V30 79 H 40.058045 25.534248 56.110608 0
M  V30 80 H 40.641253 28.930714 63.074562 0
M  V30 81 H 37.950195 35.519589 60.288953 0
M  V30 82 H 39.478471 30.989487 57.005396 0
M  V30 83 H 39.140536 29.628678 58.027394 0
M  V30 84 H 39.378917 33.224899 57.813788 0
M  V30 85 H 37.891124 33.916457 58.386710 0
M  V30 86 H 37.246137 28.940182 56.611729 0
M  V30 87 H 39.244273 31.431247 59.489951 0
M  V30 88 H 44.324055 28.886198 66.429286 0
M  V30 89 H 40.792343 30.877977 67.598926 0
M  V30 90 H 43.537469 28.626135 63.135339 0
M  V30 91 H 43.103537 27.818810 66.798467 0
M  V30 92 H 37.118712 31.732916 57.552173 0
M  V30 93 H 41.446786 30.375566 62.964582 0
M  V30 94 H 37.093257 34.371961 61.890647 0
M  V30 END ATOM
M  V30 BEGIN BOND
M  V30 1 2 8 6
M  V30 2 1 8 7
M  V30 3 1 12 10
M  V30 4 1 14 2
M  V30 5 1 15 11
M  V30 6 1 17 6
M  V30 7 1 19 3
M  V30 8 1 19 11
M  V30 9 1 19 13
M  V30 10 1 20 6
M  V30 11 1 20 16
M  V30 12 1 21 15
M  V30 13 1 21 18
M  V30 14 1 22 13
M  V30 15 1 24 17
M  V30 16 1 25 2
M  V30 17 2 26 7
M  V30 18 1 27 2
M  V30 19 1 27 12
M  V30 20 1 28 4
M  V30 21 1 29 16
M  V30 22 1 30 14
M  V30 23 1 30 28
M  V30 24 2 31 24
M  V30 25 1 31 26
M  V30 26 1 32 13
M  V30 27 1 32 30
M  V30 28 1 33 9
M  V30 29 1 33 12
M  V30 30 1 33 27
M  V30 31 1 34 23
M  V30 32 1 35 9
M  V30 33 1 36 16
M  V30 34 1 36 17
M  V30 35 1 36 34
M  V30 36 1 37 23
M  V30 37 1 37 25
M  V30 38 1 37 35
M  V30 39 1 38 11
M  V30 40 1 38 18
M  V30 41 1 39 1
M  V30 42 1 39 3
M  V30 43 1 39 5
M  V30 44 1 40 1
M  V30 45 1 41 1
M  V30 46 1 42 1
M  V30 47 1 2 43 CFG=1
M  V30 48 1 44 3
M  V30 49 1 45 3
M  V30 50 1 46 4
M  V30 51 1 47 5
M  V30 52 1 48 5
M  V30 53 1 49 5
M  V30 54 1 50 7
M  V30 55 1 51 8
M  V30 56 1 52 9
M  V30 57 1 53 9
M  V30 58 1 54 10
M  V30 59 1 55 10
M  V30 60 1 56 10
M  V30 61 1 12 57 CFG=1
M  V30 62 1 13 58 CFG=1
M  V30 63 1 59 14
M  V30 64 1 60 14
M  V30 65 1 61 15
M  V30 66 1 16 62 CFG=1
M  V30 67 1 17 63 CFG=3
M  V30 68 1 64 18
M  V30 69 1 65 18
M  V30 70 1 19 66 CFG=3
M  V30 71 1 67 21
M  V30 72 1 68 21
M  V30 73 1 69 22
M  V30 74 1 70 23
M  V30 75 1 71 24
M  V30 76 1 72 25
M  V30 77 1 73 25
M  V30 78 1 74 26
M  V30 79 1 75 28
M  V30 80 1 76 28
M  V30 81 1 77 29
M  V30 82 1 30 78 CFG=1
M  V30 83 1 79 31
M  V30 84 1 80 32
M  V30 85 1 33 81 CFG=3
M  V30 86 1 82 34
M  V30 87 1 83 34
M  V30 88 1 84 35
M  V30 89 1 85 35
M  V30 90 1 36 86 CFG=1
M  V30 91 1 37 87 CFG=1
M  V30 92 1 88 38
M  V30 93 1 89 39
M  V30 94 1 90 15
M  V30 95 1 91 38
M  V30 96 1 92 23
M  V30 97 1 93 32
M  V30 98 1 27 94 CFG=1
M  V30 END BOND
M  V30 END CTAB
M  END
>  <i_epik_Tot_Q>  (1) 
5

>  <i_epik_Tot_abs_Q>  (1) 
5

>  <i_i_glide_confnum>  (1) 
259

>  <i_i_glide_lignum>  (1) 
39

>  <i_i_glide_posenum>  (1) 
368

>  <i_i_glide_rotatable_bonds>  (1) 
15

>  <i_lp_mmshare_version>  (1) 
72125

>  <i_m_source_file_index>  (1) 
18

>  <i_f3d_flags>  (1) 
0

>  <num_sample>  (1) 
50

>  <b_lp_Chiralities_Consistent>  (1) 
1

>  <r_epik_Charging_Adjusted_Penalty>  (1) 
1.9019841067917955

>  <r_epik_Ionization_Penalty>  (1) 
1.8906488358708171

>  <r_epik_Ionization_Penalty_Charging>  (1) 
0.55913698057276895

>  <r_epik_Ionization_Penalty_Neutral>  (1) 
1.3315118552980483

>  <r_epik_State_Penalty>  (1) 
1.3428471262190267

>  <r_glide_ring_energy>  (1) 
0.0045750838620950583

>  <r_i_docking_score>  (1) 
-6.0544148193774028

>  <r_i_glide_ecoul>  (1) 
-10.484619154449781

>  <r_i_glide_eff_state_penalty>  (1) 
1.3428471262190267

>  <r_i_glide_einternal>  (1) 
19.027482147993421

>  <r_i_glide_emodel>  (1) 
-69.962256974584832

>  <r_i_glide_emodel_strain>  (1) 
2.6449266362473054

>  <r_i_glide_energy>  (1) 
-49.271789629945921

>  <r_i_glide_erotb>  (1) 
0.55832093698931284

>  <r_i_glide_esite>  (1) 
-0.21193365453889715

>  <r_i_glide_evdw>  (1) 
-38.78717047549614

>  <r_i_glide_gscore>  (1) 
-7.3972619455964299

>  <r_i_glide_gscore_strain>  (1) 
0

>  <r_i_glide_hbond>  (1) 
-0.31948903552935315

>  <r_i_glide_ligand_efficiency>  (1) 
-0.15524140562506161

>  <r_i_glide_ligand_efficiency_ln>  (1) 
-1.298238402059517

>  <r_i_glide_ligand_efficiency_sa>  (1) 
-0.52645643118531282

>  <r_i_glide_lipo>  (1) 
-3.1733431275278994

>  <r_i_glide_metal>  (1) 
-0

>  <r_i_glide_rewards>  (1) 
-0.73876566804731825

>  <r_lp_Energy>  (1) 
89.857205999999991

>  <s_epik_Chemistry_Notes>  (1) 
This compound contains an acetal/aminal-like group ( X-CH(R)-Y where X, Y are N, S, or O) that may be acid/base labile, releasing an aldehyde.

>  <s_epik_cmdline>  (1) 
J2VwaWtfcHl0aG9uJywgJy1waHQnLCAnMS4wJywgJy1waCcsICc3LjQnLCAnLXRuJywgJzgnLCAnLW1hJywgJzUwMCcsICctaW1hZScsICc8aW5maWxlLm1hZT4nLCAnLW9tYWUnLCAnPG91dGZpbGUubWFlPic=

>  <s_epik_input>  (1) 
W05IXTFbQ0gyXVtDSDJdW05IXU4xW0NAQEhdKFtDSDJdW0NIXShbQ0gzXSlbQ0gzXSlbQ0BASF0oW09IXSlbTkhdW0NASF0oW0NIMl1bT0hdKVtDSDJdW0NAQEhdMltDSDJdW0NASF0oW0NIMl1bQ0gyXVtDQEBIXShOMjMpW0NIXTNbQ0gzXSlbTkhdW0NIMl1bQ0BASF0oW0NASF0oTzQpW1NIXSlbQ0BIXShDND01KVtDSF09W0NIXVtDSF09W0NIXVtDSF01

>  <s_glide_docking_method>  (1) 
confgen

>  <s_i_glide_gridfile>  (1) 
gpcr_5ht2c_6bqh_protein_autoprepared_prepared

>  <s_lp_Force_Field>  (1) 
S-OPLS

>  <s_lp_Variant>  (1) 
DiffSBDD_17-6

>  <s_m_source_file>  (1) 
generated_GPCR_5HT2C_ligand_DiffSBDD_2026-06-23_prepared.sdf

>  <GenAI_Model>  (1) 
DiffSBDD

>  <Protein>  (1) 
GPCR_5HT2C

$$$$
DiffSBDD_30
     RDKit          3D

  0  0  0  0  0  0  0  0  0  0999 V3000
M  V30 BEGIN CTAB
M  V30 COUNTS 75 78 0 0 1
M  V30 BEGIN ATOM
M  V30 1 C 39.155037 28.237554 53.063842 0 CFG=2
M  V30 2 N 39.645095 29.686096 57.732254 0
M  V30 3 C 41.085049 32.983261 64.271415 0
M  V30 4 O 37.564880 26.629018 53.767702 0
M  V30 5 C 39.532327 28.623838 51.616855 0
M  V30 6 C 37.058399 32.853500 59.598120 0 CFG=1
M  V30 7 N 37.645124 31.728707 58.810517 0 CHG=1
M  V30 8 C 38.601257 29.316950 58.716088 0 CFG=1
M  V30 9 O 39.662426 30.514217 53.719060 0
M  V30 10 C 38.627836 34.584208 60.567735 0
M  V30 11 C 39.064224 28.223507 59.733288 0
M  V30 12 C 35.083027 33.217142 61.767666 0
M  V30 13 O 34.928406 33.737741 60.458656 0
M  V30 14 C 38.097123 30.524342 59.575232 0 CFG=2
M  V30 15 C 38.792279 29.132330 55.515248 0 CFG=1
M  V30 16 C 37.784237 34.191819 59.353085 0
M  V30 17 C 39.108299 30.277964 56.502401 0
M  V30 18 C 37.733855 27.694606 53.134661 0
M  V30 19 O 40.123055 28.695398 60.565592 0
M  V30 20 O 36.867755 30.152116 60.167752 0
M  V30 21 C 40.384184 28.555729 57.179515 0
M  V30 22 O 39.739815 34.030561 60.683310 0 CHG=-1
M  V30 23 C 39.669391 29.684496 61.480013 0 CFG=2
M  V30 24 C 39.150916 30.878351 60.655626 0
M  V30 25 C 40.776605 30.046322 62.500561 0 CFG=2
M  V30 26 C 42.056234 35.162087 65.767454 0
M  V30 27 C 41.158493 32.896914 65.677446 0
M  V30 28 C 41.507268 34.156582 63.616902 0
M  V30 29 C 39.245138 29.406740 54.063863 0
M  V30 30 O 36.845160 28.359929 52.568396 0 CHG=-1
M  V30 31 C 40.516320 31.834998 63.466201 0 CFG=2
M  V30 32 C 39.487015 27.908871 56.143185 0
M  V30 33 C 41.993164 35.244030 64.364258 0
M  V30 34 C 41.645158 33.987009 66.424198 0
M  V30 35 O 38.139669 35.422767 61.354262 0
M  V30 36 C 35.532460 32.971918 59.428019 0
M  V30 37 C 40.400490 30.400243 63.943911 0
M  V30 38 O 41.293050 31.398113 62.315800 0
M  V30 39 H 39.810647 27.426811 53.376511 0
M  V30 40 H 38.968054 29.485777 51.260204 0
M  V30 41 H 40.591814 28.867046 51.542632 0
M  V30 42 H 39.338750 27.799360 50.928959 0
M  V30 43 H 37.195651 32.594285 60.632938 0
M  V30 44 H 38.460771 32.083434 58.332280 0
M  V30 45 H 37.755242 28.898700 58.166963 0
M  V30 46 H 39.367832 27.299597 59.245902 0
M  V30 47 H 38.237119 27.898598 60.357906 0
M  V30 48 H 34.445128 33.737722 62.468397 0
M  V30 49 H 34.845250 32.153625 61.801460 0
M  V30 50 H 36.085115 33.379167 62.161762 0
M  V30 51 H 37.715315 28.964117 55.510513 0
M  V30 52 H 38.417947 34.134817 58.469264 0
M  V30 53 H 37.070835 34.994949 59.162763 0
M  V30 54 H 38.221356 30.885519 56.648956 0
M  V30 55 H 39.867863 30.947154 56.095236 0
M  V30 56 H 36.594483 29.318590 59.813711 0
M  V30 57 H 41.245774 28.937721 56.643359 0
M  V30 58 H 40.797867 27.870378 57.915826 0
M  V30 59 H 38.845089 29.253568 62.044958 0
M  V30 60 H 39.992772 31.366498 60.170431 0
M  V30 61 H 38.756143 31.595300 61.358074 0
M  V30 62 H 41.584152 29.312370 62.506972 0
M  V30 63 H 42.426477 36.000517 66.339048 0
M  V30 64 H 40.831175 32.000320 66.183071 0
M  V30 65 H 41.448983 34.225628 62.540547 0
M  V30 66 H 39.536389 32.197241 63.162605 0
M  V30 67 H 40.071837 27.296300 55.458461 0
M  V30 68 H 38.750252 27.256101 56.612495 0
M  V30 69 H 42.312688 36.144011 63.861352 0
M  V30 70 H 41.698152 33.923914 67.500674 0
M  V30 71 H 35.303842 33.495185 58.506933 0
M  V30 72 H 35.053099 31.992908 59.378391 0
M  V30 73 H 39.395680 30.137749 64.269086 0
M  V30 74 H 41.170002 30.110938 64.658582 0
M  V30 75 H 36.962295 31.463273 58.106414 0
M  V30 END ATOM
M  V30 BEGIN BOND
M  V30 1 1 5 1
M  V30 2 1 7 6
M  V30 3 1 8 2
M  V30 4 1 11 8
M  V30 5 1 13 12
M  V30 6 1 14 7
M  V30 7 1 14 8
M  V30 8 1 16 6
M  V30 9 1 16 10
M  V30 10 1 17 2
M  V30 11 1 17 15
M  V30 12 1 18 1
M  V30 13 2 18 4
M  V30 14 1 19 11
M  V30 15 1 14 20 CFG=1
M  V30 16 1 21 2
M  V30 17 1 22 10
M  V30 18 1 23 19
M  V30 19 1 24 14
M  V30 20 1 24 23
M  V30 21 1 25 23
M  V30 22 1 27 3
M  V30 23 2 28 3
M  V30 24 1 29 1
M  V30 25 2 29 9
M  V30 26 1 29 15
M  V30 27 1 30 18
M  V30 28 1 31 3
M  V30 29 1 32 15
M  V30 30 1 32 21
M  V30 31 2 33 26
M  V30 32 1 33 28
M  V30 33 1 34 26
M  V30 34 2 34 27
M  V30 35 2 35 10
M  V30 36 1 36 6
M  V30 37 1 36 13
M  V30 38 1 37 25
M  V30 39 1 37 31
M  V30 40 1 38 25
M  V30 41 1 38 31
M  V30 42 1 1 39 CFG=1
M  V30 43 1 40 5
M  V30 44 1 41 5
M  V30 45 1 42 5
M  V30 46 1 6 43 CFG=1
M  V30 47 1 44 7
M  V30 48 1 8 45 CFG=3
M  V30 49 1 46 11
M  V30 50 1 47 11
M  V30 51 1 48 12
M  V30 52 1 49 12
M  V30 53 1 50 12
M  V30 54 1 15 51 CFG=3
M  V30 55 1 52 16
M  V30 56 1 53 16
M  V30 57 1 54 17
M  V30 58 1 55 17
M  V30 59 1 56 20
M  V30 60 1 57 21
M  V30 61 1 58 21
M  V30 62 1 23 59 CFG=1
M  V30 63 1 60 24
M  V30 64 1 61 24
M  V30 65 1 25 62 CFG=1
M  V30 66 1 63 26
M  V30 67 1 64 27
M  V30 68 1 65 28
M  V30 69 1 31 66 CFG=3
M  V30 70 1 67 32
M  V30 71 1 68 32
M  V30 72 1 69 33
M  V30 73 1 70 34
M  V30 74 1 71 36
M  V30 75 1 72 36
M  V30 76 1 73 37
M  V30 77 1 74 37
M  V30 78 1 75 7
M  V30 END BOND
M  V30 END CTAB
M  END
>  <i_epik_Tot_Q>  (1) 
-1

>  <i_epik_Tot_abs_Q>  (1) 
3

>  <i_i_glide_confnum>  (1) 
995

>  <i_i_glide_lignum>  (1) 
68

>  <i_i_glide_posenum>  (1) 
343

>  <i_i_glide_rotatable_bonds>  (1) 
13

>  <i_lp_mmshare_version>  (1) 
72125

>  <i_m_source_file_index>  (1) 
31

>  <i_f3d_flags>  (1) 
0

>  <num_sample>  (1) 
50

>  <b_lp_Chiralities_Consistent>  (1) 
1

>  <r_epik_Charging_Adjusted_Penalty>  (1) 
0.46003484213561824

>  <r_epik_Ionization_Penalty>  (1) 
0.046729076423607623

>  <r_epik_Ionization_Penalty_Charging>  (1) 
0.030134691607895156

>  <r_epik_Ionization_Penalty_Neutral>  (1) 
0.016594384815712467

>  <r_epik_State_Penalty>  (1) 
0.42990015052772307

>  <r_glide_ring_energy>  (1) 
0

>  <r_i_docking_score>  (1) 
-6.0530289050549735

>  <r_i_glide_ecoul>  (1) 
-5.4595820376423347

>  <r_i_glide_eff_state_penalty>  (1) 
0.42990015052772307

>  <r_i_glide_einternal>  (1) 
18.743000765706903

>  <r_i_glide_emodel>  (1) 
-54.916965205102713

>  <r_i_glide_emodel_strain>  (1) 
2.5426373435842322

>  <r_i_glide_energy>  (1) 
-47.113320456938602

>  <r_i_glide_erotb>  (1) 
0.65218633798694536

>  <r_i_glide_esite>  (1) 
-0.083366577964231123

>  <r_i_glide_evdw>  (1) 
-41.653738419296268

>  <r_i_glide_gscore>  (1) 
-6.4829290555826962

>  <r_i_glide_gscore_strain>  (1) 
0

>  <r_i_glide_hbond>  (1) 
-0.28160674509100747

>  <r_i_glide_ligand_efficiency>  (1) 
-0.15929023434355194

>  <r_i_glide_ligand_efficiency_ln>  (1) 
-1.3052110939998358

>  <r_i_glide_ligand_efficiency_sa>  (1) 
-0.53552985040626533

>  <r_i_glide_lipo>  (1) 
-2.9242086644593783

>  <r_i_glide_metal>  (1) 
-0

>  <r_i_glide_rewards>  (1) 
-0.9443091794438615

>  <r_lp_Energy>  (1) 
14.056426

>  <s_epik_cmdline>  (1) 
J2VwaWtfcHl0aG9uJywgJy1waHQnLCAnMS4wJywgJy1waCcsICc3LjQnLCAnLXRuJywgJzgnLCAnLW1hJywgJzUwMCcsICctaW1hZScsICc8aW5maWxlLm1hZT4nLCAnLW9tYWUnLCAnPG91dGZpbGUubWFlPic=

>  <s_epik_input>  (1) 
Tz1DKFtPSF0pW0NAQEhdKFtDSDNdKUMoPU8pW0NAQEhdKFtDSDJdW0NIMl0xKVtDSDJdTjFbQ0BIXShbQ0BdMihbT0hdKVtOSF1bQ0BASF0oW0NIMl1DKD1PKVtPSF0pW0NIMl1PW0NIM10pW0NIMl1PW0NASF0oW0NIMl0yKVtDQEBIXTNbQ0gyXVtDSF0oTzMpYzRbY0hdW2NIXVtjSF1bY0hdW2NIXTQ=

>  <s_glide_docking_method>  (1) 
confgen

>  <s_i_glide_gridfile>  (1) 
gpcr_5ht2c_6bqh_protein_autoprepared_prepared

>  <s_lp_Force_Field>  (1) 
S-OPLS

>  <s_lp_Variant>  (1) 
DiffSBDD_30-3

>  <s_m_source_file>  (1) 
generated_GPCR_5HT2C_ligand_DiffSBDD_2026-06-23_prepared.sdf

>  <GenAI_Model>  (1) 
DiffSBDD

>  <Protein>  (1) 
GPCR_5HT2C

$$$$
DiffSBDD_41
     RDKit          3D

  0  0  0  0  0  0  0  0  0  0999 V3000
M  V30 BEGIN CTAB
M  V30 COUNTS 71 75 0 0 1
M  V30 BEGIN ATOM
M  V30 1 C 37.641982 30.352158 54.562393 0
M  V30 2 O 38.839398 32.405255 59.541640 0
M  V30 3 C 38.675141 31.175167 60.213426 0 CFG=1
M  V30 4 C 39.601410 28.777722 61.531133 0
M  V30 5 C 38.130553 31.791632 54.425239 0
M  V30 6 C 39.820062 28.893852 56.559026 0
M  V30 7 C 37.093433 24.642446 54.947438 0
M  V30 8 C 37.503185 25.738018 54.167806 0
M  V30 9 C 38.460571 35.728204 61.043792 0
M  V30 10 C 38.610354 25.849529 58.240847 0
M  V30 11 C 37.182913 31.011308 60.562045 0
M  V30 12 C 36.890725 36.257322 59.568248 0
M  V30 13 N 37.634526 36.656558 60.608719 0
M  V30 14 C 39.190839 30.051452 59.272061 0 CFG=1
M  V30 15 C 38.810404 30.051261 56.874933 0
M  V30 16 C 38.264871 34.599594 60.190927 0
M  V30 17 O 36.444890 38.046003 62.144584 0
M  V30 18 O 39.238116 35.839155 61.992817 0
M  V30 19 C 39.200172 31.537176 56.677122 0
M  V30 20 C 39.406587 31.983861 55.234250 0
M  V30 21 N 39.151919 28.696617 60.110491 0 CFG=1 CHG=1
M  V30 22 O 36.045142 36.937779 59.010710 0
M  V30 23 O 38.310074 29.870381 58.208919 0
M  V30 24 C 38.242830 26.768761 54.750019 0
M  V30 25 C 39.970907 27.706032 59.386609 0
M  V30 26 C 37.513276 37.982576 61.220864 0
M  V30 27 C 38.560639 26.710843 56.113189 0
M  V30 28 C 38.987824 33.485658 60.357813 0
M  V30 29 C 37.418475 24.583417 56.312389 0
M  V30 30 C 35.957092 33.920546 59.203136 0
M  V30 31 N 39.250728 27.592875 56.950988 0
M  V30 32 C 37.203338 34.810793 59.113871 0 CFG=1
M  V30 33 C 37.564412 29.908702 56.026784 0
M  V30 34 C 39.286314 27.036834 58.244499 0
M  V30 35 C 38.157702 25.621566 56.930600 0
M  V30 36 H 38.285860 29.697434 53.981391 0
M  V30 37 H 36.633467 30.266783 54.167826 0
M  V30 38 H 39.288289 31.210972 61.111073 0
M  V30 39 H 40.596293 29.217851 61.593822 0
M  V30 40 H 38.921601 29.353425 62.158040 0
M  V30 41 H 39.646328 27.793849 61.999417 0
M  V30 42 H 38.313187 32.047511 53.382117 0
M  V30 43 H 37.360007 32.475126 54.784653 0
M  V30 44 H 40.053977 28.875353 55.494669 0
M  V30 45 H 40.773184 29.013174 57.065728 0
M  V30 46 H 36.521745 23.844411 54.495506 0
M  V30 47 H 37.244210 25.784189 53.120635 0
M  V30 48 H 38.445059 25.199548 59.078258 0
M  V30 49 H 37.004997 30.137763 61.167975 0
M  V30 50 H 36.814796 31.861959 61.134974 0
M  V30 51 H 36.561626 30.914795 59.672998 0
M  V30 52 H 40.219981 30.137719 58.957733 0
M  V30 53 H 35.863320 38.746778 61.885793 0
M  V30 54 H 38.395633 32.155546 57.079538 0
M  V30 55 H 40.045107 31.831594 57.242909 0
M  V30 56 H 40.240229 31.449120 54.779521 0
M  V30 57 H 39.645091 33.044291 55.248348 0
M  V30 58 H 38.558115 27.606559 54.153970 0
M  V30 59 H 40.178761 26.937836 60.105248 0
M  V30 60 H 40.950717 28.092697 59.104641 0
M  V30 61 H 37.360582 38.741497 60.454159 0
M  V30 62 H 38.440029 38.257210 61.725687 0
M  V30 63 H 39.745168 33.342439 61.115355 0
M  V30 64 H 37.094518 23.737008 56.900579 0
M  V30 65 H 35.573739 33.853454 60.222312 0
M  V30 66 H 35.157748 34.308405 58.571082 0
M  V30 67 H 36.177990 32.920638 58.841832 0
M  V30 68 H 37.637471 34.789952 58.114041 0
M  V30 69 H 37.245122 28.891344 56.081777 0
M  V30 70 H 36.844792 30.535715 56.517181 0
M  V30 71 H 38.202021 28.355193 60.123879 0
M  V30 END ATOM
M  V30 BEGIN BOND
M  V30 1 1 3 2
M  V30 2 1 5 1
M  V30 3 2 8 7
M  V30 4 1 11 3
M  V30 5 1 13 9
M  V30 6 1 13 12
M  V30 7 1 14 3
M  V30 8 1 15 6
M  V30 9 1 16 9
M  V30 10 2 18 9
M  V30 11 1 19 15
M  V30 12 1 20 5
M  V30 13 1 20 19
M  V30 14 1 21 4
M  V30 15 1 21 14
M  V30 16 2 22 12
M  V30 17 1 23 14
M  V30 18 1 23 15
M  V30 19 1 24 8
M  V30 20 1 25 21
M  V30 21 1 26 13
M  V30 22 1 26 17
M  V30 23 2 27 24
M  V30 24 1 28 2
M  V30 25 2 28 16
M  V30 26 1 29 7
M  V30 27 1 31 6
M  V30 28 1 31 27
M  V30 29 1 32 12
M  V30 30 1 32 16
M  V30 31 1 32 30
M  V30 32 1 33 1
M  V30 33 1 33 15
M  V30 34 2 34 10
M  V30 35 1 34 25
M  V30 36 1 34 31
M  V30 37 1 35 10
M  V30 38 1 35 27
M  V30 39 2 35 29
M  V30 40 1 36 1
M  V30 41 1 37 1
M  V30 42 1 3 38 CFG=1
M  V30 43 1 39 4
M  V30 44 1 40 4
M  V30 45 1 41 4
M  V30 46 1 42 5
M  V30 47 1 43 5
M  V30 48 1 44 6
M  V30 49 1 45 6
M  V30 50 1 46 7
M  V30 51 1 47 8
M  V30 52 1 48 10
M  V30 53 1 49 11
M  V30 54 1 50 11
M  V30 55 1 51 11
M  V30 56 1 14 52 CFG=3
M  V30 57 1 53 17
M  V30 58 1 54 19
M  V30 59 1 55 19
M  V30 60 1 56 20
M  V30 61 1 57 20
M  V30 62 1 58 24
M  V30 63 1 59 25
M  V30 64 1 60 25
M  V30 65 1 61 26
M  V30 66 1 62 26
M  V30 67 1 63 28
M  V30 68 1 64 29
M  V30 69 1 65 30
M  V30 70 1 66 30
M  V30 71 1 67 30
M  V30 72 1 32 68 CFG=3
M  V30 73 1 69 33
M  V30 74 1 70 33
M  V30 75 1 21 71 CFG=1
M  V30 END BOND
M  V30 END CTAB
M  END
>  <i_epik_Tot_Q>  (1) 
1

>  <i_epik_Tot_abs_Q>  (1) 
1

>  <i_i_glide_confnum>  (1) 
5

>  <i_i_glide_lignum>  (1) 
89

>  <i_i_glide_posenum>  (1) 
79

>  <i_i_glide_rotatable_bonds>  (1) 
5

>  <i_lp_mmshare_version>  (1) 
72125

>  <i_m_source_file_index>  (1) 
42

>  <i_f3d_flags>  (1) 
0

>  <num_sample>  (1) 
50

>  <b_lp_Chiralities_Consistent>  (1) 
1

>  <r_epik_Charging_Adjusted_Penalty>  (1) 
1.62722492853585

>  <r_epik_Ionization_Penalty>  (1) 
0.81369786534067623

>  <r_epik_Ionization_Penalty_Charging>  (1) 
0.81361246426792511

>  <r_epik_Ionization_Penalty_Neutral>  (1) 
8.5401072751167088e-05

>  <r_epik_State_Penalty>  (1) 
0.813612464267925

>  <r_glide_ring_energy>  (1) 
1.1929788391020448

>  <r_i_docking_score>  (1) 
-6.0278260718258991

>  <r_i_glide_ecoul>  (1) 
-1.0028821224583682

>  <r_i_glide_eff_state_penalty>  (1) 
0.813612464267925

>  <r_i_glide_einternal>  (1) 
6.4375654826507809

>  <r_i_glide_emodel>  (1) 
-52.523003012923844

>  <r_i_glide_emodel_strain>  (1) 
0.78378120720296351

>  <r_i_glide_energy>  (1) 
-35.700709768581774

>  <r_i_glide_erotb>  (1) 
0.34854586591334119

>  <r_i_glide_esite>  (1) 
0

>  <r_i_glide_evdw>  (1) 
-34.697827646123407

>  <r_i_glide_gscore>  (1) 
-6.8414385360938237

>  <r_i_glide_gscore_strain>  (1) 
0

>  <r_i_glide_hbond>  (1) 
-0.054670293411030919

>  <r_i_glide_ligand_efficiency>  (1) 
-0.17222360205216855

>  <r_i_glide_ligand_efficiency_ln>  (1) 
-1.3232416031575522

>  <r_i_glide_ligand_efficiency_sa>  (1) 
-0.56335482249217506

>  <r_i_glide_lipo>  (1) 
-3.128463898584438

>  <r_i_glide_metal>  (1) 
-0

>  <r_i_glide_rewards>  (1) 
-2.1215265093367699

>  <r_lp_Energy>  (1) 
42.513731

>  <s_epik_Chemistry_Notes>  (1) 
This compound contains an acetal/aminal-like group ( X-CH(R)-Y where X, Y are N, S, or O) that may be acid/base labile, releasing an aldehyde.

>  <s_epik_cmdline>  (1) 
J2VwaWtfcHl0aG9uJywgJy1waHQnLCAnMS4wJywgJy1waCcsICc3LjQnLCAnLXRuJywgJzgnLCAnLW1hJywgJzUwMCcsICctaW1hZScsICc8aW5maWxlLm1hZT4nLCAnLW9tYWUnLCAnPG91dGZpbGUubWFlPic=

>  <s_epik_input>  (1) 
W0NIMl0xW0NIMl1bQ0gyXVtDSDJdW0NIMl1DMTJbQ0gyXW4zYzRjKFtjSF1bY0hdW2NIXVtjSF00KVtjSF1jM1tDSDJdTihbQ0gzXSlbQ0BASF0oTzIpW0NASF0oW0NIM10pT1xbQ0hdPUNcNVtDQEBIXShbQ0gzXSlDKD1PKU4oQzU9TylbQ0gyXVtPSF0=

>  <s_glide_docking_method>  (1) 
confgen

>  <s_i_glide_gridfile>  (1) 
gpcr_5ht2c_6bqh_protein_autoprepared_prepared

>  <s_lp_Force_Field>  (1) 
S-OPLS

>  <s_lp_Variant>  (1) 
DiffSBDD_41-3

>  <s_m_source_file>  (1) 
generated_GPCR_5HT2C_ligand_DiffSBDD_2026-06-23_prepared.sdf

>  <GenAI_Model>  (1) 
DiffSBDD

>  <Protein>  (1) 
GPCR_5HT2C

$$$$
DiffSBDD_8
     RDKit          3D

  0  0  0  0  0  0  0  0  0  0999 V3000
M  V30 BEGIN CTAB
M  V30 COUNTS 48 51 0 0 1
M  V30 BEGIN ATOM
M  V30 1 C 37.897344 25.666149 54.870754 0
M  V30 2 C 37.310502 24.669641 55.670858 0
M  V30 3 C 37.393447 30.415871 58.874123 0 CFG=1
M  V30 4 C 38.264844 25.707711 57.645580 0
M  V30 5 C 38.837409 26.705544 56.853057 0
M  V30 6 C 38.254536 31.085169 54.134096 0
M  V30 7 C 38.788969 29.984828 58.483739 0 CFG=2
M  V30 8 C 38.722063 29.652034 56.020341 0
M  V30 9 C 38.837542 29.337477 52.387157 0
M  V30 10 C 39.931992 30.155042 51.699084 0
M  V30 11 C 39.014276 29.173025 57.257004 0
M  V30 12 O 38.056943 29.328479 59.528933 0
M  V30 13 C 39.628433 27.803387 57.490161 0
M  V30 14 C 41.343947 30.365972 49.631641 0
M  V30 15 C 38.240830 31.062738 55.721844 0
M  V30 16 C 38.914176 28.906256 54.824710 0
M  V30 17 F 38.445138 25.732119 58.967759 0
M  V30 18 N 39.245121 27.663885 54.666083 0
M  V30 19 N 36.542238 23.670944 55.087647 0
M  V30 20 C 37.501952 24.687448 57.060100 0
M  V30 21 C 38.666585 26.686291 55.464112 0
M  V30 22 C 37.117228 31.624867 59.738710 0
M  V30 23 N 38.672910 29.725790 53.783953 0
M  V30 24 C 40.310208 29.525844 50.369225 0
M  V30 25 H 37.754837 25.653289 53.799987 0
M  V30 26 H 36.568479 30.103167 58.235889 0
M  V30 27 H 37.254907 31.302871 53.767760 0
M  V30 28 H 38.950272 31.830331 53.748133 0
M  V30 29 H 39.645134 30.537739 58.843797 0
M  V30 30 H 39.140804 28.292238 52.326131 0
M  V30 31 H 37.887397 29.337758 51.856433 0
M  V30 32 H 39.645134 31.196550 51.559577 0
M  V30 33 H 40.814406 30.177849 52.333987 0
M  V30 34 H 39.750884 27.630423 58.559691 0
M  V30 35 H 40.640377 27.794613 57.083172 0
M  V30 36 H 41.645137 29.860923 48.716012 0
M  V30 37 H 40.933311 31.337952 49.367790 0
M  V30 38 H 42.232269 30.537738 50.239351 0
M  V30 39 H 37.245139 31.225632 56.117408 0
M  V30 40 H 38.916126 31.807815 56.142514 0
M  V30 41 H 36.257642 23.745943 54.120790 0
M  V30 42 H 35.984339 23.056514 55.664470 0
M  V30 43 H 37.060130 23.922478 57.679456 0
M  V30 44 H 36.855410 32.476167 59.108631 0
M  V30 45 H 36.280153 31.419087 60.406040 0
M  V30 46 H 37.990945 31.883780 60.337211 0
M  V30 47 H 40.702191 28.528821 50.567757 0
M  V30 48 H 39.426091 29.397276 49.746683 0
M  V30 END ATOM
M  V30 BEGIN BOND
M  V30 1 1 2 1
M  V30 2 2 5 4
M  V30 3 1 7 3
M  V30 4 1 10 9
M  V30 5 1 11 7
M  V30 6 2 11 8
M  V30 7 1 12 3
M  V30 8 1 12 7
M  V30 9 1 13 5
M  V30 10 1 13 11
M  V30 11 1 15 6
M  V30 12 1 15 8
M  V30 13 1 16 8
M  V30 14 1 17 4
M  V30 15 2 18 16
M  V30 16 1 19 2
M  V30 17 2 20 2
M  V30 18 1 20 4
M  V30 19 2 21 1
M  V30 20 1 21 5
M  V30 21 1 21 18
M  V30 22 1 22 3
M  V30 23 1 23 6
M  V30 24 1 23 9
M  V30 25 1 23 16
M  V30 26 1 24 10
M  V30 27 1 24 14
M  V30 28 1 25 1
M  V30 29 1 3 26 CFG=3
M  V30 30 1 27 6
M  V30 31 1 28 6
M  V30 32 1 7 29 CFG=1
M  V30 33 1 30 9
M  V30 34 1 31 9
M  V30 35 1 32 10
M  V30 36 1 33 10
M  V30 37 1 34 13
M  V30 38 1 35 13
M  V30 39 1 36 14
M  V30 40 1 37 14
M  V30 41 1 38 14
M  V30 42 1 39 15
M  V30 43 1 40 15
M  V30 44 1 41 19
M  V30 45 1 42 19
M  V30 46 1 43 20
M  V30 47 1 44 22
M  V30 48 1 45 22
M  V30 49 1 46 22
M  V30 50 1 47 24
M  V30 51 1 48 24
M  V30 END BOND
M  V30 END CTAB
M  END
>  <i_epik_Tot_Q>  (1) 
0

>  <i_epik_Tot_abs_Q>  (1) 
0

>  <i_i_glide_confnum>  (1) 
6

>  <i_i_glide_lignum>  (1) 
18

>  <i_i_glide_posenum>  (1) 
209

>  <i_i_glide_rotatable_bonds>  (1) 
4

>  <i_lp_mmshare_version>  (1) 
72125

>  <i_m_source_file_index>  (1) 
9

>  <i_f3d_flags>  (1) 
0

>  <num_sample>  (1) 
50

>  <b_lp_Chiralities_Consistent>  (1) 
1

>  <r_epik_Charging_Adjusted_Penalty>  (1) 
1.179189790050359

>  <r_epik_Ionization_Penalty>  (1) 
1.1792430132501708

>  <r_epik_Ionization_Penalty_Charging>  (1) 
0

>  <r_epik_Ionization_Penalty_Neutral>  (1) 
1.1792430132501708

>  <r_epik_State_Penalty>  (1) 
1.179189790050359

>  <r_glide_ring_energy>  (1) 
0

>  <r_i_docking_score>  (1) 
-6.0260079462212861

>  <r_i_glide_ecoul>  (1) 
-1.8899697570682206

>  <r_i_glide_eff_state_penalty>  (1) 
1.179189790050359

>  <r_i_glide_einternal>  (1) 
4.4649717407736649

>  <r_i_glide_emodel>  (1) 
-48.489320438797129

>  <r_i_glide_emodel_strain>  (1) 
0.34395906527011277

>  <r_i_glide_energy>  (1) 
-35.05625989178089

>  <r_i_glide_erotb>  (1) 
0.51958033910786883

>  <r_i_glide_esite>  (1) 
0

>  <r_i_glide_evdw>  (1) 
-33.166290134712668

>  <r_i_glide_gscore>  (1) 
-7.2051977362716446

>  <r_i_glide_gscore_strain>  (1) 
0

>  <r_i_glide_hbond>  (1) 
0

>  <r_i_glide_ligand_efficiency>  (1) 
-0.25108366442588692

>  <r_i_glide_ligand_efficiency_ln>  (1) 
-1.4423002170174157

>  <r_i_glide_ligand_efficiency_sa>  (1) 
-0.72425061425888992

>  <r_i_glide_lipo>  (1) 
-3.2043483869945284

>  <r_i_glide_metal>  (1) 
-0

>  <r_i_glide_rewards>  (1) 
-2.5786197180891168

>  <r_lp_Energy>  (1) 
37.01735

>  <s_epik_Chemistry_Notes>  (1) 
This compound has an imine and may undergo hydrolysis.

>  <s_epik_cmdline>  (1) 
J2VwaWtfcHl0aG9uJywgJy1waHQnLCAnMS4wJywgJy1waCcsICc3LjQnLCAnLXRuJywgJzgnLCAnLW1hJywgJzUwMCcsICctaW1hZScsICc8aW5maWxlLm1hZT4nLCAnLW9tYWUnLCAnPG91dGZpbGUubWFlPic=

>  <s_epik_input>  (1) 
RmMxW2NIXWMoW05IMl0pW2NIXWMoYzEyKU49QzNDKD1DKFtDSDJdMilbQ0BIXShPNClbQ0BASF00W0NIM10pW0NIMl1bQ0gyXU4zW0NIMl1bQ0gyXVtDSDJdW0NIM10=

>  <s_glide_docking_method>  (1) 
confgen

>  <s_i_glide_gridfile>  (1) 
gpcr_5ht2c_6bqh_protein_autoprepared_prepared

>  <s_lp_Force_Field>  (1) 
S-OPLS

>  <s_lp_Variant>  (1) 
DiffSBDD_8-2

>  <s_m_source_file>  (1) 
generated_GPCR_5HT2C_ligand_DiffSBDD_2026-06-23_prepared.sdf

>  <GenAI_Model>  (1) 
DiffSBDD

>  <Protein>  (1) 
GPCR_5HT2C

$$$$
DiffSBDD_48
     RDKit          3D

  0  0  0  0  0  0  0  0  0  0999 V3000
M  V30 BEGIN CTAB
M  V30 COUNTS 78 78 0 0 1
M  V30 BEGIN ATOM
M  V30 1 O 41.002750 32.103863 64.252030 0
M  V30 2 C 36.664626 34.191182 58.792065 0
M  V30 3 C 36.659803 35.545475 59.523344 0
M  V30 4 O 39.643123 29.454694 52.565578 0
M  V30 5 C 38.290960 30.475485 58.876921 0
M  V30 6 C 41.959483 32.599125 64.890644 0
M  V30 7 C 38.204998 27.640994 54.318071 0
M  V30 8 C 42.471132 33.960249 64.421764 0
M  V30 9 C 38.259404 31.188386 60.238843 0
M  V30 10 C 37.237320 35.553101 60.947249 0
M  V30 11 N 38.079611 32.628069 60.054759 0
M  V30 12 C 41.442393 35.793831 65.905208 0
M  V30 13 C 38.659363 28.994725 58.985848 0
M  V30 14 C 39.109309 28.290212 52.047163 0
M  V30 15 C 40.292604 30.380707 51.697344 0
M  V30 16 C 41.400685 35.065739 64.545010 0 CFG=1
M  V30 17 C 41.422428 36.047652 63.356875 0
M  V30 18 C 39.354593 28.076312 50.559263 0
M  V30 19 O 40.052272 26.140272 54.728858 0
M  V30 20 C 38.604127 34.854772 61.068438 0 CFG=2
M  V30 21 C 40.807421 35.475053 62.073255 0
M  V30 22 O 42.536342 32.080893 65.870808 0 CHG=-1
M  V30 23 C 38.438987 28.296887 57.639405 0
M  V30 24 O 40.881214 34.993239 66.923476 0
M  V30 25 C 38.961776 26.567171 55.108817 0
M  V30 26 C 38.774067 26.799668 57.657999 0
M  V30 27 C 38.465221 33.330042 61.275340 0
M  V30 28 C 36.693856 32.945360 59.685603 0
M  V30 29 C 38.433875 27.436875 52.834005 0
M  V30 30 N 39.337848 35.430259 62.211338 0 CHG=1
M  V30 31 C 38.303264 26.045545 56.396464 0 CFG=2
M  V30 32 C 38.535426 24.535262 56.552335 0
M  V30 33 H 37.494593 34.152703 58.085202 0
M  V30 34 H 35.772203 34.138849 58.167717 0
M  V30 35 H 37.203805 36.262583 58.908270 0
M  V30 36 H 35.643926 35.929445 59.564024 0
M  V30 37 H 37.323190 30.546535 58.383018 0
M  V30 38 H 38.998292 30.974614 58.213948 0
M  V30 39 H 37.137285 27.591617 54.527939 0
M  V30 40 H 38.558782 28.625413 54.622796 0
M  V30 41 H 42.769878 33.814163 63.384679 0
M  V30 42 H 43.373405 34.235414 64.967842 0
M  V30 43 H 39.211568 30.997798 60.735592 0
M  V30 44 H 37.481157 30.776207 60.884158 0
M  V30 45 H 36.524681 35.109167 61.646454 0
M  V30 46 H 37.321415 36.598495 61.245888 0
M  V30 47 H 40.847378 36.706285 65.873157 0
M  V30 48 H 42.458240 36.089551 66.168034 0
M  V30 49 H 39.696767 28.890211 59.305524 0
M  V30 50 H 38.047113 28.522246 59.753652 0
M  V30 51 H 40.583061 31.257988 52.275572 0
M  V30 52 H 41.202480 29.960788 51.264541 0
M  V30 53 H 39.641911 30.735677 50.898495 0
M  V30 54 H 40.441695 34.575428 64.498294 0
M  V30 55 H 40.845987 36.938021 63.604998 0
M  V30 56 H 42.443434 36.382843 63.182306 0
M  V30 57 H 38.915306 27.130221 50.242228 0
M  V30 58 H 38.902666 28.854903 49.949939 0
M  V30 59 H 40.419300 28.016348 50.339591 0
M  V30 60 H 39.186285 35.059389 60.168229 0
M  V30 61 H 41.059289 36.121531 61.231416 0
M  V30 62 H 41.204131 34.484277 61.849390 0
M  V30 63 H 37.396219 28.423829 57.346176 0
M  V30 64 H 39.040301 28.802833 56.883822 0
M  V30 65 H 40.888673 35.483321 67.731484 0
M  V30 66 H 39.847256 26.664566 57.802691 0
M  V30 67 H 38.295658 26.347749 58.528243 0
M  V30 68 H 39.436253 32.944840 61.589898 0
M  V30 69 H 37.772593 33.097123 62.085798 0
M  V30 70 H 36.256421 32.143872 59.094980 0
M  V30 71 H 36.042560 33.039560 60.555521 0
M  V30 72 H 38.022275 26.538241 52.407305 0
M  V30 73 H 39.106021 34.901856 63.040967 0
M  V30 74 H 37.229847 26.201688 56.289839 0
M  V30 75 H 38.218671 23.998992 55.657079 0
M  V30 76 H 39.589259 24.309469 56.725765 0
M  V30 77 H 37.969800 24.135221 57.395003 0
M  V30 78 H 39.021879 36.379764 62.341274 0
M  V30 END ATOM
M  V30 BEGIN BOND
M  V30 1 1 3 2
M  V30 2 2 6 1
M  V30 3 1 8 6
M  V30 4 1 9 5
M  V30 5 1 10 3
M  V30 6 1 11 9
M  V30 7 1 13 5
M  V30 8 1 14 4
M  V30 9 1 15 4
M  V30 10 1 16 8
M  V30 11 1 16 12
M  V30 12 1 17 16
M  V30 13 1 18 14
M  V30 14 1 20 10
M  V30 15 1 21 17
M  V30 16 1 22 6
M  V30 17 1 23 13
M  V30 18 1 24 12
M  V30 19 1 25 7
M  V30 20 2 25 19
M  V30 21 1 26 23
M  V30 22 1 27 11
M  V30 23 1 27 20
M  V30 24 1 28 2
M  V30 25 1 28 11
M  V30 26 1 29 7
M  V30 27 2 29 14
M  V30 28 1 30 20
M  V30 29 1 30 21
M  V30 30 1 31 25
M  V30 31 1 31 26
M  V30 32 1 32 31
M  V30 33 1 33 2
M  V30 34 1 34 2
M  V30 35 1 35 3
M  V30 36 1 36 3
M  V30 37 1 37 5
M  V30 38 1 38 5
M  V30 39 1 39 7
M  V30 40 1 40 7
M  V30 41 1 41 8
M  V30 42 1 42 8
M  V30 43 1 43 9
M  V30 44 1 44 9
M  V30 45 1 45 10
M  V30 46 1 46 10
M  V30 47 1 47 12
M  V30 48 1 48 12
M  V30 49 1 49 13
M  V30 50 1 50 13
M  V30 51 1 51 15
M  V30 52 1 52 15
M  V30 53 1 53 15
M  V30 54 1 16 54 CFG=1
M  V30 55 1 55 17
M  V30 56 1 56 17
M  V30 57 1 57 18
M  V30 58 1 58 18
M  V30 59 1 59 18
M  V30 60 1 20 60 CFG=3
M  V30 61 1 61 21
M  V30 62 1 62 21
M  V30 63 1 63 23
M  V30 64 1 64 23
M  V30 65 1 65 24
M  V30 66 1 66 26
M  V30 67 1 67 26
M  V30 68 1 68 27
M  V30 69 1 69 27
M  V30 70 1 70 28
M  V30 71 1 71 28
M  V30 72 1 72 29
M  V30 73 1 73 30
M  V30 74 1 31 74 CFG=3
M  V30 75 1 75 32
M  V30 76 1 76 32
M  V30 77 1 77 32
M  V30 78 1 78 30
M  V30 END BOND
M  V30 END CTAB
M  END
>  <i_epik_Tot_Q>  (1) 
0

>  <i_epik_Tot_abs_Q>  (1) 
2

>  <i_i_glide_confnum>  (1) 
4616

>  <i_i_glide_lignum>  (1) 
99

>  <i_i_glide_posenum>  (1) 
134

>  <i_i_glide_rotatable_bonds>  (1) 
18

>  <i_lp_mmshare_version>  (1) 
72125

>  <i_m_source_file_index>  (1) 
49

>  <i_f3d_flags>  (1) 
0

>  <num_sample>  (1) 
50

>  <b_lp_Chiralities_Consistent>  (1) 
1

>  <r_epik_Charging_Adjusted_Penalty>  (1) 
0.04911624183534407

>  <r_epik_Ionization_Penalty>  (1) 
0.025385742012929795

>  <r_epik_Ionization_Penalty_Charging>  (1) 
0.0065475108590220404

>  <r_epik_Ionization_Penalty_Neutral>  (1) 
0.018838231153907755

>  <r_epik_State_Penalty>  (1) 
0.042568730976322029

>  <r_glide_ring_energy>  (1) 
0

>  <r_i_docking_score>  (1) 
-6.0047208476921412

>  <r_i_glide_ecoul>  (1) 
-1.780510855284511

>  <r_i_glide_eff_state_penalty>  (1) 
0.042568730976322029

>  <r_i_glide_einternal>  (1) 
20.175986586552309

>  <r_i_glide_emodel>  (1) 
-57.529902010830547

>  <r_i_glide_emodel_strain>  (1) 
0.54807309079340172

>  <r_i_glide_energy>  (1) 
-47.829521193749045

>  <r_i_glide_erotb>  (1) 
1.5544609794247006

>  <r_i_glide_esite>  (1) 
0

>  <r_i_glide_evdw>  (1) 
-46.049010338464534

>  <r_i_glide_gscore>  (1) 
-6.0472895786684635

>  <r_i_glide_gscore_strain>  (1) 
0

>  <r_i_glide_hbond>  (1) 
0

>  <r_i_glide_ligand_efficiency>  (1) 
-0.18764752649037941

>  <r_i_glide_ligand_efficiency_ln>  (1) 
-1.3446206803065919

>  <r_i_glide_ligand_efficiency_sa>  (1) 
-0.5957437619001178

>  <r_i_glide_lipo>  (1) 
-3.7462524771093162

>  <r_i_glide_metal>  (1) 
-0

>  <r_i_glide_rewards>  (1) 
-1.2859709357679443

>  <r_lp_Energy>  (1) 
27.873598999999999

>  <r_lp_tautomer_probability>  (1) 
0.99990000499974985

>  <s_epik_cmdline>  (1) 
J2VwaWtfcHl0aG9uJywgJy1waHQnLCAnMS4wJywgJy1waCcsICc3LjQnLCAnLXRuJywgJzgnLCAnLW1hJywgJzUwMCcsICctaW1hZScsICc8aW5maWxlLm1hZT4nLCAnLW9tYWUnLCAnPG91dGZpbGUubWFlPic=

>  <s_epik_input>  (1) 
Tz1DKFtPSF0pW0NIMl1bQ0BASF0oW0NIMl1bT0hdKVtDSDJdW0NIMl1bTkhdW0NASF0oW0NIMl1bQ0gyXVtDSDJdW0NIMl0xKVtDSDJdTjFbQ0gyXVtDSDJdW0NIMl1bQ0gyXVtDSDJdW0NASF0oW0NIM10pQyg9TylbQ0gyXS9bQ0hdPUMoW0NIM10pXE9bQ0gzXQ==

>  <s_glide_docking_method>  (1) 
confgen

>  <s_i_glide_gridfile>  (1) 
gpcr_5ht2c_6bqh_protein_autoprepared_prepared

>  <s_lp_Force_Field>  (1) 
S-OPLS

>  <s_lp_Variant>  (1) 
DiffSBDD_48-1

>  <s_m_source_file>  (1) 
generated_GPCR_5HT2C_ligand_DiffSBDD_2026-06-23_prepared.sdf

>  <GenAI_Model>  (1) 
DiffSBDD

>  <Protein>  (1) 
GPCR_5HT2C

$$$$
DiffSBDD_14
     RDKit          3D

  0  0  0  0  0  0  0  0  0  0999 V3000
M  V30 BEGIN CTAB
M  V30 COUNTS 58 59 0 0 1
M  V30 BEGIN ATOM
M  V30 1 Cl 40.445142 36.537728 62.167724 0
M  V30 2 C 41.090151 28.572127 59.570110 0
M  V30 3 N 41.870721 33.682261 64.582801 0
M  V30 4 C 41.159222 32.604641 64.166599 0
M  V30 5 C 38.896434 31.142278 54.976693 0
M  V30 6 C 40.893887 30.270780 50.443073 0
M  V30 7 C 38.845131 29.004952 51.110506 0
M  V30 8 C 39.607846 28.789350 59.943213 0 CFG=1
M  V30 9 C 37.944683 28.392411 55.210002 0
M  V30 10 C 40.694343 35.006412 62.912918 0
M  V30 11 C 39.794599 29.907764 51.420084 0
M  V30 12 C 41.630737 34.859794 63.956129 0
M  V30 13 O 41.245134 30.137752 62.167745 0 CHG=-1
M  V30 14 N 39.429991 29.373076 61.300824 0 CHG=1
M  V30 15 C 39.841739 30.641998 52.765839 0
M  V30 16 C 37.802181 30.772187 55.990374 0
M  V30 17 C 39.966430 33.885060 62.492808 0
M  V30 18 C 40.160851 30.607730 61.619766 0 CFG=1
M  V30 19 C 40.199487 32.659125 63.132627 0
M  V30 20 C 39.435248 31.409302 62.717833 0
M  V30 21 C 38.973345 28.961663 57.462222 0
M  V30 22 C 37.854837 29.301510 56.453636 0 CFG=2
M  V30 23 C 39.121992 28.807100 54.320721 0
M  V30 24 N 38.905832 30.194581 53.830318 0 CFG=1 CHG=1
M  V30 25 C 38.803342 29.561710 58.868991 0
M  V30 26 H 41.200850 27.946004 58.685104 0
M  V30 27 H 41.595092 29.515959 59.367770 0
M  V30 28 H 41.632170 28.074322 60.374778 0
M  V30 29 H 41.360569 31.673524 64.675821 0
M  V30 30 H 39.874476 31.152574 55.460541 0
M  V30 31 H 38.714323 32.156383 54.617618 0
M  V30 32 H 41.871043 30.033106 50.859702 0
M  V30 33 H 40.785645 29.737701 49.497851 0
M  V30 34 H 40.866486 31.337751 50.223355 0
M  V30 35 H 38.058533 28.751755 51.803405 0
M  V30 36 H 38.845317 28.508429 50.150782 0
M  V30 37 H 39.162470 27.796229 60.014984 0
M  V30 38 H 38.042603 27.346734 55.505262 0
M  V30 39 H 37.027344 28.455981 54.621181 0
M  V30 40 H 42.204277 35.709426 64.297814 0
M  V30 41 H 38.448801 29.522026 61.472201 0
M  V30 42 H 40.845136 30.603855 53.176617 0
M  V30 43 H 39.645157 31.691779 52.544245 0
M  V30 44 H 37.820810 31.451020 56.843763 0
M  V30 45 H 36.845139 30.937761 55.497071 0
M  V30 46 H 39.241047 33.964562 61.696539 0
M  V30 47 H 40.174784 31.246272 60.736670 0
M  V30 48 H 38.446253 31.707067 62.367272 0
M  V30 49 H 39.265174 30.788523 63.600531 0
M  V30 50 H 39.003710 27.875747 57.565230 0
M  V30 51 H 39.947973 29.251468 57.070652 0
M  V30 52 H 36.915392 29.099369 56.967779 0
M  V30 53 H 39.233405 28.084971 53.515318 0
M  V30 54 H 40.045136 28.757859 54.892229 0
M  V30 55 H 39.090632 30.612021 58.837840 0
M  V30 56 H 37.748681 29.544563 59.146625 0
M  V30 57 H 37.981139 30.224984 53.427508 0
M  V30 58 H 39.783731 28.720238 61.986110 0
M  V30 END ATOM
M  V30 BEGIN BOND
M  V30 1 1 4 3
M  V30 2 1 8 2
M  V30 3 1 10 1
M  V30 4 1 11 6
M  V30 5 2 11 7
M  V30 6 2 12 3
M  V30 7 1 12 10
M  V30 8 1 14 8
M  V30 9 1 15 11
M  V30 10 1 16 5
M  V30 11 2 17 10
M  V30 12 1 18 13
M  V30 13 1 18 14
M  V30 14 2 19 4
M  V30 15 1 19 17
M  V30 16 1 20 18
M  V30 17 1 20 19
M  V30 18 1 22 9
M  V30 19 1 22 16
M  V30 20 1 22 21
M  V30 21 1 23 9
M  V30 22 1 24 5
M  V30 23 1 24 15
M  V30 24 1 24 23
M  V30 25 1 25 8
M  V30 26 1 25 21
M  V30 27 1 26 2
M  V30 28 1 27 2
M  V30 29 1 28 2
M  V30 30 1 29 4
M  V30 31 1 30 5
M  V30 32 1 31 5
M  V30 33 1 32 6
M  V30 34 1 33 6
M  V30 35 1 34 6
M  V30 36 1 35 7
M  V30 37 1 36 7
M  V30 38 1 8 37 CFG=1
M  V30 39 1 38 9
M  V30 40 1 39 9
M  V30 41 1 40 12
M  V30 42 1 41 14
M  V30 43 1 42 15
M  V30 44 1 43 15
M  V30 45 1 44 16
M  V30 46 1 45 16
M  V30 47 1 46 17
M  V30 48 1 18 47 CFG=3
M  V30 49 1 48 20
M  V30 50 1 49 20
M  V30 51 1 50 21
M  V30 52 1 51 21
M  V30 53 1 22 52 CFG=1
M  V30 54 1 53 23
M  V30 55 1 54 23
M  V30 56 1 55 25
M  V30 57 1 56 25
M  V30 58 1 24 57 CFG=3
M  V30 59 1 58 14
M  V30 END BOND
M  V30 END CTAB
M  END
>  <i_epik_Tot_Q>  (1) 
1

>  <i_epik_Tot_abs_Q>  (1) 
3

>  <i_i_glide_confnum>  (1) 
416

>  <i_i_glide_lignum>  (1) 
30

>  <i_i_glide_posenum>  (1) 
50

>  <i_i_glide_rotatable_bonds>  (1) 
9

>  <i_lp_mmshare_version>  (1) 
72125

>  <i_m_source_file_index>  (1) 
15

>  <i_f3d_flags>  (1) 
0

>  <num_sample>  (1) 
50

>  <b_lp_Chiralities_Consistent>  (1) 
1

>  <r_epik_Charging_Adjusted_Penalty>  (1) 
1.1654849776379888

>  <r_epik_Ionization_Penalty>  (1) 
0.58785290175030958

>  <r_epik_Ionization_Penalty_Charging>  (1) 
0.58784809198166499

>  <r_epik_Ionization_Penalty_Neutral>  (1) 
4.8097686445928234e-06

>  <r_epik_State_Penalty>  (1) 
0.57763688565632376

>  <r_glide_ring_energy>  (1) 
0

>  <r_i_docking_score>  (1) 
-6.0028572425647795

>  <r_i_glide_ecoul>  (1) 
-4.4852194570601407

>  <r_i_glide_eff_state_penalty>  (1) 
0.57763688565632376

>  <r_i_glide_einternal>  (1) 
10.158835416373465

>  <r_i_glide_emodel>  (1) 
-48.843114509221927

>  <r_i_glide_emodel_strain>  (1) 
0.0075008629579542685

>  <r_i_glide_energy>  (1) 
-39.281490096008845

>  <r_i_glide_erotb>  (1) 
1.143828235945936

>  <r_i_glide_esite>  (1) 
0

>  <r_i_glide_evdw>  (1) 
-34.796270638948705

>  <r_i_glide_gscore>  (1) 
-6.5804941282211029

>  <r_i_glide_gscore_strain>  (1) 
0

>  <r_i_glide_hbond>  (1) 
-0.16

>  <r_i_glide_ligand_efficiency>  (1) 
-0.24011428970259119

>  <r_i_glide_ligand_efficiency_ln>  (1) 
-1.4228570576030903

>  <r_i_glide_ligand_efficiency_sa>  (1) 
-0.70209844228875962

>  <r_i_glide_lipo>  (1) 
-3.477837280401435

>  <r_i_glide_metal>  (1) 
-0

>  <r_i_glide_rewards>  (1) 
-1.6738886332591474

>  <r_lp_Energy>  (1) 
31.530553999999999

>  <s_epik_Chemistry_Notes>  (1) 
This compound contains an acetal/aminal-like group ( X-CH(R)-Y where X, Y are N, S, or O) that may be acid/base labile, releasing an aldehyde.

>  <s_epik_cmdline>  (1) 
J2VwaWtfcHl0aG9uJywgJy1waHQnLCAnMS4wJywgJy1waCcsICc3LjQnLCAnLXRuJywgJzgnLCAnLW1hJywgJzUwMCcsICctaW1hZScsICc8aW5maWxlLm1hZT4nLCAnLW9tYWUnLCAnPG91dGZpbGUubWFlPic=

>  <s_epik_input>  (1) 
Q2xjMVtjSF1uW2NIXWMoW2NIXTEpW0NIMl1bQ0BASF0oW09IXSlbTkhdW0NASF0oW0NIM10pW0NIMl1bQ0gyXVtDSF0yW0NIMl1bQ0gyXU4oW0NIMl1bQ0gyXTIpW0NIMl1DKFtDSDNdKT1bQ0gyXQ==

>  <s_glide_docking_method>  (1) 
confgen

>  <s_i_glide_gridfile>  (1) 
gpcr_5ht2c_6bqh_protein_autoprepared_prepared

>  <s_lp_Force_Field>  (1) 
S-OPLS

>  <s_lp_Variant>  (1) 
DiffSBDD_14-4

>  <s_m_source_file>  (1) 
generated_GPCR_5HT2C_ligand_DiffSBDD_2026-06-23_prepared.sdf

>  <GenAI_Model>  (1) 
DiffSBDD

>  <Protein>  (1) 
GPCR_5HT2C

$$$$
DiffSBDD_30
     RDKit          3D

  0  0  0  0  0  0  0  0  0  0999 V3000
M  V30 BEGIN CTAB
M  V30 COUNTS 75 78 0 0 1
M  V30 BEGIN ATOM
M  V30 1 C 38.150785 35.864806 60.465452 0 CFG=2
M  V30 2 N 36.684809 31.649186 59.793627 0 CFG=2 CHG=1
M  V30 3 C 39.245130 29.467408 52.932053 0
M  V30 4 O 36.814649 37.505335 61.538056 0
M  V30 5 C 38.854242 35.641721 61.805872 0
M  V30 6 C 40.483151 30.245493 61.460887 0 CFG=1
M  V30 7 N 39.027654 30.155875 61.238205 0
M  V30 8 C 36.999856 30.178652 59.754975 0 CFG=1
M  V30 9 O 37.245140 34.513403 58.673743 0
M  V30 10 C 40.684248 32.587921 62.585118 0
M  V30 11 C 36.491462 29.605661 58.412657 0
M  V30 12 C 41.938828 27.751487 63.795279 0
M  V30 13 O 41.547015 28.378404 62.584226 0
M  V30 14 C 38.508133 29.786668 59.906051 0 CFG=2
M  V30 15 C 36.568428 33.798864 60.869132 0 CFG=1
M  V30 16 C 40.996013 31.713486 61.369396 0
M  V30 17 C 37.290673 32.452238 60.878587 0
M  V30 18 C 37.330974 37.142495 60.457133 0
M  V30 19 O 37.245135 30.137774 57.336400 0
M  V30 20 O 38.648535 28.385858 59.798873 0
M  V30 21 C 35.247274 31.979269 59.894331 0
M  V30 22 O 39.498129 32.626105 62.967777 0 CHG=-1
M  V30 23 C 38.632417 29.902656 57.341145 0 CFG=2
M  V30 24 C 39.245135 30.355576 58.684269 0
M  V30 25 C 39.202644 30.650205 56.121284 0 CFG=2
M  V30 26 C 40.045111 29.118986 50.252739 0
M  V30 27 C 40.045125 30.443466 52.299398 0
M  V30 28 C 38.845120 28.317231 52.219678 0
M  V30 29 C 37.309102 34.710667 59.886250 0
M  V30 30 O 37.245134 37.737747 59.367752 0 CHG=-1
M  V30 31 C 38.817729 29.651846 54.375339 0 CFG=2
M  V30 32 C 35.157753 33.429475 60.386590 0
M  V30 33 C 39.246271 28.143152 50.882398 0
M  V30 34 C 40.444129 30.267555 50.960749 0
M  V30 35 O 41.642247 33.201633 63.102322 0
M  V30 36 C 40.870331 29.598219 62.814524 0
M  V30 37 C 38.314098 30.983502 54.913870 0
M  V30 38 O 39.932300 29.695706 55.304904 0
M  V30 39 H 38.956287 36.048151 59.767776 0
M  V30 40 H 38.153896 35.337716 62.567933 0
M  V30 41 H 39.636567 34.897805 61.705591 0
M  V30 42 H 39.332649 36.556458 62.158998 0
M  V30 43 H 40.996847 29.668637 60.692554 0
M  V30 44 H 38.625286 29.543950 61.943548 0
M  V30 45 H 36.445142 29.737761 60.567751 0
M  V30 46 H 35.438756 29.825087 58.256086 0
M  V30 47 H 36.566249 28.526879 58.371127 0
M  V30 48 H 42.611772 26.921515 63.585283 0
M  V30 49 H 42.474567 28.435641 64.455351 0
M  V30 50 H 41.068312 27.364628 64.325833 0
M  V30 51 H 36.525835 34.249646 61.858112 0
M  V30 52 H 42.068644 31.737749 61.219058 0
M  V30 53 H 40.561887 32.229298 60.522703 0
M  V30 54 H 37.142492 31.964755 61.843785 0
M  V30 55 H 38.357011 32.576094 60.713881 0
M  V30 56 H 39.453175 28.193959 59.340305 0
M  V30 57 H 34.692652 31.824821 58.968880 0
M  V30 58 H 34.821298 31.337768 60.662773 0
M  V30 59 H 38.775479 28.827889 57.218603 0
M  V30 60 H 39.245073 31.444475 58.730623 0
M  V30 61 H 40.274705 30.010048 58.690451 0
M  V30 62 H 39.819331 31.510541 56.383538 0
M  V30 63 H 40.350706 28.985996 49.225513 0
M  V30 64 H 40.353299 31.325826 52.841551 0
M  V30 65 H 38.231740 27.567999 52.699686 0
M  V30 66 H 38.131127 28.850096 54.655929 0
M  V30 67 H 34.803242 34.090173 59.592451 0
M  V30 68 H 34.443849 33.512820 61.204115 0
M  V30 69 H 38.940099 27.261676 50.337865 0
M  V30 70 H 41.055924 31.014766 50.476911 0
M  V30 71 H 41.556650 30.232143 63.376720 0
M  V30 72 H 40.001697 29.445466 63.453143 0
M  V30 73 H 37.238525 31.030930 55.087718 0
M  V30 74 H 38.671316 31.853099 54.363470 0
M  V30 75 H 36.995934 32.048825 58.914689 0
M  V30 END ATOM
M  V30 BEGIN BOND
M  V30 1 1 5 1
M  V30 2 1 7 6
M  V30 3 1 8 2
M  V30 4 1 11 8
M  V30 5 1 13 12
M  V30 6 1 14 7
M  V30 7 1 14 8
M  V30 8 1 16 6
M  V30 9 1 16 10
M  V30 10 1 17 2
M  V30 11 1 17 15
M  V30 12 1 18 1
M  V30 13 2 18 4
M  V30 14 1 19 11
M  V30 15 1 14 20 CFG=3
M  V30 16 1 21 2
M  V30 17 1 22 10
M  V30 18 1 23 19
M  V30 19 1 24 14
M  V30 20 1 24 23
M  V30 21 1 25 23
M  V30 22 1 27 3
M  V30 23 2 28 3
M  V30 24 1 29 1
M  V30 25 2 29 9
M  V30 26 1 29 15
M  V30 27 1 30 18
M  V30 28 1 31 3
M  V30 29 1 32 15
M  V30 30 1 32 21
M  V30 31 2 33 26
M  V30 32 1 33 28
M  V30 33 1 34 26
M  V30 34 2 34 27
M  V30 35 2 35 10
M  V30 36 1 36 6
M  V30 37 1 36 13
M  V30 38 1 37 25
M  V30 39 1 37 31
M  V30 40 1 38 25
M  V30 41 1 38 31
M  V30 42 1 1 39 CFG=3
M  V30 43 1 40 5
M  V30 44 1 41 5
M  V30 45 1 42 5
M  V30 46 1 6 43 CFG=3
M  V30 47 1 44 7
M  V30 48 1 8 45 CFG=1
M  V30 49 1 46 11
M  V30 50 1 47 11
M  V30 51 1 48 12
M  V30 52 1 49 12
M  V30 53 1 50 12
M  V30 54 1 15 51 CFG=1
M  V30 55 1 52 16
M  V30 56 1 53 16
M  V30 57 1 54 17
M  V30 58 1 55 17
M  V30 59 1 56 20
M  V30 60 1 57 21
M  V30 61 1 58 21
M  V30 62 1 23 59 CFG=3
M  V30 63 1 60 24
M  V30 64 1 61 24
M  V30 65 1 25 62 CFG=1
M  V30 66 1 63 26
M  V30 67 1 64 27
M  V30 68 1 65 28
M  V30 69 1 31 66 CFG=1
M  V30 70 1 67 32
M  V30 71 1 68 32
M  V30 72 1 69 33
M  V30 73 1 70 34
M  V30 74 1 71 36
M  V30 75 1 72 36
M  V30 76 1 73 37
M  V30 77 1 74 37
M  V30 78 1 2 75 CFG=3
M  V30 END BOND
M  V30 END CTAB
M  END
>  <i_epik_Tot_Q>  (1) 
-1

>  <i_epik_Tot_abs_Q>  (1) 
3

>  <i_i_glide_confnum>  (1) 
2687

>  <i_i_glide_lignum>  (1) 
67

>  <i_i_glide_posenum>  (1) 
9

>  <i_i_glide_rotatable_bonds>  (1) 
13

>  <i_lp_mmshare_version>  (1) 
72125

>  <i_m_source_file_index>  (1) 
31

>  <i_f3d_flags>  (1) 
0

>  <num_sample>  (1) 
50

>  <b_lp_Chiralities_Consistent>  (1) 
1

>  <r_epik_Charging_Adjusted_Penalty>  (1) 
0.42059132601078875

>  <r_epik_Ionization_Penalty>  (1) 
0.042345838263638087

>  <r_epik_Ionization_Penalty_Charging>  (1) 
0.028527830839106344

>  <r_epik_Ionization_Penalty_Neutral>  (1) 
0.013818007424531742

>  <r_epik_State_Penalty>  (1) 
0.39206349517168243

>  <r_glide_ring_energy>  (1) 
0

>  <r_i_docking_score>  (1) 
-6.0026048104792382

>  <r_i_glide_ecoul>  (1) 
-1.3493286593208094

>  <r_i_glide_eff_state_penalty>  (1) 
0.39206349517168243

>  <r_i_glide_einternal>  (1) 
13.638918391098777

>  <r_i_glide_emodel>  (1) 
-49.124145944911696

>  <r_i_glide_emodel_strain>  (1) 
3.1801605518057769

>  <r_i_glide_energy>  (1) 
-43.654781884479981

>  <r_i_glide_erotb>  (1) 
0.65218633798694536

>  <r_i_glide_esite>  (1) 
-0.071344789466434286

>  <r_i_glide_evdw>  (1) 
-42.30545322515917

>  <r_i_glide_gscore>  (1) 
-6.3946683056509208

>  <r_i_glide_gscore_strain>  (1) 
0

>  <r_i_glide_hbond>  (1) 
-0.031917876789429103

>  <r_i_glide_ligand_efficiency>  (1) 
-0.15796328448629574

>  <r_i_glide_ligand_efficiency_ln>  (1) 
-1.2943381758827286

>  <r_i_glide_ligand_efficiency_sa>  (1) 
-0.53106867762011456

>  <r_i_glide_lipo>  (1) 
-2.7888030709270049

>  <r_i_glide_metal>  (1) 
-0

>  <r_i_glide_rewards>  (1) 
-1.837116946298917

>  <r_lp_Energy>  (1) 
35.46461

>  <r_lp_tautomer_probability>  (1) 
0.99999996000000102

>  <s_epik_cmdline>  (1) 
J2VwaWtfcHl0aG9uJywgJy1waHQnLCAnMS4wJywgJy1waCcsICc3LjQnLCAnLXRuJywgJzgnLCAnLW1hJywgJzUwMCcsICctaW1hZScsICc8aW5maWxlLm1hZT4nLCAnLW9tYWUnLCAnPG91dGZpbGUubWFlPic=

>  <s_epik_input>  (1) 
Tz1DKFtPSF0pW0NAQEhdKFtDSDNdKUMoPU8pW0NAQEhdKFtDSDJdW0NIMl0xKVtDSDJdTjFbQ0BIXShbQ0BdMihbT0hdKVtOSF1bQ0BASF0oW0NIMl1DKD1PKVtPSF0pW0NIMl1PW0NIM10pW0NIMl1PW0NASF0oW0NIMl0yKVtDQEBIXTNbQ0gyXVtDSF0oTzMpYzRbY0hdW2NIXVtjSF1bY0hdW2NIXTQ=

>  <s_glide_docking_method>  (1) 
confgen

>  <s_i_glide_gridfile>  (1) 
gpcr_5ht2c_6bqh_protein_autoprepared_prepared

>  <s_lp_Force_Field>  (1) 
S-OPLS

>  <s_lp_Variant>  (1) 
DiffSBDD_30-2

>  <s_m_source_file>  (1) 
generated_GPCR_5HT2C_ligand_DiffSBDD_2026-06-23_prepared.sdf

>  <GenAI_Model>  (1) 
DiffSBDD

>  <Protein>  (1) 
GPCR_5HT2C

$$$$
DiffSBDD_8
     RDKit          3D

  0  0  0  0  0  0  0  0  0  0999 V3000
M  V30 BEGIN CTAB
M  V30 COUNTS 48 51 0 0 1
M  V30 BEGIN ATOM
M  V30 1 C 38.057056 26.638963 55.026174 0
M  V30 2 C 37.597620 25.432923 55.597297 0
M  V30 3 C 39.350223 29.314984 60.832627 0 CFG=1
M  V30 4 C 38.664318 26.029051 57.694761 0
M  V30 5 C 39.131423 27.228163 57.129533 0
M  V30 6 C 38.499884 32.234664 55.666782 0
M  V30 7 C 39.459743 30.102109 59.540245 0 CFG=2
M  V30 8 C 39.014818 30.340581 57.085248 0
M  V30 9 C 38.780708 30.993875 53.496533 0
M  V30 10 C 40.142396 30.705478 52.858209 0
M  V30 11 C 39.423393 29.568340 58.129609 0
M  V30 12 O 40.616710 29.687369 60.275655 0
M  V30 13 C 39.974852 28.163520 57.947192 0
M  V30 14 C 39.643169 29.541895 50.646031 0
M  V30 15 C 38.601133 31.806254 57.190835 0
M  V30 16 C 39.050171 29.912957 55.724024 0
M  V30 17 F 38.953614 25.737900 58.967749 0
M  V30 18 N 39.272990 28.733828 55.219092 0
M  V30 19 N 36.844582 24.538485 54.839871 0
M  V30 20 C 37.899575 25.134074 56.932726 0
M  V30 21 C 38.824747 27.543868 55.796867 0
M  V30 22 C 39.119536 29.960887 62.181965 0
M  V30 23 N 38.797965 30.998885 54.950396 0
M  V30 24 C 40.185204 30.803866 51.326983 0
M  V30 25 H 37.822489 26.872979 53.997610 0
M  V30 26 H 39.131723 28.250111 60.780937 0
M  V30 27 H 37.499424 32.586675 55.415932 0
M  V30 28 H 39.225414 33.009721 55.418770 0
M  V30 29 H 39.243905 31.163758 59.626421 0
M  V30 30 H 38.057530 30.237771 53.186716 0
M  V30 31 H 38.444395 31.977299 53.168144 0
M  V30 32 H 40.896061 31.337699 53.304222 0
M  V30 33 H 40.445107 29.714021 53.131321 0
M  V30 34 H 40.208936 27.697763 58.901005 0
M  V30 35 H 40.945435 28.256967 57.457809 0
M  V30 36 H 39.648666 29.648153 49.561062 0
M  V30 37 H 40.254415 28.673584 50.892989 0
M  V30 38 H 38.623018 29.327843 50.965273 0
M  V30 39 H 37.643278 31.892350 57.699477 0
M  V30 40 H 39.327980 32.423459 57.713832 0
M  V30 41 H 36.491615 24.805478 53.930953 0
M  V30 42 H 36.383127 23.756754 55.282105 0
M  V30 43 H 37.548132 24.213717 57.375680 0
M  V30 44 H 38.127668 29.738661 62.567760 0
M  V30 45 H 39.848588 29.583045 62.899214 0
M  V30 46 H 39.232571 31.043443 62.118327 0
M  V30 47 H 39.645615 31.687543 50.987229 0
M  V30 48 H 41.219344 30.940258 51.008301 0
M  V30 END ATOM
M  V30 BEGIN BOND
M  V30 1 1 2 1
M  V30 2 2 5 4
M  V30 3 1 7 3
M  V30 4 1 10 9
M  V30 5 1 11 7
M  V30 6 2 11 8
M  V30 7 1 12 3
M  V30 8 1 12 7
M  V30 9 1 13 5
M  V30 10 1 13 11
M  V30 11 1 15 6
M  V30 12 1 15 8
M  V30 13 1 16 8
M  V30 14 1 17 4
M  V30 15 2 18 16
M  V30 16 1 19 2
M  V30 17 2 20 2
M  V30 18 1 20 4
M  V30 19 2 21 1
M  V30 20 1 21 5
M  V30 21 1 21 18
M  V30 22 1 22 3
M  V30 23 1 23 6
M  V30 24 1 23 9
M  V30 25 1 23 16
M  V30 26 1 24 10
M  V30 27 1 24 14
M  V30 28 1 25 1
M  V30 29 1 3 26 CFG=3
M  V30 30 1 27 6
M  V30 31 1 28 6
M  V30 32 1 7 29 CFG=3
M  V30 33 1 30 9
M  V30 34 1 31 9
M  V30 35 1 32 10
M  V30 36 1 33 10
M  V30 37 1 34 13
M  V30 38 1 35 13
M  V30 39 1 36 14
M  V30 40 1 37 14
M  V30 41 1 38 14
M  V30 42 1 39 15
M  V30 43 1 40 15
M  V30 44 1 41 19
M  V30 45 1 42 19
M  V30 46 1 43 20
M  V30 47 1 44 22
M  V30 48 1 45 22
M  V30 49 1 46 22
M  V30 50 1 47 24
M  V30 51 1 48 24
M  V30 END BOND
M  V30 END CTAB
M  END
>  <i_epik_Tot_Q>  (1) 
0

>  <i_epik_Tot_abs_Q>  (1) 
0

>  <i_i_glide_confnum>  (1) 
36

>  <i_i_glide_lignum>  (1) 
18

>  <i_i_glide_posenum>  (1) 
367

>  <i_i_glide_rotatable_bonds>  (1) 
4

>  <i_lp_mmshare_version>  (1) 
72125

>  <i_m_source_file_index>  (1) 
9

>  <i_f3d_flags>  (1) 
0

>  <num_sample>  (1) 
50

>  <b_lp_Chiralities_Consistent>  (1) 
1

>  <r_epik_Charging_Adjusted_Penalty>  (1) 
1.179189790050359

>  <r_epik_Ionization_Penalty>  (1) 
1.1792430132501708

>  <r_epik_Ionization_Penalty_Charging>  (1) 
0

>  <r_epik_Ionization_Penalty_Neutral>  (1) 
1.1792430132501708

>  <r_epik_State_Penalty>  (1) 
1.179189790050359

>  <r_glide_ring_energy>  (1) 
0

>  <r_i_docking_score>  (1) 
-6.0007996933581733

>  <r_i_glide_ecoul>  (1) 
-2.2343151284777454

>  <r_i_glide_eff_state_penalty>  (1) 
1.179189790050359

>  <r_i_glide_einternal>  (1) 
6.3399028701972178

>  <r_i_glide_emodel>  (1) 
-46.064754527029201

>  <r_i_glide_emodel_strain>  (1) 
0.56422802561931462

>  <r_i_glide_energy>  (1) 
-33.845439689942467

>  <r_i_glide_erotb>  (1) 
0.51958033910786883

>  <r_i_glide_esite>  (1) 
0

>  <r_i_glide_evdw>  (1) 
-31.61112456146472

>  <r_i_glide_gscore>  (1) 
-7.1799894834085327

>  <r_i_glide_gscore_strain>  (1) 
0

>  <r_i_glide_hbond>  (1) 
-0.10378813326760845

>  <r_i_glide_ligand_efficiency>  (1) 
-0.25003332055659055

>  <r_i_glide_ligand_efficiency_ln>  (1) 
-1.4362667253759225

>  <r_i_glide_ligand_efficiency_sa>  (1) 
-0.72122089827055447

>  <r_i_glide_lipo>  (1) 
-3.0040655364993314

>  <r_i_glide_metal>  (1) 
-0

>  <r_i_glide_rewards>  (1) 
-2.6760126554045645

>  <r_lp_Energy>  (1) 
37.01735

>  <s_epik_Chemistry_Notes>  (1) 
This compound has an imine and may undergo hydrolysis.

>  <s_epik_cmdline>  (1) 
J2VwaWtfcHl0aG9uJywgJy1waHQnLCAnMS4wJywgJy1waCcsICc3LjQnLCAnLXRuJywgJzgnLCAnLW1hJywgJzUwMCcsICctaW1hZScsICc8aW5maWxlLm1hZT4nLCAnLW9tYWUnLCAnPG91dGZpbGUubWFlPic=

>  <s_epik_input>  (1) 
RmMxW2NIXWMoW05IMl0pW2NIXWMoYzEyKU49QzNDKD1DKFtDSDJdMilbQ0BIXShPNClbQ0BASF00W0NIM10pW0NIMl1bQ0gyXU4zW0NIMl1bQ0gyXVtDSDJdW0NIM10=

>  <s_glide_docking_method>  (1) 
confgen

>  <s_i_glide_gridfile>  (1) 
gpcr_5ht2c_6bqh_protein_autoprepared_prepared

>  <s_lp_Force_Field>  (1) 
S-OPLS

>  <s_lp_Variant>  (1) 
DiffSBDD_8-2

>  <s_m_source_file>  (1) 
generated_GPCR_5HT2C_ligand_DiffSBDD_2026-06-23_prepared.sdf

>  <GenAI_Model>  (1) 
DiffSBDD

>  <Protein>  (1) 
GPCR_5HT2C

$$$$
DiffSBDD_6
     RDKit          3D

  0  0  0  0  0  0  0  0  0  0999 V3000
M  V30 BEGIN CTAB
M  V30 COUNTS 51 52 0 0 1
M  V30 BEGIN ATOM
M  V30 1 O 38.725736 31.098924 60.698921 0
M  V30 2 C 36.779425 34.017834 60.418866 0
M  V30 3 N 37.502224 31.481047 58.833941 0
M  V30 4 C 37.692788 34.919413 60.703570 0
M  V30 5 C 40.122441 34.181718 62.253909 0
M  V30 6 C 37.780297 31.650798 60.135977 0
M  V30 7 C 39.871441 30.043035 52.244847 0
M  V30 8 C 40.035989 36.420035 62.960003 0
M  V30 9 O 41.164457 34.351465 63.207345 0
M  V30 10 C 38.909494 30.369289 55.499758 0
M  V30 11 C 38.286548 30.632473 54.126678 0
M  V30 12 C 38.396506 28.485770 52.705358 0
M  V30 13 C 39.126514 28.012552 51.708321 0
M  V30 14 C 38.292268 30.621849 57.959476 0
M  V30 15 C 38.854701 29.737717 53.035947 0
M  V30 16 C 35.443474 31.977626 61.045069 0
M  V30 17 C 40.274892 28.952271 51.185486 0
M  V30 18 C 39.888574 35.591421 61.700008 0 CFG=2
M  V30 19 O 39.671132 29.420983 55.693065 0
M  V30 20 C 36.852258 32.584453 60.922952 0 CFG=2
M  V30 21 C 37.244318 27.763737 53.368749 0
M  V30 22 C 41.160756 35.691227 63.698462 0
M  V30 23 C 38.542311 31.335682 56.622637 0
M  V30 24 C 38.593265 35.849600 60.933172 0
M  V30 25 H 35.924584 34.269995 59.807607 0
M  V30 26 H 36.699946 31.955188 58.428151 0
M  V30 27 H 39.245244 33.803427 62.779344 0
M  V30 28 H 40.398898 33.462110 61.482454 0
M  V30 29 H 40.410064 30.978464 52.299980 0
M  V30 30 H 40.271013 37.466561 62.765063 0
M  V30 31 H 39.119129 36.380952 63.550326 0
M  V30 32 H 37.208079 30.488510 54.194032 0
M  V30 33 H 38.452881 31.675787 53.856822 0
M  V30 34 H 38.966956 27.041704 51.260866 0
M  V30 35 H 39.244947 30.325477 58.401045 0
M  V30 36 H 37.720752 29.705632 57.802499 0
M  V30 37 H 34.912389 32.004997 60.091952 0
M  V30 38 H 35.475932 30.937765 61.367581 0
M  V30 39 H 34.845199 32.531511 61.767675 0
M  V30 40 H 40.133547 29.277059 50.154268 0
M  V30 41 H 41.265477 28.541436 51.367763 0
M  V30 42 H 40.715292 35.834375 61.030187 0
M  V30 43 H 37.263835 32.626577 61.933400 0
M  V30 44 H 36.303455 28.132436 52.967120 0
M  V30 45 H 37.298928 26.690523 53.183280 0
M  V30 46 H 37.250600 27.923200 54.446981 0
M  V30 47 H 41.021368 35.715840 64.779519 0
M  V30 48 H 42.129018 36.139246 63.473650 0
M  V30 49 H 37.645122 31.873764 56.315731 0
M  V30 50 H 39.331236 32.079758 56.732464 0
M  V30 51 H 38.445564 36.857036 60.572872 0
M  V30 END ATOM
M  V30 BEGIN BOND
M  V30 1 2 4 2
M  V30 2 2 6 1
M  V30 3 1 6 3
M  V30 4 1 9 5
M  V30 5 1 11 10
M  V30 6 2 13 12
M  V30 7 1 14 3
M  V30 8 2 15 7
M  V30 9 1 15 11
M  V30 10 1 15 12
M  V30 11 1 17 7
M  V30 12 1 17 13
M  V30 13 1 18 5
M  V30 14 1 18 8
M  V30 15 2 19 10
M  V30 16 1 20 2
M  V30 17 1 20 6
M  V30 18 1 20 16
M  V30 19 1 21 12
M  V30 20 1 22 8
M  V30 21 1 22 9
M  V30 22 1 23 10
M  V30 23 1 23 14
M  V30 24 2 24 4
M  V30 25 1 24 18
M  V30 26 1 25 2
M  V30 27 1 26 3
M  V30 28 1 27 5
M  V30 29 1 28 5
M  V30 30 1 29 7
M  V30 31 1 30 8
M  V30 32 1 31 8
M  V30 33 1 32 11
M  V30 34 1 33 11
M  V30 35 1 34 13
M  V30 36 1 35 14
M  V30 37 1 36 14
M  V30 38 1 37 16
M  V30 39 1 38 16
M  V30 40 1 39 16
M  V30 41 1 40 17
M  V30 42 1 41 17
M  V30 43 1 18 42 CFG=3
M  V30 44 1 20 43 CFG=1
M  V30 45 1 44 21
M  V30 46 1 45 21
M  V30 47 1 46 21
M  V30 48 1 47 22
M  V30 49 1 48 22
M  V30 50 1 49 23
M  V30 51 1 50 23
M  V30 52 1 51 24
M  V30 END BOND
M  V30 END CTAB
M  END
>  <i_epik_Tot_Q>  (1) 
0

>  <i_epik_Tot_abs_Q>  (1) 
0

>  <i_i_glide_confnum>  (1) 
58

>  <i_i_glide_lignum>  (1) 
15

>  <i_i_glide_posenum>  (1) 
124

>  <i_i_glide_rotatable_bonds>  (1) 
9

>  <i_lp_mmshare_version>  (1) 
72125

>  <i_m_source_file_index>  (1) 
7

>  <i_f3d_flags>  (1) 
0

>  <num_sample>  (1) 
50

>  <b_lp_Chiralities_Consistent>  (1) 
1

>  <r_epik_Charging_Adjusted_Penalty>  (1) 
0

>  <r_epik_Ionization_Penalty>  (1) 
2.8772612766536324e-08

>  <r_epik_Ionization_Penalty_Charging>  (1) 
0

>  <r_epik_Ionization_Penalty_Neutral>  (1) 
2.8772612766536324e-08

>  <r_epik_State_Penalty>  (1) 
-0

>  <r_glide_ring_energy>  (1) 
0

>  <r_i_docking_score>  (1) 
-6.000787841352154

>  <r_i_glide_ecoul>  (1) 
-3.7456279330484312

>  <r_i_glide_eff_state_penalty>  (1) 
-0

>  <r_i_glide_einternal>  (1) 
9.2508197950518678

>  <r_i_glide_emodel>  (1) 
-50.920397890641127

>  <r_i_glide_emodel_strain>  (1) 
2.1206329868823843

>  <r_i_glide_energy>  (1) 
-41.914623666795904

>  <r_i_glide_erotb>  (1) 
1.3853836233983141

>  <r_i_glide_esite>  (1) 
-0.10140166428764651

>  <r_i_glide_evdw>  (1) 
-38.168995733747472

>  <r_i_glide_gscore>  (1) 
-6.000787841352154

>  <r_i_glide_gscore_strain>  (1) 
0

>  <r_i_glide_hbond>  (1) 
-0.13757801884697335

>  <r_i_glide_ligand_efficiency>  (1) 
-0.25003282672300642

>  <r_i_glide_ligand_efficiency_ln>  (1) 
-1.4362638886470289

>  <r_i_glide_ligand_efficiency_sa>  (1) 
-0.72121947380800544

>  <r_i_glide_lipo>  (1) 
-2.9302428939062395

>  <r_i_glide_metal>  (1) 
-0

>  <r_i_glide_rewards>  (1) 
-1.7466549110649698

>  <r_lp_Energy>  (1) 
-19.353403999999998

>  <r_lp_tautomer_probability>  (1) 
1

>  <s_epik_cmdline>  (1) 
J2VwaWtfcHl0aG9uJywgJy1waHQnLCAnMS4wJywgJy1waCcsICc3LjQnLCAnLXRuJywgJzgnLCAnLW1hJywgJzUwMCcsICctaW1hZScsICc8aW5maWxlLm1hZT4nLCAnLW9tYWUnLCAnPG91dGZpbGUubWFlPic=

>  <s_epik_input>  (1) 
W0NIMl0xW0NIMl1PW0NIMl1bQ0BIXTFbQ0hdPUM9W0NIXVtDQEBIXShbQ0gzXSlDKD1PKVtOSF1bQ0gyXVtDSDJdQyg9TylbQ0gyXUMyPVtDSF1bQ0gyXVtDSF09QzJbQ0gzXQ==

>  <s_glide_docking_method>  (1) 
confgen

>  <s_i_glide_gridfile>  (1) 
gpcr_5ht2c_6bqh_protein_autoprepared_prepared

>  <s_lp_Force_Field>  (1) 
S-OPLS

>  <s_lp_Variant>  (1) 
DiffSBDD_6-1

>  <s_m_source_file>  (1) 
generated_GPCR_5HT2C_ligand_DiffSBDD_2026-06-23_prepared.sdf

>  <GenAI_Model>  (1) 
DiffSBDD

>  <Protein>  (1) 
GPCR_5HT2C

$$$$
DiffSBDD_1
     RDKit          3D

  0  0  0  0  0  0  0  0  0  0999 V3000
M  V30 BEGIN CTAB
M  V30 COUNTS 78 81 0 0 1
M  V30 BEGIN ATOM
M  V30 1 C 40.621515 28.201369 60.790896 0
M  V30 2 N 38.946857 29.784959 56.836936 0
M  V30 3 C 39.451806 30.563714 53.148539 0 CFG=1
M  V30 4 C 38.529757 29.336682 53.147655 0
M  V30 5 C 43.757900 32.518093 66.902941 0
M  V30 6 C 40.786207 31.455895 62.720803 0
M  V30 7 C 40.083247 30.582730 54.557501 0
M  V30 8 C 39.261726 29.566469 55.402491 0 CFG=2
M  V30 9 C 40.937609 31.948327 67.961853 0
M  V30 10 N 41.164944 30.101277 62.339301 0
M  V30 11 O 40.833755 25.230763 65.703051 0
M  V30 12 C 40.293534 30.254546 63.489262 0 CFG=1
M  V30 13 C 40.726134 31.746221 66.520064 0 CFG=2
M  V30 14 O 39.904033 30.537770 66.235318 0
M  V30 15 C 43.090136 25.687891 66.413541 0
M  V30 16 C 39.991982 30.718044 50.818516 0
M  V30 17 C 41.901310 31.100330 65.977604 0
M  V30 18 C 38.841133 28.556656 57.644554 0
M  V30 19 C 41.831141 27.192066 64.750259 0
M  V30 20 O 44.094230 30.616116 65.476211 0
M  V30 21 O 38.767855 32.061803 56.699003 0
M  V30 22 C 41.064276 28.093541 65.733878 0
M  V30 23 O 40.445132 30.478537 52.139797 0
M  V30 24 O 41.128632 34.111517 68.847054 0
M  V30 25 P 41.043732 29.847231 65.113890 0 CFG=2 CHG=1
M  V30 26 C 42.066516 25.764600 65.271926 0 CFG=2
M  V30 27 C 43.207247 31.393124 66.119785 0
M  V30 28 C 36.862705 30.269987 54.850503 0
M  V30 29 O 39.713509 27.857441 59.759060 0
M  V30 30 C 38.705712 31.032006 57.363819 0
M  V30 31 C 38.339678 31.127705 58.854382 0
M  V30 32 C 43.104402 33.337706 67.791726 0
M  V30 33 C 41.693812 33.212923 68.227071 0
M  V30 34 C 40.108797 28.298794 58.470336 0
M  V30 35 C 38.000727 29.269451 54.577978 0 CFG=1
M  V30 36 C 40.446425 29.681440 61.146187 0
M  V30 37 H 41.645184 27.965697 60.503987 0
M  V30 38 H 40.385293 27.596342 61.664062 0
M  V30 39 H 38.872193 31.480420 53.026462 0
M  V30 40 H 37.743943 29.337730 52.395513 0
M  V30 41 H 39.128401 28.446085 52.951265 0
M  V30 42 H 44.802902 32.742928 66.736204 0
M  V30 43 H 40.150567 31.937655 61.978474 0
M  V30 44 H 41.653277 32.008361 63.078761 0
M  V30 45 H 40.111248 31.609048 54.904361 0
M  V30 46 H 41.125382 30.274248 54.544007 0
M  V30 47 H 39.866255 28.658092 55.366743 0
M  V30 48 H 39.991965 32.137756 68.447869 0
M  V30 49 H 41.404417 31.096014 68.456327 0
M  V30 50 H 40.985631 24.374447 66.073323 0
M  V30 51 H 39.279422 29.915326 63.293923 0
M  V30 52 H 40.359832 32.621652 65.978286 0
M  V30 53 H 44.044068 26.123620 66.111041 0
M  V30 54 H 42.750621 26.216968 67.304109 0
M  V30 55 H 43.280864 24.652968 66.698327 0
M  V30 56 H 40.834534 30.644728 50.129851 0
M  V30 57 H 39.245097 29.984682 50.515343 0
M  V30 58 H 39.570296 31.718243 50.718536 0
M  V30 59 H 38.692959 27.696319 56.990754 0
M  V30 60 H 37.929779 28.534303 58.241326 0
M  V30 61 H 41.270067 27.138221 63.816897 0
M  V30 62 H 42.790966 27.642815 64.495821 0
M  V30 63 H 43.669235 29.850236 65.130647 0
M  V30 64 H 41.525830 28.071839 66.720188 0
M  V30 65 H 40.045135 27.738155 65.859422 0
M  V30 66 H 42.426286 25.148179 64.446686 0
M  V30 67 H 37.186482 31.305874 54.757969 0
M  V30 68 H 36.045139 30.144097 54.167772 0
M  V30 69 H 36.445316 30.137713 55.847135 0
M  V30 70 H 39.138526 31.635779 59.391225 0
M  V30 71 H 37.453967 31.757915 58.943601 0
M  V30 72 H 38.112381 30.212787 59.387621 0
M  V30 73 H 43.645137 34.137749 68.235708 0
M  V30 74 H 40.721375 29.198995 58.510706 0
M  V30 75 H 40.730205 27.535757 57.998535 0
M  V30 76 H 37.632104 28.263089 54.783939 0
M  V30 77 H 39.379755 29.889491 61.235190 0
M  V30 78 H 40.795707 30.294072 60.317591 0
M  V30 END ATOM
M  V30 BEGIN BOND
M  V30 1 1 4 3
M  V30 2 1 7 3
M  V30 3 1 8 2
M  V30 4 1 8 7
M  V30 5 1 10 6
M  V30 6 1 12 6
M  V30 7 1 12 10
M  V30 8 1 13 9
M  V30 9 1 14 13
M  V30 10 1 17 13
M  V30 11 1 18 2
M  V30 12 1 22 19
M  V30 13 1 23 3
M  V30 14 1 23 16
M  V30 15 1 25 12
M  V30 16 1 25 14
M  V30 17 1 25 17
M  V30 18 1 25 22 CFG=1
M  V30 19 1 26 11
M  V30 20 1 26 15
M  V30 21 1 26 19
M  V30 22 1 27 5
M  V30 23 2 27 17
M  V30 24 1 27 20
M  V30 25 1 29 1
M  V30 26 1 30 2
M  V30 27 2 30 21
M  V30 28 1 31 30
M  V30 29 2 32 5
M  V30 30 1 33 9
M  V30 31 2 33 24
M  V30 32 1 33 32
M  V30 33 1 34 18
M  V30 34 1 34 29
M  V30 35 1 35 4
M  V30 36 1 35 8
M  V30 37 1 35 28
M  V30 38 1 36 1
M  V30 39 1 36 10
M  V30 40 1 37 1
M  V30 41 1 38 1
M  V30 42 1 3 39 CFG=3
M  V30 43 1 40 4
M  V30 44 1 41 4
M  V30 45 1 42 5
M  V30 46 1 43 6
M  V30 47 1 44 6
M  V30 48 1 45 7
M  V30 49 1 46 7
M  V30 50 1 8 47 CFG=1
M  V30 51 1 48 9
M  V30 52 1 49 9
M  V30 53 1 50 11
M  V30 54 1 12 51 CFG=3
M  V30 55 1 13 52 CFG=3
M  V30 56 1 53 15
M  V30 57 1 54 15
M  V30 58 1 55 15
M  V30 59 1 56 16
M  V30 60 1 57 16
M  V30 61 1 58 16
M  V30 62 1 59 18
M  V30 63 1 60 18
M  V30 64 1 61 19
M  V30 65 1 62 19
M  V30 66 1 63 20
M  V30 67 1 64 22
M  V30 68 1 65 22
M  V30 69 1 26 66 CFG=3
M  V30 70 1 67 28
M  V30 71 1 68 28
M  V30 72 1 69 28
M  V30 73 1 70 31
M  V30 74 1 71 31
M  V30 75 1 72 31
M  V30 76 1 73 32
M  V30 77 1 74 34
M  V30 78 1 75 34
M  V30 79 1 35 76 CFG=1
M  V30 80 1 77 36
M  V30 81 1 78 36
M  V30 END BOND
M  V30 END CTAB
M  END
>  <i_epik_Tot_Q>  (1) 
1

>  <i_epik_Tot_abs_Q>  (1) 
1

>  <i_i_glide_confnum>  (1) 
3264

>  <i_i_glide_lignum>  (1) 
5

>  <i_i_glide_posenum>  (1) 
176

>  <i_i_glide_rotatable_bonds>  (1) 
15

>  <i_lp_mmshare_version>  (1) 
72125

>  <i_m_source_file_index>  (1) 
2

>  <i_f3d_flags>  (1) 
0

>  <num_sample>  (1) 
50

>  <b_lp_Chiralities_Consistent>  (1) 
1

>  <r_epik_Charging_Adjusted_Penalty>  (1) 
0.012777702237649643

>  <r_epik_Ionization_Penalty>  (1) 
0.012893064322698497

>  <r_epik_Ionization_Penalty_Charging>  (1) 
0

>  <r_epik_Ionization_Penalty_Neutral>  (1) 
0.012893064322698497

>  <r_epik_State_Penalty>  (1) 
0.012777702237649643

>  <r_glide_ring_energy>  (1) 
1.6816026439138669

>  <r_i_docking_score>  (1) 
-5.997014303569193

>  <r_i_glide_ecoul>  (1) 
-3.4277258556355572

>  <r_i_glide_eff_state_penalty>  (1) 
0.012777702237649643

>  <r_i_glide_einternal>  (1) 
11.017592607010549

>  <r_i_glide_emodel>  (1) 
-56.850720783640057

>  <r_i_glide_emodel_strain>  (1) 
4.1885793319290627

>  <r_i_glide_energy>  (1) 
-46.570122706775784

>  <r_i_glide_erotb>  (1) 
0.81958699115176215

>  <r_i_glide_esite>  (1) 
-0.053542812526894003

>  <r_i_glide_evdw>  (1) 
-43.142396851140226

>  <r_i_glide_gscore>  (1) 
-6.009792005806843

>  <r_i_glide_gscore_strain>  (1) 
0.047144832982265683

>  <r_i_glide_hbond>  (1) 
-0.32000000000000001

>  <r_i_glide_ligand_efficiency>  (1) 
-0.16658373065469981

>  <r_i_glide_ligand_efficiency_ln>  (1) 
-1.3083865004361033

>  <r_i_glide_ligand_efficiency_sa>  (1) 
-0.55004735947127648

>  <r_i_glide_lipo>  (1) 
-3.4717769838995118

>  <r_i_glide_metal>  (1) 
-0

>  <r_i_glide_rewards>  (1) 
-0.35992531261211902

>  <r_lp_Energy>  (1) 
37.151716

>  <s_epik_cmdline>  (1) 
J2VwaWtfcHl0aG9uJywgJy1waHQnLCAnMS4wJywgJy1waCcsICc3LjQnLCAnLXRuJywgJzgnLCAnLW1hJywgJzUwMCcsICctaW1hZScsICc8aW5maWxlLm1hZT4nLCAnLW9tYWUnLCAnPG91dGZpbGUubWFlPic=

>  <s_epik_input>  (1) 
W0NIM11PW0NASF0xW0NIMl1bQ0BIXShbQ0gzXSlbQ0BASF0oW0NIMl0xKU4oQyg9TylbQ0gzXSlbQ0gyXVtDSDJdT1tDSDJdW0NIMl1OMltDSDJdW0NIXTJbUEBAK10oTzMpKFtDSDJdW0NIMl1bQ0BIXShbT0hdKVtDSDNdKUMoW0NAQEhdMzQpPUMoW09IXSlbQ0hdPVtDSF1DKD1PKVtDSDJdNA==

>  <s_glide_docking_method>  (1) 
confgen

>  <s_i_glide_gridfile>  (1) 
gpcr_5ht2c_6bqh_protein_autoprepared_prepared

>  <s_lp_Force_Field>  (1) 
S-OPLS

>  <s_lp_Variant>  (1) 
DiffSBDD_1-1

>  <s_m_source_file>  (1) 
generated_GPCR_5HT2C_ligand_DiffSBDD_2026-06-23_prepared.sdf

>  <GenAI_Model>  (1) 
DiffSBDD

>  <Protein>  (1) 
GPCR_5HT2C

$$$$
DiffSBDD_38
     RDKit          3D

  0  0  0  0  0  0  0  0  0  0999 V3000
M  V30 BEGIN CTAB
M  V30 COUNTS 71 72 0 0 1
M  V30 BEGIN ATOM
M  V30 1 C 36.142439 35.087589 59.442933 0
M  V30 2 C 37.499934 28.715315 57.421178 0
M  V30 3 C 39.645166 29.885824 51.756763 0
M  V30 4 F 39.249202 33.279589 62.619866 0
M  V30 5 C 39.736759 30.381936 53.070120 0
M  V30 6 C 39.288819 28.546154 51.569259 0
M  V30 7 C 39.659277 27.869338 56.385739 0 CFG=2
M  V30 8 C 41.705171 27.510273 57.589810 0
M  V30 9 F 35.994785 29.338758 59.767754 0
M  V30 10 C 35.083896 32.324037 60.509747 0
M  V30 11 C 39.052180 27.745646 52.694154 0
M  V30 12 C 40.087441 34.208054 62.167830 0
M  V30 13 C 39.607992 34.781856 60.801750 0 CFG=2
M  V30 14 C 34.940556 34.358171 58.967768 0
M  V30 15 N 37.041771 33.426057 60.969708 0
M  V30 16 O 40.791088 27.076375 56.590623 0
M  V30 17 C 37.246797 29.786814 59.736178 0
M  V30 18 C 37.052101 34.665173 60.366293 0
M  V30 19 C 38.232823 35.540016 60.778563 0 CFG=1
M  V30 20 C 37.591835 30.016033 58.249167 0 CFG=1
M  V30 21 C 39.199535 28.316148 53.974677 0
M  V30 22 F 41.288188 33.644071 62.025194 0
M  V30 23 C 38.665342 27.696765 57.553298 0 CFG=2
M  V30 24 C 37.141726 38.253248 61.023142 0
M  V30 25 F 38.045148 28.815149 60.167758 0
M  V30 26 F 39.190019 28.030267 50.325389 0
M  V30 27 C 34.469292 33.171271 59.428043 0
M  V30 28 N 39.517238 29.624849 54.169230 0
M  V30 29 F 40.236688 35.157247 63.091585 0
M  V30 30 C 37.323262 30.975395 60.732191 0 CFG=2
M  V30 31 C 38.189560 26.232289 57.639629 0
M  V30 32 C 37.443475 37.326215 62.183240 0
M  V30 33 C 39.724450 33.712908 59.677697 0
M  V30 34 N 37.935133 36.159785 62.058532 0
M  V30 35 C 36.558977 32.257830 60.306309 0 CFG=1
M  V30 36 O 38.844986 30.637930 58.049994 0
M  V30 37 F 38.614289 31.255561 60.906900 0
M  V30 38 N 39.047926 27.507576 55.109750 0
M  V30 39 H 36.299948 36.068352 59.022396 0
M  V30 40 H 37.774420 33.244956 61.645644 0
M  V30 41 H 36.596851 28.215798 57.767736 0
M  V30 42 H 37.314421 28.976587 56.380015 0
M  V30 43 H 39.838993 30.528253 50.910210 0
M  V30 44 H 40.003626 31.411994 53.245619 0
M  V30 45 H 40.001879 28.902125 56.351684 0
M  V30 46 H 42.627461 26.937724 57.523002 0
M  V30 47 H 41.315588 27.378238 58.598245 0
M  V30 48 H 41.982558 28.548183 57.452800 0
M  V30 49 H 34.669325 31.337768 60.398800 0
M  V30 50 H 34.798392 32.673186 61.504390 0
M  V30 51 H 38.792494 26.703686 52.580617 0
M  V30 52 H 40.360903 35.536167 60.568564 0
M  V30 53 H 34.369039 34.832297 58.184636 0
M  V30 54 H 38.347636 36.283194 59.990642 0
M  V30 55 H 36.845155 30.694199 57.847614 0
M  V30 56 H 39.218099 27.908764 58.462504 0
M  V30 57 H 36.727961 39.189093 61.397931 0
M  V30 58 H 36.405814 37.808423 60.358003 0
M  V30 59 H 33.572804 32.774505 58.985863 0
M  V30 60 H 36.988624 30.657149 61.716655 0
M  V30 61 H 37.532971 25.965329 56.811031 0
M  V30 62 H 37.645384 26.066678 58.567107 0
M  V30 63 H 39.028522 25.535648 57.643258 0
M  V30 64 H 37.206090 37.737760 63.166997 0
M  V30 65 H 38.838936 33.169382 59.391516 0
M  V30 66 H 40.432711 32.937808 59.964374 0
M  V30 67 H 40.045128 34.137752 58.739078 0
M  V30 68 H 38.044972 38.491314 60.461770 0
M  V30 69 H 36.771081 32.382907 59.244365 0
M  V30 70 H 38.880503 30.936496 57.152634 0
M  V30 71 H 38.822071 26.533130 54.982527 0
M  V30 END ATOM
M  V30 BEGIN BOND
M  V30 1 2 5 3
M  V30 2 1 6 3
M  V30 3 2 11 6
M  V30 4 1 12 4
M  V30 5 1 13 12
M  V30 6 1 14 1
M  V30 7 1 16 7
M  V30 8 1 16 8
M  V30 9 1 17 9
M  V30 10 2 18 1
M  V30 11 1 18 15
M  V30 12 1 19 13
M  V30 13 1 19 18
M  V30 14 1 20 2
M  V30 15 1 20 17
M  V30 16 1 21 11
M  V30 17 1 22 12
M  V30 18 1 23 2
M  V30 19 1 23 7
M  V30 20 1 25 17
M  V30 21 1 26 6
M  V30 22 1 27 10
M  V30 23 2 27 14
M  V30 24 1 28 5
M  V30 25 2 28 21
M  V30 26 1 29 12
M  V30 27 1 30 17
M  V30 28 1 31 23
M  V30 29 1 32 24
M  V30 30 1 33 13
M  V30 31 1 34 19
M  V30 32 2 34 32
M  V30 33 1 35 10
M  V30 34 1 35 15
M  V30 35 1 35 30
M  V30 36 1 36 20
M  V30 37 1 37 30
M  V30 38 1 38 7
M  V30 39 1 38 21
M  V30 40 1 39 1
M  V30 41 1 40 15
M  V30 42 1 41 2
M  V30 43 1 42 2
M  V30 44 1 43 3
M  V30 45 1 44 5
M  V30 46 1 7 45 CFG=3
M  V30 47 1 46 8
M  V30 48 1 47 8
M  V30 49 1 48 8
M  V30 50 1 49 10
M  V30 51 1 50 10
M  V30 52 1 51 11
M  V30 53 1 13 52 CFG=3
M  V30 54 1 53 14
M  V30 55 1 19 54 CFG=3
M  V30 56 1 20 55 CFG=3
M  V30 57 1 23 56 CFG=1
M  V30 58 1 57 24
M  V30 59 1 58 24
M  V30 60 1 59 27
M  V30 61 1 30 60 CFG=1
M  V30 62 1 61 31
M  V30 63 1 62 31
M  V30 64 1 63 31
M  V30 65 1 64 32
M  V30 66 1 65 33
M  V30 67 1 66 33
M  V30 68 1 67 33
M  V30 69 1 68 24
M  V30 70 1 35 69 CFG=3
M  V30 71 1 70 36
M  V30 72 1 71 38
M  V30 END BOND
M  V30 END CTAB
M  END
>  <i_epik_Tot_Q>  (1) 
0

>  <i_epik_Tot_abs_Q>  (1) 
0

>  <i_i_glide_confnum>  (1) 
2839

>  <i_i_glide_lignum>  (1) 
80

>  <i_i_glide_posenum>  (1) 
98

>  <i_i_glide_rotatable_bonds>  (1) 
14

>  <i_lp_mmshare_version>  (1) 
72125

>  <i_m_source_file_index>  (1) 
39

>  <i_f3d_flags>  (1) 
0

>  <num_sample>  (1) 
50

>  <b_lp_Chiralities_Consistent>  (1) 
1

>  <r_epik_Charging_Adjusted_Penalty>  (1) 
0.41068759954161893

>  <r_epik_Ionization_Penalty>  (1) 
0.72091217201864632

>  <r_epik_Ionization_Penalty_Charging>  (1) 
0

>  <r_epik_Ionization_Penalty_Neutral>  (1) 
0.72091217201864632

>  <r_epik_State_Penalty>  (1) 
0.41068759954161893

>  <r_glide_ring_energy>  (1) 
0

>  <r_i_docking_score>  (1) 
-5.9956029576102718

>  <r_i_glide_ecoul>  (1) 
0.18854598486255147

>  <r_i_glide_eff_state_penalty>  (1) 
0.41068759954161893

>  <r_i_glide_einternal>  (1) 
18.587336315622068

>  <r_i_glide_emodel>  (1) 
-43.451782683896248

>  <r_i_glide_emodel_strain>  (1) 
3.0739672591065954

>  <r_i_glide_energy>  (1) 
-36.821595319685891

>  <r_i_glide_erotb>  (1) 
0.60130745657359952

>  <r_i_glide_esite>  (1) 
-0.010570096324821086

>  <r_i_glide_evdw>  (1) 
-37.010141304548441

>  <r_i_glide_gscore>  (1) 
-6.4062905571518911

>  <r_i_glide_gscore_strain>  (1) 
0

>  <r_i_glide_hbond>  (1) 
0

>  <r_i_glide_ligand_efficiency>  (1) 
-0.15777902520027032

>  <r_i_glide_ligand_efficiency_ln>  (1) 
-1.2928283704305363

>  <r_i_glide_ligand_efficiency_sa>  (1) 
-0.53044920243202276

>  <r_i_glide_lipo>  (1) 
-3.0537056436523877

>  <r_i_glide_metal>  (1) 
-0

>  <r_i_glide_rewards>  (1) 
-2.1210971062502417

>  <r_lp_Energy>  (1) 
25.10126

>  <r_lp_tautomer_probability>  (1) 
0.49999644301987139

>  <s_epik_Chemistry_Notes>  (1) 
This compound has an imine and may undergo hydrolysis. This compound contains an acetal/aminal-like group ( X-CH(R)-Y where X, Y are N, S, or O) that may be acid/base labile, releasing an aldehyde.

>  <s_epik_cmdline>  (1) 
J2VwaWtfcHl0aG9uJywgJy1waHQnLCAnMS4wJywgJy1waCcsICc3LjQnLCAnLXRuJywgJzgnLCAnLW1hJywgJzUwMCcsICctaW1hZScsICc8aW5maWxlLm1hZT4nLCAnLW9tYWUnLCAnPG91dGZpbGUubWFlPic=

>  <s_epik_input>  (1) 
RkMoRikoRilbQ0BASF0oW0NIM10pW0NASF0oW05IXVtDSF09W0NIMl0pQzE9TltDQEhdKFtDSDJdW0NIXT1bQ0hdW0NIMl0xKVtDQEhdKEYpQyhGKShGKVtDQEBIXShbT0hdKVtDSDJdW0NAQEhdKFtDSDNdKVtDQEBIXShPW0NIM10pW05IXWMoW2NIXTIpbltjSF1bY0hdYzJG

>  <s_glide_docking_method>  (1) 
confgen

>  <s_i_glide_gridfile>  (1) 
gpcr_5ht2c_6bqh_protein_autoprepared_prepared

>  <s_lp_Force_Field>  (1) 
S-OPLS

>  <s_lp_Variant>  (1) 
DiffSBDD_38-1

>  <s_m_source_file>  (1) 
generated_GPCR_5HT2C_ligand_DiffSBDD_2026-06-23_prepared.sdf

>  <GenAI_Model>  (1) 
DiffSBDD

>  <Protein>  (1) 
GPCR_5HT2C

$$$$
DiffSBDD_38
     RDKit          3D

  0  0  0  0  0  0  0  0  0  0999 V3000
M  V30 BEGIN CTAB
M  V30 COUNTS 71 72 0 0 1
M  V30 BEGIN ATOM
M  V30 1 C 40.664030 28.211504 57.766938 0
M  V30 2 C 39.267691 33.754303 61.974982 0
M  V30 3 C 43.264132 31.483427 67.319563 0
M  V30 4 F 39.250182 29.706193 53.125340 0
M  V30 5 C 43.484533 32.757958 66.769113 0
M  V30 6 C 42.303993 30.656352 66.730032 0
M  V30 7 C 41.250582 34.274474 63.551508 0 CFG=2
M  V30 8 C 40.155432 36.411403 64.070317 0
M  V30 9 F 38.088831 31.091821 62.161540 0
M  V30 10 C 39.052365 28.732432 60.394768 0
M  V30 11 C 41.603473 31.125532 65.612927 0
M  V30 12 C 39.320973 30.556341 54.149664 0
M  V30 13 C 38.529111 30.048551 55.362974 0 CFG=2
M  V30 14 C 41.187561 28.137465 59.151256 0
M  V30 15 N 38.496992 29.283203 58.177275 0
M  V30 16 O 40.445904 35.059864 64.380502 0
M  V30 17 C 37.846198 31.787085 61.049131 0
M  V30 18 C 39.453849 28.696513 57.355738 0
M  V30 19 C 39.051581 28.658959 55.878335 0 CFG=1
M  V30 20 C 39.027264 32.764162 60.814260 0 CFG=1
M  V30 21 C 41.885647 32.417729 65.125299 0
M  V30 22 F 38.843467 31.737190 53.767672 0
M  V30 23 C 40.744773 34.233737 62.070168 0 CFG=2
M  V30 24 C 39.719881 25.900946 55.034455 0
M  V30 25 F 36.733705 32.486617 61.279476 0
M  V30 26 F 42.060562 29.421609 67.227222 0
M  V30 27 C 40.498150 28.363108 60.295133 0
M  V30 28 N 42.809418 33.238067 65.692960 0
M  V30 29 F 40.588913 30.722318 54.506829 0
M  V30 30 C 37.577388 30.784874 59.890940 0 CFG=2
M  V30 31 C 41.025301 35.520776 61.271287 0
M  V30 32 C 38.322924 26.411151 55.328183 0
M  V30 33 C 37.019307 30.104467 55.069325 0
M  V30 34 N 38.054746 27.605888 55.685457 0
M  V30 35 C 38.756426 29.868608 59.463486 0 CFG=1
M  V30 36 O 38.852629 33.502459 59.622595 0
M  V30 37 F 37.246941 31.510916 58.824959 0
M  V30 38 N 41.193244 32.883106 63.998484 0
M  V30 39 H 41.311537 27.822253 56.995645 0
M  V30 40 H 37.639523 29.592850 57.735589 0
M  V30 41 H 38.594044 34.608475 61.897378 0
M  V30 42 H 38.960970 33.266324 62.897595 0
M  V30 43 H 43.827066 31.148476 68.177590 0
M  V30 44 H 44.225339 33.409019 67.201677 0
M  V30 45 H 42.282858 34.623934 63.612485 0
M  V30 46 H 39.917641 36.940539 64.993500 0
M  V30 47 H 39.270863 36.467096 63.437505 0
M  V30 48 H 40.977671 36.932225 63.583418 0
M  V30 49 H 38.876396 29.017031 61.428838 0
M  V30 50 H 38.433159 27.854520 60.207150 0
M  V30 51 H 40.859876 30.505475 65.132615 0
M  V30 52 H 38.711225 30.800304 56.133374 0
M  V30 53 H 42.223393 27.851134 59.260098 0
M  V30 54 H 39.959017 28.443083 55.314552 0
M  V30 55 H 39.922197 32.155399 60.690313 0
M  V30 56 H 41.384570 33.486941 61.596446 0
M  V30 57 H 39.661209 24.851270 54.749344 0
M  V30 58 H 40.358295 25.972825 55.913897 0
M  V30 59 H 41.015937 28.253834 61.237053 0
M  V30 60 H 36.700603 30.175681 60.115619 0
M  V30 61 H 40.345971 36.338602 61.495753 0
M  V30 62 H 40.898258 35.338286 60.206924 0
M  V30 63 H 42.044433 35.866097 61.429852 0
M  V30 64 H 37.533697 25.664001 55.208721 0
M  V30 65 H 36.779370 29.454814 54.230380 0
M  V30 66 H 36.691452 31.111887 54.810212 0
M  V30 67 H 36.444250 29.797537 55.940306 0
M  V30 68 H 40.169924 26.449293 54.206636 0
M  V30 69 H 39.641556 30.494151 59.354447 0
M  V30 70 H 38.314641 32.991099 59.030507 0
M  V30 71 H 40.461571 32.310368 63.608904 0
M  V30 END ATOM
M  V30 BEGIN BOND
M  V30 1 2 5 3
M  V30 2 1 6 3
M  V30 3 2 11 6
M  V30 4 1 12 4
M  V30 5 1 13 12
M  V30 6 1 14 1
M  V30 7 1 16 7
M  V30 8 1 16 8
M  V30 9 1 17 9
M  V30 10 2 18 1
M  V30 11 1 18 15
M  V30 12 1 19 13
M  V30 13 1 19 18
M  V30 14 1 20 2
M  V30 15 1 20 17
M  V30 16 1 21 11
M  V30 17 1 22 12
M  V30 18 1 23 2
M  V30 19 1 23 7
M  V30 20 1 25 17
M  V30 21 1 26 6
M  V30 22 1 27 10
M  V30 23 2 27 14
M  V30 24 1 28 5
M  V30 25 2 28 21
M  V30 26 1 29 12
M  V30 27 1 30 17
M  V30 28 1 31 23
M  V30 29 1 32 24
M  V30 30 1 33 13
M  V30 31 1 34 19
M  V30 32 2 34 32
M  V30 33 1 35 10
M  V30 34 1 35 15
M  V30 35 1 35 30
M  V30 36 1 36 20
M  V30 37 1 37 30
M  V30 38 1 38 7
M  V30 39 1 38 21
M  V30 40 1 39 1
M  V30 41 1 40 15
M  V30 42 1 41 2
M  V30 43 1 42 2
M  V30 44 1 43 3
M  V30 45 1 44 5
M  V30 46 1 7 45 CFG=3
M  V30 47 1 46 8
M  V30 48 1 47 8
M  V30 49 1 48 8
M  V30 50 1 49 10
M  V30 51 1 50 10
M  V30 52 1 51 11
M  V30 53 1 13 52 CFG=1
M  V30 54 1 53 14
M  V30 55 1 19 54 CFG=3
M  V30 56 1 20 55 CFG=3
M  V30 57 1 23 56 CFG=3
M  V30 58 1 57 24
M  V30 59 1 58 24
M  V30 60 1 59 27
M  V30 61 1 30 60 CFG=1
M  V30 62 1 61 31
M  V30 63 1 62 31
M  V30 64 1 63 31
M  V30 65 1 64 32
M  V30 66 1 65 33
M  V30 67 1 66 33
M  V30 68 1 67 33
M  V30 69 1 68 24
M  V30 70 1 35 69 CFG=3
M  V30 71 1 70 36
M  V30 72 1 71 38
M  V30 END BOND
M  V30 END CTAB
M  END
>  <i_epik_Tot_Q>  (1) 
0

>  <i_epik_Tot_abs_Q>  (1) 
0

>  <i_i_glide_confnum>  (1) 
1836

>  <i_i_glide_lignum>  (1) 
80

>  <i_i_glide_posenum>  (1) 
368

>  <i_i_glide_rotatable_bonds>  (1) 
14

>  <i_lp_mmshare_version>  (1) 
72125

>  <i_m_source_file_index>  (1) 
39

>  <i_f3d_flags>  (1) 
0

>  <num_sample>  (1) 
50

>  <b_lp_Chiralities_Consistent>  (1) 
1

>  <r_epik_Charging_Adjusted_Penalty>  (1) 
0.41068759954161893

>  <r_epik_Ionization_Penalty>  (1) 
0.72091217201864632

>  <r_epik_Ionization_Penalty_Charging>  (1) 
0

>  <r_epik_Ionization_Penalty_Neutral>  (1) 
0.72091217201864632

>  <r_epik_State_Penalty>  (1) 
0.41068759954161893

>  <r_glide_ring_energy>  (1) 
0

>  <r_i_docking_score>  (1) 
-5.9940007090956646

>  <r_i_glide_ecoul>  (1) 
-0.89996097586490986

>  <r_i_glide_eff_state_penalty>  (1) 
0.41068759954161893

>  <r_i_glide_einternal>  (1) 
12.456055446239404

>  <r_i_glide_emodel>  (1) 
-50.60820197921965

>  <r_i_glide_emodel_strain>  (1) 
5.6732048504028612

>  <r_i_glide_energy>  (1) 
-43.516363231614406

>  <r_i_glide_erotb>  (1) 
0.60130745657359952

>  <r_i_glide_esite>  (1) 
-0.11358144326507882

>  <r_i_glide_evdw>  (1) 
-42.616402255749499

>  <r_i_glide_gscore>  (1) 
-6.4046883086372839

>  <r_i_glide_gscore_strain>  (1) 
0.41830121260071529

>  <r_i_glide_hbond>  (1) 
0

>  <r_i_glide_ligand_efficiency>  (1) 
-0.15773686076567539

>  <r_i_glide_ligand_efficiency_ln>  (1) 
-1.2924828785174109

>  <r_i_glide_ligand_efficiency_sa>  (1) 
-0.53030744663987306

>  <r_i_glide_lipo>  (1) 
-3.2142726107162565

>  <r_i_glide_metal>  (1) 
-0

>  <r_i_glide_rewards>  (1) 
-1.8306286646630527

>  <r_lp_Energy>  (1) 
25.10126

>  <r_lp_tautomer_probability>  (1) 
0.49999644301987139

>  <s_epik_Chemistry_Notes>  (1) 
This compound has an imine and may undergo hydrolysis. This compound contains an acetal/aminal-like group ( X-CH(R)-Y where X, Y are N, S, or O) that may be acid/base labile, releasing an aldehyde.

>  <s_epik_cmdline>  (1) 
J2VwaWtfcHl0aG9uJywgJy1waHQnLCAnMS4wJywgJy1waCcsICc3LjQnLCAnLXRuJywgJzgnLCAnLW1hJywgJzUwMCcsICctaW1hZScsICc8aW5maWxlLm1hZT4nLCAnLW9tYWUnLCAnPG91dGZpbGUubWFlPic=

>  <s_epik_input>  (1) 
RkMoRikoRilbQ0BASF0oW0NIM10pW0NASF0oW05IXVtDSF09W0NIMl0pQzE9TltDQEhdKFtDSDJdW0NIXT1bQ0hdW0NIMl0xKVtDQEhdKEYpQyhGKShGKVtDQEBIXShbT0hdKVtDSDJdW0NAQEhdKFtDSDNdKVtDQEBIXShPW0NIM10pW05IXWMoW2NIXTIpbltjSF1bY0hdYzJG

>  <s_glide_docking_method>  (1) 
confgen

>  <s_i_glide_gridfile>  (1) 
gpcr_5ht2c_6bqh_protein_autoprepared_prepared

>  <s_lp_Force_Field>  (1) 
S-OPLS

>  <s_lp_Variant>  (1) 
DiffSBDD_38-1

>  <s_m_source_file>  (1) 
generated_GPCR_5HT2C_ligand_DiffSBDD_2026-06-23_prepared.sdf

>  <GenAI_Model>  (1) 
DiffSBDD

>  <Protein>  (1) 
GPCR_5HT2C

$$$$
DiffSBDD_40
     RDKit          3D

  0  0  0  0  0  0  0  0  0  0999 V3000
M  V30 BEGIN CTAB
M  V30 COUNTS 59 62 0 0 1
M  V30 BEGIN ATOM
M  V30 1 C 39.954917 26.593204 56.965610 0 CFG=1
M  V30 2 C 39.640295 29.812105 54.610238 0 CFG=2
M  V30 3 C 40.235529 27.840257 56.142101 0 CFG=1
M  V30 4 C 38.565114 24.379104 57.333925 0
M  V30 5 C 38.044638 33.472060 59.921461 0
M  V30 6 O 41.201347 28.544377 58.684964 0
M  V30 7 C 39.515918 30.937373 55.650340 0
M  V30 8 F 38.445236 27.373028 51.377441 0
M  V30 9 C 37.949603 36.276622 60.562731 0
M  V30 10 F 37.092577 28.181533 52.835630 0
M  V30 11 C 38.844401 30.238565 53.367648 0
M  V30 12 N 36.721939 35.504217 60.406059 0
M  V30 13 O 36.930861 29.921087 59.767759 0
M  V30 14 C 39.244519 28.391079 55.123443 0 CFG=2
M  V30 15 C 37.946775 25.459669 58.167398 0
M  V30 16 C 35.705500 31.930719 60.227455 0
M  V30 17 S 39.238033 27.158010 53.775545 0
M  V30 18 C 38.140171 29.186749 59.648714 0
M  V30 19 C 38.593550 36.053043 61.942423 0
M  V30 20 P 39.996278 28.143145 57.907596 0 CFG=2
M  V30 21 C 37.601479 37.760080 60.381499 0
M  V30 22 C 35.651206 33.325742 60.384931 0
M  V30 23 C 38.379757 28.082669 52.501359 0
M  V30 24 O 38.989033 29.337769 52.277464 0
M  V30 25 C 38.651432 25.818090 56.883470 0
M  V30 26 C 36.917428 31.295601 59.914810 0
M  V30 27 C 38.094750 32.072216 59.756073 0
M  V30 28 C 36.814566 34.105890 60.238316 0
M  V30 29 C 38.339662 28.896359 58.171331 0
M  V30 30 H 40.826338 25.974710 57.166345 0
M  V30 31 H 40.688063 29.803913 54.335417 0
M  V30 32 H 41.260523 27.950889 55.821134 0
M  V30 33 H 37.886181 23.737863 56.780746 0
M  V30 34 H 39.480352 23.907161 57.681743 0
M  V30 35 H 38.945034 34.049483 59.800263 0
M  V30 36 H 38.472880 31.151385 55.887913 0
M  V30 37 H 40.045066 30.711014 56.571820 0
M  V30 38 H 39.945226 31.863596 55.267915 0
M  V30 39 H 38.650656 36.041690 59.769207 0
M  V30 40 H 39.209140 31.207784 53.024213 0
M  V30 41 H 37.794385 30.376739 53.629780 0
M  V30 42 H 35.855473 35.907102 60.723564 0
M  V30 43 H 38.236365 28.421580 55.534130 0
M  V30 44 H 38.445358 25.728150 59.094731 0
M  V30 45 H 36.860908 25.529324 58.167725 0
M  V30 46 H 34.812322 31.342006 60.345707 0
M  V30 47 H 39.003126 29.656346 60.116534 0
M  V30 48 H 38.045185 28.234977 60.167899 0
M  V30 49 H 39.507647 36.638738 62.045805 0
M  V30 50 H 37.919348 36.354776 62.745034 0
M  V30 51 H 38.856411 35.009367 62.110544 0
M  V30 52 H 38.445146 38.410890 60.598174 0
M  V30 53 H 37.296120 37.954492 59.354496 0
M  V30 54 H 36.786288 38.067512 61.038133 0
M  V30 55 H 34.711314 33.800301 60.622565 0
M  V30 56 H 37.977170 26.093662 56.076723 0
M  V30 57 H 39.031517 31.603754 59.508099 0
M  V30 58 H 37.552734 28.240820 57.799706 0
M  V30 59 H 38.257504 29.826448 57.623444 0
M  V30 END ATOM
M  V30 BEGIN BOND
M  V30 1 1 3 1
M  V30 2 1 7 2
M  V30 3 1 11 2
M  V30 4 1 12 9
M  V30 5 1 14 2
M  V30 6 1 14 3
M  V30 7 1 15 4
M  V30 8 1 17 14
M  V30 9 1 18 13
M  V30 10 1 19 9
M  V30 11 1 20 1
M  V30 12 1 20 3
M  V30 13 2 20 6
M  V30 14 1 21 9
M  V30 15 1 22 16
M  V30 16 1 23 8
M  V30 17 1 23 10
M  V30 18 1 23 17
M  V30 19 1 24 11
M  V30 20 1 24 23
M  V30 21 1 25 1
M  V30 22 1 25 4
M  V30 23 1 25 15
M  V30 24 1 26 13
M  V30 25 2 26 16
M  V30 26 2 27 5
M  V30 27 1 27 26
M  V30 28 1 28 5
M  V30 29 1 28 12
M  V30 30 2 28 22
M  V30 31 1 29 18
M  V30 32 1 20 29 CFG=3
M  V30 33 1 1 30 CFG=1
M  V30 34 1 2 31 CFG=3
M  V30 35 1 3 32 CFG=3
M  V30 36 1 33 4
M  V30 37 1 34 4
M  V30 38 1 35 5
M  V30 39 1 36 7
M  V30 40 1 37 7
M  V30 41 1 38 7
M  V30 42 1 39 9
M  V30 43 1 40 11
M  V30 44 1 41 11
M  V30 45 1 42 12
M  V30 46 1 14 43 CFG=1
M  V30 47 1 44 15
M  V30 48 1 45 15
M  V30 49 1 46 16
M  V30 50 1 47 18
M  V30 51 1 48 18
M  V30 52 1 49 19
M  V30 53 1 50 19
M  V30 54 1 51 19
M  V30 55 1 52 21
M  V30 56 1 53 21
M  V30 57 1 54 21
M  V30 58 1 55 22
M  V30 59 1 56 25
M  V30 60 1 57 27
M  V30 61 1 58 29
M  V30 62 1 59 29
M  V30 END BOND
M  V30 END CTAB
M  END
>  <i_epik_Tot_Q>  (1) 
0

>  <i_epik_Tot_abs_Q>  (1) 
0

>  <i_i_glide_confnum>  (1) 
64

>  <i_i_glide_lignum>  (1) 
84

>  <i_i_glide_posenum>  (1) 
263

>  <i_i_glide_rotatable_bonds>  (1) 
8

>  <i_lp_mmshare_version>  (1) 
72125

>  <i_m_source_file_index>  (1) 
41

>  <i_f3d_flags>  (1) 
0

>  <num_sample>  (1) 
50

>  <b_lp_Chiralities_Consistent>  (1) 
1

>  <r_epik_Charging_Adjusted_Penalty>  (1) 
0.10621715127672696

>  <r_epik_Ionization_Penalty>  (1) 
0.10621715241272391

>  <r_epik_Ionization_Penalty_Charging>  (1) 
0

>  <r_epik_Ionization_Penalty_Neutral>  (1) 
0.10621715241272391

>  <r_epik_State_Penalty>  (1) 
0.10621715127672696

>  <r_glide_ring_energy>  (1) 
0

>  <r_i_docking_score>  (1) 
-5.9902313326266192

>  <r_i_glide_ecoul>  (1) 
1.4288023641573497

>  <r_i_glide_eff_state_penalty>  (1) 
0.10621715127672696

>  <r_i_glide_einternal>  (1) 
1.3485604474361672

>  <r_i_glide_emodel>  (1) 
-53.920578072538774

>  <r_i_glide_emodel_strain>  (1) 
0.1528671037815883

>  <r_i_glide_energy>  (1) 
-38.962785936995893

>  <r_i_glide_erotb>  (1) 
0.70566581847089904

>  <r_i_glide_esite>  (1) 
0

>  <r_i_glide_evdw>  (1) 
-40.391588301153242

>  <r_i_glide_gscore>  (1) 
-6.0964484839033464

>  <r_i_glide_gscore_strain>  (1) 
0

>  <r_i_glide_hbond>  (1) 
0

>  <r_i_glide_ligand_efficiency>  (1) 
-0.20655970112505584

>  <r_i_glide_ligand_efficiency_ln>  (1) 
-1.3716110760111184

>  <r_i_glide_ligand_efficiency_sa>  (1) 
-0.63461684527514894

>  <r_i_glide_lipo>  (1) 
-3.4044248894878395

>  <r_i_glide_metal>  (1) 
-0

>  <r_i_glide_rewards>  (1) 
-1.5924303524523458

>  <r_lp_Energy>  (1) 
18.098853999999999

>  <s_epik_cmdline>  (1) 
J2VwaWtfcHl0aG9uJywgJy1waHQnLCAnMS4wJywgJy1waCcsICc3LjQnLCAnLXRuJywgJzgnLCAnLW1hJywgJzUwMCcsICctaW1hZScsICc8aW5maWxlLm1hZT4nLCAnLW9tYWUnLCAnPG91dGZpbGUubWFlPic=

>  <s_epik_input>  (1) 
RkMxKEYpU1tDQEBIXShbQ0BIXShbQ0gzXSlbQ0gyXU8xKVtDQEBIXTJbQ0BIXShbQ0hdM1tDSDJdW0NIMl0zKVAyKD1PKVtDSDJdW0NIMl1PYzRbY0hdW2NIXWMoW2NIXVtjSF00KVtOSF1bQ0hdKFtDSDNdKVtDSDNd

>  <s_glide_docking_method>  (1) 
confgen

>  <s_i_glide_gridfile>  (1) 
gpcr_5ht2c_6bqh_protein_autoprepared_prepared

>  <s_lp_Force_Field>  (1) 
S-OPLS

>  <s_lp_Variant>  (1) 
DiffSBDD_40-2

>  <s_m_source_file>  (1) 
generated_GPCR_5HT2C_ligand_DiffSBDD_2026-06-23_prepared.sdf

>  <GenAI_Model>  (1) 
DiffSBDD

>  <Protein>  (1) 
GPCR_5HT2C

$$$$
DiffSBDD_40
     RDKit          3D

  0  0  0  0  0  0  0  0  0  0999 V3000
M  V30 BEGIN CTAB
M  V30 COUNTS 60 63 0 0 1
M  V30 BEGIN ATOM
M  V30 1 C 39.119515 26.871807 57.134995 0 CFG=1
M  V30 2 C 39.766256 29.915055 54.633750 0 CFG=2
M  V30 3 C 39.761879 27.962614 56.300483 0 CFG=1
M  V30 4 C 37.853418 24.673938 56.409774 0
M  V30 5 C 38.952626 32.933474 62.147356 0
M  V30 6 O 39.904792 28.726095 59.077782 0
M  V30 7 C 39.527848 31.029131 55.669580 0
M  V30 8 F 38.845204 27.582865 51.225179 0
M  V30 9 C 40.213730 35.889841 62.232307 0
M  V30 10 F 37.390932 28.537749 52.475047 0
M  V30 11 C 39.245020 30.415745 53.275497 0
M  V30 12 N 38.797860 35.453146 62.167771 0 CHG=1
M  V30 13 O 37.481052 30.390151 59.892413 0
M  V30 14 C 39.133991 28.552310 55.039319 0 CFG=2
M  V30 15 C 37.137122 25.249149 57.604599 0
M  V30 16 C 37.279913 32.827681 59.868560 0
M  V30 17 S 39.245136 27.299245 53.720648 0
M  V30 18 C 36.992699 30.357594 58.556038 0
M  V30 19 C 41.081248 35.251083 61.148076 0
M  V30 20 P 39.047149 28.531981 57.874647 0 CFG=2
M  V30 21 C 40.802369 35.693993 63.637165 0
M  V30 22 C 37.617997 34.070931 60.434416 0
M  V30 23 C 38.695639 28.303742 52.334137 0
M  V30 24 O 39.457019 29.493931 52.213698 0
M  V30 25 C 37.868832 26.162851 56.658371 0
M  V30 26 C 37.788869 31.622670 60.439127 0
M  V30 27 C 38.621632 31.685153 61.582365 0
M  V30 28 C 38.449573 34.108190 61.561077 0
M  V30 29 C 37.258963 29.041887 57.825337 0
M  V30 30 H 39.817768 26.219176 57.655284 0
M  V30 31 H 40.844733 29.797361 54.567749 0
M  V30 32 H 40.849592 27.945997 56.275520 0
M  V30 33 H 37.246768 24.307201 55.584075 0
M  V30 34 H 38.781490 24.134868 56.584865 0
M  V30 35 H 39.586425 32.983612 63.019009 0
M  V30 36 H 38.463492 31.192438 55.837870 0
M  V30 37 H 39.999499 30.811314 56.624858 0
M  V30 38 H 39.951896 31.974827 55.332180 0
M  V30 39 H 40.198267 36.964221 62.041256 0
M  V30 40 H 39.759395 31.337758 53.005281 0
M  V30 41 H 38.188891 30.669054 53.367775 0
M  V30 42 H 38.322093 36.167923 61.636891 0
M  V30 43 H 38.068720 28.704994 55.169191 0
M  V30 44 H 37.592248 25.039983 58.567757 0
M  V30 45 H 36.051995 25.322717 57.594459 0
M  V30 46 H 36.635184 32.796183 59.002216 0
M  V30 47 H 35.918652 30.537754 58.568326 0
M  V30 48 H 37.466801 31.131660 57.952445 0
M  V30 49 H 42.045162 35.741603 61.088229 0
M  V30 50 H 41.274588 34.199850 61.365611 0
M  V30 51 H 40.614944 35.337694 60.167813 0
M  V30 52 H 41.803353 36.124000 63.701350 0
M  V30 53 H 40.193186 36.186720 64.395268 0
M  V30 54 H 40.884571 34.641456 63.907566 0
M  V30 55 H 37.237687 34.985850 60.004375 0
M  V30 56 H 37.245138 26.731965 55.977284 0
M  V30 57 H 39.006121 30.774608 62.019839 0
M  V30 58 H 36.624222 28.230721 58.167772 0
M  V30 59 H 36.957545 29.239868 56.804492 0
M  V30 60 H 38.431917 35.508853 63.107467 0
M  V30 END ATOM
M  V30 BEGIN BOND
M  V30 1 1 3 1
M  V30 2 1 7 2
M  V30 3 1 11 2
M  V30 4 1 12 9
M  V30 5 1 14 2
M  V30 6 1 14 3
M  V30 7 1 15 4
M  V30 8 1 17 14
M  V30 9 1 18 13
M  V30 10 1 19 9
M  V30 11 1 20 1
M  V30 12 1 20 3
M  V30 13 2 20 6
M  V30 14 1 21 9
M  V30 15 1 22 16
M  V30 16 1 23 8
M  V30 17 1 23 10
M  V30 18 1 23 17
M  V30 19 1 24 11
M  V30 20 1 24 23
M  V30 21 1 25 1
M  V30 22 1 25 4
M  V30 23 1 25 15
M  V30 24 1 26 13
M  V30 25 2 26 16
M  V30 26 2 27 5
M  V30 27 1 27 26
M  V30 28 1 28 5
M  V30 29 1 28 12
M  V30 30 2 28 22
M  V30 31 1 29 18
M  V30 32 1 20 29 CFG=3
M  V30 33 1 1 30 CFG=1
M  V30 34 1 2 31 CFG=3
M  V30 35 1 3 32 CFG=1
M  V30 36 1 33 4
M  V30 37 1 34 4
M  V30 38 1 35 5
M  V30 39 1 36 7
M  V30 40 1 37 7
M  V30 41 1 38 7
M  V30 42 1 39 9
M  V30 43 1 40 11
M  V30 44 1 41 11
M  V30 45 1 42 12
M  V30 46 1 14 43 CFG=1
M  V30 47 1 44 15
M  V30 48 1 45 15
M  V30 49 1 46 16
M  V30 50 1 47 18
M  V30 51 1 48 18
M  V30 52 1 49 19
M  V30 53 1 50 19
M  V30 54 1 51 19
M  V30 55 1 52 21
M  V30 56 1 53 21
M  V30 57 1 54 21
M  V30 58 1 55 22
M  V30 59 1 56 25
M  V30 60 1 57 27
M  V30 61 1 58 29
M  V30 62 1 59 29
M  V30 63 1 60 12
M  V30 END BOND
M  V30 END CTAB
M  END
>  <i_epik_Tot_Q>  (1) 
1

>  <i_epik_Tot_abs_Q>  (1) 
1

>  <i_i_glide_confnum>  (1) 
466

>  <i_i_glide_lignum>  (1) 
86

>  <i_i_glide_posenum>  (1) 
374

>  <i_i_glide_rotatable_bonds>  (1) 
8

>  <i_lp_mmshare_version>  (1) 
72125

>  <i_m_source_file_index>  (1) 
41

>  <i_f3d_flags>  (1) 
0

>  <num_sample>  (1) 
50

>  <b_lp_Chiralities_Consistent>  (1) 
1

>  <r_epik_Charging_Adjusted_Penalty>  (1) 
2.1414087062306124

>  <r_epik_Ionization_Penalty>  (1) 
1.0707043531153062

>  <r_epik_Ionization_Penalty_Charging>  (1) 
1.0707043531153062

>  <r_epik_Ionization_Penalty_Neutral>  (1) 
0

>  <r_epik_State_Penalty>  (1) 
1.0707043531153062

>  <r_glide_ring_energy>  (1) 
0

>  <r_i_docking_score>  (1) 
-5.9807255277081461

>  <r_i_glide_ecoul>  (1) 
-2.3808039817978695

>  <r_i_glide_eff_state_penalty>  (1) 
1.0707043531153062

>  <r_i_glide_einternal>  (1) 
10.007470469327137

>  <r_i_glide_emodel>  (1) 
-53.86998894150036

>  <r_i_glide_emodel_strain>  (1) 
1.4315108452985683

>  <r_i_glide_energy>  (1) 
-41.583243516613358

>  <r_i_glide_erotb>  (1) 
0.70277430803170493

>  <r_i_glide_esite>  (1) 
0

>  <r_i_glide_evdw>  (1) 
-39.20243953481549

>  <r_i_glide_gscore>  (1) 
-7.0514298808234521

>  <r_i_glide_gscore_strain>  (1) 
0

>  <r_i_glide_hbond>  (1) 
0

>  <r_i_glide_ligand_efficiency>  (1) 
-0.20623191474855676

>  <r_i_glide_ligand_efficiency_ln>  (1) 
-1.3694344877312028

>  <r_i_glide_ligand_efficiency_sa>  (1) 
-0.63360978167540027

>  <r_i_glide_lipo>  (1) 
-3.701841667209226

>  <r_i_glide_metal>  (1) 
-0

>  <r_i_glide_rewards>  (1) 
-1.7351199476354768

>  <r_lp_Energy>  (1) 
21.359881999999999

>  <s_epik_cmdline>  (1) 
J2VwaWtfcHl0aG9uJywgJy1waHQnLCAnMS4wJywgJy1waCcsICc3LjQnLCAnLXRuJywgJzgnLCAnLW1hJywgJzUwMCcsICctaW1hZScsICc8aW5maWxlLm1hZT4nLCAnLW9tYWUnLCAnPG91dGZpbGUubWFlPic=

>  <s_epik_input>  (1) 
RkMxKEYpU1tDQEBIXShbQ0BIXShbQ0gzXSlbQ0gyXU8xKVtDQEBIXTJbQ0BIXShbQ0hdM1tDSDJdW0NIMl0zKVAyKD1PKVtDSDJdW0NIMl1PYzRbY0hdW2NIXWMoW2NIXVtjSF00KVtOSF1bQ0hdKFtDSDNdKVtDSDNd

>  <s_glide_docking_method>  (1) 
confgen

>  <s_i_glide_gridfile>  (1) 
gpcr_5ht2c_6bqh_protein_autoprepared_prepared

>  <s_lp_Force_Field>  (1) 
S-OPLS

>  <s_lp_Variant>  (1) 
DiffSBDD_40-4

>  <s_m_source_file>  (1) 
generated_GPCR_5HT2C_ligand_DiffSBDD_2026-06-23_prepared.sdf

>  <GenAI_Model>  (1) 
DiffSBDD

>  <Protein>  (1) 
GPCR_5HT2C

$$$$
DiffSBDD_40
     RDKit          3D

  0  0  0  0  0  0  0  0  0  0999 V3000
M  V30 BEGIN CTAB
M  V30 COUNTS 60 63 0 0 1
M  V30 BEGIN ATOM
M  V30 1 C 39.001475 26.849929 57.515602 0 CFG=1
M  V30 2 C 39.476865 29.992595 55.062566 0 CFG=2
M  V30 3 C 39.545624 28.032651 56.724336 0 CFG=1
M  V30 4 C 37.888412 25.003897 55.964061 0
M  V30 5 C 36.467031 34.537200 59.946344 0
M  V30 6 O 39.727207 28.812770 59.454765 0
M  V30 7 C 39.245133 31.096681 56.112177 0
M  V30 8 F 38.810700 27.681846 51.610927 0
M  V30 9 C 37.737295 37.243433 61.933649 0
M  V30 10 F 37.257730 28.506718 52.833262 0
M  V30 11 C 38.931779 30.498356 53.710317 0
M  V30 12 N 37.596532 36.700359 60.559466 0 CHG=1
M  V30 13 O 37.862748 31.119906 59.422988 0
M  V30 14 C 38.901707 28.597071 55.456361 0 CFG=2
M  V30 15 C 37.781891 24.542652 57.389906 0
M  V30 16 C 38.932394 33.162364 60.109601 0
M  V30 17 S 39.185311 27.398637 54.114951 0
M  V30 18 C 36.751959 30.244631 59.243268 0
M  V30 19 C 38.968171 36.726506 62.696381 0
M  V30 20 P 38.806761 28.468344 58.334190 0 CFG=2
M  V30 21 C 36.445143 37.119454 62.748522 0
M  V30 22 C 38.874400 34.537749 60.395869 0
M  V30 23 C 38.581043 28.373927 52.724840 0
M  V30 24 O 39.245143 29.622662 52.635551 0
M  V30 25 C 37.802497 26.024482 57.079273 0
M  V30 26 C 37.763032 32.463314 59.730709 0
M  V30 27 C 36.519158 33.157267 59.657407 0
M  V30 28 C 37.645141 35.207786 60.305289 0
M  V30 29 C 37.096390 29.212696 58.155138 0
M  V30 30 H 39.779027 26.246873 57.981384 0
M  V30 31 H 40.556494 29.884175 54.957929 0
M  V30 32 H 40.631895 28.097871 56.703238 0
M  V30 33 H 37.015990 24.882817 55.324804 0
M  V30 34 H 38.848511 24.851226 55.474956 0
M  V30 35 H 35.532299 35.072191 59.875968 0
M  V30 36 H 38.186697 31.331345 56.227084 0
M  V30 37 H 39.645125 30.833677 57.088412 0
M  V30 38 H 39.741761 32.020601 55.813871 0
M  V30 39 H 37.899212 38.308465 61.767763 0
M  V30 40 H 39.383175 31.461847 53.472682 0
M  V30 41 H 37.857236 30.676989 53.767765 0
M  V30 42 H 38.335358 37.129899 60.022083 0
M  V30 43 H 37.821953 28.651489 55.569029 0
M  V30 44 H 38.678907 24.060297 57.767760 0
M  V30 45 H 36.845142 24.104907 57.716349 0
M  V30 46 H 39.875773 32.640048 60.167746 0
M  V30 47 H 36.572394 29.737755 60.184706 0
M  V30 48 H 35.812872 30.711508 58.967760 0
M  V30 49 H 39.090933 37.263697 63.638216 0
M  V30 50 H 38.881714 35.668457 62.944074 0
M  V30 51 H 39.885734 36.875583 62.126463 0
M  V30 52 H 36.594861 37.474996 63.767758 0
M  V30 53 H 35.653666 37.737745 62.319374 0
M  V30 54 H 36.096643 36.088132 62.815960 0
M  V30 55 H 39.771637 35.073092 60.666392 0
M  V30 56 H 36.845146 26.531637 57.129615 0
M  V30 57 H 35.618251 32.645779 59.367874 0
M  V30 58 H 36.350254 28.423294 58.167755 0
M  V30 59 H 37.000140 29.711370 57.196154 0
M  V30 60 H 36.732463 37.071388 60.191438 0
M  V30 END ATOM
M  V30 BEGIN BOND
M  V30 1 1 3 1
M  V30 2 1 7 2
M  V30 3 1 11 2
M  V30 4 1 12 9
M  V30 5 1 14 2
M  V30 6 1 14 3
M  V30 7 1 15 4
M  V30 8 1 17 14
M  V30 9 1 18 13
M  V30 10 1 19 9
M  V30 11 1 20 1
M  V30 12 1 20 3
M  V30 13 2 20 6
M  V30 14 1 21 9
M  V30 15 1 22 16
M  V30 16 1 23 8
M  V30 17 1 23 10
M  V30 18 1 23 17
M  V30 19 1 24 11
M  V30 20 1 24 23
M  V30 21 1 25 1
M  V30 22 1 25 4
M  V30 23 1 25 15
M  V30 24 1 26 13
M  V30 25 2 26 16
M  V30 26 2 27 5
M  V30 27 1 27 26
M  V30 28 1 28 5
M  V30 29 1 28 12
M  V30 30 2 28 22
M  V30 31 1 29 18
M  V30 32 1 20 29 CFG=3
M  V30 33 1 1 30 CFG=1
M  V30 34 1 2 31 CFG=3
M  V30 35 1 3 32 CFG=1
M  V30 36 1 33 4
M  V30 37 1 34 4
M  V30 38 1 35 5
M  V30 39 1 36 7
M  V30 40 1 37 7
M  V30 41 1 38 7
M  V30 42 1 39 9
M  V30 43 1 40 11
M  V30 44 1 41 11
M  V30 45 1 42 12
M  V30 46 1 14 43 CFG=1
M  V30 47 1 44 15
M  V30 48 1 45 15
M  V30 49 1 46 16
M  V30 50 1 47 18
M  V30 51 1 48 18
M  V30 52 1 49 19
M  V30 53 1 50 19
M  V30 54 1 51 19
M  V30 55 1 52 21
M  V30 56 1 53 21
M  V30 57 1 54 21
M  V30 58 1 55 22
M  V30 59 1 56 25
M  V30 60 1 57 27
M  V30 61 1 58 29
M  V30 62 1 59 29
M  V30 63 1 60 12
M  V30 END BOND
M  V30 END CTAB
M  END
>  <i_epik_Tot_Q>  (1) 
1

>  <i_epik_Tot_abs_Q>  (1) 
1

>  <i_i_glide_confnum>  (1) 
112

>  <i_i_glide_lignum>  (1) 
86

>  <i_i_glide_posenum>  (1) 
86

>  <i_i_glide_rotatable_bonds>  (1) 
8

>  <i_lp_mmshare_version>  (1) 
72125

>  <i_m_source_file_index>  (1) 
41

>  <i_f3d_flags>  (1) 
0

>  <num_sample>  (1) 
50

>  <b_lp_Chiralities_Consistent>  (1) 
1

>  <r_epik_Charging_Adjusted_Penalty>  (1) 
2.1414087062306124

>  <r_epik_Ionization_Penalty>  (1) 
1.0707043531153062

>  <r_epik_Ionization_Penalty_Charging>  (1) 
1.0707043531153062

>  <r_epik_Ionization_Penalty_Neutral>  (1) 
0

>  <r_epik_State_Penalty>  (1) 
1.0707043531153062

>  <r_glide_ring_energy>  (1) 
0

>  <r_i_docking_score>  (1) 
-5.9712720069634146

>  <r_i_glide_ecoul>  (1) 
-1.0023888698072607

>  <r_i_glide_eff_state_penalty>  (1) 
1.0707043531153062

>  <r_i_glide_einternal>  (1) 
8.1244010065834225

>  <r_i_glide_emodel>  (1) 
-53.35786749709343

>  <r_i_glide_emodel_strain>  (1) 
4.7644458044726932

>  <r_i_glide_energy>  (1) 
-43.487621994406162

>  <r_i_glide_erotb>  (1) 
0.70277430803170493

>  <r_i_glide_esite>  (1) 
0

>  <r_i_glide_evdw>  (1) 
-42.485233124598899

>  <r_i_glide_gscore>  (1) 
-7.0419763600787206

>  <r_i_glide_gscore_strain>  (1) 
0.19111145111817329

>  <r_i_glide_hbond>  (1) 
0

>  <r_i_glide_ligand_efficiency>  (1) 
-0.2059059312746005

>  <r_i_glide_ligand_efficiency_ln>  (1) 
-1.3672698712012616

>  <r_i_glide_ligand_efficiency_sa>  (1) 
-0.63260825716346891

>  <r_i_glide_lipo>  (1) 
-3.6377798980666523

>  <r_i_glide_metal>  (1) 
-0

>  <r_i_glide_rewards>  (1) 
-2.0234622344609119

>  <r_lp_Energy>  (1) 
21.359881999999999

>  <s_epik_cmdline>  (1) 
J2VwaWtfcHl0aG9uJywgJy1waHQnLCAnMS4wJywgJy1waCcsICc3LjQnLCAnLXRuJywgJzgnLCAnLW1hJywgJzUwMCcsICctaW1hZScsICc8aW5maWxlLm1hZT4nLCAnLW9tYWUnLCAnPG91dGZpbGUubWFlPic=

>  <s_epik_input>  (1) 
RkMxKEYpU1tDQEBIXShbQ0BIXShbQ0gzXSlbQ0gyXU8xKVtDQEBIXTJbQ0BIXShbQ0hdM1tDSDJdW0NIMl0zKVAyKD1PKVtDSDJdW0NIMl1PYzRbY0hdW2NIXWMoW2NIXVtjSF00KVtOSF1bQ0hdKFtDSDNdKVtDSDNd

>  <s_glide_docking_method>  (1) 
confgen

>  <s_i_glide_gridfile>  (1) 
gpcr_5ht2c_6bqh_protein_autoprepared_prepared

>  <s_lp_Force_Field>  (1) 
S-OPLS

>  <s_lp_Variant>  (1) 
DiffSBDD_40-4

>  <s_m_source_file>  (1) 
generated_GPCR_5HT2C_ligand_DiffSBDD_2026-06-23_prepared.sdf

>  <GenAI_Model>  (1) 
DiffSBDD

>  <Protein>  (1) 
GPCR_5HT2C

$$$$
DiffSBDD_19
     RDKit          3D

  0  0  0  0  0  0  0  0  0  0999 V3000
M  V30 BEGIN CTAB
M  V30 COUNTS 69 71 0 0 1
M  V30 BEGIN ATOM
M  V30 1 O 38.045009 24.696593 58.167759 0
M  V30 2 C 38.822526 28.188516 53.267376 0
M  V30 3 C 38.086816 35.226635 60.871527 0
M  V30 4 C 39.645181 30.020597 51.875927 0
M  V30 5 C 39.289208 28.857877 54.427759 0
M  V30 6 C 38.163680 26.838708 53.380984 0
M  V30 7 C 36.558672 24.725662 55.851765 0
M  V30 8 C 36.653910 30.701698 59.002589 0
M  V30 9 C 38.971499 34.479007 61.866736 0 CFG=2
M  V30 10 N 40.410623 34.468969 61.529447 0
M  V30 11 F 39.932180 29.690943 49.540838 0
M  V30 12 C 39.871529 30.137765 54.304549 0
M  V30 13 F 39.093767 31.602991 50.167823 0
M  V30 14 C 41.037734 35.783867 61.583625 0
M  V30 15 C 37.911245 31.416241 58.505685 0 CFG=2
M  V30 16 C 39.505654 29.484738 59.072822 0
M  V30 17 C 37.927211 27.017010 57.528118 0
M  V30 18 O 37.905568 25.179508 55.896636 0
M  V30 19 O 37.966415 36.446230 60.795295 0
M  V30 20 C 39.006013 28.771096 51.994205 0
M  V30 21 C 38.389431 25.590659 57.139037 0 CFG=2
M  V30 22 C 39.268168 28.159610 55.791146 0
M  V30 23 N 37.714115 32.983561 60.413534 0
M  V30 24 C 39.924529 30.617889 50.499632 0
M  V30 25 C 40.045122 30.713091 53.031487 0
M  V30 26 C 38.786357 30.272018 57.952578 0 CFG=1
M  V30 27 O 41.117490 36.111770 62.955906 0
M  V30 28 C 36.462072 29.548260 58.019910 0
M  V30 29 C 37.726094 29.466508 57.149159 0 CFG=2
M  V30 30 N 37.479577 34.314072 60.122298 0
M  V30 31 N 38.045109 28.140656 56.572507 0
M  V30 32 C 38.361923 33.063787 61.736642 0
M  V30 33 N 38.581023 32.257778 59.519576 0 CHG=1
M  V30 34 H 37.105520 24.710473 58.259925 0
M  V30 35 H 37.755339 26.537715 52.421091 0
M  V30 36 H 38.884313 26.095750 53.712534 0
M  V30 37 H 37.332143 26.884999 54.084268 0
M  V30 38 H 36.255081 24.564600 54.818247 0
M  V30 39 H 36.446599 23.769947 56.365197 0
M  V30 40 H 35.884236 25.444851 56.309844 0
M  V30 41 H 36.793486 30.310308 60.011268 0
M  V30 42 H 35.787545 31.363426 59.013981 0
M  V30 43 H 38.845060 34.872887 62.875020 0
M  V30 44 H 40.922006 33.888747 62.179589 0
M  V30 45 H 40.229194 30.656050 55.179495 0
M  V30 46 H 40.519468 36.537508 60.990671 0
M  V30 47 H 42.045112 35.706957 61.180774 0
M  V30 48 H 37.634101 32.074929 57.680492 0
M  V30 49 H 38.802442 29.021179 59.766121 0
M  V30 50 H 40.138133 28.697654 58.662876 0
M  V30 51 H 40.159149 30.127682 59.661812 0
M  V30 52 H 38.429961 27.250303 58.461838 0
M  V30 53 H 36.873158 26.897906 57.767930 0
M  V30 54 H 38.680018 28.245107 51.107402 0
M  V30 55 H 39.477910 25.558098 57.071933 0
M  V30 56 H 40.088320 28.555839 56.387724 0
M  V30 57 H 39.588244 27.144488 55.577720 0
M  V30 58 H 40.924550 31.053755 50.495829 0
M  V30 59 H 40.515112 31.673138 52.937394 0
M  V30 60 H 39.540198 30.685904 57.285957 0
M  V30 61 H 41.562483 36.941785 63.070528 0
M  V30 62 H 36.204793 28.651211 58.567651 0
M  V30 63 H 35.645338 29.737891 57.352777 0
M  V30 64 H 37.509259 30.107758 56.291359 0
M  V30 65 H 36.807762 34.550797 59.403782 0
M  V30 66 H 39.081883 32.258042 61.893656 0
M  V30 67 H 37.587499 32.925330 62.492595 0
M  V30 68 H 39.169803 32.943877 59.067700 0
M  V30 69 H 39.140228 31.663444 60.113380 0
M  V30 END ATOM
M  V30 BEGIN BOND
M  V30 1 2 5 2
M  V30 2 1 6 2
M  V30 3 1 9 3
M  V30 4 1 10 9
M  V30 5 1 12 5
M  V30 6 1 14 10
M  V30 7 1 15 8
M  V30 8 1 18 7
M  V30 9 2 19 3
M  V30 10 1 20 2
M  V30 11 2 20 4
M  V30 12 1 21 1
M  V30 13 1 21 17
M  V30 14 1 21 18
M  V30 15 1 22 5
M  V30 16 1 24 4
M  V30 17 1 24 11
M  V30 18 1 24 13
M  V30 19 1 25 4
M  V30 20 2 25 12
M  V30 21 1 26 15
M  V30 22 1 26 16
M  V30 23 1 27 14
M  V30 24 1 28 8
M  V30 25 1 29 26
M  V30 26 1 29 28
M  V30 27 1 30 3
M  V30 28 1 30 23
M  V30 29 1 31 17
M  V30 30 1 31 22
M  V30 31 1 31 29
M  V30 32 1 32 9
M  V30 33 1 32 23
M  V30 34 1 33 15
M  V30 35 1 33 23
M  V30 36 1 34 1
M  V30 37 1 35 6
M  V30 38 1 36 6
M  V30 39 1 37 6
M  V30 40 1 38 7
M  V30 41 1 39 7
M  V30 42 1 40 7
M  V30 43 1 41 8
M  V30 44 1 42 8
M  V30 45 1 9 43 CFG=1
M  V30 46 1 44 10
M  V30 47 1 45 12
M  V30 48 1 46 14
M  V30 49 1 47 14
M  V30 50 1 15 48 CFG=3
M  V30 51 1 49 16
M  V30 52 1 50 16
M  V30 53 1 51 16
M  V30 54 1 52 17
M  V30 55 1 53 17
M  V30 56 1 54 20
M  V30 57 1 21 55 CFG=3
M  V30 58 1 56 22
M  V30 59 1 57 22
M  V30 60 1 58 24
M  V30 61 1 59 25
M  V30 62 1 26 60 CFG=3
M  V30 63 1 61 27
M  V30 64 1 62 28
M  V30 65 1 63 28
M  V30 66 1 29 64 CFG=3
M  V30 67 1 65 30
M  V30 68 1 66 32
M  V30 69 1 67 32
M  V30 70 1 68 33
M  V30 71 1 69 33
M  V30 END BOND
M  V30 END CTAB
M  END
>  <i_epik_Tot_Q>  (1) 
1

>  <i_epik_Tot_abs_Q>  (1) 
1

>  <i_i_glide_confnum>  (1) 
1083

>  <i_i_glide_lignum>  (1) 
46

>  <i_i_glide_posenum>  (1) 
111

>  <i_i_glide_rotatable_bonds>  (1) 
13

>  <i_lp_mmshare_version>  (1) 
72125

>  <i_m_source_file_index>  (1) 
20

>  <i_f3d_flags>  (1) 
0

>  <num_sample>  (1) 
50

>  <b_lp_Chiralities_Consistent>  (1) 
1

>  <r_epik_Charging_Adjusted_Penalty>  (1) 
1.2715343408434996

>  <r_epik_Ionization_Penalty>  (1) 
0.95026790690721108

>  <r_epik_Ionization_Penalty_Charging>  (1) 
0.030575006456493324

>  <r_epik_Ionization_Penalty_Neutral>  (1) 
0.91969290045071772

>  <r_epik_State_Penalty>  (1) 
1.2409593343870062

>  <r_glide_ring_energy>  (1) 
0

>  <r_i_docking_score>  (1) 
-5.9670840303641892

>  <r_i_glide_ecoul>  (1) 
-4.2215825686913213

>  <r_i_glide_eff_state_penalty>  (1) 
1.2409593343870062

>  <r_i_glide_einternal>  (1) 
66.210153459026714

>  <r_i_glide_emodel>  (1) 
-35.646124696685433

>  <r_i_glide_emodel_strain>  (1) 
3.4257292247171875

>  <r_i_glide_energy>  (1) 
-41.074293067676834

>  <r_i_glide_erotb>  (1) 
0.81494899861877068

>  <r_i_glide_esite>  (1) 
-0.019925535153563354

>  <r_i_glide_evdw>  (1) 
-36.852710498985516

>  <r_i_glide_gscore>  (1) 
-7.2080433647511954

>  <r_i_glide_gscore_strain>  (1) 
0

>  <r_i_glide_hbond>  (1) 
-0.10204214506984441

>  <r_i_glide_ligand_efficiency>  (1) 
-0.18082072819285422

>  <r_i_glide_ligand_efficiency_ln>  (1) 
-1.3270485924453999

>  <r_i_glide_ligand_efficiency_sa>  (1) 
-0.57998869325342417

>  <r_i_glide_lipo>  (1) 
-3.1588844822033098

>  <r_i_glide_metal>  (1) 
-0

>  <r_i_glide_rewards>  (1) 
-2.266267290690275

>  <r_lp_Energy>  (1) 
47.540732999999996

>  <s_epik_Chemistry_Notes>  (1) 
This compound contains an acetal/aminal-like group ( X-CH(R)-Y where X, Y are N, S, or O) that may be acid/base labile, releasing an aldehyde.

>  <s_epik_cmdline>  (1) 
J2VwaWtfcHl0aG9uJywgJy1waHQnLCAnMS4wJywgJy1waCcsICc3LjQnLCAnLXRuJywgJzgnLCAnLW1hJywgJzUwMCcsICctaW1hZScsICc8aW5maWxlLm1hZT4nLCAnLW9tYWUnLCAnPG91dGZpbGUubWFlPic=

>  <s_epik_input>  (1) 
RltDSF0oRiljKFtjSF0xKVtjSF1bY0hdYyhjMVtDSDNdKVtDSDJdTihbQ0gyXVtDQEBIXShbT0hdKU9bQ0gzXSlbQ0BIXShbQ0BASF0yW0NIM10pW0NIMl1bQ0gyXVtDQEhdMltOSF1OKFtOSF0zKVtDSDJdW0NASF0oQzM9TylbTkhdW0NIMl1bT0hd

>  <s_glide_docking_method>  (1) 
confgen

>  <s_i_glide_gridfile>  (1) 
gpcr_5ht2c_6bqh_protein_autoprepared_prepared

>  <s_lp_Force_Field>  (1) 
S-OPLS

>  <s_lp_Variant>  (1) 
DiffSBDD_19-5

>  <s_m_source_file>  (1) 
generated_GPCR_5HT2C_ligand_DiffSBDD_2026-06-23_prepared.sdf

>  <GenAI_Model>  (1) 
DiffSBDD

>  <Protein>  (1) 
GPCR_5HT2C

$$$$
DiffSBDD_23
     RDKit          3D

  0  0  0  0  0  0  0  0  0  0999 V3000
M  V30 BEGIN CTAB
M  V30 COUNTS 19 19 0 0 1
M  V30 BEGIN ATOM
M  V30 1 C 38.287016 28.963178 54.415382 0
M  V30 2 C 38.978392 30.187738 54.326635 0
M  V30 3 C 38.258331 28.080762 53.317039 0
M  V30 4 S 40.445138 30.137754 50.567758 0 CHG=-1
M  V30 5 C 38.899993 27.441640 50.929124 0
M  V30 6 C 39.000698 31.130424 55.512081 0
M  V30 7 O 37.579696 26.902223 53.418463 0
M  V30 8 C 39.624622 29.662911 52.031557 0
M  V30 9 C 38.928254 28.417657 52.114393 0
M  V30 10 C 39.645147 30.537067 53.136608 0
M  V30 11 H 37.774108 28.700165 55.329243 0
M  V30 12 H 38.845137 27.920566 49.954772 0
M  V30 13 H 39.792126 26.821209 50.940536 0
M  V30 14 H 38.045141 26.776866 50.967767 0
M  V30 15 H 39.537435 32.050487 55.278616 0
M  V30 16 H 37.983640 31.397476 55.801996 0
M  V30 17 H 39.489244 30.656210 56.363565 0
M  V30 18 H 37.378988 26.529083 52.571923 0
M  V30 19 H 40.169261 31.478412 53.070742 0
M  V30 END ATOM
M  V30 BEGIN BOND
M  V30 1 2 2 1
M  V30 2 1 3 1
M  V30 3 1 6 2
M  V30 4 1 7 3
M  V30 5 1 8 4
M  V30 6 2 9 3
M  V30 7 1 9 5
M  V30 8 1 9 8
M  V30 9 1 10 2
M  V30 10 2 10 8
M  V30 11 1 11 1
M  V30 12 1 12 5
M  V30 13 1 13 5
M  V30 14 1 14 5
M  V30 15 1 15 6
M  V30 16 1 16 6
M  V30 17 1 17 6
M  V30 18 1 18 7
M  V30 19 1 19 10
M  V30 END BOND
M  V30 END CTAB
M  END
>  <i_epik_Tot_Q>  (1) 
-1

>  <i_epik_Tot_abs_Q>  (1) 
1

>  <i_i_glide_confnum>  (1) 
1

>  <i_i_glide_lignum>  (1) 
51

>  <i_i_glide_posenum>  (1) 
283

>  <i_i_glide_rotatable_bonds>  (1) 
1

>  <i_lp_mmshare_version>  (1) 
72125

>  <i_m_source_file_index>  (1) 
24

>  <i_f3d_flags>  (1) 
0

>  <num_sample>  (1) 
50

>  <b_lp_Chiralities_Consistent>  (1) 
1

>  <r_epik_Charging_Adjusted_Penalty>  (1) 
0.20721936488096054

>  <r_epik_Ionization_Penalty>  (1) 
0.10365679981868296

>  <r_epik_Ionization_Penalty_Charging>  (1) 
0.10360968244048027

>  <r_epik_Ionization_Penalty_Neutral>  (1) 
4.7117378202688286e-05

>  <r_epik_State_Penalty>  (1) 
0.10360968244048026

>  <r_glide_ring_energy>  (1) 
0

>  <r_i_docking_score>  (1) 
-5.9648595359172898

>  <r_i_glide_ecoul>  (1) 
-3.0459738094823336

>  <r_i_glide_eff_state_penalty>  (1) 
0.10360968244048026

>  <r_i_glide_einternal>  (1) 
0.39934627966836889

>  <r_i_glide_emodel>  (1) 
-31.614291296879248

>  <r_i_glide_emodel_strain>  (1) 
0.16072353678843143

>  <r_i_glide_energy>  (1) 
-22.435963078830842

>  <r_i_glide_erotb>  (1) 
0

>  <r_i_glide_esite>  (1) 
0

>  <r_i_glide_evdw>  (1) 
-19.389989269348508

>  <r_i_glide_gscore>  (1) 
-6.0684692183577704

>  <r_i_glide_gscore_strain>  (1) 
0

>  <r_i_glide_hbond>  (1) 
0

>  <r_i_glide_ligand_efficiency>  (1) 
-0.59648595359172896

>  <r_i_glide_ligand_efficiency_ln>  (1) 
-1.8061183490989747

>  <r_i_glide_ligand_efficiency_sa>  (1) 
-1.2850900305347694

>  <r_i_glide_lipo>  (1) 
-2.1263988750065339

>  <r_i_glide_metal>  (1) 
-0

>  <r_i_glide_rewards>  (1) 
-2.5156748084614615

>  <r_lp_Energy>  (1) 
12.729156

>  <s_epik_cmdline>  (1) 
J2VwaWtfcHl0aG9uJywgJy1waHQnLCAnMS4wJywgJy1waCcsICc3LjQnLCAnLXRuJywgJzgnLCAnLW1hJywgJzUwMCcsICctaW1hZScsICc8aW5maWxlLm1hZT4nLCAnLW9tYWUnLCAnPG91dGZpbGUubWFlPic=

>  <s_epik_input>  (1) 
W0NIM11jMVtjSF1jKFtPSF0pYyhbQ0gzXSljKFtTSF0pW2NIXTE=

>  <s_glide_docking_method>  (1) 
confgen

>  <s_i_glide_gridfile>  (1) 
gpcr_5ht2c_6bqh_protein_autoprepared_prepared

>  <s_lp_Force_Field>  (1) 
S-OPLS

>  <s_lp_Variant>  (1) 
DiffSBDD_23-1

>  <s_m_source_file>  (1) 
generated_GPCR_5HT2C_ligand_DiffSBDD_2026-06-23_prepared.sdf

>  <GenAI_Model>  (1) 
DiffSBDD

>  <Protein>  (1) 
GPCR_5HT2C

$$$$
DiffSBDD_34
     RDKit          3D

  0  0  0  0  0  0  0  0  0  0999 V3000
M  V30 BEGIN CTAB
M  V30 COUNTS 82 85 0 0 1
M  V30 BEGIN ATOM
M  V30 1 C 39.855652 27.303101 54.771340 0
M  V30 2 C 37.635060 34.566155 61.105738 0 CFG=1
M  V30 3 C 38.324669 29.048261 59.062038 0
M  V30 4 C 38.120486 28.031583 57.915422 0
M  V30 5 O 37.245146 30.536237 55.763734 0
M  V30 6 C 37.655954 34.458965 59.568264 0
M  V30 7 O 38.842530 31.177340 57.264417 0
M  V30 8 C 39.480043 30.906612 54.998498 0 CFG=1
M  V30 9 C 40.660755 27.790541 57.787793 0 CFG=2
M  V30 10 C 38.987683 34.742586 61.772048 0
M  V30 11 C 37.856919 31.445096 58.225891 0 CFG=2
M  V30 12 C 38.266238 27.991420 52.853883 0
M  V30 13 O 39.864133 25.071727 56.258915 0
M  V30 14 C 39.640939 29.769868 53.998291 0 CFG=2
M  V30 15 O 36.042386 29.773190 58.567728 0
M  V30 16 C 44.806453 24.122284 60.841919 0
M  V30 17 O 37.622352 26.180642 55.804503 0
M  V30 18 N 38.626742 32.213779 59.367029 0 CHG=1
M  V30 19 C 38.821568 33.631251 59.022175 0
M  V30 20 C 41.710574 26.771231 58.169814 0 CFG=1
M  V30 21 S 39.063718 26.285962 56.071626 0
M  V30 22 O 43.112632 26.999904 57.995331 0
M  V30 23 C 38.958685 31.043623 53.589145 0
M  V30 24 C 39.151962 27.406130 51.756801 0
M  V30 25 C 39.727323 35.907896 61.751213 0
M  V30 26 S 41.216314 35.736422 62.617401 0
M  V30 27 C 39.661741 33.698281 62.504070 0
M  V30 28 O 37.060089 28.137846 52.689008 0
M  V30 29 C 41.160448 27.737295 59.205514 0
M  V30 30 C 43.937371 26.264552 58.922435 0
M  V30 31 C 38.399331 30.854249 56.033973 0
M  V30 32 C 36.541168 35.552664 61.518382 0
M  V30 33 O 45.288339 24.356790 59.556860 0
M  V30 34 N 39.300495 27.281408 57.473613 0
M  V30 35 C 44.444633 24.860632 58.571772 0
M  V30 36 C 40.872060 34.092822 63.012648 0
M  V30 37 C 38.940705 28.405198 54.162676 0 CFG=2
M  V30 38 C 37.312191 30.204339 59.011170 0 CFG=1
M  V30 39 N 36.846406 36.964269 61.194625 0 CHG=1
M  V30 40 H 40.718029 27.725195 55.274383 0
M  V30 41 H 40.236164 26.607670 54.024561 0
M  V30 42 H 37.260620 33.599830 61.448332 0
M  V30 43 H 39.317876 29.484816 59.090237 0
M  V30 44 H 38.216935 28.511609 60.004659 0
M  V30 45 H 37.338251 27.316736 58.167748 0
M  V30 46 H 37.720086 28.523516 57.041618 0
M  V30 47 H 37.645187 35.452263 59.123236 0
M  V30 48 H 36.717577 34.026725 59.219224 0
M  V30 49 H 40.393232 31.434297 55.264063 0
M  V30 50 H 40.920428 28.672912 57.208314 0
M  V30 51 H 37.086372 32.114654 57.860814 0
M  V30 52 H 40.557311 29.737855 53.436874 0
M  V30 53 H 35.695183 30.411909 57.939191 0
M  V30 54 H 45.645128 23.739906 61.367804 0
M  V30 55 H 44.469088 25.014841 61.369748 0
M  V30 56 H 44.045295 23.337801 60.839238 0
M  V30 57 H 38.095496 32.178377 60.223985 0
M  V30 58 H 39.777912 33.985538 59.405089 0
M  V30 59 H 38.873277 33.737287 57.938121 0
M  V30 60 H 41.393841 25.737581 58.167791 0
M  V30 61 H 39.495667 31.708980 52.917352 0
M  V30 62 H 37.890739 30.996508 53.423428 0
M  V30 63 H 40.104519 27.932494 51.713673 0
M  V30 64 H 39.345118 26.350105 51.940224 0
M  V30 65 H 38.664822 27.498208 50.785814 0
M  V30 66 H 39.489688 36.847625 61.284371 0
M  V30 67 H 39.237454 32.712231 62.627676 0
M  V30 68 H 41.811637 28.539119 59.538290 0
M  V30 69 H 40.483545 27.339594 59.960041 0
M  V30 70 H 44.838818 26.848603 59.092015 0
M  V30 71 H 43.405678 26.137884 59.854051 0
M  V30 72 H 35.659040 35.231873 60.963452 0
M  V30 73 H 36.300528 35.473457 62.575127 0
M  V30 74 H 43.645204 24.126489 58.567865 0
M  V30 75 H 44.968960 24.863701 57.616208 0
M  V30 76 H 41.575063 33.515072 63.596683 0
M  V30 77 H 38.110767 28.535904 54.848831 0
M  V30 78 H 37.108698 30.519067 60.036592 0
M  V30 79 H 36.049497 37.548057 61.409030 0
M  V30 80 H 37.630510 37.273743 61.749718 0
M  V30 81 H 37.060436 37.054629 60.212142 0
M  V30 82 H 39.521140 31.777995 59.532482 0
M  V30 END ATOM
M  V30 BEGIN BOND
M  V30 1 1 4 3
M  V30 2 1 6 2
M  V30 3 1 10 2
M  V30 4 1 11 7
M  V30 5 1 14 8
M  V30 6 1 18 11
M  V30 7 1 19 6
M  V30 8 1 19 18
M  V30 9 1 20 9
M  V30 10 1 21 1
M  V30 11 2 21 13
M  V30 12 2 21 17
M  V30 13 1 22 20
M  V30 14 1 23 8
M  V30 15 1 23 14
M  V30 16 1 24 12
M  V30 17 2 25 10
M  V30 18 1 26 25
M  V30 19 1 27 10
M  V30 20 2 28 12
M  V30 21 1 29 9
M  V30 22 1 29 20
M  V30 23 1 30 22
M  V30 24 2 31 5
M  V30 25 1 31 7
M  V30 26 1 31 8
M  V30 27 1 32 2
M  V30 28 1 33 16
M  V30 29 1 34 4
M  V30 30 1 34 9
M  V30 31 1 34 21
M  V30 32 1 35 30
M  V30 33 1 35 33
M  V30 34 1 36 26
M  V30 35 2 36 27
M  V30 36 1 37 1
M  V30 37 1 37 12
M  V30 38 1 37 14
M  V30 39 1 38 3
M  V30 40 1 38 11
M  V30 41 1 38 15
M  V30 42 1 39 32
M  V30 43 1 40 1
M  V30 44 1 41 1
M  V30 45 1 2 42 CFG=1
M  V30 46 1 43 3
M  V30 47 1 44 3
M  V30 48 1 45 4
M  V30 49 1 46 4
M  V30 50 1 47 6
M  V30 51 1 48 6
M  V30 52 1 8 49 CFG=1
M  V30 53 1 9 50 CFG=3
M  V30 54 1 11 51 CFG=3
M  V30 55 1 14 52 CFG=3
M  V30 56 1 53 15
M  V30 57 1 54 16
M  V30 58 1 55 16
M  V30 59 1 56 16
M  V30 60 1 57 18
M  V30 61 1 58 19
M  V30 62 1 59 19
M  V30 63 1 20 60 CFG=1
M  V30 64 1 61 23
M  V30 65 1 62 23
M  V30 66 1 63 24
M  V30 67 1 64 24
M  V30 68 1 65 24
M  V30 69 1 66 25
M  V30 70 1 67 27
M  V30 71 1 68 29
M  V30 72 1 69 29
M  V30 73 1 70 30
M  V30 74 1 71 30
M  V30 75 1 72 32
M  V30 76 1 73 32
M  V30 77 1 74 35
M  V30 78 1 75 35
M  V30 79 1 76 36
M  V30 80 1 37 77 CFG=1
M  V30 81 1 38 78 CFG=1
M  V30 82 1 79 39
M  V30 83 1 80 39
M  V30 84 1 81 39
M  V30 85 1 82 18
M  V30 END BOND
M  V30 END CTAB
M  END
>  <i_epik_Tot_Q>  (1) 
2

>  <i_epik_Tot_abs_Q>  (1) 
2

>  <i_i_glide_confnum>  (1) 
746

>  <i_i_glide_lignum>  (1) 
74

>  <i_i_glide_posenum>  (1) 
399

>  <i_i_glide_rotatable_bonds>  (1) 
13

>  <i_lp_mmshare_version>  (1) 
72125

>  <i_m_source_file_index>  (1) 
35

>  <i_f3d_flags>  (1) 
0

>  <num_sample>  (1) 
50

>  <b_lp_Chiralities_Consistent>  (1) 
1

>  <r_epik_Charging_Adjusted_Penalty>  (1) 
2.3451396311148152

>  <r_epik_Ionization_Penalty>  (1) 
1.1748262987801661

>  <r_epik_Ionization_Penalty_Charging>  (1) 
1.1748152809562251

>  <r_epik_Ionization_Penalty_Neutral>  (1) 
1.1017823941083724e-05

>  <r_epik_State_Penalty>  (1) 
1.1703243501585898

>  <r_glide_ring_energy>  (1) 
0

>  <r_i_docking_score>  (1) 
-5.9535828789709022

>  <r_i_glide_ecoul>  (1) 
-3.9796861463169595

>  <r_i_glide_eff_state_penalty>  (1) 
1.1703243501585898

>  <r_i_glide_einternal>  (1) 
12.648040576031947

>  <r_i_glide_emodel>  (1) 
-26.222376544397065

>  <r_i_glide_emodel_strain>  (1) 
3.3823057066504845

>  <r_i_glide_energy>  (1) 
-29.23260751898254

>  <r_i_glide_erotb>  (1) 
0.3736599463562138

>  <r_i_glide_esite>  (1) 
-0.18559257657672709

>  <r_i_glide_evdw>  (1) 
-25.252921372665579

>  <r_i_glide_gscore>  (1) 
-7.1239072291294923

>  <r_i_glide_gscore_strain>  (1) 
0

>  <r_i_glide_hbond>  (1) 
-0.16

>  <r_i_glide_ligand_efficiency>  (1) 
-0.15265597125566416

>  <r_i_glide_ligand_efficiency_ln>  (1) 
-1.2766171717515222

>  <r_i_glide_ligand_efficiency_sa>  (1) 
-0.51768867656665007

>  <r_i_glide_lipo>  (1) 
-3.6846128471776658

>  <r_i_glide_metal>  (1) 
-0

>  <r_i_glide_rewards>  (1) 
-1.6077627611504903

>  <r_lp_Energy>  (1) 
19.937625000000001

>  <r_lp_tautomer_probability>  (1) 
0.9999999700000004

>  <s_epik_Chemistry_Notes>  (1) 
This compound has an ester and may undergo hydrolysis at high or low pH. This compound contains an acetal/aminal-like group ( X-CH(R)-Y where X, Y are N, S, or O) that may be acid/base labile, releasing an aldehyde.

>  <s_epik_cmdline>  (1) 
J2VwaWtfcHl0aG9uJywgJy1waHQnLCAnMS4wJywgJy1waCcsICc3LjQnLCAnLXRuJywgJzgnLCAnLW1hJywgJzUwMCcsICctaW1hZScsICc8aW5maWxlLm1hZT4nLCAnLW9tYWUnLCAnPG91dGZpbGUubWFlPic=

>  <s_epik_input>  (1) 
W0NIM11PW0NIMl1bQ0gyXU9bQ0BASF0oW0NIMl0xKVtDSF0xTihTKD1PKSg9TylbQ0gyXVtDQEhdKEMoPU8pW0NIM10pW0NASF0oW0NIXTIzKVtDSDJdMilbQ0gyXVtDSDJdW0NASF0oW09IXSlbQ0BIXShPQzM9TylbTkhdW0NIMl1bQ0gyXVtDQEhdKFtDSDJdW05IMl0pYzRbY0hdc1tjSF1bY0hdNA==

>  <s_glide_docking_method>  (1) 
confgen

>  <s_i_glide_gridfile>  (1) 
gpcr_5ht2c_6bqh_protein_autoprepared_prepared

>  <s_lp_Force_Field>  (1) 
S-OPLS

>  <s_lp_Variant>  (1) 
DiffSBDD_34-2

>  <s_m_source_file>  (1) 
generated_GPCR_5HT2C_ligand_DiffSBDD_2026-06-23_prepared.sdf

>  <GenAI_Model>  (1) 
DiffSBDD

>  <Protein>  (1) 
GPCR_5HT2C

$$$$
DiffSBDD_14
     RDKit          3D

  0  0  0  0  0  0  0  0  0  0999 V3000
M  V30 BEGIN CTAB
M  V30 COUNTS 59 60 0 0 1
M  V30 BEGIN ATOM
M  V30 1 Cl 40.588446 30.537506 50.169336 0
M  V30 2 C 38.604009 29.105309 59.101824 0
M  V30 3 N 38.861807 27.498259 52.104127 0
M  V30 4 C 38.695201 28.020760 53.338060 0
M  V30 5 C 38.260233 35.842044 60.412678 0
M  V30 6 C 35.262956 37.695664 63.535092 0
M  V30 7 C 37.738401 37.309620 63.579821 0
M  V30 8 C 38.232149 30.285790 58.176275 0 CFG=1
M  V30 9 C 36.598193 33.516834 60.984373 0
M  V30 10 C 39.860255 29.603323 51.419923 0
M  V30 11 C 36.608667 37.461773 62.868064 0
M  V30 12 C 39.435291 28.284934 51.168851 0
M  V30 13 O 38.045420 27.956988 56.383408 0
M  V30 14 N 37.245615 29.895149 57.131915 0 CHG=1
M  V30 15 C 36.601473 37.405287 61.340145 0
M  V30 16 C 38.542606 34.468751 59.773652 0
M  V30 17 C 39.679383 30.142174 52.704227 0
M  V30 18 C 37.701784 29.232359 55.880031 0 CFG=1
M  V30 19 C 39.085045 29.336876 53.690222 0
M  V30 20 C 38.874303 29.877346 55.110400 0
M  V30 21 C 38.466089 31.942158 60.165262 0
M  V30 22 C 38.093975 33.336981 60.699552 0 CFG=2
M  V30 23 C 36.304929 34.898981 61.585542 0
M  V30 24 N 36.844999 36.032879 60.777755 0 CFG=2 CHG=1
M  V30 25 C 37.610971 31.440536 58.985560 0
M  V30 26 H 39.295254 29.406388 59.886240 0
M  V30 27 H 37.721749 28.688329 59.583360 0
M  V30 28 H 39.106869 28.299139 58.574375 0
M  V30 29 H 38.238503 27.369887 54.060901 0
M  V30 30 H 38.910557 35.987393 61.273202 0
M  V30 31 H 38.445701 36.644491 59.712266 0
M  V30 32 H 34.569718 36.873927 63.368019 0
M  V30 33 H 35.367292 37.791293 64.614531 0
M  V30 34 H 34.811998 38.613278 63.160269 0
M  V30 35 H 37.726017 37.338174 64.658168 0
M  V30 36 H 38.688304 37.151215 63.093357 0
M  V30 37 H 39.136160 30.662983 57.699628 0
M  V30 38 H 36.013748 33.402583 60.069912 0
M  V30 39 H 36.255996 32.740045 61.669191 0
M  V30 40 H 39.559684 27.848701 50.188752 0
M  V30 41 H 37.890761 27.302291 55.719153 0
M  V30 42 H 36.707819 30.729063 56.882161 0
M  V30 43 H 37.331516 38.123446 60.957777 0
M  V30 44 H 35.645792 37.771233 60.969900 0
M  V30 45 H 39.611835 34.369044 59.581651 0
M  V30 46 H 38.039809 34.393102 58.807648 0
M  V30 47 H 39.995618 31.150067 52.929452 0
M  V30 48 H 36.845409 29.179068 55.213225 0
M  V30 49 H 38.700285 30.952238 55.028115 0
M  V30 50 H 39.806103 29.754407 55.664364 0
M  V30 51 H 38.379423 31.229410 60.985711 0
M  V30 52 H 39.517246 31.948358 59.879660 0
M  V30 53 H 38.631617 33.457031 61.642722 0
M  V30 54 H 36.713259 35.000472 62.567758 0
M  V30 55 H 35.245239 34.937650 61.782575 0
M  V30 56 H 37.403767 32.264005 58.302082 0
M  V30 57 H 36.636613 31.129815 59.368405 0
M  V30 58 H 36.352266 36.005865 59.895142 0
M  V30 59 H 36.579973 29.273273 57.565066 0
M  V30 END ATOM
M  V30 BEGIN BOND
M  V30 1 1 4 3
M  V30 2 1 8 2
M  V30 3 1 10 1
M  V30 4 1 11 6
M  V30 5 2 11 7
M  V30 6 2 12 3
M  V30 7 1 12 10
M  V30 8 1 14 8
M  V30 9 1 15 11
M  V30 10 1 16 5
M  V30 11 2 17 10
M  V30 12 1 18 13
M  V30 13 1 18 14
M  V30 14 2 19 4
M  V30 15 1 19 17
M  V30 16 1 20 18
M  V30 17 1 20 19
M  V30 18 1 22 9
M  V30 19 1 22 16
M  V30 20 1 22 21
M  V30 21 1 23 9
M  V30 22 1 24 5
M  V30 23 1 24 15
M  V30 24 1 24 23
M  V30 25 1 25 8
M  V30 26 1 25 21
M  V30 27 1 26 2
M  V30 28 1 27 2
M  V30 29 1 28 2
M  V30 30 1 29 4
M  V30 31 1 30 5
M  V30 32 1 31 5
M  V30 33 1 32 6
M  V30 34 1 33 6
M  V30 35 1 34 6
M  V30 36 1 35 7
M  V30 37 1 36 7
M  V30 38 1 8 37 CFG=3
M  V30 39 1 38 9
M  V30 40 1 39 9
M  V30 41 1 40 12
M  V30 42 1 41 13
M  V30 43 1 42 14
M  V30 44 1 43 15
M  V30 45 1 44 15
M  V30 46 1 45 16
M  V30 47 1 46 16
M  V30 48 1 47 17
M  V30 49 1 18 48 CFG=3
M  V30 50 1 49 20
M  V30 51 1 50 20
M  V30 52 1 51 21
M  V30 53 1 52 21
M  V30 54 1 22 53 CFG=1
M  V30 55 1 54 23
M  V30 56 1 55 23
M  V30 57 1 56 25
M  V30 58 1 57 25
M  V30 59 1 24 58 CFG=3
M  V30 60 1 59 14
M  V30 END BOND
M  V30 END CTAB
M  END
>  <i_epik_Tot_Q>  (1) 
2

>  <i_epik_Tot_abs_Q>  (1) 
2

>  <i_i_glide_confnum>  (1) 
327

>  <i_i_glide_lignum>  (1) 
27

>  <i_i_glide_posenum>  (1) 
268

>  <i_i_glide_rotatable_bonds>  (1) 
10

>  <i_lp_mmshare_version>  (1) 
72125

>  <i_m_source_file_index>  (1) 
15

>  <i_f3d_flags>  (1) 
0

>  <num_sample>  (1) 
50

>  <b_lp_Chiralities_Consistent>  (1) 
1

>  <r_epik_Charging_Adjusted_Penalty>  (1) 
0.35265002497065456

>  <r_epik_Ionization_Penalty>  (1) 
0.35265410833524857

>  <r_epik_Ionization_Penalty_Charging>  (1) 
0.072075358936459305

>  <r_epik_Ionization_Penalty_Neutral>  (1) 
0.2805787493987893

>  <r_epik_State_Penalty>  (1) 
0.28057466603419523

>  <r_glide_ring_energy>  (1) 
0

>  <r_i_docking_score>  (1) 
-5.9381052049056882

>  <r_i_glide_ecoul>  (1) 
-3.7395031806483372

>  <r_i_glide_eff_state_penalty>  (1) 
0.28057466603419523

>  <r_i_glide_einternal>  (1) 
13.134044242919586

>  <r_i_glide_emodel>  (1) 
-44.720464336970259

>  <r_i_glide_emodel_strain>  (1) 
1.3690623090672034

>  <r_i_glide_energy>  (1) 
-28.675405266493883

>  <r_i_glide_erotb>  (1) 
1.1382379647718497

>  <r_i_glide_esite>  (1) 
-0.13047709364332952

>  <r_i_glide_evdw>  (1) 
-24.935902085845544

>  <r_i_glide_gscore>  (1) 
-6.2186798709398836

>  <r_i_glide_gscore_strain>  (1) 
0

>  <r_i_glide_hbond>  (1) 
-0.20000000000000001

>  <r_i_glide_ligand_efficiency>  (1) 
-0.23752420819622752

>  <r_i_glide_ligand_efficiency_ln>  (1) 
-1.4075088842159027

>  <r_i_glide_ligand_efficiency_sa>  (1) 
-0.6945249980207352

>  <r_i_glide_lipo>  (1) 
-3.4184916152243288

>  <r_i_glide_metal>  (1) 
-0

>  <r_i_glide_rewards>  (1) 
-1.8002285454545464

>  <r_lp_Energy>  (1) 
35.566913

>  <s_epik_Chemistry_Notes>  (1) 
This compound contains an acetal/aminal-like group ( X-CH(R)-Y where X, Y are N, S, or O) that may be acid/base labile, releasing an aldehyde.

>  <s_epik_cmdline>  (1) 
J2VwaWtfcHl0aG9uJywgJy1waHQnLCAnMS4wJywgJy1waCcsICc3LjQnLCAnLXRuJywgJzgnLCAnLW1hJywgJzUwMCcsICctaW1hZScsICc8aW5maWxlLm1hZT4nLCAnLW9tYWUnLCAnPG91dGZpbGUubWFlPic=

>  <s_epik_input>  (1) 
Q2xjMVtjSF1uW2NIXWMoW2NIXTEpW0NIMl1bQ0BASF0oW09IXSlbTkhdW0NASF0oW0NIM10pW0NIMl1bQ0gyXVtDSF0yW0NIMl1bQ0gyXU4oW0NIMl1bQ0gyXTIpW0NIMl1DKFtDSDNdKT1bQ0gyXQ==

>  <s_glide_docking_method>  (1) 
confgen

>  <s_i_glide_gridfile>  (1) 
gpcr_5ht2c_6bqh_protein_autoprepared_prepared

>  <s_lp_Force_Field>  (1) 
S-OPLS

>  <s_lp_Variant>  (1) 
DiffSBDD_14-1

>  <s_m_source_file>  (1) 
generated_GPCR_5HT2C_ligand_DiffSBDD_2026-06-23_prepared.sdf

>  <GenAI_Model>  (1) 
DiffSBDD

>  <Protein>  (1) 
GPCR_5HT2C

$$$$
DiffSBDD_17
     RDKit          3D

  0  0  0  0  0  0  0  0  0  0999 V3000
M  V30 BEGIN CTAB
M  V30 COUNTS 92 96 0 0 1
M  V30 BEGIN ATOM
M  V30 1 C 45.088630 32.353948 66.557937 0
M  V30 2 C 38.228021 31.831228 61.269352 0 CFG=2
M  V30 3 C 43.176635 31.121240 65.433815 0
M  V30 4 O 39.762309 28.531165 60.477991 0
M  V30 5 C 44.431729 30.096718 67.447458 0
M  V30 6 C 39.455803 27.070509 55.067533 0
M  V30 7 C 39.152610 27.338417 52.602025 0
M  V30 8 C 39.645149 26.666245 53.807768 0
M  V30 9 C 38.241981 33.692907 58.928123 0
M  V30 10 C 39.703272 34.771003 61.544420 0
M  V30 11 N 42.049998 28.907281 65.680684 0
M  V30 12 C 38.201472 34.546696 61.437436 0 CFG=2
M  V30 13 C 40.791393 30.736528 64.443110 0 CFG=1
M  V30 14 C 39.761651 31.666819 61.475984 0
M  V30 15 N 40.845148 28.163730 66.071222 0 CHG=1
M  V30 16 C 39.383973 26.800493 57.307709 0 CFG=2
M  V30 17 C 38.636302 28.216550 55.520316 0 CFG=2
M  V30 18 C 41.874589 27.116093 64.167694 0
M  V30 19 C 41.823061 30.357709 65.552733 0 CFG=2
M  V30 20 O 39.990827 26.372299 56.104876 0
M  V30 21 C 40.911858 26.884775 65.339302 0
M  V30 22 O 40.445134 32.091325 64.602988 0
M  V30 23 N 37.347397 30.137756 57.799160 0 CHG=1
M  V30 24 C 38.807731 29.523455 54.824739 0
M  V30 25 C 37.542223 30.943938 60.188310 0
M  V30 26 C 38.808167 28.652308 52.466716 0
M  V30 27 N 37.599049 33.196935 61.367974 0 CFG=1 CHG=1
M  V30 28 C 40.790790 29.345549 60.967812 0
M  V30 29 S 38.045184 25.667893 57.767758 0 CHG=-1
M  V30 30 C 40.242206 30.295243 62.055035 0 CFG=1
M  V30 31 C 38.845301 29.704430 53.496498 0
M  V30 32 N 41.288336 30.463791 63.086865 0
M  V30 33 C 37.497169 34.063316 60.196089 0 CFG=2
M  V30 34 C 37.714175 28.704107 57.912295 0
M  V30 35 C 37.645145 32.512800 58.190416 0
M  V30 36 C 38.910313 28.253613 57.029744 0 CFG=1
M  V30 37 C 38.003784 31.112863 58.714861 0 CFG=2
M  V30 38 N 42.670638 28.309796 64.498417 0 CHG=1
M  V30 39 C 43.918796 31.378237 66.768483 0
M  V30 40 H 45.837045 31.937344 65.882673 0
M  V30 41 H 44.747136 33.297852 66.134165 0
M  V30 42 H 45.588633 32.586197 67.499411 0
M  V30 43 H 37.838805 31.419935 62.201096 0
M  V30 44 H 43.848890 30.646173 64.719417 0
M  V30 45 H 42.976252 32.101948 65.002232 0
M  V30 46 H 40.134345 27.855319 59.927301 0
M  V30 47 H 45.081641 29.525147 66.783860 0
M  V30 48 H 45.010052 30.335763 68.341047 0
M  V30 49 H 43.615876 29.451168 67.769595 0
M  V30 50 H 39.112435 26.739876 51.702881 0
M  V30 51 H 40.220105 25.762963 53.665545 0
M  V30 52 H 39.317570 33.595489 59.052976 0
M  V30 53 H 38.045140 34.537386 58.269056 0
M  V30 54 H 39.915913 35.818011 61.325568 0
M  V30 55 H 40.043471 34.581776 62.563304 0
M  V30 56 H 40.292219 34.183837 60.847744 0
M  V30 57 H 37.609873 35.167900 62.106994 0
M  V30 58 H 39.876748 30.169331 64.619985 0
M  V30 59 H 40.061062 32.408878 62.201302 0
M  V30 60 H 40.304309 31.920597 60.567754 0
M  V30 61 H 40.857863 28.031674 67.076215 0
M  V30 62 H 40.122085 26.785935 58.109578 0
M  V30 63 H 37.604872 27.909310 55.357452 0
M  V30 64 H 41.295921 27.337794 63.271805 0
M  V30 65 H 42.508848 26.252265 63.965621 0
M  V30 66 H 41.376069 30.665329 66.500206 0
M  V30 67 H 39.937159 26.550900 64.981503 0
M  V30 68 H 41.308771 26.120195 66.008486 0
M  V30 69 H 40.836927 32.427230 65.396591 0
M  V30 70 H 36.345686 30.249534 57.911615 0
M  V30 71 H 38.846946 30.393363 55.462065 0
M  V30 72 H 37.668957 29.912005 60.498151 0
M  V30 73 H 36.462974 31.102260 60.234093 0
M  V30 74 H 38.526595 28.968521 51.472695 0
M  V30 75 H 41.548712 28.670435 61.367348 0
M  V30 76 H 41.245142 29.885866 60.138507 0
M  V30 77 H 39.396393 29.789095 62.523581 0
M  V30 78 H 38.904240 30.725161 53.147306 0
M  V30 79 H 41.890481 31.240218 62.823295 0
M  V30 80 H 36.452760 34.341470 60.062608 0
M  V30 81 H 36.845135 28.129268 57.620492 0
M  V30 82 H 37.871274 28.430523 58.947455 0
M  V30 83 H 37.913966 32.585044 57.134372 0
M  V30 84 H 36.576129 32.679138 58.253930 0
M  V30 85 H 39.765147 28.905301 57.217880 0
M  V30 86 H 39.081111 30.960943 58.643867 0
M  V30 87 H 42.622227 28.998822 63.755432 0
M  V30 88 H 43.223456 31.861686 67.456026 0
M  V30 89 H 40.034951 28.698414 65.783076 0
M  V30 90 H 43.626580 28.081757 64.738807 0
M  V30 91 H 37.526191 30.423728 56.847473 0
M  V30 92 H 36.696383 33.171585 61.821620 0
M  V30 END ATOM
M  V30 BEGIN BOND
M  V30 1 2 8 6
M  V30 2 1 8 7
M  V30 3 1 12 10
M  V30 4 1 14 2
M  V30 5 1 15 11
M  V30 6 1 17 6
M  V30 7 1 19 3
M  V30 8 1 19 11
M  V30 9 1 19 13
M  V30 10 1 20 6
M  V30 11 1 20 16
M  V30 12 1 21 15
M  V30 13 1 21 18
M  V30 14 1 22 13
M  V30 15 1 24 17
M  V30 16 1 25 2
M  V30 17 2 26 7
M  V30 18 1 27 2
M  V30 19 1 27 12
M  V30 20 1 28 4
M  V30 21 1 29 16
M  V30 22 1 30 14
M  V30 23 1 30 28
M  V30 24 2 31 24
M  V30 25 1 31 26
M  V30 26 1 32 13
M  V30 27 1 32 30
M  V30 28 1 33 9
M  V30 29 1 33 12
M  V30 30 1 33 27
M  V30 31 1 34 23
M  V30 32 1 35 9
M  V30 33 1 36 16
M  V30 34 1 36 17
M  V30 35 1 36 34
M  V30 36 1 37 23
M  V30 37 1 37 25
M  V30 38 1 37 35
M  V30 39 1 38 11
M  V30 40 1 38 18
M  V30 41 1 39 1
M  V30 42 1 39 3
M  V30 43 1 39 5
M  V30 44 1 40 1
M  V30 45 1 41 1
M  V30 46 1 42 1
M  V30 47 1 2 43 CFG=1
M  V30 48 1 44 3
M  V30 49 1 45 3
M  V30 50 1 46 4
M  V30 51 1 47 5
M  V30 52 1 48 5
M  V30 53 1 49 5
M  V30 54 1 50 7
M  V30 55 1 51 8
M  V30 56 1 52 9
M  V30 57 1 53 9
M  V30 58 1 54 10
M  V30 59 1 55 10
M  V30 60 1 56 10
M  V30 61 1 12 57 CFG=1
M  V30 62 1 13 58 CFG=1
M  V30 63 1 59 14
M  V30 64 1 60 14
M  V30 65 1 61 15
M  V30 66 1 16 62 CFG=1
M  V30 67 1 17 63 CFG=1
M  V30 68 1 64 18
M  V30 69 1 65 18
M  V30 70 1 19 66 CFG=1
M  V30 71 1 67 21
M  V30 72 1 68 21
M  V30 73 1 69 22
M  V30 74 1 70 23
M  V30 75 1 71 24
M  V30 76 1 72 25
M  V30 77 1 73 25
M  V30 78 1 74 26
M  V30 79 1 75 28
M  V30 80 1 76 28
M  V30 81 1 30 77 CFG=1
M  V30 82 1 78 31
M  V30 83 1 79 32
M  V30 84 1 33 80 CFG=3
M  V30 85 1 81 34
M  V30 86 1 82 34
M  V30 87 1 83 35
M  V30 88 1 84 35
M  V30 89 1 36 85 CFG=3
M  V30 90 1 37 86 CFG=1
M  V30 91 1 87 38
M  V30 92 1 88 39
M  V30 93 1 89 15
M  V30 94 1 90 38
M  V30 95 1 91 23
M  V30 96 1 27 92 CFG=1
M  V30 END BOND
M  V30 END CTAB
M  END
>  <i_epik_Tot_Q>  (1) 
3

>  <i_epik_Tot_abs_Q>  (1) 
5

>  <i_i_glide_confnum>  (1) 
4780

>  <i_i_glide_lignum>  (1) 
41

>  <i_i_glide_posenum>  (1) 
60

>  <i_i_glide_rotatable_bonds>  (1) 
14

>  <i_lp_mmshare_version>  (1) 
72125

>  <i_m_source_file_index>  (1) 
18

>  <i_f3d_flags>  (1) 
0

>  <num_sample>  (1) 
50

>  <b_lp_Chiralities_Consistent>  (1) 
1

>  <r_epik_Charging_Adjusted_Penalty>  (1) 
1.6860912736117832

>  <r_epik_Ionization_Penalty>  (1) 
0.9299661573909731

>  <r_epik_Ionization_Penalty_Charging>  (1) 
0.33573944846101578

>  <r_epik_Ionization_Penalty_Neutral>  (1) 
0.59422670892995733

>  <r_epik_State_Penalty>  (1) 
1.3503518251507676

>  <r_glide_ring_energy>  (1) 
0

>  <r_i_docking_score>  (1) 
-5.9166159180945161

>  <r_i_glide_ecoul>  (1) 
-7.1329293440726858

>  <r_i_glide_eff_state_penalty>  (1) 
1.3503518251507676

>  <r_i_glide_einternal>  (1) 
19.235641516185613

>  <r_i_glide_emodel>  (1) 
-67.27131139464889

>  <r_i_glide_emodel_strain>  (1) 
0.75249754291417048

>  <r_i_glide_energy>  (1) 
-49.455134316850767

>  <r_i_glide_erotb>  (1) 
0.56462826385561427

>  <r_i_glide_esite>  (1) 
-0.11856520173111403

>  <r_i_glide_evdw>  (1) 
-42.322204972778081

>  <r_i_glide_gscore>  (1) 
-7.2669677432452842

>  <r_i_glide_gscore_strain>  (1) 
0

>  <r_i_glide_hbond>  (1) 
-0.065804303302898312

>  <r_i_glide_ligand_efficiency>  (1) 
-0.15170810046396196

>  <r_i_glide_ligand_efficiency_ln>  (1) 
-1.2686904059700372

>  <r_i_glide_ligand_efficiency_sa>  (1) 
-0.51447424629133065

>  <r_i_glide_lipo>  (1) 
-3.5567341977462732

>  <r_i_glide_metal>  (1) 
-0

>  <r_i_glide_rewards>  (1) 
-0.90444265407080671

>  <r_lp_Energy>  (1) 
57.587399999999995

>  <s_epik_Chemistry_Notes>  (1) 
This compound contains an acetal/aminal-like group ( X-CH(R)-Y where X, Y are N, S, or O) that may be acid/base labile, releasing an aldehyde.

>  <s_epik_cmdline>  (1) 
J2VwaWtfcHl0aG9uJywgJy1waHQnLCAnMS4wJywgJy1waCcsICc3LjQnLCAnLXRuJywgJzgnLCAnLW1hJywgJzUwMCcsICctaW1hZScsICc8aW5maWxlLm1hZT4nLCAnLW9tYWUnLCAnPG91dGZpbGUubWFlPic=

>  <s_epik_input>  (1) 
W05IXTFbQ0gyXVtDSDJdW05IXU4xW0NAQEhdKFtDSDJdW0NIXShbQ0gzXSlbQ0gzXSlbQ0BASF0oW09IXSlbTkhdW0NASF0oW0NIMl1bT0hdKVtDSDJdW0NAQEhdMltDSDJdW0NASF0oW0NIMl1bQ0gyXVtDQEBIXShOMjMpW0NIXTNbQ0gzXSlbTkhdW0NIMl1bQ0BASF0oW0NASF0oTzQpW1NIXSlbQ0BIXShDND01KVtDSF09W0NIXVtDSF09W0NIXVtDSF01

>  <s_glide_docking_method>  (1) 
confgen

>  <s_i_glide_gridfile>  (1) 
gpcr_5ht2c_6bqh_protein_autoprepared_prepared

>  <s_lp_Force_Field>  (1) 
S-OPLS

>  <s_lp_Variant>  (1) 
DiffSBDD_17-8

>  <s_m_source_file>  (1) 
generated_GPCR_5HT2C_ligand_DiffSBDD_2026-06-23_prepared.sdf

>  <GenAI_Model>  (1) 
DiffSBDD

>  <Protein>  (1) 
GPCR_5HT2C

$$$$
DiffSBDD_5
     RDKit          3D

  0  0  0  0  0  0  0  0  0  0999 V3000
M  V30 BEGIN CTAB
M  V30 COUNTS 56 58 0 0 1
M  V30 BEGIN ATOM
M  V30 1 O 39.862957 28.056606 55.766510 0
M  V30 2 C 37.930392 29.480551 55.313525 0
M  V30 3 C 38.440612 28.122920 55.821087 0 CFG=1
M  V30 4 O 40.845137 29.737766 60.930361 0
M  V30 5 C 39.005762 33.116335 56.145282 0 CFG=1
M  V30 6 C 39.117484 27.220717 52.840797 0
M  V30 7 C 40.198200 27.513389 59.327855 0
M  V30 8 O 36.484345 25.424178 57.052742 0
M  V30 9 C 38.191052 24.001566 57.504334 0
M  V30 10 C 38.295671 28.938666 58.404785 0
M  V30 11 C 38.132898 32.567214 57.233521 0
M  V30 12 O 39.645150 25.337745 55.295356 0
M  V30 13 C 38.177576 31.915494 55.858296 0 CFG=2
M  V30 14 C 38.906208 30.636087 55.588620 0 CFG=2
M  V30 15 C 39.727036 28.939897 58.968069 0 CFG=1
M  V30 16 C 37.898509 26.942538 54.931618 0 CFG=1
M  V30 17 C 37.895148 25.372626 56.930322 0 CFG=2
M  V30 18 O 39.942920 30.772594 54.615687 0
M  V30 19 O 38.445134 34.137751 55.394532 0
M  V30 20 O 37.874595 27.103030 53.512126 0
M  V30 21 C 39.539778 31.097365 53.293535 0
M  V30 22 C 38.534350 26.532498 57.680560 0
M  V30 23 C 39.529059 26.370613 58.568049 0
M  V30 24 C 38.008965 27.888359 57.312467 0 CFG=2
M  V30 25 C 38.255540 25.517989 55.426715 0 CFG=2
M  V30 26 C 39.835413 29.869486 60.204234 0
M  V30 27 O 38.911257 30.693225 60.385974 0 CHG=-1
M  V30 28 H 40.212326 28.769095 56.281882 0
M  V30 29 H 37.673119 29.446041 54.257966 0
M  V30 30 H 36.977296 29.693889 55.802000 0
M  V30 31 H 40.089505 33.034025 56.167754 0
M  V30 32 H 38.935452 27.307469 51.769550 0
M  V30 33 H 39.645138 28.116528 53.153460 0
M  V30 34 H 39.764022 26.358304 52.990756 0
M  V30 35 H 40.045174 27.337726 60.392450 0
M  V30 36 H 41.273529 27.446434 59.161831 0
M  V30 37 H 36.108085 24.782210 56.470760 0
M  V30 38 H 39.225542 23.685087 57.367299 0
M  V30 39 H 37.928936 23.935749 58.560033 0
M  V30 40 H 37.526996 23.337754 56.977981 0
M  V30 41 H 37.973192 29.926855 58.089818 0
M  V30 42 H 37.642988 28.704336 59.243917 0
M  V30 43 H 37.245186 33.134357 57.504189 0
M  V30 44 H 38.645199 32.085607 58.063074 0
M  V30 45 H 40.050829 26.153840 55.573705 0
M  V30 46 H 37.291431 32.051046 55.237025 0
M  V30 47 H 39.458240 30.438110 56.502983 0
M  V30 48 H 40.403438 29.335778 58.212845 0
M  V30 49 H 36.831576 26.956825 55.072689 0
M  V30 50 H 37.507600 33.992657 55.367629 0
M  V30 51 H 40.419615 31.337767 52.697977 0
M  V30 52 H 39.051744 30.259906 52.800184 0
M  V30 53 H 38.868873 31.956816 53.268296 0
M  V30 54 H 39.896550 25.382272 58.782382 0
M  V30 55 H 36.924968 27.825482 57.367793 0
M  V30 56 H 37.741358 24.763903 54.829623 0
M  V30 END ATOM
M  V30 BEGIN BOND
M  V30 1 1 3 1 CFG=1
M  V30 2 1 3 2
M  V30 3 1 11 5
M  V30 4 1 13 5
M  V30 5 1 13 11
M  V30 6 1 14 2
M  V30 7 1 14 13
M  V30 8 1 15 7
M  V30 9 1 15 10
M  V30 10 1 16 3
M  V30 11 1 17 8 CFG=3
M  V30 12 1 17 9
M  V30 13 1 18 14
M  V30 14 1 19 5
M  V30 15 1 20 6
M  V30 16 1 20 16
M  V30 17 1 21 18
M  V30 18 1 22 17
M  V30 19 1 23 7
M  V30 20 2 23 22
M  V30 21 1 24 3
M  V30 22 1 24 10
M  V30 23 1 24 22
M  V30 24 1 25 12
M  V30 25 1 25 16
M  V30 26 1 25 17
M  V30 27 2 26 4
M  V30 28 1 26 15
M  V30 29 1 27 26
M  V30 30 1 28 1
M  V30 31 1 29 2
M  V30 32 1 30 2
M  V30 33 1 5 31 CFG=1
M  V30 34 1 32 6
M  V30 35 1 33 6
M  V30 36 1 34 6
M  V30 37 1 35 7
M  V30 38 1 36 7
M  V30 39 1 37 8
M  V30 40 1 38 9
M  V30 41 1 39 9
M  V30 42 1 40 9
M  V30 43 1 41 10
M  V30 44 1 42 10
M  V30 45 1 43 11
M  V30 46 1 44 11
M  V30 47 1 45 12
M  V30 48 1 13 46 CFG=3
M  V30 49 1 14 47 CFG=1
M  V30 50 1 15 48 CFG=3
M  V30 51 1 16 49 CFG=1
M  V30 52 1 50 19
M  V30 53 1 51 21
M  V30 54 1 52 21
M  V30 55 1 53 21
M  V30 56 1 54 23
M  V30 57 1 24 55 CFG=3
M  V30 58 1 25 56 CFG=3
M  V30 END BOND
M  V30 END CTAB
M  END
>  <i_epik_Tot_Q>  (1) 
-1

>  <i_epik_Tot_abs_Q>  (1) 
1

>  <i_i_glide_confnum>  (1) 
28

>  <i_i_glide_lignum>  (1) 
14

>  <i_i_glide_posenum>  (1) 
344

>  <i_i_glide_rotatable_bonds>  (1) 
10

>  <i_lp_mmshare_version>  (1) 
72125

>  <i_m_source_file_index>  (1) 
6

>  <i_f3d_flags>  (1) 
0

>  <num_sample>  (1) 
50

>  <b_lp_Chiralities_Consistent>  (1) 
1

>  <r_epik_Charging_Adjusted_Penalty>  (1) 
0.00069514942646818579

>  <r_epik_Ionization_Penalty>  (1) 
0.00069544814870727001

>  <r_epik_Ionization_Penalty_Charging>  (1) 
0.00069514942646818579

>  <r_epik_Ionization_Penalty_Neutral>  (1) 
2.9872223908425859e-07

>  <r_epik_State_Penalty>  (1) 
-0

>  <r_glide_ring_energy>  (1) 
0

>  <r_i_docking_score>  (1) 
-5.8935964701155887

>  <r_i_glide_ecoul>  (1) 
-2.7816936091979088

>  <r_i_glide_eff_state_penalty>  (1) 
-0

>  <r_i_glide_einternal>  (1) 
16.466264629943147

>  <r_i_glide_emodel>  (1) 
-33.415613655633557

>  <r_i_glide_emodel_strain>  (1) 
0.76890672721250297

>  <r_i_glide_energy>  (1) 
-31.500641141808

>  <r_i_glide_erotb>  (1) 
0.39282459937787173

>  <r_i_glide_esite>  (1) 
0

>  <r_i_glide_evdw>  (1) 
-28.718947532610091

>  <r_i_glide_gscore>  (1) 
-5.8935964701155887

>  <r_i_glide_gscore_strain>  (1) 
0

>  <r_i_glide_hbond>  (1) 
-0.21751151915072228

>  <r_i_glide_ligand_efficiency>  (1) 
-0.21828135074502181

>  <r_i_glide_ligand_efficiency_ln>  (1) 
-1.3719320947113567

>  <r_i_glide_ligand_efficiency_sa>  (1) 
-0.65484405223506559

>  <r_i_glide_lipo>  (1) 
-3.1201070275856724

>  <r_i_glide_metal>  (1) 
-0

>  <r_i_glide_rewards>  (1) 
-1.0956011047468754

>  <r_lp_Energy>  (1) 
23.796561000000001

>  <r_lp_tautomer_probability>  (1) 
1

>  <s_epik_cmdline>  (1) 
J2VwaWtfcHl0aG9uJywgJy1waHQnLCAnMS4wJywgJy1waCcsICc3LjQnLCAnLXRuJywgJzgnLCAnLW1hJywgJzUwMCcsICctaW1hZScsICc8aW5maWxlLm1hZT4nLCAnLW9tYWUnLCAnPG91dGZpbGUubWFlPic=

>  <s_epik_input>  (1) 
Tz1DKFtPSF0pW0NAQEhdKFtDSDJdW0NIXTEpW0NIMl1bQ0BIXShDPTEyKVtDQEBdKFtPSF0pKFtDQEBIXShPW0NIM10pW0NAQEhdKFtPSF0pW0NAQF0yKFtPSF0pW0NIM10pW0NIMl1bQ0BASF0oT1tDSDNdKVtDQEhdM1tDSDJdW0NAQEhdM1tPSF0=

>  <s_glide_docking_method>  (1) 
confgen

>  <s_i_glide_gridfile>  (1) 
gpcr_5ht2c_6bqh_protein_autoprepared_prepared

>  <s_lp_Force_Field>  (1) 
S-OPLS

>  <s_lp_Variant>  (1) 
DiffSBDD_5-1

>  <s_m_source_file>  (1) 
generated_GPCR_5HT2C_ligand_DiffSBDD_2026-06-23_prepared.sdf

>  <GenAI_Model>  (1) 
DiffSBDD

>  <Protein>  (1) 
GPCR_5HT2C

$$$$
DiffSBDD_15
     RDKit          3D

  0  0  0  0  0  0  0  0  0  0999 V3000
M  V30 BEGIN CTAB
M  V30 COUNTS 41 43 0 0 1
M  V30 BEGIN ATOM
M  V30 1 C 40.284226 27.233126 56.657099 0
M  V30 2 O 36.684627 31.787218 61.767498 0
M  V30 3 C 35.338352 33.009856 60.106362 0
M  V30 4 O 40.843358 30.509733 60.670193 0
M  V30 5 C 38.984981 28.727706 59.802260 0
M  V30 6 C 38.616207 32.953817 61.258211 0
M  V30 7 N 38.589241 30.537757 61.902571 0
M  V30 8 C 41.217376 28.074126 58.662767 0
M  V30 9 C 36.209557 33.073861 61.367761 0 CFG=2
M  V30 10 C 37.452577 33.906162 61.013925 0 CFG=2
M  V30 11 C 39.140001 27.941974 57.373980 0
M  V30 12 C 35.763240 34.230372 59.296267 0
M  V30 13 C 37.936521 31.596312 61.132205 0 CFG=1
M  V30 14 C 37.264252 34.340057 59.551783 0
M  V30 15 S 39.835254 29.584764 61.200779 0
M  V30 16 O 40.228625 28.556590 62.171193 0
M  V30 17 N 41.245141 26.937755 57.727271 0 CHG=1
M  V30 18 C 39.823388 28.716713 58.512668 0 CFG=1
M  V30 19 H 39.966113 26.330503 56.133866 0
M  V30 20 H 40.752684 27.901674 55.933194 0
M  V30 21 H 35.551176 32.106498 59.532755 0
M  V30 22 H 34.271845 33.011147 60.330556 0
M  V30 23 H 38.757412 27.721021 60.144745 0
M  V30 24 H 38.025388 29.205220 59.615693 0
M  V30 25 H 38.997574 33.091307 62.271181 0
M  V30 26 H 39.445568 33.084965 60.562449 0
M  V30 27 H 38.045144 30.072504 62.629771 0
M  V30 28 H 41.992933 28.788733 58.382928 0
M  V30 29 H 41.438410 27.737771 59.675977 0
M  V30 30 H 35.649837 33.554689 62.167760 0
M  V30 31 H 37.523860 34.784072 61.657534 0
M  V30 32 H 38.450983 27.196986 57.775415 0
M  V30 33 H 38.567704 28.590446 56.708977 0
M  V30 34 H 35.525798 34.137749 58.235891 0
M  V30 35 H 35.257054 35.119301 59.670949 0
M  V30 36 H 37.796179 31.318255 60.087869 0
M  V30 37 H 37.789230 33.662891 58.876379 0
M  V30 38 H 37.644256 35.345358 59.367760 0
M  V30 39 H 40.913662 26.123106 58.221944 0
M  V30 40 H 39.965061 29.746888 58.184698 0
M  V30 41 H 42.171830 26.742600 57.367780 0
M  V30 END ATOM
M  V30 BEGIN BOND
M  V30 1 1 9 2
M  V30 2 1 9 3
M  V30 3 1 10 6
M  V30 4 1 10 9
M  V30 5 1 11 1
M  V30 6 1 12 3
M  V30 7 1 13 2
M  V30 8 1 13 6
M  V30 9 1 13 7
M  V30 10 1 14 10
M  V30 11 1 14 12
M  V30 12 2 15 4
M  V30 13 1 15 5
M  V30 14 1 15 7
M  V30 15 2 16 15
M  V30 16 1 17 1
M  V30 17 1 17 8
M  V30 18 1 18 5
M  V30 19 1 18 8
M  V30 20 1 18 11
M  V30 21 1 19 1
M  V30 22 1 20 1
M  V30 23 1 21 3
M  V30 24 1 22 3
M  V30 25 1 23 5
M  V30 26 1 24 5
M  V30 27 1 25 6
M  V30 28 1 26 6
M  V30 29 1 27 7
M  V30 30 1 28 8
M  V30 31 1 29 8
M  V30 32 1 9 30 CFG=1
M  V30 33 1 10 31 CFG=1
M  V30 34 1 32 11
M  V30 35 1 33 11
M  V30 36 1 34 12
M  V30 37 1 35 12
M  V30 38 1 13 36 CFG=3
M  V30 39 1 37 14
M  V30 40 1 38 14
M  V30 41 1 39 17
M  V30 42 1 18 40 CFG=3
M  V30 43 1 41 17
M  V30 END BOND
M  V30 END CTAB
M  END
>  <i_epik_Tot_Q>  (1) 
1

>  <i_epik_Tot_abs_Q>  (1) 
1

>  <i_i_glide_confnum>  (1) 
13

>  <i_i_glide_lignum>  (1) 
31

>  <i_i_glide_posenum>  (1) 
48

>  <i_i_glide_rotatable_bonds>  (1) 
4

>  <i_lp_mmshare_version>  (1) 
72125

>  <i_m_source_file_index>  (1) 
16

>  <i_f3d_flags>  (1) 
0

>  <num_sample>  (1) 
50

>  <b_lp_Chiralities_Consistent>  (1) 
1

>  <r_epik_Charging_Adjusted_Penalty>  (1) 
0.00041597813202231702

>  <r_epik_Ionization_Penalty>  (1) 
0.00074601898943485131

>  <r_epik_Ionization_Penalty_Charging>  (1) 
0.00041597813202231702

>  <r_epik_Ionization_Penalty_Neutral>  (1) 
0.00033004085741253423

>  <r_epik_State_Penalty>  (1) 
-0

>  <r_glide_ring_energy>  (1) 
0.23854755204691935

>  <r_i_docking_score>  (1) 
-5.8895792359654626

>  <r_i_glide_ecoul>  (1) 
-6.4464268046515762

>  <r_i_glide_eff_state_penalty>  (1) 
-0

>  <r_i_glide_einternal>  (1) 
3.1840382263577789

>  <r_i_glide_emodel>  (1) 
-47.092807096168833

>  <r_i_glide_emodel_strain>  (1) 
1.228135858807363

>  <r_i_glide_energy>  (1) 
-34.589138911069469

>  <r_i_glide_erotb>  (1) 
0.47397758712995947

>  <r_i_glide_esite>  (1) 
-0.022494873078978364

>  <r_i_glide_evdw>  (1) 
-28.142712106417896

>  <r_i_glide_gscore>  (1) 
-5.8895792359654626

>  <r_i_glide_gscore_strain>  (1) 
0

>  <r_i_glide_hbond>  (1) 
-0.32000000000000001

>  <r_i_glide_ligand_efficiency>  (1) 
-0.32719884644252573

>  <r_i_glide_ligand_efficiency_ln>  (1) 
-1.5138859734963812

>  <r_i_glide_ligand_efficiency_sa>  (1) 
-0.85750356100932756

>  <r_i_glide_lipo>  (1) 
-1.4402559437851428

>  <r_i_glide_metal>  (1) 
-0

>  <r_i_glide_rewards>  (1) 
-2.2067063802126681

>  <r_lp_Energy>  (1) 
10.187014999999999

>  <r_lp_tautomer_probability>  (1) 
1

>  <s_epik_Chemistry_Notes>  (1) 
This compound contains an acetal/aminal-like group ( X-CH(R)-Y where X, Y are N, S, or O) that may be acid/base labile, releasing an aldehyde.

>  <s_epik_cmdline>  (1) 
J2VwaWtfcHl0aG9uJywgJy1waHQnLCAnMS4wJywgJy1waCcsICc3LjQnLCAnLXRuJywgJzgnLCAnLW1hJywgJzUwMCcsICctaW1hZScsICc8aW5maWxlLm1hZT4nLCAnLW9tYWUnLCAnPG91dGZpbGUubWFlPic=

>  <s_epik_input>  (1) 
W0NIMl0xW0NIMl1bTkhdW0NIMl1bQ0BASF0xW0NIMl1TKD1PKSg9TylbTkhdW0NAQEhdKE8yKVtDSDJdW0NASF0oW0NASF0yMylbQ0gyXVtDSDJdW0NIMl0z

>  <s_glide_docking_method>  (1) 
confgen

>  <s_i_glide_gridfile>  (1) 
gpcr_5ht2c_6bqh_protein_autoprepared_prepared

>  <s_lp_Force_Field>  (1) 
S-OPLS

>  <s_lp_Variant>  (1) 
DiffSBDD_15-1

>  <s_m_source_file>  (1) 
generated_GPCR_5HT2C_ligand_DiffSBDD_2026-06-23_prepared.sdf

>  <GenAI_Model>  (1) 
DiffSBDD

>  <Protein>  (1) 
GPCR_5HT2C

$$$$
DiffSBDD_30
     RDKit          3D

  0  0  0  0  0  0  0  0  0  0999 V3000
M  V30 BEGIN CTAB
M  V30 COUNTS 75 78 0 0 1
M  V30 BEGIN ATOM
M  V30 1 C 38.522433 36.210358 60.742128 0 CFG=2
M  V30 2 N 37.867289 31.691916 60.446931 0 CFG=2 CHG=1
M  V30 3 C 39.052675 29.105967 53.971779 0
M  V30 4 O 36.448335 36.936305 59.836364 0
M  V30 5 C 39.529837 36.670817 61.813649 0
M  V30 6 C 41.381328 30.518876 62.653781 0 CFG=1
M  V30 7 N 40.168302 30.795951 61.864200 0
M  V30 8 C 38.028880 30.243992 60.803397 0 CFG=1
M  V30 9 O 39.505284 34.081236 60.177488 0
M  V30 10 C 41.344166 32.999197 63.475697 0
M  V30 11 C 37.413233 29.287839 59.767757 0
M  V30 12 C 41.047220 27.722438 65.053150 0
M  V30 13 O 41.146540 28.428875 63.829474 0
M  V30 14 C 39.497856 29.776499 61.046878 0 CFG=2
M  V30 15 C 37.220215 33.929387 60.947428 0 CFG=1
M  V30 16 C 42.151441 31.854302 62.835931 0
M  V30 17 C 37.558923 32.584501 61.588149 0
M  V30 18 C 37.154662 36.889840 60.867844 0
M  V30 19 O 38.060413 29.325014 58.523642 0
M  V30 20 O 39.498179 28.527085 61.697746 0
M  V30 21 C 36.882153 32.065978 59.394822 0
M  V30 22 O 40.445130 32.683038 64.282790 0 CHG=-1
M  V30 23 C 39.368018 28.770102 58.592567 0 CFG=2
M  V30 24 C 40.156222 29.570113 59.664367 0
M  V30 25 C 39.902230 28.916294 57.156741 0 CFG=2
M  V30 26 C 39.643908 28.787490 51.229958 0
M  V30 27 C 39.645068 30.163611 53.244452 0
M  V30 28 C 38.749302 27.892316 53.319288 0
M  V30 29 C 38.510279 34.684396 60.587195 0
M  V30 30 O 36.844897 37.349582 61.988986 0 CHG=-1
M  V30 31 C 38.744165 29.272328 55.457255 0 CFG=2
M  V30 32 C 36.471660 33.521613 59.669153 0
M  V30 33 C 39.044524 27.735025 51.949518 0
M  V30 34 C 39.944129 30.000902 51.876498 0
M  V30 35 O 41.644878 34.162355 63.137977 0
M  V30 36 C 41.069849 29.832975 64.004207 0
M  V30 37 C 39.604070 30.172394 56.333548 0
M  V30 38 O 39.116874 28.100897 56.241959 0
M  V30 39 H 38.845130 36.537759 59.767735 0
M  V30 40 H 39.288045 36.248775 62.789992 0
M  V30 41 H 40.543139 36.356557 61.564589 0
M  V30 42 H 39.543437 37.756893 61.912677 0
M  V30 43 H 42.042302 29.825840 62.147487 0
M  V30 44 H 39.504988 31.250651 62.487040 0
M  V30 45 H 37.507306 30.137801 61.748925 0
M  V30 46 H 36.331082 29.363387 59.666201 0
M  V30 47 H 37.645144 28.304315 60.155107 0
M  V30 48 H 40.983329 26.652703 64.852562 0
M  V30 49 H 41.926747 27.900936 65.671548 0
M  V30 50 H 40.161796 28.016197 65.616855 0
M  V30 51 H 36.594253 34.516969 61.619621 0
M  V30 52 H 43.035978 31.685473 63.445901 0
M  V30 53 H 42.510814 32.197939 61.864371 0
M  V30 54 H 36.687371 32.214399 62.129795 0
M  V30 55 H 38.377941 32.667442 62.303789 0
M  V30 56 H 39.985142 28.586689 62.514631 0
M  V30 57 H 37.308606 31.942418 58.399714 0
M  V30 58 H 35.975550 31.465902 59.448755 0
M  V30 59 H 39.332247 27.714842 58.868630 0
M  V30 60 H 40.045128 30.537746 59.257640 0
M  V30 61 H 41.211713 29.297259 59.714023 0
M  V30 62 H 40.953452 28.634048 57.082101 0
M  V30 63 H 39.870355 28.664551 50.180266 0
M  V30 64 H 39.875189 31.096828 53.735878 0
M  V30 65 H 38.292193 27.080920 53.869874 0
M  V30 66 H 37.684622 29.501495 55.586892 0
M  V30 67 H 36.711721 34.161052 58.815775 0
M  V30 68 H 35.393123 33.591192 59.818628 0
M  V30 69 H 38.812387 26.806043 51.450882 0
M  V30 70 H 40.401449 30.809807 51.323539 0
M  V30 71 H 41.812605 30.130148 64.746241 0
M  V30 72 H 40.089215 30.116098 64.390371 0
M  V30 73 H 39.041807 30.945801 56.855896 0
M  V30 74 H 40.445136 30.582917 55.788157 0
M  V30 75 H 38.768589 32.007799 60.107122 0
M  V30 END ATOM
M  V30 BEGIN BOND
M  V30 1 1 5 1
M  V30 2 1 7 6
M  V30 3 1 8 2
M  V30 4 1 11 8
M  V30 5 1 13 12
M  V30 6 1 14 7
M  V30 7 1 14 8
M  V30 8 1 16 6
M  V30 9 1 16 10
M  V30 10 1 17 2
M  V30 11 1 17 15
M  V30 12 1 18 1
M  V30 13 2 18 4
M  V30 14 1 19 11
M  V30 15 1 14 20 CFG=1
M  V30 16 1 21 2
M  V30 17 1 22 10
M  V30 18 1 23 19
M  V30 19 1 24 14
M  V30 20 1 24 23
M  V30 21 1 25 23
M  V30 22 1 27 3
M  V30 23 2 28 3
M  V30 24 1 29 1
M  V30 25 2 29 9
M  V30 26 1 29 15
M  V30 27 1 30 18
M  V30 28 1 31 3
M  V30 29 1 32 15
M  V30 30 1 32 21
M  V30 31 2 33 26
M  V30 32 1 33 28
M  V30 33 1 34 26
M  V30 34 2 34 27
M  V30 35 2 35 10
M  V30 36 1 36 6
M  V30 37 1 36 13
M  V30 38 1 37 25
M  V30 39 1 37 31
M  V30 40 1 38 25
M  V30 41 1 38 31
M  V30 42 1 1 39 CFG=3
M  V30 43 1 40 5
M  V30 44 1 41 5
M  V30 45 1 42 5
M  V30 46 1 6 43 CFG=3
M  V30 47 1 44 7
M  V30 48 1 8 45 CFG=1
M  V30 49 1 46 11
M  V30 50 1 47 11
M  V30 51 1 48 12
M  V30 52 1 49 12
M  V30 53 1 50 12
M  V30 54 1 15 51 CFG=1
M  V30 55 1 52 16
M  V30 56 1 53 16
M  V30 57 1 54 17
M  V30 58 1 55 17
M  V30 59 1 56 20
M  V30 60 1 57 21
M  V30 61 1 58 21
M  V30 62 1 23 59 CFG=1
M  V30 63 1 60 24
M  V30 64 1 61 24
M  V30 65 1 25 62 CFG=1
M  V30 66 1 63 26
M  V30 67 1 64 27
M  V30 68 1 65 28
M  V30 69 1 31 66 CFG=3
M  V30 70 1 67 32
M  V30 71 1 68 32
M  V30 72 1 69 33
M  V30 73 1 70 34
M  V30 74 1 71 36
M  V30 75 1 72 36
M  V30 76 1 73 37
M  V30 77 1 74 37
M  V30 78 1 2 75 CFG=3
M  V30 END BOND
M  V30 END CTAB
M  END
>  <i_epik_Tot_Q>  (1) 
-1

>  <i_epik_Tot_abs_Q>  (1) 
3

>  <i_i_glide_confnum>  (1) 
1451

>  <i_i_glide_lignum>  (1) 
67

>  <i_i_glide_posenum>  (1) 
177

>  <i_i_glide_rotatable_bonds>  (1) 
13

>  <i_lp_mmshare_version>  (1) 
72125

>  <i_m_source_file_index>  (1) 
31

>  <i_f3d_flags>  (1) 
0

>  <num_sample>  (1) 
50

>  <b_lp_Chiralities_Consistent>  (1) 
1

>  <r_epik_Charging_Adjusted_Penalty>  (1) 
0.42059132601078875

>  <r_epik_Ionization_Penalty>  (1) 
0.042345838263638087

>  <r_epik_Ionization_Penalty_Charging>  (1) 
0.028527830839106344

>  <r_epik_Ionization_Penalty_Neutral>  (1) 
0.013818007424531742

>  <r_epik_State_Penalty>  (1) 
0.39206349517168243

>  <r_glide_ring_energy>  (1) 
0

>  <r_i_docking_score>  (1) 
-5.8866735789432836

>  <r_i_glide_ecoul>  (1) 
-0.014221595133287801

>  <r_i_glide_eff_state_penalty>  (1) 
0.39206349517168243

>  <r_i_glide_einternal>  (1) 
23.715393977787265

>  <r_i_glide_emodel>  (1) 
-36.681272781110387

>  <r_i_glide_emodel_strain>  (1) 
2.2274351454315635

>  <r_i_glide_energy>  (1) 
-35.577863854282135

>  <r_i_glide_erotb>  (1) 
0.65218633798694536

>  <r_i_glide_esite>  (1) 
0

>  <r_i_glide_evdw>  (1) 
-35.56364225914885

>  <r_i_glide_gscore>  (1) 
-6.2787370741149662

>  <r_i_glide_gscore_strain>  (1) 
0

>  <r_i_glide_hbond>  (1) 
0

>  <r_i_glide_ligand_efficiency>  (1) 
-0.15491246260377062

>  <r_i_glide_ligand_efficiency_ln>  (1) 
-1.2693399920122654

>  <r_i_glide_ligand_efficiency_sa>  (1) 
-0.52081188948054102

>  <r_i_glide_lipo>  (1) 
-3.263690434300206

>  <r_i_glide_metal>  (1) 
-0

>  <r_i_glide_rewards>  (1) 
-1.8869176255742708

>  <r_lp_Energy>  (1) 
35.46461

>  <r_lp_tautomer_probability>  (1) 
0.99999996000000102

>  <s_epik_cmdline>  (1) 
J2VwaWtfcHl0aG9uJywgJy1waHQnLCAnMS4wJywgJy1waCcsICc3LjQnLCAnLXRuJywgJzgnLCAnLW1hJywgJzUwMCcsICctaW1hZScsICc8aW5maWxlLm1hZT4nLCAnLW9tYWUnLCAnPG91dGZpbGUubWFlPic=

>  <s_epik_input>  (1) 
Tz1DKFtPSF0pW0NAQEhdKFtDSDNdKUMoPU8pW0NAQEhdKFtDSDJdW0NIMl0xKVtDSDJdTjFbQ0BIXShbQ0BdMihbT0hdKVtOSF1bQ0BASF0oW0NIMl1DKD1PKVtPSF0pW0NIMl1PW0NIM10pW0NIMl1PW0NASF0oW0NIMl0yKVtDQEBIXTNbQ0gyXVtDSF0oTzMpYzRbY0hdW2NIXVtjSF1bY0hdW2NIXTQ=

>  <s_glide_docking_method>  (1) 
confgen

>  <s_i_glide_gridfile>  (1) 
gpcr_5ht2c_6bqh_protein_autoprepared_prepared

>  <s_lp_Force_Field>  (1) 
S-OPLS

>  <s_lp_Variant>  (1) 
DiffSBDD_30-2

>  <s_m_source_file>  (1) 
generated_GPCR_5HT2C_ligand_DiffSBDD_2026-06-23_prepared.sdf

>  <GenAI_Model>  (1) 
DiffSBDD

>  <Protein>  (1) 
GPCR_5HT2C

$$$$
DiffSBDD_40
     RDKit          3D

  0  0  0  0  0  0  0  0  0  0999 V3000
M  V30 BEGIN CTAB
M  V30 COUNTS 60 63 0 0 1
M  V30 BEGIN ATOM
M  V30 1 C 39.136188 26.865940 57.142398 0 CFG=1
M  V30 2 C 39.760293 29.908547 54.635172 0 CFG=2
M  V30 3 C 39.765285 27.957050 56.299172 0 CFG=1
M  V30 4 C 37.930956 24.642985 56.403934 0
M  V30 5 C 39.209614 32.786232 61.910973 0
M  V30 6 O 39.895608 28.743854 59.068480 0
M  V30 7 C 39.517029 31.018650 55.673641 0
M  V30 8 F 38.845592 27.577016 51.225068 0
M  V30 9 C 39.617338 36.193002 61.367888 0
M  V30 10 F 37.393177 28.537703 52.476324 0
M  V30 11 C 39.242359 30.410208 53.276167 0
M  V30 12 N 38.845522 35.249535 62.182796 0 CHG=1
M  V30 13 O 37.439257 30.250410 59.890342 0
M  V30 14 C 39.132558 28.542811 55.039347 0 CFG=2
M  V30 15 C 37.192898 25.184135 57.601680 0
M  V30 16 C 37.044483 32.642316 60.097899 0
M  V30 17 S 39.245106 27.291546 53.720624 0
M  V30 18 C 36.917822 30.274930 58.570946 0
M  V30 19 C 41.097371 35.815210 61.376212 0
M  V30 20 P 39.041523 28.532054 57.865585 0 CFG=2
M  V30 21 C 39.402781 37.613365 61.914371 0
M  V30 22 C 37.403435 33.878142 60.664939 0
M  V30 23 C 38.697118 28.298345 52.334415 0
M  V30 24 O 39.459193 29.487898 52.215071 0
M  V30 25 C 37.898521 26.129679 56.667227 0
M  V30 26 C 37.773950 31.467290 60.437140 0
M  V30 27 C 38.853910 31.545984 61.346995 0
M  V30 28 C 38.479562 33.931914 61.560913 0
M  V30 29 C 37.239783 28.987918 57.818084 0
M  V30 30 H 39.842227 26.231007 57.675037 0
M  V30 31 H 40.838802 29.794126 54.567857 0
M  V30 32 H 40.853525 27.952497 56.274979 0
M  V30 33 H 37.339180 24.266840 55.572041 0
M  V30 34 H 38.874098 24.130099 56.578849 0
M  V30 35 H 40.032279 32.852121 62.607611 0
M  V30 36 H 38.452736 31.162918 55.863314 0
M  V30 37 H 40.009790 30.807679 56.619738 0
M  V30 38 H 39.916434 31.972823 55.330021 0
M  V30 39 H 39.241095 36.137607 60.345739 0
M  V30 40 H 39.750944 31.337022 53.007359 0
M  V30 41 H 38.185264 30.657959 53.367911 0
M  V30 42 H 37.993246 35.730743 62.431956 0
M  V30 43 H 38.066785 28.688140 55.170169 0
M  V30 44 H 37.645895 24.985417 58.567678 0
M  V30 45 H 36.106673 25.218903 57.583933 0
M  V30 46 H 36.214123 32.590481 59.407295 0
M  V30 47 H 35.837467 30.414749 58.610689 0
M  V30 48 H 37.341126 31.102496 57.999463 0
M  V30 49 H 41.645075 36.517980 60.758150 0
M  V30 50 H 41.524189 35.850885 62.379329 0
M  V30 51 H 41.262205 34.818959 60.970650 0
M  V30 52 H 39.983878 38.355572 61.367785 0
M  V30 53 H 38.354003 37.903011 61.840515 0
M  V30 54 H 39.700080 37.688667 62.961891 0
M  V30 55 H 36.852906 34.773170 60.414508 0
M  V30 56 H 37.244633 26.690111 56.005539 0
M  V30 57 H 39.406582 30.653983 61.607083 0
M  V30 58 H 36.638325 28.153136 58.167774 0
M  V30 59 H 36.933342 29.190068 56.801168 0
M  V30 60 H 39.356777 35.100742 63.040835 0
M  V30 END ATOM
M  V30 BEGIN BOND
M  V30 1 1 3 1
M  V30 2 1 7 2
M  V30 3 1 11 2
M  V30 4 1 12 9
M  V30 5 1 14 2
M  V30 6 1 14 3
M  V30 7 1 15 4
M  V30 8 1 17 14
M  V30 9 1 18 13
M  V30 10 1 19 9
M  V30 11 1 20 1
M  V30 12 1 20 3
M  V30 13 2 20 6
M  V30 14 1 21 9
M  V30 15 1 22 16
M  V30 16 1 23 8
M  V30 17 1 23 10
M  V30 18 1 23 17
M  V30 19 1 24 11
M  V30 20 1 24 23
M  V30 21 1 25 1
M  V30 22 1 25 4
M  V30 23 1 25 15
M  V30 24 1 26 13
M  V30 25 2 26 16
M  V30 26 2 27 5
M  V30 27 1 27 26
M  V30 28 1 28 5
M  V30 29 1 28 12
M  V30 30 2 28 22
M  V30 31 1 29 18
M  V30 32 1 20 29 CFG=3
M  V30 33 1 1 30 CFG=1
M  V30 34 1 2 31 CFG=3
M  V30 35 1 3 32 CFG=1
M  V30 36 1 33 4
M  V30 37 1 34 4
M  V30 38 1 35 5
M  V30 39 1 36 7
M  V30 40 1 37 7
M  V30 41 1 38 7
M  V30 42 1 39 9
M  V30 43 1 40 11
M  V30 44 1 41 11
M  V30 45 1 42 12
M  V30 46 1 14 43 CFG=1
M  V30 47 1 44 15
M  V30 48 1 45 15
M  V30 49 1 46 16
M  V30 50 1 47 18
M  V30 51 1 48 18
M  V30 52 1 49 19
M  V30 53 1 50 19
M  V30 54 1 51 19
M  V30 55 1 52 21
M  V30 56 1 53 21
M  V30 57 1 54 21
M  V30 58 1 55 22
M  V30 59 1 56 25
M  V30 60 1 57 27
M  V30 61 1 58 29
M  V30 62 1 59 29
M  V30 63 1 60 12
M  V30 END BOND
M  V30 END CTAB
M  END
>  <i_epik_Tot_Q>  (1) 
1

>  <i_epik_Tot_abs_Q>  (1) 
1

>  <i_i_glide_confnum>  (1) 
126

>  <i_i_glide_lignum>  (1) 
86

>  <i_i_glide_posenum>  (1) 
391

>  <i_i_glide_rotatable_bonds>  (1) 
8

>  <i_lp_mmshare_version>  (1) 
72125

>  <i_m_source_file_index>  (1) 
41

>  <i_f3d_flags>  (1) 
0

>  <num_sample>  (1) 
50

>  <b_lp_Chiralities_Consistent>  (1) 
1

>  <r_epik_Charging_Adjusted_Penalty>  (1) 
2.1414087062306124

>  <r_epik_Ionization_Penalty>  (1) 
1.0707043531153062

>  <r_epik_Ionization_Penalty_Charging>  (1) 
1.0707043531153062

>  <r_epik_Ionization_Penalty_Neutral>  (1) 
0

>  <r_epik_State_Penalty>  (1) 
1.0707043531153062

>  <r_glide_ring_energy>  (1) 
0

>  <r_i_docking_score>  (1) 
-5.8856609239462028

>  <r_i_glide_ecoul>  (1) 
-2.0163715212082778

>  <r_i_glide_eff_state_penalty>  (1) 
1.0707043531153062

>  <r_i_glide_einternal>  (1) 
9.340609617700423

>  <r_i_glide_emodel>  (1) 
-53.514169416485956

>  <r_i_glide_emodel_strain>  (1) 
0.60703411864336942

>  <r_i_glide_energy>  (1) 
-40.321919363742211

>  <r_i_glide_erotb>  (1) 
0.70277430803170493

>  <r_i_glide_esite>  (1) 
0

>  <r_i_glide_evdw>  (1) 
-38.305547842533933

>  <r_i_glide_gscore>  (1) 
-6.9563652770615088

>  <r_i_glide_gscore_strain>  (1) 
0

>  <r_i_glide_hbond>  (1) 
0

>  <r_i_glide_ligand_efficiency>  (1) 
-0.20295382496366215

>  <r_i_glide_ligand_efficiency_ln>  (1) 
-1.3476671041000743

>  <r_i_glide_ligand_efficiency_sa>  (1) 
-0.62353845127315966

>  <r_i_glide_lipo>  (1) 
-3.7811290402884286

>  <r_i_glide_metal>  (1) 
-0

>  <r_i_glide_rewards>  (1) 
-1.6602774244968463

>  <r_lp_Energy>  (1) 
21.359881999999999

>  <s_epik_cmdline>  (1) 
J2VwaWtfcHl0aG9uJywgJy1waHQnLCAnMS4wJywgJy1waCcsICc3LjQnLCAnLXRuJywgJzgnLCAnLW1hJywgJzUwMCcsICctaW1hZScsICc8aW5maWxlLm1hZT4nLCAnLW9tYWUnLCAnPG91dGZpbGUubWFlPic=

>  <s_epik_input>  (1) 
RkMxKEYpU1tDQEBIXShbQ0BIXShbQ0gzXSlbQ0gyXU8xKVtDQEBIXTJbQ0BIXShbQ0hdM1tDSDJdW0NIMl0zKVAyKD1PKVtDSDJdW0NIMl1PYzRbY0hdW2NIXWMoW2NIXVtjSF00KVtOSF1bQ0hdKFtDSDNdKVtDSDNd

>  <s_glide_docking_method>  (1) 
confgen

>  <s_i_glide_gridfile>  (1) 
gpcr_5ht2c_6bqh_protein_autoprepared_prepared

>  <s_lp_Force_Field>  (1) 
S-OPLS

>  <s_lp_Variant>  (1) 
DiffSBDD_40-4

>  <s_m_source_file>  (1) 
generated_GPCR_5HT2C_ligand_DiffSBDD_2026-06-23_prepared.sdf

>  <GenAI_Model>  (1) 
DiffSBDD

>  <Protein>  (1) 
GPCR_5HT2C

$$$$
DiffSBDD_40
     RDKit          3D

  0  0  0  0  0  0  0  0  0  0999 V3000
M  V30 BEGIN CTAB
M  V30 COUNTS 59 62 0 0 1
M  V30 BEGIN ATOM
M  V30 1 C 35.977485 34.448678 59.353765 0 CFG=1
M  V30 2 C 37.376148 36.517700 61.933957 0 CFG=2
M  V30 3 C 37.277184 35.134073 59.782263 0 CFG=1
M  V30 4 C 33.613056 33.356274 59.601186 0
M  V30 5 C 39.556447 26.802129 58.567362 0
M  V30 6 O 38.040509 33.577385 57.542913 0
M  V30 7 C 37.244291 37.789418 61.068515 0
M  V30 8 F 40.058839 34.894325 63.447175 0
M  V30 9 C 37.795176 26.005138 55.353796 0
M  V30 10 F 41.530689 36.137753 62.560807 0
M  V30 11 C 38.155943 36.858201 63.225052 0
M  V30 12 N 38.757993 25.905813 56.451223 0
M  V30 13 O 39.115595 30.090141 60.201684 0
M  V30 14 C 37.910003 35.266542 61.169556 0 CFG=1
M  V30 15 C 34.609897 32.281008 59.860825 0
M  V30 16 C 38.281163 29.263152 58.063366 0
M  V30 17 S 39.718801 35.337760 60.967756 0
M  V30 18 C 39.057442 31.445649 59.767779 0
M  V30 19 C 37.311759 24.598159 54.976333 0
M  V30 20 P 37.500161 33.550224 58.931287 0 CFG=2
M  V30 21 C 38.414298 26.703471 54.130206 0
M  V30 22 C 38.194934 28.219231 57.120943 0
M  V30 23 C 40.222860 35.902233 62.598764 0
M  V30 24 O 39.538665 37.081444 62.991357 0
M  V30 25 C 34.961025 33.717503 60.206193 0
M  V30 26 C 39.013665 29.079397 59.262826 0
M  V30 27 C 39.646615 27.848160 59.506776 0
M  V30 28 C 38.831660 26.976497 57.372940 0
M  V30 29 C 37.708812 32.080361 60.053946 0
M  V30 30 H 35.507637 34.933276 58.504925 0
M  V30 31 H 36.368909 36.267491 62.259554 0
M  V30 32 H 37.553103 35.968161 59.142340 0
M  V30 33 H 32.721274 33.337772 60.215992 0
M  V30 34 H 33.439988 33.643525 58.567771 0
M  V30 35 H 40.045118 25.860731 58.765578 0
M  V30 36 H 38.198244 38.073933 60.626265 0
M  V30 37 H 36.520841 37.661328 60.263938 0
M  V30 38 H 36.892703 38.634744 61.659836 0
M  V30 39 H 36.901148 26.536959 55.675398 0
M  V30 40 H 38.028083 36.137757 64.014914 0
M  V30 41 H 37.718882 37.737752 63.674472 0
M  V30 42 H 39.120103 24.997862 56.703080 0
M  V30 43 H 37.680411 34.388433 61.767746 0
M  V30 44 H 35.012284 31.817386 58.967812 0
M  V30 45 H 34.479336 31.608066 60.699780 0
M  V30 46 H 37.785314 30.201494 57.863066 0
M  V30 47 H 39.838866 32.014802 60.271489 0
M  V30 48 H 39.245137 31.531578 58.700612 0
M  V30 49 H 36.567845 24.635119 54.180223 0
M  V30 50 H 38.133283 23.974557 54.627034 0
M  V30 51 H 36.851914 24.097721 55.829024 0
M  V30 52 H 37.697806 26.763514 53.310151 0
M  V30 53 H 38.737524 27.719349 54.354877 0
M  V30 54 H 39.287045 26.159722 53.767688 0
M  V30 55 H 37.645152 28.377818 56.211434 0
M  V30 56 H 34.963166 33.961918 61.266215 0
M  V30 57 H 40.205263 27.703887 60.420067 0
M  V30 58 H 36.956067 31.336876 59.812185 0
M  V30 59 H 37.593357 32.328881 61.106132 0
M  V30 END ATOM
M  V30 BEGIN BOND
M  V30 1 1 3 1
M  V30 2 1 7 2
M  V30 3 1 11 2
M  V30 4 1 12 9
M  V30 5 1 14 2
M  V30 6 1 14 3
M  V30 7 1 15 4
M  V30 8 1 17 14
M  V30 9 1 18 13
M  V30 10 1 19 9
M  V30 11 1 20 1
M  V30 12 1 20 3
M  V30 13 2 20 6
M  V30 14 1 21 9
M  V30 15 1 22 16
M  V30 16 1 23 8
M  V30 17 1 23 10
M  V30 18 1 23 17
M  V30 19 1 24 11
M  V30 20 1 24 23
M  V30 21 1 25 1
M  V30 22 1 25 4
M  V30 23 1 25 15
M  V30 24 1 26 13
M  V30 25 2 26 16
M  V30 26 2 27 5
M  V30 27 1 27 26
M  V30 28 1 28 5
M  V30 29 1 28 12
M  V30 30 2 28 22
M  V30 31 1 29 18
M  V30 32 1 20 29 CFG=1
M  V30 33 1 1 30 CFG=3
M  V30 34 1 2 31 CFG=1
M  V30 35 1 3 32 CFG=3
M  V30 36 1 33 4
M  V30 37 1 34 4
M  V30 38 1 35 5
M  V30 39 1 36 7
M  V30 40 1 37 7
M  V30 41 1 38 7
M  V30 42 1 39 9
M  V30 43 1 40 11
M  V30 44 1 41 11
M  V30 45 1 42 12
M  V30 46 1 14 43 CFG=1
M  V30 47 1 44 15
M  V30 48 1 45 15
M  V30 49 1 46 16
M  V30 50 1 47 18
M  V30 51 1 48 18
M  V30 52 1 49 19
M  V30 53 1 50 19
M  V30 54 1 51 19
M  V30 55 1 52 21
M  V30 56 1 53 21
M  V30 57 1 54 21
M  V30 58 1 55 22
M  V30 59 1 56 25
M  V30 60 1 57 27
M  V30 61 1 58 29
M  V30 62 1 59 29
M  V30 END BOND
M  V30 END CTAB
M  END
>  <i_epik_Tot_Q>  (1) 
0

>  <i_epik_Tot_abs_Q>  (1) 
0

>  <i_i_glide_confnum>  (1) 
215

>  <i_i_glide_lignum>  (1) 
83

>  <i_i_glide_posenum>  (1) 
286

>  <i_i_glide_rotatable_bonds>  (1) 
8

>  <i_lp_mmshare_version>  (1) 
72125

>  <i_m_source_file_index>  (1) 
41

>  <i_f3d_flags>  (1) 
0

>  <num_sample>  (1) 
50

>  <b_lp_Chiralities_Consistent>  (1) 
1

>  <r_epik_Charging_Adjusted_Penalty>  (1) 
0.10621715127672696

>  <r_epik_Ionization_Penalty>  (1) 
0.10621715241272391

>  <r_epik_Ionization_Penalty_Charging>  (1) 
0

>  <r_epik_Ionization_Penalty_Neutral>  (1) 
0.10621715241272391

>  <r_epik_State_Penalty>  (1) 
0.10621715127672696

>  <r_glide_ring_energy>  (1) 
0

>  <r_i_docking_score>  (1) 
-5.8842705485231495

>  <r_i_glide_ecoul>  (1) 
0.20665819093467497

>  <r_i_glide_eff_state_penalty>  (1) 
0.10621715127672696

>  <r_i_glide_einternal>  (1) 
7.6400076935972567

>  <r_i_glide_emodel>  (1) 
-46.122672576335674

>  <r_i_glide_emodel_strain>  (1) 
1.4405080989382029

>  <r_i_glide_energy>  (1) 
-38.55142747097355

>  <r_i_glide_erotb>  (1) 
0.70566581847089904

>  <r_i_glide_esite>  (1) 
-0.047414347392608434

>  <r_i_glide_evdw>  (1) 
-38.758085661908225

>  <r_i_glide_gscore>  (1) 
-5.9904876997998766

>  <r_i_glide_gscore_strain>  (1) 
0

>  <r_i_glide_hbond>  (1) 
0

>  <r_i_glide_ligand_efficiency>  (1) 
-0.20290588098355689

>  <r_i_glide_ligand_efficiency_ln>  (1) 
-1.3473487433850737

>  <r_i_glide_ligand_efficiency_sa>  (1) 
-0.62339115217639185

>  <r_i_glide_lipo>  (1) 
-3.6203883169823063

>  <r_i_glide_metal>  (1) 
-0

>  <r_i_glide_rewards>  (1) 
-1.1214452994406512

>  <r_lp_Energy>  (1) 
16.736861999999999

>  <s_epik_cmdline>  (1) 
J2VwaWtfcHl0aG9uJywgJy1waHQnLCAnMS4wJywgJy1waCcsICc3LjQnLCAnLXRuJywgJzgnLCAnLW1hJywgJzUwMCcsICctaW1hZScsICc8aW5maWxlLm1hZT4nLCAnLW9tYWUnLCAnPG91dGZpbGUubWFlPic=

>  <s_epik_input>  (1) 
RkMxKEYpU1tDQEBIXShbQ0BIXShbQ0gzXSlbQ0gyXU8xKVtDQEBIXTJbQ0BIXShbQ0hdM1tDSDJdW0NIMl0zKVAyKD1PKVtDSDJdW0NIMl1PYzRbY0hdW2NIXWMoW2NIXVtjSF00KVtOSF1bQ0hdKFtDSDNdKVtDSDNd

>  <s_glide_docking_method>  (1) 
confgen

>  <s_i_glide_gridfile>  (1) 
gpcr_5ht2c_6bqh_protein_autoprepared_prepared

>  <s_lp_Force_Field>  (1) 
S-OPLS

>  <s_lp_Variant>  (1) 
DiffSBDD_40-1

>  <s_m_source_file>  (1) 
generated_GPCR_5HT2C_ligand_DiffSBDD_2026-06-23_prepared.sdf

>  <GenAI_Model>  (1) 
DiffSBDD

>  <Protein>  (1) 
GPCR_5HT2C

$$$$
DiffSBDD_22
     RDKit          3D

  0  0  0  0  0  0  0  0  0  0999 V3000
M  V30 BEGIN CTAB
M  V30 COUNTS 69 72 0 0 1
M  V30 BEGIN ATOM
M  V30 1 N 38.143803 25.087181 57.767200 0
M  V30 2 C 40.015387 28.197300 55.124050 0
M  V30 3 C 36.045090 34.246693 61.562739 0
M  V30 4 O 38.034450 26.901776 53.981010 0
M  V30 5 C 36.865187 32.313582 59.672838 0
M  V30 6 N 42.417310 32.104219 65.340618 0
M  V30 7 C 38.939621 27.688444 56.103885 0 CFG=1
M  V30 8 C 35.283834 33.088711 61.366804 0
M  V30 9 C 41.093282 33.112023 63.068819 0
M  V30 10 C 37.296604 31.262707 58.683091 0 CFG=2
M  V30 11 S 40.448488 27.937416 58.505058 0
M  V30 12 C 38.897895 30.319603 56.691137 0
M  V30 13 C 37.049104 25.860908 57.265234 0
M  V30 14 C 38.170040 28.938521 56.696243 0
M  V30 15 C 40.442106 35.854511 62.964921 0
M  V30 16 C 37.534568 36.892905 60.162013 0
M  V30 17 N 37.154050 25.969634 55.824773 0
M  V30 18 C 39.339219 25.518580 57.736342 0
M  V30 19 C 38.036797 35.724993 61.035401 0 CFG=1
M  V30 20 O 37.644312 38.124932 60.852689 0
M  V30 21 C 37.216618 34.456989 60.815754 0
M  V30 22 C 42.152503 27.337619 58.593247 0
M  V30 23 C 37.626852 33.493955 59.866249 0
M  V30 24 C 41.112120 35.336451 64.089834 0
M  V30 25 C 40.093898 35.005565 61.895291 0
M  V30 26 O 38.565942 30.740675 59.099254 0
M  V30 27 O 39.430296 35.511061 60.806795 0
M  V30 28 C 42.146628 33.411759 65.370924 0
M  V30 29 C 37.994911 26.809665 55.208394 0
M  V30 30 C 40.424723 33.637263 61.945813 0
M  V30 31 C 38.514982 31.306993 57.785312 0 CFG=2
M  V30 32 C 41.438206 33.961972 64.152362 0
M  V30 33 O 42.444217 34.137575 66.315678 0
M  V30 34 C 43.111269 28.197047 57.768060 0
M  V30 35 C 39.774251 26.878135 57.183624 0 CFG=1
M  V30 36 C 35.690794 32.125115 60.429616 0
M  V30 37 H 40.675709 26.568001 56.654857 0
M  V30 38 H 40.844847 28.686869 55.628377 0
M  V30 39 H 40.439375 27.337824 54.592711 0
M  V30 40 H 39.619604 28.893657 54.382077 0
M  V30 41 H 35.730666 34.977603 62.291337 0
M  V30 42 H 42.149519 31.552233 64.542061 0
M  V30 43 H 42.888137 31.672118 66.121093 0
M  V30 44 H 34.386709 32.936515 61.943304 0
M  V30 45 H 41.335497 32.060980 63.097758 0
M  V30 46 H 36.531102 30.511266 58.500278 0
M  V30 47 H 38.751968 30.805174 55.725901 0
M  V30 48 H 39.971210 30.200910 56.809690 0
M  V30 49 H 36.948852 26.817119 57.768170 0
M  V30 50 H 36.118169 25.338039 57.483809 0
M  V30 51 H 37.864204 28.718505 57.716394 0
M  V30 52 H 37.245228 29.096126 56.147164 0
M  V30 53 H 40.190298 36.904393 62.923729 0
M  V30 54 H 36.472370 36.762348 59.949686 0
M  V30 55 H 38.043757 36.936974 59.201466 0
M  V30 56 H 36.541445 25.395345 55.264789 0
M  V30 57 H 40.162116 24.918175 58.126187 0
M  V30 58 H 37.870508 36.001996 62.079503 0
M  V30 59 H 37.119513 38.772451 60.401278 0
M  V30 60 H 42.444958 27.338493 59.636959 0
M  V30 61 H 42.196944 26.295531 58.289099 0
M  V30 62 H 38.526844 33.655771 59.294236 0
M  V30 63 H 41.372712 35.993180 64.908278 0
M  V30 64 H 40.159133 32.987533 61.124776 0
M  V30 65 H 39.014853 32.267535 57.689478 0
M  V30 66 H 44.111381 27.765610 57.761116 0
M  V30 67 H 42.773595 28.280931 56.740211 0
M  V30 68 H 43.185380 29.207748 58.167556 0
M  V30 69 H 35.103863 31.234401 60.290842 0
M  V30 END ATOM
M  V30 BEGIN BOND
M  V30 1 1 7 2 CFG=3
M  V30 2 2 8 3
M  V30 3 1 10 5
M  V30 4 1 13 1
M  V30 5 1 14 7
M  V30 6 1 14 12
M  V30 7 1 17 13
M  V30 8 2 18 1
M  V30 9 1 19 16
M  V30 10 1 20 16
M  V30 11 1 21 3
M  V30 12 1 21 19
M  V30 13 1 22 11
M  V30 14 1 23 5
M  V30 15 2 23 21
M  V30 16 2 24 15
M  V30 17 1 25 15
M  V30 18 1 26 10
M  V30 19 1 27 19
M  V30 20 1 27 25
M  V30 21 1 28 6
M  V30 22 2 29 4
M  V30 23 1 29 7
M  V30 24 1 29 17
M  V30 25 1 30 9
M  V30 26 2 30 25
M  V30 27 1 31 10
M  V30 28 1 31 12
M  V30 29 1 31 26
M  V30 30 2 32 9
M  V30 31 1 32 24
M  V30 32 1 32 28
M  V30 33 2 33 28
M  V30 34 1 34 22
M  V30 35 1 35 7
M  V30 36 1 35 11
M  V30 37 1 35 18
M  V30 38 2 36 5
M  V30 39 1 36 8
M  V30 40 1 35 37 CFG=3
M  V30 41 1 38 2
M  V30 42 1 39 2
M  V30 43 1 40 2
M  V30 44 1 41 3
M  V30 45 1 42 6
M  V30 46 1 43 6
M  V30 47 1 44 8
M  V30 48 1 45 9
M  V30 49 1 10 46 CFG=3
M  V30 50 1 47 12
M  V30 51 1 48 12
M  V30 52 1 49 13
M  V30 53 1 50 13
M  V30 54 1 51 14
M  V30 55 1 52 14
M  V30 56 1 53 15
M  V30 57 1 54 16
M  V30 58 1 55 16
M  V30 59 1 56 17
M  V30 60 1 57 18
M  V30 61 1 19 58 CFG=1
M  V30 62 1 59 20
M  V30 63 1 60 22
M  V30 64 1 61 22
M  V30 65 1 62 23
M  V30 66 1 63 24
M  V30 67 1 64 30
M  V30 68 1 31 65 CFG=1
M  V30 69 1 66 34
M  V30 70 1 67 34
M  V30 71 1 68 34
M  V30 72 1 69 36
M  V30 END BOND
M  V30 END CTAB
M  END
>  <i_epik_Tot_Q>  (1) 
0

>  <i_epik_Tot_abs_Q>  (1) 
0

>  <i_i_glide_confnum>  (1) 
894

>  <i_i_glide_lignum>  (1) 
50

>  <i_i_glide_posenum>  (1) 
127

>  <i_i_glide_rotatable_bonds>  (1) 
12

>  <i_lp_mmshare_version>  (1) 
72125

>  <i_m_source_file_index>  (1) 
23

>  <i_f3d_flags>  (1) 
0

>  <num_sample>  (1) 
50

>  <b_lp_Chiralities_Consistent>  (1) 
1

>  <r_epik_Charging_Adjusted_Penalty>  (1) 
0

>  <r_epik_Ionization_Penalty>  (1) 
0.00010073509857401548

>  <r_epik_Ionization_Penalty_Charging>  (1) 
0

>  <r_epik_Ionization_Penalty_Neutral>  (1) 
0.00010073509857401548

>  <r_epik_State_Penalty>  (1) 
-0

>  <r_glide_ring_energy>  (1) 
0

>  <r_i_docking_score>  (1) 
-5.8816595947248276

>  <r_i_glide_ecoul>  (1) 
-4.6670816177576286

>  <r_i_glide_eff_state_penalty>  (1) 
-0

>  <r_i_glide_einternal>  (1) 
13.7341986913671

>  <r_i_glide_emodel>  (1) 
-64.515084877530029

>  <r_i_glide_emodel_strain>  (1) 
0.63119241585874875

>  <r_i_glide_energy>  (1) 
-53.850954678260017

>  <r_i_glide_erotb>  (1) 
0.70459601099453772

>  <r_i_glide_esite>  (1) 
0

>  <r_i_glide_evdw>  (1) 
-49.183873060502385

>  <r_i_glide_gscore>  (1) 
-5.8816595947248276

>  <r_i_glide_gscore_strain>  (1) 
0

>  <r_i_glide_hbond>  (1) 
-0.14987119321060627

>  <r_i_glide_ligand_efficiency>  (1) 
-0.16337943318680076

>  <r_i_glide_ligand_efficiency_ln>  (1) 
-1.2832192194903371

>  <r_i_glide_ligand_efficiency_sa>  (1) 
-0.53946700234845668

>  <r_i_glide_lipo>  (1) 
-3.1603681271924806

>  <r_i_glide_metal>  (1) 
-0

>  <r_i_glide_rewards>  (1) 
-0.11676038962751445

>  <r_lp_Energy>  (1) 
59.581189999999999

>  <r_lp_tautomer_probability>  (1) 
1

>  <s_epik_Chemistry_Notes>  (1) 
This compound has an imine and may undergo hydrolysis. This compound contains an acetal/aminal-like group ( X-CH(R)-Y where X, Y are N, S, or O) that may be acid/base labile, releasing an aldehyde.

>  <s_epik_cmdline>  (1) 
J2VwaWtfcHl0aG9uJywgJy1waHQnLCAnMS4wJywgJy1waCcsICc3LjQnLCAnLXRuJywgJzgnLCAnLW1hJywgJzUwMCcsICctaW1hZScsICc8aW5maWxlLm1hZT4nLCAnLW9tYWUnLCAnPG91dGZpbGUubWFlPic=

>  <s_epik_input>  (1) 
W0NIM11bQ0gyXVNDMT1bQ0hdW05IXVtDSDJdW05IXUMoPU8pW0NAQF0xKFtDSDNdKVtDSDJdW0NIMl1bQ0BASF0yT1tDQEhdMmMzW2NIXWMoW2NIXVtjSF1bY0hdMylbQ0BIXShbQ0gyXVtPSF0pT2M0W2NIXVtjSF1jKFtjSF1bY0hdNClDKD1PKVtOSDJd

>  <s_glide_docking_method>  (1) 
confgen

>  <s_i_glide_gridfile>  (1) 
gpcr_5ht2c_6bqh_protein_autoprepared_prepared

>  <s_lp_Force_Field>  (1) 
S-OPLS

>  <s_lp_Variant>  (1) 
DiffSBDD_22-2

>  <s_m_source_file>  (1) 
generated_GPCR_5HT2C_ligand_DiffSBDD_2026-06-23_prepared.sdf

>  <GenAI_Model>  (1) 
DiffSBDD

>  <Protein>  (1) 
GPCR_5HT2C

$$$$
DiffSBDD_14
     RDKit          3D

  0  0  0  0  0  0  0  0  0  0999 V3000
M  V30 BEGIN CTAB
M  V30 COUNTS 58 59 0 0 1
M  V30 BEGIN ATOM
M  V30 1 Cl 41.485446 35.068849 63.618102 0
M  V30 2 C 38.931229 29.577070 59.740799 0
M  V30 3 N 38.100802 36.827477 62.396313 0
M  V30 4 C 37.629981 35.916743 61.509793 0
M  V30 5 C 38.805536 28.472125 54.206584 0
M  V30 6 C 39.644816 31.337688 50.396415 0
M  V30 7 C 41.440138 29.737646 50.943910 0
M  V30 8 C 37.516882 30.010655 59.304901 0 CFG=1
M  V30 9 C 39.431522 31.141940 55.216203 0
M  V30 10 C 40.004157 35.359721 62.783891 0
M  V30 11 C 40.166839 30.099225 51.064772 0
M  V30 12 C 39.270213 36.539057 63.018504 0
M  V30 13 O 36.842459 31.962096 61.445446 0 CHG=-1
M  V30 14 N 37.278313 31.477340 59.349620 0 CHG=1
M  V30 15 C 39.168861 29.280551 51.878559 0
M  V30 16 C 39.351701 28.652723 55.637834 0
M  V30 17 C 39.508133 34.425742 61.861717 0
M  V30 18 C 37.740552 32.231132 60.532486 0 CFG=1
M  V30 19 C 38.292617 34.708354 61.209147 0
M  V30 20 C 37.706808 33.739660 60.183262 0
M  V30 21 C 37.556240 30.187682 56.655920 0
M  V30 22 C 39.026261 30.042609 56.222345 0 CFG=2
M  V30 23 C 38.865433 30.893800 53.808670 0
M  V30 24 N 39.306483 29.560422 53.331769 0 CFG=1 CHG=1
M  V30 25 C 37.106047 29.430139 57.929620 0
M  V30 26 H 39.094965 28.518597 59.543566 0
M  V30 27 H 39.715124 30.137450 59.238861 0
M  V30 28 H 39.071073 29.715733 60.814000 0
M  V30 29 H 36.700017 36.164222 61.021545 0
M  V30 30 H 37.714777 28.460255 54.194354 0
M  V30 31 H 39.132861 27.502403 53.828878 0
M  V30 32 H 39.282444 32.106173 51.074320 0
M  V30 33 H 40.430629 31.738438 49.763610 0
M  V30 34 H 38.845118 31.079196 49.728257 0
M  V30 35 H 41.807884 28.845916 51.413722 0
M  V30 36 H 42.136185 30.329854 50.367310 0
M  V30 37 H 36.832841 29.583814 60.037321 0
M  V30 38 H 39.124639 32.125871 55.572849 0
M  V30 39 H 40.518448 31.183665 55.149442 0
M  V30 40 H 39.629467 37.273719 63.723903 0
M  V30 41 H 37.724936 31.880243 58.540660 0
M  V30 42 H 38.142528 29.337733 51.520313 0
M  V30 43 H 39.447226 28.237585 51.717176 0
M  V30 44 H 38.972414 27.862450 56.284962 0
M  V30 45 H 40.436096 28.523697 55.621747 0
M  V30 46 H 40.049606 33.515081 61.658915 0
M  V30 47 H 38.790812 31.989926 60.672602 0
M  V30 48 H 38.271183 33.898774 59.263394 0
M  V30 49 H 36.682478 34.041761 59.954370 0
M  V30 50 H 37.339883 31.246267 56.770156 0
M  V30 51 H 36.908572 29.880794 55.836010 0
M  V30 52 H 39.646440 30.193540 57.100929 0
M  V30 53 H 39.244461 31.684775 53.167780 0
M  V30 54 H 37.776627 30.964498 53.802650 0
M  V30 55 H 36.019037 29.437226 57.915872 0
M  V30 56 H 37.378042 28.377324 57.864679 0
M  V30 57 H 40.304876 29.567172 53.477286 0
M  V30 58 H 36.285595 31.644142 59.255428 0
M  V30 END ATOM
M  V30 BEGIN BOND
M  V30 1 1 4 3
M  V30 2 1 8 2
M  V30 3 1 10 1
M  V30 4 1 11 6
M  V30 5 2 11 7
M  V30 6 2 12 3
M  V30 7 1 12 10
M  V30 8 1 14 8
M  V30 9 1 15 11
M  V30 10 1 16 5
M  V30 11 2 17 10
M  V30 12 1 18 13
M  V30 13 1 18 14
M  V30 14 2 19 4
M  V30 15 1 19 17
M  V30 16 1 20 18
M  V30 17 1 20 19
M  V30 18 1 22 9
M  V30 19 1 22 16
M  V30 20 1 22 21
M  V30 21 1 23 9
M  V30 22 1 24 5
M  V30 23 1 24 15
M  V30 24 1 24 23
M  V30 25 1 25 8
M  V30 26 1 25 21
M  V30 27 1 26 2
M  V30 28 1 27 2
M  V30 29 1 28 2
M  V30 30 1 29 4
M  V30 31 1 30 5
M  V30 32 1 31 5
M  V30 33 1 32 6
M  V30 34 1 33 6
M  V30 35 1 34 6
M  V30 36 1 35 7
M  V30 37 1 36 7
M  V30 38 1 8 37 CFG=1
M  V30 39 1 38 9
M  V30 40 1 39 9
M  V30 41 1 40 12
M  V30 42 1 41 14
M  V30 43 1 42 15
M  V30 44 1 43 15
M  V30 45 1 44 16
M  V30 46 1 45 16
M  V30 47 1 46 17
M  V30 48 1 18 47 CFG=1
M  V30 49 1 48 20
M  V30 50 1 49 20
M  V30 51 1 50 21
M  V30 52 1 51 21
M  V30 53 1 22 52 CFG=1
M  V30 54 1 53 23
M  V30 55 1 54 23
M  V30 56 1 55 25
M  V30 57 1 56 25
M  V30 58 1 24 57 CFG=3
M  V30 59 1 58 14
M  V30 END BOND
M  V30 END CTAB
M  END
>  <i_epik_Tot_Q>  (1) 
1

>  <i_epik_Tot_abs_Q>  (1) 
3

>  <i_i_glide_confnum>  (1) 
396

>  <i_i_glide_lignum>  (1) 
30

>  <i_i_glide_posenum>  (1) 
72

>  <i_i_glide_rotatable_bonds>  (1) 
9

>  <i_lp_mmshare_version>  (1) 
72125

>  <i_m_source_file_index>  (1) 
15

>  <i_f3d_flags>  (1) 
0

>  <num_sample>  (1) 
50

>  <b_lp_Chiralities_Consistent>  (1) 
1

>  <r_epik_Charging_Adjusted_Penalty>  (1) 
1.1654849776379888

>  <r_epik_Ionization_Penalty>  (1) 
0.58785290175030958

>  <r_epik_Ionization_Penalty_Charging>  (1) 
0.58784809198166499

>  <r_epik_Ionization_Penalty_Neutral>  (1) 
4.8097686445928234e-06

>  <r_epik_State_Penalty>  (1) 
0.57763688565632376

>  <r_glide_ring_energy>  (1) 
0

>  <r_i_docking_score>  (1) 
-5.8663748951858166

>  <r_i_glide_ecoul>  (1) 
-4.9694266387106589

>  <r_i_glide_eff_state_penalty>  (1) 
0.57763688565632376

>  <r_i_glide_einternal>  (1) 
6.0823184375973067

>  <r_i_glide_emodel>  (1) 
-44.34043938615752

>  <r_i_glide_emodel_strain>  (1) 
0.80202705134988861

>  <r_i_glide_energy>  (1) 
-33.838899907133218

>  <r_i_glide_erotb>  (1) 
1.143828235945936

>  <r_i_glide_esite>  (1) 
-0.076391362873897806

>  <r_i_glide_evdw>  (1) 
-28.86947326842256

>  <r_i_glide_gscore>  (1) 
-6.44401178084214

>  <r_i_glide_gscore_strain>  (1) 
0

>  <r_i_glide_hbond>  (1) 
-0.11540118712599291

>  <r_i_glide_ligand_efficiency>  (1) 
-0.23465499580743265

>  <r_i_glide_ligand_efficiency_ln>  (1) 
-1.3905066512283717

>  <r_i_glide_ligand_efficiency_sa>  (1) 
-0.68613537010119885

>  <r_i_glide_lipo>  (1) 
-3.370406905031663

>  <r_i_glide_metal>  (1) 
-0

>  <r_i_glide_rewards>  (1) 
-1.836752902528795

>  <r_lp_Energy>  (1) 
31.530553999999999

>  <s_epik_Chemistry_Notes>  (1) 
This compound contains an acetal/aminal-like group ( X-CH(R)-Y where X, Y are N, S, or O) that may be acid/base labile, releasing an aldehyde.

>  <s_epik_cmdline>  (1) 
J2VwaWtfcHl0aG9uJywgJy1waHQnLCAnMS4wJywgJy1waCcsICc3LjQnLCAnLXRuJywgJzgnLCAnLW1hJywgJzUwMCcsICctaW1hZScsICc8aW5maWxlLm1hZT4nLCAnLW9tYWUnLCAnPG91dGZpbGUubWFlPic=

>  <s_epik_input>  (1) 
Q2xjMVtjSF1uW2NIXWMoW2NIXTEpW0NIMl1bQ0BASF0oW09IXSlbTkhdW0NASF0oW0NIM10pW0NIMl1bQ0gyXVtDSF0yW0NIMl1bQ0gyXU4oW0NIMl1bQ0gyXTIpW0NIMl1DKFtDSDNdKT1bQ0gyXQ==

>  <s_glide_docking_method>  (1) 
confgen

>  <s_i_glide_gridfile>  (1) 
gpcr_5ht2c_6bqh_protein_autoprepared_prepared

>  <s_lp_Force_Field>  (1) 
S-OPLS

>  <s_lp_Variant>  (1) 
DiffSBDD_14-4

>  <s_m_source_file>  (1) 
generated_GPCR_5HT2C_ligand_DiffSBDD_2026-06-23_prepared.sdf

>  <GenAI_Model>  (1) 
DiffSBDD

>  <Protein>  (1) 
GPCR_5HT2C

$$$$
DiffSBDD_14
     RDKit          3D

  0  0  0  0  0  0  0  0  0  0999 V3000
M  V30 BEGIN CTAB
M  V30 COUNTS 58 59 0 0 1
M  V30 BEGIN ATOM
M  V30 1 Cl 41.243837 35.581610 63.147551 0
M  V30 2 C 38.774267 29.663238 60.050305 0
M  V30 3 N 37.775868 37.129754 61.877492 0
M  V30 4 C 37.310296 36.131360 61.087944 0
M  V30 5 C 38.944590 28.238312 54.615459 0
M  V30 6 C 40.047253 30.649752 50.982725 0
M  V30 7 C 39.818395 28.297564 50.170864 0
M  V30 8 C 37.389256 30.016228 59.464259 0 CFG=1
M  V30 9 C 39.405435 31.014014 55.390676 0
M  V30 10 C 39.729725 35.754586 62.340476 0
M  V30 11 C 39.517229 29.225820 51.085544 0
M  V30 12 C 38.969478 36.930602 62.488364 0
M  V30 13 O 36.810104 32.117758 61.437293 0 CHG=-1
M  V30 14 N 37.081633 31.469906 59.367506 0 CHG=1
M  V30 15 C 38.620916 28.911998 52.276403 0
M  V30 16 C 39.537801 28.599154 55.991500 0
M  V30 17 C 39.236089 34.727038 61.524707 0
M  V30 18 C 37.592984 32.368491 60.418443 0 CFG=1
M  V30 19 C 37.997484 34.916930 60.882299 0
M  V30 20 C 37.410301 33.841098 59.967551 0
M  V30 21 C 37.569685 30.032988 56.836577 0
M  V30 22 C 39.071798 29.982253 56.480154 0 CFG=2
M  V30 23 C 38.750420 30.642790 54.052409 0
M  V30 24 N 39.190413 29.295260 53.593202 0 CFG=1 CHG=1
M  V30 25 C 37.109323 29.311912 58.121227 0
M  V30 26 H 38.948218 28.587393 60.024080 0
M  V30 27 H 39.594711 30.145670 59.524503 0
M  V30 28 H 38.838579 29.951001 61.101088 0
M  V30 29 H 36.364890 36.311960 60.600056 0
M  V30 30 H 37.871981 28.055897 54.697974 0
M  V30 31 H 39.386177 27.299036 54.279349 0
M  V30 32 H 40.680827 30.908167 51.831112 0
M  V30 33 H 40.659853 30.766125 50.087127 0
M  V30 34 H 39.245153 31.381300 50.895475 0
M  V30 35 H 39.438478 27.287355 50.248647 0
M  V30 36 H 40.445176 28.537129 49.333910 0
M  V30 37 H 36.659190 29.620342 60.166047 0
M  V30 38 H 39.081954 32.008047 55.702298 0
M  V30 39 H 40.484920 31.078402 55.255279 0
M  V30 40 H 39.327880 37.737276 63.111066 0
M  V30 41 H 37.437110 31.792393 58.479777 0
M  V30 42 H 37.636396 29.336959 52.133813 0
M  V30 43 H 38.445054 27.834112 52.257718 0
M  V30 44 H 39.275384 27.830699 56.719003 0
M  V30 45 H 40.627360 28.585966 55.928121 0
M  V30 46 H 39.799113 33.816949 61.392927 0
M  V30 47 H 38.668272 32.209915 60.455878 0
M  V30 48 H 37.878030 33.982447 58.991377 0
M  V30 49 H 36.348128 34.051573 59.817788 0
M  V30 50 H 37.246455 31.069151 56.863861 0
M  V30 51 H 36.988327 29.623792 56.014566 0
M  V30 52 H 39.649887 30.252008 57.360530 0
M  V30 53 H 39.012808 31.404906 53.321907 0
M  V30 54 H 37.663293 30.675781 54.139055 0
M  V30 55 H 36.028322 29.230126 58.048184 0
M  V30 56 H 37.468461 28.282770 58.136492 0
M  V30 57 H 40.189825 29.348554 53.466936 0
M  V30 58 H 36.078313 31.587302 59.330254 0
M  V30 END ATOM
M  V30 BEGIN BOND
M  V30 1 1 4 3
M  V30 2 1 8 2
M  V30 3 1 10 1
M  V30 4 1 11 6
M  V30 5 2 11 7
M  V30 6 2 12 3
M  V30 7 1 12 10
M  V30 8 1 14 8
M  V30 9 1 15 11
M  V30 10 1 16 5
M  V30 11 2 17 10
M  V30 12 1 18 13
M  V30 13 1 18 14
M  V30 14 2 19 4
M  V30 15 1 19 17
M  V30 16 1 20 18
M  V30 17 1 20 19
M  V30 18 1 22 9
M  V30 19 1 22 16
M  V30 20 1 22 21
M  V30 21 1 23 9
M  V30 22 1 24 5
M  V30 23 1 24 15
M  V30 24 1 24 23
M  V30 25 1 25 8
M  V30 26 1 25 21
M  V30 27 1 26 2
M  V30 28 1 27 2
M  V30 29 1 28 2
M  V30 30 1 29 4
M  V30 31 1 30 5
M  V30 32 1 31 5
M  V30 33 1 32 6
M  V30 34 1 33 6
M  V30 35 1 34 6
M  V30 36 1 35 7
M  V30 37 1 36 7
M  V30 38 1 8 37 CFG=1
M  V30 39 1 38 9
M  V30 40 1 39 9
M  V30 41 1 40 12
M  V30 42 1 41 14
M  V30 43 1 42 15
M  V30 44 1 43 15
M  V30 45 1 44 16
M  V30 46 1 45 16
M  V30 47 1 46 17
M  V30 48 1 18 47 CFG=1
M  V30 49 1 48 20
M  V30 50 1 49 20
M  V30 51 1 50 21
M  V30 52 1 51 21
M  V30 53 1 22 52 CFG=1
M  V30 54 1 53 23
M  V30 55 1 54 23
M  V30 56 1 55 25
M  V30 57 1 56 25
M  V30 58 1 24 57 CFG=3
M  V30 59 1 58 14
M  V30 END BOND
M  V30 END CTAB
M  END
>  <i_epik_Tot_Q>  (1) 
1

>  <i_epik_Tot_abs_Q>  (1) 
3

>  <i_i_glide_confnum>  (1) 
396

>  <i_i_glide_lignum>  (1) 
30

>  <i_i_glide_posenum>  (1) 
72

>  <i_i_glide_rotatable_bonds>  (1) 
9

>  <i_lp_mmshare_version>  (1) 
72125

>  <i_m_source_file_index>  (1) 
15

>  <i_f3d_flags>  (1) 
0

>  <num_sample>  (1) 
50

>  <b_lp_Chiralities_Consistent>  (1) 
1

>  <r_epik_Charging_Adjusted_Penalty>  (1) 
1.1654849776379888

>  <r_epik_Ionization_Penalty>  (1) 
0.58785290175030958

>  <r_epik_Ionization_Penalty_Charging>  (1) 
0.58784809198166499

>  <r_epik_Ionization_Penalty_Neutral>  (1) 
4.8097686445928234e-06

>  <r_epik_State_Penalty>  (1) 
0.57763688565632376

>  <r_glide_ring_energy>  (1) 
0

>  <r_i_docking_score>  (1) 
-5.8637356919201356

>  <r_i_glide_ecoul>  (1) 
-3.7060073781899101

>  <r_i_glide_eff_state_penalty>  (1) 
0.57763688565632376

>  <r_i_glide_einternal>  (1) 
5.9488499098199146

>  <r_i_glide_emodel>  (1) 
-48.439842257107045

>  <r_i_glide_emodel_strain>  (1) 
1.2967155353197768

>  <r_i_glide_energy>  (1) 
-38.372132010241828

>  <r_i_glide_erotb>  (1) 
1.143828235945936

>  <r_i_glide_esite>  (1) 
-0.088697282506428998

>  <r_i_glide_evdw>  (1) 
-34.666124632051918

>  <r_i_glide_gscore>  (1) 
-6.441372577576459

>  <r_i_glide_gscore_strain>  (1) 
0

>  <r_i_glide_hbond>  (1) 
-0.075778480226319944

>  <r_i_glide_ligand_efficiency>  (1) 
-0.23454942767680542

>  <r_i_glide_ligand_efficiency_ln>  (1) 
-1.3898810809638658

>  <r_i_glide_ligand_efficiency_sa>  (1) 
-0.68582668701465488

>  <r_i_glide_lipo>  (1) 
-3.3244166442767433

>  <r_i_glide_metal>  (1) 
-0

>  <r_i_glide_rewards>  (1) 
-1.8071010681818191

>  <r_lp_Energy>  (1) 
31.530553999999999

>  <s_epik_Chemistry_Notes>  (1) 
This compound contains an acetal/aminal-like group ( X-CH(R)-Y where X, Y are N, S, or O) that may be acid/base labile, releasing an aldehyde.

>  <s_epik_cmdline>  (1) 
J2VwaWtfcHl0aG9uJywgJy1waHQnLCAnMS4wJywgJy1waCcsICc3LjQnLCAnLXRuJywgJzgnLCAnLW1hJywgJzUwMCcsICctaW1hZScsICc8aW5maWxlLm1hZT4nLCAnLW9tYWUnLCAnPG91dGZpbGUubWFlPic=

>  <s_epik_input>  (1) 
Q2xjMVtjSF1uW2NIXWMoW2NIXTEpW0NIMl1bQ0BASF0oW09IXSlbTkhdW0NASF0oW0NIM10pW0NIMl1bQ0gyXVtDSF0yW0NIMl1bQ0gyXU4oW0NIMl1bQ0gyXTIpW0NIMl1DKFtDSDNdKT1bQ0gyXQ==

>  <s_glide_docking_method>  (1) 
confgen

>  <s_i_glide_gridfile>  (1) 
gpcr_5ht2c_6bqh_protein_autoprepared_prepared

>  <s_lp_Force_Field>  (1) 
S-OPLS

>  <s_lp_Variant>  (1) 
DiffSBDD_14-4

>  <s_m_source_file>  (1) 
generated_GPCR_5HT2C_ligand_DiffSBDD_2026-06-23_prepared.sdf

>  <GenAI_Model>  (1) 
DiffSBDD

>  <Protein>  (1) 
GPCR_5HT2C

$$$$
DiffSBDD_8
     RDKit          3D

  0  0  0  0  0  0  0  0  0  0999 V3000
M  V30 BEGIN CTAB
M  V30 COUNTS 49 52 0 0 1
M  V30 BEGIN ATOM
M  V30 1 C 40.583706 28.501710 57.365980 0
M  V30 2 C 41.340383 27.983502 58.426150 0
M  V30 3 C 35.883070 32.403846 60.460358 0 CFG=1
M  V30 4 C 39.683072 28.808393 60.011919 0
M  V30 5 C 38.935949 29.350392 58.943881 0
M  V30 6 C 38.075089 33.294960 55.648733 0
M  V30 7 C 37.313828 32.401833 59.989574 0 CFG=2
M  V30 8 C 38.045174 31.927475 57.657546 0
M  V30 9 C 38.460759 31.312040 54.055873 0
M  V30 10 C 39.797163 30.627713 53.688198 0
M  V30 11 C 37.729556 31.473397 58.887715 0
M  V30 12 O 36.929925 31.838224 61.258459 0
M  V30 13 C 37.663425 30.027706 59.206926 0
M  V30 14 C 40.045155 30.933060 51.127007 0
M  V30 15 C 37.890085 33.379456 57.236243 0
M  V30 16 C 38.350434 31.146877 56.538335 0
M  V30 17 F 39.245154 28.939760 61.286428 0
M  V30 18 N 38.724580 29.823624 56.499979 0
M  V30 19 N 42.543325 27.337746 58.167766 0
M  V30 20 C 40.889847 28.137760 59.752072 0
M  V30 21 C 39.402969 29.210314 57.632755 0
M  V30 22 C 35.219738 33.627055 61.038971 0
M  V30 23 N 38.303887 31.853378 55.427553 0 CHG=1
M  V30 24 C 39.736434 29.978523 52.285318 0
M  V30 25 H 40.936655 28.398830 56.349813 0
M  V30 26 H 35.209128 31.669159 60.022923 0
M  V30 27 H 38.967604 33.852108 55.367735 0
M  V30 28 H 37.245142 33.680770 55.069142 0
M  V30 29 H 37.883054 33.327073 60.057545 0
M  V30 30 H 37.642355 30.610111 53.899747 0
M  V30 31 H 38.288911 32.137715 53.367754 0
M  V30 32 H 40.621284 31.337731 53.743335 0
M  V30 33 H 40.045697 29.840553 54.393143 0
M  V30 34 H 36.891602 29.583538 58.576220 0
M  V30 35 H 37.329968 29.819072 60.218285 0
M  V30 36 H 39.989102 30.409247 50.172378 0
M  V30 37 H 39.350500 31.768228 51.079719 0
M  V30 38 H 41.051746 31.337747 51.217219 0
M  V30 39 H 38.647022 33.986495 57.718546 0
M  V30 40 H 36.898230 33.747841 57.499928 0
M  V30 41 H 42.787920 27.059599 57.227083 0
M  V30 42 H 43.029791 26.852854 58.910250 0
M  V30 43 H 41.470555 27.738066 60.570705 0
M  V30 44 H 34.663030 34.137730 60.253855 0
M  V30 45 H 34.525657 33.337725 61.828256 0
M  V30 46 H 35.957936 34.313884 61.453710 0
M  V30 47 H 40.445338 29.157765 52.213746 0
M  V30 48 H 38.765457 29.507876 52.131547 0
M  V30 49 H 38.913939 29.474254 55.572720 0
M  V30 END ATOM
M  V30 BEGIN BOND
M  V30 1 1 2 1
M  V30 2 2 5 4
M  V30 3 1 7 3
M  V30 4 1 10 9
M  V30 5 1 11 7
M  V30 6 2 11 8
M  V30 7 1 12 3
M  V30 8 1 12 7
M  V30 9 1 13 5
M  V30 10 1 13 11
M  V30 11 1 15 6
M  V30 12 1 15 8
M  V30 13 1 16 8
M  V30 14 1 17 4
M  V30 15 1 18 16
M  V30 16 1 19 2
M  V30 17 2 20 2
M  V30 18 1 20 4
M  V30 19 2 21 1
M  V30 20 1 21 5
M  V30 21 1 21 18
M  V30 22 1 22 3
M  V30 23 1 23 6
M  V30 24 1 23 9
M  V30 25 2 23 16
M  V30 26 1 24 10
M  V30 27 1 24 14
M  V30 28 1 25 1
M  V30 29 1 3 26 CFG=3
M  V30 30 1 27 6
M  V30 31 1 28 6
M  V30 32 1 7 29 CFG=1
M  V30 33 1 30 9
M  V30 34 1 31 9
M  V30 35 1 32 10
M  V30 36 1 33 10
M  V30 37 1 34 13
M  V30 38 1 35 13
M  V30 39 1 36 14
M  V30 40 1 37 14
M  V30 41 1 38 14
M  V30 42 1 39 15
M  V30 43 1 40 15
M  V30 44 1 41 19
M  V30 45 1 42 19
M  V30 46 1 43 20
M  V30 47 1 44 22
M  V30 48 1 45 22
M  V30 49 1 46 22
M  V30 50 1 47 24
M  V30 51 1 48 24
M  V30 52 1 49 18
M  V30 END BOND
M  V30 END CTAB
M  END
>  <i_epik_Tot_Q>  (1) 
1

>  <i_epik_Tot_abs_Q>  (1) 
1

>  <i_i_glide_confnum>  (1) 
32

>  <i_i_glide_lignum>  (1) 
17

>  <i_i_glide_posenum>  (1) 
333

>  <i_i_glide_rotatable_bonds>  (1) 
4

>  <i_lp_mmshare_version>  (1) 
72125

>  <i_m_source_file_index>  (1) 
9

>  <i_f3d_flags>  (1) 
0

>  <num_sample>  (1) 
50

>  <b_lp_Chiralities_Consistent>  (1) 
1

>  <r_epik_Charging_Adjusted_Penalty>  (1) 
0.17413095498699085

>  <r_epik_Ionization_Penalty>  (1) 
0.087068242600636711

>  <r_epik_Ionization_Penalty_Charging>  (1) 
0.087065477493495413

>  <r_epik_Ionization_Penalty_Neutral>  (1) 
2.7651071412945434e-06

>  <r_epik_State_Penalty>  (1) 
0.087065477493495441

>  <r_glide_ring_energy>  (1) 
0

>  <r_i_docking_score>  (1) 
-5.8622303705373913

>  <r_i_glide_ecoul>  (1) 
-3.8931703078380546

>  <r_i_glide_eff_state_penalty>  (1) 
0.087065477493495441

>  <r_i_glide_einternal>  (1) 
6.8373355076772349

>  <r_i_glide_emodel>  (1) 
-41.966353723087479

>  <r_i_glide_emodel_strain>  (1) 
1.0564395931523478

>  <r_i_glide_energy>  (1) 
-33.770326146994208

>  <r_i_glide_erotb>  (1) 
0.51678233388810157

>  <r_i_glide_esite>  (1) 
-0.16335073778266165

>  <r_i_glide_evdw>  (1) 
-29.877155839156156

>  <r_i_glide_gscore>  (1) 
-5.9492958480308866

>  <r_i_glide_gscore_strain>  (1) 
0

>  <r_i_glide_hbond>  (1) 
-0.17310729771183289

>  <r_i_glide_ligand_efficiency>  (1) 
-0.24425959877239131

>  <r_i_glide_ligand_efficiency_ln>  (1) 
-1.4031007278930125

>  <r_i_glide_ligand_efficiency_sa>  (1) 
-0.70456660274588268

>  <r_i_glide_lipo>  (1) 
-2.2150813860484964

>  <r_i_glide_metal>  (1) 
-0

>  <r_i_glide_rewards>  (1) 
-1.8367054222424812

>  <r_lp_Energy>  (1) 
35.754514

>  <s_epik_Chemistry_Notes>  (1) 
This compound has an imine and may undergo hydrolysis.

>  <s_epik_cmdline>  (1) 
J2VwaWtfcHl0aG9uJywgJy1waHQnLCAnMS4wJywgJy1waCcsICc3LjQnLCAnLXRuJywgJzgnLCAnLW1hJywgJzUwMCcsICctaW1hZScsICc8aW5maWxlLm1hZT4nLCAnLW9tYWUnLCAnPG91dGZpbGUubWFlPic=

>  <s_epik_input>  (1) 
RmMxW2NIXWMoW05IMl0pW2NIXWMoYzEyKU49QzNDKD1DKFtDSDJdMilbQ0BIXShPNClbQ0BASF00W0NIM10pW0NIMl1bQ0gyXU4zW0NIMl1bQ0gyXVtDSDJdW0NIM10=

>  <s_glide_docking_method>  (1) 
confgen

>  <s_i_glide_gridfile>  (1) 
gpcr_5ht2c_6bqh_protein_autoprepared_prepared

>  <s_lp_Force_Field>  (1) 
S-OPLS

>  <s_lp_Variant>  (1) 
DiffSBDD_8-1

>  <s_m_source_file>  (1) 
generated_GPCR_5HT2C_ligand_DiffSBDD_2026-06-23_prepared.sdf

>  <GenAI_Model>  (1) 
DiffSBDD

>  <Protein>  (1) 
GPCR_5HT2C

$$$$
DiffSBDD_25
     RDKit          3D

  0  0  0  0  0  0  0  0  0  0999 V3000
M  V30 BEGIN CTAB
M  V30 COUNTS 36 36 0 0 1
M  V30 BEGIN ATOM
M  V30 1 C 40.087616 30.800147 54.605866 0
M  V30 2 O 38.845140 24.166351 57.367748 0
M  V30 3 C 38.213292 24.876543 56.589755 0
M  V30 4 C 39.397481 30.243100 53.348627 0
M  V30 5 C 37.889416 28.334434 55.642611 0
M  V30 6 C 37.950333 26.882511 55.146904 0
M  V30 7 C 36.808121 24.453716 56.149405 0
M  V30 8 C 40.145657 30.024937 50.928895 0
M  V30 9 C 40.245939 28.002174 56.361380 0
M  V30 10 N 38.711908 26.035465 56.086327 0
M  V30 11 C 39.261412 28.840265 56.003601 0
M  V30 12 C 39.622001 28.612409 50.744722 0
M  V30 13 C 40.045092 30.739593 52.067218 0
M  V30 14 C 40.074885 26.491810 56.438700 0
M  V30 15 C 39.451704 30.341433 55.931257 0
M  V30 16 H 40.045100 31.886571 54.580704 0
M  V30 17 H 41.144989 30.537754 54.589129 0
M  V30 18 H 39.422445 29.156455 53.374614 0
M  V30 19 H 38.351719 30.546606 53.367759 0
M  V30 20 H 37.285325 28.426082 56.546109 0
M  V30 21 H 37.426912 28.963178 54.882208 0
M  V30 22 H 36.931404 26.568805 54.935486 0
M  V30 23 H 38.465383 26.849097 54.185469 0
M  V30 24 H 36.743311 24.354607 55.065343 0
M  V30 25 H 36.568343 23.476500 56.567780 0
M  V30 26 H 36.055911 25.159872 56.502752 0
M  V30 27 H 40.631671 30.467952 50.071298 0
M  V30 28 H 41.220876 28.394053 56.612063 0
M  V30 29 H 40.444954 27.899450 50.770188 0
M  V30 30 H 38.876567 28.320211 51.482194 0
M  V30 31 H 39.146648 28.537194 49.767769 0
M  V30 32 H 40.445130 31.737719 52.093851 0
M  V30 33 H 40.793546 26.021377 55.766898 0
M  V30 34 H 40.343240 26.190548 57.452891 0
M  V30 35 H 38.480203 30.822162 56.058630 0
M  V30 36 H 40.045136 30.673271 56.779749 0
M  V30 END ATOM
M  V30 BEGIN BOND
M  V30 1 2 3 2
M  V30 2 1 4 1
M  V30 3 1 6 5
M  V30 4 1 7 3
M  V30 5 1 10 3
M  V30 6 1 10 6
M  V30 7 1 11 5
M  V30 8 2 11 9
M  V30 9 1 12 8
M  V30 10 1 13 4
M  V30 11 2 13 8
M  V30 12 1 14 9
M  V30 13 1 14 10
M  V30 14 1 15 1
M  V30 15 1 15 11
M  V30 16 1 16 1
M  V30 17 1 17 1
M  V30 18 1 18 4
M  V30 19 1 19 4
M  V30 20 1 20 5
M  V30 21 1 21 5
M  V30 22 1 22 6
M  V30 23 1 23 6
M  V30 24 1 24 7
M  V30 25 1 25 7
M  V30 26 1 26 7
M  V30 27 1 27 8
M  V30 28 1 28 9
M  V30 29 1 29 12
M  V30 30 1 30 12
M  V30 31 1 31 12
M  V30 32 1 32 13
M  V30 33 1 33 14
M  V30 34 1 34 14
M  V30 35 1 35 15
M  V30 36 1 36 15
M  V30 END BOND
M  V30 END CTAB
M  END
>  <i_epik_Tot_Q>  (1) 
0

>  <i_epik_Tot_abs_Q>  (1) 
0

>  <i_i_glide_confnum>  (1) 
49

>  <i_i_glide_lignum>  (1) 
55

>  <i_i_glide_posenum>  (1) 
363

>  <i_i_glide_rotatable_bonds>  (1) 
5

>  <i_lp_mmshare_version>  (1) 
72125

>  <i_m_source_file_index>  (1) 
26

>  <i_f3d_flags>  (1) 
0

>  <num_sample>  (1) 
50

>  <b_lp_Chiralities_Consistent>  (1) 
1

>  <r_epik_Charging_Adjusted_Penalty>  (1) 
0

>  <r_epik_Ionization_Penalty>  (1) 
4.9398685500853885e-07

>  <r_epik_Ionization_Penalty_Charging>  (1) 
0

>  <r_epik_Ionization_Penalty_Neutral>  (1) 
4.9398685500853885e-07

>  <r_epik_State_Penalty>  (1) 
-0

>  <r_glide_ring_energy>  (1) 
0

>  <r_i_docking_score>  (1) 
-5.8619067883106117

>  <r_i_glide_ecoul>  (1) 
-0.96072127747198854

>  <r_i_glide_eff_state_penalty>  (1) 
-0

>  <r_i_glide_einternal>  (1) 
0.66341406439833861

>  <r_i_glide_emodel>  (1) 
-36.364945759274903

>  <r_i_glide_emodel_strain>  (1) 
0.039334161595288464

>  <r_i_glide_energy>  (1) 
-26.488498586910282

>  <r_i_glide_erotb>  (1) 
1.5381532010122589

>  <r_i_glide_esite>  (1) 
0

>  <r_i_glide_evdw>  (1) 
-25.527777309438292

>  <r_i_glide_gscore>  (1) 
-5.8619067883106117

>  <r_i_glide_gscore_strain>  (1) 
0

>  <r_i_glide_hbond>  (1) 
0

>  <r_i_glide_ligand_efficiency>  (1) 
-0.39079378588737412

>  <r_i_glide_ligand_efficiency_ln>  (1) 
-1.5808596082566984

>  <r_i_glide_ligand_efficiency_sa>  (1) 
-0.96378035332875867

>  <r_i_glide_lipo>  (1) 
-2.5276062771370067

>  <r_i_glide_metal>  (1) 
-0

>  <r_i_glide_rewards>  (1) 
-3.4519566550931504

>  <r_lp_Energy>  (1) 
14.880616

>  <r_lp_tautomer_probability>  (1) 
1

>  <s_epik_cmdline>  (1) 
J2VwaWtfcHl0aG9uJywgJy1waHQnLCAnMS4wJywgJy1waCcsICc3LjQnLCAnLXRuJywgJzgnLCAnLW1hJywgJzUwMCcsICctaW1hZScsICc8aW5maWxlLm1hZT4nLCAnLW9tYWUnLCAnPG91dGZpbGUubWFlPic=

>  <s_epik_input>  (1) 
W0NIM10vW0NIXT1bQ0hdXFtDSDJdW0NIMl1bQ0gyXUMoPVtDSF1bQ0gyXTEpW0NIMl1bQ0gyXU4xQyg9TylbQ0gzXQ==

>  <s_glide_docking_method>  (1) 
confgen

>  <s_i_glide_gridfile>  (1) 
gpcr_5ht2c_6bqh_protein_autoprepared_prepared

>  <s_lp_Force_Field>  (1) 
S-OPLS

>  <s_lp_Variant>  (1) 
DiffSBDD_25-2

>  <s_m_source_file>  (1) 
generated_GPCR_5HT2C_ligand_DiffSBDD_2026-06-23_prepared.sdf

>  <GenAI_Model>  (1) 
DiffSBDD

>  <Protein>  (1) 
GPCR_5HT2C

$$$$
DiffSBDD_23
     RDKit          3D

  0  0  0  0  0  0  0  0  0  0999 V3000
M  V30 BEGIN CTAB
M  V30 COUNTS 20 20 0 0 1
M  V30 BEGIN ATOM
M  V30 1 C 38.967713 28.415396 51.611809 0
M  V30 2 C 39.697938 29.615304 51.475308 0
M  V30 3 C 38.353717 28.097784 52.841090 0
M  V30 4 S 39.331188 31.338177 55.187827 0
M  V30 5 C 37.810003 28.648305 55.267322 0
M  V30 6 C 40.351150 29.962305 50.153877 0
M  V30 7 O 37.645213 26.938627 52.967761 0
M  V30 8 C 39.196821 30.184092 53.793446 0
M  V30 9 C 38.469225 28.983079 53.938354 0
M  V30 10 C 39.813401 30.497117 52.568384 0
M  V30 11 H 38.877141 27.740181 50.772994 0
M  V30 12 H 38.122176 31.091591 55.701907 0
M  V30 13 H 36.983503 29.337740 55.446858 0
M  V30 14 H 37.435340 27.626721 55.305336 0
M  V30 15 H 38.523461 28.746073 56.085338 0
M  V30 16 H 40.034500 30.954347 49.829941 0
M  V30 17 H 41.435692 29.969423 50.258887 0
M  V30 18 H 40.077500 29.252589 49.372872 0
M  V30 19 H 37.325762 26.577498 52.147454 0
M  V30 20 H 40.368620 31.417080 52.462975 0
M  V30 END ATOM
M  V30 BEGIN BOND
M  V30 1 2 2 1
M  V30 2 1 3 1
M  V30 3 1 6 2
M  V30 4 1 7 3
M  V30 5 1 8 4
M  V30 6 2 9 3
M  V30 7 1 9 5
M  V30 8 1 9 8
M  V30 9 1 10 2
M  V30 10 2 10 8
M  V30 11 1 11 1
M  V30 12 1 12 4
M  V30 13 1 13 5
M  V30 14 1 14 5
M  V30 15 1 15 5
M  V30 16 1 16 6
M  V30 17 1 17 6
M  V30 18 1 18 6
M  V30 19 1 19 7
M  V30 20 1 20 10
M  V30 END BOND
M  V30 END CTAB
M  END
>  <i_epik_Tot_Q>  (1) 
0

>  <i_epik_Tot_abs_Q>  (1) 
0

>  <i_i_glide_confnum>  (1) 
1

>  <i_i_glide_lignum>  (1) 
52

>  <i_i_glide_posenum>  (1) 
394

>  <i_i_glide_rotatable_bonds>  (1) 
2

>  <i_lp_mmshare_version>  (1) 
72125

>  <i_m_source_file_index>  (1) 
24

>  <i_f3d_flags>  (1) 
0

>  <num_sample>  (1) 
50

>  <b_lp_Chiralities_Consistent>  (1) 
1

>  <r_epik_Charging_Adjusted_Penalty>  (1) 
1.0841651960075367

>  <r_epik_Ionization_Penalty>  (1) 
1.0861292701856073

>  <r_epik_Ionization_Penalty_Charging>  (1) 
0

>  <r_epik_Ionization_Penalty_Neutral>  (1) 
1.0861292701856073

>  <r_epik_State_Penalty>  (1) 
1.0841651960075367

>  <r_glide_ring_energy>  (1) 
0

>  <r_i_docking_score>  (1) 
-5.8612463340890324

>  <r_i_glide_ecoul>  (1) 
-4.424588812889831

>  <r_i_glide_eff_state_penalty>  (1) 
1.0841651960075367

>  <r_i_glide_einternal>  (1) 
0.47926719175513433

>  <r_i_glide_emodel>  (1) 
-35.827458265884701

>  <r_i_glide_emodel_strain>  (1) 
0.22446053459830395

>  <r_i_glide_energy>  (1) 
-24.956799722414392

>  <r_i_glide_erotb>  (1) 
0

>  <r_i_glide_esite>  (1) 
0

>  <r_i_glide_evdw>  (1) 
-20.532210909524562

>  <r_i_glide_gscore>  (1) 
-6.9454115300965693

>  <r_i_glide_gscore_strain>  (1) 
0

>  <r_i_glide_hbond>  (1) 
-0.28416576734998417

>  <r_i_glide_ligand_efficiency>  (1) 
-0.5861246334089032

>  <r_i_glide_ligand_efficiency_ln>  (1) 
-1.774744985836342

>  <r_i_glide_ligand_efficiency_sa>  (1) 
-1.2627672428983621

>  <r_i_glide_lipo>  (1) 
-2.2172606488388262

>  <r_i_glide_metal>  (1) 
-0

>  <r_i_glide_rewards>  (1) 
-2.7536862464980549

>  <r_lp_Energy>  (1) 
6.0807719999999996

>  <s_epik_cmdline>  (1) 
J2VwaWtfcHl0aG9uJywgJy1waHQnLCAnMS4wJywgJy1waCcsICc3LjQnLCAnLXRuJywgJzgnLCAnLW1hJywgJzUwMCcsICctaW1hZScsICc8aW5maWxlLm1hZT4nLCAnLW9tYWUnLCAnPG91dGZpbGUubWFlPic=

>  <s_epik_input>  (1) 
W0NIM11jMVtjSF1jKFtPSF0pYyhbQ0gzXSljKFtTSF0pW2NIXTE=

>  <s_glide_docking_method>  (1) 
confgen

>  <s_i_glide_gridfile>  (1) 
gpcr_5ht2c_6bqh_protein_autoprepared_prepared

>  <s_lp_Force_Field>  (1) 
S-OPLS

>  <s_lp_Variant>  (1) 
DiffSBDD_23-2

>  <s_m_source_file>  (1) 
generated_GPCR_5HT2C_ligand_DiffSBDD_2026-06-23_prepared.sdf

>  <GenAI_Model>  (1) 
DiffSBDD

>  <Protein>  (1) 
GPCR_5HT2C

$$$$
DiffSBDD_40
     RDKit          3D

  0  0  0  0  0  0  0  0  0  0999 V3000
M  V30 BEGIN CTAB
M  V30 COUNTS 59 62 0 0 1
M  V30 BEGIN ATOM
M  V30 1 C 39.517033 25.538877 56.686466 0 CFG=1
M  V30 2 C 38.495377 27.134683 53.764030 0 CFG=2
M  V30 3 C 39.908978 26.729249 55.831680 0 CFG=1
M  V30 4 C 37.716619 23.737831 57.396735 0
M  V30 5 C 37.844562 33.535303 58.630753 0
M  V30 6 O 41.459400 27.064510 58.167764 0
M  V30 7 C 39.626785 26.937756 52.738664 0
M  V30 8 F 37.207002 30.150897 54.949133 0
M  V30 9 C 37.226240 36.062202 61.319124 0
M  V30 10 F 38.626325 31.316149 53.851447 0
M  V30 11 C 37.436897 28.061826 53.163633 0
M  V30 12 N 37.265559 35.481174 59.975066 0
M  V30 13 O 38.005533 29.923746 59.480209 0
M  V30 14 C 38.937240 27.663114 55.155237 0 CFG=1
M  V30 15 C 37.418623 25.005976 58.111100 0
M  V30 16 C 37.414007 31.827066 60.828679 0
M  V30 17 S 39.631283 29.338808 55.070835 0
M  V30 18 C 38.709042 29.394095 58.362948 0
M  V30 19 C 36.850469 37.549924 61.209715 0
M  V30 20 P 40.082548 27.017318 57.606335 0 CFG=2
M  V30 21 C 38.576991 35.936639 62.055062 0
M  V30 22 C 37.222572 33.216344 60.970298 0
M  V30 23 C 38.273999 30.069545 54.155141 0
M  V30 24 O 38.010940 29.337804 52.968166 0
M  V30 25 C 38.078226 25.054978 56.755427 0
M  V30 26 C 37.826943 31.288304 59.595008 0
M  V30 27 C 38.044044 32.151269 58.492859 0
M  V30 28 C 37.442009 34.080926 59.866474 0
M  V30 29 C 38.645409 27.868844 58.430780 0
M  V30 30 H 40.247161 24.733395 56.704919 0
M  V30 31 H 38.033238 26.158763 53.906074 0
M  V30 32 H 40.844953 26.624573 55.300416 0
M  V30 33 H 36.852305 23.189743 57.016732 0
M  V30 34 H 38.548183 23.149136 57.767761 0
M  V30 35 H 38.005998 34.182250 57.783152 0
M  V30 36 H 40.046743 27.897451 52.448195 0
M  V30 37 H 40.419816 26.285431 53.103300 0
M  V30 38 H 39.243548 26.499847 51.818031 0
M  V30 39 H 36.441602 35.588914 61.905686 0
M  V30 40 H 36.540075 28.101564 53.780726 0
M  V30 41 H 37.130565 27.718840 52.178809 0
M  V30 42 H 37.543033 36.073815 59.205719 0
M  V30 43 H 38.040804 27.733552 55.769165 0
M  V30 44 H 38.045393 25.234384 58.967795 0
M  V30 45 H 36.383993 25.332324 58.166839 0
M  V30 46 H 37.245559 31.172726 61.669500 0
M  V30 47 H 38.232869 29.693688 57.432250 0
M  V30 48 H 39.741914 29.744597 58.366502 0
M  V30 49 H 36.713323 37.992666 62.196633 0
M  V30 50 H 37.625792 38.121633 60.698258 0
M  V30 51 H 35.924220 37.701011 60.655019 0
M  V30 52 H 38.523108 36.391197 63.044908 0
M  V30 53 H 38.883811 34.902172 62.201633 0
M  V30 54 H 39.376197 36.437181 61.507676 0
M  V30 55 H 36.907136 33.610196 61.920838 0
M  V30 56 H 37.435749 25.336514 55.925660 0
M  V30 57 H 38.354972 31.757477 57.539542 0
M  V30 58 H 38.666800 27.555102 59.474210 0
M  V30 59 H 37.692823 27.546020 58.019147 0
M  V30 END ATOM
M  V30 BEGIN BOND
M  V30 1 1 3 1
M  V30 2 1 7 2
M  V30 3 1 11 2
M  V30 4 1 12 9
M  V30 5 1 14 2
M  V30 6 1 14 3
M  V30 7 1 15 4
M  V30 8 1 17 14
M  V30 9 1 18 13
M  V30 10 1 19 9
M  V30 11 1 20 1
M  V30 12 1 20 3
M  V30 13 2 20 6
M  V30 14 1 21 9
M  V30 15 1 22 16
M  V30 16 1 23 8
M  V30 17 1 23 10
M  V30 18 1 23 17
M  V30 19 1 24 11
M  V30 20 1 24 23
M  V30 21 1 25 1
M  V30 22 1 25 4
M  V30 23 1 25 15
M  V30 24 1 26 13
M  V30 25 2 26 16
M  V30 26 2 27 5
M  V30 27 1 27 26
M  V30 28 1 28 5
M  V30 29 1 28 12
M  V30 30 2 28 22
M  V30 31 1 29 18
M  V30 32 1 20 29 CFG=1
M  V30 33 1 1 30 CFG=3
M  V30 34 1 2 31 CFG=1
M  V30 35 1 3 32 CFG=3
M  V30 36 1 33 4
M  V30 37 1 34 4
M  V30 38 1 35 5
M  V30 39 1 36 7
M  V30 40 1 37 7
M  V30 41 1 38 7
M  V30 42 1 39 9
M  V30 43 1 40 11
M  V30 44 1 41 11
M  V30 45 1 42 12
M  V30 46 1 14 43 CFG=1
M  V30 47 1 44 15
M  V30 48 1 45 15
M  V30 49 1 46 16
M  V30 50 1 47 18
M  V30 51 1 48 18
M  V30 52 1 49 19
M  V30 53 1 50 19
M  V30 54 1 51 19
M  V30 55 1 52 21
M  V30 56 1 53 21
M  V30 57 1 54 21
M  V30 58 1 55 22
M  V30 59 1 56 25
M  V30 60 1 57 27
M  V30 61 1 58 29
M  V30 62 1 59 29
M  V30 END BOND
M  V30 END CTAB
M  END
>  <i_epik_Tot_Q>  (1) 
0

>  <i_epik_Tot_abs_Q>  (1) 
0

>  <i_i_glide_confnum>  (1) 
340

>  <i_i_glide_lignum>  (1) 
83

>  <i_i_glide_posenum>  (1) 
282

>  <i_i_glide_rotatable_bonds>  (1) 
8

>  <i_lp_mmshare_version>  (1) 
72125

>  <i_m_source_file_index>  (1) 
41

>  <i_f3d_flags>  (1) 
0

>  <num_sample>  (1) 
50

>  <b_lp_Chiralities_Consistent>  (1) 
1

>  <r_epik_Charging_Adjusted_Penalty>  (1) 
0.10621715127672696

>  <r_epik_Ionization_Penalty>  (1) 
0.10621715241272391

>  <r_epik_Ionization_Penalty_Charging>  (1) 
0

>  <r_epik_Ionization_Penalty_Neutral>  (1) 
0.10621715241272391

>  <r_epik_State_Penalty>  (1) 
0.10621715127672696

>  <r_glide_ring_energy>  (1) 
0

>  <r_i_docking_score>  (1) 
-5.8580095738517661

>  <r_i_glide_ecoul>  (1) 
2.0380516443223549

>  <r_i_glide_eff_state_penalty>  (1) 
0.10621715127672696

>  <r_i_glide_einternal>  (1) 
5.2753525387778009

>  <r_i_glide_emodel>  (1) 
-47.878882370010352

>  <r_i_glide_emodel_strain>  (1) 
0.0012587050285830514

>  <r_i_glide_energy>  (1) 
-37.742311881479125

>  <r_i_glide_erotb>  (1) 
0.70566581847089904

>  <r_i_glide_esite>  (1) 
-0.073213620002296462

>  <r_i_glide_evdw>  (1) 
-39.780363525801476

>  <r_i_glide_gscore>  (1) 
-5.9642267251284933

>  <r_i_glide_gscore_strain>  (1) 
0

>  <r_i_glide_hbond>  (1) 
0

>  <r_i_glide_ligand_efficiency>  (1) 
-0.20200033013281951

>  <r_i_glide_ligand_efficiency_ln>  (1) 
-1.3413356461061874

>  <r_i_glide_ligand_efficiency_sa>  (1) 
-0.62060901306115734

>  <r_i_glide_lipo>  (1) 
-3.8565457813559267

>  <r_i_glide_metal>  (1) 
-0

>  <r_i_glide_rewards>  (1) 
-1.0568227125994487

>  <r_lp_Energy>  (1) 
16.736861999999999

>  <s_epik_cmdline>  (1) 
J2VwaWtfcHl0aG9uJywgJy1waHQnLCAnMS4wJywgJy1waCcsICc3LjQnLCAnLXRuJywgJzgnLCAnLW1hJywgJzUwMCcsICctaW1hZScsICc8aW5maWxlLm1hZT4nLCAnLW9tYWUnLCAnPG91dGZpbGUubWFlPic=

>  <s_epik_input>  (1) 
RkMxKEYpU1tDQEBIXShbQ0BIXShbQ0gzXSlbQ0gyXU8xKVtDQEBIXTJbQ0BIXShbQ0hdM1tDSDJdW0NIMl0zKVAyKD1PKVtDSDJdW0NIMl1PYzRbY0hdW2NIXWMoW2NIXVtjSF00KVtOSF1bQ0hdKFtDSDNdKVtDSDNd

>  <s_glide_docking_method>  (1) 
confgen

>  <s_i_glide_gridfile>  (1) 
gpcr_5ht2c_6bqh_protein_autoprepared_prepared

>  <s_lp_Force_Field>  (1) 
S-OPLS

>  <s_lp_Variant>  (1) 
DiffSBDD_40-1

>  <s_m_source_file>  (1) 
generated_GPCR_5HT2C_ligand_DiffSBDD_2026-06-23_prepared.sdf

>  <GenAI_Model>  (1) 
DiffSBDD

>  <Protein>  (1) 
GPCR_5HT2C

$$$$
DiffSBDD_7
     RDKit          3D

  0  0  0  0  0  0  0  0  0  0999 V3000
M  V30 BEGIN CTAB
M  V30 COUNTS 60 60 0 0 1
M  V30 BEGIN ATOM
M  V30 1 C 39.213998 25.476795 57.648283 0
M  V30 2 O 38.045137 31.415113 57.696828 0
M  V30 3 C 37.131372 24.596997 56.449415 0
M  V30 4 C 39.570980 29.934524 50.301701 0
M  V30 5 C 38.153483 24.371633 57.571853 0
M  V30 6 C 39.484371 28.637615 61.043387 0 CFG=1
M  V30 7 C 39.061925 29.351109 56.557428 0 CFG=1
M  V30 8 C 40.576185 28.139871 51.566140 0
M  V30 9 C 39.315255 28.949346 51.489809 0
M  V30 10 C 40.909638 28.438090 61.568766 0
M  V30 11 C 38.264539 27.872523 51.195642 0
M  V30 12 C 40.826304 30.812185 50.383837 0
M  V30 13 C 39.012254 30.873826 56.817919 0 CFG=1
M  V30 14 O 38.964326 29.737753 61.767749 0
M  V30 15 C 39.793907 27.840819 58.535587 0 CFG=2
M  V30 16 C 39.060068 28.970686 54.144115 0
M  V30 17 C 39.399722 28.963363 59.537298 0
M  V30 18 O 38.855530 27.762504 54.270220 0
M  V30 19 C 38.881650 29.673549 52.795389 0
M  V30 20 N 39.443696 29.774402 55.220178 0
M  V30 21 C 38.852977 31.101158 55.313769 0
M  V30 22 C 40.146771 28.436090 57.161215 0
M  V30 23 C 38.724264 26.740003 58.381777 0
M  V30 24 H 39.545175 25.698479 56.634736 0
M  V30 25 H 40.089820 25.090359 58.167731 0
M  V30 26 H 37.177296 31.338777 57.300785 0
M  V30 27 H 36.445020 23.755105 56.371094 0
M  V30 28 H 36.539020 25.496017 56.620386 0
M  V30 29 H 37.626016 24.704718 55.483119 0
M  V30 30 H 39.635374 29.373823 49.367839 0
M  V30 31 H 38.767950 30.640954 50.167768 0
M  V30 32 H 38.673194 23.431612 57.399572 0
M  V30 33 H 37.645139 24.259228 58.529648 0
M  V30 34 H 38.878148 27.759558 61.264000 0
M  V30 35 H 38.057033 28.923759 56.562397 0
M  V30 36 H 40.749520 27.737717 50.571179 0
M  V30 37 H 41.466814 28.718658 51.767760 0
M  V30 38 H 40.445137 27.337732 52.290001 0
M  V30 39 H 41.480020 27.737760 60.964317 0
M  V30 40 H 41.454665 29.378727 61.577043 0
M  V30 41 H 40.899301 28.059871 62.591435 0
M  V30 42 H 38.445145 27.485556 50.196988 0
M  V30 43 H 38.340505 27.013396 51.862719 0
M  V30 44 H 37.245612 28.218762 51.354147 0
M  V30 45 H 40.799600 31.554108 49.588462 0
M  V30 46 H 40.879464 31.337750 51.335017 0
M  V30 47 H 41.747730 30.248792 50.246303 0
M  V30 48 H 39.990961 31.231921 57.116942 0
M  V30 49 H 38.848988 29.469253 62.671560 0
M  V30 50 H 40.698919 27.361093 58.904779 0
M  V30 51 H 38.382526 29.285011 59.310792 0
M  V30 52 H 40.032915 29.832335 59.358878 0
M  V30 53 H 37.799106 29.737757 52.782047 0
M  V30 54 H 39.292207 30.681258 52.821988 0
M  V30 55 H 39.476396 31.903095 54.915838 0
M  V30 56 H 37.809463 31.168775 54.996816 0
M  V30 57 H 41.100107 28.937755 57.266999 0
M  V30 58 H 40.387315 27.638860 56.462340 0
M  V30 59 H 38.420249 26.428770 59.367761 0
M  V30 60 H 37.827106 27.134302 57.904733 0
M  V30 END ATOM
M  V30 BEGIN BOND
M  V30 1 1 5 1
M  V30 2 1 5 3
M  V30 3 1 9 4
M  V30 4 1 9 8
M  V30 5 1 10 6
M  V30 6 1 11 9
M  V30 7 1 12 4
M  V30 8 1 13 2
M  V30 9 1 13 7
M  V30 10 1 14 6
M  V30 11 1 17 6
M  V30 12 1 17 15
M  V30 13 2 18 16
M  V30 14 1 19 9
M  V30 15 1 19 16
M  V30 16 1 20 7
M  V30 17 1 20 16
M  V30 18 1 21 13
M  V30 19 1 21 20
M  V30 20 1 22 7
M  V30 21 1 22 15
M  V30 22 1 23 1
M  V30 23 1 23 15
M  V30 24 1 24 1
M  V30 25 1 25 1
M  V30 26 1 26 2
M  V30 27 1 27 3
M  V30 28 1 28 3
M  V30 29 1 29 3
M  V30 30 1 30 4
M  V30 31 1 31 4
M  V30 32 1 32 5
M  V30 33 1 33 5
M  V30 34 1 6 34 CFG=3
M  V30 35 1 7 35 CFG=3
M  V30 36 1 36 8
M  V30 37 1 37 8
M  V30 38 1 38 8
M  V30 39 1 39 10
M  V30 40 1 40 10
M  V30 41 1 41 10
M  V30 42 1 42 11
M  V30 43 1 43 11
M  V30 44 1 44 11
M  V30 45 1 45 12
M  V30 46 1 46 12
M  V30 47 1 47 12
M  V30 48 1 13 48 CFG=1
M  V30 49 1 49 14
M  V30 50 1 15 50 CFG=1
M  V30 51 1 51 17
M  V30 52 1 52 17
M  V30 53 1 53 19
M  V30 54 1 54 19
M  V30 55 1 55 21
M  V30 56 1 56 21
M  V30 57 1 57 22
M  V30 58 1 58 22
M  V30 59 1 59 23
M  V30 60 1 60 23
M  V30 END BOND
M  V30 END CTAB
M  END
>  <i_epik_Tot_Q>  (1) 
0

>  <i_epik_Tot_abs_Q>  (1) 
0

>  <i_i_glide_confnum>  (1) 
520

>  <i_i_glide_lignum>  (1) 
16

>  <i_i_glide_posenum>  (1) 
375

>  <i_i_glide_rotatable_bonds>  (1) 
13

>  <i_lp_mmshare_version>  (1) 
72125

>  <i_m_source_file_index>  (1) 
8

>  <i_f3d_flags>  (1) 
0

>  <num_sample>  (1) 
50

>  <b_lp_Chiralities_Consistent>  (1) 
1

>  <r_epik_Charging_Adjusted_Penalty>  (1) 
0

>  <r_epik_Ionization_Penalty>  (1) 
3.8827151533857073e-07

>  <r_epik_Ionization_Penalty_Charging>  (1) 
0

>  <r_epik_Ionization_Penalty_Neutral>  (1) 
3.8827151533857073e-07

>  <r_epik_State_Penalty>  (1) 
-0

>  <r_glide_ring_energy>  (1) 
0

>  <r_i_docking_score>  (1) 
-5.8528476557490272

>  <r_i_glide_ecoul>  (1) 
-5.0086139314385294

>  <r_i_glide_eff_state_penalty>  (1) 
-0

>  <r_i_glide_einternal>  (1) 
8.1291868404818892

>  <r_i_glide_emodel>  (1) 
-28.264886016803445

>  <r_i_glide_emodel_strain>  (1) 
1.1732067932721222

>  <r_i_glide_energy>  (1) 
-26.776174627591651

>  <r_i_glide_erotb>  (1) 
1.5748308368966815

>  <r_i_glide_esite>  (1) 
0

>  <r_i_glide_evdw>  (1) 
-21.767560696153122

>  <r_i_glide_gscore>  (1) 
-5.8528476557490272

>  <r_i_glide_gscore_strain>  (1) 
0

>  <r_i_glide_hbond>  (1) 
-0.38203811802085114

>  <r_i_glide_ligand_efficiency>  (1) 
-0.25447163720647942

>  <r_i_glide_ligand_efficiency_ln>  (1) 
-1.4152716338484899

>  <r_i_glide_ligand_efficiency_sa>  (1) 
-0.72368348636027402

>  <r_i_glide_lipo>  (1) 
-3.6206990091099556

>  <r_i_glide_metal>  (1) 
-0

>  <r_i_glide_rewards>  (1) 
-1.5852712409914671

>  <r_lp_Energy>  (1) 
6.666982

>  <r_lp_tautomer_probability>  (1) 
1

>  <s_epik_cmdline>  (1) 
J2VwaWtfcHl0aG9uJywgJy1waHQnLCAnMS4wJywgJy1waCcsICc3LjQnLCAnLXRuJywgJzgnLCAnLW1hJywgJzUwMCcsICctaW1hZScsICc8aW5maWxlLm1hZT4nLCAnLW9tYWUnLCAnPG91dGZpbGUubWFlPic=

>  <s_epik_input>  (1) 
W0NIM11bQ0gyXVtDSDJdW0NIMl1bQ0BIXShbQ0gyXVtDQEBIXShbQ0gzXSlbT0hdKVtDSDJdW0NASF0xW0NASF0oW09IXSlbQ0gyXU4xQyg9TylbQ0gyXUMoW0NIM10pKFtDSDNdKVtDSDJdW0NIM10=

>  <s_glide_docking_method>  (1) 
confgen

>  <s_i_glide_gridfile>  (1) 
gpcr_5ht2c_6bqh_protein_autoprepared_prepared

>  <s_lp_Force_Field>  (1) 
S-OPLS

>  <s_lp_Variant>  (1) 
DiffSBDD_7-1

>  <s_m_source_file>  (1) 
generated_GPCR_5HT2C_ligand_DiffSBDD_2026-06-23_prepared.sdf

>  <GenAI_Model>  (1) 
DiffSBDD

>  <Protein>  (1) 
GPCR_5HT2C

$$$$
DiffSBDD_0
     RDKit          3D

  0  0  0  0  0  0  0  0  0  0999 V3000
M  V30 BEGIN CTAB
M  V30 COUNTS 73 75 0 0 1
M  V30 BEGIN ATOM
M  V30 1 C 40.031113 30.791215 50.656645 0
M  V30 2 C 39.240853 27.225130 52.190891 0
M  V30 3 O 40.261751 30.311466 60.900833 0
M  V30 4 C 39.467184 30.022138 52.976631 0
M  V30 5 C 37.973379 32.394590 59.056755 0 CFG=2
M  V30 6 C 37.818609 29.667035 58.174689 0
M  V30 7 C 40.659926 31.417487 62.970205 0
M  V30 8 C 40.260099 32.740367 62.250672 0 CFG=1
M  V30 9 C 40.911754 35.165751 62.315672 0
M  V30 10 C 38.737243 32.766079 61.985040 0
M  V30 11 N 38.295225 33.843742 61.079572 0
M  V30 12 O 36.624890 32.235515 59.527349 0
M  V30 13 C 39.541103 28.311847 51.134425 0
M  V30 14 C 41.601756 33.849593 64.130448 0
M  V30 15 C 38.949999 29.298179 55.411830 0 CFG=1
M  V30 16 C 38.574829 33.694917 59.631204 0
M  V30 17 C 39.058100 27.739891 53.608780 0
M  V30 18 C 38.662907 27.788193 55.868436 0
M  V30 19 C 38.035930 32.140978 57.506792 0 CFG=1
M  V30 20 C 40.574985 30.159829 62.100095 0
M  V30 21 N 40.574917 33.944858 63.073633 0 CHG=1
M  V30 22 C 41.791356 35.287589 64.596249 0
M  V30 23 F 41.143723 30.475507 49.994852 0
M  V30 24 C 39.147481 29.001788 53.954011 0
M  V30 25 C 39.667171 29.729888 51.674674 0
M  V30 26 O 39.245166 32.286120 57.053828 0 CHG=-1
M  V30 27 N 37.645187 30.733664 57.147427 0 CFG=1 CHG=1
M  V30 28 C 38.807407 26.756989 54.682275 0 CFG=1
M  V30 29 C 37.793247 30.302173 55.715539 0
M  V30 30 C 35.704114 33.306680 59.312621 0
M  V30 31 O 40.843263 29.074093 62.651959 0 CHG=-1
M  V30 32 O 37.642709 25.996551 54.457291 0
M  V30 33 C 41.519644 36.120081 63.342402 0
M  V30 34 H 39.244039 30.922269 49.916268 0
M  V30 35 H 40.204544 31.737745 51.154739 0
M  V30 36 H 40.030393 26.474648 52.197992 0
M  V30 37 H 38.328574 26.706970 51.902631 0
M  V30 38 H 39.567621 31.047622 53.306462 0
M  V30 39 H 38.584924 31.626095 59.519082 0
M  V30 40 H 38.870285 29.413115 58.317161 0
M  V30 41 H 37.392438 29.918964 59.142966 0
M  V30 42 H 37.261893 28.775454 57.908432 0
M  V30 43 H 41.701720 31.438575 63.285370 0
M  V30 44 H 40.057473 31.265530 63.866634 0
M  V30 45 H 40.814647 32.792402 61.310994 0
M  V30 46 H 41.644952 34.938680 61.542469 0
M  V30 47 H 40.045204 35.608325 61.827994 0
M  V30 48 H 38.249427 32.886358 62.953760 0
M  V30 49 H 38.381321 31.801219 61.629630 0
M  V30 50 H 37.284677 33.905117 61.164474 0
M  V30 51 H 38.743245 28.318308 50.392906 0
M  V30 52 H 40.444627 28.053667 50.587634 0
M  V30 53 H 41.307050 33.191226 64.947482 0
M  V30 54 H 42.532688 33.484981 63.697401 0
M  V30 55 H 39.894610 29.663385 55.817144 0
M  V30 56 H 39.645821 33.724011 59.435288 0
M  V30 57 H 38.142012 34.537398 59.093246 0
M  V30 58 H 37.645123 27.679800 56.225882 0
M  V30 59 H 39.320864 27.508773 56.692561 0
M  V30 60 H 37.265610 32.769083 57.063841 0
M  V30 61 H 41.056861 35.529920 65.363681 0
M  V30 62 H 42.780783 35.467998 65.017273 0
M  V30 63 H 39.677577 26.110681 54.810026 0
M  V30 64 H 37.896945 31.195465 55.098098 0
M  V30 65 H 36.844805 29.856738 55.410203 0
M  V30 66 H 34.689047 32.940415 59.467906 0
M  V30 67 H 35.858716 34.116383 60.022110 0
M  V30 68 H 35.752528 33.737843 58.312085 0
M  V30 69 H 36.984043 26.560657 54.080599 0
M  V30 70 H 40.834398 36.937555 63.555487 0
M  V30 71 H 42.444726 36.538892 62.967773 0
M  V30 72 H 39.717494 34.163753 63.560621 0
M  V30 73 H 36.639675 30.923579 57.175771 0
M  V30 END ATOM
M  V30 BEGIN BOND
M  V30 1 1 8 7
M  V30 2 1 10 8
M  V30 3 1 11 10
M  V30 4 1 12 5
M  V30 5 1 13 2
M  V30 6 1 16 5
M  V30 7 1 16 11
M  V30 8 1 17 2
M  V30 9 1 18 15
M  V30 10 1 19 5
M  V30 11 2 20 3
M  V30 12 1 20 7
M  V30 13 1 21 8
M  V30 14 1 21 9
M  V30 15 1 21 14
M  V30 16 1 22 14
M  V30 17 1 23 1
M  V30 18 1 24 4
M  V30 19 1 24 15
M  V30 20 2 24 17
M  V30 21 1 25 1
M  V30 22 2 25 4
M  V30 23 1 25 13
M  V30 24 1 26 19
M  V30 25 1 27 6
M  V30 26 1 27 19
M  V30 27 1 28 17
M  V30 28 1 28 18
M  V30 29 1 29 15
M  V30 30 1 29 27
M  V30 31 1 30 12
M  V30 32 1 31 20
M  V30 33 1 32 28
M  V30 34 1 33 9
M  V30 35 1 33 22
M  V30 36 1 34 1
M  V30 37 1 35 1
M  V30 38 1 36 2
M  V30 39 1 37 2
M  V30 40 1 38 4
M  V30 41 1 5 39 CFG=1
M  V30 42 1 40 6
M  V30 43 1 41 6
M  V30 44 1 42 6
M  V30 45 1 43 7
M  V30 46 1 44 7
M  V30 47 1 8 45 CFG=3
M  V30 48 1 46 9
M  V30 49 1 47 9
M  V30 50 1 48 10
M  V30 51 1 49 10
M  V30 52 1 50 11
M  V30 53 1 51 13
M  V30 54 1 52 13
M  V30 55 1 53 14
M  V30 56 1 54 14
M  V30 57 1 15 55 CFG=1
M  V30 58 1 56 16
M  V30 59 1 57 16
M  V30 60 1 58 18
M  V30 61 1 59 18
M  V30 62 1 19 60 CFG=3
M  V30 63 1 61 22
M  V30 64 1 62 22
M  V30 65 1 28 63 CFG=1
M  V30 66 1 64 29
M  V30 67 1 65 29
M  V30 68 1 66 30
M  V30 69 1 67 30
M  V30 70 1 68 30
M  V30 71 1 69 32
M  V30 72 1 70 33
M  V30 73 1 71 33
M  V30 74 1 72 21
M  V30 75 1 27 73 CFG=3
M  V30 END BOND
M  V30 END CTAB
M  END
>  <i_epik_Tot_Q>  (1) 
0

>  <i_epik_Tot_abs_Q>  (1) 
4

>  <i_i_glide_confnum>  (1) 
2299

>  <i_i_glide_lignum>  (1) 
2

>  <i_i_glide_posenum>  (1) 
330

>  <i_i_glide_rotatable_bonds>  (1) 
14

>  <i_lp_mmshare_version>  (1) 
72125

>  <i_m_source_file_index>  (1) 
1

>  <i_f3d_flags>  (1) 
0

>  <num_sample>  (1) 
50

>  <b_lp_Chiralities_Consistent>  (1) 
1

>  <r_epik_Charging_Adjusted_Penalty>  (1) 
0.35910314693592993

>  <r_epik_Ionization_Penalty>  (1) 
0.058337682991089858

>  <r_epik_Ionization_Penalty_Charging>  (1) 
0.0030320954189955646

>  <r_epik_Ionization_Penalty_Neutral>  (1) 
0.055305587572094292

>  <r_epik_State_Penalty>  (1) 
0.35607105151693436

>  <r_glide_ring_energy>  (1) 
0

>  <r_i_docking_score>  (1) 
-5.852231488829819

>  <r_i_glide_ecoul>  (1) 
-3.9463742930104511

>  <r_i_glide_eff_state_penalty>  (1) 
0.35607105151693436

>  <r_i_glide_einternal>  (1) 
15.121326535594761

>  <r_i_glide_emodel>  (1) 
-49.64507591037983

>  <r_i_glide_emodel_strain>  (1) 
6.7171601400874579

>  <r_i_glide_energy>  (1) 
-42.822397036257527

>  <r_i_glide_erotb>  (1) 
0.82434179411086872

>  <r_i_glide_esite>  (1) 
-0.23201071962168315

>  <r_i_glide_evdw>  (1) 
-38.876022743247077

>  <r_i_glide_gscore>  (1) 
-6.2083025403467538

>  <r_i_glide_gscore_strain>  (1) 
0.67929003502186447

>  <r_i_glide_hbond>  (1) 
-0.20066041890113454

>  <r_i_glide_ligand_efficiency>  (1) 
-0.17734034814635816

>  <r_i_glide_ligand_efficiency_ln>  (1) 
-1.3015059818827897

>  <r_i_glide_ligand_efficiency_sa>  (1) 
-0.5688252547728555

>  <r_i_glide_lipo>  (1) 
-3.5839974449468777

>  <r_i_glide_metal>  (1) 
-0

>  <r_i_glide_rewards>  (1) 
-1.1595085048958707

>  <r_lp_Energy>  (1) 
38.728972999999996

>  <s_epik_Chemistry_Notes>  (1) 
This compound contains an acetal/aminal-like group ( X-CH(R)-Y where X, Y are N, S, or O) that may be acid/base labile, releasing an aldehyde.

>  <s_epik_cmdline>  (1) 
J2VwaWtfcHl0aG9uJywgJy1waHQnLCAnMS4wJywgJy1waCcsICc3LjQnLCAnLXRuJywgJzgnLCAnLW1hJywgJzUwMCcsICctaW1hZScsICc8aW5maWxlLm1hZT4nLCAnLW9tYWUnLCAnPG91dGZpbGUubWFlPic=

>  <s_epik_input>  (1) 
W0NIMl0xW0NIMl1DKFtDSDJdRik9W0NIXUMoPUMxMilbQ0BIXShbQ0gyXVtDQEhdMltPSF0pW0NIMl1OKFtDSDNdKVtDQEhdKFtPSF0pW0NASF0oT1tDSDNdKVtDSDJdW05IXVtDSDJdW0NASF0oW0NIMl1DKD1PKVtPSF0pTjNbQ0gyXVtDSDJdW0NIMl1bQ0gyXTM=

>  <s_glide_docking_method>  (1) 
confgen

>  <s_i_glide_gridfile>  (1) 
gpcr_5ht2c_6bqh_protein_autoprepared_prepared

>  <s_lp_Force_Field>  (1) 
S-OPLS

>  <s_lp_Variant>  (1) 
DiffSBDD_0-2

>  <s_m_source_file>  (1) 
generated_GPCR_5HT2C_ligand_DiffSBDD_2026-06-23_prepared.sdf

>  <GenAI_Model>  (1) 
DiffSBDD

>  <Protein>  (1) 
GPCR_5HT2C

$$$$
DiffSBDD_8
     RDKit          3D

  0  0  0  0  0  0  0  0  0  0999 V3000
M  V30 BEGIN CTAB
M  V30 COUNTS 48 51 0 0 1
M  V30 BEGIN ATOM
M  V30 1 C 38.528720 30.186116 58.251710 0
M  V30 2 C 38.024136 31.463240 58.550514 0
M  V30 3 C 40.101199 30.485692 51.532103 0 CFG=1
M  V30 4 C 38.575846 32.207801 56.298028 0
M  V30 5 C 39.090474 30.921668 55.993398 0
M  V30 6 C 38.965486 25.811902 54.568819 0
M  V30 7 C 39.108624 29.674012 52.356860 0 CFG=2
M  V30 8 C 39.066426 28.206150 54.347123 0
M  V30 9 C 39.685235 25.768355 56.983595 0
M  V30 10 C 38.978434 24.417599 57.193384 0
M  V30 11 C 39.244812 29.443206 53.824220 0
M  V30 12 O 40.203518 29.070244 51.651743 0
M  V30 13 C 39.696392 30.652594 54.634291 0
M  V30 14 C 36.579817 25.353635 57.301061 0
M  V30 15 C 38.732960 26.970481 53.525447 0
M  V30 16 C 39.302671 27.872724 55.710889 0
M  V30 17 F 38.601179 33.188634 55.367293 0
M  V30 18 N 39.575954 28.633886 56.724706 0
M  V30 19 N 37.499663 31.726214 59.815632 0
M  V30 20 C 38.046477 32.473214 57.574078 0
M  V30 21 C 39.064804 29.907115 56.975338 0
M  V30 22 C 39.921324 30.934832 50.103345 0
M  V30 23 N 39.213467 26.520951 55.822193 0
M  V30 24 C 37.674777 24.522930 57.984004 0
M  V30 25 H 38.510344 29.412913 59.006033 0
M  V30 26 H 40.843620 31.052617 52.084760 0
M  V30 27 H 38.085500 25.172580 54.626392 0
M  V30 28 H 39.837861 25.211020 54.308551 0
M  V30 29 H 38.157093 29.338313 51.946701 0
M  V30 30 H 40.749559 25.611033 56.830159 0
M  V30 31 H 39.603828 26.357325 57.898072 0
M  V30 32 H 38.816559 23.891860 56.257022 0
M  V30 33 H 39.645035 23.774400 57.765061 0
M  V30 34 H 39.514810 31.530571 54.015189 0
M  V30 35 H 40.780406 30.601683 54.742182 0
M  V30 36 H 35.659557 25.338053 57.881695 0
M  V30 37 H 36.875980 26.397888 57.207300 0
M  V30 38 H 36.347849 24.972901 56.306248 0
M  V30 39 H 37.695389 27.014419 53.191048 0
M  V30 40 H 39.384094 26.858571 52.659234 0
M  V30 41 H 37.308890 30.964993 60.449291 0
M  V30 42 H 36.952781 32.562459 59.962471 0
M  V30 43 H 37.655777 33.454734 57.801622 0
M  V30 44 H 40.865513 31.328960 49.726887 0
M  V30 45 H 39.643986 30.093906 49.468614 0
M  V30 46 H 39.169191 31.719993 50.040603 0
M  V30 47 H 37.297671 23.517052 58.165669 0
M  V30 48 H 37.925108 24.939010 58.957895 0
M  V30 END ATOM
M  V30 BEGIN BOND
M  V30 1 1 2 1
M  V30 2 2 5 4
M  V30 3 1 7 3
M  V30 4 1 10 9
M  V30 5 1 11 7
M  V30 6 2 11 8
M  V30 7 1 12 3
M  V30 8 1 12 7
M  V30 9 1 13 5
M  V30 10 1 13 11
M  V30 11 1 15 6
M  V30 12 1 15 8
M  V30 13 1 16 8
M  V30 14 1 17 4
M  V30 15 2 18 16
M  V30 16 1 19 2
M  V30 17 2 20 2
M  V30 18 1 20 4
M  V30 19 2 21 1
M  V30 20 1 21 5
M  V30 21 1 21 18
M  V30 22 1 22 3
M  V30 23 1 23 6
M  V30 24 1 23 9
M  V30 25 1 23 16
M  V30 26 1 24 10
M  V30 27 1 24 14
M  V30 28 1 25 1
M  V30 29 1 3 26 CFG=1
M  V30 30 1 27 6
M  V30 31 1 28 6
M  V30 32 1 7 29 CFG=3
M  V30 33 1 30 9
M  V30 34 1 31 9
M  V30 35 1 32 10
M  V30 36 1 33 10
M  V30 37 1 34 13
M  V30 38 1 35 13
M  V30 39 1 36 14
M  V30 40 1 37 14
M  V30 41 1 38 14
M  V30 42 1 39 15
M  V30 43 1 40 15
M  V30 44 1 41 19
M  V30 45 1 42 19
M  V30 46 1 43 20
M  V30 47 1 44 22
M  V30 48 1 45 22
M  V30 49 1 46 22
M  V30 50 1 47 24
M  V30 51 1 48 24
M  V30 END BOND
M  V30 END CTAB
M  END
>  <i_epik_Tot_Q>  (1) 
0

>  <i_epik_Tot_abs_Q>  (1) 
0

>  <i_i_glide_confnum>  (1) 
31

>  <i_i_glide_lignum>  (1) 
18

>  <i_i_glide_posenum>  (1) 
370

>  <i_i_glide_rotatable_bonds>  (1) 
4

>  <i_lp_mmshare_version>  (1) 
72125

>  <i_m_source_file_index>  (1) 
9

>  <i_f3d_flags>  (1) 
0

>  <num_sample>  (1) 
50

>  <b_lp_Chiralities_Consistent>  (1) 
1

>  <r_epik_Charging_Adjusted_Penalty>  (1) 
1.179189790050359

>  <r_epik_Ionization_Penalty>  (1) 
1.1792430132501708

>  <r_epik_Ionization_Penalty_Charging>  (1) 
0

>  <r_epik_Ionization_Penalty_Neutral>  (1) 
1.1792430132501708

>  <r_epik_State_Penalty>  (1) 
1.179189790050359

>  <r_glide_ring_energy>  (1) 
0

>  <r_i_docking_score>  (1) 
-5.8438156393949949

>  <r_i_glide_ecoul>  (1) 
-0.022860895823337973

>  <r_i_glide_eff_state_penalty>  (1) 
1.179189790050359

>  <r_i_glide_einternal>  (1) 
5.7597319864208743

>  <r_i_glide_emodel>  (1) 
-47.890545882116946

>  <r_i_glide_emodel_strain>  (1) 
1.2825475873269454

>  <r_i_glide_energy>  (1) 
-36.448274061511022

>  <r_i_glide_erotb>  (1) 
0.51958033910786883

>  <r_i_glide_esite>  (1) 
-0.038676395838521865

>  <r_i_glide_evdw>  (1) 
-36.425413165687687

>  <r_i_glide_gscore>  (1) 
-7.0230054294453534

>  <r_i_glide_gscore_strain>  (1) 
0

>  <r_i_glide_hbond>  (1) 
0

>  <r_i_glide_ligand_efficiency>  (1) 
-0.24349231830812479

>  <r_i_glide_ligand_efficiency_ln>  (1) 
-1.3986932377336858

>  <r_i_glide_ligand_efficiency_sa>  (1) 
-0.70235338290609539

>  <r_i_glide_lipo>  (1) 
-3.1106858070772843

>  <r_i_glide_metal>  (1) 
-0

>  <r_i_glide_rewards>  (1) 
-2.5685237729795309

>  <r_lp_Energy>  (1) 
37.01735

>  <s_epik_Chemistry_Notes>  (1) 
This compound has an imine and may undergo hydrolysis.

>  <s_epik_cmdline>  (1) 
J2VwaWtfcHl0aG9uJywgJy1waHQnLCAnMS4wJywgJy1waCcsICc3LjQnLCAnLXRuJywgJzgnLCAnLW1hJywgJzUwMCcsICctaW1hZScsICc8aW5maWxlLm1hZT4nLCAnLW9tYWUnLCAnPG91dGZpbGUubWFlPic=

>  <s_epik_input>  (1) 
RmMxW2NIXWMoW05IMl0pW2NIXWMoYzEyKU49QzNDKD1DKFtDSDJdMilbQ0BIXShPNClbQ0BASF00W0NIM10pW0NIMl1bQ0gyXU4zW0NIMl1bQ0gyXVtDSDJdW0NIM10=

>  <s_glide_docking_method>  (1) 
confgen

>  <s_i_glide_gridfile>  (1) 
gpcr_5ht2c_6bqh_protein_autoprepared_prepared

>  <s_lp_Force_Field>  (1) 
S-OPLS

>  <s_lp_Variant>  (1) 
DiffSBDD_8-2

>  <s_m_source_file>  (1) 
generated_GPCR_5HT2C_ligand_DiffSBDD_2026-06-23_prepared.sdf

>  <GenAI_Model>  (1) 
DiffSBDD

>  <Protein>  (1) 
GPCR_5HT2C

$$$$
DiffSBDD_14
     RDKit          3D

  0  0  0  0  0  0  0  0  0  0999 V3000
M  V30 BEGIN CTAB
M  V30 COUNTS 58 59 0 0 1
M  V30 BEGIN ATOM
M  V30 1 Cl 38.845149 26.937754 50.967760 0
M  V30 2 C 37.282381 29.476790 58.103528 0
M  V30 3 N 40.331774 30.569502 50.905369 0
M  V30 4 C 40.120346 30.937784 52.187600 0
M  V30 5 C 37.114923 36.164207 60.162500 0
M  V30 6 C 37.831736 39.431892 60.774267 0
M  V30 7 C 35.864102 38.805936 62.192566 0
M  V30 8 C 38.222792 30.544201 57.517307 0 CFG=1
M  V30 9 C 38.191647 33.646717 61.207285 0
M  V30 10 C 39.327842 28.450294 51.466711 0
M  V30 11 C 37.109891 38.537673 61.767761 0
M  V30 12 C 39.926404 29.337720 50.564402 0
M  V30 13 O 37.252138 29.542531 54.967791 0 CHG=-1
M  V30 14 N 37.645136 31.227059 56.329351 0 CHG=1
M  V30 15 C 37.889355 37.323180 62.257108 0
M  V30 16 C 36.670484 34.809109 59.608511 0
M  V30 17 C 39.133012 28.837469 52.782578 0
M  V30 18 C 37.837138 30.709155 54.964997 0 CFG=1
M  V30 19 C 39.533309 30.111675 53.156538 0
M  V30 20 C 39.333508 30.593808 54.579309 0
M  V30 21 C 37.391517 32.454359 59.058928 0
M  V30 22 C 37.796482 33.770981 59.729675 0 CFG=2
M  V30 23 C 38.605980 35.024155 61.761289 0
M  V30 24 N 37.534289 36.043269 61.585224 0 CFG=2 CHG=1
M  V30 25 C 38.578937 31.619705 58.559517 0
M  V30 26 H 37.645308 29.122168 59.068405 0
M  V30 27 H 36.272029 29.861216 58.245688 0
M  V30 28 H 37.218950 28.608504 57.448551 0
M  V30 29 H 40.440795 31.911447 52.443318 0
M  V30 30 H 36.273457 36.848965 60.053603 0
M  V30 31 H 37.936221 36.563684 59.568206 0
M  V30 32 H 38.016448 38.915759 59.832574 0
M  V30 33 H 37.245231 40.327965 60.567836 0
M  V30 34 H 38.791719 39.755069 61.175517 0
M  V30 35 H 35.365517 38.162628 62.902591 0
M  V30 36 H 35.328949 39.673766 61.833874 0
M  V30 37 H 39.154895 30.053617 57.245840 0
M  V30 38 H 37.358442 33.246784 61.786045 0
M  V30 39 H 39.014673 32.940399 61.321287 0
M  V30 40 H 40.083119 29.049346 49.535237 0
M  V30 41 H 36.633409 31.337744 56.504353 0
M  V30 42 H 38.954243 37.526368 62.129999 0
M  V30 43 H 37.730343 37.202538 63.330196 0
M  V30 44 H 35.778624 34.462853 60.133268 0
M  V30 45 H 36.378441 34.936627 58.567822 0
M  V30 46 H 38.678185 28.163912 53.493254 0
M  V30 47 H 37.443699 31.510844 54.336810 0
M  V30 48 H 39.824010 31.559158 54.708268 0
M  V30 49 H 39.862759 29.892763 55.222456 0
M  V30 50 H 36.708973 31.872072 59.678840 0
M  V30 51 H 36.844706 32.747316 58.172488 0
M  V30 52 H 38.662977 34.137797 59.184126 0
M  V30 53 H 39.512993 35.362788 61.254213 0
M  V30 54 H 38.861716 34.940523 62.817402 0
M  V30 55 H 39.256368 32.310461 58.066738 0
M  V30 56 H 39.117012 31.182070 59.401091 0
M  V30 57 H 36.722807 35.696556 62.077277 0
M  V30 58 H 38.011894 32.163371 56.314866 0
M  V30 END ATOM
M  V30 BEGIN BOND
M  V30 1 1 4 3
M  V30 2 1 8 2
M  V30 3 1 10 1
M  V30 4 1 11 6
M  V30 5 2 11 7
M  V30 6 2 12 3
M  V30 7 1 12 10
M  V30 8 1 14 8
M  V30 9 1 15 11
M  V30 10 1 16 5
M  V30 11 2 17 10
M  V30 12 1 18 13
M  V30 13 1 18 14
M  V30 14 2 19 4
M  V30 15 1 19 17
M  V30 16 1 20 18
M  V30 17 1 20 19
M  V30 18 1 22 9
M  V30 19 1 22 16
M  V30 20 1 22 21
M  V30 21 1 23 9
M  V30 22 1 24 5
M  V30 23 1 24 15
M  V30 24 1 24 23
M  V30 25 1 25 8
M  V30 26 1 25 21
M  V30 27 1 26 2
M  V30 28 1 27 2
M  V30 29 1 28 2
M  V30 30 1 29 4
M  V30 31 1 30 5
M  V30 32 1 31 5
M  V30 33 1 32 6
M  V30 34 1 33 6
M  V30 35 1 34 6
M  V30 36 1 35 7
M  V30 37 1 36 7
M  V30 38 1 8 37 CFG=3
M  V30 39 1 38 9
M  V30 40 1 39 9
M  V30 41 1 40 12
M  V30 42 1 41 14
M  V30 43 1 42 15
M  V30 44 1 43 15
M  V30 45 1 44 16
M  V30 46 1 45 16
M  V30 47 1 46 17
M  V30 48 1 18 47 CFG=3
M  V30 49 1 48 20
M  V30 50 1 49 20
M  V30 51 1 50 21
M  V30 52 1 51 21
M  V30 53 1 22 52 CFG=3
M  V30 54 1 53 23
M  V30 55 1 54 23
M  V30 56 1 55 25
M  V30 57 1 56 25
M  V30 58 1 24 57 CFG=1
M  V30 59 1 58 14
M  V30 END BOND
M  V30 END CTAB
M  END
>  <i_epik_Tot_Q>  (1) 
1

>  <i_epik_Tot_abs_Q>  (1) 
3

>  <i_i_glide_confnum>  (1) 
36

>  <i_i_glide_lignum>  (1) 
29

>  <i_i_glide_posenum>  (1) 
324

>  <i_i_glide_rotatable_bonds>  (1) 
9

>  <i_lp_mmshare_version>  (1) 
72125

>  <i_m_source_file_index>  (1) 
15

>  <i_f3d_flags>  (1) 
0

>  <num_sample>  (1) 
50

>  <b_lp_Chiralities_Consistent>  (1) 
1

>  <r_epik_Charging_Adjusted_Penalty>  (1) 
1.1654849776379888

>  <r_epik_Ionization_Penalty>  (1) 
0.58785290175030958

>  <r_epik_Ionization_Penalty_Charging>  (1) 
0.58784809198166499

>  <r_epik_Ionization_Penalty_Neutral>  (1) 
4.8097686445928234e-06

>  <r_epik_State_Penalty>  (1) 
0.57763688565632376

>  <r_glide_ring_energy>  (1) 
0

>  <r_i_docking_score>  (1) 
-5.8397976205767455

>  <r_i_glide_ecoul>  (1) 
-6.2735860194006579

>  <r_i_glide_eff_state_penalty>  (1) 
0.57763688565632376

>  <r_i_glide_einternal>  (1) 
11.364601450136053

>  <r_i_glide_emodel>  (1) 
-44.586113448013649

>  <r_i_glide_emodel_strain>  (1) 
1.1384622092957599

>  <r_i_glide_energy>  (1) 
-33.267545497704688

>  <r_i_glide_erotb>  (1) 
1.143828235945936

>  <r_i_glide_esite>  (1) 
-0.1505254839914737

>  <r_i_glide_evdw>  (1) 
-26.993959478304031

>  <r_i_glide_gscore>  (1) 
-6.4174345062330689

>  <r_i_glide_gscore_strain>  (1) 
0

>  <r_i_glide_hbond>  (1) 
-0.14898597506154304

>  <r_i_glide_ligand_efficiency>  (1) 
-0.23359190482306982

>  <r_i_glide_ligand_efficiency_ln>  (1) 
-1.3842070406893718

>  <r_i_glide_ligand_efficiency_sa>  (1) 
-0.68302687320558775

>  <r_i_glide_lipo>  (1) 
-3.1639143381188677

>  <r_i_glide_metal>  (1) 
-0

>  <r_i_glide_rewards>  (1) 
-1.8071010681818191

>  <r_lp_Energy>  (1) 
30.160715

>  <s_epik_Chemistry_Notes>  (1) 
This compound contains an acetal/aminal-like group ( X-CH(R)-Y where X, Y are N, S, or O) that may be acid/base labile, releasing an aldehyde.

>  <s_epik_cmdline>  (1) 
J2VwaWtfcHl0aG9uJywgJy1waHQnLCAnMS4wJywgJy1waCcsICc3LjQnLCAnLXRuJywgJzgnLCAnLW1hJywgJzUwMCcsICctaW1hZScsICc8aW5maWxlLm1hZT4nLCAnLW9tYWUnLCAnPG91dGZpbGUubWFlPic=

>  <s_epik_input>  (1) 
Q2xjMVtjSF1uW2NIXWMoW2NIXTEpW0NIMl1bQ0BASF0oW09IXSlbTkhdW0NASF0oW0NIM10pW0NIMl1bQ0gyXVtDSF0yW0NIMl1bQ0gyXU4oW0NIMl1bQ0gyXTIpW0NIMl1DKFtDSDNdKT1bQ0gyXQ==

>  <s_glide_docking_method>  (1) 
confgen

>  <s_i_glide_gridfile>  (1) 
gpcr_5ht2c_6bqh_protein_autoprepared_prepared

>  <s_lp_Force_Field>  (1) 
S-OPLS

>  <s_lp_Variant>  (1) 
DiffSBDD_14-3

>  <s_m_source_file>  (1) 
generated_GPCR_5HT2C_ligand_DiffSBDD_2026-06-23_prepared.sdf

>  <GenAI_Model>  (1) 
DiffSBDD

>  <Protein>  (1) 
GPCR_5HT2C

$$$$
DiffSBDD_13
     RDKit          3D

  0  0  0  0  0  0  0  0  0  0999 V3000
M  V30 BEGIN CTAB
M  V30 COUNTS 81 82 0 0 1
M  V30 BEGIN ATOM
M  V30 1 N 41.330407 27.930047 57.160492 0
M  V30 2 C 38.484399 26.816758 57.929581 0 CFG=2
M  V30 3 O 39.989581 39.737380 61.350870 0
M  V30 4 C 39.261157 30.961136 53.763244 0
M  V30 5 C 36.748110 25.912406 56.297262 0
M  V30 6 C 35.878376 29.539873 58.582398 0
M  V30 7 C 36.055156 37.737502 60.730427 0
M  V30 8 C 38.918223 29.434540 58.187601 0
M  V30 9 C 38.143851 26.517734 53.252079 0
M  V30 10 O 36.942960 29.339550 59.497710 0
M  V30 11 C 38.121111 30.114530 59.335224 0 CFG=2
M  V30 12 N 39.296681 27.997599 58.479940 0 CFG=2 CHG=1
M  V30 13 O 37.749427 40.084940 60.969746 0
M  V30 14 C 39.140065 27.037294 52.128187 0
M  V30 15 C 38.578372 28.675688 53.782220 0
M  V30 16 C 38.090644 36.583621 60.670895 0 CFG=1
M  V30 17 C 38.563145 29.928558 54.361797 0
M  V30 18 C 39.143832 25.395895 57.939355 0
M  V30 19 C 37.896322 27.559446 54.373885 0 CFG=2
M  V30 20 C 38.605054 32.646448 60.052072 0
M  V30 21 C 38.009497 34.080537 59.996708 0
M  V30 22 C 40.768815 27.850375 58.490873 0
M  V30 23 C 38.810978 39.163715 60.885116 0
M  V30 24 C 38.680442 35.160834 60.889153 0
M  V30 25 O 38.609631 27.163956 55.531224 0
M  V30 26 C 37.740432 27.047080 56.619140 0 CFG=2
M  V30 27 C 38.193049 24.168016 58.142607 0
M  V30 28 C 39.960647 29.440284 51.976943 0
M  V30 29 F 39.245337 32.162812 54.331606 0
M  V30 30 O 36.704623 36.499803 60.956474 0
M  V30 31 C 39.239750 28.427060 52.629281 0
M  V30 32 C 38.730756 37.721339 61.531653 0
M  V30 33 C 39.980489 30.729831 52.557667 0
M  V30 34 O 42.752424 27.741555 57.371445 0
M  V30 35 C 37.789957 31.639129 59.192821 0
M  V30 36 H 41.084438 27.130486 56.588936 0
M  V30 37 H 37.652745 26.751570 58.606085 0
M  V30 38 H 40.552869 39.944262 60.612501 0
M  V30 39 H 36.155899 25.613498 57.160960 0
M  V30 40 H 36.045116 26.140534 55.535460 0
M  V30 41 H 37.257075 25.070690 55.838157 0
M  V30 42 H 35.251457 28.649168 58.569538 0
M  V30 43 H 35.245821 30.362989 58.898463 0
M  V30 44 H 36.201686 29.736474 57.562886 0
M  V30 45 H 34.998699 37.737671 60.567616 0
M  V30 46 H 36.170854 38.392554 61.587593 0
M  V30 47 H 36.490127 38.134840 59.830847 0
M  V30 48 H 39.826471 30.026308 58.059726 0
M  V30 49 H 38.429768 29.571081 57.235555 0
M  V30 50 H 38.449680 25.610153 53.767535 0
M  V30 51 H 37.193164 26.309935 52.792061 0
M  V30 52 H 38.694161 29.978099 60.252108 0
M  V30 53 H 37.378725 40.065926 61.838711 0
M  V30 54 H 38.748332 26.974263 51.112814 0
M  V30 55 H 40.044515 26.466301 52.218708 0
M  V30 56 H 38.212882 36.830153 59.615439 0
M  V30 57 H 38.015043 30.102673 55.270691 0
M  V30 58 H 39.722296 25.249438 57.025572 0
M  V30 59 H 39.871191 25.339755 58.740030 0
M  V30 60 H 36.851406 27.840535 54.495492 0
M  V30 61 H 38.623066 32.311129 61.089849 0
M  V30 62 H 39.642414 32.665585 59.718642 0
M  V30 63 H 38.013404 34.420081 58.961765 0
M  V30 64 H 36.956379 34.023972 60.273288 0
M  V30 65 H 41.080293 26.937024 58.968359 0
M  V30 66 H 41.194303 28.644933 59.102659 0
M  V30 67 H 38.843967 39.100872 59.805368 0
M  V30 68 H 38.570398 34.883471 61.936241 0
M  V30 69 H 39.751057 35.184275 60.688725 0
M  V30 70 H 37.245116 27.991123 56.726631 0
M  V30 71 H 38.795415 23.264560 58.165588 0
M  V30 72 H 37.645288 24.222606 59.075550 0
M  V30 73 H 37.472465 23.888450 57.389981 0
M  V30 74 H 40.492789 29.239065 51.057459 0
M  V30 75 H 38.267553 37.737493 62.519460 0
M  V30 76 H 39.756184 37.400347 61.729818 0
M  V30 77 H 40.527319 31.530893 52.085383 0
M  V30 78 H 42.848318 26.797612 57.404947 0
M  V30 79 H 37.802463 31.932157 58.140948 0
M  V30 80 H 36.762033 31.790843 59.515451 0
M  V30 81 H 39.081249 27.933676 59.465153 0
M  V30 END ATOM
M  V30 BEGIN BOND
M  V30 1 1 10 6
M  V30 2 1 11 8
M  V30 3 1 11 10
M  V30 4 1 12 2
M  V30 5 1 12 8
M  V30 6 1 14 9
M  V30 7 2 17 4
M  V30 8 1 17 15
M  V30 9 1 18 2
M  V30 10 1 19 9
M  V30 11 1 19 15
M  V30 12 1 21 20
M  V30 13 1 22 1
M  V30 14 1 22 12
M  V30 15 1 23 3
M  V30 16 1 23 13
M  V30 17 1 24 16
M  V30 18 1 24 21
M  V30 19 1 25 19
M  V30 20 1 26 2
M  V30 21 1 26 5
M  V30 22 1 26 25
M  V30 23 1 27 18
M  V30 24 1 29 4
M  V30 25 1 30 7
M  V30 26 1 30 16
M  V30 27 1 31 14
M  V30 28 2 31 15
M  V30 29 1 31 28
M  V30 30 1 32 16
M  V30 31 1 32 23
M  V30 32 1 33 4
M  V30 33 2 33 28
M  V30 34 1 34 1
M  V30 35 1 35 11
M  V30 36 1 35 20
M  V30 37 1 36 1
M  V30 38 1 2 37 CFG=1
M  V30 39 1 38 3
M  V30 40 1 39 5
M  V30 41 1 40 5
M  V30 42 1 41 5
M  V30 43 1 42 6
M  V30 44 1 43 6
M  V30 45 1 44 6
M  V30 46 1 45 7
M  V30 47 1 46 7
M  V30 48 1 47 7
M  V30 49 1 48 8
M  V30 50 1 49 8
M  V30 51 1 50 9
M  V30 52 1 51 9
M  V30 53 1 11 52 CFG=1
M  V30 54 1 53 13
M  V30 55 1 54 14
M  V30 56 1 55 14
M  V30 57 1 16 56 CFG=3
M  V30 58 1 57 17
M  V30 59 1 58 18
M  V30 60 1 59 18
M  V30 61 1 19 60 CFG=1
M  V30 62 1 61 20
M  V30 63 1 62 20
M  V30 64 1 63 21
M  V30 65 1 64 21
M  V30 66 1 65 22
M  V30 67 1 66 22
M  V30 68 1 67 23
M  V30 69 1 68 24
M  V30 70 1 69 24
M  V30 71 1 26 70 CFG=1
M  V30 72 1 71 27
M  V30 73 1 72 27
M  V30 74 1 73 27
M  V30 75 1 74 28
M  V30 76 1 75 32
M  V30 77 1 76 32
M  V30 78 1 77 33
M  V30 79 1 78 34
M  V30 80 1 79 35
M  V30 81 1 80 35
M  V30 82 1 12 81 CFG=1
M  V30 END BOND
M  V30 END CTAB
M  END
>  <i_epik_Tot_Q>  (1) 
1

>  <i_epik_Tot_abs_Q>  (1) 
1

>  <i_i_glide_confnum>  (1) 
6666

>  <i_i_glide_lignum>  (1) 
25

>  <i_i_glide_posenum>  (1) 
17

>  <i_i_glide_rotatable_bonds>  (1) 
21

>  <i_lp_mmshare_version>  (1) 
72125

>  <i_m_source_file_index>  (1) 
14

>  <i_f3d_flags>  (1) 
0

>  <num_sample>  (1) 
50

>  <b_lp_Chiralities_Consistent>  (1) 
1

>  <r_epik_Charging_Adjusted_Penalty>  (1) 
0.45110583801900384

>  <r_epik_Ionization_Penalty>  (1) 
0.22670498176529164

>  <r_epik_Ionization_Penalty_Charging>  (1) 
0.22555291900950195

>  <r_epik_Ionization_Penalty_Neutral>  (1) 
0.001152062755789702

>  <r_epik_State_Penalty>  (1) 
0.22555291900950192

>  <r_glide_ring_energy>  (1) 
0

>  <r_i_docking_score>  (1) 
-5.8373811738557961

>  <r_i_glide_ecoul>  (1) 
-12.800216072162442

>  <r_i_glide_eff_state_penalty>  (1) 
0.22555291900950192

>  <r_i_glide_einternal>  (1) 
35.380192144443434

>  <r_i_glide_emodel>  (1) 
-8.7796001843911675

>  <r_i_glide_emodel_strain>  (1) 
5.9249018902034081

>  <r_i_glide_energy>  (1) 
-13.844730236349577

>  <r_i_glide_erotb>  (1) 
1.1363863637419909

>  <r_i_glide_esite>  (1) 
0

>  <r_i_glide_evdw>  (1) 
-1.0445141641871354

>  <r_i_glide_gscore>  (1) 
-6.0629340928652979

>  <r_i_glide_gscore_strain>  (1) 
0.48122547255085202

>  <r_i_glide_hbond>  (1) 
-0.73130112816721837

>  <r_i_glide_ligand_efficiency>  (1) 
-0.16678231925302275

>  <r_i_glide_ligand_efficiency_ln>  (1) 
-1.2814347213563326

>  <r_i_glide_ligand_efficiency_sa>  (1) 
-0.54555602564368055

>  <r_i_glide_lipo>  (1) 
-3.9427881907307176

>  <r_i_glide_metal>  (1) 
-0

>  <r_i_glide_rewards>  (1) 
-1.0341984912264817

>  <r_lp_Energy>  (1) 
16.295462000000001

>  <s_epik_Chemistry_Notes>  (1) 
This compound contains an acetal/aminal-like group ( X-CH(R)-Y where X, Y are N, S, or O) that may be acid/base labile, releasing an aldehyde. This compound has a N-S or N-O group and may undergo hydrolysis at high or low pH.

>  <s_epik_cmdline>  (1) 
J2VwaWtfcHl0aG9uJywgJy1waHQnLCAnMS4wJywgJy1waCcsICc3LjQnLCAnLXRuJywgJzgnLCAnLW1hJywgJzUwMCcsICctaW1hZScsICc8aW5maWxlLm1hZT4nLCAnLW9tYWUnLCAnPG91dGZpbGUubWFlPic=

>  <s_epik_input>  (1) 
W09IXVtDSF0oW09IXSlbQ0gyXVtDQEhdKE9bQ0gzXSlbQ0gyXVtDSDJdW0NIMl1bQ0gyXVtDQEBIXShPW0NIM10pW0NIMl1OKFtDSDJdW05IXVtPSF0pW0NASF0oW0NIMl1bQ0gzXSlbQ0BIXShbQ0gzXSlPW0NAQEhdMVtDSDJdW0NIMl1jKGMxMilbY0hdW2NIXWMoRilbY0hdMg==

>  <s_glide_docking_method>  (1) 
confgen

>  <s_i_glide_gridfile>  (1) 
gpcr_5ht2c_6bqh_protein_autoprepared_prepared

>  <s_lp_Force_Field>  (1) 
S-OPLS

>  <s_lp_Variant>  (1) 
DiffSBDD_13-2

>  <s_m_source_file>  (1) 
generated_GPCR_5HT2C_ligand_DiffSBDD_2026-06-23_prepared.sdf

>  <GenAI_Model>  (1) 
DiffSBDD

>  <Protein>  (1) 
GPCR_5HT2C

$$$$
DiffSBDD_26
     RDKit          3D

  0  0  0  0  0  0  0  0  0  0999 V3000
M  V30 BEGIN CTAB
M  V30 COUNTS 84 87 0 0 1
M  V30 BEGIN ATOM
M  V30 1 C 39.839894 32.102955 60.878817 0
M  V30 2 C 40.461593 29.837284 50.676567 0
M  V30 3 C 37.904663 31.444421 55.422925 0
M  V30 4 C 38.560969 26.255605 55.081153 0
M  V30 5 N 38.497272 30.167104 55.803679 0
M  V30 6 O 40.445491 26.869059 56.470950 0
M  V30 7 C 39.587384 29.576051 53.080398 0
M  V30 8 C 39.211960 28.643098 54.257069 0 CFG=1
M  V30 9 N 37.403430 32.154913 60.686146 0 CFG=2 CHG=1
M  V30 10 N 40.533824 30.244579 62.468431 0
M  V30 11 C 38.337674 32.526567 56.433626 0
M  V30 12 C 40.991591 29.697100 64.844876 0
M  V30 13 C 39.867822 31.221626 50.537043 0
M  V30 14 C 38.686235 33.211266 58.843609 0
M  V30 15 C 39.414994 26.220640 56.323278 0
M  V30 16 O 41.159672 28.137801 61.901004 0
M  V30 17 C 38.097858 32.128889 57.908178 0
M  V30 18 C 40.445072 29.117108 61.730673 0
M  V30 19 C 37.787511 24.627431 57.196554 0
M  V30 20 C 37.050770 24.666343 56.101193 0
M  V30 21 C 37.446437 25.494430 55.019792 0
M  V30 22 C 41.513860 30.367686 63.556385 0
M  V30 23 O 38.041918 29.180088 54.862843 0
M  V30 24 C 35.691595 33.924289 61.027923 0
M  V30 25 C 38.159300 30.936338 62.427321 0
M  V30 26 C 38.994773 27.147657 53.915990 0
M  V30 27 C 37.964063 29.739605 57.084476 0
M  V30 28 C 36.134241 32.500036 61.272744 0 CFG=2
M  V30 29 C 38.567081 30.672514 58.130027 0
M  V30 30 C 39.749840 28.936035 51.697860 0
M  V30 31 C 37.312124 32.149625 62.144425 0 CFG=2
M  V30 32 C 38.616198 32.936487 60.357228 0 CFG=2
M  V30 33 C 40.428277 29.206084 49.308311 0
M  V30 34 C 39.627508 31.384391 62.249184 0 CFG=2
M  V30 35 O 41.855873 31.224502 66.377315 0
M  V30 36 O 41.902761 29.842938 65.920305 0
M  V30 37 N 38.952021 25.386486 57.313514 0
M  V30 38 H 40.738831 32.720734 60.912420 0
M  V30 39 H 40.045153 31.317995 60.167787 0
M  V30 40 H 41.507656 29.931279 50.968229 0
M  V30 41 H 36.827849 31.341089 55.367686 0
M  V30 42 H 38.235261 31.744275 54.430717 0
M  V30 43 H 39.473017 25.307889 58.174877 0
M  V30 44 H 38.819573 30.334344 52.974943 0
M  V30 45 H 40.478833 30.137762 53.353375 0
M  V30 46 H 40.044940 28.684792 54.960797 0
M  V30 47 H 37.817096 33.458755 56.210075 0
M  V30 48 H 39.398606 32.733025 56.285696 0
M  V30 49 H 40.853290 28.627425 64.680938 0
M  V30 50 H 40.013491 30.091539 65.126800 0
M  V30 51 H 38.845114 31.201573 50.167719 0
M  V30 52 H 39.912976 31.745840 51.485646 0
M  V30 53 H 40.452906 31.738924 49.786771 0
M  V30 54 H 38.117120 34.123901 58.654526 0
M  V30 55 H 39.707522 33.450646 58.558293 0
M  V30 56 H 37.033603 32.126865 58.121464 0
M  V30 57 H 39.657003 29.194819 60.966437 0
M  V30 58 H 37.558383 24.024372 58.063123 0
M  V30 59 H 36.151779 24.071644 56.028111 0
M  V30 60 H 36.844936 25.516324 54.124690 0
M  V30 61 H 41.751180 31.416331 63.735121 0
M  V30 62 H 42.462658 29.911523 63.265669 0
M  V30 63 H 34.845508 34.138029 61.677622 0
M  V30 64 H 36.475645 34.646255 61.253498 0
M  V30 65 H 35.380605 34.051149 59.989475 0
M  V30 66 H 37.882235 30.137840 61.747316 0
M  V30 67 H 38.045126 30.537874 63.433065 0
M  V30 68 H 38.254735 27.062519 53.117889 0
M  V30 69 H 39.917332 26.718635 53.525248 0
M  V30 70 H 36.872649 29.767227 57.094887 0
M  V30 71 H 38.271616 28.712798 57.286549 0
M  V30 72 H 35.404004 31.723465 61.054456 0
M  V30 73 H 39.645158 30.585969 58.051501 0
M  V30 74 H 38.291313 30.296817 59.111752 0
M  V30 75 H 40.334428 28.020638 51.774269 0
M  V30 76 H 38.763930 28.654450 51.324046 0
M  V30 77 H 37.743709 33.042800 62.567762 0
M  V30 78 H 38.621092 33.907489 60.855813 0
M  V30 79 H 39.511088 29.425444 48.780571 0
M  V30 80 H 41.245588 29.530931 48.667274 0
M  V30 81 H 40.445158 28.137797 49.450525 0
M  V30 82 H 39.817587 32.128001 63.024860 0
M  V30 83 H 42.587851 31.594707 65.908227 0
M  V30 84 H 37.400297 31.218730 60.307881 0
M  V30 END ATOM
M  V30 BEGIN BOND
M  V30 1 1 5 3
M  V30 2 1 8 7
M  V30 3 1 11 3
M  V30 4 1 13 2
M  V30 5 1 15 4
M  V30 6 2 15 6
M  V30 7 1 17 11
M  V30 8 1 17 14
M  V30 9 1 18 10
M  V30 10 2 18 16
M  V30 11 2 20 19
M  V30 12 2 21 4
M  V30 13 1 21 20
M  V30 14 1 22 10
M  V30 15 1 22 12
M  V30 16 1 23 5
M  V30 17 1 23 8
M  V30 18 1 26 4
M  V30 19 1 26 8
M  V30 20 1 27 5
M  V30 21 1 28 9
M  V30 22 1 28 24
M  V30 23 1 29 17
M  V30 24 1 29 27
M  V30 25 1 30 2
M  V30 26 1 30 7
M  V30 27 1 31 9
M  V30 28 1 31 25
M  V30 29 1 31 28
M  V30 30 1 32 1
M  V30 31 1 32 9
M  V30 32 1 32 14
M  V30 33 1 33 2
M  V30 34 1 34 1
M  V30 35 1 34 10
M  V30 36 1 34 25
M  V30 37 1 36 12
M  V30 38 1 36 35
M  V30 39 1 37 15
M  V30 40 1 37 19
M  V30 41 1 38 1
M  V30 42 1 39 1
M  V30 43 1 40 2
M  V30 44 1 41 3
M  V30 45 1 42 3
M  V30 46 1 43 37
M  V30 47 1 44 7
M  V30 48 1 45 7
M  V30 49 1 8 46 CFG=1
M  V30 50 1 47 11
M  V30 51 1 48 11
M  V30 52 1 49 12
M  V30 53 1 50 12
M  V30 54 1 51 13
M  V30 55 1 52 13
M  V30 56 1 53 13
M  V30 57 1 54 14
M  V30 58 1 55 14
M  V30 59 1 56 17
M  V30 60 1 57 18
M  V30 61 1 58 19
M  V30 62 1 59 20
M  V30 63 1 60 21
M  V30 64 1 61 22
M  V30 65 1 62 22
M  V30 66 1 63 24
M  V30 67 1 64 24
M  V30 68 1 65 24
M  V30 69 1 66 25
M  V30 70 1 67 25
M  V30 71 1 68 26
M  V30 72 1 69 26
M  V30 73 1 70 27
M  V30 74 1 71 27
M  V30 75 1 28 72 CFG=3
M  V30 76 1 73 29
M  V30 77 1 74 29
M  V30 78 1 75 30
M  V30 79 1 76 30
M  V30 80 1 31 77 CFG=1
M  V30 81 1 32 78 CFG=1
M  V30 82 1 79 33
M  V30 83 1 80 33
M  V30 84 1 81 33
M  V30 85 1 34 82 CFG=1
M  V30 86 1 83 35
M  V30 87 1 9 84 CFG=3
M  V30 END BOND
M  V30 END CTAB
M  END
>  <i_epik_Tot_Q>  (1) 
1

>  <i_epik_Tot_abs_Q>  (1) 
1

>  <i_i_glide_confnum>  (1) 
463

>  <i_i_glide_lignum>  (1) 
59

>  <i_i_glide_posenum>  (1) 
165

>  <i_i_glide_rotatable_bonds>  (1) 
15

>  <i_lp_mmshare_version>  (1) 
72125

>  <i_m_source_file_index>  (1) 
27

>  <i_f3d_flags>  (1) 
0

>  <num_sample>  (1) 
50

>  <b_lp_Chiralities_Consistent>  (1) 
1

>  <r_epik_Charging_Adjusted_Penalty>  (1) 
0.02425622639956965

>  <r_epik_Ionization_Penalty>  (1) 
0.033094864685368548

>  <r_epik_Ionization_Penalty_Charging>  (1) 
0.02425622639956965

>  <r_epik_Ionization_Penalty_Neutral>  (1) 
0.0088386382857988978

>  <r_epik_State_Penalty>  (1) 
-0

>  <r_glide_ring_energy>  (1) 
0

>  <r_i_docking_score>  (1) 
-5.8309710134228574

>  <r_i_glide_ecoul>  (1) 
1.7450792966538526

>  <r_i_glide_eff_state_penalty>  (1) 
-0

>  <r_i_glide_einternal>  (1) 
15.966919190747635

>  <r_i_glide_emodel>  (1) 
-50.572047528911341

>  <r_i_glide_emodel_strain>  (1) 
1.6219719046737566

>  <r_i_glide_energy>  (1) 
-44.682850556543492

>  <r_i_glide_erotb>  (1) 
0.83677420797818713

>  <r_i_glide_esite>  (1) 
-0.07087530236194145

>  <r_i_glide_evdw>  (1) 
-46.427929853197348

>  <r_i_glide_gscore>  (1) 
-5.8309710134228574

>  <r_i_glide_gscore_strain>  (1) 
0

>  <r_i_glide_hbond>  (1) 
0

>  <r_i_glide_ligand_efficiency>  (1) 
-0.15759381117359075

>  <r_i_glide_ligand_efficiency_ln>  (1) 
-1.2646009154561091

>  <r_i_glide_ligand_efficiency_sa>  (1) 
-0.52513754127680534

>  <r_i_glide_lipo>  (1) 
-3.7838237456384829

>  <r_i_glide_metal>  (1) 
-0

>  <r_i_glide_rewards>  (1) 
-0.75341157523882951

>  <r_lp_Energy>  (1) 
62.164225999999999

>  <r_lp_tautomer_probability>  (1) 
1

>  <s_epik_Chemistry_Notes>  (1) 
This compound has a N-S or N-O group and may undergo hydrolysis at high or low pH.

>  <s_epik_cmdline>  (1) 
J2VwaWtfcHl0aG9uJywgJy1waHQnLCAnMS4wJywgJy1waCcsICc3LjQnLCAnLXRuJywgJzgnLCAnLW1hJywgJzUwMCcsICctaW1hZScsICc8aW5maWxlLm1hZT4nLCAnLW9tYWUnLCAnPG91dGZpbGUubWFlPic=

>  <s_epik_input>  (1) 
W09IXU9bQ0gyXVtDSDJdTihbQ0hdPU8pW0NASF0oW0NIMl1bQ0BASF0oTjEyKVtDQEhdMVtDSDNdKVtDSDJdW0NASF0yW0NIMl1bQ0hdKFtDSDJdW0NIMl0zKVtDSDJdW0NIMl1OM09bQ0BIXShbQ0gyXVtDSDJdW0NIXShbQ0gzXSlbQ0gzXSlbQ0gyXVtDQEBIXTRDKD1PKU49W0NIXVtDSF09W0NIXTQ=

>  <s_glide_docking_method>  (1) 
confgen

>  <s_i_glide_gridfile>  (1) 
gpcr_5ht2c_6bqh_protein_autoprepared_prepared

>  <s_lp_Force_Field>  (1) 
S-OPLS

>  <s_lp_Variant>  (1) 
DiffSBDD_26-4

>  <s_m_source_file>  (1) 
generated_GPCR_5HT2C_ligand_DiffSBDD_2026-06-23_prepared.sdf

>  <GenAI_Model>  (1) 
DiffSBDD

>  <Protein>  (1) 
GPCR_5HT2C

$$$$
DiffSBDD_14
     RDKit          3D

  0  0  0  0  0  0  0  0  0  0999 V3000
M  V30 BEGIN CTAB
M  V30 COUNTS 59 60 0 0 1
M  V30 BEGIN ATOM
M  V30 1 Cl 40.445165 30.769929 50.407660 0
M  V30 2 C 37.645133 28.937757 58.880626 0
M  V30 3 N 38.845120 27.301067 51.534244 0
M  V30 4 C 38.663423 27.495539 52.857557 0
M  V30 5 C 37.152813 35.333754 60.254153 0
M  V30 6 C 39.849877 37.974504 62.991519 0
M  V30 7 C 38.007639 37.004940 64.376078 0
M  V30 8 C 38.087568 30.008166 57.881796 0 CFG=1
M  V30 9 C 39.317926 33.615818 61.239843 0
M  V30 10 C 39.766015 29.537944 51.390064 0
M  V30 11 C 38.497486 37.322536 63.166577 0
M  V30 12 C 39.384734 28.311994 50.823517 0
M  V30 13 O 36.845140 30.137758 54.567755 0
M  V30 14 N 37.252498 29.926369 56.674391 0 CHG=1
M  V30 15 C 37.734795 37.042488 61.895031 0
M  V30 16 C 37.139800 33.830296 59.995949 0
M  V30 17 C 39.578984 29.737705 52.767752 0
M  V30 18 C 37.958732 30.080954 55.396316 0 CFG=1
M  V30 19 C 39.010722 28.690582 53.520371 0
M  V30 20 C 38.776742 28.834184 55.017637 0
M  V30 21 C 38.588144 31.737754 59.747989 0
M  V30 22 C 38.573369 33.252692 59.958464 0 CFG=2
M  V30 23 C 39.290215 35.125854 61.460939 0
M  V30 24 N 37.886930 35.627047 61.502621 0 CFG=2 CHG=1
M  V30 25 C 37.908562 31.416236 58.423136 0
M  V30 26 H 38.280251 28.929287 59.766761 0
M  V30 27 H 36.618415 29.111823 59.204318 0
M  V30 28 H 37.700779 27.944406 58.434520 0
M  V30 29 H 38.228120 26.672510 53.405357 0
M  V30 30 H 37.613552 35.862358 59.418660 0
M  V30 31 H 36.126170 35.694400 60.323856 0
M  V30 32 H 39.853446 38.675232 62.156704 0
M  V30 33 H 40.045133 38.537750 63.896039 0
M  V30 34 H 40.654749 37.255590 62.849868 0
M  V30 35 H 38.570437 37.209586 65.276450 0
M  V30 36 H 37.038906 36.537811 64.480835 0
M  V30 37 H 39.136246 29.836095 57.635600 0
M  V30 38 H 38.865653 33.109139 62.094056 0
M  V30 39 H 40.351530 33.271072 61.186042 0
M  V30 40 H 39.514311 28.137818 49.767782 0
M  V30 41 H 37.081916 29.724916 53.749127 0
M  V30 42 H 36.546005 30.668539 56.724139 0
M  V30 43 H 38.068040 37.703646 61.093450 0
M  V30 44 H 36.678068 37.258134 62.062691 0
M  V30 45 H 36.618745 33.671548 59.051778 0
M  V30 46 H 36.551374 33.326727 60.764521 0
M  V30 47 H 39.862022 30.669607 53.235536 0
M  V30 48 H 38.526579 31.010450 55.332380 0
M  V30 49 H 39.744069 28.852448 55.520668 0
M  V30 50 H 38.270470 27.935091 55.373542 0
M  V30 51 H 38.069660 31.237245 60.567501 0
M  V30 52 H 39.611033 31.365261 59.767806 0
M  V30 53 H 39.105249 33.716498 59.125139 0
M  V30 54 H 39.854633 35.646324 60.684858 0
M  V30 55 H 39.804544 35.289058 62.405344 0
M  V30 56 H 38.235298 32.125828 57.660276 0
M  V30 57 H 36.843843 31.579765 58.567771 0
M  V30 58 H 37.429846 35.098467 62.231498 0
M  V30 59 H 36.762609 29.046694 56.660103 0
M  V30 END ATOM
M  V30 BEGIN BOND
M  V30 1 1 4 3
M  V30 2 1 8 2
M  V30 3 1 10 1
M  V30 4 1 11 6
M  V30 5 2 11 7
M  V30 6 2 12 3
M  V30 7 1 12 10
M  V30 8 1 14 8
M  V30 9 1 15 11
M  V30 10 1 16 5
M  V30 11 2 17 10
M  V30 12 1 18 13
M  V30 13 1 18 14
M  V30 14 2 19 4
M  V30 15 1 19 17
M  V30 16 1 20 18
M  V30 17 1 20 19
M  V30 18 1 22 9
M  V30 19 1 22 16
M  V30 20 1 22 21
M  V30 21 1 23 9
M  V30 22 1 24 5
M  V30 23 1 24 15
M  V30 24 1 24 23
M  V30 25 1 25 8
M  V30 26 1 25 21
M  V30 27 1 26 2
M  V30 28 1 27 2
M  V30 29 1 28 2
M  V30 30 1 29 4
M  V30 31 1 30 5
M  V30 32 1 31 5
M  V30 33 1 32 6
M  V30 34 1 33 6
M  V30 35 1 34 6
M  V30 36 1 35 7
M  V30 37 1 36 7
M  V30 38 1 8 37 CFG=3
M  V30 39 1 38 9
M  V30 40 1 39 9
M  V30 41 1 40 12
M  V30 42 1 41 13
M  V30 43 1 42 14
M  V30 44 1 43 15
M  V30 45 1 44 15
M  V30 46 1 45 16
M  V30 47 1 46 16
M  V30 48 1 47 17
M  V30 49 1 18 48 CFG=1
M  V30 50 1 49 20
M  V30 51 1 50 20
M  V30 52 1 51 21
M  V30 53 1 52 21
M  V30 54 1 22 53 CFG=3
M  V30 55 1 54 23
M  V30 56 1 55 23
M  V30 57 1 56 25
M  V30 58 1 57 25
M  V30 59 1 24 58 CFG=1
M  V30 60 1 59 14
M  V30 END BOND
M  V30 END CTAB
M  END
>  <i_epik_Tot_Q>  (1) 
2

>  <i_epik_Tot_abs_Q>  (1) 
2

>  <i_i_glide_confnum>  (1) 
13

>  <i_i_glide_lignum>  (1) 
27

>  <i_i_glide_posenum>  (1) 
129

>  <i_i_glide_rotatable_bonds>  (1) 
10

>  <i_lp_mmshare_version>  (1) 
72125

>  <i_m_source_file_index>  (1) 
15

>  <i_f3d_flags>  (1) 
0

>  <num_sample>  (1) 
50

>  <b_lp_Chiralities_Consistent>  (1) 
1

>  <r_epik_Charging_Adjusted_Penalty>  (1) 
0.35265002497065456

>  <r_epik_Ionization_Penalty>  (1) 
0.35265410833524857

>  <r_epik_Ionization_Penalty_Charging>  (1) 
0.072075358936459305

>  <r_epik_Ionization_Penalty_Neutral>  (1) 
0.2805787493987893

>  <r_epik_State_Penalty>  (1) 
0.28057466603419523

>  <r_glide_ring_energy>  (1) 
0

>  <r_i_docking_score>  (1) 
-5.8307711725274673

>  <r_i_glide_ecoul>  (1) 
-3.0948185227799971

>  <r_i_glide_eff_state_penalty>  (1) 
0.28057466603419523

>  <r_i_glide_einternal>  (1) 
10.578446228049053

>  <r_i_glide_emodel>  (1) 
-51.550757743468431

>  <r_i_glide_emodel_strain>  (1) 
1.2160295541691752

>  <r_i_glide_energy>  (1) 
-34.488779973627601

>  <r_i_glide_erotb>  (1) 
1.1382379647718497

>  <r_i_glide_esite>  (1) 
-0.13940321875872122

>  <r_i_glide_evdw>  (1) 
-31.393961450847602

>  <r_i_glide_gscore>  (1) 
-6.1113458385616628

>  <r_i_glide_gscore_strain>  (1) 
0

>  <r_i_glide_hbond>  (1) 
-0.20000000000000001

>  <r_i_glide_ligand_efficiency>  (1) 
-0.23323084690109869

>  <r_i_glide_ligand_efficiency_ln>  (1) 
-1.382067502000873

>  <r_i_glide_ligand_efficiency_sa>  (1) 
-0.68197113343722193

>  <r_i_glide_lipo>  (1) 
-3.252929672229139

>  <r_i_glide_metal>  (1) 
-0

>  <r_i_glide_rewards>  (1) 
-1.6233300613862713

>  <r_lp_Energy>  (1) 
35.566913

>  <s_epik_Chemistry_Notes>  (1) 
This compound contains an acetal/aminal-like group ( X-CH(R)-Y where X, Y are N, S, or O) that may be acid/base labile, releasing an aldehyde.

>  <s_epik_cmdline>  (1) 
J2VwaWtfcHl0aG9uJywgJy1waHQnLCAnMS4wJywgJy1waCcsICc3LjQnLCAnLXRuJywgJzgnLCAnLW1hJywgJzUwMCcsICctaW1hZScsICc8aW5maWxlLm1hZT4nLCAnLW9tYWUnLCAnPG91dGZpbGUubWFlPic=

>  <s_epik_input>  (1) 
Q2xjMVtjSF1uW2NIXWMoW2NIXTEpW0NIMl1bQ0BASF0oW09IXSlbTkhdW0NASF0oW0NIM10pW0NIMl1bQ0gyXVtDSF0yW0NIMl1bQ0gyXU4oW0NIMl1bQ0gyXTIpW0NIMl1DKFtDSDNdKT1bQ0gyXQ==

>  <s_glide_docking_method>  (1) 
confgen

>  <s_i_glide_gridfile>  (1) 
gpcr_5ht2c_6bqh_protein_autoprepared_prepared

>  <s_lp_Force_Field>  (1) 
S-OPLS

>  <s_lp_Variant>  (1) 
DiffSBDD_14-1

>  <s_m_source_file>  (1) 
generated_GPCR_5HT2C_ligand_DiffSBDD_2026-06-23_prepared.sdf

>  <GenAI_Model>  (1) 
DiffSBDD

>  <Protein>  (1) 
GPCR_5HT2C

$$$$
DiffSBDD_25
     RDKit          3D

  0  0  0  0  0  0  0  0  0  0999 V3000
M  V30 BEGIN CTAB
M  V30 COUNTS 36 36 0 0 1
M  V30 BEGIN ATOM
M  V30 1 C 38.880613 31.140321 54.931686 0
M  V30 2 O 37.645144 24.681315 57.680601 0
M  V30 3 C 37.595603 24.920191 56.473559 0
M  V30 4 C 40.118781 30.697328 54.132601 0
M  V30 5 C 38.235622 28.445145 56.571824 0
M  V30 6 C 38.835969 27.036856 56.746811 0
M  V30 7 C 36.907242 23.926791 55.531244 0
M  V30 8 C 40.100866 29.747130 51.784063 0
M  V30 9 C 37.849608 27.791066 54.182938 0
M  V30 10 N 38.135232 26.041205 55.921501 0
M  V30 11 C 37.912035 28.756526 55.117498 0
M  V30 12 C 39.915502 29.846282 50.286377 0
M  V30 13 C 39.930873 30.779083 52.627405 0
M  V30 14 C 38.080886 26.317616 54.471571 0
M  V30 15 C 37.653613 30.218760 54.786007 0
M  V30 16 H 38.599257 32.151104 54.633756 0
M  V30 17 H 39.150690 31.217882 55.984919 0
M  V30 18 H 40.959890 31.337751 54.393306 0
M  V30 19 H 40.418128 29.703581 54.443221 0
M  V30 20 H 38.937679 29.177539 56.968543 0
M  V30 21 H 37.321350 28.543141 57.158390 0
M  V30 22 H 39.876883 27.050469 56.420148 0
M  V30 23 H 38.865400 26.785891 57.808095 0
M  V30 24 H 36.040348 24.375917 55.050925 0
M  V30 25 H 37.597613 23.567813 54.767568 0
M  V30 26 H 36.549124 23.062319 56.090889 0
M  V30 27 H 40.388586 28.781709 52.167759 0
M  V30 28 H 37.617474 28.051229 53.159966 0
M  V30 29 H 40.872683 29.737723 49.777933 0
M  V30 30 H 39.245145 29.060157 49.938219 0
M  V30 31 H 39.492957 30.810890 50.002455 0
M  V30 32 H 39.644935 31.737755 52.233485 0
M  V30 33 H 37.288736 25.794252 53.940040 0
M  V30 34 H 39.025070 26.019009 54.016282 0
M  V30 35 H 37.278665 30.286549 53.767760 0
M  V30 36 H 36.845145 30.578712 55.422972 0
M  V30 END ATOM
M  V30 BEGIN BOND
M  V30 1 2 3 2
M  V30 2 1 4 1
M  V30 3 1 6 5
M  V30 4 1 7 3
M  V30 5 1 10 3
M  V30 6 1 10 6
M  V30 7 1 11 5
M  V30 8 2 11 9
M  V30 9 1 12 8
M  V30 10 1 13 4
M  V30 11 2 13 8
M  V30 12 1 14 9
M  V30 13 1 14 10
M  V30 14 1 15 1
M  V30 15 1 15 11
M  V30 16 1 16 1
M  V30 17 1 17 1
M  V30 18 1 18 4
M  V30 19 1 19 4
M  V30 20 1 20 5
M  V30 21 1 21 5
M  V30 22 1 22 6
M  V30 23 1 23 6
M  V30 24 1 24 7
M  V30 25 1 25 7
M  V30 26 1 26 7
M  V30 27 1 27 8
M  V30 28 1 28 9
M  V30 29 1 29 12
M  V30 30 1 30 12
M  V30 31 1 31 12
M  V30 32 1 32 13
M  V30 33 1 33 14
M  V30 34 1 34 14
M  V30 35 1 35 15
M  V30 36 1 36 15
M  V30 END BOND
M  V30 END CTAB
M  END
>  <i_epik_Tot_Q>  (1) 
0

>  <i_epik_Tot_abs_Q>  (1) 
0

>  <i_i_glide_confnum>  (1) 
155

>  <i_i_glide_lignum>  (1) 
54

>  <i_i_glide_posenum>  (1) 
231

>  <i_i_glide_rotatable_bonds>  (1) 
5

>  <i_lp_mmshare_version>  (1) 
72125

>  <i_m_source_file_index>  (1) 
26

>  <i_f3d_flags>  (1) 
0

>  <num_sample>  (1) 
50

>  <b_lp_Chiralities_Consistent>  (1) 
1

>  <r_epik_Charging_Adjusted_Penalty>  (1) 
0

>  <r_epik_Ionization_Penalty>  (1) 
4.9398685500853885e-07

>  <r_epik_Ionization_Penalty_Charging>  (1) 
0

>  <r_epik_Ionization_Penalty_Neutral>  (1) 
4.9398685500853885e-07

>  <r_epik_State_Penalty>  (1) 
-0

>  <r_glide_ring_energy>  (1) 
0.0018408793270619076

>  <r_i_docking_score>  (1) 
-5.8268509039951164

>  <r_i_glide_ecoul>  (1) 
-0.77146720486366571

>  <r_i_glide_eff_state_penalty>  (1) 
-0

>  <r_i_glide_einternal>  (1) 
3.7810371628894845

>  <r_i_glide_emodel>  (1) 
-36.82097745235923

>  <r_i_glide_emodel_strain>  (1) 
0

>  <r_i_glide_energy>  (1) 
-28.574931848768095

>  <r_i_glide_erotb>  (1) 
1.5381532010122589

>  <r_i_glide_esite>  (1) 
0

>  <r_i_glide_evdw>  (1) 
-27.80346464390443

>  <r_i_glide_gscore>  (1) 
-5.8268509039951164

>  <r_i_glide_gscore_strain>  (1) 
0

>  <r_i_glide_hbond>  (1) 
0

>  <r_i_glide_ligand_efficiency>  (1) 
-0.38845672693300776

>  <r_i_glide_ligand_efficiency_ln>  (1) 
-1.5714056142667909

>  <r_i_glide_ligand_efficiency_sa>  (1) 
-0.95801667031707816

>  <r_i_glide_lipo>  (1) 
-2.4523682854130704

>  <r_i_glide_metal>  (1) 
-0

>  <r_i_glide_rewards>  (1) 
-3.4067425066695338

>  <r_lp_Energy>  (1) 
13.51521

>  <r_lp_tautomer_probability>  (1) 
1

>  <s_epik_cmdline>  (1) 
J2VwaWtfcHl0aG9uJywgJy1waHQnLCAnMS4wJywgJy1waCcsICc3LjQnLCAnLXRuJywgJzgnLCAnLW1hJywgJzUwMCcsICctaW1hZScsICc8aW5maWxlLm1hZT4nLCAnLW9tYWUnLCAnPG91dGZpbGUubWFlPic=

>  <s_epik_input>  (1) 
W0NIM10vW0NIXT1bQ0hdL1tDSDJdW0NIMl1bQ0gyXUMoPVtDSF1bQ0gyXTEpW0NIMl1bQ0gyXU4xQyg9TylbQ0gzXQ==

>  <s_glide_docking_method>  (1) 
confgen

>  <s_i_glide_gridfile>  (1) 
gpcr_5ht2c_6bqh_protein_autoprepared_prepared

>  <s_lp_Force_Field>  (1) 
S-OPLS

>  <s_lp_Variant>  (1) 
DiffSBDD_25-1

>  <s_m_source_file>  (1) 
generated_GPCR_5HT2C_ligand_DiffSBDD_2026-06-23_prepared.sdf

>  <GenAI_Model>  (1) 
DiffSBDD

>  <Protein>  (1) 
GPCR_5HT2C

$$$$
DiffSBDD_30
     RDKit          3D

  0  0  0  0  0  0  0  0  0  0999 V3000
M  V30 BEGIN CTAB
M  V30 COUNTS 75 78 0 0 1
M  V30 BEGIN ATOM
M  V30 1 C 37.473931 35.552201 61.788070 0 CFG=2
M  V30 2 N 36.814324 31.350998 59.510762 0 CFG=2 CHG=1
M  V30 3 C 39.304225 29.554956 52.769808 0
M  V30 4 O 38.056544 37.744299 61.076116 0
M  V30 5 C 36.447727 36.170250 62.773460 0
M  V30 6 C 40.668534 30.280605 61.332516 0 CFG=1
M  V30 7 N 39.263595 30.287512 60.931063 0
M  V30 8 C 37.247508 29.887151 59.476702 0 CFG=1
M  V30 9 O 36.710109 35.397719 59.485792 0
M  V30 10 C 40.667386 32.519067 62.665867 0
M  V30 11 C 36.803182 29.294377 58.115793 0
M  V30 12 C 41.243610 27.566248 63.808565 0
M  V30 13 O 40.849397 28.147556 62.567263 0
M  V30 14 C 38.759374 29.542209 59.771920 0 CFG=2
M  V30 15 C 36.323655 33.408433 60.802697 0 CFG=1
M  V30 16 C 41.192625 31.749172 61.446674 0
M  V30 17 C 37.376609 32.317617 60.503722 0
M  V30 18 C 38.494559 36.607002 61.369989 0
M  V30 19 O 37.707400 29.597443 57.075546 0
M  V30 20 O 38.843392 28.168376 60.084448 0
M  V30 21 C 35.370616 31.503060 59.746525 0
M  V30 22 O 41.508416 32.865629 63.522651 0 CHG=-1
M  V30 23 C 38.977053 29.011546 57.287737 0 CFG=2
M  V30 24 C 39.594058 29.740852 58.486227 0
M  V30 25 C 39.784183 29.168993 56.008995 0 CFG=2
M  V30 26 C 40.044483 29.279674 50.071296 0
M  V30 27 C 40.045326 30.570042 52.130616 0
M  V30 28 C 38.931633 28.401400 52.054668 0
M  V30 29 C 36.826630 34.842701 60.579415 0
M  V30 30 O 39.696358 36.258731 61.368385 0 CHG=-1
M  V30 31 C 38.906729 29.704212 54.220890 0 CFG=2
M  V30 32 C 35.123084 32.992725 59.953981 0
M  V30 33 C 39.305782 28.260479 50.708033 0
M  V30 34 C 40.410282 30.432916 50.781096 0
M  V30 35 O 39.438971 32.735355 62.715384 0
M  V30 36 C 40.840663 29.556054 62.686090 0
M  V30 37 C 39.771247 30.471008 55.219291 0
M  V30 38 O 39.097904 28.463070 54.948073 0
M  V30 39 H 38.054051 34.786790 62.294817 0
M  V30 40 H 36.045652 37.102255 62.387020 0
M  V30 41 H 35.623642 35.489268 62.976234 0
M  V30 42 H 36.926426 36.439710 63.716628 0
M  V30 43 H 41.252142 29.760336 60.581377 0
M  V30 44 H 38.654526 30.235153 61.742882 0
M  V30 45 H 36.652572 29.286342 60.166330 0
M  V30 46 H 35.836003 29.679410 57.808994 0
M  V30 47 H 36.690747 28.210119 58.163940 0
M  V30 48 H 41.241028 26.478409 63.766255 0
M  V30 49 H 42.256734 27.868150 64.082963 0
M  V30 50 H 40.569421 27.872477 64.610609 0
M  V30 51 H 36.045040 33.337463 61.854914 0
M  V30 52 H 42.278878 31.794934 61.490759 0
M  V30 53 H 40.909660 32.322595 60.567120 0
M  V30 54 H 37.494915 31.827539 61.468071 0
M  V30 55 H 38.337406 32.721538 60.177498 0
M  V30 56 H 39.338462 28.078199 60.889105 0
M  V30 57 H 34.724733 31.109793 58.969494 0
M  V30 58 H 35.218984 30.962292 60.682899 0
M  V30 59 H 38.873757 27.945888 57.499573 0
M  V30 60 H 39.609677 30.794125 58.230215 0
M  V30 61 H 40.623931 29.408458 58.610397 0
M  V30 62 H 40.799576 28.791221 56.112284 0
M  V30 63 H 40.323954 29.175883 49.033459 0
M  V30 64 H 40.327473 31.456867 52.674939 0
M  V30 65 H 38.359959 27.624627 52.540354 0
M  V30 66 H 37.865201 30.030388 54.278966 0
M  V30 67 H 35.100300 33.498216 58.985164 0
M  V30 68 H 34.173622 33.190386 60.453689 0
M  V30 69 H 39.022348 27.372210 50.162808 0
M  V30 70 H 40.969127 31.216287 50.289969 0
M  V30 71 H 41.802344 29.861443 63.106253 0
M  V30 72 H 40.067234 29.857638 63.396562 0
M  V30 73 H 39.255432 31.297382 55.712605 0
M  V30 74 H 40.759117 30.748973 54.850357 0
M  V30 75 H 36.986904 31.739131 58.590186 0
M  V30 END ATOM
M  V30 BEGIN BOND
M  V30 1 1 5 1
M  V30 2 1 7 6
M  V30 3 1 8 2
M  V30 4 1 11 8
M  V30 5 1 13 12
M  V30 6 1 14 7
M  V30 7 1 14 8
M  V30 8 1 16 6
M  V30 9 1 16 10
M  V30 10 1 17 2
M  V30 11 1 17 15
M  V30 12 1 18 1
M  V30 13 2 18 4
M  V30 14 1 19 11
M  V30 15 1 14 20 CFG=1
M  V30 16 1 21 2
M  V30 17 1 22 10
M  V30 18 1 23 19
M  V30 19 1 24 14
M  V30 20 1 24 23
M  V30 21 1 25 23
M  V30 22 1 27 3
M  V30 23 2 28 3
M  V30 24 1 29 1
M  V30 25 2 29 9
M  V30 26 1 29 15
M  V30 27 1 30 18
M  V30 28 1 31 3
M  V30 29 1 32 15
M  V30 30 1 32 21
M  V30 31 2 33 26
M  V30 32 1 33 28
M  V30 33 1 34 26
M  V30 34 2 34 27
M  V30 35 2 35 10
M  V30 36 1 36 6
M  V30 37 1 36 13
M  V30 38 1 37 25
M  V30 39 1 37 31
M  V30 40 1 38 25
M  V30 41 1 38 31
M  V30 42 1 1 39 CFG=1
M  V30 43 1 40 5
M  V30 44 1 41 5
M  V30 45 1 42 5
M  V30 46 1 6 43 CFG=3
M  V30 47 1 44 7
M  V30 48 1 8 45 CFG=1
M  V30 49 1 46 11
M  V30 50 1 47 11
M  V30 51 1 48 12
M  V30 52 1 49 12
M  V30 53 1 50 12
M  V30 54 1 15 51 CFG=1
M  V30 55 1 52 16
M  V30 56 1 53 16
M  V30 57 1 54 17
M  V30 58 1 55 17
M  V30 59 1 56 20
M  V30 60 1 57 21
M  V30 61 1 58 21
M  V30 62 1 23 59 CFG=1
M  V30 63 1 60 24
M  V30 64 1 61 24
M  V30 65 1 25 62 CFG=1
M  V30 66 1 63 26
M  V30 67 1 64 27
M  V30 68 1 65 28
M  V30 69 1 31 66 CFG=3
M  V30 70 1 67 32
M  V30 71 1 68 32
M  V30 72 1 69 33
M  V30 73 1 70 34
M  V30 74 1 71 36
M  V30 75 1 72 36
M  V30 76 1 73 37
M  V30 77 1 74 37
M  V30 78 1 2 75 CFG=3
M  V30 END BOND
M  V30 END CTAB
M  END
>  <i_epik_Tot_Q>  (1) 
-1

>  <i_epik_Tot_abs_Q>  (1) 
3

>  <i_i_glide_confnum>  (1) 
2955

>  <i_i_glide_lignum>  (1) 
67

>  <i_i_glide_posenum>  (1) 
164

>  <i_i_glide_rotatable_bonds>  (1) 
13

>  <i_lp_mmshare_version>  (1) 
72125

>  <i_m_source_file_index>  (1) 
31

>  <i_f3d_flags>  (1) 
0

>  <num_sample>  (1) 
50

>  <b_lp_Chiralities_Consistent>  (1) 
1

>  <r_epik_Charging_Adjusted_Penalty>  (1) 
0.42059132601078875

>  <r_epik_Ionization_Penalty>  (1) 
0.042345838263638087

>  <r_epik_Ionization_Penalty_Charging>  (1) 
0.028527830839106344

>  <r_epik_Ionization_Penalty_Neutral>  (1) 
0.013818007424531742

>  <r_epik_State_Penalty>  (1) 
0.39206349517168243

>  <r_glide_ring_energy>  (1) 
0

>  <r_i_docking_score>  (1) 
-5.8166466772071326

>  <r_i_glide_ecoul>  (1) 
-0.41662375728425749

>  <r_i_glide_eff_state_penalty>  (1) 
0.39206349517168243

>  <r_i_glide_einternal>  (1) 
27.683416914629134

>  <r_i_glide_emodel>  (1) 
-41.900244666614647

>  <r_i_glide_emodel_strain>  (1) 
4.0428010068661706

>  <r_i_glide_energy>  (1) 
-44.765611224055782

>  <r_i_glide_erotb>  (1) 
0.65218633798694536

>  <r_i_glide_esite>  (1) 
-0.089501792417043535

>  <r_i_glide_evdw>  (1) 
-44.348987466771526

>  <r_i_glide_gscore>  (1) 
-6.2087101723788152

>  <r_i_glide_gscore_strain>  (1) 
0.010700251716542653

>  <r_i_glide_hbond>  (1) 
-0.018012962836557234

>  <r_i_glide_ligand_efficiency>  (1) 
-0.15306964940018769

>  <r_i_glide_ligand_efficiency_ln>  (1) 
-1.2542401320152099

>  <r_i_glide_ligand_efficiency_sa>  (1) 
-0.51461639681077087

>  <r_i_glide_lipo>  (1) 
-2.7651611221577128

>  <r_i_glide_metal>  (1) 
-0

>  <r_i_glide_rewards>  (1) 
-1.7189779477397757

>  <r_lp_Energy>  (1) 
35.46461

>  <r_lp_tautomer_probability>  (1) 
0.99999996000000102

>  <s_epik_cmdline>  (1) 
J2VwaWtfcHl0aG9uJywgJy1waHQnLCAnMS4wJywgJy1waCcsICc3LjQnLCAnLXRuJywgJzgnLCAnLW1hJywgJzUwMCcsICctaW1hZScsICc8aW5maWxlLm1hZT4nLCAnLW9tYWUnLCAnPG91dGZpbGUubWFlPic=

>  <s_epik_input>  (1) 
Tz1DKFtPSF0pW0NAQEhdKFtDSDNdKUMoPU8pW0NAQEhdKFtDSDJdW0NIMl0xKVtDSDJdTjFbQ0BIXShbQ0BdMihbT0hdKVtOSF1bQ0BASF0oW0NIMl1DKD1PKVtPSF0pW0NIMl1PW0NIM10pW0NIMl1PW0NASF0oW0NIMl0yKVtDQEBIXTNbQ0gyXVtDSF0oTzMpYzRbY0hdW2NIXVtjSF1bY0hdW2NIXTQ=

>  <s_glide_docking_method>  (1) 
confgen

>  <s_i_glide_gridfile>  (1) 
gpcr_5ht2c_6bqh_protein_autoprepared_prepared

>  <s_lp_Force_Field>  (1) 
S-OPLS

>  <s_lp_Variant>  (1) 
DiffSBDD_30-2

>  <s_m_source_file>  (1) 
generated_GPCR_5HT2C_ligand_DiffSBDD_2026-06-23_prepared.sdf

>  <GenAI_Model>  (1) 
DiffSBDD

>  <Protein>  (1) 
GPCR_5HT2C

$$$$
DiffSBDD_7
     RDKit          3D

  0  0  0  0  0  0  0  0  0  0999 V3000
M  V30 BEGIN CTAB
M  V30 COUNTS 60 60 0 0 1
M  V30 BEGIN ATOM
M  V30 1 C 38.062969 25.850888 57.974572 0
M  V30 2 O 38.045135 32.652962 57.503825 0
M  V30 3 C 37.740756 24.558722 55.815992 0
M  V30 4 C 39.898374 27.388501 52.261518 0
M  V30 5 C 38.714568 25.368583 56.679080 0
M  V30 6 C 39.846962 29.491933 60.546894 0 CFG=1
M  V30 7 C 38.017658 30.191425 56.912912 0 CFG=1
M  V30 8 C 37.608595 28.137754 51.878034 0
M  V30 9 C 39.020596 28.641656 52.139653 0
M  V30 10 C 39.871193 28.466122 61.688933 0
M  V30 11 C 39.502149 29.369046 50.859793 0
M  V30 12 C 39.789289 26.537766 53.525903 0
M  V30 13 C 38.774798 31.519018 57.097259 0 CFG=1
M  V30 14 O 40.736548 30.509199 60.967763 0
M  V30 15 C 39.250638 28.220571 58.258432 0 CFG=2
M  V30 16 C 38.503536 29.286337 54.694503 0
M  V30 17 C 40.298472 28.938543 59.160205 0
M  V30 18 O 37.645156 28.414556 54.790177 0
M  V30 19 C 39.138480 29.647970 53.332411 0
M  V30 20 N 38.946478 30.007896 55.807061 0
M  V30 21 C 39.221850 31.423106 55.626169 0
M  V30 22 C 37.962137 29.045911 57.947211 0
M  V30 23 C 38.938409 26.808262 58.814802 0
M  V30 24 H 37.847047 24.963769 58.567772 0
M  V30 25 H 37.087019 26.283925 57.764843 0
M  V30 26 H 37.149982 32.537118 57.186429 0
M  V30 27 H 38.241956 24.138526 54.945192 0
M  V30 28 H 37.302503 23.737174 56.379963 0
M  V30 29 H 36.925171 25.188193 55.457840 0
M  V30 30 H 39.710702 26.736033 51.406160 0
M  V30 31 H 40.910049 27.737756 52.167758 0
M  V30 32 H 39.056077 26.229971 56.117323 0
M  V30 33 H 39.598492 24.770522 56.907276 0
M  V30 34 H 38.861588 29.950361 60.491371 0
M  V30 35 H 37.019641 30.409573 56.526989 0
M  V30 36 H 37.645128 27.553270 50.967761 0
M  V30 37 H 37.234625 27.455489 52.636798 0
M  V30 38 H 36.887560 28.937753 51.767770 0
M  V30 39 H 39.071000 27.737764 61.614678 0
M  V30 40 H 40.820416 27.930266 61.723180 0
M  V30 41 H 39.735627 28.956733 62.652617 0
M  V30 42 H 39.538958 28.693602 50.003631 0
M  V30 43 H 38.845262 30.185022 50.567761 0
M  V30 44 H 40.503599 29.784150 50.983242 0
M  V30 45 H 40.480814 25.698378 53.479434 0
M  V30 46 H 40.045142 27.103782 54.416072 0
M  V30 47 H 38.785107 26.138028 53.654253 0
M  V30 48 H 39.623748 31.405255 57.755700 0
M  V30 49 H 40.463725 31.324123 60.572609 0
M  V30 50 H 39.758083 28.041494 57.311793 0
M  V30 51 H 40.721578 29.737757 58.564287 0
M  V30 52 H 41.150834 28.276532 59.316605 0
M  V30 53 H 38.704226 30.596058 53.030479 0
M  V30 54 H 40.191700 29.865886 53.501307 0
M  V30 55 H 40.271418 31.661244 55.450811 0
M  V30 56 H 38.544672 31.943605 54.944685 0
M  V30 57 H 37.218139 28.360385 57.558224 0
M  V30 58 H 37.508329 29.408288 58.867846 0
M  V30 59 H 39.879256 26.296365 59.013348 0
M  V30 60 H 38.445136 26.937762 59.767727 0
M  V30 END ATOM
M  V30 BEGIN BOND
M  V30 1 1 5 1
M  V30 2 1 5 3
M  V30 3 1 9 4
M  V30 4 1 9 8
M  V30 5 1 10 6
M  V30 6 1 11 9
M  V30 7 1 12 4
M  V30 8 1 13 2
M  V30 9 1 13 7
M  V30 10 1 14 6
M  V30 11 1 17 6
M  V30 12 1 17 15
M  V30 13 2 18 16
M  V30 14 1 19 9
M  V30 15 1 19 16
M  V30 16 1 20 7
M  V30 17 1 20 16
M  V30 18 1 21 13
M  V30 19 1 21 20
M  V30 20 1 22 7
M  V30 21 1 22 15
M  V30 22 1 23 1
M  V30 23 1 23 15
M  V30 24 1 24 1
M  V30 25 1 25 1
M  V30 26 1 26 2
M  V30 27 1 27 3
M  V30 28 1 28 3
M  V30 29 1 29 3
M  V30 30 1 30 4
M  V30 31 1 31 4
M  V30 32 1 32 5
M  V30 33 1 33 5
M  V30 34 1 6 34 CFG=3
M  V30 35 1 7 35 CFG=3
M  V30 36 1 36 8
M  V30 37 1 37 8
M  V30 38 1 38 8
M  V30 39 1 39 10
M  V30 40 1 40 10
M  V30 41 1 41 10
M  V30 42 1 42 11
M  V30 43 1 43 11
M  V30 44 1 44 11
M  V30 45 1 45 12
M  V30 46 1 46 12
M  V30 47 1 47 12
M  V30 48 1 13 48 CFG=1
M  V30 49 1 49 14
M  V30 50 1 15 50 CFG=3
M  V30 51 1 51 17
M  V30 52 1 52 17
M  V30 53 1 53 19
M  V30 54 1 54 19
M  V30 55 1 55 21
M  V30 56 1 56 21
M  V30 57 1 57 22
M  V30 58 1 58 22
M  V30 59 1 59 23
M  V30 60 1 60 23
M  V30 END BOND
M  V30 END CTAB
M  END
>  <i_epik_Tot_Q>  (1) 
0

>  <i_epik_Tot_abs_Q>  (1) 
0

>  <i_i_glide_confnum>  (1) 
987

>  <i_i_glide_lignum>  (1) 
16

>  <i_i_glide_posenum>  (1) 
186

>  <i_i_glide_rotatable_bonds>  (1) 
13

>  <i_lp_mmshare_version>  (1) 
72125

>  <i_m_source_file_index>  (1) 
8

>  <i_f3d_flags>  (1) 
0

>  <num_sample>  (1) 
50

>  <b_lp_Chiralities_Consistent>  (1) 
1

>  <r_epik_Charging_Adjusted_Penalty>  (1) 
0

>  <r_epik_Ionization_Penalty>  (1) 
3.8827151533857073e-07

>  <r_epik_Ionization_Penalty_Charging>  (1) 
0

>  <r_epik_Ionization_Penalty_Neutral>  (1) 
3.8827151533857073e-07

>  <r_epik_State_Penalty>  (1) 
-0

>  <r_glide_ring_energy>  (1) 
0

>  <r_i_docking_score>  (1) 
-5.7954256289530139

>  <r_i_glide_ecoul>  (1) 
-5.3544357756222345

>  <r_i_glide_eff_state_penalty>  (1) 
-0

>  <r_i_glide_einternal>  (1) 
12.320545572418293

>  <r_i_glide_emodel>  (1) 
-31.344663903039141

>  <r_i_glide_emodel_strain>  (1) 
0.96514599363223397

>  <r_i_glide_energy>  (1) 
-31.80956458489279

>  <r_i_glide_erotb>  (1) 
1.5748308368966815

>  <r_i_glide_esite>  (1) 
0

>  <r_i_glide_evdw>  (1) 
-26.455128809270555

>  <r_i_glide_gscore>  (1) 
-5.7954256289530139

>  <r_i_glide_gscore_strain>  (1) 
0

>  <r_i_glide_hbond>  (1) 
-0.41761521964529408

>  <r_i_glide_ligand_efficiency>  (1) 
-0.2519750273457832

>  <r_i_glide_ligand_efficiency_ln>  (1) 
-1.4013864670950618

>  <r_i_glide_ligand_efficiency_sa>  (1) 
-0.71658346001586815

>  <r_i_glide_lipo>  (1) 
-3.5341882016374684

>  <r_i_glide_metal>  (1) 
-0

>  <r_i_glide_rewards>  (1) 
-1.292531237760068

>  <r_lp_Energy>  (1) 
6.666982

>  <r_lp_tautomer_probability>  (1) 
1

>  <s_epik_cmdline>  (1) 
J2VwaWtfcHl0aG9uJywgJy1waHQnLCAnMS4wJywgJy1waCcsICc3LjQnLCAnLXRuJywgJzgnLCAnLW1hJywgJzUwMCcsICctaW1hZScsICc8aW5maWxlLm1hZT4nLCAnLW9tYWUnLCAnPG91dGZpbGUubWFlPic=

>  <s_epik_input>  (1) 
W0NIM11bQ0gyXVtDSDJdW0NIMl1bQ0BIXShbQ0gyXVtDQEBIXShbQ0gzXSlbT0hdKVtDSDJdW0NASF0xW0NASF0oW09IXSlbQ0gyXU4xQyg9TylbQ0gyXUMoW0NIM10pKFtDSDNdKVtDSDJdW0NIM10=

>  <s_glide_docking_method>  (1) 
confgen

>  <s_i_glide_gridfile>  (1) 
gpcr_5ht2c_6bqh_protein_autoprepared_prepared

>  <s_lp_Force_Field>  (1) 
S-OPLS

>  <s_lp_Variant>  (1) 
DiffSBDD_7-1

>  <s_m_source_file>  (1) 
generated_GPCR_5HT2C_ligand_DiffSBDD_2026-06-23_prepared.sdf

>  <GenAI_Model>  (1) 
DiffSBDD

>  <Protein>  (1) 
GPCR_5HT2C

$$$$
DiffSBDD_6
     RDKit          3D

  0  0  0  0  0  0  0  0  0  0999 V3000
M  V30 BEGIN CTAB
M  V30 COUNTS 51 52 0 0 1
M  V30 BEGIN ATOM
M  V30 1 O 38.245783 32.947371 58.818415 0
M  V30 2 C 38.298091 31.702143 61.821843 0
M  V30 3 N 38.403633 30.698428 58.594541 0
M  V30 4 C 38.936955 32.803053 62.160788 0
M  V30 5 C 39.956351 36.344054 62.843303 0
M  V30 6 C 38.044981 31.813574 59.255238 0
M  V30 7 C 40.268991 30.623387 51.912447 0
M  V30 8 C 38.239660 35.647487 61.359527 0
M  V30 9 O 39.472632 37.491592 62.167172 0
M  V30 10 C 38.657582 30.890922 54.791763 0
M  V30 11 C 39.645095 29.857475 54.245107 0
M  V30 12 C 39.015024 28.827380 51.967276 0
M  V30 13 C 39.245225 29.074664 50.687132 0
M  V30 14 C 39.057642 30.728464 57.288513 0
M  V30 15 C 39.645881 29.781793 52.723384 0
M  V30 16 C 36.109214 32.499686 60.769005 0
M  V30 17 C 40.133383 30.334802 50.372475 0
M  V30 18 C 39.600373 35.201425 61.892016 0 CFG=2
M  V30 19 O 38.386196 31.911959 54.167955 0
M  V30 20 C 37.362481 31.615115 60.619749 0 CFG=2
M  V30 21 C 38.194344 27.676153 52.503353 0
M  V30 22 C 38.213494 37.162077 61.592867 0
M  V30 23 C 38.034156 30.607365 56.152800 0
M  V30 24 C 39.646221 33.834513 62.567739 0
M  V30 25 H 38.419826 30.795735 62.397587 0
M  V30 26 H 38.211151 29.797998 59.006610 0
M  V30 27 H 39.441219 36.243175 63.800217 0
M  V30 28 H 41.027512 36.418915 63.034744 0
M  V30 29 H 40.844859 31.464073 52.259386 0
M  V30 30 H 38.114454 35.387435 60.307767 0
M  V30 31 H 37.419577 35.197123 61.917122 0
M  V30 32 H 40.643420 30.137646 54.581870 0
M  V30 33 H 39.422524 28.880246 54.671941 0
M  V30 34 H 38.857556 28.465709 49.883958 0
M  V30 35 H 39.645025 31.639299 57.162075 0
M  V30 36 H 39.762933 29.898407 57.244719 0
M  V30 37 H 36.352992 33.560072 60.743586 0
M  V30 38 H 35.402728 32.314087 59.958131 0
M  V30 39 H 35.589382 32.298956 61.705721 0
M  V30 40 H 39.596806 31.118728 49.837626 0
M  V30 41 H 41.084367 30.089391 49.899752 0
M  V30 42 H 40.322569 35.206904 61.073799 0
M  V30 43 H 36.995408 30.587764 60.629491 0
M  V30 44 H 37.219346 28.025097 52.844281 0
M  V30 45 H 38.045189 26.937845 51.716951 0
M  V30 46 H 38.702759 27.182431 53.331164 0
M  V30 47 H 37.419609 37.425410 62.292988 0
M  V30 48 H 38.045739 37.720571 60.671432 0
M  V30 49 H 37.561912 29.625330 56.150221 0
M  V30 50 H 37.245242 31.341527 56.300427 0
M  V30 51 H 40.304429 33.746993 63.419533 0
M  V30 END ATOM
M  V30 BEGIN BOND
M  V30 1 2 4 2
M  V30 2 2 6 1
M  V30 3 1 6 3
M  V30 4 1 9 5
M  V30 5 1 11 10
M  V30 6 2 13 12
M  V30 7 1 14 3
M  V30 8 2 15 7
M  V30 9 1 15 11
M  V30 10 1 15 12
M  V30 11 1 17 7
M  V30 12 1 17 13
M  V30 13 1 18 5
M  V30 14 1 18 8
M  V30 15 2 19 10
M  V30 16 1 20 2
M  V30 17 1 20 6
M  V30 18 1 20 16
M  V30 19 1 21 12
M  V30 20 1 22 8
M  V30 21 1 22 9
M  V30 22 1 23 10
M  V30 23 1 23 14
M  V30 24 2 24 4
M  V30 25 1 24 18
M  V30 26 1 25 2
M  V30 27 1 26 3
M  V30 28 1 27 5
M  V30 29 1 28 5
M  V30 30 1 29 7
M  V30 31 1 30 8
M  V30 32 1 31 8
M  V30 33 1 32 11
M  V30 34 1 33 11
M  V30 35 1 34 13
M  V30 36 1 35 14
M  V30 37 1 36 14
M  V30 38 1 37 16
M  V30 39 1 38 16
M  V30 40 1 39 16
M  V30 41 1 40 17
M  V30 42 1 41 17
M  V30 43 1 18 42 CFG=3
M  V30 44 1 20 43 CFG=3
M  V30 45 1 44 21
M  V30 46 1 45 21
M  V30 47 1 46 21
M  V30 48 1 47 22
M  V30 49 1 48 22
M  V30 50 1 49 23
M  V30 51 1 50 23
M  V30 52 1 51 24
M  V30 END BOND
M  V30 END CTAB
M  END
>  <i_epik_Tot_Q>  (1) 
0

>  <i_epik_Tot_abs_Q>  (1) 
0

>  <i_i_glide_confnum>  (1) 
155

>  <i_i_glide_lignum>  (1) 
15

>  <i_i_glide_posenum>  (1) 
3

>  <i_i_glide_rotatable_bonds>  (1) 
9

>  <i_lp_mmshare_version>  (1) 
72125

>  <i_m_source_file_index>  (1) 
7

>  <i_f3d_flags>  (1) 
0

>  <num_sample>  (1) 
50

>  <b_lp_Chiralities_Consistent>  (1) 
1

>  <r_epik_Charging_Adjusted_Penalty>  (1) 
0

>  <r_epik_Ionization_Penalty>  (1) 
2.8772612766536324e-08

>  <r_epik_Ionization_Penalty_Charging>  (1) 
0

>  <r_epik_Ionization_Penalty_Neutral>  (1) 
2.8772612766536324e-08

>  <r_epik_State_Penalty>  (1) 
-0

>  <r_glide_ring_energy>  (1) 
0

>  <r_i_docking_score>  (1) 
-5.7747493656901954

>  <r_i_glide_ecoul>  (1) 
-0.65340808660924354

>  <r_i_glide_eff_state_penalty>  (1) 
-0

>  <r_i_glide_einternal>  (1) 
6.2985895699069214

>  <r_i_glide_emodel>  (1) 
-49.690540615853379

>  <r_i_glide_emodel_strain>  (1) 
0.34447062730102118

>  <r_i_glide_energy>  (1) 
-38.025830464696092

>  <r_i_glide_erotb>  (1) 
1.3853836233983141

>  <r_i_glide_esite>  (1) 
-0.086916886215168188

>  <r_i_glide_evdw>  (1) 
-37.372422378086846

>  <r_i_glide_gscore>  (1) 
-5.7747493656901954

>  <r_i_glide_gscore_strain>  (1) 
0

>  <r_i_glide_hbond>  (1) 
0

>  <r_i_glide_ligand_efficiency>  (1) 
-0.24061455690375813

>  <r_i_glide_ligand_efficiency_ln>  (1) 
-1.3821625091913377

>  <r_i_glide_ligand_efficiency_sa>  (1) 
-0.69405248260830532

>  <r_i_glide_lipo>  (1) 
-3.2483691586541164

>  <r_i_glide_metal>  (1) 
-0

>  <r_i_glide_rewards>  (1) 
-1.8582146123234959

>  <r_lp_Energy>  (1) 
-19.353403999999998

>  <r_lp_tautomer_probability>  (1) 
1

>  <s_epik_cmdline>  (1) 
J2VwaWtfcHl0aG9uJywgJy1waHQnLCAnMS4wJywgJy1waCcsICc3LjQnLCAnLXRuJywgJzgnLCAnLW1hJywgJzUwMCcsICctaW1hZScsICc8aW5maWxlLm1hZT4nLCAnLW9tYWUnLCAnPG91dGZpbGUubWFlPic=

>  <s_epik_input>  (1) 
W0NIMl0xW0NIMl1PW0NIMl1bQ0BIXTFbQ0hdPUM9W0NIXVtDQEBIXShbQ0gzXSlDKD1PKVtOSF1bQ0gyXVtDSDJdQyg9TylbQ0gyXUMyPVtDSF1bQ0gyXVtDSF09QzJbQ0gzXQ==

>  <s_glide_docking_method>  (1) 
confgen

>  <s_i_glide_gridfile>  (1) 
gpcr_5ht2c_6bqh_protein_autoprepared_prepared

>  <s_lp_Force_Field>  (1) 
S-OPLS

>  <s_lp_Variant>  (1) 
DiffSBDD_6-1

>  <s_m_source_file>  (1) 
generated_GPCR_5HT2C_ligand_DiffSBDD_2026-06-23_prepared.sdf

>  <GenAI_Model>  (1) 
DiffSBDD

>  <Protein>  (1) 
GPCR_5HT2C

$$$$
DiffSBDD_23
     RDKit          3D

  0  0  0  0  0  0  0  0  0  0999 V3000
M  V30 BEGIN CTAB
M  V30 COUNTS 20 20 0 0 1
M  V30 BEGIN ATOM
M  V30 1 C 38.212950 28.987379 54.408829 0
M  V30 2 C 38.933748 30.196660 54.351632 0
M  V30 3 C 38.198923 28.117611 53.300608 0
M  V30 4 S 40.544867 30.137755 50.567755 0
M  V30 5 C 38.899281 27.523357 50.924214 0
M  V30 6 C 38.939767 31.130880 55.545134 0
M  V30 7 O 37.493253 26.949917 53.367760 0
M  V30 8 C 39.636128 29.674073 52.073769 0
M  V30 9 C 38.912074 28.457928 52.124274 0
M  V30 10 C 39.645151 30.537756 53.184333 0
M  V30 11 H 37.666904 28.727378 55.304251 0
M  V30 12 H 40.845123 31.383068 50.950408 0
M  V30 13 H 38.845137 28.075415 49.987349 0
M  V30 14 H 39.801306 26.916489 50.903909 0
M  V30 15 H 38.045137 26.854255 50.944988 0
M  V30 16 H 39.483786 32.051476 55.331482 0
M  V30 17 H 37.918038 31.398721 55.819970 0
M  V30 18 H 39.410642 30.648201 56.401668 0
M  V30 19 H 37.322263 26.556167 52.521659 0
M  V30 20 H 40.194744 31.463545 53.139614 0
M  V30 END ATOM
M  V30 BEGIN BOND
M  V30 1 2 2 1
M  V30 2 1 3 1
M  V30 3 1 6 2
M  V30 4 1 7 3
M  V30 5 1 8 4
M  V30 6 2 9 3
M  V30 7 1 9 5
M  V30 8 1 9 8
M  V30 9 1 10 2
M  V30 10 2 10 8
M  V30 11 1 11 1
M  V30 12 1 12 4
M  V30 13 1 13 5
M  V30 14 1 14 5
M  V30 15 1 15 5
M  V30 16 1 16 6
M  V30 17 1 17 6
M  V30 18 1 18 6
M  V30 19 1 19 7
M  V30 20 1 20 10
M  V30 END BOND
M  V30 END CTAB
M  END
>  <i_epik_Tot_Q>  (1) 
0

>  <i_epik_Tot_abs_Q>  (1) 
0

>  <i_i_glide_confnum>  (1) 
1

>  <i_i_glide_lignum>  (1) 
52

>  <i_i_glide_posenum>  (1) 
126

>  <i_i_glide_rotatable_bonds>  (1) 
2

>  <i_lp_mmshare_version>  (1) 
72125

>  <i_m_source_file_index>  (1) 
24

>  <i_f3d_flags>  (1) 
0

>  <num_sample>  (1) 
50

>  <b_lp_Chiralities_Consistent>  (1) 
1

>  <r_epik_Charging_Adjusted_Penalty>  (1) 
1.0841651960075367

>  <r_epik_Ionization_Penalty>  (1) 
1.0861292701856073

>  <r_epik_Ionization_Penalty_Charging>  (1) 
0

>  <r_epik_Ionization_Penalty_Neutral>  (1) 
1.0861292701856073

>  <r_epik_State_Penalty>  (1) 
1.0841651960075367

>  <r_glide_ring_energy>  (1) 
0

>  <r_i_docking_score>  (1) 
-5.7674188693236736

>  <r_i_glide_ecoul>  (1) 
-3.7357852322189729

>  <r_i_glide_eff_state_penalty>  (1) 
1.0841651960075367

>  <r_i_glide_einternal>  (1) 
0.1728983049681283

>  <r_i_glide_emodel>  (1) 
-39.146355607819466

>  <r_i_glide_emodel_strain>  (1) 
0.025754039979055676

>  <r_i_glide_energy>  (1) 
-28.076930401626683

>  <r_i_glide_erotb>  (1) 
0

>  <r_i_glide_esite>  (1) 
0

>  <r_i_glide_evdw>  (1) 
-24.34114516940771

>  <r_i_glide_gscore>  (1) 
-6.8515840653312106

>  <r_i_glide_gscore_strain>  (1) 
0

>  <r_i_glide_hbond>  (1) 
0

>  <r_i_glide_ligand_efficiency>  (1) 
-0.57674188693236739

>  <r_i_glide_ligand_efficiency_ln>  (1) 
-1.7463346762990042

>  <r_i_glide_ligand_efficiency_sa>  (1) 
-1.2425527284015387

>  <r_i_glide_lipo>  (1) 
-2.0979427122057337

>  <r_i_glide_metal>  (1) 
-0

>  <r_i_glide_rewards>  (1) 
-2.9762163098222461

>  <r_lp_Energy>  (1) 
6.0807719999999996

>  <s_epik_cmdline>  (1) 
J2VwaWtfcHl0aG9uJywgJy1waHQnLCAnMS4wJywgJy1waCcsICc3LjQnLCAnLXRuJywgJzgnLCAnLW1hJywgJzUwMCcsICctaW1hZScsICc8aW5maWxlLm1hZT4nLCAnLW9tYWUnLCAnPG91dGZpbGUubWFlPic=

>  <s_epik_input>  (1) 
W0NIM11jMVtjSF1jKFtPSF0pYyhbQ0gzXSljKFtTSF0pW2NIXTE=

>  <s_glide_docking_method>  (1) 
confgen

>  <s_i_glide_gridfile>  (1) 
gpcr_5ht2c_6bqh_protein_autoprepared_prepared

>  <s_lp_Force_Field>  (1) 
S-OPLS

>  <s_lp_Variant>  (1) 
DiffSBDD_23-2

>  <s_m_source_file>  (1) 
generated_GPCR_5HT2C_ligand_DiffSBDD_2026-06-23_prepared.sdf

>  <GenAI_Model>  (1) 
DiffSBDD

>  <Protein>  (1) 
GPCR_5HT2C

$$$$
DiffSBDD_23
     RDKit          3D

  0  0  0  0  0  0  0  0  0  0999 V3000
M  V30 BEGIN CTAB
M  V30 COUNTS 20 20 0 0 1
M  V30 BEGIN ATOM
M  V30 1 C 38.211603 28.988845 54.409830 0
M  V30 2 C 38.934697 30.197171 54.352578 0
M  V30 3 C 38.195443 28.119287 53.301126 0
M  V30 4 S 40.536209 30.137755 50.567761 0
M  V30 5 C 38.896581 27.522174 50.926152 0
M  V30 6 C 38.943748 31.130703 55.546536 0
M  V30 7 O 37.488146 26.952524 53.367760 0
M  V30 8 C 39.632684 29.674211 52.073740 0
M  V30 9 C 38.908231 28.458678 52.124939 0
M  V30 10 C 39.645146 30.537756 53.184415 0
M  V30 11 H 37.665933 28.729379 55.305623 0
M  V30 12 H 39.592383 29.732430 49.711975 0
M  V30 13 H 38.845138 28.068142 49.986051 0
M  V30 14 H 39.799144 26.915804 50.910716 0
M  V30 15 H 38.045137 26.850251 50.949439 0
M  V30 16 H 39.483046 32.053427 55.330027 0
M  V30 17 H 37.922637 31.394520 55.827449 0
M  V30 18 H 39.421443 30.649264 56.399999 0
M  V30 19 H 37.314754 26.559298 52.521915 0
M  V30 20 H 40.195988 31.462915 53.138329 0
M  V30 END ATOM
M  V30 BEGIN BOND
M  V30 1 2 2 1
M  V30 2 1 3 1
M  V30 3 1 6 2
M  V30 4 1 7 3
M  V30 5 1 8 4
M  V30 6 2 9 3
M  V30 7 1 9 5
M  V30 8 1 9 8
M  V30 9 1 10 2
M  V30 10 2 10 8
M  V30 11 1 11 1
M  V30 12 1 12 4
M  V30 13 1 13 5
M  V30 14 1 14 5
M  V30 15 1 15 5
M  V30 16 1 16 6
M  V30 17 1 17 6
M  V30 18 1 18 6
M  V30 19 1 19 7
M  V30 20 1 20 10
M  V30 END BOND
M  V30 END CTAB
M  END
>  <i_epik_Tot_Q>  (1) 
0

>  <i_epik_Tot_abs_Q>  (1) 
0

>  <i_i_glide_confnum>  (1) 
1

>  <i_i_glide_lignum>  (1) 
52

>  <i_i_glide_posenum>  (1) 
63

>  <i_i_glide_rotatable_bonds>  (1) 
2

>  <i_lp_mmshare_version>  (1) 
72125

>  <i_m_source_file_index>  (1) 
24

>  <i_f3d_flags>  (1) 
0

>  <num_sample>  (1) 
50

>  <b_lp_Chiralities_Consistent>  (1) 
1

>  <r_epik_Charging_Adjusted_Penalty>  (1) 
1.0841651960075367

>  <r_epik_Ionization_Penalty>  (1) 
1.0861292701856073

>  <r_epik_Ionization_Penalty_Charging>  (1) 
0

>  <r_epik_Ionization_Penalty_Neutral>  (1) 
1.0861292701856073

>  <r_epik_State_Penalty>  (1) 
1.0841651960075367

>  <r_glide_ring_energy>  (1) 
0

>  <r_i_docking_score>  (1) 
-5.7674019871440194

>  <r_i_glide_ecoul>  (1) 
-3.6456537540332774

>  <r_i_glide_eff_state_penalty>  (1) 
1.0841651960075367

>  <r_i_glide_einternal>  (1) 
0.3596106147869047

>  <r_i_glide_emodel>  (1) 
-38.70387751384694

>  <r_i_glide_emodel_strain>  (1) 
0.28447788328577595

>  <r_i_glide_energy>  (1) 
-27.986559857201115

>  <r_i_glide_erotb>  (1) 
0

>  <r_i_glide_esite>  (1) 
0

>  <r_i_glide_evdw>  (1) 
-24.340906103167839

>  <r_i_glide_gscore>  (1) 
-6.8515671831515563

>  <r_i_glide_gscore_strain>  (1) 
0

>  <r_i_glide_hbond>  (1) 
-0.012976472151468705

>  <r_i_glide_ligand_efficiency>  (1) 
-0.57674019871440196

>  <r_i_glide_ligand_efficiency_ln>  (1) 
-1.746329564491381

>  <r_i_glide_ligand_efficiency_sa>  (1) 
-1.2425490912461896

>  <r_i_glide_lipo>  (1) 
-2.0986802247182594

>  <r_i_glide_metal>  (1) 
-0

>  <r_i_glide_rewards>  (1) 
-2.9760171180184445

>  <r_lp_Energy>  (1) 
6.0807719999999996

>  <s_epik_cmdline>  (1) 
J2VwaWtfcHl0aG9uJywgJy1waHQnLCAnMS4wJywgJy1waCcsICc3LjQnLCAnLXRuJywgJzgnLCAnLW1hJywgJzUwMCcsICctaW1hZScsICc8aW5maWxlLm1hZT4nLCAnLW9tYWUnLCAnPG91dGZpbGUubWFlPic=

>  <s_epik_input>  (1) 
W0NIM11jMVtjSF1jKFtPSF0pYyhbQ0gzXSljKFtTSF0pW2NIXTE=

>  <s_glide_docking_method>  (1) 
confgen

>  <s_i_glide_gridfile>  (1) 
gpcr_5ht2c_6bqh_protein_autoprepared_prepared

>  <s_lp_Force_Field>  (1) 
S-OPLS

>  <s_lp_Variant>  (1) 
DiffSBDD_23-2

>  <s_m_source_file>  (1) 
generated_GPCR_5HT2C_ligand_DiffSBDD_2026-06-23_prepared.sdf

>  <GenAI_Model>  (1) 
DiffSBDD

>  <Protein>  (1) 
GPCR_5HT2C

$$$$
DiffSBDD_30
     RDKit          3D

  0  0  0  0  0  0  0  0  0  0999 V3000
M  V30 BEGIN CTAB
M  V30 COUNTS 75 78 0 0 1
M  V30 BEGIN ATOM
M  V30 1 C 39.336919 29.748225 53.892517 0 CFG=2
M  V30 2 N 38.320646 31.695509 58.454324 0 CFG=1 CHG=1
M  V30 3 C 42.784286 29.714701 64.084283 0
M  V30 4 O 39.645118 28.121846 52.167759 0
M  V30 5 C 39.325722 31.145043 53.282279 0
M  V30 6 C 38.658362 34.812043 61.438702 0 CFG=1
M  V30 7 N 38.111295 33.927903 60.394444 0
M  V30 8 C 37.377114 31.653725 59.622180 0 CFG=1
M  V30 9 O 38.045133 28.663449 55.633809 0
M  V30 10 C 40.835412 35.340170 62.602173 0
M  V30 11 C 37.197309 30.209843 60.167727 0
M  V30 12 C 37.134570 36.937783 59.489546 0
M  V30 13 O 38.045114 37.038945 60.567752 0
M  V30 14 C 37.863339 32.544496 60.810241 0 CFG=2
M  V30 15 C 38.975395 30.805358 56.291728 0 CFG=1
M  V30 16 C 40.178527 35.008890 61.268293 0
M  V30 17 C 38.467389 30.441241 57.683253 0
M  V30 18 C 38.798980 28.713987 52.872159 0
M  V30 19 O 38.445140 29.737749 60.676756 0
M  V30 20 O 36.821955 32.558761 61.766479 0
M  V30 21 C 38.083005 32.766200 57.454536 0
M  V30 22 O 40.845140 36.537755 62.944969 0 CHG=-1
M  V30 23 C 38.808801 30.430134 61.861731 0 CFG=2
M  V30 24 C 39.095535 31.890563 61.488330 0
M  V30 25 C 39.929420 29.725857 62.613285 0 CFG=2
M  V30 26 C 44.938072 28.232883 65.136791 0
M  V30 27 C 42.923895 28.347086 63.767774 0
M  V30 28 C 43.722785 30.338494 64.931832 0
M  V30 29 C 38.703578 29.647871 55.296849 0
M  V30 30 O 37.559046 28.550733 52.814068 0 CHG=-1
M  V30 31 C 41.617384 30.510354 63.525690 0 CFG=2
M  V30 32 C 38.226848 32.127090 56.060120 0
M  V30 33 C 44.799805 29.597591 65.456194 0
M  V30 34 C 44.000691 27.608231 64.292462 0
M  V30 35 O 41.309268 34.383415 63.254730 0
M  V30 36 C 37.832274 36.103586 61.607571 0
M  V30 37 C 40.232680 30.167124 64.041128 0
M  V30 38 O 41.245155 30.136352 62.167758 0
M  V30 39 H 40.384257 29.540684 54.072041 0
M  V30 40 H 38.354590 31.629086 53.367762 0
M  V30 41 H 40.052659 31.737755 53.821048 0
M  V30 42 H 39.645081 31.143041 52.238088 0
M  V30 43 H 38.525844 34.327599 62.403135 0
M  V30 44 H 37.257084 34.327311 60.016259 0
M  V30 45 H 36.396910 31.990707 59.279195 0
M  V30 46 H 36.800172 29.504946 59.441459 0
M  V30 47 H 36.443946 30.199963 60.951168 0
M  V30 48 H 37.400529 37.697829 58.760560 0
M  V30 49 H 37.177531 35.971031 58.990138 0
M  V30 50 H 36.110884 37.124446 59.816729 0
M  V30 51 H 40.045109 30.998791 56.331630 0
M  V30 52 H 40.647704 34.094335 60.916604 0
M  V30 53 H 40.402214 35.782354 60.534994 0
M  V30 54 H 39.115972 29.719433 58.181073 0
M  V30 55 H 37.474048 30.007979 57.561238 0
M  V30 56 H 37.028098 33.211113 62.419027 0
M  V30 57 H 37.120120 33.264766 57.565984 0
M  V30 58 H 38.845216 33.531424 57.598936 0
M  V30 59 H 37.960865 30.404531 62.543309 0
M  V30 60 H 39.949870 31.922551 60.812045 0
M  V30 61 H 39.400767 32.418808 62.390176 0
M  V30 62 H 39.832373 28.639830 62.567811 0
M  V30 63 H 45.764813 27.665973 65.539929 0
M  V30 64 H 42.206247 27.865717 63.120843 0
M  V30 65 H 43.616701 31.384718 65.179636 0
M  V30 66 H 41.809874 31.583194 63.588461 0
M  V30 67 H 37.245140 31.934712 55.627059 0
M  V30 68 H 38.751926 32.805869 55.389591 0
M  V30 69 H 45.520072 30.075608 66.104768 0
M  V30 70 H 44.107183 26.561908 64.046744 0
M  V30 71 H 36.772290 35.880399 61.738701 0
M  V30 72 H 38.141219 36.594670 62.530966 0
M  V30 73 H 39.659711 31.031956 64.372942 0
M  V30 74 H 40.214851 29.356759 64.770897 0
M  V30 75 H 39.229289 31.885375 58.850356 0
M  V30 END ATOM
M  V30 BEGIN BOND
M  V30 1 1 5 1
M  V30 2 1 7 6
M  V30 3 1 8 2
M  V30 4 1 11 8
M  V30 5 1 13 12
M  V30 6 1 14 7
M  V30 7 1 14 8
M  V30 8 1 16 6
M  V30 9 1 16 10
M  V30 10 1 17 2
M  V30 11 1 17 15
M  V30 12 1 18 1
M  V30 13 2 18 4
M  V30 14 1 19 11
M  V30 15 1 14 20 CFG=1
M  V30 16 1 21 2
M  V30 17 1 22 10
M  V30 18 1 23 19
M  V30 19 1 24 14
M  V30 20 1 24 23
M  V30 21 1 25 23
M  V30 22 1 27 3
M  V30 23 2 28 3
M  V30 24 1 29 1
M  V30 25 2 29 9
M  V30 26 1 29 15
M  V30 27 1 30 18
M  V30 28 1 31 3
M  V30 29 1 32 15
M  V30 30 1 32 21
M  V30 31 2 33 26
M  V30 32 1 33 28
M  V30 33 1 34 26
M  V30 34 2 34 27
M  V30 35 2 35 10
M  V30 36 1 36 6
M  V30 37 1 36 13
M  V30 38 1 37 25
M  V30 39 1 37 31
M  V30 40 1 38 25
M  V30 41 1 38 31
M  V30 42 1 1 39 CFG=1
M  V30 43 1 40 5
M  V30 44 1 41 5
M  V30 45 1 42 5
M  V30 46 1 6 43 CFG=1
M  V30 47 1 44 7
M  V30 48 1 8 45 CFG=3
M  V30 49 1 46 11
M  V30 50 1 47 11
M  V30 51 1 48 12
M  V30 52 1 49 12
M  V30 53 1 50 12
M  V30 54 1 15 51 CFG=1
M  V30 55 1 52 16
M  V30 56 1 53 16
M  V30 57 1 54 17
M  V30 58 1 55 17
M  V30 59 1 56 20
M  V30 60 1 57 21
M  V30 61 1 58 21
M  V30 62 1 23 59 CFG=1
M  V30 63 1 60 24
M  V30 64 1 61 24
M  V30 65 1 25 62 CFG=1
M  V30 66 1 63 26
M  V30 67 1 64 27
M  V30 68 1 65 28
M  V30 69 1 31 66 CFG=3
M  V30 70 1 67 32
M  V30 71 1 68 32
M  V30 72 1 69 33
M  V30 73 1 70 34
M  V30 74 1 71 36
M  V30 75 1 72 36
M  V30 76 1 73 37
M  V30 77 1 74 37
M  V30 78 1 2 75 CFG=1
M  V30 END BOND
M  V30 END CTAB
M  END
>  <i_epik_Tot_Q>  (1) 
-1

>  <i_epik_Tot_abs_Q>  (1) 
3

>  <i_i_glide_confnum>  (1) 
2825

>  <i_i_glide_lignum>  (1) 
66

>  <i_i_glide_posenum>  (1) 
136

>  <i_i_glide_rotatable_bonds>  (1) 
13

>  <i_lp_mmshare_version>  (1) 
72125

>  <i_m_source_file_index>  (1) 
31

>  <i_f3d_flags>  (1) 
0

>  <num_sample>  (1) 
50

>  <b_lp_Chiralities_Consistent>  (1) 
1

>  <r_epik_Charging_Adjusted_Penalty>  (1) 
0.42059132601078875

>  <r_epik_Ionization_Penalty>  (1) 
0.042345838263638087

>  <r_epik_Ionization_Penalty_Charging>  (1) 
0.028527830839106344

>  <r_epik_Ionization_Penalty_Neutral>  (1) 
0.013818007424531742

>  <r_epik_State_Penalty>  (1) 
0.39206349517168243

>  <r_glide_ring_energy>  (1) 
0

>  <r_i_docking_score>  (1) 
-5.7630422848636993

>  <r_i_glide_ecoul>  (1) 
-3.9159861251777595

>  <r_i_glide_eff_state_penalty>  (1) 
0.39206349517168243

>  <r_i_glide_einternal>  (1) 
25.584229125179874

>  <r_i_glide_emodel>  (1) 
-34.739173051648763

>  <r_i_glide_emodel_strain>  (1) 
4.1606292714190403

>  <r_i_glide_energy>  (1) 
-46.634881236637518

>  <r_i_glide_erotb>  (1) 
0.65218633798694536

>  <r_i_glide_esite>  (1) 
-0.062148394682283919

>  <r_i_glide_evdw>  (1) 
-42.718895111459759

>  <r_i_glide_gscore>  (1) 
-6.1551057800353819

>  <r_i_glide_gscore_strain>  (1) 
0.040157317854760066

>  <r_i_glide_hbond>  (1) 
-0.35202767464277662

>  <r_i_glide_ligand_efficiency>  (1) 
-0.15165900749641315

>  <r_i_glide_ligand_efficiency_ln>  (1) 
-1.2426814481445052

>  <r_i_glide_ligand_efficiency_sa>  (1) 
-0.50987385342248071

>  <r_i_glide_lipo>  (1) 
-2.3136833624287956

>  <r_i_glide_metal>  (1) 
-0

>  <r_i_glide_rewards>  (1) 
-1.3962473297735787

>  <r_lp_Energy>  (1) 
36.442352

>  <r_lp_tautomer_probability>  (1) 
0.99999996000000102

>  <s_epik_cmdline>  (1) 
J2VwaWtfcHl0aG9uJywgJy1waHQnLCAnMS4wJywgJy1waCcsICc3LjQnLCAnLXRuJywgJzgnLCAnLW1hJywgJzUwMCcsICctaW1hZScsICc8aW5maWxlLm1hZT4nLCAnLW9tYWUnLCAnPG91dGZpbGUubWFlPic=

>  <s_epik_input>  (1) 
Tz1DKFtPSF0pW0NAQEhdKFtDSDNdKUMoPU8pW0NAQEhdKFtDSDJdW0NIMl0xKVtDSDJdTjFbQ0BIXShbQ0BdMihbT0hdKVtOSF1bQ0BASF0oW0NIMl1DKD1PKVtPSF0pW0NIMl1PW0NIM10pW0NIMl1PW0NASF0oW0NIMl0yKVtDQEBIXTNbQ0gyXVtDSF0oTzMpYzRbY0hdW2NIXVtjSF1bY0hdW2NIXTQ=

>  <s_glide_docking_method>  (1) 
confgen

>  <s_i_glide_gridfile>  (1) 
gpcr_5ht2c_6bqh_protein_autoprepared_prepared

>  <s_lp_Force_Field>  (1) 
S-OPLS

>  <s_lp_Variant>  (1) 
DiffSBDD_30-1

>  <s_m_source_file>  (1) 
generated_GPCR_5HT2C_ligand_DiffSBDD_2026-06-23_prepared.sdf

>  <GenAI_Model>  (1) 
DiffSBDD

>  <Protein>  (1) 
GPCR_5HT2C

$$$$
DiffSBDD_48
     RDKit          3D

  0  0  0  0  0  0  0  0  0  0999 V3000
M  V30 BEGIN CTAB
M  V30 COUNTS 78 78 0 0 1
M  V30 BEGIN ATOM
M  V30 1 O 41.243231 32.534410 68.352546 0
M  V30 2 C 36.956072 34.946573 59.481180 0
M  V30 3 C 37.457166 36.182310 60.247087 0
M  V30 4 O 40.045134 30.494800 51.982701 0
M  V30 5 C 36.777580 30.686733 59.693503 0
M  V30 6 C 41.996041 33.087311 67.521832 0
M  V30 7 C 37.962027 28.590842 54.520666 0
M  V30 8 C 41.377141 33.481752 66.176754 0
M  V30 9 C 37.479455 31.487255 60.814198 0
M  V30 10 C 38.425271 35.911805 61.412774 0
M  V30 11 N 37.860507 32.856060 60.442747 0
M  V30 12 C 40.543954 35.932756 66.415419 0
M  V30 13 C 37.641658 30.388118 58.456286 0
M  V30 14 C 39.282953 29.489351 52.546193 0
M  V30 15 C 40.519966 30.367223 50.647227 0
M  V30 16 C 41.600828 34.973498 65.807133 0 CFG=2
M  V30 17 C 41.743364 35.138185 64.272369 0
M  V30 18 C 39.049941 28.273817 51.641287 0
M  V30 19 O 39.623046 26.862106 54.783818 0
M  V30 20 C 39.411512 34.740639 61.198246 0 CFG=2
M  V30 21 C 40.445098 34.875004 63.489039 0
M  V30 22 O 43.211067 33.337745 67.684798 0 CHG=-1
M  V30 23 C 38.848571 29.472921 58.736173 0
M  V30 24 O 40.445137 35.848066 67.819249 0
M  V30 25 C 38.845134 27.642486 55.333923 0
M  V30 26 C 39.487759 28.911594 57.452550 0
M  V30 27 C 38.773530 33.352680 61.475872 0
M  V30 28 C 36.669959 33.711048 60.345594 0
M  V30 29 C 38.809154 29.625446 53.800059 0
M  V30 30 N 40.639670 34.925554 62.020051 0 CHG=1
M  V30 31 C 38.717371 27.704016 56.864211 0 CFG=2
M  V30 32 C 39.131415 26.376036 57.530746 0
M  V30 33 H 37.645137 34.676706 58.680664 0
M  V30 34 H 36.036286 35.230338 58.967793 0
M  V30 35 H 37.927180 36.859787 59.533372 0
M  V30 36 H 36.599429 36.731460 60.637263 0
M  V30 37 H 36.445213 29.737746 60.111593 0
M  V30 38 H 35.859582 31.173224 59.367939 0
M  V30 39 H 37.360841 28.013889 53.819884 0
M  V30 40 H 37.262269 29.109045 55.176639 0
M  V30 41 H 40.316445 33.238156 66.167752 0
M  V30 42 H 41.844300 32.831485 65.437075 0
M  V30 43 H 38.364196 30.925047 61.115420 0
M  V30 44 H 36.836062 31.523887 61.693957 0
M  V30 45 H 37.843515 35.737692 62.318632 0
M  V30 46 H 38.974801 36.835993 61.597602 0
M  V30 47 H 39.552763 35.738101 66.017031 0
M  V30 48 H 40.790792 36.962773 66.167690 0
M  V30 49 H 36.996490 29.919300 57.712467 0
M  V30 50 H 37.976442 31.322119 58.002853 0
M  V30 51 H 41.035298 31.284922 50.366100 0
M  V30 52 H 41.245148 29.559384 50.566556 0
M  V30 53 H 39.714515 30.223029 49.926205 0
M  V30 54 H 42.560577 35.287261 66.217120 0
M  V30 55 H 42.109801 36.137753 64.049157 0
M  V30 56 H 42.522848 34.462232 63.919661 0
M  V30 57 H 38.525974 27.469136 52.153293 0
M  V30 58 H 38.445152 28.537763 50.774126 0
M  V30 59 H 39.991053 27.843195 51.300702 0
M  V30 60 H 39.762422 34.765143 60.166281 0
M  V30 61 H 40.052053 33.897551 63.766987 0
M  V30 62 H 39.698888 35.617505 63.767822 0
M  V30 63 H 39.598158 30.042936 59.285633 0
M  V30 64 H 38.557650 28.650950 59.391172 0
M  V30 65 H 39.793454 36.461919 68.122348 0
M  V30 66 H 39.577810 29.721031 56.726317 0
M  V30 67 H 40.512250 28.605597 57.669431 0
M  V30 68 H 39.590181 32.632876 61.550023 0
M  V30 69 H 38.274209 33.337758 62.444339 0
M  V30 70 H 35.868008 33.177220 59.840905 0
M  V30 71 H 36.274160 33.977745 61.326851 0
M  V30 72 H 39.036458 30.524832 54.353997 0
M  V30 73 H 41.042447 35.821956 61.785491 0
M  V30 74 H 37.654171 27.847402 57.056571 0
M  V30 75 H 38.596289 25.530557 57.096649 0
M  V30 76 H 40.199549 26.184888 57.415664 0
M  V30 77 H 38.910302 26.384669 58.597793 0
M  V30 78 H 41.300224 34.204886 61.767869 0
M  V30 END ATOM
M  V30 BEGIN BOND
M  V30 1 1 3 2
M  V30 2 2 6 1
M  V30 3 1 8 6
M  V30 4 1 9 5
M  V30 5 1 10 3
M  V30 6 1 11 9
M  V30 7 1 13 5
M  V30 8 1 14 4
M  V30 9 1 15 4
M  V30 10 1 16 8
M  V30 11 1 16 12
M  V30 12 1 17 16
M  V30 13 1 18 14
M  V30 14 1 20 10
M  V30 15 1 21 17
M  V30 16 1 22 6
M  V30 17 1 23 13
M  V30 18 1 24 12
M  V30 19 1 25 7
M  V30 20 2 25 19
M  V30 21 1 26 23
M  V30 22 1 27 11
M  V30 23 1 27 20
M  V30 24 1 28 2
M  V30 25 1 28 11
M  V30 26 1 29 7
M  V30 27 2 29 14
M  V30 28 1 30 20
M  V30 29 1 30 21
M  V30 30 1 31 25
M  V30 31 1 31 26
M  V30 32 1 32 31
M  V30 33 1 33 2
M  V30 34 1 34 2
M  V30 35 1 35 3
M  V30 36 1 36 3
M  V30 37 1 37 5
M  V30 38 1 38 5
M  V30 39 1 39 7
M  V30 40 1 40 7
M  V30 41 1 41 8
M  V30 42 1 42 8
M  V30 43 1 43 9
M  V30 44 1 44 9
M  V30 45 1 45 10
M  V30 46 1 46 10
M  V30 47 1 47 12
M  V30 48 1 48 12
M  V30 49 1 49 13
M  V30 50 1 50 13
M  V30 51 1 51 15
M  V30 52 1 52 15
M  V30 53 1 53 15
M  V30 54 1 16 54 CFG=1
M  V30 55 1 55 17
M  V30 56 1 56 17
M  V30 57 1 57 18
M  V30 58 1 58 18
M  V30 59 1 59 18
M  V30 60 1 20 60 CFG=3
M  V30 61 1 61 21
M  V30 62 1 62 21
M  V30 63 1 63 23
M  V30 64 1 64 23
M  V30 65 1 65 24
M  V30 66 1 66 26
M  V30 67 1 67 26
M  V30 68 1 68 27
M  V30 69 1 69 27
M  V30 70 1 70 28
M  V30 71 1 71 28
M  V30 72 1 72 29
M  V30 73 1 73 30
M  V30 74 1 31 74 CFG=3
M  V30 75 1 75 32
M  V30 76 1 76 32
M  V30 77 1 77 32
M  V30 78 1 78 30
M  V30 END BOND
M  V30 END CTAB
M  END
>  <i_epik_Tot_Q>  (1) 
0

>  <i_epik_Tot_abs_Q>  (1) 
2

>  <i_i_glide_confnum>  (1) 
639

>  <i_i_glide_lignum>  (1) 
102

>  <i_i_glide_posenum>  (1) 
242

>  <i_i_glide_rotatable_bonds>  (1) 
18

>  <i_lp_mmshare_version>  (1) 
72125

>  <i_m_source_file_index>  (1) 
49

>  <i_f3d_flags>  (1) 
0

>  <num_sample>  (1) 
50

>  <b_lp_Chiralities_Consistent>  (1) 
1

>  <r_epik_Charging_Adjusted_Penalty>  (1) 
0.04911624183534407

>  <r_epik_Ionization_Penalty>  (1) 
0.025385742012929795

>  <r_epik_Ionization_Penalty_Charging>  (1) 
0.0065475108590220404

>  <r_epik_Ionization_Penalty_Neutral>  (1) 
0.018838231153907755

>  <r_epik_State_Penalty>  (1) 
0.042568730976322029

>  <r_glide_ring_energy>  (1) 
0

>  <r_i_docking_score>  (1) 
-5.7569082913524436

>  <r_i_glide_ecoul>  (1) 
-1.528364420560365

>  <r_i_glide_eff_state_penalty>  (1) 
0.042568730976322029

>  <r_i_glide_einternal>  (1) 
16.537323656193532

>  <r_i_glide_emodel>  (1) 
-53.598758626028399

>  <r_i_glide_emodel_strain>  (1) 
0.20429099290982577

>  <r_i_glide_energy>  (1) 
-45.785820055789443

>  <r_i_glide_erotb>  (1) 
1.5544609794247006

>  <r_i_glide_esite>  (1) 
0

>  <r_i_glide_evdw>  (1) 
-44.257455635229078

>  <r_i_glide_gscore>  (1) 
-5.7994770223287659

>  <r_i_glide_gscore_strain>  (1) 
0

>  <r_i_glide_hbond>  (1) 
0

>  <r_i_glide_ligand_efficiency>  (1) 
-0.17990338410476386

>  <r_i_glide_ligand_efficiency_ln>  (1) 
-1.2891286938269759

>  <r_i_glide_ligand_efficiency_sa>  (1) 
-0.57115764236108246

>  <r_i_glide_lipo>  (1) 
-3.7955391717536036

>  <r_i_glide_metal>  (1) 
-0

>  <r_i_glide_rewards>  (1) 
-1.1162713851543544

>  <r_lp_Energy>  (1) 
19.305907999999999

>  <r_lp_tautomer_probability>  (1) 
0.99990000499974985

>  <s_epik_cmdline>  (1) 
J2VwaWtfcHl0aG9uJywgJy1waHQnLCAnMS4wJywgJy1waCcsICc3LjQnLCAnLXRuJywgJzgnLCAnLW1hJywgJzUwMCcsICctaW1hZScsICc8aW5maWxlLm1hZT4nLCAnLW9tYWUnLCAnPG91dGZpbGUubWFlPic=

>  <s_epik_input>  (1) 
Tz1DKFtPSF0pW0NIMl1bQ0BASF0oW0NIMl1bT0hdKVtDSDJdW0NIMl1bTkhdW0NASF0oW0NIMl1bQ0gyXVtDSDJdW0NIMl0xKVtDSDJdTjFbQ0gyXVtDSDJdW0NIMl1bQ0gyXVtDSDJdW0NASF0oW0NIM10pQyg9TylbQ0gyXVxbQ0hdPUMoW0NIM10pXE9bQ0gzXQ==

>  <s_glide_docking_method>  (1) 
confgen

>  <s_i_glide_gridfile>  (1) 
gpcr_5ht2c_6bqh_protein_autoprepared_prepared

>  <s_lp_Force_Field>  (1) 
S-OPLS

>  <s_lp_Variant>  (1) 
DiffSBDD_48-4

>  <s_m_source_file>  (1) 
generated_GPCR_5HT2C_ligand_DiffSBDD_2026-06-23_prepared.sdf

>  <GenAI_Model>  (1) 
DiffSBDD

>  <Protein>  (1) 
GPCR_5HT2C

$$$$
DiffSBDD_5
     RDKit          3D

  0  0  0  0  0  0  0  0  0  0999 V3000
M  V30 BEGIN CTAB
M  V30 COUNTS 56 58 0 0 1
M  V30 BEGIN ATOM
M  V30 1 O 39.980983 29.070100 57.938452 0
M  V30 2 C 38.305202 27.309272 57.932066 0
M  V30 3 C 38.604947 28.830569 58.162226 0 CFG=1
M  V30 4 O 40.045121 30.867285 53.081085 0
M  V30 5 C 36.990043 24.768718 55.688505 0 CFG=1
M  V30 6 C 40.243831 28.137821 60.864693 0
M  V30 7 C 39.198892 31.863615 55.598724 0
M  V30 8 O 36.214548 31.377137 59.367761 0
M  V30 9 C 37.791356 33.070959 59.661210 0
M  V30 10 C 37.753879 29.828279 55.775544 0
M  V30 11 C 36.845138 24.640402 57.174064 0
M  V30 12 O 39.645135 31.016181 60.343420 0
M  V30 13 C 38.150202 25.145194 56.589209 0 CFG=2
M  V30 14 C 38.576760 26.610350 56.575792 0 CFG=2
M  V30 15 C 39.067398 30.378181 55.199539 0 CFG=1
M  V30 16 C 38.312652 29.133414 59.678921 0 CFG=1
M  V30 17 C 37.608525 31.593993 59.235930 0 CFG=2
M  V30 18 O 39.952960 26.666592 56.219012 0
M  V30 19 O 37.151188 23.545271 55.014481 0
M  V30 20 O 38.845138 28.166982 60.595318 0
M  V30 21 C 40.184773 26.296459 54.859925 0
M  V30 22 C 38.058919 31.270184 57.801825 0
M  V30 23 C 38.713039 32.163216 57.016701 0
M  V30 24 C 37.743482 29.850676 57.323991 0 CFG=2
M  V30 25 C 38.319714 30.603072 60.198720 0 CFG=2
M  V30 26 C 39.222367 30.146930 53.684653 0
M  V30 27 O 38.522544 29.247474 53.166897 0 CHG=-1
M  V30 28 H 40.215249 28.640899 57.125791 0
M  V30 29 H 38.843632 26.721983 58.676044 0
M  V30 30 H 37.251334 27.176115 58.163435 0
M  V30 31 H 36.445379 25.534715 55.147802 0
M  V30 32 H 40.445136 27.337769 61.570578 0
M  V30 33 H 40.842148 27.934449 59.978899 0
M  V30 34 H 40.610063 29.039444 61.348722 0
M  V30 35 H 38.651001 32.505980 54.907107 0
M  V30 36 H 40.250439 32.137781 55.534103 0
M  V30 37 H 35.825296 31.567808 58.504042 0
M  V30 38 H 38.835357 33.384248 59.634544 0
M  V30 39 H 37.229479 33.744494 59.012173 0
M  V30 40 H 37.437821 33.231484 60.680013 0
M  V30 41 H 37.449480 28.887034 55.351044 0
M  V30 42 H 36.955922 30.493474 55.437978 0
M  V30 43 H 36.858708 23.639575 57.597599 0
M  V30 44 H 36.167126 25.337790 57.659339 0
M  V30 45 H 40.110315 30.652975 59.601719 0
M  V30 46 H 38.974746 24.441448 56.697565 0
M  V30 47 H 37.997507 27.070833 55.793014 0
M  V30 48 H 39.904584 29.830226 55.621491 0
M  V30 49 H 37.245259 28.937759 59.759472 0
M  V30 50 H 37.745470 23.675816 54.289751 0
M  V30 51 H 41.244168 26.137757 54.679163 0
M  V30 52 H 39.699771 25.362460 54.577286 0
M  V30 53 H 39.828368 27.072400 54.183445 0
M  V30 54 H 38.923904 33.152659 57.389460 0
M  V30 55 H 36.701152 29.652844 57.574628 0
M  V30 56 H 37.858661 30.649942 61.186362 0
M  V30 END ATOM
M  V30 BEGIN BOND
M  V30 1 1 3 1 CFG=1
M  V30 2 1 3 2
M  V30 3 1 11 5
M  V30 4 1 13 5
M  V30 5 1 13 11
M  V30 6 1 14 2
M  V30 7 1 14 13
M  V30 8 1 15 7
M  V30 9 1 15 10
M  V30 10 1 16 3
M  V30 11 1 17 8 CFG=3
M  V30 12 1 17 9
M  V30 13 1 18 14
M  V30 14 1 19 5
M  V30 15 1 20 6
M  V30 16 1 20 16
M  V30 17 1 21 18
M  V30 18 1 22 17
M  V30 19 1 23 7
M  V30 20 2 23 22
M  V30 21 1 24 3
M  V30 22 1 24 10
M  V30 23 1 24 22
M  V30 24 1 25 12
M  V30 25 1 25 16
M  V30 26 1 25 17
M  V30 27 2 26 4
M  V30 28 1 26 15
M  V30 29 1 27 26
M  V30 30 1 28 1
M  V30 31 1 29 2
M  V30 32 1 30 2
M  V30 33 1 5 31 CFG=3
M  V30 34 1 32 6
M  V30 35 1 33 6
M  V30 36 1 34 6
M  V30 37 1 35 7
M  V30 38 1 36 7
M  V30 39 1 37 8
M  V30 40 1 38 9
M  V30 41 1 39 9
M  V30 42 1 40 9
M  V30 43 1 41 10
M  V30 44 1 42 10
M  V30 45 1 43 11
M  V30 46 1 44 11
M  V30 47 1 45 12
M  V30 48 1 13 46 CFG=3
M  V30 49 1 14 47 CFG=3
M  V30 50 1 15 48 CFG=1
M  V30 51 1 16 49 CFG=3
M  V30 52 1 50 19
M  V30 53 1 51 21
M  V30 54 1 52 21
M  V30 55 1 53 21
M  V30 56 1 54 23
M  V30 57 1 24 55 CFG=1
M  V30 58 1 25 56 CFG=1
M  V30 END BOND
M  V30 END CTAB
M  END
>  <i_epik_Tot_Q>  (1) 
-1

>  <i_epik_Tot_abs_Q>  (1) 
1

>  <i_i_glide_confnum>  (1) 
40

>  <i_i_glide_lignum>  (1) 
14

>  <i_i_glide_posenum>  (1) 
219

>  <i_i_glide_rotatable_bonds>  (1) 
10

>  <i_lp_mmshare_version>  (1) 
72125

>  <i_m_source_file_index>  (1) 
6

>  <i_f3d_flags>  (1) 
0

>  <num_sample>  (1) 
50

>  <b_lp_Chiralities_Consistent>  (1) 
1

>  <r_epik_Charging_Adjusted_Penalty>  (1) 
0.00069514942646818579

>  <r_epik_Ionization_Penalty>  (1) 
0.00069544814870727001

>  <r_epik_Ionization_Penalty_Charging>  (1) 
0.00069514942646818579

>  <r_epik_Ionization_Penalty_Neutral>  (1) 
2.9872223908425859e-07

>  <r_epik_State_Penalty>  (1) 
-0

>  <r_glide_ring_energy>  (1) 
0

>  <r_i_docking_score>  (1) 
-5.7294144214641038

>  <r_i_glide_ecoul>  (1) 
-4.2396589844735892

>  <r_i_glide_eff_state_penalty>  (1) 
-0

>  <r_i_glide_einternal>  (1) 
17.818201035011008

>  <r_i_glide_emodel>  (1) 
-30.88902983677557

>  <r_i_glide_emodel_strain>  (1) 
3.1083128820994617

>  <r_i_glide_energy>  (1) 
-32.293554524801479

>  <r_i_glide_erotb>  (1) 
0.39282459937787173

>  <r_i_glide_esite>  (1) 
0

>  <r_i_glide_evdw>  (1) 
-28.053895540327893

>  <r_i_glide_gscore>  (1) 
-5.7294144214641038

>  <r_i_glide_gscore_strain>  (1) 
0

>  <r_i_glide_hbond>  (1) 
-0.16

>  <r_i_glide_ligand_efficiency>  (1) 
-0.21220053412830014

>  <r_i_glide_ligand_efficiency_ln>  (1) 
-1.3337132205379072

>  <r_i_glide_ligand_efficiency_sa>  (1) 
-0.6366016023849006

>  <r_i_glide_lipo>  (1) 
-2.4081961125239504

>  <r_i_glide_metal>  (1) 
-0

>  <r_i_glide_rewards>  (1) 
-1.5153992836305918

>  <r_lp_Energy>  (1) 
23.796561000000001

>  <r_lp_tautomer_probability>  (1) 
1

>  <s_epik_cmdline>  (1) 
J2VwaWtfcHl0aG9uJywgJy1waHQnLCAnMS4wJywgJy1waCcsICc3LjQnLCAnLXRuJywgJzgnLCAnLW1hJywgJzUwMCcsICctaW1hZScsICc8aW5maWxlLm1hZT4nLCAnLW9tYWUnLCAnPG91dGZpbGUubWFlPic=

>  <s_epik_input>  (1) 
Tz1DKFtPSF0pW0NAQEhdKFtDSDJdW0NIXTEpW0NIMl1bQ0BIXShDPTEyKVtDQEBdKFtPSF0pKFtDQEBIXShPW0NIM10pW0NAQEhdKFtPSF0pW0NAQF0yKFtPSF0pW0NIM10pW0NIMl1bQ0BASF0oT1tDSDNdKVtDQEhdM1tDSDJdW0NAQEhdM1tPSF0=

>  <s_glide_docking_method>  (1) 
confgen

>  <s_i_glide_gridfile>  (1) 
gpcr_5ht2c_6bqh_protein_autoprepared_prepared

>  <s_lp_Force_Field>  (1) 
S-OPLS

>  <s_lp_Variant>  (1) 
DiffSBDD_5-1

>  <s_m_source_file>  (1) 
generated_GPCR_5HT2C_ligand_DiffSBDD_2026-06-23_prepared.sdf

>  <GenAI_Model>  (1) 
DiffSBDD

>  <Protein>  (1) 
GPCR_5HT2C

$$$$
DiffSBDD_40
     RDKit          3D

  0  0  0  0  0  0  0  0  0  0999 V3000
M  V30 BEGIN CTAB
M  V30 COUNTS 60 63 0 0 1
M  V30 BEGIN ATOM
M  V30 1 C 39.566547 27.077545 57.238251 0 CFG=1
M  V30 2 C 39.757131 30.034400 54.564105 0 CFG=2
M  V30 3 C 40.019241 28.168670 56.291300 0 CFG=1
M  V30 4 C 38.540610 24.690323 56.848436 0
M  V30 5 C 37.754840 34.213326 60.120019 0
M  V30 6 O 40.292458 29.081626 59.022242 0
M  V30 7 C 39.491901 31.183148 55.554502 0
M  V30 8 F 38.761210 27.492065 51.327754 0
M  V30 9 C 38.885061 36.239937 62.657453 0
M  V30 10 F 37.316310 28.473085 52.567771 0
M  V30 11 C 39.130687 30.426983 53.221602 0
M  V30 12 N 39.316798 35.745530 61.336134 0 CHG=1
M  V30 13 O 37.650438 30.510601 59.905026 0
M  V30 14 C 39.234100 28.659826 55.078879 0 CFG=2
M  V30 15 C 37.817758 25.310855 58.014010 0
M  V30 16 C 39.141336 31.959481 61.122794 0
M  V30 17 S 39.245119 27.337768 53.819733 0
M  V30 18 C 37.133290 30.348320 58.589996 0
M  V30 19 C 37.431205 36.737472 62.617056 0
M  V30 20 P 39.380304 28.767215 57.886273 0 CFG=2
M  V30 21 C 39.843745 37.337490 63.125868 0
M  V30 22 C 39.556994 33.257058 61.478199 0
M  V30 23 C 38.622983 28.261617 52.404477 0
M  V30 24 O 39.345161 29.462834 52.200132 0
M  V30 25 C 38.374014 26.192042 56.926101 0
M  V30 26 C 38.035728 31.783341 60.258245 0
M  V30 27 C 37.335701 32.919074 59.761173 0
M  V30 28 C 38.859935 34.362941 60.968957 0
M  V30 29 C 37.544887 29.000504 57.999847 0
M  V30 30 H 40.374796 26.543110 57.734305 0
M  V30 31 H 40.836436 30.001844 54.432758 0
M  V30 32 H 41.097834 28.246339 56.168305 0
M  V30 33 H 37.944760 24.158898 56.109126 0
M  V30 34 H 39.531910 24.279312 57.031154 0
M  V30 35 H 37.232945 35.080046 59.741010 0
M  V30 36 H 38.431389 31.268404 55.792788 0
M  V30 37 H 40.045137 31.065829 56.482843 0
M  V30 38 H 39.803451 32.137732 55.133222 0
M  V30 39 H 38.960273 35.417979 63.367751 0
M  V30 40 H 39.569813 31.362354 52.874568 0
M  V30 41 H 38.067635 30.619981 53.367780 0
M  V30 42 H 40.326531 35.762585 61.339215 0
M  V30 43 H 38.183861 28.780294 55.313308 0
M  V30 44 H 38.336290 25.337820 58.967749 0
M  V30 45 H 36.737612 25.186318 58.062916 0
M  V30 46 H 39.671447 31.097875 61.503131 0
M  V30 47 H 36.046242 30.424539 58.622970 0
M  V30 48 H 37.494993 31.122075 57.911944 0
M  V30 49 H 37.115291 37.093931 63.598111 0
M  V30 50 H 37.307751 37.560066 61.912052 0
M  V30 51 H 36.740887 35.944472 62.327838 0
M  V30 52 H 39.567300 37.714595 64.110767 0
M  V30 53 H 40.860948 36.950846 63.203310 0
M  V30 54 H 39.857950 38.182151 62.437255 0
M  V30 55 H 40.405060 33.397661 62.131829 0
M  V30 56 H 37.626890 26.615490 56.258534 0
M  V30 57 H 36.485501 32.792833 59.104758 0
M  V30 58 H 37.153217 28.172026 58.567743 0
M  V30 59 H 37.089455 28.937736 57.021242 0
M  V30 60 H 39.008736 36.411299 60.642765 0
M  V30 END ATOM
M  V30 BEGIN BOND
M  V30 1 1 3 1
M  V30 2 1 7 2
M  V30 3 1 11 2
M  V30 4 1 12 9
M  V30 5 1 14 2
M  V30 6 1 14 3
M  V30 7 1 15 4
M  V30 8 1 17 14
M  V30 9 1 18 13
M  V30 10 1 19 9
M  V30 11 1 20 1
M  V30 12 1 20 3
M  V30 13 2 20 6
M  V30 14 1 21 9
M  V30 15 1 22 16
M  V30 16 1 23 8
M  V30 17 1 23 10
M  V30 18 1 23 17
M  V30 19 1 24 11
M  V30 20 1 24 23
M  V30 21 1 25 1
M  V30 22 1 25 4
M  V30 23 1 25 15
M  V30 24 1 26 13
M  V30 25 2 26 16
M  V30 26 2 27 5
M  V30 27 1 27 26
M  V30 28 1 28 5
M  V30 29 1 28 12
M  V30 30 2 28 22
M  V30 31 1 29 18
M  V30 32 1 20 29 CFG=3
M  V30 33 1 1 30 CFG=1
M  V30 34 1 2 31 CFG=3
M  V30 35 1 3 32 CFG=3
M  V30 36 1 33 4
M  V30 37 1 34 4
M  V30 38 1 35 5
M  V30 39 1 36 7
M  V30 40 1 37 7
M  V30 41 1 38 7
M  V30 42 1 39 9
M  V30 43 1 40 11
M  V30 44 1 41 11
M  V30 45 1 42 12
M  V30 46 1 14 43 CFG=1
M  V30 47 1 44 15
M  V30 48 1 45 15
M  V30 49 1 46 16
M  V30 50 1 47 18
M  V30 51 1 48 18
M  V30 52 1 49 19
M  V30 53 1 50 19
M  V30 54 1 51 19
M  V30 55 1 52 21
M  V30 56 1 53 21
M  V30 57 1 54 21
M  V30 58 1 55 22
M  V30 59 1 56 25
M  V30 60 1 57 27
M  V30 61 1 58 29
M  V30 62 1 59 29
M  V30 63 1 60 12
M  V30 END BOND
M  V30 END CTAB
M  END
>  <i_epik_Tot_Q>  (1) 
1

>  <i_epik_Tot_abs_Q>  (1) 
1

>  <i_i_glide_confnum>  (1) 
688

>  <i_i_glide_lignum>  (1) 
86

>  <i_i_glide_posenum>  (1) 
115

>  <i_i_glide_rotatable_bonds>  (1) 
8

>  <i_lp_mmshare_version>  (1) 
72125

>  <i_m_source_file_index>  (1) 
41

>  <i_f3d_flags>  (1) 
0

>  <num_sample>  (1) 
50

>  <b_lp_Chiralities_Consistent>  (1) 
1

>  <r_epik_Charging_Adjusted_Penalty>  (1) 
2.1414087062306124

>  <r_epik_Ionization_Penalty>  (1) 
1.0707043531153062

>  <r_epik_Ionization_Penalty_Charging>  (1) 
1.0707043531153062

>  <r_epik_Ionization_Penalty_Neutral>  (1) 
0

>  <r_epik_State_Penalty>  (1) 
1.0707043531153062

>  <r_glide_ring_energy>  (1) 
0

>  <r_i_docking_score>  (1) 
-5.725445244375658

>  <r_i_glide_ecoul>  (1) 
-2.1894292208553745

>  <r_i_glide_eff_state_penalty>  (1) 
1.0707043531153062

>  <r_i_glide_einternal>  (1) 
4.0063866133366961

>  <r_i_glide_emodel>  (1) 
-56.68424030969291

>  <r_i_glide_emodel_strain>  (1) 
0.15290182920047357

>  <r_i_glide_energy>  (1) 
-40.796129209329386

>  <r_i_glide_erotb>  (1) 
0.70277430803170493

>  <r_i_glide_esite>  (1) 
0

>  <r_i_glide_evdw>  (1) 
-38.606699988474013

>  <r_i_glide_gscore>  (1) 
-6.796149597490964

>  <r_i_glide_gscore_strain>  (1) 
0

>  <r_i_glide_hbond>  (1) 
0

>  <r_i_glide_ligand_efficiency>  (1) 
-0.1974291463577813

>  <r_i_glide_ligand_efficiency_ln>  (1) 
-1.3109817761975124

>  <r_i_glide_ligand_efficiency_sa>  (1) 
-0.60656488823580534

>  <r_i_glide_lipo>  (1) 
-3.6778139978455084

>  <r_i_glide_metal>  (1) 
-0

>  <r_i_glide_rewards>  (1) 
-1.5623605251251549

>  <r_lp_Energy>  (1) 
21.359881999999999

>  <s_epik_cmdline>  (1) 
J2VwaWtfcHl0aG9uJywgJy1waHQnLCAnMS4wJywgJy1waCcsICc3LjQnLCAnLXRuJywgJzgnLCAnLW1hJywgJzUwMCcsICctaW1hZScsICc8aW5maWxlLm1hZT4nLCAnLW9tYWUnLCAnPG91dGZpbGUubWFlPic=

>  <s_epik_input>  (1) 
RkMxKEYpU1tDQEBIXShbQ0BIXShbQ0gzXSlbQ0gyXU8xKVtDQEBIXTJbQ0BIXShbQ0hdM1tDSDJdW0NIMl0zKVAyKD1PKVtDSDJdW0NIMl1PYzRbY0hdW2NIXWMoW2NIXVtjSF00KVtOSF1bQ0hdKFtDSDNdKVtDSDNd

>  <s_glide_docking_method>  (1) 
confgen

>  <s_i_glide_gridfile>  (1) 
gpcr_5ht2c_6bqh_protein_autoprepared_prepared

>  <s_lp_Force_Field>  (1) 
S-OPLS

>  <s_lp_Variant>  (1) 
DiffSBDD_40-4

>  <s_m_source_file>  (1) 
generated_GPCR_5HT2C_ligand_DiffSBDD_2026-06-23_prepared.sdf

>  <GenAI_Model>  (1) 
DiffSBDD

>  <Protein>  (1) 
GPCR_5HT2C

$$$$
DiffSBDD_43
     RDKit          3D

  0  0  0  0  0  0  0  0  0  0999 V3000
M  V30 BEGIN CTAB
M  V30 COUNTS 65 67 0 0 1
M  V30 BEGIN ATOM
M  V30 1 C 41.622069 35.320946 61.007179 0
M  V30 2 C 38.764061 30.296100 59.175222 0
M  V30 3 C 39.024935 29.229612 54.611685 0
M  V30 4 C 39.645126 30.844588 60.167789 0
M  V30 5 C 37.842433 34.270091 60.122257 0
M  V30 6 C 40.353211 28.743037 56.685133 0
M  V30 7 C 38.408537 28.087712 54.017221 0
M  V30 8 C 39.650208 30.020533 52.383952 0
M  V30 9 C 39.640647 30.193634 53.782193 0
M  V30 10 C 37.916504 32.621019 58.360528 0
M  V30 11 C 39.886852 28.665014 61.157040 0
M  V30 12 C 39.828928 36.535055 62.483009 0 CFG=1
M  V30 13 N 37.914400 32.953642 59.665943 0
M  V30 14 C 38.866269 30.896074 56.633666 0
M  V30 15 F 40.249004 30.937769 51.594512 0
M  V30 16 Cl 37.645136 26.881306 54.992035 0
M  V30 17 C 38.442851 28.950065 59.225287 0
M  V30 18 C 40.305831 27.221232 56.872691 0
M  V30 19 C 40.192303 30.021295 61.149404 0
M  V30 20 C 39.049914 29.407511 56.142041 0 CFG=1
M  V30 21 C 36.936536 35.168943 59.557645 0
M  V30 22 C 39.817423 35.782133 63.795722 0
M  V30 23 O 40.444517 27.859618 62.095566 0
M  V30 24 C 39.002759 28.137762 60.187205 0
M  V30 25 O 36.045135 37.337755 59.440905 0
M  V30 26 C 38.725491 34.687258 61.125475 0
M  V30 27 O 37.743673 33.433869 57.453244 0
M  V30 28 C 37.842897 36.945435 60.948243 0
M  V30 29 C 39.046680 28.892918 51.806479 0
M  V30 30 C 38.425178 27.930820 52.618672 0
M  V30 31 C 36.924506 36.493632 59.981860 0
M  V30 32 C 41.239356 36.539010 61.845284 0
M  V30 33 C 38.172694 31.143749 58.033588 0 CFG=1
M  V30 34 C 38.763191 36.041896 61.509067 0
M  V30 35 H 42.613925 35.337831 60.567736 0
M  V30 36 H 41.557887 34.401432 61.588210 0
M  V30 37 H 40.937142 35.274109 60.167760 0
M  V30 38 H 39.918246 31.885219 60.162019 0
M  V30 39 H 41.190612 28.937753 56.018753 0
M  V30 40 H 40.629097 29.178596 57.643288 0
M  V30 41 H 40.112302 31.062635 54.217614 0
M  V30 42 H 39.599025 37.573291 62.729604 0
M  V30 43 H 38.173815 32.244078 60.333552 0
M  V30 44 H 38.242155 31.404336 55.896064 0
M  V30 45 H 39.827303 31.408780 56.592451 0
M  V30 46 H 37.769363 28.526670 58.498610 0
M  V30 47 H 41.198461 26.875889 57.395474 0
M  V30 48 H 39.441086 26.909882 57.456130 0
M  V30 49 H 40.279579 26.703783 55.914740 0
M  V30 50 H 40.862398 30.432065 61.889874 0
M  V30 51 H 38.180467 28.881638 56.515523 0
M  V30 52 H 36.245892 34.843671 58.791994 0
M  V30 53 H 38.814961 35.895359 64.184700 0
M  V30 54 H 40.050015 34.724631 63.678673 0
M  V30 55 H 40.516006 36.212672 64.514950 0
M  V30 56 H 40.901279 28.317103 62.784089 0
M  V30 57 H 38.751259 27.112680 60.167692 0
M  V30 58 H 36.048678 38.232396 59.768061 0
M  V30 59 H 39.425752 33.984458 61.548453 0
M  V30 60 H 37.852757 37.984981 61.242125 0
M  V30 61 H 39.061433 28.764845 50.734394 0
M  V30 62 H 37.962617 27.063945 52.167116 0
M  V30 63 H 41.245730 37.364001 61.141969 0
M  V30 64 H 41.999828 36.738717 62.601105 0
M  V30 65 H 37.162870 30.750926 57.915015 0
M  V30 END ATOM
M  V30 BEGIN BOND
M  V30 1 1 4 2
M  V30 2 2 7 3
M  V30 3 1 9 3
M  V30 4 2 9 8
M  V30 5 1 13 5
M  V30 6 1 13 10
M  V30 7 1 15 8
M  V30 8 1 16 7
M  V30 9 2 17 2
M  V30 10 1 18 6
M  V30 11 2 19 4
M  V30 12 1 19 11
M  V30 13 1 20 3
M  V30 14 1 20 6
M  V30 15 1 20 14
M  V30 16 1 21 5
M  V30 17 1 22 12
M  V30 18 1 23 11
M  V30 19 2 24 11
M  V30 20 1 24 17
M  V30 21 2 26 5
M  V30 22 2 27 10
M  V30 23 1 29 8
M  V30 24 1 30 7
M  V30 25 2 30 29
M  V30 26 2 31 21
M  V30 27 1 31 25
M  V30 28 1 31 28
M  V30 29 1 32 1
M  V30 30 1 32 12
M  V30 31 1 33 2
M  V30 32 1 33 10
M  V30 33 1 33 14
M  V30 34 1 34 12
M  V30 35 1 34 26
M  V30 36 2 34 28
M  V30 37 1 35 1
M  V30 38 1 36 1
M  V30 39 1 37 1
M  V30 40 1 38 4
M  V30 41 1 39 6
M  V30 42 1 40 6
M  V30 43 1 41 9
M  V30 44 1 12 42 CFG=1
M  V30 45 1 43 13
M  V30 46 1 44 14
M  V30 47 1 45 14
M  V30 48 1 46 17
M  V30 49 1 47 18
M  V30 50 1 48 18
M  V30 51 1 49 18
M  V30 52 1 50 19
M  V30 53 1 20 51 CFG=1
M  V30 54 1 52 21
M  V30 55 1 53 22
M  V30 56 1 54 22
M  V30 57 1 55 22
M  V30 58 1 56 23
M  V30 59 1 57 24
M  V30 60 1 58 25
M  V30 61 1 59 26
M  V30 62 1 60 28
M  V30 63 1 61 29
M  V30 64 1 62 30
M  V30 65 1 63 32
M  V30 66 1 64 32
M  V30 67 1 33 65 CFG=3
M  V30 END BOND
M  V30 END CTAB
M  END
>  <i_epik_Tot_Q>  (1) 
0

>  <i_epik_Tot_abs_Q>  (1) 
0

>  <i_i_glide_confnum>  (1) 
151

>  <i_i_glide_lignum>  (1) 
94

>  <i_i_glide_posenum>  (1) 
12

>  <i_i_glide_rotatable_bonds>  (1) 
12

>  <i_lp_mmshare_version>  (1) 
72125

>  <i_m_source_file_index>  (1) 
44

>  <i_f3d_flags>  (1) 
0

>  <num_sample>  (1) 
50

>  <b_lp_Chiralities_Consistent>  (1) 
1

>  <r_epik_Charging_Adjusted_Penalty>  (1) 
0

>  <r_epik_Ionization_Penalty>  (1) 
0.0033265205606122501

>  <r_epik_Ionization_Penalty_Charging>  (1) 
0

>  <r_epik_Ionization_Penalty_Neutral>  (1) 
0.0033265205606122501

>  <r_epik_State_Penalty>  (1) 
-0

>  <r_glide_ring_energy>  (1) 
0

>  <r_i_docking_score>  (1) 
-5.712132848672149

>  <r_i_glide_ecoul>  (1) 
-2.9284894594904936

>  <r_i_glide_eff_state_penalty>  (1) 
-0

>  <r_i_glide_einternal>  (1) 
13.435446140282963

>  <r_i_glide_emodel>  (1) 
-25.855339708694501

>  <r_i_glide_emodel_strain>  (1) 
7.8773442429458456

>  <r_i_glide_energy>  (1) 
-26.316226346354224

>  <r_i_glide_erotb>  (1) 
0.60670890069985839

>  <r_i_glide_esite>  (1) 
-0.10180293778307664

>  <r_i_glide_evdw>  (1) 
-23.387736886863731

>  <r_i_glide_gscore>  (1) 
-5.712132848672149

>  <r_i_glide_gscore_strain>  (1) 
0.96933606073646139

>  <r_i_glide_hbond>  (1) 
-0.19081713972671621

>  <r_i_glide_ligand_efficiency>  (1) 
-0.16800390731388673

>  <r_i_glide_ligand_efficiency_ln>  (1) 
-1.2619703661710733

>  <r_i_glide_ligand_efficiency_sa>  (1) 
-0.54426744079479605

>  <r_i_glide_lipo>  (1) 
-4.6674610799602929

>  <r_i_glide_metal>  (1) 
-0

>  <r_i_glide_rewards>  (1) 
-0.71943638937162169

>  <r_lp_Energy>  (1) 
37.902006

>  <r_lp_tautomer_probability>  (1) 
1

>  <s_epik_cmdline>  (1) 
J2VwaWtfcHl0aG9uJywgJy1waHQnLCAnMS4wJywgJy1waCcsICc3LjQnLCAnLXRuJywgJzgnLCAnLW1hJywgJzUwMCcsICctaW1hZScsICc8aW5maWxlLm1hZT4nLCAnLW9tYWUnLCAnPG91dGZpbGUubWFlPic=

>  <s_epik_input>  (1) 
W0NIM11bQ0gyXVtDQEhdKFtDSDNdKWMoW2NIXTEpW2NIXWMoW09IXSlbY0hdYzFbTkhdQyg9TylbQ0BIXShjMltjSF1bY0hdYyhbT0hdKVtjSF1bY0hdMilbQ0gyXVtDQEhdKFtDSDJdW0NIM10pYzNjKENsKVtjSF1bY0hdYyhGKVtjSF0z

>  <s_glide_docking_method>  (1) 
confgen

>  <s_i_glide_gridfile>  (1) 
gpcr_5ht2c_6bqh_protein_autoprepared_prepared

>  <s_lp_Force_Field>  (1) 
S-OPLS

>  <s_lp_Variant>  (1) 
DiffSBDD_43-1

>  <s_m_source_file>  (1) 
generated_GPCR_5HT2C_ligand_DiffSBDD_2026-06-23_prepared.sdf

>  <GenAI_Model>  (1) 
DiffSBDD

>  <Protein>  (1) 
GPCR_5HT2C

$$$$
DiffSBDD_40
     RDKit          3D

  0  0  0  0  0  0  0  0  0  0999 V3000
M  V30 BEGIN CTAB
M  V30 COUNTS 60 63 0 0 1
M  V30 BEGIN ATOM
M  V30 1 C 39.526411 25.298602 56.804119 0 CFG=1
M  V30 2 C 38.416008 27.073492 53.833416 0 CFG=2
M  V30 3 C 39.829232 26.492227 55.877383 0 CFG=1
M  V30 4 C 36.827850 25.200519 56.616384 0
M  V30 5 C 37.824316 33.164250 58.613771 0
M  V30 6 O 41.378160 27.009134 58.167752 0
M  V30 7 C 39.539802 26.895388 52.791895 0
M  V30 8 F 37.234590 30.040589 55.218540 0
M  V30 9 C 37.009245 35.858156 60.644677 0
M  V30 10 F 38.624786 31.242547 54.136167 0
M  V30 11 C 37.356660 28.048874 53.307161 0
M  V30 12 N 36.541828 35.148225 59.428498 0 CHG=1
M  V30 13 O 37.472170 29.540110 59.367044 0
M  V30 14 C 38.898914 27.510379 55.239318 0 CFG=1
M  V30 15 C 37.367796 23.990497 55.907703 0
M  V30 16 C 36.199462 31.434763 60.153786 0
M  V30 17 S 39.645134 29.167515 55.194228 0
M  V30 18 C 38.529367 29.023969 58.571257 0
M  V30 19 C 36.771832 37.363356 60.479036 0
M  V30 20 P 39.997728 26.836617 57.643478 0 CFG=2
M  V30 21 C 38.484538 35.574353 60.980584 0
M  V30 22 C 35.962920 32.823555 60.169259 0
M  V30 23 C 38.264776 29.984386 54.376861 0
M  V30 24 O 37.927326 29.337767 53.158796 0
M  V30 25 C 38.169026 24.625498 57.024693 0
M  V30 26 C 37.251452 30.904108 59.368496 0
M  V30 27 C 38.065907 31.781566 58.593282 0
M  V30 28 C 36.781214 33.665473 59.400275 0
M  V30 29 C 38.503521 27.498942 58.530623 0
M  V30 30 H 40.327916 24.564592 56.830073 0
M  V30 31 H 37.928167 26.105907 53.930543 0
M  V30 32 H 40.784300 26.422531 55.361818 0
M  V30 33 H 36.045070 25.079904 57.354512 0
M  V30 34 H 36.715246 26.068489 55.982080 0
M  V30 35 H 38.439875 33.831029 58.030309 0
M  V30 36 H 40.045137 27.833677 52.567782 0
M  V30 37 H 40.286103 26.169896 53.115749 0
M  V30 38 H 39.132603 26.537794 51.846619 0
M  V30 39 H 36.415477 35.504469 61.487204 0
M  V30 40 H 36.482038 28.064200 53.957533 0
M  V30 41 H 37.009018 27.737801 52.324237 0
M  V30 42 H 36.986190 35.572471 58.625142 0
M  V30 43 H 38.029802 27.642236 55.872763 0
M  V30 44 H 37.739426 24.107301 54.893265 0
M  V30 45 H 36.845115 23.055987 56.101108 0
M  V30 46 H 35.578640 30.775166 60.739658 0
M  V30 47 H 38.400744 29.377788 57.554242 0
M  V30 48 H 39.489801 29.377318 58.949462 0
M  V30 49 H 37.008318 37.904669 61.395079 0
M  V30 50 H 37.394455 37.776216 59.685174 0
M  V30 51 H 35.734231 37.584034 60.228602 0
M  V30 52 H 38.793252 36.140037 61.860355 0
M  V30 53 H 38.657645 34.522424 61.209418 0
M  V30 54 H 39.150959 35.855369 60.167804 0
M  V30 55 H 35.163016 33.233544 60.768134 0
M  V30 56 H 38.133238 24.070320 57.959951 0
M  V30 57 H 38.870161 31.396179 57.988733 0
M  V30 58 H 38.509825 27.101752 59.543341 0
M  V30 59 H 37.583281 27.165279 58.064827 0
M  V30 60 H 35.551480 35.324344 59.330061 0
M  V30 END ATOM
M  V30 BEGIN BOND
M  V30 1 1 3 1
M  V30 2 1 7 2
M  V30 3 1 11 2
M  V30 4 1 12 9
M  V30 5 1 14 2
M  V30 6 1 14 3
M  V30 7 1 15 4
M  V30 8 1 17 14
M  V30 9 1 18 13
M  V30 10 1 19 9
M  V30 11 1 20 1
M  V30 12 1 20 3
M  V30 13 2 20 6
M  V30 14 1 21 9
M  V30 15 1 22 16
M  V30 16 1 23 8
M  V30 17 1 23 10
M  V30 18 1 23 17
M  V30 19 1 24 11
M  V30 20 1 24 23
M  V30 21 1 25 1
M  V30 22 1 25 4
M  V30 23 1 25 15
M  V30 24 1 26 13
M  V30 25 2 26 16
M  V30 26 2 27 5
M  V30 27 1 27 26
M  V30 28 1 28 5
M  V30 29 1 28 12
M  V30 30 2 28 22
M  V30 31 1 29 18
M  V30 32 1 20 29 CFG=1
M  V30 33 1 1 30 CFG=3
M  V30 34 1 2 31 CFG=1
M  V30 35 1 3 32 CFG=3
M  V30 36 1 33 4
M  V30 37 1 34 4
M  V30 38 1 35 5
M  V30 39 1 36 7
M  V30 40 1 37 7
M  V30 41 1 38 7
M  V30 42 1 39 9
M  V30 43 1 40 11
M  V30 44 1 41 11
M  V30 45 1 42 12
M  V30 46 1 14 43 CFG=1
M  V30 47 1 44 15
M  V30 48 1 45 15
M  V30 49 1 46 16
M  V30 50 1 47 18
M  V30 51 1 48 18
M  V30 52 1 49 19
M  V30 53 1 50 19
M  V30 54 1 51 19
M  V30 55 1 52 21
M  V30 56 1 53 21
M  V30 57 1 54 21
M  V30 58 1 55 22
M  V30 59 1 56 25
M  V30 60 1 57 27
M  V30 61 1 58 29
M  V30 62 1 59 29
M  V30 63 1 60 12
M  V30 END BOND
M  V30 END CTAB
M  END
>  <i_epik_Tot_Q>  (1) 
1

>  <i_epik_Tot_abs_Q>  (1) 
1

>  <i_i_glide_confnum>  (1) 
151

>  <i_i_glide_lignum>  (1) 
85

>  <i_i_glide_posenum>  (1) 
205

>  <i_i_glide_rotatable_bonds>  (1) 
8

>  <i_lp_mmshare_version>  (1) 
72125

>  <i_m_source_file_index>  (1) 
41

>  <i_f3d_flags>  (1) 
0

>  <num_sample>  (1) 
50

>  <b_lp_Chiralities_Consistent>  (1) 
1

>  <r_epik_Charging_Adjusted_Penalty>  (1) 
2.1414087062306124

>  <r_epik_Ionization_Penalty>  (1) 
1.0707043531153062

>  <r_epik_Ionization_Penalty_Charging>  (1) 
1.0707043531153062

>  <r_epik_Ionization_Penalty_Neutral>  (1) 
0

>  <r_epik_State_Penalty>  (1) 
1.0707043531153062

>  <r_glide_ring_energy>  (1) 
0

>  <r_i_docking_score>  (1) 
-5.69055236177695

>  <r_i_glide_ecoul>  (1) 
0.34034658590420763

>  <r_i_glide_eff_state_penalty>  (1) 
1.0707043531153062

>  <r_i_glide_einternal>  (1) 
6.3878866249094042

>  <r_i_glide_emodel>  (1) 
-53.545023972203801

>  <r_i_glide_emodel_strain>  (1) 
0.039911018190537106

>  <r_i_glide_energy>  (1) 
-41.40533650353381

>  <r_i_glide_erotb>  (1) 
0.70277430803170493

>  <r_i_glide_esite>  (1) 
-0.073283342890985106

>  <r_i_glide_evdw>  (1) 
-41.745683089438018

>  <r_i_glide_gscore>  (1) 
-6.761256714892256

>  <r_i_glide_gscore_strain>  (1) 
0

>  <r_i_glide_hbond>  (1) 
0

>  <r_i_glide_ligand_efficiency>  (1) 
-0.19622594350955

>  <r_i_glide_ligand_efficiency_ln>  (1) 
-1.3029921908895679

>  <r_i_glide_ligand_efficiency_sa>  (1) 
-0.6028682678804711

>  <r_i_glide_lipo>  (1) 
-3.8270299803761869

>  <r_i_glide_metal>  (1) 
-0

>  <r_i_glide_rewards>  (1) 
-1.5274855330705186

>  <r_lp_Energy>  (1) 
20.817494999999997

>  <s_epik_cmdline>  (1) 
J2VwaWtfcHl0aG9uJywgJy1waHQnLCAnMS4wJywgJy1waCcsICc3LjQnLCAnLXRuJywgJzgnLCAnLW1hJywgJzUwMCcsICctaW1hZScsICc8aW5maWxlLm1hZT4nLCAnLW9tYWUnLCAnPG91dGZpbGUubWFlPic=

>  <s_epik_input>  (1) 
RkMxKEYpU1tDQEBIXShbQ0BIXShbQ0gzXSlbQ0gyXU8xKVtDQEBIXTJbQ0BIXShbQ0hdM1tDSDJdW0NIMl0zKVAyKD1PKVtDSDJdW0NIMl1PYzRbY0hdW2NIXWMoW2NIXVtjSF00KVtOSF1bQ0hdKFtDSDNdKVtDSDNd

>  <s_glide_docking_method>  (1) 
confgen

>  <s_i_glide_gridfile>  (1) 
gpcr_5ht2c_6bqh_protein_autoprepared_prepared

>  <s_lp_Force_Field>  (1) 
S-OPLS

>  <s_lp_Variant>  (1) 
DiffSBDD_40-3

>  <s_m_source_file>  (1) 
generated_GPCR_5HT2C_ligand_DiffSBDD_2026-06-23_prepared.sdf

>  <GenAI_Model>  (1) 
DiffSBDD

>  <Protein>  (1) 
GPCR_5HT2C

$$$$
DiffSBDD_48
     RDKit          3D

  0  0  0  0  0  0  0  0  0  0999 V3000
M  V30 BEGIN CTAB
M  V30 COUNTS 78 78 0 0 1
M  V30 BEGIN ATOM
M  V30 1 O 43.783625 32.829039 67.782605 0
M  V30 2 C 38.890205 33.732662 59.527297 0
M  V30 3 C 39.444692 34.814348 60.475738 0
M  V30 4 O 39.644284 29.446608 52.516119 0
M  V30 5 C 36.849942 30.107705 59.377642 0
M  V30 6 C 43.259549 32.211322 66.831550 0
M  V30 7 C 38.220723 27.720835 54.365952 0
M  V30 8 C 41.727920 32.207488 66.757706 0
M  V30 9 C 36.954474 30.860280 60.717157 0
M  V30 10 C 39.537856 34.408381 61.959415 0
M  V30 11 N 38.062540 31.804727 60.722712 0
M  V30 12 C 41.108649 34.627802 67.392446 0
M  V30 13 C 38.022254 29.146402 59.120586 0
M  V30 14 C 39.090402 28.267968 52.053735 0
M  V30 15 C 40.307155 30.323575 51.607781 0
M  V30 16 C 41.121969 33.557588 66.280898 0 CFG=1
M  V30 17 C 41.755444 34.128529 64.981181 0
M  V30 18 C 39.305461 27.994570 50.570100 0
M  V30 19 O 40.110370 26.278429 54.783252 0
M  V30 20 C 39.794413 32.899267 62.195218 0 CFG=2
M  V30 21 C 41.745057 33.175036 63.771399 0
M  V30 22 O 43.870346 31.598875 65.929400 0 CHG=-1
M  V30 23 C 37.841701 28.366509 57.811495 0
M  V30 24 O 39.962387 34.507450 68.207390 0
M  V30 25 C 39.025015 26.702368 55.180587 0
M  V30 26 C 38.776773 27.155827 57.691646 0
M  V30 27 C 38.481817 32.082655 62.094428 0
M  V30 28 C 37.643279 33.029618 60.047845 0
M  V30 29 C 38.422138 27.452962 52.886813 0
M  V30 30 N 40.386925 32.646234 63.527552 0 CHG=1
M  V30 31 C 38.420882 26.225381 56.510675 0 CFG=2
M  V30 32 C 38.851942 24.777148 56.806468 0
M  V30 33 H 39.657516 32.996977 59.294913 0
M  V30 34 H 38.630294 34.137645 58.555263 0
M  V30 35 H 40.440732 35.098469 60.133118 0
M  V30 36 H 38.835152 35.715993 60.394386 0
M  V30 37 H 35.924244 29.532327 59.385458 0
M  V30 38 H 36.747206 30.797834 58.543408 0
M  V30 39 H 37.159706 27.654686 54.603386 0
M  V30 40 H 38.556747 28.726188 54.617060 0
M  V30 41 H 41.334143 31.946668 67.741092 0
M  V30 42 H 41.417754 31.399594 66.093501 0
M  V30 43 H 37.131428 30.137755 61.502297 0
M  V30 44 H 36.014723 31.360436 60.959575 0
M  V30 45 H 38.623386 34.704452 62.471737 0
M  V30 46 H 40.315199 35.023250 62.411774 0
M  V30 47 H 41.116142 35.636988 66.978329 0
M  V30 48 H 41.982920 34.537711 68.026592 0
M  V30 49 H 38.965417 29.693107 59.098096 0
M  V30 50 H 38.088094 28.449129 59.954630 0
M  V30 51 H 40.664529 31.189138 52.164940 0
M  V30 52 H 41.177741 29.860025 51.142572 0
M  V30 53 H 39.641668 30.700838 50.831540 0
M  V30 54 H 40.076799 33.351141 66.053651 0
M  V30 55 H 41.221230 35.038608 64.704630 0
M  V30 56 H 42.781518 34.447969 65.173333 0
M  V30 57 H 38.845602 27.043049 50.300120 0
M  V30 58 H 38.846700 28.759840 49.948402 0
M  V30 59 H 40.365680 27.913901 50.330804 0
M  V30 60 H 40.515752 32.520504 61.468814 0
M  V30 61 H 42.126995 33.689634 62.890101 0
M  V30 62 H 42.418789 32.334472 63.932017 0
M  V30 63 H 36.817781 28.001963 57.768345 0
M  V30 64 H 37.968252 29.039633 56.964546 0
M  V30 65 H 40.029551 35.137105 68.909744 0
M  V30 66 H 39.815751 27.485256 57.627702 0
M  V30 67 H 38.705221 26.583003 58.616816 0
M  V30 68 H 38.652878 31.121108 62.581728 0
M  V30 69 H 37.667258 32.555903 62.640440 0
M  V30 70 H 37.020948 32.796123 59.183756 0
M  V30 71 H 37.037880 33.675238 60.686647 0
M  V30 72 H 37.996134 26.539782 52.505770 0
M  V30 73 H 40.430472 31.646411 63.669163 0
M  V30 74 H 37.337300 26.213749 56.384769 0
M  V30 75 H 38.658807 24.137056 55.946403 0
M  V30 76 H 39.916095 24.714018 57.039192 0
M  V30 77 H 38.301477 24.361794 57.650980 0
M  V30 78 H 39.774676 33.030145 64.232740 0
M  V30 END ATOM
M  V30 BEGIN BOND
M  V30 1 1 3 2
M  V30 2 2 6 1
M  V30 3 1 8 6
M  V30 4 1 9 5
M  V30 5 1 10 3
M  V30 6 1 11 9
M  V30 7 1 13 5
M  V30 8 1 14 4
M  V30 9 1 15 4
M  V30 10 1 16 8
M  V30 11 1 16 12
M  V30 12 1 17 16
M  V30 13 1 18 14
M  V30 14 1 20 10
M  V30 15 1 21 17
M  V30 16 1 22 6
M  V30 17 1 23 13
M  V30 18 1 24 12
M  V30 19 1 25 7
M  V30 20 2 25 19
M  V30 21 1 26 23
M  V30 22 1 27 11
M  V30 23 1 27 20
M  V30 24 1 28 2
M  V30 25 1 28 11
M  V30 26 1 29 7
M  V30 27 2 29 14
M  V30 28 1 30 20
M  V30 29 1 30 21
M  V30 30 1 31 25
M  V30 31 1 31 26
M  V30 32 1 32 31
M  V30 33 1 33 2
M  V30 34 1 34 2
M  V30 35 1 35 3
M  V30 36 1 36 3
M  V30 37 1 37 5
M  V30 38 1 38 5
M  V30 39 1 39 7
M  V30 40 1 40 7
M  V30 41 1 41 8
M  V30 42 1 42 8
M  V30 43 1 43 9
M  V30 44 1 44 9
M  V30 45 1 45 10
M  V30 46 1 46 10
M  V30 47 1 47 12
M  V30 48 1 48 12
M  V30 49 1 49 13
M  V30 50 1 50 13
M  V30 51 1 51 15
M  V30 52 1 52 15
M  V30 53 1 53 15
M  V30 54 1 16 54 CFG=3
M  V30 55 1 55 17
M  V30 56 1 56 17
M  V30 57 1 57 18
M  V30 58 1 58 18
M  V30 59 1 59 18
M  V30 60 1 20 60 CFG=3
M  V30 61 1 61 21
M  V30 62 1 62 21
M  V30 63 1 63 23
M  V30 64 1 64 23
M  V30 65 1 65 24
M  V30 66 1 66 26
M  V30 67 1 67 26
M  V30 68 1 68 27
M  V30 69 1 69 27
M  V30 70 1 70 28
M  V30 71 1 71 28
M  V30 72 1 72 29
M  V30 73 1 73 30
M  V30 74 1 31 74 CFG=3
M  V30 75 1 75 32
M  V30 76 1 76 32
M  V30 77 1 77 32
M  V30 78 1 78 30
M  V30 END BOND
M  V30 END CTAB
M  END
>  <i_epik_Tot_Q>  (1) 
0

>  <i_epik_Tot_abs_Q>  (1) 
2

>  <i_i_glide_confnum>  (1) 
1843

>  <i_i_glide_lignum>  (1) 
99

>  <i_i_glide_posenum>  (1) 
281

>  <i_i_glide_rotatable_bonds>  (1) 
18

>  <i_lp_mmshare_version>  (1) 
72125

>  <i_m_source_file_index>  (1) 
49

>  <i_f3d_flags>  (1) 
0

>  <num_sample>  (1) 
50

>  <b_lp_Chiralities_Consistent>  (1) 
1

>  <r_epik_Charging_Adjusted_Penalty>  (1) 
0.04911624183534407

>  <r_epik_Ionization_Penalty>  (1) 
0.025385742012929795

>  <r_epik_Ionization_Penalty_Charging>  (1) 
0.0065475108590220404

>  <r_epik_Ionization_Penalty_Neutral>  (1) 
0.018838231153907755

>  <r_epik_State_Penalty>  (1) 
0.042568730976322029

>  <r_glide_ring_energy>  (1) 
0

>  <r_i_docking_score>  (1) 
-5.6764888743576574

>  <r_i_glide_ecoul>  (1) 
-0.26845586153430689

>  <r_i_glide_eff_state_penalty>  (1) 
0.042568730976322029

>  <r_i_glide_einternal>  (1) 
12.530103945481947

>  <r_i_glide_emodel>  (1) 
-52.100408580185963

>  <r_i_glide_emodel_strain>  (1) 
1.9798333261094214

>  <r_i_glide_energy>  (1) 
-41.112658907911843

>  <r_i_glide_erotb>  (1) 
1.5544609794247006

>  <r_i_glide_esite>  (1) 
0

>  <r_i_glide_evdw>  (1) 
-40.844203046377537

>  <r_i_glide_gscore>  (1) 
-5.7190576053339797

>  <r_i_glide_gscore_strain>  (1) 
0

>  <r_i_glide_hbond>  (1) 
0

>  <r_i_glide_ligand_efficiency>  (1) 
-0.17739027732367679

>  <r_i_glide_ligand_efficiency_ln>  (1) 
-1.2711205942113295

>  <r_i_glide_ligand_efficiency_sa>  (1) 
-0.5631790256650705

>  <r_i_glide_lipo>  (1) 
-4.0912681414155525

>  <r_i_glide_metal>  (1) 
-0

>  <r_i_glide_rewards>  (1) 
-1.0997719117941052

>  <r_lp_Energy>  (1) 
27.873598999999999

>  <r_lp_tautomer_probability>  (1) 
0.99990000499974985

>  <s_epik_cmdline>  (1) 
J2VwaWtfcHl0aG9uJywgJy1waHQnLCAnMS4wJywgJy1waCcsICc3LjQnLCAnLXRuJywgJzgnLCAnLW1hJywgJzUwMCcsICctaW1hZScsICc8aW5maWxlLm1hZT4nLCAnLW9tYWUnLCAnPG91dGZpbGUubWFlPic=

>  <s_epik_input>  (1) 
Tz1DKFtPSF0pW0NIMl1bQ0BASF0oW0NIMl1bT0hdKVtDSDJdW0NIMl1bTkhdW0NASF0oW0NIMl1bQ0gyXVtDSDJdW0NIMl0xKVtDSDJdTjFbQ0gyXVtDSDJdW0NIMl1bQ0gyXVtDSDJdW0NASF0oW0NIM10pQyg9TylbQ0gyXS9bQ0hdPUMoW0NIM10pXE9bQ0gzXQ==

>  <s_glide_docking_method>  (1) 
confgen

>  <s_i_glide_gridfile>  (1) 
gpcr_5ht2c_6bqh_protein_autoprepared_prepared

>  <s_lp_Force_Field>  (1) 
S-OPLS

>  <s_lp_Variant>  (1) 
DiffSBDD_48-1

>  <s_m_source_file>  (1) 
generated_GPCR_5HT2C_ligand_DiffSBDD_2026-06-23_prepared.sdf

>  <GenAI_Model>  (1) 
DiffSBDD

>  <Protein>  (1) 
GPCR_5HT2C

$$$$
DiffSBDD_48
     RDKit          3D

  0  0  0  0  0  0  0  0  0  0999 V3000
M  V30 BEGIN CTAB
M  V30 COUNTS 78 78 0 0 1
M  V30 BEGIN ATOM
M  V30 1 O 42.858371 24.543624 65.728503 0
M  V30 2 C 41.377988 33.333478 62.396615 0
M  V30 3 C 41.594935 33.870571 63.814638 0
M  V30 4 O 37.556697 25.272985 55.254383 0
M  V30 5 C 39.266505 30.350860 60.247569 0
M  V30 6 C 42.432300 25.574956 65.168439 0
M  V30 7 C 39.656909 27.258787 55.239196 0
M  V30 8 C 43.478114 26.597218 64.683718 0
M  V30 9 C 39.090437 30.452912 61.773972 0
M  V30 10 C 41.104134 32.948900 64.941383 0
M  V30 11 N 40.200991 31.171542 62.408481 0
M  V30 12 C 44.278111 27.417803 67.008337 0
M  V30 13 C 38.187972 29.482359 59.582474 0
M  V30 14 C 38.283585 25.492026 56.406198 0
M  V30 15 C 36.680644 24.157548 55.172580 0
M  V30 16 C 43.670722 27.800502 65.639070 0 CFG=2
M  V30 17 C 42.358101 28.587310 65.767720 0
M  V30 18 C 37.874498 24.637756 57.600348 0
M  V30 19 O 37.677235 28.443120 54.526265 0
M  V30 20 C 41.322465 31.444160 64.709431 0 CFG=2
M  V30 21 C 42.505387 29.989279 66.358427 0
M  V30 22 O 41.229711 25.852810 64.967409 0 CHG=-1
M  V30 23 C 38.562752 29.045855 58.162172 0
M  V30 24 O 45.645133 27.083767 66.876834 0
M  V30 25 C 38.751905 28.491924 55.123946 0
M  V30 26 C 38.493171 30.144351 57.086163 0
M  V30 27 C 40.222109 30.794230 63.827004 0
M  V30 28 C 40.035675 32.614064 62.205683 0
M  V30 29 C 39.265549 26.405213 56.427003 0
M  V30 30 N 41.313789 30.798010 66.043782 0 CHG=1
M  V30 31 C 39.245113 29.792348 55.779721 0 CFG=2
M  V30 32 C 39.181332 30.960078 54.779833 0
M  V30 33 H 42.201971 32.677621 62.109116 0
M  V30 34 H 41.431652 34.177055 61.707482 0
M  V30 35 H 42.658205 34.073466 63.946652 0
M  V30 36 H 41.097987 34.836465 63.917220 0
M  V30 37 H 39.245211 31.332516 59.778556 0
M  V30 38 H 40.250126 29.925860 60.043664 0
M  V30 39 H 39.581883 26.674626 54.322189 0
M  V30 40 H 40.696775 27.555635 55.367913 0
M  V30 41 H 43.164322 26.951353 63.701070 0
M  V30 42 H 44.445021 26.136834 64.515323 0
M  V30 43 H 39.052749 29.433248 62.162216 0
M  V30 44 H 38.134841 30.913871 62.029988 0
M  V30 45 H 40.045208 33.107072 65.127391 0
M  V30 46 H 41.608537 33.271976 65.853506 0
M  V30 47 H 43.742065 26.586577 67.467518 0
M  V30 48 H 44.221038 28.250144 67.708756 0
M  V30 49 H 38.059847 28.572953 60.167456 0
M  V30 50 H 37.222081 29.990002 59.587361 0
M  V30 51 H 36.262253 24.137598 54.168313 0
M  V30 52 H 37.208386 23.217201 55.326213 0
M  V30 53 H 35.841777 24.228697 55.863042 0
M  V30 54 H 44.379877 28.466184 65.144276 0
M  V30 55 H 41.947054 28.663774 64.763204 0
M  V30 56 H 41.623854 28.029833 66.351354 0
M  V30 57 H 38.379568 25.000072 58.495147 0
M  V30 58 H 36.807499 24.707343 57.805011 0
M  V30 59 H 38.157288 23.596141 57.470349 0
M  V30 60 H 42.294720 31.293957 64.237343 0
M  V30 61 H 42.593283 29.917619 67.442948 0
M  V30 62 H 43.409200 30.488883 66.006686 0
M  V30 63 H 39.568672 28.628595 58.190348 0
M  V30 64 H 37.891254 28.236865 57.874956 0
M  V30 65 H 46.130839 27.839667 66.574559 0
M  V30 66 H 37.447910 30.377510 56.871366 0
M  V30 67 H 38.924348 31.064209 57.481582 0
M  V30 68 H 40.367143 29.714900 63.845169 0
M  V30 69 H 39.245108 30.937789 64.274314 0
M  V30 70 H 39.721920 32.813520 61.182999 0
M  V30 71 H 39.249483 33.025214 62.841213 0
M  V30 72 H 39.823897 26.563057 57.337426 0
M  V30 73 H 40.490614 30.217678 66.135161 0
M  V30 74 H 40.293362 29.635934 56.032164 0
M  V30 75 H 39.687431 30.715845 53.845400 0
M  V30 76 H 38.149636 31.224969 54.541912 0
M  V30 77 H 39.663358 31.848491 55.188146 0
M  V30 78 H 41.257965 31.533346 66.733472 0
M  V30 END ATOM
M  V30 BEGIN BOND
M  V30 1 1 3 2
M  V30 2 2 6 1
M  V30 3 1 8 6
M  V30 4 1 9 5
M  V30 5 1 10 3
M  V30 6 1 11 9
M  V30 7 1 13 5
M  V30 8 1 14 4
M  V30 9 1 15 4
M  V30 10 1 16 8
M  V30 11 1 16 12
M  V30 12 1 17 16
M  V30 13 1 18 14
M  V30 14 1 20 10
M  V30 15 1 21 17
M  V30 16 1 22 6
M  V30 17 1 23 13
M  V30 18 1 24 12
M  V30 19 1 25 7
M  V30 20 2 25 19
M  V30 21 1 26 23
M  V30 22 1 27 11
M  V30 23 1 27 20
M  V30 24 1 28 2
M  V30 25 1 28 11
M  V30 26 1 29 7
M  V30 27 2 29 14
M  V30 28 1 30 20
M  V30 29 1 30 21
M  V30 30 1 31 25
M  V30 31 1 31 26
M  V30 32 1 32 31
M  V30 33 1 33 2
M  V30 34 1 34 2
M  V30 35 1 35 3
M  V30 36 1 36 3
M  V30 37 1 37 5
M  V30 38 1 38 5
M  V30 39 1 39 7
M  V30 40 1 40 7
M  V30 41 1 41 8
M  V30 42 1 42 8
M  V30 43 1 43 9
M  V30 44 1 44 9
M  V30 45 1 45 10
M  V30 46 1 46 10
M  V30 47 1 47 12
M  V30 48 1 48 12
M  V30 49 1 49 13
M  V30 50 1 50 13
M  V30 51 1 51 15
M  V30 52 1 52 15
M  V30 53 1 53 15
M  V30 54 1 16 54 CFG=3
M  V30 55 1 55 17
M  V30 56 1 56 17
M  V30 57 1 57 18
M  V30 58 1 58 18
M  V30 59 1 59 18
M  V30 60 1 20 60 CFG=3
M  V30 61 1 61 21
M  V30 62 1 62 21
M  V30 63 1 63 23
M  V30 64 1 64 23
M  V30 65 1 65 24
M  V30 66 1 66 26
M  V30 67 1 67 26
M  V30 68 1 68 27
M  V30 69 1 69 27
M  V30 70 1 70 28
M  V30 71 1 71 28
M  V30 72 1 72 29
M  V30 73 1 73 30
M  V30 74 1 31 74 CFG=1
M  V30 75 1 75 32
M  V30 76 1 76 32
M  V30 77 1 77 32
M  V30 78 1 78 30
M  V30 END BOND
M  V30 END CTAB
M  END
>  <i_epik_Tot_Q>  (1) 
0

>  <i_epik_Tot_abs_Q>  (1) 
2

>  <i_i_glide_confnum>  (1) 
5302

>  <i_i_glide_lignum>  (1) 
101

>  <i_i_glide_posenum>  (1) 
345

>  <i_i_glide_rotatable_bonds>  (1) 
18

>  <i_lp_mmshare_version>  (1) 
72125

>  <i_m_source_file_index>  (1) 
49

>  <i_f3d_flags>  (1) 
0

>  <num_sample>  (1) 
50

>  <b_lp_Chiralities_Consistent>  (1) 
1

>  <r_epik_Charging_Adjusted_Penalty>  (1) 
0.04911624183534407

>  <r_epik_Ionization_Penalty>  (1) 
0.025385742012929795

>  <r_epik_Ionization_Penalty_Charging>  (1) 
0.0065475108590220404

>  <r_epik_Ionization_Penalty_Neutral>  (1) 
0.018838231153907755

>  <r_epik_State_Penalty>  (1) 
0.042568730976322029

>  <r_glide_ring_energy>  (1) 
0

>  <r_i_docking_score>  (1) 
-5.6755980883492292

>  <r_i_glide_ecoul>  (1) 
-3.8927994182430528

>  <r_i_glide_eff_state_penalty>  (1) 
0.042568730976322029

>  <r_i_glide_einternal>  (1) 
19.792749947547684

>  <r_i_glide_emodel>  (1) 
-48.832105746953914

>  <r_i_glide_emodel_strain>  (1) 
0.539980970447548

>  <r_i_glide_energy>  (1) 
-42.247011258156341

>  <r_i_glide_erotb>  (1) 
1.5544609794247006

>  <r_i_glide_esite>  (1) 
0

>  <r_i_glide_evdw>  (1) 
-38.35421183991329

>  <r_i_glide_gscore>  (1) 
-5.7181668193255515

>  <r_i_glide_gscore_strain>  (1) 
0

>  <r_i_glide_hbond>  (1) 
-0.057997235232530732

>  <r_i_glide_ligand_efficiency>  (1) 
-0.17736244026091341

>  <r_i_glide_ligand_efficiency_ln>  (1) 
-1.2709211229421331

>  <r_i_glide_ligand_efficiency_sa>  (1) 
-0.56309064849964185

>  <r_i_glide_lipo>  (1) 
-3.6647588589209872

>  <r_i_glide_metal>  (1) 
-0

>  <r_i_glide_rewards>  (1) 
-1.0482411998646122

>  <r_lp_Energy>  (1) 
26.260809999999999

>  <r_lp_tautomer_probability>  (1) 
0.99990000499974985

>  <s_epik_cmdline>  (1) 
J2VwaWtfcHl0aG9uJywgJy1waHQnLCAnMS4wJywgJy1waCcsICc3LjQnLCAnLXRuJywgJzgnLCAnLW1hJywgJzUwMCcsICctaW1hZScsICc8aW5maWxlLm1hZT4nLCAnLW9tYWUnLCAnPG91dGZpbGUubWFlPic=

>  <s_epik_input>  (1) 
Tz1DKFtPSF0pW0NIMl1bQ0BASF0oW0NIMl1bT0hdKVtDSDJdW0NIMl1bTkhdW0NASF0oW0NIMl1bQ0gyXVtDSDJdW0NIMl0xKVtDSDJdTjFbQ0gyXVtDSDJdW0NIMl1bQ0gyXVtDSDJdW0NASF0oW0NIM10pQyg9TylbQ0gyXS9bQ0hdPUMoW0NIM10pXE9bQ0gzXQ==

>  <s_glide_docking_method>  (1) 
confgen

>  <s_i_glide_gridfile>  (1) 
gpcr_5ht2c_6bqh_protein_autoprepared_prepared

>  <s_lp_Force_Field>  (1) 
S-OPLS

>  <s_lp_Variant>  (1) 
DiffSBDD_48-3

>  <s_m_source_file>  (1) 
generated_GPCR_5HT2C_ligand_DiffSBDD_2026-06-23_prepared.sdf

>  <GenAI_Model>  (1) 
DiffSBDD

>  <Protein>  (1) 
GPCR_5HT2C

$$$$
DiffSBDD_36
     RDKit          3D

  0  0  0  0  0  0  0  0  0  0999 V3000
M  V30 BEGIN CTAB
M  V30 COUNTS 79 82 0 0 1
M  V30 BEGIN ATOM
M  V30 1 O 40.445471 26.137692 53.832455 0
M  V30 2 C 39.301717 29.615961 56.986455 0 CFG=1
M  V30 3 C 37.337869 30.539232 60.229361 0
M  V30 4 C 39.666222 30.257643 51.929916 0
M  V30 5 O 38.445133 31.630269 53.619350 0
M  V30 6 C 38.776638 29.431200 55.579140 0 CFG=1
M  V30 7 C 37.114125 32.058610 60.358419 0
M  V30 8 C 38.550438 30.079860 59.393088 0
M  V30 9 C 37.796429 27.460517 57.071982 0
M  V30 10 C 40.087281 36.826362 62.558529 0
M  V30 11 C 39.183252 24.838527 55.341808 0
M  V30 12 O 37.574210 24.134497 56.974471 0
M  V30 13 C 39.438398 28.007091 51.027034 0
M  V30 14 C 38.439370 30.468154 57.911955 0 CFG=1
M  V30 15 C 38.117414 26.321855 58.071127 0
M  V30 16 C 39.644623 31.091523 50.659932 0
M  V30 17 C 39.492266 26.263346 54.864236 0 CFG=1
M  V30 18 C 39.710443 29.627992 54.395377 0
M  V30 19 C 38.193952 32.776858 61.170778 0
M  V30 20 C 39.558314 30.777855 53.387728 0 CFG=1
M  V30 21 C 37.181116 25.112499 57.917078 0
M  V30 22 N 38.206388 34.124782 61.083475 0
M  V30 23 C 38.982572 28.210438 56.484844 0 CFG=2
M  V30 24 O 38.845150 29.108275 51.689990 0
M  V30 25 C 40.163308 34.562262 62.561442 0
M  V30 26 C 39.123244 34.973793 61.784044 0
M  V30 27 O 38.844871 31.814553 57.768083 0
M  V30 28 C 38.443867 32.436247 54.783754 0
M  V30 29 C 41.920156 35.738495 63.925975 0
M  V30 30 C 37.710675 24.506961 55.620335 0
M  V30 31 N 40.771445 35.708142 63.049537 0
M  V30 32 O 38.983031 32.128893 61.858296 0
M  V30 33 C 39.059993 36.381631 61.766577 0
M  V30 34 C 40.036730 27.208976 55.976207 0
M  V30 35 C 40.926996 30.494734 51.091489 0
M  V30 36 H 40.449767 26.938662 53.333851 0
M  V30 37 H 40.365362 29.755745 57.143704 0
M  V30 38 H 36.437371 30.084619 59.815044 0
M  V30 39 H 37.449623 30.138541 61.233865 0
M  V30 40 H 37.733183 29.665575 55.372951 0
M  V30 41 H 37.013078 32.522653 59.377492 0
M  V30 42 H 36.161058 32.225490 60.860199 0
M  V30 43 H 38.602078 28.994487 59.470656 0
M  V30 44 H 39.485623 30.443530 59.819121 0
M  V30 45 H 37.245319 27.075588 56.226607 0
M  V30 46 H 37.115682 28.155420 57.558951 0
M  V30 47 H 40.400621 37.824765 62.823921 0
M  V30 48 H 39.484202 24.139143 54.567978 0
M  V30 49 H 39.811201 24.573751 56.193087 0
M  V30 50 H 38.772967 27.144359 51.072378 0
M  V30 51 H 39.621321 28.233511 49.976116 0
M  V30 52 H 40.373495 27.742736 51.513448 0
M  V30 53 H 37.395808 30.406652 57.595514 0
M  V30 54 H 38.045151 26.736887 59.070608 0
M  V30 55 H 39.131353 25.939975 58.055585 0
M  V30 56 H 39.245256 30.668570 49.745358 0
M  V30 57 H 39.435693 32.137713 50.799205 0
M  V30 58 H 38.610459 26.692968 54.388818 0
M  V30 59 H 40.717065 29.737560 54.794155 0
M  V30 60 H 39.645281 28.699365 53.841989 0
M  V30 61 H 40.445125 31.392941 53.513763 0
M  V30 62 H 36.142477 25.415448 57.770606 0
M  V30 63 H 37.244822 24.538400 58.836056 0
M  V30 64 H 37.513664 34.572436 60.501917 0
M  V30 65 H 40.535392 33.583320 62.822469 0
M  V30 66 H 39.787302 31.859362 57.765329 0
M  V30 67 H 38.042617 33.425484 54.565208 0
M  V30 68 H 37.764212 32.002374 55.512084 0
M  V30 69 H 39.437770 32.538957 55.220839 0
M  V30 70 H 42.450178 34.791531 63.862771 0
M  V30 71 H 42.595482 36.538877 63.636302 0
M  V30 72 H 41.596109 35.892579 64.954497 0
M  V30 73 H 36.992826 25.251739 55.287202 0
M  V30 74 H 37.460477 23.618984 55.039410 0
M  V30 75 H 38.348711 37.003918 61.243959 0
M  V30 76 H 40.511343 26.666217 56.788513 0
M  V30 77 H 40.891921 27.760464 55.611201 0
M  V30 78 H 41.644790 31.253182 51.367311 0
M  V30 79 H 41.335322 29.706557 50.471478 0
M  V30 END ATOM
M  V30 BEGIN BOND
M  V30 1 1 6 2
M  V30 2 1 7 3
M  V30 3 1 8 3
M  V30 4 1 14 2
M  V30 5 1 14 8
M  V30 6 1 15 9
M  V30 7 1 16 4
M  V30 8 1 17 1
M  V30 9 1 17 11
M  V30 10 1 18 6
M  V30 11 1 19 7
M  V30 12 1 20 4
M  V30 13 1 20 5
M  V30 14 1 20 18
M  V30 15 1 21 12
M  V30 16 1 21 15
M  V30 17 1 22 19
M  V30 18 1 23 2
M  V30 19 1 23 6
M  V30 20 1 23 9 CFG=1
M  V30 21 1 24 4
M  V30 22 1 24 13
M  V30 23 1 26 22
M  V30 24 2 26 25
M  V30 25 1 27 14
M  V30 26 1 28 5
M  V30 27 1 30 11
M  V30 28 1 30 12
M  V30 29 1 31 10
M  V30 30 1 31 25
M  V30 31 1 31 29
M  V30 32 2 32 19
M  V30 33 2 33 10
M  V30 34 1 33 26
M  V30 35 1 34 17
M  V30 36 1 34 23
M  V30 37 1 35 4
M  V30 38 1 35 16
M  V30 39 1 36 1
M  V30 40 1 2 37 CFG=3
M  V30 41 1 38 3
M  V30 42 1 39 3
M  V30 43 1 6 40 CFG=3
M  V30 44 1 41 7
M  V30 45 1 42 7
M  V30 46 1 43 8
M  V30 47 1 44 8
M  V30 48 1 45 9
M  V30 49 1 46 9
M  V30 50 1 47 10
M  V30 51 1 48 11
M  V30 52 1 49 11
M  V30 53 1 50 13
M  V30 54 1 51 13
M  V30 55 1 52 13
M  V30 56 1 14 53 CFG=3
M  V30 57 1 54 15
M  V30 58 1 55 15
M  V30 59 1 56 16
M  V30 60 1 57 16
M  V30 61 1 17 58 CFG=3
M  V30 62 1 59 18
M  V30 63 1 60 18
M  V30 64 1 20 61 CFG=1
M  V30 65 1 62 21
M  V30 66 1 63 21
M  V30 67 1 64 22
M  V30 68 1 65 25
M  V30 69 1 66 27
M  V30 70 1 67 28
M  V30 71 1 68 28
M  V30 72 1 69 28
M  V30 73 1 70 29
M  V30 74 1 71 29
M  V30 75 1 72 29
M  V30 76 1 73 30
M  V30 77 1 74 30
M  V30 78 1 75 33
M  V30 79 1 76 34
M  V30 80 1 77 34
M  V30 81 1 78 35
M  V30 82 1 79 35
M  V30 END BOND
M  V30 END CTAB
M  END
>  <i_epik_Tot_Q>  (1) 
0

>  <i_epik_Tot_abs_Q>  (1) 
0

>  <i_i_glide_confnum>  (1) 
2684

>  <i_i_glide_lignum>  (1) 
77

>  <i_i_glide_posenum>  (1) 
170

>  <i_i_glide_rotatable_bonds>  (1) 
14

>  <i_lp_mmshare_version>  (1) 
72125

>  <i_m_source_file_index>  (1) 
37

>  <i_f3d_flags>  (1) 
0

>  <num_sample>  (1) 
50

>  <b_lp_Chiralities_Consistent>  (1) 
1

>  <r_epik_Charging_Adjusted_Penalty>  (1) 
0

>  <r_epik_Ionization_Penalty>  (1) 
4.0629952699979679e-06

>  <r_epik_Ionization_Penalty_Charging>  (1) 
0

>  <r_epik_Ionization_Penalty_Neutral>  (1) 
4.0629952699979679e-06

>  <r_epik_State_Penalty>  (1) 
-0

>  <r_glide_ring_energy>  (1) 
0

>  <r_i_docking_score>  (1) 
-5.6576125386110805

>  <r_i_glide_ecoul>  (1) 
-0.86988829108578125

>  <r_i_glide_eff_state_penalty>  (1) 
-0

>  <r_i_glide_einternal>  (1) 
7.3044033997486437

>  <r_i_glide_emodel>  (1) 
-35.786903994837175

>  <r_i_glide_emodel_strain>  (1) 
8.8027662214617095

>  <r_i_glide_energy>  (1) 
-40.072445740399942

>  <r_i_glide_erotb>  (1) 
0.8390941538197072

>  <r_i_glide_esite>  (1) 
0

>  <r_i_glide_evdw>  (1) 
-39.202557449314163

>  <r_i_glide_gscore>  (1) 
-5.6576125386110805

>  <r_i_glide_gscore_strain>  (1) 
1.2006915553654274

>  <r_i_glide_hbond>  (1) 
0

>  <r_i_glide_ligand_efficiency>  (1) 
-0.16164607253174515

>  <r_i_glide_ligand_efficiency_ln>  (1) 
-1.2419715161702203

>  <r_i_glide_ligand_efficiency_sa>  (1) 
-0.52875502203289282

>  <r_i_glide_lipo>  (1) 
-4.7167363208582804

>  <r_i_glide_metal>  (1) 
-0

>  <r_i_glide_rewards>  (1) 
-0.89005081080935933

>  <r_lp_Energy>  (1) 
31.017113999999999

>  <r_lp_tautomer_probability>  (1) 
1

>  <s_epik_cmdline>  (1) 
J2VwaWtfcHl0aG9uJywgJy1waHQnLCAnMS4wJywgJy1waCcsICc3LjQnLCAnLXRuJywgJzgnLCAnLW1hJywgJzUwMCcsICctaW1hZScsICc8aW5maWxlLm1hZT4nLCAnLW9tYWUnLCAnPG91dGZpbGUubWFlPic=

>  <s_epik_input>  (1) 
W09IXVtDQEhdKFtDSDJdMSlbQ0gyXVtDSDJdT1tDSDJdW0NIMl1bQ0gyXVtDQF0xMltDQEBIXShbQ0hdMltDSDJdW0NASF0oT1tDSDNdKUMzKFtDSDJdW0NIMl0zKU9bQ0gzXSlbQ0BIXShbT0hdKVtDSDJdW0NIMl1bQ0gyXUMoPU8pW05IXWM0W2NIXW4oW0NIM10pW2NIXVtjSF00

>  <s_glide_docking_method>  (1) 
confgen

>  <s_i_glide_gridfile>  (1) 
gpcr_5ht2c_6bqh_protein_autoprepared_prepared

>  <s_lp_Force_Field>  (1) 
S-OPLS

>  <s_lp_Variant>  (1) 
DiffSBDD_36-1

>  <s_m_source_file>  (1) 
generated_GPCR_5HT2C_ligand_DiffSBDD_2026-06-23_prepared.sdf

>  <GenAI_Model>  (1) 
DiffSBDD

>  <Protein>  (1) 
GPCR_5HT2C

$$$$
DiffSBDD_41
     RDKit          3D

  0  0  0  0  0  0  0  0  0  0999 V3000
M  V30 BEGIN CTAB
M  V30 COUNTS 71 75 0 0 1
M  V30 BEGIN ATOM
M  V30 1 C 40.535546 26.935697 57.056296 0
M  V30 2 O 39.672886 29.984751 62.083201 0
M  V30 3 C 39.438395 31.124241 61.271584 0 CFG=1
M  V30 4 C 38.066505 33.255563 59.899720 0
M  V30 5 C 39.960948 25.797184 57.901006 0
M  V30 6 C 37.952942 28.973692 57.532101 0
M  V30 7 C 39.505041 29.608443 52.537398 0
M  V30 8 C 39.157678 28.406558 53.164617 0
M  V30 9 C 41.526931 28.547800 63.659860 0
M  V30 10 C 38.691934 31.918503 55.508351 0
M  V30 11 C 40.803524 31.829398 61.091763 0
M  V30 12 C 42.039393 28.744877 65.811108 0
M  V30 13 N 42.264237 28.104108 64.655681 0
M  V30 14 C 38.750816 30.694550 59.923370 0 CFG=1
M  V30 15 C 39.186895 28.706327 58.466518 0
M  V30 16 C 40.715001 29.591135 64.199594 0
M  V30 17 O 44.484265 27.612499 63.998681 0
M  V30 18 O 41.562721 28.137793 62.502924 0
M  V30 19 C 38.901705 27.552578 59.439552 0
M  V30 20 C 38.706564 26.207869 58.686832 0
M  V30 21 N 38.590858 32.107496 59.099432 0 CFG=1 CHG=1
M  V30 22 O 42.619770 28.512515 66.871222 0
M  V30 23 O 39.626129 29.884543 59.183819 0
M  V30 24 C 38.731088 28.419179 54.495806 0
M  V30 25 C 37.724158 31.972454 57.913348 0
M  V30 26 C 43.280878 27.061993 64.494126 0
M  V30 27 C 38.640539 29.639075 55.191869 0
M  V30 28 C 39.850335 30.266382 63.418812 0
M  V30 29 C 39.402920 30.830245 53.234269 0
M  V30 30 C 39.717996 29.588594 66.567956 0
M  V30 31 N 38.272819 29.937292 56.505163 0
M  V30 32 C 40.948630 29.851959 65.688263 0 CFG=1
M  V30 33 C 40.501412 28.320755 57.729044 0
M  V30 34 C 38.239699 31.327818 56.660729 0
M  V30 35 C 38.947870 30.876554 54.577324 0
M  V30 36 H 40.018475 26.948506 56.113991 0
M  V30 37 H 41.566432 26.705558 56.788970 0
M  V30 38 H 38.735849 31.758192 61.811542 0
M  V30 39 H 37.104822 33.003392 60.349046 0
M  V30 40 H 38.731294 33.592103 60.691868 0
M  V30 41 H 37.921277 34.141836 59.281264 0
M  V30 42 H 39.736763 24.943457 57.261042 0
M  V30 43 H 40.734712 25.441229 58.567740 0
M  V30 44 H 37.645577 28.067876 57.019245 0
M  V30 45 H 37.072021 29.287705 58.089283 0
M  V30 46 H 39.841171 29.601108 51.510633 0
M  V30 47 H 39.226422 27.473051 52.624659 0
M  V30 48 H 38.798153 32.976932 55.319359 0
M  V30 49 H 40.740633 32.776186 60.567743 0
M  V30 50 H 41.254655 32.067020 62.054393 0
M  V30 51 H 41.506070 31.191436 60.567820 0
M  V30 52 H 37.787222 30.220082 60.106165 0
M  V30 53 H 44.518549 27.462158 63.062504 0
M  V30 54 H 39.742015 27.456468 60.129650 0
M  V30 55 H 38.045138 27.798017 60.060596 0
M  V30 56 H 37.851856 26.248741 58.015220 0
M  V30 57 H 38.445219 25.403576 59.367737 0
M  V30 58 H 38.459609 27.496907 54.980038 0
M  V30 59 H 37.347208 32.948718 57.604582 0
M  V30 60 H 36.845141 31.440492 58.259413 0
M  V30 61 H 42.934161 26.275706 63.821058 0
M  V30 62 H 43.494804 26.570632 65.444756 0
M  V30 63 H 39.225047 31.067176 63.764352 0
M  V30 64 H 39.655525 31.742296 52.727850 0
M  V30 65 H 39.450894 28.537766 66.568470 0
M  V30 66 H 39.908885 29.867376 67.604400 0
M  V30 67 H 38.848745 30.138533 66.210541 0
M  V30 68 H 41.371086 30.844642 65.844777 0
M  V30 69 H 40.759642 29.069507 56.987918 0
M  V30 70 H 41.317241 28.345353 58.453890 0
M  V30 71 H 39.495982 32.389534 58.755810 0
M  V30 END ATOM
M  V30 BEGIN BOND
M  V30 1 1 3 2
M  V30 2 1 5 1
M  V30 3 2 8 7
M  V30 4 1 11 3
M  V30 5 1 13 9
M  V30 6 1 13 12
M  V30 7 1 14 3
M  V30 8 1 15 6
M  V30 9 1 16 9
M  V30 10 2 18 9
M  V30 11 1 19 15
M  V30 12 1 20 5
M  V30 13 1 20 19
M  V30 14 1 21 4
M  V30 15 1 21 14
M  V30 16 2 22 12
M  V30 17 1 23 14
M  V30 18 1 23 15
M  V30 19 1 24 8
M  V30 20 1 25 21
M  V30 21 1 26 13
M  V30 22 1 26 17
M  V30 23 2 27 24
M  V30 24 1 28 2
M  V30 25 2 28 16
M  V30 26 1 29 7
M  V30 27 1 31 6
M  V30 28 1 31 27
M  V30 29 1 32 12
M  V30 30 1 32 16
M  V30 31 1 32 30
M  V30 32 1 33 1
M  V30 33 1 33 15
M  V30 34 2 34 10
M  V30 35 1 34 25
M  V30 36 1 34 31
M  V30 37 1 35 10
M  V30 38 1 35 27
M  V30 39 2 35 29
M  V30 40 1 36 1
M  V30 41 1 37 1
M  V30 42 1 3 38 CFG=1
M  V30 43 1 39 4
M  V30 44 1 40 4
M  V30 45 1 41 4
M  V30 46 1 42 5
M  V30 47 1 43 5
M  V30 48 1 44 6
M  V30 49 1 45 6
M  V30 50 1 46 7
M  V30 51 1 47 8
M  V30 52 1 48 10
M  V30 53 1 49 11
M  V30 54 1 50 11
M  V30 55 1 51 11
M  V30 56 1 14 52 CFG=1
M  V30 57 1 53 17
M  V30 58 1 54 19
M  V30 59 1 55 19
M  V30 60 1 56 20
M  V30 61 1 57 20
M  V30 62 1 58 24
M  V30 63 1 59 25
M  V30 64 1 60 25
M  V30 65 1 61 26
M  V30 66 1 62 26
M  V30 67 1 63 28
M  V30 68 1 64 29
M  V30 69 1 65 30
M  V30 70 1 66 30
M  V30 71 1 67 30
M  V30 72 1 32 68 CFG=3
M  V30 73 1 69 33
M  V30 74 1 70 33
M  V30 75 1 21 71 CFG=3
M  V30 END BOND
M  V30 END CTAB
M  END
>  <i_epik_Tot_Q>  (1) 
1

>  <i_epik_Tot_abs_Q>  (1) 
1

>  <i_i_glide_confnum>  (1) 
20

>  <i_i_glide_lignum>  (1) 
91

>  <i_i_glide_posenum>  (1) 
87

>  <i_i_glide_rotatable_bonds>  (1) 
5

>  <i_lp_mmshare_version>  (1) 
72125

>  <i_m_source_file_index>  (1) 
42

>  <i_f3d_flags>  (1) 
0

>  <num_sample>  (1) 
50

>  <b_lp_Chiralities_Consistent>  (1) 
1

>  <r_epik_Charging_Adjusted_Penalty>  (1) 
1.62722492853585

>  <r_epik_Ionization_Penalty>  (1) 
0.81369786534067623

>  <r_epik_Ionization_Penalty_Charging>  (1) 
0.81361246426792511

>  <r_epik_Ionization_Penalty_Neutral>  (1) 
8.5401072751167088e-05

>  <r_epik_State_Penalty>  (1) 
0.813612464267925

>  <r_glide_ring_energy>  (1) 
1.1929747713027825

>  <r_i_docking_score>  (1) 
-5.6570104456118013

>  <r_i_glide_ecoul>  (1) 
-3.7015959299876919

>  <r_i_glide_eff_state_penalty>  (1) 
0.813612464267925

>  <r_i_glide_einternal>  (1) 
10.419435636287794

>  <r_i_glide_emodel>  (1) 
-46.349535479908219

>  <r_i_glide_emodel_strain>  (1) 
1.7547038064408369

>  <r_i_glide_energy>  (1) 
-39.297835236405206

>  <r_i_glide_erotb>  (1) 
0.34854586591334119

>  <r_i_glide_esite>  (1) 
-0.075784458128887969

>  <r_i_glide_evdw>  (1) 
-35.596239306417516

>  <r_i_glide_gscore>  (1) 
-6.4706229098797259

>  <r_i_glide_gscore_strain>  (1) 
0

>  <r_i_glide_hbond>  (1) 
-0.2127517497122654

>  <r_i_glide_ligand_efficiency>  (1) 
-0.16162886987462288

>  <r_i_glide_ligand_efficiency_ln>  (1) 
-1.2418393433941444

>  <r_i_glide_ligand_efficiency_sa>  (1) 
-0.52869875100073449

>  <r_i_glide_lipo>  (1) 
-2.9694976292248767

>  <r_i_glide_metal>  (1) 
-0

>  <r_i_glide_rewards>  (1) 
-1.226083583908008

>  <r_lp_Energy>  (1) 
42.397202999999998

>  <s_epik_Chemistry_Notes>  (1) 
This compound contains an acetal/aminal-like group ( X-CH(R)-Y where X, Y are N, S, or O) that may be acid/base labile, releasing an aldehyde.

>  <s_epik_cmdline>  (1) 
J2VwaWtfcHl0aG9uJywgJy1waHQnLCAnMS4wJywgJy1waCcsICc3LjQnLCAnLXRuJywgJzgnLCAnLW1hJywgJzUwMCcsICctaW1hZScsICc8aW5maWxlLm1hZT4nLCAnLW9tYWUnLCAnPG91dGZpbGUubWFlPic=

>  <s_epik_input>  (1) 
W0NIMl0xW0NIMl1bQ0gyXVtDSDJdW0NIMl1DMTJbQ0gyXW4zYzRjKFtjSF1bY0hdW2NIXVtjSF00KVtjSF1jM1tDSDJdTihbQ0gzXSlbQ0BASF0oTzIpW0NASF0oW0NIM10pTy9bQ0hdPUNcNVtDQEBIXShbQ0gzXSlDKD1PKU4oQzU9TylbQ0gyXVtPSF0=

>  <s_glide_docking_method>  (1) 
confgen

>  <s_i_glide_gridfile>  (1) 
gpcr_5ht2c_6bqh_protein_autoprepared_prepared

>  <s_lp_Force_Field>  (1) 
S-OPLS

>  <s_lp_Variant>  (1) 
DiffSBDD_41-5

>  <s_m_source_file>  (1) 
generated_GPCR_5HT2C_ligand_DiffSBDD_2026-06-23_prepared.sdf

>  <GenAI_Model>  (1) 
DiffSBDD

>  <Protein>  (1) 
GPCR_5HT2C

$$$$
DiffSBDD_23
     RDKit          3D

  0  0  0  0  0  0  0  0  0  0999 V3000
M  V30 BEGIN CTAB
M  V30 COUNTS 20 20 0 0 1
M  V30 BEGIN ATOM
M  V30 1 C 39.948485 30.537221 52.580243 0
M  V30 2 C 39.682061 29.543937 51.615745 0
M  V30 3 C 39.509416 30.370363 53.909739 0
M  V30 4 S 37.644642 26.704531 53.767886 0
M  V30 5 C 38.328508 29.023719 55.720549 0
M  V30 6 C 40.149241 29.733560 50.187659 0
M  V30 7 O 39.765415 31.337901 54.834160 0
M  V30 8 C 38.543122 28.207815 53.309569 0
M  V30 9 C 38.805102 29.203663 54.281279 0
M  V30 10 C 38.979352 28.378415 51.981393 0
M  V30 11 H 40.485149 31.429951 52.298554 0
M  V30 12 H 37.168729 26.439076 52.543209 0
M  V30 13 H 38.414134 27.991306 56.057059 0
M  V30 14 H 38.914481 29.612624 56.424298 0
M  V30 15 H 37.287477 29.336936 55.809126 0
M  V30 16 H 39.779437 28.940125 49.537331 0
M  V30 17 H 39.787700 30.685457 49.796420 0
M  V30 18 H 41.238868 29.737766 50.147235 0
M  V30 19 H 39.285877 31.216341 55.639023 0
M  V30 20 H 38.774733 27.615693 51.243429 0
M  V30 END ATOM
M  V30 BEGIN BOND
M  V30 1 2 2 1
M  V30 2 1 3 1
M  V30 3 1 6 2
M  V30 4 1 7 3
M  V30 5 1 8 4
M  V30 6 2 9 3
M  V30 7 1 9 5
M  V30 8 1 9 8
M  V30 9 1 10 2
M  V30 10 2 10 8
M  V30 11 1 11 1
M  V30 12 1 12 4
M  V30 13 1 13 5
M  V30 14 1 14 5
M  V30 15 1 15 5
M  V30 16 1 16 6
M  V30 17 1 17 6
M  V30 18 1 18 6
M  V30 19 1 19 7
M  V30 20 1 20 10
M  V30 END BOND
M  V30 END CTAB
M  END
>  <i_epik_Tot_Q>  (1) 
0

>  <i_epik_Tot_abs_Q>  (1) 
0

>  <i_i_glide_confnum>  (1) 
1

>  <i_i_glide_lignum>  (1) 
52

>  <i_i_glide_posenum>  (1) 
135

>  <i_i_glide_rotatable_bonds>  (1) 
2

>  <i_lp_mmshare_version>  (1) 
72125

>  <i_m_source_file_index>  (1) 
24

>  <i_f3d_flags>  (1) 
0

>  <num_sample>  (1) 
50

>  <b_lp_Chiralities_Consistent>  (1) 
1

>  <r_epik_Charging_Adjusted_Penalty>  (1) 
1.0841651960075367

>  <r_epik_Ionization_Penalty>  (1) 
1.0861292701856073

>  <r_epik_Ionization_Penalty_Charging>  (1) 
0

>  <r_epik_Ionization_Penalty_Neutral>  (1) 
1.0861292701856073

>  <r_epik_State_Penalty>  (1) 
1.0841651960075367

>  <r_glide_ring_energy>  (1) 
0

>  <r_i_docking_score>  (1) 
-5.6411604621923415

>  <r_i_glide_ecoul>  (1) 
-2.0509683063565669

>  <r_i_glide_eff_state_penalty>  (1) 
1.0841651960075367

>  <r_i_glide_einternal>  (1) 
0.19146464291174192

>  <r_i_glide_emodel>  (1) 
-33.827978660488682

>  <r_i_glide_emodel_strain>  (1) 
0.083206912933322386

>  <r_i_glide_energy>  (1) 
-23.031340327283402

>  <r_i_glide_erotb>  (1) 
0

>  <r_i_glide_esite>  (1) 
0

>  <r_i_glide_evdw>  (1) 
-20.980372020926836

>  <r_i_glide_gscore>  (1) 
-6.7253256581998784

>  <r_i_glide_gscore_strain>  (1) 
0

>  <r_i_glide_hbond>  (1) 
-0.32000000000000001

>  <r_i_glide_ligand_efficiency>  (1) 
-0.56411604621923417

>  <r_i_glide_ligand_efficiency_ln>  (1) 
-1.7081045009738713

>  <r_i_glide_ligand_efficiency_sa>  (1) 
-1.2153511791783476

>  <r_i_glide_lipo>  (1) 
-2.0349531361967017

>  <r_i_glide_metal>  (1) 
-0

>  <r_i_glide_rewards>  (1) 
-3.0137086750033504

>  <r_lp_Energy>  (1) 
6.0807719999999996

>  <s_epik_cmdline>  (1) 
J2VwaWtfcHl0aG9uJywgJy1waHQnLCAnMS4wJywgJy1waCcsICc3LjQnLCAnLXRuJywgJzgnLCAnLW1hJywgJzUwMCcsICctaW1hZScsICc8aW5maWxlLm1hZT4nLCAnLW9tYWUnLCAnPG91dGZpbGUubWFlPic=

>  <s_epik_input>  (1) 
W0NIM11jMVtjSF1jKFtPSF0pYyhbQ0gzXSljKFtTSF0pW2NIXTE=

>  <s_glide_docking_method>  (1) 
confgen

>  <s_i_glide_gridfile>  (1) 
gpcr_5ht2c_6bqh_protein_autoprepared_prepared

>  <s_lp_Force_Field>  (1) 
S-OPLS

>  <s_lp_Variant>  (1) 
DiffSBDD_23-2

>  <s_m_source_file>  (1) 
generated_GPCR_5HT2C_ligand_DiffSBDD_2026-06-23_prepared.sdf

>  <GenAI_Model>  (1) 
DiffSBDD

>  <Protein>  (1) 
GPCR_5HT2C

$$$$
DiffSBDD_12
     RDKit          3D

  0  0  0  0  0  0  0  0  0  0999 V3000
M  V30 BEGIN CTAB
M  V30 COUNTS 78 80 0 0 1
M  V30 BEGIN ATOM
M  V30 1 C 37.525264 32.517609 58.756300 0 CFG=2
M  V30 2 C 43.232377 28.354892 67.153459 0
M  V30 3 C 37.940166 32.996541 60.174442 0 CFG=2
M  V30 4 O 41.101366 33.650465 64.208810 0
M  V30 5 N 40.295243 32.714274 62.280266 0
M  V30 6 C 39.905218 33.899526 61.586734 0
M  V30 7 C 40.857946 32.666781 63.516845 0
M  V30 8 C 42.753825 29.413552 66.148869 0 CFG=1
M  V30 9 C 40.012008 35.153292 62.094043 0
M  V30 10 F 45.543185 27.951841 69.003158 0
M  V30 11 C 38.763107 28.969002 55.416238 0
M  V30 12 C 38.536720 28.301871 57.915896 0
M  V30 13 C 38.906790 29.931296 54.378233 0
M  V30 14 F 45.314085 26.283451 67.638930 0
M  V30 15 S 43.322038 28.734551 64.558100 0
M  V30 16 C 39.414904 27.720131 51.294953 0
M  V30 17 C 39.051504 27.188565 53.746103 0
M  V30 18 C 40.579769 29.602812 67.517926 0
M  V30 19 C 38.285498 30.696128 57.164956 0
M  V30 20 C 41.203720 31.273093 64.034456 0
M  V30 21 C 44.784007 28.018321 65.343454 0
M  V30 22 N 38.045074 31.179434 58.449810 0
M  V30 23 C 36.897024 33.977917 60.743388 0
M  V30 24 C 40.843583 31.085578 65.519459 0
M  V30 25 C 38.518623 29.398660 56.846057 0
M  V30 26 O 39.819442 27.715212 58.034111 0
M  V30 27 C 44.722653 28.432982 66.825974 0 CFG=1
M  V30 28 C 39.355156 33.614118 60.203649 0
M  V30 29 C 39.191360 28.152304 52.730382 0
M  V30 30 C 44.991915 29.949422 66.940415 0
M  V30 31 C 39.126972 29.519133 53.048430 0
M  V30 32 C 37.786303 33.571927 57.658481 0
M  V30 33 C 38.844845 27.589638 55.081557 0
M  V30 34 C 41.222237 29.712738 66.127848 0 CFG=1
M  V30 35 C 45.632879 27.575070 67.727272 0
M  V30 36 C 43.662160 30.602650 66.525951 0
M  V30 37 H 36.445151 32.376785 58.790111 0
M  V30 38 H 42.804298 27.367239 66.973286 0
M  V30 39 H 43.043109 28.630952 68.192185 0
M  V30 40 H 37.931414 32.125861 60.831460 0
M  V30 41 H 40.148104 31.843806 61.792664 0
M  V30 42 H 40.399954 35.356530 63.069171 0
M  V30 43 H 39.697114 36.003538 61.506923 0
M  V30 44 H 37.785810 27.545253 57.687974 0
M  V30 45 H 38.268707 28.691528 58.896611 0
M  V30 46 H 38.856735 30.983566 54.596873 0
M  V30 47 H 40.351315 28.134960 50.920940 0
M  V30 48 H 38.604555 28.084627 50.662693 0
M  V30 49 H 39.455860 26.634317 51.199902 0
M  V30 50 H 39.103620 26.137833 53.503812 0
M  V30 51 H 40.978390 30.349379 68.204435 0
M  V30 52 H 40.753010 28.619917 67.951732 0
M  V30 53 H 39.499196 29.737260 67.459053 0
M  V30 54 H 38.261165 31.462211 56.415982 0
M  V30 55 H 40.709099 30.507678 63.434547 0
M  V30 56 H 42.273927 31.160407 63.876924 0
M  V30 57 H 44.738498 26.937171 65.232887 0
M  V30 58 H 45.679497 28.369659 64.841434 0
M  V30 59 H 36.845672 34.897950 60.161540 0
M  V30 60 H 37.133106 34.257038 61.767736 0
M  V30 61 H 35.899860 33.537037 60.752548 0
M  V30 62 H 41.287976 31.882662 66.117113 0
M  V30 63 H 39.765580 31.221202 65.617524 0
M  V30 64 H 39.791731 27.047160 58.701705 0
M  V30 65 H 40.045146 32.937741 59.710827 0
M  V30 66 H 39.387520 34.537722 59.634824 0
M  V30 67 H 45.243328 30.234144 67.962581 0
M  V30 68 H 45.813515 30.272735 66.301814 0
M  V30 69 H 39.245139 30.257775 52.269582 0
M  V30 70 H 37.439995 34.555679 57.966874 0
M  V30 71 H 37.245200 33.337516 56.742206 0
M  V30 72 H 38.844961 33.648652 57.413296 0
M  V30 73 H 38.738991 26.837268 55.845689 0
M  V30 74 H 40.745065 28.940584 65.521348 0
M  V30 75 H 46.679886 27.667516 67.438373 0
M  V30 76 H 43.795192 31.305499 65.702717 0
M  V30 77 H 43.246633 31.158067 67.367768 0
M  V30 78 H 38.038754 30.519282 59.211625 0
M  V30 END ATOM
M  V30 BEGIN BOND
M  V30 1 1 3 1
M  V30 2 1 6 5
M  V30 3 2 7 4
M  V30 4 1 7 5
M  V30 5 1 8 2
M  V30 6 2 9 6
M  V30 7 2 13 11
M  V30 8 1 8 15 CFG=3
M  V30 9 1 20 7
M  V30 10 1 21 15
M  V30 11 1 22 1
M  V30 12 1 22 19
M  V30 13 1 23 3
M  V30 14 1 24 20
M  V30 15 1 25 11
M  V30 16 1 25 12
M  V30 17 2 25 19
M  V30 18 1 26 12
M  V30 19 1 27 2
M  V30 20 1 27 21
M  V30 21 1 28 3
M  V30 22 1 28 6
M  V30 23 1 29 16
M  V30 24 1 29 17
M  V30 25 1 30 27
M  V30 26 1 31 13
M  V30 27 2 31 29
M  V30 28 1 32 1
M  V30 29 1 33 11
M  V30 30 2 33 17
M  V30 31 1 34 8
M  V30 32 1 34 18
M  V30 33 1 34 24
M  V30 34 1 35 10
M  V30 35 1 35 14
M  V30 36 1 27 35 CFG=1
M  V30 37 1 36 8
M  V30 38 1 36 30
M  V30 39 1 1 37 CFG=1
M  V30 40 1 38 2
M  V30 41 1 39 2
M  V30 42 1 3 40 CFG=1
M  V30 43 1 41 5
M  V30 44 1 42 9
M  V30 45 1 43 9
M  V30 46 1 44 12
M  V30 47 1 45 12
M  V30 48 1 46 13
M  V30 49 1 47 16
M  V30 50 1 48 16
M  V30 51 1 49 16
M  V30 52 1 50 17
M  V30 53 1 51 18
M  V30 54 1 52 18
M  V30 55 1 53 18
M  V30 56 1 54 19
M  V30 57 1 55 20
M  V30 58 1 56 20
M  V30 59 1 57 21
M  V30 60 1 58 21
M  V30 61 1 59 23
M  V30 62 1 60 23
M  V30 63 1 61 23
M  V30 64 1 62 24
M  V30 65 1 63 24
M  V30 66 1 64 26
M  V30 67 1 65 28
M  V30 68 1 66 28
M  V30 69 1 67 30
M  V30 70 1 68 30
M  V30 71 1 69 31
M  V30 72 1 70 32
M  V30 73 1 71 32
M  V30 74 1 72 32
M  V30 75 1 73 33
M  V30 76 1 34 74 CFG=3
M  V30 77 1 75 35
M  V30 78 1 76 36
M  V30 79 1 77 36
M  V30 80 1 78 22
M  V30 END BOND
M  V30 END CTAB
M  END
>  <i_epik_Tot_Q>  (1) 
0

>  <i_epik_Tot_abs_Q>  (1) 
0

>  <i_i_glide_confnum>  (1) 
1628

>  <i_i_glide_lignum>  (1) 
23

>  <i_i_glide_posenum>  (1) 
377

>  <i_i_glide_rotatable_bonds>  (1) 
15

>  <i_lp_mmshare_version>  (1) 
72125

>  <i_m_source_file_index>  (1) 
13

>  <i_f3d_flags>  (1) 
0

>  <num_sample>  (1) 
50

>  <b_lp_Chiralities_Consistent>  (1) 
1

>  <r_epik_Charging_Adjusted_Penalty>  (1) 
0

>  <r_epik_Ionization_Penalty>  (1) 
3.3667035854956668e-06

>  <r_epik_Ionization_Penalty_Charging>  (1) 
0

>  <r_epik_Ionization_Penalty_Neutral>  (1) 
3.3667035854956668e-06

>  <r_epik_State_Penalty>  (1) 
-0

>  <r_glide_ring_energy>  (1) 
0

>  <r_i_docking_score>  (1) 
-5.640447644024813

>  <r_i_glide_ecoul>  (1) 
-1.0121501301134692

>  <r_i_glide_eff_state_penalty>  (1) 
-0

>  <r_i_glide_einternal>  (1) 
11.023008464906193

>  <r_i_glide_emodel>  (1) 
-56.446917105118189

>  <r_i_glide_emodel_strain>  (1) 
0.1667871004202226

>  <r_i_glide_energy>  (1) 
-44.896727431946516

>  <r_i_glide_erotb>  (1) 
0.98535433330626676

>  <r_i_glide_esite>  (1) 
-0.074951513556384394

>  <r_i_glide_evdw>  (1) 
-43.884577301833048

>  <r_i_glide_gscore>  (1) 
-5.640447644024813

>  <r_i_glide_gscore_strain>  (1) 
0

>  <r_i_glide_hbond>  (1) 
0

>  <r_i_glide_ligand_efficiency>  (1) 
-0.15667910122291148

>  <r_i_glide_ligand_efficiency_ln>  (1) 
-1.2305932886413935

>  <r_i_glide_ligand_efficiency_sa>  (1) 
-0.51734299366025094

>  <r_i_glide_lipo>  (1) 
-3.1025087885155087

>  <r_i_glide_metal>  (1) 
-0

>  <r_i_glide_rewards>  (1) 
-1.1022902906505143

>  <r_lp_Energy>  (1) 
46.558340999999999

>  <r_lp_tautomer_probability>  (1) 
1

>  <s_epik_cmdline>  (1) 
J2VwaWtfcHl0aG9uJywgJy1waHQnLCAnMS4wJywgJy1waCcsICc3LjQnLCAnLXRuJywgJzgnLCAnLW1hJywgJzUwMCcsICctaW1hZScsICc8aW5maWxlLm1hZT4nLCAnLW9tYWUnLCAnPG91dGZpbGUubWFlPic=

>  <s_epik_input>  (1) 
W2NIXTFbY0hdYyhbQ0gzXSlbY0hdW2NIXWMxW0NAQEhdKFtDSDJdW09IXSkvW0NIXT1OL1tDQEhdKFtDSDNdKVtDQEhdKFtDSDNdKVtDSDJdQyg9W0NIMl0pW05IXUMoPU8pW0NIMl1bQ0gyXVtDQEhdKFtDSDNdKVtDQEBdMjNbQ0gyXVtDQF0oW0NIMl1TMikoW0NIXShGKUYpW0NIMl1bQ0gyXTM=

>  <s_glide_docking_method>  (1) 
confgen

>  <s_i_glide_gridfile>  (1) 
gpcr_5ht2c_6bqh_protein_autoprepared_prepared

>  <s_lp_Force_Field>  (1) 
S-OPLS

>  <s_lp_Variant>  (1) 
DiffSBDD_12-1

>  <s_m_source_file>  (1) 
generated_GPCR_5HT2C_ligand_DiffSBDD_2026-06-23_prepared.sdf

>  <GenAI_Model>  (1) 
DiffSBDD

>  <Protein>  (1) 
GPCR_5HT2C

$$$$
DiffSBDD_14
     RDKit          3D

  0  0  0  0  0  0  0  0  0  0999 V3000
M  V30 BEGIN CTAB
M  V30 COUNTS 59 60 0 0 1
M  V30 BEGIN ATOM
M  V30 1 Cl 40.962497 31.733986 62.629976 0
M  V30 2 C 38.849943 24.422229 56.824743 0
M  V30 3 N 37.736582 31.218536 60.312206 0
M  V30 4 C 37.989583 30.004679 59.767949 0
M  V30 5 C 38.314810 29.398546 53.449071 0
M  V30 6 C 39.546643 31.664055 49.914110 0
M  V30 7 C 41.728285 30.537893 50.338035 0
M  V30 8 C 38.590648 25.921793 56.958931 0 CFG=1
M  V30 9 C 38.658742 27.022906 51.816833 0
M  V30 10 C 39.837129 31.032126 61.527351 0
M  V30 11 C 40.521063 30.905597 50.783752 0
M  V30 12 C 38.656305 31.715780 61.174461 0
M  V30 13 O 41.000878 28.430900 57.770648 0
M  V30 14 N 39.844016 26.631122 57.313570 0 CHG=1
M  V30 15 C 40.043393 30.579871 52.186621 0
M  V30 16 C 37.233284 28.321769 53.357720 0
M  V30 17 C 40.082886 29.771665 60.966069 0
M  V30 18 C 39.686634 27.962074 57.932194 0 CFG=1
M  V30 19 C 39.142853 29.245135 60.066041 0
M  V30 20 C 39.357650 27.882847 59.432902 0
M  V30 21 C 38.698107 26.458336 54.372924 0
M  V30 22 C 37.872709 26.946247 53.148761 0 CFG=2
M  V30 23 C 39.666119 28.153541 51.770629 0
M  V30 24 N 39.088044 29.451847 52.184477 0 CFG=1 CHG=1
M  V30 25 C 37.905059 26.508456 55.704918 0
M  V30 26 H 37.942425 23.902557 56.519316 0
M  V30 27 H 39.621054 24.224134 56.083348 0
M  V30 28 H 39.175180 23.982831 57.767204 0
M  V30 29 H 37.246449 29.623580 59.082426 0
M  V30 30 H 37.843381 30.360792 53.651680 0
M  V30 31 H 38.985648 29.215667 54.289347 0
M  V30 32 H 38.975917 32.417190 50.455211 0
M  V30 33 H 40.026656 32.136697 49.057213 0
M  V30 34 H 38.847043 30.938977 49.549348 0
M  V30 35 H 42.045816 30.778538 49.334649 0
M  V30 36 H 42.412559 29.993174 50.967723 0
M  V30 37 H 37.890749 26.033039 57.787686 0
M  V30 38 H 39.245113 26.137823 51.635708 0
M  V30 39 H 37.985254 27.123408 50.968930 0
M  V30 40 H 38.442183 32.688146 61.594220 0
M  V30 41 H 41.194504 29.030430 58.477942 0
M  V30 42 H 40.399101 26.744051 56.478391 0
M  V30 43 H 39.576774 31.477401 52.592872 0
M  V30 44 H 40.845072 30.340130 52.870707 0
M  V30 45 H 36.562403 28.537518 52.524770 0
M  V30 46 H 36.603643 28.335665 54.239957 0
M  V30 47 H 40.977214 29.220164 61.218919 0
M  V30 48 H 38.988217 28.594644 57.383479 0
M  V30 49 H 38.445006 27.314645 59.587276 0
M  V30 50 H 40.138452 27.342614 59.970964 0
M  V30 51 H 39.617205 27.031981 54.476173 0
M  V30 52 H 39.016897 25.437822 54.172059 0
M  V30 53 H 37.071971 26.218963 53.015872 0
M  V30 54 H 40.097719 28.219161 50.771296 0
M  V30 55 H 40.445089 27.842962 52.435239 0
M  V30 56 H 36.951347 25.997465 55.559887 0
M  V30 57 H 37.644926 27.538867 55.932977 0
M  V30 58 H 38.417566 29.674189 51.464229 0
M  V30 59 H 40.375146 26.063086 57.957319 0
M  V30 END ATOM
M  V30 BEGIN BOND
M  V30 1 1 4 3
M  V30 2 1 8 2
M  V30 3 1 10 1
M  V30 4 1 11 6
M  V30 5 2 11 7
M  V30 6 2 12 3
M  V30 7 1 12 10
M  V30 8 1 14 8
M  V30 9 1 15 11
M  V30 10 1 16 5
M  V30 11 2 17 10
M  V30 12 1 18 13
M  V30 13 1 18 14
M  V30 14 2 19 4
M  V30 15 1 19 17
M  V30 16 1 20 18
M  V30 17 1 20 19
M  V30 18 1 22 9
M  V30 19 1 22 16
M  V30 20 1 22 21
M  V30 21 1 23 9
M  V30 22 1 24 5
M  V30 23 1 24 15
M  V30 24 1 24 23
M  V30 25 1 25 8
M  V30 26 1 25 21
M  V30 27 1 26 2
M  V30 28 1 27 2
M  V30 29 1 28 2
M  V30 30 1 29 4
M  V30 31 1 30 5
M  V30 32 1 31 5
M  V30 33 1 32 6
M  V30 34 1 33 6
M  V30 35 1 34 6
M  V30 36 1 35 7
M  V30 37 1 36 7
M  V30 38 1 8 37 CFG=1
M  V30 39 1 38 9
M  V30 40 1 39 9
M  V30 41 1 40 12
M  V30 42 1 41 13
M  V30 43 1 42 14
M  V30 44 1 43 15
M  V30 45 1 44 15
M  V30 46 1 45 16
M  V30 47 1 46 16
M  V30 48 1 47 17
M  V30 49 1 18 48 CFG=3
M  V30 50 1 49 20
M  V30 51 1 50 20
M  V30 52 1 51 21
M  V30 53 1 52 21
M  V30 54 1 22 53 CFG=3
M  V30 55 1 54 23
M  V30 56 1 55 23
M  V30 57 1 56 25
M  V30 58 1 57 25
M  V30 59 1 24 58 CFG=3
M  V30 60 1 59 14
M  V30 END BOND
M  V30 END CTAB
M  END
>  <i_epik_Tot_Q>  (1) 
2

>  <i_epik_Tot_abs_Q>  (1) 
2

>  <i_i_glide_confnum>  (1) 
534

>  <i_i_glide_lignum>  (1) 
28

>  <i_i_glide_posenum>  (1) 
266

>  <i_i_glide_rotatable_bonds>  (1) 
10

>  <i_lp_mmshare_version>  (1) 
72125

>  <i_m_source_file_index>  (1) 
15

>  <i_f3d_flags>  (1) 
0

>  <num_sample>  (1) 
50

>  <b_lp_Chiralities_Consistent>  (1) 
1

>  <r_epik_Charging_Adjusted_Penalty>  (1) 
0.35265002497065456

>  <r_epik_Ionization_Penalty>  (1) 
0.35265410833524857

>  <r_epik_Ionization_Penalty_Charging>  (1) 
0.072075358936459305

>  <r_epik_Ionization_Penalty_Neutral>  (1) 
0.2805787493987893

>  <r_epik_State_Penalty>  (1) 
0.28057466603419523

>  <r_glide_ring_energy>  (1) 
0

>  <r_i_docking_score>  (1) 
-5.6388079705392959

>  <r_i_glide_ecoul>  (1) 
0.33664435746718424

>  <r_i_glide_eff_state_penalty>  (1) 
0.28057466603419523

>  <r_i_glide_einternal>  (1) 
2.5041176009666497

>  <r_i_glide_emodel>  (1) 
-43.073562628502145

>  <r_i_glide_emodel_strain>  (1) 
0.37038399942945333

>  <r_i_glide_energy>  (1) 
-27.928082409044542

>  <r_i_glide_erotb>  (1) 
1.1382379647718497

>  <r_i_glide_esite>  (1) 
0

>  <r_i_glide_evdw>  (1) 
-28.264726766511725

>  <r_i_glide_gscore>  (1) 
-5.9193826365734914

>  <r_i_glide_gscore_strain>  (1) 
0

>  <r_i_glide_hbond>  (1) 
0

>  <r_i_glide_ligand_efficiency>  (1) 
-0.22555231882157184

>  <r_i_glide_ligand_efficiency_ln>  (1) 
-1.3365664704567251

>  <r_i_glide_ligand_efficiency_sa>  (1) 
-0.65951898112931984

>  <r_i_glide_lipo>  (1) 
-3.9717799445815265

>  <r_i_glide_metal>  (1) 
-0

>  <r_i_glide_rewards>  (1) 
-1.723100972058305

>  <r_lp_Energy>  (1) 
34.603625000000001

>  <s_epik_Chemistry_Notes>  (1) 
This compound contains an acetal/aminal-like group ( X-CH(R)-Y where X, Y are N, S, or O) that may be acid/base labile, releasing an aldehyde.

>  <s_epik_cmdline>  (1) 
J2VwaWtfcHl0aG9uJywgJy1waHQnLCAnMS4wJywgJy1waCcsICc3LjQnLCAnLXRuJywgJzgnLCAnLW1hJywgJzUwMCcsICctaW1hZScsICc8aW5maWxlLm1hZT4nLCAnLW9tYWUnLCAnPG91dGZpbGUubWFlPic=

>  <s_epik_input>  (1) 
Q2xjMVtjSF1uW2NIXWMoW2NIXTEpW0NIMl1bQ0BASF0oW09IXSlbTkhdW0NASF0oW0NIM10pW0NIMl1bQ0gyXVtDSF0yW0NIMl1bQ0gyXU4oW0NIMl1bQ0gyXTIpW0NIMl1DKFtDSDNdKT1bQ0gyXQ==

>  <s_glide_docking_method>  (1) 
confgen

>  <s_i_glide_gridfile>  (1) 
gpcr_5ht2c_6bqh_protein_autoprepared_prepared

>  <s_lp_Force_Field>  (1) 
S-OPLS

>  <s_lp_Variant>  (1) 
DiffSBDD_14-2

>  <s_m_source_file>  (1) 
generated_GPCR_5HT2C_ligand_DiffSBDD_2026-06-23_prepared.sdf

>  <GenAI_Model>  (1) 
DiffSBDD

>  <Protein>  (1) 
GPCR_5HT2C

$$$$
DiffSBDD_40
     RDKit          3D

  0  0  0  0  0  0  0  0  0  0999 V3000
M  V30 BEGIN CTAB
M  V30 COUNTS 59 62 0 0 1
M  V30 BEGIN ATOM
M  V30 1 C 39.955874 26.874486 56.776324 0 CFG=1
M  V30 2 C 38.054062 28.974085 54.812324 0 CFG=2
M  V30 3 C 40.059177 28.328675 56.305446 0 CFG=1
M  V30 4 C 38.804932 24.536863 57.015561 0
M  V30 5 C 38.615074 33.771328 61.021149 0
M  V30 6 O 41.645177 28.137702 58.676193 0
M  V30 7 C 38.810322 28.767295 53.484541 0
M  V30 8 F 37.645139 31.853481 56.835846 0
M  V30 9 C 38.887789 36.509713 61.785887 0
M  V30 10 F 38.445325 33.155679 55.367809 0
M  V30 11 C 36.925511 30.011074 54.691890 0
M  V30 12 N 39.678914 35.478302 62.455848 0
M  V30 13 O 39.466254 30.176531 60.578536 0
M  V30 14 C 38.946265 29.327389 56.000450 0 CFG=1
M  V30 15 C 38.017878 25.443946 57.912323 0
M  V30 16 C 40.465950 31.867382 61.970799 0
M  V30 17 S 39.645141 30.963440 55.695959 0
M  V30 18 C 38.556303 29.822769 59.545795 0
M  V30 19 C 39.645201 37.836639 61.867349 0
M  V30 20 P 40.276287 28.078469 58.098653 0 CFG=2
M  V30 21 C 37.489815 36.645218 62.414567 0
M  V30 22 C 40.518798 33.194668 62.438885 0
M  V30 23 C 38.140337 31.882946 55.609802 0
M  V30 24 O 37.323446 31.372509 54.567758 0
M  V30 25 C 38.706128 26.009434 56.684270 0
M  V30 26 C 39.494751 31.484889 61.027211 0
M  V30 27 C 38.563451 32.445120 60.553244 0
M  V30 28 C 39.599765 34.154611 61.968265 0
M  V30 29 C 38.743831 28.361859 59.118350 0
M  V30 30 H 40.845253 26.294269 56.543419 0
M  V30 31 H 37.552537 28.035439 55.022990 0
M  V30 32 H 40.976958 28.551054 55.767842 0
M  V30 33 H 38.242722 23.849877 56.386845 0
M  V30 34 H 39.762943 24.162738 57.368821 0
M  V30 35 H 37.897960 34.485896 60.653270 0
M  V30 36 H 39.321993 29.672298 53.157215 0
M  V30 37 H 39.549293 27.971296 53.572745 0
M  V30 38 H 38.125898 28.475012 52.687417 0
M  V30 39 H 38.797879 36.303356 60.720032 0
M  V30 40 H 36.204746 29.920744 55.503848 0
M  V30 41 H 36.445141 29.737754 53.768155 0
M  V30 42 H 40.454274 35.758178 63.040322 0
M  V30 43 H 38.278138 29.406831 56.848177 0
M  V30 44 H 38.445083 25.630759 58.894273 0
M  V30 45 H 36.932903 25.362257 57.882270 0
M  V30 46 H 41.175148 31.140027 62.337131 0
M  V30 47 H 37.533374 29.950719 59.902030 0
M  V30 48 H 38.703870 30.482385 58.692662 0
M  V30 49 H 39.099711 38.638505 61.368380 0
M  V30 50 H 39.829920 38.137648 62.899703 0
M  V30 51 H 40.608879 37.737764 61.367766 0
M  V30 52 H 36.927407 37.455409 61.950325 0
M  V30 53 H 36.899145 35.737890 62.298077 0
M  V30 54 H 37.556431 36.860143 63.481590 0
M  V30 55 H 41.269115 33.477593 63.161820 0
M  V30 56 H 38.081432 26.181375 55.815657 0
M  V30 57 H 37.809411 32.169545 59.832931 0
M  V30 58 H 38.788998 27.731187 60.004679 0
M  V30 59 H 37.874281 28.044188 58.547247 0
M  V30 END ATOM
M  V30 BEGIN BOND
M  V30 1 1 3 1
M  V30 2 1 7 2
M  V30 3 1 11 2
M  V30 4 1 12 9
M  V30 5 1 14 2
M  V30 6 1 14 3
M  V30 7 1 15 4
M  V30 8 1 17 14
M  V30 9 1 18 13
M  V30 10 1 19 9
M  V30 11 1 20 1
M  V30 12 1 20 3
M  V30 13 2 20 6
M  V30 14 1 21 9
M  V30 15 1 22 16
M  V30 16 1 23 8
M  V30 17 1 23 10
M  V30 18 1 23 17
M  V30 19 1 24 11
M  V30 20 1 24 23
M  V30 21 1 25 1
M  V30 22 1 25 4
M  V30 23 1 25 15
M  V30 24 1 26 13
M  V30 25 2 26 16
M  V30 26 2 27 5
M  V30 27 1 27 26
M  V30 28 1 28 5
M  V30 29 1 28 12
M  V30 30 2 28 22
M  V30 31 1 29 18
M  V30 32 1 20 29 CFG=1
M  V30 33 1 1 30 CFG=3
M  V30 34 1 2 31 CFG=1
M  V30 35 1 3 32 CFG=3
M  V30 36 1 33 4
M  V30 37 1 34 4
M  V30 38 1 35 5
M  V30 39 1 36 7
M  V30 40 1 37 7
M  V30 41 1 38 7
M  V30 42 1 39 9
M  V30 43 1 40 11
M  V30 44 1 41 11
M  V30 45 1 42 12
M  V30 46 1 14 43 CFG=1
M  V30 47 1 44 15
M  V30 48 1 45 15
M  V30 49 1 46 16
M  V30 50 1 47 18
M  V30 51 1 48 18
M  V30 52 1 49 19
M  V30 53 1 50 19
M  V30 54 1 51 19
M  V30 55 1 52 21
M  V30 56 1 53 21
M  V30 57 1 54 21
M  V30 58 1 55 22
M  V30 59 1 56 25
M  V30 60 1 57 27
M  V30 61 1 58 29
M  V30 62 1 59 29
M  V30 END BOND
M  V30 END CTAB
M  END
>  <i_epik_Tot_Q>  (1) 
0

>  <i_epik_Tot_abs_Q>  (1) 
0

>  <i_i_glide_confnum>  (1) 
402

>  <i_i_glide_lignum>  (1) 
83

>  <i_i_glide_posenum>  (1) 
328

>  <i_i_glide_rotatable_bonds>  (1) 
8

>  <i_lp_mmshare_version>  (1) 
72125

>  <i_m_source_file_index>  (1) 
41

>  <i_f3d_flags>  (1) 
0

>  <num_sample>  (1) 
50

>  <b_lp_Chiralities_Consistent>  (1) 
1

>  <r_epik_Charging_Adjusted_Penalty>  (1) 
0.10621715127672696

>  <r_epik_Ionization_Penalty>  (1) 
0.10621715241272391

>  <r_epik_Ionization_Penalty_Charging>  (1) 
0

>  <r_epik_Ionization_Penalty_Neutral>  (1) 
0.10621715241272391

>  <r_epik_State_Penalty>  (1) 
0.10621715127672696

>  <r_glide_ring_energy>  (1) 
0

>  <r_i_docking_score>  (1) 
-5.6379544652718394

>  <r_i_glide_ecoul>  (1) 
0.76939958118190099

>  <r_i_glide_eff_state_penalty>  (1) 
0.10621715127672696

>  <r_i_glide_einternal>  (1) 
4.2651078360503902

>  <r_i_glide_emodel>  (1) 
-45.817520658215926

>  <r_i_glide_emodel_strain>  (1) 
0.097562974472317876

>  <r_i_glide_energy>  (1) 
-35.743494993867543

>  <r_i_glide_erotb>  (1) 
0.70566581847089904

>  <r_i_glide_esite>  (1) 
-0.10349641807535609

>  <r_i_glide_evdw>  (1) 
-36.512894575049444

>  <r_i_glide_gscore>  (1) 
-5.7441716165485666

>  <r_i_glide_gscore_strain>  (1) 
0

>  <r_i_glide_hbond>  (1) 
0

>  <r_i_glide_ligand_efficiency>  (1) 
-0.19441222294040825

>  <r_i_glide_ligand_efficiency_ln>  (1) 
-1.2909486063574722

>  <r_i_glide_ligand_efficiency_sa>  (1) 
-0.59729594365880445

>  <r_i_glide_lipo>  (1) 
-3.8134745398323302

>  <r_i_glide_metal>  (1) 
-0

>  <r_i_glide_rewards>  (1) 
-0.82263168553659249

>  <r_lp_Energy>  (1) 
16.736861999999999

>  <s_epik_cmdline>  (1) 
J2VwaWtfcHl0aG9uJywgJy1waHQnLCAnMS4wJywgJy1waCcsICc3LjQnLCAnLXRuJywgJzgnLCAnLW1hJywgJzUwMCcsICctaW1hZScsICc8aW5maWxlLm1hZT4nLCAnLW9tYWUnLCAnPG91dGZpbGUubWFlPic=

>  <s_epik_input>  (1) 
RkMxKEYpU1tDQEBIXShbQ0BIXShbQ0gzXSlbQ0gyXU8xKVtDQEBIXTJbQ0BIXShbQ0hdM1tDSDJdW0NIMl0zKVAyKD1PKVtDSDJdW0NIMl1PYzRbY0hdW2NIXWMoW2NIXVtjSF00KVtOSF1bQ0hdKFtDSDNdKVtDSDNd

>  <s_glide_docking_method>  (1) 
confgen

>  <s_i_glide_gridfile>  (1) 
gpcr_5ht2c_6bqh_protein_autoprepared_prepared

>  <s_lp_Force_Field>  (1) 
S-OPLS

>  <s_lp_Variant>  (1) 
DiffSBDD_40-1

>  <s_m_source_file>  (1) 
generated_GPCR_5HT2C_ligand_DiffSBDD_2026-06-23_prepared.sdf

>  <GenAI_Model>  (1) 
DiffSBDD

>  <Protein>  (1) 
GPCR_5HT2C

$$$$
DiffSBDD_19
     RDKit          3D

  0  0  0  0  0  0  0  0  0  0999 V3000
M  V30 BEGIN CTAB
M  V30 COUNTS 69 71 0 0 1
M  V30 BEGIN ATOM
M  V30 1 O 39.740888 26.989419 56.127235 0
M  V30 2 C 39.169038 29.944207 53.668013 0
M  V30 3 C 37.247851 36.465518 60.519676 0
M  V30 4 C 38.911646 28.062001 52.149669 0
M  V30 5 C 38.176348 29.382754 54.513192 0
M  V30 6 C 39.848007 31.248165 54.026076 0
M  V30 7 C 41.724336 27.704425 58.110803 0
M  V30 8 C 36.677490 30.933893 60.342827 0
M  V30 9 C 37.479327 35.750984 61.849709 0 CFG=2
M  V30 10 N 38.835548 35.179819 62.056981 0
M  V30 11 F 40.285024 27.909313 50.222205 0
M  V30 12 C 37.581970 28.158403 54.170973 0
M  V30 13 F 39.645215 26.137575 51.328954 0
M  V30 14 C 39.950282 36.113524 61.963821 0
M  V30 15 C 36.599916 32.122168 59.366780 0 CFG=2
M  V30 16 C 38.933089 31.915119 58.428433 0
M  V30 17 C 39.167802 28.983972 57.413299 0
M  V30 18 O 40.431269 27.154599 58.345099 0
M  V30 19 O 37.646650 37.588039 60.225708 0
M  V30 20 C 39.527510 29.281016 52.482813 0
M  V30 21 C 39.432976 27.463490 57.417751 0 CFG=2
M  V30 22 C 37.730006 30.101348 55.765220 0
M  V30 23 N 36.213243 34.403850 60.274415 0
M  V30 24 C 39.292755 27.338640 50.902272 0
M  V30 25 C 37.946476 27.504001 52.996305 0
M  V30 26 C 37.458494 31.672810 58.186824 0 CFG=1
M  V30 27 O 39.746024 37.089100 62.964860 0
M  V30 28 C 36.867801 29.671923 59.466360 0
M  V30 29 C 37.070773 30.177234 58.033806 0 CFG=2
M  V30 30 N 36.533560 35.643683 59.757575 0
M  V30 31 N 37.801156 29.369148 57.038743 0
M  V30 32 C 36.430480 34.622161 61.708464 0
M  V30 33 N 37.131439 33.386447 59.897154 0 CHG=1
M  V30 34 H 40.342396 27.598817 55.729399 0
M  V30 35 H 40.744400 31.338326 53.414415 0
M  V30 36 H 39.194597 32.098404 53.833159 0
M  V30 37 H 40.183541 31.273490 55.062131 0
M  V30 38 H 42.413627 27.337513 58.870984 0
M  V30 39 H 42.117996 27.406252 57.139174 0
M  V30 40 H 41.724690 28.792443 58.174320 0
M  V30 41 H 37.529893 31.032109 61.017301 0
M  V30 42 H 35.783516 30.870958 60.962990 0
M  V30 43 H 37.223282 36.409506 62.681073 0
M  V30 44 H 38.894309 34.762441 62.975204 0
M  V30 45 H 36.845244 27.720450 54.811663 0
M  V30 46 H 40.065324 36.538033 60.969624 0
M  V30 47 H 40.869279 35.570075 62.184521 0
M  V30 48 H 35.573017 32.266953 59.025053 0
M  V30 49 H 39.245140 31.400753 59.335415 0
M  V30 50 H 39.514565 31.558492 57.580482 0
M  V30 51 H 39.192232 32.969634 58.520584 0
M  V30 52 H 39.908685 29.466569 56.773623 0
M  V30 53 H 39.376665 29.322019 58.426954 0
M  V30 54 H 40.278978 29.704985 51.831808 0
M  V30 55 H 38.542755 26.922391 57.742266 0
M  V30 56 H 36.687081 30.353078 55.564526 0
M  V30 57 H 38.225114 31.061785 55.842707 0
M  V30 58 H 38.445158 27.195262 50.244226 0
M  V30 59 H 37.482670 26.563908 52.739835 0
M  V30 60 H 37.245159 32.276473 57.307111 0
M  V30 61 H 40.572624 37.288555 63.385593 0
M  V30 62 H 37.701765 29.066529 59.817488 0
M  V30 63 H 35.970918 29.052574 59.494843 0
M  V30 64 H 36.044132 30.137522 57.682245 0
M  V30 65 H 36.230629 35.881346 58.820248 0
M  V30 66 H 36.714223 33.679254 62.167843 0
M  V30 67 H 35.495917 34.930704 62.177616 0
M  V30 68 H 37.681254 33.803932 59.160820 0
M  V30 69 H 37.730747 33.224876 60.694235 0
M  V30 END ATOM
M  V30 BEGIN BOND
M  V30 1 2 5 2
M  V30 2 1 6 2
M  V30 3 1 9 3
M  V30 4 1 10 9
M  V30 5 1 12 5
M  V30 6 1 14 10
M  V30 7 1 15 8
M  V30 8 1 18 7
M  V30 9 2 19 3
M  V30 10 1 20 2
M  V30 11 2 20 4
M  V30 12 1 21 1
M  V30 13 1 21 17
M  V30 14 1 21 18
M  V30 15 1 22 5
M  V30 16 1 24 4
M  V30 17 1 24 11
M  V30 18 1 24 13
M  V30 19 1 25 4
M  V30 20 2 25 12
M  V30 21 1 26 15
M  V30 22 1 26 16
M  V30 23 1 27 14
M  V30 24 1 28 8
M  V30 25 1 29 26
M  V30 26 1 29 28
M  V30 27 1 30 3
M  V30 28 1 30 23
M  V30 29 1 31 17
M  V30 30 1 31 22
M  V30 31 1 31 29
M  V30 32 1 32 9
M  V30 33 1 32 23
M  V30 34 1 33 15
M  V30 35 1 33 23
M  V30 36 1 34 1
M  V30 37 1 35 6
M  V30 38 1 36 6
M  V30 39 1 37 6
M  V30 40 1 38 7
M  V30 41 1 39 7
M  V30 42 1 40 7
M  V30 43 1 41 8
M  V30 44 1 42 8
M  V30 45 1 9 43 CFG=1
M  V30 46 1 44 10
M  V30 47 1 45 12
M  V30 48 1 46 14
M  V30 49 1 47 14
M  V30 50 1 15 48 CFG=3
M  V30 51 1 49 16
M  V30 52 1 50 16
M  V30 53 1 51 16
M  V30 54 1 52 17
M  V30 55 1 53 17
M  V30 56 1 54 20
M  V30 57 1 21 55 CFG=1
M  V30 58 1 56 22
M  V30 59 1 57 22
M  V30 60 1 58 24
M  V30 61 1 59 25
M  V30 62 1 26 60 CFG=3
M  V30 63 1 61 27
M  V30 64 1 62 28
M  V30 65 1 63 28
M  V30 66 1 29 64 CFG=3
M  V30 67 1 65 30
M  V30 68 1 66 32
M  V30 69 1 67 32
M  V30 70 1 68 33
M  V30 71 1 69 33
M  V30 END BOND
M  V30 END CTAB
M  END
>  <i_epik_Tot_Q>  (1) 
1

>  <i_epik_Tot_abs_Q>  (1) 
1

>  <i_i_glide_confnum>  (1) 
1520

>  <i_i_glide_lignum>  (1) 
46

>  <i_i_glide_posenum>  (1) 
37

>  <i_i_glide_rotatable_bonds>  (1) 
13

>  <i_lp_mmshare_version>  (1) 
72125

>  <i_m_source_file_index>  (1) 
20

>  <i_f3d_flags>  (1) 
0

>  <num_sample>  (1) 
50

>  <b_lp_Chiralities_Consistent>  (1) 
1

>  <r_epik_Charging_Adjusted_Penalty>  (1) 
1.2715343408434996

>  <r_epik_Ionization_Penalty>  (1) 
0.95026790690721108

>  <r_epik_Ionization_Penalty_Charging>  (1) 
0.030575006456493324

>  <r_epik_Ionization_Penalty_Neutral>  (1) 
0.91969290045071772

>  <r_epik_State_Penalty>  (1) 
1.2409593343870062

>  <r_glide_ring_energy>  (1) 
0

>  <r_i_docking_score>  (1) 
-5.6220895590978861

>  <r_i_glide_ecoul>  (1) 
-7.1777562796587908

>  <r_i_glide_eff_state_penalty>  (1) 
1.2409593343870062

>  <r_i_glide_einternal>  (1) 
48.525809267916941

>  <r_i_glide_emodel>  (1) 
-46.258303733618064

>  <r_i_glide_emodel_strain>  (1) 
1.661494861921696

>  <r_i_glide_energy>  (1) 
-42.568713461627411

>  <r_i_glide_erotb>  (1) 
0.81494899861877068

>  <r_i_glide_esite>  (1) 
-0.020687167162289914

>  <r_i_glide_evdw>  (1) 
-35.390957181968624

>  <r_i_glide_gscore>  (1) 
-6.8630488934848923

>  <r_i_glide_gscore_strain>  (1) 
0

>  <r_i_glide_hbond>  (1) 
-0.21012702978079095

>  <r_i_glide_ligand_efficiency>  (1) 
-0.17036635027569352

>  <r_i_glide_ligand_efficiency_ln>  (1) 
-1.2503236083215463

>  <r_i_glide_ligand_efficiency_sa>  (1) 
-0.54645591718538089

>  <r_i_glide_lipo>  (1) 
-2.7608444561845631

>  <r_i_glide_metal>  (1) 
-0

>  <r_i_glide_rewards>  (1) 
-1.8401279379287696

>  <r_lp_Energy>  (1) 
47.540732999999996

>  <s_epik_Chemistry_Notes>  (1) 
This compound contains an acetal/aminal-like group ( X-CH(R)-Y where X, Y are N, S, or O) that may be acid/base labile, releasing an aldehyde.

>  <s_epik_cmdline>  (1) 
J2VwaWtfcHl0aG9uJywgJy1waHQnLCAnMS4wJywgJy1waCcsICc3LjQnLCAnLXRuJywgJzgnLCAnLW1hJywgJzUwMCcsICctaW1hZScsICc8aW5maWxlLm1hZT4nLCAnLW9tYWUnLCAnPG91dGZpbGUubWFlPic=

>  <s_epik_input>  (1) 
RltDSF0oRiljKFtjSF0xKVtjSF1bY0hdYyhjMVtDSDNdKVtDSDJdTihbQ0gyXVtDQEBIXShbT0hdKU9bQ0gzXSlbQ0BIXShbQ0BASF0yW0NIM10pW0NIMl1bQ0gyXVtDQEhdMltOSF1OKFtOSF0zKVtDSDJdW0NASF0oQzM9TylbTkhdW0NIMl1bT0hd

>  <s_glide_docking_method>  (1) 
confgen

>  <s_i_glide_gridfile>  (1) 
gpcr_5ht2c_6bqh_protein_autoprepared_prepared

>  <s_lp_Force_Field>  (1) 
S-OPLS

>  <s_lp_Variant>  (1) 
DiffSBDD_19-5

>  <s_m_source_file>  (1) 
generated_GPCR_5HT2C_ligand_DiffSBDD_2026-06-23_prepared.sdf

>  <GenAI_Model>  (1) 
DiffSBDD

>  <Protein>  (1) 
GPCR_5HT2C

$$$$
DiffSBDD_48
     RDKit          3D

  0  0  0  0  0  0  0  0  0  0999 V3000
M  V30 BEGIN CTAB
M  V30 COUNTS 78 78 0 0 1
M  V30 BEGIN ATOM
M  V30 1 O 38.808470 32.263610 60.086262 0
M  V30 2 C 41.056493 32.755417 66.160563 0
M  V30 3 C 41.437516 34.193146 66.540422 0
M  V30 4 O 39.645135 29.749578 54.696112 0
M  V30 5 C 41.472861 30.003447 62.787030 0
M  V30 6 C 37.794725 32.852573 60.519407 0
M  V30 7 C 40.529858 27.908743 56.746064 0
M  V30 8 C 37.510161 34.244523 59.950566 0
M  V30 9 C 42.247603 31.330206 62.931981 0
M  V30 10 C 41.747591 35.145148 65.370522 0
M  V30 11 N 41.546929 32.295863 63.780524 0
M  V30 12 C 37.703372 36.773154 60.244185 0
M  V30 13 C 40.426604 30.064010 61.660818 0
M  V30 14 C 39.245111 28.428194 54.631027 0
M  V30 15 C 39.129705 30.698337 53.768054 0
M  V30 16 C 37.897446 35.398233 60.921452 0 CFG=2
M  V30 17 C 39.343328 35.264743 61.471124 0
M  V30 18 C 38.350634 28.083624 53.442820 0
M  V30 19 O 39.593346 26.641454 58.567332 0
M  V30 20 C 41.089009 34.787485 64.021960 0 CFG=2
M  V30 21 C 39.733901 36.297815 62.546110 0
M  V30 22 O 37.000690 32.412852 61.382109 0 CHG=-1
M  V30 23 C 39.861734 28.695542 61.244368 0
M  V30 24 O 36.442087 36.894639 59.640019 0
M  V30 25 C 39.765294 27.750534 58.060276 0
M  V30 26 C 38.752492 28.814204 60.178147 0
M  V30 27 C 41.850566 33.648582 63.307178 0
M  V30 28 C 41.996839 32.082476 65.159568 0
M  V30 29 C 39.642531 27.549298 55.567942 0
M  V30 30 N 41.047043 35.999990 63.165816 0 CHG=1
M  V30 31 C 39.219579 29.033310 58.720454 0 CFG=2
M  V30 32 C 38.062091 29.612287 57.884055 0
M  V30 33 H 40.045134 32.719283 65.767751 0
M  V30 34 H 41.033039 32.161765 67.075188 0
M  V30 35 H 40.616817 34.609649 67.125490 0
M  V30 36 H 42.295406 34.173841 67.213433 0
M  V30 37 H 42.186024 29.208391 62.567761 0
M  V30 38 H 40.998208 29.713293 63.725212 0
M  V30 39 H 40.870191 28.937713 56.653941 0
M  V30 40 H 41.410605 27.266543 56.751711 0
M  V30 41 H 36.448299 34.284027 59.705849 0
M  V30 42 H 38.045037 34.343916 59.006250 0
M  V30 43 H 42.411043 31.739377 61.934610 0
M  V30 44 H 43.245115 31.137114 63.330402 0
M  V30 45 H 42.828188 35.213130 65.234018 0
M  V30 46 H 41.438278 36.142153 65.683179 0
M  V30 47 H 38.445126 36.937744 59.469603 0
M  V30 48 H 37.806510 37.585331 60.962888 0
M  V30 49 H 39.609920 30.705587 61.994502 0
M  V30 50 H 40.847699 30.547734 60.780035 0
M  V30 51 H 39.526535 31.682252 54.019546 0
M  V30 52 H 39.437665 30.480829 52.744895 0
M  V30 53 H 38.043278 30.772499 53.820612 0
M  V30 54 H 37.210913 35.342863 61.768251 0
M  V30 55 H 39.450487 34.279192 61.918149 0
M  V30 56 H 40.056116 35.298980 60.645935 0
M  V30 57 H 38.121378 27.017745 53.442619 0
M  V30 58 H 37.397807 28.611157 53.491015 0
M  V30 59 H 38.840132 28.302962 52.493773 0
M  V30 60 H 40.060857 34.469100 64.167762 0
M  V30 61 H 39.799446 37.291507 62.102836 0
M  V30 62 H 38.970447 36.352147 63.324025 0
M  V30 63 H 40.659808 28.039593 60.894797 0
M  V30 64 H 39.440094 28.215468 62.128605 0
M  V30 65 H 36.338097 36.184653 59.020063 0
M  V30 66 H 38.139442 27.916937 60.208546 0
M  V30 67 H 38.082774 29.624542 60.471585 0
M  V30 68 H 41.596862 33.681539 62.246946 0
M  V30 69 H 42.913948 33.823040 63.367798 0
M  V30 70 H 41.970412 31.011866 65.368729 0
M  V30 71 H 43.031111 32.398085 65.306749 0
M  V30 72 H 39.322919 26.519071 55.502539 0
M  V30 73 H 41.749992 35.929091 62.445343 0
M  V30 74 H 40.024181 29.766962 58.725905 0
M  V30 75 H 38.392028 29.918626 56.893849 0
M  V30 76 H 37.251254 28.892788 57.762642 0
M  V30 77 H 37.639682 30.502656 58.351500 0
M  V30 78 H 41.285606 36.789124 63.757633 0
M  V30 END ATOM
M  V30 BEGIN BOND
M  V30 1 1 3 2
M  V30 2 2 6 1
M  V30 3 1 8 6
M  V30 4 1 9 5
M  V30 5 1 10 3
M  V30 6 1 11 9
M  V30 7 1 13 5
M  V30 8 1 14 4
M  V30 9 1 15 4
M  V30 10 1 16 8
M  V30 11 1 16 12
M  V30 12 1 17 16
M  V30 13 1 18 14
M  V30 14 1 20 10
M  V30 15 1 21 17
M  V30 16 1 22 6
M  V30 17 1 23 13
M  V30 18 1 24 12
M  V30 19 1 25 7
M  V30 20 2 25 19
M  V30 21 1 26 23
M  V30 22 1 27 11
M  V30 23 1 27 20
M  V30 24 1 28 2
M  V30 25 1 28 11
M  V30 26 1 29 7
M  V30 27 2 29 14
M  V30 28 1 30 20
M  V30 29 1 30 21
M  V30 30 1 31 25
M  V30 31 1 31 26
M  V30 32 1 32 31
M  V30 33 1 33 2
M  V30 34 1 34 2
M  V30 35 1 35 3
M  V30 36 1 36 3
M  V30 37 1 37 5
M  V30 38 1 38 5
M  V30 39 1 39 7
M  V30 40 1 40 7
M  V30 41 1 41 8
M  V30 42 1 42 8
M  V30 43 1 43 9
M  V30 44 1 44 9
M  V30 45 1 45 10
M  V30 46 1 46 10
M  V30 47 1 47 12
M  V30 48 1 48 12
M  V30 49 1 49 13
M  V30 50 1 50 13
M  V30 51 1 51 15
M  V30 52 1 52 15
M  V30 53 1 53 15
M  V30 54 1 16 54 CFG=1
M  V30 55 1 55 17
M  V30 56 1 56 17
M  V30 57 1 57 18
M  V30 58 1 58 18
M  V30 59 1 59 18
M  V30 60 1 20 60 CFG=1
M  V30 61 1 61 21
M  V30 62 1 62 21
M  V30 63 1 63 23
M  V30 64 1 64 23
M  V30 65 1 65 24
M  V30 66 1 66 26
M  V30 67 1 67 26
M  V30 68 1 68 27
M  V30 69 1 69 27
M  V30 70 1 70 28
M  V30 71 1 71 28
M  V30 72 1 72 29
M  V30 73 1 73 30
M  V30 74 1 31 74 CFG=1
M  V30 75 1 75 32
M  V30 76 1 76 32
M  V30 77 1 77 32
M  V30 78 1 78 30
M  V30 END BOND
M  V30 END CTAB
M  END
>  <i_epik_Tot_Q>  (1) 
0

>  <i_epik_Tot_abs_Q>  (1) 
2

>  <i_i_glide_confnum>  (1) 
5129

>  <i_i_glide_lignum>  (1) 
101

>  <i_i_glide_posenum>  (1) 
246

>  <i_i_glide_rotatable_bonds>  (1) 
18

>  <i_lp_mmshare_version>  (1) 
72125

>  <i_m_source_file_index>  (1) 
49

>  <i_f3d_flags>  (1) 
0

>  <num_sample>  (1) 
50

>  <b_lp_Chiralities_Consistent>  (1) 
1

>  <r_epik_Charging_Adjusted_Penalty>  (1) 
0.04911624183534407

>  <r_epik_Ionization_Penalty>  (1) 
0.025385742012929795

>  <r_epik_Ionization_Penalty_Charging>  (1) 
0.0065475108590220404

>  <r_epik_Ionization_Penalty_Neutral>  (1) 
0.018838231153907755

>  <r_epik_State_Penalty>  (1) 
0.042568730976322029

>  <r_glide_ring_energy>  (1) 
0

>  <r_i_docking_score>  (1) 
-5.6180031882849288

>  <r_i_glide_ecoul>  (1) 
-5.8818123638336033

>  <r_i_glide_eff_state_penalty>  (1) 
0.042568730976322029

>  <r_i_glide_einternal>  (1) 
13.482826723512661

>  <r_i_glide_emodel>  (1) 
-52.664334807527638

>  <r_i_glide_emodel_strain>  (1) 
0.48108063056890416

>  <r_i_glide_energy>  (1) 
-43.036822951718342

>  <r_i_glide_erotb>  (1) 
1.5544609794247006

>  <r_i_glide_esite>  (1) 
0

>  <r_i_glide_evdw>  (1) 
-37.155010587884739

>  <r_i_glide_gscore>  (1) 
-5.6605719192612511

>  <r_i_glide_gscore_strain>  (1) 
0

>  <r_i_glide_hbond>  (1) 
0

>  <r_i_glide_ligand_efficiency>  (1) 
-0.17556259963390403

>  <r_i_glide_ligand_efficiency_ln>  (1) 
-1.2580240548400556

>  <r_i_glide_ligand_efficiency_sa>  (1) 
-0.55737651069026228

>  <r_i_glide_lipo>  (1) 
-3.6510950425654007

>  <r_i_glide_metal>  (1) 
-0

>  <r_i_glide_rewards>  (1) 
-0.82391547215127381

>  <r_lp_Energy>  (1) 
26.260809999999999

>  <r_lp_tautomer_probability>  (1) 
0.99990000499974985

>  <s_epik_cmdline>  (1) 
J2VwaWtfcHl0aG9uJywgJy1waHQnLCAnMS4wJywgJy1waCcsICc3LjQnLCAnLXRuJywgJzgnLCAnLW1hJywgJzUwMCcsICctaW1hZScsICc8aW5maWxlLm1hZT4nLCAnLW9tYWUnLCAnPG91dGZpbGUubWFlPic=

>  <s_epik_input>  (1) 
Tz1DKFtPSF0pW0NIMl1bQ0BASF0oW0NIMl1bT0hdKVtDSDJdW0NIMl1bTkhdW0NASF0oW0NIMl1bQ0gyXVtDSDJdW0NIMl0xKVtDSDJdTjFbQ0gyXVtDSDJdW0NIMl1bQ0gyXVtDSDJdW0NASF0oW0NIM10pQyg9TylbQ0gyXS9bQ0hdPUMoW0NIM10pXE9bQ0gzXQ==

>  <s_glide_docking_method>  (1) 
confgen

>  <s_i_glide_gridfile>  (1) 
gpcr_5ht2c_6bqh_protein_autoprepared_prepared

>  <s_lp_Force_Field>  (1) 
S-OPLS

>  <s_lp_Variant>  (1) 
DiffSBDD_48-3

>  <s_m_source_file>  (1) 
generated_GPCR_5HT2C_ligand_DiffSBDD_2026-06-23_prepared.sdf

>  <GenAI_Model>  (1) 
DiffSBDD

>  <Protein>  (1) 
GPCR_5HT2C

$$$$
DiffSBDD_48
     RDKit          3D

  0  0  0  0  0  0  0  0  0  0999 V3000
M  V30 BEGIN CTAB
M  V30 COUNTS 78 78 0 0 1
M  V30 BEGIN ATOM
M  V30 1 O 44.611360 31.814354 66.305032 0
M  V30 2 C 37.373872 36.790410 60.789127 0
M  V30 3 C 37.799114 37.519326 62.073948 0
M  V30 4 O 39.814263 28.398692 52.033809 0
M  V30 5 C 37.662590 32.920561 58.952679 0
M  V30 6 C 43.755715 32.537710 66.857889 0
M  V30 7 C 39.629601 30.215560 54.288071 0
M  V30 8 C 42.946625 33.471210 65.956286 0
M  V30 9 C 38.324329 33.202742 60.308600 0
M  V30 10 C 38.880572 36.838749 62.938678 0
M  V30 11 N 38.529452 34.624392 60.585508 0
M  V30 12 C 40.893134 32.012473 65.461196 0
M  V30 13 C 37.821684 31.437995 58.582636 0
M  V30 14 C 39.887796 29.758179 51.812745 0
M  V30 15 C 39.409628 27.551297 50.967715 0
M  V30 16 C 42.129101 32.729410 64.883235 0 CFG=1
M  V30 17 C 41.812014 33.662342 63.691735 0
M  V30 18 C 40.078660 30.160928 50.357319 0
M  V30 19 O 37.435973 29.337701 53.767762 0
M  V30 20 C 39.947444 36.071645 62.136944 0 CFG=2
M  V30 21 C 41.329317 35.095445 64.046139 0
M  V30 22 O 43.503025 32.572464 68.080876 0 CHG=-1
M  V30 23 C 38.661234 31.222834 57.319695 0
M  V30 24 O 40.367720 31.117082 64.500334 0
M  V30 25 C 38.297480 29.521587 54.622351 0
M  V30 26 C 39.000273 29.736750 57.103184 0
M  V30 27 C 39.464121 34.673149 61.708100 0
M  V30 28 C 37.252305 35.266367 60.907339 0
M  V30 29 C 39.799370 30.623229 52.835965 0
M  V30 30 N 41.238253 35.998838 62.872208 0 CHG=1
M  V30 31 C 38.088197 29.050248 56.069514 0 CFG=2
M  V30 32 C 38.201910 27.517327 56.144649 0
M  V30 33 H 38.045130 37.042068 59.967754 0
M  V30 34 H 36.407748 37.194773 60.485270 0
M  V30 35 H 38.152498 38.503984 61.767751 0
M  V30 36 H 36.921428 37.699001 62.696682 0
M  V30 37 H 36.601054 33.167903 58.974385 0
M  V30 38 H 38.103791 33.554608 58.182158 0
M  V30 39 H 39.732570 31.117976 54.888019 0
M  V30 40 H 40.445126 29.556730 54.571362 0
M  V30 41 H 43.645133 34.119269 65.434200 0
M  V30 42 H 42.309831 34.112256 66.567465 0
M  V30 43 H 39.297983 32.710502 60.284568 0
M  V30 44 H 37.761385 32.730060 61.115417 0
M  V30 45 H 38.405530 36.159265 63.646562 0
M  V30 46 H 39.352225 37.609347 63.550330 0
M  V30 47 H 40.128361 32.726059 65.767250 0
M  V30 48 H 41.164894 31.432762 66.344393 0
M  V30 49 H 38.263736 30.890625 59.415974 0
M  V30 50 H 36.845039 30.982379 58.437610 0
M  V30 51 H 39.288980 26.537774 51.346788 0
M  V30 52 H 38.445175 27.862010 50.567726 0
M  V30 53 H 40.147220 27.510927 50.167775 0
M  V30 54 H 42.767067 31.941597 64.476100 0
M  V30 55 H 42.720020 33.737729 63.100681 0
M  V30 56 H 41.101936 33.145438 63.053561 0
M  V30 57 H 40.157123 31.245349 50.272326 0
M  V30 58 H 40.998409 29.737781 49.955891 0
M  V30 59 H 39.245141 29.850316 49.738656 0
M  V30 60 H 40.192815 36.643328 61.244921 0
M  V30 61 H 40.405493 35.081809 64.615331 0
M  V30 62 H 42.060944 35.577019 64.693977 0
M  V30 63 H 38.118782 31.637600 56.468679 0
M  V30 64 H 39.584975 31.797313 57.367780 0
M  V30 65 H 39.786157 30.507174 64.932758 0
M  V30 66 H 40.045149 29.632070 56.816621 0
M  V30 67 H 38.932697 29.202185 58.051323 0
M  V30 68 H 40.349943 34.139241 61.364927 0
M  V30 69 H 39.062098 34.124429 62.562300 0
M  V30 70 H 36.505664 34.962355 60.174844 0
M  V30 71 H 36.866959 34.956918 61.879341 0
M  V30 72 H 39.854221 31.683484 52.639544 0
M  V30 73 H 41.439410 36.931216 63.213622 0
M  V30 74 H 37.066398 29.337659 56.321801 0
M  V30 75 H 37.589194 27.029200 55.385295 0
M  V30 76 H 39.231778 27.188310 55.999828 0
M  V30 77 H 37.868556 27.149001 57.115248 0
M  V30 78 H 41.967882 35.744943 62.222466 0
M  V30 END ATOM
M  V30 BEGIN BOND
M  V30 1 1 3 2
M  V30 2 2 6 1
M  V30 3 1 8 6
M  V30 4 1 9 5
M  V30 5 1 10 3
M  V30 6 1 11 9
M  V30 7 1 13 5
M  V30 8 1 14 4
M  V30 9 1 15 4
M  V30 10 1 16 8
M  V30 11 1 16 12
M  V30 12 1 17 16
M  V30 13 1 18 14
M  V30 14 1 20 10
M  V30 15 1 21 17
M  V30 16 1 22 6
M  V30 17 1 23 13
M  V30 18 1 24 12
M  V30 19 1 25 7
M  V30 20 2 25 19
M  V30 21 1 26 23
M  V30 22 1 27 11
M  V30 23 1 27 20
M  V30 24 1 28 2
M  V30 25 1 28 11
M  V30 26 1 29 7
M  V30 27 2 29 14
M  V30 28 1 30 20
M  V30 29 1 30 21
M  V30 30 1 31 25
M  V30 31 1 31 26
M  V30 32 1 32 31
M  V30 33 1 33 2
M  V30 34 1 34 2
M  V30 35 1 35 3
M  V30 36 1 36 3
M  V30 37 1 37 5
M  V30 38 1 38 5
M  V30 39 1 39 7
M  V30 40 1 40 7
M  V30 41 1 41 8
M  V30 42 1 42 8
M  V30 43 1 43 9
M  V30 44 1 44 9
M  V30 45 1 45 10
M  V30 46 1 46 10
M  V30 47 1 47 12
M  V30 48 1 48 12
M  V30 49 1 49 13
M  V30 50 1 50 13
M  V30 51 1 51 15
M  V30 52 1 52 15
M  V30 53 1 53 15
M  V30 54 1 16 54 CFG=3
M  V30 55 1 55 17
M  V30 56 1 56 17
M  V30 57 1 57 18
M  V30 58 1 58 18
M  V30 59 1 59 18
M  V30 60 1 20 60 CFG=3
M  V30 61 1 61 21
M  V30 62 1 62 21
M  V30 63 1 63 23
M  V30 64 1 64 23
M  V30 65 1 65 24
M  V30 66 1 66 26
M  V30 67 1 67 26
M  V30 68 1 68 27
M  V30 69 1 69 27
M  V30 70 1 70 28
M  V30 71 1 71 28
M  V30 72 1 72 29
M  V30 73 1 73 30
M  V30 74 1 31 74 CFG=1
M  V30 75 1 75 32
M  V30 76 1 76 32
M  V30 77 1 77 32
M  V30 78 1 78 30
M  V30 END BOND
M  V30 END CTAB
M  END
>  <i_epik_Tot_Q>  (1) 
0

>  <i_epik_Tot_abs_Q>  (1) 
2

>  <i_i_glide_confnum>  (1) 
5254

>  <i_i_glide_lignum>  (1) 
99

>  <i_i_glide_posenum>  (1) 
52

>  <i_i_glide_rotatable_bonds>  (1) 
18

>  <i_lp_mmshare_version>  (1) 
72125

>  <i_m_source_file_index>  (1) 
49

>  <i_f3d_flags>  (1) 
0

>  <num_sample>  (1) 
50

>  <b_lp_Chiralities_Consistent>  (1) 
1

>  <r_epik_Charging_Adjusted_Penalty>  (1) 
0.04911624183534407

>  <r_epik_Ionization_Penalty>  (1) 
0.025385742012929795

>  <r_epik_Ionization_Penalty_Charging>  (1) 
0.0065475108590220404

>  <r_epik_Ionization_Penalty_Neutral>  (1) 
0.018838231153907755

>  <r_epik_State_Penalty>  (1) 
0.042568730976322029

>  <r_glide_ring_energy>  (1) 
0

>  <r_i_docking_score>  (1) 
-5.5596983281231713

>  <r_i_glide_ecoul>  (1) 
-3.9940987182991523

>  <r_i_glide_eff_state_penalty>  (1) 
0.042568730976322029

>  <r_i_glide_einternal>  (1) 
24.938483512847196

>  <r_i_glide_emodel>  (1) 
-44.460810695099092

>  <r_i_glide_emodel_strain>  (1) 
5.9619373840177303

>  <r_i_glide_energy>  (1) 
-44.05211012215473

>  <r_i_glide_erotb>  (1) 
1.5544609794247006

>  <r_i_glide_esite>  (1) 
0

>  <r_i_glide_evdw>  (1) 
-40.058011403855581

>  <r_i_glide_gscore>  (1) 
-5.6022670590994936

>  <r_i_glide_gscore_strain>  (1) 
0.49048434600443258

>  <r_i_glide_hbond>  (1) 
0

>  <r_i_glide_ligand_efficiency>  (1) 
-0.1737405727538491

>  <r_i_glide_ligand_efficiency_ln>  (1) 
-1.2449680073193761

>  <r_i_glide_ligand_efficiency_sa>  (1) 
-0.55159193591803524

>  <r_i_glide_lipo>  (1) 
-3.9276640096858757

>  <r_i_glide_metal>  (1) 
-0

>  <r_i_glide_rewards>  (1) 
-1.1175329969051

>  <r_lp_Energy>  (1) 
27.873598999999999

>  <r_lp_tautomer_probability>  (1) 
0.99990000499974985

>  <s_epik_cmdline>  (1) 
J2VwaWtfcHl0aG9uJywgJy1waHQnLCAnMS4wJywgJy1waCcsICc3LjQnLCAnLXRuJywgJzgnLCAnLW1hJywgJzUwMCcsICctaW1hZScsICc8aW5maWxlLm1hZT4nLCAnLW9tYWUnLCAnPG91dGZpbGUubWFlPic=

>  <s_epik_input>  (1) 
Tz1DKFtPSF0pW0NIMl1bQ0BASF0oW0NIMl1bT0hdKVtDSDJdW0NIMl1bTkhdW0NASF0oW0NIMl1bQ0gyXVtDSDJdW0NIMl0xKVtDSDJdTjFbQ0gyXVtDSDJdW0NIMl1bQ0gyXVtDSDJdW0NASF0oW0NIM10pQyg9TylbQ0gyXS9bQ0hdPUMoW0NIM10pXE9bQ0gzXQ==

>  <s_glide_docking_method>  (1) 
confgen

>  <s_i_glide_gridfile>  (1) 
gpcr_5ht2c_6bqh_protein_autoprepared_prepared

>  <s_lp_Force_Field>  (1) 
S-OPLS

>  <s_lp_Variant>  (1) 
DiffSBDD_48-1

>  <s_m_source_file>  (1) 
generated_GPCR_5HT2C_ligand_DiffSBDD_2026-06-23_prepared.sdf

>  <GenAI_Model>  (1) 
DiffSBDD

>  <Protein>  (1) 
GPCR_5HT2C

$$$$
DiffSBDD_23
     RDKit          3D

  0  0  0  0  0  0  0  0  0  0999 V3000
M  V30 BEGIN CTAB
M  V30 COUNTS 19 19 0 0 1
M  V30 BEGIN ATOM
M  V30 1 C 38.449417 29.007586 54.535163 0
M  V30 2 C 39.031836 30.276281 54.358269 0
M  V30 3 C 38.472002 28.062206 53.491733 0
M  V30 4 S 40.445137 30.137710 50.569773 0 CHG=-1
M  V30 5 C 39.083439 27.327194 51.137100 0
M  V30 6 C 38.996254 31.285961 55.487444 0
M  V30 7 O 37.906278 26.833657 53.681600 0
M  V30 8 C 39.672651 29.675366 52.078099 0
M  V30 9 C 39.078430 28.380208 52.252624 0
M  V30 10 C 39.645137 30.608069 53.133837 0
M  V30 11 H 37.982434 28.758672 55.476319 0
M  V30 12 H 39.479165 27.598244 50.167719 0
M  V30 13 H 39.645267 26.457797 51.474597 0
M  V30 14 H 38.058959 26.997824 50.967785 0
M  V30 15 H 39.469594 32.224788 55.200284 0
M  V30 16 H 37.962502 31.498062 55.767662 0
M  V30 17 H 39.514188 30.895681 56.362461 0
M  V30 18 H 37.561304 26.719269 54.552390 0
M  V30 19 H 40.088943 31.583137 53.003328 0
M  V30 END ATOM
M  V30 BEGIN BOND
M  V30 1 2 2 1
M  V30 2 1 3 1
M  V30 3 1 6 2
M  V30 4 1 7 3
M  V30 5 1 8 4
M  V30 6 2 9 3
M  V30 7 1 9 5
M  V30 8 1 9 8
M  V30 9 1 10 2
M  V30 10 2 10 8
M  V30 11 1 11 1
M  V30 12 1 12 5
M  V30 13 1 13 5
M  V30 14 1 14 5
M  V30 15 1 15 6
M  V30 16 1 16 6
M  V30 17 1 17 6
M  V30 18 1 18 7
M  V30 19 1 19 10
M  V30 END BOND
M  V30 END CTAB
M  END
>  <i_epik_Tot_Q>  (1) 
-1

>  <i_epik_Tot_abs_Q>  (1) 
1

>  <i_i_glide_confnum>  (1) 
1

>  <i_i_glide_lignum>  (1) 
51

>  <i_i_glide_posenum>  (1) 
276

>  <i_i_glide_rotatable_bonds>  (1) 
1

>  <i_lp_mmshare_version>  (1) 
72125

>  <i_m_source_file_index>  (1) 
24

>  <i_f3d_flags>  (1) 
0

>  <num_sample>  (1) 
50

>  <b_lp_Chiralities_Consistent>  (1) 
1

>  <r_epik_Charging_Adjusted_Penalty>  (1) 
0.20721936488096054

>  <r_epik_Ionization_Penalty>  (1) 
0.10365679981868296

>  <r_epik_Ionization_Penalty_Charging>  (1) 
0.10360968244048027

>  <r_epik_Ionization_Penalty_Neutral>  (1) 
4.7117378202688286e-05

>  <r_epik_State_Penalty>  (1) 
0.10360968244048026

>  <r_glide_ring_energy>  (1) 
0

>  <r_i_docking_score>  (1) 
-5.5578754271216697

>  <r_i_glide_ecoul>  (1) 
-0.3776078200601839

>  <r_i_glide_eff_state_penalty>  (1) 
0.10360968244048026

>  <r_i_glide_einternal>  (1) 
0.0033643897624748842

>  <r_i_glide_emodel>  (1) 
-27.402516769301329

>  <r_i_glide_emodel_strain>  (1) 
1.6700629817810508

>  <r_i_glide_energy>  (1) 
-20.175255126908841

>  <r_i_glide_erotb>  (1) 
0

>  <r_i_glide_esite>  (1) 
0

>  <r_i_glide_evdw>  (1) 
-19.797647306848656

>  <r_i_glide_gscore>  (1) 
-5.6614851095621503

>  <r_i_glide_gscore_strain>  (1) 
0

>  <r_i_glide_hbond>  (1) 
0

>  <r_i_glide_ligand_efficiency>  (1) 
-0.55578754271216702

>  <r_i_glide_ligand_efficiency_ln>  (1) 
-1.6828863664745215

>  <r_i_glide_ligand_efficiency_sa>  (1) 
-1.19740796230667

>  <r_i_glide_lipo>  (1) 
-2.092701529794188

>  <r_i_glide_metal>  (1) 
-0

>  <r_i_glide_rewards>  (1) 
-2.5222600414165015

>  <r_lp_Energy>  (1) 
12.729156

>  <s_epik_cmdline>  (1) 
J2VwaWtfcHl0aG9uJywgJy1waHQnLCAnMS4wJywgJy1waCcsICc3LjQnLCAnLXRuJywgJzgnLCAnLW1hJywgJzUwMCcsICctaW1hZScsICc8aW5maWxlLm1hZT4nLCAnLW9tYWUnLCAnPG91dGZpbGUubWFlPic=

>  <s_epik_input>  (1) 
W0NIM11jMVtjSF1jKFtPSF0pYyhbQ0gzXSljKFtTSF0pW2NIXTE=

>  <s_glide_docking_method>  (1) 
confgen

>  <s_i_glide_gridfile>  (1) 
gpcr_5ht2c_6bqh_protein_autoprepared_prepared

>  <s_lp_Force_Field>  (1) 
S-OPLS

>  <s_lp_Variant>  (1) 
DiffSBDD_23-1

>  <s_m_source_file>  (1) 
generated_GPCR_5HT2C_ligand_DiffSBDD_2026-06-23_prepared.sdf

>  <GenAI_Model>  (1) 
DiffSBDD

>  <Protein>  (1) 
GPCR_5HT2C

$$$$
DiffSBDD_24
     RDKit          3D

  0  0  0  0  0  0  0  0  0  0999 V3000
M  V30 BEGIN CTAB
M  V30 COUNTS 80 83 0 0 1
M  V30 BEGIN ATOM
M  V30 1 C 38.329995 30.426444 60.199950 0
M  V30 2 C 38.231644 26.045949 55.951590 0 CFG=2
M  V30 3 O 40.653967 28.137747 59.464409 0
M  V30 4 C 37.576267 34.769694 60.347238 0
M  V30 5 C 37.539364 24.862034 55.233329 0
M  V30 6 N 36.989471 37.933254 62.171292 0
M  V30 7 O 41.678309 28.137360 57.095727 0
M  V30 8 C 36.541662 24.122550 56.128064 0
M  V30 9 C 39.544585 28.194170 55.830190 0
M  V30 10 C 40.208275 34.707704 60.743591 0
M  V30 11 C 38.385285 31.968633 60.083549 0 CFG=2
M  V30 12 C 40.298118 27.828971 57.097615 0 CFG=2
M  V30 13 C 35.754758 38.132239 62.652354 0
M  V30 14 C 37.286761 33.996812 59.065008 0
M  V30 15 C 39.634595 32.075496 62.343587 0
M  V30 16 C 38.038887 29.712762 58.861354 0
M  V30 17 C 39.558978 35.311936 61.948295 0 CFG=1
M  V30 18 C 35.313042 37.249702 63.833459 0
M  V30 19 C 39.694069 27.789308 58.489034 0 CFG=1
M  V30 20 O 34.985298 38.937850 62.167730 0
M  V30 21 C 38.806287 34.254592 61.115958 0 CFG=1
M  V30 22 C 38.581385 32.745080 61.428144 0 CFG=1
M  V30 23 C 34.096795 37.738644 64.619736 0
M  V30 24 C 39.089011 26.954716 55.023039 0 CFG=2
M  V30 25 O 40.243827 34.920729 63.117618 0
M  V30 26 C 40.053078 26.495620 57.779222 0 CFG=1
M  V30 27 C 38.285693 28.198935 58.872226 0
M  V30 28 C 39.195586 36.784299 61.980346 0
M  V30 29 O 39.191480 28.158417 52.890376 0
M  V30 30 C 37.923775 36.994612 62.789422 0
M  V30 31 C 39.065976 25.518539 57.152749 0
M  V30 32 C 38.351698 27.394659 53.732563 0
M  V30 33 C 37.139404 32.514449 59.360547 0
M  V30 34 H 37.585936 30.138424 60.940442 0
M  V30 35 H 39.288183 30.068036 60.571787 0
M  V30 36 H 37.424703 26.669411 56.331553 0
M  V30 37 H 41.463150 28.255828 58.979580 0
M  V30 38 H 36.707055 34.722956 61.004940 0
M  V30 39 H 37.684729 35.812851 60.065730 0
M  V30 40 H 36.962383 25.210578 54.380110 0
M  V30 41 H 38.278173 24.162905 54.841890 0
M  V30 42 H 37.304964 38.472943 61.378613 0
M  V30 43 H 42.127756 27.494471 56.566288 0
M  V30 44 H 35.972295 23.388735 55.557018 0
M  V30 45 H 35.838919 24.834111 56.562045 0
M  V30 46 H 37.035520 23.591880 56.941539 0
M  V30 47 H 38.670937 28.785803 56.103668 0
M  V30 48 H 40.164981 28.858205 55.230364 0
M  V30 49 H 40.325565 35.334627 59.865256 0
M  V30 50 H 41.043507 34.049855 60.967701 0
M  V30 51 H 39.245000 32.191073 59.451619 0
M  V30 52 H 36.379889 34.373855 58.590454 0
M  V30 53 H 38.090833 34.137335 58.344596 0
M  V30 54 H 40.627118 32.051353 61.894639 0
M  V30 55 H 39.360675 31.048246 62.578324 0
M  V30 56 H 39.702412 32.560389 63.314916 0
M  V30 57 H 36.987670 29.861192 58.612115 0
M  V30 58 H 38.610476 30.173612 58.055020 0
M  V30 59 H 35.076518 36.292060 63.367780 0
M  V30 60 H 36.108560 37.067517 64.554074 0
M  V30 61 H 37.644845 32.680230 61.984063 0
M  V30 62 H 33.656689 36.937920 65.209197 0
M  V30 63 H 33.312893 38.137361 63.975860 0
M  V30 64 H 34.418857 38.508307 65.321582 0
M  V30 65 H 39.972795 26.390308 54.721220 0
M  V30 66 H 41.007225 35.469335 63.220848 0
M  V30 67 H 40.928543 25.980936 58.168009 0
M  V30 68 H 38.055863 27.796090 59.857554 0
M  V30 69 H 37.590518 27.740244 58.173302 0
M  V30 70 H 40.022046 37.369278 62.386562 0
M  V30 71 H 39.049747 37.141833 60.967765 0
M  V30 72 H 38.733607 28.325619 52.080050 0
M  V30 73 H 38.198008 37.335596 63.789442 0
M  V30 74 H 37.418037 36.041012 62.910327 0
M  V30 75 H 38.415347 25.144595 57.942610 0
M  V30 76 H 39.649506 24.661775 56.812706 0
M  V30 77 H 38.044146 26.537996 53.135103 0
M  V30 78 H 37.452823 27.966432 53.970465 0
M  V30 79 H 36.241267 32.330688 59.951486 0
M  V30 80 H 36.989052 32.025180 58.403877 0
M  V30 END ATOM
M  V30 BEGIN BOND
M  V30 1 1 5 2
M  V30 2 1 8 5
M  V30 3 1 11 1
M  V30 4 1 12 7 CFG=1
M  V30 5 1 12 9
M  V30 6 1 13 6
M  V30 7 1 14 4
M  V30 8 1 16 1
M  V30 9 1 17 10
M  V30 10 1 18 13
M  V30 11 1 19 3 CFG=1
M  V30 12 1 19 12
M  V30 13 2 20 13
M  V30 14 1 21 4 CFG=3
M  V30 15 1 21 10
M  V30 16 1 21 17
M  V30 17 1 22 11
M  V30 18 1 22 15
M  V30 19 1 22 21
M  V30 20 1 23 18
M  V30 21 1 24 2
M  V30 22 1 24 9
M  V30 23 1 17 25 CFG=1
M  V30 24 1 26 12
M  V30 25 1 26 19
M  V30 26 1 27 16
M  V30 27 1 27 19
M  V30 28 1 28 17
M  V30 29 1 30 6
M  V30 30 1 30 28
M  V30 31 1 31 2
M  V30 32 1 31 26
M  V30 33 1 32 24
M  V30 34 1 32 29
M  V30 35 1 33 11
M  V30 36 1 33 14
M  V30 37 1 34 1
M  V30 38 1 35 1
M  V30 39 1 2 36 CFG=1
M  V30 40 1 37 3
M  V30 41 1 38 4
M  V30 42 1 39 4
M  V30 43 1 40 5
M  V30 44 1 41 5
M  V30 45 1 42 6
M  V30 46 1 43 7
M  V30 47 1 44 8
M  V30 48 1 45 8
M  V30 49 1 46 8
M  V30 50 1 47 9
M  V30 51 1 48 9
M  V30 52 1 49 10
M  V30 53 1 50 10
M  V30 54 1 11 51 CFG=3
M  V30 55 1 52 14
M  V30 56 1 53 14
M  V30 57 1 54 15
M  V30 58 1 55 15
M  V30 59 1 56 15
M  V30 60 1 57 16
M  V30 61 1 58 16
M  V30 62 1 59 18
M  V30 63 1 60 18
M  V30 64 1 22 61 CFG=1
M  V30 65 1 62 23
M  V30 66 1 63 23
M  V30 67 1 64 23
M  V30 68 1 24 65 CFG=3
M  V30 69 1 66 25
M  V30 70 1 26 67 CFG=1
M  V30 71 1 68 27
M  V30 72 1 69 27
M  V30 73 1 70 28
M  V30 74 1 71 28
M  V30 75 1 72 29
M  V30 76 1 73 30
M  V30 77 1 74 30
M  V30 78 1 75 31
M  V30 79 1 76 31
M  V30 80 1 77 32
M  V30 81 1 78 32
M  V30 82 1 79 33
M  V30 83 1 80 33
M  V30 END BOND
M  V30 END CTAB
M  END
>  <i_epik_Tot_Q>  (1) 
0

>  <i_epik_Tot_abs_Q>  (1) 
0

>  <i_i_glide_confnum>  (1) 
911

>  <i_i_glide_lignum>  (1) 
53

>  <i_i_glide_posenum>  (1) 
308

>  <i_i_glide_rotatable_bonds>  (1) 
15

>  <i_lp_mmshare_version>  (1) 
72125

>  <i_m_source_file_index>  (1) 
25

>  <i_f3d_flags>  (1) 
0

>  <num_sample>  (1) 
50

>  <b_lp_Chiralities_Consistent>  (1) 
1

>  <r_epik_Charging_Adjusted_Penalty>  (1) 
0

>  <r_epik_Ionization_Penalty>  (1) 
1.3202672537782039e-06

>  <r_epik_Ionization_Penalty_Charging>  (1) 
0

>  <r_epik_Ionization_Penalty_Neutral>  (1) 
1.3202672537782039e-06

>  <r_epik_State_Penalty>  (1) 
-0

>  <r_glide_ring_energy>  (1) 
0

>  <r_i_docking_score>  (1) 
-5.5508375135817696

>  <r_i_glide_ecoul>  (1) 
-1.8756338593101658

>  <r_i_glide_eff_state_penalty>  (1) 
-0

>  <r_i_glide_einternal>  (1) 
15.239905179421411

>  <r_i_glide_emodel>  (1) 
-38.52536304576968

>  <r_i_glide_emodel_strain>  (1) 
1.9947224137093826

>  <r_i_glide_energy>  (1) 
-37.649929547637512

>  <r_i_glide_erotb>  (1) 
0.83704981647784005

>  <r_i_glide_esite>  (1) 
0

>  <r_i_glide_evdw>  (1) 
-35.774295688327349

>  <r_i_glide_gscore>  (1) 
-5.5508375135817696

>  <r_i_glide_gscore_strain>  (1) 
0

>  <r_i_glide_hbond>  (1) 
0

>  <r_i_glide_ligand_efficiency>  (1) 
-0.16820719738126574

>  <r_i_glide_ligand_efficiency_ln>  (1) 
-1.2344775223221094

>  <r_i_glide_ligand_efficiency_sa>  (1) 
-0.53953036015279399

>  <r_i_glide_lipo>  (1) 
-4.6458259721703863

>  <r_i_glide_metal>  (1) 
-0

>  <r_i_glide_rewards>  (1) 
0.32799850542366915

>  <r_lp_Energy>  (1) 
47.020322

>  <r_lp_tautomer_probability>  (1) 
1

>  <s_epik_cmdline>  (1) 
J2VwaWtfcHl0aG9uJywgJy1waHQnLCAnMS4wJywgJy1waCcsICc3LjQnLCAnLXRuJywgJzgnLCAnLW1hJywgJzUwMCcsICctaW1hZScsICc8aW5maWxlLm1hZT4nLCAnLW9tYWUnLCAnPG91dGZpbGUubWFlPic=

>  <s_epik_input>  (1) 
W09IXVtDSDJdW0NAQEhdKFtDSDJdMSlbQ0BASF0oW0NIMl1bQ0gzXSlbQ0gyXVtDQEBIXShDMTJbT0hdKVtDQF0yKFtPSF0pW0NIMl1bQ0gyXVtDSDJdW0NASF0oW0NASF0zW0NIM10pW0NIMl1bQ0gyXVtDSDJdW0NAXTM0W0NIMl1DNChbT0hdKVtDSDJdW0NIMl1bTkhdQyg9TylbQ0gyXVtDSDNd

>  <s_glide_docking_method>  (1) 
confgen

>  <s_i_glide_gridfile>  (1) 
gpcr_5ht2c_6bqh_protein_autoprepared_prepared

>  <s_lp_Force_Field>  (1) 
S-OPLS

>  <s_lp_Variant>  (1) 
DiffSBDD_24-1

>  <s_m_source_file>  (1) 
generated_GPCR_5HT2C_ligand_DiffSBDD_2026-06-23_prepared.sdf

>  <GenAI_Model>  (1) 
DiffSBDD

>  <Protein>  (1) 
GPCR_5HT2C

$$$$
DiffSBDD_36
     RDKit          3D

  0  0  0  0  0  0  0  0  0  0999 V3000
M  V30 BEGIN CTAB
M  V30 COUNTS 79 82 0 0 1
M  V30 BEGIN ATOM
M  V30 1 O 38.843887 32.220208 54.967123 0
M  V30 2 C 39.687353 28.790072 57.484846 0 CFG=1
M  V30 3 C 39.997976 28.869082 60.409242 0
M  V30 4 C 37.284697 32.703066 59.549234 0
M  V30 5 O 36.889914 30.279371 59.768954 0
M  V30 6 C 38.378009 29.534228 57.461969 0 CFG=1
M  V30 7 C 40.400057 28.690605 61.884066 0
M  V30 8 C 40.399166 27.648229 59.583729 0
M  V30 9 C 38.219595 27.995535 55.362968 0
M  V30 10 C 42.777536 32.507796 65.911604 0
M  V30 11 C 39.326167 30.882386 52.995099 0
M  V30 12 O 39.644045 28.480220 52.568999 0
M  V30 13 C 35.547597 33.329954 61.104844 0
M  V30 14 C 39.823216 27.459180 58.173488 0 CFG=1
M  V30 15 C 39.070786 27.049470 54.491785 0
M  V30 16 C 38.262475 33.825289 59.273512 0
M  V30 17 C 38.838479 30.908433 54.436997 0 CFG=1
M  V30 18 C 38.276813 31.006206 57.837174 0
M  V30 19 C 40.527604 30.012849 62.639154 0
M  V30 20 C 37.776663 31.280226 59.280037 0 CFG=1
M  V30 21 C 38.974401 27.293630 52.967341 0
M  V30 22 N 41.498450 30.068690 63.579496 0
M  V30 23 C 39.000978 29.055750 56.165066 0 CFG=2
M  V30 24 O 36.884769 32.892285 60.906613 0
M  V30 25 C 41.146676 32.419630 64.335547 0
M  V30 26 C 41.788814 31.218057 64.385309 0
M  V30 27 O 38.609688 26.736802 58.265246 0
M  V30 28 C 35.663016 30.145970 59.078902 0
M  V30 29 C 41.393635 34.605911 65.576734 0
M  V30 30 C 38.845215 29.599975 52.257515 0
M  V30 31 N 41.755351 33.233268 65.283644 0
M  V30 32 O 39.775795 30.949186 62.374796 0
M  V30 33 C 42.808487 31.252864 65.360814 0
M  V30 34 C 39.748115 30.023010 55.277006 0
M  V30 35 C 36.961460 33.779642 58.519206 0
M  V30 36 H 37.945002 32.517612 55.043545 0
M  V30 37 H 40.575370 29.391614 57.659008 0
M  V30 38 H 40.462494 29.760050 59.988190 0
M  V30 39 H 38.918977 28.996002 60.363267 0
M  V30 40 H 37.507165 28.953971 57.738066 0
M  V30 41 H 39.667234 28.066772 62.394763 0
M  V30 42 H 41.350566 28.154226 61.944147 0
M  V30 43 H 40.045093 26.822472 60.167760 0
M  V30 44 H 41.488453 27.609815 59.531917 0
M  V30 45 H 37.452828 28.471921 54.754354 0
M  V30 46 H 37.644726 27.383701 56.055816 0
M  V30 47 H 43.379717 32.958233 66.687733 0
M  V30 48 H 38.954904 31.805723 52.565745 0
M  V30 49 H 40.411140 30.977944 52.935693 0
M  V30 50 H 35.315497 33.323186 62.167647 0
M  V30 51 H 35.399823 34.352272 60.763137 0
M  V30 52 H 34.825198 32.693515 60.600652 0
M  V30 53 H 40.510955 26.848566 57.585171 0
M  V30 54 H 38.730390 26.029678 54.678483 0
M  V30 55 H 40.110704 27.052698 54.816635 0
M  V30 56 H 38.372534 34.607413 60.022522 0
M  V30 57 H 39.172303 33.577222 58.729847 0
M  V30 58 H 37.799312 30.583908 54.480922 0
M  V30 59 H 39.233165 31.498814 57.668237 0
M  V30 60 H 37.587599 31.446011 57.125775 0
M  V30 61 H 38.654363 31.176372 59.912336 0
M  V30 62 H 37.950020 27.221223 52.596336 0
M  V30 63 H 39.515320 26.496515 52.461553 0
M  V30 64 H 42.063483 29.246198 63.730057 0
M  V30 65 H 40.327447 32.783766 63.733473 0
M  V30 66 H 38.002065 27.249694 58.775796 0
M  V30 67 H 35.245204 29.180517 59.353430 0
M  V30 68 H 34.976244 30.951854 59.318687 0
M  V30 69 H 35.774956 30.134256 58.003802 0
M  V30 70 H 40.966273 35.082690 64.691754 0
M  V30 71 H 40.664582 34.628350 66.387653 0
M  V30 72 H 42.278394 35.164860 65.882977 0
M  V30 73 H 37.801600 29.381741 52.498903 0
M  V30 74 H 38.901170 29.739052 51.175498 0
M  V30 75 H 43.488788 30.459359 65.633565 0
M  V30 76 H 40.440363 29.450428 54.669902 0
M  V30 77 H 40.408342 30.658793 55.859783 0
M  V30 78 H 37.016608 33.536155 57.461658 0
M  V30 79 H 36.219192 34.536729 58.754605 0
M  V30 END ATOM
M  V30 BEGIN BOND
M  V30 1 1 6 2
M  V30 2 1 7 3
M  V30 3 1 8 3
M  V30 4 1 14 2
M  V30 5 1 14 8
M  V30 6 1 15 9
M  V30 7 1 16 4
M  V30 8 1 17 1
M  V30 9 1 17 11
M  V30 10 1 18 6
M  V30 11 1 19 7
M  V30 12 1 20 4
M  V30 13 1 20 5
M  V30 14 1 20 18
M  V30 15 1 21 12
M  V30 16 1 21 15
M  V30 17 1 22 19
M  V30 18 1 23 2
M  V30 19 1 23 6
M  V30 20 1 23 9 CFG=3
M  V30 21 1 24 4
M  V30 22 1 24 13
M  V30 23 1 26 22
M  V30 24 2 26 25
M  V30 25 1 27 14
M  V30 26 1 28 5
M  V30 27 1 30 11
M  V30 28 1 30 12
M  V30 29 1 31 10
M  V30 30 1 31 25
M  V30 31 1 31 29
M  V30 32 2 32 19
M  V30 33 2 33 10
M  V30 34 1 33 26
M  V30 35 1 34 17
M  V30 36 1 34 23
M  V30 37 1 35 4
M  V30 38 1 35 16
M  V30 39 1 36 1
M  V30 40 1 2 37 CFG=3
M  V30 41 1 38 3
M  V30 42 1 39 3
M  V30 43 1 6 40 CFG=1
M  V30 44 1 41 7
M  V30 45 1 42 7
M  V30 46 1 43 8
M  V30 47 1 44 8
M  V30 48 1 45 9
M  V30 49 1 46 9
M  V30 50 1 47 10
M  V30 51 1 48 11
M  V30 52 1 49 11
M  V30 53 1 50 13
M  V30 54 1 51 13
M  V30 55 1 52 13
M  V30 56 1 14 53 CFG=3
M  V30 57 1 54 15
M  V30 58 1 55 15
M  V30 59 1 56 16
M  V30 60 1 57 16
M  V30 61 1 17 58 CFG=3
M  V30 62 1 59 18
M  V30 63 1 60 18
M  V30 64 1 20 61 CFG=1
M  V30 65 1 62 21
M  V30 66 1 63 21
M  V30 67 1 64 22
M  V30 68 1 65 25
M  V30 69 1 66 27
M  V30 70 1 67 28
M  V30 71 1 68 28
M  V30 72 1 69 28
M  V30 73 1 70 29
M  V30 74 1 71 29
M  V30 75 1 72 29
M  V30 76 1 73 30
M  V30 77 1 74 30
M  V30 78 1 75 33
M  V30 79 1 76 34
M  V30 80 1 77 34
M  V30 81 1 78 35
M  V30 82 1 79 35
M  V30 END BOND
M  V30 END CTAB
M  END
>  <i_epik_Tot_Q>  (1) 
0

>  <i_epik_Tot_abs_Q>  (1) 
0

>  <i_i_glide_confnum>  (1) 
2290

>  <i_i_glide_lignum>  (1) 
77

>  <i_i_glide_posenum>  (1) 
133

>  <i_i_glide_rotatable_bonds>  (1) 
14

>  <i_lp_mmshare_version>  (1) 
72125

>  <i_m_source_file_index>  (1) 
37

>  <i_f3d_flags>  (1) 
0

>  <num_sample>  (1) 
50

>  <b_lp_Chiralities_Consistent>  (1) 
1

>  <r_epik_Charging_Adjusted_Penalty>  (1) 
0

>  <r_epik_Ionization_Penalty>  (1) 
4.0629952699979679e-06

>  <r_epik_Ionization_Penalty_Charging>  (1) 
0

>  <r_epik_Ionization_Penalty_Neutral>  (1) 
4.0629952699979679e-06

>  <r_epik_State_Penalty>  (1) 
-0

>  <r_glide_ring_energy>  (1) 
0

>  <r_i_docking_score>  (1) 
-5.5299998458638449

>  <r_i_glide_ecoul>  (1) 
-3.713084895876134

>  <r_i_glide_eff_state_penalty>  (1) 
-0

>  <r_i_glide_einternal>  (1) 
18.059111919907011

>  <r_i_glide_emodel>  (1) 
-34.580778276314597

>  <r_i_glide_emodel_strain>  (1) 
3.2524192828955165

>  <r_i_glide_energy>  (1) 
-38.877596319990538

>  <r_i_glide_erotb>  (1) 
0.8390941538197072

>  <r_i_glide_esite>  (1) 
-0.031942141636329864

>  <r_i_glide_evdw>  (1) 
-35.164511424114401

>  <r_i_glide_gscore>  (1) 
-5.5299998458638449

>  <r_i_glide_gscore_strain>  (1) 
0

>  <r_i_glide_hbond>  (1) 
0

>  <r_i_glide_ligand_efficiency>  (1) 
-0.15799999559610986

>  <r_i_glide_ligand_efficiency_ln>  (1) 
-1.213957697901082

>  <r_i_glide_ligand_efficiency_sa>  (1) 
-0.51682846260438053

>  <r_i_glide_lipo>  (1) 
-3.3822125635932632

>  <r_i_glide_metal>  (1) 
-0

>  <r_i_glide_rewards>  (1) 
-0.63975098886681925

>  <r_lp_Energy>  (1) 
31.017113999999999

>  <r_lp_tautomer_probability>  (1) 
1

>  <s_epik_cmdline>  (1) 
J2VwaWtfcHl0aG9uJywgJy1waHQnLCAnMS4wJywgJy1waCcsICc3LjQnLCAnLXRuJywgJzgnLCAnLW1hJywgJzUwMCcsICctaW1hZScsICc8aW5maWxlLm1hZT4nLCAnLW9tYWUnLCAnPG91dGZpbGUubWFlPic=

>  <s_epik_input>  (1) 
W09IXVtDQEhdKFtDSDJdMSlbQ0gyXVtDSDJdT1tDSDJdW0NIMl1bQ0gyXVtDQF0xMltDQEBIXShbQ0hdMltDSDJdW0NASF0oT1tDSDNdKUMzKFtDSDJdW0NIMl0zKU9bQ0gzXSlbQ0BIXShbT0hdKVtDSDJdW0NIMl1bQ0gyXUMoPU8pW05IXWM0W2NIXW4oW0NIM10pW2NIXVtjSF00

>  <s_glide_docking_method>  (1) 
confgen

>  <s_i_glide_gridfile>  (1) 
gpcr_5ht2c_6bqh_protein_autoprepared_prepared

>  <s_lp_Force_Field>  (1) 
S-OPLS

>  <s_lp_Variant>  (1) 
DiffSBDD_36-1

>  <s_m_source_file>  (1) 
generated_GPCR_5HT2C_ligand_DiffSBDD_2026-06-23_prepared.sdf

>  <GenAI_Model>  (1) 
DiffSBDD

>  <Protein>  (1) 
GPCR_5HT2C

$$$$
DiffSBDD_14
     RDKit          3D

  0  0  0  0  0  0  0  0  0  0999 V3000
M  V30 BEGIN CTAB
M  V30 COUNTS 58 59 0 0 1
M  V30 BEGIN ATOM
M  V30 1 Cl 42.387246 34.817518 64.967758 0
M  V30 2 C 36.154235 30.357758 59.578349 0
M  V30 3 N 40.430110 36.223255 61.767803 0
M  V30 4 C 39.647324 35.166322 61.448508 0
M  V30 5 C 38.691143 29.391706 53.214173 0
M  V30 6 C 39.436805 31.492375 49.845048 0
M  V30 7 C 39.701439 29.009625 49.923567 0
M  V30 8 C 37.586819 30.847357 59.334053 0 CFG=1
M  V30 9 C 39.404719 31.197968 55.388479 0
M  V30 10 C 41.317513 34.913532 63.617312 0
M  V30 11 C 39.874231 30.198948 50.505252 0
M  V30 12 C 41.245154 36.086649 62.840299 0
M  V30 13 O 40.322777 31.154179 61.408232 0 CHG=-1
M  V30 14 N 38.396860 30.723877 60.562302 0 CHG=1
M  V30 15 C 40.531578 30.329762 51.850091 0
M  V30 16 C 37.742029 29.640293 54.397300 0
M  V30 17 C 40.503767 33.826019 63.274572 0
M  V30 18 C 39.362963 31.800438 60.804929 0 CFG=1
M  V30 19 C 39.646618 33.956014 62.170650 0
M  V30 20 C 38.729888 32.817249 61.770954 0
M  V30 21 C 37.615494 30.244995 56.856049 0
M  V30 22 C 38.532131 29.968776 55.671152 0 CFG=2
M  V30 23 C 40.354765 30.888924 54.244099 0
M  V30 24 N 39.618927 30.538813 52.997217 0 CFG=2 CHG=1
M  V30 25 C 38.298474 30.078541 58.212540 0
M  V30 26 H 35.520897 30.537755 58.710882 0
M  V30 27 H 36.130259 29.291549 59.767847 0
M  V30 28 H 35.689448 30.871593 60.420047 0
M  V30 29 H 38.996438 35.294163 60.595712 0
M  V30 30 H 38.095190 29.202692 52.321820 0
M  V30 31 H 39.267914 28.484115 53.394238 0
M  V30 32 H 40.315986 32.019387 49.504838 0
M  V30 33 H 38.845337 31.337772 48.948469 0
M  V30 34 H 38.877900 32.137751 50.520875 0
M  V30 35 H 40.020668 28.095779 50.404097 0
M  V30 36 H 39.245132 28.937783 48.967768 0
M  V30 37 H 37.508259 31.902158 59.063124 0
M  V30 38 H 38.789583 32.066590 55.144895 0
M  V30 39 H 39.988385 31.477490 56.264597 0
M  V30 40 H 41.865513 36.937214 63.077605 0
M  V30 41 H 37.810095 30.662054 61.377343 0
M  V30 42 H 41.077153 29.397244 52.005108 0
M  V30 43 H 41.245140 31.150258 51.767784 0
M  V30 44 H 37.057388 30.457406 54.167753 0
M  V30 45 H 37.122572 28.757626 54.558087 0
M  V30 46 H 40.530405 32.911050 63.850383 0
M  V30 47 H 39.554070 32.333110 59.872688 0
M  V30 48 H 37.832379 33.244145 61.319263 0
M  V30 49 H 38.394798 32.314013 62.678392 0
M  V30 50 H 37.245155 31.261281 56.755880 0
M  V30 51 H 36.745479 29.595343 56.824280 0
M  V30 52 H 39.165151 29.110259 55.909546 0
M  V30 53 H 41.006716 30.088616 54.567750 0
M  V30 54 H 41.004989 31.737709 54.107919 0
M  V30 55 H 38.364496 29.015932 58.452740 0
M  V30 56 H 39.326220 30.433018 58.151209 0
M  V30 57 H 39.055334 31.346525 52.771427 0
M  V30 58 H 38.958840 29.887671 60.517637 0
M  V30 END ATOM
M  V30 BEGIN BOND
M  V30 1 1 4 3
M  V30 2 1 8 2
M  V30 3 1 10 1
M  V30 4 1 11 6
M  V30 5 2 11 7
M  V30 6 2 12 3
M  V30 7 1 12 10
M  V30 8 1 14 8
M  V30 9 1 15 11
M  V30 10 1 16 5
M  V30 11 2 17 10
M  V30 12 1 18 13
M  V30 13 1 18 14
M  V30 14 2 19 4
M  V30 15 1 19 17
M  V30 16 1 20 18
M  V30 17 1 20 19
M  V30 18 1 22 9
M  V30 19 1 22 16
M  V30 20 1 22 21
M  V30 21 1 23 9
M  V30 22 1 24 5
M  V30 23 1 24 15
M  V30 24 1 24 23
M  V30 25 1 25 8
M  V30 26 1 25 21
M  V30 27 1 26 2
M  V30 28 1 27 2
M  V30 29 1 28 2
M  V30 30 1 29 4
M  V30 31 1 30 5
M  V30 32 1 31 5
M  V30 33 1 32 6
M  V30 34 1 33 6
M  V30 35 1 34 6
M  V30 36 1 35 7
M  V30 37 1 36 7
M  V30 38 1 8 37 CFG=3
M  V30 39 1 38 9
M  V30 40 1 39 9
M  V30 41 1 40 12
M  V30 42 1 41 14
M  V30 43 1 42 15
M  V30 44 1 43 15
M  V30 45 1 44 16
M  V30 46 1 45 16
M  V30 47 1 46 17
M  V30 48 1 18 47 CFG=3
M  V30 49 1 48 20
M  V30 50 1 49 20
M  V30 51 1 50 21
M  V30 52 1 51 21
M  V30 53 1 22 52 CFG=1
M  V30 54 1 53 23
M  V30 55 1 54 23
M  V30 56 1 55 25
M  V30 57 1 56 25
M  V30 58 1 24 57 CFG=3
M  V30 59 1 58 14
M  V30 END BOND
M  V30 END CTAB
M  END
>  <i_epik_Tot_Q>  (1) 
1

>  <i_epik_Tot_abs_Q>  (1) 
3

>  <i_i_glide_confnum>  (1) 
100

>  <i_i_glide_lignum>  (1) 
29

>  <i_i_glide_posenum>  (1) 
135

>  <i_i_glide_rotatable_bonds>  (1) 
9

>  <i_lp_mmshare_version>  (1) 
72125

>  <i_m_source_file_index>  (1) 
15

>  <i_f3d_flags>  (1) 
0

>  <num_sample>  (1) 
50

>  <b_lp_Chiralities_Consistent>  (1) 
1

>  <r_epik_Charging_Adjusted_Penalty>  (1) 
1.1654849776379888

>  <r_epik_Ionization_Penalty>  (1) 
0.58785290175030958

>  <r_epik_Ionization_Penalty_Charging>  (1) 
0.58784809198166499

>  <r_epik_Ionization_Penalty_Neutral>  (1) 
4.8097686445928234e-06

>  <r_epik_State_Penalty>  (1) 
0.57763688565632376

>  <r_glide_ring_energy>  (1) 
0

>  <r_i_docking_score>  (1) 
-5.5242083264312969

>  <r_i_glide_ecoul>  (1) 
-2.2511588555427262

>  <r_i_glide_eff_state_penalty>  (1) 
0.57763688565632376

>  <r_i_glide_einternal>  (1) 
2.2657711610015188

>  <r_i_glide_emodel>  (1) 
-41.104341965529471

>  <r_i_glide_emodel_strain>  (1) 
0.17815307218437582

>  <r_i_glide_energy>  (1) 
-25.16808511381797

>  <r_i_glide_erotb>  (1) 
1.143828235945936

>  <r_i_glide_esite>  (1) 
0

>  <r_i_glide_evdw>  (1) 
-22.916926258275243

>  <r_i_glide_gscore>  (1) 
-6.1018452120876203

>  <r_i_glide_gscore_strain>  (1) 
0

>  <r_i_glide_hbond>  (1) 
0

>  <r_i_glide_ligand_efficiency>  (1) 
-0.22096833305725189

>  <r_i_glide_ligand_efficiency_ln>  (1) 
-1.3094029205289244

>  <r_i_glide_ligand_efficiency_sa>  (1) 
-0.64611532544273298

>  <r_i_glide_lipo>  (1) 
-3.1263697941447468

>  <r_i_glide_metal>  (1) 
-0

>  <r_i_glide_rewards>  (1) 
-2.6357835126436382

>  <r_lp_Energy>  (1) 
30.160715

>  <s_epik_Chemistry_Notes>  (1) 
This compound contains an acetal/aminal-like group ( X-CH(R)-Y where X, Y are N, S, or O) that may be acid/base labile, releasing an aldehyde.

>  <s_epik_cmdline>  (1) 
J2VwaWtfcHl0aG9uJywgJy1waHQnLCAnMS4wJywgJy1waCcsICc3LjQnLCAnLXRuJywgJzgnLCAnLW1hJywgJzUwMCcsICctaW1hZScsICc8aW5maWxlLm1hZT4nLCAnLW9tYWUnLCAnPG91dGZpbGUubWFlPic=

>  <s_epik_input>  (1) 
Q2xjMVtjSF1uW2NIXWMoW2NIXTEpW0NIMl1bQ0BASF0oW09IXSlbTkhdW0NASF0oW0NIM10pW0NIMl1bQ0gyXVtDSF0yW0NIMl1bQ0gyXU4oW0NIMl1bQ0gyXTIpW0NIMl1DKFtDSDNdKT1bQ0gyXQ==

>  <s_glide_docking_method>  (1) 
confgen

>  <s_i_glide_gridfile>  (1) 
gpcr_5ht2c_6bqh_protein_autoprepared_prepared

>  <s_lp_Force_Field>  (1) 
S-OPLS

>  <s_lp_Variant>  (1) 
DiffSBDD_14-3

>  <s_m_source_file>  (1) 
generated_GPCR_5HT2C_ligand_DiffSBDD_2026-06-23_prepared.sdf

>  <GenAI_Model>  (1) 
DiffSBDD

>  <Protein>  (1) 
GPCR_5HT2C

$$$$
DiffSBDD_2
     RDKit          3D

  0  0  0  0  0  0  0  0  0  0999 V3000
M  V30 BEGIN CTAB
M  V30 COUNTS 85 88 0 0 1
M  V30 BEGIN ATOM
M  V30 1 C 37.325338 35.599837 61.929996 0 CFG=1
M  V30 2 C 38.553930 26.390790 54.712666 0
M  V30 3 C 35.645119 29.746421 58.745859 0
M  V30 4 C 36.560386 37.742090 60.788263 0
M  V30 5 C 39.348965 27.140260 55.447438 0
M  V30 6 C 37.645476 34.494149 58.884384 0
M  V30 7 C 39.534879 29.614135 55.309630 0 CFG=2
M  V30 8 C 38.482118 36.751351 63.818669 0
M  V30 9 C 37.125067 33.084904 59.067923 0
M  V30 10 C 38.787368 30.101673 57.543818 0 CFG=1
M  V30 11 N 38.997405 28.395918 55.886736 0
M  V30 12 C 36.233443 34.487678 61.992739 0
M  V30 13 C 37.695622 24.534191 57.067662 0
M  V30 14 C 38.978816 30.757868 56.169758 0
M  V30 15 N 37.786609 30.813904 58.387867 0 CFG=2 CHG=1
M  V30 16 C 40.045148 25.608135 57.362585 0
M  V30 17 C 37.762425 25.342948 54.709073 0
M  V30 18 C 38.401177 28.665663 57.176302 0
M  V30 19 C 38.285799 32.084949 58.952993 0 CFG=2
M  V30 20 C 36.858259 25.055870 55.893843 0
M  V30 21 C 40.508236 26.512835 56.210132 0
M  V30 22 C 39.897090 30.828430 53.062526 0
M  V30 23 C 39.523683 36.221693 62.854579 0
M  V30 24 C 40.160120 30.502033 51.583516 0
M  V30 25 C 36.795385 35.697950 59.319161 0
M  V30 26 C 39.220159 29.663739 53.800132 0 CFG=2
M  V30 27 C 38.786051 35.083772 62.159491 0
M  V30 28 F 37.245112 23.502861 57.767713 0
M  V30 29 S 36.374641 38.114860 62.532678 0
M  V30 30 C 37.711016 29.605633 53.536118 0
M  V30 31 C 39.076048 31.904957 60.268775 0
M  V30 32 C 38.876025 25.015902 57.368083 0
M  V30 33 C 37.289374 36.413531 60.598983 0 CFG=2
M  V30 34 C 37.021479 29.976551 59.341154 0
M  V30 35 C 37.121196 36.580101 63.120309 0 CFG=1
M  V30 36 H 35.199420 28.821252 59.098873 0
M  V30 37 H 34.987302 30.586002 58.967758 0
M  V30 38 H 35.685022 29.737238 57.661528 0
M  V30 39 H 37.134314 38.537956 60.317281 0
M  V30 40 H 35.578297 37.737693 60.323111 0
M  V30 41 H 38.615811 34.538111 59.367847 0
M  V30 42 H 37.832857 34.537894 57.810114 0
M  V30 43 H 40.616412 29.572514 55.437546 0
M  V30 44 H 38.701188 37.749433 64.158807 0
M  V30 45 H 38.511542 36.137755 64.716668 0
M  V30 46 H 36.445115 32.937710 58.241768 0
M  V30 47 H 36.547600 32.917664 59.968479 0
M  V30 48 H 39.745798 30.060979 58.059289 0
M  V30 49 H 35.641192 34.532667 62.902876 0
M  V30 50 H 35.492571 34.529495 61.201130 0
M  V30 51 H 36.686630 33.497830 62.000165 0
M  V30 52 H 38.015474 31.103241 55.796584 0
M  V30 53 H 39.650356 31.616230 56.188712 0
M  V30 54 H 40.785895 25.375531 58.114167 0
M  V30 55 H 38.045394 24.458498 54.167994 0
M  V30 56 H 37.329461 28.529979 57.056495 0
M  V30 57 H 38.747128 27.959568 57.930428 0
M  V30 58 H 38.980114 32.493296 58.218707 0
M  V30 59 H 36.347264 25.963469 56.210099 0
M  V30 60 H 36.093907 24.327894 55.620834 0
M  V30 61 H 41.119222 25.922666 55.529620 0
M  V30 62 H 41.155475 27.288138 56.620440 0
M  V30 63 H 39.296582 31.735561 53.151990 0
M  V30 64 H 40.845208 31.050645 53.543560 0
M  V30 65 H 39.802749 36.999766 62.141673 0
M  V30 66 H 40.430099 35.886119 63.357943 0
M  V30 67 H 40.616584 31.339997 51.064948 0
M  V30 68 H 40.841024 29.656856 51.482402 0
M  V30 69 H 39.245447 30.243263 51.052904 0
M  V30 70 H 36.896475 36.454581 58.543123 0
M  V30 71 H 35.728584 35.473113 59.322102 0
M  V30 72 H 39.645134 28.755825 53.370869 0
M  V30 73 H 39.326376 34.828350 61.256008 0
M  V30 74 H 38.845195 34.199733 62.791753 0
M  V30 75 H 37.245236 30.564024 53.767759 0
M  V30 76 H 37.534549 29.337748 52.496631 0
M  V30 77 H 37.199123 28.855260 54.136576 0
M  V30 78 H 39.706132 32.771206 60.464815 0
M  V30 79 H 38.422053 31.790386 61.134836 0
M  V30 80 H 39.734908 31.036494 60.235415 0
M  V30 81 H 38.314303 36.713942 60.380370 0
M  V30 82 H 37.535150 29.042311 59.565522 0
M  V30 83 H 36.872946 30.459760 60.304531 0
M  V30 84 H 36.432477 36.207373 63.877632 0
M  V30 85 H 37.072341 31.115980 57.729540 0
M  V30 END ATOM
M  V30 BEGIN BOND
M  V30 1 2 5 2
M  V30 2 1 9 6
M  V30 3 1 11 5
M  V30 4 1 11 7
M  V30 5 1 1 12 CFG=3
M  V30 6 1 14 7
M  V30 7 1 14 10
M  V30 8 1 15 10
M  V30 9 2 17 2
M  V30 10 1 18 10
M  V30 11 1 18 11
M  V30 12 1 19 9
M  V30 13 1 19 15
M  V30 14 1 20 13
M  V30 15 1 20 17
M  V30 16 1 21 5
M  V30 17 1 21 16
M  V30 18 1 23 8
M  V30 19 1 24 22
M  V30 20 1 25 6
M  V30 21 1 26 7
M  V30 22 1 26 22
M  V30 23 1 27 1
M  V30 24 1 27 23
M  V30 25 1 28 13
M  V30 26 1 29 4
M  V30 27 1 30 26
M  V30 28 1 31 19
M  V30 29 2 32 13
M  V30 30 2 32 16
M  V30 31 1 33 1
M  V30 32 1 33 4
M  V30 33 1 33 25
M  V30 34 1 34 3
M  V30 35 1 34 15
M  V30 36 1 35 1
M  V30 37 1 35 8
M  V30 38 1 35 29
M  V30 39 1 36 3
M  V30 40 1 37 3
M  V30 41 1 38 3
M  V30 42 1 39 4
M  V30 43 1 40 4
M  V30 44 1 41 6
M  V30 45 1 42 6
M  V30 46 1 7 43 CFG=3
M  V30 47 1 44 8
M  V30 48 1 45 8
M  V30 49 1 46 9
M  V30 50 1 47 9
M  V30 51 1 10 48 CFG=1
M  V30 52 1 49 12
M  V30 53 1 50 12
M  V30 54 1 51 12
M  V30 55 1 52 14
M  V30 56 1 53 14
M  V30 57 1 54 16
M  V30 58 1 55 17
M  V30 59 1 56 18
M  V30 60 1 57 18
M  V30 61 1 19 58 CFG=3
M  V30 62 1 59 20
M  V30 63 1 60 20
M  V30 64 1 61 21
M  V30 65 1 62 21
M  V30 66 1 63 22
M  V30 67 1 64 22
M  V30 68 1 65 23
M  V30 69 1 66 23
M  V30 70 1 67 24
M  V30 71 1 68 24
M  V30 72 1 69 24
M  V30 73 1 70 25
M  V30 74 1 71 25
M  V30 75 1 26 72 CFG=3
M  V30 76 1 73 27
M  V30 77 1 74 27
M  V30 78 1 75 30
M  V30 79 1 76 30
M  V30 80 1 77 30
M  V30 81 1 78 31
M  V30 82 1 79 31
M  V30 83 1 80 31
M  V30 84 1 33 81 CFG=3
M  V30 85 1 82 34
M  V30 86 1 83 34
M  V30 87 1 35 84 CFG=1
M  V30 88 1 15 85 CFG=3
M  V30 END BOND
M  V30 END CTAB
M  END
>  <i_epik_Tot_Q>  (1) 
1

>  <i_epik_Tot_abs_Q>  (1) 
1

>  <i_i_glide_confnum>  (1) 
835

>  <i_i_glide_lignum>  (1) 
10

>  <i_i_glide_posenum>  (1) 
287

>  <i_i_glide_rotatable_bonds>  (1) 
10

>  <i_lp_mmshare_version>  (1) 
72125

>  <i_m_source_file_index>  (1) 
3

>  <i_f3d_flags>  (1) 
0

>  <num_sample>  (1) 
50

>  <b_lp_Chiralities_Consistent>  (1) 
1

>  <r_epik_Charging_Adjusted_Penalty>  (1) 
0.074245454784308482

>  <r_epik_Ionization_Penalty>  (1) 
0.013686655559845946

>  <r_epik_Ionization_Penalty_Charging>  (1) 
0.012771505238954846

>  <r_epik_Ionization_Penalty_Neutral>  (1) 
0.00091515032089109971

>  <r_epik_State_Penalty>  (1) 
0.06147394954535363

>  <r_glide_ring_energy>  (1) 
1.3016869551617385

>  <r_i_docking_score>  (1) 
-5.514399931541587

>  <r_i_glide_ecoul>  (1) 
-3.0082384579084893

>  <r_i_glide_eff_state_penalty>  (1) 
0.06147394954535363

>  <r_i_glide_einternal>  (1) 
14.805479496472056

>  <r_i_glide_emodel>  (1) 
-20.590940265512351

>  <r_i_glide_emodel_strain>  (1) 
11.944875067473845

>  <r_i_glide_energy>  (1) 
-35.625319496314596

>  <r_i_glide_erotb>  (1) 
0.64899532480163924

>  <r_i_glide_esite>  (1) 
-0.080498205563646119

>  <r_i_glide_evdw>  (1) 
-32.617081038406106

>  <r_i_glide_gscore>  (1) 
-5.5758738810869408

>  <r_i_glide_gscore_strain>  (1) 
1.9862187668684612

>  <r_i_glide_hbond>  (1) 
-0.19140457415814233

>  <r_i_glide_ligand_efficiency>  (1) 
-0.15755428375833105

>  <r_i_glide_ligand_efficiency_ln>  (1) 
-1.2105331704859021

>  <r_i_glide_ligand_efficiency_sa>  (1) 
-0.51537050962777009

>  <r_i_glide_lipo>  (1) 
-4.5837066176173478

>  <r_i_glide_metal>  (1) 
-0

>  <r_i_glide_rewards>  (1) 
-1.2733887548113247

>  <r_lp_Energy>  (1) 
18.681577999999998

>  <s_epik_cmdline>  (1) 
J2VwaWtfcHl0aG9uJywgJy1waHQnLCAnMS4wJywgJy1waCcsICc3LjQnLCAnLXRuJywgJzgnLCAnLW1hJywgJzUwMCcsICctaW1hZScsICc8aW5maWxlLm1hZT4nLCAnLW9tYWUnLCAnPG91dGZpbGUubWFlPic=

>  <s_epik_input>  (1) 
W0NIMl0xW0NIMl1bQ0gyXVtDQEhdKFtDQF0xMltDSDNdKVNbQ0gyXVtDQEBIXTJbQ0gyXVtDSDJdW0NIMl1bQ0BASF0oW0NIM10pTihbQ0gyXVtDSDNdKVtDQEhdKFtDSDJdMylbQ0gyXU4oW0NASF0zW0NAQEhdKFtDSDNdKVtDSDJdW0NIM10pQzQ9Qz1bQ0hdW0NIMl1DKEYpPUM9W0NIXVtDSDJdNA==

>  <s_glide_docking_method>  (1) 
confgen

>  <s_i_glide_gridfile>  (1) 
gpcr_5ht2c_6bqh_protein_autoprepared_prepared

>  <s_lp_Force_Field>  (1) 
S-OPLS

>  <s_lp_Variant>  (1) 
DiffSBDD_2-2

>  <s_m_source_file>  (1) 
generated_GPCR_5HT2C_ligand_DiffSBDD_2026-06-23_prepared.sdf

>  <GenAI_Model>  (1) 
DiffSBDD

>  <Protein>  (1) 
GPCR_5HT2C

$$$$
DiffSBDD_0
     RDKit          3D

  0  0  0  0  0  0  0  0  0  0999 V3000
M  V30 BEGIN CTAB
M  V30 COUNTS 73 75 0 0 1
M  V30 BEGIN ATOM
M  V30 1 C 40.046958 30.858170 50.720803 0
M  V30 2 C 39.016531 27.244183 51.952674 0
M  V30 3 O 41.540970 29.160606 63.838336 0
M  V30 4 C 39.420740 29.941654 52.965401 0
M  V30 5 C 37.985708 32.239462 58.962957 0 CFG=2
M  V30 6 C 37.999810 29.405983 58.120992 0
M  V30 7 C 40.713948 31.370089 63.577580 0
M  V30 8 C 40.728001 32.573857 62.579728 0 CFG=1
M  V30 9 C 40.883437 35.093099 62.501258 0
M  V30 10 C 39.695340 32.324228 61.435541 0
M  V30 11 N 39.070795 33.511876 60.833210 0
M  V30 12 O 36.684326 32.661219 59.367717 0
M  V30 13 C 39.520799 28.360330 51.013626 0
M  V30 14 C 41.180643 34.042196 64.596245 0
M  V30 15 C 38.887006 29.056882 55.331873 0 CFG=1
M  V30 16 C 38.862364 33.437498 59.378756 0
M  V30 17 C 38.890404 27.645966 53.413811 0
M  V30 18 C 38.596167 27.520026 55.685556 0
M  V30 19 C 38.038098 31.875230 57.434619 0 CFG=1
M  V30 20 C 41.207549 30.032812 63.010857 0
M  V30 21 N 40.515179 33.880776 63.282034 0 CHG=1
M  V30 22 C 41.161362 35.536938 64.871843 0
M  V30 23 F 41.116437 30.536743 49.994445 0
M  V30 24 C 39.056893 28.866316 53.858597 0
M  V30 25 C 39.645205 29.737018 51.651798 0
M  V30 26 O 39.245142 31.963631 56.967722 0 CHG=-1
M  V30 27 N 37.645129 30.461870 57.130405 0 CFG=1 CHG=1
M  V30 28 C 38.583213 26.596030 54.405434 0 CFG=1
M  V30 29 C 37.730676 30.040745 55.691085 0
M  V30 30 C 35.807460 31.624009 59.770757 0
M  V30 31 O 41.245071 29.912879 61.767832 0 CHG=-1
M  V30 32 O 37.323142 26.007916 54.180028 0
M  V30 33 C 41.385569 36.137725 63.491259 0
M  V30 34 H 39.244960 31.100208 50.024463 0
M  V30 35 H 40.297503 31.737749 51.302283 0
M  V30 36 H 39.645131 26.360349 51.869207 0
M  V30 37 H 38.030278 26.937750 51.615651 0
M  V30 38 H 39.531249 30.938765 53.367875 0
M  V30 39 H 38.333062 31.414278 59.566603 0
M  V30 40 H 39.077679 29.247732 58.165530 0
M  V30 41 H 37.630918 29.590658 59.124726 0
M  V30 42 H 37.506102 28.471500 57.887345 0
M  V30 43 H 41.368429 31.543841 64.429549 0
M  V30 44 H 39.714316 31.220785 63.986672 0
M  V30 45 H 41.724368 32.615320 62.135943 0
M  V30 46 H 41.645094 34.880027 61.750000 0
M  V30 47 H 40.016491 35.502493 61.985577 0
M  V30 48 H 38.908002 31.656182 61.786914 0
M  V30 49 H 40.219266 31.772105 60.654981 0
M  V30 50 H 38.154372 33.642923 61.251584 0
M  V30 51 H 38.860807 28.434763 50.148754 0
M  V30 52 H 40.496738 28.080519 50.626040 0
M  V30 53 H 40.685180 33.481855 65.390237 0
M  V30 54 H 42.215428 33.701978 64.524301 0
M  V30 55 H 39.836552 29.397154 55.749623 0
M  V30 56 H 39.834173 33.389009 58.892975 0
M  V30 57 H 38.388591 34.349697 59.023960 0
M  V30 58 H 37.636820 27.393354 56.171392 0
M  V30 59 H 39.344181 27.158577 56.392440 0
M  V30 60 H 37.281228 32.516763 56.984651 0
M  V30 61 H 40.185429 35.836758 65.254728 0
M  V30 62 H 41.912610 35.848103 65.599103 0
M  V30 63 H 39.373008 25.843499 54.429197 0
M  V30 64 H 37.790588 30.937918 55.071706 0
M  V30 65 H 36.782093 29.588344 55.412639 0
M  V30 66 H 34.851163 32.056263 60.065447 0
M  V30 67 H 35.614399 30.913957 58.968091 0
M  V30 68 H 36.208055 31.085963 60.630413 0
M  V30 69 H 37.159287 25.368109 54.855827 0
M  V30 70 H 40.845380 37.077706 63.367716 0
M  V30 71 H 42.445273 36.334593 63.336997 0
M  V30 72 H 39.523735 33.950865 63.457390 0
M  V30 73 H 36.642951 30.599687 57.237782 0
M  V30 END ATOM
M  V30 BEGIN BOND
M  V30 1 1 8 7
M  V30 2 1 10 8
M  V30 3 1 11 10
M  V30 4 1 12 5
M  V30 5 1 13 2
M  V30 6 1 16 5
M  V30 7 1 16 11
M  V30 8 1 17 2
M  V30 9 1 18 15
M  V30 10 1 19 5
M  V30 11 2 20 3
M  V30 12 1 20 7
M  V30 13 1 21 8
M  V30 14 1 21 9
M  V30 15 1 21 14
M  V30 16 1 22 14
M  V30 17 1 23 1
M  V30 18 1 24 4
M  V30 19 1 24 15
M  V30 20 2 24 17
M  V30 21 1 25 1
M  V30 22 2 25 4
M  V30 23 1 25 13
M  V30 24 1 26 19
M  V30 25 1 27 6
M  V30 26 1 27 19
M  V30 27 1 28 17
M  V30 28 1 28 18
M  V30 29 1 29 15
M  V30 30 1 29 27
M  V30 31 1 30 12
M  V30 32 1 31 20
M  V30 33 1 32 28
M  V30 34 1 33 9
M  V30 35 1 33 22
M  V30 36 1 34 1
M  V30 37 1 35 1
M  V30 38 1 36 2
M  V30 39 1 37 2
M  V30 40 1 38 4
M  V30 41 1 5 39 CFG=1
M  V30 42 1 40 6
M  V30 43 1 41 6
M  V30 44 1 42 6
M  V30 45 1 43 7
M  V30 46 1 44 7
M  V30 47 1 8 45 CFG=3
M  V30 48 1 46 9
M  V30 49 1 47 9
M  V30 50 1 48 10
M  V30 51 1 49 10
M  V30 52 1 50 11
M  V30 53 1 51 13
M  V30 54 1 52 13
M  V30 55 1 53 14
M  V30 56 1 54 14
M  V30 57 1 15 55 CFG=1
M  V30 58 1 56 16
M  V30 59 1 57 16
M  V30 60 1 58 18
M  V30 61 1 59 18
M  V30 62 1 19 60 CFG=3
M  V30 63 1 61 22
M  V30 64 1 62 22
M  V30 65 1 28 63 CFG=1
M  V30 66 1 64 29
M  V30 67 1 65 29
M  V30 68 1 66 30
M  V30 69 1 67 30
M  V30 70 1 68 30
M  V30 71 1 69 32
M  V30 72 1 70 33
M  V30 73 1 71 33
M  V30 74 1 72 21
M  V30 75 1 27 73 CFG=1
M  V30 END BOND
M  V30 END CTAB
M  END
>  <i_epik_Tot_Q>  (1) 
0

>  <i_epik_Tot_abs_Q>  (1) 
4

>  <i_i_glide_confnum>  (1) 
2299

>  <i_i_glide_lignum>  (1) 
2

>  <i_i_glide_posenum>  (1) 
330

>  <i_i_glide_rotatable_bonds>  (1) 
14

>  <i_lp_mmshare_version>  (1) 
72125

>  <i_m_source_file_index>  (1) 
1

>  <i_f3d_flags>  (1) 
0

>  <num_sample>  (1) 
50

>  <b_lp_Chiralities_Consistent>  (1) 
1

>  <r_epik_Charging_Adjusted_Penalty>  (1) 
0.35910314693592993

>  <r_epik_Ionization_Penalty>  (1) 
0.058337682991089858

>  <r_epik_Ionization_Penalty_Charging>  (1) 
0.0030320954189955646

>  <r_epik_Ionization_Penalty_Neutral>  (1) 
0.055305587572094292

>  <r_epik_State_Penalty>  (1) 
0.35607105151693436

>  <r_glide_ring_energy>  (1) 
0

>  <r_i_docking_score>  (1) 
-5.4984808646281937

>  <r_i_glide_ecoul>  (1) 
-5.5608123267136556

>  <r_i_glide_eff_state_penalty>  (1) 
0.35607105151693436

>  <r_i_glide_einternal>  (1) 
15.445491595938122

>  <r_i_glide_emodel>  (1) 
-47.502893255126246

>  <r_i_glide_emodel_strain>  (1) 
8.50937816039891

>  <r_i_glide_energy>  (1) 
-43.836826804131562

>  <r_i_glide_erotb>  (1) 
0.82434179411086872

>  <r_i_glide_esite>  (1) 
-0.23299368353552571

>  <r_i_glide_evdw>  (1) 
-38.276014477417903

>  <r_i_glide_gscore>  (1) 
-5.8545519161451285

>  <r_i_glide_gscore_strain>  (1) 
1.1273445400997275

>  <r_i_glide_hbond>  (1) 
-0.3262364719242245

>  <r_i_glide_ligand_efficiency>  (1) 
-0.16662063226146043

>  <r_i_glide_ligand_efficiency_ln>  (1) 
-1.2228336746830539

>  <r_i_glide_ligand_efficiency_sa>  (1) 
-0.53444139806424451

>  <r_i_glide_lipo>  (1) 
-3.3965588403279301

>  <r_i_glide_metal>  (1) 
-0

>  <r_i_glide_rewards>  (1) 
-1.1025266816901025

>  <r_lp_Energy>  (1) 
38.728972999999996

>  <s_epik_Chemistry_Notes>  (1) 
This compound contains an acetal/aminal-like group ( X-CH(R)-Y where X, Y are N, S, or O) that may be acid/base labile, releasing an aldehyde.

>  <s_epik_cmdline>  (1) 
J2VwaWtfcHl0aG9uJywgJy1waHQnLCAnMS4wJywgJy1waCcsICc3LjQnLCAnLXRuJywgJzgnLCAnLW1hJywgJzUwMCcsICctaW1hZScsICc8aW5maWxlLm1hZT4nLCAnLW9tYWUnLCAnPG91dGZpbGUubWFlPic=

>  <s_epik_input>  (1) 
W0NIMl0xW0NIMl1DKFtDSDJdRik9W0NIXUMoPUMxMilbQ0BIXShbQ0gyXVtDQEhdMltPSF0pW0NIMl1OKFtDSDNdKVtDQEhdKFtPSF0pW0NASF0oT1tDSDNdKVtDSDJdW05IXVtDSDJdW0NASF0oW0NIMl1DKD1PKVtPSF0pTjNbQ0gyXVtDSDJdW0NIMl1bQ0gyXTM=

>  <s_glide_docking_method>  (1) 
confgen

>  <s_i_glide_gridfile>  (1) 
gpcr_5ht2c_6bqh_protein_autoprepared_prepared

>  <s_lp_Force_Field>  (1) 
S-OPLS

>  <s_lp_Variant>  (1) 
DiffSBDD_0-2

>  <s_m_source_file>  (1) 
generated_GPCR_5HT2C_ligand_DiffSBDD_2026-06-23_prepared.sdf

>  <GenAI_Model>  (1) 
DiffSBDD

>  <Protein>  (1) 
GPCR_5HT2C

$$$$
DiffSBDD_48
     RDKit          3D

  0  0  0  0  0  0  0  0  0  0999 V3000
M  V30 BEGIN CTAB
M  V30 COUNTS 78 78 0 0 1
M  V30 BEGIN ATOM
M  V30 1 O 41.973240 32.634583 64.763383 0
M  V30 2 C 36.790288 34.536889 59.111693 0
M  V30 3 C 37.184176 35.817563 59.862922 0
M  V30 4 O 39.802285 29.569737 51.358498 0
M  V30 5 C 36.831943 30.295694 59.364919 0
M  V30 6 C 42.210615 33.295912 65.799592 0
M  V30 7 C 38.033914 27.975917 54.336020 0
M  V30 8 C 41.136419 34.286307 66.253618 0
M  V30 9 C 37.450201 31.130114 60.514676 0
M  V30 10 C 38.113191 35.625899 61.072581 0
M  V30 11 N 37.765542 32.522226 60.166887 0
M  V30 12 C 40.028155 36.574807 65.927072 0
M  V30 13 C 37.759828 30.009039 58.172856 0
M  V30 14 C 39.277661 29.372017 52.619902 0
M  V30 15 C 39.599304 28.586363 50.352775 0
M  V30 16 C 41.191063 35.645218 65.496898 0 CFG=2
M  V30 17 C 41.313489 35.539781 63.948726 0
M  V30 18 C 39.516048 30.541738 53.551399 0
M  V30 19 O 39.775920 26.335781 54.681053 0
M  V30 20 C 39.163451 34.499010 60.932599 0 CFG=2
M  V30 21 C 40.136182 34.856873 63.234994 0
M  V30 22 O 43.245144 33.223089 66.494642 0 CHG=-1
M  V30 23 C 38.947352 29.086803 58.508561 0
M  V30 24 O 40.096694 36.867138 67.307673 0
M  V30 25 C 38.960363 27.105321 55.192733 0
M  V30 26 C 39.595629 28.460940 57.259060 0
M  V30 27 C 38.582424 33.094420 61.243325 0
M  V30 28 C 36.535019 33.305260 59.991201 0
M  V30 29 C 38.622965 28.236332 52.959147 0
M  V30 30 N 40.359461 34.780031 61.772153 0 CHG=1
M  V30 31 C 38.823738 27.231222 56.718321 0 CFG=2
M  V30 32 C 39.230079 25.931400 57.442885 0
M  V30 33 H 37.527984 34.298584 58.343628 0
M  V30 34 H 35.871205 34.753008 58.567762 0
M  V30 35 H 37.644217 36.506313 59.153600 0
M  V30 36 H 36.280597 36.325102 60.200546 0
M  V30 37 H 36.507362 29.337914 59.767891 0
M  V30 38 H 35.915060 30.744305 58.987617 0
M  V30 39 H 37.069440 27.480687 54.225582 0
M  V30 40 H 37.852268 28.916819 54.854545 0
M  V30 41 H 41.272757 34.461016 67.321567 0
M  V30 42 H 40.163100 33.808118 66.167791 0
M  V30 43 H 38.355293 30.620660 60.847935 0
M  V30 44 H 36.771243 31.126050 61.367747 0
M  V30 45 H 37.498091 35.437790 61.953473 0
M  V30 46 H 38.606419 36.581155 61.258466 0
M  V30 47 H 39.054560 36.137759 65.720602 0
M  V30 48 H 40.045131 37.515351 65.378849 0
M  V30 49 H 37.152936 29.547225 57.393229 0
M  V30 50 H 38.118871 30.946137 57.745441 0
M  V30 51 H 40.043060 28.937697 49.421063 0
M  V30 52 H 40.069624 27.636489 50.606372 0
M  V30 53 H 38.538233 28.425511 50.168109 0
M  V30 54 H 42.110479 36.136643 65.822144 0
M  V30 55 H 41.431453 36.537761 63.534605 0
M  V30 56 H 42.242379 35.031387 63.690572 0
M  V30 57 H 38.571433 30.948185 53.914138 0
M  V30 58 H 40.119295 30.236073 54.405337 0
M  V30 59 H 40.047447 31.337743 53.030674 0
M  V30 60 H 39.543980 34.498874 59.910036 0
M  V30 61 H 39.987897 33.848197 63.619129 0
M  V30 62 H 39.234636 35.427900 63.440763 0
M  V30 63 H 39.695804 29.667274 59.049476 0
M  V30 64 H 38.632523 28.294760 59.188806 0
M  V30 65 H 39.316182 37.337227 67.560603 0
M  V30 66 H 39.697385 29.234491 56.497233 0
M  V30 67 H 40.616677 28.160604 57.499218 0
M  V30 68 H 39.423891 32.418678 61.405945 0
M  V30 69 H 38.018792 33.105375 62.176451 0
M  V30 70 H 35.785626 32.720889 59.463039 0
M  V30 71 H 36.078495 33.569870 60.946189 0
M  V30 72 H 38.496775 27.445921 52.235650 0
M  V30 73 H 40.742484 35.664756 61.471370 0
M  V30 74 H 37.759984 27.388235 56.897659 0
M  V30 75 H 38.693452 25.069691 57.043871 0
M  V30 76 H 40.297722 25.732091 57.339217 0
M  V30 77 H 39.007392 25.987245 58.508507 0
M  V30 78 H 41.051556 34.062313 61.608658 0
M  V30 END ATOM
M  V30 BEGIN BOND
M  V30 1 1 3 2
M  V30 2 2 6 1
M  V30 3 1 8 6
M  V30 4 1 9 5
M  V30 5 1 10 3
M  V30 6 1 11 9
M  V30 7 1 13 5
M  V30 8 1 14 4
M  V30 9 1 15 4
M  V30 10 1 16 8
M  V30 11 1 16 12
M  V30 12 1 17 16
M  V30 13 1 18 14
M  V30 14 1 20 10
M  V30 15 1 21 17
M  V30 16 1 22 6
M  V30 17 1 23 13
M  V30 18 1 24 12
M  V30 19 1 25 7
M  V30 20 2 25 19
M  V30 21 1 26 23
M  V30 22 1 27 11
M  V30 23 1 27 20
M  V30 24 1 28 2
M  V30 25 1 28 11
M  V30 26 1 29 7
M  V30 27 2 29 14
M  V30 28 1 30 20
M  V30 29 1 30 21
M  V30 30 1 31 25
M  V30 31 1 31 26
M  V30 32 1 32 31
M  V30 33 1 33 2
M  V30 34 1 34 2
M  V30 35 1 35 3
M  V30 36 1 36 3
M  V30 37 1 37 5
M  V30 38 1 38 5
M  V30 39 1 39 7
M  V30 40 1 40 7
M  V30 41 1 41 8
M  V30 42 1 42 8
M  V30 43 1 43 9
M  V30 44 1 44 9
M  V30 45 1 45 10
M  V30 46 1 46 10
M  V30 47 1 47 12
M  V30 48 1 48 12
M  V30 49 1 49 13
M  V30 50 1 50 13
M  V30 51 1 51 15
M  V30 52 1 52 15
M  V30 53 1 53 15
M  V30 54 1 16 54 CFG=1
M  V30 55 1 55 17
M  V30 56 1 56 17
M  V30 57 1 57 18
M  V30 58 1 58 18
M  V30 59 1 59 18
M  V30 60 1 20 60 CFG=3
M  V30 61 1 61 21
M  V30 62 1 62 21
M  V30 63 1 63 23
M  V30 64 1 64 23
M  V30 65 1 65 24
M  V30 66 1 66 26
M  V30 67 1 67 26
M  V30 68 1 68 27
M  V30 69 1 69 27
M  V30 70 1 70 28
M  V30 71 1 71 28
M  V30 72 1 72 29
M  V30 73 1 73 30
M  V30 74 1 31 74 CFG=3
M  V30 75 1 75 32
M  V30 76 1 76 32
M  V30 77 1 77 32
M  V30 78 1 78 30
M  V30 END BOND
M  V30 END CTAB
M  END
>  <i_epik_Tot_Q>  (1) 
0

>  <i_epik_Tot_abs_Q>  (1) 
2

>  <i_i_glide_confnum>  (1) 
639

>  <i_i_glide_lignum>  (1) 
102

>  <i_i_glide_posenum>  (1) 
242

>  <i_i_glide_rotatable_bonds>  (1) 
18

>  <i_lp_mmshare_version>  (1) 
72125

>  <i_m_source_file_index>  (1) 
49

>  <i_f3d_flags>  (1) 
0

>  <num_sample>  (1) 
50

>  <b_lp_Chiralities_Consistent>  (1) 
1

>  <r_epik_Charging_Adjusted_Penalty>  (1) 
0.04911624183534407

>  <r_epik_Ionization_Penalty>  (1) 
0.025385742012929795

>  <r_epik_Ionization_Penalty_Charging>  (1) 
0.0065475108590220404

>  <r_epik_Ionization_Penalty_Neutral>  (1) 
0.018838231153907755

>  <r_epik_State_Penalty>  (1) 
0.042568730976322029

>  <r_glide_ring_energy>  (1) 
0

>  <r_i_docking_score>  (1) 
-5.4906245248210501

>  <r_i_glide_ecoul>  (1) 
-1.3640990403761397

>  <r_i_glide_eff_state_penalty>  (1) 
0.042568730976322029

>  <r_i_glide_einternal>  (1) 
11.482455522000741

>  <r_i_glide_emodel>  (1) 
-55.754155066445669

>  <r_i_glide_emodel_strain>  (1) 
0.66948111179566894

>  <r_i_glide_energy>  (1) 
-46.62674143892982

>  <r_i_glide_erotb>  (1) 
1.5544609794247006

>  <r_i_glide_esite>  (1) 
0

>  <r_i_glide_evdw>  (1) 
-45.26264239855368

>  <r_i_glide_gscore>  (1) 
-5.5331932557973724

>  <r_i_glide_gscore_strain>  (1) 
0

>  <r_i_glide_hbond>  (1) 
0

>  <r_i_glide_ligand_efficiency>  (1) 
-0.17158201640065782

>  <r_i_glide_ligand_efficiency_ln>  (1) 
-1.229500499879266

>  <r_i_glide_ligand_efficiency_sa>  (1) 
-0.54473894666645828

>  <r_i_glide_lipo>  (1) 
-3.3959964708179902

>  <r_i_glide_metal>  (1) 
-0

>  <r_i_glide_rewards>  (1) 
-1.2239107884199782

>  <r_lp_Energy>  (1) 
19.305907999999999

>  <r_lp_tautomer_probability>  (1) 
0.99990000499974985

>  <s_epik_cmdline>  (1) 
J2VwaWtfcHl0aG9uJywgJy1waHQnLCAnMS4wJywgJy1waCcsICc3LjQnLCAnLXRuJywgJzgnLCAnLW1hJywgJzUwMCcsICctaW1hZScsICc8aW5maWxlLm1hZT4nLCAnLW9tYWUnLCAnPG91dGZpbGUubWFlPic=

>  <s_epik_input>  (1) 
Tz1DKFtPSF0pW0NIMl1bQ0BASF0oW0NIMl1bT0hdKVtDSDJdW0NIMl1bTkhdW0NASF0oW0NIMl1bQ0gyXVtDSDJdW0NIMl0xKVtDSDJdTjFbQ0gyXVtDSDJdW0NIMl1bQ0gyXVtDSDJdW0NASF0oW0NIM10pQyg9TylbQ0gyXVxbQ0hdPUMoW0NIM10pXE9bQ0gzXQ==

>  <s_glide_docking_method>  (1) 
confgen

>  <s_i_glide_gridfile>  (1) 
gpcr_5ht2c_6bqh_protein_autoprepared_prepared

>  <s_lp_Force_Field>  (1) 
S-OPLS

>  <s_lp_Variant>  (1) 
DiffSBDD_48-4

>  <s_m_source_file>  (1) 
generated_GPCR_5HT2C_ligand_DiffSBDD_2026-06-23_prepared.sdf

>  <GenAI_Model>  (1) 
DiffSBDD

>  <Protein>  (1) 
GPCR_5HT2C

$$$$
DiffSBDD_17
     RDKit          3D

  0  0  0  0  0  0  0  0  0  0999 V3000
M  V30 BEGIN CTAB
M  V30 COUNTS 94 98 0 0 1
M  V30 BEGIN ATOM
M  V30 1 C 42.098810 33.654351 67.055191 0
M  V30 2 C 40.045278 29.839632 59.387847 0 CFG=2
M  V30 3 C 42.228851 32.418445 64.819186 0
M  V30 4 O 38.155799 33.187089 59.498456 0
M  V30 5 C 44.246375 32.511007 66.357531 0
M  V30 6 C 39.310680 27.784339 52.199131 0
M  V30 7 C 39.810296 29.068689 50.119967 0
M  V30 8 C 39.645155 27.853967 50.911877 0
M  V30 9 C 38.474808 27.521955 59.361413 0
M  V30 10 C 40.330025 28.195479 62.082383 0
M  V30 11 N 40.565190 30.465839 64.783291 0
M  V30 12 C 40.836549 27.737729 60.733020 0 CFG=2
M  V30 13 C 40.033850 32.457276 63.377972 0 CFG=1
M  V30 14 C 39.217371 30.592248 60.502877 0
M  V30 15 N 39.645049 30.137307 65.881548 0 CHG=1
M  V30 16 C 39.223593 26.765035 54.226005 0 CFG=2
M  V30 17 C 38.943437 28.898139 53.083905 0 CFG=2
M  V30 18 C 41.567237 28.722963 66.038879 0
M  V30 19 C 40.759339 31.927185 64.655701 0 CFG=2
M  V30 20 O 39.245997 26.583585 52.825523 0
M  V30 21 C 40.405073 29.317614 66.841648 0
M  V30 22 O 40.220023 33.849357 63.261733 0
M  V30 23 N 37.744659 29.776725 56.219300 0 CHG=1
M  V30 24 C 39.650591 30.192648 53.036928 0
M  V30 25 C 39.544641 30.048351 57.928915 0
M  V30 26 C 40.002858 30.338855 50.560365 0
M  V30 27 N 40.709835 28.534952 59.536531 0 CFG=1 CHG=1
M  V30 28 C 38.622174 33.099474 60.828891 0
M  V30 29 S 38.212926 25.522020 55.094209 0
M  V30 30 C 39.732139 32.017175 60.890569 0 CFG=1
M  V30 31 C 40.080103 30.816654 51.939062 0
M  V30 32 N 40.617724 32.032893 62.095264 0 CHG=1
M  V30 33 C 39.960722 27.321954 59.537015 0 CFG=2
M  V30 34 C 37.645030 28.677926 55.215251 0
M  V30 35 C 38.088035 27.925862 57.939911 0
M  V30 36 C 38.945311 28.286173 54.485439 0 CFG=1
M  V30 37 C 38.166644 29.434260 57.610165 0 CFG=2
M  V30 38 N 41.817294 29.689879 64.957370 0 CHG=1
M  V30 39 C 42.713251 32.470231 66.287800 0
M  V30 40 H 42.341357 34.606913 66.582318 0
M  V30 41 H 41.013771 33.587105 67.118532 0
M  V30 42 H 42.470111 33.696723 68.080080 0
M  V30 43 H 41.074167 30.137751 59.491897 0
M  V30 44 H 42.899827 31.833092 64.193115 0
M  V30 45 H 42.343128 33.430391 64.429967 0
M  V30 46 H 37.457101 33.826669 59.446341 0
M  V30 47 H 44.647548 33.336635 65.768233 0
M  V30 48 H 44.593267 32.634118 67.384934 0
M  V30 49 H 44.684076 31.587466 65.978448 0
M  V30 50 H 39.835036 28.937567 49.049164 0
M  V30 51 H 39.829339 26.918807 50.406678 0
M  V30 52 H 38.045455 28.166716 60.124500 0
M  V30 53 H 38.045271 26.537801 59.479265 0
M  V30 54 H 40.750480 27.551540 62.853713 0
M  V30 55 H 40.680134 29.198429 62.306257 0
M  V30 56 H 39.246418 28.112109 62.166079 0
M  V30 57 H 41.892536 27.492673 60.727732 0
M  V30 58 H 38.977457 32.209369 63.367637 0
M  V30 59 H 38.950722 30.044843 61.391363 0
M  V30 60 H 38.220886 30.724623 60.088013 0
M  V30 61 H 39.286996 30.985850 66.298070 0
M  V30 62 H 40.244813 26.561491 54.551137 0
M  V30 63 H 37.931078 29.130579 52.755246 0
M  V30 64 H 41.259928 27.776991 65.586938 0
M  V30 65 H 42.458085 28.537708 66.642077 0
M  V30 66 H 40.204811 32.395469 65.467290 0
M  V30 67 H 39.784287 28.553821 67.299588 0
M  V30 68 H 40.781492 29.962109 67.636398 0
M  V30 69 H 39.539564 34.309902 63.734647 0
M  V30 70 H 36.811434 30.171923 56.314162 0
M  V30 71 H 39.783149 30.687500 53.988044 0
M  V30 72 H 39.475978 31.115727 57.716660 0
M  V30 73 H 40.280185 29.648551 57.230549 0
M  V30 74 H 40.158389 31.084670 49.793417 0
M  V30 75 H 39.000919 34.089535 61.085747 0
M  V30 76 H 37.785385 32.867684 61.491286 0
M  V30 77 H 38.968255 24.468741 54.765240 0
M  V30 78 H 40.445594 32.361404 60.167732 0
M  V30 79 H 40.527455 31.774137 52.084302 0
M  V30 80 H 41.017341 31.116209 62.206711 0
M  V30 81 H 40.407335 26.640133 58.815281 0
M  V30 82 H 37.245141 27.796812 55.660603 0
M  V30 83 H 36.857520 28.970369 54.521795 0
M  V30 84 H 37.060987 27.592643 57.778031 0
M  V30 85 H 38.718800 27.354701 57.260496 0
M  V30 86 H 39.794001 28.648885 55.065069 0
M  V30 87 H 37.425187 29.933514 58.233410 0
M  V30 88 H 42.044949 29.220300 64.089868 0
M  V30 89 H 42.403508 31.565601 66.807826 0
M  V30 90 H 38.898429 29.576596 65.474759 0
M  V30 91 H 42.543083 30.347544 65.222391 0
M  V30 92 H 38.315946 30.524201 55.854156 0
M  V30 93 H 41.362968 32.695224 61.920114 0
M  V30 94 H 41.509487 28.425670 58.926721 0
M  V30 END ATOM
M  V30 BEGIN BOND
M  V30 1 2 8 6
M  V30 2 1 8 7
M  V30 3 1 12 10
M  V30 4 1 14 2
M  V30 5 1 15 11
M  V30 6 1 17 6
M  V30 7 1 19 3
M  V30 8 1 19 11
M  V30 9 1 19 13
M  V30 10 1 20 6
M  V30 11 1 20 16
M  V30 12 1 21 15
M  V30 13 1 21 18
M  V30 14 1 22 13
M  V30 15 1 24 17
M  V30 16 1 25 2
M  V30 17 2 26 7
M  V30 18 1 27 2
M  V30 19 1 27 12
M  V30 20 1 28 4
M  V30 21 1 29 16
M  V30 22 1 30 14
M  V30 23 1 30 28
M  V30 24 2 31 24
M  V30 25 1 31 26
M  V30 26 1 32 13
M  V30 27 1 32 30
M  V30 28 1 33 9
M  V30 29 1 33 12
M  V30 30 1 33 27
M  V30 31 1 34 23
M  V30 32 1 35 9
M  V30 33 1 36 16
M  V30 34 1 36 17
M  V30 35 1 36 34
M  V30 36 1 37 23
M  V30 37 1 37 25
M  V30 38 1 37 35
M  V30 39 1 38 11
M  V30 40 1 38 18
M  V30 41 1 39 1
M  V30 42 1 39 3
M  V30 43 1 39 5
M  V30 44 1 40 1
M  V30 45 1 41 1
M  V30 46 1 42 1
M  V30 47 1 2 43 CFG=3
M  V30 48 1 44 3
M  V30 49 1 45 3
M  V30 50 1 46 4
M  V30 51 1 47 5
M  V30 52 1 48 5
M  V30 53 1 49 5
M  V30 54 1 50 7
M  V30 55 1 51 8
M  V30 56 1 52 9
M  V30 57 1 53 9
M  V30 58 1 54 10
M  V30 59 1 55 10
M  V30 60 1 56 10
M  V30 61 1 12 57 CFG=1
M  V30 62 1 13 58 CFG=3
M  V30 63 1 59 14
M  V30 64 1 60 14
M  V30 65 1 61 15
M  V30 66 1 16 62 CFG=1
M  V30 67 1 17 63 CFG=3
M  V30 68 1 64 18
M  V30 69 1 65 18
M  V30 70 1 19 66 CFG=1
M  V30 71 1 67 21
M  V30 72 1 68 21
M  V30 73 1 69 22
M  V30 74 1 70 23
M  V30 75 1 71 24
M  V30 76 1 72 25
M  V30 77 1 73 25
M  V30 78 1 74 26
M  V30 79 1 75 28
M  V30 80 1 76 28
M  V30 81 1 77 29
M  V30 82 1 30 78 CFG=3
M  V30 83 1 79 31
M  V30 84 1 80 32
M  V30 85 1 33 81 CFG=3
M  V30 86 1 82 34
M  V30 87 1 83 34
M  V30 88 1 84 35
M  V30 89 1 85 35
M  V30 90 1 36 86 CFG=1
M  V30 91 1 37 87 CFG=1
M  V30 92 1 88 38
M  V30 93 1 89 39
M  V30 94 1 90 15
M  V30 95 1 91 38
M  V30 96 1 92 23
M  V30 97 1 93 32
M  V30 98 1 27 94 CFG=3
M  V30 END BOND
M  V30 END CTAB
M  END
>  <i_epik_Tot_Q>  (1) 
5

>  <i_epik_Tot_abs_Q>  (1) 
5

>  <i_i_glide_confnum>  (1) 
2923

>  <i_i_glide_lignum>  (1) 
39

>  <i_i_glide_posenum>  (1) 
36

>  <i_i_glide_rotatable_bonds>  (1) 
15

>  <i_lp_mmshare_version>  (1) 
72125

>  <i_m_source_file_index>  (1) 
18

>  <i_f3d_flags>  (1) 
0

>  <num_sample>  (1) 
50

>  <b_lp_Chiralities_Consistent>  (1) 
1

>  <r_epik_Charging_Adjusted_Penalty>  (1) 
1.9019841067917955

>  <r_epik_Ionization_Penalty>  (1) 
1.8906488358708171

>  <r_epik_Ionization_Penalty_Charging>  (1) 
0.55913698057276895

>  <r_epik_Ionization_Penalty_Neutral>  (1) 
1.3315118552980483

>  <r_epik_State_Penalty>  (1) 
1.3428471262190267

>  <r_glide_ring_energy>  (1) 
0.0045750838620950583

>  <r_i_docking_score>  (1) 
-5.4648007130453955

>  <r_i_glide_ecoul>  (1) 
-7.8271517005582725

>  <r_i_glide_eff_state_penalty>  (1) 
1.3428471262190267

>  <r_i_glide_einternal>  (1) 
17.345490765231705

>  <r_i_glide_emodel>  (1) 
-48.478659482883977

>  <r_i_glide_emodel_strain>  (1) 
9.9565257257021074

>  <r_i_glide_energy>  (1) 
-36.877103979579445

>  <r_i_glide_erotb>  (1) 
0.55832093698931284

>  <r_i_glide_esite>  (1) 
-0.059926638427289361

>  <r_i_glide_evdw>  (1) 
-29.049952279021173

>  <r_i_glide_gscore>  (1) 
-6.8076478392644226

>  <r_i_glide_gscore_strain>  (1) 
1.4891314314255268

>  <r_i_glide_hbond>  (1) 
-0.078206313329764854

>  <r_i_glide_ligand_efficiency>  (1) 
-0.14012309520629218

>  <r_i_glide_ligand_efficiency_ln>  (1) 
-1.171808400470209

>  <r_i_glide_ligand_efficiency_sa>  (1) 
-0.47518704389414168

>  <r_i_glide_lipo>  (1) 
-4.5711816176626154

>  <r_i_glide_metal>  (1) 
-0

>  <r_i_glide_rewards>  (1) 
-1.5192152692247931

>  <r_lp_Energy>  (1) 
89.857205999999991

>  <s_epik_Chemistry_Notes>  (1) 
This compound contains an acetal/aminal-like group ( X-CH(R)-Y where X, Y are N, S, or O) that may be acid/base labile, releasing an aldehyde.

>  <s_epik_cmdline>  (1) 
J2VwaWtfcHl0aG9uJywgJy1waHQnLCAnMS4wJywgJy1waCcsICc3LjQnLCAnLXRuJywgJzgnLCAnLW1hJywgJzUwMCcsICctaW1hZScsICc8aW5maWxlLm1hZT4nLCAnLW9tYWUnLCAnPG91dGZpbGUubWFlPic=

>  <s_epik_input>  (1) 
W05IXTFbQ0gyXVtDSDJdW05IXU4xW0NAQEhdKFtDSDJdW0NIXShbQ0gzXSlbQ0gzXSlbQ0BASF0oW09IXSlbTkhdW0NASF0oW0NIMl1bT0hdKVtDSDJdW0NAQEhdMltDSDJdW0NASF0oW0NIMl1bQ0gyXVtDQEBIXShOMjMpW0NIXTNbQ0gzXSlbTkhdW0NIMl1bQ0BASF0oW0NASF0oTzQpW1NIXSlbQ0BIXShDND01KVtDSF09W0NIXVtDSF09W0NIXVtDSF01

>  <s_glide_docking_method>  (1) 
confgen

>  <s_i_glide_gridfile>  (1) 
gpcr_5ht2c_6bqh_protein_autoprepared_prepared

>  <s_lp_Force_Field>  (1) 
S-OPLS

>  <s_lp_Variant>  (1) 
DiffSBDD_17-6

>  <s_m_source_file>  (1) 
generated_GPCR_5HT2C_ligand_DiffSBDD_2026-06-23_prepared.sdf

>  <GenAI_Model>  (1) 
DiffSBDD

>  <Protein>  (1) 
GPCR_5HT2C

$$$$
DiffSBDD_15
     RDKit          3D

  0  0  0  0  0  0  0  0  0  0999 V3000
M  V30 BEGIN CTAB
M  V30 COUNTS 41 43 0 0 1
M  V30 BEGIN ATOM
M  V30 1 C 40.861249 29.513063 63.152425 0
M  V30 2 O 39.179390 27.857921 55.614911 0
M  V30 3 C 38.646770 26.937640 53.424364 0
M  V30 4 O 38.845034 30.981090 58.588037 0
M  V30 5 C 39.153703 28.643722 59.897916 0
M  V30 6 C 38.531301 30.104344 55.280017 0
M  V30 7 N 38.091947 28.831081 57.361639 0
M  V30 8 C 39.106329 30.415947 61.804235 0
M  V30 9 C 38.181468 27.798345 54.606118 0 CFG=2
M  V30 10 C 38.084996 29.238340 54.105945 0 CFG=2
M  V30 11 C 40.658861 28.565568 61.973896 0
M  V30 12 C 38.800918 27.896161 52.239621 0
M  V30 13 C 39.067420 29.096340 56.303059 0 CFG=1
M  V30 14 C 39.016895 29.259034 52.891993 0
M  V30 15 S 38.120189 29.725222 58.824374 0
M  V30 16 O 36.755300 29.737796 59.367979 0
M  V30 17 N 39.645557 30.344213 63.177015 0 CHG=1
M  V30 18 C 39.942333 29.444457 60.948283 0 CFG=1
M  V30 19 H 41.007005 28.984712 64.095563 0
M  V30 20 H 41.727937 30.153610 62.981250 0
M  V30 21 H 39.602229 26.465432 53.656265 0
M  V30 22 H 37.935288 26.138794 53.208089 0
M  V30 23 H 38.491674 27.906479 60.350578 0
M  V30 24 H 39.845542 28.099383 59.254384 0
M  V30 25 H 37.706753 30.694620 55.685367 0
M  V30 26 H 39.309352 30.806998 54.979223 0
M  V30 27 H 37.156510 28.572392 57.052741 0
M  V30 28 H 39.168664 31.434601 61.418752 0
M  V30 29 H 38.053068 30.137853 61.833958 0
M  V30 30 H 37.245157 27.442503 55.028938 0
M  V30 31 H 37.064824 29.467330 53.797247 0
M  V30 32 H 40.016875 27.737845 62.277893 0
M  V30 33 H 41.591728 28.138621 61.600868 0
M  V30 34 H 39.614301 27.611494 51.571813 0
M  V30 35 H 37.879670 27.910911 51.654959 0
M  V30 36 H 40.025469 29.389645 56.734088 0
M  V30 37 H 40.045141 29.338789 53.226539 0
M  V30 38 H 38.852778 30.092816 52.217283 0
M  V30 39 H 38.968308 29.846710 63.748515 0
M  V30 40 H 40.699688 30.034222 60.429334 0
M  V30 41 H 39.822248 31.257608 63.570352 0
M  V30 END ATOM
M  V30 BEGIN BOND
M  V30 1 1 9 2
M  V30 2 1 9 3
M  V30 3 1 10 6
M  V30 4 1 10 9
M  V30 5 1 11 1
M  V30 6 1 12 3
M  V30 7 1 13 2
M  V30 8 1 13 6
M  V30 9 1 13 7
M  V30 10 1 14 10
M  V30 11 1 14 12
M  V30 12 2 15 4
M  V30 13 1 15 5
M  V30 14 1 15 7
M  V30 15 2 16 15
M  V30 16 1 17 1
M  V30 17 1 17 8
M  V30 18 1 18 5
M  V30 19 1 18 8
M  V30 20 1 18 11
M  V30 21 1 19 1
M  V30 22 1 20 1
M  V30 23 1 21 3
M  V30 24 1 22 3
M  V30 25 1 23 5
M  V30 26 1 24 5
M  V30 27 1 25 6
M  V30 28 1 26 6
M  V30 29 1 27 7
M  V30 30 1 28 8
M  V30 31 1 29 8
M  V30 32 1 9 30 CFG=1
M  V30 33 1 10 31 CFG=3
M  V30 34 1 32 11
M  V30 35 1 33 11
M  V30 36 1 34 12
M  V30 37 1 35 12
M  V30 38 1 13 36 CFG=1
M  V30 39 1 37 14
M  V30 40 1 38 14
M  V30 41 1 39 17
M  V30 42 1 18 40 CFG=3
M  V30 43 1 41 17
M  V30 END BOND
M  V30 END CTAB
M  END
>  <i_epik_Tot_Q>  (1) 
1

>  <i_epik_Tot_abs_Q>  (1) 
1

>  <i_i_glide_confnum>  (1) 
60

>  <i_i_glide_lignum>  (1) 
31

>  <i_i_glide_posenum>  (1) 
243

>  <i_i_glide_rotatable_bonds>  (1) 
4

>  <i_lp_mmshare_version>  (1) 
72125

>  <i_m_source_file_index>  (1) 
16

>  <i_f3d_flags>  (1) 
0

>  <num_sample>  (1) 
50

>  <b_lp_Chiralities_Consistent>  (1) 
1

>  <r_epik_Charging_Adjusted_Penalty>  (1) 
0.00041597813202231702

>  <r_epik_Ionization_Penalty>  (1) 
0.00074601898943485131

>  <r_epik_Ionization_Penalty_Charging>  (1) 
0.00041597813202231702

>  <r_epik_Ionization_Penalty_Neutral>  (1) 
0.00033004085741253423

>  <r_epik_State_Penalty>  (1) 
-0

>  <r_glide_ring_energy>  (1) 
1.5031071791315029

>  <r_i_docking_score>  (1) 
-5.4623252183575017

>  <r_i_glide_ecoul>  (1) 
-2.3010667489176759

>  <r_i_glide_eff_state_penalty>  (1) 
-0

>  <r_i_glide_einternal>  (1) 
2.0363614408596722

>  <r_i_glide_emodel>  (1) 
-44.76139270599748

>  <r_i_glide_emodel_strain>  (1) 
0.43954699312278223

>  <r_i_glide_energy>  (1) 
-32.006949682215904

>  <r_i_glide_erotb>  (1) 
0.47397758712995947

>  <r_i_glide_esite>  (1) 
-0.11553858548111098

>  <r_i_glide_evdw>  (1) 
-29.705882933298231

>  <r_i_glide_gscore>  (1) 
-5.4623252183575017

>  <r_i_glide_gscore_strain>  (1) 
0

>  <r_i_glide_hbond>  (1) 
0

>  <r_i_glide_ligand_efficiency>  (1) 
-0.30346251213097231

>  <r_i_glide_ligand_efficiency_ln>  (1) 
-1.404062531368832

>  <r_i_glide_ligand_efficiency_sa>  (1) 
-0.79529676713225861

>  <r_i_glide_lipo>  (1) 
-2.0066037847699922

>  <r_i_glide_metal>  (1) 
-0

>  <r_i_glide_rewards>  (1) 
-1.9837062762337943

>  <r_lp_Energy>  (1) 
10.187014999999999

>  <r_lp_tautomer_probability>  (1) 
1

>  <s_epik_Chemistry_Notes>  (1) 
This compound contains an acetal/aminal-like group ( X-CH(R)-Y where X, Y are N, S, or O) that may be acid/base labile, releasing an aldehyde.

>  <s_epik_cmdline>  (1) 
J2VwaWtfcHl0aG9uJywgJy1waHQnLCAnMS4wJywgJy1waCcsICc3LjQnLCAnLXRuJywgJzgnLCAnLW1hJywgJzUwMCcsICctaW1hZScsICc8aW5maWxlLm1hZT4nLCAnLW9tYWUnLCAnPG91dGZpbGUubWFlPic=

>  <s_epik_input>  (1) 
W0NIMl0xW0NIMl1bTkhdW0NIMl1bQ0BASF0xW0NIMl1TKD1PKSg9TylbTkhdW0NAQEhdKE8yKVtDSDJdW0NASF0oW0NASF0yMylbQ0gyXVtDSDJdW0NIMl0z

>  <s_glide_docking_method>  (1) 
confgen

>  <s_i_glide_gridfile>  (1) 
gpcr_5ht2c_6bqh_protein_autoprepared_prepared

>  <s_lp_Force_Field>  (1) 
S-OPLS

>  <s_lp_Variant>  (1) 
DiffSBDD_15-1

>  <s_m_source_file>  (1) 
generated_GPCR_5HT2C_ligand_DiffSBDD_2026-06-23_prepared.sdf

>  <GenAI_Model>  (1) 
DiffSBDD

>  <Protein>  (1) 
GPCR_5HT2C

$$$$
DiffSBDD_48
     RDKit          3D

  0  0  0  0  0  0  0  0  0  0999 V3000
M  V30 BEGIN CTAB
M  V30 COUNTS 78 78 0 0 1
M  V30 BEGIN ATOM
M  V30 1 O 43.245137 33.251456 66.547768 0
M  V30 2 C 36.809174 34.615592 59.126839 0
M  V30 3 C 37.193965 35.880029 59.908278 0
M  V30 4 O 40.045149 30.320590 51.806269 0
M  V30 5 C 36.765972 30.361394 59.375416 0
M  V30 6 C 42.214186 33.303500 65.845264 0
M  V30 7 C 37.982568 28.275382 54.246475 0
M  V30 8 C 41.125820 34.286757 66.279554 0
M  V30 9 C 37.404503 31.186984 60.519891 0
M  V30 10 C 38.129851 35.671623 61.109761 0
M  V30 11 N 37.742569 32.574421 60.172884 0
M  V30 12 C 40.027035 36.577705 65.947793 0
M  V30 13 C 37.658283 30.126911 58.145778 0
M  V30 14 C 39.297306 29.281809 52.322051 0
M  V30 15 C 40.238983 30.412751 50.398848 0
M  V30 16 C 41.191489 35.646469 65.525656 0 CFG=2
M  V30 17 C 41.322210 35.538884 63.978321 0
M  V30 18 C 39.095085 28.102618 51.367506 0
M  V30 19 O 39.644946 26.549194 54.519614 0
M  V30 20 C 39.161477 34.529652 60.959532 0 CFG=2
M  V30 21 C 40.150491 34.847841 63.262564 0
M  V30 22 O 41.991152 32.626817 64.815912 0 CHG=-1
M  V30 23 C 38.889462 29.245520 58.428363 0
M  V30 24 O 40.088549 36.876868 67.327301 0
M  V30 25 C 38.876388 27.342503 55.065516 0
M  V30 26 C 39.526852 28.670468 57.150054 0
M  V30 27 C 38.555395 33.133395 61.259612 0
M  V30 28 C 36.524554 33.372505 59.979549 0
M  V30 29 C 38.813920 29.355905 53.576775 0
M  V30 30 N 40.364728 34.786602 61.797549 0 CHG=1
M  V30 31 C 38.772051 27.436493 56.596337 0 CFG=2
M  V30 32 C 39.216816 26.131570 57.287066 0
M  V30 33 H 37.560679 34.385317 58.370194 0
M  V30 34 H 35.903605 34.849685 58.567773 0
M  V30 35 H 37.645135 36.586788 59.211959 0
M  V30 36 H 36.287215 36.372280 60.258664 0
M  V30 37 H 36.480653 29.386233 59.767762 0
M  V30 38 H 35.824441 30.795779 59.045535 0
M  V30 39 H 37.425135 27.692562 53.514518 0
M  V30 40 H 37.245156 28.751245 54.892660 0
M  V30 41 H 41.236785 34.457649 67.351098 0
M  V30 42 H 40.157286 33.803751 66.167740 0
M  V30 43 H 38.304378 30.663092 60.845395 0
M  V30 44 H 36.730244 31.190661 61.376498 0
M  V30 45 H 37.518770 35.493666 61.995347 0
M  V30 46 H 38.639583 36.618286 61.293471 0
M  V30 47 H 39.055103 36.137755 65.740604 0
M  V30 48 H 40.045132 37.515289 65.394334 0
M  V30 49 H 37.040388 29.654040 57.381872 0
M  V30 50 H 37.966497 31.081973 57.718640 0
M  V30 51 H 40.769243 31.337756 50.176334 0
M  V30 52 H 40.845143 29.599911 50.002035 0
M  V30 53 H 39.288144 30.455367 49.868869 0
M  V30 54 H 42.109556 36.137247 65.855993 0
M  V30 55 H 41.437058 36.537756 63.564626 0
M  V30 56 H 42.254318 35.033617 63.726182 0
M  V30 57 H 38.645998 27.241145 51.857997 0
M  V30 58 H 38.445134 28.376471 50.539713 0
M  V30 59 H 40.045165 27.752904 50.966894 0
M  V30 60 H 39.540490 34.531861 59.936517 0
M  V30 61 H 40.015327 33.834774 63.639656 0
M  V30 62 H 39.245118 35.407575 63.478363 0
M  V30 63 H 39.629804 29.842535 58.961168 0
M  V30 64 H 38.624106 28.429287 59.100680 0
M  V30 65 H 39.301102 37.337777 67.575923 0
M  V30 66 H 39.596752 29.466488 56.407552 0
M  V30 67 H 40.558460 28.387566 57.363794 0
M  V30 68 H 39.384350 32.444506 61.429808 0
M  V30 69 H 37.979936 33.150950 62.185038 0
M  V30 70 H 35.787675 32.802915 59.418580 0
M  V30 71 H 36.043259 33.624769 60.925930 0
M  V30 72 H 39.020488 30.235277 54.169444 0
M  V30 73 H 40.752411 35.672929 61.507698 0
M  V30 74 H 37.709231 27.564476 56.800906 0
M  V30 75 H 38.696464 25.266427 56.873412 0
M  V30 76 H 40.288094 25.960811 57.170496 0
M  V30 77 H 39.001144 26.158974 58.355148 0
M  V30 78 H 41.051051 34.066659 61.619285 0
M  V30 END ATOM
M  V30 BEGIN BOND
M  V30 1 1 3 2
M  V30 2 2 6 1
M  V30 3 1 8 6
M  V30 4 1 9 5
M  V30 5 1 10 3
M  V30 6 1 11 9
M  V30 7 1 13 5
M  V30 8 1 14 4
M  V30 9 1 15 4
M  V30 10 1 16 8
M  V30 11 1 16 12
M  V30 12 1 17 16
M  V30 13 1 18 14
M  V30 14 1 20 10
M  V30 15 1 21 17
M  V30 16 1 22 6
M  V30 17 1 23 13
M  V30 18 1 24 12
M  V30 19 1 25 7
M  V30 20 2 25 19
M  V30 21 1 26 23
M  V30 22 1 27 11
M  V30 23 1 27 20
M  V30 24 1 28 2
M  V30 25 1 28 11
M  V30 26 1 29 7
M  V30 27 2 29 14
M  V30 28 1 30 20
M  V30 29 1 30 21
M  V30 30 1 31 25
M  V30 31 1 31 26
M  V30 32 1 32 31
M  V30 33 1 33 2
M  V30 34 1 34 2
M  V30 35 1 35 3
M  V30 36 1 36 3
M  V30 37 1 37 5
M  V30 38 1 38 5
M  V30 39 1 39 7
M  V30 40 1 40 7
M  V30 41 1 41 8
M  V30 42 1 42 8
M  V30 43 1 43 9
M  V30 44 1 44 9
M  V30 45 1 45 10
M  V30 46 1 46 10
M  V30 47 1 47 12
M  V30 48 1 48 12
M  V30 49 1 49 13
M  V30 50 1 50 13
M  V30 51 1 51 15
M  V30 52 1 52 15
M  V30 53 1 53 15
M  V30 54 1 16 54 CFG=1
M  V30 55 1 55 17
M  V30 56 1 56 17
M  V30 57 1 57 18
M  V30 58 1 58 18
M  V30 59 1 59 18
M  V30 60 1 20 60 CFG=3
M  V30 61 1 61 21
M  V30 62 1 62 21
M  V30 63 1 63 23
M  V30 64 1 64 23
M  V30 65 1 65 24
M  V30 66 1 66 26
M  V30 67 1 67 26
M  V30 68 1 68 27
M  V30 69 1 69 27
M  V30 70 1 70 28
M  V30 71 1 71 28
M  V30 72 1 72 29
M  V30 73 1 73 30
M  V30 74 1 31 74 CFG=3
M  V30 75 1 75 32
M  V30 76 1 76 32
M  V30 77 1 77 32
M  V30 78 1 78 30
M  V30 END BOND
M  V30 END CTAB
M  END
>  <i_epik_Tot_Q>  (1) 
0

>  <i_epik_Tot_abs_Q>  (1) 
2

>  <i_i_glide_confnum>  (1) 
639

>  <i_i_glide_lignum>  (1) 
102

>  <i_i_glide_posenum>  (1) 
242

>  <i_i_glide_rotatable_bonds>  (1) 
18

>  <i_lp_mmshare_version>  (1) 
72125

>  <i_m_source_file_index>  (1) 
49

>  <i_f3d_flags>  (1) 
0

>  <num_sample>  (1) 
50

>  <b_lp_Chiralities_Consistent>  (1) 
1

>  <r_epik_Charging_Adjusted_Penalty>  (1) 
0.04911624183534407

>  <r_epik_Ionization_Penalty>  (1) 
0.025385742012929795

>  <r_epik_Ionization_Penalty_Charging>  (1) 
0.0065475108590220404

>  <r_epik_Ionization_Penalty_Neutral>  (1) 
0.018838231153907755

>  <r_epik_State_Penalty>  (1) 
0.042568730976322029

>  <r_glide_ring_energy>  (1) 
0

>  <r_i_docking_score>  (1) 
-5.4493586245192827

>  <r_i_glide_ecoul>  (1) 
-1.4268817892464318

>  <r_i_glide_eff_state_penalty>  (1) 
0.042568730976322029

>  <r_i_glide_einternal>  (1) 
19.386580005771837

>  <r_i_glide_emodel>  (1) 
-51.933390311588127

>  <r_i_glide_emodel_strain>  (1) 
0.685799238498916

>  <r_i_glide_energy>  (1) 
-46.890238530920072

>  <r_i_glide_erotb>  (1) 
1.5544609794247006

>  <r_i_glide_esite>  (1) 
0

>  <r_i_glide_evdw>  (1) 
-45.463356741673643

>  <r_i_glide_gscore>  (1) 
-5.491927355495605

>  <r_i_glide_gscore_strain>  (1) 
0

>  <r_i_glide_hbond>  (1) 
0

>  <r_i_glide_ligand_efficiency>  (1) 
-0.17029245701622758

>  <r_i_glide_ligand_efficiency_ln>  (1) 
-1.2202599399357423

>  <r_i_glide_ligand_efficiency_sa>  (1) 
-0.54064485081961822

>  <r_i_glide_lipo>  (1) 
-3.3001519731257711

>  <r_i_glide_metal>  (1) 
-0

>  <r_i_glide_rewards>  (1) 
-1.2590362563238879

>  <r_lp_Energy>  (1) 
19.305907999999999

>  <r_lp_tautomer_probability>  (1) 
0.99990000499974985

>  <s_epik_cmdline>  (1) 
J2VwaWtfcHl0aG9uJywgJy1waHQnLCAnMS4wJywgJy1waCcsICc3LjQnLCAnLXRuJywgJzgnLCAnLW1hJywgJzUwMCcsICctaW1hZScsICc8aW5maWxlLm1hZT4nLCAnLW9tYWUnLCAnPG91dGZpbGUubWFlPic=

>  <s_epik_input>  (1) 
Tz1DKFtPSF0pW0NIMl1bQ0BASF0oW0NIMl1bT0hdKVtDSDJdW0NIMl1bTkhdW0NASF0oW0NIMl1bQ0gyXVtDSDJdW0NIMl0xKVtDSDJdTjFbQ0gyXVtDSDJdW0NIMl1bQ0gyXVtDSDJdW0NASF0oW0NIM10pQyg9TylbQ0gyXVxbQ0hdPUMoW0NIM10pXE9bQ0gzXQ==

>  <s_glide_docking_method>  (1) 
confgen

>  <s_i_glide_gridfile>  (1) 
gpcr_5ht2c_6bqh_protein_autoprepared_prepared

>  <s_lp_Force_Field>  (1) 
S-OPLS

>  <s_lp_Variant>  (1) 
DiffSBDD_48-4

>  <s_m_source_file>  (1) 
generated_GPCR_5HT2C_ligand_DiffSBDD_2026-06-23_prepared.sdf

>  <GenAI_Model>  (1) 
DiffSBDD

>  <Protein>  (1) 
GPCR_5HT2C

$$$$
DiffSBDD_1
     RDKit          3D

  0  0  0  0  0  0  0  0  0  0999 V3000
M  V30 BEGIN CTAB
M  V30 COUNTS 78 81 0 0 1
M  V30 BEGIN ATOM
M  V30 1 C 40.569035 28.199040 60.283926 0
M  V30 2 N 40.486608 32.603080 62.218007 0
M  V30 3 C 37.263600 34.064984 61.045974 0 CFG=1
M  V30 4 C 37.983354 35.340028 61.482613 0
M  V30 5 C 37.842931 31.566041 58.181075 0
M  V30 6 C 41.941130 27.761793 56.871158 0
M  V30 7 C 37.953890 32.911300 61.782452 0
M  V30 8 C 39.287319 33.469112 62.331909 0 CFG=2
M  V30 9 C 38.383672 31.345634 55.155457 0
M  V30 10 N 41.122132 28.342139 57.882903 0
M  V30 11 O 38.950273 24.639912 56.523082 0
M  V30 12 C 40.512438 27.310354 57.066229 0 CFG=1
M  V30 13 C 39.397305 30.408684 55.693932 0 CFG=2
M  V30 14 O 39.645022 29.139714 54.945409 0
M  V30 15 C 37.160384 23.954901 55.027549 0
M  V30 16 C 35.064029 33.202485 60.770800 0
M  V30 17 C 38.715228 29.698045 56.769648 0
M  V30 18 C 40.572297 31.733264 61.046132 0
M  V30 19 C 37.082528 26.137770 56.274247 0
M  V30 20 O 37.561408 29.243102 58.684477 0
M  V30 21 O 42.445226 31.837896 63.082898 0
M  V30 22 C 37.832034 27.068611 55.302622 0
M  V30 23 O 35.895706 34.161064 61.398178 0
M  V30 24 O 38.797454 33.661900 55.367761 0
M  V30 25 P 39.083764 28.094510 56.223131 0 CFG=2 CHG=1
M  V30 26 C 37.558516 24.682987 56.316582 0 CFG=2
M  V30 27 C 38.051277 30.153970 57.836645 0
M  V30 28 C 40.350131 35.111470 60.648061 0
M  V30 29 O 40.281486 29.580359 60.170830 0
M  V30 30 C 41.466448 32.577386 63.165808 0
M  V30 31 C 41.321540 33.509869 64.373605 0
M  V30 32 C 38.045326 32.667988 57.389905 0
M  V30 33 C 38.445180 32.643928 55.948577 0
M  V30 34 C 40.182151 30.284410 61.384622 0
M  V30 35 C 39.414951 34.927818 61.838274 0 CFG=1
M  V30 36 C 41.583231 27.939660 59.176797 0
M  V30 37 H 39.661481 27.613359 60.138711 0
M  V30 38 H 41.001126 27.921317 61.245948 0
M  V30 39 H 37.381937 33.955254 59.970428 0
M  V30 40 H 37.938495 36.117104 60.717146 0
M  V30 41 H 37.498731 35.743700 62.370322 0
M  V30 42 H 37.501643 31.759864 59.179222 0
M  V30 43 H 42.764426 27.163831 57.260090 0
M  V30 44 H 42.181119 28.540549 56.167907 0
M  V30 45 H 38.042804 32.041596 61.146460 0
M  V30 46 H 37.332601 32.562464 62.604296 0
M  V30 47 H 39.063889 33.537126 63.367910 0
M  V30 48 H 38.615531 31.583278 54.116689 0
M  V30 49 H 37.369540 30.939518 55.167539 0
M  V30 50 H 39.378780 24.527555 55.687328 0
M  V30 51 H 40.334895 26.420027 57.665370 0
M  V30 52 H 40.347577 30.889532 55.918205 0
M  V30 53 H 36.074054 23.910653 54.923106 0
M  V30 54 H 37.546433 24.487911 54.168588 0
M  V30 55 H 37.539366 22.938827 54.972194 0
M  V30 56 H 34.046414 33.335909 61.138581 0
M  V30 57 H 35.048086 33.337655 59.689465 0
M  V30 58 H 35.375029 32.181976 60.997869 0
M  V30 59 H 41.598990 31.739175 60.677447 0
M  V30 60 H 39.979069 32.129040 60.222479 0
M  V30 61 H 37.078160 26.560495 57.279436 0
M  V30 62 H 36.045608 26.109109 55.968349 0
M  V30 63 H 37.164600 29.706959 59.408528 0
M  V30 64 H 37.141955 27.744456 54.801813 0
M  V30 65 H 38.320982 26.519914 54.501219 0
M  V30 66 H 37.091159 24.180856 57.163350 0
M  V30 67 H 40.048358 34.463155 59.823171 0
M  V30 68 H 40.316960 36.135433 60.295902 0
M  V30 69 H 41.383012 34.929821 60.943568 0
M  V30 70 H 40.491377 33.200411 65.010199 0
M  V30 71 H 42.223881 33.456805 64.985083 0
M  V30 72 H 41.190665 34.549056 64.074064 0
M  V30 73 H 37.876784 33.643831 57.818251 0
M  V30 74 H 39.169374 30.190912 61.776688 0
M  V30 75 H 40.864519 29.885760 62.134393 0
M  V30 76 H 39.775944 35.573000 62.640428 0
M  V30 77 H 41.981444 26.938057 59.151111 0
M  V30 78 H 42.445055 28.555279 59.368495 0
M  V30 END ATOM
M  V30 BEGIN BOND
M  V30 1 1 4 3
M  V30 2 1 7 3
M  V30 3 1 8 2
M  V30 4 1 8 7
M  V30 5 1 10 6
M  V30 6 1 12 6
M  V30 7 1 12 10
M  V30 8 1 13 9
M  V30 9 1 14 13
M  V30 10 1 17 13
M  V30 11 1 18 2
M  V30 12 1 22 19
M  V30 13 1 23 3
M  V30 14 1 23 16
M  V30 15 1 25 12
M  V30 16 1 25 14
M  V30 17 1 25 17
M  V30 18 1 25 22 CFG=3
M  V30 19 1 26 11
M  V30 20 1 26 15
M  V30 21 1 26 19
M  V30 22 1 27 5
M  V30 23 2 27 17
M  V30 24 1 27 20
M  V30 25 1 29 1
M  V30 26 1 30 2
M  V30 27 2 30 21
M  V30 28 1 31 30
M  V30 29 2 32 5
M  V30 30 1 33 9
M  V30 31 2 33 24
M  V30 32 1 33 32
M  V30 33 1 34 18
M  V30 34 1 34 29
M  V30 35 1 35 4
M  V30 36 1 35 8
M  V30 37 1 35 28
M  V30 38 1 36 1
M  V30 39 1 36 10
M  V30 40 1 37 1
M  V30 41 1 38 1
M  V30 42 1 3 39 CFG=3
M  V30 43 1 40 4
M  V30 44 1 41 4
M  V30 45 1 42 5
M  V30 46 1 43 6
M  V30 47 1 44 6
M  V30 48 1 45 7
M  V30 49 1 46 7
M  V30 50 1 8 47 CFG=1
M  V30 51 1 48 9
M  V30 52 1 49 9
M  V30 53 1 50 11
M  V30 54 1 12 51 CFG=1
M  V30 55 1 13 52 CFG=1
M  V30 56 1 53 15
M  V30 57 1 54 15
M  V30 58 1 55 15
M  V30 59 1 56 16
M  V30 60 1 57 16
M  V30 61 1 58 16
M  V30 62 1 59 18
M  V30 63 1 60 18
M  V30 64 1 61 19
M  V30 65 1 62 19
M  V30 66 1 63 20
M  V30 67 1 64 22
M  V30 68 1 65 22
M  V30 69 1 26 66 CFG=1
M  V30 70 1 67 28
M  V30 71 1 68 28
M  V30 72 1 69 28
M  V30 73 1 70 31
M  V30 74 1 71 31
M  V30 75 1 72 31
M  V30 76 1 73 32
M  V30 77 1 74 34
M  V30 78 1 75 34
M  V30 79 1 35 76 CFG=1
M  V30 80 1 77 36
M  V30 81 1 78 36
M  V30 END BOND
M  V30 END CTAB
M  END
>  <i_epik_Tot_Q>  (1) 
1

>  <i_epik_Tot_abs_Q>  (1) 
1

>  <i_i_glide_confnum>  (1) 
1481

>  <i_i_glide_lignum>  (1) 
5

>  <i_i_glide_posenum>  (1) 
372

>  <i_i_glide_rotatable_bonds>  (1) 
15

>  <i_lp_mmshare_version>  (1) 
72125

>  <i_m_source_file_index>  (1) 
2

>  <i_f3d_flags>  (1) 
0

>  <num_sample>  (1) 
50

>  <b_lp_Chiralities_Consistent>  (1) 
1

>  <r_epik_Charging_Adjusted_Penalty>  (1) 
0.012777702237649643

>  <r_epik_Ionization_Penalty>  (1) 
0.012893064322698497

>  <r_epik_Ionization_Penalty_Charging>  (1) 
0

>  <r_epik_Ionization_Penalty_Neutral>  (1) 
0.012893064322698497

>  <r_epik_State_Penalty>  (1) 
0.012777702237649643

>  <r_glide_ring_energy>  (1) 
1.6816026439138669

>  <r_i_docking_score>  (1) 
-5.4180006383578014

>  <r_i_glide_ecoul>  (1) 
-3.1345412516062465

>  <r_i_glide_eff_state_penalty>  (1) 
0.012777702237649643

>  <r_i_glide_einternal>  (1) 
7.1901322444646141

>  <r_i_glide_emodel>  (1) 
-50.652229654163023

>  <r_i_glide_emodel_strain>  (1) 
2.2874295544310286

>  <r_i_glide_energy>  (1) 
-38.481530341564742

>  <r_i_glide_erotb>  (1) 
0.81958699115176215

>  <r_i_glide_esite>  (1) 
-0.035889070564534095

>  <r_i_glide_evdw>  (1) 
-35.346989089958498

>  <r_i_glide_gscore>  (1) 
-5.4307783405954515

>  <r_i_glide_gscore_strain>  (1) 
0

>  <r_i_glide_hbond>  (1) 
0

>  <r_i_glide_ligand_efficiency>  (1) 
-0.15050001773216115

>  <r_i_glide_ligand_efficiency_ln>  (1) 
-1.1820613618284239

>  <r_i_glide_ligand_efficiency_sa>  (1) 
-0.49694010950894751

>  <r_i_glide_lipo>  (1) 
-3.3330615595365547

>  <r_i_glide_metal>  (1) 
-0

>  <r_i_glide_rewards>  (1) 
-0.64388405940726245

>  <r_lp_Energy>  (1) 
37.151716

>  <s_epik_cmdline>  (1) 
J2VwaWtfcHl0aG9uJywgJy1waHQnLCAnMS4wJywgJy1waCcsICc3LjQnLCAnLXRuJywgJzgnLCAnLW1hJywgJzUwMCcsICctaW1hZScsICc8aW5maWxlLm1hZT4nLCAnLW9tYWUnLCAnPG91dGZpbGUubWFlPic=

>  <s_epik_input>  (1) 
W0NIM11PW0NASF0xW0NIMl1bQ0BIXShbQ0gzXSlbQ0BASF0oW0NIMl0xKU4oQyg9TylbQ0gzXSlbQ0gyXVtDSDJdT1tDSDJdW0NIMl1OMltDSDJdW0NIXTJbUEBAK10oTzMpKFtDSDJdW0NIMl1bQ0BIXShbT0hdKVtDSDNdKUMoW0NAQEhdMzQpPUMoW09IXSlbQ0hdPVtDSF1DKD1PKVtDSDJdNA==

>  <s_glide_docking_method>  (1) 
confgen

>  <s_i_glide_gridfile>  (1) 
gpcr_5ht2c_6bqh_protein_autoprepared_prepared

>  <s_lp_Force_Field>  (1) 
S-OPLS

>  <s_lp_Variant>  (1) 
DiffSBDD_1-1

>  <s_m_source_file>  (1) 
generated_GPCR_5HT2C_ligand_DiffSBDD_2026-06-23_prepared.sdf

>  <GenAI_Model>  (1) 
DiffSBDD

>  <Protein>  (1) 
GPCR_5HT2C

$$$$
DiffSBDD_23
     RDKit          3D

  0  0  0  0  0  0  0  0  0  0999 V3000
M  V30 BEGIN CTAB
M  V30 COUNTS 19 19 0 0 1
M  V30 BEGIN ATOM
M  V30 1 C 38.564790 27.401434 52.709988 0
M  V30 2 C 39.070338 28.596267 52.162582 0
M  V30 3 C 38.231651 27.328356 54.077451 0
M  V30 4 S 39.141909 31.094883 55.330440 0 CHG=-1
M  V30 5 C 38.045135 28.375530 56.402712 0
M  V30 6 C 39.428083 28.661796 50.695459 0
M  V30 7 O 37.742280 26.160172 54.590826 0
M  V30 8 C 38.915479 29.669930 54.346973 0
M  V30 9 C 38.404859 28.461200 54.912104 0
M  V30 10 C 39.245138 29.728884 52.979383 0
M  V30 11 H 38.433153 26.537876 52.078653 0
M  V30 12 H 37.288234 29.116402 56.664648 0
M  V30 13 H 37.645170 27.404820 56.689729 0
M  V30 14 H 38.928108 28.544948 57.019427 0
M  V30 15 H 39.245124 29.657259 50.290680 0
M  V30 16 H 40.481052 28.424892 50.567727 0
M  V30 17 H 38.845203 27.944339 50.120807 0
M  V30 18 H 37.619461 25.498478 53.928947 0
M  V30 19 H 39.634199 30.644592 52.554241 0
M  V30 END ATOM
M  V30 BEGIN BOND
M  V30 1 2 2 1
M  V30 2 1 3 1
M  V30 3 1 6 2
M  V30 4 1 7 3
M  V30 5 1 8 4
M  V30 6 2 9 3
M  V30 7 1 9 5
M  V30 8 1 9 8
M  V30 9 1 10 2
M  V30 10 2 10 8
M  V30 11 1 11 1
M  V30 12 1 12 5
M  V30 13 1 13 5
M  V30 14 1 14 5
M  V30 15 1 15 6
M  V30 16 1 16 6
M  V30 17 1 17 6
M  V30 18 1 18 7
M  V30 19 1 19 10
M  V30 END BOND
M  V30 END CTAB
M  END
>  <i_epik_Tot_Q>  (1) 
-1

>  <i_epik_Tot_abs_Q>  (1) 
1

>  <i_i_glide_confnum>  (1) 
1

>  <i_i_glide_lignum>  (1) 
51

>  <i_i_glide_posenum>  (1) 
217

>  <i_i_glide_rotatable_bonds>  (1) 
1

>  <i_lp_mmshare_version>  (1) 
72125

>  <i_m_source_file_index>  (1) 
24

>  <i_f3d_flags>  (1) 
0

>  <num_sample>  (1) 
50

>  <b_lp_Chiralities_Consistent>  (1) 
1

>  <r_epik_Charging_Adjusted_Penalty>  (1) 
0.20721936488096054

>  <r_epik_Ionization_Penalty>  (1) 
0.10365679981868296

>  <r_epik_Ionization_Penalty_Charging>  (1) 
0.10360968244048027

>  <r_epik_Ionization_Penalty_Neutral>  (1) 
4.7117378202688286e-05

>  <r_epik_State_Penalty>  (1) 
0.10360968244048026

>  <r_glide_ring_energy>  (1) 
0

>  <r_i_docking_score>  (1) 
-5.4154323794206691

>  <r_i_glide_ecoul>  (1) 
-0.8853577724135957

>  <r_i_glide_eff_state_penalty>  (1) 
0.10360968244048026

>  <r_i_glide_einternal>  (1) 
0.041288394728656863

>  <r_i_glide_emodel>  (1) 
-28.069258789447463

>  <r_i_glide_emodel_strain>  (1) 
0

>  <r_i_glide_energy>  (1) 
-19.41479530875753

>  <r_i_glide_erotb>  (1) 
0

>  <r_i_glide_esite>  (1) 
0

>  <r_i_glide_evdw>  (1) 
-18.529437536343934

>  <r_i_glide_gscore>  (1) 
-5.5190420618611498

>  <r_i_glide_gscore_strain>  (1) 
0

>  <r_i_glide_hbond>  (1) 
0

>  <r_i_glide_ligand_efficiency>  (1) 
-0.54154323794206694

>  <r_i_glide_ligand_efficiency_ln>  (1) 
-1.6397555935526753

>  <r_i_glide_ligand_efficiency_sa>  (1) 
-1.1667195379745796

>  <r_i_glide_lipo>  (1) 
-1.93736936649033

>  <r_i_glide_metal>  (1) 
-0

>  <r_i_glide_rewards>  (1) 
-2.522397152691584

>  <r_lp_Energy>  (1) 
12.729156

>  <s_epik_cmdline>  (1) 
J2VwaWtfcHl0aG9uJywgJy1waHQnLCAnMS4wJywgJy1waCcsICc3LjQnLCAnLXRuJywgJzgnLCAnLW1hJywgJzUwMCcsICctaW1hZScsICc8aW5maWxlLm1hZT4nLCAnLW9tYWUnLCAnPG91dGZpbGUubWFlPic=

>  <s_epik_input>  (1) 
W0NIM11jMVtjSF1jKFtPSF0pYyhbQ0gzXSljKFtTSF0pW2NIXTE=

>  <s_glide_docking_method>  (1) 
confgen

>  <s_i_glide_gridfile>  (1) 
gpcr_5ht2c_6bqh_protein_autoprepared_prepared

>  <s_lp_Force_Field>  (1) 
S-OPLS

>  <s_lp_Variant>  (1) 
DiffSBDD_23-1

>  <s_m_source_file>  (1) 
generated_GPCR_5HT2C_ligand_DiffSBDD_2026-06-23_prepared.sdf

>  <GenAI_Model>  (1) 
DiffSBDD

>  <Protein>  (1) 
GPCR_5HT2C

$$$$
DiffSBDD_14
     RDKit          3D

  0  0  0  0  0  0  0  0  0  0999 V3000
M  V30 BEGIN CTAB
M  V30 COUNTS 59 60 0 0 1
M  V30 BEGIN ATOM
M  V30 1 Cl 39.534129 37.337705 62.688760 0
M  V30 2 C 36.495714 29.902379 58.653747 0
M  V30 3 N 36.785670 36.937735 59.802761 0
M  V30 4 C 36.707269 35.589595 59.699825 0
M  V30 5 C 38.735270 28.070423 52.477511 0
M  V30 6 C 41.645138 30.381022 49.383991 0
M  V30 7 C 39.427577 31.465242 49.516951 0
M  V30 8 C 37.662071 30.802004 58.229199 0 CFG=1
M  V30 9 C 39.102179 30.561819 53.981249 0
M  V30 10 C 38.447124 36.630531 61.555567 0
M  V30 11 C 40.201339 30.399550 49.767755 0
M  V30 12 C 37.645136 37.438428 60.723223 0
M  V30 13 O 39.645151 32.518593 60.616348 0
M  V30 14 N 38.445116 31.147788 59.429398 0 CHG=1
M  V30 15 C 39.677585 29.128813 50.447320 0
M  V30 16 C 37.930519 28.350561 53.758724 0
M  V30 17 C 38.352516 35.241191 61.441691 0
M  V30 18 C 38.593369 32.586241 59.684702 0 CFG=1
M  V30 19 C 37.467651 34.705323 60.493726 0
M  V30 20 C 37.335533 33.205147 60.323029 0
M  V30 21 C 37.822818 29.605952 55.958929 0
M  V30 22 C 38.688947 29.280667 54.727306 0 CFG=2
M  V30 23 C 39.851500 30.264479 52.673658 0
M  V30 24 N 39.088406 29.337752 51.793178 0 CFG=2 CHG=1
M  V30 25 C 38.587322 30.173550 57.166148 0
M  V30 26 H 35.810091 29.737752 57.825157 0
M  V30 27 H 36.851826 28.937791 59.003658 0
M  V30 28 H 35.911878 30.361501 59.451940 0
M  V30 29 H 36.017192 35.206371 58.963190 0
M  V30 30 H 39.643053 27.512029 52.711784 0
M  V30 31 H 38.142541 27.444362 51.807872 0
M  V30 32 H 41.761943 29.673306 48.567763 0
M  V30 33 H 41.975264 31.337750 49.002362 0
M  V30 34 H 42.261990 30.137769 50.247234 0
M  V30 35 H 39.826982 32.337521 49.031001 0
M  V30 36 H 38.404199 31.481517 49.784819 0
M  V30 37 H 37.245163 31.712831 57.801126 0
M  V30 38 H 38.216810 31.162230 53.767778 0
M  V30 39 H 39.737167 31.183626 54.612481 0
M  V30 40 H 37.700151 38.514797 60.790129 0
M  V30 41 H 39.988685 33.391353 60.745455 0
M  V30 42 H 39.368366 30.755542 59.329002 0
M  V30 43 H 40.497977 28.421763 50.563752 0
M  V30 44 H 38.955188 28.636734 49.795196 0
M  V30 45 H 37.701896 27.405989 54.254105 0
M  V30 46 H 36.968860 28.793401 53.495724 0
M  V30 47 H 38.951435 34.596810 62.067896 0
M  V30 48 H 38.910958 33.110114 58.780762 0
M  V30 49 H 36.462600 33.003634 59.699243 0
M  V30 50 H 37.128374 32.750215 61.293242 0
M  V30 51 H 37.343087 28.690900 56.296937 0
M  V30 52 H 37.016597 30.283756 55.670502 0
M  V30 53 H 39.588793 28.759464 55.057915 0
M  V30 54 H 40.822923 29.832533 52.875017 0
M  V30 55 H 40.040581 31.221247 52.186952 0
M  V30 56 H 39.293932 30.935144 56.836075 0
M  V30 57 H 39.187180 29.375592 57.606771 0
M  V30 58 H 38.210281 29.799651 51.618507 0
M  V30 59 H 38.016352 30.728357 60.239880 0
M  V30 END ATOM
M  V30 BEGIN BOND
M  V30 1 1 4 3
M  V30 2 1 8 2
M  V30 3 1 10 1
M  V30 4 1 11 6
M  V30 5 2 11 7
M  V30 6 2 12 3
M  V30 7 1 12 10
M  V30 8 1 14 8
M  V30 9 1 15 11
M  V30 10 1 16 5
M  V30 11 2 17 10
M  V30 12 1 18 13
M  V30 13 1 18 14
M  V30 14 2 19 4
M  V30 15 1 19 17
M  V30 16 1 20 18
M  V30 17 1 20 19
M  V30 18 1 22 9
M  V30 19 1 22 16
M  V30 20 1 22 21
M  V30 21 1 23 9
M  V30 22 1 24 5
M  V30 23 1 24 15
M  V30 24 1 24 23
M  V30 25 1 25 8
M  V30 26 1 25 21
M  V30 27 1 26 2
M  V30 28 1 27 2
M  V30 29 1 28 2
M  V30 30 1 29 4
M  V30 31 1 30 5
M  V30 32 1 31 5
M  V30 33 1 32 6
M  V30 34 1 33 6
M  V30 35 1 34 6
M  V30 36 1 35 7
M  V30 37 1 36 7
M  V30 38 1 8 37 CFG=3
M  V30 39 1 38 9
M  V30 40 1 39 9
M  V30 41 1 40 12
M  V30 42 1 41 13
M  V30 43 1 42 14
M  V30 44 1 43 15
M  V30 45 1 44 15
M  V30 46 1 45 16
M  V30 47 1 46 16
M  V30 48 1 47 17
M  V30 49 1 18 48 CFG=3
M  V30 50 1 49 20
M  V30 51 1 50 20
M  V30 52 1 51 21
M  V30 53 1 52 21
M  V30 54 1 22 53 CFG=1
M  V30 55 1 54 23
M  V30 56 1 55 23
M  V30 57 1 56 25
M  V30 58 1 57 25
M  V30 59 1 24 58 CFG=3
M  V30 60 1 59 14
M  V30 END BOND
M  V30 END CTAB
M  END
>  <i_epik_Tot_Q>  (1) 
2

>  <i_epik_Tot_abs_Q>  (1) 
2

>  <i_i_glide_confnum>  (1) 
176

>  <i_i_glide_lignum>  (1) 
27

>  <i_i_glide_posenum>  (1) 
74

>  <i_i_glide_rotatable_bonds>  (1) 
10

>  <i_lp_mmshare_version>  (1) 
72125

>  <i_m_source_file_index>  (1) 
15

>  <i_f3d_flags>  (1) 
0

>  <num_sample>  (1) 
50

>  <b_lp_Chiralities_Consistent>  (1) 
1

>  <r_epik_Charging_Adjusted_Penalty>  (1) 
0.35265002497065456

>  <r_epik_Ionization_Penalty>  (1) 
0.35265410833524857

>  <r_epik_Ionization_Penalty_Charging>  (1) 
0.072075358936459305

>  <r_epik_Ionization_Penalty_Neutral>  (1) 
0.2805787493987893

>  <r_epik_State_Penalty>  (1) 
0.28057466603419523

>  <r_glide_ring_energy>  (1) 
0

>  <r_i_docking_score>  (1) 
-5.4109750725928345

>  <r_i_glide_ecoul>  (1) 
-1.0042313172953463

>  <r_i_glide_eff_state_penalty>  (1) 
0.28057466603419523

>  <r_i_glide_einternal>  (1) 
6.5774494311878016

>  <r_i_glide_emodel>  (1) 
-47.344208785640305

>  <r_i_glide_emodel_strain>  (1) 
1.1481922518451491

>  <r_i_glide_energy>  (1) 
-29.832758276738407

>  <r_i_glide_erotb>  (1) 
1.1382379647718497

>  <r_i_glide_esite>  (1) 
-0.028786932099845258

>  <r_i_glide_evdw>  (1) 
-28.82852695944306

>  <r_i_glide_gscore>  (1) 
-5.69154973862703

>  <r_i_glide_gscore_strain>  (1) 
0

>  <r_i_glide_hbond>  (1) 
0

>  <r_i_glide_ligand_efficiency>  (1) 
-0.21643900290371337

>  <r_i_glide_ligand_efficiency_ln>  (1) 
-1.2825632460424159

>  <r_i_glide_ligand_efficiency_sa>  (1) 
-0.63287148373156399

>  <r_i_glide_lipo>  (1) 
-3.4087111802780328

>  <r_i_glide_metal>  (1) 
-0

>  <r_i_glide_rewards>  (1) 
-1.8002285454545464

>  <r_lp_Energy>  (1) 
35.566913

>  <s_epik_Chemistry_Notes>  (1) 
This compound contains an acetal/aminal-like group ( X-CH(R)-Y where X, Y are N, S, or O) that may be acid/base labile, releasing an aldehyde.

>  <s_epik_cmdline>  (1) 
J2VwaWtfcHl0aG9uJywgJy1waHQnLCAnMS4wJywgJy1waCcsICc3LjQnLCAnLXRuJywgJzgnLCAnLW1hJywgJzUwMCcsICctaW1hZScsICc8aW5maWxlLm1hZT4nLCAnLW9tYWUnLCAnPG91dGZpbGUubWFlPic=

>  <s_epik_input>  (1) 
Q2xjMVtjSF1uW2NIXWMoW2NIXTEpW0NIMl1bQ0BASF0oW09IXSlbTkhdW0NASF0oW0NIM10pW0NIMl1bQ0gyXVtDSF0yW0NIMl1bQ0gyXU4oW0NIMl1bQ0gyXTIpW0NIMl1DKFtDSDNdKT1bQ0gyXQ==

>  <s_glide_docking_method>  (1) 
confgen

>  <s_i_glide_gridfile>  (1) 
gpcr_5ht2c_6bqh_protein_autoprepared_prepared

>  <s_lp_Force_Field>  (1) 
S-OPLS

>  <s_lp_Variant>  (1) 
DiffSBDD_14-1

>  <s_m_source_file>  (1) 
generated_GPCR_5HT2C_ligand_DiffSBDD_2026-06-23_prepared.sdf

>  <GenAI_Model>  (1) 
DiffSBDD

>  <Protein>  (1) 
GPCR_5HT2C

$$$$
DiffSBDD_40
     RDKit          3D

  0  0  0  0  0  0  0  0  0  0999 V3000
M  V30 BEGIN CTAB
M  V30 COUNTS 60 63 0 0 1
M  V30 BEGIN ATOM
M  V30 1 C 39.534052 25.543137 56.698944 0 CFG=1
M  V30 2 C 38.489725 27.135144 53.772365 0 CFG=2
M  V30 3 C 39.914949 26.731246 55.837838 0 CFG=1
M  V30 4 C 37.755870 23.737752 57.399802 0
M  V30 5 C 37.642802 33.403200 58.623602 0
M  V30 6 O 41.474018 27.084620 58.167750 0
M  V30 7 C 39.623372 26.949465 52.746966 0
M  V30 8 F 37.209792 30.202157 54.927582 0
M  V30 9 C 36.650690 36.061988 60.446266 0
M  V30 10 F 38.660965 31.310608 53.810143 0
M  V30 11 C 37.428104 28.067268 53.181384 0
M  V30 12 N 36.079251 35.213006 59.367745 0 CHG=1
M  V30 13 O 37.705536 29.770716 59.399071 0
M  V30 14 C 38.933591 27.660076 55.164430 0 CFG=1
M  V30 15 C 37.424390 24.999490 58.108659 0
M  V30 16 C 36.178273 31.491537 60.104774 0
M  V30 17 S 39.618871 29.339086 55.080636 0
M  V30 18 C 38.774689 29.328974 58.576734 0
M  V30 19 C 38.045133 36.568414 60.116817 0
M  V30 20 P 40.095882 27.023137 57.612051 0 CFG=2
M  V30 21 C 36.651376 35.366533 61.813302 0
M  V30 22 C 35.767812 32.836004 60.094504 0
M  V30 23 C 38.280113 30.079822 54.142976 0
M  V30 24 O 38.007890 29.337757 52.967453 0
M  V30 25 C 38.097123 25.058242 56.759586 0
M  V30 26 C 37.322078 31.094066 59.374989 0
M  V30 27 C 38.057518 32.061318 58.630105 0
M  V30 28 C 36.508027 33.771950 59.357045 0
M  V30 29 C 38.646065 27.816062 58.459678 0
M  V30 30 H 40.264507 24.739538 56.729456 0
M  V30 31 H 38.033354 26.155083 53.911761 0
M  V30 32 H 40.845962 26.625347 55.299337 0
M  V30 33 H 36.907679 23.169895 57.014006 0
M  V30 34 H 38.606286 23.173539 57.767779 0
M  V30 35 H 38.193840 34.137756 58.060914 0
M  V30 36 H 40.045141 27.911570 52.468723 0
M  V30 37 H 40.420385 26.301773 53.110513 0
M  V30 38 H 39.244545 26.517643 51.821654 0
M  V30 39 H 36.044335 36.961608 60.502555 0
M  V30 40 H 36.538131 28.112852 53.807666 0
M  V30 41 H 37.106674 27.725149 52.203114 0
M  V30 42 H 36.279670 35.636932 58.467383 0
M  V30 43 H 38.038240 27.719680 55.779704 0
M  V30 44 H 38.044920 25.229816 58.967760 0
M  V30 45 H 36.380015 25.296102 58.167144 0
M  V30 46 H 35.620217 30.761841 60.668521 0
M  V30 47 H 38.692150 29.746836 57.578137 0
M  V30 48 H 39.733369 29.618835 59.011278 0
M  V30 49 H 38.354990 37.330052 60.833675 0
M  V30 50 H 38.787148 35.770849 60.166258 0
M  V30 51 H 38.045146 37.027623 59.128385 0
M  V30 52 H 36.929486 36.069849 62.598517 0
M  V30 53 H 35.683582 34.938167 62.078163 0
M  V30 54 H 37.380351 34.556734 61.828035 0
M  V30 55 H 34.895289 33.143268 60.652005 0
M  V30 56 H 37.463896 25.327942 55.918798 0
M  V30 57 H 38.931926 31.776177 58.069646 0
M  V30 58 H 38.582691 27.391076 59.461031 0
M  V30 59 H 37.714194 27.583101 57.948636 0
M  V30 60 H 35.075735 35.242954 59.479490 0
M  V30 END ATOM
M  V30 BEGIN BOND
M  V30 1 1 3 1
M  V30 2 1 7 2
M  V30 3 1 11 2
M  V30 4 1 12 9
M  V30 5 1 14 2
M  V30 6 1 14 3
M  V30 7 1 15 4
M  V30 8 1 17 14
M  V30 9 1 18 13
M  V30 10 1 19 9
M  V30 11 1 20 1
M  V30 12 1 20 3
M  V30 13 2 20 6
M  V30 14 1 21 9
M  V30 15 1 22 16
M  V30 16 1 23 8
M  V30 17 1 23 10
M  V30 18 1 23 17
M  V30 19 1 24 11
M  V30 20 1 24 23
M  V30 21 1 25 1
M  V30 22 1 25 4
M  V30 23 1 25 15
M  V30 24 1 26 13
M  V30 25 2 26 16
M  V30 26 2 27 5
M  V30 27 1 27 26
M  V30 28 1 28 5
M  V30 29 1 28 12
M  V30 30 2 28 22
M  V30 31 1 29 18
M  V30 32 1 20 29 CFG=1
M  V30 33 1 1 30 CFG=3
M  V30 34 1 2 31 CFG=1
M  V30 35 1 3 32 CFG=3
M  V30 36 1 33 4
M  V30 37 1 34 4
M  V30 38 1 35 5
M  V30 39 1 36 7
M  V30 40 1 37 7
M  V30 41 1 38 7
M  V30 42 1 39 9
M  V30 43 1 40 11
M  V30 44 1 41 11
M  V30 45 1 42 12
M  V30 46 1 14 43 CFG=1
M  V30 47 1 44 15
M  V30 48 1 45 15
M  V30 49 1 46 16
M  V30 50 1 47 18
M  V30 51 1 48 18
M  V30 52 1 49 19
M  V30 53 1 50 19
M  V30 54 1 51 19
M  V30 55 1 52 21
M  V30 56 1 53 21
M  V30 57 1 54 21
M  V30 58 1 55 22
M  V30 59 1 56 25
M  V30 60 1 57 27
M  V30 61 1 58 29
M  V30 62 1 59 29
M  V30 63 1 60 12
M  V30 END BOND
M  V30 END CTAB
M  END
>  <i_epik_Tot_Q>  (1) 
1

>  <i_epik_Tot_abs_Q>  (1) 
1

>  <i_i_glide_confnum>  (1) 
13

>  <i_i_glide_lignum>  (1) 
85

>  <i_i_glide_posenum>  (1) 
170

>  <i_i_glide_rotatable_bonds>  (1) 
8

>  <i_lp_mmshare_version>  (1) 
72125

>  <i_m_source_file_index>  (1) 
41

>  <i_f3d_flags>  (1) 
0

>  <num_sample>  (1) 
50

>  <b_lp_Chiralities_Consistent>  (1) 
1

>  <r_epik_Charging_Adjusted_Penalty>  (1) 
2.1414087062306124

>  <r_epik_Ionization_Penalty>  (1) 
1.0707043531153062

>  <r_epik_Ionization_Penalty_Charging>  (1) 
1.0707043531153062

>  <r_epik_Ionization_Penalty_Neutral>  (1) 
0

>  <r_epik_State_Penalty>  (1) 
1.0707043531153062

>  <r_glide_ring_energy>  (1) 
0

>  <r_i_docking_score>  (1) 
-5.4041070035548273

>  <r_i_glide_ecoul>  (1) 
-0.52659827393486092

>  <r_i_glide_eff_state_penalty>  (1) 
1.0707043531153062

>  <r_i_glide_einternal>  (1) 
2.7497520368674997

>  <r_i_glide_emodel>  (1) 
-51.453373510491744

>  <r_i_glide_emodel_strain>  (1) 
0

>  <r_i_glide_energy>  (1) 
-38.106018554437867

>  <r_i_glide_erotb>  (1) 
0.70277430803170493

>  <r_i_glide_esite>  (1) 
-0.08745716678466274

>  <r_i_glide_evdw>  (1) 
-37.579420280503008

>  <r_i_glide_gscore>  (1) 
-6.4748113566701333

>  <r_i_glide_gscore_strain>  (1) 
0

>  <r_i_glide_hbond>  (1) 
0

>  <r_i_glide_ligand_efficiency>  (1) 
-0.18634851736395958

>  <r_i_glide_ligand_efficiency_ln>  (1) 
-1.2374034674842633

>  <r_i_glide_ligand_efficiency_sa>  (1) 
-0.57252168533890435

>  <r_i_glide_lipo>  (1) 
-3.606026875243892

>  <r_i_glide_metal>  (1) 
-0

>  <r_i_glide_rewards>  (1) 
-1.5261408675579038

>  <r_lp_Energy>  (1) 
20.817494999999997

>  <s_epik_cmdline>  (1) 
J2VwaWtfcHl0aG9uJywgJy1waHQnLCAnMS4wJywgJy1waCcsICc3LjQnLCAnLXRuJywgJzgnLCAnLW1hJywgJzUwMCcsICctaW1hZScsICc8aW5maWxlLm1hZT4nLCAnLW9tYWUnLCAnPG91dGZpbGUubWFlPic=

>  <s_epik_input>  (1) 
RkMxKEYpU1tDQEBIXShbQ0BIXShbQ0gzXSlbQ0gyXU8xKVtDQEBIXTJbQ0BIXShbQ0hdM1tDSDJdW0NIMl0zKVAyKD1PKVtDSDJdW0NIMl1PYzRbY0hdW2NIXWMoW2NIXVtjSF00KVtOSF1bQ0hdKFtDSDNdKVtDSDNd

>  <s_glide_docking_method>  (1) 
confgen

>  <s_i_glide_gridfile>  (1) 
gpcr_5ht2c_6bqh_protein_autoprepared_prepared

>  <s_lp_Force_Field>  (1) 
S-OPLS

>  <s_lp_Variant>  (1) 
DiffSBDD_40-3

>  <s_m_source_file>  (1) 
generated_GPCR_5HT2C_ligand_DiffSBDD_2026-06-23_prepared.sdf

>  <GenAI_Model>  (1) 
DiffSBDD

>  <Protein>  (1) 
GPCR_5HT2C

$$$$
DiffSBDD_14
     RDKit          3D

  0  0  0  0  0  0  0  0  0  0999 V3000
M  V30 BEGIN CTAB
M  V30 COUNTS 58 59 0 0 1
M  V30 BEGIN ATOM
M  V30 1 Cl 37.645137 25.751429 54.567766 0
M  V30 2 C 37.069314 29.275863 58.178123 0
M  V30 3 N 38.713120 28.769579 52.156073 0
M  V30 4 C 39.245109 29.641027 53.044812 0
M  V30 5 C 39.457937 35.372253 61.825239 0
M  V30 6 C 38.729573 36.981525 64.653192 0
M  V30 7 C 36.371036 37.150426 63.817522 0
M  V30 8 C 37.990523 30.471282 57.924732 0 CFG=1
M  V30 9 C 37.387873 34.502731 59.946978 0
M  V30 10 C 38.270387 27.261804 54.016338 0
M  V30 11 C 37.689566 37.206580 63.563942 0
M  V30 12 C 38.232200 27.603402 52.648335 0
M  V30 13 O 38.445148 32.076563 54.799185 0 CHG=-1
M  V30 14 N 37.810899 30.937745 56.527673 0 CHG=1
M  V30 15 C 38.231452 37.507104 62.168269 0
M  V30 16 C 39.757956 34.313681 60.769778 0
M  V30 17 C 38.827244 28.170060 54.921589 0
M  V30 18 C 38.979441 31.514378 55.846258 0 CFG=1
M  V30 19 C 39.321281 29.385702 54.428757 0
M  V30 20 C 39.941490 30.405129 55.365827 0
M  V30 21 C 38.836054 32.470332 59.353134 0
M  V30 22 C 38.489018 33.525064 60.408330 0 CFG=2
M  V30 23 C 37.153124 35.611607 60.979620 0
M  V30 24 N 38.420477 36.303525 61.325653 0 CFG=2 CHG=1
M  V30 25 C 37.655918 31.578828 58.949731 0
M  V30 26 H 37.185641 28.937760 59.206122 0
M  V30 27 H 36.024913 29.551472 58.039122 0
M  V30 28 H 37.288781 28.434043 57.523549 0
M  V30 29 H 39.623904 30.567664 52.638378 0
M  V30 30 H 40.368656 35.922129 62.068480 0
M  V30 31 H 39.118717 34.872070 62.730902 0
M  V30 32 H 39.369042 37.856929 64.759767 0
M  V30 33 H 38.252870 36.808987 65.618749 0
M  V30 34 H 39.381867 36.137734 64.452874 0
M  V30 35 H 35.645142 37.316148 63.035597 0
M  V30 36 H 36.002692 36.937782 64.811477 0
M  V30 37 H 39.013378 30.124582 58.074419 0
M  V30 38 H 37.645133 34.938529 58.981488 0
M  V30 39 H 36.444357 33.977745 59.796553 0
M  V30 40 H 37.808278 26.925239 51.928618 0
M  V30 41 H 37.513230 30.177486 55.938850 0
M  V30 42 H 37.540945 38.179135 61.656391 0
M  V30 43 H 39.177668 38.046582 62.244134 0
M  V30 44 H 40.159480 34.799875 59.880480 0
M  V30 45 H 40.530618 33.639259 61.140501 0
M  V30 46 H 38.876808 27.939014 55.974639 0
M  V30 47 H 39.542997 32.108320 56.559089 0
M  V30 48 H 40.796729 30.860203 54.862694 0
M  V30 49 H 40.350913 29.858864 56.213981 0
M  V30 50 H 39.245155 32.981451 58.485275 0
M  V30 51 H 39.622226 31.839154 59.767762 0
M  V30 52 H 38.137036 33.010612 61.304408 0
M  V30 53 H 36.699093 35.182287 61.873347 0
M  V30 54 H 36.445159 36.334263 60.573280 0
M  V30 55 H 37.274999 31.125910 59.866315 0
M  V30 56 H 36.838722 32.184806 58.567766 0
M  V30 57 H 38.777313 36.652255 60.447805 0
M  V30 58 H 37.047594 31.614512 56.519592 0
M  V30 END ATOM
M  V30 BEGIN BOND
M  V30 1 1 4 3
M  V30 2 1 8 2
M  V30 3 1 10 1
M  V30 4 1 11 6
M  V30 5 2 11 7
M  V30 6 2 12 3
M  V30 7 1 12 10
M  V30 8 1 14 8
M  V30 9 1 15 11
M  V30 10 1 16 5
M  V30 11 2 17 10
M  V30 12 1 18 13
M  V30 13 1 18 14
M  V30 14 2 19 4
M  V30 15 1 19 17
M  V30 16 1 20 18
M  V30 17 1 20 19
M  V30 18 1 22 9
M  V30 19 1 22 16
M  V30 20 1 22 21
M  V30 21 1 23 9
M  V30 22 1 24 5
M  V30 23 1 24 15
M  V30 24 1 24 23
M  V30 25 1 25 8
M  V30 26 1 25 21
M  V30 27 1 26 2
M  V30 28 1 27 2
M  V30 29 1 28 2
M  V30 30 1 29 4
M  V30 31 1 30 5
M  V30 32 1 31 5
M  V30 33 1 32 6
M  V30 34 1 33 6
M  V30 35 1 34 6
M  V30 36 1 35 7
M  V30 37 1 36 7
M  V30 38 1 8 37 CFG=3
M  V30 39 1 38 9
M  V30 40 1 39 9
M  V30 41 1 40 12
M  V30 42 1 41 14
M  V30 43 1 42 15
M  V30 44 1 43 15
M  V30 45 1 44 16
M  V30 46 1 45 16
M  V30 47 1 46 17
M  V30 48 1 18 47 CFG=1
M  V30 49 1 48 20
M  V30 50 1 49 20
M  V30 51 1 50 21
M  V30 52 1 51 21
M  V30 53 1 22 52 CFG=1
M  V30 54 1 53 23
M  V30 55 1 54 23
M  V30 56 1 55 25
M  V30 57 1 56 25
M  V30 58 1 24 57 CFG=3
M  V30 59 1 58 14
M  V30 END BOND
M  V30 END CTAB
M  END
>  <i_epik_Tot_Q>  (1) 
1

>  <i_epik_Tot_abs_Q>  (1) 
3

>  <i_i_glide_confnum>  (1) 
347

>  <i_i_glide_lignum>  (1) 
29

>  <i_i_glide_posenum>  (1) 
83

>  <i_i_glide_rotatable_bonds>  (1) 
9

>  <i_lp_mmshare_version>  (1) 
72125

>  <i_m_source_file_index>  (1) 
15

>  <i_f3d_flags>  (1) 
0

>  <num_sample>  (1) 
50

>  <b_lp_Chiralities_Consistent>  (1) 
1

>  <r_epik_Charging_Adjusted_Penalty>  (1) 
1.1654849776379888

>  <r_epik_Ionization_Penalty>  (1) 
0.58785290175030958

>  <r_epik_Ionization_Penalty_Charging>  (1) 
0.58784809198166499

>  <r_epik_Ionization_Penalty_Neutral>  (1) 
4.8097686445928234e-06

>  <r_epik_State_Penalty>  (1) 
0.57763688565632376

>  <r_glide_ring_energy>  (1) 
0

>  <r_i_docking_score>  (1) 
-5.3998876974450862

>  <r_i_glide_ecoul>  (1) 
-3.3429836816850633

>  <r_i_glide_eff_state_penalty>  (1) 
0.57763688565632376

>  <r_i_glide_einternal>  (1) 
10.919000523221268

>  <r_i_glide_emodel>  (1) 
-46.454315237378282

>  <r_i_glide_emodel_strain>  (1) 
0.01651285358910215

>  <r_i_glide_energy>  (1) 
-35.034433867199368

>  <r_i_glide_erotb>  (1) 
1.143828235945936

>  <r_i_glide_esite>  (1) 
-0.11285330127390646

>  <r_i_glide_evdw>  (1) 
-31.691450185514306

>  <r_i_glide_gscore>  (1) 
-5.9775245831014097

>  <r_i_glide_gscore_strain>  (1) 
0

>  <r_i_glide_hbond>  (1) 
-0.17688273824684453

>  <r_i_glide_ligand_efficiency>  (1) 
-0.21599550789780345

>  <r_i_glide_ligand_efficiency_ln>  (1) 
-1.2799352058705782

>  <r_i_glide_ligand_efficiency_sa>  (1) 
-0.63157469646747455

>  <r_i_glide_lipo>  (1) 
-3.2079422015300172

>  <r_i_glide_metal>  (1) 
-0

>  <r_i_glide_rewards>  (1) 
-1.5376545164681019

>  <r_lp_Energy>  (1) 
30.160715

>  <s_epik_Chemistry_Notes>  (1) 
This compound contains an acetal/aminal-like group ( X-CH(R)-Y where X, Y are N, S, or O) that may be acid/base labile, releasing an aldehyde.

>  <s_epik_cmdline>  (1) 
J2VwaWtfcHl0aG9uJywgJy1waHQnLCAnMS4wJywgJy1waCcsICc3LjQnLCAnLXRuJywgJzgnLCAnLW1hJywgJzUwMCcsICctaW1hZScsICc8aW5maWxlLm1hZT4nLCAnLW9tYWUnLCAnPG91dGZpbGUubWFlPic=

>  <s_epik_input>  (1) 
Q2xjMVtjSF1uW2NIXWMoW2NIXTEpW0NIMl1bQ0BASF0oW09IXSlbTkhdW0NASF0oW0NIM10pW0NIMl1bQ0gyXVtDSF0yW0NIMl1bQ0gyXU4oW0NIMl1bQ0gyXTIpW0NIMl1DKFtDSDNdKT1bQ0gyXQ==

>  <s_glide_docking_method>  (1) 
confgen

>  <s_i_glide_gridfile>  (1) 
gpcr_5ht2c_6bqh_protein_autoprepared_prepared

>  <s_lp_Force_Field>  (1) 
S-OPLS

>  <s_lp_Variant>  (1) 
DiffSBDD_14-3

>  <s_m_source_file>  (1) 
generated_GPCR_5HT2C_ligand_DiffSBDD_2026-06-23_prepared.sdf

>  <GenAI_Model>  (1) 
DiffSBDD

>  <Protein>  (1) 
GPCR_5HT2C

$$$$
DiffSBDD_40
     RDKit          3D

  0  0  0  0  0  0  0  0  0  0999 V3000
M  V30 BEGIN CTAB
M  V30 COUNTS 60 63 0 0 1
M  V30 BEGIN ATOM
M  V30 1 C 39.496474 26.522813 57.101812 0 CFG=1
M  V30 2 C 39.644998 29.756682 54.744967 0 CFG=2
M  V30 3 C 39.962393 27.710843 56.274477 0 CFG=1
M  V30 4 C 38.255180 24.233277 56.777039 0
M  V30 5 C 36.186442 33.544055 60.412149 0
M  V30 6 O 40.402061 28.340608 59.050792 0
M  V30 7 C 39.434533 30.802242 55.854787 0
M  V30 8 F 38.782382 27.547667 51.260038 0
M  V30 9 C 37.193216 36.835909 61.131429 0
M  V30 10 F 37.270165 28.315304 52.568795 0
M  V30 11 C 38.979940 30.278859 53.459360 0
M  V30 12 N 36.845217 35.544098 61.767757 0 CHG=1
M  V30 13 O 38.203752 30.757648 59.035008 0
M  V30 14 C 39.157248 28.324278 55.128291 0 CFG=2
M  V30 15 C 37.560544 24.958302 57.893677 0
M  V30 16 C 38.869280 32.653934 60.359130 0
M  V30 17 S 39.245128 27.158019 53.729397 0
M  V30 18 C 37.427970 29.586399 59.258347 0
M  V30 19 C 36.972010 36.838346 59.608666 0
M  V30 20 P 39.415121 28.120965 57.956394 0 CFG=2
M  V30 21 C 38.606993 37.277309 61.528489 0
M  V30 22 C 38.536832 33.841402 61.035936 0
M  V30 23 C 38.588486 28.192179 52.408139 0
M  V30 24 O 39.245181 29.445149 52.339594 0
M  V30 25 C 38.231688 25.744409 56.790670 0
M  V30 26 C 37.862155 31.904986 59.707647 0
M  V30 27 C 36.514512 32.353423 59.738150 0
M  V30 28 C 37.201715 34.271059 61.047977 0
M  V30 29 C 37.639150 28.644476 58.074270 0
M  V30 30 H 40.299971 25.899873 57.491396 0
M  V30 31 H 40.716862 29.737935 54.567932 0
M  V30 32 H 41.038723 27.777115 56.130585 0
M  V30 33 H 37.638695 23.738000 56.029131 0
M  V30 34 H 39.195881 23.738926 57.013298 0
M  V30 35 H 35.164779 33.894667 60.433972 0
M  V30 36 H 38.381882 30.912153 56.116072 0
M  V30 37 H 39.989321 30.557182 56.757465 0
M  V30 38 H 39.790043 31.782395 55.536104 0
M  V30 39 H 36.507840 37.569340 61.558288 0
M  V30 40 H 39.375465 31.267342 53.220523 0
M  V30 41 H 37.909119 30.407480 53.615349 0
M  V30 42 H 35.847162 35.552059 61.916226 0
M  V30 43 H 38.101633 28.370698 55.380424 0
M  V30 44 H 38.045142 24.939299 58.866889 0
M  V30 45 H 36.472662 24.939518 57.907923 0
M  V30 46 H 39.893999 32.314577 60.336371 0
M  V30 47 H 37.782676 29.105960 60.167637 0
M  V30 48 H 36.361793 29.769839 59.379982 0
M  V30 49 H 37.245153 37.800550 59.179182 0
M  V30 50 H 37.578913 36.088641 59.105017 0
M  V30 51 H 35.929965 36.645558 59.352061 0
M  V30 52 H 38.811223 38.286811 61.169477 0
M  V30 53 H 38.730212 37.291565 62.612199 0
M  V30 54 H 39.367946 36.616429 61.114835 0
M  V30 55 H 39.302308 34.414183 61.536039 0
M  V30 56 H 37.540202 26.213963 56.093903 0
M  V30 57 H 35.741814 31.791992 59.234377 0
M  V30 58 H 37.011501 27.762987 58.167750 0
M  V30 59 H 37.319201 29.159871 57.173123 0
M  V30 60 H 37.264901 35.548194 62.686310 0
M  V30 END ATOM
M  V30 BEGIN BOND
M  V30 1 1 3 1
M  V30 2 1 7 2
M  V30 3 1 11 2
M  V30 4 1 12 9
M  V30 5 1 14 2
M  V30 6 1 14 3
M  V30 7 1 15 4
M  V30 8 1 17 14
M  V30 9 1 18 13
M  V30 10 1 19 9
M  V30 11 1 20 1
M  V30 12 1 20 3
M  V30 13 2 20 6
M  V30 14 1 21 9
M  V30 15 1 22 16
M  V30 16 1 23 8
M  V30 17 1 23 10
M  V30 18 1 23 17
M  V30 19 1 24 11
M  V30 20 1 24 23
M  V30 21 1 25 1
M  V30 22 1 25 4
M  V30 23 1 25 15
M  V30 24 1 26 13
M  V30 25 2 26 16
M  V30 26 2 27 5
M  V30 27 1 27 26
M  V30 28 1 28 5
M  V30 29 1 28 12
M  V30 30 2 28 22
M  V30 31 1 29 18
M  V30 32 1 20 29 CFG=3
M  V30 33 1 1 30 CFG=1
M  V30 34 1 2 31 CFG=3
M  V30 35 1 3 32 CFG=1
M  V30 36 1 33 4
M  V30 37 1 34 4
M  V30 38 1 35 5
M  V30 39 1 36 7
M  V30 40 1 37 7
M  V30 41 1 38 7
M  V30 42 1 39 9
M  V30 43 1 40 11
M  V30 44 1 41 11
M  V30 45 1 42 12
M  V30 46 1 14 43 CFG=1
M  V30 47 1 44 15
M  V30 48 1 45 15
M  V30 49 1 46 16
M  V30 50 1 47 18
M  V30 51 1 48 18
M  V30 52 1 49 19
M  V30 53 1 50 19
M  V30 54 1 51 19
M  V30 55 1 52 21
M  V30 56 1 53 21
M  V30 57 1 54 21
M  V30 58 1 55 22
M  V30 59 1 56 25
M  V30 60 1 57 27
M  V30 61 1 58 29
M  V30 62 1 59 29
M  V30 63 1 60 12
M  V30 END BOND
M  V30 END CTAB
M  END
>  <i_epik_Tot_Q>  (1) 
1

>  <i_epik_Tot_abs_Q>  (1) 
1

>  <i_i_glide_confnum>  (1) 
360

>  <i_i_glide_lignum>  (1) 
86

>  <i_i_glide_posenum>  (1) 
146

>  <i_i_glide_rotatable_bonds>  (1) 
8

>  <i_lp_mmshare_version>  (1) 
72125

>  <i_m_source_file_index>  (1) 
41

>  <i_f3d_flags>  (1) 
0

>  <num_sample>  (1) 
50

>  <b_lp_Chiralities_Consistent>  (1) 
1

>  <r_epik_Charging_Adjusted_Penalty>  (1) 
2.1414087062306124

>  <r_epik_Ionization_Penalty>  (1) 
1.0707043531153062

>  <r_epik_Ionization_Penalty_Charging>  (1) 
1.0707043531153062

>  <r_epik_Ionization_Penalty_Neutral>  (1) 
0

>  <r_epik_State_Penalty>  (1) 
1.0707043531153062

>  <r_glide_ring_energy>  (1) 
0

>  <r_i_docking_score>  (1) 
-5.3961521807580661

>  <r_i_glide_ecoul>  (1) 
-0.0077937231253022432

>  <r_i_glide_eff_state_penalty>  (1) 
1.0707043531153062

>  <r_i_glide_einternal>  (1) 
4.3565573300469635

>  <r_i_glide_emodel>  (1) 
-55.635454436019543

>  <r_i_glide_emodel_strain>  (1) 
0.11244279237027399

>  <r_i_glide_energy>  (1) 
-40.756263530033642

>  <r_i_glide_erotb>  (1) 
0.70277430803170493

>  <r_i_glide_esite>  (1) 
0

>  <r_i_glide_evdw>  (1) 
-40.748469806908339

>  <r_i_glide_gscore>  (1) 
-6.4668565338733721

>  <r_i_glide_gscore_strain>  (1) 
0

>  <r_i_glide_hbond>  (1) 
0

>  <r_i_glide_ligand_efficiency>  (1) 
-0.18607421312958849

>  <r_i_glide_ligand_efficiency_ln>  (1) 
-1.2355820147807066

>  <r_i_glide_ligand_efficiency_sa>  (1) 
-0.57167893582428919

>  <r_i_glide_lipo>  (1) 
-3.661607096213821

>  <r_i_glide_metal>  (1) 
-0

>  <r_i_glide_rewards>  (1) 
-1.4694311968770433

>  <r_lp_Energy>  (1) 
21.359881999999999

>  <s_epik_cmdline>  (1) 
J2VwaWtfcHl0aG9uJywgJy1waHQnLCAnMS4wJywgJy1waCcsICc3LjQnLCAnLXRuJywgJzgnLCAnLW1hJywgJzUwMCcsICctaW1hZScsICc8aW5maWxlLm1hZT4nLCAnLW9tYWUnLCAnPG91dGZpbGUubWFlPic=

>  <s_epik_input>  (1) 
RkMxKEYpU1tDQEBIXShbQ0BIXShbQ0gzXSlbQ0gyXU8xKVtDQEBIXTJbQ0BIXShbQ0hdM1tDSDJdW0NIMl0zKVAyKD1PKVtDSDJdW0NIMl1PYzRbY0hdW2NIXWMoW2NIXVtjSF00KVtOSF1bQ0hdKFtDSDNdKVtDSDNd

>  <s_glide_docking_method>  (1) 
confgen

>  <s_i_glide_gridfile>  (1) 
gpcr_5ht2c_6bqh_protein_autoprepared_prepared

>  <s_lp_Force_Field>  (1) 
S-OPLS

>  <s_lp_Variant>  (1) 
DiffSBDD_40-4

>  <s_m_source_file>  (1) 
generated_GPCR_5HT2C_ligand_DiffSBDD_2026-06-23_prepared.sdf

>  <GenAI_Model>  (1) 
DiffSBDD

>  <Protein>  (1) 
GPCR_5HT2C

$$$$
DiffSBDD_23
     RDKit          3D

  0  0  0  0  0  0  0  0  0  0999 V3000
M  V30 BEGIN CTAB
M  V30 COUNTS 20 20 0 0 1
M  V30 BEGIN ATOM
M  V30 1 C 38.405414 28.980065 54.567660 0
M  V30 2 C 39.023150 30.237115 54.419777 0
M  V30 3 C 38.408108 28.058963 53.500695 0
M  V30 4 S 40.445138 30.137755 50.564318 0
M  V30 5 C 39.031058 27.389188 51.126864 0
M  V30 6 C 39.014738 31.224164 55.570023 0
M  V30 7 O 37.811580 26.841206 53.655805 0
M  V30 8 C 39.645145 29.666791 52.130262 0
M  V30 9 C 39.027853 28.395678 52.273849 0
M  V30 10 C 39.645094 30.576989 53.202639 0
M  V30 11 H 37.929374 28.721864 55.502493 0
M  V30 12 H 39.475259 29.675178 49.768317 0
M  V30 13 H 39.374468 27.764696 50.167767 0
M  V30 14 H 39.645137 26.533609 51.395948 0
M  V30 15 H 38.030375 27.004745 50.967766 0
M  V30 16 H 39.554768 32.137701 55.319364 0
M  V30 17 H 37.989093 31.496731 55.824848 0
M  V30 18 H 39.482765 30.784673 56.451044 0
M  V30 19 H 37.423241 26.720265 54.507942 0
M  V30 20 H 40.115119 31.540480 53.088160 0
M  V30 END ATOM
M  V30 BEGIN BOND
M  V30 1 2 2 1
M  V30 2 1 3 1
M  V30 3 1 6 2
M  V30 4 1 7 3
M  V30 5 1 8 4
M  V30 6 2 9 3
M  V30 7 1 9 5
M  V30 8 1 9 8
M  V30 9 1 10 2
M  V30 10 2 10 8
M  V30 11 1 11 1
M  V30 12 1 12 4
M  V30 13 1 13 5
M  V30 14 1 14 5
M  V30 15 1 15 5
M  V30 16 1 16 6
M  V30 17 1 17 6
M  V30 18 1 18 6
M  V30 19 1 19 7
M  V30 20 1 20 10
M  V30 END BOND
M  V30 END CTAB
M  END
>  <i_epik_Tot_Q>  (1) 
0

>  <i_epik_Tot_abs_Q>  (1) 
0

>  <i_i_glide_confnum>  (1) 
1

>  <i_i_glide_lignum>  (1) 
52

>  <i_i_glide_posenum>  (1) 
241

>  <i_i_glide_rotatable_bonds>  (1) 
2

>  <i_lp_mmshare_version>  (1) 
72125

>  <i_m_source_file_index>  (1) 
24

>  <i_f3d_flags>  (1) 
0

>  <num_sample>  (1) 
50

>  <b_lp_Chiralities_Consistent>  (1) 
1

>  <r_epik_Charging_Adjusted_Penalty>  (1) 
1.0841651960075367

>  <r_epik_Ionization_Penalty>  (1) 
1.0861292701856073

>  <r_epik_Ionization_Penalty_Charging>  (1) 
0

>  <r_epik_Ionization_Penalty_Neutral>  (1) 
1.0861292701856073

>  <r_epik_State_Penalty>  (1) 
1.0841651960075367

>  <r_glide_ring_energy>  (1) 
0

>  <r_i_docking_score>  (1) 
-5.390361619644259

>  <r_i_glide_ecoul>  (1) 
-0.65473277525298612

>  <r_i_glide_eff_state_penalty>  (1) 
1.0841651960075367

>  <r_i_glide_einternal>  (1) 
0.20755281233604428

>  <r_i_glide_emodel>  (1) 
-35.224483381173442

>  <r_i_glide_emodel_strain>  (1) 
0.90371827350991563

>  <r_i_glide_energy>  (1) 
-25.665698464856725

>  <r_i_glide_erotb>  (1) 
0

>  <r_i_glide_esite>  (1) 
0

>  <r_i_glide_evdw>  (1) 
-25.01096568960374

>  <r_i_glide_gscore>  (1) 
-6.4745268156517959

>  <r_i_glide_gscore_strain>  (1) 
0

>  <r_i_glide_hbond>  (1) 
-0.072465113568574768

>  <r_i_glide_ligand_efficiency>  (1) 
-0.53903616196442594

>  <r_i_glide_ligand_efficiency_ln>  (1) 
-1.6321643403160535

>  <r_i_glide_ligand_efficiency_sa>  (1) 
-1.1613182065178043

>  <r_i_glide_lipo>  (1) 
-2.0803622234294692

>  <r_i_glide_metal>  (1) 
-0

>  <r_i_glide_rewards>  (1) 
-2.9729412778856172

>  <r_lp_Energy>  (1) 
6.0807719999999996

>  <s_epik_cmdline>  (1) 
J2VwaWtfcHl0aG9uJywgJy1waHQnLCAnMS4wJywgJy1waCcsICc3LjQnLCAnLXRuJywgJzgnLCAnLW1hJywgJzUwMCcsICctaW1hZScsICc8aW5maWxlLm1hZT4nLCAnLW9tYWUnLCAnPG91dGZpbGUubWFlPic=

>  <s_epik_input>  (1) 
W0NIM11jMVtjSF1jKFtPSF0pYyhbQ0gzXSljKFtTSF0pW2NIXTE=

>  <s_glide_docking_method>  (1) 
confgen

>  <s_i_glide_gridfile>  (1) 
gpcr_5ht2c_6bqh_protein_autoprepared_prepared

>  <s_lp_Force_Field>  (1) 
S-OPLS

>  <s_lp_Variant>  (1) 
DiffSBDD_23-2

>  <s_m_source_file>  (1) 
generated_GPCR_5HT2C_ligand_DiffSBDD_2026-06-23_prepared.sdf

>  <GenAI_Model>  (1) 
DiffSBDD

>  <Protein>  (1) 
GPCR_5HT2C

$$$$
DiffSBDD_48
     RDKit          3D

  0  0  0  0  0  0  0  0  0  0999 V3000
M  V30 BEGIN CTAB
M  V30 COUNTS 78 78 0 0 1
M  V30 BEGIN ATOM
M  V30 1 O 42.045280 31.549020 62.640255 0
M  V30 2 C 37.059213 36.887446 59.569611 0
M  V30 3 C 37.172284 37.629790 60.918050 0
M  V30 4 O 38.876279 26.937825 52.727069 0
M  V30 5 C 37.731036 32.386599 58.910769 0
M  V30 6 C 41.476842 32.657965 62.690061 0
M  V30 7 C 40.441750 27.809299 56.072046 0
M  V30 8 C 40.626549 32.949797 63.928968 0
M  V30 9 C 37.346939 33.134522 60.196534 0
M  V30 10 C 38.521375 37.472317 61.646240 0
M  V30 11 N 37.809231 34.524282 60.163475 0
M  V30 12 C 42.446926 33.423518 65.660768 0
M  V30 13 C 37.355067 30.901332 59.020774 0
M  V30 14 C 39.245129 27.668495 53.835333 0
M  V30 15 C 38.488687 27.622243 51.539816 0
M  V30 16 C 41.224117 33.986404 64.916092 0 CFG=1
M  V30 17 C 41.535291 35.396217 64.344880 0
M  V30 18 C 38.764385 29.122436 53.830648 0
M  V30 19 O 40.152107 26.937925 58.290658 0
M  V30 20 C 39.227501 36.129256 61.372260 0 CFG=2
M  V30 21 C 40.369214 36.096217 63.619904 0
M  V30 22 O 41.531081 33.550032 61.814599 0 CHG=-1
M  V30 23 C 37.916194 30.008751 57.903005 0
M  V30 24 O 42.453383 33.896921 66.987684 0
M  V30 25 C 39.617094 27.374196 57.273229 0
M  V30 26 C 37.544593 28.538378 58.164844 0
M  V30 27 C 38.276666 34.926540 61.486404 0
M  V30 28 C 36.719009 35.382349 59.686309 0
M  V30 29 C 39.973195 27.093247 54.815392 0
M  V30 30 N 40.471624 35.939165 62.154473 0 CHG=1
M  V30 31 C 38.094857 27.503281 57.165489 0 CFG=2
M  V30 32 C 37.471284 26.110242 57.367805 0
M  V30 33 H 37.945445 37.059053 58.962701 0
M  V30 34 H 36.238098 37.337488 59.012655 0
M  V30 35 H 36.991356 38.693549 60.765569 0
M  V30 36 H 36.371207 37.297543 61.576785 0
M  V30 37 H 37.244978 32.831766 58.042334 0
M  V30 38 H 38.805335 32.480302 58.748988 0
M  V30 39 H 40.390488 28.890806 55.972719 0
M  V30 40 H 41.487064 27.564900 56.254251 0
M  V30 41 H 40.445122 32.010369 64.453170 0
M  V30 42 H 39.645174 33.273896 63.604628 0
M  V30 43 H 37.810628 32.594408 61.022833 0
M  V30 44 H 36.272313 33.074412 60.374914 0
M  V30 45 H 38.330482 37.595575 62.712097 0
M  V30 46 H 39.186411 38.290099 61.367856 0
M  V30 47 H 43.368380 33.736312 65.177121 0
M  V30 48 H 42.440630 32.332992 65.687969 0
M  V30 49 H 37.714725 30.519235 59.976556 0
M  V30 50 H 36.267952 30.812471 59.046623 0
M  V30 51 H 38.445644 26.906197 50.720162 0
M  V30 52 H 37.499997 28.070330 51.630575 0
M  V30 53 H 39.211479 28.386962 51.253082 0
M  V30 54 H 40.445183 34.122884 65.666224 0
M  V30 55 H 41.824757 36.027707 65.186364 0
M  V30 56 H 42.420425 35.370512 63.708363 0
M  V30 57 H 38.816147 29.580563 54.816006 0
M  V30 58 H 39.366859 29.732047 53.157064 0
M  V30 59 H 37.717805 29.194836 53.535803 0
M  V30 60 H 39.606715 36.137730 60.352069 0
M  V30 61 H 39.410954 35.737782 63.990706 0
M  V30 62 H 40.393070 37.165227 63.825376 0
M  V30 63 H 37.523985 30.332018 56.937723 0
M  V30 64 H 38.999682 30.123521 57.859356 0
M  V30 65 H 41.695054 33.552387 67.433809 0
M  V30 66 H 37.896689 28.278159 59.163596 0
M  V30 67 H 36.456040 28.469019 58.167794 0
M  V30 68 H 38.850534 34.101382 61.893832 0
M  V30 69 H 37.447304 35.110880 62.167739 0
M  V30 70 H 36.422967 35.024583 58.698736 0
M  V30 71 H 35.844831 35.258012 60.325554 0
M  V30 72 H 40.256371 26.054143 54.723467 0
M  V30 73 H 41.177200 36.575751 61.815533 0
M  V30 74 H 37.835347 27.841241 56.164990 0
M  V30 75 H 37.858916 25.392780 56.643537 0
M  V30 76 H 37.680119 25.716995 58.363124 0
M  V30 77 H 36.393720 26.137067 57.244030 0
M  V30 78 H 40.819204 34.987640 61.968667 0
M  V30 END ATOM
M  V30 BEGIN BOND
M  V30 1 1 3 2
M  V30 2 2 6 1
M  V30 3 1 8 6
M  V30 4 1 9 5
M  V30 5 1 10 3
M  V30 6 1 11 9
M  V30 7 1 13 5
M  V30 8 1 14 4
M  V30 9 1 15 4
M  V30 10 1 16 8
M  V30 11 1 16 12
M  V30 12 1 17 16
M  V30 13 1 18 14
M  V30 14 1 20 10
M  V30 15 1 21 17
M  V30 16 1 22 6
M  V30 17 1 23 13
M  V30 18 1 24 12
M  V30 19 1 25 7
M  V30 20 2 25 19
M  V30 21 1 26 23
M  V30 22 1 27 11
M  V30 23 1 27 20
M  V30 24 1 28 2
M  V30 25 1 28 11
M  V30 26 1 29 7
M  V30 27 2 29 14
M  V30 28 1 30 20
M  V30 29 1 30 21
M  V30 30 1 31 25
M  V30 31 1 31 26
M  V30 32 1 32 31
M  V30 33 1 33 2
M  V30 34 1 34 2
M  V30 35 1 35 3
M  V30 36 1 36 3
M  V30 37 1 37 5
M  V30 38 1 38 5
M  V30 39 1 39 7
M  V30 40 1 40 7
M  V30 41 1 41 8
M  V30 42 1 42 8
M  V30 43 1 43 9
M  V30 44 1 44 9
M  V30 45 1 45 10
M  V30 46 1 46 10
M  V30 47 1 47 12
M  V30 48 1 48 12
M  V30 49 1 49 13
M  V30 50 1 50 13
M  V30 51 1 51 15
M  V30 52 1 52 15
M  V30 53 1 53 15
M  V30 54 1 16 54 CFG=1
M  V30 55 1 55 17
M  V30 56 1 56 17
M  V30 57 1 57 18
M  V30 58 1 58 18
M  V30 59 1 59 18
M  V30 60 1 20 60 CFG=3
M  V30 61 1 61 21
M  V30 62 1 62 21
M  V30 63 1 63 23
M  V30 64 1 64 23
M  V30 65 1 65 24
M  V30 66 1 66 26
M  V30 67 1 67 26
M  V30 68 1 68 27
M  V30 69 1 69 27
M  V30 70 1 70 28
M  V30 71 1 71 28
M  V30 72 1 72 29
M  V30 73 1 73 30
M  V30 74 1 31 74 CFG=3
M  V30 75 1 75 32
M  V30 76 1 76 32
M  V30 77 1 77 32
M  V30 78 1 78 30
M  V30 END BOND
M  V30 END CTAB
M  END
>  <i_epik_Tot_Q>  (1) 
0

>  <i_epik_Tot_abs_Q>  (1) 
2

>  <i_i_glide_confnum>  (1) 
4478

>  <i_i_glide_lignum>  (1) 
100

>  <i_i_glide_posenum>  (1) 
66

>  <i_i_glide_rotatable_bonds>  (1) 
18

>  <i_lp_mmshare_version>  (1) 
72125

>  <i_m_source_file_index>  (1) 
49

>  <i_f3d_flags>  (1) 
0

>  <num_sample>  (1) 
50

>  <b_lp_Chiralities_Consistent>  (1) 
1

>  <r_epik_Charging_Adjusted_Penalty>  (1) 
0.04911624183534407

>  <r_epik_Ionization_Penalty>  (1) 
0.025385742012929795

>  <r_epik_Ionization_Penalty_Charging>  (1) 
0.0065475108590220404

>  <r_epik_Ionization_Penalty_Neutral>  (1) 
0.018838231153907755

>  <r_epik_State_Penalty>  (1) 
0.042568730976322029

>  <r_glide_ring_energy>  (1) 
0

>  <r_i_docking_score>  (1) 
-5.3831374867294457

>  <r_i_glide_ecoul>  (1) 
-3.5277211954904812

>  <r_i_glide_eff_state_penalty>  (1) 
0.042568730976322029

>  <r_i_glide_einternal>  (1) 
15.521245674134397

>  <r_i_glide_emodel>  (1) 
-50.676677931447408

>  <r_i_glide_emodel_strain>  (1) 
0.99221426775935129

>  <r_i_glide_energy>  (1) 
-42.236159224465126

>  <r_i_glide_erotb>  (1) 
1.5544609794247006

>  <r_i_glide_esite>  (1) 
0

>  <r_i_glide_evdw>  (1) 
-38.708438028974648

>  <r_i_glide_gscore>  (1) 
-5.425706217705768

>  <r_i_glide_gscore_strain>  (1) 
0

>  <r_i_glide_hbond>  (1) 
-0.035764150491475785

>  <r_i_glide_ligand_efficiency>  (1) 
-0.16822304646029518

>  <r_i_glide_ligand_efficiency_ln>  (1) 
-1.2054312220645578

>  <r_i_glide_ligand_efficiency_sa>  (1) 
-0.53407488183273577

>  <r_i_glide_lipo>  (1) 
-3.1306638955993047

>  <r_i_glide_metal>  (1) 
-0

>  <r_i_glide_rewards>  (1) 
-1.3491590702673841

>  <r_lp_Energy>  (1) 
22.905211999999999

>  <r_lp_tautomer_probability>  (1) 
0.99990000499974985

>  <s_epik_cmdline>  (1) 
J2VwaWtfcHl0aG9uJywgJy1waHQnLCAnMS4wJywgJy1waCcsICc3LjQnLCAnLXRuJywgJzgnLCAnLW1hJywgJzUwMCcsICctaW1hZScsICc8aW5maWxlLm1hZT4nLCAnLW9tYWUnLCAnPG91dGZpbGUubWFlPic=

>  <s_epik_input>  (1) 
Tz1DKFtPSF0pW0NIMl1bQ0BASF0oW0NIMl1bT0hdKVtDSDJdW0NIMl1bTkhdW0NASF0oW0NIMl1bQ0gyXVtDSDJdW0NIMl0xKVtDSDJdTjFbQ0gyXVtDSDJdW0NIMl1bQ0gyXVtDSDJdW0NASF0oW0NIM10pQyg9TylbQ0gyXVxbQ0hdPUMoW0NIM10pXE9bQ0gzXQ==

>  <s_glide_docking_method>  (1) 
confgen

>  <s_i_glide_gridfile>  (1) 
gpcr_5ht2c_6bqh_protein_autoprepared_prepared

>  <s_lp_Force_Field>  (1) 
S-OPLS

>  <s_lp_Variant>  (1) 
DiffSBDD_48-2

>  <s_m_source_file>  (1) 
generated_GPCR_5HT2C_ligand_DiffSBDD_2026-06-23_prepared.sdf

>  <GenAI_Model>  (1) 
DiffSBDD

>  <Protein>  (1) 
GPCR_5HT2C

$$$$
DiffSBDD_7
     RDKit          3D

  0  0  0  0  0  0  0  0  0  0999 V3000
M  V30 BEGIN CTAB
M  V30 COUNTS 60 60 0 0 1
M  V30 BEGIN ATOM
M  V30 1 C 38.356986 26.730188 57.932254 0
M  V30 2 O 37.804203 33.101209 56.901532 0
M  V30 3 C 38.951885 24.522883 56.822460 0
M  V30 4 C 39.320990 29.298554 50.783812 0
M  V30 5 C 37.876887 25.586433 57.035297 0
M  V30 6 C 36.775744 31.230548 59.972244 0 CFG=1
M  V30 7 C 38.404908 30.627309 56.818535 0 CFG=1
M  V30 8 C 39.880672 27.424025 52.310707 0
M  V30 9 C 39.031573 28.682367 52.181170 0
M  V30 10 C 35.477626 31.975214 60.298847 0
M  V30 11 C 37.576038 28.177704 52.248443 0
M  V30 12 C 40.682844 30.002757 50.597708 0
M  V30 13 C 38.784599 32.116943 56.669554 0 CFG=1
M  V30 14 O 37.407711 30.938441 61.203248 0
M  V30 15 C 37.769327 29.091458 58.807468 0 CFG=2
M  V30 16 C 39.042418 29.441985 54.741899 0
M  V30 17 C 36.519951 29.927196 59.182763 0
M  V30 18 O 38.585471 28.355408 55.070931 0
M  V30 19 C 39.359368 29.757749 53.265814 0
M  V30 20 N 39.306915 30.459581 55.681163 0
M  V30 21 C 39.224324 31.829537 55.232375 0
M  V30 22 C 38.868063 29.907028 58.095419 0
M  V30 23 C 37.365523 27.900937 57.925174 0
M  V30 24 H 39.331564 27.071073 57.581956 0
M  V30 25 H 38.501504 26.367077 58.949906 0
M  V30 26 H 36.964059 32.738424 56.623393 0
M  V30 27 H 38.565091 23.737808 56.176118 0
M  V30 28 H 39.835901 24.942489 56.340622 0
M  V30 29 H 39.257961 24.068253 57.763952 0
M  V30 30 H 39.209096 28.534093 50.014124 0
M  V30 31 H 38.568582 30.042426 50.567756 0
M  V30 32 H 36.987622 25.129394 57.467837 0
M  V30 33 H 37.578612 25.981772 56.064188 0
M  V30 34 H 37.413973 31.902044 59.400130 0
M  V30 35 H 37.363705 30.463828 56.531571 0
M  V30 36 H 39.644098 26.685935 51.542647 0
M  V30 37 H 40.896580 27.737750 52.167736 0
M  V30 38 H 39.792730 26.937147 53.281881 0
M  V30 39 H 34.913221 32.194963 59.392508 0
M  V30 40 H 34.845313 31.383434 60.958795 0
M  V30 41 H 35.684345 32.923171 60.795445 0
M  V30 42 H 37.293622 27.737733 51.301557 0
M  V30 43 H 37.440283 27.401158 53.000972 0
M  V30 44 H 36.845451 28.937774 52.475805 0
M  V30 45 H 40.868369 30.216844 49.545135 0
M  V30 46 H 40.709899 30.957883 51.123677 0
M  V30 47 H 41.518676 29.411686 50.967403 0
M  V30 48 H 39.644895 32.370582 57.284336 0
M  V30 49 H 38.265749 30.586640 61.022192 0
M  V30 50 H 38.190610 28.699567 59.734079 0
M  V30 51 H 35.839676 29.316302 59.767699 0
M  V30 52 H 35.959351 30.137999 58.273456 0
M  V30 53 H 38.844548 30.664536 52.968160 0
M  V30 54 H 40.419096 30.011112 53.237209 0
M  V30 55 H 40.226149 32.137677 54.967792 0
M  V30 56 H 38.447873 32.075824 54.506925 0
M  V30 57 H 39.245508 30.638133 58.807853 0
M  V30 58 H 39.725727 29.267397 57.884581 0
M  V30 59 H 36.368620 27.548257 58.167740 0
M  V30 60 H 37.245144 28.257250 56.919902 0
M  V30 END ATOM
M  V30 BEGIN BOND
M  V30 1 1 5 1
M  V30 2 1 5 3
M  V30 3 1 9 4
M  V30 4 1 9 8
M  V30 5 1 10 6
M  V30 6 1 11 9
M  V30 7 1 12 4
M  V30 8 1 13 2
M  V30 9 1 13 7
M  V30 10 1 14 6
M  V30 11 1 17 6
M  V30 12 1 17 15
M  V30 13 2 18 16
M  V30 14 1 19 9
M  V30 15 1 19 16
M  V30 16 1 20 7
M  V30 17 1 20 16
M  V30 18 1 21 13
M  V30 19 1 21 20
M  V30 20 1 22 7
M  V30 21 1 22 15
M  V30 22 1 23 1
M  V30 23 1 23 15
M  V30 24 1 24 1
M  V30 25 1 25 1
M  V30 26 1 26 2
M  V30 27 1 27 3
M  V30 28 1 28 3
M  V30 29 1 29 3
M  V30 30 1 30 4
M  V30 31 1 31 4
M  V30 32 1 32 5
M  V30 33 1 33 5
M  V30 34 1 6 34 CFG=3
M  V30 35 1 7 35 CFG=3
M  V30 36 1 36 8
M  V30 37 1 37 8
M  V30 38 1 38 8
M  V30 39 1 39 10
M  V30 40 1 40 10
M  V30 41 1 41 10
M  V30 42 1 42 11
M  V30 43 1 43 11
M  V30 44 1 44 11
M  V30 45 1 45 12
M  V30 46 1 46 12
M  V30 47 1 47 12
M  V30 48 1 13 48 CFG=1
M  V30 49 1 49 14
M  V30 50 1 15 50 CFG=1
M  V30 51 1 51 17
M  V30 52 1 52 17
M  V30 53 1 53 19
M  V30 54 1 54 19
M  V30 55 1 55 21
M  V30 56 1 56 21
M  V30 57 1 57 22
M  V30 58 1 58 22
M  V30 59 1 59 23
M  V30 60 1 60 23
M  V30 END BOND
M  V30 END CTAB
M  END
>  <i_epik_Tot_Q>  (1) 
0

>  <i_epik_Tot_abs_Q>  (1) 
0

>  <i_i_glide_confnum>  (1) 
2065

>  <i_i_glide_lignum>  (1) 
16

>  <i_i_glide_posenum>  (1) 
256

>  <i_i_glide_rotatable_bonds>  (1) 
13

>  <i_lp_mmshare_version>  (1) 
72125

>  <i_m_source_file_index>  (1) 
8

>  <i_f3d_flags>  (1) 
0

>  <num_sample>  (1) 
50

>  <b_lp_Chiralities_Consistent>  (1) 
1

>  <r_epik_Charging_Adjusted_Penalty>  (1) 
0

>  <r_epik_Ionization_Penalty>  (1) 
3.8827151533857073e-07

>  <r_epik_Ionization_Penalty_Charging>  (1) 
0

>  <r_epik_Ionization_Penalty_Neutral>  (1) 
3.8827151533857073e-07

>  <r_epik_State_Penalty>  (1) 
-0

>  <r_glide_ring_energy>  (1) 
0

>  <r_i_docking_score>  (1) 
-5.3629665950913408

>  <r_i_glide_ecoul>  (1) 
-5.2461398861994839

>  <r_i_glide_eff_state_penalty>  (1) 
-0

>  <r_i_glide_einternal>  (1) 
5.1065478574400629

>  <r_i_glide_emodel>  (1) 
-32.749703661099588

>  <r_i_glide_emodel_strain>  (1) 
0.82961091785217178

>  <r_i_glide_energy>  (1) 
-29.969083296413881

>  <r_i_glide_erotb>  (1) 
1.5748308368966815

>  <r_i_glide_esite>  (1) 
0

>  <r_i_glide_evdw>  (1) 
-24.722943410214398

>  <r_i_glide_gscore>  (1) 
-5.3629665950913408

>  <r_i_glide_gscore_strain>  (1) 
0

>  <r_i_glide_hbond>  (1) 
-0.42232333406065581

>  <r_i_glide_ligand_efficiency>  (1) 
-0.23317246065614525

>  <r_i_glide_ligand_efficiency_ln>  (1) 
-1.2968139513855919

>  <r_i_glide_ligand_efficiency_sa>  (1) 
-0.66311146147074984

>  <r_i_glide_lipo>  (1) 
-2.9026493716638697

>  <r_i_glide_metal>  (1) 
-0

>  <r_i_glide_rewards>  (1) 
-1.5897565728228533

>  <r_lp_Energy>  (1) 
6.666982

>  <r_lp_tautomer_probability>  (1) 
1

>  <s_epik_cmdline>  (1) 
J2VwaWtfcHl0aG9uJywgJy1waHQnLCAnMS4wJywgJy1waCcsICc3LjQnLCAnLXRuJywgJzgnLCAnLW1hJywgJzUwMCcsICctaW1hZScsICc8aW5maWxlLm1hZT4nLCAnLW9tYWUnLCAnPG91dGZpbGUubWFlPic=

>  <s_epik_input>  (1) 
W0NIM11bQ0gyXVtDSDJdW0NIMl1bQ0BIXShbQ0gyXVtDQEBIXShbQ0gzXSlbT0hdKVtDSDJdW0NASF0xW0NASF0oW09IXSlbQ0gyXU4xQyg9TylbQ0gyXUMoW0NIM10pKFtDSDNdKVtDSDJdW0NIM10=

>  <s_glide_docking_method>  (1) 
confgen

>  <s_i_glide_gridfile>  (1) 
gpcr_5ht2c_6bqh_protein_autoprepared_prepared

>  <s_lp_Force_Field>  (1) 
S-OPLS

>  <s_lp_Variant>  (1) 
DiffSBDD_7-1

>  <s_m_source_file>  (1) 
generated_GPCR_5HT2C_ligand_DiffSBDD_2026-06-23_prepared.sdf

>  <GenAI_Model>  (1) 
DiffSBDD

>  <Protein>  (1) 
GPCR_5HT2C

$$$$
DiffSBDD_30
     RDKit          3D

  0  0  0  0  0  0  0  0  0  0999 V3000
M  V30 BEGIN CTAB
M  V30 COUNTS 75 78 0 0 1
M  V30 BEGIN ATOM
M  V30 1 C 36.815928 33.457161 60.185301 0 CFG=2
M  V30 2 N 39.080529 30.138103 57.457657 0 CFG=1 CHG=1
M  V30 3 C 41.300556 30.201445 64.220819 0
M  V30 4 O 35.756307 31.389719 60.723969 0
M  V30 5 C 36.899280 34.770905 60.990664 0
M  V30 6 C 38.281675 27.096996 55.701092 0 CFG=1
M  V30 7 N 38.044443 27.419153 57.127323 0
M  V30 8 C 39.999451 28.934235 57.563220 0 CFG=1
M  V30 9 O 39.130384 33.737880 59.525237 0
M  V30 10 C 37.751045 24.594549 56.150519 0
M  V30 11 C 41.191841 29.013387 58.567844 0
M  V30 12 C 37.971728 27.887566 52.427584 0
M  V30 13 O 38.687417 28.247395 53.598581 0
M  V30 14 C 39.219561 27.661306 57.970908 0 CFG=2
M  V30 15 C 37.913400 32.104214 58.240231 0 CFG=1
M  V30 16 C 37.500947 25.830888 55.295743 0
M  V30 17 C 38.575025 30.811129 58.675522 0
M  V30 18 C 36.584646 32.244853 61.105717 0
M  V30 19 O 40.732030 29.244754 59.876246 0
M  V30 20 O 40.076352 26.540568 57.880339 0
M  V30 21 C 39.401471 31.209993 56.481731 0
M  V30 22 O 36.845128 23.737686 56.174818 0 CHG=-1
M  V30 23 C 40.031260 28.136504 60.387602 0 CFG=2
M  V30 24 C 38.849926 27.728330 59.469799 0
M  V30 25 C 39.626294 28.471154 61.814857 0 CFG=2
M  V30 26 C 42.229357 30.910622 66.788196 0
M  V30 27 C 40.379784 30.489747 65.249651 0
M  V30 28 C 42.686674 30.268644 64.479596 0
M  V30 29 C 38.058958 33.164238 59.329917 0
M  V30 30 O 37.245218 32.195262 62.167690 0 CHG=-1
M  V30 31 C 40.812630 29.811863 62.835147 0 CFG=2
M  V30 32 C 38.541276 32.429455 56.870414 0
M  V30 33 C 43.149812 30.623588 65.761279 0
M  V30 34 C 40.845405 30.843468 66.532887 0
M  V30 35 O 38.843063 24.527376 56.757589 0
M  V30 36 C 37.881218 28.255970 54.767728 0
M  V30 37 C 39.394727 29.911437 62.275305 0
M  V30 38 O 40.817874 28.375190 62.638387 0
M  V30 39 H 35.958566 33.518492 59.513196 0
M  V30 40 H 37.851997 34.879001 61.509879 0
M  V30 41 H 36.772999 35.630250 60.331932 0
M  V30 42 H 36.110237 34.818108 61.742994 0
M  V30 43 H 39.340320 26.889247 55.536716 0
M  V30 44 H 37.292254 28.084140 57.268599 0
M  V30 45 H 40.414176 28.773329 56.566640 0
M  V30 46 H 41.943257 29.737813 58.369973 0
M  V30 47 H 41.797294 28.105277 58.547650 0
M  V30 48 H 38.650152 27.773729 51.582910 0
M  V30 49 H 37.447241 26.944769 52.566550 0
M  V30 50 H 37.240357 28.653023 52.171327 0
M  V30 51 H 36.845141 31.911173 58.166916 0
M  V30 52 H 36.445181 26.046495 55.368318 0
M  V30 53 H 37.713710 25.552653 54.265199 0
M  V30 54 H 37.800252 30.262273 59.191323 0
M  V30 55 H 39.376056 31.029525 59.370093 0
M  V30 56 H 39.596246 25.807430 57.475617 0
M  V30 57 H 40.444736 31.483436 56.490143 0
M  V30 58 H 39.206116 30.908550 55.455803 0
M  V30 59 H 40.752358 27.337769 60.420618 0
M  V30 60 H 38.024565 28.386368 59.660784 0
M  V30 61 H 38.445146 26.772641 59.767759 0
M  V30 62 H 38.849786 27.796732 62.168022 0
M  V30 63 H 42.583861 31.181972 67.772488 0
M  V30 64 H 39.317046 30.437093 65.058001 0
M  V30 65 H 43.394245 30.044784 63.693118 0
M  V30 66 H 41.489079 30.290885 62.127602 0
M  V30 67 H 39.145414 33.337204 56.881152 0
M  V30 68 H 37.749513 32.591314 56.136139 0
M  V30 69 H 44.211197 30.673671 65.957072 0
M  V30 70 H 40.141118 31.061681 67.321710 0
M  V30 71 H 36.820464 28.224986 54.530808 0
M  V30 72 H 38.014904 29.211466 55.253314 0
M  V30 73 H 39.288160 30.641928 61.480922 0
M  V30 74 H 38.586132 30.006613 62.990534 0
M  V30 75 H 38.240304 29.744211 57.060885 0
M  V30 END ATOM
M  V30 BEGIN BOND
M  V30 1 1 5 1
M  V30 2 1 7 6
M  V30 3 1 8 2
M  V30 4 1 11 8
M  V30 5 1 13 12
M  V30 6 1 14 7
M  V30 7 1 14 8
M  V30 8 1 16 6
M  V30 9 1 16 10
M  V30 10 1 17 2
M  V30 11 1 17 15
M  V30 12 1 18 1
M  V30 13 2 18 4
M  V30 14 1 19 11
M  V30 15 1 14 20 CFG=1
M  V30 16 1 21 2
M  V30 17 1 22 10
M  V30 18 1 23 19
M  V30 19 1 24 14
M  V30 20 1 24 23
M  V30 21 1 25 23
M  V30 22 1 27 3
M  V30 23 2 28 3
M  V30 24 1 29 1
M  V30 25 2 29 9
M  V30 26 1 29 15
M  V30 27 1 30 18
M  V30 28 1 31 3
M  V30 29 1 32 15
M  V30 30 1 32 21
M  V30 31 2 33 26
M  V30 32 1 33 28
M  V30 33 1 34 26
M  V30 34 2 34 27
M  V30 35 2 35 10
M  V30 36 1 36 6
M  V30 37 1 36 13
M  V30 38 1 37 25
M  V30 39 1 37 31
M  V30 40 1 38 25
M  V30 41 1 38 31
M  V30 42 1 1 39 CFG=3
M  V30 43 1 40 5
M  V30 44 1 41 5
M  V30 45 1 42 5
M  V30 46 1 6 43 CFG=1
M  V30 47 1 44 7
M  V30 48 1 8 45 CFG=3
M  V30 49 1 46 11
M  V30 50 1 47 11
M  V30 51 1 48 12
M  V30 52 1 49 12
M  V30 53 1 50 12
M  V30 54 1 15 51 CFG=3
M  V30 55 1 52 16
M  V30 56 1 53 16
M  V30 57 1 54 17
M  V30 58 1 55 17
M  V30 59 1 56 20
M  V30 60 1 57 21
M  V30 61 1 58 21
M  V30 62 1 23 59 CFG=1
M  V30 63 1 60 24
M  V30 64 1 61 24
M  V30 65 1 25 62 CFG=1
M  V30 66 1 63 26
M  V30 67 1 64 27
M  V30 68 1 65 28
M  V30 69 1 31 66 CFG=3
M  V30 70 1 67 32
M  V30 71 1 68 32
M  V30 72 1 69 33
M  V30 73 1 70 34
M  V30 74 1 71 36
M  V30 75 1 72 36
M  V30 76 1 73 37
M  V30 77 1 74 37
M  V30 78 1 2 75 CFG=3
M  V30 END BOND
M  V30 END CTAB
M  END
>  <i_epik_Tot_Q>  (1) 
-1

>  <i_epik_Tot_abs_Q>  (1) 
3

>  <i_i_glide_confnum>  (1) 
2926

>  <i_i_glide_lignum>  (1) 
66

>  <i_i_glide_posenum>  (1) 
111

>  <i_i_glide_rotatable_bonds>  (1) 
13

>  <i_lp_mmshare_version>  (1) 
72125

>  <i_m_source_file_index>  (1) 
31

>  <i_f3d_flags>  (1) 
0

>  <num_sample>  (1) 
50

>  <b_lp_Chiralities_Consistent>  (1) 
1

>  <r_epik_Charging_Adjusted_Penalty>  (1) 
0.42059132601078875

>  <r_epik_Ionization_Penalty>  (1) 
0.042345838263638087

>  <r_epik_Ionization_Penalty_Charging>  (1) 
0.028527830839106344

>  <r_epik_Ionization_Penalty_Neutral>  (1) 
0.013818007424531742

>  <r_epik_State_Penalty>  (1) 
0.39206349517168243

>  <r_glide_ring_energy>  (1) 
0

>  <r_i_docking_score>  (1) 
-5.353013081685785

>  <r_i_glide_ecoul>  (1) 
-4.1979032557524265

>  <r_i_glide_eff_state_penalty>  (1) 
0.39206349517168243

>  <r_i_glide_einternal>  (1) 
21.851313624942613

>  <r_i_glide_emodel>  (1) 
-29.611383477661576

>  <r_i_glide_emodel_strain>  (1) 
4.412047138304203

>  <r_i_glide_energy>  (1) 
-40.228931822053298

>  <r_i_glide_erotb>  (1) 
0.65218633798694536

>  <r_i_glide_esite>  (1) 
-0.077383142459050674

>  <r_i_glide_evdw>  (1) 
-36.031028566300868

>  <r_i_glide_gscore>  (1) 
-5.7450765768574676

>  <r_i_glide_gscore_strain>  (1) 
0.10301178457605076

>  <r_i_glide_hbond>  (1) 
-0.16620034833800812

>  <r_i_glide_ligand_efficiency>  (1) 
-0.14086876530752065

>  <r_i_glide_ligand_efficiency_ln>  (1) 
-1.1542670901022374

>  <r_i_glide_ligand_efficiency_sa>  (1) 
-0.47359732455001957

>  <r_i_glide_lipo>  (1) 
-2.4625955918518758

>  <r_i_glide_metal>  (1) 
-0

>  <r_i_glide_rewards>  (1) 
-1.3628587000936219

>  <r_lp_Energy>  (1) 
36.442352

>  <r_lp_tautomer_probability>  (1) 
0.99999996000000102

>  <s_epik_cmdline>  (1) 
J2VwaWtfcHl0aG9uJywgJy1waHQnLCAnMS4wJywgJy1waCcsICc3LjQnLCAnLXRuJywgJzgnLCAnLW1hJywgJzUwMCcsICctaW1hZScsICc8aW5maWxlLm1hZT4nLCAnLW9tYWUnLCAnPG91dGZpbGUubWFlPic=

>  <s_epik_input>  (1) 
Tz1DKFtPSF0pW0NAQEhdKFtDSDNdKUMoPU8pW0NAQEhdKFtDSDJdW0NIMl0xKVtDSDJdTjFbQ0BIXShbQ0BdMihbT0hdKVtOSF1bQ0BASF0oW0NIMl1DKD1PKVtPSF0pW0NIMl1PW0NIM10pW0NIMl1PW0NASF0oW0NIMl0yKVtDQEBIXTNbQ0gyXVtDSF0oTzMpYzRbY0hdW2NIXVtjSF1bY0hdW2NIXTQ=

>  <s_glide_docking_method>  (1) 
confgen

>  <s_i_glide_gridfile>  (1) 
gpcr_5ht2c_6bqh_protein_autoprepared_prepared

>  <s_lp_Force_Field>  (1) 
S-OPLS

>  <s_lp_Variant>  (1) 
DiffSBDD_30-1

>  <s_m_source_file>  (1) 
generated_GPCR_5HT2C_ligand_DiffSBDD_2026-06-23_prepared.sdf

>  <GenAI_Model>  (1) 
DiffSBDD

>  <Protein>  (1) 
GPCR_5HT2C

$$$$
DiffSBDD_6
     RDKit          3D

  0  0  0  0  0  0  0  0  0  0999 V3000
M  V30 BEGIN CTAB
M  V30 COUNTS 51 52 0 0 1
M  V30 BEGIN ATOM
M  V30 1 O 36.508094 29.738142 59.382839 0
M  V30 2 C 38.945000 30.273412 61.125881 0
M  V30 3 N 37.645113 30.908044 57.829270 0
M  V30 4 C 38.769951 31.531721 61.461353 0
M  V30 5 C 38.713113 35.236041 60.940319 0
M  V30 6 C 37.578331 30.146238 58.941365 0
M  V30 7 C 39.145502 28.053238 53.123012 0
M  V30 8 C 36.785181 34.004685 60.308555 0
M  V30 9 O 37.760102 36.109911 60.334410 0
M  V30 10 C 38.487676 30.796075 54.812726 0
M  V30 11 C 39.771577 30.288905 54.137971 0
M  V30 12 C 39.635899 29.605180 51.653099 0
M  V30 13 C 39.337340 28.522855 50.954333 0
M  V30 14 C 38.878532 31.418448 57.244346 0
M  V30 15 C 39.515518 29.318290 52.991121 0
M  V30 16 C 39.160068 28.283971 59.605943 0
M  V30 17 C 38.944346 27.248856 51.786746 0
M  V30 18 C 38.257034 33.808928 60.612000 0 CFG=2
M  V30 19 O 37.388948 30.299431 54.567745 0
M  V30 20 C 38.899561 29.797009 59.678980 0 CFG=2
M  V30 21 C 40.045166 30.935821 51.070161 0
M  V30 22 C 36.815809 35.348253 59.591827 0
M  V30 23 C 38.636109 31.938122 55.817982 0
M  V30 24 C 38.529393 32.797037 61.712135 0
M  V30 25 H 39.130832 29.519515 61.878254 0
M  V30 26 H 36.762484 31.162138 57.366192 0
M  V30 27 H 38.713115 35.427563 62.013969 0
M  V30 28 H 39.718072 35.433538 60.566724 0
M  V30 29 H 38.982571 27.576308 54.078735 0
M  V30 30 H 36.366818 33.205186 59.695022 0
M  V30 31 H 36.201362 34.078842 61.227369 0
M  V30 32 H 40.346663 31.141707 53.778690 0
M  V30 33 H 40.386463 29.792314 54.888359 0
M  V30 34 H 39.354775 28.487620 49.874662 0
M  V30 35 H 39.245069 32.234188 57.864464 0
M  V30 36 H 39.644942 30.646426 57.190750 0
M  V30 37 H 38.445133 27.733800 60.213251 0
M  V30 38 H 39.087242 27.912929 58.582739 0
M  V30 39 H 40.156994 28.038684 59.973612 0
M  V30 40 H 39.645126 26.424676 51.667168 0
M  V30 41 H 37.915231 26.938799 51.629080 0
M  V30 42 H 38.751309 33.492210 59.692824 0
M  V30 43 H 39.766925 30.256010 59.231391 0
M  V30 44 H 41.131586 31.017088 51.045079 0
M  V30 45 H 39.666322 31.052552 50.054452 0
M  V30 46 H 39.645313 31.738275 51.681920 0
M  V30 47 H 35.840435 35.833269 59.551374 0
M  V30 48 H 37.181732 35.228589 58.569965 0
M  V30 49 H 37.746255 32.568996 55.786061 0
M  V30 50 H 39.476800 32.558384 55.508584 0
M  V30 51 H 38.518534 33.168356 62.723959 0
M  V30 END ATOM
M  V30 BEGIN BOND
M  V30 1 2 4 2
M  V30 2 2 6 1
M  V30 3 1 6 3
M  V30 4 1 9 5
M  V30 5 1 11 10
M  V30 6 2 13 12
M  V30 7 1 14 3
M  V30 8 2 15 7
M  V30 9 1 15 11
M  V30 10 1 15 12
M  V30 11 1 17 7
M  V30 12 1 17 13
M  V30 13 1 18 5
M  V30 14 1 18 8
M  V30 15 2 19 10
M  V30 16 1 20 2
M  V30 17 1 20 6
M  V30 18 1 20 16
M  V30 19 1 21 12
M  V30 20 1 22 8
M  V30 21 1 22 9
M  V30 22 1 23 10
M  V30 23 1 23 14
M  V30 24 2 24 4
M  V30 25 1 24 18
M  V30 26 1 25 2
M  V30 27 1 26 3
M  V30 28 1 27 5
M  V30 29 1 28 5
M  V30 30 1 29 7
M  V30 31 1 30 8
M  V30 32 1 31 8
M  V30 33 1 32 11
M  V30 34 1 33 11
M  V30 35 1 34 13
M  V30 36 1 35 14
M  V30 37 1 36 14
M  V30 38 1 37 16
M  V30 39 1 38 16
M  V30 40 1 39 16
M  V30 41 1 40 17
M  V30 42 1 41 17
M  V30 43 1 18 42 CFG=3
M  V30 44 1 20 43 CFG=3
M  V30 45 1 44 21
M  V30 46 1 45 21
M  V30 47 1 46 21
M  V30 48 1 47 22
M  V30 49 1 48 22
M  V30 50 1 49 23
M  V30 51 1 50 23
M  V30 52 1 51 24
M  V30 END BOND
M  V30 END CTAB
M  END
>  <i_epik_Tot_Q>  (1) 
0

>  <i_epik_Tot_abs_Q>  (1) 
0

>  <i_i_glide_confnum>  (1) 
356

>  <i_i_glide_lignum>  (1) 
15

>  <i_i_glide_posenum>  (1) 
262

>  <i_i_glide_rotatable_bonds>  (1) 
9

>  <i_lp_mmshare_version>  (1) 
72125

>  <i_m_source_file_index>  (1) 
7

>  <i_f3d_flags>  (1) 
0

>  <num_sample>  (1) 
50

>  <b_lp_Chiralities_Consistent>  (1) 
1

>  <r_epik_Charging_Adjusted_Penalty>  (1) 
0

>  <r_epik_Ionization_Penalty>  (1) 
2.8772612766536324e-08

>  <r_epik_Ionization_Penalty_Charging>  (1) 
0

>  <r_epik_Ionization_Penalty_Neutral>  (1) 
2.8772612766536324e-08

>  <r_epik_State_Penalty>  (1) 
-0

>  <r_glide_ring_energy>  (1) 
0

>  <r_i_docking_score>  (1) 
-5.3183207457370081

>  <r_i_glide_ecoul>  (1) 
-5.575360889236582

>  <r_i_glide_eff_state_penalty>  (1) 
-0

>  <r_i_glide_einternal>  (1) 
5.5695985417852238

>  <r_i_glide_emodel>  (1) 
-51.038426447637683

>  <r_i_glide_emodel_strain>  (1) 
1.1952685146228532

>  <r_i_glide_energy>  (1) 
-41.058124707573761

>  <r_i_glide_erotb>  (1) 
1.3853836233983141

>  <r_i_glide_esite>  (1) 
-0.13843439644899969

>  <r_i_glide_evdw>  (1) 
-35.482763818337176

>  <r_i_glide_gscore>  (1) 
-5.3183207457370081

>  <r_i_glide_gscore_strain>  (1) 
0

>  <r_i_glide_hbond>  (1) 
-0.16

>  <r_i_glide_ligand_efficiency>  (1) 
-0.221596697739042

>  <r_i_glide_ligand_efficiency_ln>  (1) 
-1.2729181962919089

>  <r_i_glide_ligand_efficiency_sa>  (1) 
-0.63919548419134797

>  <r_i_glide_lipo>  (1) 
-3.2616882466716275

>  <r_i_glide_metal>  (1) 
-0

>  <r_i_glide_rewards>  (1) 
-0.53313940171234853

>  <r_lp_Energy>  (1) 
-19.353403999999998

>  <r_lp_tautomer_probability>  (1) 
1

>  <s_epik_cmdline>  (1) 
J2VwaWtfcHl0aG9uJywgJy1waHQnLCAnMS4wJywgJy1waCcsICc3LjQnLCAnLXRuJywgJzgnLCAnLW1hJywgJzUwMCcsICctaW1hZScsICc8aW5maWxlLm1hZT4nLCAnLW9tYWUnLCAnPG91dGZpbGUubWFlPic=

>  <s_epik_input>  (1) 
W0NIMl0xW0NIMl1PW0NIMl1bQ0BIXTFbQ0hdPUM9W0NIXVtDQEBIXShbQ0gzXSlDKD1PKVtOSF1bQ0gyXVtDSDJdQyg9TylbQ0gyXUMyPVtDSF1bQ0gyXVtDSF09QzJbQ0gzXQ==

>  <s_glide_docking_method>  (1) 
confgen

>  <s_i_glide_gridfile>  (1) 
gpcr_5ht2c_6bqh_protein_autoprepared_prepared

>  <s_lp_Force_Field>  (1) 
S-OPLS

>  <s_lp_Variant>  (1) 
DiffSBDD_6-1

>  <s_m_source_file>  (1) 
generated_GPCR_5HT2C_ligand_DiffSBDD_2026-06-23_prepared.sdf

>  <GenAI_Model>  (1) 
DiffSBDD

>  <Protein>  (1) 
GPCR_5HT2C

$$$$
DiffSBDD_48
     RDKit          3D

  0  0  0  0  0  0  0  0  0  0999 V3000
M  V30 BEGIN CTAB
M  V30 COUNTS 78 78 0 0 1
M  V30 BEGIN ATOM
M  V30 1 O 42.191445 30.410034 64.046763 0
M  V30 2 C 37.641412 37.499872 59.811745 0
M  V30 3 C 38.108698 38.411403 60.963320 0
M  V30 4 O 39.244827 30.337386 56.327740 0
M  V30 5 C 36.554790 32.780551 61.115464 0
M  V30 6 C 41.490897 31.223258 63.409276 0
M  V30 7 C 40.598583 28.253697 57.816721 0
M  V30 8 C 40.559998 32.126030 64.221043 0
M  V30 9 C 36.139293 34.207187 60.698144 0
M  V30 10 C 38.833360 37.695933 62.120288 0
M  V30 11 N 37.219540 35.203624 60.610475 0
M  V30 12 C 42.316306 33.061083 65.877002 0
M  V30 13 C 37.626601 32.135521 60.227165 0
M  V30 14 C 39.477668 29.119900 55.719521 0
M  V30 15 C 38.321754 31.252675 55.741659 0
M  V30 16 C 41.274634 33.390097 64.783505 0 CFG=1
M  V30 17 C 41.945920 34.267987 63.698149 0
M  V30 18 C 38.974510 29.014001 54.282974 0
M  V30 19 O 38.999163 26.609307 58.567794 0
M  V30 20 C 39.187277 36.223269 61.874355 0 CFG=2
M  V30 21 C 41.040214 34.704397 62.532279 0
M  V30 22 O 41.483826 31.370872 62.167762 0 CHG=-1
M  V30 23 C 37.886765 30.674884 60.621653 0
M  V30 24 O 41.730188 32.320376 66.923776 0
M  V30 25 C 39.546926 27.691181 58.780556 0
M  V30 26 C 38.914073 30.003439 59.701393 0
M  V30 27 C 37.911441 35.352857 61.887706 0
M  V30 28 C 36.601071 36.478610 60.235157 0
M  V30 29 C 40.106910 28.133973 56.384102 0
M  V30 30 N 40.110303 35.773256 62.940077 0 CHG=1
M  V30 31 C 39.206697 28.524062 60.028567 0 CFG=2
M  V30 32 C 40.286660 28.380781 61.110023 0
M  V30 33 H 38.445130 36.937980 59.367735 0
M  V30 34 H 37.245264 38.122644 59.014687 0
M  V30 35 H 38.775874 39.171456 60.555750 0
M  V30 36 H 37.254590 38.966173 61.355882 0
M  V30 37 H 36.863642 32.751037 62.159816 0
M  V30 38 H 35.658681 32.160834 61.072407 0
M  V30 39 H 40.810457 29.295226 58.052627 0
M  V30 40 H 41.530552 27.699770 57.928879 0
M  V30 41 H 40.123230 31.534307 65.025991 0
M  V30 42 H 39.714224 32.408481 63.594787 0
M  V30 43 H 35.379574 34.537619 61.405102 0
M  V30 44 H 35.645515 34.146825 59.726967 0
M  V30 45 H 38.214036 37.737706 63.017594 0
M  V30 46 H 39.739351 38.255842 62.355591 0
M  V30 47 H 42.726655 33.980351 66.298412 0
M  V30 48 H 43.157572 32.497134 65.471691 0
M  V30 49 H 37.305742 32.179834 59.184602 0
M  V30 50 H 38.555459 32.704036 60.291057 0
M  V30 51 H 38.184303 32.095218 56.419759 0
M  V30 52 H 38.687752 31.657183 54.797622 0
M  V30 53 H 37.338112 30.804892 55.594161 0
M  V30 54 H 40.503437 33.992602 65.262151 0
M  V30 55 H 42.390753 35.151726 64.158984 0
M  V30 56 H 42.785567 33.708873 63.289643 0
M  V30 57 H 39.254529 28.053007 53.853421 0
M  V30 58 H 37.887466 29.074661 54.228891 0
M  V30 59 H 39.412760 29.789999 53.654735 0
M  V30 60 H 39.723823 36.120911 60.930701 0
M  V30 61 H 41.652014 35.097096 61.721447 0
M  V30 62 H 40.497696 33.861747 62.106104 0
M  V30 63 H 38.222892 30.622244 61.658376 0
M  V30 64 H 36.941540 30.137411 60.567432 0
M  V30 65 H 41.542453 31.454306 66.587416 0
M  V30 66 H 38.553230 30.100744 58.678741 0
M  V30 67 H 39.846503 30.560464 59.767721 0
M  V30 68 H 38.229815 34.353819 62.167900 0
M  V30 69 H 37.212751 35.737749 62.634320 0
M  V30 70 H 35.911868 36.321616 59.403604 0
M  V30 71 H 36.045139 36.908871 61.060643 0
M  V30 72 H 40.281380 27.186265 55.893790 0
M  V30 73 H 39.568179 35.459662 63.731790 0
M  V30 74 H 38.293620 28.079192 60.416315 0
M  V30 75 H 40.445081 27.337817 61.368403 0
M  V30 76 H 41.242411 28.794550 60.786975 0
M  V30 77 H 39.993733 28.893516 62.026971 0
M  V30 78 H 40.672205 36.562784 63.229619 0
M  V30 END ATOM
M  V30 BEGIN BOND
M  V30 1 1 3 2
M  V30 2 2 6 1
M  V30 3 1 8 6
M  V30 4 1 9 5
M  V30 5 1 10 3
M  V30 6 1 11 9
M  V30 7 1 13 5
M  V30 8 1 14 4
M  V30 9 1 15 4
M  V30 10 1 16 8
M  V30 11 1 16 12
M  V30 12 1 17 16
M  V30 13 1 18 14
M  V30 14 1 20 10
M  V30 15 1 21 17
M  V30 16 1 22 6
M  V30 17 1 23 13
M  V30 18 1 24 12
M  V30 19 1 25 7
M  V30 20 2 25 19
M  V30 21 1 26 23
M  V30 22 1 27 11
M  V30 23 1 27 20
M  V30 24 1 28 2
M  V30 25 1 28 11
M  V30 26 1 29 7
M  V30 27 2 29 14
M  V30 28 1 30 20
M  V30 29 1 30 21
M  V30 30 1 31 25
M  V30 31 1 31 26
M  V30 32 1 32 31
M  V30 33 1 33 2
M  V30 34 1 34 2
M  V30 35 1 35 3
M  V30 36 1 36 3
M  V30 37 1 37 5
M  V30 38 1 38 5
M  V30 39 1 39 7
M  V30 40 1 40 7
M  V30 41 1 41 8
M  V30 42 1 42 8
M  V30 43 1 43 9
M  V30 44 1 44 9
M  V30 45 1 45 10
M  V30 46 1 46 10
M  V30 47 1 47 12
M  V30 48 1 48 12
M  V30 49 1 49 13
M  V30 50 1 50 13
M  V30 51 1 51 15
M  V30 52 1 52 15
M  V30 53 1 53 15
M  V30 54 1 16 54 CFG=1
M  V30 55 1 55 17
M  V30 56 1 56 17
M  V30 57 1 57 18
M  V30 58 1 58 18
M  V30 59 1 59 18
M  V30 60 1 20 60 CFG=3
M  V30 61 1 61 21
M  V30 62 1 62 21
M  V30 63 1 63 23
M  V30 64 1 64 23
M  V30 65 1 65 24
M  V30 66 1 66 26
M  V30 67 1 67 26
M  V30 68 1 68 27
M  V30 69 1 69 27
M  V30 70 1 70 28
M  V30 71 1 71 28
M  V30 72 1 72 29
M  V30 73 1 73 30
M  V30 74 1 31 74 CFG=1
M  V30 75 1 75 32
M  V30 76 1 76 32
M  V30 77 1 77 32
M  V30 78 1 78 30
M  V30 END BOND
M  V30 END CTAB
M  END
>  <i_epik_Tot_Q>  (1) 
0

>  <i_epik_Tot_abs_Q>  (1) 
2

>  <i_i_glide_confnum>  (1) 
7367

>  <i_i_glide_lignum>  (1) 
99

>  <i_i_glide_posenum>  (1) 
385

>  <i_i_glide_rotatable_bonds>  (1) 
18

>  <i_lp_mmshare_version>  (1) 
72125

>  <i_m_source_file_index>  (1) 
49

>  <i_f3d_flags>  (1) 
0

>  <num_sample>  (1) 
50

>  <b_lp_Chiralities_Consistent>  (1) 
1

>  <r_epik_Charging_Adjusted_Penalty>  (1) 
0.04911624183534407

>  <r_epik_Ionization_Penalty>  (1) 
0.025385742012929795

>  <r_epik_Ionization_Penalty_Charging>  (1) 
0.0065475108590220404

>  <r_epik_Ionization_Penalty_Neutral>  (1) 
0.018838231153907755

>  <r_epik_State_Penalty>  (1) 
0.042568730976322029

>  <r_glide_ring_energy>  (1) 
0

>  <r_i_docking_score>  (1) 
-5.3089340390258126

>  <r_i_glide_ecoul>  (1) 
-2.5065161447362945

>  <r_i_glide_eff_state_penalty>  (1) 
0.042568730976322029

>  <r_i_glide_einternal>  (1) 
23.441540917093395

>  <r_i_glide_emodel>  (1) 
-43.884648658823899

>  <r_i_glide_emodel_strain>  (1) 
0.50491031409487874

>  <r_i_glide_energy>  (1) 
-38.113745654022949

>  <r_i_glide_erotb>  (1) 
1.5544609794247006

>  <r_i_glide_esite>  (1) 
0

>  <r_i_glide_evdw>  (1) 
-35.607229509286654

>  <r_i_glide_gscore>  (1) 
-5.3515027700021349

>  <r_i_glide_gscore_strain>  (1) 
0

>  <r_i_glide_hbond>  (1) 
-0.097281841902682784

>  <r_i_glide_ligand_efficiency>  (1) 
-0.16590418871955664

>  <r_i_glide_ligand_efficiency_ln>  (1) 
-1.1888150474141239

>  <r_i_glide_ligand_efficiency_sa>  (1) 
-0.52671296739870987

>  <r_i_glide_lipo>  (1) 
-3.6316305015376003

>  <r_i_glide_metal>  (1) 
-0

>  <r_i_glide_rewards>  (1) 
-1.0207125088117759

>  <r_lp_Energy>  (1) 
27.873598999999999

>  <r_lp_tautomer_probability>  (1) 
0.99990000499974985

>  <s_epik_cmdline>  (1) 
J2VwaWtfcHl0aG9uJywgJy1waHQnLCAnMS4wJywgJy1waCcsICc3LjQnLCAnLXRuJywgJzgnLCAnLW1hJywgJzUwMCcsICctaW1hZScsICc8aW5maWxlLm1hZT4nLCAnLW9tYWUnLCAnPG91dGZpbGUubWFlPic=

>  <s_epik_input>  (1) 
Tz1DKFtPSF0pW0NIMl1bQ0BASF0oW0NIMl1bT0hdKVtDSDJdW0NIMl1bTkhdW0NASF0oW0NIMl1bQ0gyXVtDSDJdW0NIMl0xKVtDSDJdTjFbQ0gyXVtDSDJdW0NIMl1bQ0gyXVtDSDJdW0NASF0oW0NIM10pQyg9TylbQ0gyXS9bQ0hdPUMoW0NIM10pXE9bQ0gzXQ==

>  <s_glide_docking_method>  (1) 
confgen

>  <s_i_glide_gridfile>  (1) 
gpcr_5ht2c_6bqh_protein_autoprepared_prepared

>  <s_lp_Force_Field>  (1) 
S-OPLS

>  <s_lp_Variant>  (1) 
DiffSBDD_48-1

>  <s_m_source_file>  (1) 
generated_GPCR_5HT2C_ligand_DiffSBDD_2026-06-23_prepared.sdf

>  <GenAI_Model>  (1) 
DiffSBDD

>  <Protein>  (1) 
GPCR_5HT2C

$$$$
DiffSBDD_14
     RDKit          3D

  0  0  0  0  0  0  0  0  0  0999 V3000
M  V30 BEGIN CTAB
M  V30 COUNTS 58 59 0 0 1
M  V30 BEGIN ATOM
M  V30 1 Cl 39.152863 26.937769 50.967762 0
M  V30 2 C 36.224818 29.491028 58.840503 0
M  V30 3 N 40.401963 30.569643 51.961459 0
M  V30 4 C 39.645129 30.816229 53.055731 0
M  V30 5 C 39.170356 35.021793 61.586051 0
M  V30 6 C 39.007891 36.851716 64.559364 0
M  V30 7 C 36.670217 37.274122 63.767833 0
M  V30 8 C 37.621496 30.022707 58.513417 0 CFG=1
M  V30 9 C 36.838583 34.834705 59.812254 0
M  V30 10 C 39.300940 28.418407 51.789964 0
M  V30 11 C 37.982591 37.175052 63.490288 0
M  V30 12 C 40.225381 29.380864 51.353210 0
M  V30 13 O 39.544774 30.009168 56.274368 0 CHG=-1
M  V30 14 N 37.645152 30.537785 57.134845 0 CHG=1
M  V30 15 C 38.532817 37.390109 62.084101 0
M  V30 16 C 39.052753 33.902431 60.535747 0
M  V30 17 C 38.504946 28.694827 52.908466 0
M  V30 18 C 38.280986 29.726721 56.099186 0 CFG=1
M  V30 19 C 38.678100 29.923965 53.551394 0
M  V30 20 C 37.832262 30.305926 54.748803 0
M  V30 21 C 37.397217 32.496972 59.161594 0
M  V30 22 C 37.576947 33.560689 60.243719 0 CFG=2
M  V30 23 C 36.956359 35.900173 60.894315 0
M  V30 24 N 38.377807 36.214853 61.188758 0 CFG=2 CHG=1
M  V30 25 C 38.050713 31.140944 59.479575 0
M  V30 26 H 36.126473 29.337747 59.908113 0
M  V30 27 H 35.433685 30.186428 58.565633 0
M  V30 28 H 36.045053 28.547938 58.325357 0
M  V30 29 H 39.800625 31.760622 53.538588 0
M  V30 30 H 40.217593 35.304606 61.702073 0
M  V30 31 H 38.840990 34.646108 62.554544 0
M  V30 32 H 39.645148 37.719909 64.727735 0
M  V30 33 H 38.532231 36.601891 65.508576 0
M  V30 34 H 39.645581 36.019397 64.266447 0
M  V30 35 H 35.953007 37.512288 62.996600 0
M  V30 36 H 36.298243 37.117346 64.770694 0
M  V30 37 H 38.339191 29.206556 58.616492 0
M  V30 38 H 37.240917 35.211785 58.870146 0
M  V30 39 H 35.784118 34.619657 59.629819 0
M  V30 40 H 40.845122 29.189765 50.491353 0
M  V30 41 H 36.701837 30.845358 56.884992 0
M  V30 42 H 38.014221 38.234241 61.628247 0
M  V30 43 H 39.583930 37.679291 62.139488 0
M  V30 44 H 39.556526 34.195629 59.614210 0
M  V30 45 H 39.582865 33.022719 60.900459 0
M  V30 46 H 37.776355 27.979977 53.261776 0
M  V30 47 H 37.888769 28.710341 56.161277 0
M  V30 48 H 36.796781 30.024697 54.554310 0
M  V30 49 H 37.825166 31.397320 54.797481 0
M  V30 50 H 36.328597 32.350689 59.000560 0
M  V30 51 H 37.788980 32.889456 58.221752 0
M  V30 52 H 37.119664 33.187945 61.162030 0
M  V30 53 H 36.448019 35.537063 61.787688 0
M  V30 54 H 36.444643 36.805527 60.566344 0
M  V30 55 H 39.132762 31.249151 59.425697 0
M  V30 56 H 37.832286 30.847530 60.506973 0
M  V30 57 H 38.769410 36.505070 60.304299 0
M  V30 58 H 38.233533 31.355089 57.139731 0
M  V30 END ATOM
M  V30 BEGIN BOND
M  V30 1 1 4 3
M  V30 2 1 8 2
M  V30 3 1 10 1
M  V30 4 1 11 6
M  V30 5 2 11 7
M  V30 6 2 12 3
M  V30 7 1 12 10
M  V30 8 1 14 8
M  V30 9 1 15 11
M  V30 10 1 16 5
M  V30 11 2 17 10
M  V30 12 1 18 13
M  V30 13 1 18 14
M  V30 14 2 19 4
M  V30 15 1 19 17
M  V30 16 1 20 18
M  V30 17 1 20 19
M  V30 18 1 22 9
M  V30 19 1 22 16
M  V30 20 1 22 21
M  V30 21 1 23 9
M  V30 22 1 24 5
M  V30 23 1 24 15
M  V30 24 1 24 23
M  V30 25 1 25 8
M  V30 26 1 25 21
M  V30 27 1 26 2
M  V30 28 1 27 2
M  V30 29 1 28 2
M  V30 30 1 29 4
M  V30 31 1 30 5
M  V30 32 1 31 5
M  V30 33 1 32 6
M  V30 34 1 33 6
M  V30 35 1 34 6
M  V30 36 1 35 7
M  V30 37 1 36 7
M  V30 38 1 8 37 CFG=3
M  V30 39 1 38 9
M  V30 40 1 39 9
M  V30 41 1 40 12
M  V30 42 1 41 14
M  V30 43 1 42 15
M  V30 44 1 43 15
M  V30 45 1 44 16
M  V30 46 1 45 16
M  V30 47 1 46 17
M  V30 48 1 18 47 CFG=3
M  V30 49 1 48 20
M  V30 50 1 49 20
M  V30 51 1 50 21
M  V30 52 1 51 21
M  V30 53 1 22 52 CFG=1
M  V30 54 1 53 23
M  V30 55 1 54 23
M  V30 56 1 55 25
M  V30 57 1 56 25
M  V30 58 1 24 57 CFG=3
M  V30 59 1 58 14
M  V30 END BOND
M  V30 END CTAB
M  END
>  <i_epik_Tot_Q>  (1) 
1

>  <i_epik_Tot_abs_Q>  (1) 
3

>  <i_i_glide_confnum>  (1) 
337

>  <i_i_glide_lignum>  (1) 
29

>  <i_i_glide_posenum>  (1) 
397

>  <i_i_glide_rotatable_bonds>  (1) 
9

>  <i_lp_mmshare_version>  (1) 
72125

>  <i_m_source_file_index>  (1) 
15

>  <i_f3d_flags>  (1) 
0

>  <num_sample>  (1) 
50

>  <b_lp_Chiralities_Consistent>  (1) 
1

>  <r_epik_Charging_Adjusted_Penalty>  (1) 
1.1654849776379888

>  <r_epik_Ionization_Penalty>  (1) 
0.58785290175030958

>  <r_epik_Ionization_Penalty_Charging>  (1) 
0.58784809198166499

>  <r_epik_Ionization_Penalty_Neutral>  (1) 
4.8097686445928234e-06

>  <r_epik_State_Penalty>  (1) 
0.57763688565632376

>  <r_glide_ring_energy>  (1) 
0

>  <r_i_docking_score>  (1) 
-5.303877273361234

>  <r_i_glide_ecoul>  (1) 
-3.8600443456055267

>  <r_i_glide_eff_state_penalty>  (1) 
0.57763688565632376

>  <r_i_glide_einternal>  (1) 
11.673563209609625

>  <r_i_glide_emodel>  (1) 
-41.950751176294766

>  <r_i_glide_emodel_strain>  (1) 
1.0331009654470407

>  <r_i_glide_energy>  (1) 
-32.196119490937861

>  <r_i_glide_erotb>  (1) 
1.143828235945936

>  <r_i_glide_esite>  (1) 
-0.12632914097180623

>  <r_i_glide_evdw>  (1) 
-28.33607514533233

>  <r_i_glide_gscore>  (1) 
-5.8815141590175575

>  <r_i_glide_gscore_strain>  (1) 
0

>  <r_i_glide_hbond>  (1) 
-0.20000000000000001

>  <r_i_glide_ligand_efficiency>  (1) 
-0.21215509093444937

>  <r_i_glide_ligand_efficiency_ln>  (1) 
-1.2571778581624713

>  <r_i_glide_ligand_efficiency_sa>  (1) 
-0.62034524914449363

>  <r_i_glide_lipo>  (1) 
-3.221471740165359

>  <r_i_glide_metal>  (1) 
-0

>  <r_i_glide_rewards>  (1) 
-1.4817311047188819

>  <r_lp_Energy>  (1) 
30.160715

>  <s_epik_Chemistry_Notes>  (1) 
This compound contains an acetal/aminal-like group ( X-CH(R)-Y where X, Y are N, S, or O) that may be acid/base labile, releasing an aldehyde.

>  <s_epik_cmdline>  (1) 
J2VwaWtfcHl0aG9uJywgJy1waHQnLCAnMS4wJywgJy1waCcsICc3LjQnLCAnLXRuJywgJzgnLCAnLW1hJywgJzUwMCcsICctaW1hZScsICc8aW5maWxlLm1hZT4nLCAnLW9tYWUnLCAnPG91dGZpbGUubWFlPic=

>  <s_epik_input>  (1) 
Q2xjMVtjSF1uW2NIXWMoW2NIXTEpW0NIMl1bQ0BASF0oW09IXSlbTkhdW0NASF0oW0NIM10pW0NIMl1bQ0gyXVtDSF0yW0NIMl1bQ0gyXU4oW0NIMl1bQ0gyXTIpW0NIMl1DKFtDSDNdKT1bQ0gyXQ==

>  <s_glide_docking_method>  (1) 
confgen

>  <s_i_glide_gridfile>  (1) 
gpcr_5ht2c_6bqh_protein_autoprepared_prepared

>  <s_lp_Force_Field>  (1) 
S-OPLS

>  <s_lp_Variant>  (1) 
DiffSBDD_14-3

>  <s_m_source_file>  (1) 
generated_GPCR_5HT2C_ligand_DiffSBDD_2026-06-23_prepared.sdf

>  <GenAI_Model>  (1) 
DiffSBDD

>  <Protein>  (1) 
GPCR_5HT2C

$$$$
DiffSBDD_24
     RDKit          3D

  0  0  0  0  0  0  0  0  0  0999 V3000
M  V30 BEGIN CTAB
M  V30 COUNTS 80 83 0 0 1
M  V30 BEGIN ATOM
M  V30 1 C 38.251711 30.373827 60.225573 0
M  V30 2 C 38.222295 26.031256 55.904951 0 CFG=2
M  V30 3 O 40.717821 28.147561 59.379089 0
M  V30 4 C 37.845048 34.752992 60.477915 0
M  V30 5 C 37.565227 24.829213 55.185343 0
M  V30 6 N 37.296818 37.737744 62.322138 0
M  V30 7 O 41.650039 28.137695 56.968196 0
M  V30 8 C 36.626998 24.030251 56.092307 0
M  V30 9 C 39.489567 28.197380 55.766831 0
M  V30 10 C 40.442356 34.557029 60.959892 0
M  V30 11 C 38.401506 31.909527 60.158525 0 CFG=2
M  V30 12 C 40.284256 27.823303 57.003379 0 CFG=2
M  V30 13 C 36.045058 38.029159 62.694424 0
M  V30 14 C 37.474990 34.019120 59.190450 0
M  V30 15 C 39.709477 31.848948 62.387591 0
M  V30 16 C 38.058784 29.699883 58.850733 0
M  V30 17 C 39.785533 35.082298 62.199224 0 CFG=1
M  V30 18 C 35.430039 37.170389 63.815413 0
M  V30 19 C 39.733865 27.801261 58.415113 0 CFG=1
M  V30 20 O 35.392688 38.926197 62.167715 0
M  V30 21 C 39.016614 34.127403 61.261951 0 CFG=1
M  V30 22 C 38.687954 32.625844 61.520172 0 CFG=1
M  V30 23 C 34.164208 37.737925 64.456536 0
M  V30 24 C 39.044410 26.958251 54.961852 0 CFG=2
M  V30 25 O 40.445255 34.583677 63.342012 0
M  V30 26 C 40.069298 26.499328 57.710536 0 CFG=1
M  V30 27 C 38.332344 28.185665 58.848315 0
M  V30 28 C 39.470222 36.556400 62.344376 0
M  V30 29 O 39.112046 28.154421 52.825394 0
M  V30 30 C 38.104189 36.733150 62.997469 0
M  V30 31 C 39.075276 25.517261 57.103178 0
M  V30 32 C 38.283046 27.397238 53.684178 0
M  V30 33 C 37.176004 32.558911 59.493748 0
M  V30 34 H 37.418060 30.137816 60.883361 0
M  V30 35 H 39.145336 29.937685 60.666781 0
M  V30 36 H 37.401862 26.632701 56.295732 0
M  V30 37 H 40.567434 27.640035 60.162232 0
M  V30 38 H 36.963729 34.772587 61.119181 0
M  V30 39 H 38.062426 35.787536 60.218030 0
M  V30 40 H 36.952002 25.168119 54.353591 0
M  V30 41 H 38.325592 24.172150 54.764007 0
M  V30 42 H 37.722017 38.264851 61.573900 0
M  V30 43 H 41.903354 28.218695 57.881018 0
M  V30 44 H 36.067929 23.287523 55.523779 0
M  V30 45 H 35.913484 24.703744 56.563598 0
M  V30 46 H 37.163965 23.506996 56.882620 0
M  V30 47 H 38.613235 28.769804 56.070510 0
M  V30 48 H 40.079782 28.877889 55.154371 0
M  V30 49 H 40.601242 35.281594 60.167716 0
M  V30 50 H 41.243104 33.837436 61.103405 0
M  V30 51 H 39.245927 32.099276 59.502342 0
M  V30 52 H 36.607304 34.487582 58.723081 0
M  V30 53 H 38.286566 34.086675 58.468381 0
M  V30 54 H 40.689077 31.782074 61.915793 0
M  V30 55 H 39.373066 30.834400 62.595027 0
M  V30 56 H 39.825696 32.278138 63.377812 0
M  V30 57 H 37.029000 29.854615 58.525791 0
M  V30 58 H 38.682598 30.185695 58.099266 0
M  V30 59 H 35.206266 36.202905 63.367778 0
M  V30 60 H 36.134365 36.978717 64.623151 0
M  V30 61 H 37.762422 32.611410 62.097018 0
M  V30 62 H 33.645120 36.974325 65.034106 0
M  V30 63 H 33.462327 38.131322 63.720561 0
M  V30 64 H 34.445210 38.533766 65.146262 0
M  V30 65 H 39.935199 26.414668 54.643358 0
M  V30 66 H 41.229879 35.091209 63.487692 0
M  V30 67 H 40.946902 25.992647 58.108736 0
M  V30 68 H 38.155828 27.770214 59.839878 0
M  V30 69 H 37.621411 27.713500 58.174030 0
M  V30 70 H 40.245840 37.055423 62.928153 0
M  V30 71 H 39.495729 37.031676 61.367855 0
M  V30 72 H 38.633823 28.347233 52.032647 0
M  V30 73 H 38.250061 36.992623 64.047322 0
M  V30 74 H 37.556973 35.797416 62.967688 0
M  V30 75 H 38.433565 25.148437 57.903534 0
M  V30 76 H 39.659351 24.659172 56.765298 0
M  V30 77 H 37.955588 26.541581 53.095359 0
M  V30 78 H 37.395573 27.979220 53.935731 0
M  V30 79 H 36.299432 32.474210 60.137345 0
M  V30 80 H 36.912046 32.066399 58.563277 0
M  V30 END ATOM
M  V30 BEGIN BOND
M  V30 1 1 5 2
M  V30 2 1 8 5
M  V30 3 1 11 1
M  V30 4 1 12 7 CFG=1
M  V30 5 1 12 9
M  V30 6 1 13 6
M  V30 7 1 14 4
M  V30 8 1 16 1
M  V30 9 1 17 10
M  V30 10 1 18 13
M  V30 11 1 19 3 CFG=1
M  V30 12 1 19 12
M  V30 13 2 20 13
M  V30 14 1 21 4 CFG=3
M  V30 15 1 21 10
M  V30 16 1 21 17
M  V30 17 1 22 11
M  V30 18 1 22 15
M  V30 19 1 22 21
M  V30 20 1 23 18
M  V30 21 1 24 2
M  V30 22 1 24 9
M  V30 23 1 17 25 CFG=1
M  V30 24 1 26 12
M  V30 25 1 26 19
M  V30 26 1 27 16
M  V30 27 1 27 19
M  V30 28 1 28 17
M  V30 29 1 30 6
M  V30 30 1 30 28
M  V30 31 1 31 2
M  V30 32 1 31 26
M  V30 33 1 32 24
M  V30 34 1 32 29
M  V30 35 1 33 11
M  V30 36 1 33 14
M  V30 37 1 34 1
M  V30 38 1 35 1
M  V30 39 1 2 36 CFG=1
M  V30 40 1 37 3
M  V30 41 1 38 4
M  V30 42 1 39 4
M  V30 43 1 40 5
M  V30 44 1 41 5
M  V30 45 1 42 6
M  V30 46 1 43 7
M  V30 47 1 44 8
M  V30 48 1 45 8
M  V30 49 1 46 8
M  V30 50 1 47 9
M  V30 51 1 48 9
M  V30 52 1 49 10
M  V30 53 1 50 10
M  V30 54 1 11 51 CFG=3
M  V30 55 1 52 14
M  V30 56 1 53 14
M  V30 57 1 54 15
M  V30 58 1 55 15
M  V30 59 1 56 15
M  V30 60 1 57 16
M  V30 61 1 58 16
M  V30 62 1 59 18
M  V30 63 1 60 18
M  V30 64 1 22 61 CFG=1
M  V30 65 1 62 23
M  V30 66 1 63 23
M  V30 67 1 64 23
M  V30 68 1 24 65 CFG=3
M  V30 69 1 66 25
M  V30 70 1 26 67 CFG=1
M  V30 71 1 68 27
M  V30 72 1 69 27
M  V30 73 1 70 28
M  V30 74 1 71 28
M  V30 75 1 72 29
M  V30 76 1 73 30
M  V30 77 1 74 30
M  V30 78 1 75 31
M  V30 79 1 76 31
M  V30 80 1 77 32
M  V30 81 1 78 32
M  V30 82 1 79 33
M  V30 83 1 80 33
M  V30 END BOND
M  V30 END CTAB
M  END
>  <i_epik_Tot_Q>  (1) 
0

>  <i_epik_Tot_abs_Q>  (1) 
0

>  <i_i_glide_confnum>  (1) 
911

>  <i_i_glide_lignum>  (1) 
53

>  <i_i_glide_posenum>  (1) 
308

>  <i_i_glide_rotatable_bonds>  (1) 
15

>  <i_lp_mmshare_version>  (1) 
72125

>  <i_m_source_file_index>  (1) 
25

>  <i_f3d_flags>  (1) 
0

>  <num_sample>  (1) 
50

>  <b_lp_Chiralities_Consistent>  (1) 
1

>  <r_epik_Charging_Adjusted_Penalty>  (1) 
0

>  <r_epik_Ionization_Penalty>  (1) 
1.3202672537782039e-06

>  <r_epik_Ionization_Penalty_Charging>  (1) 
0

>  <r_epik_Ionization_Penalty_Neutral>  (1) 
1.3202672537782039e-06

>  <r_epik_State_Penalty>  (1) 
-0

>  <r_glide_ring_energy>  (1) 
0

>  <r_i_docking_score>  (1) 
-5.2920542193073707

>  <r_i_glide_ecoul>  (1) 
-0.3806986478734905

>  <r_i_glide_eff_state_penalty>  (1) 
-0

>  <r_i_glide_einternal>  (1) 
15.734486567668876

>  <r_i_glide_emodel>  (1) 
-39.063949618547554

>  <r_i_glide_emodel_strain>  (1) 
1.7377646921395637

>  <r_i_glide_energy>  (1) 
-38.667904092090673

>  <r_i_glide_erotb>  (1) 
0.83704981647784005

>  <r_i_glide_esite>  (1) 
0

>  <r_i_glide_evdw>  (1) 
-38.287205444217186

>  <r_i_glide_gscore>  (1) 
-5.2920542193073707

>  <r_i_glide_gscore_strain>  (1) 
0

>  <r_i_glide_hbond>  (1) 
0

>  <r_i_glide_ligand_efficiency>  (1) 
-0.16036527937295064

>  <r_i_glide_ligand_efficiency_ln>  (1) 
-1.1769254575836705

>  <r_i_glide_ligand_efficiency_sa>  (1) 
-0.51437713892811077

>  <r_i_glide_lipo>  (1) 
-4.6116716580293842

>  <r_i_glide_metal>  (1) 
-0

>  <r_i_glide_rewards>  (1) 
0.45403269163605642

>  <r_lp_Energy>  (1) 
47.020322

>  <r_lp_tautomer_probability>  (1) 
1

>  <s_epik_cmdline>  (1) 
J2VwaWtfcHl0aG9uJywgJy1waHQnLCAnMS4wJywgJy1waCcsICc3LjQnLCAnLXRuJywgJzgnLCAnLW1hJywgJzUwMCcsICctaW1hZScsICc8aW5maWxlLm1hZT4nLCAnLW9tYWUnLCAnPG91dGZpbGUubWFlPic=

>  <s_epik_input>  (1) 
W09IXVtDSDJdW0NAQEhdKFtDSDJdMSlbQ0BASF0oW0NIMl1bQ0gzXSlbQ0gyXVtDQEBIXShDMTJbT0hdKVtDQF0yKFtPSF0pW0NIMl1bQ0gyXVtDSDJdW0NASF0oW0NASF0zW0NIM10pW0NIMl1bQ0gyXVtDSDJdW0NAXTM0W0NIMl1DNChbT0hdKVtDSDJdW0NIMl1bTkhdQyg9TylbQ0gyXVtDSDNd

>  <s_glide_docking_method>  (1) 
confgen

>  <s_i_glide_gridfile>  (1) 
gpcr_5ht2c_6bqh_protein_autoprepared_prepared

>  <s_lp_Force_Field>  (1) 
S-OPLS

>  <s_lp_Variant>  (1) 
DiffSBDD_24-1

>  <s_m_source_file>  (1) 
generated_GPCR_5HT2C_ligand_DiffSBDD_2026-06-23_prepared.sdf

>  <GenAI_Model>  (1) 
DiffSBDD

>  <Protein>  (1) 
GPCR_5HT2C

$$$$
DiffSBDD_14
     RDKit          3D

  0  0  0  0  0  0  0  0  0  0999 V3000
M  V30 BEGIN CTAB
M  V30 COUNTS 59 60 0 0 1
M  V30 BEGIN ATOM
M  V30 1 Cl 35.314391 33.257782 59.767815 0
M  V30 2 C 39.836263 25.605057 57.469072 0
M  V30 3 N 38.604870 32.528047 61.928161 0
M  V30 4 C 38.899604 31.262584 61.553912 0
M  V30 5 C 40.009152 30.742562 54.172909 0
M  V30 6 C 39.249495 31.747765 49.866974 0
M  V30 7 C 39.985529 29.367168 49.549661 0
M  V30 8 C 39.112124 26.795078 58.119320 0 CFG=1
M  V30 9 C 37.637297 29.031692 53.991056 0
M  V30 10 C 36.695115 32.457166 60.422906 0
M  V30 11 C 39.891212 30.444248 50.339772 0
M  V30 12 C 37.513656 33.103873 61.367698 0
M  V30 13 O 40.845138 29.402638 59.880042 0
M  V30 14 N 40.085585 27.664903 58.829552 0 CHG=1
M  V30 15 C 40.445126 30.439901 51.753731 0
M  V30 16 C 38.922623 30.767109 55.254226 0
M  V30 17 C 37.019081 31.149421 60.028113 0
M  V30 18 C 39.674386 29.033275 59.218138 0 CFG=1
M  V30 19 C 38.146378 30.536401 60.607736 0
M  V30 20 C 38.536898 29.108104 60.235467 0
M  V30 21 C 39.028479 28.304824 56.006134 0
M  V30 22 C 38.182853 29.424825 55.365007 0 CFG=2
M  V30 23 C 38.719159 29.057635 52.890262 0
M  V30 24 N 39.447679 30.355522 52.852470 0 CFG=1 CHG=1
M  V30 25 C 38.241556 27.551335 57.095642 0
M  V30 26 H 39.125213 24.898905 57.038081 0
M  V30 27 H 40.499532 25.928865 56.666354 0
M  V30 28 H 40.442917 25.056014 58.187448 0
M  V30 29 H 39.764430 30.815914 62.021871 0
M  V30 30 H 40.439270 31.737730 54.110064 0
M  V30 31 H 40.824642 30.087324 54.468392 0
M  V30 32 H 40.045134 32.278098 49.367760 0
M  V30 33 H 38.467721 31.737743 49.111255 0
M  V30 34 H 38.852699 32.354274 50.677496 0
M  V30 35 H 39.610125 29.383644 48.548941 0
M  V30 36 H 40.445134 28.455786 49.900862 0
M  V30 37 H 38.445265 26.394776 58.883864 0
M  V30 38 H 37.159918 28.051865 54.032592 0
M  V30 39 H 36.845011 29.737905 53.767759 0
M  V30 40 H 37.286220 34.110042 61.688335 0
M  V30 41 H 40.751909 30.304690 60.150009 0
M  V30 42 H 40.893957 27.774409 58.234458 0
M  V30 43 H 41.050514 31.337758 51.859648 0
M  V30 44 H 41.117123 29.582409 51.799883 0
M  V30 45 H 38.202598 31.552351 55.017189 0
M  V30 46 H 39.354437 31.046771 56.215382 0
M  V30 47 H 36.411732 30.624665 59.303913 0
M  V30 48 H 39.497748 29.684497 58.363532 0
M  V30 49 H 37.655679 28.608133 59.840275 0
M  V30 50 H 38.845140 28.571220 61.137469 0
M  V30 51 H 39.939357 28.735628 56.417200 0
M  V30 52 H 39.380698 27.595052 55.257409 0
M  V30 53 H 37.318761 29.623899 56.001880 0
M  V30 54 H 38.243033 28.873511 51.926380 0
M  V30 55 H 39.430774 28.245638 53.042861 0
M  V30 56 H 37.552790 26.854323 56.615724 0
M  V30 57 H 37.597287 28.243721 57.635007 0
M  V30 58 H 38.760223 31.066542 52.647469 0
M  V30 59 H 40.394858 27.190825 59.665968 0
M  V30 END ATOM
M  V30 BEGIN BOND
M  V30 1 1 4 3
M  V30 2 1 8 2
M  V30 3 1 10 1
M  V30 4 1 11 6
M  V30 5 2 11 7
M  V30 6 2 12 3
M  V30 7 1 12 10
M  V30 8 1 14 8
M  V30 9 1 15 11
M  V30 10 1 16 5
M  V30 11 2 17 10
M  V30 12 1 18 13
M  V30 13 1 18 14
M  V30 14 2 19 4
M  V30 15 1 19 17
M  V30 16 1 20 18
M  V30 17 1 20 19
M  V30 18 1 22 9
M  V30 19 1 22 16
M  V30 20 1 22 21
M  V30 21 1 23 9
M  V30 22 1 24 5
M  V30 23 1 24 15
M  V30 24 1 24 23
M  V30 25 1 25 8
M  V30 26 1 25 21
M  V30 27 1 26 2
M  V30 28 1 27 2
M  V30 29 1 28 2
M  V30 30 1 29 4
M  V30 31 1 30 5
M  V30 32 1 31 5
M  V30 33 1 32 6
M  V30 34 1 33 6
M  V30 35 1 34 6
M  V30 36 1 35 7
M  V30 37 1 36 7
M  V30 38 1 8 37 CFG=1
M  V30 39 1 38 9
M  V30 40 1 39 9
M  V30 41 1 40 12
M  V30 42 1 41 13
M  V30 43 1 42 14
M  V30 44 1 43 15
M  V30 45 1 44 15
M  V30 46 1 45 16
M  V30 47 1 46 16
M  V30 48 1 47 17
M  V30 49 1 18 48 CFG=3
M  V30 50 1 49 20
M  V30 51 1 50 20
M  V30 52 1 51 21
M  V30 53 1 52 21
M  V30 54 1 22 53 CFG=1
M  V30 55 1 54 23
M  V30 56 1 55 23
M  V30 57 1 56 25
M  V30 58 1 57 25
M  V30 59 1 24 58 CFG=3
M  V30 60 1 59 14
M  V30 END BOND
M  V30 END CTAB
M  END
>  <i_epik_Tot_Q>  (1) 
2

>  <i_epik_Tot_abs_Q>  (1) 
2

>  <i_i_glide_confnum>  (1) 
249

>  <i_i_glide_lignum>  (1) 
28

>  <i_i_glide_posenum>  (1) 
317

>  <i_i_glide_rotatable_bonds>  (1) 
10

>  <i_lp_mmshare_version>  (1) 
72125

>  <i_m_source_file_index>  (1) 
15

>  <i_f3d_flags>  (1) 
0

>  <num_sample>  (1) 
50

>  <b_lp_Chiralities_Consistent>  (1) 
1

>  <r_epik_Charging_Adjusted_Penalty>  (1) 
0.35265002497065456

>  <r_epik_Ionization_Penalty>  (1) 
0.35265410833524857

>  <r_epik_Ionization_Penalty_Charging>  (1) 
0.072075358936459305

>  <r_epik_Ionization_Penalty_Neutral>  (1) 
0.2805787493987893

>  <r_epik_State_Penalty>  (1) 
0.28057466603419523

>  <r_glide_ring_energy>  (1) 
0

>  <r_i_docking_score>  (1) 
-5.1846405841710492

>  <r_i_glide_ecoul>  (1) 
0.16764018837042105

>  <r_i_glide_eff_state_penalty>  (1) 
0.28057466603419523

>  <r_i_glide_einternal>  (1) 
2.4755186067024582

>  <r_i_glide_emodel>  (1) 
-42.63678017432688

>  <r_i_glide_emodel_strain>  (1) 
0.98996421004739688

>  <r_i_glide_energy>  (1) 
-29.383107362115151

>  <r_i_glide_erotb>  (1) 
1.1382379647718497

>  <r_i_glide_esite>  (1) 
0

>  <r_i_glide_evdw>  (1) 
-29.550747550485571

>  <r_i_glide_gscore>  (1) 
-5.4652152502052447

>  <r_i_glide_gscore_strain>  (1) 
0

>  <r_i_glide_hbond>  (1) 
-0.055156569830984374

>  <r_i_glide_ligand_efficiency>  (1) 
-0.20738562336684196

>  <r_i_glide_ligand_efficiency_ln>  (1) 
-1.2289151895891648

>  <r_i_glide_ligand_efficiency_sa>  (1) 
-0.60639924137497858

>  <r_i_glide_lipo>  (1) 
-3.0285816894690516

>  <r_i_glide_metal>  (1) 
-0

>  <r_i_glide_rewards>  (1) 
-2.0673236064083413

>  <r_lp_Energy>  (1) 
34.603625000000001

>  <s_epik_Chemistry_Notes>  (1) 
This compound contains an acetal/aminal-like group ( X-CH(R)-Y where X, Y are N, S, or O) that may be acid/base labile, releasing an aldehyde.

>  <s_epik_cmdline>  (1) 
J2VwaWtfcHl0aG9uJywgJy1waHQnLCAnMS4wJywgJy1waCcsICc3LjQnLCAnLXRuJywgJzgnLCAnLW1hJywgJzUwMCcsICctaW1hZScsICc8aW5maWxlLm1hZT4nLCAnLW9tYWUnLCAnPG91dGZpbGUubWFlPic=

>  <s_epik_input>  (1) 
Q2xjMVtjSF1uW2NIXWMoW2NIXTEpW0NIMl1bQ0BASF0oW09IXSlbTkhdW0NASF0oW0NIM10pW0NIMl1bQ0gyXVtDSF0yW0NIMl1bQ0gyXU4oW0NIMl1bQ0gyXTIpW0NIMl1DKFtDSDNdKT1bQ0gyXQ==

>  <s_glide_docking_method>  (1) 
confgen

>  <s_i_glide_gridfile>  (1) 
gpcr_5ht2c_6bqh_protein_autoprepared_prepared

>  <s_lp_Force_Field>  (1) 
S-OPLS

>  <s_lp_Variant>  (1) 
DiffSBDD_14-2

>  <s_m_source_file>  (1) 
generated_GPCR_5HT2C_ligand_DiffSBDD_2026-06-23_prepared.sdf

>  <GenAI_Model>  (1) 
DiffSBDD

>  <Protein>  (1) 
GPCR_5HT2C

$$$$
DiffSBDD_25
     RDKit          3D

  0  0  0  0  0  0  0  0  0  0999 V3000
M  V30 BEGIN CTAB
M  V30 COUNTS 36 36 0 0 1
M  V30 BEGIN ATOM
M  V30 1 C 39.005415 27.296066 52.186568 0
M  V30 2 O 39.698579 28.848373 59.138151 0
M  V30 3 C 38.858391 29.341090 58.384535 0
M  V30 4 C 38.781655 28.638784 51.481299 0
M  V30 5 C 39.468154 27.345909 55.475865 0
M  V30 6 C 40.007402 28.465841 56.381631 0
M  V30 7 C 37.696851 30.152437 58.969132 0
M  V30 8 C 40.393393 30.595453 51.285761 0
M  V30 9 C 37.644351 28.959640 54.901102 0
M  V30 10 N 38.911716 29.204221 57.032255 0
M  V30 11 C 38.339164 27.850432 54.595167 0
M  V30 12 C 40.434556 30.605753 49.767760 0
M  V30 13 C 39.670682 29.739184 52.034406 0
M  V30 14 C 37.900560 29.805089 56.137478 0
M  V30 15 C 38.039887 27.026027 53.358055 0
M  V30 16 H 40.045055 27.180875 52.493759 0
M  V30 17 H 38.842385 26.537757 51.427041 0
M  V30 18 H 38.948865 28.478031 50.419923 0
M  V30 19 H 37.739216 28.937443 51.581890 0
M  V30 20 H 39.086508 26.520432 56.078003 0
M  V30 21 H 40.277391 26.937461 54.869915 0
M  V30 22 H 40.731209 28.046215 57.081976 0
M  V30 23 H 40.561546 29.178081 55.768682 0
M  V30 24 H 36.748699 29.627879 58.846155 0
M  V30 25 H 37.852253 30.304396 60.037395 0
M  V30 26 H 37.625576 31.137745 58.506410 0
M  V30 27 H 40.996932 31.337905 51.779402 0
M  V30 28 H 36.845556 29.287733 54.250390 0
M  V30 29 H 41.398371 30.238022 49.415903 0
M  V30 30 H 39.645170 30.036368 49.286069 0
M  V30 31 H 40.325030 31.633605 49.422440 0
M  V30 32 H 39.710715 29.822980 53.110042 0
M  V30 33 H 38.229417 30.798054 55.829125 0
M  V30 34 H 36.923200 29.923324 56.604298 0
M  V30 35 H 38.075148 25.974721 53.642610 0
M  V30 36 H 37.014014 27.210233 53.037125 0
M  V30 END ATOM
M  V30 BEGIN BOND
M  V30 1 2 3 2
M  V30 2 1 4 1
M  V30 3 1 6 5
M  V30 4 1 7 3
M  V30 5 1 10 3
M  V30 6 1 10 6
M  V30 7 1 11 5
M  V30 8 2 11 9
M  V30 9 1 12 8
M  V30 10 1 13 4
M  V30 11 2 13 8
M  V30 12 1 14 9
M  V30 13 1 14 10
M  V30 14 1 15 1
M  V30 15 1 15 11
M  V30 16 1 16 1
M  V30 17 1 17 1
M  V30 18 1 18 4
M  V30 19 1 19 4
M  V30 20 1 20 5
M  V30 21 1 21 5
M  V30 22 1 22 6
M  V30 23 1 23 6
M  V30 24 1 24 7
M  V30 25 1 25 7
M  V30 26 1 26 7
M  V30 27 1 27 8
M  V30 28 1 28 9
M  V30 29 1 29 12
M  V30 30 1 30 12
M  V30 31 1 31 12
M  V30 32 1 32 13
M  V30 33 1 33 14
M  V30 34 1 34 14
M  V30 35 1 35 15
M  V30 36 1 36 15
M  V30 END BOND
M  V30 END CTAB
M  END
>  <i_epik_Tot_Q>  (1) 
0

>  <i_epik_Tot_abs_Q>  (1) 
0

>  <i_i_glide_confnum>  (1) 
34

>  <i_i_glide_lignum>  (1) 
55

>  <i_i_glide_posenum>  (1) 
193

>  <i_i_glide_rotatable_bonds>  (1) 
5

>  <i_lp_mmshare_version>  (1) 
72125

>  <i_m_source_file_index>  (1) 
26

>  <i_f3d_flags>  (1) 
0

>  <num_sample>  (1) 
50

>  <b_lp_Chiralities_Consistent>  (1) 
1

>  <r_epik_Charging_Adjusted_Penalty>  (1) 
0

>  <r_epik_Ionization_Penalty>  (1) 
4.9398685500853885e-07

>  <r_epik_Ionization_Penalty_Charging>  (1) 
0

>  <r_epik_Ionization_Penalty_Neutral>  (1) 
4.9398685500853885e-07

>  <r_epik_State_Penalty>  (1) 
-0

>  <r_glide_ring_energy>  (1) 
0

>  <r_i_docking_score>  (1) 
-5.1539765324415292

>  <r_i_glide_ecoul>  (1) 
-0.61829356974751892

>  <r_i_glide_eff_state_penalty>  (1) 
-0

>  <r_i_glide_einternal>  (1) 
3.2898589320625069

>  <r_i_glide_emodel>  (1) 
-33.759197456411236

>  <r_i_glide_emodel_strain>  (1) 
0

>  <r_i_glide_energy>  (1) 
-26.394206351721035

>  <r_i_glide_erotb>  (1) 
1.5381532010122589

>  <r_i_glide_esite>  (1) 
0

>  <r_i_glide_evdw>  (1) 
-25.775912781973517

>  <r_i_glide_gscore>  (1) 
-5.1539765324415292

>  <r_i_glide_gscore_strain>  (1) 
0

>  <r_i_glide_hbond>  (1) 
0

>  <r_i_glide_ligand_efficiency>  (1) 
-0.34359843549610197

>  <r_i_glide_ligand_efficiency_ln>  (1) 
-1.3899424907757507

>  <r_i_glide_ligand_efficiency_sa>  (1) 
-0.84738661034154594

>  <r_i_glide_lipo>  (1) 
-2.5830579422782387

>  <r_i_glide_metal>  (1) 
-0

>  <r_i_glide_rewards>  (1) 
-2.7275321166147455

>  <r_lp_Energy>  (1) 
14.880616

>  <r_lp_tautomer_probability>  (1) 
1

>  <s_epik_cmdline>  (1) 
J2VwaWtfcHl0aG9uJywgJy1waHQnLCAnMS4wJywgJy1waCcsICc3LjQnLCAnLXRuJywgJzgnLCAnLW1hJywgJzUwMCcsICctaW1hZScsICc8aW5maWxlLm1hZT4nLCAnLW9tYWUnLCAnPG91dGZpbGUubWFlPic=

>  <s_epik_input>  (1) 
W0NIM10vW0NIXT1bQ0hdXFtDSDJdW0NIMl1bQ0gyXUMoPVtDSF1bQ0gyXTEpW0NIMl1bQ0gyXU4xQyg9TylbQ0gzXQ==

>  <s_glide_docking_method>  (1) 
confgen

>  <s_i_glide_gridfile>  (1) 
gpcr_5ht2c_6bqh_protein_autoprepared_prepared

>  <s_lp_Force_Field>  (1) 
S-OPLS

>  <s_lp_Variant>  (1) 
DiffSBDD_25-2

>  <s_m_source_file>  (1) 
generated_GPCR_5HT2C_ligand_DiffSBDD_2026-06-23_prepared.sdf

>  <GenAI_Model>  (1) 
DiffSBDD

>  <Protein>  (1) 
GPCR_5HT2C

$$$$
DiffSBDD_48
     RDKit          3D

  0  0  0  0  0  0  0  0  0  0999 V3000
M  V30 BEGIN CTAB
M  V30 COUNTS 78 78 0 0 1
M  V30 BEGIN ATOM
M  V30 1 O 39.226781 26.937737 53.484965 0
M  V30 2 C 40.163592 28.053464 59.185743 0
M  V30 3 C 39.772782 27.322015 57.896582 0
M  V30 4 O 40.839791 34.122874 67.347789 0
M  V30 5 C 39.391901 31.472012 61.546941 0
M  V30 6 C 38.494438 27.925559 53.270628 0
M  V30 7 C 42.905250 32.105423 67.071348 0
M  V30 8 C 38.883666 28.837798 52.117489 0
M  V30 9 C 38.353727 30.985808 60.505012 0
M  V30 10 C 38.740864 28.058417 57.022098 0
M  V30 11 N 38.947396 30.151038 59.456030 0
M  V30 12 C 40.424219 30.742381 51.441632 0
M  V30 13 C 39.954089 30.376746 62.470425 0
M  V30 14 C 41.929390 34.375748 66.536617 0
M  V30 15 C 39.920152 35.172508 67.640707 0
M  V30 16 C 39.658489 30.086407 52.607824 0 CFG=1
M  V30 17 C 38.844952 31.085893 53.477671 0
M  V30 18 C 41.918720 35.737412 65.849930 0
M  V30 19 O 43.755772 30.921194 65.153939 0
M  V30 20 C 38.887435 29.596308 56.990307 0 CFG=2
M  V30 21 C 39.164470 31.083752 54.986988 0
M  V30 22 O 37.479644 28.244992 53.929600 0 CHG=-1
M  V30 23 C 40.685151 30.879920 63.719529 0
M  V30 24 O 39.645143 30.958513 50.286254 0
M  V30 25 C 42.860890 31.016260 65.992649 0
M  V30 26 C 41.213965 29.693664 64.557817 0
M  V30 27 C 38.200153 30.285518 58.199128 0
M  V30 28 C 38.981633 28.744808 59.864555 0
M  V30 29 C 42.900866 33.459945 66.391559 0
M  V30 30 N 38.313650 30.120283 55.727138 0 CHG=1
M  V30 31 C 41.665224 30.038213 65.995568 0 CFG=2
M  V30 32 C 40.462359 30.441751 66.870676 0
M  V30 33 H 40.967379 28.767019 58.993699 0
M  V30 34 H 40.587381 27.337775 59.884124 0
M  V30 35 H 40.678771 27.139002 57.316677 0
M  V30 36 H 39.377722 26.335732 58.143445 0
M  V30 37 H 40.211033 31.985482 61.042982 0
M  V30 38 H 38.905171 32.224896 62.167488 0
M  V30 39 H 42.092577 32.037387 67.789624 0
M  V30 40 H 43.832102 32.001056 67.635131 0
M  V30 41 H 37.990735 29.114500 51.561596 0
M  V30 42 H 39.501188 28.261580 51.426485 0
M  V30 43 H 37.934329 31.883396 60.048156 0
M  V30 44 H 37.513536 30.479323 60.980583 0
M  V30 45 H 37.727853 27.794087 57.329097 0
M  V30 46 H 38.853589 27.645055 56.023429 0
M  V30 47 H 41.246294 30.096818 51.138114 0
M  V30 48 H 40.845135 31.687774 51.767779 0
M  V30 49 H 39.134086 29.738877 62.798408 0
M  V30 50 H 40.644498 29.750756 61.905114 0
M  V30 51 H 39.153275 34.789894 68.314292 0
M  V30 52 H 40.407349 36.004794 68.150821 0
M  V30 53 H 39.405078 35.540308 66.753103 0
M  V30 54 H 40.445151 29.737761 53.264097 0
M  V30 55 H 38.980864 32.098185 53.100794 0
M  V30 56 H 37.784387 30.885111 53.368288 0
M  V30 57 H 42.787447 35.837301 65.197571 0
M  V30 58 H 41.037386 35.863381 65.221211 0
M  V30 59 H 41.971308 36.554874 66.567722 0
M  V30 60 H 39.952389 29.830561 57.005921 0
M  V30 61 H 40.227469 30.893217 55.136044 0
M  V30 62 H 38.971886 32.071437 55.407524 0
M  V30 63 H 41.508049 31.535481 63.432599 0
M  V30 64 H 39.999993 31.484565 64.311658 0
M  V30 65 H 39.021127 31.645247 50.461807 0
M  V30 66 H 40.445139 28.923889 64.623232 0
M  V30 67 H 42.035981 29.220233 64.018527 0
M  V30 68 H 38.126665 31.350823 57.974680 0
M  V30 69 H 37.174727 29.930346 58.320196 0
M  V30 70 H 39.107271 28.631243 60.934881 0
M  V30 71 H 38.045137 28.236864 59.650517 0
M  V30 72 H 43.742684 33.677201 65.752486 0
M  V30 73 H 37.414541 30.545850 55.917930 0
M  V30 74 H 42.055811 29.114062 66.422016 0
M  V30 75 H 40.711170 30.389771 67.929952 0
M  V30 76 H 40.115597 31.448302 66.645569 0
M  V30 77 H 39.620939 29.764403 66.717539 0
M  V30 78 H 38.129013 29.326810 55.105733 0
M  V30 END ATOM
M  V30 BEGIN BOND
M  V30 1 1 3 2
M  V30 2 2 6 1
M  V30 3 1 8 6
M  V30 4 1 9 5
M  V30 5 1 10 3
M  V30 6 1 11 9
M  V30 7 1 13 5
M  V30 8 1 14 4
M  V30 9 1 15 4
M  V30 10 1 16 8
M  V30 11 1 16 12
M  V30 12 1 17 16
M  V30 13 1 18 14
M  V30 14 1 20 10
M  V30 15 1 21 17
M  V30 16 1 22 6
M  V30 17 1 23 13
M  V30 18 1 24 12
M  V30 19 1 25 7
M  V30 20 2 25 19
M  V30 21 1 26 23
M  V30 22 1 27 11
M  V30 23 1 27 20
M  V30 24 1 28 2
M  V30 25 1 28 11
M  V30 26 1 29 7
M  V30 27 2 29 14
M  V30 28 1 30 20
M  V30 29 1 30 21
M  V30 30 1 31 25
M  V30 31 1 31 26
M  V30 32 1 32 31
M  V30 33 1 33 2
M  V30 34 1 34 2
M  V30 35 1 35 3
M  V30 36 1 36 3
M  V30 37 1 37 5
M  V30 38 1 38 5
M  V30 39 1 39 7
M  V30 40 1 40 7
M  V30 41 1 41 8
M  V30 42 1 42 8
M  V30 43 1 43 9
M  V30 44 1 44 9
M  V30 45 1 45 10
M  V30 46 1 46 10
M  V30 47 1 47 12
M  V30 48 1 48 12
M  V30 49 1 49 13
M  V30 50 1 50 13
M  V30 51 1 51 15
M  V30 52 1 52 15
M  V30 53 1 53 15
M  V30 54 1 16 54 CFG=1
M  V30 55 1 55 17
M  V30 56 1 56 17
M  V30 57 1 57 18
M  V30 58 1 58 18
M  V30 59 1 59 18
M  V30 60 1 20 60 CFG=3
M  V30 61 1 61 21
M  V30 62 1 62 21
M  V30 63 1 63 23
M  V30 64 1 64 23
M  V30 65 1 65 24
M  V30 66 1 66 26
M  V30 67 1 67 26
M  V30 68 1 68 27
M  V30 69 1 69 27
M  V30 70 1 70 28
M  V30 71 1 71 28
M  V30 72 1 72 29
M  V30 73 1 73 30
M  V30 74 1 31 74 CFG=1
M  V30 75 1 75 32
M  V30 76 1 76 32
M  V30 77 1 77 32
M  V30 78 1 78 30
M  V30 END BOND
M  V30 END CTAB
M  END
>  <i_epik_Tot_Q>  (1) 
0

>  <i_epik_Tot_abs_Q>  (1) 
2

>  <i_i_glide_confnum>  (1) 
1116

>  <i_i_glide_lignum>  (1) 
99

>  <i_i_glide_posenum>  (1) 
400

>  <i_i_glide_rotatable_bonds>  (1) 
18

>  <i_lp_mmshare_version>  (1) 
72125

>  <i_m_source_file_index>  (1) 
49

>  <i_f3d_flags>  (1) 
0

>  <num_sample>  (1) 
50

>  <b_lp_Chiralities_Consistent>  (1) 
1

>  <r_epik_Charging_Adjusted_Penalty>  (1) 
0.04911624183534407

>  <r_epik_Ionization_Penalty>  (1) 
0.025385742012929795

>  <r_epik_Ionization_Penalty_Charging>  (1) 
0.0065475108590220404

>  <r_epik_Ionization_Penalty_Neutral>  (1) 
0.018838231153907755

>  <r_epik_State_Penalty>  (1) 
0.042568730976322029

>  <r_glide_ring_energy>  (1) 
0

>  <r_i_docking_score>  (1) 
-5.1387765777643892

>  <r_i_glide_ecoul>  (1) 
-1.9503211242485503

>  <r_i_glide_eff_state_penalty>  (1) 
0.042568730976322029

>  <r_i_glide_einternal>  (1) 
13.580893833154246

>  <r_i_glide_emodel>  (1) 
-45.436193985295851

>  <r_i_glide_emodel_strain>  (1) 
4.046989563803983

>  <r_i_glide_energy>  (1) 
-38.849269695221118

>  <r_i_glide_erotb>  (1) 
1.5544609794247006

>  <r_i_glide_esite>  (1) 
-0.03798129941724028

>  <r_i_glide_evdw>  (1) 
-36.898948570972564

>  <r_i_glide_gscore>  (1) 
-5.1813453087407115

>  <r_i_glide_gscore_strain>  (1) 
0.011747390950995751

>  <r_i_glide_hbond>  (1) 
0

>  <r_i_glide_ligand_efficiency>  (1) 
-0.16058676805513716

>  <r_i_glide_ligand_efficiency_ln>  (1) 
-1.1507121535204778

>  <r_i_glide_ligand_efficiency_sa>  (1) 
-0.50983120908579604

>  <r_i_glide_lipo>  (1) 
-3.3585887732155189

>  <r_i_glide_metal>  (1) 
-0

>  <r_i_glide_rewards>  (1) 
-1.2134880092977385

>  <r_lp_Energy>  (1) 
27.873598999999999

>  <r_lp_tautomer_probability>  (1) 
0.99990000499974985

>  <s_epik_cmdline>  (1) 
J2VwaWtfcHl0aG9uJywgJy1waHQnLCAnMS4wJywgJy1waCcsICc3LjQnLCAnLXRuJywgJzgnLCAnLW1hJywgJzUwMCcsICctaW1hZScsICc8aW5maWxlLm1hZT4nLCAnLW9tYWUnLCAnPG91dGZpbGUubWFlPic=

>  <s_epik_input>  (1) 
Tz1DKFtPSF0pW0NIMl1bQ0BASF0oW0NIMl1bT0hdKVtDSDJdW0NIMl1bTkhdW0NASF0oW0NIMl1bQ0gyXVtDSDJdW0NIMl0xKVtDSDJdTjFbQ0gyXVtDSDJdW0NIMl1bQ0gyXVtDSDJdW0NASF0oW0NIM10pQyg9TylbQ0gyXS9bQ0hdPUMoW0NIM10pXE9bQ0gzXQ==

>  <s_glide_docking_method>  (1) 
confgen

>  <s_i_glide_gridfile>  (1) 
gpcr_5ht2c_6bqh_protein_autoprepared_prepared

>  <s_lp_Force_Field>  (1) 
S-OPLS

>  <s_lp_Variant>  (1) 
DiffSBDD_48-1

>  <s_m_source_file>  (1) 
generated_GPCR_5HT2C_ligand_DiffSBDD_2026-06-23_prepared.sdf

>  <GenAI_Model>  (1) 
DiffSBDD

>  <Protein>  (1) 
GPCR_5HT2C

$$$$
DiffSBDD_4
     RDKit          3D

  0  0  0  0  0  0  0  0  0  0999 V3000
M  V30 BEGIN CTAB
M  V30 COUNTS 84 86 0 0 1
M  V30 BEGIN ATOM
M  V30 1 C 42.305216 31.778414 64.384285 0
M  V30 2 O 40.634872 28.810185 58.195565 0
M  V30 3 C 37.936674 26.956029 57.762123 0
M  V30 4 C 40.299638 25.336057 57.021851 0
M  V30 5 C 40.331224 30.699461 63.285583 0
M  V30 6 C 41.815134 30.518655 63.645701 0 CFG=2
M  V30 7 O 39.842881 29.801367 60.431262 0
M  V30 8 O 41.657210 29.157207 65.619224 0
M  V30 9 C 39.033293 30.452584 59.770470 0
M  V30 10 C 38.864908 29.969963 55.166108 0
M  V30 11 C 37.936250 26.913514 55.169916 0
M  V30 12 C 35.723683 32.362355 60.623468 0
M  V30 13 C 42.031408 29.231810 64.451421 0
M  V30 14 N 38.845124 30.257193 58.405845 0
M  V30 15 C 39.629229 29.337968 57.710348 0
M  V30 16 C 38.398133 28.414899 53.179717 0
M  V30 17 C 39.177450 28.898975 56.279272 0 CFG=1
M  V30 18 C 39.524155 28.720665 51.055530 0
M  V30 19 C 38.172048 31.548281 60.484218 0 CFG=2
M  V30 20 C 40.155265 29.858156 51.546694 0
M  V30 21 C 38.094221 27.778662 56.422308 0 CFG=2
M  V30 22 C 38.652843 28.007040 51.858830 0
M  V30 23 C 38.639350 32.022881 61.908584 0
M  V30 24 F 38.045238 26.937760 51.361831 0
M  V30 25 C 37.876859 25.407378 57.783244 0
M  V30 26 C 37.791649 31.010584 57.693014 0
M  V30 27 C 40.637254 33.177818 63.073970 0
M  V30 28 C 38.944050 24.648948 56.997001 0
M  V30 29 N 42.635633 28.220182 63.821490 0
M  V30 30 C 42.106089 33.021055 63.498713 0
M  V30 31 C 39.955881 30.265255 52.884262 0
M  V30 32 C 41.010535 30.654831 50.634552 0
M  V30 33 C 36.668681 31.150648 60.577918 0
M  V30 34 C 40.125150 31.918112 62.347954 0 CFG=1
M  V30 35 C 37.373394 27.671308 53.998175 0
M  V30 36 N 40.045129 31.337740 49.767757 0 CHG=1
M  V30 37 C 39.082315 29.534407 53.714763 0
M  V30 38 H 43.352090 31.675312 64.666060 0
M  V30 39 H 41.753801 31.907672 65.317572 0
M  V30 40 H 38.660581 27.207604 58.532254 0
M  V30 41 H 36.986880 27.286667 58.167720 0
M  V30 42 H 40.845147 24.956079 56.167646 0
M  V30 43 H 40.279885 26.407770 56.878606 0
M  V30 44 H 40.837728 25.152650 57.951412 0
M  V30 45 H 39.752207 30.843394 64.199068 0
M  V30 46 H 39.940510 29.781633 62.851313 0
M  V30 47 H 42.385709 30.427930 62.723604 0
M  V30 48 H 39.488524 30.850624 55.334413 0
M  V30 49 H 37.828147 30.300284 55.204349 0
M  V30 50 H 38.861088 26.417147 54.880986 0
M  V30 51 H 37.197806 26.140935 55.377091 0
M  V30 52 H 34.686585 32.035410 60.581867 0
M  V30 53 H 35.857478 32.944990 61.535829 0
M  V30 54 H 35.880423 33.027872 59.773712 0
M  V30 55 H 40.080052 28.412710 55.907740 0
M  V30 56 H 39.690551 28.406231 50.035968 0
M  V30 57 H 38.290017 32.444224 59.873971 0
M  V30 58 H 37.245135 28.424755 56.457894 0
M  V30 59 H 38.341012 33.069918 61.993374 0
M  V30 60 H 38.039118 31.522387 62.666044 0
M  V30 61 H 38.026426 25.105376 58.820344 0
M  V30 62 H 36.884747 25.053138 57.501682 0
M  V30 63 H 37.245343 31.778855 58.220959 0
M  V30 64 H 38.222724 31.621081 56.905748 0
M  V30 65 H 37.022466 30.348198 57.302444 0
M  V30 66 H 40.530871 34.054279 62.432886 0
M  V30 67 H 40.043669 33.365584 63.965936 0
M  V30 68 H 39.051029 23.640072 57.392545 0
M  V30 69 H 38.626719 24.503163 55.965731 0
M  V30 70 H 42.928987 28.320549 62.858214 0
M  V30 71 H 42.796329 27.352858 64.310421 0
M  V30 72 H 42.732154 32.933658 62.610232 0
M  V30 73 H 42.437044 33.914510 64.029079 0
M  V30 74 H 40.459120 31.142796 53.264875 0
M  V30 75 H 41.635748 31.337743 51.193766 0
M  V30 76 H 41.652219 30.013817 50.036972 0
M  V30 77 H 36.355700 30.497981 59.762241 0
M  V30 78 H 36.500459 30.537687 61.455450 0
M  V30 79 H 40.759819 31.819451 61.467898 0
M  V30 80 H 36.608854 28.376936 54.309877 0
M  V30 81 H 36.846279 26.959595 53.362564 0
M  V30 82 H 40.557533 31.926657 49.124438 0
M  V30 83 H 39.472035 30.665763 49.273970 0
M  V30 84 H 39.455497 31.921586 50.343117 0
M  V30 END ATOM
M  V30 BEGIN BOND
M  V30 1 1 6 1
M  V30 2 1 6 5
M  V30 3 2 9 7
M  V30 4 1 13 6
M  V30 5 2 13 8
M  V30 6 1 14 9
M  V30 7 2 15 2
M  V30 8 1 15 14
M  V30 9 1 17 10
M  V30 10 1 17 15
M  V30 11 1 19 9
M  V30 12 2 20 18
M  V30 13 1 21 3
M  V30 14 1 21 11
M  V30 15 1 21 17
M  V30 16 2 22 16
M  V30 17 1 22 18
M  V30 18 1 23 19
M  V30 19 1 24 22
M  V30 20 1 25 3
M  V30 21 1 26 14
M  V30 22 1 28 4
M  V30 23 1 28 25
M  V30 24 1 29 13
M  V30 25 1 30 1
M  V30 26 1 30 27
M  V30 27 1 31 20
M  V30 28 1 32 20
M  V30 29 1 33 12
M  V30 30 1 33 19
M  V30 31 1 34 5
M  V30 32 1 34 23
M  V30 33 1 34 27
M  V30 34 1 35 11
M  V30 35 1 35 16
M  V30 36 1 36 32
M  V30 37 1 37 10
M  V30 38 1 37 16
M  V30 39 2 37 31
M  V30 40 1 38 1
M  V30 41 1 39 1
M  V30 42 1 40 3
M  V30 43 1 41 3
M  V30 44 1 42 4
M  V30 45 1 43 4
M  V30 46 1 44 4
M  V30 47 1 45 5
M  V30 48 1 46 5
M  V30 49 1 6 47 CFG=3
M  V30 50 1 48 10
M  V30 51 1 49 10
M  V30 52 1 50 11
M  V30 53 1 51 11
M  V30 54 1 52 12
M  V30 55 1 53 12
M  V30 56 1 54 12
M  V30 57 1 17 55 CFG=3
M  V30 58 1 56 18
M  V30 59 1 19 57 CFG=3
M  V30 60 1 21 58 CFG=3
M  V30 61 1 59 23
M  V30 62 1 60 23
M  V30 63 1 61 25
M  V30 64 1 62 25
M  V30 65 1 63 26
M  V30 66 1 64 26
M  V30 67 1 65 26
M  V30 68 1 66 27
M  V30 69 1 67 27
M  V30 70 1 68 28
M  V30 71 1 69 28
M  V30 72 1 70 29
M  V30 73 1 71 29
M  V30 74 1 72 30
M  V30 75 1 73 30
M  V30 76 1 74 31
M  V30 77 1 75 32
M  V30 78 1 76 32
M  V30 79 1 77 33
M  V30 80 1 78 33
M  V30 81 1 34 79 CFG=3
M  V30 82 1 80 35
M  V30 83 1 81 35
M  V30 84 1 82 36
M  V30 85 1 83 36
M  V30 86 1 84 36
M  V30 END BOND
M  V30 END CTAB
M  END
>  <i_epik_Tot_Q>  (1) 
1

>  <i_epik_Tot_abs_Q>  (1) 
1

>  <i_i_glide_confnum>  (1) 
1172

>  <i_i_glide_lignum>  (1) 
12

>  <i_i_glide_posenum>  (1) 
304

>  <i_i_glide_rotatable_bonds>  (1) 
12

>  <i_lp_mmshare_version>  (1) 
72125

>  <i_m_source_file_index>  (1) 
5

>  <i_f3d_flags>  (1) 
0

>  <num_sample>  (1) 
50

>  <b_lp_Chiralities_Consistent>  (1) 
1

>  <r_epik_Charging_Adjusted_Penalty>  (1) 
0.13898695589805143

>  <r_epik_Ionization_Penalty>  (1) 
0.069493509606034093

>  <r_epik_Ionization_Penalty_Charging>  (1) 
0.069493477949025731

>  <r_epik_Ionization_Penalty_Neutral>  (1) 
3.165700835510182e-08

>  <r_epik_State_Penalty>  (1) 
0.069493477949025703

>  <r_glide_ring_energy>  (1) 
0

>  <r_i_docking_score>  (1) 
-5.135247532197436

>  <r_i_glide_ecoul>  (1) 
-2.5346116944174368

>  <r_i_glide_eff_state_penalty>  (1) 
0.069493477949025703

>  <r_i_glide_einternal>  (1) 
25.821164012185815

>  <r_i_glide_emodel>  (1) 
-25.147356908026389

>  <r_i_glide_emodel_strain>  (1) 
14.95752872404934

>  <r_i_glide_energy>  (1) 
-40.075053556415384

>  <r_i_glide_erotb>  (1) 
0.61504065404150154

>  <r_i_glide_esite>  (1) 
-0.0200402000966446

>  <r_i_glide_evdw>  (1) 
-37.540441861997948

>  <r_i_glide_gscore>  (1) 
-5.2047410101464617

>  <r_i_glide_gscore_strain>  (1) 
2.7393821810123349

>  <r_i_glide_hbond>  (1) 
-0.20165876734673105

>  <r_i_glide_ligand_efficiency>  (1) 
-0.13879047384317394

>  <r_i_glide_ligand_efficiency_ln>  (1) 
-1.1137148024508041

>  <r_i_glide_ligand_efficiency_sa>  (1) 
-0.46248064974052039

>  <r_i_glide_lipo>  (1) 
-4.7410002339030184

>  <r_i_glide_metal>  (1) 
-0

>  <r_i_glide_rewards>  (1) 
-1.3392507965913898

>  <r_lp_Energy>  (1) 
65.294674999999998

>  <r_lp_tautomer_probability>  (1) 
0.99980002999550088

>  <s_epik_cmdline>  (1) 
J2VwaWtfcHl0aG9uJywgJy1waHQnLCAnMS4wJywgJy1waCcsICc3LjQnLCAnLXRuJywgJzgnLCAnLW1hJywgJzUwMCcsICctaW1hZScsICc8aW5maWxlLm1hZT4nLCAnLW9tYWUnLCAnPG91dGZpbGUubWFlPic=

>  <s_epik_input>  (1) 
Tz1DKFtOSDJdKVtDQEBIXTFbQ0gyXVtDSDJdW0NIMl1bQ0BASF0oW0NIMl0xKVtDSDJdW0NASF0oW0NIMl1bQ0gzXSlDKD1PKU4oW0NIM10pQyg9TylbQ0BASF0oW0NAQEhdKFtDSDJdW0NIMl0yKVtDSDJdW0NIMl1bQ0gyXVtDSDNdKVtDSDJdYyhjMjMpW2NIXWMoW2NIXWMzRilbQ0gyXVtOSDJd

>  <s_glide_docking_method>  (1) 
confgen

>  <s_i_glide_gridfile>  (1) 
gpcr_5ht2c_6bqh_protein_autoprepared_prepared

>  <s_lp_Force_Field>  (1) 
S-OPLS

>  <s_lp_Variant>  (1) 
DiffSBDD_4-1

>  <s_m_source_file>  (1) 
generated_GPCR_5HT2C_ligand_DiffSBDD_2026-06-23_prepared.sdf

>  <GenAI_Model>  (1) 
DiffSBDD

>  <Protein>  (1) 
GPCR_5HT2C

$$$$
DiffSBDD_48
     RDKit          3D

  0  0  0  0  0  0  0  0  0  0999 V3000
M  V30 BEGIN CTAB
M  V30 COUNTS 78 78 0 0 1
M  V30 BEGIN ATOM
M  V30 1 O 41.126907 25.390810 65.908326 0
M  V30 2 C 41.814360 33.158595 63.972954 0
M  V30 3 C 41.999737 32.349139 65.265002 0
M  V30 4 O 38.935183 28.593853 52.448865 0
M  V30 5 C 39.178024 33.383722 60.581569 0
M  V30 6 C 42.347779 25.198979 65.714262 0
M  V30 7 C 39.655464 30.146276 54.770630 0
M  V30 8 C 43.319499 25.845113 66.700438 0
M  V30 9 C 39.047146 32.247310 61.615563 0
M  V30 10 C 41.302769 30.978816 65.272837 0
M  V30 11 N 40.265049 32.024244 62.398471 0
M  V30 12 C 45.113990 27.625264 67.067989 0
M  V30 13 C 37.873024 33.617684 59.801293 0
M  V30 14 C 39.711285 29.721360 52.284860 0
M  V30 15 C 38.675434 27.751124 51.339769 0
M  V30 16 C 44.062444 27.062688 66.084285 0 CFG=2
M  V30 17 C 43.087756 28.187227 65.661206 0
M  V30 18 C 40.113443 30.026963 50.845050 0
M  V30 19 O 38.418697 32.215000 54.679613 0
M  V30 20 C 41.317745 30.265815 63.899392 0 CFG=2
M  V30 21 C 42.562432 28.102446 64.211346 0
M  V30 22 O 42.845115 24.537726 64.778455 0 CHG=-1
M  V30 23 C 37.486571 32.474695 58.852653 0
M  V30 24 O 46.119681 26.680726 67.367864 0
M  V30 25 C 38.757100 31.243186 55.353609 0
M  V30 26 C 38.348413 32.426926 57.575517 0
M  V30 27 C 40.110568 30.717369 63.048138 0
M  V30 28 C 40.393204 33.090030 63.397642 0
M  V30 29 C 40.061443 30.461241 53.344339 0
M  V30 30 N 41.262995 28.791912 64.036668 0 CHG=1
M  V30 31 C 38.287817 31.080075 56.814071 0 CFG=2
M  V30 32 C 38.993208 29.937475 57.578161 0
M  V30 33 H 42.531944 32.846536 63.213736 0
M  V30 34 H 42.064980 34.198735 64.187699 0
M  V30 35 H 43.068767 32.214991 65.435289 0
M  V30 36 H 41.634650 32.928669 66.114120 0
M  V30 37 H 39.431649 34.326446 61.060988 0
M  V30 38 H 40.001403 33.170810 59.902576 0
M  V30 39 H 40.558378 30.043941 55.367881 0
M  V30 40 H 39.125581 29.194951 54.804869 0
M  V30 41 H 44.032342 25.080732 67.009415 0
M  V30 42 H 42.777763 26.138550 67.600492 0
M  V30 43 H 38.816979 31.332479 61.069928 0
M  V30 44 H 38.200212 32.431692 62.279611 0
M  V30 45 H 40.271642 31.099119 65.607723 0
M  V30 46 H 41.764918 30.387515 66.057302 0
M  V30 47 H 44.646174 27.954222 67.996749 0
M  V30 48 H 45.607571 28.495452 66.632717 0
M  V30 49 H 37.061064 33.781752 60.511503 0
M  V30 50 H 37.949865 34.537905 59.223876 0
M  V30 51 H 38.045269 26.937266 51.680144 0
M  V30 52 H 38.118760 28.270735 50.567761 0
M  V30 53 H 39.583624 27.316081 50.922315 0
M  V30 54 H 44.598308 26.733522 65.195213 0
M  V30 55 H 42.256482 28.198337 66.368465 0
M  V30 56 H 43.584886 29.151785 65.767770 0
M  V30 57 H 40.699849 30.945499 50.809054 0
M  V30 58 H 40.738051 29.238297 50.429320 0
M  V30 59 H 39.245464 30.182544 50.205130 0
M  V30 60 H 42.235468 30.498342 63.356919 0
M  V30 61 H 43.305595 28.485762 63.510698 0
M  V30 62 H 42.396793 27.073135 63.904550 0
M  V30 63 H 37.496852 31.525123 59.380836 0
M  V30 64 H 36.446201 32.620541 58.567760 0
M  V30 65 H 46.895063 27.145777 67.647071 0
M  V30 66 H 38.014024 33.246876 56.938146 0
M  V30 67 H 39.386850 32.650362 57.803696 0
M  V30 68 H 39.971415 29.983928 62.252745 0
M  V30 69 H 39.196395 30.684269 63.642179 0
M  V30 70 H 40.198467 34.061693 62.949702 0
M  V30 71 H 39.645443 32.956478 64.177580 0
M  V30 72 H 40.668775 31.337766 53.200129 0
M  V30 73 H 40.881424 28.435244 63.173348 0
M  V30 74 H 37.245067 30.797800 56.728934 0
M  V30 75 H 38.889320 28.981206 57.066353 0
M  V30 76 H 40.053090 30.137662 57.706107 0
M  V30 77 H 38.569835 29.793849 58.570668 0
M  V30 78 H 40.621171 28.526673 64.772157 0
M  V30 END ATOM
M  V30 BEGIN BOND
M  V30 1 1 3 2
M  V30 2 2 6 1
M  V30 3 1 8 6
M  V30 4 1 9 5
M  V30 5 1 10 3
M  V30 6 1 11 9
M  V30 7 1 13 5
M  V30 8 1 14 4
M  V30 9 1 15 4
M  V30 10 1 16 8
M  V30 11 1 16 12
M  V30 12 1 17 16
M  V30 13 1 18 14
M  V30 14 1 20 10
M  V30 15 1 21 17
M  V30 16 1 22 6
M  V30 17 1 23 13
M  V30 18 1 24 12
M  V30 19 1 25 7
M  V30 20 2 25 19
M  V30 21 1 26 23
M  V30 22 1 27 11
M  V30 23 1 27 20
M  V30 24 1 28 2
M  V30 25 1 28 11
M  V30 26 1 29 7
M  V30 27 2 29 14
M  V30 28 1 30 20
M  V30 29 1 30 21
M  V30 30 1 31 25
M  V30 31 1 31 26
M  V30 32 1 32 31
M  V30 33 1 33 2
M  V30 34 1 34 2
M  V30 35 1 35 3
M  V30 36 1 36 3
M  V30 37 1 37 5
M  V30 38 1 38 5
M  V30 39 1 39 7
M  V30 40 1 40 7
M  V30 41 1 41 8
M  V30 42 1 42 8
M  V30 43 1 43 9
M  V30 44 1 44 9
M  V30 45 1 45 10
M  V30 46 1 46 10
M  V30 47 1 47 12
M  V30 48 1 48 12
M  V30 49 1 49 13
M  V30 50 1 50 13
M  V30 51 1 51 15
M  V30 52 1 52 15
M  V30 53 1 53 15
M  V30 54 1 16 54 CFG=3
M  V30 55 1 55 17
M  V30 56 1 56 17
M  V30 57 1 57 18
M  V30 58 1 58 18
M  V30 59 1 59 18
M  V30 60 1 20 60 CFG=3
M  V30 61 1 61 21
M  V30 62 1 62 21
M  V30 63 1 63 23
M  V30 64 1 64 23
M  V30 65 1 65 24
M  V30 66 1 66 26
M  V30 67 1 67 26
M  V30 68 1 68 27
M  V30 69 1 69 27
M  V30 70 1 70 28
M  V30 71 1 71 28
M  V30 72 1 72 29
M  V30 73 1 73 30
M  V30 74 1 31 74 CFG=3
M  V30 75 1 75 32
M  V30 76 1 76 32
M  V30 77 1 77 32
M  V30 78 1 78 30
M  V30 END BOND
M  V30 END CTAB
M  END
>  <i_epik_Tot_Q>  (1) 
0

>  <i_epik_Tot_abs_Q>  (1) 
2

>  <i_i_glide_confnum>  (1) 
4681

>  <i_i_glide_lignum>  (1) 
101

>  <i_i_glide_posenum>  (1) 
374

>  <i_i_glide_rotatable_bonds>  (1) 
18

>  <i_lp_mmshare_version>  (1) 
72125

>  <i_m_source_file_index>  (1) 
49

>  <i_f3d_flags>  (1) 
0

>  <num_sample>  (1) 
50

>  <b_lp_Chiralities_Consistent>  (1) 
1

>  <r_epik_Charging_Adjusted_Penalty>  (1) 
0.04911624183534407

>  <r_epik_Ionization_Penalty>  (1) 
0.025385742012929795

>  <r_epik_Ionization_Penalty_Charging>  (1) 
0.0065475108590220404

>  <r_epik_Ionization_Penalty_Neutral>  (1) 
0.018838231153907755

>  <r_epik_State_Penalty>  (1) 
0.042568730976322029

>  <r_glide_ring_energy>  (1) 
0

>  <r_i_docking_score>  (1) 
-5.0950670263375519

>  <r_i_glide_ecoul>  (1) 
-5.5545031297847043

>  <r_i_glide_eff_state_penalty>  (1) 
0.042568730976322029

>  <r_i_glide_einternal>  (1) 
17.104032230254461

>  <r_i_glide_emodel>  (1) 
-50.733573257533877

>  <r_i_glide_emodel_strain>  (1) 
1.9864060091056359

>  <r_i_glide_energy>  (1) 
-45.978630366518992

>  <r_i_glide_erotb>  (1) 
1.5544609794247006

>  <r_i_glide_esite>  (1) 
-0.00085719195974197533

>  <r_i_glide_evdw>  (1) 
-40.424127236734286

>  <r_i_glide_gscore>  (1) 
-5.1376357573138742

>  <r_i_glide_gscore_strain>  (1) 
0

>  <r_i_glide_hbond>  (1) 
0

>  <r_i_glide_ligand_efficiency>  (1) 
-0.1592208445730485

>  <r_i_glide_ligand_efficiency_ln>  (1) 
-1.1409243934786371

>  <r_i_glide_ligand_efficiency_sa>  (1) 
-0.50549467234104484

>  <r_i_glide_lipo>  (1) 
-2.9045569802582381

>  <r_i_glide_metal>  (1) 
-0

>  <r_i_glide_rewards>  (1) 
-0.93230073321617546

>  <r_lp_Energy>  (1) 
26.260809999999999

>  <r_lp_tautomer_probability>  (1) 
0.99990000499974985

>  <s_epik_cmdline>  (1) 
J2VwaWtfcHl0aG9uJywgJy1waHQnLCAnMS4wJywgJy1waCcsICc3LjQnLCAnLXRuJywgJzgnLCAnLW1hJywgJzUwMCcsICctaW1hZScsICc8aW5maWxlLm1hZT4nLCAnLW9tYWUnLCAnPG91dGZpbGUubWFlPic=

>  <s_epik_input>  (1) 
Tz1DKFtPSF0pW0NIMl1bQ0BASF0oW0NIMl1bT0hdKVtDSDJdW0NIMl1bTkhdW0NASF0oW0NIMl1bQ0gyXVtDSDJdW0NIMl0xKVtDSDJdTjFbQ0gyXVtDSDJdW0NIMl1bQ0gyXVtDSDJdW0NASF0oW0NIM10pQyg9TylbQ0gyXS9bQ0hdPUMoW0NIM10pXE9bQ0gzXQ==

>  <s_glide_docking_method>  (1) 
confgen

>  <s_i_glide_gridfile>  (1) 
gpcr_5ht2c_6bqh_protein_autoprepared_prepared

>  <s_lp_Force_Field>  (1) 
S-OPLS

>  <s_lp_Variant>  (1) 
DiffSBDD_48-3

>  <s_m_source_file>  (1) 
generated_GPCR_5HT2C_ligand_DiffSBDD_2026-06-23_prepared.sdf

>  <GenAI_Model>  (1) 
DiffSBDD

>  <Protein>  (1) 
GPCR_5HT2C

$$$$
DiffSBDD_1
     RDKit          3D

  0  0  0  0  0  0  0  0  0  0999 V3000
M  V30 BEGIN CTAB
M  V30 COUNTS 78 81 0 0 1
M  V30 BEGIN ATOM
M  V30 1 C 37.524276 31.507742 59.046098 0
M  V30 2 N 40.289499 30.745415 62.302628 0
M  V30 3 C 40.979318 33.662711 64.545387 0 CFG=1
M  V30 4 C 42.394301 33.176812 64.265207 0
M  V30 5 C 39.961335 26.451462 57.508160 0
M  V30 6 C 38.665351 32.789729 55.663697 0
M  V30 7 C 40.058874 32.484431 64.212350 0
M  V30 8 C 40.903079 31.429064 63.475039 0 CFG=2
M  V30 9 C 37.645320 26.903524 55.559732 0
M  V30 10 N 38.045213 31.909139 56.630833 0
M  V30 11 O 39.246022 27.713429 50.568385 0
M  V30 12 C 39.350443 31.534158 56.158098 0 CFG=1
M  V30 13 C 37.834871 28.283264 56.073165 0 CFG=2
M  V30 14 O 37.687244 29.399506 55.091201 0
M  V30 15 C 39.605260 26.770257 52.684467 0
M  V30 16 C 41.366166 35.364788 66.160745 0
M  V30 17 C 39.269135 28.454867 56.146990 0
M  V30 18 C 39.533125 31.585188 61.346362 0
M  V30 19 C 39.008310 29.242201 52.364108 0
M  V30 20 O 41.461857 28.137754 56.708401 0
M  V30 21 O 41.162572 28.714786 62.854039 0
M  V30 22 C 39.744941 30.145963 53.378674 0
M  V30 23 O 40.845241 34.069657 65.900519 0
M  V30 24 O 36.544633 25.337546 56.939940 0
M  V30 25 P 39.339773 29.951089 55.216886 0 CFG=2 CHG=1
M  V30 26 C 39.772363 28.022633 51.837048 0 CFG=2
M  V30 27 C 40.204504 27.704010 56.757845 0
M  V30 28 C 42.415948 32.715301 61.779315 0
M  V30 29 O 37.454259 32.175488 60.304025 0
M  V30 30 C 40.508560 29.415090 62.083298 0
M  V30 31 C 39.926343 28.792894 60.806654 0
M  V30 32 C 38.822302 25.685937 57.531993 0
M  V30 33 C 37.595864 25.931805 56.719032 0
M  V30 34 C 38.000134 31.443491 61.392037 0
M  V30 35 C 42.264650 32.096179 63.179190 0 CFG=1
M  V30 36 C 37.988049 32.499669 57.967619 0
M  V30 37 H 36.539611 31.100082 58.815477 0
M  V30 38 H 38.208033 30.658090 59.064042 0
M  V30 39 H 40.732503 34.483999 63.868972 0
M  V30 40 H 43.000521 34.037676 63.983141 0
M  V30 41 H 42.824118 32.736774 65.166493 0
M  V30 42 H 40.775158 26.103564 58.128662 0
M  V30 43 H 38.901353 33.759366 56.093944 0
M  V30 44 H 38.107119 32.775609 54.731178 0
M  V30 45 H 39.244936 32.870733 63.614018 0
M  V30 46 H 39.645200 32.049409 65.123058 0
M  V30 47 H 41.101927 30.684524 64.249037 0
M  V30 48 H 36.735138 26.823711 54.967744 0
M  V30 49 H 38.448277 26.577082 54.911738 0
M  V30 50 H 38.350471 27.425969 50.668449 0
M  V30 51 H 40.045101 31.615358 56.967764 0
M  V30 52 H 37.282732 28.509614 56.989172 0
M  V30 53 H 40.076790 26.877528 53.658457 0
M  V30 54 H 38.549899 26.538058 52.822892 0
M  V30 55 H 40.045084 25.909243 52.188515 0
M  V30 56 H 41.236634 35.603082 67.215853 0
M  V30 57 H 42.429541 35.431417 65.930670 0
M  V30 58 H 40.838569 36.123472 65.581587 0
M  V30 59 H 39.905071 31.409378 60.341708 0
M  V30 60 H 39.758731 32.637551 61.501425 0
M  V30 61 H 38.007414 28.968468 52.699070 0
M  V30 62 H 38.845350 29.860493 51.484729 0
M  V30 63 H 42.009571 27.491268 57.133296 0
M  V30 64 H 39.460263 31.169820 53.135357 0
M  V30 65 H 40.818053 30.137745 53.213332 0
M  V30 66 H 40.828808 28.259805 51.702161 0
M  V30 67 H 41.852799 33.642981 61.678468 0
M  V30 68 H 43.456147 32.937712 61.599484 0
M  V30 69 H 42.117834 32.052155 60.972862 0
M  V30 70 H 40.236464 29.316954 59.903473 0
M  V30 71 H 40.299505 27.772804 60.707486 0
M  V30 72 H 38.844889 28.718916 60.841719 0
M  V30 73 H 38.802561 24.817528 58.167894 0
M  V30 74 H 37.618948 31.868904 62.319390 0
M  V30 75 H 37.647308 30.417116 61.365704 0
M  V30 76 H 43.047839 31.346066 63.297831 0
M  V30 77 H 38.944113 32.940510 58.253902 0
M  V30 78 H 37.274482 33.325503 57.948017 0
M  V30 END ATOM
M  V30 BEGIN BOND
M  V30 1 1 4 3
M  V30 2 1 7 3
M  V30 3 1 8 2
M  V30 4 1 8 7
M  V30 5 1 10 6
M  V30 6 1 12 6
M  V30 7 1 12 10
M  V30 8 1 13 9
M  V30 9 1 14 13
M  V30 10 1 17 13
M  V30 11 1 18 2
M  V30 12 1 22 19
M  V30 13 1 23 3
M  V30 14 1 23 16
M  V30 15 1 25 12
M  V30 16 1 25 14
M  V30 17 1 25 17
M  V30 18 1 25 22 CFG=3
M  V30 19 1 26 11
M  V30 20 1 26 15
M  V30 21 1 26 19
M  V30 22 1 27 5
M  V30 23 2 27 17
M  V30 24 1 27 20
M  V30 25 1 29 1
M  V30 26 1 30 2
M  V30 27 2 30 21
M  V30 28 1 31 30
M  V30 29 2 32 5
M  V30 30 1 33 9
M  V30 31 2 33 24
M  V30 32 1 33 32
M  V30 33 1 34 18
M  V30 34 1 34 29
M  V30 35 1 35 4
M  V30 36 1 35 8
M  V30 37 1 35 28
M  V30 38 1 36 1
M  V30 39 1 36 10
M  V30 40 1 37 1
M  V30 41 1 38 1
M  V30 42 1 3 39 CFG=3
M  V30 43 1 40 4
M  V30 44 1 41 4
M  V30 45 1 42 5
M  V30 46 1 43 6
M  V30 47 1 44 6
M  V30 48 1 45 7
M  V30 49 1 46 7
M  V30 50 1 8 47 CFG=1
M  V30 51 1 48 9
M  V30 52 1 49 9
M  V30 53 1 50 11
M  V30 54 1 12 51 CFG=1
M  V30 55 1 13 52 CFG=1
M  V30 56 1 53 15
M  V30 57 1 54 15
M  V30 58 1 55 15
M  V30 59 1 56 16
M  V30 60 1 57 16
M  V30 61 1 58 16
M  V30 62 1 59 18
M  V30 63 1 60 18
M  V30 64 1 61 19
M  V30 65 1 62 19
M  V30 66 1 63 20
M  V30 67 1 64 22
M  V30 68 1 65 22
M  V30 69 1 26 66 CFG=3
M  V30 70 1 67 28
M  V30 71 1 68 28
M  V30 72 1 69 28
M  V30 73 1 70 31
M  V30 74 1 71 31
M  V30 75 1 72 31
M  V30 76 1 73 32
M  V30 77 1 74 34
M  V30 78 1 75 34
M  V30 79 1 35 76 CFG=1
M  V30 80 1 77 36
M  V30 81 1 78 36
M  V30 END BOND
M  V30 END CTAB
M  END
>  <i_epik_Tot_Q>  (1) 
1

>  <i_epik_Tot_abs_Q>  (1) 
1

>  <i_i_glide_confnum>  (1) 
4718

>  <i_i_glide_lignum>  (1) 
5

>  <i_i_glide_posenum>  (1) 
18

>  <i_i_glide_rotatable_bonds>  (1) 
15

>  <i_lp_mmshare_version>  (1) 
72125

>  <i_m_source_file_index>  (1) 
2

>  <i_f3d_flags>  (1) 
0

>  <num_sample>  (1) 
50

>  <b_lp_Chiralities_Consistent>  (1) 
1

>  <r_epik_Charging_Adjusted_Penalty>  (1) 
0.012777702237649643

>  <r_epik_Ionization_Penalty>  (1) 
0.012893064322698497

>  <r_epik_Ionization_Penalty_Charging>  (1) 
0

>  <r_epik_Ionization_Penalty_Neutral>  (1) 
0.012893064322698497

>  <r_epik_State_Penalty>  (1) 
0.012777702237649643

>  <r_glide_ring_energy>  (1) 
1.6816026439138669

>  <r_i_docking_score>  (1) 
-5.0888499885018748

>  <r_i_glide_ecoul>  (1) 
0.77177342447332975

>  <r_i_glide_eff_state_penalty>  (1) 
0.012777702237649643

>  <r_i_glide_einternal>  (1) 
14.015403031655957

>  <r_i_glide_emodel>  (1) 
-47.563381902557225

>  <r_i_glide_emodel_strain>  (1) 
2.6628954178393229

>  <r_i_glide_energy>  (1) 
-40.274958657647545

>  <r_i_glide_erotb>  (1) 
0.81958699115176215

>  <r_i_glide_esite>  (1) 
-0.02933473780600826

>  <r_i_glide_evdw>  (1) 
-41.046732082120876

>  <r_i_glide_gscore>  (1) 
-5.1016276907395248

>  <r_i_glide_gscore_strain>  (1) 
0

>  <r_i_glide_hbond>  (1) 
0

>  <r_i_glide_ligand_efficiency>  (1) 
-0.14135694412505206

>  <r_i_glide_ligand_efficiency_ln>  (1) 
-1.1102495826527508

>  <r_i_glide_ligand_efficiency_sa>  (1) 
-0.46675034562698475

>  <r_i_glide_lipo>  (1) 
-3.4945451104306402

>  <r_i_glide_metal>  (1) 
-0

>  <r_i_glide_rewards>  (1) 
-0.46076424321959458

>  <r_lp_Energy>  (1) 
37.151716

>  <s_epik_cmdline>  (1) 
J2VwaWtfcHl0aG9uJywgJy1waHQnLCAnMS4wJywgJy1waCcsICc3LjQnLCAnLXRuJywgJzgnLCAnLW1hJywgJzUwMCcsICctaW1hZScsICc8aW5maWxlLm1hZT4nLCAnLW9tYWUnLCAnPG91dGZpbGUubWFlPic=

>  <s_epik_input>  (1) 
W0NIM11PW0NASF0xW0NIMl1bQ0BIXShbQ0gzXSlbQ0BASF0oW0NIMl0xKU4oQyg9TylbQ0gzXSlbQ0gyXVtDSDJdT1tDSDJdW0NIMl1OMltDSDJdW0NIXTJbUEBAK10oTzMpKFtDSDJdW0NIMl1bQ0BIXShbT0hdKVtDSDNdKUMoW0NAQEhdMzQpPUMoW09IXSlbQ0hdPVtDSF1DKD1PKVtDSDJdNA==

>  <s_glide_docking_method>  (1) 
confgen

>  <s_i_glide_gridfile>  (1) 
gpcr_5ht2c_6bqh_protein_autoprepared_prepared

>  <s_lp_Force_Field>  (1) 
S-OPLS

>  <s_lp_Variant>  (1) 
DiffSBDD_1-1

>  <s_m_source_file>  (1) 
generated_GPCR_5HT2C_ligand_DiffSBDD_2026-06-23_prepared.sdf

>  <GenAI_Model>  (1) 
DiffSBDD

>  <Protein>  (1) 
GPCR_5HT2C

$$$$
DiffSBDD_4
     RDKit          3D

  0  0  0  0  0  0  0  0  0  0999 V3000
M  V30 BEGIN CTAB
M  V30 COUNTS 83 85 0 0 1
M  V30 BEGIN ATOM
M  V30 1 C 38.958184 27.262697 55.303787 0
M  V30 2 O 41.643317 29.614983 62.613346 0
M  V30 3 C 40.549239 30.327451 65.383816 0
M  V30 4 C 43.517626 28.021637 66.583666 0
M  V30 5 C 38.588856 27.918811 57.715877 0
M  V30 6 C 38.300909 26.860945 56.634490 0 CFG=2
M  V30 7 O 38.651071 32.042640 61.293492 0
M  V30 8 O 39.925596 25.252628 57.367338 0
M  V30 9 C 38.799189 30.897998 60.880990 0
M  V30 10 C 41.231306 32.862517 62.354449 0
M  V30 11 C 41.079109 32.769539 65.497419 0
M  V30 12 C 35.702554 31.464109 60.912790 0
M  V30 13 C 38.748425 25.471203 57.105147 0
M  V30 14 N 39.785435 30.029074 61.344590 0
M  V30 15 C 40.704235 30.363219 62.335560 0
M  V30 16 C 40.853888 34.779242 63.976426 0
M  V30 17 C 40.551601 31.698564 63.142106 0 CFG=1
M  V30 18 C 39.427752 36.674186 63.390712 0
M  V30 19 C 37.847161 30.379045 59.756636 0 CFG=2
M  V30 20 C 39.194970 36.110450 62.121534 0
M  V30 21 C 41.168958 31.520976 64.582705 0 CFG=2
M  V30 22 C 40.251802 36.009716 64.317961 0
M  V30 23 C 38.571001 30.403158 58.372862 0
M  V30 24 F 40.444974 36.537685 65.549280 0
M  V30 25 C 41.526137 29.618055 66.344149 0
M  V30 26 C 39.913151 28.683004 60.740536 0
M  V30 27 C 38.746770 29.711781 55.944505 0
M  V30 28 C 42.567756 28.743266 65.621933 0
M  V30 29 N 37.801603 24.538967 57.214636 0
M  V30 30 C 38.465177 28.651591 54.865843 0
M  V30 31 C 39.791785 34.879298 61.778344 0
M  V30 32 C 38.288226 36.817357 61.133665 0
M  V30 33 C 36.550684 31.237036 59.646892 0
M  V30 34 C 38.145986 29.347152 57.321779 0 CFG=1
M  V30 35 C 41.734034 34.057857 64.983258 0
M  V30 36 N 36.886609 36.561716 61.396598 0
M  V30 37 C 40.618719 34.209417 62.708225 0
M  V30 38 H 38.722474 26.528898 54.531144 0
M  V30 39 H 40.045027 27.269515 55.404440 0
M  V30 40 H 39.691338 30.683210 65.955535 0
M  V30 41 H 40.122164 29.560537 64.740978 0
M  V30 42 H 44.219662 27.398301 66.028887 0
M  V30 43 H 44.098640 28.731534 67.172335 0
M  V30 44 H 42.971522 27.377132 67.272392 0
M  V30 45 H 39.661004 27.917930 57.911237 0
M  V30 46 H 38.092383 27.619956 58.637567 0
M  V30 47 H 37.232813 26.826405 56.469837 0
M  V30 48 H 41.142180 32.717968 61.277203 0
M  V30 49 H 42.305834 32.878261 62.538263 0
M  V30 50 H 40.045169 32.971984 65.765972 0
M  V30 51 H 41.571121 32.524482 66.438593 0
M  V30 52 H 34.845047 32.083911 60.658762 0
M  V30 53 H 35.318556 30.537801 61.321837 0
M  V30 54 H 36.231314 31.990898 61.704527 0
M  V30 55 H 39.508481 31.903464 63.367298 0
M  V30 56 H 38.964746 37.611487 63.658415 0
M  V30 57 H 37.492005 29.381948 59.993837 0
M  V30 58 H 42.232649 31.326711 64.444098 0
M  V30 59 H 38.443968 31.395159 57.936234 0
M  V30 60 H 39.645228 30.312911 58.496704 0
M  V30 61 H 42.024729 30.343404 66.987187 0
M  V30 62 H 40.947341 28.976791 67.011638 0
M  V30 63 H 38.974516 28.147536 60.640986 0
M  V30 64 H 40.428916 28.732143 59.785426 0
M  V30 65 H 40.501422 27.989656 61.342865 0
M  V30 66 H 38.353297 30.673898 55.614836 0
M  V30 67 H 39.826089 29.839624 56.038786 0
M  V30 68 H 42.057020 28.004956 65.002402 0
M  V30 69 H 43.162903 29.347969 64.938894 0
M  V30 70 H 36.845299 24.762673 56.986550 0
M  V30 71 H 38.045777 23.610802 57.527082 0
M  V30 72 H 37.394457 28.616479 54.657848 0
M  V30 73 H 38.951235 28.937237 53.932253 0
M  V30 74 H 39.604645 34.442410 60.808253 0
M  V30 75 H 38.459868 37.893718 61.162660 0
M  V30 76 H 38.513030 36.479979 60.123274 0
M  V30 77 H 36.793205 32.216094 59.230884 0
M  V30 78 H 35.898680 30.764220 58.915371 0
M  V30 79 H 37.059491 29.367459 57.230817 0
M  V30 80 H 42.717130 33.858144 64.557710 0
M  V30 81 H 41.919553 34.714004 65.833618 0
M  V30 82 H 36.460682 36.163104 60.570836 0
M  V30 83 H 36.809783 35.865621 62.125217 0
M  V30 END ATOM
M  V30 BEGIN BOND
M  V30 1 1 6 1
M  V30 2 1 6 5
M  V30 3 2 9 7
M  V30 4 1 13 6
M  V30 5 2 13 8
M  V30 6 1 14 9
M  V30 7 2 15 2
M  V30 8 1 15 14
M  V30 9 1 17 10
M  V30 10 1 17 15
M  V30 11 1 19 9
M  V30 12 2 20 18
M  V30 13 1 21 3
M  V30 14 1 21 11
M  V30 15 1 21 17
M  V30 16 2 22 16
M  V30 17 1 22 18
M  V30 18 1 23 19
M  V30 19 1 24 22
M  V30 20 1 25 3
M  V30 21 1 26 14
M  V30 22 1 28 4
M  V30 23 1 28 25
M  V30 24 1 29 13
M  V30 25 1 30 1
M  V30 26 1 30 27
M  V30 27 1 31 20
M  V30 28 1 32 20
M  V30 29 1 33 12
M  V30 30 1 33 19
M  V30 31 1 34 5
M  V30 32 1 34 23
M  V30 33 1 34 27
M  V30 34 1 35 11
M  V30 35 1 35 16
M  V30 36 1 36 32
M  V30 37 1 37 10
M  V30 38 1 37 16
M  V30 39 2 37 31
M  V30 40 1 38 1
M  V30 41 1 39 1
M  V30 42 1 40 3
M  V30 43 1 41 3
M  V30 44 1 42 4
M  V30 45 1 43 4
M  V30 46 1 44 4
M  V30 47 1 45 5
M  V30 48 1 46 5
M  V30 49 1 6 47 CFG=3
M  V30 50 1 48 10
M  V30 51 1 49 10
M  V30 52 1 50 11
M  V30 53 1 51 11
M  V30 54 1 52 12
M  V30 55 1 53 12
M  V30 56 1 54 12
M  V30 57 1 17 55 CFG=1
M  V30 58 1 56 18
M  V30 59 1 19 57 CFG=1
M  V30 60 1 21 58 CFG=3
M  V30 61 1 59 23
M  V30 62 1 60 23
M  V30 63 1 61 25
M  V30 64 1 62 25
M  V30 65 1 63 26
M  V30 66 1 64 26
M  V30 67 1 65 26
M  V30 68 1 66 27
M  V30 69 1 67 27
M  V30 70 1 68 28
M  V30 71 1 69 28
M  V30 72 1 70 29
M  V30 73 1 71 29
M  V30 74 1 72 30
M  V30 75 1 73 30
M  V30 76 1 74 31
M  V30 77 1 75 32
M  V30 78 1 76 32
M  V30 79 1 77 33
M  V30 80 1 78 33
M  V30 81 1 34 79 CFG=3
M  V30 82 1 80 35
M  V30 83 1 81 35
M  V30 84 1 82 36
M  V30 85 1 83 36
M  V30 END BOND
M  V30 END CTAB
M  END
>  <i_epik_Tot_Q>  (1) 
0

>  <i_epik_Tot_abs_Q>  (1) 
0

>  <i_i_glide_confnum>  (1) 
985

>  <i_i_glide_lignum>  (1) 
13

>  <i_i_glide_posenum>  (1) 
152

>  <i_i_glide_rotatable_bonds>  (1) 
12

>  <i_lp_mmshare_version>  (1) 
72125

>  <i_m_source_file_index>  (1) 
5

>  <i_f3d_flags>  (1) 
0

>  <num_sample>  (1) 
50

>  <b_lp_Chiralities_Consistent>  (1) 
1

>  <r_epik_Charging_Adjusted_Penalty>  (1) 
1.3041598134217376

>  <r_epik_Ionization_Penalty>  (1) 
1.3041598450787459

>  <r_epik_Ionization_Penalty_Charging>  (1) 
0

>  <r_epik_Ionization_Penalty_Neutral>  (1) 
1.3041598450787459

>  <r_epik_State_Penalty>  (1) 
1.3041598134217376

>  <r_glide_ring_energy>  (1) 
0

>  <r_i_docking_score>  (1) 
-5.0764932637378992

>  <r_i_glide_ecoul>  (1) 
0.72993152012017126

>  <r_i_glide_eff_state_penalty>  (1) 
1.3041598134217376

>  <r_i_glide_einternal>  (1) 
13.694540057202882

>  <r_i_glide_emodel>  (1) 
-55.30010152722722

>  <r_i_glide_emodel_strain>  (1) 
0.69184507524484928

>  <r_i_glide_energy>  (1) 
-45.527397895053078

>  <r_i_glide_erotb>  (1) 
0.6172515797735002

>  <r_i_glide_esite>  (1) 
-0.050370105501000434

>  <r_i_glide_evdw>  (1) 
-46.257329415173245

>  <r_i_glide_gscore>  (1) 
-6.3806530771596366

>  <r_i_glide_gscore_strain>  (1) 
0

>  <r_i_glide_hbond>  (1) 
-0.32000000000000001

>  <r_i_glide_ligand_efficiency>  (1) 
-0.13720252064156485

>  <r_i_glide_ligand_efficiency_ln>  (1) 
-1.1009723790174095

>  <r_i_glide_ligand_efficiency_sa>  (1) 
-0.45718923738272738

>  <r_i_glide_lipo>  (1) 
-3.3655179524383958

>  <r_i_glide_metal>  (1) 
-0

>  <r_i_glide_rewards>  (1) 
-1.0586398562531036

>  <r_lp_Energy>  (1) 
61.762789999999995

>  <r_lp_tautomer_probability>  (1) 
0.99980002999550088

>  <s_epik_cmdline>  (1) 
J2VwaWtfcHl0aG9uJywgJy1waHQnLCAnMS4wJywgJy1waCcsICc3LjQnLCAnLXRuJywgJzgnLCAnLW1hJywgJzUwMCcsICctaW1hZScsICc8aW5maWxlLm1hZT4nLCAnLW9tYWUnLCAnPG91dGZpbGUubWFlPic=

>  <s_epik_input>  (1) 
Tz1DKFtOSDJdKVtDQEBIXTFbQ0gyXVtDSDJdW0NIMl1bQ0BASF0oW0NIMl0xKVtDSDJdW0NASF0oW0NIMl1bQ0gzXSlDKD1PKU4oW0NIM10pQyg9TylbQ0BASF0oW0NAQEhdKFtDSDJdW0NIMl0yKVtDSDJdW0NIMl1bQ0gyXVtDSDNdKVtDSDJdYyhjMjMpW2NIXWMoW2NIXWMzRilbQ0gyXVtOSDJd

>  <s_glide_docking_method>  (1) 
confgen

>  <s_i_glide_gridfile>  (1) 
gpcr_5ht2c_6bqh_protein_autoprepared_prepared

>  <s_lp_Force_Field>  (1) 
S-OPLS

>  <s_lp_Variant>  (1) 
DiffSBDD_4-2

>  <s_m_source_file>  (1) 
generated_GPCR_5HT2C_ligand_DiffSBDD_2026-06-23_prepared.sdf

>  <GenAI_Model>  (1) 
DiffSBDD

>  <Protein>  (1) 
GPCR_5HT2C

$$$$
DiffSBDD_7
     RDKit          3D

  0  0  0  0  0  0  0  0  0  0999 V3000
M  V30 BEGIN CTAB
M  V30 COUNTS 60 60 0 0 1
M  V30 BEGIN ATOM
M  V30 1 C 36.010612 33.402408 59.057497 0
M  V30 2 O 40.843595 30.183564 61.311764 0
M  V30 3 C 33.618840 33.990030 58.985471 0
M  V30 4 C 37.138357 25.600062 56.549647 0
M  V30 5 C 34.919327 34.137744 59.780167 0
M  V30 6 C 38.072151 32.653256 56.503706 0 CFG=1
M  V30 7 C 39.030205 30.041653 59.523205 0 CFG=1
M  V30 8 C 39.512661 26.202468 55.807416 0
M  V30 9 C 38.631639 25.681346 56.974003 0
M  V30 10 C 38.887018 33.012473 55.280333 0
M  V30 11 C 39.080772 24.262373 57.290775 0
M  V30 12 C 36.791746 24.497368 55.523952 0
M  V30 13 C 39.584762 29.687988 60.910460 0 CFG=1
M  V30 14 O 37.645137 31.339145 56.271499 0
M  V30 15 C 38.362451 32.466905 59.194072 0 CFG=2
M  V30 16 C 38.537000 28.002641 58.270505 0
M  V30 17 C 38.919533 32.733166 57.777198 0
M  V30 18 O 38.285643 28.587355 57.221241 0
M  V30 19 C 38.868626 26.500148 58.283523 0
M  V30 20 N 38.550491 28.676753 59.510614 0
M  V30 21 C 39.453420 28.206198 60.550853 0
M  V30 22 C 37.877836 31.025461 59.414949 0
M  V30 23 C 37.374582 33.513292 59.720185 0
M  V30 24 H 36.047822 33.828849 58.065073 0
M  V30 25 H 35.705240 32.364405 58.967760 0
M  V30 26 H 40.814128 30.240312 62.256501 0
M  V30 27 H 32.755670 34.137753 59.619808 0
M  V30 28 H 33.577948 34.707531 58.167726 0
M  V30 29 H 33.517040 32.989599 58.568303 0
M  V30 30 H 36.512665 25.461930 57.432084 0
M  V30 31 H 36.845133 26.542785 56.111427 0
M  V30 32 H 34.797070 33.735086 60.786726 0
M  V30 33 H 35.244850 35.176716 59.867414 0
M  V30 34 H 37.245137 33.344316 56.521759 0
M  V30 35 H 39.821582 30.137759 58.780064 0
M  V30 36 H 39.501623 25.524422 54.953234 0
M  V30 37 H 39.182201 27.167829 55.427200 0
M  V30 38 H 40.554675 26.309198 56.114373 0
M  V30 39 H 39.245162 34.036431 55.367764 0
M  V30 40 H 39.739029 32.341751 55.167204 0
M  V30 41 H 38.277097 32.937531 54.379052 0
M  V30 42 H 39.195400 23.737764 56.358164 0
M  V30 43 H 40.045141 24.252809 57.767768 0
M  V30 44 H 38.370751 23.720355 57.915377 0
M  V30 45 H 35.746044 24.537750 55.233713 0
M  V30 46 H 37.382509 24.593809 54.613390 0
M  V30 47 H 36.945018 23.495832 55.925097 0
M  V30 48 H 38.860194 29.949982 61.686255 0
M  V30 49 H 36.713345 31.337710 56.543024 0
M  V30 50 H 39.226101 32.582456 59.851417 0
M  V30 51 H 39.645137 31.969749 57.579673 0
M  V30 52 H 39.426535 33.692070 57.808837 0
M  V30 53 H 39.922350 26.407972 58.548018 0
M  V30 54 H 38.311635 26.035758 59.091042 0
M  V30 55 H 38.963669 27.737747 61.394693 0
M  V30 56 H 40.398677 27.756693 60.243720 0
M  V30 57 H 37.287670 30.982617 60.329860 0
M  V30 58 H 37.186461 30.725854 58.630811 0
M  V30 59 H 37.259367 33.369453 60.796660 0
M  V30 60 H 37.773805 34.520029 59.591375 0
M  V30 END ATOM
M  V30 BEGIN BOND
M  V30 1 1 5 1
M  V30 2 1 5 3
M  V30 3 1 9 4
M  V30 4 1 9 8
M  V30 5 1 10 6
M  V30 6 1 11 9
M  V30 7 1 12 4
M  V30 8 1 13 2
M  V30 9 1 13 7
M  V30 10 1 14 6
M  V30 11 1 17 6
M  V30 12 1 17 15
M  V30 13 2 18 16
M  V30 14 1 19 9
M  V30 15 1 19 16
M  V30 16 1 20 7
M  V30 17 1 20 16
M  V30 18 1 21 13
M  V30 19 1 21 20
M  V30 20 1 22 7
M  V30 21 1 22 15
M  V30 22 1 23 1
M  V30 23 1 23 15
M  V30 24 1 24 1
M  V30 25 1 25 1
M  V30 26 1 26 2
M  V30 27 1 27 3
M  V30 28 1 28 3
M  V30 29 1 29 3
M  V30 30 1 30 4
M  V30 31 1 31 4
M  V30 32 1 32 5
M  V30 33 1 33 5
M  V30 34 1 6 34 CFG=1
M  V30 35 1 7 35 CFG=3
M  V30 36 1 36 8
M  V30 37 1 37 8
M  V30 38 1 38 8
M  V30 39 1 39 10
M  V30 40 1 40 10
M  V30 41 1 41 10
M  V30 42 1 42 11
M  V30 43 1 43 11
M  V30 44 1 44 11
M  V30 45 1 45 12
M  V30 46 1 46 12
M  V30 47 1 47 12
M  V30 48 1 13 48 CFG=1
M  V30 49 1 49 14
M  V30 50 1 15 50 CFG=1
M  V30 51 1 51 17
M  V30 52 1 52 17
M  V30 53 1 53 19
M  V30 54 1 54 19
M  V30 55 1 55 21
M  V30 56 1 56 21
M  V30 57 1 57 22
M  V30 58 1 58 22
M  V30 59 1 59 23
M  V30 60 1 60 23
M  V30 END BOND
M  V30 END CTAB
M  END
>  <i_epik_Tot_Q>  (1) 
0

>  <i_epik_Tot_abs_Q>  (1) 
0

>  <i_i_glide_confnum>  (1) 
1747

>  <i_i_glide_lignum>  (1) 
16

>  <i_i_glide_posenum>  (1) 
336

>  <i_i_glide_rotatable_bonds>  (1) 
13

>  <i_lp_mmshare_version>  (1) 
72125

>  <i_m_source_file_index>  (1) 
8

>  <i_f3d_flags>  (1) 
0

>  <num_sample>  (1) 
50

>  <b_lp_Chiralities_Consistent>  (1) 
1

>  <r_epik_Charging_Adjusted_Penalty>  (1) 
0

>  <r_epik_Ionization_Penalty>  (1) 
3.8827151533857073e-07

>  <r_epik_Ionization_Penalty_Charging>  (1) 
0

>  <r_epik_Ionization_Penalty_Neutral>  (1) 
3.8827151533857073e-07

>  <r_epik_State_Penalty>  (1) 
-0

>  <r_glide_ring_energy>  (1) 
0

>  <r_i_docking_score>  (1) 
-5.0707587296511658

>  <r_i_glide_ecoul>  (1) 
-9.0204910867513792

>  <r_i_glide_eff_state_penalty>  (1) 
-0

>  <r_i_glide_einternal>  (1) 
8.1705970813665516

>  <r_i_glide_emodel>  (1) 
-29.484482628409715

>  <r_i_glide_emodel_strain>  (1) 
1.8559476530357912

>  <r_i_glide_energy>  (1) 
-29.598049812559232

>  <r_i_glide_erotb>  (1) 
1.5748308368966815

>  <r_i_glide_esite>  (1) 
0

>  <r_i_glide_evdw>  (1) 
-20.577558725807855

>  <r_i_glide_gscore>  (1) 
-5.0707587296511658

>  <r_i_glide_gscore_strain>  (1) 
0

>  <r_i_glide_hbond>  (1) 
-0.44373763917486458

>  <r_i_glide_ligand_efficiency>  (1) 
-0.2204677708543985

>  <r_i_glide_ligand_efficiency_ln>  (1) 
-1.2261554399277244

>  <r_i_glide_ligand_efficiency_sa>  (1) 
-0.62698101365430536

>  <r_i_glide_lipo>  (1) 
-2.5159516754530986

>  <r_i_glide_metal>  (1) 
-0

>  <r_i_glide_rewards>  (1) 
-1.3039486526167849

>  <r_lp_Energy>  (1) 
6.666982

>  <r_lp_tautomer_probability>  (1) 
1

>  <s_epik_cmdline>  (1) 
J2VwaWtfcHl0aG9uJywgJy1waHQnLCAnMS4wJywgJy1waCcsICc3LjQnLCAnLXRuJywgJzgnLCAnLW1hJywgJzUwMCcsICctaW1hZScsICc8aW5maWxlLm1hZT4nLCAnLW9tYWUnLCAnPG91dGZpbGUubWFlPic=

>  <s_epik_input>  (1) 
W0NIM11bQ0gyXVtDSDJdW0NIMl1bQ0BIXShbQ0gyXVtDQEBIXShbQ0gzXSlbT0hdKVtDSDJdW0NASF0xW0NASF0oW09IXSlbQ0gyXU4xQyg9TylbQ0gyXUMoW0NIM10pKFtDSDNdKVtDSDJdW0NIM10=

>  <s_glide_docking_method>  (1) 
confgen

>  <s_i_glide_gridfile>  (1) 
gpcr_5ht2c_6bqh_protein_autoprepared_prepared

>  <s_lp_Force_Field>  (1) 
S-OPLS

>  <s_lp_Variant>  (1) 
DiffSBDD_7-1

>  <s_m_source_file>  (1) 
generated_GPCR_5HT2C_ligand_DiffSBDD_2026-06-23_prepared.sdf

>  <GenAI_Model>  (1) 
DiffSBDD

>  <Protein>  (1) 
GPCR_5HT2C

$$$$
DiffSBDD_23
     RDKit          3D

  0  0  0  0  0  0  0  0  0  0999 V3000
M  V30 BEGIN CTAB
M  V30 COUNTS 19 19 0 0 1
M  V30 BEGIN ATOM
M  V30 1 C 38.209857 28.937756 53.646618 0
M  V30 2 C 38.803266 27.663810 53.551441 0
M  V30 3 C 37.828125 29.457194 54.900699 0
M  V30 4 S 38.926003 26.419074 57.395096 0 CHG=-1
M  V30 5 C 37.634967 29.270999 57.444384 0
M  V30 6 C 39.206847 27.119196 52.196759 0
M  V30 7 O 37.245143 30.693555 54.967760 0
M  V30 8 C 38.645963 27.403109 55.973950 0
M  V30 9 C 38.046123 28.698499 56.079939 0
M  V30 10 C 39.019490 26.896671 54.712748 0
M  V30 11 H 38.045166 29.518577 52.753965 0
M  V30 12 H 36.856100 28.658924 57.899725 0
M  V30 13 H 38.489825 29.314665 58.119540 0
M  V30 14 H 37.245110 30.285385 57.385666 0
M  V30 15 H 39.752356 26.181159 52.292983 0
M  V30 16 H 38.322917 26.937784 51.584697 0
M  V30 17 H 39.846247 27.831989 51.675819 0
M  V30 18 H 36.778424 30.891390 55.774672 0
M  V30 19 H 39.472890 25.918177 54.634694 0
M  V30 END ATOM
M  V30 BEGIN BOND
M  V30 1 2 2 1
M  V30 2 1 3 1
M  V30 3 1 6 2
M  V30 4 1 7 3
M  V30 5 1 8 4
M  V30 6 2 9 3
M  V30 7 1 9 5
M  V30 8 1 9 8
M  V30 9 1 10 2
M  V30 10 2 10 8
M  V30 11 1 11 1
M  V30 12 1 12 5
M  V30 13 1 13 5
M  V30 14 1 14 5
M  V30 15 1 15 6
M  V30 16 1 16 6
M  V30 17 1 17 6
M  V30 18 1 18 7
M  V30 19 1 19 10
M  V30 END BOND
M  V30 END CTAB
M  END
>  <i_epik_Tot_Q>  (1) 
-1

>  <i_epik_Tot_abs_Q>  (1) 
1

>  <i_i_glide_confnum>  (1) 
1

>  <i_i_glide_lignum>  (1) 
51

>  <i_i_glide_posenum>  (1) 
64

>  <i_i_glide_rotatable_bonds>  (1) 
1

>  <i_lp_mmshare_version>  (1) 
72125

>  <i_m_source_file_index>  (1) 
24

>  <i_f3d_flags>  (1) 
0

>  <num_sample>  (1) 
50

>  <b_lp_Chiralities_Consistent>  (1) 
1

>  <r_epik_Charging_Adjusted_Penalty>  (1) 
0.20721936488096054

>  <r_epik_Ionization_Penalty>  (1) 
0.10365679981868296

>  <r_epik_Ionization_Penalty_Charging>  (1) 
0.10360968244048027

>  <r_epik_Ionization_Penalty_Neutral>  (1) 
4.7117378202688286e-05

>  <r_epik_State_Penalty>  (1) 
0.10360968244048026

>  <r_glide_ring_energy>  (1) 
0

>  <r_i_docking_score>  (1) 
-5.037865749989761

>  <r_i_glide_ecoul>  (1) 
-2.4687010133131908

>  <r_i_glide_eff_state_penalty>  (1) 
0.10360968244048026

>  <r_i_glide_einternal>  (1) 
0.1259183707397602

>  <r_i_glide_emodel>  (1) 
-27.564037718340515

>  <r_i_glide_emodel_strain>  (1) 
0.016320361898879199

>  <r_i_glide_energy>  (1) 
-19.561687790699668

>  <r_i_glide_erotb>  (1) 
0

>  <r_i_glide_esite>  (1) 
0

>  <r_i_glide_evdw>  (1) 
-17.092986777386479

>  <r_i_glide_gscore>  (1) 
-5.1414754324302416

>  <r_i_glide_gscore_strain>  (1) 
0

>  <r_i_glide_hbond>  (1) 
0

>  <r_i_glide_ligand_efficiency>  (1) 
-0.50378657499897606

>  <r_i_glide_ligand_efficiency_ln>  (1) 
-1.5254310208923492

>  <r_i_glide_ligand_efficiency_sa>  (1) 
-1.0853752735501436

>  <r_i_glide_lipo>  (1) 
-1.4298941587092953

>  <r_i_glide_metal>  (1) 
-0

>  <r_i_glide_rewards>  (1) 
-2.4866267828546431

>  <r_lp_Energy>  (1) 
12.729156

>  <s_epik_cmdline>  (1) 
J2VwaWtfcHl0aG9uJywgJy1waHQnLCAnMS4wJywgJy1waCcsICc3LjQnLCAnLXRuJywgJzgnLCAnLW1hJywgJzUwMCcsICctaW1hZScsICc8aW5maWxlLm1hZT4nLCAnLW9tYWUnLCAnPG91dGZpbGUubWFlPic=

>  <s_epik_input>  (1) 
W0NIM11jMVtjSF1jKFtPSF0pYyhbQ0gzXSljKFtTSF0pW2NIXTE=

>  <s_glide_docking_method>  (1) 
confgen

>  <s_i_glide_gridfile>  (1) 
gpcr_5ht2c_6bqh_protein_autoprepared_prepared

>  <s_lp_Force_Field>  (1) 
S-OPLS

>  <s_lp_Variant>  (1) 
DiffSBDD_23-1

>  <s_m_source_file>  (1) 
generated_GPCR_5HT2C_ligand_DiffSBDD_2026-06-23_prepared.sdf

>  <GenAI_Model>  (1) 
DiffSBDD

>  <Protein>  (1) 
GPCR_5HT2C

$$$$
DiffSBDD_30
     RDKit          3D

  0  0  0  0  0  0  0  0  0  0999 V3000
M  V30 BEGIN CTAB
M  V30 COUNTS 75 78 0 0 1
M  V30 BEGIN ATOM
M  V30 1 C 36.891087 36.094418 61.045981 0 CFG=2
M  V30 2 N 36.724276 31.460164 59.644303 0 CFG=2 CHG=1
M  V30 3 C 39.244386 29.439149 52.700220 0
M  V30 4 O 38.225692 36.537542 62.975829 0
M  V30 5 C 36.376765 36.814993 59.782642 0
M  V30 6 C 40.558739 29.828698 60.892498 0 CFG=1
M  V30 7 N 39.097996 29.818962 60.809397 0
M  V30 8 C 36.966777 29.981655 59.510841 0 CFG=1
M  V30 9 O 38.630110 34.661660 60.167955 0
M  V30 10 C 40.867254 29.550679 63.508593 0
M  V30 11 C 36.327599 29.441463 58.217250 0
M  V30 12 C 41.985512 27.318617 58.567256 0
M  V30 13 O 41.514463 28.521531 59.130803 0
M  V30 14 C 38.464181 29.545574 59.510734 0 CFG=2
M  V30 15 C 36.693890 33.481151 61.015442 0 CFG=1
M  V30 16 C 41.021417 30.422101 62.253049 0
M  V30 17 C 37.435184 32.159359 60.744188 0
M  V30 18 C 37.861904 36.975564 61.864924 0
M  V30 19 O 37.002310 29.918444 57.069633 0
M  V30 20 O 38.533721 28.152343 59.287767 0
M  V30 21 C 35.318285 31.877384 59.829537 0
M  V30 22 O 40.845317 28.310786 63.350491 0 CHG=-1
M  V30 23 C 38.406532 29.804993 56.998565 0 CFG=2
M  V30 24 C 39.091311 30.252302 58.292310 0
M  V30 25 C 38.839058 30.654570 55.805755 0 CFG=2
M  V30 26 C 40.045474 29.309761 50.013038 0
M  V30 27 C 38.853829 28.348786 51.906192 0
M  V30 28 C 40.045050 30.463083 52.153288 0
M  V30 29 C 37.518844 34.739775 60.691935 0
M  V30 30 O 38.206418 38.071138 61.366115 0 CHG=-1
M  V30 31 C 38.789875 29.521265 54.127843 0 CFG=2
M  V30 32 C 35.409292 33.361345 60.178786 0
M  V30 33 C 40.444788 30.398050 50.808224 0
M  V30 34 C 39.255981 28.280739 50.567468 0
M  V30 35 O 40.790434 30.149894 64.602294 0
M  V30 36 C 41.172587 28.462492 60.509567 0
M  V30 37 C 37.946756 30.704665 54.567240 0
M  V30 38 O 39.828183 29.902175 55.059998 0
M  V30 39 H 36.045822 35.871448 61.699440 0
M  V30 40 H 37.188800 37.068873 59.099618 0
M  V30 41 H 35.658633 36.210161 59.230346 0
M  V30 42 H 35.864190 37.735388 60.064248 0
M  V30 43 H 40.936275 30.542239 60.168525 0
M  V30 44 H 38.743134 29.174423 61.512073 0
M  V30 45 H 36.445624 29.529993 60.327927 0
M  V30 46 H 35.284057 29.737766 58.167985 0
M  V30 47 H 36.321565 28.354070 58.167860 0
M  V30 48 H 42.288554 27.494841 57.535008 0
M  V30 49 H 42.845296 26.929065 59.108472 0
M  V30 50 H 41.195463 26.569040 58.559050 0
M  V30 51 H 36.434431 33.521408 62.073178 0
M  V30 52 H 42.057261 30.736466 62.198985 0
M  V30 53 H 40.468921 31.343792 62.438038 0
M  V30 54 H 37.376943 31.560111 61.654005 0
M  V30 55 H 38.491801 32.283635 60.510670 0
M  V30 56 H 39.400907 27.956513 58.958242 0
M  V30 57 H 34.677319 31.707318 58.967731 0
M  V30 58 H 34.884413 31.337125 60.672502 0
M  V30 59 H 38.626731 28.751995 56.816664 0
M  V30 60 H 39.017404 31.334310 58.397459 0
M  V30 61 H 40.141188 30.047197 58.159728 0
M  V30 62 H 39.191251 31.653664 56.065029 0
M  V30 63 H 40.348485 29.258629 48.976643 0
M  V30 64 H 38.238912 27.565332 52.324747 0
M  V30 65 H 40.344659 31.300217 52.766418 0
M  V30 66 H 38.335068 28.575221 54.430192 0
M  V30 67 H 35.486571 33.933100 59.253452 0
M  V30 68 H 34.525920 33.712798 60.711537 0
M  V30 69 H 41.054395 31.184180 50.385826 0
M  V30 70 H 38.953270 27.442346 49.959742 0
M  V30 71 H 42.045006 28.267134 61.115392 0
M  V30 72 H 40.492198 27.640012 60.727850 0
M  V30 73 H 36.886895 30.492665 54.710868 0
M  V30 74 H 38.106301 31.608666 53.978300 0
M  V30 75 H 37.014692 31.876808 58.768081 0
M  V30 END ATOM
M  V30 BEGIN BOND
M  V30 1 1 5 1
M  V30 2 1 7 6
M  V30 3 1 8 2
M  V30 4 1 11 8
M  V30 5 1 13 12
M  V30 6 1 14 7
M  V30 7 1 14 8
M  V30 8 1 16 6
M  V30 9 1 16 10
M  V30 10 1 17 2
M  V30 11 1 17 15
M  V30 12 1 18 1
M  V30 13 2 18 4
M  V30 14 1 19 11
M  V30 15 1 14 20 CFG=3
M  V30 16 1 21 2
M  V30 17 1 22 10
M  V30 18 1 23 19
M  V30 19 1 24 14
M  V30 20 1 24 23
M  V30 21 1 25 23
M  V30 22 1 27 3
M  V30 23 2 28 3
M  V30 24 1 29 1
M  V30 25 2 29 9
M  V30 26 1 29 15
M  V30 27 1 30 18
M  V30 28 1 31 3
M  V30 29 1 32 15
M  V30 30 1 32 21
M  V30 31 2 33 26
M  V30 32 1 33 28
M  V30 33 1 34 26
M  V30 34 2 34 27
M  V30 35 2 35 10
M  V30 36 1 36 6
M  V30 37 1 36 13
M  V30 38 1 37 25
M  V30 39 1 37 31
M  V30 40 1 38 25
M  V30 41 1 38 31
M  V30 42 1 1 39 CFG=1
M  V30 43 1 40 5
M  V30 44 1 41 5
M  V30 45 1 42 5
M  V30 46 1 6 43 CFG=3
M  V30 47 1 44 7
M  V30 48 1 8 45 CFG=1
M  V30 49 1 46 11
M  V30 50 1 47 11
M  V30 51 1 48 12
M  V30 52 1 49 12
M  V30 53 1 50 12
M  V30 54 1 15 51 CFG=1
M  V30 55 1 52 16
M  V30 56 1 53 16
M  V30 57 1 54 17
M  V30 58 1 55 17
M  V30 59 1 56 20
M  V30 60 1 57 21
M  V30 61 1 58 21
M  V30 62 1 23 59 CFG=3
M  V30 63 1 60 24
M  V30 64 1 61 24
M  V30 65 1 25 62 CFG=1
M  V30 66 1 63 26
M  V30 67 1 64 27
M  V30 68 1 65 28
M  V30 69 1 31 66 CFG=1
M  V30 70 1 67 32
M  V30 71 1 68 32
M  V30 72 1 69 33
M  V30 73 1 70 34
M  V30 74 1 71 36
M  V30 75 1 72 36
M  V30 76 1 73 37
M  V30 77 1 74 37
M  V30 78 1 2 75 CFG=3
M  V30 END BOND
M  V30 END CTAB
M  END
>  <i_epik_Tot_Q>  (1) 
-1

>  <i_epik_Tot_abs_Q>  (1) 
3

>  <i_i_glide_confnum>  (1) 
804

>  <i_i_glide_lignum>  (1) 
67

>  <i_i_glide_posenum>  (1) 
82

>  <i_i_glide_rotatable_bonds>  (1) 
13

>  <i_lp_mmshare_version>  (1) 
72125

>  <i_m_source_file_index>  (1) 
31

>  <i_f3d_flags>  (1) 
0

>  <num_sample>  (1) 
50

>  <b_lp_Chiralities_Consistent>  (1) 
1

>  <r_epik_Charging_Adjusted_Penalty>  (1) 
0.42059132601078875

>  <r_epik_Ionization_Penalty>  (1) 
0.042345838263638087

>  <r_epik_Ionization_Penalty_Charging>  (1) 
0.028527830839106344

>  <r_epik_Ionization_Penalty_Neutral>  (1) 
0.013818007424531742

>  <r_epik_State_Penalty>  (1) 
0.39206349517168243

>  <r_glide_ring_energy>  (1) 
0

>  <r_i_docking_score>  (1) 
-5.0234760363564552

>  <r_i_glide_ecoul>  (1) 
0.22909921265541611

>  <r_i_glide_eff_state_penalty>  (1) 
0.39206349517168243

>  <r_i_glide_einternal>  (1) 
25.508192055527736

>  <r_i_glide_emodel>  (1) 
-35.739441075902711

>  <r_i_glide_emodel_strain>  (1) 
2.6599998505401672

>  <r_i_glide_energy>  (1) 
-38.053108703751754

>  <r_i_glide_erotb>  (1) 
0.65218633798694536

>  <r_i_glide_esite>  (1) 
-0.11238298276277324

>  <r_i_glide_evdw>  (1) 
-38.282207916407167

>  <r_i_glide_gscore>  (1) 
-5.4155395315281378

>  <r_i_glide_gscore_strain>  (1) 
0

>  <r_i_glide_hbond>  (1) 
0

>  <r_i_glide_ligand_efficiency>  (1) 
-0.13219673779885407

>  <r_i_glide_ligand_efficiency_ln>  (1) 
-1.0832092091315102

>  <r_i_glide_ligand_efficiency_sa>  (1) 
-0.44444218133879843

>  <r_i_glide_lipo>  (1) 
-2.4923014637023835

>  <r_i_glide_metal>  (1) 
-0

>  <r_i_glide_rewards>  (1) 
-1.5832959091278798

>  <r_lp_Energy>  (1) 
35.46461

>  <r_lp_tautomer_probability>  (1) 
0.99999996000000102

>  <s_epik_cmdline>  (1) 
J2VwaWtfcHl0aG9uJywgJy1waHQnLCAnMS4wJywgJy1waCcsICc3LjQnLCAnLXRuJywgJzgnLCAnLW1hJywgJzUwMCcsICctaW1hZScsICc8aW5maWxlLm1hZT4nLCAnLW9tYWUnLCAnPG91dGZpbGUubWFlPic=

>  <s_epik_input>  (1) 
Tz1DKFtPSF0pW0NAQEhdKFtDSDNdKUMoPU8pW0NAQEhdKFtDSDJdW0NIMl0xKVtDSDJdTjFbQ0BIXShbQ0BdMihbT0hdKVtOSF1bQ0BASF0oW0NIMl1DKD1PKVtPSF0pW0NIMl1PW0NIM10pW0NIMl1PW0NASF0oW0NIMl0yKVtDQEBIXTNbQ0gyXVtDSF0oTzMpYzRbY0hdW2NIXVtjSF1bY0hdW2NIXTQ=

>  <s_glide_docking_method>  (1) 
confgen

>  <s_i_glide_gridfile>  (1) 
gpcr_5ht2c_6bqh_protein_autoprepared_prepared

>  <s_lp_Force_Field>  (1) 
S-OPLS

>  <s_lp_Variant>  (1) 
DiffSBDD_30-2

>  <s_m_source_file>  (1) 
generated_GPCR_5HT2C_ligand_DiffSBDD_2026-06-23_prepared.sdf

>  <GenAI_Model>  (1) 
DiffSBDD

>  <Protein>  (1) 
GPCR_5HT2C

$$$$
DiffSBDD_48
     RDKit          3D

  0  0  0  0  0  0  0  0  0  0999 V3000
M  V30 BEGIN CTAB
M  V30 COUNTS 78 78 0 0 1
M  V30 BEGIN ATOM
M  V30 1 O 41.113559 25.472663 65.767709 0
M  V30 2 C 41.806259 33.158926 64.055362 0
M  V30 3 C 41.972253 32.341197 65.345261 0
M  V30 4 O 38.916677 28.605491 52.448642 0
M  V30 5 C 39.219497 33.378537 60.614964 0
M  V30 6 C 42.330784 25.209947 65.644490 0
M  V30 7 C 39.639293 30.155197 54.771951 0
M  V30 8 C 43.276433 25.776049 66.703245 0
M  V30 9 C 39.089945 32.230240 61.637868 0
M  V30 10 C 41.300364 30.958448 65.321531 0
M  V30 11 N 40.299719 32.018001 62.438780 0
M  V30 12 C 45.020793 27.524845 67.306267 0
M  V30 13 C 37.917426 33.626749 59.832482 0
M  V30 14 C 39.700315 29.727949 52.286938 0
M  V30 15 C 38.667742 27.756059 51.342176 0
M  V30 16 C 44.060627 27.022188 66.203907 0 CFG=2
M  V30 17 C 43.115557 28.168307 65.765032 0
M  V30 18 C 40.109431 30.030574 50.848080 0
M  V30 19 O 38.445197 32.250646 54.695896 0
M  V30 20 C 41.369066 30.262669 63.941722 0 CFG=2
M  V30 21 C 42.684186 28.145661 64.280623 0
M  V30 22 O 42.845138 24.537789 64.726223 0 CHG=-1
M  V30 23 C 37.522376 32.499155 58.867544 0
M  V30 24 O 46.014918 26.571491 67.623209 0
M  V30 25 C 38.764979 31.267886 55.363248 0
M  V30 26 C 38.393131 32.444533 57.596851 0
M  V30 27 C 40.170605 30.694804 63.064093 0
M  V30 28 C 40.399328 33.076280 63.451137 0
M  V30 29 C 40.051807 30.466077 53.347346 0
M  V30 30 N 41.364465 28.784692 64.064459 0 CHG=1
M  V30 31 C 38.296549 31.106383 56.823925 0 CFG=2
M  V30 32 C 38.979782 29.942593 57.577015 0
M  V30 33 H 42.543084 32.865308 63.307436 0
M  V30 34 H 42.034174 34.200320 64.286715 0
M  V30 35 H 43.038604 32.224414 65.541951 0
M  V30 36 H 41.575848 32.905882 66.190250 0
M  V30 37 H 39.470963 34.315724 61.105957 0
M  V30 38 H 40.045097 33.176245 59.935373 0
M  V30 39 H 40.541121 30.031907 55.367825 0
M  V30 40 H 39.089882 29.214909 54.801926 0
M  V30 41 H 43.967739 24.983497 66.989853 0
M  V30 42 H 42.702097 26.018817 67.598287 0
M  V30 43 H 38.877952 31.318333 61.079737 0
M  V30 44 H 38.232202 32.397223 62.291862 0
M  V30 45 H 40.257759 31.054387 65.628409 0
M  V30 46 H 41.753092 30.367800 66.111692 0
M  V30 47 H 44.464561 27.766056 68.212911 0
M  V30 48 H 45.530057 28.436890 66.991610 0
M  V30 49 H 37.106052 33.787470 60.543225 0
M  V30 50 H 38.001749 34.554896 59.269849 0
M  V30 51 H 38.045032 26.937789 51.687191 0
M  V30 52 H 38.108834 28.270370 50.567815 0
M  V30 53 H 39.579854 27.325502 50.927436 0
M  V30 54 H 44.670409 26.740965 65.345722 0
M  V30 55 H 42.239060 28.148778 66.414928 0
M  V30 56 H 43.598553 29.128583 65.946598 0
M  V30 57 H 40.695358 30.949788 50.813289 0
M  V30 58 H 40.738844 29.242665 50.437881 0
M  V30 59 H 39.245334 30.182277 50.201755 0
M  V30 60 H 42.293085 30.529424 63.426500 0
M  V30 61 H 43.450730 28.596337 63.648545 0
M  V30 62 H 42.590363 27.129838 63.907146 0
M  V30 63 H 37.515570 31.547073 59.391958 0
M  V30 64 H 36.487360 32.660337 58.567843 0
M  V30 65 H 46.624300 26.515550 66.902515 0
M  V30 66 H 38.088207 33.280655 56.965271 0
M  V30 67 H 39.435777 32.637301 57.834373 0
M  V30 68 H 40.077813 29.971960 62.251638 0
M  V30 69 H 39.241112 30.623926 63.631716 0
M  V30 70 H 40.201383 34.048462 63.006981 0
M  V30 71 H 39.645130 32.937777 64.222482 0
M  V30 72 H 40.665700 31.337785 53.204844 0
M  V30 73 H 41.024693 28.418845 63.186840 0
M  V30 74 H 37.245177 30.851783 56.740013 0
M  V30 75 H 38.854812 28.992893 57.056861 0
M  V30 76 H 40.045160 30.119978 57.707914 0
M  V30 77 H 38.549139 29.797124 58.566496 0
M  V30 78 H 40.712466 28.486670 64.779107 0
M  V30 END ATOM
M  V30 BEGIN BOND
M  V30 1 1 3 2
M  V30 2 2 6 1
M  V30 3 1 8 6
M  V30 4 1 9 5
M  V30 5 1 10 3
M  V30 6 1 11 9
M  V30 7 1 13 5
M  V30 8 1 14 4
M  V30 9 1 15 4
M  V30 10 1 16 8
M  V30 11 1 16 12
M  V30 12 1 17 16
M  V30 13 1 18 14
M  V30 14 1 20 10
M  V30 15 1 21 17
M  V30 16 1 22 6
M  V30 17 1 23 13
M  V30 18 1 24 12
M  V30 19 1 25 7
M  V30 20 2 25 19
M  V30 21 1 26 23
M  V30 22 1 27 11
M  V30 23 1 27 20
M  V30 24 1 28 2
M  V30 25 1 28 11
M  V30 26 1 29 7
M  V30 27 2 29 14
M  V30 28 1 30 20
M  V30 29 1 30 21
M  V30 30 1 31 25
M  V30 31 1 31 26
M  V30 32 1 32 31
M  V30 33 1 33 2
M  V30 34 1 34 2
M  V30 35 1 35 3
M  V30 36 1 36 3
M  V30 37 1 37 5
M  V30 38 1 38 5
M  V30 39 1 39 7
M  V30 40 1 40 7
M  V30 41 1 41 8
M  V30 42 1 42 8
M  V30 43 1 43 9
M  V30 44 1 44 9
M  V30 45 1 45 10
M  V30 46 1 46 10
M  V30 47 1 47 12
M  V30 48 1 48 12
M  V30 49 1 49 13
M  V30 50 1 50 13
M  V30 51 1 51 15
M  V30 52 1 52 15
M  V30 53 1 53 15
M  V30 54 1 16 54 CFG=3
M  V30 55 1 55 17
M  V30 56 1 56 17
M  V30 57 1 57 18
M  V30 58 1 58 18
M  V30 59 1 59 18
M  V30 60 1 20 60 CFG=3
M  V30 61 1 61 21
M  V30 62 1 62 21
M  V30 63 1 63 23
M  V30 64 1 64 23
M  V30 65 1 65 24
M  V30 66 1 66 26
M  V30 67 1 67 26
M  V30 68 1 68 27
M  V30 69 1 69 27
M  V30 70 1 70 28
M  V30 71 1 71 28
M  V30 72 1 72 29
M  V30 73 1 73 30
M  V30 74 1 31 74 CFG=3
M  V30 75 1 75 32
M  V30 76 1 76 32
M  V30 77 1 77 32
M  V30 78 1 78 30
M  V30 END BOND
M  V30 END CTAB
M  END
>  <i_epik_Tot_Q>  (1) 
0

>  <i_epik_Tot_abs_Q>  (1) 
2

>  <i_i_glide_confnum>  (1) 
4681

>  <i_i_glide_lignum>  (1) 
101

>  <i_i_glide_posenum>  (1) 
374

>  <i_i_glide_rotatable_bonds>  (1) 
18

>  <i_lp_mmshare_version>  (1) 
72125

>  <i_m_source_file_index>  (1) 
49

>  <i_f3d_flags>  (1) 
0

>  <num_sample>  (1) 
50

>  <b_lp_Chiralities_Consistent>  (1) 
1

>  <r_epik_Charging_Adjusted_Penalty>  (1) 
0.04911624183534407

>  <r_epik_Ionization_Penalty>  (1) 
0.025385742012929795

>  <r_epik_Ionization_Penalty_Charging>  (1) 
0.0065475108590220404

>  <r_epik_Ionization_Penalty_Neutral>  (1) 
0.018838231153907755

>  <r_epik_State_Penalty>  (1) 
0.042568730976322029

>  <r_glide_ring_energy>  (1) 
0

>  <r_i_docking_score>  (1) 
-5.0064205991445778

>  <r_i_glide_ecoul>  (1) 
-4.8225039328721824

>  <r_i_glide_eff_state_penalty>  (1) 
0.042568730976322029

>  <r_i_glide_einternal>  (1) 
16.310815950773161

>  <r_i_glide_emodel>  (1) 
-50.210397092657239

>  <r_i_glide_emodel_strain>  (1) 
1.8442574540201306

>  <r_i_glide_energy>  (1) 
-45.180574167677129

>  <r_i_glide_erotb>  (1) 
1.5544609794247006

>  <r_i_glide_esite>  (1) 
0

>  <r_i_glide_evdw>  (1) 
-40.358070234804948

>  <r_i_glide_gscore>  (1) 
-5.0489893301209001

>  <r_i_glide_gscore_strain>  (1) 
0

>  <r_i_glide_hbond>  (1) 
0

>  <r_i_glide_ligand_efficiency>  (1) 
-0.15645064372326806

>  <r_i_glide_ligand_efficiency_ln>  (1) 
-1.1210740420197882

>  <r_i_glide_ligand_efficiency_sa>  (1) 
-0.49669983285483549

>  <r_i_glide_lipo>  (1) 
-2.9298634220453135

>  <r_i_glide_metal>  (1) 
-0

>  <r_i_glide_rewards>  (1) 
-0.93230778582921281

>  <r_lp_Energy>  (1) 
26.260809999999999

>  <r_lp_tautomer_probability>  (1) 
0.99990000499974985

>  <s_epik_cmdline>  (1) 
J2VwaWtfcHl0aG9uJywgJy1waHQnLCAnMS4wJywgJy1waCcsICc3LjQnLCAnLXRuJywgJzgnLCAnLW1hJywgJzUwMCcsICctaW1hZScsICc8aW5maWxlLm1hZT4nLCAnLW9tYWUnLCAnPG91dGZpbGUubWFlPic=

>  <s_epik_input>  (1) 
Tz1DKFtPSF0pW0NIMl1bQ0BASF0oW0NIMl1bT0hdKVtDSDJdW0NIMl1bTkhdW0NASF0oW0NIMl1bQ0gyXVtDSDJdW0NIMl0xKVtDSDJdTjFbQ0gyXVtDSDJdW0NIMl1bQ0gyXVtDSDJdW0NASF0oW0NIM10pQyg9TylbQ0gyXS9bQ0hdPUMoW0NIM10pXE9bQ0gzXQ==

>  <s_glide_docking_method>  (1) 
confgen

>  <s_i_glide_gridfile>  (1) 
gpcr_5ht2c_6bqh_protein_autoprepared_prepared

>  <s_lp_Force_Field>  (1) 
S-OPLS

>  <s_lp_Variant>  (1) 
DiffSBDD_48-3

>  <s_m_source_file>  (1) 
generated_GPCR_5HT2C_ligand_DiffSBDD_2026-06-23_prepared.sdf

>  <GenAI_Model>  (1) 
DiffSBDD

>  <Protein>  (1) 
GPCR_5HT2C

$$$$
DiffSBDD_30
     RDKit          3D

  0  0  0  0  0  0  0  0  0  0999 V3000
M  V30 BEGIN CTAB
M  V30 COUNTS 75 78 0 0 1
M  V30 BEGIN ATOM
M  V30 1 C 39.158413 28.119255 53.479998 0 CFG=2
M  V30 2 N 39.520440 29.737812 58.102087 0
M  V30 3 C 41.099437 30.656765 66.196003 0
M  V30 4 O 37.646086 26.403077 54.109001 0
M  V30 5 C 39.491207 28.559652 52.033376 0
M  V30 6 C 37.263370 33.126754 59.860062 0 CFG=1
M  V30 7 N 37.607838 31.853671 59.172295 0 CHG=1
M  V30 8 C 38.602629 29.471287 59.244361 0 CFG=1
M  V30 9 O 39.701456 30.375889 54.191364 0
M  V30 10 C 38.551121 35.156628 60.745029 0
M  V30 11 C 39.200804 28.478877 60.287557 0
M  V30 12 C 33.630775 33.484454 59.455790 0
M  V30 13 O 34.873842 33.024473 59.950052 0
M  V30 14 C 38.158742 30.772131 60.026563 0 CFG=2
M  V30 15 C 38.643853 29.025281 55.912707 0 CFG=1
M  V30 16 C 38.403338 34.108493 59.632660 0
M  V30 17 C 38.812836 30.206123 56.900317 0
M  V30 18 C 37.763917 27.499193 53.518799 0
M  V30 19 O 40.259676 29.062155 61.038005 0
M  V30 20 O 36.986721 30.537764 60.769773 0
M  V30 21 C 40.263709 28.586884 57.582119 0
M  V30 22 O 37.510482 35.512286 61.339549 0 CHG=-1
M  V30 23 C 39.795161 30.099305 61.888921 0 CFG=2
M  V30 24 C 39.273606 31.241878 61.003223 0
M  V30 25 C 40.941730 30.525781 62.811574 0 CFG=2
M  V30 26 C 42.031793 31.380808 68.758248 0
M  V30 27 C 41.179542 29.689071 67.219373 0
M  V30 28 C 41.488630 31.988947 66.456901 0
M  V30 29 C 39.215242 29.284583 54.496892 0
M  V30 30 O 36.845140 28.137774 52.967689 0 CHG=-1
M  V30 31 C 40.592632 30.259960 64.819328 0 CFG=2
M  V30 32 C 39.339428 27.857736 56.626833 0
M  V30 33 C 41.954127 32.349479 67.738231 0
M  V30 34 C 41.645353 30.051123 68.498673 0
M  V30 35 O 39.705431 35.575489 60.974271 0
M  V30 36 C 35.945386 33.708180 59.328021 0
M  V30 37 C 41.496837 29.533630 63.831333 0
M  V30 38 O 40.423456 31.357048 63.884680 0
M  V30 39 H 39.860249 27.340273 53.779907 0
M  V30 40 H 38.835807 29.361260 51.693452 0
M  V30 41 H 40.513466 28.920545 51.936702 0
M  V30 42 H 39.368179 27.730253 51.335051 0
M  V30 43 H 37.123655 32.986472 60.932137 0
M  V30 44 H 38.295969 32.059872 58.462402 0
M  V30 45 H 37.708163 28.990622 58.841893 0
M  V30 46 H 39.529787 27.541021 59.850604 0
M  V30 47 H 38.445136 28.124908 60.967761 0
M  V30 48 H 32.834391 33.337708 60.177366 0
M  V30 49 H 33.641731 34.537750 59.190375 0
M  V30 50 H 33.365314 32.937625 58.567776 0
M  V30 51 H 37.581739 28.808773 55.811852 0
M  V30 52 H 39.366394 33.610641 59.513454 0
M  V30 53 H 38.151808 34.537751 58.673023 0
M  V30 54 H 37.823439 30.604109 57.113291 0
M  V30 55 H 39.383098 31.026806 56.464699 0
M  V30 56 H 36.456226 31.321570 60.777591 0
M  V30 57 H 41.107433 28.937729 56.993946 0
M  V30 58 H 40.725077 27.949852 58.329983 0
M  V30 59 H 38.977765 29.717418 62.503073 0
M  V30 60 H 40.108635 31.646563 60.438813 0
M  V30 61 H 38.939682 32.044234 61.659597 0
M  V30 62 H 41.750389 31.028576 62.281797 0
M  V30 63 H 42.386675 31.657994 69.739265 0
M  V30 64 H 40.882207 28.669117 67.023614 0
M  V30 65 H 41.429246 32.733065 65.676721 0
M  V30 66 H 39.645222 29.737778 64.946483 0
M  V30 67 H 39.894816 27.185915 55.973078 0
M  V30 68 H 38.609178 27.258707 57.171892 0
M  V30 69 H 42.251431 33.369570 67.938188 0
M  V30 70 H 41.705589 29.308319 69.281453 0
M  V30 71 H 35.861760 34.765111 59.587979 0
M  V30 72 H 35.906293 33.663343 58.238557 0
M  V30 73 H 41.234964 28.489544 63.654878 0
M  V30 74 H 42.561457 29.677138 64.026691 0
M  V30 75 H 36.784381 31.510306 58.687446 0
M  V30 END ATOM
M  V30 BEGIN BOND
M  V30 1 1 5 1
M  V30 2 1 7 6
M  V30 3 1 8 2
M  V30 4 1 11 8
M  V30 5 1 13 12
M  V30 6 1 14 7
M  V30 7 1 14 8
M  V30 8 1 16 6
M  V30 9 1 16 10
M  V30 10 1 17 2
M  V30 11 1 17 15
M  V30 12 1 18 1
M  V30 13 2 18 4
M  V30 14 1 19 11
M  V30 15 1 14 20 CFG=1
M  V30 16 1 21 2
M  V30 17 1 22 10
M  V30 18 1 23 19
M  V30 19 1 24 14
M  V30 20 1 24 23
M  V30 21 1 25 23
M  V30 22 1 27 3
M  V30 23 2 28 3
M  V30 24 1 29 1
M  V30 25 2 29 9
M  V30 26 1 29 15
M  V30 27 1 30 18
M  V30 28 1 31 3
M  V30 29 1 32 15
M  V30 30 1 32 21
M  V30 31 2 33 26
M  V30 32 1 33 28
M  V30 33 1 34 26
M  V30 34 2 34 27
M  V30 35 2 35 10
M  V30 36 1 36 6
M  V30 37 1 36 13
M  V30 38 1 37 25
M  V30 39 1 37 31
M  V30 40 1 38 25
M  V30 41 1 38 31
M  V30 42 1 1 39 CFG=1
M  V30 43 1 40 5
M  V30 44 1 41 5
M  V30 45 1 42 5
M  V30 46 1 6 43 CFG=1
M  V30 47 1 44 7
M  V30 48 1 8 45 CFG=3
M  V30 49 1 46 11
M  V30 50 1 47 11
M  V30 51 1 48 12
M  V30 52 1 49 12
M  V30 53 1 50 12
M  V30 54 1 15 51 CFG=3
M  V30 55 1 52 16
M  V30 56 1 53 16
M  V30 57 1 54 17
M  V30 58 1 55 17
M  V30 59 1 56 20
M  V30 60 1 57 21
M  V30 61 1 58 21
M  V30 62 1 23 59 CFG=1
M  V30 63 1 60 24
M  V30 64 1 61 24
M  V30 65 1 25 62 CFG=3
M  V30 66 1 63 26
M  V30 67 1 64 27
M  V30 68 1 65 28
M  V30 69 1 31 66 CFG=1
M  V30 70 1 67 32
M  V30 71 1 68 32
M  V30 72 1 69 33
M  V30 73 1 70 34
M  V30 74 1 71 36
M  V30 75 1 72 36
M  V30 76 1 73 37
M  V30 77 1 74 37
M  V30 78 1 75 7
M  V30 END BOND
M  V30 END CTAB
M  END
>  <i_epik_Tot_Q>  (1) 
-1

>  <i_epik_Tot_abs_Q>  (1) 
3

>  <i_i_glide_confnum>  (1) 
2618

>  <i_i_glide_lignum>  (1) 
68

>  <i_i_glide_posenum>  (1) 
380

>  <i_i_glide_rotatable_bonds>  (1) 
13

>  <i_lp_mmshare_version>  (1) 
72125

>  <i_m_source_file_index>  (1) 
31

>  <i_f3d_flags>  (1) 
0

>  <num_sample>  (1) 
50

>  <b_lp_Chiralities_Consistent>  (1) 
1

>  <r_epik_Charging_Adjusted_Penalty>  (1) 
0.46003484213561824

>  <r_epik_Ionization_Penalty>  (1) 
0.046729076423607623

>  <r_epik_Ionization_Penalty_Charging>  (1) 
0.030134691607895156

>  <r_epik_Ionization_Penalty_Neutral>  (1) 
0.016594384815712467

>  <r_epik_State_Penalty>  (1) 
0.42990015052772307

>  <r_glide_ring_energy>  (1) 
0

>  <r_i_docking_score>  (1) 
-5.0017364315593058

>  <r_i_glide_ecoul>  (1) 
-4.533938991726032

>  <r_i_glide_eff_state_penalty>  (1) 
0.42990015052772307

>  <r_i_glide_einternal>  (1) 
18.452925309813608

>  <r_i_glide_emodel>  (1) 
-47.904376976442741

>  <r_i_glide_emodel_strain>  (1) 
1.2640199300338679

>  <r_i_glide_energy>  (1) 
-41.874575645202981

>  <r_i_glide_erotb>  (1) 
0.65218633798694536

>  <r_i_glide_esite>  (1) 
-0.067111486980770921

>  <r_i_glide_evdw>  (1) 
-37.340636653476949

>  <r_i_glide_gscore>  (1) 
-5.4316365820870285

>  <r_i_glide_gscore_strain>  (1) 
0

>  <r_i_glide_hbond>  (1) 
-0.16394127514180071

>  <r_i_glide_ligand_efficiency>  (1) 
-0.1316246429357712

>  <r_i_glide_ligand_efficiency_ln>  (1) 
-1.0785215108228641

>  <r_i_glide_ligand_efficiency_sa>  (1) 
-0.44251881247875779

>  <r_i_glide_lipo>  (1) 
-2.2169590817458054

>  <r_i_glide_metal>  (1) 
-0

>  <r_i_glide_rewards>  (1) 
-1.0886883947728443

>  <r_lp_Energy>  (1) 
14.056426

>  <s_epik_cmdline>  (1) 
J2VwaWtfcHl0aG9uJywgJy1waHQnLCAnMS4wJywgJy1waCcsICc3LjQnLCAnLXRuJywgJzgnLCAnLW1hJywgJzUwMCcsICctaW1hZScsICc8aW5maWxlLm1hZT4nLCAnLW9tYWUnLCAnPG91dGZpbGUubWFlPic=

>  <s_epik_input>  (1) 
Tz1DKFtPSF0pW0NAQEhdKFtDSDNdKUMoPU8pW0NAQEhdKFtDSDJdW0NIMl0xKVtDSDJdTjFbQ0BIXShbQ0BdMihbT0hdKVtOSF1bQ0BASF0oW0NIMl1DKD1PKVtPSF0pW0NIMl1PW0NIM10pW0NIMl1PW0NASF0oW0NIMl0yKVtDQEBIXTNbQ0gyXVtDSF0oTzMpYzRbY0hdW2NIXVtjSF1bY0hdW2NIXTQ=

>  <s_glide_docking_method>  (1) 
confgen

>  <s_i_glide_gridfile>  (1) 
gpcr_5ht2c_6bqh_protein_autoprepared_prepared

>  <s_lp_Force_Field>  (1) 
S-OPLS

>  <s_lp_Variant>  (1) 
DiffSBDD_30-3

>  <s_m_source_file>  (1) 
generated_GPCR_5HT2C_ligand_DiffSBDD_2026-06-23_prepared.sdf

>  <GenAI_Model>  (1) 
DiffSBDD

>  <Protein>  (1) 
GPCR_5HT2C

$$$$
DiffSBDD_19
     RDKit          3D

  0  0  0  0  0  0  0  0  0  0999 V3000
M  V30 BEGIN CTAB
M  V30 COUNTS 69 71 0 0 1
M  V30 BEGIN ATOM
M  V30 1 O 36.741154 24.321796 55.867034 0
M  V30 2 C 39.645142 30.135889 53.965653 0
M  V30 3 C 36.511167 33.772677 60.965207 0
M  V30 4 C 39.579046 29.703788 51.563306 0
M  V30 5 C 39.438817 28.747718 54.216446 0
M  V30 6 C 39.858794 31.119253 55.101315 0
M  V30 7 C 39.367607 24.668118 57.124710 0
M  V30 8 C 38.403314 29.563237 59.599675 0
M  V30 9 C 36.390852 34.516666 59.648550 0 CFG=2
M  V30 10 N 35.082499 34.370698 58.968079 0
M  V30 11 F 39.245336 31.434348 49.984575 0
M  V30 12 C 39.245047 27.864461 53.123338 0
M  V30 13 F 41.027986 30.217984 49.820001 0
M  V30 14 C 34.157682 33.340858 59.437388 0
M  V30 15 C 37.159554 30.124538 58.890126 0 CFG=2
M  V30 16 C 36.845345 29.960981 56.208089 0
M  V30 17 C 37.676844 26.553239 55.737157 0
M  V30 18 O 38.102067 25.089659 57.613289 0
M  V30 19 O 35.947100 34.113479 61.994768 0
M  V30 20 C 39.711946 30.598749 52.640163 0
M  V30 21 C 37.150097 25.425387 56.647814 0 CFG=2
M  V30 22 C 39.593763 28.173338 55.623642 0
M  V30 23 N 37.782283 32.523357 59.484282 0
M  V30 24 C 39.735746 30.204767 50.145417 0
M  V30 25 C 39.316036 28.343383 51.804743 0
M  V30 26 C 36.974404 29.264765 57.601036 0 CFG=1
M  V30 27 O 32.909896 33.737735 58.967753 0
M  V30 28 C 39.177953 28.812102 58.535099 0
M  V30 29 C 38.077994 28.202197 57.651088 0 CFG=2
M  V30 30 N 37.226833 32.677699 60.741091 0
M  V30 31 N 38.503474 27.583110 56.387468 0
M  V30 32 C 37.543541 33.845615 58.879677 0
M  V30 33 N 37.245366 31.555075 58.567354 0 CHG=1
M  V30 34 H 37.451897 24.088744 55.289736 0
M  V30 35 H 39.250944 32.006137 54.919154 0
M  V30 36 H 39.607477 30.759979 56.093216 0
M  V30 37 H 40.898410 31.434212 55.102568 0
M  V30 38 H 40.046096 24.537034 57.957711 0
M  V30 39 H 39.245479 23.737691 56.589842 0
M  V30 40 H 39.865503 25.363384 56.455238 0
M  V30 41 H 39.013520 30.297820 60.126515 0
M  V30 42 H 38.081908 28.826611 60.328776 0
M  V30 43 H 36.602988 35.577659 59.784391 0
M  V30 44 H 35.147985 34.389245 57.959983 0
M  V30 45 H 39.106341 26.811686 53.294406 0
M  V30 46 H 34.046621 33.280918 60.517969 0
M  V30 47 H 34.417178 32.357809 59.043837 0
M  V30 48 H 36.292814 30.000701 59.539427 0
M  V30 49 H 37.374201 30.903448 56.113674 0
M  V30 50 H 37.150463 29.344111 55.369224 0
M  V30 51 H 35.809757 30.137718 55.943497 0
M  V30 52 H 36.845485 26.977613 55.179486 0
M  V30 53 H 38.283539 26.050599 54.987727 0
M  V30 54 H 39.900691 31.643538 52.445509 0
M  V30 55 H 36.268546 25.751918 57.199514 0
M  V30 56 H 40.225612 28.818329 56.217613 0
M  V30 57 H 40.289054 27.352751 55.447097 0
M  V30 58 H 39.245092 29.532113 49.443197 0
M  V30 59 H 39.207077 27.657449 50.977480 0
M  V30 60 H 36.045269 28.738123 57.768336 0
M  V30 61 H 32.531537 34.338436 59.595977 0
M  V30 62 H 39.793679 29.548971 58.024689 0
M  V30 63 H 39.838980 28.052952 58.957491 0
M  V30 64 H 37.668084 27.403383 58.265144 0
M  V30 65 H 37.459929 32.016224 61.465683 0
M  V30 66 H 37.374715 33.798434 57.799885 0
M  V30 67 H 38.445179 34.430936 59.038464 0
M  V30 68 H 36.327605 31.871113 58.244464 0
M  V30 69 H 37.844802 31.623467 57.758009 0
M  V30 END ATOM
M  V30 BEGIN BOND
M  V30 1 2 5 2
M  V30 2 1 6 2
M  V30 3 1 9 3
M  V30 4 1 10 9
M  V30 5 1 12 5
M  V30 6 1 14 10
M  V30 7 1 15 8
M  V30 8 1 18 7
M  V30 9 2 19 3
M  V30 10 1 20 2
M  V30 11 2 20 4
M  V30 12 1 21 1
M  V30 13 1 21 17
M  V30 14 1 21 18
M  V30 15 1 22 5
M  V30 16 1 24 4
M  V30 17 1 24 11
M  V30 18 1 24 13
M  V30 19 1 25 4
M  V30 20 2 25 12
M  V30 21 1 26 15
M  V30 22 1 26 16
M  V30 23 1 27 14
M  V30 24 1 28 8
M  V30 25 1 29 26
M  V30 26 1 29 28
M  V30 27 1 30 3
M  V30 28 1 30 23
M  V30 29 1 31 17
M  V30 30 1 31 22
M  V30 31 1 31 29
M  V30 32 1 32 9
M  V30 33 1 32 23
M  V30 34 1 33 15
M  V30 35 1 33 23
M  V30 36 1 34 1
M  V30 37 1 35 6
M  V30 38 1 36 6
M  V30 39 1 37 6
M  V30 40 1 38 7
M  V30 41 1 39 7
M  V30 42 1 40 7
M  V30 43 1 41 8
M  V30 44 1 42 8
M  V30 45 1 9 43 CFG=1
M  V30 46 1 44 10
M  V30 47 1 45 12
M  V30 48 1 46 14
M  V30 49 1 47 14
M  V30 50 1 15 48 CFG=1
M  V30 51 1 49 16
M  V30 52 1 50 16
M  V30 53 1 51 16
M  V30 54 1 52 17
M  V30 55 1 53 17
M  V30 56 1 54 20
M  V30 57 1 21 55 CFG=1
M  V30 58 1 56 22
M  V30 59 1 57 22
M  V30 60 1 58 24
M  V30 61 1 59 25
M  V30 62 1 26 60 CFG=1
M  V30 63 1 61 27
M  V30 64 1 62 28
M  V30 65 1 63 28
M  V30 66 1 29 64 CFG=1
M  V30 67 1 65 30
M  V30 68 1 66 32
M  V30 69 1 67 32
M  V30 70 1 68 33
M  V30 71 1 69 33
M  V30 END BOND
M  V30 END CTAB
M  END
>  <i_epik_Tot_Q>  (1) 
1

>  <i_epik_Tot_abs_Q>  (1) 
1

>  <i_i_glide_confnum>  (1) 
2990

>  <i_i_glide_lignum>  (1) 
46

>  <i_i_glide_posenum>  (1) 
75

>  <i_i_glide_rotatable_bonds>  (1) 
13

>  <i_lp_mmshare_version>  (1) 
72125

>  <i_m_source_file_index>  (1) 
20

>  <i_f3d_flags>  (1) 
0

>  <num_sample>  (1) 
50

>  <b_lp_Chiralities_Consistent>  (1) 
1

>  <r_epik_Charging_Adjusted_Penalty>  (1) 
1.2715343408434996

>  <r_epik_Ionization_Penalty>  (1) 
0.95026790690721108

>  <r_epik_Ionization_Penalty_Charging>  (1) 
0.030575006456493324

>  <r_epik_Ionization_Penalty_Neutral>  (1) 
0.91969290045071772

>  <r_epik_State_Penalty>  (1) 
1.2409593343870062

>  <r_glide_ring_energy>  (1) 
1.6719174487954049

>  <r_i_docking_score>  (1) 
-4.9710123065386567

>  <r_i_glide_ecoul>  (1) 
-8.181301894570483

>  <r_i_glide_eff_state_penalty>  (1) 
1.2409593343870062

>  <r_i_glide_einternal>  (1) 
9.7695742720983638

>  <r_i_glide_emodel>  (1) 
-47.571807816160209

>  <r_i_glide_emodel_strain>  (1) 
8.4814187146599949

>  <r_i_glide_energy>  (1) 
-34.13341596287939

>  <r_i_glide_erotb>  (1) 
0.81494899861877068

>  <r_i_glide_esite>  (1) 
-0.10000000000000001

>  <r_i_glide_evdw>  (1) 
-25.952114068308905

>  <r_i_glide_gscore>  (1) 
-6.2119716409256629

>  <r_i_glide_gscore_strain>  (1) 
1.1203546786649987

>  <r_i_glide_hbond>  (1) 
-0.26057426563580205

>  <r_i_glide_ligand_efficiency>  (1) 
-0.15063673656177748

>  <r_i_glide_ligand_efficiency_ln>  (1) 
-1.1055273984499701

>  <r_i_glide_ligand_efficiency_sa>  (1) 
-0.48317250388043875

>  <r_i_glide_lipo>  (1) 
-2.9065582178250509

>  <r_i_glide_metal>  (1) 
-0

>  <r_i_glide_rewards>  (1) 
-2.3553418471475611

>  <r_lp_Energy>  (1) 
47.540732999999996

>  <s_epik_Chemistry_Notes>  (1) 
This compound contains an acetal/aminal-like group ( X-CH(R)-Y where X, Y are N, S, or O) that may be acid/base labile, releasing an aldehyde.

>  <s_epik_cmdline>  (1) 
J2VwaWtfcHl0aG9uJywgJy1waHQnLCAnMS4wJywgJy1waCcsICc3LjQnLCAnLXRuJywgJzgnLCAnLW1hJywgJzUwMCcsICctaW1hZScsICc8aW5maWxlLm1hZT4nLCAnLW9tYWUnLCAnPG91dGZpbGUubWFlPic=

>  <s_epik_input>  (1) 
RltDSF0oRiljKFtjSF0xKVtjSF1bY0hdYyhjMVtDSDNdKVtDSDJdTihbQ0gyXVtDQEBIXShbT0hdKU9bQ0gzXSlbQ0BIXShbQ0BASF0yW0NIM10pW0NIMl1bQ0gyXVtDQEhdMltOSF1OKFtOSF0zKVtDSDJdW0NASF0oQzM9TylbTkhdW0NIMl1bT0hd

>  <s_glide_docking_method>  (1) 
confgen

>  <s_i_glide_gridfile>  (1) 
gpcr_5ht2c_6bqh_protein_autoprepared_prepared

>  <s_lp_Force_Field>  (1) 
S-OPLS

>  <s_lp_Variant>  (1) 
DiffSBDD_19-5

>  <s_m_source_file>  (1) 
generated_GPCR_5HT2C_ligand_DiffSBDD_2026-06-23_prepared.sdf

>  <GenAI_Model>  (1) 
DiffSBDD

>  <Protein>  (1) 
GPCR_5HT2C

$$$$
DiffSBDD_48
     RDKit          3D

  0  0  0  0  0  0  0  0  0  0999 V3000
M  V30 BEGIN CTAB
M  V30 COUNTS 78 78 0 0 1
M  V30 BEGIN ATOM
M  V30 1 O 39.645154 32.750209 63.105129 0
M  V30 2 C 37.962067 26.638402 55.134543 0
M  V30 3 C 39.212154 25.815624 55.506363 0
M  V30 4 O 35.468441 38.537688 63.367755 0
M  V30 5 C 38.325523 31.151974 57.089898 0
M  V30 6 C 39.745517 32.101376 62.045861 0
M  V30 7 C 37.813192 36.231223 61.431758 0
M  V30 8 C 39.260991 30.650739 62.067161 0
M  V30 9 C 38.525694 30.340807 55.793724 0
M  V30 10 C 39.660973 25.931123 56.980864 0
M  V30 11 N 38.506715 28.906461 56.073934 0
M  V30 12 C 41.051460 29.454119 63.421964 0
M  V30 13 C 38.133287 32.647210 56.811843 0
M  V30 14 C 36.353502 38.070733 62.418002 0
M  V30 15 C 34.894267 37.621904 64.293301 0
M  V30 16 C 40.468879 29.684092 62.007627 0 CFG=1
M  V30 17 C 40.159989 28.365722 61.263652 0
M  V30 18 C 36.690106 39.107013 61.367756 0
M  V30 19 O 36.563602 36.206511 59.370153 0
M  V30 20 C 39.375809 27.287469 57.649015 0 CFG=2
M  V30 21 C 39.757273 28.569940 59.787406 0
M  V30 22 O 40.209365 32.527547 60.967731 0 CHG=-1
M  V30 23 C 38.059560 33.516048 58.076177 0
M  V30 24 O 42.378881 28.974397 63.367747 0
M  V30 25 C 37.049727 35.550996 60.291614 0
M  V30 26 C 36.816296 33.330912 58.965665 0
M  V30 27 C 39.742671 28.457158 56.711503 0
M  V30 28 C 38.243510 28.134145 54.857705 0
M  V30 29 C 36.843957 36.806441 62.452761 0
M  V30 30 N 40.045164 27.368856 58.967783 0 CHG=1
M  V30 31 C 36.912454 34.017589 60.350063 0 CFG=2
M  V30 32 C 35.721857 33.607815 61.233707 0
M  V30 33 H 37.180385 26.520251 55.884731 0
M  V30 34 H 37.549164 26.214436 54.218513 0
M  V30 35 H 39.029343 24.763203 55.284836 0
M  V30 36 H 40.032674 26.106374 54.848669 0
M  V30 37 H 37.451973 30.767040 57.617296 0
M  V30 38 H 39.170386 31.036332 57.766188 0
M  V30 39 H 38.468561 35.512712 61.924327 0
M  V30 40 H 38.453627 37.009498 61.020009 0
M  V30 41 H 38.599513 30.536558 61.210483 0
M  V30 42 H 38.649944 30.462466 62.952009 0
M  V30 43 H 39.445848 30.626055 55.281296 0
M  V30 44 H 37.700658 30.585043 55.122371 0
M  V30 45 H 40.731436 25.737772 57.022119 0
M  V30 46 H 39.186417 25.140695 57.563662 0
M  V30 47 H 40.445093 28.752794 63.994091 0
M  V30 48 H 41.068823 30.386892 63.987579 0
M  V30 49 H 38.970466 32.999278 56.208240 0
M  V30 50 H 37.245162 32.804667 56.202117 0
M  V30 51 H 34.204318 38.137758 64.957978 0
M  V30 52 H 34.312137 36.867092 63.767765 0
M  V30 53 H 35.644962 37.146768 64.926788 0
M  V30 54 H 41.245107 30.179622 61.425914 0
M  V30 55 H 41.052402 27.741114 61.299776 0
M  V30 56 H 39.381764 27.812886 61.790606 0
M  V30 57 H 37.245198 38.701325 60.524316 0
M  V30 58 H 35.752192 39.507964 60.992213 0
M  V30 59 H 37.245075 39.950858 61.767763 0
M  V30 60 H 38.308280 27.324168 57.879709 0
M  V30 61 H 38.696843 28.818211 59.720939 0
M  V30 62 H 40.310111 29.415473 59.378849 0
M  V30 63 H 38.969902 33.386832 58.663873 0
M  V30 64 H 38.045131 34.537754 57.720431 0
M  V30 65 H 42.394317 28.137303 62.928803 0
M  V30 66 H 35.937032 33.696937 58.433575 0
M  V30 67 H 36.647785 32.266834 59.125196 0
M  V30 68 H 40.192538 29.268529 57.273582 0
M  V30 69 H 40.502957 28.183965 55.977951 0
M  V30 70 H 37.359600 28.551851 54.373740 0
M  V30 71 H 39.062936 28.249706 54.146754 0
M  V30 72 H 36.544226 36.137731 63.240619 0
M  V30 73 H 41.044527 27.304841 58.832012 0
M  V30 74 H 37.817190 33.655245 60.834722 0
M  V30 75 H 35.707061 34.138900 62.184196 0
M  V30 76 H 34.773867 33.796779 60.729706 0
M  V30 77 H 35.763357 32.542906 61.460590 0
M  V30 78 H 39.744509 26.564645 59.498410 0
M  V30 END ATOM
M  V30 BEGIN BOND
M  V30 1 1 3 2
M  V30 2 2 6 1
M  V30 3 1 8 6
M  V30 4 1 9 5
M  V30 5 1 10 3
M  V30 6 1 11 9
M  V30 7 1 13 5
M  V30 8 1 14 4
M  V30 9 1 15 4
M  V30 10 1 16 8
M  V30 11 1 16 12
M  V30 12 1 17 16
M  V30 13 1 18 14
M  V30 14 1 20 10
M  V30 15 1 21 17
M  V30 16 1 22 6
M  V30 17 1 23 13
M  V30 18 1 24 12
M  V30 19 1 25 7
M  V30 20 2 25 19
M  V30 21 1 26 23
M  V30 22 1 27 11
M  V30 23 1 27 20
M  V30 24 1 28 2
M  V30 25 1 28 11
M  V30 26 1 29 7
M  V30 27 2 29 14
M  V30 28 1 30 20
M  V30 29 1 30 21
M  V30 30 1 31 25
M  V30 31 1 31 26
M  V30 32 1 32 31
M  V30 33 1 33 2
M  V30 34 1 34 2
M  V30 35 1 35 3
M  V30 36 1 36 3
M  V30 37 1 37 5
M  V30 38 1 38 5
M  V30 39 1 39 7
M  V30 40 1 40 7
M  V30 41 1 41 8
M  V30 42 1 42 8
M  V30 43 1 43 9
M  V30 44 1 44 9
M  V30 45 1 45 10
M  V30 46 1 46 10
M  V30 47 1 47 12
M  V30 48 1 48 12
M  V30 49 1 49 13
M  V30 50 1 50 13
M  V30 51 1 51 15
M  V30 52 1 52 15
M  V30 53 1 53 15
M  V30 54 1 16 54 CFG=3
M  V30 55 1 55 17
M  V30 56 1 56 17
M  V30 57 1 57 18
M  V30 58 1 58 18
M  V30 59 1 59 18
M  V30 60 1 20 60 CFG=1
M  V30 61 1 61 21
M  V30 62 1 62 21
M  V30 63 1 63 23
M  V30 64 1 64 23
M  V30 65 1 65 24
M  V30 66 1 66 26
M  V30 67 1 67 26
M  V30 68 1 68 27
M  V30 69 1 69 27
M  V30 70 1 70 28
M  V30 71 1 71 28
M  V30 72 1 72 29
M  V30 73 1 73 30
M  V30 74 1 31 74 CFG=1
M  V30 75 1 75 32
M  V30 76 1 76 32
M  V30 77 1 77 32
M  V30 78 1 78 30
M  V30 END BOND
M  V30 END CTAB
M  END
>  <i_epik_Tot_Q>  (1) 
0

>  <i_epik_Tot_abs_Q>  (1) 
2

>  <i_i_glide_confnum>  (1) 
3788

>  <i_i_glide_lignum>  (1) 
100

>  <i_i_glide_posenum>  (1) 
396

>  <i_i_glide_rotatable_bonds>  (1) 
18

>  <i_lp_mmshare_version>  (1) 
72125

>  <i_m_source_file_index>  (1) 
49

>  <i_f3d_flags>  (1) 
0

>  <num_sample>  (1) 
50

>  <b_lp_Chiralities_Consistent>  (1) 
1

>  <r_epik_Charging_Adjusted_Penalty>  (1) 
0.04911624183534407

>  <r_epik_Ionization_Penalty>  (1) 
0.025385742012929795

>  <r_epik_Ionization_Penalty_Charging>  (1) 
0.0065475108590220404

>  <r_epik_Ionization_Penalty_Neutral>  (1) 
0.018838231153907755

>  <r_epik_State_Penalty>  (1) 
0.042568730976322029

>  <r_glide_ring_energy>  (1) 
0

>  <r_i_docking_score>  (1) 
-4.9634798513282643

>  <r_i_glide_ecoul>  (1) 
-2.4556475016314914

>  <r_i_glide_eff_state_penalty>  (1) 
0.042568730976322029

>  <r_i_glide_einternal>  (1) 
17.277365904489166

>  <r_i_glide_emodel>  (1) 
-49.787570405274934

>  <r_i_glide_emodel_strain>  (1) 
1.0281595523139977

>  <r_i_glide_energy>  (1) 
-43.590897446005371

>  <r_i_glide_erotb>  (1) 
1.5544609794247006

>  <r_i_glide_esite>  (1) 
0

>  <r_i_glide_evdw>  (1) 
-41.135249944373882

>  <r_i_glide_gscore>  (1) 
-5.0060485823045866

>  <r_i_glide_gscore_strain>  (1) 
0

>  <r_i_glide_hbond>  (1) 
0

>  <r_i_glide_ligand_efficiency>  (1) 
-0.15510874535400826

>  <r_i_glide_ligand_efficiency_ln>  (1) 
-1.1114584380631385

>  <r_i_glide_ligand_efficiency_sa>  (1) 
-0.49243957108884062

>  <r_i_glide_lipo>  (1) 
-3.0512629766017278

>  <r_i_glide_metal>  (1) 
-0

>  <r_i_glide_rewards>  (1) 
-1.0841369626641419

>  <r_lp_Energy>  (1) 
22.905211999999999

>  <r_lp_tautomer_probability>  (1) 
0.99990000499974985

>  <s_epik_cmdline>  (1) 
J2VwaWtfcHl0aG9uJywgJy1waHQnLCAnMS4wJywgJy1waCcsICc3LjQnLCAnLXRuJywgJzgnLCAnLW1hJywgJzUwMCcsICctaW1hZScsICc8aW5maWxlLm1hZT4nLCAnLW9tYWUnLCAnPG91dGZpbGUubWFlPic=

>  <s_epik_input>  (1) 
Tz1DKFtPSF0pW0NIMl1bQ0BASF0oW0NIMl1bT0hdKVtDSDJdW0NIMl1bTkhdW0NASF0oW0NIMl1bQ0gyXVtDSDJdW0NIMl0xKVtDSDJdTjFbQ0gyXVtDSDJdW0NIMl1bQ0gyXVtDSDJdW0NASF0oW0NIM10pQyg9TylbQ0gyXVxbQ0hdPUMoW0NIM10pXE9bQ0gzXQ==

>  <s_glide_docking_method>  (1) 
confgen

>  <s_i_glide_gridfile>  (1) 
gpcr_5ht2c_6bqh_protein_autoprepared_prepared

>  <s_lp_Force_Field>  (1) 
S-OPLS

>  <s_lp_Variant>  (1) 
DiffSBDD_48-2

>  <s_m_source_file>  (1) 
generated_GPCR_5HT2C_ligand_DiffSBDD_2026-06-23_prepared.sdf

>  <GenAI_Model>  (1) 
DiffSBDD

>  <Protein>  (1) 
GPCR_5HT2C

$$$$
DiffSBDD_30
     RDKit          3D

  0  0  0  0  0  0  0  0  0  0999 V3000
M  V30 BEGIN CTAB
M  V30 COUNTS 75 78 0 0 1
M  V30 BEGIN ATOM
M  V30 1 C 42.346738 31.034309 63.490192 0 CFG=2
M  V30 2 N 39.225168 29.585116 59.998681 0 CFG=1 CHG=1
M  V30 3 C 38.661066 35.280023 61.845833 0
M  V30 4 O 41.940565 33.355951 63.874956 0
M  V30 5 C 42.764751 30.989455 64.975682 0
M  V30 6 C 38.918390 28.670915 55.793269 0 CFG=1
M  V30 7 N 39.122234 29.173411 57.169385 0
M  V30 8 C 37.917791 29.603366 59.266829 0 CFG=1
M  V30 9 O 40.448431 29.674920 64.096648 0
M  V30 10 C 38.887510 29.264357 53.294620 0
M  V30 11 C 36.843536 30.470377 59.937536 0
M  V30 12 C 39.501594 25.148656 56.677521 0
M  V30 13 O 38.929183 26.434985 56.563286 0
M  V30 14 C 38.080806 30.025147 57.782774 0 CFG=2
M  V30 15 C 40.796575 29.882725 61.714866 0 CFG=1
M  V30 16 C 39.308124 29.700023 54.707668 0
M  V30 17 C 39.402376 30.316854 61.277506 0
M  V30 18 C 42.042059 32.464686 63.004881 0
M  V30 19 O 37.346801 31.780891 59.937228 0
M  V30 20 O 36.845228 29.737775 57.211416 0
M  V30 21 C 39.696401 28.230864 60.324239 0
M  V30 22 O 37.819205 28.621747 53.185566 0 CHG=-1
M  V30 23 C 37.461559 32.394020 58.660582 0 CFG=2
M  V30 24 C 38.296875 31.551336 57.645645 0
M  V30 25 C 38.068618 33.764524 58.889523 0 CFG=2
M  V30 26 C 39.104150 37.218025 63.821691 0
M  V30 27 C 39.927259 35.402775 62.441645 0
M  V30 28 C 37.616150 36.141376 62.221418 0
M  V30 29 C 41.126828 30.151604 63.192520 0
M  V30 30 O 41.932921 32.633727 61.769079 0 CHG=-1
M  V30 31 C 38.415374 34.197724 60.849242 0 CFG=2
M  V30 32 C 40.848232 28.407577 61.308001 0
M  V30 33 C 37.835097 37.105586 63.214465 0
M  V30 34 C 40.149015 36.371719 63.427473 0
M  V30 35 O 39.644463 29.588987 52.354893 0
M  V30 36 C 39.643061 27.315986 55.701105 0
M  V30 37 C 39.360862 33.871943 59.712484 0
M  V30 38 O 37.327229 34.448898 59.928416 0
M  V30 39 H 43.198690 30.658729 62.924161 0
M  V30 40 H 41.951641 31.309159 65.627629 0
M  V30 41 H 43.049459 29.977419 65.261613 0
M  V30 42 H 43.627108 31.628055 65.173630 0
M  V30 43 H 37.874351 28.408008 55.628755 0
M  V30 44 H 39.199285 28.327919 57.725835 0
M  V30 45 H 37.562400 28.575197 59.253771 0
M  V30 46 H 36.657352 30.145344 60.955911 0
M  V30 47 H 35.877108 30.436894 59.434395 0
M  V30 48 H 38.842006 24.504175 57.257051 0
M  V30 49 H 39.657646 24.685607 55.703619 0
M  V30 50 H 40.444523 25.208342 57.211018 0
M  V30 51 H 41.483034 30.428967 61.075449 0
M  V30 52 H 38.812192 30.651393 54.887412 0
M  V30 53 H 40.379101 29.901991 54.733498 0
M  V30 54 H 39.358613 31.392986 61.173235 0
M  V30 55 H 38.656840 30.019765 62.018188 0
M  V30 56 H 36.382246 30.537743 56.969372 0
M  V30 57 H 38.870513 27.739548 60.830060 0
M  V30 58 H 39.980526 27.657721 59.442151 0
M  V30 59 H 36.444667 32.565079 58.355263 0
M  V30 60 H 39.344484 31.772136 57.788021 0
M  V30 61 H 38.102291 31.902809 56.630676 0
M  V30 62 H 38.045120 34.357528 57.975655 0
M  V30 63 H 39.274670 37.956398 64.589798 0
M  V30 64 H 40.724245 34.742306 62.151090 0
M  V30 65 H 36.641458 36.046227 61.765615 0
M  V30 66 H 38.212866 33.316356 61.456190 0
M  V30 67 H 40.747162 27.737775 62.161079 0
M  V30 68 H 41.772255 28.165105 60.792385 0
M  V30 69 H 37.030828 37.758099 63.517927 0
M  V30 70 H 41.120428 36.460183 63.891099 0
M  V30 71 H 39.629529 26.920757 54.684769 0
M  V30 72 H 40.685596 27.407554 56.007956 0
M  V30 73 H 39.901598 32.941504 59.845566 0
M  V30 74 H 40.044485 34.688845 59.500907 0
M  V30 75 H 39.893413 29.982738 59.351365 0
M  V30 END ATOM
M  V30 BEGIN BOND
M  V30 1 1 5 1
M  V30 2 1 7 6
M  V30 3 1 8 2
M  V30 4 1 11 8
M  V30 5 1 13 12
M  V30 6 1 14 7
M  V30 7 1 14 8
M  V30 8 1 16 6
M  V30 9 1 16 10
M  V30 10 1 17 2
M  V30 11 1 17 15
M  V30 12 1 18 1
M  V30 13 2 18 4
M  V30 14 1 19 11
M  V30 15 1 14 20 CFG=3
M  V30 16 1 21 2
M  V30 17 1 22 10
M  V30 18 1 23 19
M  V30 19 1 24 14
M  V30 20 1 24 23
M  V30 21 1 25 23
M  V30 22 1 27 3
M  V30 23 2 28 3
M  V30 24 1 29 1
M  V30 25 2 29 9
M  V30 26 1 29 15
M  V30 27 1 30 18
M  V30 28 1 31 3
M  V30 29 1 32 15
M  V30 30 1 32 21
M  V30 31 2 33 26
M  V30 32 1 33 28
M  V30 33 1 34 26
M  V30 34 2 34 27
M  V30 35 2 35 10
M  V30 36 1 36 6
M  V30 37 1 36 13
M  V30 38 1 37 25
M  V30 39 1 37 31
M  V30 40 1 38 25
M  V30 41 1 38 31
M  V30 42 1 1 39 CFG=3
M  V30 43 1 40 5
M  V30 44 1 41 5
M  V30 45 1 42 5
M  V30 46 1 6 43 CFG=1
M  V30 47 1 44 7
M  V30 48 1 8 45 CFG=3
M  V30 49 1 46 11
M  V30 50 1 47 11
M  V30 51 1 48 12
M  V30 52 1 49 12
M  V30 53 1 50 12
M  V30 54 1 15 51 CFG=3
M  V30 55 1 52 16
M  V30 56 1 53 16
M  V30 57 1 54 17
M  V30 58 1 55 17
M  V30 59 1 56 20
M  V30 60 1 57 21
M  V30 61 1 58 21
M  V30 62 1 23 59 CFG=3
M  V30 63 1 60 24
M  V30 64 1 61 24
M  V30 65 1 25 62 CFG=3
M  V30 66 1 63 26
M  V30 67 1 64 27
M  V30 68 1 65 28
M  V30 69 1 31 66 CFG=1
M  V30 70 1 67 32
M  V30 71 1 68 32
M  V30 72 1 69 33
M  V30 73 1 70 34
M  V30 74 1 71 36
M  V30 75 1 72 36
M  V30 76 1 73 37
M  V30 77 1 74 37
M  V30 78 1 2 75 CFG=3
M  V30 END BOND
M  V30 END CTAB
M  END
>  <i_epik_Tot_Q>  (1) 
-1

>  <i_epik_Tot_abs_Q>  (1) 
3

>  <i_i_glide_confnum>  (1) 
2701

>  <i_i_glide_lignum>  (1) 
66

>  <i_i_glide_posenum>  (1) 
270

>  <i_i_glide_rotatable_bonds>  (1) 
13

>  <i_lp_mmshare_version>  (1) 
72125

>  <i_m_source_file_index>  (1) 
31

>  <i_f3d_flags>  (1) 
0

>  <num_sample>  (1) 
50

>  <b_lp_Chiralities_Consistent>  (1) 
1

>  <r_epik_Charging_Adjusted_Penalty>  (1) 
0.42059132601078875

>  <r_epik_Ionization_Penalty>  (1) 
0.042345838263638087

>  <r_epik_Ionization_Penalty_Charging>  (1) 
0.028527830839106344

>  <r_epik_Ionization_Penalty_Neutral>  (1) 
0.013818007424531742

>  <r_epik_State_Penalty>  (1) 
0.39206349517168243

>  <r_glide_ring_energy>  (1) 
0

>  <r_i_docking_score>  (1) 
-4.9449756712731423

>  <r_i_glide_ecoul>  (1) 
-3.002574289483281

>  <r_i_glide_eff_state_penalty>  (1) 
0.39206349517168243

>  <r_i_glide_einternal>  (1) 
32.180902128013237

>  <r_i_glide_emodel>  (1) 
-17.040787731842624

>  <r_i_glide_emodel_strain>  (1) 
3.4154733857174904

>  <r_i_glide_energy>  (1) 
-32.161800160643921

>  <r_i_glide_erotb>  (1) 
0.65218633798694536

>  <r_i_glide_esite>  (1) 
-0.077423010837684381

>  <r_i_glide_evdw>  (1) 
-29.15922587116064

>  <r_i_glide_gscore>  (1) 
-5.3370391664448249

>  <r_i_glide_gscore_strain>  (1) 
0

>  <r_i_glide_hbond>  (1) 
-0.16

>  <r_i_glide_ligand_efficiency>  (1) 
-0.13013093871771428

>  <r_i_glide_ligand_efficiency_ln>  (1) 
-1.0662822211727689

>  <r_i_glide_ligand_efficiency_sa>  (1) 
-0.4374970156326185

>  <r_i_glide_lipo>  (1) 
-2.9403932694483768

>  <r_i_glide_metal>  (1) 
-0

>  <r_i_glide_rewards>  (1) 
-0.9030617871651847

>  <r_lp_Energy>  (1) 
36.442352

>  <r_lp_tautomer_probability>  (1) 
0.99999996000000102

>  <s_epik_cmdline>  (1) 
J2VwaWtfcHl0aG9uJywgJy1waHQnLCAnMS4wJywgJy1waCcsICc3LjQnLCAnLXRuJywgJzgnLCAnLW1hJywgJzUwMCcsICctaW1hZScsICc8aW5maWxlLm1hZT4nLCAnLW9tYWUnLCAnPG91dGZpbGUubWFlPic=

>  <s_epik_input>  (1) 
Tz1DKFtPSF0pW0NAQEhdKFtDSDNdKUMoPU8pW0NAQEhdKFtDSDJdW0NIMl0xKVtDSDJdTjFbQ0BIXShbQ0BdMihbT0hdKVtOSF1bQ0BASF0oW0NIMl1DKD1PKVtPSF0pW0NIMl1PW0NIM10pW0NIMl1PW0NASF0oW0NIMl0yKVtDQEBIXTNbQ0gyXVtDSF0oTzMpYzRbY0hdW2NIXVtjSF1bY0hdW2NIXTQ=

>  <s_glide_docking_method>  (1) 
confgen

>  <s_i_glide_gridfile>  (1) 
gpcr_5ht2c_6bqh_protein_autoprepared_prepared

>  <s_lp_Force_Field>  (1) 
S-OPLS

>  <s_lp_Variant>  (1) 
DiffSBDD_30-1

>  <s_m_source_file>  (1) 
generated_GPCR_5HT2C_ligand_DiffSBDD_2026-06-23_prepared.sdf

>  <GenAI_Model>  (1) 
DiffSBDD

>  <Protein>  (1) 
GPCR_5HT2C

$$$$
DiffSBDD_30
     RDKit          3D

  0  0  0  0  0  0  0  0  0  0999 V3000
M  V30 BEGIN CTAB
M  V30 COUNTS 75 78 0 0 1
M  V30 BEGIN ATOM
M  V30 1 C 40.652107 29.533242 63.805470 0 CFG=2
M  V30 2 N 39.055122 29.050283 59.122790 0 CFG=1 CHG=1
M  V30 3 C 38.371232 34.951811 61.349305 0
M  V30 4 O 42.668449 30.717582 63.368138 0
M  V30 5 C 40.213667 30.158731 65.150772 0
M  V30 6 C 38.758307 27.579957 55.652256 0 CFG=1
M  V30 7 N 39.274038 28.922770 56.018222 0
M  V30 8 C 37.906035 29.227532 58.151029 0 CFG=1
M  V30 9 O 39.231294 31.177236 62.725815 0
M  V30 10 C 38.273343 28.173325 53.180655 0
M  V30 11 C 36.791618 30.149186 58.701131 0
M  V30 12 C 37.599291 24.896954 56.506053 0
M  V30 13 O 38.388717 25.781077 57.290689 0
M  V30 14 C 38.351961 29.807502 56.760488 0 CFG=2
M  V30 15 C 40.262238 29.613383 61.180751 0 CFG=1
M  V30 16 C 38.985622 27.231848 54.157942 0
M  V30 17 C 39.273033 30.107381 60.131678 0
M  V30 18 C 42.176111 29.616219 63.700413 0
M  V30 19 O 37.293430 31.478078 58.870983 0
M  V30 20 O 37.244650 30.036366 55.915242 0
M  V30 21 C 39.094293 27.829695 59.943790 0
M  V30 22 O 38.995631 28.899117 52.461522 0 CHG=-1
M  V30 23 C 37.951031 32.131293 57.773198 0 CFG=2
M  V30 24 C 38.927972 31.224036 56.955672 0
M  V30 25 C 38.461167 33.489727 58.285273 0 CFG=2
M  V30 26 C 38.532740 36.938208 63.335264 0
M  V30 27 C 37.311922 35.859020 61.519553 0
M  V30 28 C 39.518687 35.044449 62.168482 0
M  V30 29 C 39.972445 30.201537 62.586608 0
M  V30 30 O 42.816470 28.574380 63.954141 0 CHG=-1
M  V30 31 C 38.281659 33.867140 60.299066 0 CFG=2
M  V30 32 C 40.171313 28.097289 61.019769 0
M  V30 33 C 39.599007 36.040670 63.157051 0
M  V30 34 C 37.389907 36.852150 62.514146 0
M  V30 35 O 37.023391 28.137789 53.166110 0
M  V30 36 C 39.377534 26.480664 56.546337 0
M  V30 37 C 39.480133 33.664991 59.414478 0
M  V30 38 O 37.458456 34.137091 59.130424 0
M  V30 39 H 40.391083 28.477006 63.821932 0
M  V30 40 H 40.619345 31.163305 65.279182 0
M  V30 41 H 39.129591 30.235285 65.246040 0
M  V30 42 H 40.567477 29.551749 65.984421 0
M  V30 43 H 37.677121 27.563746 55.790530 0
M  V30 44 H 40.195316 28.866969 56.434654 0
M  V30 45 H 37.459691 28.246451 57.992232 0
M  V30 46 H 36.426181 29.784041 59.662523 0
M  V30 47 H 35.911473 30.137367 58.064873 0
M  V30 48 H 36.930055 24.335707 57.156637 0
M  V30 49 H 36.980225 25.430928 55.783151 0
M  V30 50 H 38.218690 24.179726 55.967803 0
M  V30 51 H 41.245600 29.948829 60.879563 0
M  V30 52 H 40.044906 27.189226 53.929223 0
M  V30 53 H 38.611317 26.228970 53.950829 0
M  V30 54 H 39.644441 30.970629 59.631516 0
M  V30 55 H 38.342827 30.354168 60.638767 0
M  V30 56 H 36.692118 30.742469 56.249377 0
M  V30 57 H 38.129298 27.722177 60.430653 0
M  V30 58 H 39.292158 26.927120 59.370435 0
M  V30 59 H 37.245167 32.415111 57.017295 0
M  V30 60 H 39.915173 31.125150 57.367768 0
M  V30 61 H 39.107893 31.687952 55.983196 0
M  V30 62 H 38.690510 34.131754 57.438942 0
M  V30 63 H 38.591823 37.698122 64.100184 0
M  V30 64 H 36.439712 35.789071 60.891523 0
M  V30 65 H 40.334823 34.347668 62.040406 0
M  V30 66 H 37.971252 32.939926 60.781827 0
M  V30 67 H 39.948975 27.597485 61.954945 0
M  V30 68 H 41.144065 27.737860 60.684176 0
M  V30 69 H 40.476031 36.110450 63.784733 0
M  V30 70 H 36.572603 37.544852 62.649458 0
M  V30 71 H 39.961716 25.767485 55.962073 0
M  V30 72 H 40.086076 26.918946 57.249121 0
M  V30 73 H 40.101565 32.868585 59.769018 0
M  V30 74 H 40.045311 34.581238 59.367813 0
M  V30 75 H 39.887218 29.012072 58.553349 0
M  V30 END ATOM
M  V30 BEGIN BOND
M  V30 1 1 5 1
M  V30 2 1 7 6
M  V30 3 1 8 2
M  V30 4 1 11 8
M  V30 5 1 13 12
M  V30 6 1 14 7
M  V30 7 1 14 8
M  V30 8 1 16 6
M  V30 9 1 16 10
M  V30 10 1 17 2
M  V30 11 1 17 15
M  V30 12 1 18 1
M  V30 13 2 18 4
M  V30 14 1 19 11
M  V30 15 1 14 20 CFG=3
M  V30 16 1 21 2
M  V30 17 1 22 10
M  V30 18 1 23 19
M  V30 19 1 24 14
M  V30 20 1 24 23
M  V30 21 1 25 23
M  V30 22 1 27 3
M  V30 23 2 28 3
M  V30 24 1 29 1
M  V30 25 2 29 9
M  V30 26 1 29 15
M  V30 27 1 30 18
M  V30 28 1 31 3
M  V30 29 1 32 15
M  V30 30 1 32 21
M  V30 31 2 33 26
M  V30 32 1 33 28
M  V30 33 1 34 26
M  V30 34 2 34 27
M  V30 35 2 35 10
M  V30 36 1 36 6
M  V30 37 1 36 13
M  V30 38 1 37 25
M  V30 39 1 37 31
M  V30 40 1 38 25
M  V30 41 1 38 31
M  V30 42 1 1 39 CFG=1
M  V30 43 1 40 5
M  V30 44 1 41 5
M  V30 45 1 42 5
M  V30 46 1 6 43 CFG=3
M  V30 47 1 44 7
M  V30 48 1 8 45 CFG=3
M  V30 49 1 46 11
M  V30 50 1 47 11
M  V30 51 1 48 12
M  V30 52 1 49 12
M  V30 53 1 50 12
M  V30 54 1 15 51 CFG=3
M  V30 55 1 52 16
M  V30 56 1 53 16
M  V30 57 1 54 17
M  V30 58 1 55 17
M  V30 59 1 56 20
M  V30 60 1 57 21
M  V30 61 1 58 21
M  V30 62 1 23 59 CFG=3
M  V30 63 1 60 24
M  V30 64 1 61 24
M  V30 65 1 25 62 CFG=3
M  V30 66 1 63 26
M  V30 67 1 64 27
M  V30 68 1 65 28
M  V30 69 1 31 66 CFG=1
M  V30 70 1 67 32
M  V30 71 1 68 32
M  V30 72 1 69 33
M  V30 73 1 70 34
M  V30 74 1 71 36
M  V30 75 1 72 36
M  V30 76 1 73 37
M  V30 77 1 74 37
M  V30 78 1 2 75 CFG=3
M  V30 END BOND
M  V30 END CTAB
M  END
>  <i_epik_Tot_Q>  (1) 
-1

>  <i_epik_Tot_abs_Q>  (1) 
3

>  <i_i_glide_confnum>  (1) 
550

>  <i_i_glide_lignum>  (1) 
66

>  <i_i_glide_posenum>  (1) 
374

>  <i_i_glide_rotatable_bonds>  (1) 
13

>  <i_lp_mmshare_version>  (1) 
72125

>  <i_m_source_file_index>  (1) 
31

>  <i_f3d_flags>  (1) 
0

>  <num_sample>  (1) 
50

>  <b_lp_Chiralities_Consistent>  (1) 
1

>  <r_epik_Charging_Adjusted_Penalty>  (1) 
0.42059132601078875

>  <r_epik_Ionization_Penalty>  (1) 
0.042345838263638087

>  <r_epik_Ionization_Penalty_Charging>  (1) 
0.028527830839106344

>  <r_epik_Ionization_Penalty_Neutral>  (1) 
0.013818007424531742

>  <r_epik_State_Penalty>  (1) 
0.39206349517168243

>  <r_glide_ring_energy>  (1) 
0

>  <r_i_docking_score>  (1) 
-4.9342846579412596

>  <r_i_glide_ecoul>  (1) 
-3.3781827742081489

>  <r_i_glide_eff_state_penalty>  (1) 
0.39206349517168243

>  <r_i_glide_einternal>  (1) 
33.312070199459562

>  <r_i_glide_emodel>  (1) 
-20.793133476273564

>  <r_i_glide_emodel_strain>  (1) 
5.871461242648607

>  <r_i_glide_energy>  (1) 
-38.944501535568193

>  <r_i_glide_erotb>  (1) 
0.65218633798694536

>  <r_i_glide_esite>  (1) 
-0.058416398516591417

>  <r_i_glide_evdw>  (1) 
-35.566318761360044

>  <r_i_glide_gscore>  (1) 
-5.3263481531129422

>  <r_i_glide_gscore_strain>  (1) 
0.46786531066215176

>  <r_i_glide_hbond>  (1) 
-0.17486310749969933

>  <r_i_glide_ligand_efficiency>  (1) 
-0.1298495962616121

>  <r_i_glide_ligand_efficiency_ln>  (1) 
-1.0639769242006663

>  <r_i_glide_ligand_efficiency_sa>  (1) 
-0.43655114921431454

>  <r_i_glide_lipo>  (1) 
-2.9035777432484378

>  <r_i_glide_metal>  (1) 
-0

>  <r_i_glide_rewards>  (1) 
-1.0244991982980869

>  <r_lp_Energy>  (1) 
36.442352

>  <r_lp_tautomer_probability>  (1) 
0.99999996000000102

>  <s_epik_cmdline>  (1) 
J2VwaWtfcHl0aG9uJywgJy1waHQnLCAnMS4wJywgJy1waCcsICc3LjQnLCAnLXRuJywgJzgnLCAnLW1hJywgJzUwMCcsICctaW1hZScsICc8aW5maWxlLm1hZT4nLCAnLW9tYWUnLCAnPG91dGZpbGUubWFlPic=

>  <s_epik_input>  (1) 
Tz1DKFtPSF0pW0NAQEhdKFtDSDNdKUMoPU8pW0NAQEhdKFtDSDJdW0NIMl0xKVtDSDJdTjFbQ0BIXShbQ0BdMihbT0hdKVtOSF1bQ0BASF0oW0NIMl1DKD1PKVtPSF0pW0NIMl1PW0NIM10pW0NIMl1PW0NASF0oW0NIMl0yKVtDQEBIXTNbQ0gyXVtDSF0oTzMpYzRbY0hdW2NIXVtjSF1bY0hdW2NIXTQ=

>  <s_glide_docking_method>  (1) 
confgen

>  <s_i_glide_gridfile>  (1) 
gpcr_5ht2c_6bqh_protein_autoprepared_prepared

>  <s_lp_Force_Field>  (1) 
S-OPLS

>  <s_lp_Variant>  (1) 
DiffSBDD_30-1

>  <s_m_source_file>  (1) 
generated_GPCR_5HT2C_ligand_DiffSBDD_2026-06-23_prepared.sdf

>  <GenAI_Model>  (1) 
DiffSBDD

>  <Protein>  (1) 
GPCR_5HT2C

$$$$
DiffSBDD_4
     RDKit          3D

  0  0  0  0  0  0  0  0  0  0999 V3000
M  V30 BEGIN CTAB
M  V30 COUNTS 83 85 0 0 1
M  V30 BEGIN ATOM
M  V30 1 C 39.091958 26.163802 57.465333 0
M  V30 2 O 36.717433 34.209930 60.835346 0
M  V30 3 C 39.159971 35.999045 60.671598 0
M  V30 4 C 36.664543 36.813589 62.958402 0
M  V30 5 C 38.621277 28.111825 55.871450 0
M  V30 6 C 39.533459 26.904700 56.181746 0 CFG=2
M  V30 7 O 38.845145 31.306515 59.158610 0
M  V30 8 O 40.418361 26.137810 54.083508 0
M  V30 9 C 38.131226 32.019744 58.466345 0
M  V30 10 C 38.865036 32.205952 62.059707 0
M  V30 11 C 40.730844 34.746876 62.184742 0
M  V30 12 C 39.077397 31.743823 54.624656 0
M  V30 13 C 39.599662 25.954720 54.979665 0
M  V30 14 N 37.424877 33.099137 58.980526 0
M  V30 15 C 37.588570 33.544408 60.265062 0
M  V30 16 C 40.967437 32.580181 63.506640 0
M  V30 17 C 38.960242 33.322856 60.976112 0 CFG=1
M  V30 18 C 42.366903 30.705985 64.200890 0
M  V30 19 C 37.977564 31.672815 56.946786 0 CFG=2
M  V30 20 C 41.560991 29.823062 63.460228 0
M  V30 21 C 39.322532 34.737177 61.558301 0 CFG=2
M  V30 22 C 42.069023 32.077893 64.229381 0
M  V30 23 C 37.464246 30.212864 56.774269 0
M  V30 24 F 42.837514 32.918208 64.967722 0
M  V30 25 C 38.750788 37.261863 61.487187 0
M  V30 26 C 36.444642 33.809709 58.168039 0
M  V30 27 C 37.944277 28.244511 58.287280 0
M  V30 28 C 37.235511 37.465744 61.692912 0
M  V30 29 N 38.737044 24.940027 54.968114 0
M  V30 30 C 38.902215 27.112858 58.642638 0
M  V30 31 C 40.439484 30.311298 62.754148 0
M  V30 32 C 41.887282 28.343730 63.441234 0
M  V30 33 C 39.266489 31.925692 56.141659 0
M  V30 34 C 38.439044 29.049504 57.085230 0 CFG=1
M  V30 35 C 40.676280 34.057644 63.529549 0
M  V30 36 N 40.930467 27.561215 64.195157 0
M  V30 37 C 40.130256 31.691793 62.779319 0
M  V30 38 H 39.829329 25.405042 57.726179 0
M  V30 39 H 38.145232 25.641381 57.326886 0
M  V30 40 H 40.114761 36.137694 60.172876 0
M  V30 41 H 38.437730 35.900431 59.866848 0
M  V30 42 H 35.698289 37.251526 63.211988 0
M  V30 43 H 36.500557 35.745923 62.822682 0
M  V30 44 H 37.326801 36.953216 63.814528 0
M  V30 45 H 37.645393 27.764518 55.525687 0
M  V30 46 H 39.059552 28.668897 55.042894 0
M  V30 47 H 40.546508 27.279486 56.342316 0
M  V30 48 H 38.362593 31.337626 61.637092 0
M  V30 49 H 38.179813 32.540757 62.834628 0
M  V30 50 H 41.493617 34.320841 61.533070 0
M  V30 51 H 41.035295 35.777961 62.364484 0
M  V30 52 H 40.037151 31.737312 54.111155 0
M  V30 53 H 38.600910 30.801825 54.371215 0
M  V30 54 H 38.456363 32.536953 54.208165 0
M  V30 55 H 39.765802 33.114275 60.275052 0
M  V30 56 H 43.215092 30.328733 64.755577 0
M  V30 57 H 37.245379 32.267683 56.428937 0
M  V30 58 H 38.574471 34.929550 62.323097 0
M  V30 59 H 36.579792 30.097095 57.403084 0
M  V30 60 H 37.060678 30.101186 55.768265 0
M  V30 61 H 39.275653 37.299721 62.441412 0
M  V30 62 H 39.079533 38.159589 60.968902 0
M  V30 63 H 35.474983 33.337733 58.167762 0
M  V30 64 H 36.227766 34.801110 58.567219 0
M  V30 65 H 36.843053 34.051459 57.189772 0
M  V30 66 H 37.810860 28.893352 59.151126 0
M  V30 67 H 36.964355 27.832211 58.055525 0
M  V30 68 H 37.056659 38.539586 61.771626 0
M  V30 69 H 36.671869 37.153649 60.813062 0
M  V30 70 H 38.082999 24.826714 55.725735 0
M  V30 71 H 38.746128 24.284131 54.199447 0
M  V30 72 H 39.857969 27.508555 58.995043 0
M  V30 73 H 38.453345 26.539916 59.440193 0
M  V30 74 H 39.807060 29.626572 62.206611 0
M  V30 75 H 41.877856 28.005727 62.405333 0
M  V30 76 H 42.893291 28.161842 63.822921 0
M  V30 77 H 39.643237 32.928186 56.347015 0
M  V30 78 H 40.044820 31.250608 56.468979 0
M  V30 79 H 39.420414 29.431847 57.355049 0
M  V30 80 H 39.645680 34.125548 63.767989 0
M  V30 81 H 41.249886 34.588855 64.289074 0
M  V30 82 H 41.340185 27.255304 65.065504 0
M  V30 83 H 40.120948 28.129507 64.428202 0
M  V30 END ATOM
M  V30 BEGIN BOND
M  V30 1 1 6 1
M  V30 2 1 6 5
M  V30 3 2 9 7
M  V30 4 1 13 6
M  V30 5 2 13 8
M  V30 6 1 14 9
M  V30 7 2 15 2
M  V30 8 1 15 14
M  V30 9 1 17 10
M  V30 10 1 17 15
M  V30 11 1 19 9
M  V30 12 2 20 18
M  V30 13 1 21 3
M  V30 14 1 21 11
M  V30 15 1 21 17
M  V30 16 2 22 16
M  V30 17 1 22 18
M  V30 18 1 23 19
M  V30 19 1 24 22
M  V30 20 1 25 3
M  V30 21 1 26 14
M  V30 22 1 28 4
M  V30 23 1 28 25
M  V30 24 1 29 13
M  V30 25 1 30 1
M  V30 26 1 30 27
M  V30 27 1 31 20
M  V30 28 1 32 20
M  V30 29 1 33 12
M  V30 30 1 33 19
M  V30 31 1 34 5
M  V30 32 1 34 23
M  V30 33 1 34 27
M  V30 34 1 35 11
M  V30 35 1 35 16
M  V30 36 1 36 32
M  V30 37 1 37 10
M  V30 38 1 37 16
M  V30 39 2 37 31
M  V30 40 1 38 1
M  V30 41 1 39 1
M  V30 42 1 40 3
M  V30 43 1 41 3
M  V30 44 1 42 4
M  V30 45 1 43 4
M  V30 46 1 44 4
M  V30 47 1 45 5
M  V30 48 1 46 5
M  V30 49 1 6 47 CFG=1
M  V30 50 1 48 10
M  V30 51 1 49 10
M  V30 52 1 50 11
M  V30 53 1 51 11
M  V30 54 1 52 12
M  V30 55 1 53 12
M  V30 56 1 54 12
M  V30 57 1 17 55 CFG=3
M  V30 58 1 56 18
M  V30 59 1 19 57 CFG=3
M  V30 60 1 21 58 CFG=1
M  V30 61 1 59 23
M  V30 62 1 60 23
M  V30 63 1 61 25
M  V30 64 1 62 25
M  V30 65 1 63 26
M  V30 66 1 64 26
M  V30 67 1 65 26
M  V30 68 1 66 27
M  V30 69 1 67 27
M  V30 70 1 68 28
M  V30 71 1 69 28
M  V30 72 1 70 29
M  V30 73 1 71 29
M  V30 74 1 72 30
M  V30 75 1 73 30
M  V30 76 1 74 31
M  V30 77 1 75 32
M  V30 78 1 76 32
M  V30 79 1 77 33
M  V30 80 1 78 33
M  V30 81 1 34 79 CFG=1
M  V30 82 1 80 35
M  V30 83 1 81 35
M  V30 84 1 82 36
M  V30 85 1 83 36
M  V30 END BOND
M  V30 END CTAB
M  END
>  <i_epik_Tot_Q>  (1) 
0

>  <i_epik_Tot_abs_Q>  (1) 
0

>  <i_i_glide_confnum>  (1) 
1144

>  <i_i_glide_lignum>  (1) 
13

>  <i_i_glide_posenum>  (1) 
170

>  <i_i_glide_rotatable_bonds>  (1) 
12

>  <i_lp_mmshare_version>  (1) 
72125

>  <i_m_source_file_index>  (1) 
5

>  <i_f3d_flags>  (1) 
0

>  <num_sample>  (1) 
50

>  <b_lp_Chiralities_Consistent>  (1) 
1

>  <r_epik_Charging_Adjusted_Penalty>  (1) 
1.3041598134217376

>  <r_epik_Ionization_Penalty>  (1) 
1.3041598450787459

>  <r_epik_Ionization_Penalty_Charging>  (1) 
0

>  <r_epik_Ionization_Penalty_Neutral>  (1) 
1.3041598450787459

>  <r_epik_State_Penalty>  (1) 
1.3041598134217376

>  <r_glide_ring_energy>  (1) 
0

>  <r_i_docking_score>  (1) 
-4.8836496006740475

>  <r_i_glide_ecoul>  (1) 
-5.0160917236724929

>  <r_i_glide_eff_state_penalty>  (1) 
1.3041598134217376

>  <r_i_glide_einternal>  (1) 
24.309766720792499

>  <r_i_glide_emodel>  (1) 
-34.330069219605228

>  <r_i_glide_emodel_strain>  (1) 
6.644581939158769

>  <r_i_glide_energy>  (1) 
-36.340934096215335

>  <r_i_glide_erotb>  (1) 
0.6172515797735002

>  <r_i_glide_esite>  (1) 
-0.14050672079164092

>  <r_i_glide_evdw>  (1) 
-31.32484237254284

>  <r_i_glide_gscore>  (1) 
-6.1878094140957849

>  <r_i_glide_gscore_strain>  (1) 
0.66114548478969226

>  <r_i_glide_hbond>  (1) 
-0.31855122924759161

>  <r_i_glide_ligand_efficiency>  (1) 
-0.13199052974794723

>  <r_i_glide_ligand_efficiency_ln>  (1) 
-1.0591491093957515

>  <r_i_glide_ligand_efficiency_sa>  (1) 
-0.43982172743643505

>  <r_i_glide_lipo>  (1) 
-3.6244562237039295

>  <r_i_glide_metal>  (1) 
-0

>  <r_i_glide_rewards>  (1) 
-1.0640364277377981

>  <r_lp_Energy>  (1) 
61.762789999999995

>  <r_lp_tautomer_probability>  (1) 
0.99980002999550088

>  <s_epik_cmdline>  (1) 
J2VwaWtfcHl0aG9uJywgJy1waHQnLCAnMS4wJywgJy1waCcsICc3LjQnLCAnLXRuJywgJzgnLCAnLW1hJywgJzUwMCcsICctaW1hZScsICc8aW5maWxlLm1hZT4nLCAnLW9tYWUnLCAnPG91dGZpbGUubWFlPic=

>  <s_epik_input>  (1) 
Tz1DKFtOSDJdKVtDQEBIXTFbQ0gyXVtDSDJdW0NIMl1bQ0BASF0oW0NIMl0xKVtDSDJdW0NASF0oW0NIMl1bQ0gzXSlDKD1PKU4oW0NIM10pQyg9TylbQ0BASF0oW0NAQEhdKFtDSDJdW0NIMl0yKVtDSDJdW0NIMl1bQ0gyXVtDSDNdKVtDSDJdYyhjMjMpW2NIXWMoW2NIXWMzRilbQ0gyXVtOSDJd

>  <s_glide_docking_method>  (1) 
confgen

>  <s_i_glide_gridfile>  (1) 
gpcr_5ht2c_6bqh_protein_autoprepared_prepared

>  <s_lp_Force_Field>  (1) 
S-OPLS

>  <s_lp_Variant>  (1) 
DiffSBDD_4-2

>  <s_m_source_file>  (1) 
generated_GPCR_5HT2C_ligand_DiffSBDD_2026-06-23_prepared.sdf

>  <GenAI_Model>  (1) 
DiffSBDD

>  <Protein>  (1) 
GPCR_5HT2C

$$$$
DiffSBDD_30
     RDKit          3D

  0  0  0  0  0  0  0  0  0  0999 V3000
M  V30 BEGIN CTAB
M  V30 COUNTS 75 78 0 0 1
M  V30 BEGIN ATOM
M  V30 1 C 39.502079 30.034532 52.886660 0 CFG=2
M  V30 2 N 39.240315 29.897357 57.781994 0
M  V30 3 C 41.106928 32.934396 64.311639 0
M  V30 4 O 39.575361 27.901484 51.824878 0
M  V30 5 C 39.740820 30.976341 51.681299 0
M  V30 6 C 36.975233 33.046180 60.205219 0 CFG=1
M  V30 7 N 37.622580 31.998538 59.321422 0 CHG=1
M  V30 8 C 38.391705 29.493260 58.920000 0 CFG=1
M  V30 9 O 38.444959 31.838464 54.137880 0
M  V30 10 C 39.158129 34.395757 60.533365 0
M  V30 11 C 39.029391 28.365331 59.793060 0
M  V30 12 C 33.929896 33.641586 59.759529 0
M  V30 13 O 35.044712 33.353777 58.967754 0
M  V30 14 C 37.876620 30.634639 59.887956 0 CFG=2
M  V30 15 C 38.707902 29.796171 55.387841 0 CFG=1
M  V30 16 C 37.895854 33.842937 61.178459 0
M  V30 17 C 38.478376 30.562140 56.710575 0
M  V30 18 C 38.845341 28.710211 52.437854 0
M  V30 19 O 40.073554 28.876926 60.604262 0
M  V30 20 O 36.541295 30.270674 60.167700 0
M  V30 21 C 39.855717 28.741180 57.127572 0
M  V30 22 O 39.611324 35.462462 60.994599 0 CHG=-1
M  V30 23 C 39.526041 29.577546 61.700228 0 CFG=2
M  V30 24 C 38.721522 30.783889 61.178029 0
M  V30 25 C 40.653082 29.920016 62.705114 0 CFG=2
M  V30 26 C 42.157001 35.174416 65.654710 0
M  V30 27 C 41.274337 32.901642 65.711616 0
M  V30 28 C 41.473699 34.085709 63.585956 0
M  V30 29 C 38.840212 30.673873 54.140048 0
M  V30 30 O 37.637896 28.537317 52.717669 0 CHG=-1
M  V30 31 C 40.497702 31.753901 63.589483 0 CFG=2
M  V30 32 C 39.980449 29.016898 55.654772 0
M  V30 33 C 41.997384 35.204308 64.257593 0
M  V30 34 C 41.802494 34.021287 66.382362 0
M  V30 35 O 39.645007 33.737915 59.589789 0
M  V30 36 C 36.219708 34.036058 59.314942 0
M  V30 37 C 40.318730 30.351616 64.137079 0
M  V30 38 O 41.244306 31.229878 62.458662 0
M  V30 39 H 40.488490 29.738320 53.213060 0
M  V30 40 H 39.245140 31.941115 51.788034 0
M  V30 41 H 40.805504 31.178695 51.566221 0
M  V30 42 H 39.400109 30.545858 50.737666 0
M  V30 43 H 36.236576 32.571558 60.849878 0
M  V30 44 H 38.519036 32.404740 59.051797 0
M  V30 45 H 37.516437 29.019156 58.467736 0
M  V30 46 H 39.433198 27.525447 59.235011 0
M  V30 47 H 38.268916 27.883099 60.401811 0
M  V30 48 H 33.245102 32.814467 59.659623 0
M  V30 49 H 34.176077 33.737571 60.816650 0
M  V30 50 H 33.451615 34.535777 59.367617 0
M  V30 51 H 37.882099 29.098820 55.243890 0
M  V30 52 H 37.343230 34.678159 61.612328 0
M  V30 53 H 38.180885 33.258609 62.043329 0
M  V30 54 H 37.407364 30.595149 56.922391 0
M  V30 55 H 38.814934 31.596517 56.629464 0
M  V30 56 H 36.114023 30.017379 59.360454 0
M  V30 57 H 40.813578 28.486928 57.582490 0
M  V30 58 H 39.204123 27.868362 57.196783 0
M  V30 59 H 38.845236 28.896027 62.201091 0
M  V30 60 H 39.447635 31.563112 60.963404 0
M  V30 61 H 38.075211 31.127448 61.982911 0
M  V30 62 H 41.416321 29.141304 62.738524 0
M  V30 63 H 42.556036 36.036353 66.167932 0
M  V30 64 H 40.989778 32.023188 66.271349 0
M  V30 65 H 41.341221 34.114397 62.514079 0
M  V30 66 H 39.530259 32.124107 63.270982 0
M  V30 67 H 40.846338 29.630023 55.431924 0
M  V30 68 H 40.043914 28.092166 55.078903 0
M  V30 69 H 42.274218 36.088223 63.700903 0
M  V30 70 H 41.929443 33.998219 67.456357 0
M  V30 71 H 35.982630 34.976206 59.816284 0
M  V30 72 H 36.795562 34.282809 58.423277 0
M  V30 73 H 39.307523 30.138072 64.480062 0
M  V30 74 H 41.084575 30.055987 64.854673 0
M  V30 75 H 37.048463 31.907010 58.489953 0
M  V30 END ATOM
M  V30 BEGIN BOND
M  V30 1 1 5 1
M  V30 2 1 7 6
M  V30 3 1 8 2
M  V30 4 1 11 8
M  V30 5 1 13 12
M  V30 6 1 14 7
M  V30 7 1 14 8
M  V30 8 1 16 6
M  V30 9 1 16 10
M  V30 10 1 17 2
M  V30 11 1 17 15
M  V30 12 1 18 1
M  V30 13 2 18 4
M  V30 14 1 19 11
M  V30 15 1 14 20 CFG=1
M  V30 16 1 21 2
M  V30 17 1 22 10
M  V30 18 1 23 19
M  V30 19 1 24 14
M  V30 20 1 24 23
M  V30 21 1 25 23
M  V30 22 1 27 3
M  V30 23 2 28 3
M  V30 24 1 29 1
M  V30 25 2 29 9
M  V30 26 1 29 15
M  V30 27 1 30 18
M  V30 28 1 31 3
M  V30 29 1 32 15
M  V30 30 1 32 21
M  V30 31 2 33 26
M  V30 32 1 33 28
M  V30 33 1 34 26
M  V30 34 2 34 27
M  V30 35 2 35 10
M  V30 36 1 36 6
M  V30 37 1 36 13
M  V30 38 1 37 25
M  V30 39 1 37 31
M  V30 40 1 38 25
M  V30 41 1 38 31
M  V30 42 1 1 39 CFG=1
M  V30 43 1 40 5
M  V30 44 1 41 5
M  V30 45 1 42 5
M  V30 46 1 6 43 CFG=1
M  V30 47 1 44 7
M  V30 48 1 8 45 CFG=3
M  V30 49 1 46 11
M  V30 50 1 47 11
M  V30 51 1 48 12
M  V30 52 1 49 12
M  V30 53 1 50 12
M  V30 54 1 15 51 CFG=3
M  V30 55 1 52 16
M  V30 56 1 53 16
M  V30 57 1 54 17
M  V30 58 1 55 17
M  V30 59 1 56 20
M  V30 60 1 57 21
M  V30 61 1 58 21
M  V30 62 1 23 59 CFG=1
M  V30 63 1 60 24
M  V30 64 1 61 24
M  V30 65 1 25 62 CFG=1
M  V30 66 1 63 26
M  V30 67 1 64 27
M  V30 68 1 65 28
M  V30 69 1 31 66 CFG=3
M  V30 70 1 67 32
M  V30 71 1 68 32
M  V30 72 1 69 33
M  V30 73 1 70 34
M  V30 74 1 71 36
M  V30 75 1 72 36
M  V30 76 1 73 37
M  V30 77 1 74 37
M  V30 78 1 75 7
M  V30 END BOND
M  V30 END CTAB
M  END
>  <i_epik_Tot_Q>  (1) 
-1

>  <i_epik_Tot_abs_Q>  (1) 
3

>  <i_i_glide_confnum>  (1) 
747

>  <i_i_glide_lignum>  (1) 
68

>  <i_i_glide_posenum>  (1) 
44

>  <i_i_glide_rotatable_bonds>  (1) 
13

>  <i_lp_mmshare_version>  (1) 
72125

>  <i_m_source_file_index>  (1) 
31

>  <i_f3d_flags>  (1) 
0

>  <num_sample>  (1) 
50

>  <b_lp_Chiralities_Consistent>  (1) 
1

>  <r_epik_Charging_Adjusted_Penalty>  (1) 
0.46003484213561824

>  <r_epik_Ionization_Penalty>  (1) 
0.046729076423607623

>  <r_epik_Ionization_Penalty_Charging>  (1) 
0.030134691607895156

>  <r_epik_Ionization_Penalty_Neutral>  (1) 
0.016594384815712467

>  <r_epik_State_Penalty>  (1) 
0.42990015052772307

>  <r_glide_ring_energy>  (1) 
0

>  <r_i_docking_score>  (1) 
-4.8484621303971691

>  <r_i_glide_ecoul>  (1) 
-5.6667866269213256

>  <r_i_glide_eff_state_penalty>  (1) 
0.42990015052772307

>  <r_i_glide_einternal>  (1) 
12.212826415002347

>  <r_i_glide_emodel>  (1) 
-47.194502389497345

>  <r_i_glide_emodel_strain>  (1) 
7.8300338377634375

>  <r_i_glide_energy>  (1) 
-45.076848212137151

>  <r_i_glide_erotb>  (1) 
0.65218633798694536

>  <r_i_glide_esite>  (1) 
-0.05937345610248617

>  <r_i_glide_evdw>  (1) 
-39.410061585215821

>  <r_i_glide_gscore>  (1) 
-5.2783622809248918

>  <r_i_glide_gscore_strain>  (1) 
0.95750845944085938

>  <r_i_glide_hbond>  (1) 
-0.14390434225109613

>  <r_i_glide_ligand_efficiency>  (1) 
-0.12759110869466234

>  <r_i_glide_ligand_efficiency_ln>  (1) 
-1.0454710626191848

>  <r_i_glide_ligand_efficiency_sa>  (1) 
-0.4289581695576683

>  <r_i_glide_lipo>  (1) 
-2.7353104687289558

>  <r_i_glide_metal>  (1) 
-0

>  <r_i_glide_rewards>  (1) 
-1.1289477379711672

>  <r_lp_Energy>  (1) 
14.056426

>  <s_epik_cmdline>  (1) 
J2VwaWtfcHl0aG9uJywgJy1waHQnLCAnMS4wJywgJy1waCcsICc3LjQnLCAnLXRuJywgJzgnLCAnLW1hJywgJzUwMCcsICctaW1hZScsICc8aW5maWxlLm1hZT4nLCAnLW9tYWUnLCAnPG91dGZpbGUubWFlPic=

>  <s_epik_input>  (1) 
Tz1DKFtPSF0pW0NAQEhdKFtDSDNdKUMoPU8pW0NAQEhdKFtDSDJdW0NIMl0xKVtDSDJdTjFbQ0BIXShbQ0BdMihbT0hdKVtOSF1bQ0BASF0oW0NIMl1DKD1PKVtPSF0pW0NIMl1PW0NIM10pW0NIMl1PW0NASF0oW0NIMl0yKVtDQEBIXTNbQ0gyXVtDSF0oTzMpYzRbY0hdW2NIXVtjSF1bY0hdW2NIXTQ=

>  <s_glide_docking_method>  (1) 
confgen

>  <s_i_glide_gridfile>  (1) 
gpcr_5ht2c_6bqh_protein_autoprepared_prepared

>  <s_lp_Force_Field>  (1) 
S-OPLS

>  <s_lp_Variant>  (1) 
DiffSBDD_30-3

>  <s_m_source_file>  (1) 
generated_GPCR_5HT2C_ligand_DiffSBDD_2026-06-23_prepared.sdf

>  <GenAI_Model>  (1) 
DiffSBDD

>  <Protein>  (1) 
GPCR_5HT2C

$$$$
DiffSBDD_15
     RDKit          3D

  0  0  0  0  0  0  0  0  0  0999 V3000
M  V30 BEGIN CTAB
M  V30 COUNTS 41 43 0 0 1
M  V30 BEGIN ATOM
M  V30 1 C 38.499338 33.337692 55.767449 0
M  V30 2 O 35.966941 30.923647 60.546608 0
M  V30 3 C 35.195628 33.259139 60.388954 0
M  V30 4 O 39.658176 29.712942 58.393086 0
M  V30 5 C 37.686538 29.779821 56.532755 0
M  V30 6 C 38.172484 31.558255 60.370934 0
M  V30 7 N 37.244732 29.512568 59.292377 0
M  V30 8 C 37.948007 31.365744 54.567760 0
M  V30 9 C 35.995022 32.201732 61.158477 0 CFG=2
M  V30 10 C 37.464126 32.659263 61.138609 0 CFG=2
M  V30 11 C 38.695972 32.185286 56.730946 0
M  V30 12 C 36.046044 34.517914 60.524275 0
M  V30 13 C 37.018579 30.911904 59.608250 0 CFG=1
M  V30 14 C 37.480761 34.018694 60.421883 0
M  V30 15 S 38.382810 29.056664 58.080940 0
M  V30 16 O 38.308606 27.593066 57.969216 0
M  V30 17 N 37.645139 32.799806 54.700491 0 CHG=1
M  V30 18 C 38.546463 30.897056 55.901835 0 CFG=1
M  V30 19 H 38.045183 34.209262 56.240021 0
M  V30 20 H 39.463218 33.641515 55.367757 0
M  V30 21 H 35.098549 32.995935 59.335254 0
M  V30 22 H 34.187690 33.382697 60.784814 0
M  V30 23 H 37.600764 28.952800 55.828503 0
M  V30 24 H 36.674492 30.130859 56.734360 0
M  V30 25 H 38.604426 30.843102 61.072678 0
M  V30 26 H 38.974379 31.920515 59.728508 0
M  V30 27 H 36.386953 28.964148 59.260529 0
M  V30 28 H 38.677878 31.236636 53.767500 0
M  V30 29 H 37.047058 30.820493 54.284006 0
M  V30 30 H 35.608922 32.109983 62.167760 0
M  V30 31 H 37.857363 32.753227 62.151987 0
M  V30 32 H 37.909734 32.284948 57.457991 0
M  V30 33 H 39.644903 32.247980 57.260369 0
M  V30 34 H 35.803477 35.280320 59.782874 0
M  V30 35 H 35.895406 34.937748 61.518236 0
M  V30 36 H 36.660540 31.452427 58.743517 0
M  V30 37 H 37.741881 33.904944 59.368816 0
M  V30 38 H 38.195534 34.713193 60.864148 0
M  V30 39 H 36.667129 32.929344 54.999172 0
M  V30 40 H 39.542503 30.496372 55.705769 0
M  V30 41 H 37.772948 33.289504 53.826887 0
M  V30 END ATOM
M  V30 BEGIN BOND
M  V30 1 1 9 2
M  V30 2 1 9 3
M  V30 3 1 10 6
M  V30 4 1 10 9
M  V30 5 1 11 1
M  V30 6 1 12 3
M  V30 7 1 13 2
M  V30 8 1 13 6
M  V30 9 1 13 7
M  V30 10 1 14 10
M  V30 11 1 14 12
M  V30 12 2 15 4
M  V30 13 1 15 5
M  V30 14 1 15 7
M  V30 15 2 16 15
M  V30 16 1 17 1
M  V30 17 1 17 8
M  V30 18 1 18 5
M  V30 19 1 18 8
M  V30 20 1 18 11
M  V30 21 1 19 1
M  V30 22 1 20 1
M  V30 23 1 21 3
M  V30 24 1 22 3
M  V30 25 1 23 5
M  V30 26 1 24 5
M  V30 27 1 25 6
M  V30 28 1 26 6
M  V30 29 1 27 7
M  V30 30 1 28 8
M  V30 31 1 29 8
M  V30 32 1 9 30 CFG=1
M  V30 33 1 10 31 CFG=1
M  V30 34 1 32 11
M  V30 35 1 33 11
M  V30 36 1 34 12
M  V30 37 1 35 12
M  V30 38 1 13 36 CFG=3
M  V30 39 1 37 14
M  V30 40 1 38 14
M  V30 41 1 39 17
M  V30 42 1 18 40 CFG=3
M  V30 43 1 41 17
M  V30 END BOND
M  V30 END CTAB
M  END
>  <i_epik_Tot_Q>  (1) 
1

>  <i_epik_Tot_abs_Q>  (1) 
1

>  <i_i_glide_confnum>  (1) 
13

>  <i_i_glide_lignum>  (1) 
31

>  <i_i_glide_posenum>  (1) 
48

>  <i_i_glide_rotatable_bonds>  (1) 
4

>  <i_lp_mmshare_version>  (1) 
72125

>  <i_m_source_file_index>  (1) 
16

>  <i_f3d_flags>  (1) 
0

>  <num_sample>  (1) 
50

>  <b_lp_Chiralities_Consistent>  (1) 
1

>  <r_epik_Charging_Adjusted_Penalty>  (1) 
0.00041597813202231702

>  <r_epik_Ionization_Penalty>  (1) 
0.00074601898943485131

>  <r_epik_Ionization_Penalty_Charging>  (1) 
0.00041597813202231702

>  <r_epik_Ionization_Penalty_Neutral>  (1) 
0.00033004085741253423

>  <r_epik_State_Penalty>  (1) 
-0

>  <r_glide_ring_energy>  (1) 
0.23854755204691935

>  <r_i_docking_score>  (1) 
-4.8375713057666516

>  <r_i_glide_ecoul>  (1) 
-6.9968937706658121

>  <r_i_glide_eff_state_penalty>  (1) 
-0

>  <r_i_glide_einternal>  (1) 
3.9192880390206439

>  <r_i_glide_emodel>  (1) 
-42.751307340459554

>  <r_i_glide_emodel_strain>  (1) 
0.9021487873609928

>  <r_i_glide_energy>  (1) 
-33.026447649869731

>  <r_i_glide_erotb>  (1) 
0.47397758712995947

>  <r_i_glide_esite>  (1) 
-0.17687850194772001

>  <r_i_glide_evdw>  (1) 
-26.02955387920392

>  <r_i_glide_gscore>  (1) 
-4.8375713057666516

>  <r_i_glide_gscore_strain>  (1) 
0

>  <r_i_glide_hbond>  (1) 
-0.2190114719725782

>  <r_i_glide_ligand_efficiency>  (1) 
-0.26875396143148067

>  <r_i_glide_ligand_efficiency_ln>  (1) 
-1.2434727596271451

>  <r_i_glide_ligand_efficiency_sa>  (1) 
-0.70433463158110265

>  <r_i_glide_lipo>  (1) 
-0.51643909721439751

>  <r_i_glide_metal>  (1) 
-0

>  <r_i_glide_rewards>  (1) 
-2.0482080622018475

>  <r_lp_Energy>  (1) 
10.187014999999999

>  <r_lp_tautomer_probability>  (1) 
1

>  <s_epik_Chemistry_Notes>  (1) 
This compound contains an acetal/aminal-like group ( X-CH(R)-Y where X, Y are N, S, or O) that may be acid/base labile, releasing an aldehyde.

>  <s_epik_cmdline>  (1) 
J2VwaWtfcHl0aG9uJywgJy1waHQnLCAnMS4wJywgJy1waCcsICc3LjQnLCAnLXRuJywgJzgnLCAnLW1hJywgJzUwMCcsICctaW1hZScsICc8aW5maWxlLm1hZT4nLCAnLW9tYWUnLCAnPG91dGZpbGUubWFlPic=

>  <s_epik_input>  (1) 
W0NIMl0xW0NIMl1bTkhdW0NIMl1bQ0BASF0xW0NIMl1TKD1PKSg9TylbTkhdW0NAQEhdKE8yKVtDSDJdW0NASF0oW0NASF0yMylbQ0gyXVtDSDJdW0NIMl0z

>  <s_glide_docking_method>  (1) 
confgen

>  <s_i_glide_gridfile>  (1) 
gpcr_5ht2c_6bqh_protein_autoprepared_prepared

>  <s_lp_Force_Field>  (1) 
S-OPLS

>  <s_lp_Variant>  (1) 
DiffSBDD_15-1

>  <s_m_source_file>  (1) 
generated_GPCR_5HT2C_ligand_DiffSBDD_2026-06-23_prepared.sdf

>  <GenAI_Model>  (1) 
DiffSBDD

>  <Protein>  (1) 
GPCR_5HT2C

$$$$
DiffSBDD_20
     RDKit          3D

  0  0  0  0  0  0  0  0  0  0999 V3000
M  V30 BEGIN CTAB
M  V30 COUNTS 27 26 0 0 1
M  V30 BEGIN ATOM
M  V30 1 C 38.968586 28.989660 51.960008 0 CFG=2
M  V30 2 C 40.037410 30.942964 50.162487 0
M  V30 3 N 37.645136 32.953657 57.578246 0 CHG=1
M  V30 4 C 38.430114 31.958530 55.450164 0
M  V30 5 C 39.005167 29.585182 53.395856 0
M  V30 6 O 39.490005 26.812784 52.826136 0
M  V30 7 C 38.845529 27.469193 52.009723 0
M  V30 8 C 38.739001 32.227238 56.924189 0
M  V30 9 S 40.445137 29.372000 50.967759 0
M  V30 10 C 39.483256 31.039092 53.526732 0
M  V30 11 O 39.599910 31.385194 54.894814 0
M  V30 12 H 38.092494 29.337754 51.418679 0
M  V30 13 H 40.917198 31.322723 49.642259 0
M  V30 14 H 39.245178 30.812464 49.430881 0
M  V30 15 H 39.720148 31.701062 50.875005 0
M  V30 16 H 37.781796 32.980475 58.576771 0
M  V30 17 H 37.590655 33.896016 57.219171 0
M  V30 18 H 38.187214 32.888636 54.932899 0
M  V30 19 H 37.576011 31.287031 55.349366 0
M  V30 20 H 38.008400 29.500755 53.827999 0
M  V30 21 H 39.645151 28.985380 54.042356 0
M  V30 22 H 38.164408 27.026407 51.282992 0
M  V30 23 H 38.910347 31.285660 57.446702 0
M  V30 24 H 39.645167 32.824661 57.014025 0
M  V30 25 H 40.483541 31.140383 53.109846 0
M  V30 26 H 38.845099 31.739280 52.989392 0
M  V30 27 H 36.747599 32.490074 57.367793 0
M  V30 END ATOM
M  V30 BEGIN BOND
M  V30 1 1 5 1
M  V30 2 1 7 1
M  V30 3 2 7 6
M  V30 4 1 8 3
M  V30 5 1 8 4
M  V30 6 1 9 1
M  V30 7 1 9 2
M  V30 8 1 10 5
M  V30 9 1 11 4
M  V30 10 1 11 10
M  V30 11 1 1 12 CFG=3
M  V30 12 1 13 2
M  V30 13 1 14 2
M  V30 14 1 15 2
M  V30 15 1 16 3
M  V30 16 1 17 3
M  V30 17 1 18 4
M  V30 18 1 19 4
M  V30 19 1 20 5
M  V30 20 1 21 5
M  V30 21 1 22 7
M  V30 22 1 23 8
M  V30 23 1 24 8
M  V30 24 1 25 10
M  V30 25 1 26 10
M  V30 26 1 27 3
M  V30 END BOND
M  V30 END CTAB
M  END
>  <i_epik_Tot_Q>  (1) 
1

>  <i_epik_Tot_abs_Q>  (1) 
1

>  <i_i_glide_confnum>  (1) 
39

>  <i_i_glide_lignum>  (1) 
47

>  <i_i_glide_posenum>  (1) 
234

>  <i_i_glide_rotatable_bonds>  (1) 
7

>  <i_lp_mmshare_version>  (1) 
72125

>  <i_m_source_file_index>  (1) 
21

>  <i_f3d_flags>  (1) 
0

>  <num_sample>  (1) 
50

>  <b_lp_Chiralities_Consistent>  (1) 
1

>  <r_epik_Charging_Adjusted_Penalty>  (1) 
0.011277259608130119

>  <r_epik_Ionization_Penalty>  (1) 
0.0057709472056282005

>  <r_epik_Ionization_Penalty_Charging>  (1) 
0.0056386298040651114

>  <r_epik_Ionization_Penalty_Neutral>  (1) 
0.00013231740156308916

>  <r_epik_State_Penalty>  (1) 
0.0056386298040650073

>  <r_glide_ring_energy>  (1) 
0

>  <r_i_docking_score>  (1) 
-4.7904134607850919

>  <r_i_glide_ecoul>  (1) 
-6.6612831672475128

>  <r_i_glide_eff_state_penalty>  (1) 
0.0056386298040650073

>  <r_i_glide_einternal>  (1) 
5.0645348761186808

>  <r_i_glide_emodel>  (1) 
-37.764042753409107

>  <r_i_glide_emodel_strain>  (1) 
0.62125871211702322

>  <r_i_glide_energy>  (1) 
-28.594135956655073

>  <r_i_glide_erotb>  (1) 
1.9754277914378024

>  <r_i_glide_esite>  (1) 
-0.10000000000000001

>  <r_i_glide_evdw>  (1) 
-21.932852789407562

>  <r_i_glide_gscore>  (1) 
-4.796052090589157

>  <r_i_glide_gscore_strain>  (1) 
0

>  <r_i_glide_hbond>  (1) 
-0.20000000000000001

>  <r_i_glide_ligand_efficiency>  (1) 
-0.43549213279864474

>  <r_i_glide_ligand_efficiency_ln>  (1) 
-1.409817865528239

>  <r_i_glide_ligand_efficiency_sa>  (1) 
-0.96852583294375438

>  <r_i_glide_lipo>  (1) 
-1.504263311583391

>  <r_i_glide_metal>  (1) 
-0

>  <r_i_glide_rewards>  (1) 
-2.8713814558860635

>  <r_lp_Energy>  (1) 
-0.62655099999999997

>  <r_lp_tautomer_probability>  (1) 
0.99990000499974985

>  <s_epik_cmdline>  (1) 
J2VwaWtfcHl0aG9uJywgJy1waHQnLCAnMS4wJywgJy1waCcsICc3LjQnLCAnLXRuJywgJzgnLCAnLW1hJywgJzUwMCcsICctaW1hZScsICc8aW5maWxlLm1hZT4nLCAnLW9tYWUnLCAnPG91dGZpbGUubWFlPic=

>  <s_epik_input>  (1) 
W0NIM11TW0NAQEhdKFtDSF09TylbQ0gyXVtDSDJdT1tDSDJdW0NIMl1bTkgyXQ==

>  <s_glide_docking_method>  (1) 
confgen

>  <s_i_glide_gridfile>  (1) 
gpcr_5ht2c_6bqh_protein_autoprepared_prepared

>  <s_lp_Force_Field>  (1) 
S-OPLS

>  <s_lp_Variant>  (1) 
DiffSBDD_20-1

>  <s_m_source_file>  (1) 
generated_GPCR_5HT2C_ligand_DiffSBDD_2026-06-23_prepared.sdf

>  <GenAI_Model>  (1) 
DiffSBDD

>  <Protein>  (1) 
GPCR_5HT2C

$$$$
DiffSBDD_40
     RDKit          3D

  0  0  0  0  0  0  0  0  0  0999 V3000
M  V30 BEGIN CTAB
M  V30 COUNTS 60 63 0 0 1
M  V30 BEGIN ATOM
M  V30 1 C 37.477215 31.253889 58.574135 0 CFG=1
M  V30 2 C 39.520640 29.278716 56.928613 0 CFG=2
M  V30 3 C 37.511819 29.719838 58.543113 0 CFG=1
M  V30 4 C 37.948820 33.706824 57.894419 0
M  V30 5 C 40.927428 32.176904 64.972176 0
M  V30 6 O 36.659599 30.937528 61.119415 0
M  V30 7 C 38.679289 29.614749 55.677277 0
M  V30 8 F 40.349361 26.089971 58.167662 0
M  V30 9 C 41.803142 32.362763 68.090503 0
M  V30 10 F 39.191212 25.111241 56.670303 0
M  V30 11 C 40.659308 28.304797 56.569034 0
M  V30 12 N 42.510504 32.717089 66.840583 0 CHG=1
M  V30 13 O 41.173172 29.704186 62.201826 0
M  V30 14 C 38.674392 28.782644 58.128036 0 CFG=1
M  V30 15 C 39.057860 33.361009 58.842586 0
M  V30 16 C 42.699919 30.196634 64.002371 0
M  V30 17 S 38.035264 27.118201 57.751103 0
M  V30 18 C 39.828627 29.613204 61.742520 0
M  V30 19 C 42.080078 33.427843 69.160667 0
M  V30 20 P 37.746210 30.536465 60.179948 0 CFG=2
M  V30 21 C 42.202143 30.965839 68.589250 0
M  V30 22 C 43.033811 30.937971 65.152260 0
M  V30 23 C 39.533762 26.309230 57.141729 0
M  V30 24 O 40.167169 27.051176 56.116131 0
M  V30 25 C 38.432498 32.276955 57.984251 0
M  V30 26 C 41.477139 30.439562 63.330724 0
M  V30 27 C 40.586536 31.437716 63.822478 0
M  V30 28 C 42.144070 31.916863 65.618470 0
M  V30 29 C 39.522239 30.666825 60.666556 0
M  V30 30 H 36.459828 31.635439 58.568712 0
M  V30 31 H 40.039136 30.178464 57.248069 0
M  V30 32 H 36.531627 29.264165 58.411691 0
M  V30 33 H 38.180900 34.220284 56.964379 0
M  V30 34 H 36.978545 33.948404 58.324287 0
M  V30 35 H 40.259244 32.936551 65.349142 0
M  V30 36 H 38.231990 28.719366 55.243666 0
M  V30 37 H 37.864092 30.304515 55.899236 0
M  V30 38 H 39.296168 30.083254 54.909285 0
M  V30 39 H 40.731646 32.362671 67.886495 0
M  V30 40 H 41.346884 28.176919 57.405593 0
M  V30 41 H 41.245154 28.745027 55.769464 0
M  V30 42 H 43.501341 32.638834 67.018031 0
M  V30 43 H 39.339707 28.631866 58.974510 0
M  V30 44 H 38.801627 33.419124 59.897553 0
M  V30 45 H 40.045136 33.736315 58.584377 0
M  V30 46 H 43.378106 29.440522 63.631329 0
M  V30 47 H 39.711479 28.620618 61.307832 0
M  V30 48 H 39.107119 29.651659 62.559126 0
M  V30 49 H 41.645456 33.147061 70.120073 0
M  V30 50 H 43.150952 33.575806 69.315734 0
M  V30 51 H 41.644063 34.387672 68.881371 0
M  V30 52 H 41.667529 30.719447 69.506735 0
M  V30 53 H 41.957580 30.190117 67.863904 0
M  V30 54 H 43.269019 30.902025 68.803225 0
M  V30 55 H 43.966785 30.755384 65.666305 0
M  V30 56 H 38.973762 31.984108 57.093760 0
M  V30 57 H 39.653003 31.636294 63.320230 0
M  V30 58 H 39.705330 31.669571 61.046050 0
M  V30 59 H 40.148546 30.529237 59.791823 0
M  V30 60 H 42.315866 33.692546 66.662441 0
M  V30 END ATOM
M  V30 BEGIN BOND
M  V30 1 1 3 1
M  V30 2 1 7 2
M  V30 3 1 11 2
M  V30 4 1 12 9
M  V30 5 1 14 2
M  V30 6 1 14 3
M  V30 7 1 15 4
M  V30 8 1 17 14
M  V30 9 1 18 13
M  V30 10 1 19 9
M  V30 11 1 20 1
M  V30 12 1 20 3
M  V30 13 2 20 6
M  V30 14 1 21 9
M  V30 15 1 22 16
M  V30 16 1 23 8
M  V30 17 1 23 10
M  V30 18 1 23 17
M  V30 19 1 24 11
M  V30 20 1 24 23
M  V30 21 1 25 1
M  V30 22 1 25 4
M  V30 23 1 25 15
M  V30 24 1 26 13
M  V30 25 2 26 16
M  V30 26 2 27 5
M  V30 27 1 27 26
M  V30 28 1 28 5
M  V30 29 1 28 12
M  V30 30 2 28 22
M  V30 31 1 29 18
M  V30 32 1 20 29 CFG=1
M  V30 33 1 1 30 CFG=1
M  V30 34 1 2 31 CFG=1
M  V30 35 1 3 32 CFG=1
M  V30 36 1 33 4
M  V30 37 1 34 4
M  V30 38 1 35 5
M  V30 39 1 36 7
M  V30 40 1 37 7
M  V30 41 1 38 7
M  V30 42 1 39 9
M  V30 43 1 40 11
M  V30 44 1 41 11
M  V30 45 1 42 12
M  V30 46 1 14 43 CFG=1
M  V30 47 1 44 15
M  V30 48 1 45 15
M  V30 49 1 46 16
M  V30 50 1 47 18
M  V30 51 1 48 18
M  V30 52 1 49 19
M  V30 53 1 50 19
M  V30 54 1 51 19
M  V30 55 1 52 21
M  V30 56 1 53 21
M  V30 57 1 54 21
M  V30 58 1 55 22
M  V30 59 1 56 25
M  V30 60 1 57 27
M  V30 61 1 58 29
M  V30 62 1 59 29
M  V30 63 1 60 12
M  V30 END BOND
M  V30 END CTAB
M  END
>  <i_epik_Tot_Q>  (1) 
1

>  <i_epik_Tot_abs_Q>  (1) 
1

>  <i_i_glide_confnum>  (1) 
90

>  <i_i_glide_lignum>  (1) 
85

>  <i_i_glide_posenum>  (1) 
211

>  <i_i_glide_rotatable_bonds>  (1) 
8

>  <i_lp_mmshare_version>  (1) 
72125

>  <i_m_source_file_index>  (1) 
41

>  <i_f3d_flags>  (1) 
0

>  <num_sample>  (1) 
50

>  <b_lp_Chiralities_Consistent>  (1) 
1

>  <r_epik_Charging_Adjusted_Penalty>  (1) 
2.1414087062306124

>  <r_epik_Ionization_Penalty>  (1) 
1.0707043531153062

>  <r_epik_Ionization_Penalty_Charging>  (1) 
1.0707043531153062

>  <r_epik_Ionization_Penalty_Neutral>  (1) 
0

>  <r_epik_State_Penalty>  (1) 
1.0707043531153062

>  <r_glide_ring_energy>  (1) 
0

>  <r_i_docking_score>  (1) 
-4.7819380594249186

>  <r_i_glide_ecoul>  (1) 
-5.7273632343418726

>  <r_i_glide_eff_state_penalty>  (1) 
1.0707043531153062

>  <r_i_glide_einternal>  (1) 
3.8729177745156229

>  <r_i_glide_emodel>  (1) 
-47.58306317517674

>  <r_i_glide_emodel_strain>  (1) 
0.64021820754567216

>  <r_i_glide_energy>  (1) 
-36.852178294489391

>  <r_i_glide_erotb>  (1) 
0.70277430803170493

>  <r_i_glide_esite>  (1) 
0

>  <r_i_glide_evdw>  (1) 
-31.124815060147515

>  <r_i_glide_gscore>  (1) 
-5.8526424125402245

>  <r_i_glide_gscore_strain>  (1) 
0

>  <r_i_glide_hbond>  (1) 
-0.60799999999999998

>  <r_i_glide_ligand_efficiency>  (1) 
-0.16489441584223857

>  <r_i_glide_ligand_efficiency_ln>  (1) 
-1.0949425561216741

>  <r_i_glide_ligand_efficiency_sa>  (1) 
-0.50660788825374858

>  <r_i_glide_lipo>  (1) 
-2.15643353269108

>  <r_i_glide_metal>  (1) 
-0

>  <r_i_glide_rewards>  (1) 
-1.3756379497221942

>  <r_lp_Energy>  (1) 
20.817494999999997

>  <s_epik_cmdline>  (1) 
J2VwaWtfcHl0aG9uJywgJy1waHQnLCAnMS4wJywgJy1waCcsICc3LjQnLCAnLXRuJywgJzgnLCAnLW1hJywgJzUwMCcsICctaW1hZScsICc8aW5maWxlLm1hZT4nLCAnLW9tYWUnLCAnPG91dGZpbGUubWFlPic=

>  <s_epik_input>  (1) 
RkMxKEYpU1tDQEBIXShbQ0BIXShbQ0gzXSlbQ0gyXU8xKVtDQEBIXTJbQ0BIXShbQ0hdM1tDSDJdW0NIMl0zKVAyKD1PKVtDSDJdW0NIMl1PYzRbY0hdW2NIXWMoW2NIXVtjSF00KVtOSF1bQ0hdKFtDSDNdKVtDSDNd

>  <s_glide_docking_method>  (1) 
confgen

>  <s_i_glide_gridfile>  (1) 
gpcr_5ht2c_6bqh_protein_autoprepared_prepared

>  <s_lp_Force_Field>  (1) 
S-OPLS

>  <s_lp_Variant>  (1) 
DiffSBDD_40-3

>  <s_m_source_file>  (1) 
generated_GPCR_5HT2C_ligand_DiffSBDD_2026-06-23_prepared.sdf

>  <GenAI_Model>  (1) 
DiffSBDD

>  <Protein>  (1) 
GPCR_5HT2C

$$$$
DiffSBDD_25
     RDKit          3D

  0  0  0  0  0  0  0  0  0  0999 V3000
M  V30 BEGIN CTAB
M  V30 COUNTS 36 36 0 0 1
M  V30 BEGIN ATOM
M  V30 1 C 38.761073 28.449283 55.399413 0
M  V30 2 O 36.454501 31.356380 61.367766 0
M  V30 3 C 36.692983 31.917040 60.296355 0
M  V30 4 C 38.055574 29.187538 54.244952 0
M  V30 5 C 38.211781 31.231150 57.023786 0
M  V30 6 C 38.010761 32.214132 58.196843 0
M  V30 7 C 35.832547 33.106444 59.857358 0
M  V30 8 C 39.252116 29.360924 52.025978 0
M  V30 9 C 39.242162 29.691863 58.691890 0
M  V30 10 N 37.708349 31.527891 59.474564 0
M  V30 11 C 39.069905 30.045648 57.409392 0
M  V30 12 C 40.213188 30.004108 51.049711 0
M  V30 13 C 39.020831 29.826462 53.264536 0
M  V30 14 C 38.601725 30.418689 59.861115 0
M  V30 15 C 39.727786 29.286905 56.263279 0
M  V30 16 H 39.328233 27.626607 54.961818 0
M  V30 17 H 38.016715 27.977766 56.042000 0
M  V30 18 H 37.422281 28.478710 53.709159 0
M  V30 19 H 37.385031 29.958991 54.620971 0
M  V30 20 H 38.655838 31.757374 56.178261 0
M  V30 21 H 37.245143 30.851402 56.694239 0
M  V30 22 H 38.930006 32.781273 58.348006 0
M  V30 23 H 37.270341 32.942077 57.871549 0
M  V30 24 H 36.436834 33.995638 59.675731 0
M  V30 25 H 35.252761 32.867870 58.968134 0
M  V30 26 H 35.120428 33.356089 60.644277 0
M  V30 27 H 38.734409 28.476574 51.681745 0
M  V30 28 H 39.863853 28.842073 58.934191 0
M  V30 29 H 41.048809 29.336498 50.845128 0
M  V30 30 H 39.704114 30.221790 50.110019 0
M  V30 31 H 40.615211 30.937728 51.444876 0
M  V30 32 H 39.541107 30.709615 53.606763 0
M  V30 33 H 38.057741 29.667298 60.433888 0
M  V30 34 H 39.388875 30.804796 60.509238 0
M  V30 35 H 40.311425 29.975853 55.654263 0
M  V30 36 H 40.458983 28.602738 56.695559 0
M  V30 END ATOM
M  V30 BEGIN BOND
M  V30 1 2 3 2
M  V30 2 1 4 1
M  V30 3 1 6 5
M  V30 4 1 7 3
M  V30 5 1 10 3
M  V30 6 1 10 6
M  V30 7 1 11 5
M  V30 8 2 11 9
M  V30 9 1 12 8
M  V30 10 1 13 4
M  V30 11 2 13 8
M  V30 12 1 14 9
M  V30 13 1 14 10
M  V30 14 1 15 1
M  V30 15 1 15 11
M  V30 16 1 16 1
M  V30 17 1 17 1
M  V30 18 1 18 4
M  V30 19 1 19 4
M  V30 20 1 20 5
M  V30 21 1 21 5
M  V30 22 1 22 6
M  V30 23 1 23 6
M  V30 24 1 24 7
M  V30 25 1 25 7
M  V30 26 1 26 7
M  V30 27 1 27 8
M  V30 28 1 28 9
M  V30 29 1 29 12
M  V30 30 1 30 12
M  V30 31 1 31 12
M  V30 32 1 32 13
M  V30 33 1 33 14
M  V30 34 1 34 14
M  V30 35 1 35 15
M  V30 36 1 36 15
M  V30 END BOND
M  V30 END CTAB
M  END
>  <i_epik_Tot_Q>  (1) 
0

>  <i_epik_Tot_abs_Q>  (1) 
0

>  <i_i_glide_confnum>  (1) 
108

>  <i_i_glide_lignum>  (1) 
54

>  <i_i_glide_posenum>  (1) 
206

>  <i_i_glide_rotatable_bonds>  (1) 
5

>  <i_lp_mmshare_version>  (1) 
72125

>  <i_m_source_file_index>  (1) 
26

>  <i_f3d_flags>  (1) 
0

>  <num_sample>  (1) 
50

>  <b_lp_Chiralities_Consistent>  (1) 
1

>  <r_epik_Charging_Adjusted_Penalty>  (1) 
0

>  <r_epik_Ionization_Penalty>  (1) 
4.9398685500853885e-07

>  <r_epik_Ionization_Penalty_Charging>  (1) 
0

>  <r_epik_Ionization_Penalty_Neutral>  (1) 
4.9398685500853885e-07

>  <r_epik_State_Penalty>  (1) 
-0

>  <r_glide_ring_energy>  (1) 
0.0018408793270619076

>  <r_i_docking_score>  (1) 
-4.7754259418102363

>  <r_i_glide_ecoul>  (1) 
-4.7822721287414716

>  <r_i_glide_eff_state_penalty>  (1) 
-0

>  <r_i_glide_einternal>  (1) 
2.6901374589761016

>  <r_i_glide_emodel>  (1) 
-33.890038102349401

>  <r_i_glide_emodel_strain>  (1) 
0

>  <r_i_glide_energy>  (1) 
-26.927632972011114

>  <r_i_glide_erotb>  (1) 
1.5381532010122589

>  <r_i_glide_esite>  (1) 
-0.10240904059992442

>  <r_i_glide_evdw>  (1) 
-22.145360843269643

>  <r_i_glide_gscore>  (1) 
-4.7754259418102363

>  <r_i_glide_gscore_strain>  (1) 
0

>  <r_i_glide_hbond>  (1) 
-0.32000000000000001

>  <r_i_glide_ligand_efficiency>  (1) 
-0.31836172945401575

>  <r_i_glide_ligand_efficiency_ln>  (1) 
-1.287853638117076

>  <r_i_glide_ligand_efficiency_sa>  (1) 
-0.78514754118422425

>  <r_i_glide_lipo>  (1) 
-1.5274363580218624

>  <r_i_glide_metal>  (1) 
-0

>  <r_i_glide_rewards>  (1) 
-2.5391248827260053

>  <r_lp_Energy>  (1) 
13.51521

>  <r_lp_tautomer_probability>  (1) 
1

>  <s_epik_cmdline>  (1) 
J2VwaWtfcHl0aG9uJywgJy1waHQnLCAnMS4wJywgJy1waCcsICc3LjQnLCAnLXRuJywgJzgnLCAnLW1hJywgJzUwMCcsICctaW1hZScsICc8aW5maWxlLm1hZT4nLCAnLW9tYWUnLCAnPG91dGZpbGUubWFlPic=

>  <s_epik_input>  (1) 
W0NIM10vW0NIXT1bQ0hdL1tDSDJdW0NIMl1bQ0gyXUMoPVtDSF1bQ0gyXTEpW0NIMl1bQ0gyXU4xQyg9TylbQ0gzXQ==

>  <s_glide_docking_method>  (1) 
confgen

>  <s_i_glide_gridfile>  (1) 
gpcr_5ht2c_6bqh_protein_autoprepared_prepared

>  <s_lp_Force_Field>  (1) 
S-OPLS

>  <s_lp_Variant>  (1) 
DiffSBDD_25-1

>  <s_m_source_file>  (1) 
generated_GPCR_5HT2C_ligand_DiffSBDD_2026-06-23_prepared.sdf

>  <GenAI_Model>  (1) 
DiffSBDD

>  <Protein>  (1) 
GPCR_5HT2C

$$$$
DiffSBDD_25
     RDKit          3D

  0  0  0  0  0  0  0  0  0  0999 V3000
M  V30 BEGIN CTAB
M  V30 COUNTS 36 36 0 0 1
M  V30 BEGIN ATOM
M  V30 1 C 38.104610 29.992096 54.629696 0
M  V30 2 O 35.807143 31.337784 60.967759 0
M  V30 3 C 36.222675 32.184353 60.173883 0
M  V30 4 C 38.707003 29.096616 53.530634 0
M  V30 5 C 38.045021 30.065078 57.887955 0
M  V30 6 C 37.956689 30.653910 59.308585 0
M  V30 7 C 35.564740 33.567565 60.125268 0
M  V30 8 C 39.601869 29.737753 51.255621 0
M  V30 9 C 38.397091 32.418404 57.131913 0
M  V30 10 N 37.259302 31.951830 59.323519 0
M  V30 11 C 38.522293 31.103496 56.890893 0
M  V30 12 C 40.547953 30.461894 50.323671 0
M  V30 13 C 39.656451 29.823035 52.595354 0
M  V30 14 C 37.763816 32.989022 58.392837 0
M  V30 15 C 39.146402 30.566446 55.610970 0
M  V30 16 H 37.379630 29.394070 55.182520 0
M  V30 17 H 37.534908 30.807878 54.182275 0
M  V30 18 H 39.245159 28.268741 53.992340 0
M  V30 19 H 37.901901 28.647701 52.946979 0
M  V30 20 H 37.066110 29.704568 57.568846 0
M  V30 21 H 38.720187 29.209055 57.889715 0
M  V30 22 H 37.502083 29.911970 59.966144 0
M  V30 23 H 38.962847 30.817419 59.696208 0
M  V30 24 H 36.298923 34.365677 60.236279 0
M  V30 25 H 35.021475 33.702735 59.189197 0
M  V30 26 H 34.845125 33.668301 60.938086 0
M  V30 27 H 38.845135 29.123442 50.789876 0
M  V30 28 H 38.746588 33.132784 56.401062 0
M  V30 29 H 40.980088 29.762046 49.609272 0
M  V30 30 H 40.010563 31.230480 49.767762 0
M  V30 31 H 41.360240 30.937757 50.872696 0
M  V30 32 H 40.414635 30.437676 53.058664 0
M  V30 33 H 38.495223 33.613175 58.906773 0
M  V30 34 H 36.971126 33.643425 58.031017 0
M  V30 35 H 39.709956 31.361981 55.121896 0
M  V30 36 H 39.875101 29.801813 55.882125 0
M  V30 END ATOM
M  V30 BEGIN BOND
M  V30 1 2 3 2
M  V30 2 1 4 1
M  V30 3 1 6 5
M  V30 4 1 7 3
M  V30 5 1 10 3
M  V30 6 1 10 6
M  V30 7 1 11 5
M  V30 8 2 11 9
M  V30 9 1 12 8
M  V30 10 1 13 4
M  V30 11 2 13 8
M  V30 12 1 14 9
M  V30 13 1 14 10
M  V30 14 1 15 1
M  V30 15 1 15 11
M  V30 16 1 16 1
M  V30 17 1 17 1
M  V30 18 1 18 4
M  V30 19 1 19 4
M  V30 20 1 20 5
M  V30 21 1 21 5
M  V30 22 1 22 6
M  V30 23 1 23 6
M  V30 24 1 24 7
M  V30 25 1 25 7
M  V30 26 1 26 7
M  V30 27 1 27 8
M  V30 28 1 28 9
M  V30 29 1 29 12
M  V30 30 1 30 12
M  V30 31 1 31 12
M  V30 32 1 32 13
M  V30 33 1 33 14
M  V30 34 1 34 14
M  V30 35 1 35 15
M  V30 36 1 36 15
M  V30 END BOND
M  V30 END CTAB
M  END
>  <i_epik_Tot_Q>  (1) 
0

>  <i_epik_Tot_abs_Q>  (1) 
0

>  <i_i_glide_confnum>  (1) 
37

>  <i_i_glide_lignum>  (1) 
54

>  <i_i_glide_posenum>  (1) 
83

>  <i_i_glide_rotatable_bonds>  (1) 
5

>  <i_lp_mmshare_version>  (1) 
72125

>  <i_m_source_file_index>  (1) 
26

>  <i_f3d_flags>  (1) 
0

>  <num_sample>  (1) 
50

>  <b_lp_Chiralities_Consistent>  (1) 
1

>  <r_epik_Charging_Adjusted_Penalty>  (1) 
0

>  <r_epik_Ionization_Penalty>  (1) 
4.9398685500853885e-07

>  <r_epik_Ionization_Penalty_Charging>  (1) 
0

>  <r_epik_Ionization_Penalty_Neutral>  (1) 
4.9398685500853885e-07

>  <r_epik_State_Penalty>  (1) 
-0

>  <r_glide_ring_energy>  (1) 
0

>  <r_i_docking_score>  (1) 
-4.6927446452402979

>  <r_i_glide_ecoul>  (1) 
-2.3601933124435788

>  <r_i_glide_eff_state_penalty>  (1) 
-0

>  <r_i_glide_einternal>  (1) 
1.4223137295344683

>  <r_i_glide_emodel>  (1) 
-36.26265234264455

>  <r_i_glide_emodel_strain>  (1) 
0.1235268703893766

>  <r_i_glide_energy>  (1) 
-28.933697075497697

>  <r_i_glide_erotb>  (1) 
1.5381532010122589

>  <r_i_glide_esite>  (1) 
-0.15036092068668172

>  <r_i_glide_evdw>  (1) 
-26.57350376305412

>  <r_i_glide_gscore>  (1) 
-4.6927446452402979

>  <r_i_glide_gscore_strain>  (1) 
0

>  <r_i_glide_hbond>  (1) 
-0.26041100359826119

>  <r_i_glide_ligand_efficiency>  (1) 
-0.31284964301601986

>  <r_i_glide_ligand_efficiency_ln>  (1) 
-1.2655558557015731

>  <r_i_glide_ligand_efficiency_sa>  (1) 
-0.77155356705608558

>  <r_i_glide_lipo>  (1) 
-1.4004626777635081

>  <r_i_glide_metal>  (1) 
-0

>  <r_i_glide_rewards>  (1) 
-2.7369590591848625

>  <r_lp_Energy>  (1) 
13.51521

>  <r_lp_tautomer_probability>  (1) 
1

>  <s_epik_cmdline>  (1) 
J2VwaWtfcHl0aG9uJywgJy1waHQnLCAnMS4wJywgJy1waCcsICc3LjQnLCAnLXRuJywgJzgnLCAnLW1hJywgJzUwMCcsICctaW1hZScsICc8aW5maWxlLm1hZT4nLCAnLW9tYWUnLCAnPG91dGZpbGUubWFlPic=

>  <s_epik_input>  (1) 
W0NIM10vW0NIXT1bQ0hdL1tDSDJdW0NIMl1bQ0gyXUMoPVtDSF1bQ0gyXTEpW0NIMl1bQ0gyXU4xQyg9TylbQ0gzXQ==

>  <s_glide_docking_method>  (1) 
confgen

>  <s_i_glide_gridfile>  (1) 
gpcr_5ht2c_6bqh_protein_autoprepared_prepared

>  <s_lp_Force_Field>  (1) 
S-OPLS

>  <s_lp_Variant>  (1) 
DiffSBDD_25-1

>  <s_m_source_file>  (1) 
generated_GPCR_5HT2C_ligand_DiffSBDD_2026-06-23_prepared.sdf

>  <GenAI_Model>  (1) 
DiffSBDD

>  <Protein>  (1) 
GPCR_5HT2C

$$$$
DiffSBDD_30
     RDKit          3D

  0  0  0  0  0  0  0  0  0  0999 V3000
M  V30 BEGIN CTAB
M  V30 COUNTS 75 78 0 0 1
M  V30 BEGIN ATOM
M  V30 1 C 39.160464 28.124696 53.465738 0 CFG=2
M  V30 2 N 39.645150 29.737739 58.069225 0
M  V30 3 C 41.052710 30.605212 66.290895 0
M  V30 4 O 37.650229 26.422001 54.132628 0
M  V30 5 C 39.499159 28.540733 52.014074 0
M  V30 6 C 37.229132 33.091386 59.792164 0 CFG=1
M  V30 7 N 37.973678 31.960950 59.165886 0 CHG=1
M  V30 8 C 38.722067 29.481820 59.199125 0 CFG=1
M  V30 9 O 39.646179 30.413364 54.108692 0
M  V30 10 C 37.325754 35.614045 60.206696 0
M  V30 11 C 39.244190 28.435084 60.233949 0
M  V30 12 C 33.666813 33.845154 59.119625 0
M  V30 13 O 34.839449 33.718858 59.904193 0
M  V30 14 C 38.322731 30.781203 60.002751 0 CFG=2
M  V30 15 C 38.708139 29.060901 55.896819 0 CFG=1
M  V30 16 C 37.993036 34.398306 59.550608 0
M  V30 17 C 38.959480 30.240204 56.868713 0
M  V30 18 C 37.765837 27.508127 53.523791 0
M  V30 19 O 40.276199 28.959544 61.058621 0
M  V30 20 O 37.068942 30.537748 60.610866 0
M  V30 21 C 40.357703 28.579546 57.530971 0
M  V30 22 O 37.122596 35.554132 61.437907 0 CHG=-1
M  V30 23 C 39.796698 29.973112 61.933745 0 CFG=2
M  V30 24 C 39.378054 31.167127 61.065375 0
M  V30 25 C 40.900231 30.314631 62.938237 0 CFG=2
M  V30 26 C 42.095347 31.411508 68.783720 0
M  V30 27 C 41.185349 29.669491 67.338118 0
M  V30 28 C 41.443083 31.946772 66.493309 0
M  V30 29 C 39.214470 29.311034 54.455392 0
M  V30 30 O 36.845058 28.138167 52.967700 0 CHG=-1
M  V30 31 C 40.484064 30.165938 64.953930 0 CFG=2
M  V30 32 C 39.404949 27.875409 56.584381 0
M  V30 33 C 41.963982 32.348457 67.739354 0
M  V30 34 C 41.706311 30.072633 68.582703 0
M  V30 35 O 37.039520 36.576629 59.461710 0
M  V30 36 C 35.849521 33.122922 59.130026 0
M  V30 37 C 41.289534 29.291323 64.002725 0
M  V30 38 O 40.388259 31.215283 63.955260 0
M  V30 39 H 39.862666 27.351538 53.780598 0
M  V30 40 H 38.806671 29.293371 51.634731 0
M  V30 41 H 40.499324 28.962080 51.938451 0
M  V30 42 H 39.453839 27.686096 51.338229 0
M  V30 43 H 37.113451 32.954471 60.867949 0
M  V30 44 H 38.827331 32.318935 58.764347 0
M  V30 45 H 37.817438 29.048411 58.769456 0
M  V30 46 H 39.575928 27.509304 59.771962 0
M  V30 47 H 38.445143 28.084869 60.873227 0
M  V30 48 H 32.831763 34.069288 59.767772 0
M  V30 49 H 33.768763 34.656889 58.399211 0
M  V30 50 H 33.425050 32.937700 58.568369 0
M  V30 51 H 37.638028 28.863476 55.845317 0
M  V30 52 H 39.014192 34.325686 59.926853 0
M  V30 53 H 38.045129 34.537741 58.472472 0
M  V30 54 H 38.005960 30.717451 57.081266 0
M  V30 55 H 39.590179 31.006857 56.417317 0
M  V30 56 H 36.741290 29.700901 60.315878 0
M  V30 57 H 41.194026 28.937732 56.934071 0
M  V30 58 H 40.820218 27.931669 58.270475 0
M  V30 59 H 38.929753 29.601628 62.480511 0
M  V30 60 H 40.262512 31.563519 60.567739 0
M  V30 61 H 39.009805 31.967441 61.708773 0
M  V30 62 H 41.788515 30.736393 62.469413 0
M  V30 63 H 42.493668 31.720075 69.738887 0
M  V30 64 H 40.885268 28.642588 67.187561 0
M  V30 65 H 41.341936 32.666706 65.694979 0
M  V30 66 H 39.503762 29.739625 65.144006 0
M  V30 67 H 39.935021 27.198424 55.915614 0
M  V30 68 H 38.676449 27.277866 57.132802 0
M  V30 69 H 42.261116 33.375437 67.894065 0
M  V30 70 H 41.805596 29.354770 69.383846 0
M  V30 71 H 35.934803 33.631654 58.167738 0
M  V30 72 H 35.519782 32.096719 58.967769 0
M  V30 73 H 40.874623 28.292767 63.856339 0
M  V30 74 H 42.358988 29.279395 64.217004 0
M  V30 75 H 37.393680 31.637816 58.401461 0
M  V30 END ATOM
M  V30 BEGIN BOND
M  V30 1 1 5 1
M  V30 2 1 7 6
M  V30 3 1 8 2
M  V30 4 1 11 8
M  V30 5 1 13 12
M  V30 6 1 14 7
M  V30 7 1 14 8
M  V30 8 1 16 6
M  V30 9 1 16 10
M  V30 10 1 17 2
M  V30 11 1 17 15
M  V30 12 1 18 1
M  V30 13 2 18 4
M  V30 14 1 19 11
M  V30 15 1 14 20 CFG=1
M  V30 16 1 21 2
M  V30 17 1 22 10
M  V30 18 1 23 19
M  V30 19 1 24 14
M  V30 20 1 24 23
M  V30 21 1 25 23
M  V30 22 1 27 3
M  V30 23 2 28 3
M  V30 24 1 29 1
M  V30 25 2 29 9
M  V30 26 1 29 15
M  V30 27 1 30 18
M  V30 28 1 31 3
M  V30 29 1 32 15
M  V30 30 1 32 21
M  V30 31 2 33 26
M  V30 32 1 33 28
M  V30 33 1 34 26
M  V30 34 2 34 27
M  V30 35 2 35 10
M  V30 36 1 36 6
M  V30 37 1 36 13
M  V30 38 1 37 25
M  V30 39 1 37 31
M  V30 40 1 38 25
M  V30 41 1 38 31
M  V30 42 1 1 39 CFG=1
M  V30 43 1 40 5
M  V30 44 1 41 5
M  V30 45 1 42 5
M  V30 46 1 6 43 CFG=1
M  V30 47 1 44 7
M  V30 48 1 8 45 CFG=3
M  V30 49 1 46 11
M  V30 50 1 47 11
M  V30 51 1 48 12
M  V30 52 1 49 12
M  V30 53 1 50 12
M  V30 54 1 15 51 CFG=3
M  V30 55 1 52 16
M  V30 56 1 53 16
M  V30 57 1 54 17
M  V30 58 1 55 17
M  V30 59 1 56 20
M  V30 60 1 57 21
M  V30 61 1 58 21
M  V30 62 1 23 59 CFG=1
M  V30 63 1 60 24
M  V30 64 1 61 24
M  V30 65 1 25 62 CFG=3
M  V30 66 1 63 26
M  V30 67 1 64 27
M  V30 68 1 65 28
M  V30 69 1 31 66 CFG=1
M  V30 70 1 67 32
M  V30 71 1 68 32
M  V30 72 1 69 33
M  V30 73 1 70 34
M  V30 74 1 71 36
M  V30 75 1 72 36
M  V30 76 1 73 37
M  V30 77 1 74 37
M  V30 78 1 75 7
M  V30 END BOND
M  V30 END CTAB
M  END
>  <i_epik_Tot_Q>  (1) 
-1

>  <i_epik_Tot_abs_Q>  (1) 
3

>  <i_i_glide_confnum>  (1) 
231

>  <i_i_glide_lignum>  (1) 
68

>  <i_i_glide_posenum>  (1) 
321

>  <i_i_glide_rotatable_bonds>  (1) 
13

>  <i_lp_mmshare_version>  (1) 
72125

>  <i_m_source_file_index>  (1) 
31

>  <i_f3d_flags>  (1) 
0

>  <num_sample>  (1) 
50

>  <b_lp_Chiralities_Consistent>  (1) 
1

>  <r_epik_Charging_Adjusted_Penalty>  (1) 
0.46003484213561824

>  <r_epik_Ionization_Penalty>  (1) 
0.046729076423607623

>  <r_epik_Ionization_Penalty_Charging>  (1) 
0.030134691607895156

>  <r_epik_Ionization_Penalty_Neutral>  (1) 
0.016594384815712467

>  <r_epik_State_Penalty>  (1) 
0.42990015052772307

>  <r_glide_ring_energy>  (1) 
0

>  <r_i_docking_score>  (1) 
-4.6456137419584609

>  <r_i_glide_ecoul>  (1) 
-4.539697419372775

>  <r_i_glide_eff_state_penalty>  (1) 
0.42990015052772307

>  <r_i_glide_einternal>  (1) 
7.5028398327399444

>  <r_i_glide_emodel>  (1) 
-52.511284177760473

>  <r_i_glide_emodel_strain>  (1) 
1.4693499591793255

>  <r_i_glide_energy>  (1) 
-42.294914757040416

>  <r_i_glide_erotb>  (1) 
0.65218633798694536

>  <r_i_glide_esite>  (1) 
-0.053451982663175635

>  <r_i_glide_evdw>  (1) 
-37.755217337667638

>  <r_i_glide_gscore>  (1) 
-5.0755138924861836

>  <r_i_glide_gscore_strain>  (1) 
0

>  <r_i_glide_hbond>  (1) 
0

>  <r_i_glide_ligand_efficiency>  (1) 
-0.12225299320943318

>  <r_i_glide_ligand_efficiency_ln>  (1) 
-1.0017309828767793

>  <r_i_glide_ligand_efficiency_sa>  (1) 
-0.41101155657767513

>  <r_i_glide_lipo>  (1) 
-2.1427067403495221

>  <r_i_glide_metal>  (1) 
-0

>  <r_i_glide_rewards>  (1) 
-0.96282602767113212

>  <r_lp_Energy>  (1) 
14.056426

>  <s_epik_cmdline>  (1) 
J2VwaWtfcHl0aG9uJywgJy1waHQnLCAnMS4wJywgJy1waCcsICc3LjQnLCAnLXRuJywgJzgnLCAnLW1hJywgJzUwMCcsICctaW1hZScsICc8aW5maWxlLm1hZT4nLCAnLW9tYWUnLCAnPG91dGZpbGUubWFlPic=

>  <s_epik_input>  (1) 
Tz1DKFtPSF0pW0NAQEhdKFtDSDNdKUMoPU8pW0NAQEhdKFtDSDJdW0NIMl0xKVtDSDJdTjFbQ0BIXShbQ0BdMihbT0hdKVtOSF1bQ0BASF0oW0NIMl1DKD1PKVtPSF0pW0NIMl1PW0NIM10pW0NIMl1PW0NASF0oW0NIMl0yKVtDQEBIXTNbQ0gyXVtDSF0oTzMpYzRbY0hdW2NIXVtjSF1bY0hdW2NIXTQ=

>  <s_glide_docking_method>  (1) 
confgen

>  <s_i_glide_gridfile>  (1) 
gpcr_5ht2c_6bqh_protein_autoprepared_prepared

>  <s_lp_Force_Field>  (1) 
S-OPLS

>  <s_lp_Variant>  (1) 
DiffSBDD_30-3

>  <s_m_source_file>  (1) 
generated_GPCR_5HT2C_ligand_DiffSBDD_2026-06-23_prepared.sdf

>  <GenAI_Model>  (1) 
DiffSBDD

>  <Protein>  (1) 
GPCR_5HT2C

$$$$
DiffSBDD_4
     RDKit          3D

  0  0  0  0  0  0  0  0  0  0999 V3000
M  V30 BEGIN CTAB
M  V30 COUNTS 83 85 0 0 1
M  V30 BEGIN ATOM
M  V30 1 C 38.898772 37.223273 62.393202 0
M  V30 2 O 38.045133 32.110073 57.217250 0
M  V30 3 C 37.645107 27.980517 58.035103 0
M  V30 4 C 39.494133 24.703328 57.367858 0
M  V30 5 C 37.248450 36.116056 60.862857 0
M  V30 6 C 37.426249 36.800847 62.223433 0 CFG=2
M  V30 7 O 38.701137 31.400223 61.152894 0
M  V30 8 O 36.450222 38.947766 61.767622 0
M  V30 9 C 38.324045 31.563602 59.989844 0
M  V30 10 C 38.604653 30.616732 55.130720 0
M  V30 11 C 37.909945 27.667192 55.621097 0
M  V30 12 C 34.758486 33.203138 60.295928 0
M  V30 13 C 36.412490 37.928921 62.446763 0
M  V30 14 N 38.845123 30.808960 58.941639 0
M  V30 15 C 38.539283 31.056287 57.603654 0
M  V30 16 C 38.304656 28.713828 53.424614 0
M  V30 17 C 38.835330 29.928336 56.540283 0 CFG=1
M  V30 18 C 39.497931 28.720837 51.309631 0
M  V30 19 C 37.195275 32.605175 59.708712 0 CFG=2
M  V30 20 C 40.082815 29.945070 51.647469 0
M  V30 21 C 37.798740 28.755178 56.703409 0 CFG=2
M  V30 22 C 38.615303 28.105849 52.194115 0
M  V30 23 C 37.785780 34.032148 59.520303 0
M  V30 24 F 38.045730 26.938451 51.859044 0
M  V30 25 C 38.731259 26.917141 58.323424 0
M  V30 26 C 39.788510 29.728166 59.304202 0
M  V30 27 C 39.589868 35.174401 61.010271 0
M  V30 28 C 38.337197 25.454001 58.034838 0
M  V30 29 N 35.502032 37.737769 63.402715 0
M  V30 30 C 39.823540 35.991612 62.298610 0
M  V30 31 C 39.820472 30.539024 52.896662 0
M  V30 32 C 40.950163 30.643805 50.658360 0
M  V30 33 C 36.044716 32.491480 60.749030 0
M  V30 34 C 38.097882 34.833578 60.809078 0 CFG=1
M  V30 35 C 37.294919 28.080656 54.320162 0
M  V30 36 N 40.045093 31.334298 49.767763 0
M  V30 37 C 38.929385 29.928011 53.794119 0
M  V30 38 H 39.048779 37.713277 63.354981 0
M  V30 39 H 39.168682 37.953092 61.628382 0
M  V30 40 H 37.493148 28.649439 58.874906 0
M  V30 41 H 36.686827 27.469758 57.975550 0
M  V30 42 H 39.325655 23.627426 57.367812 0
M  V30 43 H 39.614069 25.019576 56.332478 0
M  V30 44 H 40.432632 24.920979 57.880908 0
M  V30 45 H 37.529767 36.793753 60.054287 0
M  V30 46 H 36.202646 35.867476 60.698821 0
M  V30 47 H 37.204346 36.059241 62.979136 0
M  V30 48 H 39.183360 31.542477 55.113900 0
M  V30 49 H 37.564163 30.938058 55.045653 0
M  V30 50 H 38.929005 27.297186 55.496282 0
M  V30 51 H 37.306731 26.809961 55.903942 0
M  V30 52 H 34.060808 33.337751 61.121957 0
M  V30 53 H 34.958770 34.190639 59.888137 0
M  V30 54 H 34.250723 32.633134 59.516147 0
M  V30 55 H 39.868558 29.589515 56.556785 0
M  V30 56 H 39.708560 28.263984 50.353519 0
M  V30 57 H 36.596514 32.330927 58.849878 0
M  V30 58 H 36.846680 29.289489 56.608335 0
M  V30 59 H 38.698041 33.958387 58.927588 0
M  V30 60 H 37.107799 34.597188 58.877771 0
M  V30 61 H 39.634531 27.172684 57.770052 0
M  V30 62 H 39.023513 26.965006 59.367693 0
M  V30 63 H 39.331866 29.039616 60.012925 0
M  V30 64 H 40.245787 29.157658 58.506838 0
M  V30 65 H 40.639272 30.137777 59.845916 0
M  V30 66 H 40.178277 34.256751 61.044354 0
M  V30 67 H 39.969166 35.737798 60.166609 0
M  V30 68 H 38.045169 24.960996 58.962080 0
M  V30 69 H 37.450663 25.367719 57.410300 0
M  V30 70 H 35.500162 36.876669 63.935736 0
M  V30 71 H 34.810600 38.450028 63.585610 0
M  V30 72 H 39.654270 35.351158 63.164864 0
M  V30 73 H 40.865297 36.308226 62.354272 0
M  V30 74 H 40.278409 31.481259 53.149138 0
M  V30 75 H 41.626299 31.337759 51.146996 0
M  V30 76 H 41.549918 29.924712 50.103450 0
M  V30 77 H 35.799418 31.437700 60.898822 0
M  V30 78 H 36.330037 32.845903 61.736211 0
M  V30 79 H 37.844467 34.231480 61.675749 0
M  V30 80 H 36.485187 28.787800 54.475706 0
M  V30 81 H 36.845149 27.214745 53.833614 0
M  V30 82 H 40.324743 31.177336 48.815109 0
M  V30 83 H 39.112834 30.953122 49.862754 0
M  V30 END ATOM
M  V30 BEGIN BOND
M  V30 1 1 6 1
M  V30 2 1 6 5
M  V30 3 2 9 7
M  V30 4 1 13 6
M  V30 5 2 13 8
M  V30 6 1 14 9
M  V30 7 2 15 2
M  V30 8 1 15 14
M  V30 9 1 17 10
M  V30 10 1 17 15
M  V30 11 1 19 9
M  V30 12 2 20 18
M  V30 13 1 21 3
M  V30 14 1 21 11
M  V30 15 1 21 17
M  V30 16 2 22 16
M  V30 17 1 22 18
M  V30 18 1 23 19
M  V30 19 1 24 22
M  V30 20 1 25 3
M  V30 21 1 26 14
M  V30 22 1 28 4
M  V30 23 1 28 25
M  V30 24 1 29 13
M  V30 25 1 30 1
M  V30 26 1 30 27
M  V30 27 1 31 20
M  V30 28 1 32 20
M  V30 29 1 33 12
M  V30 30 1 33 19
M  V30 31 1 34 5
M  V30 32 1 34 23
M  V30 33 1 34 27
M  V30 34 1 35 11
M  V30 35 1 35 16
M  V30 36 1 36 32
M  V30 37 1 37 10
M  V30 38 1 37 16
M  V30 39 2 37 31
M  V30 40 1 38 1
M  V30 41 1 39 1
M  V30 42 1 40 3
M  V30 43 1 41 3
M  V30 44 1 42 4
M  V30 45 1 43 4
M  V30 46 1 44 4
M  V30 47 1 45 5
M  V30 48 1 46 5
M  V30 49 1 6 47 CFG=1
M  V30 50 1 48 10
M  V30 51 1 49 10
M  V30 52 1 50 11
M  V30 53 1 51 11
M  V30 54 1 52 12
M  V30 55 1 53 12
M  V30 56 1 54 12
M  V30 57 1 17 55 CFG=3
M  V30 58 1 56 18
M  V30 59 1 19 57 CFG=3
M  V30 60 1 21 58 CFG=3
M  V30 61 1 59 23
M  V30 62 1 60 23
M  V30 63 1 61 25
M  V30 64 1 62 25
M  V30 65 1 63 26
M  V30 66 1 64 26
M  V30 67 1 65 26
M  V30 68 1 66 27
M  V30 69 1 67 27
M  V30 70 1 68 28
M  V30 71 1 69 28
M  V30 72 1 70 29
M  V30 73 1 71 29
M  V30 74 1 72 30
M  V30 75 1 73 30
M  V30 76 1 74 31
M  V30 77 1 75 32
M  V30 78 1 76 32
M  V30 79 1 77 33
M  V30 80 1 78 33
M  V30 81 1 34 79 CFG=1
M  V30 82 1 80 35
M  V30 83 1 81 35
M  V30 84 1 82 36
M  V30 85 1 83 36
M  V30 END BOND
M  V30 END CTAB
M  END
>  <i_epik_Tot_Q>  (1) 
0

>  <i_epik_Tot_abs_Q>  (1) 
0

>  <i_i_glide_confnum>  (1) 
515

>  <i_i_glide_lignum>  (1) 
13

>  <i_i_glide_posenum>  (1) 
225

>  <i_i_glide_rotatable_bonds>  (1) 
12

>  <i_lp_mmshare_version>  (1) 
72125

>  <i_m_source_file_index>  (1) 
5

>  <i_f3d_flags>  (1) 
0

>  <num_sample>  (1) 
50

>  <b_lp_Chiralities_Consistent>  (1) 
1

>  <r_epik_Charging_Adjusted_Penalty>  (1) 
1.3041598134217376

>  <r_epik_Ionization_Penalty>  (1) 
1.3041598450787459

>  <r_epik_Ionization_Penalty_Charging>  (1) 
0

>  <r_epik_Ionization_Penalty_Neutral>  (1) 
1.3041598450787459

>  <r_epik_State_Penalty>  (1) 
1.3041598134217376

>  <r_glide_ring_energy>  (1) 
0

>  <r_i_docking_score>  (1) 
-4.63281179583762

>  <r_i_glide_ecoul>  (1) 
1.7535792796674068

>  <r_i_glide_eff_state_penalty>  (1) 
1.3041598134217376

>  <r_i_glide_einternal>  (1) 
26.572835311346598

>  <r_i_glide_emodel>  (1) 
-33.577299470479268

>  <r_i_glide_emodel_strain>  (1) 
11.265655675489697

>  <r_i_glide_energy>  (1) 
-42.021338859425462

>  <r_i_glide_erotb>  (1) 
0.6172515797735002

>  <r_i_glide_esite>  (1) 
-0.088719463303611995

>  <r_i_glide_evdw>  (1) 
-43.774918139092868

>  <r_i_glide_gscore>  (1) 
-5.9369716092593574

>  <r_i_glide_gscore_strain>  (1) 
1.8164139188724242

>  <r_i_glide_hbond>  (1) 
-0.10764998824002664

>  <r_i_glide_ligand_efficiency>  (1) 
-0.12521112961723296

>  <r_i_glide_ligand_efficiency_ln>  (1) 
-1.004748269999203

>  <r_i_glide_ligand_efficiency_sa>  (1) 
-0.4172312621798176

>  <r_i_glide_lipo>  (1) 
-5.0462845938643577

>  <r_i_glide_metal>  (1) 
-0

>  <r_i_glide_rewards>  (1) 
-1.2022740474927514

>  <r_lp_Energy>  (1) 
61.762789999999995

>  <r_lp_tautomer_probability>  (1) 
0.99980002999550088

>  <s_epik_cmdline>  (1) 
J2VwaWtfcHl0aG9uJywgJy1waHQnLCAnMS4wJywgJy1waCcsICc3LjQnLCAnLXRuJywgJzgnLCAnLW1hJywgJzUwMCcsICctaW1hZScsICc8aW5maWxlLm1hZT4nLCAnLW9tYWUnLCAnPG91dGZpbGUubWFlPic=

>  <s_epik_input>  (1) 
Tz1DKFtOSDJdKVtDQEBIXTFbQ0gyXVtDSDJdW0NIMl1bQ0BASF0oW0NIMl0xKVtDSDJdW0NASF0oW0NIMl1bQ0gzXSlDKD1PKU4oW0NIM10pQyg9TylbQ0BASF0oW0NAQEhdKFtDSDJdW0NIMl0yKVtDSDJdW0NIMl1bQ0gyXVtDSDNdKVtDSDJdYyhjMjMpW2NIXWMoW2NIXWMzRilbQ0gyXVtOSDJd

>  <s_glide_docking_method>  (1) 
confgen

>  <s_i_glide_gridfile>  (1) 
gpcr_5ht2c_6bqh_protein_autoprepared_prepared

>  <s_lp_Force_Field>  (1) 
S-OPLS

>  <s_lp_Variant>  (1) 
DiffSBDD_4-2

>  <s_m_source_file>  (1) 
generated_GPCR_5HT2C_ligand_DiffSBDD_2026-06-23_prepared.sdf

>  <GenAI_Model>  (1) 
DiffSBDD

>  <Protein>  (1) 
GPCR_5HT2C

$$$$
DiffSBDD_4
     RDKit          3D

  0  0  0  0  0  0  0  0  0  0999 V3000
M  V30 BEGIN CTAB
M  V30 COUNTS 83 85 0 0 1
M  V30 BEGIN ATOM
M  V30 1 C 38.512200 28.608635 54.582578 0
M  V30 2 O 41.554420 29.337517 62.631540 0
M  V30 3 C 40.410163 29.957940 65.449716 0
M  V30 4 C 41.622888 26.963504 65.221181 0
M  V30 5 C 38.730388 28.564010 57.116421 0
M  V30 6 C 38.325957 27.758753 55.856012 0 CFG=2
M  V30 7 O 38.759837 32.073173 61.465482 0
M  V30 8 O 40.355621 26.474884 55.757412 0
M  V30 9 C 38.842073 30.957729 60.960614 0
M  V30 10 C 41.404418 32.608174 62.637462 0
M  V30 11 C 41.139880 32.327948 65.732366 0
M  V30 12 C 35.741634 31.527506 61.043953 0
M  V30 13 C 39.128486 26.455242 55.739826 0
M  V30 14 N 39.761583 29.990130 61.361616 0
M  V30 15 C 40.680187 30.173925 62.397536 0
M  V30 16 C 41.235108 34.436854 64.399447 0
M  V30 17 C 40.608966 31.450712 63.309540 0 CFG=1
M  V30 18 C 40.045128 36.522352 63.944520 0
M  V30 19 C 37.875672 30.591908 59.784395 0 CFG=2
M  V30 20 C 39.753049 36.074808 62.642896 0
M  V30 21 C 41.169579 31.127087 64.750513 0 CFG=2
M  V30 22 C 40.787313 35.708124 64.822326 0
M  V30 23 C 38.589818 30.769491 58.414518 0
M  V30 24 F 41.052969 36.137709 66.080160 0
M  V30 25 C 41.215522 29.166173 66.500448 0
M  V30 26 C 39.804535 28.693795 60.640400 0
M  V30 27 C 38.228674 30.735751 55.911742 0
M  V30 28 C 42.249206 28.188870 65.906967 0
M  V30 29 N 38.428450 25.327114 55.619001 0
M  V30 30 C 37.764968 29.943742 54.683942 0
M  V30 31 C 40.204894 34.809576 62.214369 0
M  V30 32 C 38.945452 36.947939 61.709154 0
M  V30 33 C 36.597464 31.483500 59.769830 0
M  V30 34 C 38.037178 29.946368 57.223912 0 CFG=1
M  V30 35 C 41.995261 33.543328 65.359203 0
M  V30 36 N 37.575216 37.103099 62.154146 0
M  V30 37 C 40.942691 33.986071 63.092790 0
M  V30 38 H 38.161755 28.058159 53.708377 0
M  V30 39 H 39.572185 28.807640 54.416125 0
M  V30 40 H 39.505039 30.347915 65.918352 0
M  V30 41 H 40.045134 29.234999 64.732062 0
M  V30 42 H 42.395277 26.269223 64.890032 0
M  V30 43 H 40.962515 26.425487 65.901561 0
M  V30 44 H 41.041312 27.239334 64.342226 0
M  V30 45 H 39.812089 28.712202 57.107976 0
M  V30 46 H 38.509170 27.976722 58.007881 0
M  V30 47 H 37.276895 27.482899 55.940289 0
M  V30 48 H 41.318328 32.563462 61.551211 0
M  V30 49 H 42.471763 32.498589 62.828058 0
M  V30 50 H 40.111546 32.650747 65.891715 0
M  V30 51 H 41.493847 31.989706 66.705245 0
M  V30 52 H 34.845522 32.122839 60.868842 0
M  V30 53 H 35.416536 30.537786 61.342048 0
M  V30 54 H 36.268919 31.986388 61.877658 0
M  V30 55 H 39.582645 31.725091 63.525256 0
M  V30 56 H 39.695806 37.490424 64.273887 0
M  V30 57 H 37.512167 29.572835 59.885711 0
M  V30 58 H 42.213268 30.832405 64.635488 0
M  V30 59 H 38.573442 31.830465 58.159175 0
M  V30 60 H 39.645106 30.537803 58.493143 0
M  V30 61 H 41.714643 29.847467 67.188624 0
M  V30 62 H 40.518056 28.595223 67.115731 0
M  V30 63 H 40.149193 28.804497 59.615921 0
M  V30 64 H 40.478788 27.956565 61.077288 0
M  V30 65 H 38.845041 28.180229 60.649869 0
M  V30 66 H 37.672661 31.673970 55.959738 0
M  V30 67 H 39.279345 31.003999 55.791292 0
M  V30 68 H 42.909704 28.704338 65.209400 0
M  V30 69 H 42.890854 27.833876 66.713923 0
M  V30 70 H 37.420288 25.357656 55.607430 0
M  V30 71 H 38.911161 24.445955 55.535302 0
M  V30 72 H 36.690471 29.771166 54.745034 0
M  V30 73 H 37.936037 30.531905 53.782106 0
M  V30 74 H 39.974839 34.465278 61.216325 0
M  V30 75 H 39.413988 37.929447 61.630792 0
M  V30 76 H 38.937778 36.507435 60.713746 0
M  V30 77 H 36.860706 32.508746 59.505429 0
M  V30 78 H 35.948108 31.137554 58.967816 0
M  V30 79 H 36.965646 29.792437 57.358585 0
M  V30 80 H 42.958707 33.241070 64.958499 0
M  V30 81 H 42.226472 34.101828 66.266460 0
M  V30 82 H 36.947037 36.783579 61.430528 0
M  V30 83 H 37.416870 36.507161 62.955219 0
M  V30 END ATOM
M  V30 BEGIN BOND
M  V30 1 1 6 1
M  V30 2 1 6 5
M  V30 3 2 9 7
M  V30 4 1 13 6
M  V30 5 2 13 8
M  V30 6 1 14 9
M  V30 7 2 15 2
M  V30 8 1 15 14
M  V30 9 1 17 10
M  V30 10 1 17 15
M  V30 11 1 19 9
M  V30 12 2 20 18
M  V30 13 1 21 3
M  V30 14 1 21 11
M  V30 15 1 21 17
M  V30 16 2 22 16
M  V30 17 1 22 18
M  V30 18 1 23 19
M  V30 19 1 24 22
M  V30 20 1 25 3
M  V30 21 1 26 14
M  V30 22 1 28 4
M  V30 23 1 28 25
M  V30 24 1 29 13
M  V30 25 1 30 1
M  V30 26 1 30 27
M  V30 27 1 31 20
M  V30 28 1 32 20
M  V30 29 1 33 12
M  V30 30 1 33 19
M  V30 31 1 34 5
M  V30 32 1 34 23
M  V30 33 1 34 27
M  V30 34 1 35 11
M  V30 35 1 35 16
M  V30 36 1 36 32
M  V30 37 1 37 10
M  V30 38 1 37 16
M  V30 39 2 37 31
M  V30 40 1 38 1
M  V30 41 1 39 1
M  V30 42 1 40 3
M  V30 43 1 41 3
M  V30 44 1 42 4
M  V30 45 1 43 4
M  V30 46 1 44 4
M  V30 47 1 45 5
M  V30 48 1 46 5
M  V30 49 1 6 47 CFG=1
M  V30 50 1 48 10
M  V30 51 1 49 10
M  V30 52 1 50 11
M  V30 53 1 51 11
M  V30 54 1 52 12
M  V30 55 1 53 12
M  V30 56 1 54 12
M  V30 57 1 17 55 CFG=1
M  V30 58 1 56 18
M  V30 59 1 19 57 CFG=1
M  V30 60 1 21 58 CFG=3
M  V30 61 1 59 23
M  V30 62 1 60 23
M  V30 63 1 61 25
M  V30 64 1 62 25
M  V30 65 1 63 26
M  V30 66 1 64 26
M  V30 67 1 65 26
M  V30 68 1 66 27
M  V30 69 1 67 27
M  V30 70 1 68 28
M  V30 71 1 69 28
M  V30 72 1 70 29
M  V30 73 1 71 29
M  V30 74 1 72 30
M  V30 75 1 73 30
M  V30 76 1 74 31
M  V30 77 1 75 32
M  V30 78 1 76 32
M  V30 79 1 77 33
M  V30 80 1 78 33
M  V30 81 1 34 79 CFG=1
M  V30 82 1 80 35
M  V30 83 1 81 35
M  V30 84 1 82 36
M  V30 85 1 83 36
M  V30 END BOND
M  V30 END CTAB
M  END
>  <i_epik_Tot_Q>  (1) 
0

>  <i_epik_Tot_abs_Q>  (1) 
0

>  <i_i_glide_confnum>  (1) 
985

>  <i_i_glide_lignum>  (1) 
13

>  <i_i_glide_posenum>  (1) 
155

>  <i_i_glide_rotatable_bonds>  (1) 
12

>  <i_lp_mmshare_version>  (1) 
72125

>  <i_m_source_file_index>  (1) 
5

>  <i_f3d_flags>  (1) 
0

>  <num_sample>  (1) 
50

>  <b_lp_Chiralities_Consistent>  (1) 
1

>  <r_epik_Charging_Adjusted_Penalty>  (1) 
1.3041598134217376

>  <r_epik_Ionization_Penalty>  (1) 
1.3041598450787459

>  <r_epik_Ionization_Penalty_Charging>  (1) 
0

>  <r_epik_Ionization_Penalty_Neutral>  (1) 
1.3041598450787459

>  <r_epik_State_Penalty>  (1) 
1.3041598134217376

>  <r_glide_ring_energy>  (1) 
0

>  <r_i_docking_score>  (1) 
-4.6133289493891931

>  <r_i_glide_ecoul>  (1) 
0.87965311235817312

>  <r_i_glide_eff_state_penalty>  (1) 
1.3041598134217376

>  <r_i_glide_einternal>  (1) 
11.068769214717712

>  <r_i_glide_emodel>  (1) 
-56.734877099322055

>  <r_i_glide_emodel_strain>  (1) 
0.37968843418259013

>  <r_i_glide_energy>  (1) 
-46.59377654101263

>  <r_i_glide_erotb>  (1) 
0.6172515797735002

>  <r_i_glide_esite>  (1) 
-0.06382683795108357

>  <r_i_glide_evdw>  (1) 
-47.4734296533708

>  <r_i_glide_gscore>  (1) 
-5.9174887628109305

>  <r_i_glide_gscore_strain>  (1) 
0

>  <r_i_glide_hbond>  (1) 
-0.32000000000000001

>  <r_i_glide_ligand_efficiency>  (1) 
-0.12468456619970793

>  <r_i_glide_ligand_efficiency_ln>  (1) 
-1.0005228973472631

>  <r_i_glide_ligand_efficiency_sa>  (1) 
-0.41547663605366325

>  <r_i_glide_lipo>  (1) 
-2.9144713364325967

>  <r_i_glide_metal>  (1) 
-0

>  <r_i_glide_rewards>  (1) 
-0.99471865238593549

>  <r_lp_Energy>  (1) 
61.762789999999995

>  <r_lp_tautomer_probability>  (1) 
0.99980002999550088

>  <s_epik_cmdline>  (1) 
J2VwaWtfcHl0aG9uJywgJy1waHQnLCAnMS4wJywgJy1waCcsICc3LjQnLCAnLXRuJywgJzgnLCAnLW1hJywgJzUwMCcsICctaW1hZScsICc8aW5maWxlLm1hZT4nLCAnLW9tYWUnLCAnPG91dGZpbGUubWFlPic=

>  <s_epik_input>  (1) 
Tz1DKFtOSDJdKVtDQEBIXTFbQ0gyXVtDSDJdW0NIMl1bQ0BASF0oW0NIMl0xKVtDSDJdW0NASF0oW0NIMl1bQ0gzXSlDKD1PKU4oW0NIM10pQyg9TylbQ0BASF0oW0NAQEhdKFtDSDJdW0NIMl0yKVtDSDJdW0NIMl1bQ0gyXVtDSDNdKVtDSDJdYyhjMjMpW2NIXWMoW2NIXWMzRilbQ0gyXVtOSDJd

>  <s_glide_docking_method>  (1) 
confgen

>  <s_i_glide_gridfile>  (1) 
gpcr_5ht2c_6bqh_protein_autoprepared_prepared

>  <s_lp_Force_Field>  (1) 
S-OPLS

>  <s_lp_Variant>  (1) 
DiffSBDD_4-2

>  <s_m_source_file>  (1) 
generated_GPCR_5HT2C_ligand_DiffSBDD_2026-06-23_prepared.sdf

>  <GenAI_Model>  (1) 
DiffSBDD

>  <Protein>  (1) 
GPCR_5HT2C

$$$$
DiffSBDD_5
     RDKit          3D

  0  0  0  0  0  0  0  0  0  0999 V3000
M  V30 BEGIN CTAB
M  V30 COUNTS 56 58 0 0 1
M  V30 BEGIN ATOM
M  V30 1 O 37.299069 28.341668 57.556950 0
M  V30 2 C 39.177477 28.413966 58.973620 0
M  V30 3 C 38.673010 28.039903 57.537174 0 CFG=1
M  V30 4 O 38.445141 33.423818 55.508720 0
M  V30 5 C 39.742102 31.309218 61.448864 0 CFG=1
M  V30 6 C 38.044665 24.331708 58.059473 0
M  V30 7 C 37.997919 30.856238 54.615735 0
M  V30 8 O 40.002344 26.537731 54.336223 0
M  V30 9 C 37.835309 26.608858 53.391381 0
M  V30 10 C 39.612308 30.290696 56.428856 0
M  V30 11 C 40.725366 30.218147 61.128471 0
M  V30 12 O 36.845155 26.113829 55.923354 0
M  V30 13 C 39.248338 29.944790 61.016095 0 CFG=2
M  V30 14 C 38.654817 29.738754 59.634361 0 CFG=2
M  V30 15 C 38.363203 31.110427 56.091571 0 CFG=1
M  V30 16 C 38.802602 26.502989 57.222063 0 CFG=1
M  V30 17 C 38.683084 26.948606 54.635033 0 CFG=2
M  V30 18 O 37.236842 29.737728 59.767665 0
M  V30 19 O 39.645019 31.541013 62.836857 0
M  V30 20 O 38.250272 25.723714 58.285685 0
M  V30 21 C 36.649351 31.030462 59.851563 0
M  V30 22 C 38.665993 28.432685 55.017380 0
M  V30 23 C 38.055768 29.377696 54.257193 0
M  V30 24 C 39.368037 28.776889 56.335114 0 CFG=2
M  V30 25 C 38.243489 26.070419 55.830685 0 CFG=2
M  V30 26 C 38.566278 32.596033 56.437729 0
M  V30 27 O 38.845132 32.867750 57.628033 0 CHG=-1
M  V30 28 H 37.163449 29.066424 58.160603 0
M  V30 29 H 38.908049 27.614085 59.663282 0
M  V30 30 H 40.267371 28.414368 58.959176 0
M  V30 31 H 39.641806 32.178012 60.799578 0
M  V30 32 H 37.645168 23.887397 58.967738 0
M  V30 33 H 37.291010 24.113647 57.305506 0
M  V30 34 H 38.968453 23.829353 57.767759 0
M  V30 35 H 38.668616 31.391785 53.941416 0
M  V30 36 H 36.990463 31.229283 54.427052 0
M  V30 37 H 40.250489 26.929818 53.513790 0
M  V30 38 H 36.844945 27.058951 53.435306 0
M  V30 39 H 38.303156 26.922251 52.457074 0
M  V30 40 H 37.645128 25.541388 53.367773 0
M  V30 41 H 40.045137 30.543359 57.379224 0
M  V30 42 H 40.377767 30.557390 55.697986 0
M  V30 43 H 41.246528 29.718326 61.942603 0
M  V30 44 H 41.245144 30.265074 60.177688 0
M  V30 45 H 36.641177 26.895619 56.428335 0
M  V30 46 H 38.845138 29.289570 61.786325 0
M  V30 47 H 38.928170 30.600579 59.038989 0
M  V30 48 H 37.535522 30.776106 56.714623 0
M  V30 49 H 39.867148 26.262403 57.216157 0
M  V30 50 H 40.304952 32.169860 63.085949 0
M  V30 51 H 35.568635 30.937782 59.945623 0
M  V30 52 H 37.010759 31.584784 60.717338 0
M  V30 53 H 36.849180 31.618133 58.956218 0
M  V30 54 H 37.571952 29.097896 53.336712 0
M  V30 55 H 40.372503 28.356695 56.264171 0
M  V30 56 H 38.519811 25.038591 55.607506 0
M  V30 END ATOM
M  V30 BEGIN BOND
M  V30 1 1 3 1 CFG=1
M  V30 2 1 3 2
M  V30 3 1 11 5
M  V30 4 1 13 5
M  V30 5 1 13 11
M  V30 6 1 14 2
M  V30 7 1 14 13
M  V30 8 1 15 7
M  V30 9 1 15 10
M  V30 10 1 16 3
M  V30 11 1 17 8 CFG=3
M  V30 12 1 17 9
M  V30 13 1 18 14
M  V30 14 1 19 5
M  V30 15 1 20 6
M  V30 16 1 20 16
M  V30 17 1 21 18
M  V30 18 1 22 17
M  V30 19 1 23 7
M  V30 20 2 23 22
M  V30 21 1 24 3
M  V30 22 1 24 10
M  V30 23 1 24 22
M  V30 24 1 25 12
M  V30 25 1 25 16
M  V30 26 1 25 17
M  V30 27 2 26 4
M  V30 28 1 26 15
M  V30 29 1 27 26
M  V30 30 1 28 1
M  V30 31 1 29 2
M  V30 32 1 30 2
M  V30 33 1 5 31 CFG=3
M  V30 34 1 32 6
M  V30 35 1 33 6
M  V30 36 1 34 6
M  V30 37 1 35 7
M  V30 38 1 36 7
M  V30 39 1 37 8
M  V30 40 1 38 9
M  V30 41 1 39 9
M  V30 42 1 40 9
M  V30 43 1 41 10
M  V30 44 1 42 10
M  V30 45 1 43 11
M  V30 46 1 44 11
M  V30 47 1 45 12
M  V30 48 1 13 46 CFG=1
M  V30 49 1 14 47 CFG=3
M  V30 50 1 15 48 CFG=1
M  V30 51 1 16 49 CFG=3
M  V30 52 1 50 19
M  V30 53 1 51 21
M  V30 54 1 52 21
M  V30 55 1 53 21
M  V30 56 1 54 23
M  V30 57 1 24 55 CFG=3
M  V30 58 1 25 56 CFG=3
M  V30 END BOND
M  V30 END CTAB
M  END
>  <i_epik_Tot_Q>  (1) 
-1

>  <i_epik_Tot_abs_Q>  (1) 
1

>  <i_i_glide_confnum>  (1) 
26

>  <i_i_glide_lignum>  (1) 
14

>  <i_i_glide_posenum>  (1) 
374

>  <i_i_glide_rotatable_bonds>  (1) 
10

>  <i_lp_mmshare_version>  (1) 
72125

>  <i_m_source_file_index>  (1) 
6

>  <i_f3d_flags>  (1) 
0

>  <num_sample>  (1) 
50

>  <b_lp_Chiralities_Consistent>  (1) 
1

>  <r_epik_Charging_Adjusted_Penalty>  (1) 
0.00069514942646818579

>  <r_epik_Ionization_Penalty>  (1) 
0.00069544814870727001

>  <r_epik_Ionization_Penalty_Charging>  (1) 
0.00069514942646818579

>  <r_epik_Ionization_Penalty_Neutral>  (1) 
2.9872223908425859e-07

>  <r_epik_State_Penalty>  (1) 
-0

>  <r_glide_ring_energy>  (1) 
0

>  <r_i_docking_score>  (1) 
-4.6000441641976177

>  <r_i_glide_ecoul>  (1) 
0.67298730902230774

>  <r_i_glide_eff_state_penalty>  (1) 
-0

>  <r_i_glide_einternal>  (1) 
4.2314520479764699

>  <r_i_glide_emodel>  (1) 
-28.356934310994927

>  <r_i_glide_emodel_strain>  (1) 
2.683887757004733

>  <r_i_glide_energy>  (1) 
-24.635649935260993

>  <r_i_glide_erotb>  (1) 
0.39282459937787173

>  <r_i_glide_esite>  (1) 
-0.05080331833968206

>  <r_i_glide_evdw>  (1) 
-25.3086372442833

>  <r_i_glide_gscore>  (1) 
-4.6000441641976177

>  <r_i_glide_gscore_strain>  (1) 
0

>  <r_i_glide_hbond>  (1) 
0

>  <r_i_glide_ligand_efficiency>  (1) 
-0.17037200608139325

>  <r_i_glide_ligand_efficiency_ln>  (1) 
-1.0708144437701239

>  <r_i_glide_ligand_efficiency_sa>  (1) 
-0.51111601824417985

>  <r_i_glide_lipo>  (1) 
-2.65844578376639

>  <r_i_glide_metal>  (1) 
-0

>  <r_i_glide_rewards>  (1) 
-1.1191358956085979

>  <r_lp_Energy>  (1) 
23.796561000000001

>  <r_lp_tautomer_probability>  (1) 
1

>  <s_epik_cmdline>  (1) 
J2VwaWtfcHl0aG9uJywgJy1waHQnLCAnMS4wJywgJy1waCcsICc3LjQnLCAnLXRuJywgJzgnLCAnLW1hJywgJzUwMCcsICctaW1hZScsICc8aW5maWxlLm1hZT4nLCAnLW9tYWUnLCAnPG91dGZpbGUubWFlPic=

>  <s_epik_input>  (1) 
Tz1DKFtPSF0pW0NAQEhdKFtDSDJdW0NIXTEpW0NIMl1bQ0BIXShDPTEyKVtDQEBdKFtPSF0pKFtDQEBIXShPW0NIM10pW0NAQEhdKFtPSF0pW0NAQF0yKFtPSF0pW0NIM10pW0NIMl1bQ0BASF0oT1tDSDNdKVtDQEhdM1tDSDJdW0NAQEhdM1tPSF0=

>  <s_glide_docking_method>  (1) 
confgen

>  <s_i_glide_gridfile>  (1) 
gpcr_5ht2c_6bqh_protein_autoprepared_prepared

>  <s_lp_Force_Field>  (1) 
S-OPLS

>  <s_lp_Variant>  (1) 
DiffSBDD_5-1

>  <s_m_source_file>  (1) 
generated_GPCR_5HT2C_ligand_DiffSBDD_2026-06-23_prepared.sdf

>  <GenAI_Model>  (1) 
DiffSBDD

>  <Protein>  (1) 
GPCR_5HT2C

$$$$
DiffSBDD_20
     RDKit          3D

  0  0  0  0  0  0  0  0  0  0999 V3000
M  V30 BEGIN CTAB
M  V30 COUNTS 27 26 0 0 1
M  V30 BEGIN ATOM
M  V30 1 C 38.698671 28.980070 52.282690 0 CFG=2
M  V30 2 C 40.096394 29.559953 49.909238 0
M  V30 3 N 37.645143 32.808464 57.737702 0 CHG=1
M  V30 4 C 38.290611 30.876564 56.325985 0
M  V30 5 C 39.461925 30.188085 52.881858 0
M  V30 6 O 37.245151 28.095279 53.977203 0
M  V30 7 C 38.277226 27.944738 53.325431 0
M  V30 8 C 38.512228 32.370006 56.634509 0
M  V30 9 S 39.645154 28.156657 50.967910 0
M  V30 10 C 38.741589 30.958244 53.993698 0
M  V30 11 O 39.096555 30.412219 55.254451 0
M  V30 12 H 37.780600 29.337665 51.821432 0
M  V30 13 H 40.434904 29.207733 48.937553 0
M  V30 14 H 39.245542 30.225725 49.767681 0
M  V30 15 H 40.912143 30.130042 50.354750 0
M  V30 16 H 37.687169 33.811504 57.845642 0
M  V30 17 H 36.684984 32.537746 57.482010 0
M  V30 18 H 37.245106 30.665926 56.107378 0
M  V30 19 H 38.544238 30.284501 57.205758 0
M  V30 20 H 40.445150 29.888942 53.229181 0
M  V30 21 H 39.645120 30.912873 52.090772 0
M  V30 22 H 38.943002 27.088423 53.438767 0
M  V30 23 H 39.555318 32.564858 56.884539 0
M  V30 24 H 38.262093 32.988845 55.773096 0
M  V30 25 H 39.055103 32.001054 53.955609 0
M  V30 26 H 37.662416 30.940671 53.834274 0
M  V30 27 H 37.895539 32.348278 58.599465 0
M  V30 END ATOM
M  V30 BEGIN BOND
M  V30 1 1 5 1
M  V30 2 1 7 1
M  V30 3 2 7 6
M  V30 4 1 8 3
M  V30 5 1 8 4
M  V30 6 1 9 1
M  V30 7 1 9 2
M  V30 8 1 10 5
M  V30 9 1 11 4
M  V30 10 1 11 10
M  V30 11 1 1 12 CFG=3
M  V30 12 1 13 2
M  V30 13 1 14 2
M  V30 14 1 15 2
M  V30 15 1 16 3
M  V30 16 1 17 3
M  V30 17 1 18 4
M  V30 18 1 19 4
M  V30 19 1 20 5
M  V30 20 1 21 5
M  V30 21 1 22 7
M  V30 22 1 23 8
M  V30 23 1 24 8
M  V30 24 1 25 10
M  V30 25 1 26 10
M  V30 26 1 27 3
M  V30 END BOND
M  V30 END CTAB
M  END
>  <i_epik_Tot_Q>  (1) 
1

>  <i_epik_Tot_abs_Q>  (1) 
1

>  <i_i_glide_confnum>  (1) 
50

>  <i_i_glide_lignum>  (1) 
47

>  <i_i_glide_posenum>  (1) 
5

>  <i_i_glide_rotatable_bonds>  (1) 
7

>  <i_lp_mmshare_version>  (1) 
72125

>  <i_m_source_file_index>  (1) 
21

>  <i_f3d_flags>  (1) 
0

>  <num_sample>  (1) 
50

>  <b_lp_Chiralities_Consistent>  (1) 
1

>  <r_epik_Charging_Adjusted_Penalty>  (1) 
0.011277259608130119

>  <r_epik_Ionization_Penalty>  (1) 
0.0057709472056282005

>  <r_epik_Ionization_Penalty_Charging>  (1) 
0.0056386298040651114

>  <r_epik_Ionization_Penalty_Neutral>  (1) 
0.00013231740156308916

>  <r_epik_State_Penalty>  (1) 
0.0056386298040650073

>  <r_glide_ring_energy>  (1) 
0

>  <r_i_docking_score>  (1) 
-4.5936049101236902

>  <r_i_glide_ecoul>  (1) 
-5.6659304757640143

>  <r_i_glide_eff_state_penalty>  (1) 
0.0056386298040650073

>  <r_i_glide_einternal>  (1) 
6.8239639769113003

>  <r_i_glide_emodel>  (1) 
-36.071403632145987

>  <r_i_glide_emodel_strain>  (1) 
0.41731080859564385

>  <r_i_glide_energy>  (1) 
-28.082962113484285

>  <r_i_glide_erotb>  (1) 
1.9754277914378024

>  <r_i_glide_esite>  (1) 
-0.10000000000000001

>  <r_i_glide_evdw>  (1) 
-22.417031637720271

>  <r_i_glide_gscore>  (1) 
-4.5992435399277554

>  <r_i_glide_gscore_strain>  (1) 
0

>  <r_i_glide_hbond>  (1) 
-0.20000000000000001

>  <r_i_glide_ligand_efficiency>  (1) 
-0.41760044637488092

>  <r_i_glide_ligand_efficiency_ln>  (1) 
-1.3518971425922086

>  <r_i_glide_ligand_efficiency_sa>  (1) 
-0.92873507855059434

>  <r_i_glide_lipo>  (1) 
-1.3899286673604299

>  <r_i_glide_metal>  (1) 
-0

>  <r_i_glide_rewards>  (1) 
-2.9140015107545114

>  <r_lp_Energy>  (1) 
-0.62655099999999997

>  <r_lp_tautomer_probability>  (1) 
0.99990000499974985

>  <s_epik_cmdline>  (1) 
J2VwaWtfcHl0aG9uJywgJy1waHQnLCAnMS4wJywgJy1waCcsICc3LjQnLCAnLXRuJywgJzgnLCAnLW1hJywgJzUwMCcsICctaW1hZScsICc8aW5maWxlLm1hZT4nLCAnLW9tYWUnLCAnPG91dGZpbGUubWFlPic=

>  <s_epik_input>  (1) 
W0NIM11TW0NAQEhdKFtDSF09TylbQ0gyXVtDSDJdT1tDSDJdW0NIMl1bTkgyXQ==

>  <s_glide_docking_method>  (1) 
confgen

>  <s_i_glide_gridfile>  (1) 
gpcr_5ht2c_6bqh_protein_autoprepared_prepared

>  <s_lp_Force_Field>  (1) 
S-OPLS

>  <s_lp_Variant>  (1) 
DiffSBDD_20-1

>  <s_m_source_file>  (1) 
generated_GPCR_5HT2C_ligand_DiffSBDD_2026-06-23_prepared.sdf

>  <GenAI_Model>  (1) 
DiffSBDD

>  <Protein>  (1) 
GPCR_5HT2C

$$$$
DiffSBDD_25
     RDKit          3D

  0  0  0  0  0  0  0  0  0  0999 V3000
M  V30 BEGIN CTAB
M  V30 COUNTS 36 36 0 0 1
M  V30 BEGIN ATOM
M  V30 1 C 38.175438 30.442284 55.004717 0
M  V30 2 O 36.139886 31.452745 61.367758 0
M  V30 3 C 36.234258 32.359321 60.537816 0
M  V30 4 C 38.849387 29.919459 53.727260 0
M  V30 5 C 38.409202 30.779323 58.161338 0
M  V30 6 C 38.285954 31.385558 59.570384 0
M  V30 7 C 35.193277 33.481770 60.519398 0
M  V30 8 C 38.310776 28.350726 51.808567 0
M  V30 9 C 37.983159 33.097475 57.330635 0
M  V30 10 N 37.237719 32.417747 59.620548 0
M  V30 11 C 38.451893 31.860706 57.096939 0
M  V30 12 C 39.551324 28.696048 51.006565 0
M  V30 13 C 38.001431 28.886957 53.004459 0
M  V30 14 C 37.356010 33.527133 58.648243 0
M  V30 15 C 39.049993 31.458563 55.758802 0
M  V30 16 H 37.949942 29.596013 55.653901 0
M  V30 17 H 37.217244 30.904752 54.759829 0
M  V30 18 H 39.066805 30.750281 53.055214 0
M  V30 19 H 39.802652 29.461059 53.985701 0
M  V30 20 H 37.556456 30.130157 57.956567 0
M  V30 21 H 39.305377 30.161566 58.102270 0
M  V30 22 H 38.139240 30.579532 60.290764 0
M  V30 23 H 39.228228 31.860892 59.845207 0
M  V30 24 H 34.591384 33.436729 59.610701 0
M  V30 25 H 34.513792 33.374008 61.365363 0
M  V30 26 H 35.663764 34.461984 60.595454 0
M  V30 27 H 37.645320 27.622514 51.367981 0
M  V30 28 H 38.027868 33.843915 56.551240 0
M  V30 29 H 39.265189 29.185855 50.076213 0
M  V30 30 H 40.238463 29.351298 51.539842 0
M  V30 31 H 40.086782 27.781671 50.750567 0
M  V30 32 H 37.093981 28.576501 53.502653 0
M  V30 33 H 37.949374 34.329119 59.087409 0
M  V30 34 H 36.393158 33.950562 58.365872 0
M  V30 35 H 39.190383 32.345099 55.139454 0
M  V30 36 H 40.043841 31.046652 55.934698 0
M  V30 END ATOM
M  V30 BEGIN BOND
M  V30 1 2 3 2
M  V30 2 1 4 1
M  V30 3 1 6 5
M  V30 4 1 7 3
M  V30 5 1 10 3
M  V30 6 1 10 6
M  V30 7 1 11 5
M  V30 8 2 11 9
M  V30 9 1 12 8
M  V30 10 1 13 4
M  V30 11 2 13 8
M  V30 12 1 14 9
M  V30 13 1 14 10
M  V30 14 1 15 1
M  V30 15 1 15 11
M  V30 16 1 16 1
M  V30 17 1 17 1
M  V30 18 1 18 4
M  V30 19 1 19 4
M  V30 20 1 20 5
M  V30 21 1 21 5
M  V30 22 1 22 6
M  V30 23 1 23 6
M  V30 24 1 24 7
M  V30 25 1 25 7
M  V30 26 1 26 7
M  V30 27 1 27 8
M  V30 28 1 28 9
M  V30 29 1 29 12
M  V30 30 1 30 12
M  V30 31 1 31 12
M  V30 32 1 32 13
M  V30 33 1 33 14
M  V30 34 1 34 14
M  V30 35 1 35 15
M  V30 36 1 36 15
M  V30 END BOND
M  V30 END CTAB
M  END
>  <i_epik_Tot_Q>  (1) 
0

>  <i_epik_Tot_abs_Q>  (1) 
0

>  <i_i_glide_confnum>  (1) 
43

>  <i_i_glide_lignum>  (1) 
55

>  <i_i_glide_posenum>  (1) 
373

>  <i_i_glide_rotatable_bonds>  (1) 
5

>  <i_lp_mmshare_version>  (1) 
72125

>  <i_m_source_file_index>  (1) 
26

>  <i_f3d_flags>  (1) 
0

>  <num_sample>  (1) 
50

>  <b_lp_Chiralities_Consistent>  (1) 
1

>  <r_epik_Charging_Adjusted_Penalty>  (1) 
0

>  <r_epik_Ionization_Penalty>  (1) 
4.9398685500853885e-07

>  <r_epik_Ionization_Penalty_Charging>  (1) 
0

>  <r_epik_Ionization_Penalty_Neutral>  (1) 
4.9398685500853885e-07

>  <r_epik_State_Penalty>  (1) 
-0

>  <r_glide_ring_energy>  (1) 
0

>  <r_i_docking_score>  (1) 
-4.5849903562436989

>  <r_i_glide_ecoul>  (1) 
-4.0943134536948103

>  <r_i_glide_eff_state_penalty>  (1) 
-0

>  <r_i_glide_einternal>  (1) 
4.7208975246121971

>  <r_i_glide_emodel>  (1) 
-35.355582300680737

>  <r_i_glide_emodel_strain>  (1) 
0

>  <r_i_glide_energy>  (1) 
-29.700783289301281

>  <r_i_glide_erotb>  (1) 
1.5381532010122589

>  <r_i_glide_esite>  (1) 
-0.095202165162039221

>  <r_i_glide_evdw>  (1) 
-25.606469835606472

>  <r_i_glide_gscore>  (1) 
-4.5849903562436989

>  <r_i_glide_gscore_strain>  (1) 
0

>  <r_i_glide_hbond>  (1) 
-0.32000000000000001

>  <r_i_glide_ligand_efficiency>  (1) 
-0.30566602374957991

>  <r_i_glide_ligand_efficiency_ln>  (1) 
-1.2364963006382224

>  <r_i_glide_ligand_efficiency_sa>  (1) 
-0.75383723848379836

>  <r_i_glide_lipo>  (1) 
-1.285137889526851

>  <r_i_glide_metal>  (1) 
-0

>  <r_i_glide_rewards>  (1) 
-2.5283329927325218

>  <r_lp_Energy>  (1) 
14.880616

>  <r_lp_tautomer_probability>  (1) 
1

>  <s_epik_cmdline>  (1) 
J2VwaWtfcHl0aG9uJywgJy1waHQnLCAnMS4wJywgJy1waCcsICc3LjQnLCAnLXRuJywgJzgnLCAnLW1hJywgJzUwMCcsICctaW1hZScsICc8aW5maWxlLm1hZT4nLCAnLW9tYWUnLCAnPG91dGZpbGUubWFlPic=

>  <s_epik_input>  (1) 
W0NIM10vW0NIXT1bQ0hdXFtDSDJdW0NIMl1bQ0gyXUMoPVtDSF1bQ0gyXTEpW0NIMl1bQ0gyXU4xQyg9TylbQ0gzXQ==

>  <s_glide_docking_method>  (1) 
confgen

>  <s_i_glide_gridfile>  (1) 
gpcr_5ht2c_6bqh_protein_autoprepared_prepared

>  <s_lp_Force_Field>  (1) 
S-OPLS

>  <s_lp_Variant>  (1) 
DiffSBDD_25-2

>  <s_m_source_file>  (1) 
generated_GPCR_5HT2C_ligand_DiffSBDD_2026-06-23_prepared.sdf

>  <GenAI_Model>  (1) 
DiffSBDD

>  <Protein>  (1) 
GPCR_5HT2C

$$$$
DiffSBDD_25
     RDKit          3D

  0  0  0  0  0  0  0  0  0  0999 V3000
M  V30 BEGIN CTAB
M  V30 COUNTS 36 36 0 0 1
M  V30 BEGIN ATOM
M  V30 1 C 38.302104 29.795240 54.539206 0
M  V30 2 O 36.253560 31.337757 60.864028 0
M  V30 3 C 36.675335 32.099836 59.989644 0
M  V30 4 C 38.741013 28.986279 53.304856 0
M  V30 5 C 38.466125 32.065272 56.790012 0
M  V30 6 C 38.271921 32.722036 58.173953 0
M  V30 7 C 35.997225 33.457605 59.776583 0
M  V30 8 C 39.609924 29.737756 51.055096 0
M  V30 9 C 38.935036 29.938290 58.020360 0
M  V30 10 N 37.736429 31.789151 59.191298 0
M  V30 11 C 38.944381 30.627295 56.866953 0
M  V30 12 C 40.548114 30.505055 50.151046 0
M  V30 13 C 39.680863 29.754337 52.395937 0
M  V30 14 C 38.442306 30.504610 59.340705 0
M  V30 15 C 39.434834 30.016400 55.562904 0
M  V30 16 H 37.489282 29.258295 55.030037 0
M  V30 17 H 37.881806 30.751497 54.224382 0
M  V30 18 H 39.236354 28.068121 53.622267 0
M  V30 19 H 37.863035 28.680514 52.733905 0
M  V30 20 H 39.179768 32.652848 56.211740 0
M  V30 21 H 37.533948 32.083678 56.228930 0
M  V30 22 H 39.245093 33.049414 58.541295 0
M  V30 23 H 37.705754 33.638414 58.021728 0
M  V30 24 H 36.689948 34.279703 59.956970 0
M  V30 25 H 35.587700 33.538628 58.769158 0
M  V30 26 H 35.165959 33.571659 60.472851 0
M  V30 27 H 38.845131 29.150806 50.567767 0
M  V30 28 H 39.287475 28.917266 58.035895 0
M  V30 29 H 40.959627 29.844223 49.388640 0
M  V30 30 H 40.009314 31.311609 49.653418 0
M  V30 31 H 41.376118 30.937756 50.712372 0
M  V30 32 H 40.445143 30.341486 52.879628 0
M  V30 33 H 37.795733 29.742990 59.779878 0
M  V30 34 H 39.288039 30.631559 60.016482 0
M  V30 35 H 40.208910 30.662247 55.148018 0
M  V30 36 H 39.917802 29.062289 55.778021 0
M  V30 END ATOM
M  V30 BEGIN BOND
M  V30 1 2 3 2
M  V30 2 1 4 1
M  V30 3 1 6 5
M  V30 4 1 7 3
M  V30 5 1 10 3
M  V30 6 1 10 6
M  V30 7 1 11 5
M  V30 8 2 11 9
M  V30 9 1 12 8
M  V30 10 1 13 4
M  V30 11 2 13 8
M  V30 12 1 14 9
M  V30 13 1 14 10
M  V30 14 1 15 1
M  V30 15 1 15 11
M  V30 16 1 16 1
M  V30 17 1 17 1
M  V30 18 1 18 4
M  V30 19 1 19 4
M  V30 20 1 20 5
M  V30 21 1 21 5
M  V30 22 1 22 6
M  V30 23 1 23 6
M  V30 24 1 24 7
M  V30 25 1 25 7
M  V30 26 1 26 7
M  V30 27 1 27 8
M  V30 28 1 28 9
M  V30 29 1 29 12
M  V30 30 1 30 12
M  V30 31 1 31 12
M  V30 32 1 32 13
M  V30 33 1 33 14
M  V30 34 1 34 14
M  V30 35 1 35 15
M  V30 36 1 36 15
M  V30 END BOND
M  V30 END CTAB
M  END
>  <i_epik_Tot_Q>  (1) 
0

>  <i_epik_Tot_abs_Q>  (1) 
0

>  <i_i_glide_confnum>  (1) 
91

>  <i_i_glide_lignum>  (1) 
54

>  <i_i_glide_posenum>  (1) 
222

>  <i_i_glide_rotatable_bonds>  (1) 
5

>  <i_lp_mmshare_version>  (1) 
72125

>  <i_m_source_file_index>  (1) 
26

>  <i_f3d_flags>  (1) 
0

>  <num_sample>  (1) 
50

>  <b_lp_Chiralities_Consistent>  (1) 
1

>  <r_epik_Charging_Adjusted_Penalty>  (1) 
0

>  <r_epik_Ionization_Penalty>  (1) 
4.9398685500853885e-07

>  <r_epik_Ionization_Penalty_Charging>  (1) 
0

>  <r_epik_Ionization_Penalty_Neutral>  (1) 
4.9398685500853885e-07

>  <r_epik_State_Penalty>  (1) 
-0

>  <r_glide_ring_energy>  (1) 
0.0018408793270619076

>  <r_i_docking_score>  (1) 
-4.5741884166238407

>  <r_i_glide_ecoul>  (1) 
-2.6493640764183937

>  <r_i_glide_eff_state_penalty>  (1) 
-0

>  <r_i_glide_einternal>  (1) 
1.3344317257482432

>  <r_i_glide_emodel>  (1) 
-35.284237817478697

>  <r_i_glide_emodel_strain>  (1) 
0.06788182393113118

>  <r_i_glide_energy>  (1) 
-28.06194046474991

>  <r_i_glide_erotb>  (1) 
1.5381532010122589

>  <r_i_glide_esite>  (1) 
-0.12471537526360894

>  <r_i_glide_evdw>  (1) 
-25.412576388331516

>  <r_i_glide_gscore>  (1) 
-4.5741884166238407

>  <r_i_glide_gscore_strain>  (1) 
0

>  <r_i_glide_hbond>  (1) 
-0.19640267100828596

>  <r_i_glide_ligand_efficiency>  (1) 
-0.30494589444158937

>  <r_i_glide_ligand_efficiency_ln>  (1) 
-1.233583195627765

>  <r_i_glide_ligand_efficiency_sa>  (1) 
-0.75206124688935283

>  <r_i_glide_lipo>  (1) 
-1.5356018025421556

>  <r_i_glide_metal>  (1) 
-0

>  <r_i_glide_rewards>  (1) 
-2.587588337942714

>  <r_lp_Energy>  (1) 
13.51521

>  <r_lp_tautomer_probability>  (1) 
1

>  <s_epik_cmdline>  (1) 
J2VwaWtfcHl0aG9uJywgJy1waHQnLCAnMS4wJywgJy1waCcsICc3LjQnLCAnLXRuJywgJzgnLCAnLW1hJywgJzUwMCcsICctaW1hZScsICc8aW5maWxlLm1hZT4nLCAnLW9tYWUnLCAnPG91dGZpbGUubWFlPic=

>  <s_epik_input>  (1) 
W0NIM10vW0NIXT1bQ0hdL1tDSDJdW0NIMl1bQ0gyXUMoPVtDSF1bQ0gyXTEpW0NIMl1bQ0gyXU4xQyg9TylbQ0gzXQ==

>  <s_glide_docking_method>  (1) 
confgen

>  <s_i_glide_gridfile>  (1) 
gpcr_5ht2c_6bqh_protein_autoprepared_prepared

>  <s_lp_Force_Field>  (1) 
S-OPLS

>  <s_lp_Variant>  (1) 
DiffSBDD_25-1

>  <s_m_source_file>  (1) 
generated_GPCR_5HT2C_ligand_DiffSBDD_2026-06-23_prepared.sdf

>  <GenAI_Model>  (1) 
DiffSBDD

>  <Protein>  (1) 
GPCR_5HT2C

$$$$
DiffSBDD_34
     RDKit          3D

  0  0  0  0  0  0  0  0  0  0999 V3000
M  V30 BEGIN CTAB
M  V30 COUNTS 82 85 0 0 1
M  V30 BEGIN ATOM
M  V30 1 C 39.572074 27.903193 54.841682 0
M  V30 2 C 40.852045 34.417388 61.843530 0 CFG=1
M  V30 3 C 37.910578 29.152640 59.161545 0
M  V30 4 C 37.692539 28.336876 57.859987 0
M  V30 5 O 38.047648 33.226241 56.419427 0
M  V30 6 C 40.151674 33.145082 61.296945 0
M  V30 7 O 38.444153 31.208412 57.423696 0
M  V30 8 C 39.471778 31.634663 55.299956 0 CFG=1
M  V30 9 C 40.194309 27.856839 57.920023 0 CFG=2
M  V30 10 C 39.892026 35.516211 62.236529 0
M  V30 11 C 37.742007 31.640018 58.574670 0 CFG=2
M  V30 12 C 38.043106 28.722867 53.062545 0
M  V30 13 O 39.614347 25.495700 55.988356 0
M  V30 14 C 39.436567 30.390899 54.375904 0 CFG=2
M  V30 15 O 35.718695 30.253662 58.967757 0
M  V30 16 C 44.721533 24.824248 59.253169 0
M  V30 17 O 37.336346 26.537670 55.543096 0
M  V30 18 N 38.845063 31.873820 59.696206 0 CHG=1
M  V30 19 C 39.224089 33.244127 60.062097 0
M  V30 20 C 41.189268 26.737685 58.167748 0 CFG=2
M  V30 21 S 38.749412 26.681137 55.915241 0
M  V30 22 O 42.523250 26.937739 58.593841 0
M  V30 23 C 38.741127 31.648160 53.969403 0
M  V30 24 C 38.936838 28.849411 51.829309 0
M  V30 25 C 38.992965 36.096607 61.367978 0
M  V30 26 S 38.024743 37.289898 62.149449 0
M  V30 27 C 39.810439 36.098040 63.550352 0
M  V30 28 O 36.880131 28.346063 52.967787 0
M  V30 29 C 40.465213 27.425312 59.308321 0
M  V30 30 C 43.474418 27.526363 57.755824 0
M  V30 31 C 38.567860 32.109949 56.424658 0
M  V30 32 C 41.838937 34.002136 62.973847 0
M  V30 33 O 45.170048 26.137733 58.967700 0
M  V30 34 N 38.848803 27.519415 57.419509 0
M  V30 35 C 44.754092 26.648255 57.706001 0
M  V30 36 C 38.847342 37.058942 63.649233 0
M  V30 37 C 38.658457 29.074732 54.425313 0 CFG=2
M  V30 38 C 37.067641 30.431208 59.288128 0 CFG=1
M  V30 39 N 41.202722 33.315417 64.117416 0 CHG=1
M  V30 40 H 40.452600 28.257294 55.367703 0
M  V30 41 H 39.927640 27.326412 53.988201 0
M  V30 42 H 41.464634 34.822069 61.036600 0
M  V30 43 H 38.945858 29.434422 59.301364 0
M  V30 44 H 37.691056 28.537828 60.022301 0
M  V30 45 H 36.831772 27.680442 57.970794 0
M  V30 46 H 37.413913 29.010470 57.058386 0
M  V30 47 H 39.566971 32.697463 62.102377 0
M  V30 48 H 40.935774 32.423511 61.062641 0
M  V30 49 H 40.443249 32.119958 55.326692 0
M  V30 50 H 40.553292 28.824523 57.574616 0
M  V30 51 H 37.072739 32.496921 58.458810 0
M  V30 52 H 40.394879 30.236613 53.884048 0
M  V30 53 H 35.541605 30.715213 58.136987 0
M  V30 54 H 45.042862 24.538165 60.255384 0
M  V30 55 H 43.638334 24.755310 59.222931 0
M  V30 56 H 45.130206 24.103079 58.544392 0
M  V30 57 H 38.496642 31.458892 60.547988 0
M  V30 58 H 39.705250 33.737353 59.216327 0
M  V30 59 H 38.305212 33.777618 60.299424 0
M  V30 60 H 40.928306 25.688229 58.068649 0
M  V30 61 H 39.169505 32.137759 53.106079 0
M  V30 62 H 37.651995 31.648371 53.991053 0
M  V30 63 H 39.246631 29.882566 51.671919 0
M  V30 64 H 39.827552 28.231415 51.929943 0
M  V30 65 H 38.393817 28.519114 50.944122 0
M  V30 66 H 38.841901 35.888282 60.320566 0
M  V30 67 H 40.448726 35.792763 64.363650 0
M  V30 68 H 41.008256 28.122613 59.944686 0
M  V30 69 H 39.621840 26.936790 59.768448 0
M  V30 70 H 43.037979 27.714186 56.785426 0
M  V30 71 H 43.698643 28.509234 58.164796 0
M  V30 72 H 42.588313 33.323707 62.567092 0
M  V30 73 H 42.380008 34.864399 63.367642 0
M  V30 74 H 44.695306 25.849944 56.969981 0
M  V30 75 H 45.571947 27.281240 57.367766 0
M  V30 76 H 38.578707 37.647795 64.513846 0
M  V30 77 H 37.832483 29.201795 55.117531 0
M  V30 78 H 36.985986 30.664677 60.351817 0
M  V30 79 H 41.895601 33.137507 64.832309 0
M  V30 80 H 40.473320 33.898529 64.502674 0
M  V30 81 H 40.804215 32.435514 63.822659 0
M  V30 82 H 39.673972 31.363468 59.438124 0
M  V30 END ATOM
M  V30 BEGIN BOND
M  V30 1 1 4 3
M  V30 2 1 6 2
M  V30 3 1 10 2
M  V30 4 1 11 7
M  V30 5 1 14 8
M  V30 6 1 18 11
M  V30 7 1 19 6
M  V30 8 1 19 18
M  V30 9 1 20 9
M  V30 10 1 21 1
M  V30 11 2 21 13
M  V30 12 2 21 17
M  V30 13 1 22 20
M  V30 14 1 23 8
M  V30 15 1 23 14
M  V30 16 1 24 12
M  V30 17 2 25 10
M  V30 18 1 26 25
M  V30 19 1 27 10
M  V30 20 2 28 12
M  V30 21 1 29 9
M  V30 22 1 29 20
M  V30 23 1 30 22
M  V30 24 2 31 5
M  V30 25 1 31 7
M  V30 26 1 31 8
M  V30 27 1 32 2
M  V30 28 1 33 16
M  V30 29 1 34 4
M  V30 30 1 34 9
M  V30 31 1 34 21
M  V30 32 1 35 30
M  V30 33 1 35 33
M  V30 34 1 36 26
M  V30 35 2 36 27
M  V30 36 1 37 1
M  V30 37 1 37 12
M  V30 38 1 37 14
M  V30 39 1 38 3
M  V30 40 1 38 11
M  V30 41 1 38 15
M  V30 42 1 39 32
M  V30 43 1 40 1
M  V30 44 1 41 1
M  V30 45 1 2 42 CFG=3
M  V30 46 1 43 3
M  V30 47 1 44 3
M  V30 48 1 45 4
M  V30 49 1 46 4
M  V30 50 1 47 6
M  V30 51 1 48 6
M  V30 52 1 8 49 CFG=3
M  V30 53 1 9 50 CFG=1
M  V30 54 1 11 51 CFG=3
M  V30 55 1 14 52 CFG=3
M  V30 56 1 53 15
M  V30 57 1 54 16
M  V30 58 1 55 16
M  V30 59 1 56 16
M  V30 60 1 57 18
M  V30 61 1 58 19
M  V30 62 1 59 19
M  V30 63 1 20 60 CFG=3
M  V30 64 1 61 23
M  V30 65 1 62 23
M  V30 66 1 63 24
M  V30 67 1 64 24
M  V30 68 1 65 24
M  V30 69 1 66 25
M  V30 70 1 67 27
M  V30 71 1 68 29
M  V30 72 1 69 29
M  V30 73 1 70 30
M  V30 74 1 71 30
M  V30 75 1 72 32
M  V30 76 1 73 32
M  V30 77 1 74 35
M  V30 78 1 75 35
M  V30 79 1 76 36
M  V30 80 1 37 77 CFG=1
M  V30 81 1 38 78 CFG=1
M  V30 82 1 79 39
M  V30 83 1 80 39
M  V30 84 1 81 39
M  V30 85 1 82 18
M  V30 END BOND
M  V30 END CTAB
M  END
>  <i_epik_Tot_Q>  (1) 
2

>  <i_epik_Tot_abs_Q>  (1) 
2

>  <i_i_glide_confnum>  (1) 
78

>  <i_i_glide_lignum>  (1) 
74

>  <i_i_glide_posenum>  (1) 
21

>  <i_i_glide_rotatable_bonds>  (1) 
13

>  <i_lp_mmshare_version>  (1) 
72125

>  <i_m_source_file_index>  (1) 
35

>  <i_f3d_flags>  (1) 
0

>  <num_sample>  (1) 
50

>  <b_lp_Chiralities_Consistent>  (1) 
1

>  <r_epik_Charging_Adjusted_Penalty>  (1) 
2.3451396311148152

>  <r_epik_Ionization_Penalty>  (1) 
1.1748262987801661

>  <r_epik_Ionization_Penalty_Charging>  (1) 
1.1748152809562251

>  <r_epik_Ionization_Penalty_Neutral>  (1) 
1.1017823941083724e-05

>  <r_epik_State_Penalty>  (1) 
1.1703243501585898

>  <r_glide_ring_energy>  (1) 
0

>  <r_i_docking_score>  (1) 
-4.5705404588551257

>  <r_i_glide_ecoul>  (1) 
-2.5816980529861118

>  <r_i_glide_eff_state_penalty>  (1) 
1.1703243501585898

>  <r_i_glide_einternal>  (1) 
22.665438011405634

>  <r_i_glide_emodel>  (1) 
-27.823589667445518

>  <r_i_glide_emodel_strain>  (1) 
12.602170928783536

>  <r_i_glide_energy>  (1) 
-46.362371115087882

>  <r_i_glide_erotb>  (1) 
0.3736599463562138

>  <r_i_glide_esite>  (1) 
-0.17598389837442727

>  <r_i_glide_evdw>  (1) 
-43.780673062101769

>  <r_i_glide_gscore>  (1) 
-5.7408648090137158

>  <r_i_glide_gscore_strain>  (1) 
2.1505427321958841

>  <r_i_glide_hbond>  (1) 
-0.16

>  <r_i_glide_ligand_efficiency>  (1) 
-0.11719334509884938

>  <r_i_glide_ligand_efficiency_ln>  (1) 
-0.98005361688491455

>  <r_i_glide_ligand_efficiency_sa>  (1) 
-0.39742741294432626

>  <r_i_glide_lipo>  (1) 
-3.9624674681240717

>  <r_i_glide_metal>  (1) 
-0

>  <r_i_glide_rewards>  (1) 
-1.3903277600143094

>  <r_lp_Energy>  (1) 
19.937625000000001

>  <r_lp_tautomer_probability>  (1) 
0.9999999700000004

>  <s_epik_Chemistry_Notes>  (1) 
This compound has an ester and may undergo hydrolysis at high or low pH. This compound contains an acetal/aminal-like group ( X-CH(R)-Y where X, Y are N, S, or O) that may be acid/base labile, releasing an aldehyde.

>  <s_epik_cmdline>  (1) 
J2VwaWtfcHl0aG9uJywgJy1waHQnLCAnMS4wJywgJy1waCcsICc3LjQnLCAnLXRuJywgJzgnLCAnLW1hJywgJzUwMCcsICctaW1hZScsICc8aW5maWxlLm1hZT4nLCAnLW9tYWUnLCAnPG91dGZpbGUubWFlPic=

>  <s_epik_input>  (1) 
W0NIM11PW0NIMl1bQ0gyXU9bQ0BASF0oW0NIMl0xKVtDSF0xTihTKD1PKSg9TylbQ0gyXVtDQEhdKEMoPU8pW0NIM10pW0NASF0oW0NIXTIzKVtDSDJdMilbQ0gyXVtDSDJdW0NASF0oW09IXSlbQ0BIXShPQzM9TylbTkhdW0NIMl1bQ0gyXVtDQEhdKFtDSDJdW05IMl0pYzRbY0hdc1tjSF1bY0hdNA==

>  <s_glide_docking_method>  (1) 
confgen

>  <s_i_glide_gridfile>  (1) 
gpcr_5ht2c_6bqh_protein_autoprepared_prepared

>  <s_lp_Force_Field>  (1) 
S-OPLS

>  <s_lp_Variant>  (1) 
DiffSBDD_34-2

>  <s_m_source_file>  (1) 
generated_GPCR_5HT2C_ligand_DiffSBDD_2026-06-23_prepared.sdf

>  <GenAI_Model>  (1) 
DiffSBDD

>  <Protein>  (1) 
GPCR_5HT2C

$$$$
DiffSBDD_25
     RDKit          3D

  0  0  0  0  0  0  0  0  0  0999 V3000
M  V30 BEGIN CTAB
M  V30 COUNTS 36 36 0 0 1
M  V30 BEGIN ATOM
M  V30 1 C 38.666301 30.793515 54.812525 0
M  V30 2 O 35.956465 31.341784 61.011805 0
M  V30 3 C 36.135738 32.333347 60.304736 0
M  V30 4 C 39.374155 30.567321 53.469643 0
M  V30 5 C 38.609808 31.021661 57.913110 0
M  V30 6 C 38.276561 31.452334 59.356069 0
M  V30 7 C 35.149629 33.495562 60.443112 0
M  V30 8 C 39.598626 28.551967 51.957624 0
M  V30 9 C 38.022678 33.361299 57.248285 0
M  V30 10 N 37.184454 32.438131 59.413886 0
M  V30 11 C 38.594731 32.186463 56.947654 0
M  V30 12 C 39.080442 27.320778 51.247490 0
M  V30 13 C 38.856778 29.334797 52.757389 0
M  V30 14 C 37.305465 33.631050 58.560232 0
M  V30 15 C 39.256328 31.979222 55.592728 0
M  V30 16 H 38.740445 29.889678 55.418977 0
M  V30 17 H 37.603843 30.956422 54.630627 0
M  V30 18 H 39.247482 31.441360 52.829250 0
M  V30 19 H 40.446238 30.445392 53.627445 0
M  V30 20 H 37.889018 30.282644 57.563231 0
M  V30 21 H 39.588836 30.543224 57.886618 0
M  V30 22 H 38.071119 30.564964 59.954791 0
M  V30 23 H 39.154626 31.916490 59.805136 0
M  V30 24 H 35.673211 34.431487 60.639399 0
M  V30 25 H 34.552620 33.603360 59.537421 0
M  V30 26 H 34.465239 33.318586 61.273433 0
M  V30 27 H 40.638726 28.792358 51.790546 0
M  V30 28 H 38.045402 34.168966 56.531656 0
M  V30 29 H 39.191526 27.435081 50.169114 0
M  V30 30 H 39.644415 26.441893 51.560191 0
M  V30 31 H 38.026359 27.148904 51.467853 0
M  V30 32 H 37.816939 29.092301 52.923624 0
M  V30 33 H 37.840839 34.410151 59.102889 0
M  V30 34 H 36.321842 34.032852 58.317046 0
M  V30 35 H 39.164057 32.898877 55.013743 0
M  V30 36 H 40.324945 31.816030 55.739495 0
M  V30 END ATOM
M  V30 BEGIN BOND
M  V30 1 2 3 2
M  V30 2 1 4 1
M  V30 3 1 6 5
M  V30 4 1 7 3
M  V30 5 1 10 3
M  V30 6 1 10 6
M  V30 7 1 11 5
M  V30 8 2 11 9
M  V30 9 1 12 8
M  V30 10 1 13 4
M  V30 11 2 13 8
M  V30 12 1 14 9
M  V30 13 1 14 10
M  V30 14 1 15 1
M  V30 15 1 15 11
M  V30 16 1 16 1
M  V30 17 1 17 1
M  V30 18 1 18 4
M  V30 19 1 19 4
M  V30 20 1 20 5
M  V30 21 1 21 5
M  V30 22 1 22 6
M  V30 23 1 23 6
M  V30 24 1 24 7
M  V30 25 1 25 7
M  V30 26 1 26 7
M  V30 27 1 27 8
M  V30 28 1 28 9
M  V30 29 1 29 12
M  V30 30 1 30 12
M  V30 31 1 31 12
M  V30 32 1 32 13
M  V30 33 1 33 14
M  V30 34 1 34 14
M  V30 35 1 35 15
M  V30 36 1 36 15
M  V30 END BOND
M  V30 END CTAB
M  END
>  <i_epik_Tot_Q>  (1) 
0

>  <i_epik_Tot_abs_Q>  (1) 
0

>  <i_i_glide_confnum>  (1) 
17

>  <i_i_glide_lignum>  (1) 
54

>  <i_i_glide_posenum>  (1) 
264

>  <i_i_glide_rotatable_bonds>  (1) 
5

>  <i_lp_mmshare_version>  (1) 
72125

>  <i_m_source_file_index>  (1) 
26

>  <i_f3d_flags>  (1) 
0

>  <num_sample>  (1) 
50

>  <b_lp_Chiralities_Consistent>  (1) 
1

>  <r_epik_Charging_Adjusted_Penalty>  (1) 
0

>  <r_epik_Ionization_Penalty>  (1) 
4.9398685500853885e-07

>  <r_epik_Ionization_Penalty_Charging>  (1) 
0

>  <r_epik_Ionization_Penalty_Neutral>  (1) 
4.9398685500853885e-07

>  <r_epik_State_Penalty>  (1) 
-0

>  <r_glide_ring_energy>  (1) 
0

>  <r_i_docking_score>  (1) 
-4.5645977009446872

>  <r_i_glide_ecoul>  (1) 
-2.461214203341318

>  <r_i_glide_eff_state_penalty>  (1) 
-0

>  <r_i_glide_einternal>  (1) 
1.1161718819070972

>  <r_i_glide_emodel>  (1) 
-36.349438743419988

>  <r_i_glide_emodel_strain>  (1) 
0.32328109489296963

>  <r_i_glide_energy>  (1) 
-29.290095035703633

>  <r_i_glide_erotb>  (1) 
1.5381532010122589

>  <r_i_glide_esite>  (1) 
-0.12720278055288126

>  <r_i_glide_evdw>  (1) 
-26.828880832362316

>  <r_i_glide_gscore>  (1) 
-4.5645977009446872

>  <r_i_glide_gscore_strain>  (1) 
0

>  <r_i_glide_hbond>  (1) 
-0.30428323245455724

>  <r_i_glide_ligand_efficiency>  (1) 
-0.30430651339631248

>  <r_i_glide_ligand_efficiency_ln>  (1) 
-1.2309967377431594

>  <r_i_glide_ligand_efficiency_sa>  (1) 
-0.75048439763539287

>  <r_i_glide_lipo>  (1) 
-1.6055818823968482

>  <r_i_glide_metal>  (1) 
-0

>  <r_i_glide_rewards>  (1) 
-2.3550568344333453

>  <r_lp_Energy>  (1) 
13.51521

>  <r_lp_tautomer_probability>  (1) 
1

>  <s_epik_cmdline>  (1) 
J2VwaWtfcHl0aG9uJywgJy1waHQnLCAnMS4wJywgJy1waCcsICc3LjQnLCAnLXRuJywgJzgnLCAnLW1hJywgJzUwMCcsICctaW1hZScsICc8aW5maWxlLm1hZT4nLCAnLW9tYWUnLCAnPG91dGZpbGUubWFlPic=

>  <s_epik_input>  (1) 
W0NIM10vW0NIXT1bQ0hdL1tDSDJdW0NIMl1bQ0gyXUMoPVtDSF1bQ0gyXTEpW0NIMl1bQ0gyXU4xQyg9TylbQ0gzXQ==

>  <s_glide_docking_method>  (1) 
confgen

>  <s_i_glide_gridfile>  (1) 
gpcr_5ht2c_6bqh_protein_autoprepared_prepared

>  <s_lp_Force_Field>  (1) 
S-OPLS

>  <s_lp_Variant>  (1) 
DiffSBDD_25-1

>  <s_m_source_file>  (1) 
generated_GPCR_5HT2C_ligand_DiffSBDD_2026-06-23_prepared.sdf

>  <GenAI_Model>  (1) 
DiffSBDD

>  <Protein>  (1) 
GPCR_5HT2C

$$$$
DiffSBDD_24
     RDKit          3D

  0  0  0  0  0  0  0  0  0  0999 V3000
M  V30 BEGIN CTAB
M  V30 COUNTS 80 83 0 0 1
M  V30 BEGIN ATOM
M  V30 1 C 38.064695 31.520105 60.869087 0
M  V30 2 C 42.172241 31.696756 65.331781 0 CFG=2
M  V30 3 O 40.933978 28.947879 61.681329 0
M  V30 4 C 37.606836 29.502462 57.064909 0
M  V30 5 C 43.064710 32.743250 66.049659 0
M  V30 6 N 38.824265 28.715009 52.732857 0
M  V30 7 O 41.151292 27.830812 64.042809 0
M  V30 8 C 44.421684 32.237868 66.573780 0
M  V30 9 C 40.548113 29.782818 65.411663 0
M  V30 10 C 39.531736 31.183326 56.310616 0
M  V30 11 C 38.474189 30.869467 59.521606 0 CFG=2
M  V30 12 C 41.066960 29.243105 64.094050 0 CFG=2
M  V30 13 C 39.303736 28.888410 51.484314 0
M  V30 14 C 38.280530 28.706485 58.171566 0
M  V30 15 C 38.316339 33.155682 58.312638 0
M  V30 16 C 38.640124 30.863348 62.133167 0
M  V30 17 C 38.299291 31.426697 55.487203 0 CFG=1
M  V30 18 C 40.232965 30.089632 51.227006 0
M  V30 19 C 40.913443 29.892503 62.729003 0 CFG=1
M  V30 20 O 39.023100 28.123332 50.567777 0
M  V30 21 C 38.191355 30.905132 56.942419 0 CFG=1
M  V30 22 C 37.915853 31.656537 58.283125 0 CFG=1
M  V30 23 C 40.208148 30.560908 49.767772 0
M  V30 24 C 41.645895 30.523575 66.207352 0 CFG=2
M  V30 25 O 38.045136 32.800506 55.297067 0
M  V30 26 C 42.253430 29.918569 63.421745 0 CFG=1
M  V30 27 C 40.134808 31.141715 62.356694 0
M  V30 28 C 38.103974 30.648253 54.178453 0
M  V30 29 O 42.070590 31.163516 68.547615 0
M  V30 30 C 39.170403 29.565090 53.874662 0
M  V30 31 C 42.846725 31.179200 64.034071 0
M  V30 32 C 41.069382 30.936649 67.579034 0
M  V30 33 C 38.017986 29.391153 59.506221 0
M  V30 34 H 36.976226 31.524920 60.938254 0
M  V30 35 H 38.369748 32.562971 60.911362 0
M  V30 36 H 41.288283 32.259680 65.033244 0
M  V30 37 H 41.193824 28.126450 62.081092 0
M  V30 38 H 36.538987 29.596532 57.267581 0
M  V30 39 H 37.676854 28.948604 56.135081 0
M  V30 40 H 43.245092 33.577431 65.370467 0
M  V30 41 H 42.510085 33.182098 66.878852 0
M  V30 42 H 38.209305 27.932795 52.905745 0
M  V30 43 H 40.271469 27.499325 64.167781 0
M  V30 44 H 44.894075 32.993898 67.200928 0
M  V30 45 H 45.119268 32.016597 65.767768 0
M  V30 46 H 44.316738 31.335961 67.174839 0
M  V30 47 H 39.707163 30.448199 65.211653 0
M  V30 48 H 40.141990 28.956822 65.998198 0
M  V30 49 H 40.150905 30.308605 56.152725 0
M  V30 50 H 40.060018 32.090448 56.567753 0
M  V30 51 H 39.560109 30.864044 59.461564 0
M  V30 52 H 37.891494 27.687926 58.187113 0
M  V30 53 H 39.353394 28.630846 57.987609 0
M  V30 54 H 39.395325 33.303078 58.311557 0
M  V30 55 H 37.921835 33.664165 59.188823 0
M  V30 56 H 37.888319 33.721414 57.491413 0
M  V30 57 H 38.083232 31.268271 62.967761 0
M  V30 58 H 38.445120 29.794402 62.168414 0
M  V30 59 H 39.996985 30.951239 51.849871 0
M  V30 60 H 41.245127 29.767069 51.457576 0
M  V30 61 H 36.845136 31.653039 58.418484 0
M  V30 62 H 40.981962 31.309235 49.595568 0
M  V30 63 H 39.249236 31.018254 49.522425 0
M  V30 64 H 40.382348 29.737748 49.072438 0
M  V30 65 H 42.460524 29.818465 66.382470 0
M  V30 66 H 37.100625 32.937760 55.367802 0
M  V30 67 H 43.015496 29.264270 62.998488 0
M  V30 68 H 40.589968 31.563646 61.460398 0
M  V30 69 H 40.245707 31.900763 63.127346 0
M  V30 70 H 37.100434 30.221782 54.175608 0
M  V30 71 H 38.138017 31.373192 53.367774 0
M  V30 72 H 42.559050 30.363214 68.668620 0
M  V30 73 H 39.258834 28.868974 54.705727 0
M  V30 74 H 40.160416 30.013376 53.794175 0
M  V30 75 H 42.845146 31.964419 63.277374 0
M  V30 76 H 43.888442 30.937732 64.237956 0
M  V30 77 H 40.445137 31.824243 67.487710 0
M  V30 78 H 40.445115 30.135510 67.973103 0
M  V30 79 H 36.952484 29.337760 59.734510 0
M  V30 80 H 38.531806 28.811481 60.270528 0
M  V30 END ATOM
M  V30 BEGIN BOND
M  V30 1 1 5 2
M  V30 2 1 8 5
M  V30 3 1 11 1
M  V30 4 1 12 7 CFG=3
M  V30 5 1 12 9
M  V30 6 1 13 6
M  V30 7 1 14 4
M  V30 8 1 16 1
M  V30 9 1 17 10
M  V30 10 1 18 13
M  V30 11 1 19 3 CFG=3
M  V30 12 1 19 12
M  V30 13 2 20 13
M  V30 14 1 21 4 CFG=3
M  V30 15 1 21 10
M  V30 16 1 21 17
M  V30 17 1 22 11
M  V30 18 1 22 15
M  V30 19 1 22 21
M  V30 20 1 23 18
M  V30 21 1 24 2
M  V30 22 1 24 9
M  V30 23 1 17 25 CFG=1
M  V30 24 1 26 12
M  V30 25 1 26 19
M  V30 26 1 27 16
M  V30 27 1 27 19
M  V30 28 1 28 17
M  V30 29 1 30 6
M  V30 30 1 30 28
M  V30 31 1 31 2
M  V30 32 1 31 26
M  V30 33 1 32 24
M  V30 34 1 32 29
M  V30 35 1 33 11
M  V30 36 1 33 14
M  V30 37 1 34 1
M  V30 38 1 35 1
M  V30 39 1 2 36 CFG=3
M  V30 40 1 37 3
M  V30 41 1 38 4
M  V30 42 1 39 4
M  V30 43 1 40 5
M  V30 44 1 41 5
M  V30 45 1 42 6
M  V30 46 1 43 7
M  V30 47 1 44 8
M  V30 48 1 45 8
M  V30 49 1 46 8
M  V30 50 1 47 9
M  V30 51 1 48 9
M  V30 52 1 49 10
M  V30 53 1 50 10
M  V30 54 1 11 51 CFG=3
M  V30 55 1 52 14
M  V30 56 1 53 14
M  V30 57 1 54 15
M  V30 58 1 55 15
M  V30 59 1 56 15
M  V30 60 1 57 16
M  V30 61 1 58 16
M  V30 62 1 59 18
M  V30 63 1 60 18
M  V30 64 1 22 61 CFG=1
M  V30 65 1 62 23
M  V30 66 1 63 23
M  V30 67 1 64 23
M  V30 68 1 24 65 CFG=1
M  V30 69 1 66 25
M  V30 70 1 26 67 CFG=3
M  V30 71 1 68 27
M  V30 72 1 69 27
M  V30 73 1 70 28
M  V30 74 1 71 28
M  V30 75 1 72 29
M  V30 76 1 73 30
M  V30 77 1 74 30
M  V30 78 1 75 31
M  V30 79 1 76 31
M  V30 80 1 77 32
M  V30 81 1 78 32
M  V30 82 1 79 33
M  V30 83 1 80 33
M  V30 END BOND
M  V30 END CTAB
M  END
>  <i_epik_Tot_Q>  (1) 
0

>  <i_epik_Tot_abs_Q>  (1) 
0

>  <i_i_glide_confnum>  (1) 
1031

>  <i_i_glide_lignum>  (1) 
53

>  <i_i_glide_posenum>  (1) 
250

>  <i_i_glide_rotatable_bonds>  (1) 
15

>  <i_lp_mmshare_version>  (1) 
72125

>  <i_m_source_file_index>  (1) 
25

>  <i_f3d_flags>  (1) 
0

>  <num_sample>  (1) 
50

>  <b_lp_Chiralities_Consistent>  (1) 
1

>  <r_epik_Charging_Adjusted_Penalty>  (1) 
0

>  <r_epik_Ionization_Penalty>  (1) 
1.3202672537782039e-06

>  <r_epik_Ionization_Penalty_Charging>  (1) 
0

>  <r_epik_Ionization_Penalty_Neutral>  (1) 
1.3202672537782039e-06

>  <r_epik_State_Penalty>  (1) 
-0

>  <r_glide_ring_energy>  (1) 
0

>  <r_i_docking_score>  (1) 
-4.5593103855150385

>  <r_i_glide_ecoul>  (1) 
-5.8309211952756685

>  <r_i_glide_eff_state_penalty>  (1) 
-0

>  <r_i_glide_einternal>  (1) 
16.061980811189954

>  <r_i_glide_emodel>  (1) 
-49.214684264629724

>  <r_i_glide_emodel_strain>  (1) 
0.95106876010731867

>  <r_i_glide_energy>  (1) 
-49.580447147242801

>  <r_i_glide_erotb>  (1) 
0.83704981647784005

>  <r_i_glide_esite>  (1) 
0

>  <r_i_glide_evdw>  (1) 
-43.749525951967129

>  <r_i_glide_gscore>  (1) 
-4.5593103855150385

>  <r_i_glide_gscore_strain>  (1) 
0

>  <r_i_glide_hbond>  (1) 
-0.52022319410968743

>  <r_i_glide_ligand_efficiency>  (1) 
-0.13816092077318298

>  <r_i_glide_ligand_efficiency_ln>  (1) 
-1.0139670228927795

>  <r_i_glide_ligand_efficiency_sa>  (1) 
-0.44315589644381798

>  <r_i_glide_lipo>  (1) 
-2.1635608748643165

>  <r_i_glide_metal>  (1) 
-0

>  <r_i_glide_rewards>  (1) 
0.34953834387083194

>  <r_lp_Energy>  (1) 
47.020322

>  <r_lp_tautomer_probability>  (1) 
1

>  <s_epik_cmdline>  (1) 
J2VwaWtfcHl0aG9uJywgJy1waHQnLCAnMS4wJywgJy1waCcsICc3LjQnLCAnLXRuJywgJzgnLCAnLW1hJywgJzUwMCcsICctaW1hZScsICc8aW5maWxlLm1hZT4nLCAnLW9tYWUnLCAnPG91dGZpbGUubWFlPic=

>  <s_epik_input>  (1) 
W09IXVtDSDJdW0NAQEhdKFtDSDJdMSlbQ0BASF0oW0NIMl1bQ0gzXSlbQ0gyXVtDQEBIXShDMTJbT0hdKVtDQF0yKFtPSF0pW0NIMl1bQ0gyXVtDSDJdW0NASF0oW0NASF0zW0NIM10pW0NIMl1bQ0gyXVtDSDJdW0NAXTM0W0NIMl1DNChbT0hdKVtDSDJdW0NIMl1bTkhdQyg9TylbQ0gyXVtDSDNd

>  <s_glide_docking_method>  (1) 
confgen

>  <s_i_glide_gridfile>  (1) 
gpcr_5ht2c_6bqh_protein_autoprepared_prepared

>  <s_lp_Force_Field>  (1) 
S-OPLS

>  <s_lp_Variant>  (1) 
DiffSBDD_24-1

>  <s_m_source_file>  (1) 
generated_GPCR_5HT2C_ligand_DiffSBDD_2026-06-23_prepared.sdf

>  <GenAI_Model>  (1) 
DiffSBDD

>  <Protein>  (1) 
GPCR_5HT2C

$$$$
DiffSBDD_5
     RDKit          3D

  0  0  0  0  0  0  0  0  0  0999 V3000
M  V30 BEGIN CTAB
M  V30 COUNTS 56 58 0 0 1
M  V30 BEGIN ATOM
M  V30 1 O 39.645124 29.211423 55.686655 0
M  V30 2 C 37.467766 30.274316 56.214070 0
M  V30 3 C 38.255450 28.975138 55.860306 0 CFG=1
M  V30 4 O 40.845046 30.004658 60.355300 0
M  V30 5 C 38.267560 32.427925 59.244178 0 CFG=1
M  V30 6 C 38.924026 29.727109 52.918325 0
M  V30 7 C 40.489039 26.925314 58.569927 0
M  V30 8 O 36.845114 25.704112 55.816278 0
M  V30 9 C 38.735457 24.537544 55.311730 0
M  V30 10 C 38.589376 28.525948 58.457096 0
M  V30 11 C 36.891700 31.842646 59.100911 0
M  V30 12 O 39.645038 26.876321 53.913479 0
M  V30 13 C 37.645100 32.326202 57.866699 0 CFG=2
M  V30 14 C 38.312459 31.439157 56.801960 0 CFG=2
M  V30 15 C 40.078021 28.396040 58.763247 0 CFG=1
M  V30 16 C 37.766870 28.280514 54.519932 0 CFG=1
M  V30 17 C 38.197487 25.947146 55.530705 0 CFG=2
M  V30 18 O 38.619172 32.193174 55.642402 0
M  V30 19 O 38.261730 33.737626 59.770867 0
M  V30 20 O 37.732964 29.065306 53.329185 0
M  V30 21 C 39.384970 33.337748 55.897935 0
M  V30 22 C 38.816214 26.683246 56.711850 0
M  V30 23 C 39.880757 26.218919 57.386448 0
M  V30 24 C 38.152895 27.995396 57.071968 0 CFG=2
M  V30 25 C 38.286168 26.834882 54.265514 0 CFG=2
M  V30 26 C 40.313079 28.885805 60.211466 0
M  V30 27 O 39.939301 28.137689 61.136267 0 CHG=-1
M  V30 28 H 39.974845 29.589507 56.487966 0
M  V30 29 H 36.926904 30.634428 55.338562 0
M  V30 30 H 36.672820 30.018129 56.912143 0
M  V30 31 H 39.097483 31.794296 59.545956 0
M  V30 32 H 38.886066 29.894356 51.844655 0
M  V30 33 H 39.030718 30.687723 53.421854 0
M  V30 34 H 39.831456 29.156660 53.074586 0
M  V30 35 H 40.045133 26.342084 59.367759 0
M  V30 36 H 41.573552 26.815490 58.567513 0
M  V30 37 H 36.796724 25.195278 56.610414 0
M  V30 38 H 39.767355 24.538462 54.972922 0
M  V30 39 H 38.684481 23.952216 56.230545 0
M  V30 40 H 38.146243 24.005249 54.567732 0
M  V30 41 H 38.045189 27.959822 59.212490 0
M  V30 42 H 38.285867 29.547062 58.614601 0
M  V30 43 H 36.749492 30.778852 59.248908 0
M  V30 44 H 36.044131 32.448466 59.415821 0
M  V30 45 H 40.054241 27.486982 54.514944 0
M  V30 46 H 37.176533 33.216715 57.454547 0
M  V30 47 H 39.240677 31.076873 57.241177 0
M  V30 48 H 40.660208 29.024183 58.090685 0
M  V30 49 H 36.695253 28.128272 54.567760 0
M  V30 50 H 38.224225 33.677684 60.712575 0
M  V30 51 H 39.586812 33.839200 54.967943 0
M  V30 52 H 38.845137 34.072700 56.490606 0
M  V30 53 H 40.332831 33.077390 56.370051 0
M  V30 54 H 40.336049 25.282649 57.104105 0
M  V30 55 H 37.111073 27.758838 57.250699 0
M  V30 56 H 37.735397 26.377257 53.441646 0
M  V30 END ATOM
M  V30 BEGIN BOND
M  V30 1 1 3 1 CFG=3
M  V30 2 1 3 2
M  V30 3 1 11 5
M  V30 4 1 13 5
M  V30 5 1 13 11
M  V30 6 1 14 2
M  V30 7 1 14 13
M  V30 8 1 15 7
M  V30 9 1 15 10
M  V30 10 1 16 3
M  V30 11 1 17 8 CFG=1
M  V30 12 1 17 9
M  V30 13 1 18 14
M  V30 14 1 19 5
M  V30 15 1 20 6
M  V30 16 1 20 16
M  V30 17 1 21 18
M  V30 18 1 22 17
M  V30 19 1 23 7
M  V30 20 2 23 22
M  V30 21 1 24 3
M  V30 22 1 24 10
M  V30 23 1 24 22
M  V30 24 1 25 12
M  V30 25 1 25 16
M  V30 26 1 25 17
M  V30 27 2 26 4
M  V30 28 1 26 15
M  V30 29 1 27 26
M  V30 30 1 28 1
M  V30 31 1 29 2
M  V30 32 1 30 2
M  V30 33 1 5 31 CFG=3
M  V30 34 1 32 6
M  V30 35 1 33 6
M  V30 36 1 34 6
M  V30 37 1 35 7
M  V30 38 1 36 7
M  V30 39 1 37 8
M  V30 40 1 38 9
M  V30 41 1 39 9
M  V30 42 1 40 9
M  V30 43 1 41 10
M  V30 44 1 42 10
M  V30 45 1 43 11
M  V30 46 1 44 11
M  V30 47 1 45 12
M  V30 48 1 13 46 CFG=3
M  V30 49 1 14 47 CFG=1
M  V30 50 1 15 48 CFG=3
M  V30 51 1 16 49 CFG=1
M  V30 52 1 50 19
M  V30 53 1 51 21
M  V30 54 1 52 21
M  V30 55 1 53 21
M  V30 56 1 54 23
M  V30 57 1 24 55 CFG=1
M  V30 58 1 25 56 CFG=3
M  V30 END BOND
M  V30 END CTAB
M  END
>  <i_epik_Tot_Q>  (1) 
-1

>  <i_epik_Tot_abs_Q>  (1) 
1

>  <i_i_glide_confnum>  (1) 
40

>  <i_i_glide_lignum>  (1) 
14

>  <i_i_glide_posenum>  (1) 
285

>  <i_i_glide_rotatable_bonds>  (1) 
10

>  <i_lp_mmshare_version>  (1) 
72125

>  <i_m_source_file_index>  (1) 
6

>  <i_f3d_flags>  (1) 
0

>  <num_sample>  (1) 
50

>  <b_lp_Chiralities_Consistent>  (1) 
1

>  <r_epik_Charging_Adjusted_Penalty>  (1) 
0.00069514942646818579

>  <r_epik_Ionization_Penalty>  (1) 
0.00069544814870727001

>  <r_epik_Ionization_Penalty_Charging>  (1) 
0.00069514942646818579

>  <r_epik_Ionization_Penalty_Neutral>  (1) 
2.9872223908425859e-07

>  <r_epik_State_Penalty>  (1) 
-0

>  <r_glide_ring_energy>  (1) 
0

>  <r_i_docking_score>  (1) 
-4.5368792998643279

>  <r_i_glide_ecoul>  (1) 
-1.3399326041584994

>  <r_i_glide_eff_state_penalty>  (1) 
-0

>  <r_i_glide_einternal>  (1) 
17.590142920931129

>  <r_i_glide_emodel>  (1) 
-20.992327131924188

>  <r_i_glide_emodel_strain>  (1) 
2.073068727255027

>  <r_i_glide_energy>  (1) 
-23.456572686548466

>  <r_i_glide_erotb>  (1) 
0.39282459937787173

>  <r_i_glide_esite>  (1) 
0

>  <r_i_glide_evdw>  (1) 
-22.116640082389967

>  <r_i_glide_gscore>  (1) 
-4.5368792998643279

>  <r_i_glide_gscore_strain>  (1) 
0

>  <r_i_glide_hbond>  (1) 
-0.097754587429320972

>  <r_i_glide_ligand_efficiency>  (1) 
-0.16803256666164176

>  <r_i_glide_ligand_efficiency_ln>  (1) 
-1.0561107047075087

>  <r_i_glide_ligand_efficiency_sa>  (1) 
-0.50409769998492537

>  <r_i_glide_lipo>  (1) 
-2.3063165795360105

>  <r_i_glide_metal>  (1) 
-0

>  <r_i_glide_rewards>  (1) 
-1.2188108375335953

>  <r_lp_Energy>  (1) 
23.796561000000001

>  <r_lp_tautomer_probability>  (1) 
1

>  <s_epik_cmdline>  (1) 
J2VwaWtfcHl0aG9uJywgJy1waHQnLCAnMS4wJywgJy1waCcsICc3LjQnLCAnLXRuJywgJzgnLCAnLW1hJywgJzUwMCcsICctaW1hZScsICc8aW5maWxlLm1hZT4nLCAnLW9tYWUnLCAnPG91dGZpbGUubWFlPic=

>  <s_epik_input>  (1) 
Tz1DKFtPSF0pW0NAQEhdKFtDSDJdW0NIXTEpW0NIMl1bQ0BIXShDPTEyKVtDQEBdKFtPSF0pKFtDQEBIXShPW0NIM10pW0NAQEhdKFtPSF0pW0NAQF0yKFtPSF0pW0NIM10pW0NIMl1bQ0BASF0oT1tDSDNdKVtDQEhdM1tDSDJdW0NAQEhdM1tPSF0=

>  <s_glide_docking_method>  (1) 
confgen

>  <s_i_glide_gridfile>  (1) 
gpcr_5ht2c_6bqh_protein_autoprepared_prepared

>  <s_lp_Force_Field>  (1) 
S-OPLS

>  <s_lp_Variant>  (1) 
DiffSBDD_5-1

>  <s_m_source_file>  (1) 
generated_GPCR_5HT2C_ligand_DiffSBDD_2026-06-23_prepared.sdf

>  <GenAI_Model>  (1) 
DiffSBDD

>  <Protein>  (1) 
GPCR_5HT2C

$$$$
DiffSBDD_14
     RDKit          3D

  0  0  0  0  0  0  0  0  0  0999 V3000
M  V30 BEGIN CTAB
M  V30 COUNTS 59 60 0 0 1
M  V30 BEGIN ATOM
M  V30 1 Cl 42.232090 34.010909 66.800665 0
M  V30 2 C 39.278338 31.978062 60.778962 0
M  V30 3 N 39.645160 36.877196 65.724810 0
M  V30 4 C 39.619883 36.717192 64.378908 0
M  V30 5 C 39.789985 31.311170 54.441045 0
M  V30 6 C 39.211356 27.887796 50.815610 0
M  V30 7 C 39.169219 27.197783 53.219226 0
M  V30 8 C 38.467094 33.078105 60.052712 0 CFG=1
M  V30 9 C 37.518577 30.160657 55.844891 0
M  V30 10 C 41.245650 35.042181 65.833792 0
M  V30 11 C 39.327905 28.167397 52.298720 0
M  V30 12 C 40.454321 36.047385 66.429762 0
M  V30 13 O 37.882015 35.738051 61.767617 0
M  V30 14 N 38.979207 34.434216 60.383318 0 CHG=1
M  V30 15 C 39.644673 29.612928 52.673912 0
M  V30 16 C 39.597683 31.540549 55.939408 0
M  V30 17 C 41.208236 34.887683 64.441946 0
M  V30 18 C 38.975918 34.850090 61.797533 0 CFG=1
M  V30 19 C 40.373801 35.737709 63.696904 0
M  V30 20 C 40.270083 35.590937 62.191230 0
M  V30 21 C 38.045021 31.567188 57.934453 0
M  V30 22 C 38.132877 31.475006 56.388301 0 CFG=2
M  V30 23 C 37.772295 29.974483 54.332876 0
M  V30 24 N 39.232516 30.002304 54.051193 0 CFG=2 CHG=1
M  V30 25 C 38.511693 32.925244 58.513277 0
M  V30 26 H 38.948394 30.979207 60.498321 0
M  V30 27 H 40.344862 32.050504 60.567627 0
M  V30 28 H 39.161579 32.015326 61.860942 0
M  V30 29 H 38.966755 37.380334 63.831811 0
M  V30 30 H 39.301916 32.103199 53.870778 0
M  V30 31 H 40.855733 31.337728 54.210870 0
M  V30 32 H 40.155270 28.096105 50.313315 0
M  V30 33 H 38.943156 26.849432 50.619490 0
M  V30 34 H 38.445132 28.522774 50.374891 0
M  V30 35 H 38.947335 26.185016 52.923625 0
M  V30 36 H 39.259038 27.403499 54.274942 0
M  V30 37 H 37.426564 33.019903 60.377499 0
M  V30 38 H 37.933571 29.308908 56.385368 0
M  V30 39 H 36.445716 30.137728 56.035447 0
M  V30 40 H 40.463887 36.185638 67.501064 0
M  V30 41 H 37.465238 35.740602 62.618628 0
M  V30 42 H 38.418577 35.114661 59.889391 0
M  V30 43 H 39.245140 30.301806 51.937095 0
M  V30 44 H 40.719703 29.737759 52.567364 0
M  V30 45 H 40.048201 32.497039 56.197795 0
M  V30 46 H 40.112708 30.758631 56.486561 0
M  V30 47 H 41.797784 34.124033 63.955786 0
M  V30 48 H 38.781454 34.019745 62.473517 0
M  V30 49 H 41.138357 35.027499 61.845616 0
M  V30 50 H 40.330661 36.570750 61.714741 0
M  V30 51 H 38.636623 30.754033 58.352475 0
M  V30 52 H 37.022917 31.379139 58.260689 0
M  V30 53 H 37.596883 32.316852 55.947947 0
M  V30 54 H 37.281695 30.768331 53.771036 0
M  V30 55 H 37.322712 29.037081 54.006505 0
M  V30 56 H 37.900674 33.710282 58.062478 0
M  V30 57 H 39.531999 33.128233 58.194019 0
M  V30 58 H 39.653186 29.322638 54.667937 0
M  V30 59 H 39.926323 34.498809 60.042360 0
M  V30 END ATOM
M  V30 BEGIN BOND
M  V30 1 1 4 3
M  V30 2 1 8 2
M  V30 3 1 10 1
M  V30 4 1 11 6
M  V30 5 2 11 7
M  V30 6 2 12 3
M  V30 7 1 12 10
M  V30 8 1 14 8
M  V30 9 1 15 11
M  V30 10 1 16 5
M  V30 11 2 17 10
M  V30 12 1 18 13
M  V30 13 1 18 14
M  V30 14 2 19 4
M  V30 15 1 19 17
M  V30 16 1 20 18
M  V30 17 1 20 19
M  V30 18 1 22 9
M  V30 19 1 22 16
M  V30 20 1 22 21
M  V30 21 1 23 9
M  V30 22 1 24 5
M  V30 23 1 24 15
M  V30 24 1 24 23
M  V30 25 1 25 8
M  V30 26 1 25 21
M  V30 27 1 26 2
M  V30 28 1 27 2
M  V30 29 1 28 2
M  V30 30 1 29 4
M  V30 31 1 30 5
M  V30 32 1 31 5
M  V30 33 1 32 6
M  V30 34 1 33 6
M  V30 35 1 34 6
M  V30 36 1 35 7
M  V30 37 1 36 7
M  V30 38 1 8 37 CFG=1
M  V30 39 1 38 9
M  V30 40 1 39 9
M  V30 41 1 40 12
M  V30 42 1 41 13
M  V30 43 1 42 14
M  V30 44 1 43 15
M  V30 45 1 44 15
M  V30 46 1 45 16
M  V30 47 1 46 16
M  V30 48 1 47 17
M  V30 49 1 18 48 CFG=1
M  V30 50 1 49 20
M  V30 51 1 50 20
M  V30 52 1 51 21
M  V30 53 1 52 21
M  V30 54 1 22 53 CFG=3
M  V30 55 1 54 23
M  V30 56 1 55 23
M  V30 57 1 56 25
M  V30 58 1 57 25
M  V30 59 1 24 58 CFG=1
M  V30 60 1 59 14
M  V30 END BOND
M  V30 END CTAB
M  END
>  <i_epik_Tot_Q>  (1) 
2

>  <i_epik_Tot_abs_Q>  (1) 
2

>  <i_i_glide_confnum>  (1) 
24

>  <i_i_glide_lignum>  (1) 
27

>  <i_i_glide_posenum>  (1) 
201

>  <i_i_glide_rotatable_bonds>  (1) 
10

>  <i_lp_mmshare_version>  (1) 
72125

>  <i_m_source_file_index>  (1) 
15

>  <i_f3d_flags>  (1) 
0

>  <num_sample>  (1) 
50

>  <b_lp_Chiralities_Consistent>  (1) 
1

>  <r_epik_Charging_Adjusted_Penalty>  (1) 
0.35265002497065456

>  <r_epik_Ionization_Penalty>  (1) 
0.35265410833524857

>  <r_epik_Ionization_Penalty_Charging>  (1) 
0.072075358936459305

>  <r_epik_Ionization_Penalty_Neutral>  (1) 
0.2805787493987893

>  <r_epik_State_Penalty>  (1) 
0.28057466603419523

>  <r_glide_ring_energy>  (1) 
0

>  <r_i_docking_score>  (1) 
-4.4953906544555942

>  <r_i_glide_ecoul>  (1) 
0.28165001112071009

>  <r_i_glide_eff_state_penalty>  (1) 
0.28057466603419523

>  <r_i_glide_einternal>  (1) 
6.0248317401779659

>  <r_i_glide_emodel>  (1) 
-46.44200533693477

>  <r_i_glide_emodel_strain>  (1) 
0.64471126207793006

>  <r_i_glide_energy>  (1) 
-31.681540297859911

>  <r_i_glide_erotb>  (1) 
1.1382379647718497

>  <r_i_glide_esite>  (1) 
0

>  <r_i_glide_evdw>  (1) 
-31.963190308980622

>  <r_i_glide_gscore>  (1) 
-4.7759653204897896

>  <r_i_glide_gscore_strain>  (1) 
0

>  <r_i_glide_hbond>  (1) 
0

>  <r_i_glide_ligand_efficiency>  (1) 
-0.17981562617822378

>  <r_i_glide_ligand_efficiency_ln>  (1) 
-1.065542301092977

>  <r_i_glide_ligand_efficiency_sa>  (1) 
-0.52578408055298009

>  <r_i_glide_lipo>  (1) 
-2.6938218832923697

>  <r_i_glide_metal>  (1) 
-0

>  <r_i_glide_rewards>  (1) 
-1.6644693881883432

>  <r_lp_Energy>  (1) 
35.566913

>  <s_epik_Chemistry_Notes>  (1) 
This compound contains an acetal/aminal-like group ( X-CH(R)-Y where X, Y are N, S, or O) that may be acid/base labile, releasing an aldehyde.

>  <s_epik_cmdline>  (1) 
J2VwaWtfcHl0aG9uJywgJy1waHQnLCAnMS4wJywgJy1waCcsICc3LjQnLCAnLXRuJywgJzgnLCAnLW1hJywgJzUwMCcsICctaW1hZScsICc8aW5maWxlLm1hZT4nLCAnLW9tYWUnLCAnPG91dGZpbGUubWFlPic=

>  <s_epik_input>  (1) 
Q2xjMVtjSF1uW2NIXWMoW2NIXTEpW0NIMl1bQ0BASF0oW09IXSlbTkhdW0NASF0oW0NIM10pW0NIMl1bQ0gyXVtDSF0yW0NIMl1bQ0gyXU4oW0NIMl1bQ0gyXTIpW0NIMl1DKFtDSDNdKT1bQ0gyXQ==

>  <s_glide_docking_method>  (1) 
confgen

>  <s_i_glide_gridfile>  (1) 
gpcr_5ht2c_6bqh_protein_autoprepared_prepared

>  <s_lp_Force_Field>  (1) 
S-OPLS

>  <s_lp_Variant>  (1) 
DiffSBDD_14-1

>  <s_m_source_file>  (1) 
generated_GPCR_5HT2C_ligand_DiffSBDD_2026-06-23_prepared.sdf

>  <GenAI_Model>  (1) 
DiffSBDD

>  <Protein>  (1) 
GPCR_5HT2C

$$$$
DiffSBDD_20
     RDKit          3D

  0  0  0  0  0  0  0  0  0  0999 V3000
M  V30 BEGIN CTAB
M  V30 COUNTS 27 26 0 0 1
M  V30 BEGIN ATOM
M  V30 1 C 39.066910 29.058533 52.227010 0 CFG=2
M  V30 2 C 40.022336 29.763446 49.619695 0
M  V30 3 N 37.645186 31.669390 57.843967 0 CHG=1
M  V30 4 C 38.292799 32.523321 55.641278 0
M  V30 5 C 39.049579 29.466962 53.720860 0
M  V30 6 O 39.645124 26.838090 52.945771 0
M  V30 7 C 39.189081 27.544338 52.048110 0
M  V30 8 C 38.422821 32.708851 57.151065 0
M  V30 9 S 40.445131 29.881599 51.367842 0
M  V30 10 C 38.596775 30.909742 53.967569 0
M  V30 11 O 38.827482 31.250024 55.320592 0
M  V30 12 H 38.124974 29.337688 51.759365 0
M  V30 13 H 40.926719 29.737754 49.012533 0
M  V30 14 H 39.438349 28.870507 49.409897 0
M  V30 15 H 39.443248 30.643186 49.342771 0
M  V30 16 H 37.666030 31.801526 58.842777 0
M  V30 17 H 36.667209 31.737614 57.502847 0
M  V30 18 H 38.831790 33.309403 55.112084 0
M  V30 19 H 37.245344 32.577947 55.344021 0
M  V30 20 H 38.394273 28.804074 54.288569 0
M  V30 21 H 40.045102 29.339579 54.146042 0
M  V30 22 H 38.849200 27.154209 51.088661 0
M  V30 23 H 39.467605 32.660245 57.454817 0
M  V30 24 H 38.042480 33.689494 57.440260 0
M  V30 25 H 39.124193 31.611238 53.320057 0
M  V30 26 H 37.530220 30.990314 53.767748 0
M  V30 27 H 37.999686 30.758466 57.593599 0
M  V30 END ATOM
M  V30 BEGIN BOND
M  V30 1 1 5 1
M  V30 2 1 7 1
M  V30 3 2 7 6
M  V30 4 1 8 3
M  V30 5 1 8 4
M  V30 6 1 9 1
M  V30 7 1 9 2
M  V30 8 1 10 5
M  V30 9 1 11 4
M  V30 10 1 11 10
M  V30 11 1 1 12 CFG=3
M  V30 12 1 13 2
M  V30 13 1 14 2
M  V30 14 1 15 2
M  V30 15 1 16 3
M  V30 16 1 17 3
M  V30 17 1 18 4
M  V30 18 1 19 4
M  V30 19 1 20 5
M  V30 20 1 21 5
M  V30 21 1 22 7
M  V30 22 1 23 8
M  V30 23 1 24 8
M  V30 24 1 25 10
M  V30 25 1 26 10
M  V30 26 1 27 3
M  V30 END BOND
M  V30 END CTAB
M  END
>  <i_epik_Tot_Q>  (1) 
1

>  <i_epik_Tot_abs_Q>  (1) 
1

>  <i_i_glide_confnum>  (1) 
23

>  <i_i_glide_lignum>  (1) 
47

>  <i_i_glide_posenum>  (1) 
93

>  <i_i_glide_rotatable_bonds>  (1) 
7

>  <i_lp_mmshare_version>  (1) 
72125

>  <i_m_source_file_index>  (1) 
21

>  <i_f3d_flags>  (1) 
0

>  <num_sample>  (1) 
50

>  <b_lp_Chiralities_Consistent>  (1) 
1

>  <r_epik_Charging_Adjusted_Penalty>  (1) 
0.011277259608130119

>  <r_epik_Ionization_Penalty>  (1) 
0.0057709472056282005

>  <r_epik_Ionization_Penalty_Charging>  (1) 
0.0056386298040651114

>  <r_epik_Ionization_Penalty_Neutral>  (1) 
0.00013231740156308916

>  <r_epik_State_Penalty>  (1) 
0.0056386298040650073

>  <r_glide_ring_energy>  (1) 
0

>  <r_i_docking_score>  (1) 
-4.4884694716910687

>  <r_i_glide_ecoul>  (1) 
-7.6767493323451745

>  <r_i_glide_eff_state_penalty>  (1) 
0.0056386298040650073

>  <r_i_glide_einternal>  (1) 
5.7448417164082306

>  <r_i_glide_emodel>  (1) 
-34.963815885839672

>  <r_i_glide_emodel_strain>  (1) 
0.48179257893239225

>  <r_i_glide_energy>  (1) 
-26.770440014322812

>  <r_i_glide_erotb>  (1) 
1.9754277914378024

>  <r_i_glide_esite>  (1) 
-0.10000000000000001

>  <r_i_glide_evdw>  (1) 
-19.093690681977638

>  <r_i_glide_gscore>  (1) 
-4.4941081014951338

>  <r_i_glide_gscore_strain>  (1) 
0

>  <r_i_glide_hbond>  (1) 
-0.16353323045369722

>  <r_i_glide_ligand_efficiency>  (1) 
-0.4080426792446426

>  <r_i_glide_ligand_efficiency_ln>  (1) 
-1.3209558009698588

>  <r_i_glide_ligand_efficiency_sa>  (1) 
-0.90747879474264648

>  <r_i_glide_lipo>  (1) 
-1.1645012522700007

>  <r_i_glide_metal>  (1) 
-0

>  <r_i_glide_rewards>  (1) 
-2.9353044762585792

>  <r_lp_Energy>  (1) 
-0.62655099999999997

>  <r_lp_tautomer_probability>  (1) 
0.99990000499974985

>  <s_epik_cmdline>  (1) 
J2VwaWtfcHl0aG9uJywgJy1waHQnLCAnMS4wJywgJy1waCcsICc3LjQnLCAnLXRuJywgJzgnLCAnLW1hJywgJzUwMCcsICctaW1hZScsICc8aW5maWxlLm1hZT4nLCAnLW9tYWUnLCAnPG91dGZpbGUubWFlPic=

>  <s_epik_input>  (1) 
W0NIM11TW0NAQEhdKFtDSF09TylbQ0gyXVtDSDJdT1tDSDJdW0NIMl1bTkgyXQ==

>  <s_glide_docking_method>  (1) 
confgen

>  <s_i_glide_gridfile>  (1) 
gpcr_5ht2c_6bqh_protein_autoprepared_prepared

>  <s_lp_Force_Field>  (1) 
S-OPLS

>  <s_lp_Variant>  (1) 
DiffSBDD_20-1

>  <s_m_source_file>  (1) 
generated_GPCR_5HT2C_ligand_DiffSBDD_2026-06-23_prepared.sdf

>  <GenAI_Model>  (1) 
DiffSBDD

>  <Protein>  (1) 
GPCR_5HT2C

$$$$
DiffSBDD_34
     RDKit          3D

  0  0  0  0  0  0  0  0  0  0999 V3000
M  V30 BEGIN CTAB
M  V30 COUNTS 82 85 0 0 1
M  V30 BEGIN ATOM
M  V30 1 C 39.472309 28.064349 56.005753 0
M  V30 2 C 38.617260 35.277402 62.071332 0 CFG=1
M  V30 3 C 37.222552 30.327030 59.861596 0
M  V30 4 C 37.307747 29.394391 58.619395 0
M  V30 5 O 38.046029 33.488088 56.280726 0
M  V30 6 C 38.853233 35.302006 60.553377 0
M  V30 7 O 38.566883 31.889932 57.853444 0
M  V30 8 C 39.539512 31.703964 55.650530 0 CFG=1
M  V30 9 C 39.771955 28.947388 59.099903 0 CFG=2
M  V30 10 C 39.860466 34.891155 62.843363 0
M  V30 11 C 37.916788 32.646472 58.860159 0 CFG=2
M  V30 12 C 38.121726 28.461759 53.890157 0
M  V30 13 O 39.471115 26.147604 57.874683 0
M  V30 14 C 39.460747 30.336197 54.941845 0 CFG=2
M  V30 15 O 35.550965 32.102069 59.367803 0
M  V30 16 C 43.799750 28.938939 57.229961 0
M  V30 17 O 37.245157 26.842835 56.970936 0
M  V30 18 N 38.996433 32.853291 60.013906 0 CHG=1
M  V30 19 C 39.689242 34.140172 59.990180 0
M  V30 20 C 40.588724 27.868380 59.745524 0 CFG=1
M  V30 21 S 38.590655 27.217520 57.390210 0
M  V30 22 O 41.929119 27.882028 59.322355 0
M  V30 23 C 38.890506 31.543416 54.276097 0
M  V30 24 C 39.168006 28.123568 52.825223 0
M  V30 25 C 40.164589 33.598928 63.220519 0
M  V30 26 S 41.650773 33.526654 64.104018 0
M  V30 27 C 40.870123 35.824926 63.276415 0
M  V30 28 O 36.931876 28.239234 53.697375 0
M  V30 29 C 40.195665 29.045885 60.564135 0
M  V30 30 C 42.289257 26.921158 58.340008 0
M  V30 31 C 38.623696 32.452246 56.607672 0
M  V30 32 C 38.052410 36.611269 62.626490 0
M  V30 33 O 44.444773 27.687023 57.367760 0
M  V30 34 N 38.471618 28.458786 58.620645 0
M  V30 35 C 43.827201 26.795212 58.273324 0
M  V30 36 C 41.888205 35.230207 63.971725 0
M  V30 37 C 38.621584 29.086379 55.216130 0 CFG=2
M  V30 38 C 36.885518 31.822025 59.689272 0 CFG=1
M  V30 39 N 36.845406 37.079061 61.933857 0 CHG=1
M  V30 40 H 40.368609 28.528509 56.408677 0
M  V30 41 H 39.836755 27.268865 55.355672 0
M  V30 42 H 37.861120 34.497660 62.167967 0
M  V30 43 H 38.113637 30.298183 60.470510 0
M  V30 44 H 36.452595 29.930785 60.514991 0
M  V30 45 H 36.389168 28.816370 58.555948 0
M  V30 46 H 37.295619 29.963027 57.701463 0
M  V30 47 H 39.429849 36.181127 60.348311 0
M  V30 48 H 37.913255 35.404889 60.010912 0
M  V30 49 H 40.529646 32.137517 55.637100 0
M  V30 50 H 40.258503 29.595549 58.371285 0
M  V30 51 H 37.517340 33.616417 58.549709 0
M  V30 52 H 40.441743 30.047241 54.562464 0
M  V30 53 H 35.480472 32.137680 58.387894 0
M  V30 54 H 43.427292 29.338763 58.161201 0
M  V30 55 H 44.441773 29.703904 56.821428 0
M  V30 56 H 42.958388 28.848269 56.553208 0
M  V30 57 H 38.550418 32.787418 60.914340 0
M  V30 58 H 40.592107 34.039998 60.578149 0
M  V30 59 H 40.045474 34.312460 58.980415 0
M  V30 60 H 40.135858 26.938399 60.062752 0
M  V30 61 H 39.419347 31.846994 53.380273 0
M  V30 62 H 37.803726 31.603169 54.196043 0
M  V30 63 H 39.870548 28.941387 52.664455 0
M  V30 64 H 39.714642 27.222889 53.099072 0
M  V30 65 H 38.672450 27.926847 51.874436 0
M  V30 66 H 39.598301 32.696898 63.045137 0
M  V30 67 H 40.809204 36.884320 63.072617 0
M  V30 68 H 40.994632 29.730464 60.830800 0
M  V30 69 H 39.476943 28.831943 61.355873 0
M  V30 70 H 41.902494 25.939071 58.567619 0
M  V30 71 H 41.854677 27.157365 57.375873 0
M  V30 72 H 37.816924 36.526307 63.689311 0
M  V30 73 H 38.782202 37.414487 62.538155 0
M  V30 74 H 44.289906 26.890765 59.240624 0
M  V30 75 H 44.155699 25.796219 58.009331 0
M  V30 76 H 42.761367 35.696150 64.411877 0
M  V30 77 H 37.740577 29.383678 55.776080 0
M  V30 78 H 36.879554 32.226638 60.703930 0
M  V30 79 H 36.533191 37.947955 62.344862 0
M  V30 80 H 37.039012 37.233921 60.954667 0
M  V30 81 H 36.110186 36.396812 62.033102 0
M  V30 82 H 39.690195 32.123375 59.963649 0
M  V30 END ATOM
M  V30 BEGIN BOND
M  V30 1 1 4 3
M  V30 2 1 6 2
M  V30 3 1 10 2
M  V30 4 1 11 7
M  V30 5 1 14 8
M  V30 6 1 18 11
M  V30 7 1 19 6
M  V30 8 1 19 18
M  V30 9 1 20 9
M  V30 10 1 21 1
M  V30 11 2 21 13
M  V30 12 2 21 17
M  V30 13 1 22 20
M  V30 14 1 23 8
M  V30 15 1 23 14
M  V30 16 1 24 12
M  V30 17 2 25 10
M  V30 18 1 26 25
M  V30 19 1 27 10
M  V30 20 2 28 12
M  V30 21 1 29 9
M  V30 22 1 29 20
M  V30 23 1 30 22
M  V30 24 2 31 5
M  V30 25 1 31 7
M  V30 26 1 31 8
M  V30 27 1 32 2
M  V30 28 1 33 16
M  V30 29 1 34 4
M  V30 30 1 34 9
M  V30 31 1 34 21
M  V30 32 1 35 30
M  V30 33 1 35 33
M  V30 34 1 36 26
M  V30 35 2 36 27
M  V30 36 1 37 1
M  V30 37 1 37 12
M  V30 38 1 37 14
M  V30 39 1 38 3
M  V30 40 1 38 11
M  V30 41 1 38 15
M  V30 42 1 39 32
M  V30 43 1 40 1
M  V30 44 1 41 1
M  V30 45 1 2 42 CFG=3
M  V30 46 1 43 3
M  V30 47 1 44 3
M  V30 48 1 45 4
M  V30 49 1 46 4
M  V30 50 1 47 6
M  V30 51 1 48 6
M  V30 52 1 8 49 CFG=3
M  V30 53 1 9 50 CFG=3
M  V30 54 1 11 51 CFG=3
M  V30 55 1 14 52 CFG=3
M  V30 56 1 53 15
M  V30 57 1 54 16
M  V30 58 1 55 16
M  V30 59 1 56 16
M  V30 60 1 57 18
M  V30 61 1 58 19
M  V30 62 1 59 19
M  V30 63 1 20 60 CFG=1
M  V30 64 1 61 23
M  V30 65 1 62 23
M  V30 66 1 63 24
M  V30 67 1 64 24
M  V30 68 1 65 24
M  V30 69 1 66 25
M  V30 70 1 67 27
M  V30 71 1 68 29
M  V30 72 1 69 29
M  V30 73 1 70 30
M  V30 74 1 71 30
M  V30 75 1 72 32
M  V30 76 1 73 32
M  V30 77 1 74 35
M  V30 78 1 75 35
M  V30 79 1 76 36
M  V30 80 1 37 77 CFG=1
M  V30 81 1 38 78 CFG=1
M  V30 82 1 79 39
M  V30 83 1 80 39
M  V30 84 1 81 39
M  V30 85 1 82 18
M  V30 END BOND
M  V30 END CTAB
M  END
>  <i_epik_Tot_Q>  (1) 
2

>  <i_epik_Tot_abs_Q>  (1) 
2

>  <i_i_glide_confnum>  (1) 
94

>  <i_i_glide_lignum>  (1) 
74

>  <i_i_glide_posenum>  (1) 
108

>  <i_i_glide_rotatable_bonds>  (1) 
13

>  <i_lp_mmshare_version>  (1) 
72125

>  <i_m_source_file_index>  (1) 
35

>  <i_f3d_flags>  (1) 
0

>  <num_sample>  (1) 
50

>  <b_lp_Chiralities_Consistent>  (1) 
1

>  <r_epik_Charging_Adjusted_Penalty>  (1) 
2.3451396311148152

>  <r_epik_Ionization_Penalty>  (1) 
1.1748262987801661

>  <r_epik_Ionization_Penalty_Charging>  (1) 
1.1748152809562251

>  <r_epik_Ionization_Penalty_Neutral>  (1) 
1.1017823941083724e-05

>  <r_epik_State_Penalty>  (1) 
1.1703243501585898

>  <r_glide_ring_energy>  (1) 
0

>  <r_i_docking_score>  (1) 
-4.4409624284151628

>  <r_i_glide_ecoul>  (1) 
-9.1901146233601629

>  <r_i_glide_eff_state_penalty>  (1) 
1.1703243501585898

>  <r_i_glide_einternal>  (1) 
7.3386160263956501

>  <r_i_glide_emodel>  (1) 
-23.073055079424194

>  <r_i_glide_emodel_strain>  (1) 
9.062102403363177

>  <r_i_glide_energy>  (1) 
-30.530153486331855

>  <r_i_glide_erotb>  (1) 
0.3736599463562138

>  <r_i_glide_esite>  (1) 
-0.11656914828879678

>  <r_i_glide_evdw>  (1) 
-21.340038862971692

>  <r_i_glide_gscore>  (1) 
-5.6112867785737528

>  <r_i_glide_gscore_strain>  (1) 
1.2655256008407942

>  <r_i_glide_hbond>  (1) 
-0.13907000637133896

>  <r_i_glide_ligand_efficiency>  (1) 
-0.11387083149782469

>  <r_i_glide_ligand_efficiency_ln>  (1) 
-0.95226840886745401

>  <r_i_glide_ligand_efficiency_sa>  (1) 
-0.38616006680096115

>  <r_i_glide_lipo>  (1) 
-3.1385173372591577

>  <r_i_glide_metal>  (1) 
-0

>  <r_i_glide_rewards>  (1) 
-1.4107966971988577

>  <r_lp_Energy>  (1) 
19.937625000000001

>  <r_lp_tautomer_probability>  (1) 
0.9999999700000004

>  <s_epik_Chemistry_Notes>  (1) 
This compound has an ester and may undergo hydrolysis at high or low pH. This compound contains an acetal/aminal-like group ( X-CH(R)-Y where X, Y are N, S, or O) that may be acid/base labile, releasing an aldehyde.

>  <s_epik_cmdline>  (1) 
J2VwaWtfcHl0aG9uJywgJy1waHQnLCAnMS4wJywgJy1waCcsICc3LjQnLCAnLXRuJywgJzgnLCAnLW1hJywgJzUwMCcsICctaW1hZScsICc8aW5maWxlLm1hZT4nLCAnLW9tYWUnLCAnPG91dGZpbGUubWFlPic=

>  <s_epik_input>  (1) 
W0NIM11PW0NIMl1bQ0gyXU9bQ0BASF0oW0NIMl0xKVtDSF0xTihTKD1PKSg9TylbQ0gyXVtDQEhdKEMoPU8pW0NIM10pW0NASF0oW0NIXTIzKVtDSDJdMilbQ0gyXVtDSDJdW0NASF0oW09IXSlbQ0BIXShPQzM9TylbTkhdW0NIMl1bQ0gyXVtDQEhdKFtDSDJdW05IMl0pYzRbY0hdc1tjSF1bY0hdNA==

>  <s_glide_docking_method>  (1) 
confgen

>  <s_i_glide_gridfile>  (1) 
gpcr_5ht2c_6bqh_protein_autoprepared_prepared

>  <s_lp_Force_Field>  (1) 
S-OPLS

>  <s_lp_Variant>  (1) 
DiffSBDD_34-2

>  <s_m_source_file>  (1) 
generated_GPCR_5HT2C_ligand_DiffSBDD_2026-06-23_prepared.sdf

>  <GenAI_Model>  (1) 
DiffSBDD

>  <Protein>  (1) 
GPCR_5HT2C

$$$$
DiffSBDD_31
     RDKit          3D

  0  0  0  0  0  0  0  0  0  0999 V3000
M  V30 BEGIN CTAB
M  V30 COUNTS 51 52 0 0 1
M  V30 BEGIN ATOM
M  V30 1 C 39.940761 29.908524 54.491643 0
M  V30 2 C 38.573024 27.388663 53.165807 0
M  V30 3 C 37.743920 32.076379 59.519587 0
M  V30 4 C 38.237889 33.244815 57.397708 0
M  V30 5 C 36.508896 23.854396 55.421064 0
M  V30 6 N 38.905587 30.665254 55.176853 0
M  V30 7 C 36.537345 31.408119 60.194683 0
M  V30 8 N 39.237167 30.731283 56.653819 0
M  V30 9 N 37.645136 32.049129 58.041814 0 CFG=1 CHG=1
M  V30 10 C 38.306618 25.633421 55.027635 0 CFG=1
M  V30 11 O 36.549696 31.737617 61.567107 0
M  V30 12 C 39.734506 25.606320 55.599479 0
M  V30 13 C 39.463724 31.865445 55.760233 0 CFG=2
M  V30 14 C 37.980295 30.735976 57.412073 0
M  V30 15 C 39.577522 29.767588 53.004832 0
M  V30 16 C 37.282473 25.040261 56.020082 0
M  V30 17 C 37.923359 27.038746 54.519635 0
M  V30 18 C 38.454533 32.983572 55.911705 0
M  V30 19 C 38.367628 28.852238 52.733410 0
M  V30 20 H 40.918181 30.384671 54.567943 0
M  V30 21 H 40.045058 28.932900 54.962482 0
M  V30 22 H 38.127838 26.739920 52.412507 0
M  V30 23 H 39.635125 27.150295 53.164160 0
M  V30 24 H 38.680164 31.622933 59.848692 0
M  V30 25 H 37.776727 33.116545 59.847234 0
M  V30 26 H 37.579590 34.101037 57.550259 0
M  V30 27 H 39.192894 33.475436 57.874398 0
M  V30 28 H 35.857709 23.401485 56.165970 0
M  V30 29 H 37.186739 23.075945 55.068848 0
M  V30 30 H 35.893070 24.160999 54.575493 0
M  V30 31 H 35.599441 31.761956 59.765629 0
M  V30 32 H 36.565864 30.324106 60.079895 0
M  V30 33 H 38.303445 24.974392 54.167758 0
M  V30 34 H 36.425712 32.671733 61.658912 0
M  V30 35 H 39.825707 26.266544 56.461540 0
M  V30 36 H 40.472271 25.922357 54.860926 0
M  V30 37 H 40.007633 24.599233 55.923509 0
M  V30 38 H 40.492610 32.137756 55.559682 0
M  V30 39 H 37.153609 30.454956 56.758800 0
M  V30 40 H 38.029403 29.952631 58.168684 0
M  V30 41 H 39.388403 30.758414 52.591290 0
M  V30 42 H 40.439009 29.390267 52.453559 0
M  V30 43 H 36.581710 25.803435 56.361355 0
M  V30 44 H 37.793513 24.689398 56.916999 0
M  V30 45 H 36.844951 27.103630 54.386830 0
M  V30 46 H 38.165658 27.779503 55.280649 0
M  V30 47 H 38.840605 33.876905 55.419110 0
M  V30 48 H 37.515959 32.726920 55.417609 0
M  V30 49 H 38.174651 28.873788 51.659995 0
M  V30 50 H 37.471090 29.259606 53.201351 0
M  V30 51 H 36.649370 32.135330 57.808783 0
M  V30 END ATOM
M  V30 BEGIN BOND
M  V30 1 1 6 1
M  V30 2 1 7 3
M  V30 3 1 8 6
M  V30 4 1 9 3
M  V30 5 1 9 4
M  V30 6 1 11 7
M  V30 7 1 12 10
M  V30 8 1 13 6
M  V30 9 1 13 8
M  V30 10 1 14 8
M  V30 11 1 14 9
M  V30 12 1 15 1
M  V30 13 1 16 5
M  V30 14 1 16 10
M  V30 15 1 17 2
M  V30 16 1 17 10
M  V30 17 1 18 4
M  V30 18 1 18 13
M  V30 19 1 19 2
M  V30 20 1 19 15
M  V30 21 1 20 1
M  V30 22 1 21 1
M  V30 23 1 22 2
M  V30 24 1 23 2
M  V30 25 1 24 3
M  V30 26 1 25 3
M  V30 27 1 26 4
M  V30 28 1 27 4
M  V30 29 1 28 5
M  V30 30 1 29 5
M  V30 31 1 30 5
M  V30 32 1 31 7
M  V30 33 1 32 7
M  V30 34 1 10 33 CFG=3
M  V30 35 1 34 11
M  V30 36 1 35 12
M  V30 37 1 36 12
M  V30 38 1 37 12
M  V30 39 1 13 38 CFG=3
M  V30 40 1 39 14
M  V30 41 1 40 14
M  V30 42 1 41 15
M  V30 43 1 42 15
M  V30 44 1 43 16
M  V30 45 1 44 16
M  V30 46 1 45 17
M  V30 47 1 46 17
M  V30 48 1 47 18
M  V30 49 1 48 18
M  V30 50 1 49 19
M  V30 51 1 50 19
M  V30 52 1 9 51 CFG=1
M  V30 END BOND
M  V30 END CTAB
M  END
>  <i_epik_Tot_Q>  (1) 
1

>  <i_epik_Tot_abs_Q>  (1) 
1

>  <i_i_glide_confnum>  (1) 
16

>  <i_i_glide_lignum>  (1) 
69

>  <i_i_glide_posenum>  (1) 
120

>  <i_i_glide_rotatable_bonds>  (1) 
10

>  <i_lp_mmshare_version>  (1) 
72125

>  <i_m_source_file_index>  (1) 
32

>  <i_f3d_flags>  (1) 
0

>  <num_sample>  (1) 
50

>  <b_lp_Chiralities_Consistent>  (1) 
1

>  <r_epik_Charging_Adjusted_Penalty>  (1) 
0.062925192649716036

>  <r_epik_Ionization_Penalty>  (1) 
0.062927217042738556

>  <r_epik_Ionization_Penalty_Charging>  (1) 
0.062925192649716036

>  <r_epik_Ionization_Penalty_Neutral>  (1) 
2.0243930225180512e-06

>  <r_epik_State_Penalty>  (1) 
-0

>  <r_glide_ring_energy>  (1) 
0

>  <r_i_docking_score>  (1) 
-4.4359610174534811

>  <r_i_glide_ecoul>  (1) 
-8.9419663107907397

>  <r_i_glide_eff_state_penalty>  (1) 
-0

>  <r_i_glide_einternal>  (1) 
10.014259435801932

>  <r_i_glide_emodel>  (1) 
-41.106956003214741

>  <r_i_glide_emodel_strain>  (1) 
1.8797692710299145

>  <r_i_glide_energy>  (1) 
-35.842051754365436

>  <r_i_glide_erotb>  (1) 
3.9128418167227688

>  <r_i_glide_esite>  (1) 
-0.21252431846581957

>  <r_i_glide_evdw>  (1) 
-26.900085443574696

>  <r_i_glide_gscore>  (1) 
-4.4359610174534811

>  <r_i_glide_gscore_strain>  (1) 
0

>  <r_i_glide_hbond>  (1) 
-0.52000000000000002

>  <r_i_glide_ligand_efficiency>  (1) 
-0.23347163249755165

>  <r_i_glide_ligand_efficiency_ln>  (1) 
-1.1246113936311704

>  <r_i_glide_ligand_efficiency_sa>  (1) 
-0.62299608908627091

>  <r_i_glide_lipo>  (1) 
-2.6903049341602596

>  <r_i_glide_metal>  (1) 
-0

>  <r_i_glide_rewards>  (1) 
-2.2396743627528242

>  <r_lp_Energy>  (1) 
23.34319

>  <r_lp_tautomer_probability>  (1) 
1

>  <s_epik_Chemistry_Notes>  (1) 
This compound contains an acetal/aminal-like group ( X-CH(R)-Y where X, Y are N, S, or O) that may be acid/base labile, releasing an aldehyde.

>  <s_epik_cmdline>  (1) 
J2VwaWtfcHl0aG9uJywgJy1waHQnLCAnMS4wJywgJy1waCcsICc3LjQnLCAnLXRuJywgJzgnLCAnLW1hJywgJzUwMCcsICctaW1hZScsICc8aW5maWxlLm1hZT4nLCAnLW9tYWUnLCAnPG91dGZpbGUubWFlPic=

>  <s_epik_input>  (1) 
W0NIM11bQ0gyXVtDQEhdKFtDSDNdKVtDSDJdW0NIMl1bQ0gyXVtDSDJdW0NIMl1OMVtDQEhdKE4xMilbQ0gyXVtDSDJdTihbQ0gyXTIpW0NIMl1bQ0gyXVtPSF0=

>  <s_glide_docking_method>  (1) 
confgen

>  <s_i_glide_gridfile>  (1) 
gpcr_5ht2c_6bqh_protein_autoprepared_prepared

>  <s_lp_Force_Field>  (1) 
S-OPLS

>  <s_lp_Variant>  (1) 
DiffSBDD_31-1

>  <s_m_source_file>  (1) 
generated_GPCR_5HT2C_ligand_DiffSBDD_2026-06-23_prepared.sdf

>  <GenAI_Model>  (1) 
DiffSBDD

>  <Protein>  (1) 
GPCR_5HT2C

$$$$
DiffSBDD_20
     RDKit          3D

  0  0  0  0  0  0  0  0  0  0999 V3000
M  V30 BEGIN CTAB
M  V30 COUNTS 27 26 0 0 1
M  V30 BEGIN ATOM
M  V30 1 C 38.589157 29.091377 52.440356 0 CFG=2
M  V30 2 C 40.176191 30.577611 50.601023 0
M  V30 3 N 37.645137 32.937754 57.843444 0 CHG=1
M  V30 4 C 38.780445 31.346671 56.339134 0
M  V30 5 C 38.686659 30.244809 53.469092 0
M  V30 6 O 37.494872 27.658208 54.030683 0
M  V30 7 C 38.269529 27.737749 53.078505 0
M  V30 8 C 38.696297 32.789526 56.832624 0
M  V30 9 S 40.045143 28.937758 51.367747 0
M  V30 10 C 39.784392 30.145679 54.539138 0
M  V30 11 O 39.771774 31.320501 55.329614 0
M  V30 12 H 37.753230 29.302607 51.776111 0
M  V30 13 H 40.967248 30.573751 49.850866 0
M  V30 14 H 39.245114 30.854613 50.110400 0
M  V30 15 H 40.425968 31.337690 51.340989 0
M  V30 16 H 37.525672 33.912154 58.079647 0
M  V30 17 H 36.757967 32.584711 57.459579 0
M  V30 18 H 37.803539 31.035566 55.969974 0
M  V30 19 H 39.057610 30.667715 57.146702 0
M  V30 20 H 38.845138 31.196085 52.967760 0
M  V30 21 H 37.709243 30.339142 53.939964 0
M  V30 22 H 38.766811 26.875867 52.633028 0
M  V30 23 H 39.645138 33.103660 57.260982 0
M  V30 24 H 38.474288 33.457075 55.998603 0
M  V30 25 H 39.705505 29.246801 55.152259 0
M  V30 26 H 40.756921 30.137755 54.051270 0
M  V30 27 H 37.868774 32.406848 58.671303 0
M  V30 END ATOM
M  V30 BEGIN BOND
M  V30 1 1 5 1
M  V30 2 1 7 1
M  V30 3 2 7 6
M  V30 4 1 8 3
M  V30 5 1 8 4
M  V30 6 1 9 1
M  V30 7 1 9 2
M  V30 8 1 10 5
M  V30 9 1 11 4
M  V30 10 1 11 10
M  V30 11 1 1 12 CFG=3
M  V30 12 1 13 2
M  V30 13 1 14 2
M  V30 14 1 15 2
M  V30 15 1 16 3
M  V30 16 1 17 3
M  V30 17 1 18 4
M  V30 18 1 19 4
M  V30 19 1 20 5
M  V30 20 1 21 5
M  V30 21 1 22 7
M  V30 22 1 23 8
M  V30 23 1 24 8
M  V30 24 1 25 10
M  V30 25 1 26 10
M  V30 26 1 27 3
M  V30 END BOND
M  V30 END CTAB
M  END
>  <i_epik_Tot_Q>  (1) 
1

>  <i_epik_Tot_abs_Q>  (1) 
1

>  <i_i_glide_confnum>  (1) 
33

>  <i_i_glide_lignum>  (1) 
47

>  <i_i_glide_posenum>  (1) 
104

>  <i_i_glide_rotatable_bonds>  (1) 
7

>  <i_lp_mmshare_version>  (1) 
72125

>  <i_m_source_file_index>  (1) 
21

>  <i_f3d_flags>  (1) 
0

>  <num_sample>  (1) 
50

>  <b_lp_Chiralities_Consistent>  (1) 
1

>  <r_epik_Charging_Adjusted_Penalty>  (1) 
0.011277259608130119

>  <r_epik_Ionization_Penalty>  (1) 
0.0057709472056282005

>  <r_epik_Ionization_Penalty_Charging>  (1) 
0.0056386298040651114

>  <r_epik_Ionization_Penalty_Neutral>  (1) 
0.00013231740156308916

>  <r_epik_State_Penalty>  (1) 
0.0056386298040650073

>  <r_glide_ring_energy>  (1) 
0

>  <r_i_docking_score>  (1) 
-4.4204125474067304

>  <r_i_glide_ecoul>  (1) 
-4.9203130876564938

>  <r_i_glide_eff_state_penalty>  (1) 
0.0056386298040650073

>  <r_i_glide_einternal>  (1) 
3.8583275132416537

>  <r_i_glide_emodel>  (1) 
-36.060150504606213

>  <r_i_glide_emodel_strain>  (1) 
0.031508803737328783

>  <r_i_glide_energy>  (1) 
-26.648105698306388

>  <r_i_glide_erotb>  (1) 
1.9754277914378024

>  <r_i_glide_esite>  (1) 
-0.10000000000000001

>  <r_i_glide_evdw>  (1) 
-21.727792610649892

>  <r_i_glide_gscore>  (1) 
-4.4260511772107956

>  <r_i_glide_gscore_strain>  (1) 
0

>  <r_i_glide_hbond>  (1) 
-0.20000000000000001

>  <r_i_glide_ligand_efficiency>  (1) 
-0.40185568612788458

>  <r_i_glide_ligand_efficiency_ln>  (1) 
-1.3009266597455358

>  <r_i_glide_ligand_efficiency_sa>  (1) 
-0.89371904523048729

>  <r_i_glide_lipo>  (1) 
-1.3990861443515001

>  <r_i_glide_metal>  (1) 
-0

>  <r_i_glide_rewards>  (1) 
-2.8779562306161282

>  <r_lp_Energy>  (1) 
-0.62655099999999997

>  <r_lp_tautomer_probability>  (1) 
0.99990000499974985

>  <s_epik_cmdline>  (1) 
J2VwaWtfcHl0aG9uJywgJy1waHQnLCAnMS4wJywgJy1waCcsICc3LjQnLCAnLXRuJywgJzgnLCAnLW1hJywgJzUwMCcsICctaW1hZScsICc8aW5maWxlLm1hZT4nLCAnLW9tYWUnLCAnPG91dGZpbGUubWFlPic=

>  <s_epik_input>  (1) 
W0NIM11TW0NAQEhdKFtDSF09TylbQ0gyXVtDSDJdT1tDSDJdW0NIMl1bTkgyXQ==

>  <s_glide_docking_method>  (1) 
confgen

>  <s_i_glide_gridfile>  (1) 
gpcr_5ht2c_6bqh_protein_autoprepared_prepared

>  <s_lp_Force_Field>  (1) 
S-OPLS

>  <s_lp_Variant>  (1) 
DiffSBDD_20-1

>  <s_m_source_file>  (1) 
generated_GPCR_5HT2C_ligand_DiffSBDD_2026-06-23_prepared.sdf

>  <GenAI_Model>  (1) 
DiffSBDD

>  <Protein>  (1) 
GPCR_5HT2C

$$$$
DiffSBDD_20
     RDKit          3D

  0  0  0  0  0  0  0  0  0  0999 V3000
M  V30 BEGIN CTAB
M  V30 COUNTS 27 26 0 0 1
M  V30 BEGIN ATOM
M  V30 1 C 38.891462 29.145704 52.206663 0 CFG=2
M  V30 2 C 40.133304 30.937767 50.396352 0
M  V30 3 N 37.645136 32.920958 57.767774 0 CHG=1
M  V30 4 C 38.704953 31.344520 56.180641 0
M  V30 5 C 38.792104 30.166818 53.367764 0
M  V30 6 O 39.645125 26.983587 52.967596 0
M  V30 7 C 38.687734 27.693563 52.658476 0
M  V30 8 C 38.703817 32.757748 56.764995 0
M  V30 9 S 40.399229 29.337736 51.202971 0
M  V30 10 C 39.855298 30.111267 54.474100 0
M  V30 11 O 39.783856 31.286217 55.265456 0
M  V30 12 H 38.064718 29.337741 51.524470 0
M  V30 13 H 40.990083 31.178764 49.767649 0
M  V30 14 H 39.245137 30.915763 49.767814 0
M  V30 15 H 40.025253 31.733453 51.131410 0
M  V30 16 H 37.555132 33.892995 58.025588 0
M  V30 17 H 36.750124 32.600379 57.371423 0
M  V30 18 H 37.745970 31.156227 55.698516 0
M  V30 19 H 38.839620 30.594187 56.960953 0
M  V30 20 H 38.845140 31.176702 52.967758 0
M  V30 21 H 37.797977 30.075151 53.803803 0
M  V30 22 H 37.653367 27.350151 52.679775 0
M  V30 23 H 39.659465 32.975826 57.234597 0
M  V30 24 H 38.555257 33.489638 55.969578 0
M  V30 25 H 39.785034 29.207376 55.080752 0
M  V30 26 H 40.845133 30.137754 54.024132 0
M  V30 27 H 37.843016 32.364445 58.585303 0
M  V30 END ATOM
M  V30 BEGIN BOND
M  V30 1 1 5 1
M  V30 2 1 7 1
M  V30 3 2 7 6
M  V30 4 1 8 3
M  V30 5 1 8 4
M  V30 6 1 9 1
M  V30 7 1 9 2
M  V30 8 1 10 5
M  V30 9 1 11 4
M  V30 10 1 11 10
M  V30 11 1 1 12 CFG=3
M  V30 12 1 13 2
M  V30 13 1 14 2
M  V30 14 1 15 2
M  V30 15 1 16 3
M  V30 16 1 17 3
M  V30 17 1 18 4
M  V30 18 1 19 4
M  V30 19 1 20 5
M  V30 20 1 21 5
M  V30 21 1 22 7
M  V30 22 1 23 8
M  V30 23 1 24 8
M  V30 24 1 25 10
M  V30 25 1 26 10
M  V30 26 1 27 3
M  V30 END BOND
M  V30 END CTAB
M  END
>  <i_epik_Tot_Q>  (1) 
1

>  <i_epik_Tot_abs_Q>  (1) 
1

>  <i_i_glide_confnum>  (1) 
33

>  <i_i_glide_lignum>  (1) 
47

>  <i_i_glide_posenum>  (1) 
378

>  <i_i_glide_rotatable_bonds>  (1) 
7

>  <i_lp_mmshare_version>  (1) 
72125

>  <i_m_source_file_index>  (1) 
21

>  <i_f3d_flags>  (1) 
0

>  <num_sample>  (1) 
50

>  <b_lp_Chiralities_Consistent>  (1) 
1

>  <r_epik_Charging_Adjusted_Penalty>  (1) 
0.011277259608130119

>  <r_epik_Ionization_Penalty>  (1) 
0.0057709472056282005

>  <r_epik_Ionization_Penalty_Charging>  (1) 
0.0056386298040651114

>  <r_epik_Ionization_Penalty_Neutral>  (1) 
0.00013231740156308916

>  <r_epik_State_Penalty>  (1) 
0.0056386298040650073

>  <r_glide_ring_energy>  (1) 
0

>  <r_i_docking_score>  (1) 
-4.4031611088144755

>  <r_i_glide_ecoul>  (1) 
-5.8264962809866265

>  <r_i_glide_eff_state_penalty>  (1) 
0.0056386298040650073

>  <r_i_glide_einternal>  (1) 
5.2519546967338808

>  <r_i_glide_emodel>  (1) 
-34.861678309033373

>  <r_i_glide_emodel_strain>  (1) 
0.023228571888752825

>  <r_i_glide_energy>  (1) 
-26.182494351722973

>  <r_i_glide_erotb>  (1) 
1.9754277914378024

>  <r_i_glide_esite>  (1) 
-0.10000000000000001

>  <r_i_glide_evdw>  (1) 
-20.355998070736344

>  <r_i_glide_gscore>  (1) 
-4.4087997386185407

>  <r_i_glide_gscore_strain>  (1) 
0

>  <r_i_glide_hbond>  (1) 
-0.20000000000000001

>  <r_i_glide_ligand_efficiency>  (1) 
-0.40028737352858867

>  <r_i_glide_ligand_efficiency_ln>  (1) 
-1.2958495643063797

>  <r_i_glide_ligand_efficiency_sa>  (1) 
-0.89023114923386415

>  <r_i_glide_lipo>  (1) 
-1.3638197038928046

>  <r_i_glide_metal>  (1) 
-0

>  <r_i_glide_rewards>  (1) 
-2.828633480478727

>  <r_lp_Energy>  (1) 
-0.62655099999999997

>  <r_lp_tautomer_probability>  (1) 
0.99990000499974985

>  <s_epik_cmdline>  (1) 
J2VwaWtfcHl0aG9uJywgJy1waHQnLCAnMS4wJywgJy1waCcsICc3LjQnLCAnLXRuJywgJzgnLCAnLW1hJywgJzUwMCcsICctaW1hZScsICc8aW5maWxlLm1hZT4nLCAnLW9tYWUnLCAnPG91dGZpbGUubWFlPic=

>  <s_epik_input>  (1) 
W0NIM11TW0NAQEhdKFtDSF09TylbQ0gyXVtDSDJdT1tDSDJdW0NIMl1bTkgyXQ==

>  <s_glide_docking_method>  (1) 
confgen

>  <s_i_glide_gridfile>  (1) 
gpcr_5ht2c_6bqh_protein_autoprepared_prepared

>  <s_lp_Force_Field>  (1) 
S-OPLS

>  <s_lp_Variant>  (1) 
DiffSBDD_20-1

>  <s_m_source_file>  (1) 
generated_GPCR_5HT2C_ligand_DiffSBDD_2026-06-23_prepared.sdf

>  <GenAI_Model>  (1) 
DiffSBDD

>  <Protein>  (1) 
GPCR_5HT2C

$$$$
DiffSBDD_30
     RDKit          3D

  0  0  0  0  0  0  0  0  0  0999 V3000
M  V30 BEGIN CTAB
M  V30 COUNTS 75 78 0 0 1
M  V30 BEGIN ATOM
M  V30 1 C 39.175920 28.091457 53.368009 0 CFG=2
M  V30 2 N 39.602939 29.768653 57.953098 0
M  V30 3 C 41.462291 30.457288 65.931458 0
M  V30 4 O 37.684031 26.370163 54.026699 0
M  V30 5 C 39.479184 28.479012 51.902901 0
M  V30 6 C 37.162897 33.184791 59.750116 0 CFG=1
M  V30 7 N 37.669356 31.979288 59.013302 0 CHG=1
M  V30 8 C 38.645244 29.537292 59.065351 0 CFG=1
M  V30 9 O 39.694275 30.378311 53.990166 0
M  V30 10 C 37.640411 35.627851 60.283965 0
M  V30 11 C 39.204890 28.542344 60.128094 0
M  V30 12 C 34.845167 32.611846 61.684695 0
M  V30 13 O 35.001446 32.315115 60.307329 0
M  V30 14 C 38.197833 30.848019 59.843970 0 CFG=2
M  V30 15 C 38.708175 29.064938 55.781470 0 CFG=1
M  V30 16 C 37.918330 34.449349 59.338890 0
M  V30 17 C 38.945153 30.259733 56.736571 0
M  V30 18 C 37.782497 27.479348 53.458132 0
M  V30 19 O 40.302542 29.113072 60.830656 0
M  V30 20 O 37.026898 30.537743 60.569180 0
M  V30 21 C 40.324122 28.599642 57.450040 0
M  V30 22 O 37.831415 35.434290 61.503366 0 CHG=-1
M  V30 23 C 39.864521 30.152679 61.691135 0 CFG=2
M  V30 24 C 39.300333 31.304095 60.842209 0
M  V30 25 C 41.016495 30.596398 62.593444 0 CFG=2
M  V30 26 C 42.547738 31.162242 68.436632 0
M  V30 27 C 41.543156 29.497685 66.962135 0
M  V30 28 C 41.927191 31.771447 66.156150 0
M  V30 29 C 39.238752 29.288617 54.343872 0
M  V30 30 O 36.844928 28.137739 52.967859 0 CHG=-1
M  V30 31 C 40.877241 30.072853 64.583638 0 CFG=2
M  V30 32 C 39.384242 27.884559 56.499338 0
M  V30 33 C 42.468774 32.122405 67.408708 0
M  V30 34 C 42.085212 29.850366 68.213168 0
M  V30 35 O 37.243572 36.692181 59.763650 0
M  V30 36 C 35.639745 33.361007 59.604634 0
M  V30 37 C 41.758923 29.571751 63.449476 0
M  V30 38 O 40.454695 31.207843 63.784101 0
M  V30 39 H 39.887459 27.327720 53.678597 0
M  V30 40 H 38.898985 29.345312 51.582832 0
M  V30 41 H 40.534503 28.716146 51.769150 0
M  V30 42 H 39.235742 27.659753 51.222301 0
M  V30 43 H 37.362296 33.070354 60.806456 0
M  V30 44 H 38.433411 32.282358 58.427056 0
M  V30 45 H 37.754890 29.070248 58.641554 0
M  V30 46 H 39.492684 27.583399 59.704670 0
M  V30 47 H 38.445223 28.245744 60.838300 0
M  V30 48 H 34.572410 31.693063 62.199066 0
M  V30 49 H 35.747727 33.013530 62.144614 0
M  V30 50 H 34.049433 33.337768 61.836646 0
M  V30 51 H 37.638560 28.871634 55.717502 0
M  V30 52 H 38.989667 34.246984 59.368507 0
M  V30 53 H 37.644818 34.719385 58.316957 0
M  V30 54 H 37.992476 30.746006 56.929927 0
M  V30 55 H 39.585464 31.017403 56.284120 0
M  V30 56 H 36.342298 31.169418 60.373166 0
M  V30 57 H 41.174370 28.937429 56.860541 0
M  V30 58 H 40.767627 27.963459 58.211120 0
M  V30 59 H 39.071144 29.753579 62.327013 0
M  V30 60 H 40.097533 31.788295 60.287309 0
M  V30 61 H 38.956757 32.056591 61.546924 0
M  V30 62 H 41.717988 31.270290 62.100148 0
M  V30 63 H 42.962910 31.432010 69.396260 0
M  V30 64 H 41.187987 28.490176 66.793020 0
M  V30 65 H 41.867122 32.508921 65.369280 0
M  V30 66 H 40.045076 29.389727 64.742249 0
M  V30 67 H 39.918722 27.191934 55.850708 0
M  V30 68 H 38.643432 27.304507 57.052888 0
M  V30 69 H 42.823886 33.128266 67.581109 0
M  V30 70 H 42.145722 29.114030 69.001690 0
M  V30 71 H 35.291651 34.324382 59.978991 0
M  V30 72 H 35.341939 33.337802 58.567627 0
M  V30 73 H 41.590185 28.531100 63.169275 0
M  V30 74 H 42.816115 29.805241 63.581556 0
M  V30 75 H 36.937289 31.652704 58.388421 0
M  V30 END ATOM
M  V30 BEGIN BOND
M  V30 1 1 5 1
M  V30 2 1 7 6
M  V30 3 1 8 2
M  V30 4 1 11 8
M  V30 5 1 13 12
M  V30 6 1 14 7
M  V30 7 1 14 8
M  V30 8 1 16 6
M  V30 9 1 16 10
M  V30 10 1 17 2
M  V30 11 1 17 15
M  V30 12 1 18 1
M  V30 13 2 18 4
M  V30 14 1 19 11
M  V30 15 1 14 20 CFG=1
M  V30 16 1 21 2
M  V30 17 1 22 10
M  V30 18 1 23 19
M  V30 19 1 24 14
M  V30 20 1 24 23
M  V30 21 1 25 23
M  V30 22 1 27 3
M  V30 23 2 28 3
M  V30 24 1 29 1
M  V30 25 2 29 9
M  V30 26 1 29 15
M  V30 27 1 30 18
M  V30 28 1 31 3
M  V30 29 1 32 15
M  V30 30 1 32 21
M  V30 31 2 33 26
M  V30 32 1 33 28
M  V30 33 1 34 26
M  V30 34 2 34 27
M  V30 35 2 35 10
M  V30 36 1 36 6
M  V30 37 1 36 13
M  V30 38 1 37 25
M  V30 39 1 37 31
M  V30 40 1 38 25
M  V30 41 1 38 31
M  V30 42 1 1 39 CFG=1
M  V30 43 1 40 5
M  V30 44 1 41 5
M  V30 45 1 42 5
M  V30 46 1 6 43 CFG=1
M  V30 47 1 44 7
M  V30 48 1 8 45 CFG=3
M  V30 49 1 46 11
M  V30 50 1 47 11
M  V30 51 1 48 12
M  V30 52 1 49 12
M  V30 53 1 50 12
M  V30 54 1 15 51 CFG=3
M  V30 55 1 52 16
M  V30 56 1 53 16
M  V30 57 1 54 17
M  V30 58 1 55 17
M  V30 59 1 56 20
M  V30 60 1 57 21
M  V30 61 1 58 21
M  V30 62 1 23 59 CFG=1
M  V30 63 1 60 24
M  V30 64 1 61 24
M  V30 65 1 25 62 CFG=3
M  V30 66 1 63 26
M  V30 67 1 64 27
M  V30 68 1 65 28
M  V30 69 1 31 66 CFG=1
M  V30 70 1 67 32
M  V30 71 1 68 32
M  V30 72 1 69 33
M  V30 73 1 70 34
M  V30 74 1 71 36
M  V30 75 1 72 36
M  V30 76 1 73 37
M  V30 77 1 74 37
M  V30 78 1 75 7
M  V30 END BOND
M  V30 END CTAB
M  END
>  <i_epik_Tot_Q>  (1) 
-1

>  <i_epik_Tot_abs_Q>  (1) 
3

>  <i_i_glide_confnum>  (1) 
930

>  <i_i_glide_lignum>  (1) 
68

>  <i_i_glide_posenum>  (1) 
76

>  <i_i_glide_rotatable_bonds>  (1) 
13

>  <i_lp_mmshare_version>  (1) 
72125

>  <i_m_source_file_index>  (1) 
31

>  <i_f3d_flags>  (1) 
0

>  <num_sample>  (1) 
50

>  <b_lp_Chiralities_Consistent>  (1) 
1

>  <r_epik_Charging_Adjusted_Penalty>  (1) 
0.46003484213561824

>  <r_epik_Ionization_Penalty>  (1) 
0.046729076423607623

>  <r_epik_Ionization_Penalty_Charging>  (1) 
0.030134691607895156

>  <r_epik_Ionization_Penalty_Neutral>  (1) 
0.016594384815712467

>  <r_epik_State_Penalty>  (1) 
0.42990015052772307

>  <r_glide_ring_energy>  (1) 
0

>  <r_i_docking_score>  (1) 
-4.3326933207523401

>  <r_i_glide_ecoul>  (1) 
-4.2335200657597953

>  <r_i_glide_eff_state_penalty>  (1) 
0.42990015052772307

>  <r_i_glide_einternal>  (1) 
17.274140060571909

>  <r_i_glide_emodel>  (1) 
-45.50168089498149

>  <r_i_glide_emodel_strain>  (1) 
0.56303138031709921

>  <r_i_glide_energy>  (1) 
-40.216388238100279

>  <r_i_glide_erotb>  (1) 
0.65218633798694536

>  <r_i_glide_esite>  (1) 
-0.077100171098944292

>  <r_i_glide_evdw>  (1) 
-35.982868172340481

>  <r_i_glide_gscore>  (1) 
-4.7625934712800628

>  <r_i_glide_gscore_strain>  (1) 
0

>  <r_i_glide_hbond>  (1) 
-0.12437356763808688

>  <r_i_glide_ligand_efficiency>  (1) 
-0.11401824528295632

>  <r_i_glide_ligand_efficiency_ln>  (1) 
-0.93425613487857351

>  <r_i_glide_ligand_efficiency_sa>  (1) 
-0.38332653656767113

>  <r_i_glide_lipo>  (1) 
-1.8997483661541279

>  <r_i_glide_metal>  (1) 
-0

>  <r_i_glide_rewards>  (1) 
-0.87938628589485579

>  <r_lp_Energy>  (1) 
14.056426

>  <s_epik_cmdline>  (1) 
J2VwaWtfcHl0aG9uJywgJy1waHQnLCAnMS4wJywgJy1waCcsICc3LjQnLCAnLXRuJywgJzgnLCAnLW1hJywgJzUwMCcsICctaW1hZScsICc8aW5maWxlLm1hZT4nLCAnLW9tYWUnLCAnPG91dGZpbGUubWFlPic=

>  <s_epik_input>  (1) 
Tz1DKFtPSF0pW0NAQEhdKFtDSDNdKUMoPU8pW0NAQEhdKFtDSDJdW0NIMl0xKVtDSDJdTjFbQ0BIXShbQ0BdMihbT0hdKVtOSF1bQ0BASF0oW0NIMl1DKD1PKVtPSF0pW0NIMl1PW0NIM10pW0NIMl1PW0NASF0oW0NIMl0yKVtDQEBIXTNbQ0gyXVtDSF0oTzMpYzRbY0hdW2NIXVtjSF1bY0hdW2NIXTQ=

>  <s_glide_docking_method>  (1) 
confgen

>  <s_i_glide_gridfile>  (1) 
gpcr_5ht2c_6bqh_protein_autoprepared_prepared

>  <s_lp_Force_Field>  (1) 
S-OPLS

>  <s_lp_Variant>  (1) 
DiffSBDD_30-3

>  <s_m_source_file>  (1) 
generated_GPCR_5HT2C_ligand_DiffSBDD_2026-06-23_prepared.sdf

>  <GenAI_Model>  (1) 
DiffSBDD

>  <Protein>  (1) 
GPCR_5HT2C

$$$$
DiffSBDD_40
     RDKit          3D

  0  0  0  0  0  0  0  0  0  0999 V3000
M  V30 BEGIN CTAB
M  V30 COUNTS 60 63 0 0 1
M  V30 BEGIN ATOM
M  V30 1 C 37.484800 31.357525 58.816528 0 CFG=1
M  V30 2 C 39.525012 29.458438 57.008690 0 CFG=2
M  V30 3 C 37.565456 29.836133 58.698890 0 CFG=1
M  V30 4 C 37.695200 33.774549 57.867942 0
M  V30 5 C 41.129288 34.658659 63.642724 0
M  V30 6 O 36.865012 30.937746 61.366872 0
M  V30 7 C 38.661224 29.864810 55.796712 0
M  V30 8 F 40.372852 26.270642 58.167307 0
M  V30 9 C 40.675235 36.118521 66.668078 0
M  V30 10 F 39.214276 25.291776 56.666968 0
M  V30 11 C 40.657522 28.497582 56.583251 0
M  V30 12 N 41.820914 35.737768 65.801407 0 CHG=1
M  V30 13 O 41.301629 31.133449 62.519173 0
M  V30 14 C 38.708191 28.916929 58.206474 0 CFG=1
M  V30 15 C 38.620951 33.696206 59.047638 0
M  V30 16 C 41.984854 32.137417 64.599774 0
M  V30 17 S 38.044965 27.277234 57.767755 0
M  V30 18 C 39.963383 30.765154 62.206569 0
M  V30 19 C 40.187225 34.960632 67.555731 0
M  V30 20 P 37.905873 30.568978 60.364690 0 CFG=2
M  V30 21 C 39.536303 36.779527 65.873751 0
M  V30 22 C 42.111304 33.279077 65.414250 0
M  V30 23 C 39.547701 26.489071 57.146516 0
M  V30 24 O 40.163734 27.248012 56.122257 0
M  V30 25 C 38.347413 32.455139 58.219364 0
M  V30 26 C 41.425505 32.251232 63.305600 0
M  V30 27 C 40.998477 33.517040 62.825704 0
M  V30 28 C 41.679938 34.521174 64.925886 0
M  V30 29 C 39.690124 30.953018 60.711480 0
M  V30 30 H 36.452939 31.697814 58.879581 0
M  V30 31 H 40.045112 30.340135 57.361538 0
M  V30 32 H 36.588333 29.363058 58.616051 0
M  V30 33 H 38.045196 34.272541 56.966935 0
M  V30 34 H 36.631116 33.886125 58.070080 0
M  V30 35 H 40.808171 35.626082 63.285424 0
M  V30 36 H 38.185613 29.000398 55.333595 0
M  V30 37 H 37.869545 30.563052 56.070043 0
M  V30 38 H 39.268163 30.351045 55.031869 0
M  V30 39 H 41.062986 36.883741 67.342608 0
M  V30 40 H 41.369738 28.354486 57.397147 0
M  V30 41 H 41.226624 28.937395 55.767957 0
M  V30 42 H 42.608845 35.605248 66.417068 0
M  V30 43 H 39.389683 28.721962 59.031284 0
M  V30 44 H 38.167730 33.758792 60.035568 0
M  V30 45 H 39.615614 34.128295 58.967715 0
M  V30 46 H 42.312039 31.174291 64.964143 0
M  V30 47 H 39.826837 29.716675 62.476364 0
M  V30 48 H 39.235726 31.324227 62.799980 0
M  V30 49 H 39.397965 35.296132 68.229972 0
M  V30 50 H 39.780655 34.140060 66.968619 0
M  V30 51 H 40.993565 34.561531 68.171508 0
M  V30 52 H 38.700086 37.029936 66.528900 0
M  V30 53 H 39.859551 37.709351 65.408713 0
M  V30 54 H 39.151937 36.137897 65.085062 0
M  V30 55 H 42.536077 33.197613 66.403159 0
M  V30 56 H 39.143349 32.169264 57.545679 0
M  V30 57 H 40.574990 33.608147 61.837597 0
M  V30 58 H 39.912541 31.976524 60.433012 0
M  V30 59 H 40.351102 30.308693 60.138465 0
M  V30 60 H 42.034105 36.561018 65.240915 0
M  V30 END ATOM
M  V30 BEGIN BOND
M  V30 1 1 3 1
M  V30 2 1 7 2
M  V30 3 1 11 2
M  V30 4 1 12 9
M  V30 5 1 14 2
M  V30 6 1 14 3
M  V30 7 1 15 4
M  V30 8 1 17 14
M  V30 9 1 18 13
M  V30 10 1 19 9
M  V30 11 1 20 1
M  V30 12 1 20 3
M  V30 13 2 20 6
M  V30 14 1 21 9
M  V30 15 1 22 16
M  V30 16 1 23 8
M  V30 17 1 23 10
M  V30 18 1 23 17
M  V30 19 1 24 11
M  V30 20 1 24 23
M  V30 21 1 25 1
M  V30 22 1 25 4
M  V30 23 1 25 15
M  V30 24 1 26 13
M  V30 25 2 26 16
M  V30 26 2 27 5
M  V30 27 1 27 26
M  V30 28 1 28 5
M  V30 29 1 28 12
M  V30 30 2 28 22
M  V30 31 1 29 18
M  V30 32 1 20 29 CFG=1
M  V30 33 1 1 30 CFG=1
M  V30 34 1 2 31 CFG=1
M  V30 35 1 3 32 CFG=1
M  V30 36 1 33 4
M  V30 37 1 34 4
M  V30 38 1 35 5
M  V30 39 1 36 7
M  V30 40 1 37 7
M  V30 41 1 38 7
M  V30 42 1 39 9
M  V30 43 1 40 11
M  V30 44 1 41 11
M  V30 45 1 42 12
M  V30 46 1 14 43 CFG=1
M  V30 47 1 44 15
M  V30 48 1 45 15
M  V30 49 1 46 16
M  V30 50 1 47 18
M  V30 51 1 48 18
M  V30 52 1 49 19
M  V30 53 1 50 19
M  V30 54 1 51 19
M  V30 55 1 52 21
M  V30 56 1 53 21
M  V30 57 1 54 21
M  V30 58 1 55 22
M  V30 59 1 56 25
M  V30 60 1 57 27
M  V30 61 1 58 29
M  V30 62 1 59 29
M  V30 63 1 60 12
M  V30 END BOND
M  V30 END CTAB
M  END
>  <i_epik_Tot_Q>  (1) 
1

>  <i_epik_Tot_abs_Q>  (1) 
1

>  <i_i_glide_confnum>  (1) 
90

>  <i_i_glide_lignum>  (1) 
85

>  <i_i_glide_posenum>  (1) 
303

>  <i_i_glide_rotatable_bonds>  (1) 
8

>  <i_lp_mmshare_version>  (1) 
72125

>  <i_m_source_file_index>  (1) 
41

>  <i_f3d_flags>  (1) 
0

>  <num_sample>  (1) 
50

>  <b_lp_Chiralities_Consistent>  (1) 
1

>  <r_epik_Charging_Adjusted_Penalty>  (1) 
2.1414087062306124

>  <r_epik_Ionization_Penalty>  (1) 
1.0707043531153062

>  <r_epik_Ionization_Penalty_Charging>  (1) 
1.0707043531153062

>  <r_epik_Ionization_Penalty_Neutral>  (1) 
0

>  <r_epik_State_Penalty>  (1) 
1.0707043531153062

>  <r_glide_ring_energy>  (1) 
0

>  <r_i_docking_score>  (1) 
-4.141913493713008

>  <r_i_glide_ecoul>  (1) 
-7.3996091446342831

>  <r_i_glide_eff_state_penalty>  (1) 
1.0707043531153062

>  <r_i_glide_einternal>  (1) 
6.4909196547750323

>  <r_i_glide_emodel>  (1) 
-49.351563593759835

>  <r_i_glide_emodel_strain>  (1) 
1.1674037468240215

>  <r_i_glide_energy>  (1) 
-41.912133765834419

>  <r_i_glide_erotb>  (1) 
0.70277430803170493

>  <r_i_glide_esite>  (1) 
-0.029018002641437796

>  <r_i_glide_evdw>  (1) 
-34.512524621200136

>  <r_i_glide_gscore>  (1) 
-5.212617846828314

>  <r_i_glide_gscore_strain>  (1) 
0

>  <r_i_glide_hbond>  (1) 
-0.44498829879783985

>  <r_i_glide_ligand_efficiency>  (1) 
-0.14282460323148302

>  <r_i_glide_ligand_efficiency_ln>  (1) 
-0.94839316019630282

>  <r_i_glide_ligand_efficiency_sa>  (1) 
-0.43880243162999061

>  <r_i_glide_lipo>  (1) 
-2.644267968989118

>  <r_i_glide_metal>  (1) 
-0

>  <r_i_glide_rewards>  (1) 
0.038449718323527282

>  <r_lp_Energy>  (1) 
20.817494999999997

>  <s_epik_cmdline>  (1) 
J2VwaWtfcHl0aG9uJywgJy1waHQnLCAnMS4wJywgJy1waCcsICc3LjQnLCAnLXRuJywgJzgnLCAnLW1hJywgJzUwMCcsICctaW1hZScsICc8aW5maWxlLm1hZT4nLCAnLW9tYWUnLCAnPG91dGZpbGUubWFlPic=

>  <s_epik_input>  (1) 
RkMxKEYpU1tDQEBIXShbQ0BIXShbQ0gzXSlbQ0gyXU8xKVtDQEBIXTJbQ0BIXShbQ0hdM1tDSDJdW0NIMl0zKVAyKD1PKVtDSDJdW0NIMl1PYzRbY0hdW2NIXWMoW2NIXVtjSF00KVtOSF1bQ0hdKFtDSDNdKVtDSDNd

>  <s_glide_docking_method>  (1) 
confgen

>  <s_i_glide_gridfile>  (1) 
gpcr_5ht2c_6bqh_protein_autoprepared_prepared

>  <s_lp_Force_Field>  (1) 
S-OPLS

>  <s_lp_Variant>  (1) 
DiffSBDD_40-3

>  <s_m_source_file>  (1) 
generated_GPCR_5HT2C_ligand_DiffSBDD_2026-06-23_prepared.sdf

>  <GenAI_Model>  (1) 
DiffSBDD

>  <Protein>  (1) 
GPCR_5HT2C

$$$$
DiffSBDD_41
     RDKit          3D

  0  0  0  0  0  0  0  0  0  0999 V3000
M  V30 BEGIN CTAB
M  V30 COUNTS 71 75 0 0 1
M  V30 BEGIN ATOM
M  V30 1 C 41.001748 31.979771 63.563645 0
M  V30 2 O 37.984899 31.977789 58.827442 0
M  V30 3 C 37.104775 32.957761 59.386925 0 CFG=1
M  V30 4 C 36.115628 35.697339 59.512814 0
M  V30 5 C 41.771611 31.241320 62.470618 0
M  V30 6 C 40.378705 34.771495 61.752077 0
M  V30 7 C 40.269595 36.562999 66.698219 0
M  V30 8 C 41.242672 35.737288 66.116268 0
M  V30 9 C 38.405492 30.785167 55.360435 0
M  V30 10 C 38.099606 36.985672 63.538674 0
M  V30 11 C 36.084699 32.243374 60.293008 0
M  V30 12 C 39.021936 28.768807 56.068928 0
M  V30 13 N 38.775471 29.564621 55.018030 0
M  V30 14 C 37.978463 33.985675 60.166092 0 CFG=1
M  V30 15 C 39.732920 33.343707 61.709603 0
M  V30 16 C 38.402811 30.811270 56.793724 0
M  V30 17 O 37.615280 28.537927 53.201955 0
M  V30 18 O 38.118126 31.695970 54.581582 0
M  V30 19 C 40.445018 32.446583 60.724537 0
M  V30 20 C 41.857595 32.138434 61.228400 0
M  V30 21 N 37.045087 35.239259 60.579793 0 CFG=1 CHG=1
M  V30 22 O 39.360899 27.587674 55.993563 0
M  V30 23 O 38.350440 33.425188 61.380636 0
M  V30 24 C 41.133320 35.379348 64.768300 0
M  V30 25 C 37.885921 36.387661 61.020690 0
M  V30 26 C 38.843237 29.102456 53.626250 0
M  V30 27 C 40.045374 35.845934 64.004359 0
M  V30 28 C 38.027115 31.920963 57.455323 0
M  V30 29 C 39.185485 37.038057 65.927736 0
M  V30 30 C 37.763752 28.825812 58.317195 0
M  V30 31 N 39.678777 35.622485 62.677161 0
M  V30 32 C 38.832732 29.491443 57.438685 0 CFG=1
M  V30 33 C 39.675467 32.563722 63.039906 0
M  V30 34 C 38.509461 36.353048 62.396292 0
M  V30 35 C 39.049491 36.688669 64.554027 0
M  V30 36 H 41.638208 32.762228 63.956575 0
M  V30 37 H 40.805372 31.311747 64.403825 0
M  V30 38 H 36.563812 33.448251 58.582156 0
M  V30 39 H 36.654709 35.836369 58.574548 0
M  V30 40 H 35.296533 34.995584 59.355163 0
M  V30 41 H 35.645267 36.648162 59.763476 0
M  V30 42 H 42.764496 30.981793 62.839761 0
M  V30 43 H 41.263908 30.305494 62.229574 0
M  V30 44 H 41.415735 34.741008 62.075004 0
M  V30 45 H 40.411656 35.246234 60.773007 0
M  V30 46 H 40.352375 36.840061 67.739611 0
M  V30 47 H 42.073289 35.379750 66.704862 0
M  V30 48 H 37.228740 37.613420 63.654587 0
M  V30 49 H 35.396271 32.943122 60.765776 0
M  V30 50 H 35.484644 31.547094 59.706148 0
M  V30 51 H 36.573160 31.665719 61.077618 0
M  V30 52 H 38.800199 34.329487 59.542676 0
M  V30 53 H 37.790247 27.739628 52.724733 0
M  V30 54 H 39.894439 31.515384 60.580095 0
M  V30 55 H 40.445119 32.937760 59.767754 0
M  V30 56 H 42.424872 33.032165 61.472508 0
M  V30 57 H 42.420020 31.737759 60.405383 0
M  V30 58 H 41.881412 34.752077 64.319509 0
M  V30 59 H 37.291765 37.301680 60.988915 0
M  V30 60 H 38.656551 36.537763 60.268409 0
M  V30 61 H 39.617998 28.343790 53.515161 0
M  V30 62 H 39.118701 29.914675 52.951447 0
M  V30 63 H 37.719480 32.844266 56.981676 0
M  V30 64 H 38.445361 37.674297 66.390423 0
M  V30 65 H 36.833770 28.679193 57.767668 0
M  V30 66 H 38.104714 27.849257 58.661933 0
M  V30 67 H 37.537329 29.427008 59.197359 0
M  V30 68 H 39.787331 29.602678 57.953516 0
M  V30 69 H 39.245158 33.217210 63.767751 0
M  V30 70 H 38.977253 31.732065 62.933533 0
M  V30 71 H 36.472549 34.968025 61.366735 0
M  V30 END ATOM
M  V30 BEGIN BOND
M  V30 1 1 3 2
M  V30 2 1 5 1
M  V30 3 2 8 7
M  V30 4 1 11 3
M  V30 5 1 13 9
M  V30 6 1 13 12
M  V30 7 1 14 3
M  V30 8 1 15 6
M  V30 9 1 16 9
M  V30 10 2 18 9
M  V30 11 1 19 15
M  V30 12 1 20 5
M  V30 13 1 20 19
M  V30 14 1 21 4
M  V30 15 1 21 14
M  V30 16 2 22 12
M  V30 17 1 23 14
M  V30 18 1 23 15
M  V30 19 1 24 8
M  V30 20 1 25 21
M  V30 21 1 26 13
M  V30 22 1 26 17
M  V30 23 2 27 24
M  V30 24 1 28 2
M  V30 25 2 28 16
M  V30 26 1 29 7
M  V30 27 1 31 6
M  V30 28 1 31 27
M  V30 29 1 32 12
M  V30 30 1 32 16
M  V30 31 1 32 30
M  V30 32 1 33 1
M  V30 33 1 33 15
M  V30 34 2 34 10
M  V30 35 1 34 25
M  V30 36 1 34 31
M  V30 37 1 35 10
M  V30 38 1 35 27
M  V30 39 2 35 29
M  V30 40 1 36 1
M  V30 41 1 37 1
M  V30 42 1 3 38 CFG=3
M  V30 43 1 39 4
M  V30 44 1 40 4
M  V30 45 1 41 4
M  V30 46 1 42 5
M  V30 47 1 43 5
M  V30 48 1 44 6
M  V30 49 1 45 6
M  V30 50 1 46 7
M  V30 51 1 47 8
M  V30 52 1 48 10
M  V30 53 1 49 11
M  V30 54 1 50 11
M  V30 55 1 51 11
M  V30 56 1 14 52 CFG=3
M  V30 57 1 53 17
M  V30 58 1 54 19
M  V30 59 1 55 19
M  V30 60 1 56 20
M  V30 61 1 57 20
M  V30 62 1 58 24
M  V30 63 1 59 25
M  V30 64 1 60 25
M  V30 65 1 61 26
M  V30 66 1 62 26
M  V30 67 1 63 28
M  V30 68 1 64 29
M  V30 69 1 65 30
M  V30 70 1 66 30
M  V30 71 1 67 30
M  V30 72 1 32 68 CFG=1
M  V30 73 1 69 33
M  V30 74 1 70 33
M  V30 75 1 21 71 CFG=1
M  V30 END BOND
M  V30 END CTAB
M  END
>  <i_epik_Tot_Q>  (1) 
1

>  <i_epik_Tot_abs_Q>  (1) 
1

>  <i_i_glide_confnum>  (1) 
5

>  <i_i_glide_lignum>  (1) 
89

>  <i_i_glide_posenum>  (1) 
329

>  <i_i_glide_rotatable_bonds>  (1) 
5

>  <i_lp_mmshare_version>  (1) 
72125

>  <i_m_source_file_index>  (1) 
42

>  <i_f3d_flags>  (1) 
0

>  <num_sample>  (1) 
50

>  <b_lp_Chiralities_Consistent>  (1) 
1

>  <r_epik_Charging_Adjusted_Penalty>  (1) 
1.62722492853585

>  <r_epik_Ionization_Penalty>  (1) 
0.81369786534067623

>  <r_epik_Ionization_Penalty_Charging>  (1) 
0.81361246426792511

>  <r_epik_Ionization_Penalty_Neutral>  (1) 
8.5401072751167088e-05

>  <r_epik_State_Penalty>  (1) 
0.813612464267925

>  <r_glide_ring_energy>  (1) 
1.1929788391020448

>  <r_i_docking_score>  (1) 
-4.1368102867666376

>  <r_i_glide_ecoul>  (1) 
-0.90120270457480789

>  <r_i_glide_eff_state_penalty>  (1) 
0.813612464267925

>  <r_i_glide_einternal>  (1) 
4.1128413028208133

>  <r_i_glide_emodel>  (1) 
-45.869076372241615

>  <r_i_glide_emodel_strain>  (1) 
0.40840753057127444

>  <r_i_glide_energy>  (1) 
-33.265166263183602

>  <r_i_glide_erotb>  (1) 
0.34854586591334119

>  <r_i_glide_esite>  (1) 
-0.022911558111038136

>  <r_i_glide_evdw>  (1) 
-32.363963558608795

>  <r_i_glide_gscore>  (1) 
-4.9504227510345631

>  <r_i_glide_gscore_strain>  (1) 
0

>  <r_i_glide_hbond>  (1) 
0

>  <r_i_glide_ligand_efficiency>  (1) 
-0.11819457962190394

>  <r_i_glide_ligand_efficiency_ln>  (1) 
-0.90812166950291595

>  <r_i_glide_ligand_efficiency_sa>  (1) 
-0.38662230744811282

>  <r_i_glide_lipo>  (1) 
-2.0216305592349513

>  <r_i_glide_metal>  (1) 
-0

>  <r_i_glide_rewards>  (1) 
-1.5010479159852541

>  <r_lp_Energy>  (1) 
42.513731

>  <s_epik_Chemistry_Notes>  (1) 
This compound contains an acetal/aminal-like group ( X-CH(R)-Y where X, Y are N, S, or O) that may be acid/base labile, releasing an aldehyde.

>  <s_epik_cmdline>  (1) 
J2VwaWtfcHl0aG9uJywgJy1waHQnLCAnMS4wJywgJy1waCcsICc3LjQnLCAnLXRuJywgJzgnLCAnLW1hJywgJzUwMCcsICctaW1hZScsICc8aW5maWxlLm1hZT4nLCAnLW9tYWUnLCAnPG91dGZpbGUubWFlPic=

>  <s_epik_input>  (1) 
W0NIMl0xW0NIMl1bQ0gyXVtDSDJdW0NIMl1DMTJbQ0gyXW4zYzRjKFtjSF1bY0hdW2NIXVtjSF00KVtjSF1jM1tDSDJdTihbQ0gzXSlbQ0BASF0oTzIpW0NASF0oW0NIM10pT1xbQ0hdPUNcNVtDQEBIXShbQ0gzXSlDKD1PKU4oQzU9TylbQ0gyXVtPSF0=

>  <s_glide_docking_method>  (1) 
confgen

>  <s_i_glide_gridfile>  (1) 
gpcr_5ht2c_6bqh_protein_autoprepared_prepared

>  <s_lp_Force_Field>  (1) 
S-OPLS

>  <s_lp_Variant>  (1) 
DiffSBDD_41-3

>  <s_m_source_file>  (1) 
generated_GPCR_5HT2C_ligand_DiffSBDD_2026-06-23_prepared.sdf

>  <GenAI_Model>  (1) 
DiffSBDD

>  <Protein>  (1) 
GPCR_5HT2C

$$$$
DiffSBDD_7
     RDKit          3D

  0  0  0  0  0  0  0  0  0  0999 V3000
M  V30 BEGIN CTAB
M  V30 COUNTS 60 60 0 0 1
M  V30 BEGIN ATOM
M  V30 1 C 39.959989 31.314763 52.136390 0
M  V30 2 O 38.045081 28.438935 57.293791 0
M  V30 3 C 40.838518 29.737757 50.286589 0
M  V30 4 C 36.861284 35.468093 59.907800 0
M  V30 5 C 39.639114 30.454220 50.902211 0
M  V30 6 C 38.228149 28.267417 53.326026 0 CFG=1
M  V30 7 C 38.322049 30.912806 56.759746 0 CFG=1
M  V30 8 C 35.099202 33.824346 59.191061 0
M  V30 9 C 36.348245 34.011924 60.076880 0
M  V30 10 C 38.334050 27.074092 54.283346 0
M  V30 11 C 35.902470 33.762327 61.528259 0
M  V30 12 C 38.099311 35.849770 60.735129 0
M  V30 13 C 38.722160 29.646061 57.557245 0 CFG=1
M  V30 14 O 37.054041 28.137754 52.567763 0
M  V30 15 C 39.398188 30.237841 54.543511 0 CFG=2
M  V30 16 C 37.929584 32.761389 58.322657 0
M  V30 17 C 38.088554 29.624691 54.027654 0
M  V30 18 O 37.730389 33.625449 57.471764 0
M  V30 19 C 37.433024 32.935634 59.776735 0
M  V30 20 N 38.614022 31.570842 58.021770 0
M  V30 21 C 38.356309 30.397472 58.842302 0
M  V30 22 C 39.148030 31.380629 55.555055 0
M  V30 23 C 40.398637 30.622755 53.428358 0
M  V30 24 H 39.236232 32.099322 52.327576 0
M  V30 25 H 40.845137 31.793158 51.780481 0
M  V30 26 H 37.122567 28.647605 57.277953 0
M  V30 27 H 40.523958 29.234531 49.372092 0
M  V30 28 H 41.635369 30.436754 50.028095 0
M  V30 29 H 41.242734 28.988965 50.967768 0
M  V30 30 H 37.076540 35.668284 58.858547 0
M  V30 31 H 36.054908 36.155838 60.161928 0
M  V30 32 H 38.845122 29.737753 51.095541 0
M  V30 33 H 39.244552 31.122927 50.137323 0
M  V30 34 H 39.082369 28.248219 52.652208 0
M  V30 35 H 37.247548 30.910770 56.560035 0
M  V30 36 H 34.260442 34.423962 59.538230 0
M  V30 37 H 35.288122 34.137765 58.167753 0
M  V30 38 H 34.768896 32.784809 59.168620 0
M  V30 39 H 39.222291 27.149897 54.910925 0
M  V30 40 H 37.465777 27.006085 54.940025 0
M  V30 41 H 38.404824 26.137832 53.730485 0
M  V30 42 H 35.245141 34.537754 61.913732 0
M  V30 43 H 35.374167 32.813116 61.629504 0
M  V30 44 H 36.776148 33.707878 62.167761 0
M  V30 45 H 38.336823 36.903348 60.590521 0
M  V30 46 H 37.940354 35.698079 61.802333 0
M  V30 47 H 38.977880 35.279392 60.434876 0
M  V30 48 H 39.798593 29.459418 57.511541 0
M  V30 49 H 37.066021 27.310563 52.098977 0
M  V30 50 H 39.905457 29.458800 55.111487 0
M  V30 51 H 37.645160 30.358834 53.367770 0
M  V30 52 H 37.357666 29.499450 54.823808 0
M  V30 53 H 36.999671 32.005857 60.130981 0
M  V30 54 H 38.312038 33.091925 60.400582 0
M  V30 55 H 39.054510 30.250597 59.666797 0
M  V30 56 H 37.315570 30.206919 59.112439 0
M  V30 57 H 40.105052 31.771855 55.895313 0
M  V30 58 H 38.647760 32.216617 55.063302 0
M  V30 59 H 41.205109 31.196262 53.887477 0
M  V30 60 H 40.845137 29.737756 53.039577 0
M  V30 END ATOM
M  V30 BEGIN BOND
M  V30 1 1 5 1
M  V30 2 1 5 3
M  V30 3 1 9 4
M  V30 4 1 9 8
M  V30 5 1 10 6
M  V30 6 1 11 9
M  V30 7 1 12 4
M  V30 8 1 13 2
M  V30 9 1 13 7
M  V30 10 1 14 6
M  V30 11 1 17 6
M  V30 12 1 17 15
M  V30 13 2 18 16
M  V30 14 1 19 9
M  V30 15 1 19 16
M  V30 16 1 20 7
M  V30 17 1 20 16
M  V30 18 1 21 13
M  V30 19 1 21 20
M  V30 20 1 22 7
M  V30 21 1 22 15
M  V30 22 1 23 1
M  V30 23 1 23 15
M  V30 24 1 24 1
M  V30 25 1 25 1
M  V30 26 1 26 2
M  V30 27 1 27 3
M  V30 28 1 28 3
M  V30 29 1 29 3
M  V30 30 1 30 4
M  V30 31 1 31 4
M  V30 32 1 32 5
M  V30 33 1 33 5
M  V30 34 1 6 34 CFG=3
M  V30 35 1 7 35 CFG=3
M  V30 36 1 36 8
M  V30 37 1 37 8
M  V30 38 1 38 8
M  V30 39 1 39 10
M  V30 40 1 40 10
M  V30 41 1 41 10
M  V30 42 1 42 11
M  V30 43 1 43 11
M  V30 44 1 44 11
M  V30 45 1 45 12
M  V30 46 1 46 12
M  V30 47 1 47 12
M  V30 48 1 13 48 CFG=1
M  V30 49 1 49 14
M  V30 50 1 15 50 CFG=1
M  V30 51 1 51 17
M  V30 52 1 52 17
M  V30 53 1 53 19
M  V30 54 1 54 19
M  V30 55 1 55 21
M  V30 56 1 56 21
M  V30 57 1 57 22
M  V30 58 1 58 22
M  V30 59 1 59 23
M  V30 60 1 60 23
M  V30 END BOND
M  V30 END CTAB
M  END
>  <i_epik_Tot_Q>  (1) 
0

>  <i_epik_Tot_abs_Q>  (1) 
0

>  <i_i_glide_confnum>  (1) 
652

>  <i_i_glide_lignum>  (1) 
16

>  <i_i_glide_posenum>  (1) 
280

>  <i_i_glide_rotatable_bonds>  (1) 
13

>  <i_lp_mmshare_version>  (1) 
72125

>  <i_m_source_file_index>  (1) 
8

>  <i_f3d_flags>  (1) 
0

>  <num_sample>  (1) 
50

>  <b_lp_Chiralities_Consistent>  (1) 
1

>  <r_epik_Charging_Adjusted_Penalty>  (1) 
0

>  <r_epik_Ionization_Penalty>  (1) 
3.8827151533857073e-07

>  <r_epik_Ionization_Penalty_Charging>  (1) 
0

>  <r_epik_Ionization_Penalty_Neutral>  (1) 
3.8827151533857073e-07

>  <r_epik_State_Penalty>  (1) 
-0

>  <r_glide_ring_energy>  (1) 
0

>  <r_i_docking_score>  (1) 
-4.1257930802295588

>  <r_i_glide_ecoul>  (1) 
-3.0694803460135422

>  <r_i_glide_eff_state_penalty>  (1) 
-0

>  <r_i_glide_einternal>  (1) 
6.2289347146148337

>  <r_i_glide_emodel>  (1) 
-26.383625567857791

>  <r_i_glide_emodel_strain>  (1) 
2.2337642805702487

>  <r_i_glide_energy>  (1) 
-26.99020038209574

>  <r_i_glide_erotb>  (1) 
1.5748308368966815

>  <r_i_glide_esite>  (1) 
-0.13117247484034605

>  <r_i_glide_evdw>  (1) 
-23.920720036082198

>  <r_i_glide_gscore>  (1) 
-4.1257930802295588

>  <r_i_glide_gscore_strain>  (1) 
0

>  <r_i_glide_hbond>  (1) 
-0.22982273860881561

>  <r_i_glide_ligand_efficiency>  (1) 
-0.17938230783606776

>  <r_i_glide_ligand_efficiency_ln>  (1) 
-0.99765417742280382

>  <r_i_glide_ligand_efficiency_sa>  (1) 
-0.51013942202456186

>  <r_i_glide_lipo>  (1) 
-2.479006324912628

>  <r_i_glide_metal>  (1) 
-0

>  <r_i_glide_rewards>  (1) 
-1.2041643250583101

>  <r_lp_Energy>  (1) 
6.666982

>  <r_lp_tautomer_probability>  (1) 
1

>  <s_epik_cmdline>  (1) 
J2VwaWtfcHl0aG9uJywgJy1waHQnLCAnMS4wJywgJy1waCcsICc3LjQnLCAnLXRuJywgJzgnLCAnLW1hJywgJzUwMCcsICctaW1hZScsICc8aW5maWxlLm1hZT4nLCAnLW9tYWUnLCAnPG91dGZpbGUubWFlPic=

>  <s_epik_input>  (1) 
W0NIM11bQ0gyXVtDSDJdW0NIMl1bQ0BIXShbQ0gyXVtDQEBIXShbQ0gzXSlbT0hdKVtDSDJdW0NASF0xW0NASF0oW09IXSlbQ0gyXU4xQyg9TylbQ0gyXUMoW0NIM10pKFtDSDNdKVtDSDJdW0NIM10=

>  <s_glide_docking_method>  (1) 
confgen

>  <s_i_glide_gridfile>  (1) 
gpcr_5ht2c_6bqh_protein_autoprepared_prepared

>  <s_lp_Force_Field>  (1) 
S-OPLS

>  <s_lp_Variant>  (1) 
DiffSBDD_7-1

>  <s_m_source_file>  (1) 
generated_GPCR_5HT2C_ligand_DiffSBDD_2026-06-23_prepared.sdf

>  <GenAI_Model>  (1) 
DiffSBDD

>  <Protein>  (1) 
GPCR_5HT2C

$$$$
DiffSBDD_31
     RDKit          3D

  0  0  0  0  0  0  0  0  0  0999 V3000
M  V30 BEGIN CTAB
M  V30 COUNTS 51 52 0 0 1
M  V30 BEGIN ATOM
M  V30 1 C 39.488862 29.764814 56.550609 0
M  V30 2 C 39.547200 30.902467 53.670832 0
M  V30 3 C 37.219396 24.536406 56.656489 0
M  V30 4 C 38.565530 25.888758 58.174661 0
M  V30 5 C 41.338501 30.382853 49.767665 0
M  V30 6 N 39.127779 28.454063 57.044523 0
M  V30 7 C 37.101496 23.922066 55.256746 0
M  V30 8 N 39.559398 27.435699 56.002819 0
M  V30 9 N 38.405975 25.407422 56.793387 0 CFG=2 CHG=1
M  V30 10 C 39.942485 29.319188 51.640948 0 CFG=1
M  V30 11 O 36.445118 22.687710 55.367769 0
M  V30 12 C 39.447082 28.021720 50.980568 0
M  V30 13 C 40.252260 27.584449 57.286726 0 CFG=2
M  V30 14 C 38.418145 26.534789 55.831800 0
M  V30 15 C 38.256687 30.326365 55.826251 0
M  V30 16 C 40.071133 30.465126 50.607785 0
M  V30 17 C 39.088055 29.653686 52.885532 0
M  V30 18 C 39.952413 26.510963 58.318152 0
M  V30 19 C 38.597849 31.386876 54.781572 0
M  V30 20 H 39.770160 30.415114 57.377324 0
M  V30 21 H 40.352820 29.698241 55.890438 0
M  V30 22 H 39.634280 31.738008 52.998631 0
M  V30 23 H 40.553983 30.751185 54.057569 0
M  V30 24 H 37.314683 23.737739 57.395843 0
M  V30 25 H 36.309590 25.083607 56.906781 0
M  V30 26 H 37.784150 26.612663 58.406968 0
M  V30 27 H 38.445137 25.076255 58.883445 0
M  V30 28 H 41.545501 31.337800 49.297876 0
M  V30 29 H 41.240523 29.650303 48.970786 0
M  V30 30 H 42.202583 30.141734 50.384626 0
M  V30 31 H 36.564795 24.576656 54.568492 0
M  V30 32 H 38.082990 23.737117 54.825287 0
M  V30 33 H 40.940129 29.119111 52.008563 0
M  V30 34 H 35.535641 22.827588 55.591446 0
M  V30 35 H 38.444451 28.140647 50.569171 0
M  V30 36 H 39.416984 27.200204 51.697630 0
M  V30 37 H 40.103477 27.714441 50.167811 0
M  V30 38 H 41.250476 28.020030 57.305958 0
M  V30 39 H 37.482230 27.091417 55.898629 0
M  V30 40 H 38.471236 26.147085 54.814529 0
M  V30 41 H 37.700191 29.531511 55.329238 0
M  V30 42 H 37.567780 30.744403 56.561665 0
M  V30 43 H 40.105928 31.441064 51.074377 0
M  V30 44 H 39.215820 30.498422 49.945257 0
M  V30 45 H 38.045141 29.737578 52.600126 0
M  V30 46 H 39.123496 28.797258 53.557647 0
M  V30 47 H 40.713031 25.736518 58.212407 0
M  V30 48 H 40.054129 26.941847 59.314474 0
M  V30 49 H 39.041086 32.250029 55.278902 0
M  V30 50 H 37.669457 31.746593 54.335143 0
M  V30 51 H 39.213722 24.836891 56.587672 0
M  V30 END ATOM
M  V30 BEGIN BOND
M  V30 1 1 6 1
M  V30 2 1 7 3
M  V30 3 1 8 6
M  V30 4 1 9 3
M  V30 5 1 9 4
M  V30 6 1 11 7
M  V30 7 1 12 10
M  V30 8 1 13 6
M  V30 9 1 13 8
M  V30 10 1 14 8
M  V30 11 1 14 9
M  V30 12 1 15 1
M  V30 13 1 16 5
M  V30 14 1 16 10
M  V30 15 1 17 2
M  V30 16 1 17 10
M  V30 17 1 18 4
M  V30 18 1 18 13
M  V30 19 1 19 2
M  V30 20 1 19 15
M  V30 21 1 20 1
M  V30 22 1 21 1
M  V30 23 1 22 2
M  V30 24 1 23 2
M  V30 25 1 24 3
M  V30 26 1 25 3
M  V30 27 1 26 4
M  V30 28 1 27 4
M  V30 29 1 28 5
M  V30 30 1 29 5
M  V30 31 1 30 5
M  V30 32 1 31 7
M  V30 33 1 32 7
M  V30 34 1 10 33 CFG=1
M  V30 35 1 34 11
M  V30 36 1 35 12
M  V30 37 1 36 12
M  V30 38 1 37 12
M  V30 39 1 13 38 CFG=3
M  V30 40 1 39 14
M  V30 41 1 40 14
M  V30 42 1 41 15
M  V30 43 1 42 15
M  V30 44 1 43 16
M  V30 45 1 44 16
M  V30 46 1 45 17
M  V30 47 1 46 17
M  V30 48 1 47 18
M  V30 49 1 48 18
M  V30 50 1 49 19
M  V30 51 1 50 19
M  V30 52 1 9 51 CFG=3
M  V30 END BOND
M  V30 END CTAB
M  END
>  <i_epik_Tot_Q>  (1) 
1

>  <i_epik_Tot_abs_Q>  (1) 
1

>  <i_i_glide_confnum>  (1) 
152

>  <i_i_glide_lignum>  (1) 
70

>  <i_i_glide_posenum>  (1) 
299

>  <i_i_glide_rotatable_bonds>  (1) 
10

>  <i_lp_mmshare_version>  (1) 
72125

>  <i_m_source_file_index>  (1) 
32

>  <i_f3d_flags>  (1) 
0

>  <num_sample>  (1) 
50

>  <b_lp_Chiralities_Consistent>  (1) 
1

>  <r_epik_Charging_Adjusted_Penalty>  (1) 
0.062925192649716036

>  <r_epik_Ionization_Penalty>  (1) 
0.062927217042738556

>  <r_epik_Ionization_Penalty_Charging>  (1) 
0.062925192649716036

>  <r_epik_Ionization_Penalty_Neutral>  (1) 
2.0243930225180512e-06

>  <r_epik_State_Penalty>  (1) 
-0

>  <r_glide_ring_energy>  (1) 
0

>  <r_i_docking_score>  (1) 
-4.0429932714867238

>  <r_i_glide_ecoul>  (1) 
-1.0121811725922645

>  <r_i_glide_eff_state_penalty>  (1) 
-0

>  <r_i_glide_einternal>  (1) 
8.8769595934600165

>  <r_i_glide_emodel>  (1) 
-31.610442360452616

>  <r_i_glide_emodel_strain>  (1) 
0.60336546490663778

>  <r_i_glide_energy>  (1) 
-28.643862101204924

>  <r_i_glide_erotb>  (1) 
3.9128418167227688

>  <r_i_glide_esite>  (1) 
0

>  <r_i_glide_evdw>  (1) 
-27.63168092861266

>  <r_i_glide_gscore>  (1) 
-4.0429932714867238

>  <r_i_glide_gscore_strain>  (1) 
0

>  <r_i_glide_hbond>  (1) 
0

>  <r_i_glide_ligand_efficiency>  (1) 
-0.21278911955193283

>  <r_i_glide_ligand_efficiency_ln>  (1) 
-1.0249856298553035

>  <r_i_glide_ligand_efficiency_sa>  (1) 
-0.56780683744246874

>  <r_i_glide_lipo>  (1) 
-3.0594603169234125

>  <r_i_glide_metal>  (1) 
-0

>  <r_i_glide_rewards>  (1) 
-3.362963548966607

>  <r_lp_Energy>  (1) 
22.842606999999997

>  <r_lp_tautomer_probability>  (1) 
1

>  <s_epik_Chemistry_Notes>  (1) 
This compound contains an acetal/aminal-like group ( X-CH(R)-Y where X, Y are N, S, or O) that may be acid/base labile, releasing an aldehyde.

>  <s_epik_cmdline>  (1) 
J2VwaWtfcHl0aG9uJywgJy1waHQnLCAnMS4wJywgJy1waCcsICc3LjQnLCAnLXRuJywgJzgnLCAnLW1hJywgJzUwMCcsICctaW1hZScsICc8aW5maWxlLm1hZT4nLCAnLW9tYWUnLCAnPG91dGZpbGUubWFlPic=

>  <s_epik_input>  (1) 
W0NIM11bQ0gyXVtDQEhdKFtDSDNdKVtDSDJdW0NIMl1bQ0gyXVtDSDJdW0NIMl1OMVtDQEhdKE4xMilbQ0gyXVtDSDJdTihbQ0gyXTIpW0NIMl1bQ0gyXVtPSF0=

>  <s_glide_docking_method>  (1) 
confgen

>  <s_i_glide_gridfile>  (1) 
gpcr_5ht2c_6bqh_protein_autoprepared_prepared

>  <s_lp_Force_Field>  (1) 
S-OPLS

>  <s_lp_Variant>  (1) 
DiffSBDD_31-2

>  <s_m_source_file>  (1) 
generated_GPCR_5HT2C_ligand_DiffSBDD_2026-06-23_prepared.sdf

>  <GenAI_Model>  (1) 
DiffSBDD

>  <Protein>  (1) 
GPCR_5HT2C

$$$$
DiffSBDD_2
     RDKit          3D

  0  0  0  0  0  0  0  0  0  0999 V3000
M  V30 BEGIN CTAB
M  V30 COUNTS 85 88 0 0 1
M  V30 BEGIN ATOM
M  V30 1 C 38.144601 36.205823 61.757149 0 CFG=1
M  V30 2 C 37.644917 26.030925 54.802817 0
M  V30 3 C 35.972660 29.515570 58.630983 0
M  V30 4 C 40.238108 34.883298 61.529642 0
M  V30 5 C 38.713857 26.783568 54.706358 0
M  V30 6 C 38.971309 32.764611 59.844260 0
M  V30 7 C 39.389165 29.203436 54.387122 0 CFG=2
M  V30 8 C 38.510523 37.000678 64.061244 0
M  V30 9 C 39.017594 32.789911 58.297814 0
M  V30 10 C 38.580899 30.096270 56.486894 0 CFG=1
M  V30 11 N 38.758764 28.124804 55.124806 0
M  V30 12 C 38.012153 36.892127 60.388500 0
M  V30 13 C 38.493102 25.415121 57.692764 0
M  V30 14 C 38.869118 30.511487 55.030109 0
M  V30 15 N 37.645137 30.941170 57.315779 0 CFG=2 CHG=1
M  V30 16 C 40.445119 26.079778 56.156268 0
M  V30 17 C 37.223374 24.975281 55.461927 0
M  V30 18 C 37.960778 28.740226 56.165645 0
M  V30 19 C 37.819636 32.435217 57.454371 0 CFG=2
M  V30 20 C 37.185241 24.962471 56.990217 0
M  V30 21 C 40.071712 26.095142 54.687345 0
M  V30 22 C 39.995750 29.763637 51.857415 0
M  V30 23 C 37.003887 36.999605 63.821044 0
M  V30 24 C 40.169797 31.233445 52.180355 0
M  V30 25 C 38.087151 33.884334 60.452341 0
M  V30 26 C 39.167513 28.952651 52.863684 0 CFG=2
M  V30 27 C 36.781270 36.304860 62.478570 0
M  V30 28 F 38.445128 25.737515 58.967711 0
M  V30 29 S 40.749165 36.157611 62.675571 0
M  V30 30 C 37.678498 28.822176 52.510449 0
M  V30 31 C 37.917888 33.180909 56.111880 0
M  V30 32 C 39.625634 25.611390 57.066082 0
M  V30 33 C 38.707865 34.748610 61.600851 0 CFG=2
M  V30 34 C 37.270800 30.320655 58.625839 0
M  V30 35 C 39.136575 36.973086 62.668266 0 CFG=1
M  V30 36 H 35.666280 29.336057 59.658852 0
M  V30 37 H 35.162285 30.077010 58.169041 0
M  V30 38 H 36.061997 28.538883 58.168059 0
M  V30 39 H 40.743405 33.964421 61.817048 0
M  V30 40 H 40.566532 35.169083 60.532592 0
M  V30 41 H 38.726172 31.801253 60.278290 0
M  V30 42 H 40.007671 32.869127 60.141506 0
M  V30 43 H 40.442810 29.210809 54.648278 0
M  V30 44 H 38.802307 36.137643 64.634563 0
M  V30 45 H 38.863402 37.835851 64.660199 0
M  V30 46 H 39.645097 32.041169 57.888732 0
M  V30 47 H 39.438490 33.737678 57.998928 0
M  V30 48 H 39.521394 29.957049 57.023509 0
M  V30 49 H 38.049151 37.979770 60.444306 0
M  V30 50 H 38.819048 36.537717 59.768311 0
M  V30 51 H 37.081756 36.626406 59.885309 0
M  V30 52 H 37.964241 30.854723 54.526469 0
M  V30 53 H 39.624340 31.294899 54.970172 0
M  V30 54 H 41.383814 26.537758 56.429728 0
M  V30 55 H 37.266519 23.996001 55.006053 0
M  V30 56 H 36.994301 28.938874 55.712943 0
M  V30 57 H 37.862447 28.087856 57.029186 0
M  V30 58 H 36.943382 32.851813 57.956172 0
M  V30 59 H 36.367690 25.601360 57.328880 0
M  V30 60 H 36.949777 23.944879 57.310552 0
M  V30 61 H 39.985508 25.059825 54.359545 0
M  V30 62 H 40.829887 26.537738 54.051849 0
M  V30 63 H 40.986189 29.317059 51.760964 0
M  V30 64 H 39.561248 29.660382 50.866529 0
M  V30 65 H 36.447392 36.537752 64.631018 0
M  V30 66 H 36.637664 38.022885 63.740419 0
M  V30 67 H 40.597278 31.737756 51.316853 0
M  V30 68 H 39.245672 31.735051 52.446855 0
M  V30 69 H 40.845469 31.336624 53.025565 0
M  V30 70 H 37.763070 34.516179 59.630307 0
M  V30 71 H 37.162456 33.438385 60.817927 0
M  V30 72 H 39.554435 27.957732 52.649063 0
M  V30 73 H 36.294542 35.335085 62.567898 0
M  V30 74 H 36.086820 36.938983 61.926857 0
M  V30 75 H 37.041596 29.323937 53.242854 0
M  V30 76 H 37.485444 29.196841 51.514562 0
M  V30 77 H 37.375834 27.776661 52.494503 0
M  V30 78 H 37.645138 34.221762 56.243222 0
M  V30 79 H 38.925111 33.192607 55.705901 0
M  V30 80 H 37.245871 32.758258 55.369935 0
M  V30 81 H 38.532905 34.215541 62.532683 0
M  V30 82 H 38.103471 29.753329 59.042118 0
M  V30 83 H 37.035186 31.101487 59.339448 0
M  V30 84 H 39.272525 37.996969 62.319756 0
M  V30 85 H 36.743805 30.970573 56.832394 0
M  V30 END ATOM
M  V30 BEGIN BOND
M  V30 1 2 5 2
M  V30 2 1 9 6
M  V30 3 1 11 5
M  V30 4 1 11 7
M  V30 5 1 1 12 CFG=3
M  V30 6 1 14 7
M  V30 7 1 14 10
M  V30 8 1 15 10
M  V30 9 2 17 2
M  V30 10 1 18 10
M  V30 11 1 18 11
M  V30 12 1 19 9
M  V30 13 1 19 15
M  V30 14 1 20 13
M  V30 15 1 20 17
M  V30 16 1 21 5
M  V30 17 1 21 16
M  V30 18 1 23 8
M  V30 19 1 24 22
M  V30 20 1 25 6
M  V30 21 1 26 7
M  V30 22 1 26 22
M  V30 23 1 27 1
M  V30 24 1 27 23
M  V30 25 1 28 13
M  V30 26 1 29 4
M  V30 27 1 30 26
M  V30 28 1 31 19
M  V30 29 2 32 13
M  V30 30 2 32 16
M  V30 31 1 33 1
M  V30 32 1 33 4
M  V30 33 1 33 25
M  V30 34 1 34 3
M  V30 35 1 34 15
M  V30 36 1 35 1
M  V30 37 1 35 8
M  V30 38 1 35 29
M  V30 39 1 36 3
M  V30 40 1 37 3
M  V30 41 1 38 3
M  V30 42 1 39 4
M  V30 43 1 40 4
M  V30 44 1 41 6
M  V30 45 1 42 6
M  V30 46 1 7 43 CFG=3
M  V30 47 1 44 8
M  V30 48 1 45 8
M  V30 49 1 46 9
M  V30 50 1 47 9
M  V30 51 1 10 48 CFG=1
M  V30 52 1 49 12
M  V30 53 1 50 12
M  V30 54 1 51 12
M  V30 55 1 52 14
M  V30 56 1 53 14
M  V30 57 1 54 16
M  V30 58 1 55 17
M  V30 59 1 56 18
M  V30 60 1 57 18
M  V30 61 1 19 58 CFG=1
M  V30 62 1 59 20
M  V30 63 1 60 20
M  V30 64 1 61 21
M  V30 65 1 62 21
M  V30 66 1 63 22
M  V30 67 1 64 22
M  V30 68 1 65 23
M  V30 69 1 66 23
M  V30 70 1 67 24
M  V30 71 1 68 24
M  V30 72 1 69 24
M  V30 73 1 70 25
M  V30 74 1 71 25
M  V30 75 1 26 72 CFG=1
M  V30 76 1 73 27
M  V30 77 1 74 27
M  V30 78 1 75 30
M  V30 79 1 76 30
M  V30 80 1 77 30
M  V30 81 1 78 31
M  V30 82 1 79 31
M  V30 83 1 80 31
M  V30 84 1 33 81 CFG=1
M  V30 85 1 82 34
M  V30 86 1 83 34
M  V30 87 1 35 84 CFG=3
M  V30 88 1 15 85 CFG=3
M  V30 END BOND
M  V30 END CTAB
M  END
>  <i_epik_Tot_Q>  (1) 
1

>  <i_epik_Tot_abs_Q>  (1) 
1

>  <i_i_glide_confnum>  (1) 
1550

>  <i_i_glide_lignum>  (1) 
10

>  <i_i_glide_posenum>  (1) 
268

>  <i_i_glide_rotatable_bonds>  (1) 
10

>  <i_lp_mmshare_version>  (1) 
72125

>  <i_m_source_file_index>  (1) 
3

>  <i_f3d_flags>  (1) 
0

>  <num_sample>  (1) 
50

>  <b_lp_Chiralities_Consistent>  (1) 
1

>  <r_epik_Charging_Adjusted_Penalty>  (1) 
0.074245454784308482

>  <r_epik_Ionization_Penalty>  (1) 
0.013686655559845946

>  <r_epik_Ionization_Penalty_Charging>  (1) 
0.012771505238954846

>  <r_epik_Ionization_Penalty_Neutral>  (1) 
0.00091515032089109971

>  <r_epik_State_Penalty>  (1) 
0.06147394954535363

>  <r_glide_ring_energy>  (1) 
1.3016869551617385

>  <r_i_docking_score>  (1) 
-4.0121520254627292

>  <r_i_glide_ecoul>  (1) 
-3.5665112093575164

>  <r_i_glide_eff_state_penalty>  (1) 
0.06147394954535363

>  <r_i_glide_einternal>  (1) 
11.561622375590968

>  <r_i_glide_emodel>  (1) 
-7.4685522345748225

>  <r_i_glide_emodel_strain>  (1) 
19.885581424345361

>  <r_i_glide_energy>  (1) 
-29.983778071834493

>  <r_i_glide_erotb>  (1) 
0.64899532480163924

>  <r_i_glide_esite>  (1) 
-0.10000000000000001

>  <r_i_glide_evdw>  (1) 
-26.417266862476975

>  <r_i_glide_gscore>  (1) 
-4.073625975008083

>  <r_i_glide_gscore_strain>  (1) 
3.9713953560863402

>  <r_i_glide_hbond>  (1) 
-0.15663179363872759

>  <r_i_glide_ligand_efficiency>  (1) 
-0.11463291501322083

>  <r_i_glide_ligand_efficiency_ln>  (1) 
-0.88075641450566111

>  <r_i_glide_ligand_efficiency_sa>  (1) 
-0.37497186633845853

>  <r_i_glide_lipo>  (1) 
-5.3103586954221909

>  <r_i_glide_metal>  (1) 
-0

>  <r_i_glide_rewards>  (1) 
-1.2711861423076685

>  <r_lp_Energy>  (1) 
18.681577999999998

>  <s_epik_cmdline>  (1) 
J2VwaWtfcHl0aG9uJywgJy1waHQnLCAnMS4wJywgJy1waCcsICc3LjQnLCAnLXRuJywgJzgnLCAnLW1hJywgJzUwMCcsICctaW1hZScsICc8aW5maWxlLm1hZT4nLCAnLW9tYWUnLCAnPG91dGZpbGUubWFlPic=

>  <s_epik_input>  (1) 
W0NIMl0xW0NIMl1bQ0gyXVtDQEhdKFtDQF0xMltDSDNdKVNbQ0gyXVtDQEBIXTJbQ0gyXVtDSDJdW0NIMl1bQ0BASF0oW0NIM10pTihbQ0gyXVtDSDNdKVtDQEhdKFtDSDJdMylbQ0gyXU4oW0NASF0zW0NAQEhdKFtDSDNdKVtDSDJdW0NIM10pQzQ9Qz1bQ0hdW0NIMl1DKEYpPUM9W0NIXVtDSDJdNA==

>  <s_glide_docking_method>  (1) 
confgen

>  <s_i_glide_gridfile>  (1) 
gpcr_5ht2c_6bqh_protein_autoprepared_prepared

>  <s_lp_Force_Field>  (1) 
S-OPLS

>  <s_lp_Variant>  (1) 
DiffSBDD_2-2

>  <s_m_source_file>  (1) 
generated_GPCR_5HT2C_ligand_DiffSBDD_2026-06-23_prepared.sdf

>  <GenAI_Model>  (1) 
DiffSBDD

>  <Protein>  (1) 
GPCR_5HT2C

$$$$
DiffSBDD_13
     RDKit          3D

  0  0  0  0  0  0  0  0  0  0999 V3000
M  V30 BEGIN CTAB
M  V30 COUNTS 81 82 0 0 1
M  V30 BEGIN ATOM
M  V30 1 N 36.845169 29.740578 55.475927 0
M  V30 2 C 39.321205 30.407873 56.965719 0 CFG=2
M  V30 3 O 42.019001 33.357828 65.337639 0
M  V30 4 C 40.327717 30.264640 50.526741 0
M  V30 5 C 40.803783 28.239367 56.948176 0
M  V30 6 C 35.379828 31.568323 59.751949 0
M  V30 7 C 39.725002 37.553743 63.582288 0
M  V30 8 C 37.992376 29.903424 59.055561 0
M  V30 9 C 38.597672 27.542730 53.930380 0
M  V30 10 O 36.719502 31.930402 59.511271 0
M  V30 11 C 37.672175 31.027178 60.052043 0 CFG=2
M  V30 12 N 37.977143 30.387112 57.637730 0 CFG=2 CHG=1
M  V30 13 O 42.443273 35.639574 65.143576 0
M  V30 14 C 38.631732 26.924839 52.496271 0
M  V30 15 C 39.493742 29.133679 52.493381 0
M  V30 16 C 40.723994 35.590825 62.569740 0 CFG=1
M  V30 17 C 40.047351 30.282457 51.907178 0
M  V30 18 C 39.517732 31.673159 56.059671 0
M  V30 19 C 39.116306 29.042734 53.904166 0 CFG=2
M  V30 20 C 38.643502 33.056088 61.236314 0
M  V30 21 C 39.578004 34.178328 60.809719 0
M  V30 22 C 36.844913 29.737737 56.935174 0
M  V30 23 C 42.101954 34.457549 64.461003 0
M  V30 24 C 39.494597 35.430516 61.662741 0
M  V30 25 O 40.048857 29.337557 54.920440 0
M  V30 26 C 39.687567 29.064040 56.269543 0 CFG=2
M  V30 27 C 38.975302 32.990973 56.622731 0
M  V30 28 C 39.479931 27.992511 50.404756 0
M  V30 29 F 40.849177 31.337742 49.926420 0
M  V30 30 O 40.845290 36.937818 62.968012 0
M  V30 31 C 39.219873 28.041085 51.764546 0
M  V30 32 C 40.745707 34.629237 63.774790 0
M  V30 33 C 40.045167 29.116213 49.774355 0
M  V30 34 O 36.845118 31.080075 54.967733 0
M  V30 35 C 38.906645 31.860327 60.320849 0
M  V30 36 H 37.791202 29.477306 55.248231 0
M  V30 37 H 40.042142 30.537752 57.762897 0
M  V30 38 H 42.877741 33.209852 65.703259 0
M  V30 39 H 40.731153 28.274768 58.035677 0
M  V30 40 H 40.721150 27.191918 56.655570 0
M  V30 41 H 41.809938 28.537751 56.659789 0
M  V30 42 H 34.708944 32.338344 59.368349 0
M  V30 43 H 35.189951 30.638734 59.227977 0
M  V30 44 H 35.175266 31.437153 60.813142 0
M  V30 45 H 40.045170 38.568034 63.794290 0
M  V30 46 H 38.860381 37.624775 62.925723 0
M  V30 47 H 39.443954 37.083269 64.522555 0
M  V30 48 H 37.237649 29.135263 59.219803 0
M  V30 49 H 38.925200 29.398315 59.309051 0
M  V30 50 H 39.251323 26.936686 54.558680 0
M  V30 51 H 37.597197 27.462907 54.354620 0
M  V30 52 H 37.326967 30.601787 60.996853 0
M  V30 53 H 42.171950 36.394584 64.628201 0
M  V30 54 H 37.645334 26.638761 52.141214 0
M  V30 55 H 39.362110 26.137778 52.433047 0
M  V30 56 H 41.616651 35.405818 61.971330 0
M  V30 57 H 40.247737 31.163539 52.498661 0
M  V30 58 H 40.554502 31.803410 55.767656 0
M  V30 59 H 39.094406 31.545199 55.076307 0
M  V30 60 H 38.371611 29.795786 53.779375 0
M  V30 61 H 37.617891 33.416008 61.157717 0
M  V30 62 H 38.776708 32.764523 62.277193 0
M  V30 63 H 40.596259 33.799942 60.807548 0
M  V30 64 H 39.347464 34.451263 59.778363 0
M  V30 65 H 35.921649 30.092713 57.358527 0
M  V30 66 H 36.872883 28.687542 57.222438 0
M  V30 67 H 42.845229 34.225219 63.710805 0
M  V30 68 H 39.451485 36.281189 60.981534 0
M  V30 69 H 38.567068 35.450781 62.236118 0
M  V30 70 H 38.850957 28.372770 56.315071 0
M  V30 71 H 39.046922 33.760956 55.856802 0
M  V30 72 H 37.924653 32.927864 56.905164 0
M  V30 73 H 39.545037 33.331742 57.485185 0
M  V30 74 H 39.245088 27.102556 49.838883 0
M  V30 75 H 40.045726 34.969350 64.522547 0
M  V30 76 H 40.415685 33.644600 63.450014 0
M  V30 77 H 40.253302 29.099974 48.717729 0
M  V30 78 H 36.316661 31.528891 55.638846 0
M  V30 79 H 39.711785 31.248776 60.727012 0
M  V30 80 H 39.245060 32.216675 59.354524 0
M  V30 81 H 37.700102 31.359387 57.704590 0
M  V30 END ATOM
M  V30 BEGIN BOND
M  V30 1 1 10 6
M  V30 2 1 11 8
M  V30 3 1 11 10
M  V30 4 1 12 2
M  V30 5 1 12 8
M  V30 6 1 14 9
M  V30 7 2 17 4
M  V30 8 1 17 15
M  V30 9 1 18 2
M  V30 10 1 19 9
M  V30 11 1 19 15
M  V30 12 1 21 20
M  V30 13 1 22 1
M  V30 14 1 22 12
M  V30 15 1 23 3
M  V30 16 1 23 13
M  V30 17 1 24 16
M  V30 18 1 24 21
M  V30 19 1 25 19
M  V30 20 1 26 2
M  V30 21 1 26 5
M  V30 22 1 26 25
M  V30 23 1 27 18
M  V30 24 1 29 4
M  V30 25 1 30 7
M  V30 26 1 30 16
M  V30 27 1 31 14
M  V30 28 2 31 15
M  V30 29 1 31 28
M  V30 30 1 32 16
M  V30 31 1 32 23
M  V30 32 1 33 4
M  V30 33 2 33 28
M  V30 34 1 34 1
M  V30 35 1 35 11
M  V30 36 1 35 20
M  V30 37 1 36 1
M  V30 38 1 2 37 CFG=1
M  V30 39 1 38 3
M  V30 40 1 39 5
M  V30 41 1 40 5
M  V30 42 1 41 5
M  V30 43 1 42 6
M  V30 44 1 43 6
M  V30 45 1 44 6
M  V30 46 1 45 7
M  V30 47 1 46 7
M  V30 48 1 47 7
M  V30 49 1 48 8
M  V30 50 1 49 8
M  V30 51 1 50 9
M  V30 52 1 51 9
M  V30 53 1 11 52 CFG=1
M  V30 54 1 53 13
M  V30 55 1 54 14
M  V30 56 1 55 14
M  V30 57 1 16 56 CFG=3
M  V30 58 1 57 17
M  V30 59 1 58 18
M  V30 60 1 59 18
M  V30 61 1 19 60 CFG=3
M  V30 62 1 61 20
M  V30 63 1 62 20
M  V30 64 1 63 21
M  V30 65 1 64 21
M  V30 66 1 65 22
M  V30 67 1 66 22
M  V30 68 1 67 23
M  V30 69 1 68 24
M  V30 70 1 69 24
M  V30 71 1 26 70 CFG=3
M  V30 72 1 71 27
M  V30 73 1 72 27
M  V30 74 1 73 27
M  V30 75 1 74 28
M  V30 76 1 75 32
M  V30 77 1 76 32
M  V30 78 1 77 33
M  V30 79 1 78 34
M  V30 80 1 79 35
M  V30 81 1 80 35
M  V30 82 1 12 81 CFG=1
M  V30 END BOND
M  V30 END CTAB
M  END
>  <i_epik_Tot_Q>  (1) 
1

>  <i_epik_Tot_abs_Q>  (1) 
1

>  <i_i_glide_confnum>  (1) 
1629

>  <i_i_glide_lignum>  (1) 
25

>  <i_i_glide_posenum>  (1) 
10

>  <i_i_glide_rotatable_bonds>  (1) 
21

>  <i_lp_mmshare_version>  (1) 
72125

>  <i_m_source_file_index>  (1) 
14

>  <i_f3d_flags>  (1) 
0

>  <num_sample>  (1) 
50

>  <b_lp_Chiralities_Consistent>  (1) 
1

>  <r_epik_Charging_Adjusted_Penalty>  (1) 
0.45110583801900384

>  <r_epik_Ionization_Penalty>  (1) 
0.22670498176529164

>  <r_epik_Ionization_Penalty_Charging>  (1) 
0.22555291900950195

>  <r_epik_Ionization_Penalty_Neutral>  (1) 
0.001152062755789702

>  <r_epik_State_Penalty>  (1) 
0.22555291900950192

>  <r_glide_ring_energy>  (1) 
0

>  <r_i_docking_score>  (1) 
-3.9648805589453069

>  <r_i_glide_ecoul>  (1) 
-7.5526585880326707

>  <r_i_glide_eff_state_penalty>  (1) 
0.22555291900950192

>  <r_i_glide_einternal>  (1) 
25.396035984089202

>  <r_i_glide_emodel>  (1) 
-8.9250863587141929

>  <r_i_glide_emodel_strain>  (1) 
13.683951906831354

>  <r_i_glide_energy>  (1) 
-22.486203133830763

>  <r_i_glide_erotb>  (1) 
1.1363863637419909

>  <r_i_glide_esite>  (1) 
-0.34965506272241531

>  <r_i_glide_evdw>  (1) 
-14.933544545798092

>  <r_i_glide_gscore>  (1) 
-4.1904334779548087

>  <r_i_glide_gscore_strain>  (1) 
2.4209879767078384

>  <r_i_glide_hbond>  (1) 
-0.4448190707625832

>  <r_i_glide_ligand_efficiency>  (1) 
-0.11328230168415163

>  <r_i_glide_ligand_efficiency_ln>  (1) 
-0.87037927847141339

>  <r_i_glide_ligand_efficiency_sa>  (1) 
-0.37055392057964859

>  <r_i_glide_lipo>  (1) 
-4.0012419555474903

>  <r_i_glide_metal>  (1) 
-0

>  <r_i_glide_rewards>  (1) 
-1.0725157138773447

>  <r_lp_Energy>  (1) 
16.295462000000001

>  <s_epik_Chemistry_Notes>  (1) 
This compound contains an acetal/aminal-like group ( X-CH(R)-Y where X, Y are N, S, or O) that may be acid/base labile, releasing an aldehyde. This compound has a N-S or N-O group and may undergo hydrolysis at high or low pH.

>  <s_epik_cmdline>  (1) 
J2VwaWtfcHl0aG9uJywgJy1waHQnLCAnMS4wJywgJy1waCcsICc3LjQnLCAnLXRuJywgJzgnLCAnLW1hJywgJzUwMCcsICctaW1hZScsICc8aW5maWxlLm1hZT4nLCAnLW9tYWUnLCAnPG91dGZpbGUubWFlPic=

>  <s_epik_input>  (1) 
W09IXVtDSF0oW09IXSlbQ0gyXVtDQEhdKE9bQ0gzXSlbQ0gyXVtDSDJdW0NIMl1bQ0gyXVtDQEBIXShPW0NIM10pW0NIMl1OKFtDSDJdW05IXVtPSF0pW0NASF0oW0NIMl1bQ0gzXSlbQ0BIXShbQ0gzXSlPW0NAQEhdMVtDSDJdW0NIMl1jKGMxMilbY0hdW2NIXWMoRilbY0hdMg==

>  <s_glide_docking_method>  (1) 
confgen

>  <s_i_glide_gridfile>  (1) 
gpcr_5ht2c_6bqh_protein_autoprepared_prepared

>  <s_lp_Force_Field>  (1) 
S-OPLS

>  <s_lp_Variant>  (1) 
DiffSBDD_13-2

>  <s_m_source_file>  (1) 
generated_GPCR_5HT2C_ligand_DiffSBDD_2026-06-23_prepared.sdf

>  <GenAI_Model>  (1) 
DiffSBDD

>  <Protein>  (1) 
GPCR_5HT2C

$$$$
DiffSBDD_4
     RDKit          3D

  0  0  0  0  0  0  0  0  0  0999 V3000
M  V30 BEGIN CTAB
M  V30 COUNTS 84 86 0 0 1
M  V30 BEGIN ATOM
M  V30 1 C 38.606251 27.565814 54.245576 0
M  V30 2 O 36.592108 33.573853 61.367577 0
M  V30 3 C 38.999357 35.305171 60.616101 0
M  V30 4 C 36.869475 36.784586 62.784723 0
M  V30 5 C 39.204401 28.119561 56.646228 0
M  V30 6 C 38.452368 27.140503 55.722503 0 CFG=2
M  V30 7 O 36.758263 29.824507 58.815648 0
M  V30 8 O 40.043811 25.353755 55.582155 0
M  V30 9 C 37.188012 30.954873 59.065250 0
M  V30 10 C 38.891360 31.633178 62.097939 0
M  V30 11 C 40.732747 34.053266 61.983852 0
M  V30 12 C 38.494254 33.452040 56.341220 0
M  V30 13 C 38.935092 25.709050 55.964589 0
M  V30 14 N 36.620125 31.726052 60.056326 0
M  V30 15 C 37.245117 32.727698 60.754125 0
M  V30 16 C 41.015355 32.045495 63.522132 0
M  V30 17 C 38.807818 32.689114 60.942104 0 CFG=1
M  V30 18 C 42.273088 30.155115 64.414564 0
M  V30 19 C 38.278231 31.559692 58.125753 0 CFG=2
M  V30 20 C 41.421392 29.266265 63.743119 0
M  V30 21 C 39.281899 34.069125 61.501200 0 CFG=2
M  V30 22 C 42.067658 31.537414 64.309130 0
M  V30 23 C 39.271966 30.547219 57.496819 0
M  V30 24 F 42.867845 32.384078 64.983443 0
M  V30 25 C 39.000327 36.680198 61.340304 0
M  V30 26 C 35.250058 31.410673 60.436853 0
M  V30 27 C 38.848917 29.993627 54.998900 0
M  V30 28 C 38.403807 36.792736 62.756321 0
M  V30 29 N 38.096987 24.892531 56.603549 0
M  V30 30 C 38.155131 29.021515 54.026148 0
M  V30 31 C 40.357053 29.757304 62.967212 0
M  V30 32 C 41.622657 27.783774 63.879842 0
M  V30 33 C 38.483434 33.081599 57.841613 0
M  V30 34 C 38.665397 29.546670 56.464059 0 CFG=1
M  V30 35 C 40.837093 33.544207 63.417941 0
M  V30 36 N 40.845207 27.284944 65.024276 0 CHG=1
M  V30 37 C 40.132946 31.143406 62.857736 0
M  V30 38 H 38.027981 26.903251 53.598276 0
M  V30 39 H 39.644897 27.463250 53.934937 0
M  V30 40 H 39.756552 35.316703 59.832837 0
M  V30 41 H 38.044558 35.217831 60.101742 0
M  V30 42 H 36.501936 36.885526 63.806611 0
M  V30 43 H 36.460203 37.610768 62.202677 0
M  V30 44 H 36.462159 35.861129 62.378939 0
M  V30 45 H 40.275357 28.096816 56.439515 0
M  V30 46 H 39.080208 27.810773 57.685778 0
M  V30 47 H 37.391648 27.175258 55.968307 0
M  V30 48 H 38.426735 30.715015 61.732142 0
M  V30 49 H 38.236416 31.955867 62.907525 0
M  V30 50 H 41.383027 33.477196 61.329184 0
M  V30 51 H 41.126020 35.069916 61.975281 0
M  V30 52 H 38.445041 34.531055 56.198904 0
M  V30 53 H 39.397680 33.090571 55.849722 0
M  V30 54 H 37.641133 33.042276 55.803554 0
M  V30 55 H 39.430292 32.355416 60.123909 0
M  V30 56 H 43.081164 29.776448 65.024150 0
M  V30 57 H 37.545459 31.505083 57.327849 0
M  V30 58 H 38.679865 34.224562 62.389213 0
M  V30 59 H 40.045090 31.096732 56.967734 0
M  V30 60 H 39.768799 30.007784 58.302772 0
M  V30 61 H 40.029223 37.038403 61.379745 0
M  V30 62 H 38.448410 37.384540 60.710500 0
M  V30 63 H 35.245142 30.338013 60.567791 0
M  V30 64 H 34.911833 31.834629 61.383982 0
M  V30 65 H 34.552419 31.713863 59.652191 0
M  V30 66 H 38.433617 30.990663 54.855892 0
M  V30 67 H 39.908950 30.066548 54.757481 0
M  V30 68 H 38.820279 36.050247 63.432756 0
M  V30 69 H 38.737620 37.737764 63.177396 0
M  V30 70 H 37.195244 25.230166 56.902224 0
M  V30 71 H 38.368852 23.939959 56.788052 0
M  V30 72 H 37.075247 29.087861 54.158083 0
M  V30 73 H 38.354279 29.324050 52.997812 0
M  V30 74 H 39.687558 29.064018 62.477819 0
M  V30 75 H 41.246787 27.337738 62.967698 0
M  V30 76 H 42.678568 27.531034 63.982730 0
M  V30 77 H 37.676759 33.661178 58.288677 0
M  V30 78 H 39.417475 33.434810 58.275007 0
M  V30 79 H 37.589848 29.472746 56.608051 0
M  V30 80 H 40.045142 33.877814 64.070231 0
M  V30 81 H 41.722193 34.022883 63.836342 0
M  V30 82 H 40.924567 26.280775 65.089379 0
M  V30 83 H 41.182194 27.710600 65.875727 0
M  V30 84 H 39.873881 27.548695 64.888643 0
M  V30 END ATOM
M  V30 BEGIN BOND
M  V30 1 1 6 1
M  V30 2 1 6 5
M  V30 3 2 9 7
M  V30 4 1 13 6
M  V30 5 2 13 8
M  V30 6 1 14 9
M  V30 7 2 15 2
M  V30 8 1 15 14
M  V30 9 1 17 10
M  V30 10 1 17 15
M  V30 11 1 19 9
M  V30 12 2 20 18
M  V30 13 1 21 3
M  V30 14 1 21 11
M  V30 15 1 21 17
M  V30 16 2 22 16
M  V30 17 1 22 18
M  V30 18 1 23 19
M  V30 19 1 24 22
M  V30 20 1 25 3
M  V30 21 1 26 14
M  V30 22 1 28 4
M  V30 23 1 28 25
M  V30 24 1 29 13
M  V30 25 1 30 1
M  V30 26 1 30 27
M  V30 27 1 31 20
M  V30 28 1 32 20
M  V30 29 1 33 12
M  V30 30 1 33 19
M  V30 31 1 34 5
M  V30 32 1 34 23
M  V30 33 1 34 27
M  V30 34 1 35 11
M  V30 35 1 35 16
M  V30 36 1 36 32
M  V30 37 1 37 10
M  V30 38 1 37 16
M  V30 39 2 37 31
M  V30 40 1 38 1
M  V30 41 1 39 1
M  V30 42 1 40 3
M  V30 43 1 41 3
M  V30 44 1 42 4
M  V30 45 1 43 4
M  V30 46 1 44 4
M  V30 47 1 45 5
M  V30 48 1 46 5
M  V30 49 1 6 47 CFG=1
M  V30 50 1 48 10
M  V30 51 1 49 10
M  V30 52 1 50 11
M  V30 53 1 51 11
M  V30 54 1 52 12
M  V30 55 1 53 12
M  V30 56 1 54 12
M  V30 57 1 17 55 CFG=3
M  V30 58 1 56 18
M  V30 59 1 19 57 CFG=3
M  V30 60 1 21 58 CFG=1
M  V30 61 1 59 23
M  V30 62 1 60 23
M  V30 63 1 61 25
M  V30 64 1 62 25
M  V30 65 1 63 26
M  V30 66 1 64 26
M  V30 67 1 65 26
M  V30 68 1 66 27
M  V30 69 1 67 27
M  V30 70 1 68 28
M  V30 71 1 69 28
M  V30 72 1 70 29
M  V30 73 1 71 29
M  V30 74 1 72 30
M  V30 75 1 73 30
M  V30 76 1 74 31
M  V30 77 1 75 32
M  V30 78 1 76 32
M  V30 79 1 77 33
M  V30 80 1 78 33
M  V30 81 1 34 79 CFG=1
M  V30 82 1 80 35
M  V30 83 1 81 35
M  V30 84 1 82 36
M  V30 85 1 83 36
M  V30 86 1 84 36
M  V30 END BOND
M  V30 END CTAB
M  END
>  <i_epik_Tot_Q>  (1) 
1

>  <i_epik_Tot_abs_Q>  (1) 
1

>  <i_i_glide_confnum>  (1) 
581

>  <i_i_glide_lignum>  (1) 
12

>  <i_i_glide_posenum>  (1) 
110

>  <i_i_glide_rotatable_bonds>  (1) 
12

>  <i_lp_mmshare_version>  (1) 
72125

>  <i_m_source_file_index>  (1) 
5

>  <i_f3d_flags>  (1) 
0

>  <num_sample>  (1) 
50

>  <b_lp_Chiralities_Consistent>  (1) 
1

>  <r_epik_Charging_Adjusted_Penalty>  (1) 
0.13898695589805143

>  <r_epik_Ionization_Penalty>  (1) 
0.069493509606034093

>  <r_epik_Ionization_Penalty_Charging>  (1) 
0.069493477949025731

>  <r_epik_Ionization_Penalty_Neutral>  (1) 
3.165700835510182e-08

>  <r_epik_State_Penalty>  (1) 
0.069493477949025703

>  <r_glide_ring_energy>  (1) 
0

>  <r_i_docking_score>  (1) 
-3.9293716810642989

>  <r_i_glide_ecoul>  (1) 
-3.6069764039510153

>  <r_i_glide_eff_state_penalty>  (1) 
0.069493477949025703

>  <r_i_glide_einternal>  (1) 
19.143916593006754

>  <r_i_glide_emodel>  (1) 
-32.989752943478258

>  <r_i_glide_emodel_strain>  (1) 
14.527456172309186

>  <r_i_glide_energy>  (1) 
-47.146891530772493

>  <r_i_glide_erotb>  (1) 
0.61504065404150154

>  <r_i_glide_esite>  (1) 
-0.16818014323438535

>  <r_i_glide_evdw>  (1) 
-43.539915126821477

>  <r_i_glide_gscore>  (1) 
-3.9988651590133246

>  <r_i_glide_gscore_strain>  (1) 
2.6318640430772966

>  <r_i_glide_hbond>  (1) 
0

>  <r_i_glide_ligand_efficiency>  (1) 
-0.10619923462335942

>  <r_i_glide_ligand_efficiency_ln>  (1) 
-0.85218860008091568

>  <r_i_glide_ligand_efficiency_sa>  (1) 
-0.35387941024003383

>  <r_i_glide_lipo>  (1) 
-3.3526191268040777

>  <r_i_glide_metal>  (1) 
-0

>  <r_i_glide_rewards>  (1) 
-1.0069283691599327

>  <r_lp_Energy>  (1) 
65.294674999999998

>  <r_lp_tautomer_probability>  (1) 
0.99980002999550088

>  <s_epik_cmdline>  (1) 
J2VwaWtfcHl0aG9uJywgJy1waHQnLCAnMS4wJywgJy1waCcsICc3LjQnLCAnLXRuJywgJzgnLCAnLW1hJywgJzUwMCcsICctaW1hZScsICc8aW5maWxlLm1hZT4nLCAnLW9tYWUnLCAnPG91dGZpbGUubWFlPic=

>  <s_epik_input>  (1) 
Tz1DKFtOSDJdKVtDQEBIXTFbQ0gyXVtDSDJdW0NIMl1bQ0BASF0oW0NIMl0xKVtDSDJdW0NASF0oW0NIMl1bQ0gzXSlDKD1PKU4oW0NIM10pQyg9TylbQ0BASF0oW0NAQEhdKFtDSDJdW0NIMl0yKVtDSDJdW0NIMl1bQ0gyXVtDSDNdKVtDSDJdYyhjMjMpW2NIXWMoW2NIXWMzRilbQ0gyXVtOSDJd

>  <s_glide_docking_method>  (1) 
confgen

>  <s_i_glide_gridfile>  (1) 
gpcr_5ht2c_6bqh_protein_autoprepared_prepared

>  <s_lp_Force_Field>  (1) 
S-OPLS

>  <s_lp_Variant>  (1) 
DiffSBDD_4-1

>  <s_m_source_file>  (1) 
generated_GPCR_5HT2C_ligand_DiffSBDD_2026-06-23_prepared.sdf

>  <GenAI_Model>  (1) 
DiffSBDD

>  <Protein>  (1) 
GPCR_5HT2C

$$$$
DiffSBDD_34
     RDKit          3D

  0  0  0  0  0  0  0  0  0  0999 V3000
M  V30 BEGIN CTAB
M  V30 COUNTS 82 85 0 0 1
M  V30 BEGIN ATOM
M  V30 1 C 39.059120 30.097035 57.753556 0
M  V30 2 C 39.983612 35.848479 63.731439 0 CFG=1
M  V30 3 C 37.176401 32.244800 61.524720 0
M  V30 4 C 36.932089 31.102475 60.493634 0
M  V30 5 O 36.549372 33.737665 58.168136 0
M  V30 6 C 39.734427 36.895088 62.605200 0
M  V30 7 O 38.175273 34.084946 59.713074 0
M  V30 8 C 38.844444 33.395457 57.537146 0 CFG=1
M  V30 9 C 39.251613 30.232423 61.149821 0 CFG=2
M  V30 10 C 40.675187 34.583220 63.236812 0
M  V30 11 C 37.185691 34.631269 60.543940 0 CFG=2
M  V30 12 C 38.020296 30.228847 55.389115 0
M  V30 13 O 38.808809 27.905693 59.228069 0
M  V30 14 C 38.983137 32.231266 56.566715 0 CFG=2
M  V30 15 O 35.108256 33.305849 60.655531 0
M  V30 16 C 44.607597 29.702290 64.657457 0
M  V30 17 O 36.675953 29.046027 58.397040 0
M  V30 18 N 37.940124 35.320946 61.758631 0 CHG=1
M  V30 19 C 38.848027 36.435687 61.406154 0
M  V30 20 C 39.758866 29.027160 61.917997 0 CFG=1
M  V30 21 S 38.050607 29.123089 58.906521 0
M  V30 22 O 41.140552 29.036674 62.247207 0
M  V30 23 C 38.462180 33.535057 56.060442 0
M  V30 24 C 39.134344 29.312717 54.881953 0
M  V30 25 C 41.243073 34.451108 61.988117 0
M  V30 26 S 41.946093 32.889695 61.770709 0
M  V30 27 C 40.841696 33.382022 64.020499 0
M  V30 28 O 36.997523 30.403911 54.731885 0
M  V30 29 C 39.055733 30.137839 62.637500 0
M  V30 30 C 41.358780 28.368991 63.485251 0
M  V30 31 C 37.724439 33.737753 58.492135 0
M  V30 32 C 40.710194 36.394228 64.974597 0
M  V30 33 O 43.237951 29.646943 64.301621 0
M  V30 34 N 38.044471 30.136194 60.315055 0
M  V30 35 C 42.840369 28.356717 63.867231 0
M  V30 36 C 41.527619 32.401551 63.360764 0
M  V30 37 C 38.232494 30.930633 56.746450 0 CFG=2
M  V30 38 C 36.351139 33.535451 61.282530 0 CFG=1
M  V30 39 N 40.741794 35.524922 66.168860 0 CHG=1
M  V30 40 H 39.645121 30.734082 58.396222 0
M  V30 41 H 39.788288 29.431468 57.298897 0
M  V30 42 H 38.970419 35.737755 64.095494 0
M  V30 43 H 38.230302 32.513077 61.602231 0
M  V30 44 H 36.925726 31.868888 62.514031 0
M  V30 45 H 36.035153 30.541150 60.761488 0
M  V30 46 H 36.705748 31.513327 59.514298 0
M  V30 47 H 40.679364 37.292225 62.230261 0
M  V30 48 H 39.238541 37.738391 63.072593 0
M  V30 49 H 39.808048 33.737401 57.894404 0
M  V30 50 H 39.970254 30.939817 60.748008 0
M  V30 51 H 36.568322 35.372494 60.032657 0
M  V30 52 H 40.001137 32.050906 56.220419 0
M  V30 53 H 34.566434 32.754337 61.195621 0
M  V30 54 H 44.846926 30.705514 65.009145 0
M  V30 55 H 44.842001 29.001041 65.459410 0
M  V30 56 H 45.243072 29.482859 63.798235 0
M  V30 57 H 37.259600 35.672905 62.418062 0
M  V30 58 H 39.470597 36.132067 60.567663 0
M  V30 59 H 38.251885 37.269393 61.031282 0
M  V30 60 H 39.268326 28.059123 61.843921 0
M  V30 61 H 39.118490 34.124516 55.426474 0
M  V30 62 H 37.414747 33.566630 55.780930 0
M  V30 63 H 40.113099 29.768494 55.039480 0
M  V30 64 H 39.098877 28.354186 55.402693 0
M  V30 65 H 39.010099 29.124050 53.815328 0
M  V30 66 H 41.300884 35.178508 61.193340 0
M  V30 67 H 40.465530 33.287069 65.026251 0
M  V30 68 H 39.632055 30.787677 63.278196 0
M  V30 69 H 38.045332 29.976891 62.968243 0
M  V30 70 H 40.782703 28.829905 64.289583 0
M  V30 71 H 41.005524 27.341249 63.387568 0
M  V30 72 H 41.752828 36.537068 64.695611 0
M  V30 73 H 40.248936 37.331072 65.290460 0
M  V30 74 H 42.981446 27.651593 64.686688 0
M  V30 75 H 43.439643 28.006976 63.029566 0
M  V30 76 H 41.793088 31.416276 63.715203 0
M  V30 77 H 37.246672 31.163616 57.161037 0
M  V30 78 H 36.044907 33.949974 62.242492 0
M  V30 79 H 41.266894 35.975046 66.905110 0
M  V30 80 H 39.812309 35.326371 66.508649 0
M  V30 81 H 41.212237 34.666934 65.922658 0
M  V30 82 H 38.498155 34.620956 62.227839 0
M  V30 END ATOM
M  V30 BEGIN BOND
M  V30 1 1 4 3
M  V30 2 1 6 2
M  V30 3 1 10 2
M  V30 4 1 11 7
M  V30 5 1 14 8
M  V30 6 1 18 11
M  V30 7 1 19 6
M  V30 8 1 19 18
M  V30 9 1 20 9
M  V30 10 1 21 1
M  V30 11 2 21 13
M  V30 12 2 21 17
M  V30 13 1 22 20
M  V30 14 1 23 8
M  V30 15 1 23 14
M  V30 16 1 24 12
M  V30 17 2 25 10
M  V30 18 1 26 25
M  V30 19 1 27 10
M  V30 20 2 28 12
M  V30 21 1 29 9
M  V30 22 1 29 20
M  V30 23 1 30 22
M  V30 24 2 31 5
M  V30 25 1 31 7
M  V30 26 1 31 8
M  V30 27 1 32 2
M  V30 28 1 33 16
M  V30 29 1 34 4
M  V30 30 1 34 9
M  V30 31 1 34 21
M  V30 32 1 35 30
M  V30 33 1 35 33
M  V30 34 1 36 26
M  V30 35 2 36 27
M  V30 36 1 37 1
M  V30 37 1 37 12
M  V30 38 1 37 14
M  V30 39 1 38 3
M  V30 40 1 38 11
M  V30 41 1 38 15
M  V30 42 1 39 32
M  V30 43 1 40 1
M  V30 44 1 41 1
M  V30 45 1 2 42 CFG=1
M  V30 46 1 43 3
M  V30 47 1 44 3
M  V30 48 1 45 4
M  V30 49 1 46 4
M  V30 50 1 47 6
M  V30 51 1 48 6
M  V30 52 1 8 49 CFG=1
M  V30 53 1 9 50 CFG=1
M  V30 54 1 11 51 CFG=3
M  V30 55 1 14 52 CFG=3
M  V30 56 1 53 15
M  V30 57 1 54 16
M  V30 58 1 55 16
M  V30 59 1 56 16
M  V30 60 1 57 18
M  V30 61 1 58 19
M  V30 62 1 59 19
M  V30 63 1 20 60 CFG=3
M  V30 64 1 61 23
M  V30 65 1 62 23
M  V30 66 1 63 24
M  V30 67 1 64 24
M  V30 68 1 65 24
M  V30 69 1 66 25
M  V30 70 1 67 27
M  V30 71 1 68 29
M  V30 72 1 69 29
M  V30 73 1 70 30
M  V30 74 1 71 30
M  V30 75 1 72 32
M  V30 76 1 73 32
M  V30 77 1 74 35
M  V30 78 1 75 35
M  V30 79 1 76 36
M  V30 80 1 37 77 CFG=1
M  V30 81 1 38 78 CFG=1
M  V30 82 1 79 39
M  V30 83 1 80 39
M  V30 84 1 81 39
M  V30 85 1 82 18
M  V30 END BOND
M  V30 END CTAB
M  END
>  <i_epik_Tot_Q>  (1) 
2

>  <i_epik_Tot_abs_Q>  (1) 
2

>  <i_i_glide_confnum>  (1) 
628

>  <i_i_glide_lignum>  (1) 
74

>  <i_i_glide_posenum>  (1) 
361

>  <i_i_glide_rotatable_bonds>  (1) 
13

>  <i_lp_mmshare_version>  (1) 
72125

>  <i_m_source_file_index>  (1) 
35

>  <i_f3d_flags>  (1) 
0

>  <num_sample>  (1) 
50

>  <b_lp_Chiralities_Consistent>  (1) 
1

>  <r_epik_Charging_Adjusted_Penalty>  (1) 
2.3451396311148152

>  <r_epik_Ionization_Penalty>  (1) 
1.1748262987801661

>  <r_epik_Ionization_Penalty_Charging>  (1) 
1.1748152809562251

>  <r_epik_Ionization_Penalty_Neutral>  (1) 
1.1017823941083724e-05

>  <r_epik_State_Penalty>  (1) 
1.1703243501585898

>  <r_glide_ring_energy>  (1) 
0

>  <r_i_docking_score>  (1) 
-3.9256314090625768

>  <r_i_glide_ecoul>  (1) 
-3.4936557301787357

>  <r_i_glide_eff_state_penalty>  (1) 
1.1703243501585898

>  <r_i_glide_einternal>  (1) 
7.8651863004431224

>  <r_i_glide_emodel>  (1) 
-30.607599939890775

>  <r_i_glide_emodel_strain>  (1) 
4.1682023059419748

>  <r_i_glide_energy>  (1) 
-33.918467216986272

>  <r_i_glide_erotb>  (1) 
0.3736599463562138

>  <r_i_glide_esite>  (1) 
-0.13397506090355343

>  <r_i_glide_evdw>  (1) 
-30.424811486807535

>  <r_i_glide_gscore>  (1) 
-5.0959557592211668

>  <r_i_glide_gscore_strain>  (1) 
0.042050576485493707

>  <r_i_glide_hbond>  (1) 
-0.24047632532916241

>  <r_i_glide_ligand_efficiency>  (1) 
-0.10065721561698915

>  <r_i_glide_ligand_efficiency_ln>  (1) 
-0.84176680977735374

>  <r_i_glide_ligand_efficiency_sa>  (1) 
-0.34134990142227795

>  <r_i_glide_lipo>  (1) 
-2.3878830783236284

>  <r_i_glide_metal>  (1) 
-0

>  <r_i_glide_rewards>  (1) 
-0.70404288363934442

>  <r_lp_Energy>  (1) 
19.937625000000001

>  <r_lp_tautomer_probability>  (1) 
0.9999999700000004

>  <s_epik_Chemistry_Notes>  (1) 
This compound has an ester and may undergo hydrolysis at high or low pH. This compound contains an acetal/aminal-like group ( X-CH(R)-Y where X, Y are N, S, or O) that may be acid/base labile, releasing an aldehyde.

>  <s_epik_cmdline>  (1) 
J2VwaWtfcHl0aG9uJywgJy1waHQnLCAnMS4wJywgJy1waCcsICc3LjQnLCAnLXRuJywgJzgnLCAnLW1hJywgJzUwMCcsICctaW1hZScsICc8aW5maWxlLm1hZT4nLCAnLW9tYWUnLCAnPG91dGZpbGUubWFlPic=

>  <s_epik_input>  (1) 
W0NIM11PW0NIMl1bQ0gyXU9bQ0BASF0oW0NIMl0xKVtDSF0xTihTKD1PKSg9TylbQ0gyXVtDQEhdKEMoPU8pW0NIM10pW0NASF0oW0NIXTIzKVtDSDJdMilbQ0gyXVtDSDJdW0NASF0oW09IXSlbQ0BIXShPQzM9TylbTkhdW0NIMl1bQ0gyXVtDQEhdKFtDSDJdW05IMl0pYzRbY0hdc1tjSF1bY0hdNA==

>  <s_glide_docking_method>  (1) 
confgen

>  <s_i_glide_gridfile>  (1) 
gpcr_5ht2c_6bqh_protein_autoprepared_prepared

>  <s_lp_Force_Field>  (1) 
S-OPLS

>  <s_lp_Variant>  (1) 
DiffSBDD_34-2

>  <s_m_source_file>  (1) 
generated_GPCR_5HT2C_ligand_DiffSBDD_2026-06-23_prepared.sdf

>  <GenAI_Model>  (1) 
DiffSBDD

>  <Protein>  (1) 
GPCR_5HT2C

$$$$
DiffSBDD_5
     RDKit          3D

  0  0  0  0  0  0  0  0  0  0999 V3000
M  V30 BEGIN CTAB
M  V30 COUNTS 56 58 0 0 1
M  V30 BEGIN ATOM
M  V30 1 O 37.336457 29.312850 58.332765 0
M  V30 2 C 38.683037 30.772669 59.766167 0
M  V30 3 C 38.673737 29.625661 58.703394 0 CFG=1
M  V30 4 O 38.445136 33.726642 56.073932 0
M  V30 5 C 37.176333 34.386016 60.320190 0 CFG=1
M  V30 6 C 39.937982 28.137750 61.574040 0
M  V30 7 C 38.314675 30.314392 54.722266 0
M  V30 8 O 41.373582 27.621013 57.146642 0
M  V30 9 C 39.883964 26.294500 55.906236 0
M  V30 10 C 39.321719 31.308458 56.811484 0
M  V30 11 C 36.863687 34.170339 58.872523 0
M  V30 12 O 38.045141 26.676458 58.093734 0
M  V30 13 C 37.861828 33.254951 59.565581 0 CFG=2
M  V30 14 C 37.500814 31.791714 59.845753 0 CFG=2
M  V30 15 C 38.156567 31.368218 55.855305 0 CFG=1
M  V30 16 C 39.373997 28.344419 59.258741 0 CFG=1
M  V30 17 C 39.988384 27.462180 56.914475 0 CFG=2
M  V30 18 O 36.898501 31.710539 61.139538 0
M  V30 19 O 38.030796 35.482930 60.564391 0
M  V30 20 O 38.934756 28.031542 60.567741 0
M  V30 21 C 37.782000 31.968623 62.227506 0
M  V30 22 C 39.422990 28.807375 56.430874 0
M  V30 23 C 38.878265 28.985249 55.208577 0
M  V30 24 C 39.505226 29.941652 57.440551 0 CFG=2
M  V30 25 C 39.370723 27.109712 58.301612 0 CFG=2
M  V30 26 C 38.070050 32.799974 55.319903 0
M  V30 27 O 37.645141 32.937768 54.167760 0 CHG=-1
M  V30 28 H 36.956440 30.066010 57.895663 0
M  V30 29 H 38.660964 30.272002 60.718736 0
M  V30 30 H 39.644988 31.278722 59.788542 0
M  V30 31 H 36.411180 34.204448 61.072051 0
M  V30 32 H 39.539273 27.817979 62.534130 0
M  V30 33 H 40.794669 27.510480 61.337287 0
M  V30 34 H 40.296205 29.160379 61.691274 0
M  V30 35 H 38.977823 30.680122 53.936570 0
M  V30 36 H 37.345391 30.133864 54.256778 0
M  V30 37 H 41.808685 27.727132 56.314528 0
M  V30 38 H 38.848487 26.084546 55.635099 0
M  V30 39 H 40.433037 26.502243 54.986979 0
M  V30 40 H 40.295147 25.375844 56.326478 0
M  V30 41 H 39.245179 32.063087 57.586019 0
M  V30 42 H 40.202949 31.556397 56.220150 0
M  V30 43 H 37.245133 34.902678 58.167750 0
M  V30 44 H 35.886732 33.758153 58.624844 0
M  V30 45 H 37.519410 27.470077 58.040955 0
M  V30 46 H 38.908035 33.421759 59.316887 0
M  V30 47 H 36.717712 31.527509 59.137164 0
M  V30 48 H 37.245141 31.156417 56.401703 0
M  V30 49 H 40.430278 28.600452 59.367466 0
M  V30 50 H 38.559908 35.618889 59.793196 0
M  V30 51 H 37.245143 32.537734 62.967757 0
M  V30 52 H 38.112541 31.040294 62.694835 0
M  V30 53 H 38.664235 32.552924 61.961750 0
M  V30 54 H 38.829519 28.162581 54.513554 0
M  V30 55 H 40.532808 29.960080 57.767791 0
M  V30 56 H 39.918559 26.283582 58.756094 0
M  V30 END ATOM
M  V30 BEGIN BOND
M  V30 1 1 3 1 CFG=3
M  V30 2 1 3 2
M  V30 3 1 11 5
M  V30 4 1 13 5
M  V30 5 1 13 11
M  V30 6 1 14 2
M  V30 7 1 14 13
M  V30 8 1 15 7
M  V30 9 1 15 10
M  V30 10 1 16 3
M  V30 11 1 17 8 CFG=1
M  V30 12 1 17 9
M  V30 13 1 18 14
M  V30 14 1 19 5
M  V30 15 1 20 6
M  V30 16 1 20 16
M  V30 17 1 21 18
M  V30 18 1 22 17
M  V30 19 1 23 7
M  V30 20 2 23 22
M  V30 21 1 24 3
M  V30 22 1 24 10
M  V30 23 1 24 22
M  V30 24 1 25 12
M  V30 25 1 25 16
M  V30 26 1 25 17
M  V30 27 2 26 4
M  V30 28 1 26 15
M  V30 29 1 27 26
M  V30 30 1 28 1
M  V30 31 1 29 2
M  V30 32 1 30 2
M  V30 33 1 5 31 CFG=1
M  V30 34 1 32 6
M  V30 35 1 33 6
M  V30 36 1 34 6
M  V30 37 1 35 7
M  V30 38 1 36 7
M  V30 39 1 37 8
M  V30 40 1 38 9
M  V30 41 1 39 9
M  V30 42 1 40 9
M  V30 43 1 41 10
M  V30 44 1 42 10
M  V30 45 1 43 11
M  V30 46 1 44 11
M  V30 47 1 45 12
M  V30 48 1 13 46 CFG=3
M  V30 49 1 14 47 CFG=3
M  V30 50 1 15 48 CFG=1
M  V30 51 1 16 49 CFG=1
M  V30 52 1 50 19
M  V30 53 1 51 21
M  V30 54 1 52 21
M  V30 55 1 53 21
M  V30 56 1 54 23
M  V30 57 1 24 55 CFG=1
M  V30 58 1 25 56 CFG=1
M  V30 END BOND
M  V30 END CTAB
M  END
>  <i_epik_Tot_Q>  (1) 
-1

>  <i_epik_Tot_abs_Q>  (1) 
1

>  <i_i_glide_confnum>  (1) 
37

>  <i_i_glide_lignum>  (1) 
14

>  <i_i_glide_posenum>  (1) 
101

>  <i_i_glide_rotatable_bonds>  (1) 
10

>  <i_lp_mmshare_version>  (1) 
72125

>  <i_m_source_file_index>  (1) 
6

>  <i_f3d_flags>  (1) 
0

>  <num_sample>  (1) 
50

>  <b_lp_Chiralities_Consistent>  (1) 
1

>  <r_epik_Charging_Adjusted_Penalty>  (1) 
0.00069514942646818579

>  <r_epik_Ionization_Penalty>  (1) 
0.00069544814870727001

>  <r_epik_Ionization_Penalty_Charging>  (1) 
0.00069514942646818579

>  <r_epik_Ionization_Penalty_Neutral>  (1) 
2.9872223908425859e-07

>  <r_epik_State_Penalty>  (1) 
-0

>  <r_glide_ring_energy>  (1) 
0

>  <r_i_docking_score>  (1) 
-3.9021800291012969

>  <r_i_glide_ecoul>  (1) 
-2.0388599765701105

>  <r_i_glide_eff_state_penalty>  (1) 
-0

>  <r_i_glide_einternal>  (1) 
13.347433620496409

>  <r_i_glide_emodel>  (1) 
-20.510344001915083

>  <r_i_glide_emodel_strain>  (1) 
5.3417165554995236

>  <r_i_glide_energy>  (1) 
-25.29756880480317

>  <r_i_glide_erotb>  (1) 
0.39282459937787173

>  <r_i_glide_esite>  (1) 
-0.074456687055641083

>  <r_i_glide_evdw>  (1) 
-23.258708828233058

>  <r_i_glide_gscore>  (1) 
-3.9021800291012969

>  <r_i_glide_gscore_strain>  (1) 
0.33542913887488091

>  <r_i_glide_hbond>  (1) 
-0.15084178822549435

>  <r_i_glide_ligand_efficiency>  (1) 
-0.144525186263011

>  <r_i_glide_ligand_efficiency_ln>  (1) 
-0.90836317830914681

>  <r_i_glide_ligand_efficiency_sa>  (1) 
-0.43357555878903309

>  <r_i_glide_lipo>  (1) 
-1.7532013182835047

>  <r_i_glide_metal>  (1) 
-0

>  <r_i_glide_rewards>  (1) 
-1.1831695358922396

>  <r_lp_Energy>  (1) 
23.796561000000001

>  <r_lp_tautomer_probability>  (1) 
1

>  <s_epik_cmdline>  (1) 
J2VwaWtfcHl0aG9uJywgJy1waHQnLCAnMS4wJywgJy1waCcsICc3LjQnLCAnLXRuJywgJzgnLCAnLW1hJywgJzUwMCcsICctaW1hZScsICc8aW5maWxlLm1hZT4nLCAnLW9tYWUnLCAnPG91dGZpbGUubWFlPic=

>  <s_epik_input>  (1) 
Tz1DKFtPSF0pW0NAQEhdKFtDSDJdW0NIXTEpW0NIMl1bQ0BIXShDPTEyKVtDQEBdKFtPSF0pKFtDQEBIXShPW0NIM10pW0NAQEhdKFtPSF0pW0NAQF0yKFtPSF0pW0NIM10pW0NIMl1bQ0BASF0oT1tDSDNdKVtDQEhdM1tDSDJdW0NAQEhdM1tPSF0=

>  <s_glide_docking_method>  (1) 
confgen

>  <s_i_glide_gridfile>  (1) 
gpcr_5ht2c_6bqh_protein_autoprepared_prepared

>  <s_lp_Force_Field>  (1) 
S-OPLS

>  <s_lp_Variant>  (1) 
DiffSBDD_5-1

>  <s_m_source_file>  (1) 
generated_GPCR_5HT2C_ligand_DiffSBDD_2026-06-23_prepared.sdf

>  <GenAI_Model>  (1) 
DiffSBDD

>  <Protein>  (1) 
GPCR_5HT2C

$$$$
DiffSBDD_4
     RDKit          3D

  0  0  0  0  0  0  0  0  0  0999 V3000
M  V30 BEGIN CTAB
M  V30 COUNTS 83 85 0 0 1
M  V30 BEGIN ATOM
M  V30 1 C 38.886641 31.609124 53.600825 0
M  V30 2 O 41.521510 29.154346 62.395883 0
M  V30 3 C 40.599131 30.435602 64.893433 0
M  V30 4 C 41.355288 30.873302 68.056866 0
M  V30 5 C 39.012071 29.873894 55.337921 0
M  V30 6 C 38.584606 30.129065 53.876212 0 CFG=2
M  V30 7 O 38.226090 30.633604 60.554961 0
M  V30 8 O 40.044781 29.570390 52.047931 0
M  V30 9 C 38.982382 29.839385 59.996345 0
M  V30 10 C 40.520181 32.253249 61.391289 0
M  V30 11 C 40.677640 32.868876 64.366415 0
M  V30 12 C 36.119630 29.221018 58.719161 0
M  V30 13 C 39.206972 29.170386 52.851348 0
M  V30 14 N 40.097024 29.292301 60.605460 0
M  V30 15 C 40.620803 29.759915 61.812249 0
M  V30 16 C 39.985654 34.451650 62.515359 0
M  V30 17 C 40.128710 31.136700 62.408486 0 CFG=1
M  V30 18 C 38.245323 35.932833 61.639844 0
M  V30 19 C 38.706464 29.448927 58.502152 0 CFG=2
M  V30 20 C 37.968182 35.002111 60.616594 0
M  V30 21 C 40.890861 31.455042 63.753924 0 CFG=2
M  V30 22 C 39.252126 35.660408 62.588113 0
M  V30 23 C 38.652897 30.783456 57.745549 0
M  V30 24 F 39.507516 36.552763 63.574328 0
M  V30 25 C 41.868291 30.066940 65.688319 0
M  V30 26 C 40.797529 28.175924 59.942767 0
M  V30 27 C 38.284849 32.290723 55.882061 0
M  V30 28 C 41.601326 29.662787 67.145233 0
M  V30 29 N 38.780500 27.906823 52.877254 0
M  V30 30 C 37.924011 32.460031 54.426195 0
M  V30 31 C 38.711908 33.808128 60.535791 0
M  V30 32 C 36.867859 35.283384 59.605168 0
M  V30 33 C 37.447860 28.602984 58.236606 0
M  V30 34 C 38.208884 30.806431 56.289019 0 CFG=1
M  V30 35 C 41.049375 34.130712 63.554118 0
M  V30 36 N 35.889979 34.214211 59.540760 0
M  V30 37 C 39.719799 33.533844 61.485181 0
M  V30 38 H 38.846235 31.914985 52.567726 0
M  V30 39 H 39.921492 31.779899 53.892817 0
M  V30 40 H 39.836161 30.835115 65.562431 0
M  V30 41 H 40.151636 29.516816 64.517061 0
M  V30 42 H 41.243921 30.558527 69.094306 0
M  V30 43 H 42.191520 31.572111 68.017988 0
M  V30 44 H 40.455437 31.417369 67.768305 0
M  V30 45 H 40.081570 30.054730 55.451124 0
M  V30 46 H 38.856877 28.827335 55.594613 0
M  V30 47 H 37.508634 29.970045 53.792282 0
M  V30 48 H 40.425511 31.942152 60.364573 0
M  V30 49 H 41.582919 32.482622 61.470884 0
M  V30 50 H 39.645453 32.937563 64.681504 0
M  V30 51 H 41.262295 32.913487 65.286161 0
M  V30 52 H 35.286901 28.537916 58.569190 0
M  V30 53 H 36.132952 29.457855 59.776841 0
M  V30 54 H 35.888485 30.137719 58.182206 0
M  V30 55 H 39.067275 31.117704 62.648685 0
M  V30 56 H 37.681151 36.851656 61.703321 0
M  V30 57 H 39.520585 28.912601 58.027400 0
M  V30 58 H 41.956513 31.394047 63.523182 0
M  V30 59 H 37.995308 31.478560 58.268989 0
M  V30 60 H 39.645137 31.216949 57.767669 0
M  V30 61 H 42.369470 29.248395 65.169884 0
M  V30 62 H 42.579931 30.893311 65.684971 0
M  V30 63 H 40.111340 27.368780 59.678324 0
M  V30 64 H 41.323538 28.513945 59.049304 0
M  V30 65 H 41.582223 27.737685 60.551349 0
M  V30 66 H 37.613963 32.895250 56.494418 0
M  V30 67 H 39.288606 32.689095 56.048029 0
M  V30 68 H 40.765162 28.964685 67.200163 0
M  V30 69 H 42.471043 29.123538 67.522320 0
M  V30 70 H 38.086705 27.621991 53.552229 0
M  V30 71 H 39.150311 27.239394 52.217563 0
M  V30 72 H 36.895293 32.138972 54.260368 0
M  V30 73 H 37.950938 33.509300 54.167874 0
M  V30 74 H 38.506495 33.100248 59.748648 0
M  V30 75 H 36.355779 36.213415 59.853908 0
M  V30 76 H 37.293367 35.413337 58.611363 0
M  V30 77 H 37.341652 28.427669 57.169661 0
M  V30 78 H 37.645108 27.599846 58.602192 0
M  V30 79 H 37.162025 30.513704 56.226237 0
M  V30 80 H 42.028587 34.024154 63.087736 0
M  V30 81 H 41.146829 34.970741 64.242716 0
M  V30 82 H 35.820466 33.860626 58.593912 0
M  V30 83 H 36.197376 33.438759 60.109701 0
M  V30 END ATOM
M  V30 BEGIN BOND
M  V30 1 1 6 1
M  V30 2 1 6 5
M  V30 3 2 9 7
M  V30 4 1 13 6
M  V30 5 2 13 8
M  V30 6 1 14 9
M  V30 7 2 15 2
M  V30 8 1 15 14
M  V30 9 1 17 10
M  V30 10 1 17 15
M  V30 11 1 19 9
M  V30 12 2 20 18
M  V30 13 1 21 3
M  V30 14 1 21 11
M  V30 15 1 21 17
M  V30 16 2 22 16
M  V30 17 1 22 18
M  V30 18 1 23 19
M  V30 19 1 24 22
M  V30 20 1 25 3
M  V30 21 1 26 14
M  V30 22 1 28 4
M  V30 23 1 28 25
M  V30 24 1 29 13
M  V30 25 1 30 1
M  V30 26 1 30 27
M  V30 27 1 31 20
M  V30 28 1 32 20
M  V30 29 1 33 12
M  V30 30 1 33 19
M  V30 31 1 34 5
M  V30 32 1 34 23
M  V30 33 1 34 27
M  V30 34 1 35 11
M  V30 35 1 35 16
M  V30 36 1 36 32
M  V30 37 1 37 10
M  V30 38 1 37 16
M  V30 39 2 37 31
M  V30 40 1 38 1
M  V30 41 1 39 1
M  V30 42 1 40 3
M  V30 43 1 41 3
M  V30 44 1 42 4
M  V30 45 1 43 4
M  V30 46 1 44 4
M  V30 47 1 45 5
M  V30 48 1 46 5
M  V30 49 1 6 47 CFG=1
M  V30 50 1 48 10
M  V30 51 1 49 10
M  V30 52 1 50 11
M  V30 53 1 51 11
M  V30 54 1 52 12
M  V30 55 1 53 12
M  V30 56 1 54 12
M  V30 57 1 17 55 CFG=1
M  V30 58 1 56 18
M  V30 59 1 19 57 CFG=3
M  V30 60 1 21 58 CFG=3
M  V30 61 1 59 23
M  V30 62 1 60 23
M  V30 63 1 61 25
M  V30 64 1 62 25
M  V30 65 1 63 26
M  V30 66 1 64 26
M  V30 67 1 65 26
M  V30 68 1 66 27
M  V30 69 1 67 27
M  V30 70 1 68 28
M  V30 71 1 69 28
M  V30 72 1 70 29
M  V30 73 1 71 29
M  V30 74 1 72 30
M  V30 75 1 73 30
M  V30 76 1 74 31
M  V30 77 1 75 32
M  V30 78 1 76 32
M  V30 79 1 77 33
M  V30 80 1 78 33
M  V30 81 1 34 79 CFG=1
M  V30 82 1 80 35
M  V30 83 1 81 35
M  V30 84 1 82 36
M  V30 85 1 83 36
M  V30 END BOND
M  V30 END CTAB
M  END
>  <i_epik_Tot_Q>  (1) 
0

>  <i_epik_Tot_abs_Q>  (1) 
0

>  <i_i_glide_confnum>  (1) 
823

>  <i_i_glide_lignum>  (1) 
13

>  <i_i_glide_posenum>  (1) 
226

>  <i_i_glide_rotatable_bonds>  (1) 
12

>  <i_lp_mmshare_version>  (1) 
72125

>  <i_m_source_file_index>  (1) 
5

>  <i_f3d_flags>  (1) 
0

>  <num_sample>  (1) 
50

>  <b_lp_Chiralities_Consistent>  (1) 
1

>  <r_epik_Charging_Adjusted_Penalty>  (1) 
1.3041598134217376

>  <r_epik_Ionization_Penalty>  (1) 
1.3041598450787459

>  <r_epik_Ionization_Penalty_Charging>  (1) 
0

>  <r_epik_Ionization_Penalty_Neutral>  (1) 
1.3041598450787459

>  <r_epik_State_Penalty>  (1) 
1.3041598134217376

>  <r_glide_ring_energy>  (1) 
0

>  <r_i_docking_score>  (1) 
-3.8197119135355768

>  <r_i_glide_ecoul>  (1) 
-0.040357030338372901

>  <r_i_glide_eff_state_penalty>  (1) 
1.3041598134217376

>  <r_i_glide_einternal>  (1) 
26.033105525021536

>  <r_i_glide_emodel>  (1) 
-32.347498721399916

>  <r_i_glide_emodel_strain>  (1) 
7.1646484568972539

>  <r_i_glide_energy>  (1) 
-38.626747038646464

>  <r_i_glide_erotb>  (1) 
0.6172515797735002

>  <r_i_glide_esite>  (1) 
-0.035794283693856371

>  <r_i_glide_evdw>  (1) 
-38.586390008308094

>  <r_i_glide_gscore>  (1) 
-5.1238717269573142

>  <r_i_glide_gscore_strain>  (1) 
0.79116211422431348

>  <r_i_glide_hbond>  (1) 
-0.32000000000000001

>  <r_i_glide_ligand_efficiency>  (1) 
-0.10323545712258315

>  <r_i_glide_ligand_efficiency_ln>  (1) 
-0.82840596729363281

>  <r_i_glide_ligand_efficiency_sa>  (1) 
-0.34400344608853051

>  <r_i_glide_lipo>  (1) 
-2.7840993807541854

>  <r_i_glide_metal>  (1) 
-0

>  <r_i_glide_rewards>  (1) 
-1.4570187015409242

>  <r_lp_Energy>  (1) 
61.762789999999995

>  <r_lp_tautomer_probability>  (1) 
0.99980002999550088

>  <s_epik_cmdline>  (1) 
J2VwaWtfcHl0aG9uJywgJy1waHQnLCAnMS4wJywgJy1waCcsICc3LjQnLCAnLXRuJywgJzgnLCAnLW1hJywgJzUwMCcsICctaW1hZScsICc8aW5maWxlLm1hZT4nLCAnLW9tYWUnLCAnPG91dGZpbGUubWFlPic=

>  <s_epik_input>  (1) 
Tz1DKFtOSDJdKVtDQEBIXTFbQ0gyXVtDSDJdW0NIMl1bQ0BASF0oW0NIMl0xKVtDSDJdW0NASF0oW0NIMl1bQ0gzXSlDKD1PKU4oW0NIM10pQyg9TylbQ0BASF0oW0NAQEhdKFtDSDJdW0NIMl0yKVtDSDJdW0NIMl1bQ0gyXVtDSDNdKVtDSDJdYyhjMjMpW2NIXWMoW2NIXWMzRilbQ0gyXVtOSDJd

>  <s_glide_docking_method>  (1) 
confgen

>  <s_i_glide_gridfile>  (1) 
gpcr_5ht2c_6bqh_protein_autoprepared_prepared

>  <s_lp_Force_Field>  (1) 
S-OPLS

>  <s_lp_Variant>  (1) 
DiffSBDD_4-2

>  <s_m_source_file>  (1) 
generated_GPCR_5HT2C_ligand_DiffSBDD_2026-06-23_prepared.sdf

>  <GenAI_Model>  (1) 
DiffSBDD

>  <Protein>  (1) 
GPCR_5HT2C

$$$$
DiffSBDD_30
     RDKit          3D

  0  0  0  0  0  0  0  0  0  0999 V3000
M  V30 BEGIN CTAB
M  V30 COUNTS 75 78 0 0 1
M  V30 BEGIN ATOM
M  V30 1 C 42.032174 29.701431 68.059878 0 CFG=2
M  V30 2 N 41.899759 33.464902 64.991118 0 CFG=1 CHG=1
M  V30 3 C 39.143381 29.224632 58.945340 0
M  V30 4 O 43.651396 28.175201 67.211423 0
M  V30 5 C 41.852197 30.479142 69.389730 0
M  V30 6 C 39.389943 36.426660 64.114477 0 CFG=1
M  V30 7 N 40.683374 35.843947 63.741993 0
M  V30 8 C 41.979340 33.755024 63.514580 0 CFG=1
M  V30 9 O 41.249093 29.786712 65.766756 0
M  V30 10 C 40.055239 36.088246 66.582204 0
M  V30 11 C 42.236461 32.499082 62.655124 0
M  V30 12 C 36.887630 36.462792 61.932816 0
M  V30 13 O 38.302231 36.632298 61.933879 0
M  V30 14 C 40.863544 34.659901 62.894066 0 CFG=2
M  V30 15 C 41.374336 31.953889 66.840743 0 CFG=1
M  V30 16 C 39.464668 37.051116 65.535741 0
M  V30 17 C 40.830016 32.602340 65.536277 0
M  V30 18 C 43.482758 29.227244 67.863118 0
M  V30 19 O 41.027939 31.800858 62.441798 0
M  V30 20 O 41.295647 35.155806 61.647866 0
M  V30 21 C 43.141759 33.006701 65.644911 0
M  V30 22 O 41.247043 35.730006 66.421056 0 CHG=-1
M  V30 23 C 40.081271 32.561663 61.706396 0 CFG=2
M  V30 24 C 39.642503 33.793508 62.517753 0
M  V30 25 C 38.922964 31.645740 61.341031 0 CFG=2
M  V30 26 C 38.408648 27.484345 56.852563 0
M  V30 27 C 39.521131 27.863002 58.992874 0
M  V30 28 C 38.396717 29.706942 57.850553 0
M  V30 29 C 41.526584 30.418949 66.786394 0
M  V30 30 O 44.388611 29.924909 68.371712 0 CHG=-1
M  V30 31 C 39.550804 30.174977 60.059548 0 CFG=2
M  V30 32 C 42.705457 32.677824 67.057724 0
M  V30 33 C 38.032297 28.839063 56.808474 0
M  V30 34 C 39.151502 26.994837 57.944578 0
M  V30 35 O 39.300141 35.717292 67.505258 0
M  V30 36 C 38.784271 37.338202 63.069561 0
M  V30 37 C 39.034092 30.131891 61.480795 0
M  V30 38 O 38.966546 31.496007 59.902175 0
M  V30 39 H 41.427307 28.801114 68.137916 0
M  V30 40 H 42.580507 31.279275 69.515594 0
M  V30 41 H 40.871197 30.933981 69.470037 0
M  V30 42 H 41.967802 29.806865 70.240562 0
M  V30 43 H 38.594630 35.739039 64.164247 0
M  V30 44 H 41.296164 35.859207 64.562285 0
M  V30 45 H 42.844846 34.384501 63.486022 0
M  V30 46 H 42.926940 31.809284 63.129929 0
M  V30 47 H 42.673723 32.771945 61.691388 0
M  V30 48 H 36.585778 35.729902 61.186100 0
M  V30 49 H 36.499088 36.128274 62.897246 0
M  V30 50 H 36.413203 37.408875 61.687238 0
M  V30 51 H 40.694884 32.180360 67.659930 0
M  V30 52 H 40.044933 37.970235 65.541276 0
M  V30 53 H 38.464325 37.328725 65.868305 0
M  V30 54 H 40.044085 33.284761 65.813253 0
M  V30 55 H 40.431748 31.889303 64.818619 0
M  V30 56 H 41.123484 36.085496 61.638570 0
M  V30 57 H 43.527414 32.091332 65.191803 0
M  V30 58 H 43.940874 33.737994 65.631743 0
M  V30 59 H 40.546927 32.900513 60.780771 0
M  V30 60 H 39.133506 33.409023 63.381488 0
M  V30 61 H 38.911154 34.346586 61.932953 0
M  V30 62 H 37.948833 32.012894 61.668505 0
M  V30 63 H 38.125619 26.819631 56.049611 0
M  V30 64 H 40.092757 27.481695 59.828188 0
M  V30 65 H 38.101482 30.746131 57.809512 0
M  V30 66 H 40.639891 30.222558 60.107324 0
M  V30 67 H 43.470428 32.109054 67.579763 0
M  V30 68 H 42.539184 33.590872 67.630325 0
M  V30 69 H 37.460358 29.215080 55.973396 0
M  V30 70 H 39.440022 25.954058 57.975852 0
M  V30 71 H 37.921775 37.737747 63.600415 0
M  V30 72 H 39.479393 38.130899 62.794592 0
M  V30 73 H 39.712080 29.733139 62.236322 0
M  V30 74 H 38.045664 29.739103 61.550795 0
M  V30 75 H 41.716582 34.359052 65.451987 0
M  V30 END ATOM
M  V30 BEGIN BOND
M  V30 1 1 5 1
M  V30 2 1 7 6
M  V30 3 1 8 2
M  V30 4 1 11 8
M  V30 5 1 13 12
M  V30 6 1 14 7
M  V30 7 1 14 8
M  V30 8 1 16 6
M  V30 9 1 16 10
M  V30 10 1 17 2
M  V30 11 1 17 15
M  V30 12 1 18 1
M  V30 13 2 18 4
M  V30 14 1 19 11
M  V30 15 1 14 20 CFG=3
M  V30 16 1 21 2
M  V30 17 1 22 10
M  V30 18 1 23 19
M  V30 19 1 24 14
M  V30 20 1 24 23
M  V30 21 1 25 23
M  V30 22 1 27 3
M  V30 23 2 28 3
M  V30 24 1 29 1
M  V30 25 2 29 9
M  V30 26 1 29 15
M  V30 27 1 30 18
M  V30 28 1 31 3
M  V30 29 1 32 15
M  V30 30 1 32 21
M  V30 31 2 33 26
M  V30 32 1 33 28
M  V30 33 1 34 26
M  V30 34 2 34 27
M  V30 35 2 35 10
M  V30 36 1 36 6
M  V30 37 1 36 13
M  V30 38 1 37 25
M  V30 39 1 37 31
M  V30 40 1 38 25
M  V30 41 1 38 31
M  V30 42 1 1 39 CFG=1
M  V30 43 1 40 5
M  V30 44 1 41 5
M  V30 45 1 42 5
M  V30 46 1 6 43 CFG=1
M  V30 47 1 44 7
M  V30 48 1 8 45 CFG=1
M  V30 49 1 46 11
M  V30 50 1 47 11
M  V30 51 1 48 12
M  V30 52 1 49 12
M  V30 53 1 50 12
M  V30 54 1 15 51 CFG=1
M  V30 55 1 52 16
M  V30 56 1 53 16
M  V30 57 1 54 17
M  V30 58 1 55 17
M  V30 59 1 56 20
M  V30 60 1 57 21
M  V30 61 1 58 21
M  V30 62 1 23 59 CFG=3
M  V30 63 1 60 24
M  V30 64 1 61 24
M  V30 65 1 25 62 CFG=3
M  V30 66 1 63 26
M  V30 67 1 64 27
M  V30 68 1 65 28
M  V30 69 1 31 66 CFG=1
M  V30 70 1 67 32
M  V30 71 1 68 32
M  V30 72 1 69 33
M  V30 73 1 70 34
M  V30 74 1 71 36
M  V30 75 1 72 36
M  V30 76 1 73 37
M  V30 77 1 74 37
M  V30 78 1 2 75 CFG=1
M  V30 END BOND
M  V30 END CTAB
M  END
>  <i_epik_Tot_Q>  (1) 
-1

>  <i_epik_Tot_abs_Q>  (1) 
3

>  <i_i_glide_confnum>  (1) 
1216

>  <i_i_glide_lignum>  (1) 
66

>  <i_i_glide_posenum>  (1) 
359

>  <i_i_glide_rotatable_bonds>  (1) 
13

>  <i_lp_mmshare_version>  (1) 
72125

>  <i_m_source_file_index>  (1) 
31

>  <i_f3d_flags>  (1) 
0

>  <num_sample>  (1) 
50

>  <b_lp_Chiralities_Consistent>  (1) 
1

>  <r_epik_Charging_Adjusted_Penalty>  (1) 
0.42059132601078875

>  <r_epik_Ionization_Penalty>  (1) 
0.042345838263638087

>  <r_epik_Ionization_Penalty_Charging>  (1) 
0.028527830839106344

>  <r_epik_Ionization_Penalty_Neutral>  (1) 
0.013818007424531742

>  <r_epik_State_Penalty>  (1) 
0.39206349517168243

>  <r_glide_ring_energy>  (1) 
0

>  <r_i_docking_score>  (1) 
-3.7272158830185855

>  <r_i_glide_ecoul>  (1) 
2.0210380750246615

>  <r_i_glide_eff_state_penalty>  (1) 
0.39206349517168243

>  <r_i_glide_einternal>  (1) 
20.897331136793412

>  <r_i_glide_emodel>  (1) 
-16.423724241473209

>  <r_i_glide_emodel_strain>  (1) 
5.7332940033955992

>  <r_i_glide_energy>  (1) 
-29.221283380806614

>  <r_i_glide_erotb>  (1) 
0.65218633798694536

>  <r_i_glide_esite>  (1) 
0

>  <r_i_glide_evdw>  (1) 
-31.242321455831277

>  <r_i_glide_gscore>  (1) 
-4.1192793781902681

>  <r_i_glide_gscore_strain>  (1) 
0.43332350084889981

>  <r_i_glide_hbond>  (1) 
0

>  <r_i_glide_ligand_efficiency>  (1) 
-0.098084628500489088

>  <r_i_glide_ligand_efficiency_ln>  (1) 
-0.80369738796151846

>  <r_i_glide_ligand_efficiency_sa>  (1) 
-0.32975810880365708

>  <r_i_glide_lipo>  (1) 
-2.9476295979377647

>  <r_i_glide_metal>  (1) 
-0

>  <r_i_glide_rewards>  (1) 
-0.99819925755048411

>  <r_lp_Energy>  (1) 
36.442352

>  <r_lp_tautomer_probability>  (1) 
0.99999996000000102

>  <s_epik_cmdline>  (1) 
J2VwaWtfcHl0aG9uJywgJy1waHQnLCAnMS4wJywgJy1waCcsICc3LjQnLCAnLXRuJywgJzgnLCAnLW1hJywgJzUwMCcsICctaW1hZScsICc8aW5maWxlLm1hZT4nLCAnLW9tYWUnLCAnPG91dGZpbGUubWFlPic=

>  <s_epik_input>  (1) 
Tz1DKFtPSF0pW0NAQEhdKFtDSDNdKUMoPU8pW0NAQEhdKFtDSDJdW0NIMl0xKVtDSDJdTjFbQ0BIXShbQ0BdMihbT0hdKVtOSF1bQ0BASF0oW0NIMl1DKD1PKVtPSF0pW0NIMl1PW0NIM10pW0NIMl1PW0NASF0oW0NIMl0yKVtDQEBIXTNbQ0gyXVtDSF0oTzMpYzRbY0hdW2NIXVtjSF1bY0hdW2NIXTQ=

>  <s_glide_docking_method>  (1) 
confgen

>  <s_i_glide_gridfile>  (1) 
gpcr_5ht2c_6bqh_protein_autoprepared_prepared

>  <s_lp_Force_Field>  (1) 
S-OPLS

>  <s_lp_Variant>  (1) 
DiffSBDD_30-1

>  <s_m_source_file>  (1) 
generated_GPCR_5HT2C_ligand_DiffSBDD_2026-06-23_prepared.sdf

>  <GenAI_Model>  (1) 
DiffSBDD

>  <Protein>  (1) 
GPCR_5HT2C

$$$$
DiffSBDD_13
     RDKit          3D

  0  0  0  0  0  0  0  0  0  0999 V3000
M  V30 BEGIN CTAB
M  V30 COUNTS 81 82 0 0 1
M  V30 BEGIN ATOM
M  V30 1 N 38.048765 32.842059 56.863703 0
M  V30 2 C 37.508392 33.648701 60.495486 0 CFG=2
M  V30 3 O 39.646673 26.537985 53.106760 0
M  V30 4 C 36.057523 37.907625 61.880472 0
M  V30 5 C 40.045121 34.191261 60.043400 0
M  V30 6 C 35.854835 29.396828 59.022932 0
M  V30 7 C 36.653951 24.940228 57.134924 0
M  V30 8 C 38.477076 31.704305 59.382736 0
M  V30 9 C 39.937479 36.052490 63.762780 0
M  V30 10 O 36.933407 29.973796 59.735179 0
M  V30 11 C 37.996752 30.357092 58.889360 0 CFG=2
M  V30 12 N 37.489600 32.798396 59.270618 0 CFG=2 CHG=1
M  V30 13 O 37.760522 27.329432 54.196753 0
M  V30 14 C 38.836995 36.585005 64.776459 0
M  V30 15 C 38.151300 36.895288 62.514397 0
M  V30 16 C 38.894551 25.552751 56.604855 0 CFG=1
M  V30 17 C 37.315613 37.402281 61.511114 0
M  V30 18 C 36.121647 34.294537 60.665877 0
M  V30 19 C 39.440950 36.246640 62.252992 0 CFG=2
M  V30 20 C 38.836186 28.020074 58.411606 0
M  V30 21 C 40.031374 27.077412 58.372832 0
M  V30 22 C 37.467826 33.570682 57.986059 0
M  V30 23 C 38.762558 26.339533 54.183202 0
M  V30 24 C 39.599203 25.668651 57.968125 0
M  V30 25 O 39.096692 34.909029 61.897110 0
M  V30 26 C 38.704957 34.663124 60.562024 0 CFG=2
M  V30 27 C 34.982437 33.258400 60.637798 0
M  V30 28 C 36.501120 37.337412 64.167814 0
M  V30 29 F 35.245338 38.407163 60.968004 0
M  V30 30 O 37.541780 25.971117 56.733670 0
M  V30 31 C 37.784711 36.937773 63.799714 0
M  V30 32 C 39.574821 26.361302 55.480588 0
M  V30 33 C 35.638112 37.840336 63.207694 0
M  V30 34 O 38.046642 33.738136 55.749039 0
M  V30 35 C 39.156766 29.358897 59.037673 0
M  V30 36 H 39.020785 32.574256 56.919525 0
M  V30 37 H 37.603914 32.984868 61.355066 0
M  V30 38 H 40.290064 25.845555 53.109260 0
M  V30 39 H 40.042677 34.024377 58.971716 0
M  V30 40 H 40.796190 34.956014 60.233650 0
M  V30 41 H 40.387144 33.293483 60.559653 0
M  V30 42 H 36.162634 28.673670 58.265804 0
M  V30 43 H 35.239230 30.159738 58.555047 0
M  V30 44 H 35.246067 28.872708 59.748042 0
M  V30 45 H 35.645685 25.337916 57.214116 0
M  V30 46 H 36.627931 24.130379 56.408396 0
M  V30 47 H 36.918972 24.527415 58.106655 0
M  V30 48 H 39.285813 31.996288 58.759674 0
M  V30 49 H 38.866342 31.587005 60.394413 0
M  V30 50 H 40.155975 35.002210 63.958369 0
M  V30 51 H 40.880283 36.571728 63.921273 0
M  V30 52 H 37.686967 30.431415 57.845311 0
M  V30 53 H 37.214125 27.196890 53.436440 0
M  V30 54 H 39.215315 37.545606 65.127508 0
M  V30 55 H 38.564465 36.124381 65.712253 0
M  V30 56 H 38.908849 24.505543 56.300541 0
M  V30 57 H 37.622586 37.404439 60.477611 0
M  V30 58 H 36.084078 34.828318 61.615245 0
M  V30 59 H 35.951309 35.037329 59.885836 0
M  V30 60 H 40.133438 36.778557 61.598667 0
M  V30 61 H 38.045310 27.538544 58.975594 0
M  V30 62 H 38.455775 28.190136 57.406800 0
M  V30 63 H 40.824602 27.456016 57.728675 0
M  V30 64 H 40.456123 27.040805 59.369465 0
M  V30 65 H 37.951908 34.537466 58.081506 0
M  V30 66 H 36.430634 33.800692 57.759631 0
M  V30 67 H 38.276371 25.364389 54.142782 0
M  V30 68 H 40.453191 24.997361 57.990743 0
M  V30 69 H 38.916444 25.338650 58.745555 0
M  V30 70 H 38.445658 35.568008 60.028781 0
M  V30 71 H 34.022679 33.733897 60.798662 0
M  V30 72 H 34.905774 32.753746 59.674819 0
M  V30 73 H 35.105061 32.498031 61.408613 0
M  V30 74 H 36.203654 37.332417 65.208158 0
M  V30 75 H 39.769640 27.398147 55.746745 0
M  V30 76 H 40.555334 25.913200 55.317376 0
M  V30 77 H 34.657745 38.198619 63.488180 0
M  V30 78 H 37.292626 33.425012 55.260547 0
M  V30 79 H 40.054815 29.738838 58.550185 0
M  V30 80 H 39.409553 29.222293 60.090160 0
M  V30 81 H 36.598492 32.318721 59.285504 0
M  V30 END ATOM
M  V30 BEGIN BOND
M  V30 1 1 10 6
M  V30 2 1 11 8
M  V30 3 1 11 10
M  V30 4 1 12 2
M  V30 5 1 12 8
M  V30 6 1 14 9
M  V30 7 2 17 4
M  V30 8 1 17 15
M  V30 9 1 18 2
M  V30 10 1 19 9
M  V30 11 1 19 15
M  V30 12 1 21 20
M  V30 13 1 22 1
M  V30 14 1 22 12
M  V30 15 1 23 3
M  V30 16 1 23 13
M  V30 17 1 24 16
M  V30 18 1 24 21
M  V30 19 1 25 19
M  V30 20 1 26 2
M  V30 21 1 26 5
M  V30 22 1 26 25
M  V30 23 1 27 18
M  V30 24 1 29 4
M  V30 25 1 30 7
M  V30 26 1 30 16
M  V30 27 1 31 14
M  V30 28 2 31 15
M  V30 29 1 31 28
M  V30 30 1 32 16
M  V30 31 1 32 23
M  V30 32 1 33 4
M  V30 33 2 33 28
M  V30 34 1 34 1
M  V30 35 1 35 11
M  V30 36 1 35 20
M  V30 37 1 36 1
M  V30 38 1 2 37 CFG=1
M  V30 39 1 38 3
M  V30 40 1 39 5
M  V30 41 1 40 5
M  V30 42 1 41 5
M  V30 43 1 42 6
M  V30 44 1 43 6
M  V30 45 1 44 6
M  V30 46 1 45 7
M  V30 47 1 46 7
M  V30 48 1 47 7
M  V30 49 1 48 8
M  V30 50 1 49 8
M  V30 51 1 50 9
M  V30 52 1 51 9
M  V30 53 1 11 52 CFG=3
M  V30 54 1 53 13
M  V30 55 1 54 14
M  V30 56 1 55 14
M  V30 57 1 16 56 CFG=3
M  V30 58 1 57 17
M  V30 59 1 58 18
M  V30 60 1 59 18
M  V30 61 1 19 60 CFG=3
M  V30 62 1 61 20
M  V30 63 1 62 20
M  V30 64 1 63 21
M  V30 65 1 64 21
M  V30 66 1 65 22
M  V30 67 1 66 22
M  V30 68 1 67 23
M  V30 69 1 68 24
M  V30 70 1 69 24
M  V30 71 1 26 70 CFG=3
M  V30 72 1 71 27
M  V30 73 1 72 27
M  V30 74 1 73 27
M  V30 75 1 74 28
M  V30 76 1 75 32
M  V30 77 1 76 32
M  V30 78 1 77 33
M  V30 79 1 78 34
M  V30 80 1 79 35
M  V30 81 1 80 35
M  V30 82 1 12 81 CFG=1
M  V30 END BOND
M  V30 END CTAB
M  END
>  <i_epik_Tot_Q>  (1) 
1

>  <i_epik_Tot_abs_Q>  (1) 
1

>  <i_i_glide_confnum>  (1) 
784

>  <i_i_glide_lignum>  (1) 
25

>  <i_i_glide_posenum>  (1) 
104

>  <i_i_glide_rotatable_bonds>  (1) 
21

>  <i_lp_mmshare_version>  (1) 
72125

>  <i_m_source_file_index>  (1) 
14

>  <i_f3d_flags>  (1) 
0

>  <num_sample>  (1) 
50

>  <b_lp_Chiralities_Consistent>  (1) 
1

>  <r_epik_Charging_Adjusted_Penalty>  (1) 
0.45110583801900384

>  <r_epik_Ionization_Penalty>  (1) 
0.22670498176529164

>  <r_epik_Ionization_Penalty_Charging>  (1) 
0.22555291900950195

>  <r_epik_Ionization_Penalty_Neutral>  (1) 
0.001152062755789702

>  <r_epik_State_Penalty>  (1) 
0.22555291900950192

>  <r_glide_ring_energy>  (1) 
0

>  <r_i_docking_score>  (1) 
-3.6264115698114789

>  <r_i_glide_ecoul>  (1) 
-2.4865841457471927

>  <r_i_glide_eff_state_penalty>  (1) 
0.22555291900950192

>  <r_i_glide_einternal>  (1) 
12.352339159321334

>  <r_i_glide_emodel>  (1) 
-14.709297586631749

>  <r_i_glide_emodel_strain>  (1) 
9.5132534167337681

>  <r_i_glide_energy>  (1) 
-18.613431254626228

>  <r_i_glide_erotb>  (1) 
1.1363863637419909

>  <r_i_glide_esite>  (1) 
-0.3038258067418555

>  <r_i_glide_evdw>  (1) 
-16.126847108879037

>  <r_i_glide_gscore>  (1) 
-3.8519644888209807

>  <r_i_glide_gscore_strain>  (1) 
1.378313354183442

>  <r_i_glide_hbond>  (1) 
-0.12764949088683517

>  <r_i_glide_ligand_efficiency>  (1) 
-0.10361175913747082

>  <r_i_glide_ligand_efficiency_ln>  (1) 
-0.79607782344205558

>  <r_i_glide_ligand_efficiency_sa>  (1) 
-0.33892093465395562

>  <r_i_glide_lipo>  (1) 
-4.0255711524172009

>  <r_i_glide_metal>  (1) 
-0

>  <r_i_glide_rewards>  (1) 
-0.73028777939449041

>  <r_lp_Energy>  (1) 
16.295462000000001

>  <s_epik_Chemistry_Notes>  (1) 
This compound contains an acetal/aminal-like group ( X-CH(R)-Y where X, Y are N, S, or O) that may be acid/base labile, releasing an aldehyde. This compound has a N-S or N-O group and may undergo hydrolysis at high or low pH.

>  <s_epik_cmdline>  (1) 
J2VwaWtfcHl0aG9uJywgJy1waHQnLCAnMS4wJywgJy1waCcsICc3LjQnLCAnLXRuJywgJzgnLCAnLW1hJywgJzUwMCcsICctaW1hZScsICc8aW5maWxlLm1hZT4nLCAnLW9tYWUnLCAnPG91dGZpbGUubWFlPic=

>  <s_epik_input>  (1) 
W09IXVtDSF0oW09IXSlbQ0gyXVtDQEhdKE9bQ0gzXSlbQ0gyXVtDSDJdW0NIMl1bQ0gyXVtDQEBIXShPW0NIM10pW0NIMl1OKFtDSDJdW05IXVtPSF0pW0NASF0oW0NIMl1bQ0gzXSlbQ0BIXShbQ0gzXSlPW0NAQEhdMVtDSDJdW0NIMl1jKGMxMilbY0hdW2NIXWMoRilbY0hdMg==

>  <s_glide_docking_method>  (1) 
confgen

>  <s_i_glide_gridfile>  (1) 
gpcr_5ht2c_6bqh_protein_autoprepared_prepared

>  <s_lp_Force_Field>  (1) 
S-OPLS

>  <s_lp_Variant>  (1) 
DiffSBDD_13-2

>  <s_m_source_file>  (1) 
generated_GPCR_5HT2C_ligand_DiffSBDD_2026-06-23_prepared.sdf

>  <GenAI_Model>  (1) 
DiffSBDD

>  <Protein>  (1) 
GPCR_5HT2C

$$$$
DiffSBDD_31
     RDKit          3D

  0  0  0  0  0  0  0  0  0  0999 V3000
M  V30 BEGIN CTAB
M  V30 COUNTS 51 52 0 0 1
M  V30 BEGIN ATOM
M  V30 1 C 39.371805 27.108940 57.833779 0
M  V30 2 C 38.988276 26.316967 54.181144 0
M  V30 3 C 37.763710 32.465232 59.238849 0
M  V30 4 C 38.627332 31.785050 57.005885 0
M  V30 5 C 40.269555 30.328870 51.249602 0
M  V30 6 N 38.662064 28.307433 57.402194 0
M  V30 7 C 36.466277 32.598237 60.067034 0
M  V30 8 N 38.718394 29.348299 58.488307 0
M  V30 9 N 37.645141 31.528630 58.091797 0 CFG=1 CHG=1
M  V30 10 C 39.311341 28.317288 52.558550 0 CFG=1
M  V30 11 O 35.469986 33.314250 59.367748 0
M  V30 12 C 38.193294 28.011794 51.557591 0
M  V30 13 C 39.533171 29.460036 57.277747 0 CFG=2
M  V30 14 C 37.459797 30.095247 58.461916 0
M  V30 15 C 39.884614 26.314826 56.617021 0
M  V30 16 C 39.691384 29.814072 52.575447 0
M  V30 17 C 38.945030 27.841696 53.981124 0
M  V30 18 C 39.006792 30.490345 56.285308 0
M  V30 19 C 38.773190 25.867353 55.638678 0
M  V30 20 H 40.204106 27.346070 58.499473 0
M  V30 21 H 38.681854 26.489993 58.408519 0
M  V30 22 H 39.937544 25.920771 53.817837 0
M  V30 23 H 38.201439 25.869510 53.575644 0
M  V30 24 H 38.579588 32.125915 59.878528 0
M  V30 25 H 38.048487 33.455296 58.877177 0
M  V30 26 H 38.195376 32.500204 56.304229 0
M  V30 27 H 39.528808 32.250636 57.400928 0
M  V30 28 H 40.656430 31.337916 51.371007 0
M  V30 29 H 39.521047 30.361516 50.458295 0
M  V30 30 H 41.096720 29.704786 50.910354 0
M  V30 31 H 36.063503 31.639372 60.388920 0
M  V30 32 H 36.682127 33.157417 60.978507 0
M  V30 33 H 40.185978 27.762326 52.216669 0
M  V30 34 H 35.245134 32.858156 58.558519 0
M  V30 35 H 37.248410 28.468121 51.852841 0
M  V30 36 H 38.045191 26.937828 51.472185 0
M  V30 37 H 38.445139 28.364502 50.559338 0
M  V30 38 H 40.609054 29.333581 57.365724 0
M  V30 39 H 36.756902 29.658242 57.748861 0
M  V30 40 H 36.985381 29.989561 59.435319 0
M  V30 41 H 40.655831 26.887125 56.101627 0
M  V30 42 H 40.401184 25.426691 56.982345 0
M  V30 43 H 40.444520 29.989443 53.340895 0
M  V30 44 H 38.845167 30.420144 52.891657 0
M  V30 45 H 39.644737 28.293450 54.678250 0
M  V30 46 H 37.961427 28.221382 54.260063 0
M  V30 47 H 39.778425 30.689421 55.541937 0
M  V30 48 H 38.144420 30.100560 55.741420 0
M  V30 49 H 37.794076 26.208405 55.976510 0
M  V30 50 H 38.713738 24.778548 55.657560 0
M  V30 51 H 36.738132 31.737866 57.653566 0
M  V30 END ATOM
M  V30 BEGIN BOND
M  V30 1 1 6 1
M  V30 2 1 7 3
M  V30 3 1 8 6
M  V30 4 1 9 3
M  V30 5 1 9 4
M  V30 6 1 11 7
M  V30 7 1 12 10
M  V30 8 1 13 6
M  V30 9 1 13 8
M  V30 10 1 14 8
M  V30 11 1 14 9
M  V30 12 1 15 1
M  V30 13 1 16 5
M  V30 14 1 16 10
M  V30 15 1 17 2
M  V30 16 1 17 10
M  V30 17 1 18 4
M  V30 18 1 18 13
M  V30 19 1 19 2
M  V30 20 1 19 15
M  V30 21 1 20 1
M  V30 22 1 21 1
M  V30 23 1 22 2
M  V30 24 1 23 2
M  V30 25 1 24 3
M  V30 26 1 25 3
M  V30 27 1 26 4
M  V30 28 1 27 4
M  V30 29 1 28 5
M  V30 30 1 29 5
M  V30 31 1 30 5
M  V30 32 1 31 7
M  V30 33 1 32 7
M  V30 34 1 10 33 CFG=3
M  V30 35 1 34 11
M  V30 36 1 35 12
M  V30 37 1 36 12
M  V30 38 1 37 12
M  V30 39 1 13 38 CFG=1
M  V30 40 1 39 14
M  V30 41 1 40 14
M  V30 42 1 41 15
M  V30 43 1 42 15
M  V30 44 1 43 16
M  V30 45 1 44 16
M  V30 46 1 45 17
M  V30 47 1 46 17
M  V30 48 1 47 18
M  V30 49 1 48 18
M  V30 50 1 49 19
M  V30 51 1 50 19
M  V30 52 1 9 51 CFG=3
M  V30 END BOND
M  V30 END CTAB
M  END
>  <i_epik_Tot_Q>  (1) 
1

>  <i_epik_Tot_abs_Q>  (1) 
1

>  <i_i_glide_confnum>  (1) 
234

>  <i_i_glide_lignum>  (1) 
69

>  <i_i_glide_posenum>  (1) 
29

>  <i_i_glide_rotatable_bonds>  (1) 
10

>  <i_lp_mmshare_version>  (1) 
72125

>  <i_m_source_file_index>  (1) 
32

>  <i_f3d_flags>  (1) 
0

>  <num_sample>  (1) 
50

>  <b_lp_Chiralities_Consistent>  (1) 
1

>  <r_epik_Charging_Adjusted_Penalty>  (1) 
0.062925192649716036

>  <r_epik_Ionization_Penalty>  (1) 
0.062927217042738556

>  <r_epik_Ionization_Penalty_Charging>  (1) 
0.062925192649716036

>  <r_epik_Ionization_Penalty_Neutral>  (1) 
2.0243930225180512e-06

>  <r_epik_State_Penalty>  (1) 
-0

>  <r_glide_ring_energy>  (1) 
0

>  <r_i_docking_score>  (1) 
-3.5976987195624872

>  <r_i_glide_ecoul>  (1) 
-6.5869511835375327

>  <r_i_glide_eff_state_penalty>  (1) 
-0

>  <r_i_glide_einternal>  (1) 
10.206047711920899

>  <r_i_glide_emodel>  (1) 
-38.141414051969271

>  <r_i_glide_emodel_strain>  (1) 
0.0010235484967253683

>  <r_i_glide_energy>  (1) 
-33.389981036980778

>  <r_i_glide_erotb>  (1) 
3.9128418167227688

>  <r_i_glide_esite>  (1) 
-0.1658975333391953

>  <r_i_glide_evdw>  (1) 
-26.803029853443245

>  <r_i_glide_gscore>  (1) 
-3.5976987195624872

>  <r_i_glide_gscore_strain>  (1) 
0

>  <r_i_glide_hbond>  (1) 
-0.35999999999999999

>  <r_i_glide_ligand_efficiency>  (1) 
-0.18935256418749932

>  <r_i_glide_ligand_efficiency_ln>  (1) 
-0.91209389689247311

>  <r_i_glide_ligand_efficiency_sa>  (1) 
-0.50526869446765121

>  <r_i_glide_lipo>  (1) 
-2.3261132283757133

>  <r_i_glide_metal>  (1) 
-0

>  <r_i_glide_rewards>  (1) 
-2.3303356043675558

>  <r_lp_Energy>  (1) 
23.34319

>  <r_lp_tautomer_probability>  (1) 
1

>  <s_epik_Chemistry_Notes>  (1) 
This compound contains an acetal/aminal-like group ( X-CH(R)-Y where X, Y are N, S, or O) that may be acid/base labile, releasing an aldehyde.

>  <s_epik_cmdline>  (1) 
J2VwaWtfcHl0aG9uJywgJy1waHQnLCAnMS4wJywgJy1waCcsICc3LjQnLCAnLXRuJywgJzgnLCAnLW1hJywgJzUwMCcsICctaW1hZScsICc8aW5maWxlLm1hZT4nLCAnLW9tYWUnLCAnPG91dGZpbGUubWFlPic=

>  <s_epik_input>  (1) 
W0NIM11bQ0gyXVtDQEhdKFtDSDNdKVtDSDJdW0NIMl1bQ0gyXVtDSDJdW0NIMl1OMVtDQEhdKE4xMilbQ0gyXVtDSDJdTihbQ0gyXTIpW0NIMl1bQ0gyXVtPSF0=

>  <s_glide_docking_method>  (1) 
confgen

>  <s_i_glide_gridfile>  (1) 
gpcr_5ht2c_6bqh_protein_autoprepared_prepared

>  <s_lp_Force_Field>  (1) 
S-OPLS

>  <s_lp_Variant>  (1) 
DiffSBDD_31-1

>  <s_m_source_file>  (1) 
generated_GPCR_5HT2C_ligand_DiffSBDD_2026-06-23_prepared.sdf

>  <GenAI_Model>  (1) 
DiffSBDD

>  <Protein>  (1) 
GPCR_5HT2C

$$$$
DiffSBDD_13
     RDKit          3D

  0  0  0  0  0  0  0  0  0  0999 V3000
M  V30 BEGIN CTAB
M  V30 COUNTS 81 82 0 0 1
M  V30 BEGIN ATOM
M  V30 1 N 38.777945 32.971958 55.855287 0
M  V30 2 C 39.764777 30.142085 55.824543 0 CFG=2
M  V30 3 O 36.045967 39.398571 61.767656 0
M  V30 4 C 39.493075 26.304696 58.127094 0
M  V30 5 C 37.645158 28.668378 55.859117 0
M  V30 6 C 39.302392 30.916309 61.862517 0
M  V30 7 C 39.624969 35.935908 61.587328 0
M  V30 8 C 39.069195 30.166174 58.266063 0
M  V30 9 C 38.450103 26.338223 53.586106 0
M  V30 10 O 39.253958 30.237608 60.617438 0
M  V30 11 C 38.680041 30.966386 59.535062 0 CFG=2
M  V30 12 N 39.241514 30.943599 56.982956 0 CFG=2 CHG=1
M  V30 13 O 38.241313 39.222210 60.967747 0
M  V30 14 C 37.691284 25.199865 54.428947 0
M  V30 15 C 39.325064 26.377130 55.727210 0
M  V30 16 C 37.295787 36.023399 61.047377 0 CFG=1
M  V30 17 C 39.964013 26.782163 56.900179 0
M  V30 18 C 40.651061 30.937830 54.824687 0
M  V30 19 C 39.650086 26.938517 54.414267 0 CFG=2
M  V30 20 C 36.520628 32.241038 60.444407 0
M  V30 21 C 37.318496 33.551798 60.343596 0
M  V30 22 C 38.177901 31.913853 56.640162 0
M  V30 23 C 37.134362 38.537414 61.515658 0
M  V30 24 C 36.482606 34.827331 60.511373 0
M  V30 25 O 39.645138 28.362114 54.358893 0
M  V30 26 C 38.774775 29.255947 55.066954 0 CFG=2
M  V30 27 C 40.105026 31.127750 53.379839 0
M  V30 28 C 37.826165 24.954309 56.949169 0
M  V30 29 F 40.034417 26.764309 59.270000 0
M  V30 30 O 38.635138 35.969485 60.568839 0
M  V30 31 C 38.296252 25.497131 55.745890 0
M  V30 32 C 36.724499 37.382035 60.591120 0
M  V30 33 C 38.423816 25.369233 58.157490 0
M  V30 34 O 38.045187 34.137754 56.166089 0
M  V30 35 C 37.130487 31.032184 59.699719 0
M  V30 36 H 39.713433 33.253156 56.116926 0
M  V30 37 H 40.444751 29.454316 56.307186 0
M  V30 38 H 35.749919 39.731188 60.925881 0
M  V30 39 H 37.863685 28.134947 56.766408 0
M  V30 40 H 37.245133 27.916865 55.214276 0
M  V30 41 H 36.862030 29.396071 56.071209 0
M  V30 42 H 39.880913 30.331839 62.576713 0
M  V30 43 H 39.782349 31.890594 61.769823 0
M  V30 44 H 38.309088 31.048770 62.286388 0
M  V30 45 H 40.614467 35.886524 61.132306 0
M  V30 46 H 39.578802 36.834762 62.203569 0
M  V30 47 H 39.507378 35.063979 62.231534 0
M  V30 48 H 38.338912 29.375243 58.207270 0
M  V30 49 H 40.022010 29.669958 58.460673 0
M  V30 50 H 37.715375 27.115051 53.382999 0
M  V30 51 H 38.792423 26.137884 52.577981 0
M  V30 52 H 39.163256 31.940752 59.480739 0
M  V30 53 H 38.885359 38.579824 60.708778 0
M  V30 54 H 37.949580 24.177634 54.167972 0
M  V30 55 H 36.612291 25.316329 54.428650 0
M  V30 56 H 37.270247 35.946262 62.137209 0
M  V30 57 H 40.770810 27.493101 56.867370 0
M  V30 58 H 40.914934 31.884841 55.276759 0
M  V30 59 H 41.612691 30.448796 54.745066 0
M  V30 60 H 40.608168 26.536841 54.079767 0
M  V30 61 H 35.514333 32.395719 60.053556 0
M  V30 62 H 36.379554 31.999988 61.497736 0
M  V30 63 H 38.108144 33.517810 61.093590 0
M  V30 64 H 37.810241 33.634232 59.375792 0
M  V30 65 H 37.760229 32.352475 57.541245 0
M  V30 66 H 37.354764 31.466603 56.086588 0
M  V30 67 H 37.407696 38.137333 62.489775 0
M  V30 68 H 36.036086 35.073644 59.547365 0
M  V30 69 H 35.651873 34.634986 61.193689 0
M  V30 70 H 38.233942 29.838025 54.323166 0
M  V30 71 H 40.841997 31.568786 52.717448 0
M  V30 72 H 39.868579 30.196301 52.871067 0
M  V30 73 H 39.210947 31.749610 53.366496 0
M  V30 74 H 36.998674 24.256816 56.954129 0
M  V30 75 H 37.000516 37.581736 59.556124 0
M  V30 76 H 35.645151 37.337910 60.565785 0
M  V30 77 H 38.055324 24.990115 59.095003 0
M  V30 78 H 37.540590 34.276641 55.374415 0
M  V30 79 H 36.666571 31.002849 58.715851 0
M  V30 80 H 36.776182 30.108866 60.161924 0
M  V30 81 H 40.017955 31.543400 57.217314 0
M  V30 END ATOM
M  V30 BEGIN BOND
M  V30 1 1 10 6
M  V30 2 1 11 8
M  V30 3 1 11 10
M  V30 4 1 12 2
M  V30 5 1 12 8
M  V30 6 1 14 9
M  V30 7 2 17 4
M  V30 8 1 17 15
M  V30 9 1 18 2
M  V30 10 1 19 9
M  V30 11 1 19 15
M  V30 12 1 21 20
M  V30 13 1 22 1
M  V30 14 1 22 12
M  V30 15 1 23 3
M  V30 16 1 23 13
M  V30 17 1 24 16
M  V30 18 1 24 21
M  V30 19 1 25 19
M  V30 20 1 26 2
M  V30 21 1 26 5
M  V30 22 1 26 25
M  V30 23 1 27 18
M  V30 24 1 29 4
M  V30 25 1 30 7
M  V30 26 1 30 16
M  V30 27 1 31 14
M  V30 28 2 31 15
M  V30 29 1 31 28
M  V30 30 1 32 16
M  V30 31 1 32 23
M  V30 32 1 33 4
M  V30 33 2 33 28
M  V30 34 1 34 1
M  V30 35 1 35 11
M  V30 36 1 35 20
M  V30 37 1 36 1
M  V30 38 1 2 37 CFG=1
M  V30 39 1 38 3
M  V30 40 1 39 5
M  V30 41 1 40 5
M  V30 42 1 41 5
M  V30 43 1 42 6
M  V30 44 1 43 6
M  V30 45 1 44 6
M  V30 46 1 45 7
M  V30 47 1 46 7
M  V30 48 1 47 7
M  V30 49 1 48 8
M  V30 50 1 49 8
M  V30 51 1 50 9
M  V30 52 1 51 9
M  V30 53 1 11 52 CFG=3
M  V30 54 1 53 13
M  V30 55 1 54 14
M  V30 56 1 55 14
M  V30 57 1 16 56 CFG=1
M  V30 58 1 57 17
M  V30 59 1 58 18
M  V30 60 1 59 18
M  V30 61 1 19 60 CFG=3
M  V30 62 1 61 20
M  V30 63 1 62 20
M  V30 64 1 63 21
M  V30 65 1 64 21
M  V30 66 1 65 22
M  V30 67 1 66 22
M  V30 68 1 67 23
M  V30 69 1 68 24
M  V30 70 1 69 24
M  V30 71 1 26 70 CFG=3
M  V30 72 1 71 27
M  V30 73 1 72 27
M  V30 74 1 73 27
M  V30 75 1 74 28
M  V30 76 1 75 32
M  V30 77 1 76 32
M  V30 78 1 77 33
M  V30 79 1 78 34
M  V30 80 1 79 35
M  V30 81 1 80 35
M  V30 82 1 12 81 CFG=1
M  V30 END BOND
M  V30 END CTAB
M  END
>  <i_epik_Tot_Q>  (1) 
1

>  <i_epik_Tot_abs_Q>  (1) 
1

>  <i_i_glide_confnum>  (1) 
7497

>  <i_i_glide_lignum>  (1) 
25

>  <i_i_glide_posenum>  (1) 
88

>  <i_i_glide_rotatable_bonds>  (1) 
21

>  <i_lp_mmshare_version>  (1) 
72125

>  <i_m_source_file_index>  (1) 
14

>  <i_f3d_flags>  (1) 
0

>  <num_sample>  (1) 
50

>  <b_lp_Chiralities_Consistent>  (1) 
1

>  <r_epik_Charging_Adjusted_Penalty>  (1) 
0.45110583801900384

>  <r_epik_Ionization_Penalty>  (1) 
0.22670498176529164

>  <r_epik_Ionization_Penalty_Charging>  (1) 
0.22555291900950195

>  <r_epik_Ionization_Penalty_Neutral>  (1) 
0.001152062755789702

>  <r_epik_State_Penalty>  (1) 
0.22555291900950192

>  <r_glide_ring_energy>  (1) 
0

>  <r_i_docking_score>  (1) 
-3.487255403358736

>  <r_i_glide_ecoul>  (1) 
-4.2809401628877106

>  <r_i_glide_eff_state_penalty>  (1) 
0.22555291900950192

>  <r_i_glide_einternal>  (1) 
20.422674418166821

>  <r_i_glide_emodel>  (1) 
-13.616348237516249

>  <r_i_glide_emodel_strain>  (1) 
11.412163530513922

>  <r_i_glide_energy>  (1) 
-23.880315308776463

>  <r_i_glide_erotb>  (1) 
1.1363863637419909

>  <r_i_glide_esite>  (1) 
-0.17605336274924438

>  <r_i_glide_evdw>  (1) 
-19.599375145888754

>  <r_i_glide_gscore>  (1) 
-3.7128083223682378

>  <r_i_glide_gscore_strain>  (1) 
1.8530408826284805

>  <r_i_glide_hbond>  (1) 
-0.32736721097534499

>  <r_i_glide_ligand_efficiency>  (1) 
-0.099635868667392449

>  <r_i_glide_ligand_efficiency_ln>  (1) 
-0.76552995650096289

>  <r_i_glide_ligand_efficiency_sa>  (1) 
-0.32591553328428241

>  <r_i_glide_lipo>  (1) 
-3.9196907299494566

>  <r_i_glide_metal>  (1) 
-0

>  <r_i_glide_rewards>  (1) 
-0.65701448333706947

>  <r_lp_Energy>  (1) 
16.295462000000001

>  <s_epik_Chemistry_Notes>  (1) 
This compound contains an acetal/aminal-like group ( X-CH(R)-Y where X, Y are N, S, or O) that may be acid/base labile, releasing an aldehyde. This compound has a N-S or N-O group and may undergo hydrolysis at high or low pH.

>  <s_epik_cmdline>  (1) 
J2VwaWtfcHl0aG9uJywgJy1waHQnLCAnMS4wJywgJy1waCcsICc3LjQnLCAnLXRuJywgJzgnLCAnLW1hJywgJzUwMCcsICctaW1hZScsICc8aW5maWxlLm1hZT4nLCAnLW9tYWUnLCAnPG91dGZpbGUubWFlPic=

>  <s_epik_input>  (1) 
W09IXVtDSF0oW09IXSlbQ0gyXVtDQEhdKE9bQ0gzXSlbQ0gyXVtDSDJdW0NIMl1bQ0gyXVtDQEBIXShPW0NIM10pW0NIMl1OKFtDSDJdW05IXVtPSF0pW0NASF0oW0NIMl1bQ0gzXSlbQ0BIXShbQ0gzXSlPW0NAQEhdMVtDSDJdW0NIMl1jKGMxMilbY0hdW2NIXWMoRilbY0hdMg==

>  <s_glide_docking_method>  (1) 
confgen

>  <s_i_glide_gridfile>  (1) 
gpcr_5ht2c_6bqh_protein_autoprepared_prepared

>  <s_lp_Force_Field>  (1) 
S-OPLS

>  <s_lp_Variant>  (1) 
DiffSBDD_13-2

>  <s_m_source_file>  (1) 
generated_GPCR_5HT2C_ligand_DiffSBDD_2026-06-23_prepared.sdf

>  <GenAI_Model>  (1) 
DiffSBDD

>  <Protein>  (1) 
GPCR_5HT2C

$$$$
DiffSBDD_13
     RDKit          3D

  0  0  0  0  0  0  0  0  0  0999 V3000
M  V30 BEGIN CTAB
M  V30 COUNTS 81 82 0 0 1
M  V30 BEGIN ATOM
M  V30 1 N 37.640895 30.537914 60.818232 0
M  V30 2 C 36.157953 32.964214 59.924884 0 CFG=2
M  V30 3 O 39.539112 31.661162 49.442771 0
M  V30 4 C 40.982120 30.443380 63.221510 0
M  V30 5 C 37.778815 34.939587 59.697864 0
M  V30 6 C 38.817658 28.836330 57.339155 0
M  V30 7 C 39.504509 27.295224 50.552375 0
M  V30 8 C 37.969135 32.220680 58.244019 0
M  V30 9 C 39.788979 34.834942 62.187288 0
M  V30 10 O 39.105611 30.175232 57.734363 0
M  V30 11 C 38.313909 31.200874 57.140245 0 CFG=2
M  V30 12 N 36.744901 31.890431 59.033512 0 CFG=1 CHG=1
M  V30 13 O 40.839120 29.737979 49.367674 0
M  V30 14 C 41.318058 34.522058 62.008158 0
M  V30 15 C 40.038797 32.573041 62.548210 0
M  V30 16 C 39.842889 29.070388 52.233368 0 CFG=1
M  V30 17 C 39.850727 31.240682 62.968590 0
M  V30 18 C 35.058041 33.789581 59.212960 0
M  V30 19 C 38.941631 33.487645 62.271994 0 CFG=2
M  V30 20 C 39.647318 30.917832 54.929536 0
M  V30 21 C 38.493123 30.223128 54.196913 0
M  V30 22 C 36.743487 30.550680 59.676401 0
M  V30 23 C 40.305145 30.729640 50.180593 0
M  V30 24 C 38.888846 28.956276 53.436552 0
M  V30 25 O 38.236741 33.076293 61.121184 0
M  V30 26 C 37.181922 33.888032 60.630865 0 CFG=2
M  V30 27 C 33.650406 33.208120 59.347855 0
M  V30 28 C 42.393882 32.333862 62.622428 0
M  V30 29 F 40.840112 29.160669 63.625981 0
M  V30 30 O 39.796523 27.698615 51.867811 0
M  V30 31 C 41.263182 33.093051 62.398594 0
M  V30 32 C 39.379975 30.133214 51.241102 0
M  V30 33 C 42.266069 30.993868 63.047044 0
M  V30 34 O 38.788592 29.728621 60.467465 0
M  V30 35 C 39.140439 31.875522 56.018318 0
M  V30 36 H 38.059490 31.454351 60.973540 0
M  V30 37 H 35.643929 32.456218 60.743102 0
M  V30 38 H 38.759597 31.225679 49.118159 0
M  V30 39 H 37.183796 35.142520 58.807663 0
M  V30 40 H 37.897003 35.904828 60.185415 0
M  V30 41 H 38.746219 34.546180 59.370085 0
M  V30 42 H 39.279893 28.149657 58.049248 0
M  V30 43 H 37.748941 28.619945 57.314053 0
M  V30 44 H 39.229403 28.593561 56.364749 0
M  V30 45 H 39.004542 26.333581 50.586982 0
M  V30 46 H 38.845190 27.939113 49.979738 0
M  V30 47 H 40.445095 27.176910 50.025533 0
M  V30 48 H 37.762471 33.166365 57.746297 0
M  V30 49 H 38.841497 32.360064 58.879926 0
M  V30 50 H 39.459290 35.593954 61.493473 0
M  V30 51 H 39.688399 35.311678 63.165072 0
M  V30 52 H 37.374683 30.812668 56.750627 0
M  V30 53 H 40.130311 29.194593 49.057908 0
M  V30 54 H 41.934575 35.115610 62.685735 0
M  V30 55 H 41.652073 34.656079 60.981627 0
M  V30 56 H 40.844062 29.344373 52.530100 0
M  V30 57 H 38.859133 30.839570 63.102356 0
M  V30 58 H 35.013473 34.794908 59.630597 0
M  V30 59 H 35.315651 33.936112 58.167357 0
M  V30 60 H 38.445183 33.337530 63.184458 0
M  V30 61 H 40.251122 31.462143 54.206568 0
M  V30 62 H 40.326919 30.191174 55.369559 0
M  V30 63 H 37.733473 29.890726 54.899670 0
M  V30 64 H 37.976899 30.946645 53.573295 0
M  V30 65 H 36.953610 29.754498 58.970295 0
M  V30 66 H 35.732813 30.354336 60.037550 0
M  V30 67 H 41.130763 31.261344 50.653762 0
M  V30 68 H 39.311221 28.243508 54.144863 0
M  V30 69 H 37.959329 28.499902 53.090172 0
M  V30 70 H 36.671253 34.379346 61.461309 0
M  V30 71 H 32.951329 33.716987 58.683853 0
M  V30 72 H 33.645743 32.148472 59.100004 0
M  V30 73 H 33.279046 33.337882 60.361422 0
M  V30 74 H 43.333385 32.772589 62.477997 0
M  V30 75 H 38.445165 29.754650 50.835808 0
M  V30 76 H 39.245362 31.021031 51.851826 0
M  V30 77 H 43.145010 30.395057 63.235939 0
M  V30 78 H 38.838027 29.111455 61.185361 0
M  V30 79 H 38.535567 32.654090 55.552078 0
M  V30 80 H 39.994984 32.389009 56.458678 0
M  V30 81 H 36.046146 31.788579 58.286046 0
M  V30 END ATOM
M  V30 BEGIN BOND
M  V30 1 1 10 6
M  V30 2 1 11 8
M  V30 3 1 11 10
M  V30 4 1 12 2
M  V30 5 1 12 8
M  V30 6 1 14 9
M  V30 7 2 17 4
M  V30 8 1 17 15
M  V30 9 1 18 2
M  V30 10 1 19 9
M  V30 11 1 19 15
M  V30 12 1 21 20
M  V30 13 1 22 1
M  V30 14 1 22 12
M  V30 15 1 23 3
M  V30 16 1 23 13
M  V30 17 1 24 16
M  V30 18 1 24 21
M  V30 19 1 25 19
M  V30 20 1 26 2
M  V30 21 1 26 5
M  V30 22 1 26 25
M  V30 23 1 27 18
M  V30 24 1 29 4
M  V30 25 1 30 7
M  V30 26 1 30 16
M  V30 27 1 31 14
M  V30 28 2 31 15
M  V30 29 1 31 28
M  V30 30 1 32 16
M  V30 31 1 32 23
M  V30 32 1 33 4
M  V30 33 2 33 28
M  V30 34 1 34 1
M  V30 35 1 35 11
M  V30 36 1 35 20
M  V30 37 1 36 1
M  V30 38 1 2 37 CFG=1
M  V30 39 1 38 3
M  V30 40 1 39 5
M  V30 41 1 40 5
M  V30 42 1 41 5
M  V30 43 1 42 6
M  V30 44 1 43 6
M  V30 45 1 44 6
M  V30 46 1 45 7
M  V30 47 1 46 7
M  V30 48 1 47 7
M  V30 49 1 48 8
M  V30 50 1 49 8
M  V30 51 1 50 9
M  V30 52 1 51 9
M  V30 53 1 11 52 CFG=3
M  V30 54 1 53 13
M  V30 55 1 54 14
M  V30 56 1 55 14
M  V30 57 1 16 56 CFG=1
M  V30 58 1 57 17
M  V30 59 1 58 18
M  V30 60 1 59 18
M  V30 61 1 19 60 CFG=1
M  V30 62 1 61 20
M  V30 63 1 62 20
M  V30 64 1 63 21
M  V30 65 1 64 21
M  V30 66 1 65 22
M  V30 67 1 66 22
M  V30 68 1 67 23
M  V30 69 1 68 24
M  V30 70 1 69 24
M  V30 71 1 26 70 CFG=1
M  V30 72 1 71 27
M  V30 73 1 72 27
M  V30 74 1 73 27
M  V30 75 1 74 28
M  V30 76 1 75 32
M  V30 77 1 76 32
M  V30 78 1 77 33
M  V30 79 1 78 34
M  V30 80 1 79 35
M  V30 81 1 80 35
M  V30 82 1 12 81 CFG=3
M  V30 END BOND
M  V30 END CTAB
M  END
>  <i_epik_Tot_Q>  (1) 
1

>  <i_epik_Tot_abs_Q>  (1) 
1

>  <i_i_glide_confnum>  (1) 
4980

>  <i_i_glide_lignum>  (1) 
24

>  <i_i_glide_posenum>  (1) 
50

>  <i_i_glide_rotatable_bonds>  (1) 
21

>  <i_lp_mmshare_version>  (1) 
72125

>  <i_m_source_file_index>  (1) 
14

>  <i_f3d_flags>  (1) 
0

>  <num_sample>  (1) 
50

>  <b_lp_Chiralities_Consistent>  (1) 
1

>  <r_epik_Charging_Adjusted_Penalty>  (1) 
0.45110583801900384

>  <r_epik_Ionization_Penalty>  (1) 
0.22670498176529164

>  <r_epik_Ionization_Penalty_Charging>  (1) 
0.22555291900950195

>  <r_epik_Ionization_Penalty_Neutral>  (1) 
0.001152062755789702

>  <r_epik_State_Penalty>  (1) 
0.22555291900950192

>  <r_glide_ring_energy>  (1) 
0

>  <r_i_docking_score>  (1) 
-3.3851065734636947

>  <r_i_glide_ecoul>  (1) 
-9.345565652276381

>  <r_i_glide_eff_state_penalty>  (1) 
0.22555291900950192

>  <r_i_glide_einternal>  (1) 
25.272301438693447

>  <r_i_glide_emodel>  (1) 
-11.064022592407795

>  <r_i_glide_emodel_strain>  (1) 
11.962223873201992

>  <r_i_glide_energy>  (1) 
-24.338496966498358

>  <r_i_glide_erotb>  (1) 
1.1363863637419909

>  <r_i_glide_esite>  (1) 
-0.19883420967454069

>  <r_i_glide_evdw>  (1) 
-14.992931314221977

>  <r_i_glide_gscore>  (1) 
-3.6106594924731965

>  <r_i_glide_gscore_strain>  (1) 
1.9905559683004981

>  <r_i_glide_hbond>  (1) 
-0.52000000000000002

>  <r_i_glide_ligand_efficiency>  (1) 
-0.096717330670391274

>  <r_i_glide_ligand_efficiency_ln>  (1) 
-0.7431060212678684

>  <r_i_glide_ligand_efficiency_sa>  (1) 
-0.31636880196728656

>  <r_i_glide_lipo>  (1) 
-3.1232623623918623

>  <r_i_glide_metal>  (1) 
-0

>  <r_i_glide_rewards>  (1) 
-0.74402383889672674

>  <r_lp_Energy>  (1) 
19.389523000000001

>  <s_epik_Chemistry_Notes>  (1) 
This compound contains an acetal/aminal-like group ( X-CH(R)-Y where X, Y are N, S, or O) that may be acid/base labile, releasing an aldehyde. This compound has a N-S or N-O group and may undergo hydrolysis at high or low pH.

>  <s_epik_cmdline>  (1) 
J2VwaWtfcHl0aG9uJywgJy1waHQnLCAnMS4wJywgJy1waCcsICc3LjQnLCAnLXRuJywgJzgnLCAnLW1hJywgJzUwMCcsICctaW1hZScsICc8aW5maWxlLm1hZT4nLCAnLW9tYWUnLCAnPG91dGZpbGUubWFlPic=

>  <s_epik_input>  (1) 
W09IXVtDSF0oW09IXSlbQ0gyXVtDQEhdKE9bQ0gzXSlbQ0gyXVtDSDJdW0NIMl1bQ0gyXVtDQEBIXShPW0NIM10pW0NIMl1OKFtDSDJdW05IXVtPSF0pW0NASF0oW0NIMl1bQ0gzXSlbQ0BIXShbQ0gzXSlPW0NAQEhdMVtDSDJdW0NIMl1jKGMxMilbY0hdW2NIXWMoRilbY0hdMg==

>  <s_glide_docking_method>  (1) 
confgen

>  <s_i_glide_gridfile>  (1) 
gpcr_5ht2c_6bqh_protein_autoprepared_prepared

>  <s_lp_Force_Field>  (1) 
S-OPLS

>  <s_lp_Variant>  (1) 
DiffSBDD_13-1

>  <s_m_source_file>  (1) 
generated_GPCR_5HT2C_ligand_DiffSBDD_2026-06-23_prepared.sdf

>  <GenAI_Model>  (1) 
DiffSBDD

>  <Protein>  (1) 
GPCR_5HT2C

$$$$
DiffSBDD_2
     RDKit          3D

  0  0  0  0  0  0  0  0  0  0999 V3000
M  V30 BEGIN CTAB
M  V30 COUNTS 85 88 0 0 1
M  V30 BEGIN ATOM
M  V30 1 C 38.503062 36.277076 62.337898 0 CFG=1
M  V30 2 C 38.769372 26.305966 54.927856 0
M  V30 3 C 35.903391 30.786537 59.588881 0
M  V30 4 C 40.480135 34.747064 62.503258 0
M  V30 5 C 39.613191 26.979044 55.679819 0
M  V30 6 C 38.818376 32.867232 60.568426 0
M  V30 7 C 39.541341 29.426334 54.790017 0 CFG=2
M  V30 8 C 38.210577 36.937384 64.683510 0
M  V30 9 C 39.093531 32.370946 59.179383 0
M  V30 10 C 38.769226 30.319176 56.945163 0 CFG=1
M  V30 11 N 39.565272 28.367661 55.807092 0
M  V30 12 C 38.845138 37.180072 61.179446 0
M  V30 13 C 37.205223 25.081742 57.143851 0
M  V30 14 C 38.933912 30.687959 55.472475 0
M  V30 15 N 37.645140 30.990760 57.699508 0 CFG=2 CHG=1
M  V30 16 C 39.495973 25.936005 57.948060 0
M  V30 17 C 37.653473 25.651776 54.720263 0
M  V30 18 C 38.643411 28.816310 56.837290 0
M  V30 19 C 37.956729 32.382298 58.142208 0 CFG=2
M  V30 20 C 37.171694 24.581726 55.686821 0
M  V30 21 C 40.412987 26.258454 56.771175 0
M  V30 22 C 39.469899 29.774654 52.212734 0
M  V30 23 C 36.839743 36.999854 63.980152 0
M  V30 24 C 39.752712 31.247199 52.454418 0
M  V30 25 C 38.786794 34.383370 60.605820 0
M  V30 26 C 38.896290 29.024398 53.425896 0 CFG=2
M  V30 27 C 36.989722 36.334556 62.613488 0
M  V30 28 F 36.049616 25.337752 57.767320 0
M  V30 29 S 40.634605 35.735005 63.998880 0
M  V30 30 C 37.351061 28.939233 53.468402 0
M  V30 31 C 38.226568 33.340050 56.968765 0
M  V30 32 C 38.324321 25.371465 57.767761 0
M  V30 33 C 39.016728 34.851413 62.034217 0 CFG=2
M  V30 34 C 37.082428 30.159151 58.817384 0
M  V30 35 C 39.244400 36.814830 63.581368 0 CFG=1
M  V30 36 H 35.645158 30.138013 60.415307 0
M  V30 37 H 36.108825 31.745366 60.054277 0
M  V30 38 H 35.018176 30.916421 58.967860 0
M  V30 39 H 40.786723 33.721485 62.710068 0
M  V30 40 H 41.163731 35.151257 61.756936 0
M  V30 41 H 37.920029 32.431631 61.001802 0
M  V30 42 H 39.639019 32.506462 61.190774 0
M  V30 43 H 40.581586 29.691099 54.617186 0
M  V30 44 H 38.288183 36.137754 65.392095 0
M  V30 45 H 38.445139 37.737785 65.353638 0
M  V30 46 H 39.443200 31.359969 59.368133 0
M  V30 47 H 39.915924 32.962984 58.797509 0
M  V30 48 H 39.722361 30.504768 57.432226 0
M  V30 49 H 38.752869 38.242553 61.411701 0
M  V30 50 H 39.886582 36.937908 60.967760 0
M  V30 51 H 38.246206 36.976604 60.292106 0
M  V30 52 H 37.981700 31.005077 55.059608 0
M  V30 53 H 39.619156 31.526822 55.356321 0
M  V30 54 H 39.771431 26.359342 58.902173 0
M  V30 55 H 36.935732 25.990382 53.989915 0
M  V30 56 H 37.636620 28.526332 56.540199 0
M  V30 57 H 38.861803 28.364844 57.802145 0
M  V30 58 H 37.067888 32.821853 58.582588 0
M  V30 59 H 36.152861 24.292237 55.423465 0
M  V30 60 H 37.795971 23.697834 55.583543 0
M  V30 61 H 40.814975 25.344179 56.340537 0
M  V30 62 H 41.249884 26.872156 57.106730 0
M  V30 63 H 40.417307 29.313399 51.927124 0
M  V30 64 H 38.830979 29.649993 51.338864 0
M  V30 65 H 36.043308 36.555005 64.574829 0
M  V30 66 H 36.555896 38.031599 63.767770 0
M  V30 67 H 39.949105 31.737738 51.503692 0
M  V30 68 H 38.931929 31.755241 52.964654 0
M  V30 69 H 40.646120 31.337637 53.069660 0
M  V30 70 H 39.546337 34.814282 59.954392 0
M  V30 71 H 37.816264 34.714279 60.234570 0
M  V30 72 H 39.234943 28.026060 53.171152 0
M  V30 73 H 36.516294 35.353165 62.567735 0
M  V30 74 H 36.460603 36.921054 61.861410 0
M  V30 75 H 36.871121 29.866841 53.767781 0
M  V30 76 H 36.940202 28.619027 52.510851 0
M  V30 77 H 37.006853 28.225247 54.208750 0
M  V30 78 H 38.045231 34.368845 57.277377 0
M  V30 79 H 39.250287 33.280404 56.605341 0
M  V30 80 H 37.558961 33.149609 56.129625 0
M  V30 81 H 38.445155 34.120697 62.571890 0
M  V30 82 H 36.708331 29.214913 58.427419 0
M  V30 83 H 37.864223 29.897205 59.530671 0
M  V30 84 H 39.659643 37.806490 63.399990 0
M  V30 85 H 36.833571 31.112496 57.084092 0
M  V30 END ATOM
M  V30 BEGIN BOND
M  V30 1 2 5 2
M  V30 2 1 9 6
M  V30 3 1 11 5
M  V30 4 1 11 7
M  V30 5 1 1 12 CFG=3
M  V30 6 1 14 7
M  V30 7 1 14 10
M  V30 8 1 15 10
M  V30 9 2 17 2
M  V30 10 1 18 10
M  V30 11 1 18 11
M  V30 12 1 19 9
M  V30 13 1 19 15
M  V30 14 1 20 13
M  V30 15 1 20 17
M  V30 16 1 21 5
M  V30 17 1 21 16
M  V30 18 1 23 8
M  V30 19 1 24 22
M  V30 20 1 25 6
M  V30 21 1 26 7
M  V30 22 1 26 22
M  V30 23 1 27 1
M  V30 24 1 27 23
M  V30 25 1 28 13
M  V30 26 1 29 4
M  V30 27 1 30 26
M  V30 28 1 31 19
M  V30 29 2 32 13
M  V30 30 2 32 16
M  V30 31 1 33 1
M  V30 32 1 33 4
M  V30 33 1 33 25
M  V30 34 1 34 3
M  V30 35 1 34 15
M  V30 36 1 35 1
M  V30 37 1 35 8
M  V30 38 1 35 29
M  V30 39 1 36 3
M  V30 40 1 37 3
M  V30 41 1 38 3
M  V30 42 1 39 4
M  V30 43 1 40 4
M  V30 44 1 41 6
M  V30 45 1 42 6
M  V30 46 1 7 43 CFG=3
M  V30 47 1 44 8
M  V30 48 1 45 8
M  V30 49 1 46 9
M  V30 50 1 47 9
M  V30 51 1 10 48 CFG=1
M  V30 52 1 49 12
M  V30 53 1 50 12
M  V30 54 1 51 12
M  V30 55 1 52 14
M  V30 56 1 53 14
M  V30 57 1 54 16
M  V30 58 1 55 17
M  V30 59 1 56 18
M  V30 60 1 57 18
M  V30 61 1 19 58 CFG=1
M  V30 62 1 59 20
M  V30 63 1 60 20
M  V30 64 1 61 21
M  V30 65 1 62 21
M  V30 66 1 63 22
M  V30 67 1 64 22
M  V30 68 1 65 23
M  V30 69 1 66 23
M  V30 70 1 67 24
M  V30 71 1 68 24
M  V30 72 1 69 24
M  V30 73 1 70 25
M  V30 74 1 71 25
M  V30 75 1 26 72 CFG=3
M  V30 76 1 73 27
M  V30 77 1 74 27
M  V30 78 1 75 30
M  V30 79 1 76 30
M  V30 80 1 77 30
M  V30 81 1 78 31
M  V30 82 1 79 31
M  V30 83 1 80 31
M  V30 84 1 33 81 CFG=1
M  V30 85 1 82 34
M  V30 86 1 83 34
M  V30 87 1 35 84 CFG=3
M  V30 88 1 15 85 CFG=3
M  V30 END BOND
M  V30 END CTAB
M  END
>  <i_epik_Tot_Q>  (1) 
1

>  <i_epik_Tot_abs_Q>  (1) 
1

>  <i_i_glide_confnum>  (1) 
467

>  <i_i_glide_lignum>  (1) 
10

>  <i_i_glide_posenum>  (1) 
80

>  <i_i_glide_rotatable_bonds>  (1) 
10

>  <i_lp_mmshare_version>  (1) 
72125

>  <i_m_source_file_index>  (1) 
3

>  <i_f3d_flags>  (1) 
0

>  <num_sample>  (1) 
50

>  <b_lp_Chiralities_Consistent>  (1) 
1

>  <r_epik_Charging_Adjusted_Penalty>  (1) 
0.074245454784308482

>  <r_epik_Ionization_Penalty>  (1) 
0.013686655559845946

>  <r_epik_Ionization_Penalty_Charging>  (1) 
0.012771505238954846

>  <r_epik_Ionization_Penalty_Neutral>  (1) 
0.00091515032089109971

>  <r_epik_State_Penalty>  (1) 
0.06147394954535363

>  <r_glide_ring_energy>  (1) 
1.3016869551617385

>  <r_i_docking_score>  (1) 
-3.3525990161791164

>  <r_i_glide_ecoul>  (1) 
-3.1696812493116484

>  <r_i_glide_eff_state_penalty>  (1) 
0.06147394954535363

>  <r_i_glide_einternal>  (1) 
12.934749309490176

>  <r_i_glide_emodel>  (1) 
-7.2522339783268635

>  <r_i_glide_emodel_strain>  (1) 
20.971183027409708

>  <r_i_glide_energy>  (1) 
-32.049824285810097

>  <r_i_glide_erotb>  (1) 
0.64899532480163924

>  <r_i_glide_esite>  (1) 
-0.10000000000000001

>  <r_i_glide_evdw>  (1) 
-28.880143036498449

>  <r_i_glide_gscore>  (1) 
-3.4140729657244702

>  <r_i_glide_gscore_strain>  (1) 
4.242795756852427

>  <r_i_glide_hbond>  (1) 
-0.18472202863774545

>  <r_i_glide_ligand_efficiency>  (1) 
-0.095788543319403327

>  <r_i_glide_ligand_efficiency_ln>  (1) 
-0.73596989097754106

>  <r_i_glide_ligand_efficiency_sa>  (1) 
-0.31333067695414057

>  <r_i_glide_lipo>  (1) 
-4.8882647142813687

>  <r_i_glide_metal>  (1) 
-0

>  <r_i_glide_rewards>  (1) 
-1.2134179652377539

>  <r_lp_Energy>  (1) 
18.681577999999998

>  <s_epik_cmdline>  (1) 
J2VwaWtfcHl0aG9uJywgJy1waHQnLCAnMS4wJywgJy1waCcsICc3LjQnLCAnLXRuJywgJzgnLCAnLW1hJywgJzUwMCcsICctaW1hZScsICc8aW5maWxlLm1hZT4nLCAnLW9tYWUnLCAnPG91dGZpbGUubWFlPic=

>  <s_epik_input>  (1) 
W0NIMl0xW0NIMl1bQ0gyXVtDQEhdKFtDQF0xMltDSDNdKVNbQ0gyXVtDQEBIXTJbQ0gyXVtDSDJdW0NIMl1bQ0BASF0oW0NIM10pTihbQ0gyXVtDSDNdKVtDQEhdKFtDSDJdMylbQ0gyXU4oW0NASF0zW0NAQEhdKFtDSDNdKVtDSDJdW0NIM10pQzQ9Qz1bQ0hdW0NIMl1DKEYpPUM9W0NIXVtDSDJdNA==

>  <s_glide_docking_method>  (1) 
confgen

>  <s_i_glide_gridfile>  (1) 
gpcr_5ht2c_6bqh_protein_autoprepared_prepared

>  <s_lp_Force_Field>  (1) 
S-OPLS

>  <s_lp_Variant>  (1) 
DiffSBDD_2-2

>  <s_m_source_file>  (1) 
generated_GPCR_5HT2C_ligand_DiffSBDD_2026-06-23_prepared.sdf

>  <GenAI_Model>  (1) 
DiffSBDD

>  <Protein>  (1) 
GPCR_5HT2C

$$$$
DiffSBDD_49
     RDKit          3D

  0  0  0  0  0  0  0  0  0  0999 V3000
M  V30 BEGIN CTAB
M  V30 COUNTS 47 46 0 0 1
M  V30 BEGIN ATOM
M  V30 1 C 38.799288 31.073783 55.740795 0
M  V30 2 C 41.314251 30.537765 50.745074 0
M  V30 3 O 38.891511 30.137936 61.086482 0
M  V30 4 C 39.938739 28.341046 59.901386 0 CFG=2
M  V30 5 C 38.332442 30.463927 57.080834 0 CFG=1
M  V30 6 C 38.922227 28.502078 58.730779 0 CFG=1
M  V30 7 C 39.404075 29.513729 57.660780 0
M  V30 8 C 39.958392 29.509411 60.911593 0
M  V30 9 C 38.472000 27.143305 58.133186 0
M  V30 10 O 41.245166 28.137762 59.398680 0
M  V30 11 C 38.764172 30.076533 54.569701 0
M  V30 12 C 39.435270 30.609550 53.297355 0
M  V30 13 C 39.429483 29.547698 52.183064 0
M  V30 14 O 41.044962 29.737786 61.491737 0 CHG=-1
M  V30 15 C 39.719665 28.937835 49.767758 0
M  V30 16 C 38.013386 31.584697 58.090503 0
M  V30 17 C 39.552014 26.283736 57.452100 0
M  V30 18 C 39.875518 30.045293 50.796108 0
M  V30 19 H 38.160149 31.919593 55.482417 0
M  V30 20 H 39.804239 31.481554 55.858547 0
M  V30 21 H 42.020484 29.739490 50.967746 0
M  V30 22 H 41.565257 30.937167 49.762198 0
M  V30 23 H 41.449501 31.337745 51.461705 0
M  V30 24 H 39.681585 27.463166 60.484955 0
M  V30 25 H 37.413519 29.905623 56.893947 0
M  V30 26 H 38.007226 28.906869 59.163054 0
M  V30 27 H 40.176840 30.137724 58.090652 0
M  V30 28 H 39.925574 28.976423 56.875014 0
M  V30 29 H 38.045151 26.541226 58.933193 0
M  V30 30 H 37.663713 27.320008 57.422480 0
M  V30 31 H 41.831306 28.215781 60.141943 0
M  V30 32 H 39.254907 29.144265 54.843398 0
M  V30 33 H 37.726038 29.818127 54.356880 0
M  V30 34 H 38.927440 31.516750 52.968525 0
M  V30 35 H 40.460493 30.901213 53.524229 0
M  V30 36 H 40.045101 28.700193 52.481723 0
M  V30 37 H 38.416343 29.154080 52.090776 0
M  V30 38 H 40.395881 28.109968 49.977656 0
M  V30 39 H 38.711837 28.537631 49.767769 0
M  V30 40 H 39.934853 29.336889 48.775562 0
M  V30 41 H 38.901491 32.161462 58.346458 0
M  V30 42 H 37.277481 32.287459 57.701057 0
M  V30 43 H 37.600027 31.184312 59.015115 0
M  V30 44 H 39.115754 25.362079 57.066002 0
M  V30 45 H 40.019226 26.792258 56.610521 0
M  V30 46 H 40.336877 25.996556 58.151629 0
M  V30 47 H 39.245141 30.880616 50.498387 0
M  V30 END ATOM
M  V30 BEGIN BOND
M  V30 1 1 5 1
M  V30 2 1 6 4
M  V30 3 1 7 5
M  V30 4 1 7 6
M  V30 5 2 8 3
M  V30 6 1 8 4
M  V30 7 1 9 6
M  V30 8 1 10 4
M  V30 9 1 11 1
M  V30 10 1 12 11
M  V30 11 1 13 12
M  V30 12 1 14 8
M  V30 13 1 16 5
M  V30 14 1 17 9
M  V30 15 1 18 2
M  V30 16 1 18 13
M  V30 17 1 18 15
M  V30 18 1 19 1
M  V30 19 1 20 1
M  V30 20 1 21 2
M  V30 21 1 22 2
M  V30 22 1 23 2
M  V30 23 1 4 24 CFG=1
M  V30 24 1 5 25 CFG=3
M  V30 25 1 6 26 CFG=1
M  V30 26 1 27 7
M  V30 27 1 28 7
M  V30 28 1 29 9
M  V30 29 1 30 9
M  V30 30 1 31 10
M  V30 31 1 32 11
M  V30 32 1 33 11
M  V30 33 1 34 12
M  V30 34 1 35 12
M  V30 35 1 36 13
M  V30 36 1 37 13
M  V30 37 1 38 15
M  V30 38 1 39 15
M  V30 39 1 40 15
M  V30 40 1 41 16
M  V30 41 1 42 16
M  V30 42 1 43 16
M  V30 43 1 44 17
M  V30 44 1 45 17
M  V30 45 1 46 17
M  V30 46 1 47 18
M  V30 END BOND
M  V30 END CTAB
M  END
>  <i_epik_Tot_Q>  (1) 
-1

>  <i_epik_Tot_abs_Q>  (1) 
1

>  <i_i_glide_confnum>  (1) 
292

>  <i_i_glide_lignum>  (1) 
103

>  <i_i_glide_posenum>  (1) 
313

>  <i_i_glide_rotatable_bonds>  (1) 
11

>  <i_lp_mmshare_version>  (1) 
72125

>  <i_m_source_file_index>  (1) 
50

>  <i_f3d_flags>  (1) 
0

>  <num_sample>  (1) 
50

>  <b_lp_Chiralities_Consistent>  (1) 
1

>  <r_epik_Charging_Adjusted_Penalty>  (1) 
0.00019702525056484194

>  <r_epik_Ionization_Penalty>  (1) 
0.00021830840852395323

>  <r_epik_Ionization_Penalty_Charging>  (1) 
0.00019702525056484194

>  <r_epik_Ionization_Penalty_Neutral>  (1) 
2.1283157959111292e-05

>  <r_epik_State_Penalty>  (1) 
-0

>  <r_glide_ring_energy>  (1) 
0

>  <r_i_docking_score>  (1) 
-3.2646158661976128

>  <r_i_glide_ecoul>  (1) 
-4.1327840655229613

>  <r_i_glide_eff_state_penalty>  (1) 
-0

>  <r_i_glide_einternal>  (1) 
8.8930043081312942

>  <r_i_glide_emodel>  (1) 
-26.504491051147681

>  <r_i_glide_emodel_strain>  (1) 
0.29185821505149256

>  <r_i_glide_energy>  (1) 
-25.383367160986115

>  <r_i_glide_erotb>  (1) 
3.728558449231691

>  <r_i_glide_esite>  (1) 
0

>  <r_i_glide_evdw>  (1) 
-21.250583095463153

>  <r_i_glide_gscore>  (1) 
-3.2646158661976128

>  <r_i_glide_gscore_strain>  (1) 
0

>  <r_i_glide_hbond>  (1) 
-0.26592560783917885

>  <r_i_glide_ligand_efficiency>  (1) 
-0.18136754812208961

>  <r_i_glide_ligand_efficiency_ln>  (1) 
-0.83915267469529753

>  <r_i_glide_ligand_efficiency_sa>  (1) 
-0.47531744092973427

>  <r_i_glide_lipo>  (1) 
-2.525521582844223

>  <r_i_glide_metal>  (1) 
-0

>  <r_i_glide_rewards>  (1) 
-2.5192803601442995

>  <r_lp_Energy>  (1) 
17.89798

>  <r_lp_tautomer_probability>  (1) 
1

>  <s_epik_cmdline>  (1) 
J2VwaWtfcHl0aG9uJywgJy1waHQnLCAnMS4wJywgJy1waCcsICc3LjQnLCAnLXRuJywgJzgnLCAnLW1hJywgJzUwMCcsICctaW1hZScsICc8aW5maWxlLm1hZT4nLCAnLW9tYWUnLCAnPG91dGZpbGUubWFlPic=

>  <s_epik_input>  (1) 
W0NIM11bQ0hdKFtDSDNdKVtDSDJdW0NIMl1bQ0gyXVtDSDJdW0NASF0oW0NIM10pW0NIMl1bQ0BASF0oW0NIMl1bQ0gzXSlbQ0BASF0oW09IXSlDKD1PKVtPSF0=

>  <s_glide_docking_method>  (1) 
confgen

>  <s_i_glide_gridfile>  (1) 
gpcr_5ht2c_6bqh_protein_autoprepared_prepared

>  <s_lp_Force_Field>  (1) 
S-OPLS

>  <s_lp_Variant>  (1) 
DiffSBDD_49-1

>  <s_m_source_file>  (1) 
generated_GPCR_5HT2C_ligand_DiffSBDD_2026-06-23_prepared.sdf

>  <GenAI_Model>  (1) 
DiffSBDD

>  <Protein>  (1) 
GPCR_5HT2C

$$$$
DiffSBDD_31
     RDKit          3D

  0  0  0  0  0  0  0  0  0  0999 V3000
M  V30 BEGIN CTAB
M  V30 COUNTS 51 52 0 0 1
M  V30 BEGIN ATOM
M  V30 1 C 38.894290 27.702104 57.418347 0
M  V30 2 C 38.987996 27.217573 53.521610 0
M  V30 3 C 37.068952 32.884295 59.734511 0
M  V30 4 C 38.346777 32.410496 57.670725 0
M  V30 5 C 41.242675 30.371097 50.170224 0
M  V30 6 N 38.191256 28.978880 57.356794 0
M  V30 7 C 35.611267 32.911575 60.214672 0
M  V30 8 N 38.400542 29.772391 58.626833 0
M  V30 9 N 37.245141 31.993148 58.567766 0 CFG=1 CHG=1
M  V30 10 C 39.889879 28.768520 51.662992 0 CFG=1
M  V30 11 O 35.538645 33.717810 61.367665 0
M  V30 12 C 39.111283 28.026099 50.571533 0
M  V30 13 C 39.130726 30.079757 57.394513 0 CFG=2
M  V30 14 C 37.170667 30.533871 58.888002 0
M  V30 15 C 39.487871 27.368272 56.035802 0
M  V30 16 C 40.157235 30.229907 51.246158 0
M  V30 17 C 39.142830 28.668102 53.012246 0
M  V30 18 C 38.626832 31.305150 56.660582 0
M  V30 19 C 38.422350 27.133341 54.947225 0
M  V30 20 H 39.686412 27.715591 58.169712 0
M  V30 21 H 38.190158 26.925073 57.718944 0
M  V30 22 H 39.939494 26.686357 53.473046 0
M  V30 23 H 38.309334 26.683475 52.855826 0
M  V30 24 H 37.744250 32.576462 60.534763 0
M  V30 25 H 37.354353 33.901506 59.460555 0
M  V30 26 H 38.066561 33.331754 57.157678 0
M  V30 27 H 39.244797 32.624085 58.252569 0
M  V30 28 H 41.272185 31.383688 49.788752 0
M  V30 29 H 41.061146 29.737788 49.304831 0
M  V30 30 H 42.229140 30.140169 50.567803 0
M  V30 31 H 34.958421 33.317459 59.439718 0
M  V30 32 H 35.245721 31.914711 60.460539 0
M  V30 33 H 40.859537 28.285025 51.767714 0
M  V30 34 H 34.628789 33.884489 61.569668 0
M  V30 35 H 38.045122 28.137749 50.734630 0
M  V30 36 H 39.333664 26.958412 50.565129 0
M  V30 37 H 39.313339 28.432693 49.585732 0
M  V30 38 H 40.200562 29.883721 57.372481 0
M  V30 39 H 36.331947 30.115576 58.328082 0
M  V30 40 H 36.917106 30.389680 59.938635 0
M  V30 41 H 40.170989 28.161095 55.732480 0
M  V30 42 H 40.106528 26.473370 56.118059 0
M  V30 43 H 40.444894 30.828917 52.111243 0
M  V30 44 H 39.245155 30.673835 50.858367 0
M  V30 45 H 39.651729 29.271014 53.762169 0
M  V30 46 H 38.154265 29.119625 52.917277 0
M  V30 47 H 39.386767 31.623552 55.946166 0
M  V30 48 H 37.730059 31.073288 56.081381 0
M  V30 49 H 37.603477 27.846759 55.037837 0
M  V30 50 H 37.975219 26.151462 55.105277 0
M  V30 51 H 36.408006 32.124151 57.979524 0
M  V30 END ATOM
M  V30 BEGIN BOND
M  V30 1 1 6 1
M  V30 2 1 7 3
M  V30 3 1 8 6
M  V30 4 1 9 3
M  V30 5 1 9 4
M  V30 6 1 11 7
M  V30 7 1 12 10
M  V30 8 1 13 6
M  V30 9 1 13 8
M  V30 10 1 14 8
M  V30 11 1 14 9
M  V30 12 1 15 1
M  V30 13 1 16 5
M  V30 14 1 16 10
M  V30 15 1 17 2
M  V30 16 1 17 10
M  V30 17 1 18 4
M  V30 18 1 18 13
M  V30 19 1 19 2
M  V30 20 1 19 15
M  V30 21 1 20 1
M  V30 22 1 21 1
M  V30 23 1 22 2
M  V30 24 1 23 2
M  V30 25 1 24 3
M  V30 26 1 25 3
M  V30 27 1 26 4
M  V30 28 1 27 4
M  V30 29 1 28 5
M  V30 30 1 29 5
M  V30 31 1 30 5
M  V30 32 1 31 7
M  V30 33 1 32 7
M  V30 34 1 10 33 CFG=1
M  V30 35 1 34 11
M  V30 36 1 35 12
M  V30 37 1 36 12
M  V30 38 1 37 12
M  V30 39 1 13 38 CFG=1
M  V30 40 1 39 14
M  V30 41 1 40 14
M  V30 42 1 41 15
M  V30 43 1 42 15
M  V30 44 1 43 16
M  V30 45 1 44 16
M  V30 46 1 45 17
M  V30 47 1 46 17
M  V30 48 1 47 18
M  V30 49 1 48 18
M  V30 50 1 49 19
M  V30 51 1 50 19
M  V30 52 1 9 51 CFG=3
M  V30 END BOND
M  V30 END CTAB
M  END
>  <i_epik_Tot_Q>  (1) 
1

>  <i_epik_Tot_abs_Q>  (1) 
1

>  <i_i_glide_confnum>  (1) 
150

>  <i_i_glide_lignum>  (1) 
69

>  <i_i_glide_posenum>  (1) 
102

>  <i_i_glide_rotatable_bonds>  (1) 
10

>  <i_lp_mmshare_version>  (1) 
72125

>  <i_m_source_file_index>  (1) 
32

>  <i_f3d_flags>  (1) 
0

>  <num_sample>  (1) 
50

>  <b_lp_Chiralities_Consistent>  (1) 
1

>  <r_epik_Charging_Adjusted_Penalty>  (1) 
0.062925192649716036

>  <r_epik_Ionization_Penalty>  (1) 
0.062927217042738556

>  <r_epik_Ionization_Penalty_Charging>  (1) 
0.062925192649716036

>  <r_epik_Ionization_Penalty_Neutral>  (1) 
2.0243930225180512e-06

>  <r_epik_State_Penalty>  (1) 
-0

>  <r_glide_ring_energy>  (1) 
0

>  <r_i_docking_score>  (1) 
-3.2396273187009008

>  <r_i_glide_ecoul>  (1) 
-6.0188495818715797

>  <r_i_glide_eff_state_penalty>  (1) 
-0

>  <r_i_glide_einternal>  (1) 
10.478559065876375

>  <r_i_glide_emodel>  (1) 
-37.129421000845696

>  <r_i_glide_emodel_strain>  (1) 
0.95067774824131845

>  <r_i_glide_energy>  (1) 
-34.444793138986675

>  <r_i_glide_erotb>  (1) 
3.9128418167227688

>  <r_i_glide_esite>  (1) 
-0.20390324593516529

>  <r_i_glide_evdw>  (1) 
-28.425943557115094

>  <r_i_glide_gscore>  (1) 
-3.2396273187009008

>  <r_i_glide_gscore_strain>  (1) 
0

>  <r_i_glide_hbond>  (1) 
-0.20000000000000001

>  <r_i_glide_ligand_efficiency>  (1) 
-0.17050670098425794

>  <r_i_glide_ligand_efficiency_ln>  (1) 
-0.82131510610553693

>  <r_i_glide_ligand_efficiency_sa>  (1) 
-0.45498036202453362

>  <r_i_glide_lipo>  (1) 
-2.320741294866417

>  <r_i_glide_metal>  (1) 
-0

>  <r_i_glide_rewards>  (1) 
-2.1036999794855955

>  <r_lp_Energy>  (1) 
23.34319

>  <r_lp_tautomer_probability>  (1) 
1

>  <s_epik_Chemistry_Notes>  (1) 
This compound contains an acetal/aminal-like group ( X-CH(R)-Y where X, Y are N, S, or O) that may be acid/base labile, releasing an aldehyde.

>  <s_epik_cmdline>  (1) 
J2VwaWtfcHl0aG9uJywgJy1waHQnLCAnMS4wJywgJy1waCcsICc3LjQnLCAnLXRuJywgJzgnLCAnLW1hJywgJzUwMCcsICctaW1hZScsICc8aW5maWxlLm1hZT4nLCAnLW9tYWUnLCAnPG91dGZpbGUubWFlPic=

>  <s_epik_input>  (1) 
W0NIM11bQ0gyXVtDQEhdKFtDSDNdKVtDSDJdW0NIMl1bQ0gyXVtDSDJdW0NIMl1OMVtDQEhdKE4xMilbQ0gyXVtDSDJdTihbQ0gyXTIpW0NIMl1bQ0gyXVtPSF0=

>  <s_glide_docking_method>  (1) 
confgen

>  <s_i_glide_gridfile>  (1) 
gpcr_5ht2c_6bqh_protein_autoprepared_prepared

>  <s_lp_Force_Field>  (1) 
S-OPLS

>  <s_lp_Variant>  (1) 
DiffSBDD_31-1

>  <s_m_source_file>  (1) 
generated_GPCR_5HT2C_ligand_DiffSBDD_2026-06-23_prepared.sdf

>  <GenAI_Model>  (1) 
DiffSBDD

>  <Protein>  (1) 
GPCR_5HT2C

$$$$
DiffSBDD_31
     RDKit          3D

  0  0  0  0  0  0  0  0  0  0999 V3000
M  V30 BEGIN CTAB
M  V30 COUNTS 51 52 0 0 1
M  V30 BEGIN ATOM
M  V30 1 C 38.919663 27.680174 57.534872 0
M  V30 2 C 38.822426 26.653415 53.857289 0
M  V30 3 C 38.008398 33.602559 58.008249 0
M  V30 4 C 38.967348 32.245270 56.189008 0
M  V30 5 C 40.713330 30.274617 50.639697 0
M  V30 6 N 38.424073 28.989806 57.107700 0
M  V30 7 C 36.723133 33.831069 58.823928 0
M  V30 8 N 39.080239 30.065539 57.954341 0
M  V30 9 N 38.045134 32.280364 57.340225 0 CFG=1 CHG=1
M  V30 10 C 39.582468 28.390805 52.075775 0 CFG=1
M  V30 11 O 36.728190 35.133183 59.367753 0
M  V30 12 C 38.576193 28.002555 50.990361 0
M  V30 13 C 39.466306 29.839293 56.563707 0 CFG=2
M  V30 14 C 38.091491 31.108699 58.267160 0
M  V30 15 C 39.422689 26.805054 56.365907 0
M  V30 16 C 40.057640 29.863198 51.965188 0
M  V30 17 C 38.986329 28.134445 53.475224 0
M  V30 18 C 38.926074 30.857753 55.578898 0
M  V30 19 C 38.349964 26.454624 55.310115 0
M  V30 20 H 39.719411 27.785443 58.271571 0
M  V30 21 H 38.103989 27.167104 58.045426 0
M  V30 22 H 39.766996 26.133021 53.701020 0
M  V30 23 H 38.093319 26.188717 53.195565 0
M  V30 24 H 38.896034 33.725556 58.630750 0
M  V30 25 H 38.044272 34.370099 57.234163 0
M  V30 26 H 38.662003 32.985206 55.447584 0
M  V30 27 H 39.981650 32.497775 56.502449 0
M  V30 28 H 40.955514 31.337698 50.652058 0
M  V30 29 H 40.060743 30.112458 49.781879 0
M  V30 30 H 41.644976 29.737794 50.477570 0
M  V30 31 H 35.839559 33.737471 58.193531 0
M  V30 32 H 36.627890 33.111811 59.636951 0
M  V30 33 H 40.444939 27.742293 51.953036 0
M  V30 34 H 36.557138 35.745468 58.664342 0
M  V30 35 H 37.645265 28.536221 51.151337 0
M  V30 36 H 38.354412 26.937841 51.012969 0
M  V30 37 H 38.937419 28.220498 49.987241 0
M  V30 38 H 40.445143 29.415768 56.356031 0
M  V30 39 H 37.090195 30.676169 58.321198 0
M  V30 40 H 38.316275 31.456145 59.275820 0
M  V30 41 H 40.297806 27.260114 55.901616 0
M  V30 42 H 39.803911 25.871562 56.784535 0
M  V30 43 H 40.766238 30.070966 52.762927 0
M  V30 44 H 39.245054 30.545750 52.169582 0
M  V30 45 H 39.645149 28.588563 54.205722 0
M  V30 46 H 38.031029 28.652611 53.576068 0
M  V30 47 H 39.546482 30.842474 54.684122 0
M  V30 48 H 37.912567 30.598979 55.264486 0
M  V30 49 H 37.439586 27.032608 55.468557 0
M  V30 50 H 38.057791 25.412552 55.446372 0
M  V30 51 H 37.105453 32.183452 56.949116 0
M  V30 END ATOM
M  V30 BEGIN BOND
M  V30 1 1 6 1
M  V30 2 1 7 3
M  V30 3 1 8 6
M  V30 4 1 9 3
M  V30 5 1 9 4
M  V30 6 1 11 7
M  V30 7 1 12 10
M  V30 8 1 13 6
M  V30 9 1 13 8
M  V30 10 1 14 8
M  V30 11 1 14 9
M  V30 12 1 15 1
M  V30 13 1 16 5
M  V30 14 1 16 10
M  V30 15 1 17 2
M  V30 16 1 17 10
M  V30 17 1 18 4
M  V30 18 1 18 13
M  V30 19 1 19 2
M  V30 20 1 19 15
M  V30 21 1 20 1
M  V30 22 1 21 1
M  V30 23 1 22 2
M  V30 24 1 23 2
M  V30 25 1 24 3
M  V30 26 1 25 3
M  V30 27 1 26 4
M  V30 28 1 27 4
M  V30 29 1 28 5
M  V30 30 1 29 5
M  V30 31 1 30 5
M  V30 32 1 31 7
M  V30 33 1 32 7
M  V30 34 1 10 33 CFG=3
M  V30 35 1 34 11
M  V30 36 1 35 12
M  V30 37 1 36 12
M  V30 38 1 37 12
M  V30 39 1 13 38 CFG=1
M  V30 40 1 39 14
M  V30 41 1 40 14
M  V30 42 1 41 15
M  V30 43 1 42 15
M  V30 44 1 43 16
M  V30 45 1 44 16
M  V30 46 1 45 17
M  V30 47 1 46 17
M  V30 48 1 47 18
M  V30 49 1 48 18
M  V30 50 1 49 19
M  V30 51 1 50 19
M  V30 52 1 9 51 CFG=3
M  V30 END BOND
M  V30 END CTAB
M  END
>  <i_epik_Tot_Q>  (1) 
1

>  <i_epik_Tot_abs_Q>  (1) 
1

>  <i_i_glide_confnum>  (1) 
234

>  <i_i_glide_lignum>  (1) 
69

>  <i_i_glide_posenum>  (1) 
29

>  <i_i_glide_rotatable_bonds>  (1) 
10

>  <i_lp_mmshare_version>  (1) 
72125

>  <i_m_source_file_index>  (1) 
32

>  <i_f3d_flags>  (1) 
0

>  <num_sample>  (1) 
50

>  <b_lp_Chiralities_Consistent>  (1) 
1

>  <r_epik_Charging_Adjusted_Penalty>  (1) 
0.062925192649716036

>  <r_epik_Ionization_Penalty>  (1) 
0.062927217042738556

>  <r_epik_Ionization_Penalty_Charging>  (1) 
0.062925192649716036

>  <r_epik_Ionization_Penalty_Neutral>  (1) 
2.0243930225180512e-06

>  <r_epik_State_Penalty>  (1) 
-0

>  <r_glide_ring_energy>  (1) 
0

>  <r_i_docking_score>  (1) 
-3.2253812077073714

>  <r_i_glide_ecoul>  (1) 
-5.8160003584646356

>  <r_i_glide_eff_state_penalty>  (1) 
-0

>  <r_i_glide_einternal>  (1) 
10.015672370433023

>  <r_i_glide_emodel>  (1) 
-35.331416195981362

>  <r_i_glide_emodel_strain>  (1) 
0.27116069956276334

>  <r_i_glide_energy>  (1) 
-31.77485351459616

>  <r_i_glide_erotb>  (1) 
3.9128418167227688

>  <r_i_glide_esite>  (1) 
-0.19324038556231679

>  <r_i_glide_evdw>  (1) 
-25.958853156131525

>  <r_i_glide_gscore>  (1) 
-3.2253812077073714

>  <r_i_glide_gscore_strain>  (1) 
0

>  <r_i_glide_hbond>  (1) 
-0.32527700269677606

>  <r_i_glide_ligand_efficiency>  (1) 
-0.16975690566880902

>  <r_i_glide_ligand_efficiency_ln>  (1) 
-0.81770341099026866

>  <r_i_glide_ligand_efficiency_sa>  (1) 
-0.45297960696858575

>  <r_i_glide_lipo>  (1) 
-2.3646328518212827

>  <r_i_glide_metal>  (1) 
-0

>  <r_i_glide_rewards>  (1) 
-2.084730072773493

>  <r_lp_Energy>  (1) 
23.34319

>  <r_lp_tautomer_probability>  (1) 
1

>  <s_epik_Chemistry_Notes>  (1) 
This compound contains an acetal/aminal-like group ( X-CH(R)-Y where X, Y are N, S, or O) that may be acid/base labile, releasing an aldehyde.

>  <s_epik_cmdline>  (1) 
J2VwaWtfcHl0aG9uJywgJy1waHQnLCAnMS4wJywgJy1waCcsICc3LjQnLCAnLXRuJywgJzgnLCAnLW1hJywgJzUwMCcsICctaW1hZScsICc8aW5maWxlLm1hZT4nLCAnLW9tYWUnLCAnPG91dGZpbGUubWFlPic=

>  <s_epik_input>  (1) 
W0NIM11bQ0gyXVtDQEhdKFtDSDNdKVtDSDJdW0NIMl1bQ0gyXVtDSDJdW0NIMl1OMVtDQEhdKE4xMilbQ0gyXVtDSDJdTihbQ0gyXTIpW0NIMl1bQ0gyXVtPSF0=

>  <s_glide_docking_method>  (1) 
confgen

>  <s_i_glide_gridfile>  (1) 
gpcr_5ht2c_6bqh_protein_autoprepared_prepared

>  <s_lp_Force_Field>  (1) 
S-OPLS

>  <s_lp_Variant>  (1) 
DiffSBDD_31-1

>  <s_m_source_file>  (1) 
generated_GPCR_5HT2C_ligand_DiffSBDD_2026-06-23_prepared.sdf

>  <GenAI_Model>  (1) 
DiffSBDD

>  <Protein>  (1) 
GPCR_5HT2C

$$$$
DiffSBDD_49
     RDKit          3D

  0  0  0  0  0  0  0  0  0  0999 V3000
M  V30 BEGIN CTAB
M  V30 COUNTS 47 46 0 0 1
M  V30 BEGIN ATOM
M  V30 1 C 38.716503 26.592891 57.848030 0
M  V30 2 C 37.423985 27.488700 52.968087 0
M  V30 3 O 39.340468 31.290309 61.022665 0
M  V30 4 C 37.576287 31.382636 59.413848 0 CFG=2
M  V30 5 C 39.235239 28.002676 58.226951 0 CFG=1
M  V30 6 C 38.379017 30.449792 58.450132 0 CFG=1
M  V30 7 C 38.097524 28.943441 58.694363 0
M  V30 8 C 38.098749 31.329613 60.862432 0
M  V30 9 C 38.235092 30.825907 56.951522 0
M  V30 10 O 36.179060 31.118966 59.367761 0
M  V30 11 C 39.555151 25.888113 56.758101 0
M  V30 12 C 39.081757 26.145001 55.309213 0
M  V30 13 C 39.082238 27.629818 54.897433 0
M  V30 14 O 37.245137 31.337759 61.775043 0 CHG=-1
M  V30 15 C 39.054065 29.395683 53.083667 0
M  V30 16 C 40.373887 27.929020 59.260614 0
M  V30 17 C 38.533087 32.290693 56.595731 0
M  V30 18 C 38.833532 27.907373 53.403525 0
M  V30 19 H 38.692230 25.974228 58.746007 0
M  V30 20 H 37.681787 26.636727 57.506443 0
M  V30 21 H 36.659468 27.994094 53.557550 0
M  V30 22 H 37.253307 27.737757 51.921053 0
M  V30 23 H 37.271204 26.415644 53.077202 0
M  V30 24 H 37.711341 32.422734 59.123714 0
M  V30 25 H 39.678388 28.440939 57.339998 0
M  V30 26 H 39.432230 30.586642 58.672786 0
M  V30 27 H 37.915983 28.760001 59.753400 0
M  V30 28 H 37.161453 28.695958 58.192164 0
M  V30 29 H 38.924033 30.223873 56.363698 0
M  V30 30 H 37.245135 30.559234 56.590999 0
M  V30 31 H 35.873065 31.337669 58.482254 0
M  V30 32 H 40.608059 26.152614 56.860402 0
M  V30 33 H 39.509381 24.812341 56.932907 0
M  V30 34 H 39.728324 25.585264 54.632511 0
M  V30 35 H 38.081842 25.729332 55.182515 0
M  V30 36 H 38.328475 28.160671 55.478685 0
M  V30 37 H 40.045136 28.059593 55.168563 0
M  V30 38 H 38.326809 30.022733 53.601249 0
M  V30 39 H 40.045121 29.737752 53.381829 0
M  V30 40 H 38.954867 29.582808 52.014361 0
M  V30 41 H 40.039957 27.478406 60.194530 0
M  V30 42 H 41.209165 27.337769 58.886144 0
M  V30 43 H 40.764323 28.918235 59.499900 0
M  V30 44 H 38.569971 32.419245 55.513705 0
M  V30 45 H 37.756709 32.961365 56.964443 0
M  V30 46 H 39.491552 32.614931 57.000623 0
M  V30 47 H 39.555515 27.332739 52.821474 0
M  V30 END ATOM
M  V30 BEGIN BOND
M  V30 1 1 5 1
M  V30 2 1 6 4
M  V30 3 1 7 5
M  V30 4 1 7 6
M  V30 5 2 8 3
M  V30 6 1 8 4
M  V30 7 1 9 6
M  V30 8 1 10 4
M  V30 9 1 11 1
M  V30 10 1 12 11
M  V30 11 1 13 12
M  V30 12 1 14 8
M  V30 13 1 16 5
M  V30 14 1 17 9
M  V30 15 1 18 2
M  V30 16 1 18 13
M  V30 17 1 18 15
M  V30 18 1 19 1
M  V30 19 1 20 1
M  V30 20 1 21 2
M  V30 21 1 22 2
M  V30 22 1 23 2
M  V30 23 1 4 24 CFG=3
M  V30 24 1 5 25 CFG=3
M  V30 25 1 6 26 CFG=1
M  V30 26 1 27 7
M  V30 27 1 28 7
M  V30 28 1 29 9
M  V30 29 1 30 9
M  V30 30 1 31 10
M  V30 31 1 32 11
M  V30 32 1 33 11
M  V30 33 1 34 12
M  V30 34 1 35 12
M  V30 35 1 36 13
M  V30 36 1 37 13
M  V30 37 1 38 15
M  V30 38 1 39 15
M  V30 39 1 40 15
M  V30 40 1 41 16
M  V30 41 1 42 16
M  V30 42 1 43 16
M  V30 43 1 44 17
M  V30 44 1 45 17
M  V30 45 1 46 17
M  V30 46 1 47 18
M  V30 END BOND
M  V30 END CTAB
M  END
>  <i_epik_Tot_Q>  (1) 
-1

>  <i_epik_Tot_abs_Q>  (1) 
1

>  <i_i_glide_confnum>  (1) 
9

>  <i_i_glide_lignum>  (1) 
103

>  <i_i_glide_posenum>  (1) 
243

>  <i_i_glide_rotatable_bonds>  (1) 
11

>  <i_lp_mmshare_version>  (1) 
72125

>  <i_m_source_file_index>  (1) 
50

>  <i_f3d_flags>  (1) 
0

>  <num_sample>  (1) 
50

>  <b_lp_Chiralities_Consistent>  (1) 
1

>  <r_epik_Charging_Adjusted_Penalty>  (1) 
0.00019702525056484194

>  <r_epik_Ionization_Penalty>  (1) 
0.00021830840852395323

>  <r_epik_Ionization_Penalty_Charging>  (1) 
0.00019702525056484194

>  <r_epik_Ionization_Penalty_Neutral>  (1) 
2.1283157959111292e-05

>  <r_epik_State_Penalty>  (1) 
-0

>  <r_glide_ring_energy>  (1) 
0

>  <r_i_docking_score>  (1) 
-3.1877594659917774

>  <r_i_glide_ecoul>  (1) 
-8.1517069809929481

>  <r_i_glide_eff_state_penalty>  (1) 
-0

>  <r_i_glide_einternal>  (1) 
8.0996127475200623

>  <r_i_glide_emodel>  (1) 
-33.236263630437662

>  <r_i_glide_emodel_strain>  (1) 
0.073359400950693043

>  <r_i_glide_energy>  (1) 
-31.637890584380159

>  <r_i_glide_erotb>  (1) 
3.728558449231691

>  <r_i_glide_esite>  (1) 
0

>  <r_i_glide_evdw>  (1) 
-23.486183603387211

>  <r_i_glide_gscore>  (1) 
-3.1877594659917774

>  <r_i_glide_gscore_strain>  (1) 
0

>  <r_i_glide_hbond>  (1) 
-0.32000000000000001

>  <r_i_glide_ligand_efficiency>  (1) 
-0.17709774811065429

>  <r_i_glide_ligand_efficiency_ln>  (1) 
-0.81939713332580177

>  <r_i_glide_ligand_efficiency_sa>  (1) 
-0.46412739929477215

>  <r_i_glide_lipo>  (1) 
-2.2301900521070857

>  <r_i_glide_metal>  (1) 
-0

>  <r_i_glide_rewards>  (1) 
-1.9690626357980792

>  <r_lp_Energy>  (1) 
17.89798

>  <r_lp_tautomer_probability>  (1) 
1

>  <s_epik_cmdline>  (1) 
J2VwaWtfcHl0aG9uJywgJy1waHQnLCAnMS4wJywgJy1waCcsICc3LjQnLCAnLXRuJywgJzgnLCAnLW1hJywgJzUwMCcsICctaW1hZScsICc8aW5maWxlLm1hZT4nLCAnLW9tYWUnLCAnPG91dGZpbGUubWFlPic=

>  <s_epik_input>  (1) 
W0NIM11bQ0hdKFtDSDNdKVtDSDJdW0NIMl1bQ0gyXVtDSDJdW0NASF0oW0NIM10pW0NIMl1bQ0BASF0oW0NIMl1bQ0gzXSlbQ0BASF0oW09IXSlDKD1PKVtPSF0=

>  <s_glide_docking_method>  (1) 
confgen

>  <s_i_glide_gridfile>  (1) 
gpcr_5ht2c_6bqh_protein_autoprepared_prepared

>  <s_lp_Force_Field>  (1) 
S-OPLS

>  <s_lp_Variant>  (1) 
DiffSBDD_49-1

>  <s_m_source_file>  (1) 
generated_GPCR_5HT2C_ligand_DiffSBDD_2026-06-23_prepared.sdf

>  <GenAI_Model>  (1) 
DiffSBDD

>  <Protein>  (1) 
GPCR_5HT2C

$$$$
DiffSBDD_49
     RDKit          3D

  0  0  0  0  0  0  0  0  0  0999 V3000
M  V30 BEGIN CTAB
M  V30 COUNTS 47 46 0 0 1
M  V30 BEGIN ATOM
M  V30 1 C 38.167051 28.288106 56.042348 0
M  V30 2 C 39.444576 30.089227 52.708709 0
M  V30 3 O 37.245139 31.737764 61.960966 0
M  V30 4 C 37.351646 31.877362 59.579827 0 CFG=2
M  V30 5 C 38.836465 29.225218 57.068765 0 CFG=1
M  V30 6 C 38.217573 31.444732 58.353669 0 CFG=1
M  V30 7 C 37.760362 30.067724 57.793075 0
M  V30 8 C 37.815241 31.301728 60.935351 0
M  V30 9 C 38.254517 32.618525 57.333084 0
M  V30 10 O 35.975181 31.583381 59.367759 0
M  V30 11 C 39.124360 27.721036 54.985441 0
M  V30 12 C 38.397881 27.273499 53.696718 0
M  V30 13 C 39.200157 27.523338 52.405229 0
M  V30 14 O 38.727037 30.444314 60.916689 0 CHG=-1
M  V30 15 C 39.771328 29.031521 50.451494 0
M  V30 16 C 39.723195 28.456943 58.062700 0
M  V30 17 C 39.008040 32.395852 56.016880 0
M  V30 18 C 39.024616 28.931088 51.785655 0
M  V30 19 H 37.645140 27.476605 56.548726 0
M  V30 20 H 37.409728 28.869150 55.514398 0
M  V30 21 H 40.445151 29.946104 53.103943 0
M  V30 22 H 39.459924 31.045458 52.186276 0
M  V30 23 H 38.758683 30.190741 53.549141 0
M  V30 24 H 37.424591 32.958923 59.697186 0
M  V30 25 H 39.489891 29.894949 56.517520 0
M  V30 26 H 39.244941 31.325352 58.690801 0
M  V30 27 H 37.362215 29.455119 58.603309 0
M  V30 28 H 36.907124 30.236802 57.137963 0
M  V30 29 H 37.245137 32.937768 57.090212 0
M  V30 30 H 38.707125 33.479478 57.825391 0
M  V30 31 H 35.755511 31.737755 58.438251 0
M  V30 32 H 39.856531 28.488411 54.756996 0
M  V30 33 H 39.701452 26.893008 55.398258 0
M  V30 34 H 38.175905 26.209244 53.783981 0
M  V30 35 H 37.426195 27.758765 53.596003 0
M  V30 36 H 40.251967 27.298369 52.567762 0
M  V30 37 H 38.863886 26.798418 51.663232 0
M  V30 38 H 40.845133 28.937769 50.600160 0
M  V30 39 H 39.448176 28.248353 49.767868 0
M  V30 40 H 39.591146 29.989414 49.962304 0
M  V30 41 H 39.140783 27.744819 58.648137 0
M  V30 42 H 40.510090 27.904063 57.549487 0
M  V30 43 H 40.208473 29.136386 58.763702 0
M  V30 44 H 39.012759 33.311390 55.425080 0
M  V30 45 H 40.045137 32.108667 56.184162 0
M  V30 46 H 38.521532 31.631748 55.412420 0
M  V30 47 H 37.965325 29.049490 51.564359 0
M  V30 END ATOM
M  V30 BEGIN BOND
M  V30 1 1 5 1
M  V30 2 1 6 4
M  V30 3 1 7 5
M  V30 4 1 7 6
M  V30 5 2 8 3
M  V30 6 1 8 4
M  V30 7 1 9 6
M  V30 8 1 10 4
M  V30 9 1 11 1
M  V30 10 1 12 11
M  V30 11 1 13 12
M  V30 12 1 14 8
M  V30 13 1 16 5
M  V30 14 1 17 9
M  V30 15 1 18 2
M  V30 16 1 18 13
M  V30 17 1 18 15
M  V30 18 1 19 1
M  V30 19 1 20 1
M  V30 20 1 21 2
M  V30 21 1 22 2
M  V30 22 1 23 2
M  V30 23 1 4 24 CFG=1
M  V30 24 1 5 25 CFG=3
M  V30 25 1 6 26 CFG=1
M  V30 26 1 27 7
M  V30 27 1 28 7
M  V30 28 1 29 9
M  V30 29 1 30 9
M  V30 30 1 31 10
M  V30 31 1 32 11
M  V30 32 1 33 11
M  V30 33 1 34 12
M  V30 34 1 35 12
M  V30 35 1 36 13
M  V30 36 1 37 13
M  V30 37 1 38 15
M  V30 38 1 39 15
M  V30 39 1 40 15
M  V30 40 1 41 16
M  V30 41 1 42 16
M  V30 42 1 43 16
M  V30 43 1 44 17
M  V30 44 1 45 17
M  V30 45 1 46 17
M  V30 46 1 47 18
M  V30 END BOND
M  V30 END CTAB
M  END
>  <i_epik_Tot_Q>  (1) 
-1

>  <i_epik_Tot_abs_Q>  (1) 
1

>  <i_i_glide_confnum>  (1) 
315

>  <i_i_glide_lignum>  (1) 
103

>  <i_i_glide_posenum>  (1) 
158

>  <i_i_glide_rotatable_bonds>  (1) 
11

>  <i_lp_mmshare_version>  (1) 
72125

>  <i_m_source_file_index>  (1) 
50

>  <i_f3d_flags>  (1) 
0

>  <num_sample>  (1) 
50

>  <b_lp_Chiralities_Consistent>  (1) 
1

>  <r_epik_Charging_Adjusted_Penalty>  (1) 
0.00019702525056484194

>  <r_epik_Ionization_Penalty>  (1) 
0.00021830840852395323

>  <r_epik_Ionization_Penalty_Charging>  (1) 
0.00019702525056484194

>  <r_epik_Ionization_Penalty_Neutral>  (1) 
2.1283157959111292e-05

>  <r_epik_State_Penalty>  (1) 
-0

>  <r_glide_ring_energy>  (1) 
0

>  <r_i_docking_score>  (1) 
-3.0964060728264307

>  <r_i_glide_ecoul>  (1) 
-8.3960497301501125

>  <r_i_glide_eff_state_penalty>  (1) 
-0

>  <r_i_glide_einternal>  (1) 
11.025164706457812

>  <r_i_glide_emodel>  (1) 
-28.463754234084714

>  <r_i_glide_emodel_strain>  (1) 
1.348858166985206

>  <r_i_glide_energy>  (1) 
-29.767621248662003

>  <r_i_glide_erotb>  (1) 
3.728558449231691

>  <r_i_glide_esite>  (1) 
0

>  <r_i_glide_evdw>  (1) 
-21.371571518511892

>  <r_i_glide_gscore>  (1) 
-3.0964060728264307

>  <r_i_glide_gscore_strain>  (1) 
0

>  <r_i_glide_hbond>  (1) 
-0.32000000000000001

>  <r_i_glide_ligand_efficiency>  (1) 
-0.17202255960146837

>  <r_i_glide_ligand_efficiency_ln>  (1) 
-0.79591521466856041

>  <r_i_glide_ligand_efficiency_sa>  (1) 
-0.45082664268533523

>  <r_i_glide_lipo>  (1) 
-2.0821017238205277

>  <r_i_glide_metal>  (1) 
-0

>  <r_i_glide_rewards>  (1) 
-2.0948767627894824

>  <r_lp_Energy>  (1) 
17.89798

>  <r_lp_tautomer_probability>  (1) 
1

>  <s_epik_cmdline>  (1) 
J2VwaWtfcHl0aG9uJywgJy1waHQnLCAnMS4wJywgJy1waCcsICc3LjQnLCAnLXRuJywgJzgnLCAnLW1hJywgJzUwMCcsICctaW1hZScsICc8aW5maWxlLm1hZT4nLCAnLW9tYWUnLCAnPG91dGZpbGUubWFlPic=

>  <s_epik_input>  (1) 
W0NIM11bQ0hdKFtDSDNdKVtDSDJdW0NIMl1bQ0gyXVtDSDJdW0NASF0oW0NIM10pW0NIMl1bQ0BASF0oW0NIMl1bQ0gzXSlbQ0BASF0oW09IXSlDKD1PKVtPSF0=

>  <s_glide_docking_method>  (1) 
confgen

>  <s_i_glide_gridfile>  (1) 
gpcr_5ht2c_6bqh_protein_autoprepared_prepared

>  <s_lp_Force_Field>  (1) 
S-OPLS

>  <s_lp_Variant>  (1) 
DiffSBDD_49-1

>  <s_m_source_file>  (1) 
generated_GPCR_5HT2C_ligand_DiffSBDD_2026-06-23_prepared.sdf

>  <GenAI_Model>  (1) 
DiffSBDD

>  <Protein>  (1) 
GPCR_5HT2C

$$$$
DiffSBDD_2
     RDKit          3D

  0  0  0  0  0  0  0  0  0  0999 V3000
M  V30 BEGIN CTAB
M  V30 COUNTS 85 88 0 0 1
M  V30 BEGIN ATOM
M  V30 1 C 37.782148 36.722949 61.493696 0 CFG=1
M  V30 2 C 38.799799 26.416216 54.926538 0
M  V30 3 C 36.323912 28.937761 58.769553 0
M  V30 4 C 39.626390 35.231593 60.678836 0
M  V30 5 C 39.736284 26.996593 55.648533 0
M  V30 6 C 37.611645 33.556563 59.106639 0
M  V30 7 C 39.593840 29.500749 54.977325 0 CFG=2
M  V30 8 C 38.583400 36.971947 63.813189 0
M  V30 9 C 37.672580 32.371561 60.086195 0
M  V30 10 C 39.072205 30.211578 57.254335 0 CFG=1
M  V30 11 N 39.777716 28.368835 55.896465 0
M  V30 12 C 37.431925 37.768837 60.404070 0
M  V30 13 C 37.530247 24.840588 57.106361 0
M  V30 14 C 38.976176 30.673853 55.798259 0
M  V30 15 N 38.051851 30.772323 58.190008 0 CFG=2 CHG=1
M  V30 16 C 39.824974 25.741487 57.776976 0
M  V30 17 C 37.695084 25.732841 54.757079 0
M  V30 18 C 39.034450 28.716570 57.092510 0
M  V30 19 C 38.529820 31.229524 59.533099 0 CFG=2
M  V30 20 C 37.382064 24.514886 55.610987 0
M  V30 21 C 40.613702 26.159927 56.557698 0
M  V30 22 C 39.024389 30.137760 52.567777 0
M  V30 23 C 37.070752 37.127253 63.801446 0
M  V30 24 C 40.406407 30.449899 52.059867 0
M  V30 25 C 37.211083 34.883312 59.749895 0
M  V30 26 C 38.839459 29.138677 53.669557 0 CFG=2
M  V30 27 C 36.581873 36.643287 62.464150 0
M  V30 28 F 36.445140 24.937742 57.852927 0
M  V30 29 S 40.449672 36.118618 61.999950 0
M  V30 30 C 37.311850 28.972447 53.858639 0
M  V30 31 C 38.767782 30.149611 60.596607 0
M  V30 32 C 38.675061 25.138100 57.657263 0
M  V30 33 C 38.111278 35.321585 60.930063 0 CFG=2
M  V30 34 C 36.677845 30.225436 58.100163 0
M  V30 35 C 39.003108 37.147652 62.357798 0 CFG=1
M  V30 36 H 35.245038 28.885598 58.919466 0
M  V30 37 H 36.596630 28.069297 58.167788 0
M  V30 38 H 36.761146 28.937762 59.760377 0
M  V30 39 H 39.982359 34.201784 60.634340 0
M  V30 40 H 39.933300 35.724155 59.767805 0
M  V30 41 H 38.575477 33.686767 58.612854 0
M  V30 42 H 36.902923 33.335609 58.307494 0
M  V30 43 H 40.607717 29.799624 54.719044 0
M  V30 44 H 38.851245 35.975962 64.153416 0
M  V30 45 H 39.080047 37.684906 64.473630 0
M  V30 46 H 36.667307 32.051484 60.361150 0
M  V30 47 H 38.143241 32.664898 61.021781 0
M  V30 48 H 40.045186 30.483215 57.616043 0
M  V30 49 H 37.490196 38.787299 60.792399 0
M  V30 50 H 38.045114 37.709112 59.513880 0
M  V30 51 H 36.411053 37.628976 60.047619 0
M  V30 52 H 37.941161 30.879687 55.535098 0
M  V30 53 H 39.518934 31.607844 55.636936 0
M  V30 54 H 40.166183 26.111780 58.729282 0
M  V30 55 H 36.884499 26.120552 54.160734 0
M  V30 56 H 38.032713 28.369802 56.872006 0
M  V30 57 H 39.397586 28.229267 57.993097 0
M  V30 58 H 39.496662 31.686789 59.396605 0
M  V30 59 H 36.365346 24.179806 55.411959 0
M  V30 60 H 38.045038 23.698798 55.339270 0
M  V30 61 H 40.845154 25.266403 55.985787 0
M  V30 62 H 41.528358 26.683246 56.838788 0
M  V30 63 H 38.459802 29.737744 51.718349 0
M  V30 64 H 38.625371 31.074020 52.967783 0
M  V30 65 H 36.560968 36.666134 64.646790 0
M  V30 66 H 36.811787 38.173098 63.767732 0
M  V30 67 H 40.364500 31.052291 51.151848 0
M  V30 68 H 40.845263 31.066622 52.830932 0
M  V30 69 H 40.972857 29.546729 51.838074 0
M  V30 70 H 37.228981 35.627208 58.955271 0
M  V30 71 H 36.174209 34.830959 60.084346 0
M  V30 72 H 39.262263 28.233628 53.242297 0
M  V30 73 H 36.143232 35.647493 62.542274 0
M  V30 74 H 35.792956 37.337819 62.174839 0
M  V30 75 H 36.822045 29.929443 54.006711 0
M  V30 76 H 36.848697 28.506591 52.989595 0
M  V30 77 H 37.053858 28.382217 54.726711 0
M  V30 78 H 39.636139 30.404575 61.205623 0
M  V30 79 H 37.926027 30.137665 61.288166 0
M  V30 80 H 38.940836 29.152500 60.191219 0
M  V30 81 H 37.934213 34.630869 61.753792 0
M  V30 82 H 36.015514 30.944684 58.567774 0
M  V30 83 H 36.445015 30.137715 57.042090 0
M  V30 84 H 39.272603 38.186466 62.169774 0
M  V30 85 H 37.896325 31.670572 57.748766 0
M  V30 END ATOM
M  V30 BEGIN BOND
M  V30 1 2 5 2
M  V30 2 1 9 6
M  V30 3 1 11 5
M  V30 4 1 11 7
M  V30 5 1 1 12 CFG=3
M  V30 6 1 14 7
M  V30 7 1 14 10
M  V30 8 1 15 10
M  V30 9 2 17 2
M  V30 10 1 18 10
M  V30 11 1 18 11
M  V30 12 1 19 9
M  V30 13 1 19 15
M  V30 14 1 20 13
M  V30 15 1 20 17
M  V30 16 1 21 5
M  V30 17 1 21 16
M  V30 18 1 23 8
M  V30 19 1 24 22
M  V30 20 1 25 6
M  V30 21 1 26 7
M  V30 22 1 26 22
M  V30 23 1 27 1
M  V30 24 1 27 23
M  V30 25 1 28 13
M  V30 26 1 29 4
M  V30 27 1 30 26
M  V30 28 1 31 19
M  V30 29 2 32 13
M  V30 30 2 32 16
M  V30 31 1 33 1
M  V30 32 1 33 4
M  V30 33 1 33 25
M  V30 34 1 34 3
M  V30 35 1 34 15
M  V30 36 1 35 1
M  V30 37 1 35 8
M  V30 38 1 35 29
M  V30 39 1 36 3
M  V30 40 1 37 3
M  V30 41 1 38 3
M  V30 42 1 39 4
M  V30 43 1 40 4
M  V30 44 1 41 6
M  V30 45 1 42 6
M  V30 46 1 7 43 CFG=3
M  V30 47 1 44 8
M  V30 48 1 45 8
M  V30 49 1 46 9
M  V30 50 1 47 9
M  V30 51 1 10 48 CFG=1
M  V30 52 1 49 12
M  V30 53 1 50 12
M  V30 54 1 51 12
M  V30 55 1 52 14
M  V30 56 1 53 14
M  V30 57 1 54 16
M  V30 58 1 55 17
M  V30 59 1 56 18
M  V30 60 1 57 18
M  V30 61 1 19 58 CFG=3
M  V30 62 1 59 20
M  V30 63 1 60 20
M  V30 64 1 61 21
M  V30 65 1 62 21
M  V30 66 1 63 22
M  V30 67 1 64 22
M  V30 68 1 65 23
M  V30 69 1 66 23
M  V30 70 1 67 24
M  V30 71 1 68 24
M  V30 72 1 69 24
M  V30 73 1 70 25
M  V30 74 1 71 25
M  V30 75 1 26 72 CFG=3
M  V30 76 1 73 27
M  V30 77 1 74 27
M  V30 78 1 75 30
M  V30 79 1 76 30
M  V30 80 1 77 30
M  V30 81 1 78 31
M  V30 82 1 79 31
M  V30 83 1 80 31
M  V30 84 1 33 81 CFG=1
M  V30 85 1 82 34
M  V30 86 1 83 34
M  V30 87 1 35 84 CFG=1
M  V30 88 1 15 85 CFG=3
M  V30 END BOND
M  V30 END CTAB
M  END
>  <i_epik_Tot_Q>  (1) 
1

>  <i_epik_Tot_abs_Q>  (1) 
1

>  <i_i_glide_confnum>  (1) 
1007

>  <i_i_glide_lignum>  (1) 
10

>  <i_i_glide_posenum>  (1) 
78

>  <i_i_glide_rotatable_bonds>  (1) 
10

>  <i_lp_mmshare_version>  (1) 
72125

>  <i_m_source_file_index>  (1) 
3

>  <i_f3d_flags>  (1) 
0

>  <num_sample>  (1) 
50

>  <b_lp_Chiralities_Consistent>  (1) 
1

>  <r_epik_Charging_Adjusted_Penalty>  (1) 
0.074245454784308482

>  <r_epik_Ionization_Penalty>  (1) 
0.013686655559845946

>  <r_epik_Ionization_Penalty_Charging>  (1) 
0.012771505238954846

>  <r_epik_Ionization_Penalty_Neutral>  (1) 
0.00091515032089109971

>  <r_epik_State_Penalty>  (1) 
0.06147394954535363

>  <r_glide_ring_energy>  (1) 
1.3016869551617385

>  <r_i_docking_score>  (1) 
-3.0107589103041406

>  <r_i_glide_ecoul>  (1) 
-1.7833110644502854

>  <r_i_glide_eff_state_penalty>  (1) 
0.06147394954535363

>  <r_i_glide_einternal>  (1) 
8.8646405001694326

>  <r_i_glide_emodel>  (1) 
1.1546244699821671

>  <r_i_glide_emodel_strain>  (1) 
22.646374257591376

>  <r_i_glide_energy>  (1) 
-23.547534201549396

>  <r_i_glide_erotb>  (1) 
0.64899532480163924

>  <r_i_glide_esite>  (1) 
-0.07230416022585516

>  <r_i_glide_evdw>  (1) 
-21.764223137099112

>  <r_i_glide_gscore>  (1) 
-3.0722328598494943

>  <r_i_glide_gscore_strain>  (1) 
4.6615935643978439

>  <r_i_glide_hbond>  (1) 
0

>  <r_i_glide_ligand_efficiency>  (1) 
-0.086021683151546874

>  <r_i_glide_ligand_efficiency_ln>  (1) 
-0.66092840100559636

>  <r_i_glide_ligand_efficiency_sa>  (1) 
-0.28138262970274247

>  <r_i_glide_lipo>  (1) 
-5.5742119706667355

>  <r_i_glide_metal>  (1) 
-0

>  <r_i_glide_rewards>  (1) 
-1.380597801633888

>  <r_lp_Energy>  (1) 
18.681577999999998

>  <s_epik_cmdline>  (1) 
J2VwaWtfcHl0aG9uJywgJy1waHQnLCAnMS4wJywgJy1waCcsICc3LjQnLCAnLXRuJywgJzgnLCAnLW1hJywgJzUwMCcsICctaW1hZScsICc8aW5maWxlLm1hZT4nLCAnLW9tYWUnLCAnPG91dGZpbGUubWFlPic=

>  <s_epik_input>  (1) 
W0NIMl0xW0NIMl1bQ0gyXVtDQEhdKFtDQF0xMltDSDNdKVNbQ0gyXVtDQEBIXTJbQ0gyXVtDSDJdW0NIMl1bQ0BASF0oW0NIM10pTihbQ0gyXVtDSDNdKVtDQEhdKFtDSDJdMylbQ0gyXU4oW0NASF0zW0NAQEhdKFtDSDNdKVtDSDJdW0NIM10pQzQ9Qz1bQ0hdW0NIMl1DKEYpPUM9W0NIXVtDSDJdNA==

>  <s_glide_docking_method>  (1) 
confgen

>  <s_i_glide_gridfile>  (1) 
gpcr_5ht2c_6bqh_protein_autoprepared_prepared

>  <s_lp_Force_Field>  (1) 
S-OPLS

>  <s_lp_Variant>  (1) 
DiffSBDD_2-2

>  <s_m_source_file>  (1) 
generated_GPCR_5HT2C_ligand_DiffSBDD_2026-06-23_prepared.sdf

>  <GenAI_Model>  (1) 
DiffSBDD

>  <Protein>  (1) 
GPCR_5HT2C

$$$$
DiffSBDD_49
     RDKit          3D

  0  0  0  0  0  0  0  0  0  0999 V3000
M  V30 BEGIN CTAB
M  V30 COUNTS 47 46 0 0 1
M  V30 BEGIN ATOM
M  V30 1 C 38.469190 27.130689 54.712913 0
M  V30 2 C 39.875158 31.082029 51.897408 0
M  V30 3 O 38.743330 28.576336 59.710080 0
M  V30 4 C 37.945109 30.506327 58.539284 0 CFG=2
M  V30 5 C 39.176209 28.161180 55.631258 0 CFG=1
M  V30 6 C 38.591622 30.214791 57.149052 0 CFG=1
M  V30 7 C 38.165592 28.839856 56.574613 0
M  V30 8 C 38.728595 29.827933 59.684630 0
M  V30 9 C 38.321029 31.330133 56.106123 0
M  V30 10 O 36.570786 30.137755 58.567761 0
M  V30 11 C 39.101298 27.018938 53.315524 0
M  V30 12 C 38.771833 28.217009 52.413465 0
M  V30 13 C 39.865853 28.544008 51.375252 0
M  V30 14 O 39.299725 30.581895 60.504718 0 CHG=-1
M  V30 15 C 40.889541 30.219519 49.782942 0
M  V30 16 C 40.315764 27.504351 56.426486 0
M  V30 17 C 38.968052 32.689273 56.412212 0
M  V30 18 C 39.796852 29.979561 50.827302 0
M  V30 19 H 38.467236 26.153089 55.196398 0
M  V30 20 H 37.416441 27.381792 54.576570 0
M  V30 21 H 40.846783 31.154998 52.350804 0
M  V30 22 H 39.645159 32.035884 51.435116 0
M  V30 23 H 39.195815 30.982535 52.733560 0
M  V30 24 H 37.978490 31.575238 58.744782 0
M  V30 25 H 39.621818 28.933998 55.006246 0
M  V30 26 H 39.671123 30.190622 57.299368 0
M  V30 27 H 37.902166 28.138167 57.365179 0
M  V30 28 H 37.245135 29.017538 56.029170 0
M  V30 29 H 38.696931 31.008601 55.135788 0
M  V30 30 H 37.246899 31.458882 55.967771 0
M  V30 31 H 36.105889 30.704452 57.947149 0
M  V30 32 H 40.173608 26.863283 53.410000 0
M  V30 33 H 38.714289 26.137756 52.825397 0
M  V30 34 H 37.823448 28.045420 51.902531 0
M  V30 35 H 38.576575 29.065743 53.057412 0
M  V30 36 H 40.865523 28.386834 51.767901 0
M  V30 37 H 39.777025 27.833039 50.552378 0
M  V30 38 H 41.882090 30.137692 50.226752 0
M  V30 39 H 40.818069 29.500586 48.967703 0
M  V30 40 H 40.808702 31.223666 49.367769 0
M  V30 41 H 39.930263 26.796432 57.161279 0
M  V30 42 H 40.986893 26.958914 55.767788 0
M  V30 43 H 40.908423 28.244352 56.964363 0
M  V30 44 H 38.799163 33.383173 55.588202 0
M  V30 45 H 38.550862 33.151036 57.306375 0
M  V30 46 H 40.045137 32.596316 56.548345 0
M  V30 47 H 38.845159 30.081765 50.321442 0
M  V30 END ATOM
M  V30 BEGIN BOND
M  V30 1 1 5 1
M  V30 2 1 6 4
M  V30 3 1 7 5
M  V30 4 1 7 6
M  V30 5 2 8 3
M  V30 6 1 8 4
M  V30 7 1 9 6
M  V30 8 1 10 4
M  V30 9 1 11 1
M  V30 10 1 12 11
M  V30 11 1 13 12
M  V30 12 1 14 8
M  V30 13 1 16 5
M  V30 14 1 17 9
M  V30 15 1 18 2
M  V30 16 1 18 13
M  V30 17 1 18 15
M  V30 18 1 19 1
M  V30 19 1 20 1
M  V30 20 1 21 2
M  V30 21 1 22 2
M  V30 22 1 23 2
M  V30 23 1 4 24 CFG=1
M  V30 24 1 5 25 CFG=3
M  V30 25 1 6 26 CFG=1
M  V30 26 1 27 7
M  V30 27 1 28 7
M  V30 28 1 29 9
M  V30 29 1 30 9
M  V30 30 1 31 10
M  V30 31 1 32 11
M  V30 32 1 33 11
M  V30 33 1 34 12
M  V30 34 1 35 12
M  V30 35 1 36 13
M  V30 36 1 37 13
M  V30 37 1 38 15
M  V30 38 1 39 15
M  V30 39 1 40 15
M  V30 40 1 41 16
M  V30 41 1 42 16
M  V30 42 1 43 16
M  V30 43 1 44 17
M  V30 44 1 45 17
M  V30 45 1 46 17
M  V30 46 1 47 18
M  V30 END BOND
M  V30 END CTAB
M  END
>  <i_epik_Tot_Q>  (1) 
-1

>  <i_epik_Tot_abs_Q>  (1) 
1

>  <i_i_glide_confnum>  (1) 
9

>  <i_i_glide_lignum>  (1) 
103

>  <i_i_glide_posenum>  (1) 
243

>  <i_i_glide_rotatable_bonds>  (1) 
11

>  <i_lp_mmshare_version>  (1) 
72125

>  <i_m_source_file_index>  (1) 
50

>  <i_f3d_flags>  (1) 
0

>  <num_sample>  (1) 
50

>  <b_lp_Chiralities_Consistent>  (1) 
1

>  <r_epik_Charging_Adjusted_Penalty>  (1) 
0.00019702525056484194

>  <r_epik_Ionization_Penalty>  (1) 
0.00021830840852395323

>  <r_epik_Ionization_Penalty_Charging>  (1) 
0.00019702525056484194

>  <r_epik_Ionization_Penalty_Neutral>  (1) 
2.1283157959111292e-05

>  <r_epik_State_Penalty>  (1) 
-0

>  <r_glide_ring_energy>  (1) 
0

>  <r_i_docking_score>  (1) 
-2.9889528294339835

>  <r_i_glide_ecoul>  (1) 
-5.0033535842392105

>  <r_i_glide_eff_state_penalty>  (1) 
-0

>  <r_i_glide_einternal>  (1) 
10.792624816144729

>  <r_i_glide_emodel>  (1) 
-25.155408815917472

>  <r_i_glide_emodel_strain>  (1) 
1.8646843882395459

>  <r_i_glide_energy>  (1) 
-27.051694181051509

>  <r_i_glide_erotb>  (1) 
3.728558449231691

>  <r_i_glide_esite>  (1) 
0

>  <r_i_glide_evdw>  (1) 
-22.048340596812299

>  <r_i_glide_gscore>  (1) 
-2.9889528294339835

>  <r_i_glide_gscore_strain>  (1) 
0

>  <r_i_glide_hbond>  (1) 
-0.16

>  <r_i_glide_ligand_efficiency>  (1) 
-0.16605293496855464

>  <r_i_glide_ligand_efficiency_ln>  (1) 
-0.76829491252793525

>  <r_i_glide_ligand_efficiency_sa>  (1) 
-0.43518180030196918

>  <r_i_glide_lipo>  (1) 
-2.2287512262977622

>  <r_i_glide_metal>  (1) 
-0

>  <r_i_glide_rewards>  (1) 
-2.4758399848914148

>  <r_lp_Energy>  (1) 
17.89798

>  <r_lp_tautomer_probability>  (1) 
1

>  <s_epik_cmdline>  (1) 
J2VwaWtfcHl0aG9uJywgJy1waHQnLCAnMS4wJywgJy1waCcsICc3LjQnLCAnLXRuJywgJzgnLCAnLW1hJywgJzUwMCcsICctaW1hZScsICc8aW5maWxlLm1hZT4nLCAnLW9tYWUnLCAnPG91dGZpbGUubWFlPic=

>  <s_epik_input>  (1) 
W0NIM11bQ0hdKFtDSDNdKVtDSDJdW0NIMl1bQ0gyXVtDSDJdW0NASF0oW0NIM10pW0NIMl1bQ0BASF0oW0NIMl1bQ0gzXSlbQ0BASF0oW09IXSlDKD1PKVtPSF0=

>  <s_glide_docking_method>  (1) 
confgen

>  <s_i_glide_gridfile>  (1) 
gpcr_5ht2c_6bqh_protein_autoprepared_prepared

>  <s_lp_Force_Field>  (1) 
S-OPLS

>  <s_lp_Variant>  (1) 
DiffSBDD_49-1

>  <s_m_source_file>  (1) 
generated_GPCR_5HT2C_ligand_DiffSBDD_2026-06-23_prepared.sdf

>  <GenAI_Model>  (1) 
DiffSBDD

>  <Protein>  (1) 
GPCR_5HT2C

$$$$
DiffSBDD_37
     RDKit          3D

  0  0  0  0  0  0  0  0  0  0999 V3000
M  V30 BEGIN CTAB
M  V30 COUNTS 52 52 0 0 1
M  V30 BEGIN ATOM
M  V30 1 C 39.661857 29.761658 50.501977 0
M  V30 2 C 40.931252 33.858262 63.438539 0
M  V30 3 C 39.002170 31.604604 55.448602 0
M  V30 4 C 38.018795 30.545830 54.926674 0
M  V30 5 C 38.669462 29.152123 54.825546 0
M  V30 6 C 41.199719 35.371164 63.479333 0
M  V30 7 O 41.547564 32.444188 61.589916 0
M  V30 8 C 39.645073 31.177411 49.975989 0
M  V30 9 C 38.477135 32.744634 58.275604 0
M  V30 10 C 40.958895 30.458081 50.156044 0
M  V30 11 C 40.774462 33.295355 62.025879 0
M  V30 12 C 38.045449 28.237862 53.750140 0
M  V30 13 C 38.429813 28.523280 52.300035 0
M  V30 14 C 38.568161 32.744428 60.841516 0
M  V30 15 O 41.484354 35.737752 64.811642 0
M  V30 16 C 39.289155 29.484479 51.911596 0
M  V30 17 N 37.645174 33.009312 57.079950 0 CHG=1
M  V30 18 C 39.614790 33.827806 61.174498 0
M  V30 19 C 38.353986 32.966657 55.776493 0
M  V30 20 C 37.730822 33.056757 59.584348 0
M  V30 21 H 39.320947 28.988473 49.814733 0
M  V30 22 H 41.762982 33.335941 63.912824 0
M  V30 23 H 40.045685 33.608753 64.018676 0
M  V30 24 H 39.749780 31.760976 54.669857 0
M  V30 25 H 39.565979 31.219654 56.296634 0
M  V30 26 H 37.141201 30.485217 55.572062 0
M  V30 27 H 37.651310 30.864899 53.951573 0
M  V30 28 H 39.744627 29.231377 54.663703 0
M  V30 29 H 38.572770 28.666941 55.797306 0
M  V30 30 H 40.333967 35.938804 63.137070 0
M  V30 31 H 42.044350 35.645873 62.847111 0
M  V30 32 H 39.266576 31.332242 48.967955 0
M  V30 33 H 39.390888 31.963477 50.681093 0
M  V30 34 H 39.390284 33.337602 58.215920 0
M  V30 35 H 38.773973 31.695774 58.283225 0
M  V30 36 H 41.597504 30.799062 50.967452 0
M  V30 37 H 41.482345 30.138215 49.258147 0
M  V30 38 H 38.340974 27.208071 53.952792 0
M  V30 39 H 36.958072 28.259085 53.832522 0
M  V30 40 H 37.966179 27.894955 51.551713 0
M  V30 41 H 39.037437 31.766025 60.726264 0
M  V30 42 H 37.898111 32.649169 61.696987 0
M  V30 43 H 41.645993 36.678919 64.846100 0
M  V30 44 H 39.752096 30.112669 52.656076 0
M  V30 45 H 36.855153 32.360086 57.034793 0
M  V30 46 H 39.131273 34.667445 61.672634 0
M  V30 47 H 40.045121 34.222278 60.254848 0
M  V30 48 H 37.645738 33.240235 54.992023 0
M  V30 49 H 39.123346 33.737755 55.768507 0
M  V30 50 H 36.818885 32.457689 59.614633 0
M  V30 51 H 37.408610 34.098865 59.602565 0
M  V30 52 H 37.245853 33.932137 57.171845 0
M  V30 END ATOM
M  V30 BEGIN BOND
M  V30 1 1 4 3
M  V30 2 1 5 4
M  V30 3 1 6 2
M  V30 4 1 8 1
M  V30 5 1 10 1
M  V30 6 1 10 8
M  V30 7 1 11 2
M  V30 8 2 11 7
M  V30 9 1 12 5
M  V30 10 1 13 12
M  V30 11 1 15 6
M  V30 12 1 16 1
M  V30 13 2 16 13
M  V30 14 1 17 9
M  V30 15 1 18 11
M  V30 16 1 18 14
M  V30 17 1 19 3
M  V30 18 1 19 17
M  V30 19 1 20 9
M  V30 20 1 20 14
M  V30 21 1 21 1
M  V30 22 1 22 2
M  V30 23 1 23 2
M  V30 24 1 24 3
M  V30 25 1 25 3
M  V30 26 1 26 4
M  V30 27 1 27 4
M  V30 28 1 28 5
M  V30 29 1 29 5
M  V30 30 1 30 6
M  V30 31 1 31 6
M  V30 32 1 32 8
M  V30 33 1 33 8
M  V30 34 1 34 9
M  V30 35 1 35 9
M  V30 36 1 36 10
M  V30 37 1 37 10
M  V30 38 1 38 12
M  V30 39 1 39 12
M  V30 40 1 40 13
M  V30 41 1 41 14
M  V30 42 1 42 14
M  V30 43 1 43 15
M  V30 44 1 44 16
M  V30 45 1 45 17
M  V30 46 1 46 18
M  V30 47 1 47 18
M  V30 48 1 48 19
M  V30 49 1 49 19
M  V30 50 1 50 20
M  V30 51 1 51 20
M  V30 52 1 52 17
M  V30 END BOND
M  V30 END CTAB
M  END
>  <i_epik_Tot_Q>  (1) 
1

>  <i_epik_Tot_abs_Q>  (1) 
1

>  <i_i_glide_confnum>  (1) 
1194

>  <i_i_glide_lignum>  (1) 
79

>  <i_i_glide_posenum>  (1) 
318

>  <i_i_glide_rotatable_bonds>  (1) 
15

>  <i_lp_mmshare_version>  (1) 
72125

>  <i_m_source_file_index>  (1) 
38

>  <i_f3d_flags>  (1) 
0

>  <num_sample>  (1) 
50

>  <b_lp_Chiralities_Consistent>  (1) 
1

>  <r_epik_Charging_Adjusted_Penalty>  (1) 
0.00044471717516118901

>  <r_epik_Ionization_Penalty>  (1) 
0.00044477137766854211

>  <r_epik_Ionization_Penalty_Charging>  (1) 
0.00044471717516118901

>  <r_epik_Ionization_Penalty_Neutral>  (1) 
5.4202507353122852e-08

>  <r_epik_State_Penalty>  (1) 
-0

>  <r_glide_ring_energy>  (1) 
0

>  <r_i_docking_score>  (1) 
-2.9664890852921499

>  <r_i_glide_ecoul>  (1) 
-10.035025084603056

>  <r_i_glide_eff_state_penalty>  (1) 
-0

>  <r_i_glide_einternal>  (1) 
14.294819214292215

>  <r_i_glide_emodel>  (1) 
-41.534036344443699

>  <r_i_glide_emodel_strain>  (1) 
0.8136600670464631

>  <r_i_glide_energy>  (1) 
-40.397476806056574

>  <r_i_glide_erotb>  (1) 
5.8968889253399706

>  <r_i_glide_esite>  (1) 
-0.10000000000000001

>  <r_i_glide_evdw>  (1) 
-30.362451721453517

>  <r_i_glide_gscore>  (1) 
-2.9664890852921499

>  <r_i_glide_gscore_strain>  (1) 
0

>  <r_i_glide_hbond>  (1) 
-0.52000000000000002

>  <r_i_glide_ligand_efficiency>  (1) 
-0.1483244542646075

>  <r_i_glide_ligand_efficiency_ln>  (1) 
-0.74241437669036225

>  <r_i_glide_ligand_efficiency_sa>  (1) 
-0.40261451162767614

>  <r_i_glide_lipo>  (1) 
-2.8036034087238222

>  <r_i_glide_metal>  (1) 
-0

>  <r_i_glide_rewards>  (1) 
-2.416398253145164

>  <r_lp_Energy>  (1) 
10.148906

>  <r_lp_tautomer_probability>  (1) 
1

>  <s_epik_cmdline>  (1) 
J2VwaWtfcHl0aG9uJywgJy1waHQnLCAnMS4wJywgJy1waCcsICc3LjQnLCAnLXRuJywgJzgnLCAnLW1hJywgJzUwMCcsICctaW1hZScsICc8aW5maWxlLm1hZT4nLCAnLW9tYWUnLCAnPG91dGZpbGUubWFlPic=

>  <s_epik_input>  (1) 
W0NIMl0xW0NIMl1bQ0hdMVxbQ0hdPVtDSF1cW0NIMl1bQ0gyXVtDSDJdW0NIMl1bQ0gyXVtOSF1bQ0gyXVtDSDJdW0NIMl1bQ0gyXUMoPU8pW0NIMl1bQ0gyXVtPSF0=

>  <s_glide_docking_method>  (1) 
confgen

>  <s_i_glide_gridfile>  (1) 
gpcr_5ht2c_6bqh_protein_autoprepared_prepared

>  <s_lp_Force_Field>  (1) 
S-OPLS

>  <s_lp_Variant>  (1) 
DiffSBDD_37-2

>  <s_m_source_file>  (1) 
generated_GPCR_5HT2C_ligand_DiffSBDD_2026-06-23_prepared.sdf

>  <GenAI_Model>  (1) 
DiffSBDD

>  <Protein>  (1) 
GPCR_5HT2C

$$$$
DiffSBDD_31
     RDKit          3D

  0  0  0  0  0  0  0  0  0  0999 V3000
M  V30 BEGIN CTAB
M  V30 COUNTS 51 52 0 0 1
M  V30 BEGIN ATOM
M  V30 1 C 38.793272 28.547096 57.721922 0
M  V30 2 C 39.096746 28.321091 53.802354 0
M  V30 3 C 36.170481 33.329033 59.814203 0
M  V30 4 C 37.951144 33.134881 58.129495 0
M  V30 5 C 41.213303 30.666890 50.442129 0
M  V30 6 N 38.111123 29.832484 57.839979 0
M  V30 7 C 34.901800 32.651231 60.340603 0
M  V30 8 N 38.671205 30.556833 59.026285 0
M  V30 9 N 36.975182 32.417289 58.967750 0 CFG=1 CHG=1
M  V30 10 C 39.889634 28.650733 51.354797 0 CFG=1
M  V30 11 O 35.245137 31.747224 61.367779 0
M  V30 12 C 38.843452 27.595438 50.964498 0
M  V30 13 C 39.063804 30.917595 57.662360 0 CFG=2
M  V30 14 C 37.584433 31.272928 59.704470 0
M  V30 15 C 38.682123 27.983598 56.295530 0
M  V30 16 C 40.040651 29.704776 50.240846 0
M  V30 17 C 39.565786 29.304065 52.713574 0
M  V30 18 C 38.444900 32.166736 57.063993 0
M  V30 19 C 39.236770 28.911987 55.203336 0
M  V30 20 H 39.843133 28.603820 58.016771 0
M  V30 21 H 38.322339 27.852058 58.417783 0
M  V30 22 H 39.645986 27.382431 53.752377 0
M  V30 23 H 38.052252 28.062573 53.622699 0
M  V30 24 H 36.770829 33.732839 60.630884 0
M  V30 25 H 35.856704 34.180744 59.208300 0
M  V30 26 H 37.488712 33.993785 57.641089 0
M  V30 27 H 38.776280 33.507793 58.738347 0
M  V30 28 H 41.313891 31.333058 49.585038 0
M  V30 29 H 42.156423 30.138721 50.567765 0
M  V30 30 H 41.058373 31.295639 51.318285 0
M  V30 31 H 34.222929 33.397814 60.752913 0
M  V30 32 H 34.366227 32.136197 59.541482 0
M  V30 33 H 40.845111 28.137986 51.449441 0
M  V30 34 H 34.445592 31.366450 61.703204 0
M  V30 35 H 37.841963 28.021537 50.968463 0
M  V30 36 H 38.845219 26.748745 51.648819 0
M  V30 37 H 39.031393 27.184339 49.976785 0
M  V30 38 H 40.045155 30.645882 57.284480 0
M  V30 39 H 36.815546 30.540513 59.949065 0
M  V30 40 H 37.986942 31.639432 60.649560 0
M  V30 41 H 39.211226 27.030516 56.258851 0
M  V30 42 H 37.645147 27.751788 56.074567 0
M  V30 43 H 39.126731 30.291287 50.168072 0
M  V30 44 H 40.161633 29.207069 49.278770 0
M  V30 45 H 40.445138 29.841720 53.061096 0
M  V30 46 H 38.811430 30.075843 52.590397 0
M  V30 47 H 39.201056 32.661218 56.454033 0
M  V30 48 H 37.645177 31.889132 56.377456 0
M  V30 49 H 40.284256 29.135333 55.408734 0
M  V30 50 H 38.701233 29.861079 55.213277 0
M  V30 51 H 36.317058 32.026488 58.288434 0
M  V30 END ATOM
M  V30 BEGIN BOND
M  V30 1 1 6 1
M  V30 2 1 7 3
M  V30 3 1 8 6
M  V30 4 1 9 3
M  V30 5 1 9 4
M  V30 6 1 11 7
M  V30 7 1 12 10
M  V30 8 1 13 6
M  V30 9 1 13 8
M  V30 10 1 14 8
M  V30 11 1 14 9
M  V30 12 1 15 1
M  V30 13 1 16 5
M  V30 14 1 16 10
M  V30 15 1 17 2
M  V30 16 1 17 10
M  V30 17 1 18 4
M  V30 18 1 18 13
M  V30 19 1 19 2
M  V30 20 1 19 15
M  V30 21 1 20 1
M  V30 22 1 21 1
M  V30 23 1 22 2
M  V30 24 1 23 2
M  V30 25 1 24 3
M  V30 26 1 25 3
M  V30 27 1 26 4
M  V30 28 1 27 4
M  V30 29 1 28 5
M  V30 30 1 29 5
M  V30 31 1 30 5
M  V30 32 1 31 7
M  V30 33 1 32 7
M  V30 34 1 10 33 CFG=1
M  V30 35 1 34 11
M  V30 36 1 35 12
M  V30 37 1 36 12
M  V30 38 1 37 12
M  V30 39 1 13 38 CFG=1
M  V30 40 1 39 14
M  V30 41 1 40 14
M  V30 42 1 41 15
M  V30 43 1 42 15
M  V30 44 1 43 16
M  V30 45 1 44 16
M  V30 46 1 45 17
M  V30 47 1 46 17
M  V30 48 1 47 18
M  V30 49 1 48 18
M  V30 50 1 49 19
M  V30 51 1 50 19
M  V30 52 1 9 51 CFG=3
M  V30 END BOND
M  V30 END CTAB
M  END
>  <i_epik_Tot_Q>  (1) 
1

>  <i_epik_Tot_abs_Q>  (1) 
1

>  <i_i_glide_confnum>  (1) 
104

>  <i_i_glide_lignum>  (1) 
69

>  <i_i_glide_posenum>  (1) 
5

>  <i_i_glide_rotatable_bonds>  (1) 
10

>  <i_lp_mmshare_version>  (1) 
72125

>  <i_m_source_file_index>  (1) 
32

>  <i_f3d_flags>  (1) 
0

>  <num_sample>  (1) 
50

>  <b_lp_Chiralities_Consistent>  (1) 
1

>  <r_epik_Charging_Adjusted_Penalty>  (1) 
0.062925192649716036

>  <r_epik_Ionization_Penalty>  (1) 
0.062927217042738556

>  <r_epik_Ionization_Penalty_Charging>  (1) 
0.062925192649716036

>  <r_epik_Ionization_Penalty_Neutral>  (1) 
2.0243930225180512e-06

>  <r_epik_State_Penalty>  (1) 
-0

>  <r_glide_ring_energy>  (1) 
0

>  <r_i_docking_score>  (1) 
-2.9161662711064382

>  <r_i_glide_ecoul>  (1) 
-5.6627890551238353

>  <r_i_glide_eff_state_penalty>  (1) 
-0

>  <r_i_glide_einternal>  (1) 
7.7556662435859645

>  <r_i_glide_emodel>  (1) 
-36.233491370190038

>  <r_i_glide_emodel_strain>  (1) 
0.32968317606685815

>  <r_i_glide_energy>  (1) 
-32.452506733143224

>  <r_i_glide_erotb>  (1) 
3.9128418167227688

>  <r_i_glide_esite>  (1) 
-0.22336374800452519

>  <r_i_glide_evdw>  (1) 
-26.789717678019386

>  <r_i_glide_gscore>  (1) 
-2.9161662711064382

>  <r_i_glide_gscore_strain>  (1) 
0

>  <r_i_glide_hbond>  (1) 
-0.40446588010250406

>  <r_i_glide_ligand_efficiency>  (1) 
-0.1534824353213915

>  <r_i_glide_ligand_efficiency_ln>  (1) 
-0.73931078323404509

>  <r_i_glide_ligand_efficiency_sa>  (1) 
-0.4095527834614604

>  <r_i_glide_lipo>  (1) 
-1.9275912236198789

>  <r_i_glide_metal>  (1) 
-0

>  <r_i_glide_rewards>  (1) 
-2.0846829939327551

>  <r_lp_Energy>  (1) 
23.34319

>  <r_lp_tautomer_probability>  (1) 
1

>  <s_epik_Chemistry_Notes>  (1) 
This compound contains an acetal/aminal-like group ( X-CH(R)-Y where X, Y are N, S, or O) that may be acid/base labile, releasing an aldehyde.

>  <s_epik_cmdline>  (1) 
J2VwaWtfcHl0aG9uJywgJy1waHQnLCAnMS4wJywgJy1waCcsICc3LjQnLCAnLXRuJywgJzgnLCAnLW1hJywgJzUwMCcsICctaW1hZScsICc8aW5maWxlLm1hZT4nLCAnLW9tYWUnLCAnPG91dGZpbGUubWFlPic=

>  <s_epik_input>  (1) 
W0NIM11bQ0gyXVtDQEhdKFtDSDNdKVtDSDJdW0NIMl1bQ0gyXVtDSDJdW0NIMl1OMVtDQEhdKE4xMilbQ0gyXVtDSDJdTihbQ0gyXTIpW0NIMl1bQ0gyXVtPSF0=

>  <s_glide_docking_method>  (1) 
confgen

>  <s_i_glide_gridfile>  (1) 
gpcr_5ht2c_6bqh_protein_autoprepared_prepared

>  <s_lp_Force_Field>  (1) 
S-OPLS

>  <s_lp_Variant>  (1) 
DiffSBDD_31-1

>  <s_m_source_file>  (1) 
generated_GPCR_5HT2C_ligand_DiffSBDD_2026-06-23_prepared.sdf

>  <GenAI_Model>  (1) 
DiffSBDD

>  <Protein>  (1) 
GPCR_5HT2C

$$$$
DiffSBDD_31
     RDKit          3D

  0  0  0  0  0  0  0  0  0  0999 V3000
M  V30 BEGIN CTAB
M  V30 COUNTS 51 52 0 0 1
M  V30 BEGIN ATOM
M  V30 1 C 38.384999 31.286353 54.386227 0
M  V30 2 C 38.526712 27.984174 54.806833 0
M  V30 3 C 38.318501 29.721466 60.136578 0
M  V30 4 C 37.541639 31.676299 58.849024 0
M  V30 5 C 39.833602 26.194342 57.435336 0
M  V30 6 N 38.044810 31.161241 55.806874 0
M  V30 7 C 39.615590 29.109033 60.689600 0
M  V30 8 N 39.244885 30.819449 56.658743 0
M  V30 9 N 38.580942 30.642577 59.006618 0 CFG=2 CHG=1
M  V30 10 C 37.977678 25.581156 55.694613 0 CFG=1
M  V30 11 O 40.417531 30.128132 61.254411 0
M  V30 12 C 37.246715 24.322350 55.194961 0
M  V30 13 C 38.727674 32.184727 56.584215 0 CFG=2
M  V30 14 C 38.778972 29.930802 57.723470 0
M  V30 15 C 39.350725 30.226905 53.805614 0
M  V30 16 C 39.198804 25.129234 56.534050 0
M  V30 17 C 38.322423 26.491032 54.487044 0
M  V30 18 C 37.999621 32.718753 57.818942 0
M  V30 19 C 38.737769 28.836834 53.542474 0
M  V30 20 H 37.444464 31.235500 53.840616 0
M  V30 21 H 38.774176 32.280948 54.165708 0
M  V30 22 H 39.391749 28.107609 55.452193 0
M  V30 23 H 37.665147 28.364173 55.356584 0
M  V30 24 H 37.808144 30.245976 60.946846 0
M  V30 25 H 37.645115 28.937829 59.790567 0
M  V30 26 H 36.602062 31.202722 58.567786 0
M  V30 27 H 37.351638 32.178458 59.798459 0
M  V30 28 H 40.496394 25.724897 58.161815 0
M  V30 29 H 39.077156 26.749319 57.989607 0
M  V30 30 H 40.447900 26.892320 56.870400 0
M  V30 31 H 39.389766 28.368070 61.458337 0
M  V30 32 H 40.177775 28.591110 59.912950 0
M  V30 33 H 37.281551 26.114541 56.343960 0
M  V30 34 H 40.104949 30.309313 62.130935 0
M  V30 35 H 37.900553 23.717806 54.567761 0
M  V30 36 H 36.367781 24.565483 54.601130 0
M  V30 37 H 36.909988 23.703102 56.026459 0
M  V30 38 H 39.334258 32.924585 56.063139 0
M  V30 39 H 37.860192 29.411851 57.441663 0
M  V30 40 H 39.541752 29.162776 57.845959 0
M  V30 41 H 39.680067 30.612502 52.839719 0
M  V30 42 H 40.267684 30.140861 54.389439 0
M  V30 43 H 39.962209 24.700291 55.884881 0
M  V30 44 H 38.884699 24.314155 57.189008 0
M  V30 45 H 39.198973 26.101149 53.969511 0
M  V30 46 H 37.508589 26.431343 53.762818 0
M  V30 47 H 38.690428 33.400313 58.316233 0
M  V30 48 H 37.159449 33.337504 57.498571 0
M  V30 49 H 39.411378 28.303013 52.870943 0
M  V30 50 H 37.798867 28.934924 52.995423 0
M  V30 51 H 39.442281 31.116610 59.239764 0
M  V30 END ATOM
M  V30 BEGIN BOND
M  V30 1 1 6 1
M  V30 2 1 7 3
M  V30 3 1 8 6
M  V30 4 1 9 3
M  V30 5 1 9 4
M  V30 6 1 11 7
M  V30 7 1 12 10
M  V30 8 1 13 6
M  V30 9 1 13 8
M  V30 10 1 14 8
M  V30 11 1 14 9
M  V30 12 1 15 1
M  V30 13 1 16 5
M  V30 14 1 16 10
M  V30 15 1 17 2
M  V30 16 1 17 10
M  V30 17 1 18 4
M  V30 18 1 18 13
M  V30 19 1 19 2
M  V30 20 1 19 15
M  V30 21 1 20 1
M  V30 22 1 21 1
M  V30 23 1 22 2
M  V30 24 1 23 2
M  V30 25 1 24 3
M  V30 26 1 25 3
M  V30 27 1 26 4
M  V30 28 1 27 4
M  V30 29 1 28 5
M  V30 30 1 29 5
M  V30 31 1 30 5
M  V30 32 1 31 7
M  V30 33 1 32 7
M  V30 34 1 10 33 CFG=1
M  V30 35 1 34 11
M  V30 36 1 35 12
M  V30 37 1 36 12
M  V30 38 1 37 12
M  V30 39 1 13 38 CFG=3
M  V30 40 1 39 14
M  V30 41 1 40 14
M  V30 42 1 41 15
M  V30 43 1 42 15
M  V30 44 1 43 16
M  V30 45 1 44 16
M  V30 46 1 45 17
M  V30 47 1 46 17
M  V30 48 1 47 18
M  V30 49 1 48 18
M  V30 50 1 49 19
M  V30 51 1 50 19
M  V30 52 1 9 51 CFG=1
M  V30 END BOND
M  V30 END CTAB
M  END
>  <i_epik_Tot_Q>  (1) 
1

>  <i_epik_Tot_abs_Q>  (1) 
1

>  <i_i_glide_confnum>  (1) 
34

>  <i_i_glide_lignum>  (1) 
70

>  <i_i_glide_posenum>  (1) 
74

>  <i_i_glide_rotatable_bonds>  (1) 
10

>  <i_lp_mmshare_version>  (1) 
72125

>  <i_m_source_file_index>  (1) 
32

>  <i_f3d_flags>  (1) 
0

>  <num_sample>  (1) 
50

>  <b_lp_Chiralities_Consistent>  (1) 
1

>  <r_epik_Charging_Adjusted_Penalty>  (1) 
0.062925192649716036

>  <r_epik_Ionization_Penalty>  (1) 
0.062927217042738556

>  <r_epik_Ionization_Penalty_Charging>  (1) 
0.062925192649716036

>  <r_epik_Ionization_Penalty_Neutral>  (1) 
2.0243930225180512e-06

>  <r_epik_State_Penalty>  (1) 
-0

>  <r_glide_ring_energy>  (1) 
0

>  <r_i_docking_score>  (1) 
-2.9149294277039979

>  <r_i_glide_ecoul>  (1) 
-2.178951121428129

>  <r_i_glide_eff_state_penalty>  (1) 
-0

>  <r_i_glide_einternal>  (1) 
8.3176370943005278

>  <r_i_glide_emodel>  (1) 
-30.864388456057714

>  <r_i_glide_emodel_strain>  (1) 
1.0842736795270937

>  <r_i_glide_energy>  (1) 
-30.333542005904867

>  <r_i_glide_erotb>  (1) 
3.9128418167227688

>  <r_i_glide_esite>  (1) 
-0.20333188919385994

>  <r_i_glide_evdw>  (1) 
-28.15459088447674

>  <r_i_glide_gscore>  (1) 
-2.9149294277039979

>  <r_i_glide_gscore_strain>  (1) 
0

>  <r_i_glide_hbond>  (1) 
-0.13911257856380185

>  <r_i_glide_ligand_efficiency>  (1) 
-0.15341733830021043

>  <r_i_glide_ligand_efficiency_ln>  (1) 
-0.73899721686656594

>  <r_i_glide_ligand_efficiency_sa>  (1) 
-0.40937907846281391

>  <r_i_glide_lipo>  (1) 
-2.726105227473802

>  <r_i_glide_metal>  (1) 
-0

>  <r_i_glide_rewards>  (1) 
-2.0246493367572471

>  <r_lp_Energy>  (1) 
22.842606999999997

>  <r_lp_tautomer_probability>  (1) 
1

>  <s_epik_Chemistry_Notes>  (1) 
This compound contains an acetal/aminal-like group ( X-CH(R)-Y where X, Y are N, S, or O) that may be acid/base labile, releasing an aldehyde.

>  <s_epik_cmdline>  (1) 
J2VwaWtfcHl0aG9uJywgJy1waHQnLCAnMS4wJywgJy1waCcsICc3LjQnLCAnLXRuJywgJzgnLCAnLW1hJywgJzUwMCcsICctaW1hZScsICc8aW5maWxlLm1hZT4nLCAnLW9tYWUnLCAnPG91dGZpbGUubWFlPic=

>  <s_epik_input>  (1) 
W0NIM11bQ0gyXVtDQEhdKFtDSDNdKVtDSDJdW0NIMl1bQ0gyXVtDSDJdW0NIMl1OMVtDQEhdKE4xMilbQ0gyXVtDSDJdTihbQ0gyXTIpW0NIMl1bQ0gyXVtPSF0=

>  <s_glide_docking_method>  (1) 
confgen

>  <s_i_glide_gridfile>  (1) 
gpcr_5ht2c_6bqh_protein_autoprepared_prepared

>  <s_lp_Force_Field>  (1) 
S-OPLS

>  <s_lp_Variant>  (1) 
DiffSBDD_31-2

>  <s_m_source_file>  (1) 
generated_GPCR_5HT2C_ligand_DiffSBDD_2026-06-23_prepared.sdf

>  <GenAI_Model>  (1) 
DiffSBDD

>  <Protein>  (1) 
GPCR_5HT2C

$$$$
DiffSBDD_35
     RDKit          3D

  0  0  0  0  0  0  0  0  0  0999 V3000
M  V30 BEGIN CTAB
M  V30 COUNTS 35 35 0 0 1
M  V30 BEGIN ATOM
M  V30 1 C 38.242331 25.600921 56.319001 0
M  V30 2 C 39.460328 28.410840 50.729156 0
M  V30 3 C 39.795861 29.702569 60.803970 0
M  V30 4 Cl 40.045151 30.011690 51.244424 0
M  V30 5 C 39.743848 28.203383 60.493652 0
M  V30 6 C 39.146040 27.884909 59.104117 0
M  V30 7 C 40.016049 28.363144 57.924735 0
M  V30 8 C 39.185477 27.392080 53.076496 0
M  V30 9 O 40.845123 30.137652 61.328180 0
M  V30 10 N 38.950678 25.919021 55.086985 0 CFG=2 CHG=1
M  V30 11 C 39.494531 26.448114 56.336243 0 CFG=1
M  V30 12 O 38.786760 30.380628 60.512475 0 CHG=-1
M  V30 13 C 39.468452 27.957248 56.545707 0
M  V30 14 C 38.499814 27.814181 51.766952 0
M  V30 15 C 38.224323 26.757296 54.096898 0
M  V30 16 H 38.302226 24.532038 56.512717 0
M  V30 17 H 37.261531 26.071947 56.367972 0
M  V30 18 H 40.326520 27.770281 50.567502 0
M  V30 19 H 38.962588 28.537758 49.767848 0
M  V30 20 H 40.744323 27.777372 60.581698 0
M  V30 21 H 39.138579 27.737774 61.270877 0
M  V30 22 H 39.009910 26.805699 59.035747 0
M  V30 23 H 38.146841 28.315617 59.018337 0
M  V30 24 H 40.100965 29.450114 57.958910 0
M  V30 25 H 41.030778 27.979445 58.039006 0
M  V30 26 H 39.991936 26.695622 52.844328 0
M  V30 27 H 39.645097 28.267167 53.529804 0
M  V30 28 H 40.445188 25.956255 56.532280 0
M  V30 29 H 40.083340 28.428980 55.779803 0
M  V30 30 H 38.456161 28.345818 56.435225 0
M  V30 31 H 37.688373 28.513751 51.970448 0
M  V30 32 H 38.045137 26.937740 51.314675 0
M  V30 33 H 37.598801 27.521451 54.558243 0
M  V30 34 H 37.537112 26.092597 53.572236 0
M  V30 35 H 39.459721 25.126114 54.722483 0
M  V30 END ATOM
M  V30 BEGIN BOND
M  V30 1 1 4 2
M  V30 2 1 5 3
M  V30 3 1 6 5
M  V30 4 1 7 6
M  V30 5 2 9 3
M  V30 6 1 10 1
M  V30 7 1 11 1
M  V30 8 1 11 10
M  V30 9 1 12 3
M  V30 10 1 13 7
M  V30 11 1 13 11
M  V30 12 1 14 2
M  V30 13 1 14 8
M  V30 14 1 15 8
M  V30 15 1 15 10
M  V30 16 1 16 1
M  V30 17 1 17 1
M  V30 18 1 18 2
M  V30 19 1 19 2
M  V30 20 1 20 5
M  V30 21 1 21 5
M  V30 22 1 22 6
M  V30 23 1 23 6
M  V30 24 1 24 7
M  V30 25 1 25 7
M  V30 26 1 26 8
M  V30 27 1 27 8
M  V30 28 1 11 28 CFG=1
M  V30 29 1 29 13
M  V30 30 1 30 13
M  V30 31 1 31 14
M  V30 32 1 32 14
M  V30 33 1 33 15
M  V30 34 1 34 15
M  V30 35 1 10 35 CFG=3
M  V30 END BOND
M  V30 END CTAB
M  END
>  <i_epik_Tot_Q>  (1) 
0

>  <i_epik_Tot_abs_Q>  (1) 
2

>  <i_i_glide_confnum>  (1) 
106

>  <i_i_glide_lignum>  (1) 
75

>  <i_i_glide_posenum>  (1) 
266

>  <i_i_glide_rotatable_bonds>  (1) 
9

>  <i_lp_mmshare_version>  (1) 
72125

>  <i_m_source_file_index>  (1) 
36

>  <i_f3d_flags>  (1) 
0

>  <num_sample>  (1) 
50

>  <b_lp_Chiralities_Consistent>  (1) 
1

>  <r_epik_Charging_Adjusted_Penalty>  (1) 
0.027909031971393675

>  <r_epik_Ionization_Penalty>  (1) 
0.014709138794413591

>  <r_epik_Ionization_Penalty_Charging>  (1) 
0.014709138794413591

>  <r_epik_Ionization_Penalty_Neutral>  (1) 
0

>  <r_epik_State_Penalty>  (1) 
0.013199893176980082

>  <r_glide_ring_energy>  (1) 
0

>  <r_i_docking_score>  (1) 
-2.8702603787473637

>  <r_i_glide_ecoul>  (1) 
-3.5456993796679033

>  <r_i_glide_eff_state_penalty>  (1) 
0.013199893176980082

>  <r_i_glide_einternal>  (1) 
3.5910397846723185

>  <r_i_glide_emodel>  (1) 
-33.09091337222209

>  <r_i_glide_emodel_strain>  (1) 
0.0972757202668042

>  <r_i_glide_energy>  (1) 
-27.894549731757699

>  <r_i_glide_erotb>  (1) 
4.3969454850061123

>  <r_i_glide_esite>  (1) 
0

>  <r_i_glide_evdw>  (1) 
-24.348850352089794

>  <r_i_glide_gscore>  (1) 
-2.8834602719243438

>  <r_i_glide_gscore_strain>  (1) 
0

>  <r_i_glide_hbond>  (1) 
-0.16

>  <r_i_glide_ligand_efficiency>  (1) 
-0.19135069191649093

>  <r_i_glide_ligand_efficiency_ln>  (1) 
-0.77406189859408725

>  <r_i_glide_ligand_efficiency_sa>  (1) 
-0.47191138683593986

>  <r_i_glide_lipo>  (1) 
-3.0313582680953428

>  <r_i_glide_metal>  (1) 
-0

>  <r_i_glide_rewards>  (1) 
-2.3397500642804374

>  <r_lp_Energy>  (1) 
16.179413

>  <s_epik_cmdline>  (1) 
J2VwaWtfcHl0aG9uJywgJy1waHQnLCAnMS4wJywgJy1waCcsICc3LjQnLCAnLXRuJywgJzgnLCAnLW1hJywgJzUwMCcsICctaW1hZScsICc8aW5maWxlLm1hZT4nLCAnLW9tYWUnLCAnPG91dGZpbGUubWFlPic=

>  <s_epik_input>  (1) 
Q2xbQ0gyXVtDSDJdW0NIMl1bQ0gyXU4xW0NIMl1bQ0BASF0xW0NIMl1bQ0gyXVtDSDJdW0NIMl1DKD1PKVtPSF0=

>  <s_glide_docking_method>  (1) 
confgen

>  <s_i_glide_gridfile>  (1) 
gpcr_5ht2c_6bqh_protein_autoprepared_prepared

>  <s_lp_Force_Field>  (1) 
S-OPLS

>  <s_lp_Variant>  (1) 
DiffSBDD_35-1

>  <s_m_source_file>  (1) 
generated_GPCR_5HT2C_ligand_DiffSBDD_2026-06-23_prepared.sdf

>  <GenAI_Model>  (1) 
DiffSBDD

>  <Protein>  (1) 
GPCR_5HT2C

$$$$
DiffSBDD_31
     RDKit          3D

  0  0  0  0  0  0  0  0  0  0999 V3000
M  V30 BEGIN CTAB
M  V30 COUNTS 51 52 0 0 1
M  V30 BEGIN ATOM
M  V30 1 C 38.045142 33.111023 57.478926 0
M  V30 2 C 38.840237 30.838541 54.351082 0
M  V30 3 C 40.366621 34.118489 62.625733 0
M  V30 4 C 38.959129 32.348273 61.683900 0
M  V30 5 C 39.668346 29.004288 51.462314 0
M  V30 6 N 38.444122 32.937755 58.869081 0
M  V30 7 C 40.469422 35.592976 63.056911 0
M  V30 8 N 37.974046 34.137731 59.673502 0
M  V30 9 N 39.145114 33.806690 61.837325 0 CFG=2 CHG=1
M  V30 10 C 38.589612 28.315764 53.727420 0 CFG=1
M  V30 11 O 41.595675 35.737755 63.894052 0
M  V30 12 C 37.905611 27.036082 54.236367 0
M  V30 13 C 37.316787 32.832459 59.769402 0 CFG=2
M  V30 14 C 39.110103 34.503645 60.526569 0
M  V30 15 C 38.445140 31.848459 56.697715 0
M  V30 16 C 38.455535 28.400362 52.186513 0
M  V30 17 C 38.017138 29.542743 54.480190 0
M  V30 18 C 37.594329 32.061453 61.052466 0
M  V30 19 C 38.291439 32.015101 55.178586 0
M  V30 20 H 36.983310 33.337749 57.367760 0
M  V30 21 H 38.572261 33.969129 57.068368 0
M  V30 22 H 38.845140 31.156428 53.312255 0
M  V30 23 H 39.880873 30.652278 54.619325 0
M  V30 24 H 40.365458 33.502226 63.526706 0
M  V30 25 H 41.253429 33.831074 62.057784 0
M  V30 26 H 39.762784 31.932589 61.073177 0
M  V30 27 H 39.012988 31.853348 62.654380 0
M  V30 28 H 39.507315 29.000311 50.383699 0
M  V30 29 H 40.569997 28.424900 51.659529 0
M  V30 30 H 39.865259 30.033060 51.755106 0
M  V30 31 H 40.589552 36.257234 62.200776 0
M  V30 32 H 39.578258 35.907466 63.601566 0
M  V30 33 H 39.644261 28.218780 53.985434 0
M  V30 34 H 41.670039 36.648997 64.167773 0
M  V30 35 H 36.845135 27.038413 53.990740 0
M  V30 36 H 37.998249 26.933891 55.317965 0
M  V30 37 H 38.347200 26.145042 53.788908 0
M  V30 38 H 36.323752 32.705251 59.339325 0
M  V30 39 H 40.045137 34.335033 59.991358 0
M  V30 40 H 39.045897 35.578630 60.693699 0
M  V30 41 H 39.484108 31.599111 56.916893 0
M  V30 42 H 37.841611 31.009615 57.045537 0
M  V30 43 H 37.547782 28.937755 51.916854 0
M  V30 44 H 38.318265 27.397497 51.778416 0
M  V30 45 H 36.988469 29.726646 54.167766 0
M  V30 46 H 37.957606 29.290167 55.538737 0
M  V30 47 H 36.805125 32.306558 61.764026 0
M  V30 48 H 37.499498 30.995218 60.843847 0
M  V30 49 H 38.816500 32.921786 54.879079 0
M  V30 50 H 37.245137 32.179763 54.929212 0
M  V30 51 H 38.355911 34.143473 62.369620 0
M  V30 END ATOM
M  V30 BEGIN BOND
M  V30 1 1 6 1
M  V30 2 1 7 3
M  V30 3 1 8 6
M  V30 4 1 9 3
M  V30 5 1 9 4
M  V30 6 1 11 7
M  V30 7 1 12 10
M  V30 8 1 13 6
M  V30 9 1 13 8
M  V30 10 1 14 8
M  V30 11 1 14 9
M  V30 12 1 15 1
M  V30 13 1 16 5
M  V30 14 1 16 10
M  V30 15 1 17 2
M  V30 16 1 17 10
M  V30 17 1 18 4
M  V30 18 1 18 13
M  V30 19 1 19 2
M  V30 20 1 19 15
M  V30 21 1 20 1
M  V30 22 1 21 1
M  V30 23 1 22 2
M  V30 24 1 23 2
M  V30 25 1 24 3
M  V30 26 1 25 3
M  V30 27 1 26 4
M  V30 28 1 27 4
M  V30 29 1 28 5
M  V30 30 1 29 5
M  V30 31 1 30 5
M  V30 32 1 31 7
M  V30 33 1 32 7
M  V30 34 1 10 33 CFG=3
M  V30 35 1 34 11
M  V30 36 1 35 12
M  V30 37 1 36 12
M  V30 38 1 37 12
M  V30 39 1 13 38 CFG=3
M  V30 40 1 39 14
M  V30 41 1 40 14
M  V30 42 1 41 15
M  V30 43 1 42 15
M  V30 44 1 43 16
M  V30 45 1 44 16
M  V30 46 1 45 17
M  V30 47 1 46 17
M  V30 48 1 47 18
M  V30 49 1 48 18
M  V30 50 1 49 19
M  V30 51 1 50 19
M  V30 52 1 9 51 CFG=1
M  V30 END BOND
M  V30 END CTAB
M  END
>  <i_epik_Tot_Q>  (1) 
1

>  <i_epik_Tot_abs_Q>  (1) 
1

>  <i_i_glide_confnum>  (1) 
44

>  <i_i_glide_lignum>  (1) 
70

>  <i_i_glide_posenum>  (1) 
362

>  <i_i_glide_rotatable_bonds>  (1) 
10

>  <i_lp_mmshare_version>  (1) 
72125

>  <i_m_source_file_index>  (1) 
32

>  <i_f3d_flags>  (1) 
0

>  <num_sample>  (1) 
50

>  <b_lp_Chiralities_Consistent>  (1) 
1

>  <r_epik_Charging_Adjusted_Penalty>  (1) 
0.062925192649716036

>  <r_epik_Ionization_Penalty>  (1) 
0.062927217042738556

>  <r_epik_Ionization_Penalty_Charging>  (1) 
0.062925192649716036

>  <r_epik_Ionization_Penalty_Neutral>  (1) 
2.0243930225180512e-06

>  <r_epik_State_Penalty>  (1) 
-0

>  <r_glide_ring_energy>  (1) 
0

>  <r_i_docking_score>  (1) 
-2.8616774180038198

>  <r_i_glide_ecoul>  (1) 
-3.3157153546101665

>  <r_i_glide_eff_state_penalty>  (1) 
-0

>  <r_i_glide_einternal>  (1) 
1.7791659431715594

>  <r_i_glide_emodel>  (1) 
-36.868011347864687

>  <r_i_glide_emodel_strain>  (1) 
0

>  <r_i_glide_energy>  (1) 
-32.089138072316331

>  <r_i_glide_erotb>  (1) 
3.9128418167227688

>  <r_i_glide_esite>  (1) 
-0.071068282965687887

>  <r_i_glide_evdw>  (1) 
-28.773422717706161

>  <r_i_glide_gscore>  (1) 
-2.8616774180038198

>  <r_i_glide_gscore_strain>  (1) 
0

>  <r_i_glide_hbond>  (1) 
-0.32000000000000001

>  <r_i_glide_ligand_efficiency>  (1) 
-0.15061460094756945

>  <r_i_glide_ligand_efficiency_ln>  (1) 
-0.72549668865927408

>  <r_i_glide_ligand_efficiency_sa>  (1) 
-0.40190024949009223

>  <r_i_glide_lipo>  (1) 
-2.2697208157024931

>  <r_i_glide_metal>  (1) 
-0

>  <r_i_glide_rewards>  (1) 
-2.1777016969815741

>  <r_lp_Energy>  (1) 
22.842606999999997

>  <r_lp_tautomer_probability>  (1) 
1

>  <s_epik_Chemistry_Notes>  (1) 
This compound contains an acetal/aminal-like group ( X-CH(R)-Y where X, Y are N, S, or O) that may be acid/base labile, releasing an aldehyde.

>  <s_epik_cmdline>  (1) 
J2VwaWtfcHl0aG9uJywgJy1waHQnLCAnMS4wJywgJy1waCcsICc3LjQnLCAnLXRuJywgJzgnLCAnLW1hJywgJzUwMCcsICctaW1hZScsICc8aW5maWxlLm1hZT4nLCAnLW9tYWUnLCAnPG91dGZpbGUubWFlPic=

>  <s_epik_input>  (1) 
W0NIM11bQ0gyXVtDQEhdKFtDSDNdKVtDSDJdW0NIMl1bQ0gyXVtDSDJdW0NIMl1OMVtDQEhdKE4xMilbQ0gyXVtDSDJdTihbQ0gyXTIpW0NIMl1bQ0gyXVtPSF0=

>  <s_glide_docking_method>  (1) 
confgen

>  <s_i_glide_gridfile>  (1) 
gpcr_5ht2c_6bqh_protein_autoprepared_prepared

>  <s_lp_Force_Field>  (1) 
S-OPLS

>  <s_lp_Variant>  (1) 
DiffSBDD_31-2

>  <s_m_source_file>  (1) 
generated_GPCR_5HT2C_ligand_DiffSBDD_2026-06-23_prepared.sdf

>  <GenAI_Model>  (1) 
DiffSBDD

>  <Protein>  (1) 
GPCR_5HT2C

$$$$
DiffSBDD_49
     RDKit          3D

  0  0  0  0  0  0  0  0  0  0999 V3000
M  V30 BEGIN CTAB
M  V30 COUNTS 47 46 0 0 1
M  V30 BEGIN ATOM
M  V30 1 C 38.997413 30.466172 55.398779 0
M  V30 2 C 39.645872 29.371142 49.937469 0
M  V30 3 O 38.765988 29.848560 60.312359 0
M  V30 4 C 40.292686 28.137700 59.621654 0 CFG=2
M  V30 5 C 38.529524 29.320170 56.320011 0 CFG=1
M  V30 6 C 39.401778 27.873638 58.374394 0 CFG=1
M  V30 7 C 39.675784 28.944467 57.278235 0
M  V30 8 C 39.937160 29.420494 60.413375 0
M  V30 9 C 39.598926 26.414436 57.884482 0
M  V30 10 O 41.645119 28.139393 59.196461 0
M  V30 11 C 38.252217 30.508959 54.059118 0
M  V30 12 C 38.919436 29.649904 52.968012 0
M  V30 13 C 40.038719 30.412489 52.227599 0
M  V30 14 O 40.845141 29.935773 61.105770 0 CHG=-1
M  V30 15 C 41.724148 30.537752 50.354021 0
M  V30 16 C 37.246991 29.737780 57.061449 0
M  V30 17 C 38.569969 25.909122 56.864110 0
M  V30 18 C 40.666593 29.666448 51.028073 0
M  V30 19 H 38.864044 31.415914 55.919625 0
M  V30 20 H 40.068086 30.395426 55.205245 0
M  V30 21 H 39.245138 30.326936 49.612795 0
M  V30 22 H 40.118340 28.937753 49.059691 0
M  V30 23 H 38.845161 28.705632 50.255946 0
M  V30 24 H 40.167262 27.337759 60.344849 0
M  V30 25 H 38.297939 28.459542 55.697278 0
M  V30 26 H 38.372408 27.945279 58.718376 0
M  V30 27 H 39.987456 29.874283 57.752850 0
M  V30 28 H 40.540527 28.628901 56.693052 0
M  V30 29 H 40.599907 26.284821 57.473197 0
M  V30 30 H 39.547152 25.750331 58.747940 0
M  V30 31 H 41.841765 27.304004 58.805635 0
M  V30 32 H 37.219733 30.186608 54.197001 0
M  V30 33 H 38.185657 31.546094 53.729946 0
M  V30 34 H 39.304330 28.725135 53.398007 0
M  V30 35 H 38.148117 29.337763 52.265358 0
M  V30 36 H 39.645143 31.365018 51.872406 0
M  V30 37 H 40.812112 30.684471 52.944383 0
M  V30 38 H 41.274751 31.494044 50.112814 0
M  V30 39 H 42.605433 30.706386 50.967730 0
M  V30 40 H 42.045134 30.137755 49.396784 0
M  V30 41 H 37.436938 30.549408 57.764880 0
M  V30 42 H 36.486449 30.084792 56.363080 0
M  V30 43 H 36.807474 28.917186 57.622847 0
M  V30 44 H 38.647298 24.827351 56.750138 0
M  V30 45 H 37.550114 26.136885 57.175456 0
M  V30 46 H 38.736130 26.340279 55.878487 0
M  V30 47 H 41.118873 28.734094 51.367735 0
M  V30 END ATOM
M  V30 BEGIN BOND
M  V30 1 1 5 1
M  V30 2 1 6 4
M  V30 3 1 7 5
M  V30 4 1 7 6
M  V30 5 2 8 3
M  V30 6 1 8 4
M  V30 7 1 9 6
M  V30 8 1 10 4
M  V30 9 1 11 1
M  V30 10 1 12 11
M  V30 11 1 13 12
M  V30 12 1 14 8
M  V30 13 1 16 5
M  V30 14 1 17 9
M  V30 15 1 18 2
M  V30 16 1 18 13
M  V30 17 1 18 15
M  V30 18 1 19 1
M  V30 19 1 20 1
M  V30 20 1 21 2
M  V30 21 1 22 2
M  V30 22 1 23 2
M  V30 23 1 4 24 CFG=1
M  V30 24 1 5 25 CFG=3
M  V30 25 1 6 26 CFG=1
M  V30 26 1 27 7
M  V30 27 1 28 7
M  V30 28 1 29 9
M  V30 29 1 30 9
M  V30 30 1 31 10
M  V30 31 1 32 11
M  V30 32 1 33 11
M  V30 33 1 34 12
M  V30 34 1 35 12
M  V30 35 1 36 13
M  V30 36 1 37 13
M  V30 37 1 38 15
M  V30 38 1 39 15
M  V30 39 1 40 15
M  V30 40 1 41 16
M  V30 41 1 42 16
M  V30 42 1 43 16
M  V30 43 1 44 17
M  V30 44 1 45 17
M  V30 45 1 46 17
M  V30 46 1 47 18
M  V30 END BOND
M  V30 END CTAB
M  END
>  <i_epik_Tot_Q>  (1) 
-1

>  <i_epik_Tot_abs_Q>  (1) 
1

>  <i_i_glide_confnum>  (1) 
428

>  <i_i_glide_lignum>  (1) 
103

>  <i_i_glide_posenum>  (1) 
184

>  <i_i_glide_rotatable_bonds>  (1) 
11

>  <i_lp_mmshare_version>  (1) 
72125

>  <i_m_source_file_index>  (1) 
50

>  <i_f3d_flags>  (1) 
0

>  <num_sample>  (1) 
50

>  <b_lp_Chiralities_Consistent>  (1) 
1

>  <r_epik_Charging_Adjusted_Penalty>  (1) 
0.00019702525056484194

>  <r_epik_Ionization_Penalty>  (1) 
0.00021830840852395323

>  <r_epik_Ionization_Penalty_Charging>  (1) 
0.00019702525056484194

>  <r_epik_Ionization_Penalty_Neutral>  (1) 
2.1283157959111292e-05

>  <r_epik_State_Penalty>  (1) 
-0

>  <r_glide_ring_energy>  (1) 
0

>  <r_i_docking_score>  (1) 
-2.7942942318012638

>  <r_i_glide_ecoul>  (1) 
-2.7165920706442424

>  <r_i_glide_eff_state_penalty>  (1) 
-0

>  <r_i_glide_einternal>  (1) 
10.115938004146043

>  <r_i_glide_emodel>  (1) 
-24.450842970906248

>  <r_i_glide_emodel_strain>  (1) 
0.17358084241330829

>  <r_i_glide_energy>  (1) 
-24.667063680788139

>  <r_i_glide_erotb>  (1) 
3.728558449231691

>  <r_i_glide_esite>  (1) 
0

>  <r_i_glide_evdw>  (1) 
-21.950471610143897

>  <r_i_glide_gscore>  (1) 
-2.7942942318012638

>  <r_i_glide_gscore_strain>  (1) 
0

>  <r_i_glide_hbond>  (1) 
-0.16

>  <r_i_glide_ligand_efficiency>  (1) 
-0.15523856843340356

>  <r_i_glide_ligand_efficiency_ln>  (1) 
-0.71825892374675326

>  <r_i_glide_ligand_efficiency_sa>  (1) 
-0.40684014227115123

>  <r_i_glide_lipo>  (1) 
-2.4123868614092445

>  <r_i_glide_metal>  (1) 
-0

>  <r_i_glide_rewards>  (1) 
-2.4454534285198788

>  <r_lp_Energy>  (1) 
17.89798

>  <r_lp_tautomer_probability>  (1) 
1

>  <s_epik_cmdline>  (1) 
J2VwaWtfcHl0aG9uJywgJy1waHQnLCAnMS4wJywgJy1waCcsICc3LjQnLCAnLXRuJywgJzgnLCAnLW1hJywgJzUwMCcsICctaW1hZScsICc8aW5maWxlLm1hZT4nLCAnLW9tYWUnLCAnPG91dGZpbGUubWFlPic=

>  <s_epik_input>  (1) 
W0NIM11bQ0hdKFtDSDNdKVtDSDJdW0NIMl1bQ0gyXVtDSDJdW0NASF0oW0NIM10pW0NIMl1bQ0BASF0oW0NIMl1bQ0gzXSlbQ0BASF0oW09IXSlDKD1PKVtPSF0=

>  <s_glide_docking_method>  (1) 
confgen

>  <s_i_glide_gridfile>  (1) 
gpcr_5ht2c_6bqh_protein_autoprepared_prepared

>  <s_lp_Force_Field>  (1) 
S-OPLS

>  <s_lp_Variant>  (1) 
DiffSBDD_49-1

>  <s_m_source_file>  (1) 
generated_GPCR_5HT2C_ligand_DiffSBDD_2026-06-23_prepared.sdf

>  <GenAI_Model>  (1) 
DiffSBDD

>  <Protein>  (1) 
GPCR_5HT2C

$$$$
DiffSBDD_35
     RDKit          3D

  0  0  0  0  0  0  0  0  0  0999 V3000
M  V30 BEGIN CTAB
M  V30 COUNTS 35 35 0 0 1
M  V30 BEGIN ATOM
M  V30 1 C 38.127750 31.482819 57.922850 0
M  V30 2 C 39.339149 29.341851 52.137316 0
M  V30 3 C 40.049944 29.821916 61.809953 0
M  V30 4 Cl 40.435773 29.783840 50.805030 0
M  V30 5 C 39.782680 28.382514 61.365308 0
M  V30 6 C 39.047415 28.344811 60.011457 0
M  V30 7 C 39.915812 28.816373 58.829569 0
M  V30 8 C 38.409366 30.152489 54.385081 0
M  V30 9 O 41.245137 30.147149 61.990603 0
M  V30 10 N 37.645161 30.952536 56.650132 0 CFG=2 CHG=1
M  V30 11 C 37.957719 30.001379 57.712932 0 CFG=1
M  V30 12 O 39.055394 30.568709 61.950601 0 CHG=-1
M  V30 13 C 39.133970 29.043505 57.528170 0
M  V30 14 C 39.414406 30.398426 53.248311 0
M  V30 15 C 38.537749 31.213064 55.491507 0
M  V30 16 H 37.337463 32.061262 58.397509 0
M  V30 17 H 39.112084 31.941186 57.850828 0
M  V30 18 H 39.637181 28.358324 52.500263 0
M  V30 19 H 38.334531 29.256887 51.723466 0
M  V30 20 H 40.720366 27.828337 61.309090 0
M  V30 21 H 39.180146 27.904864 62.137628 0
M  V30 22 H 38.697063 27.337758 59.800913 0
M  V30 23 H 38.146530 28.951668 60.098697 0
M  V30 24 H 40.429886 29.737770 59.091563 0
M  V30 25 H 40.709210 28.088835 58.652562 0
M  V30 26 H 37.391553 30.154202 53.994919 0
M  V30 27 H 38.575602 29.155720 54.793234 0
M  V30 28 H 37.036890 29.554887 58.083479 0
M  V30 29 H 38.749065 28.093863 57.155893 0
M  V30 30 H 39.843837 29.401019 56.786966 0
M  V30 31 H 40.428194 30.418331 53.650933 0
M  V30 32 H 39.245384 31.388587 52.824593 0
M  V30 33 H 39.581002 31.311081 55.793764 0
M  V30 34 H 38.259564 32.186838 55.085355 0
M  V30 35 H 36.657155 31.239700 56.568365 0
M  V30 END ATOM
M  V30 BEGIN BOND
M  V30 1 1 4 2
M  V30 2 1 5 3
M  V30 3 1 6 5
M  V30 4 1 7 6
M  V30 5 2 9 3
M  V30 6 1 10 1
M  V30 7 1 11 1
M  V30 8 1 11 10
M  V30 9 1 12 3
M  V30 10 1 13 7
M  V30 11 1 13 11
M  V30 12 1 14 2
M  V30 13 1 14 8
M  V30 14 1 15 8
M  V30 15 1 15 10
M  V30 16 1 16 1
M  V30 17 1 17 1
M  V30 18 1 18 2
M  V30 19 1 19 2
M  V30 20 1 20 5
M  V30 21 1 21 5
M  V30 22 1 22 6
M  V30 23 1 23 6
M  V30 24 1 24 7
M  V30 25 1 25 7
M  V30 26 1 26 8
M  V30 27 1 27 8
M  V30 28 1 11 28 CFG=1
M  V30 29 1 29 13
M  V30 30 1 30 13
M  V30 31 1 31 14
M  V30 32 1 32 14
M  V30 33 1 33 15
M  V30 34 1 34 15
M  V30 35 1 10 35 CFG=3
M  V30 END BOND
M  V30 END CTAB
M  END
>  <i_epik_Tot_Q>  (1) 
0

>  <i_epik_Tot_abs_Q>  (1) 
2

>  <i_i_glide_confnum>  (1) 
112

>  <i_i_glide_lignum>  (1) 
75

>  <i_i_glide_posenum>  (1) 
161

>  <i_i_glide_rotatable_bonds>  (1) 
9

>  <i_lp_mmshare_version>  (1) 
72125

>  <i_m_source_file_index>  (1) 
36

>  <i_f3d_flags>  (1) 
0

>  <num_sample>  (1) 
50

>  <b_lp_Chiralities_Consistent>  (1) 
1

>  <r_epik_Charging_Adjusted_Penalty>  (1) 
0.027909031971393675

>  <r_epik_Ionization_Penalty>  (1) 
0.014709138794413591

>  <r_epik_Ionization_Penalty_Charging>  (1) 
0.014709138794413591

>  <r_epik_Ionization_Penalty_Neutral>  (1) 
0

>  <r_epik_State_Penalty>  (1) 
0.013199893176980082

>  <r_glide_ring_energy>  (1) 
0

>  <r_i_docking_score>  (1) 
-2.7109503411301152

>  <r_i_glide_ecoul>  (1) 
-10.02806942960207

>  <r_i_glide_eff_state_penalty>  (1) 
0.013199893176980082

>  <r_i_glide_einternal>  (1) 
5.0064268779908012

>  <r_i_glide_emodel>  (1) 
-34.312127643571344

>  <r_i_glide_emodel_strain>  (1) 
0.4993548337758007

>  <r_i_glide_energy>  (1) 
-30.617209903332391

>  <r_i_glide_erotb>  (1) 
4.3969454850061123

>  <r_i_glide_esite>  (1) 
-0.10000000000000001

>  <r_i_glide_evdw>  (1) 
-20.589140473730321

>  <r_i_glide_gscore>  (1) 
-2.7241502343070954

>  <r_i_glide_gscore_strain>  (1) 
0

>  <r_i_glide_hbond>  (1) 
-0.3305431877927657

>  <r_i_glide_ligand_efficiency>  (1) 
-0.1807300227420077

>  <r_i_glide_ligand_efficiency_ln>  (1) 
-0.73109860819152095

>  <r_i_glide_ligand_efficiency_sa>  (1) 
-0.44571856428035989

>  <r_i_glide_lipo>  (1) 
-1.8091354571858005

>  <r_i_glide_metal>  (1) 
-0

>  <r_i_glide_rewards>  (1) 
-2.3477496362078147

>  <r_lp_Energy>  (1) 
16.179413

>  <s_epik_cmdline>  (1) 
J2VwaWtfcHl0aG9uJywgJy1waHQnLCAnMS4wJywgJy1waCcsICc3LjQnLCAnLXRuJywgJzgnLCAnLW1hJywgJzUwMCcsICctaW1hZScsICc8aW5maWxlLm1hZT4nLCAnLW9tYWUnLCAnPG91dGZpbGUubWFlPic=

>  <s_epik_input>  (1) 
Q2xbQ0gyXVtDSDJdW0NIMl1bQ0gyXU4xW0NIMl1bQ0BASF0xW0NIMl1bQ0gyXVtDSDJdW0NIMl1DKD1PKVtPSF0=

>  <s_glide_docking_method>  (1) 
confgen

>  <s_i_glide_gridfile>  (1) 
gpcr_5ht2c_6bqh_protein_autoprepared_prepared

>  <s_lp_Force_Field>  (1) 
S-OPLS

>  <s_lp_Variant>  (1) 
DiffSBDD_35-1

>  <s_m_source_file>  (1) 
generated_GPCR_5HT2C_ligand_DiffSBDD_2026-06-23_prepared.sdf

>  <GenAI_Model>  (1) 
DiffSBDD

>  <Protein>  (1) 
GPCR_5HT2C

$$$$
DiffSBDD_31
     RDKit          3D

  0  0  0  0  0  0  0  0  0  0999 V3000
M  V30 BEGIN CTAB
M  V30 COUNTS 51 52 0 0 1
M  V30 BEGIN ATOM
M  V30 1 C 38.242852 32.606187 57.207247 0
M  V30 2 C 39.050207 30.036111 54.356771 0
M  V30 3 C 39.450206 34.879707 62.294268 0
M  V30 4 C 38.706691 32.636510 61.580844 0
M  V30 5 C 41.257167 30.369361 50.404285 0
M  V30 6 N 38.445138 32.631221 58.648078 0
M  V30 7 C 38.961868 36.313856 62.586305 0
M  V30 8 N 37.597410 33.762646 59.195691 0
M  V30 9 N 38.480701 34.094146 61.482894 0 CFG=2 CHG=1
M  V30 10 C 39.621019 29.117410 51.932903 0 CFG=1
M  V30 11 O 40.045103 37.132832 62.967756 0
M  V30 12 C 38.309669 28.310474 51.941493 0
M  V30 13 C 37.274271 32.358408 59.451087 0 CFG=2
M  V30 14 C 38.482169 34.533054 60.069201 0
M  V30 15 C 38.543411 31.224505 56.603571 0
M  V30 16 C 39.921504 29.633634 50.510382 0
M  V30 17 C 39.672435 30.276033 52.967839 0
M  V30 18 C 37.572865 31.883497 60.869641 0
M  V30 19 C 38.953138 31.360868 55.130380 0
M  V30 20 H 37.245136 32.937755 56.916863 0
M  V30 21 H 38.935193 33.337039 56.788286 0
M  V30 22 H 39.648179 29.310384 54.909098 0
M  V30 23 H 38.045776 29.622235 54.272331 0
M  V30 24 H 39.645151 34.379561 63.243825 0
M  V30 25 H 40.407738 34.904859 61.769986 0
M  V30 26 H 39.673397 32.380475 61.142662 0
M  V30 27 H 38.741439 32.327927 62.626035 0
M  V30 28 H 41.537049 30.545433 49.367490 0
M  V30 29 H 42.045151 29.789128 50.877030 0
M  V30 30 H 41.212311 31.337754 50.898849 0
M  V30 31 H 38.522406 36.783053 61.707839 0
M  V30 32 H 38.196989 36.321661 63.363633 0
M  V30 33 H 40.409915 28.405058 52.167761 0
M  V30 34 H 40.330518 36.923600 63.847026 0
M  V30 35 H 37.438591 28.937757 51.767894 0
M  V30 36 H 38.164595 27.791142 52.888469 0
M  V30 37 H 38.318556 27.543915 51.165759 0
M  V30 38 H 36.407327 31.913425 58.967758 0
M  V30 39 H 39.506122 34.513848 59.691871 0
M  V30 40 H 38.149579 35.567648 60.003957 0
M  V30 41 H 39.347724 30.729301 57.148899 0
M  V30 42 H 37.660189 30.591369 56.699513 0
M  V30 43 H 39.134756 30.303914 50.168720 0
M  V30 44 H 39.928219 28.793141 49.815745 0
M  V30 45 H 40.711914 30.552916 53.133388 0
M  V30 46 H 39.245138 31.176464 52.535472 0
M  V30 47 H 36.654042 31.984991 61.447807 0
M  V30 48 H 37.797675 30.816720 60.838047 0
M  V30 49 H 39.913623 31.875586 55.088415 0
M  V30 50 H 38.238889 32.009409 54.619564 0
M  V30 51 H 37.557918 34.272076 61.852958 0
M  V30 END ATOM
M  V30 BEGIN BOND
M  V30 1 1 6 1
M  V30 2 1 7 3
M  V30 3 1 8 6
M  V30 4 1 9 3
M  V30 5 1 9 4
M  V30 6 1 11 7
M  V30 7 1 12 10
M  V30 8 1 13 6
M  V30 9 1 13 8
M  V30 10 1 14 8
M  V30 11 1 14 9
M  V30 12 1 15 1
M  V30 13 1 16 5
M  V30 14 1 16 10
M  V30 15 1 17 2
M  V30 16 1 17 10
M  V30 17 1 18 4
M  V30 18 1 18 13
M  V30 19 1 19 2
M  V30 20 1 19 15
M  V30 21 1 20 1
M  V30 22 1 21 1
M  V30 23 1 22 2
M  V30 24 1 23 2
M  V30 25 1 24 3
M  V30 26 1 25 3
M  V30 27 1 26 4
M  V30 28 1 27 4
M  V30 29 1 28 5
M  V30 30 1 29 5
M  V30 31 1 30 5
M  V30 32 1 31 7
M  V30 33 1 32 7
M  V30 34 1 10 33 CFG=1
M  V30 35 1 34 11
M  V30 36 1 35 12
M  V30 37 1 36 12
M  V30 38 1 37 12
M  V30 39 1 13 38 CFG=3
M  V30 40 1 39 14
M  V30 41 1 40 14
M  V30 42 1 41 15
M  V30 43 1 42 15
M  V30 44 1 43 16
M  V30 45 1 44 16
M  V30 46 1 45 17
M  V30 47 1 46 17
M  V30 48 1 47 18
M  V30 49 1 48 18
M  V30 50 1 49 19
M  V30 51 1 50 19
M  V30 52 1 9 51 CFG=1
M  V30 END BOND
M  V30 END CTAB
M  END
>  <i_epik_Tot_Q>  (1) 
1

>  <i_epik_Tot_abs_Q>  (1) 
1

>  <i_i_glide_confnum>  (1) 
71

>  <i_i_glide_lignum>  (1) 
70

>  <i_i_glide_posenum>  (1) 
317

>  <i_i_glide_rotatable_bonds>  (1) 
10

>  <i_lp_mmshare_version>  (1) 
72125

>  <i_m_source_file_index>  (1) 
32

>  <i_f3d_flags>  (1) 
0

>  <num_sample>  (1) 
50

>  <b_lp_Chiralities_Consistent>  (1) 
1

>  <r_epik_Charging_Adjusted_Penalty>  (1) 
0.062925192649716036

>  <r_epik_Ionization_Penalty>  (1) 
0.062927217042738556

>  <r_epik_Ionization_Penalty_Charging>  (1) 
0.062925192649716036

>  <r_epik_Ionization_Penalty_Neutral>  (1) 
2.0243930225180512e-06

>  <r_epik_State_Penalty>  (1) 
-0

>  <r_glide_ring_energy>  (1) 
0

>  <r_i_docking_score>  (1) 
-2.6854334814558456

>  <r_i_glide_ecoul>  (1) 
-1.4880575583535474

>  <r_i_glide_eff_state_penalty>  (1) 
-0

>  <r_i_glide_einternal>  (1) 
3.8203610761720004

>  <r_i_glide_emodel>  (1) 
-30.892919491294954

>  <r_i_glide_emodel_strain>  (1) 
2.4377627413285907

>  <r_i_glide_energy>  (1) 
-29.921513322566668

>  <r_i_glide_erotb>  (1) 
3.9128418167227688

>  <r_i_glide_esite>  (1) 
-0.13643236869429454

>  <r_i_glide_evdw>  (1) 
-28.433455764213122

>  <r_i_glide_gscore>  (1) 
-2.6854334814558456

>  <r_i_glide_gscore_strain>  (1) 
0

>  <r_i_glide_hbond>  (1) 
-0.010598904090868871

>  <r_i_glide_ligand_efficiency>  (1) 
-0.14133860428714975

>  <r_i_glide_ligand_efficiency_ln>  (1) 
-0.6808150653716909

>  <r_i_glide_ligand_efficiency_sa>  (1) 
-0.37714816470788903

>  <r_i_glide_lipo>  (1) 
-2.5436028078107089

>  <r_i_glide_metal>  (1) 
-0

>  <r_i_glide_rewards>  (1) 
-2.2627597956190546

>  <r_lp_Energy>  (1) 
22.842606999999997

>  <r_lp_tautomer_probability>  (1) 
1

>  <s_epik_Chemistry_Notes>  (1) 
This compound contains an acetal/aminal-like group ( X-CH(R)-Y where X, Y are N, S, or O) that may be acid/base labile, releasing an aldehyde.

>  <s_epik_cmdline>  (1) 
J2VwaWtfcHl0aG9uJywgJy1waHQnLCAnMS4wJywgJy1waCcsICc3LjQnLCAnLXRuJywgJzgnLCAnLW1hJywgJzUwMCcsICctaW1hZScsICc8aW5maWxlLm1hZT4nLCAnLW9tYWUnLCAnPG91dGZpbGUubWFlPic=

>  <s_epik_input>  (1) 
W0NIM11bQ0gyXVtDQEhdKFtDSDNdKVtDSDJdW0NIMl1bQ0gyXVtDSDJdW0NIMl1OMVtDQEhdKE4xMilbQ0gyXVtDSDJdTihbQ0gyXTIpW0NIMl1bQ0gyXVtPSF0=

>  <s_glide_docking_method>  (1) 
confgen

>  <s_i_glide_gridfile>  (1) 
gpcr_5ht2c_6bqh_protein_autoprepared_prepared

>  <s_lp_Force_Field>  (1) 
S-OPLS

>  <s_lp_Variant>  (1) 
DiffSBDD_31-2

>  <s_m_source_file>  (1) 
generated_GPCR_5HT2C_ligand_DiffSBDD_2026-06-23_prepared.sdf

>  <GenAI_Model>  (1) 
DiffSBDD

>  <Protein>  (1) 
GPCR_5HT2C

$$$$
DiffSBDD_35
     RDKit          3D

  0  0  0  0  0  0  0  0  0  0999 V3000
M  V30 BEGIN CTAB
M  V30 COUNTS 35 35 0 0 1
M  V30 BEGIN ATOM
M  V30 1 C 38.131553 31.569483 57.665817 0
M  V30 2 C 39.259064 29.141378 51.937598 0
M  V30 3 C 40.033788 29.839958 61.736381 0
M  V30 4 Cl 39.242236 27.469888 52.562268 0
M  V30 5 C 39.704811 28.416680 61.275976 0
M  V30 6 C 38.955969 28.410466 59.926241 0
M  V30 7 C 39.805906 28.952394 58.759255 0
M  V30 8 C 38.378861 30.079494 54.180394 0
M  V30 9 O 41.245137 30.144673 61.816079 0
M  V30 10 N 37.645260 31.002481 56.409230 0 CFG=2 CHG=1
M  V30 11 C 37.902342 30.090246 57.525920 0 CFG=1
M  V30 12 O 39.067078 30.593750 61.988610 0 CHG=-1
M  V30 13 C 39.053273 29.091147 57.427262 0
M  V30 14 C 39.435918 30.177815 53.060602 0
M  V30 15 C 38.563689 31.170189 55.249264 0
M  V30 16 H 37.360454 32.191154 58.117831 0
M  V30 17 H 39.139179 31.974560 57.593814 0
M  V30 18 H 38.322274 29.304227 51.409342 0
M  V30 19 H 40.064349 29.213803 51.203986 0
M  V30 20 H 40.620566 27.829239 61.208315 0
M  V30 21 H 39.095808 27.948398 62.048500 0
M  V30 22 H 38.628524 27.395704 59.695813 0
M  V30 23 H 38.047303 29.003862 60.033241 0
M  V30 24 H 40.182988 29.936704 59.024107 0
M  V30 25 H 40.687649 28.323144 58.625966 0
M  V30 26 H 37.372521 30.149247 53.770512 0
M  V30 27 H 38.443466 29.098504 54.648705 0
M  V30 28 H 36.958725 29.704770 57.910785 0
M  V30 29 H 38.651348 28.129219 57.109664 0
M  V30 30 H 39.782419 29.378927 56.673503 0
M  V30 31 H 40.435126 30.096662 53.488200 0
M  V30 32 H 39.394700 31.170298 52.612808 0
M  V30 33 H 39.607692 31.219801 55.558301 0
M  V30 34 H 38.353590 32.142541 54.802078 0
M  V30 35 H 36.666705 31.304746 56.312317 0
M  V30 END ATOM
M  V30 BEGIN BOND
M  V30 1 1 4 2
M  V30 2 1 5 3
M  V30 3 1 6 5
M  V30 4 1 7 6
M  V30 5 2 9 3
M  V30 6 1 10 1
M  V30 7 1 11 1
M  V30 8 1 11 10
M  V30 9 1 12 3
M  V30 10 1 13 7
M  V30 11 1 13 11
M  V30 12 1 14 2
M  V30 13 1 14 8
M  V30 14 1 15 8
M  V30 15 1 15 10
M  V30 16 1 16 1
M  V30 17 1 17 1
M  V30 18 1 18 2
M  V30 19 1 19 2
M  V30 20 1 20 5
M  V30 21 1 21 5
M  V30 22 1 22 6
M  V30 23 1 23 6
M  V30 24 1 24 7
M  V30 25 1 25 7
M  V30 26 1 26 8
M  V30 27 1 27 8
M  V30 28 1 11 28 CFG=1
M  V30 29 1 29 13
M  V30 30 1 30 13
M  V30 31 1 31 14
M  V30 32 1 32 14
M  V30 33 1 33 15
M  V30 34 1 34 15
M  V30 35 1 10 35 CFG=3
M  V30 END BOND
M  V30 END CTAB
M  END
>  <i_epik_Tot_Q>  (1) 
0

>  <i_epik_Tot_abs_Q>  (1) 
2

>  <i_i_glide_confnum>  (1) 
112

>  <i_i_glide_lignum>  (1) 
75

>  <i_i_glide_posenum>  (1) 
161

>  <i_i_glide_rotatable_bonds>  (1) 
9

>  <i_lp_mmshare_version>  (1) 
72125

>  <i_m_source_file_index>  (1) 
36

>  <i_f3d_flags>  (1) 
0

>  <num_sample>  (1) 
50

>  <b_lp_Chiralities_Consistent>  (1) 
1

>  <r_epik_Charging_Adjusted_Penalty>  (1) 
0.027909031971393675

>  <r_epik_Ionization_Penalty>  (1) 
0.014709138794413591

>  <r_epik_Ionization_Penalty_Charging>  (1) 
0.014709138794413591

>  <r_epik_Ionization_Penalty_Neutral>  (1) 
0

>  <r_epik_State_Penalty>  (1) 
0.013199893176980082

>  <r_glide_ring_energy>  (1) 
0

>  <r_i_docking_score>  (1) 
-2.6546090783195031

>  <r_i_glide_ecoul>  (1) 
-10.128921949859579

>  <r_i_glide_eff_state_penalty>  (1) 
0.013199893176980082

>  <r_i_glide_einternal>  (1) 
4.369150014397718

>  <r_i_glide_emodel>  (1) 
-32.935784763047266

>  <r_i_glide_emodel_strain>  (1) 
0.34192823571127562

>  <r_i_glide_energy>  (1) 
-28.903320351765068

>  <r_i_glide_erotb>  (1) 
4.3969454850061123

>  <r_i_glide_esite>  (1) 
-0.10000000000000001

>  <r_i_glide_evdw>  (1) 
-18.774398401905486

>  <r_i_glide_gscore>  (1) 
-2.6678089714964832

>  <r_i_glide_gscore_strain>  (1) 
0

>  <r_i_glide_hbond>  (1) 
-0.358704056184727

>  <r_i_glide_ligand_efficiency>  (1) 
-0.17697393855463353

>  <r_i_glide_ligand_efficiency_ln>  (1) 
-0.71590429857999927

>  <r_i_glide_ligand_efficiency_sa>  (1) 
-0.43645526410525604

>  <r_i_glide_lipo>  (1) 
-1.8019516810998628

>  <r_i_glide_metal>  (1) 
-0

>  <r_i_glide_rewards>  (1) 
-2.3460405066437939

>  <r_lp_Energy>  (1) 
16.179413

>  <s_epik_cmdline>  (1) 
J2VwaWtfcHl0aG9uJywgJy1waHQnLCAnMS4wJywgJy1waCcsICc3LjQnLCAnLXRuJywgJzgnLCAnLW1hJywgJzUwMCcsICctaW1hZScsICc8aW5maWxlLm1hZT4nLCAnLW9tYWUnLCAnPG91dGZpbGUubWFlPic=

>  <s_epik_input>  (1) 
Q2xbQ0gyXVtDSDJdW0NIMl1bQ0gyXU4xW0NIMl1bQ0BASF0xW0NIMl1bQ0gyXVtDSDJdW0NIMl1DKD1PKVtPSF0=

>  <s_glide_docking_method>  (1) 
confgen

>  <s_i_glide_gridfile>  (1) 
gpcr_5ht2c_6bqh_protein_autoprepared_prepared

>  <s_lp_Force_Field>  (1) 
S-OPLS

>  <s_lp_Variant>  (1) 
DiffSBDD_35-1

>  <s_m_source_file>  (1) 
generated_GPCR_5HT2C_ligand_DiffSBDD_2026-06-23_prepared.sdf

>  <GenAI_Model>  (1) 
DiffSBDD

>  <Protein>  (1) 
GPCR_5HT2C

$$$$
DiffSBDD_37
     RDKit          3D

  0  0  0  0  0  0  0  0  0  0999 V3000
M  V30 BEGIN CTAB
M  V30 COUNTS 52 52 0 0 1
M  V30 BEGIN ATOM
M  V30 1 C 40.573854 29.883922 50.799491 0
M  V30 2 C 37.043943 38.151278 61.315464 0
M  V30 3 C 39.349075 31.005462 55.684670 0
M  V30 4 C 38.246767 30.313488 54.868152 0
M  V30 5 C 38.566282 28.823537 54.638676 0
M  V30 6 C 38.039825 39.134025 60.680783 0
M  V30 7 O 38.374473 36.340188 62.169308 0
M  V30 8 C 40.143597 29.531370 49.401509 0
M  V30 9 C 37.990761 33.538902 58.148105 0
M  V30 10 C 40.044557 30.955931 49.880481 0
M  V30 11 C 37.583011 36.725497 61.310574 0
M  V30 12 C 38.016133 28.254707 53.317440 0
M  V30 13 C 38.798848 28.619258 52.059936 0
M  V30 14 C 37.324364 34.306476 60.505357 0
M  V30 15 O 37.645076 40.457619 60.967677 0
M  V30 16 C 39.803694 29.519644 52.017786 0
M  V30 17 N 38.045101 32.330661 57.305519 0 CHG=1
M  V30 18 C 37.102780 35.798454 60.188637 0
M  V30 19 C 38.978056 32.411791 56.167524 0
M  V30 20 C 37.027989 33.356992 59.333019 0
M  V30 21 H 41.646607 29.863672 50.968059 0
M  V30 22 H 36.844736 38.428564 62.350559 0
M  V30 23 H 36.085530 38.179066 60.797066 0
M  V30 24 H 40.246518 31.072967 55.068578 0
M  V30 25 H 39.623603 30.387402 56.541225 0
M  V30 26 H 37.280732 30.398089 55.368025 0
M  V30 27 H 38.132137 30.838653 53.919254 0
M  V30 28 H 39.641356 28.644826 54.683504 0
M  V30 29 H 38.153788 28.254489 55.472859 0
M  V30 30 H 38.063185 38.997671 59.598980 0
M  V30 31 H 39.051447 38.980914 61.059857 0
M  V30 32 H 40.904230 29.337769 48.650610 0
M  V30 33 H 39.245197 28.937758 49.319011 0
M  V30 34 H 37.680958 34.392455 57.543389 0
M  V30 35 H 38.997087 33.736904 58.519194 0
M  V30 36 H 39.050386 31.354405 50.065985 0
M  V30 37 H 40.756066 31.662806 49.467144 0
M  V30 38 H 38.019863 27.165821 53.381383 0
M  V30 39 H 36.972520 28.542257 53.183556 0
M  V30 40 H 38.506678 28.105823 51.156698 0
M  V30 41 H 38.350628 34.136886 60.835451 0
M  V30 42 H 36.691045 34.030319 61.350207 0
M  V30 43 H 36.735220 40.550275 60.710733 0
M  V30 44 H 40.089969 30.029991 52.921941 0
M  V30 45 H 38.320153 31.557077 57.890873 0
M  V30 46 H 36.046080 35.982854 59.993068 0
M  V30 47 H 37.644909 36.079157 59.286785 0
M  V30 48 H 38.547137 33.013953 55.366110 0
M  V30 49 H 39.888929 32.918671 56.489518 0
M  V30 50 H 37.110679 32.336539 59.709651 0
M  V30 51 H 35.995515 33.470740 58.998435 0
M  V30 52 H 37.096631 32.138464 56.968049 0
M  V30 END ATOM
M  V30 BEGIN BOND
M  V30 1 1 4 3
M  V30 2 1 5 4
M  V30 3 1 6 2
M  V30 4 1 8 1
M  V30 5 1 10 1
M  V30 6 1 10 8
M  V30 7 1 11 2
M  V30 8 2 11 7
M  V30 9 1 12 5
M  V30 10 1 13 12
M  V30 11 1 15 6
M  V30 12 1 16 1
M  V30 13 2 16 13
M  V30 14 1 17 9
M  V30 15 1 18 11
M  V30 16 1 18 14
M  V30 17 1 19 3
M  V30 18 1 19 17
M  V30 19 1 20 9
M  V30 20 1 20 14
M  V30 21 1 21 1
M  V30 22 1 22 2
M  V30 23 1 23 2
M  V30 24 1 24 3
M  V30 25 1 25 3
M  V30 26 1 26 4
M  V30 27 1 27 4
M  V30 28 1 28 5
M  V30 29 1 29 5
M  V30 30 1 30 6
M  V30 31 1 31 6
M  V30 32 1 32 8
M  V30 33 1 33 8
M  V30 34 1 34 9
M  V30 35 1 35 9
M  V30 36 1 36 10
M  V30 37 1 37 10
M  V30 38 1 38 12
M  V30 39 1 39 12
M  V30 40 1 40 13
M  V30 41 1 41 14
M  V30 42 1 42 14
M  V30 43 1 43 15
M  V30 44 1 44 16
M  V30 45 1 45 17
M  V30 46 1 46 18
M  V30 47 1 47 18
M  V30 48 1 48 19
M  V30 49 1 49 19
M  V30 50 1 50 20
M  V30 51 1 51 20
M  V30 52 1 52 17
M  V30 END BOND
M  V30 END CTAB
M  END
>  <i_epik_Tot_Q>  (1) 
1

>  <i_epik_Tot_abs_Q>  (1) 
1

>  <i_i_glide_confnum>  (1) 
1194

>  <i_i_glide_lignum>  (1) 
79

>  <i_i_glide_posenum>  (1) 
183

>  <i_i_glide_rotatable_bonds>  (1) 
15

>  <i_lp_mmshare_version>  (1) 
72125

>  <i_m_source_file_index>  (1) 
38

>  <i_f3d_flags>  (1) 
0

>  <num_sample>  (1) 
50

>  <b_lp_Chiralities_Consistent>  (1) 
1

>  <r_epik_Charging_Adjusted_Penalty>  (1) 
0.00044471717516118901

>  <r_epik_Ionization_Penalty>  (1) 
0.00044477137766854211

>  <r_epik_Ionization_Penalty_Charging>  (1) 
0.00044471717516118901

>  <r_epik_Ionization_Penalty_Neutral>  (1) 
5.4202507353122852e-08

>  <r_epik_State_Penalty>  (1) 
-0

>  <r_glide_ring_energy>  (1) 
0

>  <r_i_docking_score>  (1) 
-2.5991780803123761

>  <r_i_glide_ecoul>  (1) 
-8.2394467026949183

>  <r_i_glide_eff_state_penalty>  (1) 
-0

>  <r_i_glide_einternal>  (1) 
11.888559441387375

>  <r_i_glide_emodel>  (1) 
-41.385739929041762

>  <r_i_glide_emodel_strain>  (1) 
1.2607384308931771

>  <r_i_glide_energy>  (1) 
-40.619598318273418

>  <r_i_glide_erotb>  (1) 
5.8968889253399706

>  <r_i_glide_esite>  (1) 
-0.10000000000000001

>  <r_i_glide_evdw>  (1) 
-32.380151615578498

>  <r_i_glide_gscore>  (1) 
-2.5991780803123761

>  <r_i_glide_gscore_strain>  (1) 
0

>  <r_i_glide_hbond>  (1) 
-0.49861838536480085

>  <r_i_glide_ligand_efficiency>  (1) 
-0.1299589040156188

>  <r_i_glide_ligand_efficiency_ln>  (1) 
-0.65048854687167157

>  <r_i_glide_ligand_efficiency_sa>  (1) 
-0.35276273849336226

>  <r_i_glide_lipo>  (1) 
-2.6398072504948704

>  <r_i_glide_metal>  (1) 
-0

>  <r_i_glide_rewards>  (1) 
-2.4027167836095131

>  <r_lp_Energy>  (1) 
10.148906

>  <r_lp_tautomer_probability>  (1) 
1

>  <s_epik_cmdline>  (1) 
J2VwaWtfcHl0aG9uJywgJy1waHQnLCAnMS4wJywgJy1waCcsICc3LjQnLCAnLXRuJywgJzgnLCAnLW1hJywgJzUwMCcsICctaW1hZScsICc8aW5maWxlLm1hZT4nLCAnLW9tYWUnLCAnPG91dGZpbGUubWFlPic=

>  <s_epik_input>  (1) 
W0NIMl0xW0NIMl1bQ0hdMVxbQ0hdPVtDSF1cW0NIMl1bQ0gyXVtDSDJdW0NIMl1bQ0gyXVtOSF1bQ0gyXVtDSDJdW0NIMl1bQ0gyXUMoPU8pW0NIMl1bQ0gyXVtPSF0=

>  <s_glide_docking_method>  (1) 
confgen

>  <s_i_glide_gridfile>  (1) 
gpcr_5ht2c_6bqh_protein_autoprepared_prepared

>  <s_lp_Force_Field>  (1) 
S-OPLS

>  <s_lp_Variant>  (1) 
DiffSBDD_37-2

>  <s_m_source_file>  (1) 
generated_GPCR_5HT2C_ligand_DiffSBDD_2026-06-23_prepared.sdf

>  <GenAI_Model>  (1) 
DiffSBDD

>  <Protein>  (1) 
GPCR_5HT2C

$$$$
DiffSBDD_37
     RDKit          3D

  0  0  0  0  0  0  0  0  0  0999 V3000
M  V30 BEGIN CTAB
M  V30 COUNTS 52 52 0 0 1
M  V30 BEGIN ATOM
M  V30 1 C 40.374392 29.350642 50.999972 0
M  V30 2 C 38.175854 37.993472 61.226495 0
M  V30 3 C 37.429878 29.443450 57.185022 0
M  V30 4 C 38.313865 29.764493 55.977949 0
M  V30 5 C 37.935298 28.938203 54.744893 0
M  V30 6 C 38.188584 39.337371 60.475942 0
M  V30 7 O 37.009416 36.961463 59.379833 0
M  V30 8 C 40.633875 30.130331 49.736175 0
M  V30 9 C 38.039957 32.296621 59.623124 0
M  V30 10 C 40.401220 30.864320 51.026434 0
M  V30 11 C 37.387657 36.871051 60.546918 0
M  V30 12 C 38.640190 29.468823 53.498835 0
M  V30 13 C 38.325345 28.646565 52.261647 0
M  V30 14 C 37.940915 34.408974 60.995796 0
M  V30 15 O 39.245145 40.137756 60.967759 0
M  V30 16 C 39.104491 28.602745 51.167405 0
M  V30 17 N 37.645138 31.597464 58.387334 0 CHG=1
M  V30 18 C 37.095635 35.627970 61.383120 0
M  V30 19 C 37.888546 30.144554 58.459597 0
M  V30 20 C 37.483233 33.719353 59.698551 0
M  V30 21 H 41.232362 28.812743 51.396056 0
M  V30 22 H 39.194546 37.631372 61.367761 0
M  V30 23 H 37.758724 38.137738 62.219672 0
M  V30 24 H 37.427221 28.366414 57.357605 0
M  V30 25 H 36.402302 29.737745 56.968904 0
M  V30 26 H 38.223513 30.826017 55.743158 0
M  V30 27 H 39.363433 29.589962 56.219098 0
M  V30 28 H 38.187256 27.889202 54.907291 0
M  V30 29 H 36.856948 28.983277 54.584111 0
M  V30 30 H 37.245655 39.861366 60.635855 0
M  V30 31 H 38.315577 39.216356 59.399493 0
M  V30 32 H 41.645113 30.137756 49.337237 0
M  V30 33 H 39.835233 30.137735 48.996921 0
M  V30 34 H 39.128681 32.310443 59.691527 0
M  V30 35 H 37.674195 31.732195 60.482209 0
M  V30 36 H 39.473960 31.422433 51.089894 0
M  V30 37 H 41.245138 31.337721 51.511705 0
M  V30 38 H 38.335241 30.505337 53.362251 0
M  V30 39 H 39.717136 29.486563 53.659249 0
M  V30 40 H 37.412153 28.068657 52.285139 0
M  V30 41 H 38.995314 34.679626 60.924409 0
M  V30 42 H 37.874113 33.694459 61.816398 0
M  V30 43 H 40.060153 39.858302 60.567760 0
M  V30 44 H 38.802502 27.984418 50.335293 0
M  V30 45 H 36.654605 31.737761 58.185909 0
M  V30 46 H 37.270438 35.875307 62.430411 0
M  V30 47 H 36.045141 35.366537 61.297335 0
M  V30 48 H 38.945240 29.947938 58.647516 0
M  V30 49 H 37.331598 29.736124 59.304816 0
M  V30 50 H 36.393680 33.673351 59.667693 0
M  V30 51 H 37.790416 34.302374 58.829283 0
M  V30 52 H 38.153304 31.984430 57.605351 0
M  V30 END ATOM
M  V30 BEGIN BOND
M  V30 1 1 4 3
M  V30 2 1 5 4
M  V30 3 1 6 2
M  V30 4 1 8 1
M  V30 5 1 10 1
M  V30 6 1 10 8
M  V30 7 1 11 2
M  V30 8 2 11 7
M  V30 9 1 12 5
M  V30 10 1 13 12
M  V30 11 1 15 6
M  V30 12 1 16 1
M  V30 13 2 16 13
M  V30 14 1 17 9
M  V30 15 1 18 11
M  V30 16 1 18 14
M  V30 17 1 19 3
M  V30 18 1 19 17
M  V30 19 1 20 9
M  V30 20 1 20 14
M  V30 21 1 21 1
M  V30 22 1 22 2
M  V30 23 1 23 2
M  V30 24 1 24 3
M  V30 25 1 25 3
M  V30 26 1 26 4
M  V30 27 1 27 4
M  V30 28 1 28 5
M  V30 29 1 29 5
M  V30 30 1 30 6
M  V30 31 1 31 6
M  V30 32 1 32 8
M  V30 33 1 33 8
M  V30 34 1 34 9
M  V30 35 1 35 9
M  V30 36 1 36 10
M  V30 37 1 37 10
M  V30 38 1 38 12
M  V30 39 1 39 12
M  V30 40 1 40 13
M  V30 41 1 41 14
M  V30 42 1 42 14
M  V30 43 1 43 15
M  V30 44 1 44 16
M  V30 45 1 45 17
M  V30 46 1 46 18
M  V30 47 1 47 18
M  V30 48 1 48 19
M  V30 49 1 49 19
M  V30 50 1 50 20
M  V30 51 1 51 20
M  V30 52 1 52 17
M  V30 END BOND
M  V30 END CTAB
M  END
>  <i_epik_Tot_Q>  (1) 
1

>  <i_epik_Tot_abs_Q>  (1) 
1

>  <i_i_glide_confnum>  (1) 
760

>  <i_i_glide_lignum>  (1) 
78

>  <i_i_glide_posenum>  (1) 
189

>  <i_i_glide_rotatable_bonds>  (1) 
15

>  <i_lp_mmshare_version>  (1) 
72125

>  <i_m_source_file_index>  (1) 
38

>  <i_f3d_flags>  (1) 
0

>  <num_sample>  (1) 
50

>  <b_lp_Chiralities_Consistent>  (1) 
1

>  <r_epik_Charging_Adjusted_Penalty>  (1) 
0.00044471717516118901

>  <r_epik_Ionization_Penalty>  (1) 
0.00044477137766854211

>  <r_epik_Ionization_Penalty_Charging>  (1) 
0.00044471717516118901

>  <r_epik_Ionization_Penalty_Neutral>  (1) 
5.4202507353122852e-08

>  <r_epik_State_Penalty>  (1) 
-0

>  <r_glide_ring_energy>  (1) 
0

>  <r_i_docking_score>  (1) 
-2.5793941793052984

>  <r_i_glide_ecoul>  (1) 
-10.004766985086432

>  <r_i_glide_eff_state_penalty>  (1) 
-0

>  <r_i_glide_einternal>  (1) 
10.782721435564826

>  <r_i_glide_emodel>  (1) 
-39.405573266841706

>  <r_i_glide_emodel_strain>  (1) 
1.5388748621457751

>  <r_i_glide_energy>  (1) 
-38.716089957174852

>  <r_i_glide_erotb>  (1) 
5.8968889253399706

>  <r_i_glide_esite>  (1) 
-0.10000000000000001

>  <r_i_glide_evdw>  (1) 
-28.711322972088421

>  <r_i_glide_gscore>  (1) 
-2.5793941793052984

>  <r_i_glide_gscore_strain>  (1) 
0

>  <r_i_glide_hbond>  (1) 
-0.5728550713941154

>  <r_i_glide_ligand_efficiency>  (1) 
-0.12896970896526491

>  <r_i_glide_ligand_efficiency_ln>  (1) 
-0.64553728896632623

>  <r_i_glide_ligand_efficiency_sa>  (1) 
-0.35007765002243318

>  <r_i_glide_lipo>  (1) 
-2.5018526717863017

>  <r_i_glide_metal>  (1) 
-0

>  <r_i_glide_rewards>  (1) 
-2.3652941650974659

>  <r_lp_Energy>  (1) 
13.935627999999999

>  <r_lp_tautomer_probability>  (1) 
1

>  <s_epik_cmdline>  (1) 
J2VwaWtfcHl0aG9uJywgJy1waHQnLCAnMS4wJywgJy1waCcsICc3LjQnLCAnLXRuJywgJzgnLCAnLW1hJywgJzUwMCcsICctaW1hZScsICc8aW5maWxlLm1hZT4nLCAnLW9tYWUnLCAnPG91dGZpbGUubWFlPic=

>  <s_epik_input>  (1) 
W0NIMl0xW0NIMl1bQ0hdMS9bQ0hdPVtDSF1cW0NIMl1bQ0gyXVtDSDJdW0NIMl1bQ0gyXVtOSF1bQ0gyXVtDSDJdW0NIMl1bQ0gyXUMoPU8pW0NIMl1bQ0gyXVtPSF0=

>  <s_glide_docking_method>  (1) 
confgen

>  <s_i_glide_gridfile>  (1) 
gpcr_5ht2c_6bqh_protein_autoprepared_prepared

>  <s_lp_Force_Field>  (1) 
S-OPLS

>  <s_lp_Variant>  (1) 
DiffSBDD_37-1

>  <s_m_source_file>  (1) 
generated_GPCR_5HT2C_ligand_DiffSBDD_2026-06-23_prepared.sdf

>  <GenAI_Model>  (1) 
DiffSBDD

>  <Protein>  (1) 
GPCR_5HT2C

$$$$
DiffSBDD_37
     RDKit          3D

  0  0  0  0  0  0  0  0  0  0999 V3000
M  V30 BEGIN CTAB
M  V30 COUNTS 52 52 0 0 1
M  V30 BEGIN ATOM
M  V30 1 C 38.111448 26.327628 56.063447 0
M  V30 2 C 41.207495 35.614764 62.459968 0
M  V30 3 C 38.412370 31.288301 55.572535 0
M  V30 4 C 39.018585 30.859118 54.225993 0
M  V30 5 C 39.104061 29.332540 54.043533 0
M  V30 6 C 42.015509 35.452244 63.761694 0
M  V30 7 O 40.278062 33.409752 62.809686 0
M  V30 8 C 37.434474 25.357128 57.001211 0
M  V30 9 C 38.361073 32.982414 58.240630 0
M  V30 10 C 38.941313 25.367798 56.882962 0
M  V30 11 C 40.290496 34.431942 62.123445 0
M  V30 12 C 37.739637 28.621864 54.049366 0
M  V30 13 C 37.843981 27.149467 53.692312 0
M  V30 14 C 38.331885 33.465708 60.757159 0
M  V30 15 O 41.216913 35.737745 64.886513 0
M  V30 16 C 38.003351 26.154437 54.587224 0
M  V30 17 N 37.645136 33.210226 56.971731 0 CHG=1
M  V30 18 C 39.395968 34.575481 60.888649 0
M  V30 19 C 38.375007 32.814615 55.750626 0
M  V30 20 C 37.558604 33.529592 59.430604 0
M  V30 21 H 38.154344 27.363402 56.389420 0
M  V30 22 H 40.617088 36.530727 62.498613 0
M  V30 23 H 41.896761 35.733283 61.623983 0
M  V30 24 H 38.981690 30.828989 56.380972 0
M  V30 25 H 37.393214 30.908410 55.654799 0
M  V30 26 H 38.445410 31.293660 53.407076 0
M  V30 27 H 40.023724 31.275244 54.141130 0
M  V30 28 H 39.610727 29.125970 53.099767 0
M  V30 29 H 39.732307 28.908853 54.828022 0
M  V30 30 H 42.845105 36.156132 63.768633 0
M  V30 31 H 42.444025 34.453020 63.851384 0
M  V30 32 H 36.996176 25.761585 57.910190 0
M  V30 33 H 36.896915 24.521384 56.558943 0
M  V30 34 H 39.337435 33.462291 58.186003 0
M  V30 35 H 38.540028 31.916302 58.378616 0
M  V30 36 H 39.416126 24.538368 56.362545 0
M  V30 37 H 39.510511 25.781891 57.713025 0
M  V30 38 H 37.245601 28.742713 55.010152 0
M  V30 39 H 37.073476 29.082052 53.323134 0
M  V30 40 H 37.783349 26.908143 52.639628 0
M  V30 41 H 38.780878 32.476666 60.865215 0
M  V30 42 H 37.623019 33.567971 61.580056 0
M  V30 43 H 41.206689 36.684593 64.984243 0
M  V30 44 H 38.060922 25.139059 54.224704 0
M  V30 45 H 36.750185 32.702252 56.968801 0
M  V30 46 H 38.910204 35.551426 60.920893 0
M  V30 47 H 40.044231 34.580239 60.014236 0
M  V30 48 H 37.850924 33.259340 54.903573 0
M  V30 49 H 39.379760 33.238928 55.758616 0
M  V30 50 H 36.640375 32.947390 59.526559 0
M  V30 51 H 37.247125 34.557995 59.240000 0
M  V30 52 H 37.431151 34.195859 56.905135 0
M  V30 END ATOM
M  V30 BEGIN BOND
M  V30 1 1 4 3
M  V30 2 1 5 4
M  V30 3 1 6 2
M  V30 4 1 8 1
M  V30 5 1 10 1
M  V30 6 1 10 8
M  V30 7 1 11 2
M  V30 8 2 11 7
M  V30 9 1 12 5
M  V30 10 1 13 12
M  V30 11 1 15 6
M  V30 12 1 16 1
M  V30 13 2 16 13
M  V30 14 1 17 9
M  V30 15 1 18 11
M  V30 16 1 18 14
M  V30 17 1 19 3
M  V30 18 1 19 17
M  V30 19 1 20 9
M  V30 20 1 20 14
M  V30 21 1 21 1
M  V30 22 1 22 2
M  V30 23 1 23 2
M  V30 24 1 24 3
M  V30 25 1 25 3
M  V30 26 1 26 4
M  V30 27 1 27 4
M  V30 28 1 28 5
M  V30 29 1 29 5
M  V30 30 1 30 6
M  V30 31 1 31 6
M  V30 32 1 32 8
M  V30 33 1 33 8
M  V30 34 1 34 9
M  V30 35 1 35 9
M  V30 36 1 36 10
M  V30 37 1 37 10
M  V30 38 1 38 12
M  V30 39 1 39 12
M  V30 40 1 40 13
M  V30 41 1 41 14
M  V30 42 1 42 14
M  V30 43 1 43 15
M  V30 44 1 44 16
M  V30 45 1 45 17
M  V30 46 1 46 18
M  V30 47 1 47 18
M  V30 48 1 48 19
M  V30 49 1 49 19
M  V30 50 1 50 20
M  V30 51 1 51 20
M  V30 52 1 52 17
M  V30 END BOND
M  V30 END CTAB
M  END
>  <i_epik_Tot_Q>  (1) 
1

>  <i_epik_Tot_abs_Q>  (1) 
1

>  <i_i_glide_confnum>  (1) 
1223

>  <i_i_glide_lignum>  (1) 
78

>  <i_i_glide_posenum>  (1) 
59

>  <i_i_glide_rotatable_bonds>  (1) 
15

>  <i_lp_mmshare_version>  (1) 
72125

>  <i_m_source_file_index>  (1) 
38

>  <i_f3d_flags>  (1) 
0

>  <num_sample>  (1) 
50

>  <b_lp_Chiralities_Consistent>  (1) 
1

>  <r_epik_Charging_Adjusted_Penalty>  (1) 
0.00044471717516118901

>  <r_epik_Ionization_Penalty>  (1) 
0.00044477137766854211

>  <r_epik_Ionization_Penalty_Charging>  (1) 
0.00044471717516118901

>  <r_epik_Ionization_Penalty_Neutral>  (1) 
5.4202507353122852e-08

>  <r_epik_State_Penalty>  (1) 
-0

>  <r_glide_ring_energy>  (1) 
0

>  <r_i_docking_score>  (1) 
-2.5277684577692083

>  <r_i_glide_ecoul>  (1) 
-8.111860898645423

>  <r_i_glide_eff_state_penalty>  (1) 
-0

>  <r_i_glide_einternal>  (1) 
8.2954007002278836

>  <r_i_glide_emodel>  (1) 
-40.867544079046382

>  <r_i_glide_emodel_strain>  (1) 
0.22752765890937532

>  <r_i_glide_energy>  (1) 
-37.77555935233574

>  <r_i_glide_erotb>  (1) 
5.8968889253399706

>  <r_i_glide_esite>  (1) 
-0.10000000000000001

>  <r_i_glide_evdw>  (1) 
-29.663698453690319

>  <r_i_glide_gscore>  (1) 
-2.5277684577692083

>  <r_i_glide_gscore_strain>  (1) 
0

>  <r_i_glide_hbond>  (1) 
-0.54222306848531066

>  <r_i_glide_ligand_efficiency>  (1) 
-0.12638842288846042

>  <r_i_glide_ligand_efficiency_ln>  (1) 
-0.63261707359609787

>  <r_i_glide_ligand_efficiency_sa>  (1) 
-0.34307096162208389

>  <r_i_glide_lipo>  (1) 
-2.8819971475846744

>  <r_i_glide_metal>  (1) 
-0

>  <r_i_glide_rewards>  (1) 
-2.2004731095578651

>  <r_lp_Energy>  (1) 
13.935627999999999

>  <r_lp_tautomer_probability>  (1) 
1

>  <s_epik_cmdline>  (1) 
J2VwaWtfcHl0aG9uJywgJy1waHQnLCAnMS4wJywgJy1waCcsICc3LjQnLCAnLXRuJywgJzgnLCAnLW1hJywgJzUwMCcsICctaW1hZScsICc8aW5maWxlLm1hZT4nLCAnLW9tYWUnLCAnPG91dGZpbGUubWFlPic=

>  <s_epik_input>  (1) 
W0NIMl0xW0NIMl1bQ0hdMS9bQ0hdPVtDSF1cW0NIMl1bQ0gyXVtDSDJdW0NIMl1bQ0gyXVtOSF1bQ0gyXVtDSDJdW0NIMl1bQ0gyXUMoPU8pW0NIMl1bQ0gyXVtPSF0=

>  <s_glide_docking_method>  (1) 
confgen

>  <s_i_glide_gridfile>  (1) 
gpcr_5ht2c_6bqh_protein_autoprepared_prepared

>  <s_lp_Force_Field>  (1) 
S-OPLS

>  <s_lp_Variant>  (1) 
DiffSBDD_37-1

>  <s_m_source_file>  (1) 
generated_GPCR_5HT2C_ligand_DiffSBDD_2026-06-23_prepared.sdf

>  <GenAI_Model>  (1) 
DiffSBDD

>  <Protein>  (1) 
GPCR_5HT2C

$$$$
DiffSBDD_31
     RDKit          3D

  0  0  0  0  0  0  0  0  0  0999 V3000
M  V30 BEGIN CTAB
M  V30 COUNTS 51 52 0 0 1
M  V30 BEGIN ATOM
M  V30 1 C 38.475174 32.463448 56.921811 0
M  V30 2 C 39.010668 30.180492 53.760028 0
M  V30 3 C 39.688848 33.307896 62.541451 0
M  V30 4 C 38.056064 31.912039 61.330937 0
M  V30 5 C 39.205718 27.162751 52.169978 0
M  V30 6 N 38.445120 32.226695 58.360128 0
M  V30 7 C 40.045202 34.749883 62.956941 0
M  V30 8 N 38.343616 33.589324 59.026651 0
M  V30 9 N 38.705665 33.236459 61.427925 0 CFG=2 CHG=1
M  V30 10 C 39.516438 29.567211 51.238287 0 CFG=1
M  V30 11 O 41.038028 35.295878 62.114680 0
M  V30 12 C 40.091952 30.235844 49.976640 0
M  V30 13 C 37.220719 32.659385 59.002480 0 CFG=2
M  V30 14 C 39.303784 33.599899 60.126052 0
M  V30 15 C 38.505050 31.149662 56.121347 0
M  V30 16 C 40.072429 28.137749 51.365131 0
M  V30 17 C 39.783605 30.481370 52.460266 0
M  V30 18 C 36.899238 31.970709 60.325646 0
M  V30 19 C 39.037007 31.396538 54.700084 0
M  V30 20 H 37.645495 33.086779 56.582462 0
M  V30 21 H 39.387679 33.022074 56.711316 0
M  V30 22 H 39.464816 29.330959 54.267721 0
M  V30 23 H 37.978144 29.908990 53.540209 0
M  V30 24 H 39.245137 32.823639 63.408964 0
M  V30 25 H 40.586191 32.732120 62.307259 0
M  V30 26 H 38.788923 31.161938 61.027927 0
M  V30 27 H 37.669568 31.601699 62.302335 0
M  V30 28 H 39.644455 26.165956 52.136203 0
M  V30 29 H 38.198597 27.095221 51.756927 0
M  V30 30 H 39.122240 27.440620 53.217390 0
M  V30 31 H 39.165089 35.393817 62.967583 0
M  V30 32 H 40.449374 34.746942 63.970140 0
M  V30 33 H 38.445154 29.475653 51.080380 0
M  V30 34 H 41.300349 36.138888 62.458993 0
M  V30 35 H 41.173531 30.358185 50.048420 0
M  V30 36 H 39.657227 31.223382 49.817395 0
M  V30 37 H 39.880619 29.647198 49.083509 0
M  V30 38 H 36.372524 32.938504 58.391474 0
M  V30 39 H 40.140829 32.937662 59.916034 0
M  V30 40 H 39.705056 34.610648 60.168040 0
M  V30 41 H 39.145483 30.418791 56.616884 0
M  V30 42 H 37.502888 30.719873 56.088056 0
M  V30 43 H 41.082598 28.159587 51.767602 0
M  V30 44 H 40.164170 27.709783 50.366318 0
M  V30 45 H 40.845095 30.491439 52.684581 0
M  V30 46 H 39.565836 31.509080 52.167986 0
M  V30 47 H 36.064983 32.510448 60.775381 0
M  V30 48 H 36.529970 30.966059 60.115550 0
M  V30 49 H 40.068264 31.738194 54.784840 0
M  V30 50 H 38.475407 32.211724 54.240703 0
M  V30 51 H 37.981234 33.912397 61.622938 0
M  V30 END ATOM
M  V30 BEGIN BOND
M  V30 1 1 6 1
M  V30 2 1 7 3
M  V30 3 1 8 6
M  V30 4 1 9 3
M  V30 5 1 9 4
M  V30 6 1 11 7
M  V30 7 1 12 10
M  V30 8 1 13 6
M  V30 9 1 13 8
M  V30 10 1 14 8
M  V30 11 1 14 9
M  V30 12 1 15 1
M  V30 13 1 16 5
M  V30 14 1 16 10
M  V30 15 1 17 2
M  V30 16 1 17 10
M  V30 17 1 18 4
M  V30 18 1 18 13
M  V30 19 1 19 2
M  V30 20 1 19 15
M  V30 21 1 20 1
M  V30 22 1 21 1
M  V30 23 1 22 2
M  V30 24 1 23 2
M  V30 25 1 24 3
M  V30 26 1 25 3
M  V30 27 1 26 4
M  V30 28 1 27 4
M  V30 29 1 28 5
M  V30 30 1 29 5
M  V30 31 1 30 5
M  V30 32 1 31 7
M  V30 33 1 32 7
M  V30 34 1 10 33 CFG=3
M  V30 35 1 34 11
M  V30 36 1 35 12
M  V30 37 1 36 12
M  V30 38 1 37 12
M  V30 39 1 13 38 CFG=3
M  V30 40 1 39 14
M  V30 41 1 40 14
M  V30 42 1 41 15
M  V30 43 1 42 15
M  V30 44 1 43 16
M  V30 45 1 44 16
M  V30 46 1 45 17
M  V30 47 1 46 17
M  V30 48 1 47 18
M  V30 49 1 48 18
M  V30 50 1 49 19
M  V30 51 1 50 19
M  V30 52 1 9 51 CFG=1
M  V30 END BOND
M  V30 END CTAB
M  END
>  <i_epik_Tot_Q>  (1) 
1

>  <i_epik_Tot_abs_Q>  (1) 
1

>  <i_i_glide_confnum>  (1) 
44

>  <i_i_glide_lignum>  (1) 
70

>  <i_i_glide_posenum>  (1) 
289

>  <i_i_glide_rotatable_bonds>  (1) 
10

>  <i_lp_mmshare_version>  (1) 
72125

>  <i_m_source_file_index>  (1) 
32

>  <i_f3d_flags>  (1) 
0

>  <num_sample>  (1) 
50

>  <b_lp_Chiralities_Consistent>  (1) 
1

>  <r_epik_Charging_Adjusted_Penalty>  (1) 
0.062925192649716036

>  <r_epik_Ionization_Penalty>  (1) 
0.062927217042738556

>  <r_epik_Ionization_Penalty_Charging>  (1) 
0.062925192649716036

>  <r_epik_Ionization_Penalty_Neutral>  (1) 
2.0243930225180512e-06

>  <r_epik_State_Penalty>  (1) 
-0

>  <r_glide_ring_energy>  (1) 
0

>  <r_i_docking_score>  (1) 
-2.5011984364326154

>  <r_i_glide_ecoul>  (1) 
-1.0588367819557405

>  <r_i_glide_eff_state_penalty>  (1) 
-0

>  <r_i_glide_einternal>  (1) 
3.0040746782016452

>  <r_i_glide_emodel>  (1) 
-31.768029518528266

>  <r_i_glide_emodel_strain>  (1) 
0.14306143685869444

>  <r_i_glide_energy>  (1) 
-28.458714560388959

>  <r_i_glide_erotb>  (1) 
3.9128418167227688

>  <r_i_glide_esite>  (1) 
-0.16264687564684743

>  <r_i_glide_evdw>  (1) 
-27.399877778433218

>  <r_i_glide_gscore>  (1) 
-2.5011984364326154

>  <r_i_glide_gscore_strain>  (1) 
0

>  <r_i_glide_hbond>  (1) 
0

>  <r_i_glide_ligand_efficiency>  (1) 
-0.13164202297013766

>  <r_i_glide_ligand_efficiency_ln>  (1) 
-0.63410752445235741

>  <r_i_glide_ligand_efficiency_sa>  (1) 
-0.35127379113460749

>  <r_i_glide_lipo>  (1) 
-2.4615744682899949

>  <r_i_glide_metal>  (1) 
-0

>  <r_i_glide_rewards>  (1) 
-2.2609995030035193

>  <r_lp_Energy>  (1) 
22.842606999999997

>  <r_lp_tautomer_probability>  (1) 
1

>  <s_epik_Chemistry_Notes>  (1) 
This compound contains an acetal/aminal-like group ( X-CH(R)-Y where X, Y are N, S, or O) that may be acid/base labile, releasing an aldehyde.

>  <s_epik_cmdline>  (1) 
J2VwaWtfcHl0aG9uJywgJy1waHQnLCAnMS4wJywgJy1waCcsICc3LjQnLCAnLXRuJywgJzgnLCAnLW1hJywgJzUwMCcsICctaW1hZScsICc8aW5maWxlLm1hZT4nLCAnLW9tYWUnLCAnPG91dGZpbGUubWFlPic=

>  <s_epik_input>  (1) 
W0NIM11bQ0gyXVtDQEhdKFtDSDNdKVtDSDJdW0NIMl1bQ0gyXVtDSDJdW0NIMl1OMVtDQEhdKE4xMilbQ0gyXVtDSDJdTihbQ0gyXTIpW0NIMl1bQ0gyXVtPSF0=

>  <s_glide_docking_method>  (1) 
confgen

>  <s_i_glide_gridfile>  (1) 
gpcr_5ht2c_6bqh_protein_autoprepared_prepared

>  <s_lp_Force_Field>  (1) 
S-OPLS

>  <s_lp_Variant>  (1) 
DiffSBDD_31-2

>  <s_m_source_file>  (1) 
generated_GPCR_5HT2C_ligand_DiffSBDD_2026-06-23_prepared.sdf

>  <GenAI_Model>  (1) 
DiffSBDD

>  <Protein>  (1) 
GPCR_5HT2C

$$$$
DiffSBDD_37
     RDKit          3D

  0  0  0  0  0  0  0  0  0  0999 V3000
M  V30 BEGIN CTAB
M  V30 COUNTS 52 52 0 0 1
M  V30 BEGIN ATOM
M  V30 1 C 40.579437 29.886310 50.804488 0
M  V30 2 C 37.100810 38.272709 61.113247 0
M  V30 3 C 39.372943 30.999329 55.715511 0
M  V30 4 C 38.268914 30.319850 54.888953 0
M  V30 5 C 38.573184 28.828144 54.651957 0
M  V30 6 C 38.045196 39.386551 60.615162 0
M  V30 7 O 38.691037 36.484016 61.368046 0
M  V30 8 C 40.144011 29.531537 49.407734 0
M  V30 9 C 37.930095 33.589092 58.090575 0
M  V30 10 C 40.045100 30.956446 49.885658 0
M  V30 11 C 37.645140 36.870563 60.846949 0
M  V30 12 C 38.020643 28.266932 53.328386 0
M  V30 13 C 38.798417 28.633134 52.068548 0
M  V30 14 C 36.913320 34.476440 60.275589 0
M  V30 15 O 39.245871 39.439648 61.367735 0
M  V30 16 C 39.814647 29.520615 52.026467 0
M  V30 17 N 38.045138 32.350343 57.301338 0 CHG=1
M  V30 18 C 36.845154 35.971858 59.896033 0
M  V30 19 C 39.012645 32.411270 56.190827 0
M  V30 20 C 36.757687 33.517536 59.085516 0
M  V30 21 H 41.653117 29.864750 50.967756 0
M  V30 22 H 36.909059 38.381901 62.180234 0
M  V30 23 H 36.133858 38.362219 60.621070 0
M  V30 24 H 40.276126 31.057407 55.106215 0
M  V30 25 H 39.634970 30.380754 56.575259 0
M  V30 26 H 37.300472 30.408688 55.383832 0
M  V30 27 H 38.163601 30.850809 53.942334 0
M  V30 28 H 39.645133 28.635458 54.701079 0
M  V30 29 H 38.149998 28.260029 55.481290 0
M  V30 30 H 37.545594 40.352081 60.700228 0
M  V30 31 H 38.283751 39.251950 59.559722 0
M  V30 32 H 40.903095 29.337753 48.655321 0
M  V30 33 H 39.245137 28.937754 49.326586 0
M  V30 34 H 37.786871 34.433952 57.415508 0
M  V30 35 H 38.872738 33.737753 58.619631 0
M  V30 36 H 39.052600 31.354568 50.079854 0
M  V30 37 H 40.754737 31.663441 49.468004 0
M  V30 38 H 38.024764 27.177822 53.388355 0
M  V30 39 H 36.976769 28.554478 53.197671 0
M  V30 40 H 38.492337 28.131778 51.163159 0
M  V30 41 H 37.846387 34.228628 60.782604 0
M  V30 42 H 36.126326 34.271639 61.002800 0
M  V30 43 H 39.617291 38.566586 61.396161 0
M  V30 44 H 40.115191 30.018446 52.933040 0
M  V30 45 H 38.305245 31.601739 57.925063 0
M  V30 46 H 35.806982 36.297833 59.844562 0
M  V30 47 H 37.249602 36.126243 58.896883 0
M  V30 48 H 38.612470 33.016617 55.375706 0
M  V30 49 H 39.919956 32.906866 56.539745 0
M  V30 50 H 36.680394 32.504860 59.484057 0
M  V30 51 H 35.816797 33.711702 58.567741 0
M  V30 52 H 37.109350 32.137744 56.943644 0
M  V30 END ATOM
M  V30 BEGIN BOND
M  V30 1 1 4 3
M  V30 2 1 5 4
M  V30 3 1 6 2
M  V30 4 1 8 1
M  V30 5 1 10 1
M  V30 6 1 10 8
M  V30 7 1 11 2
M  V30 8 2 11 7
M  V30 9 1 12 5
M  V30 10 1 13 12
M  V30 11 1 15 6
M  V30 12 1 16 1
M  V30 13 2 16 13
M  V30 14 1 17 9
M  V30 15 1 18 11
M  V30 16 1 18 14
M  V30 17 1 19 3
M  V30 18 1 19 17
M  V30 19 1 20 9
M  V30 20 1 20 14
M  V30 21 1 21 1
M  V30 22 1 22 2
M  V30 23 1 23 2
M  V30 24 1 24 3
M  V30 25 1 25 3
M  V30 26 1 26 4
M  V30 27 1 27 4
M  V30 28 1 28 5
M  V30 29 1 29 5
M  V30 30 1 30 6
M  V30 31 1 31 6
M  V30 32 1 32 8
M  V30 33 1 33 8
M  V30 34 1 34 9
M  V30 35 1 35 9
M  V30 36 1 36 10
M  V30 37 1 37 10
M  V30 38 1 38 12
M  V30 39 1 39 12
M  V30 40 1 40 13
M  V30 41 1 41 14
M  V30 42 1 42 14
M  V30 43 1 43 15
M  V30 44 1 44 16
M  V30 45 1 45 17
M  V30 46 1 46 18
M  V30 47 1 47 18
M  V30 48 1 48 19
M  V30 49 1 49 19
M  V30 50 1 50 20
M  V30 51 1 51 20
M  V30 52 1 52 17
M  V30 END BOND
M  V30 END CTAB
M  END
>  <i_epik_Tot_Q>  (1) 
1

>  <i_epik_Tot_abs_Q>  (1) 
1

>  <i_i_glide_confnum>  (1) 
1194

>  <i_i_glide_lignum>  (1) 
79

>  <i_i_glide_posenum>  (1) 
180

>  <i_i_glide_rotatable_bonds>  (1) 
15

>  <i_lp_mmshare_version>  (1) 
72125

>  <i_m_source_file_index>  (1) 
38

>  <i_f3d_flags>  (1) 
0

>  <num_sample>  (1) 
50

>  <b_lp_Chiralities_Consistent>  (1) 
1

>  <r_epik_Charging_Adjusted_Penalty>  (1) 
0.00044471717516118901

>  <r_epik_Ionization_Penalty>  (1) 
0.00044477137766854211

>  <r_epik_Ionization_Penalty_Charging>  (1) 
0.00044471717516118901

>  <r_epik_Ionization_Penalty_Neutral>  (1) 
5.4202507353122852e-08

>  <r_epik_State_Penalty>  (1) 
-0

>  <r_glide_ring_energy>  (1) 
0

>  <r_i_docking_score>  (1) 
-2.4779239162865467

>  <r_i_glide_ecoul>  (1) 
-8.4820133985912474

>  <r_i_glide_eff_state_penalty>  (1) 
-0

>  <r_i_glide_einternal>  (1) 
10.784524023234347

>  <r_i_glide_emodel>  (1) 
-37.626562539620522

>  <r_i_glide_emodel_strain>  (1) 
1.8705432467761618

>  <r_i_glide_energy>  (1) 
-37.290070325750207

>  <r_i_glide_erotb>  (1) 
5.8968889253399706

>  <r_i_glide_esite>  (1) 
-0.10000000000000001

>  <r_i_glide_evdw>  (1) 
-28.808056927158958

>  <r_i_glide_gscore>  (1) 
-2.4779239162865467

>  <r_i_glide_gscore_strain>  (1) 
0

>  <r_i_glide_hbond>  (1) 
-0.52000000000000002

>  <r_i_glide_ligand_efficiency>  (1) 
-0.12389619581432734

>  <r_i_glide_ligand_efficiency_ln>  (1) 
-0.62014262884599258

>  <r_i_glide_ligand_efficiency_sa>  (1) 
-0.33630601654750225

>  <r_i_glide_lipo>  (1) 
-2.5660897939549909

>  <r_i_glide_metal>  (1) 
-0

>  <r_i_glide_rewards>  (1) 
-2.4760181915248909

>  <r_lp_Energy>  (1) 
10.148906

>  <r_lp_tautomer_probability>  (1) 
1

>  <s_epik_cmdline>  (1) 
J2VwaWtfcHl0aG9uJywgJy1waHQnLCAnMS4wJywgJy1waCcsICc3LjQnLCAnLXRuJywgJzgnLCAnLW1hJywgJzUwMCcsICctaW1hZScsICc8aW5maWxlLm1hZT4nLCAnLW9tYWUnLCAnPG91dGZpbGUubWFlPic=

>  <s_epik_input>  (1) 
W0NIMl0xW0NIMl1bQ0hdMVxbQ0hdPVtDSF1cW0NIMl1bQ0gyXVtDSDJdW0NIMl1bQ0gyXVtOSF1bQ0gyXVtDSDJdW0NIMl1bQ0gyXUMoPU8pW0NIMl1bQ0gyXVtPSF0=

>  <s_glide_docking_method>  (1) 
confgen

>  <s_i_glide_gridfile>  (1) 
gpcr_5ht2c_6bqh_protein_autoprepared_prepared

>  <s_lp_Force_Field>  (1) 
S-OPLS

>  <s_lp_Variant>  (1) 
DiffSBDD_37-2

>  <s_m_source_file>  (1) 
generated_GPCR_5HT2C_ligand_DiffSBDD_2026-06-23_prepared.sdf

>  <GenAI_Model>  (1) 
DiffSBDD

>  <Protein>  (1) 
GPCR_5HT2C

$$$$
DiffSBDD_37
     RDKit          3D

  0  0  0  0  0  0  0  0  0  0999 V3000
M  V30 BEGIN CTAB
M  V30 COUNTS 52 52 0 0 1
M  V30 BEGIN ATOM
M  V30 1 C 40.025880 29.818221 49.950435 0
M  V30 2 C 41.269944 35.586286 63.341922 0
M  V30 3 C 38.133460 32.088755 56.064367 0
M  V30 4 C 39.288335 31.419240 55.320930 0
M  V30 5 C 38.896530 31.121808 53.865799 0
M  V30 6 C 40.867186 35.530436 64.820453 0
M  V30 7 O 38.978981 35.756087 62.606225 0
M  V30 8 C 39.880025 31.318804 49.912879 0
M  V30 9 C 37.128896 32.821667 59.700507 0
M  V30 10 C 41.259029 30.682130 49.994328 0
M  V30 11 C 40.112505 35.339157 62.374373 0
M  V30 12 C 40.014433 30.437781 53.067945 0
M  V30 13 C 39.526645 29.162808 52.381352 0
M  V30 14 C 39.235651 34.269061 60.168206 0
M  V30 15 O 42.021210 35.737730 65.604209 0
M  V30 16 C 39.539618 28.914554 51.047713 0
M  V30 17 N 37.245144 32.937716 58.224043 0 CHG=1
M  V30 18 C 40.433046 34.561859 61.099359 0
M  V30 19 C 38.303292 32.122114 57.585663 0
M  V30 20 C 38.450914 32.987311 60.493258 0
M  V30 21 H 39.851090 29.337258 48.990993 0
M  V30 22 H 41.700797 36.559776 63.110506 0
M  V30 23 H 42.045157 34.844690 63.149847 0
M  V30 24 H 37.245108 31.517267 55.831018 0
M  V30 25 H 37.977235 33.093126 55.668657 0
M  V30 26 H 40.175137 32.051125 55.366708 0
M  V30 27 H 39.546432 30.482853 55.815442 0
M  V30 28 H 38.001331 30.496237 53.866762 0
M  V30 29 H 38.608251 32.048365 53.367764 0
M  V30 30 H 40.445694 34.557694 65.070632 0
M  V30 31 H 40.122422 36.292078 65.058961 0
M  V30 32 H 39.585046 31.764498 48.967769 0
M  V30 33 H 39.444197 31.806576 50.775247 0
M  V30 34 H 36.696565 31.847352 59.932680 0
M  V30 35 H 36.403760 33.565476 60.032572 0
M  V30 36 H 41.826651 30.735019 50.915640 0
M  V30 37 H 41.875076 30.706970 49.098954 0
M  V30 38 H 40.492663 31.176022 52.444478 0
M  V30 39 H 40.797972 30.137799 53.760813 0
M  V30 40 H 39.138904 28.400578 53.040926 0
M  V30 41 H 38.561915 35.127334 60.133261 0
M  V30 42 H 39.642706 34.137770 59.169171 0
M  V30 43 H 42.308916 36.632947 65.449446 0
M  V30 44 H 39.158240 27.959094 50.715787 0
M  V30 45 H 36.364377 32.604016 57.808200 0
M  V30 46 H 41.151568 35.184688 60.567811 0
M  V30 47 H 40.949529 33.638810 61.366951 0
M  V30 48 H 39.279996 32.533903 57.815952 0
M  V30 49 H 38.278517 31.106243 57.982389 0
M  V30 50 H 39.097187 32.124996 60.323171 0
M  V30 51 H 38.215784 32.965604 61.558383 0
M  V30 52 H 37.366292 33.904936 57.957927 0
M  V30 END ATOM
M  V30 BEGIN BOND
M  V30 1 1 4 3
M  V30 2 1 5 4
M  V30 3 1 6 2
M  V30 4 1 8 1
M  V30 5 1 10 1
M  V30 6 1 10 8
M  V30 7 1 11 2
M  V30 8 2 11 7
M  V30 9 1 12 5
M  V30 10 1 13 12
M  V30 11 1 15 6
M  V30 12 1 16 1
M  V30 13 2 16 13
M  V30 14 1 17 9
M  V30 15 1 18 11
M  V30 16 1 18 14
M  V30 17 1 19 3
M  V30 18 1 19 17
M  V30 19 1 20 9
M  V30 20 1 20 14
M  V30 21 1 21 1
M  V30 22 1 22 2
M  V30 23 1 23 2
M  V30 24 1 24 3
M  V30 25 1 25 3
M  V30 26 1 26 4
M  V30 27 1 27 4
M  V30 28 1 28 5
M  V30 29 1 29 5
M  V30 30 1 30 6
M  V30 31 1 31 6
M  V30 32 1 32 8
M  V30 33 1 33 8
M  V30 34 1 34 9
M  V30 35 1 35 9
M  V30 36 1 36 10
M  V30 37 1 37 10
M  V30 38 1 38 12
M  V30 39 1 39 12
M  V30 40 1 40 13
M  V30 41 1 41 14
M  V30 42 1 42 14
M  V30 43 1 43 15
M  V30 44 1 44 16
M  V30 45 1 45 17
M  V30 46 1 46 18
M  V30 47 1 47 18
M  V30 48 1 48 19
M  V30 49 1 49 19
M  V30 50 1 50 20
M  V30 51 1 51 20
M  V30 52 1 52 17
M  V30 END BOND
M  V30 END CTAB
M  END
>  <i_epik_Tot_Q>  (1) 
1

>  <i_epik_Tot_abs_Q>  (1) 
1

>  <i_i_glide_confnum>  (1) 
860

>  <i_i_glide_lignum>  (1) 
78

>  <i_i_glide_posenum>  (1) 
362

>  <i_i_glide_rotatable_bonds>  (1) 
15

>  <i_lp_mmshare_version>  (1) 
72125

>  <i_m_source_file_index>  (1) 
38

>  <i_f3d_flags>  (1) 
0

>  <num_sample>  (1) 
50

>  <b_lp_Chiralities_Consistent>  (1) 
1

>  <r_epik_Charging_Adjusted_Penalty>  (1) 
0.00044471717516118901

>  <r_epik_Ionization_Penalty>  (1) 
0.00044477137766854211

>  <r_epik_Ionization_Penalty_Charging>  (1) 
0.00044471717516118901

>  <r_epik_Ionization_Penalty_Neutral>  (1) 
5.4202507353122852e-08

>  <r_epik_State_Penalty>  (1) 
-0

>  <r_glide_ring_energy>  (1) 
0

>  <r_i_docking_score>  (1) 
-2.4647004449195791

>  <r_i_glide_ecoul>  (1) 
-8.5396610226074188

>  <r_i_glide_eff_state_penalty>  (1) 
-0

>  <r_i_glide_einternal>  (1) 
10.624838027456351

>  <r_i_glide_emodel>  (1) 
-37.799301626225052

>  <r_i_glide_emodel_strain>  (1) 
1.9137866383447957

>  <r_i_glide_energy>  (1) 
-37.744602061087264

>  <r_i_glide_erotb>  (1) 
5.8968889253399706

>  <r_i_glide_esite>  (1) 
-0.091930980491022954

>  <r_i_glide_evdw>  (1) 
-29.204941038479845

>  <r_i_glide_gscore>  (1) 
-2.4647004449195791

>  <r_i_glide_gscore_strain>  (1) 
0

>  <r_i_glide_hbond>  (1) 
-0.52000000000000002

>  <r_i_glide_ligand_efficiency>  (1) 
-0.12323502224597896

>  <r_i_glide_ligand_efficiency_ln>  (1) 
-0.61683323010211577

>  <r_i_glide_ligand_efficiency_sa>  (1) 
-0.33451131536595052

>  <r_i_glide_lipo>  (1) 
-2.3591418649063192

>  <r_i_glide_metal>  (1) 
-0

>  <r_i_glide_rewards>  (1) 
-2.649320319547102

>  <r_lp_Energy>  (1) 
13.935627999999999

>  <r_lp_tautomer_probability>  (1) 
1

>  <s_epik_cmdline>  (1) 
J2VwaWtfcHl0aG9uJywgJy1waHQnLCAnMS4wJywgJy1waCcsICc3LjQnLCAnLXRuJywgJzgnLCAnLW1hJywgJzUwMCcsICctaW1hZScsICc8aW5maWxlLm1hZT4nLCAnLW9tYWUnLCAnPG91dGZpbGUubWFlPic=

>  <s_epik_input>  (1) 
W0NIMl0xW0NIMl1bQ0hdMS9bQ0hdPVtDSF1cW0NIMl1bQ0gyXVtDSDJdW0NIMl1bQ0gyXVtOSF1bQ0gyXVtDSDJdW0NIMl1bQ0gyXUMoPU8pW0NIMl1bQ0gyXVtPSF0=

>  <s_glide_docking_method>  (1) 
confgen

>  <s_i_glide_gridfile>  (1) 
gpcr_5ht2c_6bqh_protein_autoprepared_prepared

>  <s_lp_Force_Field>  (1) 
S-OPLS

>  <s_lp_Variant>  (1) 
DiffSBDD_37-1

>  <s_m_source_file>  (1) 
generated_GPCR_5HT2C_ligand_DiffSBDD_2026-06-23_prepared.sdf

>  <GenAI_Model>  (1) 
DiffSBDD

>  <Protein>  (1) 
GPCR_5HT2C

$$$$
DiffSBDD_35
     RDKit          3D

  0  0  0  0  0  0  0  0  0  0999 V3000
M  V30 BEGIN CTAB
M  V30 COUNTS 35 35 0 0 1
M  V30 BEGIN ATOM
M  V30 1 C 38.962334 30.642174 55.854323 0
M  V30 2 C 39.360414 28.298545 50.731706 0
M  V30 3 C 40.021919 29.967206 61.641520 0
M  V30 4 Cl 40.417011 29.737619 50.691498 0
M  V30 5 C 39.619618 28.534455 61.294412 0
M  V30 6 C 39.006896 28.441436 59.882316 0
M  V30 7 C 40.024865 28.722767 58.762886 0
M  V30 8 C 38.408487 28.866635 53.087194 0
M  V30 9 O 41.245131 30.198719 61.767717 0
M  V30 10 N 38.060574 29.556963 55.492758 0 CFG=2 CHG=1
M  V30 11 C 38.535793 29.613785 56.877795 0 CFG=1
M  V30 12 O 39.098930 30.802269 61.767310 0 CHG=-1
M  V30 13 C 39.475053 28.501783 57.347653 0
M  V30 14 C 39.092607 27.830071 52.169711 0
M  V30 15 C 38.568393 28.500889 54.572407 0
M  V30 16 H 38.438987 31.594619 55.790936 0
M  V30 17 H 39.924321 30.556917 55.351435 0
M  V30 18 H 39.860969 27.511501 50.167781 0
M  V30 19 H 38.445142 28.537755 50.201089 0
M  V30 20 H 40.484577 27.875610 61.379233 0
M  V30 21 H 38.902280 28.193447 62.040229 0
M  V30 22 H 38.598821 27.439648 59.748686 0
M  V30 23 H 38.160500 29.125002 59.801452 0
M  V30 24 H 40.413835 29.737754 58.846321 0
M  V30 25 H 40.881784 28.062724 58.906654 0
M  V30 26 H 38.845083 29.852645 52.927119 0
M  V30 27 H 37.352070 28.937789 52.826363 0
M  V30 28 H 37.691108 29.845727 57.524280 0
M  V30 29 H 38.968715 27.537665 57.285169 0
M  V30 30 H 40.345675 28.453630 56.695022 0
M  V30 31 H 38.477415 26.931017 52.140956 0
M  V30 32 H 40.045048 27.519098 52.593194 0
M  V30 33 H 38.037389 27.571568 54.782619 0
M  V30 34 H 39.624869 28.301661 54.737640 0
M  V30 35 H 37.099987 29.857868 55.389225 0
M  V30 END ATOM
M  V30 BEGIN BOND
M  V30 1 1 4 2
M  V30 2 1 5 3
M  V30 3 1 6 5
M  V30 4 1 7 6
M  V30 5 2 9 3
M  V30 6 1 10 1
M  V30 7 1 11 1
M  V30 8 1 11 10
M  V30 9 1 12 3
M  V30 10 1 13 7
M  V30 11 1 13 11
M  V30 12 1 14 2
M  V30 13 1 14 8
M  V30 14 1 15 8
M  V30 15 1 15 10
M  V30 16 1 16 1
M  V30 17 1 17 1
M  V30 18 1 18 2
M  V30 19 1 19 2
M  V30 20 1 20 5
M  V30 21 1 21 5
M  V30 22 1 22 6
M  V30 23 1 23 6
M  V30 24 1 24 7
M  V30 25 1 25 7
M  V30 26 1 26 8
M  V30 27 1 27 8
M  V30 28 1 11 28 CFG=1
M  V30 29 1 29 13
M  V30 30 1 30 13
M  V30 31 1 31 14
M  V30 32 1 32 14
M  V30 33 1 33 15
M  V30 34 1 34 15
M  V30 35 1 10 35 CFG=1
M  V30 END BOND
M  V30 END CTAB
M  END
>  <i_epik_Tot_Q>  (1) 
0

>  <i_epik_Tot_abs_Q>  (1) 
2

>  <i_i_glide_confnum>  (1) 
113

>  <i_i_glide_lignum>  (1) 
75

>  <i_i_glide_posenum>  (1) 
316

>  <i_i_glide_rotatable_bonds>  (1) 
9

>  <i_lp_mmshare_version>  (1) 
72125

>  <i_m_source_file_index>  (1) 
36

>  <i_f3d_flags>  (1) 
0

>  <num_sample>  (1) 
50

>  <b_lp_Chiralities_Consistent>  (1) 
1

>  <r_epik_Charging_Adjusted_Penalty>  (1) 
0.027909031971393675

>  <r_epik_Ionization_Penalty>  (1) 
0.014709138794413591

>  <r_epik_Ionization_Penalty_Charging>  (1) 
0.014709138794413591

>  <r_epik_Ionization_Penalty_Neutral>  (1) 
0

>  <r_epik_State_Penalty>  (1) 
0.013199893176980082

>  <r_glide_ring_energy>  (1) 
0

>  <r_i_docking_score>  (1) 
-2.4468948427298094

>  <r_i_glide_ecoul>  (1) 
-5.7837365834941785

>  <r_i_glide_eff_state_penalty>  (1) 
0.013199893176980082

>  <r_i_glide_einternal>  (1) 
2.444030919969487

>  <r_i_glide_emodel>  (1) 
-32.688349223388371

>  <r_i_glide_emodel_strain>  (1) 
0.37865546034971942

>  <r_i_glide_energy>  (1) 
-28.240730340570138

>  <r_i_glide_erotb>  (1) 
4.3969454850061123

>  <r_i_glide_esite>  (1) 
-0.010259393145526298

>  <r_i_glide_evdw>  (1) 
-22.45699375707596

>  <r_i_glide_gscore>  (1) 
-2.4600947359067895

>  <r_i_glide_gscore_strain>  (1) 
0

>  <r_i_glide_hbond>  (1) 
-0.16

>  <r_i_glide_ligand_efficiency>  (1) 
-0.16312632284865397

>  <r_i_glide_ligand_efficiency_ln>  (1) 
-0.65988719408450158

>  <r_i_glide_ligand_efficiency_sa>  (1) 
-0.40230410705048092

>  <r_i_glide_lipo>  (1) 
-2.311475589640017

>  <r_i_glide_metal>  (1) 
-0

>  <r_i_glide_rewards>  (1) 
-2.384895062749433

>  <r_lp_Energy>  (1) 
16.179413

>  <s_epik_cmdline>  (1) 
J2VwaWtfcHl0aG9uJywgJy1waHQnLCAnMS4wJywgJy1waCcsICc3LjQnLCAnLXRuJywgJzgnLCAnLW1hJywgJzUwMCcsICctaW1hZScsICc8aW5maWxlLm1hZT4nLCAnLW9tYWUnLCAnPG91dGZpbGUubWFlPic=

>  <s_epik_input>  (1) 
Q2xbQ0gyXVtDSDJdW0NIMl1bQ0gyXU4xW0NIMl1bQ0BASF0xW0NIMl1bQ0gyXVtDSDJdW0NIMl1DKD1PKVtPSF0=

>  <s_glide_docking_method>  (1) 
confgen

>  <s_i_glide_gridfile>  (1) 
gpcr_5ht2c_6bqh_protein_autoprepared_prepared

>  <s_lp_Force_Field>  (1) 
S-OPLS

>  <s_lp_Variant>  (1) 
DiffSBDD_35-1

>  <s_m_source_file>  (1) 
generated_GPCR_5HT2C_ligand_DiffSBDD_2026-06-23_prepared.sdf

>  <GenAI_Model>  (1) 
DiffSBDD

>  <Protein>  (1) 
GPCR_5HT2C

$$$$
DiffSBDD_37
     RDKit          3D

  0  0  0  0  0  0  0  0  0  0999 V3000
M  V30 BEGIN CTAB
M  V30 COUNTS 52 52 0 0 1
M  V30 BEGIN ATOM
M  V30 1 C 39.871829 28.194449 50.798378 0
M  V30 2 C 41.186615 35.687042 62.435468 0
M  V30 3 C 38.109790 30.920734 55.822523 0
M  V30 4 C 39.241690 30.108717 55.171723 0
M  V30 5 C 38.779042 28.762577 54.588284 0
M  V30 6 C 41.988609 35.461789 63.733541 0
M  V30 7 O 40.068525 33.574051 62.797704 0
M  V30 8 C 39.727282 29.605021 50.293886 0
M  V30 9 C 38.210469 32.985460 58.369265 0
M  V30 10 C 40.691565 29.305324 51.411642 0
M  V30 11 C 40.184273 34.576918 62.093452 0
M  V30 12 C 38.037945 28.940197 53.259215 0
M  V30 13 C 37.962011 27.681234 52.425513 0
M  V30 14 C 38.081600 33.870337 60.766206 0
M  V30 15 O 41.201136 35.737735 64.868971 0
M  V30 16 C 38.750741 27.383621 51.366082 0
M  V30 17 N 37.645168 33.067300 57.007936 0 CHG=1
M  V30 18 C 39.340919 34.766122 60.827587 0
M  V30 19 C 38.473733 32.405301 55.980698 0
M  V30 20 C 37.421340 33.835889 59.375674 0
M  V30 21 H 40.446092 27.527679 50.167612 0
M  V30 22 H 40.663255 36.642322 62.477979 0
M  V30 23 H 41.879421 35.754836 61.597091 0
M  V30 24 H 37.871080 30.472258 56.787497 0
M  V30 25 H 37.195479 30.855144 55.230842 0
M  V30 26 H 39.717365 30.699913 54.387661 0
M  V30 27 H 40.020184 29.930138 55.915288 0
M  V30 28 H 39.645154 28.130757 54.416675 0
M  V30 29 H 38.159880 28.220045 55.304177 0
M  V30 30 H 42.845238 36.137015 63.763083 0
M  V30 31 H 42.376449 34.443482 63.794878 0
M  V30 32 H 40.139037 29.830647 49.313422 0
M  V30 33 H 38.845081 30.159289 50.566793 0
M  V30 34 H 39.244209 33.330069 58.333856 0
M  V30 35 H 38.231908 31.943912 58.690477 0
M  V30 36 H 40.468844 29.684931 52.400407 0
M  V30 37 H 41.741457 29.337535 51.150341 0
M  V30 38 H 37.012871 29.240915 53.470562 0
M  V30 39 H 38.442408 29.755295 52.683459 0
M  V30 40 H 37.203779 26.974681 52.717282 0
M  V30 41 H 38.310127 32.847813 61.072648 0
M  V30 42 H 37.356482 34.245050 61.489716 0
M  V30 43 H 41.194058 36.683134 64.979420 0
M  V30 44 H 38.569283 26.459008 50.856744 0
M  V30 45 H 36.705242 32.645743 56.971684 0
M  V30 46 H 39.053364 35.814589 60.745012 0
M  V30 47 H 39.995366 34.556654 59.982464 0
M  V30 48 H 38.307499 32.911213 55.028619 0
M  V30 49 H 39.532918 32.531093 56.214171 0
M  V30 50 H 36.415143 33.423801 59.466680 0
M  V30 51 H 37.297118 34.853769 59.004632 0
M  V30 52 H 37.553356 34.041291 56.760169 0
M  V30 END ATOM
M  V30 BEGIN BOND
M  V30 1 1 4 3
M  V30 2 1 5 4
M  V30 3 1 6 2
M  V30 4 1 8 1
M  V30 5 1 10 1
M  V30 6 1 10 8
M  V30 7 1 11 2
M  V30 8 2 11 7
M  V30 9 1 12 5
M  V30 10 1 13 12
M  V30 11 1 15 6
M  V30 12 1 16 1
M  V30 13 2 16 13
M  V30 14 1 17 9
M  V30 15 1 18 11
M  V30 16 1 18 14
M  V30 17 1 19 3
M  V30 18 1 19 17
M  V30 19 1 20 9
M  V30 20 1 20 14
M  V30 21 1 21 1
M  V30 22 1 22 2
M  V30 23 1 23 2
M  V30 24 1 24 3
M  V30 25 1 25 3
M  V30 26 1 26 4
M  V30 27 1 27 4
M  V30 28 1 28 5
M  V30 29 1 29 5
M  V30 30 1 30 6
M  V30 31 1 31 6
M  V30 32 1 32 8
M  V30 33 1 33 8
M  V30 34 1 34 9
M  V30 35 1 35 9
M  V30 36 1 36 10
M  V30 37 1 37 10
M  V30 38 1 38 12
M  V30 39 1 39 12
M  V30 40 1 40 13
M  V30 41 1 41 14
M  V30 42 1 42 14
M  V30 43 1 43 15
M  V30 44 1 44 16
M  V30 45 1 45 17
M  V30 46 1 46 18
M  V30 47 1 47 18
M  V30 48 1 48 19
M  V30 49 1 49 19
M  V30 50 1 50 20
M  V30 51 1 51 20
M  V30 52 1 52 17
M  V30 END BOND
M  V30 END CTAB
M  END
>  <i_epik_Tot_Q>  (1) 
1

>  <i_epik_Tot_abs_Q>  (1) 
1

>  <i_i_glide_confnum>  (1) 
1223

>  <i_i_glide_lignum>  (1) 
78

>  <i_i_glide_posenum>  (1) 
81

>  <i_i_glide_rotatable_bonds>  (1) 
15

>  <i_lp_mmshare_version>  (1) 
72125

>  <i_m_source_file_index>  (1) 
38

>  <i_f3d_flags>  (1) 
0

>  <num_sample>  (1) 
50

>  <b_lp_Chiralities_Consistent>  (1) 
1

>  <r_epik_Charging_Adjusted_Penalty>  (1) 
0.00044471717516118901

>  <r_epik_Ionization_Penalty>  (1) 
0.00044477137766854211

>  <r_epik_Ionization_Penalty_Charging>  (1) 
0.00044471717516118901

>  <r_epik_Ionization_Penalty_Neutral>  (1) 
5.4202507353122852e-08

>  <r_epik_State_Penalty>  (1) 
-0

>  <r_glide_ring_energy>  (1) 
0

>  <r_i_docking_score>  (1) 
-2.4324064501573068

>  <r_i_glide_ecoul>  (1) 
-8.5220654379715022

>  <r_i_glide_eff_state_penalty>  (1) 
-0

>  <r_i_glide_einternal>  (1) 
10.506844273330906

>  <r_i_glide_emodel>  (1) 
-38.654213817910147

>  <r_i_glide_emodel_strain>  (1) 
0.838485598176689

>  <r_i_glide_energy>  (1) 
-37.560615155886566

>  <r_i_glide_erotb>  (1) 
5.8968889253399706

>  <r_i_glide_esite>  (1) 
-0.10000000000000001

>  <r_i_glide_evdw>  (1) 
-29.038549717915064

>  <r_i_glide_gscore>  (1) 
-2.4324064501573068

>  <r_i_glide_gscore_strain>  (1) 
0

>  <r_i_glide_hbond>  (1) 
-0.54873209213332297

>  <r_i_glide_ligand_efficiency>  (1) 
-0.12162032250786534

>  <r_i_glide_ligand_efficiency_ln>  (1) 
-0.60875110834035207

>  <r_i_glide_ligand_efficiency_sa>  (1) 
-0.33012834595130375

>  <r_i_glide_lipo>  (1) 
-2.601276817048503

>  <r_i_glide_metal>  (1) 
-0

>  <r_i_glide_rewards>  (1) 
-2.3490491647239731

>  <r_lp_Energy>  (1) 
13.935627999999999

>  <r_lp_tautomer_probability>  (1) 
1

>  <s_epik_cmdline>  (1) 
J2VwaWtfcHl0aG9uJywgJy1waHQnLCAnMS4wJywgJy1waCcsICc3LjQnLCAnLXRuJywgJzgnLCAnLW1hJywgJzUwMCcsICctaW1hZScsICc8aW5maWxlLm1hZT4nLCAnLW9tYWUnLCAnPG91dGZpbGUubWFlPic=

>  <s_epik_input>  (1) 
W0NIMl0xW0NIMl1bQ0hdMS9bQ0hdPVtDSF1cW0NIMl1bQ0gyXVtDSDJdW0NIMl1bQ0gyXVtOSF1bQ0gyXVtDSDJdW0NIMl1bQ0gyXUMoPU8pW0NIMl1bQ0gyXVtPSF0=

>  <s_glide_docking_method>  (1) 
confgen

>  <s_i_glide_gridfile>  (1) 
gpcr_5ht2c_6bqh_protein_autoprepared_prepared

>  <s_lp_Force_Field>  (1) 
S-OPLS

>  <s_lp_Variant>  (1) 
DiffSBDD_37-1

>  <s_m_source_file>  (1) 
generated_GPCR_5HT2C_ligand_DiffSBDD_2026-06-23_prepared.sdf

>  <GenAI_Model>  (1) 
DiffSBDD

>  <Protein>  (1) 
GPCR_5HT2C

$$$$
DiffSBDD_37
     RDKit          3D

  0  0  0  0  0  0  0  0  0  0999 V3000
M  V30 BEGIN CTAB
M  V30 COUNTS 52 52 0 0 1
M  V30 BEGIN ATOM
M  V30 1 C 39.663328 29.643119 50.362329 0
M  V30 2 C 36.891726 37.263154 62.233920 0
M  V30 3 C 39.303952 30.848127 55.548626 0
M  V30 4 C 38.189576 30.089005 54.810316 0
M  V30 5 C 38.571496 28.614802 54.574498 0
M  V30 6 C 36.412741 38.438495 61.373110 0
M  V30 7 O 39.045662 36.319936 61.718219 0
M  V30 8 C 39.645134 31.099338 49.966464 0
M  V30 9 C 38.114708 33.283531 58.169527 0
M  V30 10 C 40.961560 30.374594 50.110803 0
M  V30 11 C 37.842216 36.345292 61.467464 0
M  V30 12 C 37.835872 27.942874 53.399901 0
M  V30 13 C 38.273686 28.351771 51.997317 0
M  V30 14 C 37.570987 33.971547 60.591615 0
M  V30 15 O 35.672486 39.336775 62.167754 0
M  V30 16 C 39.245159 29.244763 51.727472 0
M  V30 17 N 38.045138 32.132455 57.249450 0 CHG=1
M  V30 18 C 37.237589 35.458970 60.374400 0
M  V30 19 C 38.896843 32.240812 56.049225 0
M  V30 20 C 37.221212 33.060599 59.402307 0
M  V30 21 H 39.340151 28.937738 49.600331 0
M  V30 22 H 37.416408 37.638257 63.112806 0
M  V30 23 H 36.045139 36.684389 62.602930 0
M  V30 24 H 40.153517 30.953114 54.871642 0
M  V30 25 H 39.666897 30.253751 56.388160 0
M  V30 26 H 37.254338 30.127911 55.371019 0
M  V30 27 H 37.990653 30.594994 53.865376 0
M  V30 28 H 39.645138 28.510099 54.430569 0
M  V30 29 H 38.357307 28.058927 55.488325 0
M  V30 30 H 35.772427 38.083066 60.567760 0
M  V30 31 H 37.254119 38.970220 60.926337 0
M  V30 32 H 39.282708 31.337748 48.968230 0
M  V30 33 H 39.389868 31.824892 50.733157 0
M  V30 34 H 37.810835 34.186101 57.639214 0
M  V30 35 H 39.151639 33.416562 58.481879 0
M  V30 36 H 41.579210 30.633879 50.967750 0
M  V30 37 H 41.508139 30.137757 49.200903 0
M  V30 38 H 37.974192 26.863339 53.469474 0
M  V30 39 H 36.763585 28.114497 53.489050 0
M  V30 40 H 37.751121 27.877096 51.179967 0
M  V30 41 H 38.628662 33.848058 60.830480 0
M  V30 42 H 37.026728 33.622099 61.470479 0
M  V30 43 H 35.422746 40.081520 61.636423 0
M  V30 44 H 39.769210 29.719714 52.541475 0
M  V30 45 H 38.315247 31.307391 57.762674 0
M  V30 46 H 36.157570 35.599846 60.332477 0
M  V30 47 H 37.636540 35.800375 59.419611 0
M  V30 48 H 38.383144 32.814522 55.275915 0
M  V30 49 H 39.804939 32.791133 56.300899 0
M  V30 50 H 37.331881 32.028421 59.737296 0
M  V30 51 H 36.170824 33.175215 59.128990 0
M  V30 52 H 37.066320 32.016708 56.967765 0
M  V30 END ATOM
M  V30 BEGIN BOND
M  V30 1 1 4 3
M  V30 2 1 5 4
M  V30 3 1 6 2
M  V30 4 1 8 1
M  V30 5 1 10 1
M  V30 6 1 10 8
M  V30 7 1 11 2
M  V30 8 2 11 7
M  V30 9 1 12 5
M  V30 10 1 13 12
M  V30 11 1 15 6
M  V30 12 1 16 1
M  V30 13 2 16 13
M  V30 14 1 17 9
M  V30 15 1 18 11
M  V30 16 1 18 14
M  V30 17 1 19 3
M  V30 18 1 19 17
M  V30 19 1 20 9
M  V30 20 1 20 14
M  V30 21 1 21 1
M  V30 22 1 22 2
M  V30 23 1 23 2
M  V30 24 1 24 3
M  V30 25 1 25 3
M  V30 26 1 26 4
M  V30 27 1 27 4
M  V30 28 1 28 5
M  V30 29 1 29 5
M  V30 30 1 30 6
M  V30 31 1 31 6
M  V30 32 1 32 8
M  V30 33 1 33 8
M  V30 34 1 34 9
M  V30 35 1 35 9
M  V30 36 1 36 10
M  V30 37 1 37 10
M  V30 38 1 38 12
M  V30 39 1 39 12
M  V30 40 1 40 13
M  V30 41 1 41 14
M  V30 42 1 42 14
M  V30 43 1 43 15
M  V30 44 1 44 16
M  V30 45 1 45 17
M  V30 46 1 46 18
M  V30 47 1 47 18
M  V30 48 1 48 19
M  V30 49 1 49 19
M  V30 50 1 50 20
M  V30 51 1 51 20
M  V30 52 1 52 17
M  V30 END BOND
M  V30 END CTAB
M  END
>  <i_epik_Tot_Q>  (1) 
1

>  <i_epik_Tot_abs_Q>  (1) 
1

>  <i_i_glide_confnum>  (1) 
1194

>  <i_i_glide_lignum>  (1) 
79

>  <i_i_glide_posenum>  (1) 
180

>  <i_i_glide_rotatable_bonds>  (1) 
15

>  <i_lp_mmshare_version>  (1) 
72125

>  <i_m_source_file_index>  (1) 
38

>  <i_f3d_flags>  (1) 
0

>  <num_sample>  (1) 
50

>  <b_lp_Chiralities_Consistent>  (1) 
1

>  <r_epik_Charging_Adjusted_Penalty>  (1) 
0.00044471717516118901

>  <r_epik_Ionization_Penalty>  (1) 
0.00044477137766854211

>  <r_epik_Ionization_Penalty_Charging>  (1) 
0.00044471717516118901

>  <r_epik_Ionization_Penalty_Neutral>  (1) 
5.4202507353122852e-08

>  <r_epik_State_Penalty>  (1) 
-0

>  <r_glide_ring_energy>  (1) 
0

>  <r_i_docking_score>  (1) 
-2.4167556722727861

>  <r_i_glide_ecoul>  (1) 
-6.2141721825409695

>  <r_i_glide_eff_state_penalty>  (1) 
-0

>  <r_i_glide_einternal>  (1) 
12.774621815399376

>  <r_i_glide_emodel>  (1) 
-39.794599753871076

>  <r_i_glide_emodel_strain>  (1) 
0.58979097935318237

>  <r_i_glide_energy>  (1) 
-39.359994949418876

>  <r_i_glide_erotb>  (1) 
5.8968889253399706

>  <r_i_glide_esite>  (1) 
-0.10000000000000001

>  <r_i_glide_evdw>  (1) 
-33.145822766877906

>  <r_i_glide_gscore>  (1) 
-2.4167556722727861

>  <r_i_glide_gscore_strain>  (1) 
0

>  <r_i_glide_hbond>  (1) 
-0.41416781248481527

>  <r_i_glide_ligand_efficiency>  (1) 
-0.12083778361363931

>  <r_i_glide_ligand_efficiency_ln>  (1) 
-0.60483423483305876

>  <r_i_glide_ligand_efficiency_sa>  (1) 
-0.32800420859114587

>  <r_i_glide_lipo>  (1) 
-2.8938618073173608

>  <r_i_glide_metal>  (1) 
-0

>  <r_i_glide_rewards>  (1) 
-2.3161980120855401

>  <r_lp_Energy>  (1) 
10.148906

>  <r_lp_tautomer_probability>  (1) 
1

>  <s_epik_cmdline>  (1) 
J2VwaWtfcHl0aG9uJywgJy1waHQnLCAnMS4wJywgJy1waCcsICc3LjQnLCAnLXRuJywgJzgnLCAnLW1hJywgJzUwMCcsICctaW1hZScsICc8aW5maWxlLm1hZT4nLCAnLW9tYWUnLCAnPG91dGZpbGUubWFlPic=

>  <s_epik_input>  (1) 
W0NIMl0xW0NIMl1bQ0hdMVxbQ0hdPVtDSF1cW0NIMl1bQ0gyXVtDSDJdW0NIMl1bQ0gyXVtOSF1bQ0gyXVtDSDJdW0NIMl1bQ0gyXUMoPU8pW0NIMl1bQ0gyXVtPSF0=

>  <s_glide_docking_method>  (1) 
confgen

>  <s_i_glide_gridfile>  (1) 
gpcr_5ht2c_6bqh_protein_autoprepared_prepared

>  <s_lp_Force_Field>  (1) 
S-OPLS

>  <s_lp_Variant>  (1) 
DiffSBDD_37-2

>  <s_m_source_file>  (1) 
generated_GPCR_5HT2C_ligand_DiffSBDD_2026-06-23_prepared.sdf

>  <GenAI_Model>  (1) 
DiffSBDD

>  <Protein>  (1) 
GPCR_5HT2C

$$$$
DiffSBDD_37
     RDKit          3D

  0  0  0  0  0  0  0  0  0  0999 V3000
M  V30 BEGIN CTAB
M  V30 COUNTS 52 52 0 0 1
M  V30 BEGIN ATOM
M  V30 1 C 40.201070 29.656114 50.402057 0
M  V30 2 C 41.235505 35.094292 62.407241 0
M  V30 3 C 37.795615 30.225303 55.736015 0
M  V30 4 C 38.277486 29.969834 54.295202 0
M  V30 5 C 37.705530 28.665219 53.706770 0
M  V30 6 C 41.541844 34.862934 63.900193 0
M  V30 7 O 39.448047 33.466363 62.410955 0
M  V30 8 C 39.905601 31.078539 50.809669 0
M  V30 9 C 38.039430 33.175540 58.198771 0
M  V30 10 C 41.250795 30.729846 50.234992 0
M  V30 11 C 39.956184 34.445142 61.865696 0
M  V30 12 C 38.152657 28.358700 52.271815 0
M  V30 13 C 39.616829 27.995335 52.195352 0
M  V30 14 C 37.882382 34.696496 60.291813 0
M  V30 15 O 40.794670 35.738738 64.719082 0
M  V30 16 C 40.501922 28.576081 51.369425 0
M  V30 17 N 37.645138 31.867133 57.625160 0 CHG=1
M  V30 18 C 39.354231 35.059272 60.600400 0
M  V30 19 C 38.237881 31.593139 56.295015 0
M  V30 20 C 37.613659 33.305540 59.673360 0
M  V30 21 H 39.728429 29.294100 49.491413 0
M  V30 22 H 41.218618 36.163504 62.196774 0
M  V30 23 H 42.045124 34.676704 61.813515 0
M  V30 24 H 38.170147 29.431243 56.383105 0
M  V30 25 H 36.707428 30.152370 55.764356 0
M  V30 26 H 37.985548 30.807373 53.662957 0
M  V30 27 H 39.367777 29.940330 54.278535 0
M  V30 28 H 37.955817 27.824966 54.354351 0
M  V30 29 H 36.622272 28.721189 53.705197 0
M  V30 30 H 42.596563 35.053998 64.099851 0
M  V30 31 H 41.356714 33.830416 64.198107 0
M  V30 32 H 39.250838 31.670545 50.171384 0
M  V30 33 H 39.857671 31.301029 51.874125 0
M  V30 34 H 37.596732 33.974169 57.599429 0
M  V30 35 H 39.121140 33.290129 58.125146 0
M  V30 36 H 42.087519 30.741695 50.928295 0
M  V30 37 H 41.483030 31.072980 49.232091 0
M  V30 38 H 37.617917 27.487239 51.901259 0
M  V30 39 H 37.900158 29.185502 51.612984 0
M  V30 40 H 39.948991 27.210339 52.861393 0
M  V30 41 H 37.310712 34.783756 61.215765 0
M  V30 42 H 37.467267 35.458094 59.629883 0
M  V30 43 H 41.165510 36.613151 64.659154 0
M  V30 44 H 41.522211 28.243737 51.395264 0
M  V30 45 H 37.890232 31.123603 58.259252 0
M  V30 46 H 39.422314 36.140094 60.716814 0
M  V30 47 H 40.010218 34.809529 59.769424 0
M  V30 48 H 37.929556 32.392378 55.617157 0
M  V30 49 H 39.326895 31.633336 56.357338 0
M  V30 50 H 38.090964 32.529845 60.273089 0
M  V30 51 H 36.539935 33.118444 59.732943 0
M  V30 52 H 36.624996 31.845087 57.456603 0
M  V30 END ATOM
M  V30 BEGIN BOND
M  V30 1 1 4 3
M  V30 2 1 5 4
M  V30 3 1 6 2
M  V30 4 1 8 1
M  V30 5 1 10 1
M  V30 6 1 10 8
M  V30 7 1 11 2
M  V30 8 2 11 7
M  V30 9 1 12 5
M  V30 10 1 13 12
M  V30 11 1 15 6
M  V30 12 1 16 1
M  V30 13 2 16 13
M  V30 14 1 17 9
M  V30 15 1 18 11
M  V30 16 1 18 14
M  V30 17 1 19 3
M  V30 18 1 19 17
M  V30 19 1 20 9
M  V30 20 1 20 14
M  V30 21 1 21 1
M  V30 22 1 22 2
M  V30 23 1 23 2
M  V30 24 1 24 3
M  V30 25 1 25 3
M  V30 26 1 26 4
M  V30 27 1 27 4
M  V30 28 1 28 5
M  V30 29 1 29 5
M  V30 30 1 30 6
M  V30 31 1 31 6
M  V30 32 1 32 8
M  V30 33 1 33 8
M  V30 34 1 34 9
M  V30 35 1 35 9
M  V30 36 1 36 10
M  V30 37 1 37 10
M  V30 38 1 38 12
M  V30 39 1 39 12
M  V30 40 1 40 13
M  V30 41 1 41 14
M  V30 42 1 42 14
M  V30 43 1 43 15
M  V30 44 1 44 16
M  V30 45 1 45 17
M  V30 46 1 46 18
M  V30 47 1 47 18
M  V30 48 1 48 19
M  V30 49 1 49 19
M  V30 50 1 50 20
M  V30 51 1 51 20
M  V30 52 1 52 17
M  V30 END BOND
M  V30 END CTAB
M  END
>  <i_epik_Tot_Q>  (1) 
1

>  <i_epik_Tot_abs_Q>  (1) 
1

>  <i_i_glide_confnum>  (1) 
929

>  <i_i_glide_lignum>  (1) 
78

>  <i_i_glide_posenum>  (1) 
1

>  <i_i_glide_rotatable_bonds>  (1) 
15

>  <i_lp_mmshare_version>  (1) 
72125

>  <i_m_source_file_index>  (1) 
38

>  <i_f3d_flags>  (1) 
0

>  <num_sample>  (1) 
50

>  <b_lp_Chiralities_Consistent>  (1) 
1

>  <r_epik_Charging_Adjusted_Penalty>  (1) 
0.00044471717516118901

>  <r_epik_Ionization_Penalty>  (1) 
0.00044477137766854211

>  <r_epik_Ionization_Penalty_Charging>  (1) 
0.00044471717516118901

>  <r_epik_Ionization_Penalty_Neutral>  (1) 
5.4202507353122852e-08

>  <r_epik_State_Penalty>  (1) 
-0

>  <r_glide_ring_energy>  (1) 
0

>  <r_i_docking_score>  (1) 
-2.3959414547496087

>  <r_i_glide_ecoul>  (1) 
-9.9272933869083531

>  <r_i_glide_eff_state_penalty>  (1) 
-0

>  <r_i_glide_einternal>  (1) 
5.9947051749150599

>  <r_i_glide_emodel>  (1) 
-39.828515475915857

>  <r_i_glide_emodel_strain>  (1) 
0.18606190350134533

>  <r_i_glide_energy>  (1) 
-35.934143831047919

>  <r_i_glide_erotb>  (1) 
5.8968889253399706

>  <r_i_glide_esite>  (1) 
-0.10000000000000001

>  <r_i_glide_evdw>  (1) 
-26.00685044413957

>  <r_i_glide_gscore>  (1) 
-2.3959414547496087

>  <r_i_glide_gscore_strain>  (1) 
0

>  <r_i_glide_hbond>  (1) 
-0.45284750042093191

>  <r_i_glide_ligand_efficiency>  (1) 
-0.11979707273748044

>  <r_i_glide_ligand_efficiency_ln>  (1) 
-0.59962512268584667

>  <r_i_glide_ligand_efficiency_sa>  (1) 
-0.32517928465511831

>  <r_i_glide_lipo>  (1) 
-2.7033804382047877

>  <r_i_glide_metal>  (1) 
-0

>  <r_i_glide_rewards>  (1) 
-2.2471659112206277

>  <r_lp_Energy>  (1) 
13.935627999999999

>  <r_lp_tautomer_probability>  (1) 
1

>  <s_epik_cmdline>  (1) 
J2VwaWtfcHl0aG9uJywgJy1waHQnLCAnMS4wJywgJy1waCcsICc3LjQnLCAnLXRuJywgJzgnLCAnLW1hJywgJzUwMCcsICctaW1hZScsICc8aW5maWxlLm1hZT4nLCAnLW9tYWUnLCAnPG91dGZpbGUubWFlPic=

>  <s_epik_input>  (1) 
W0NIMl0xW0NIMl1bQ0hdMS9bQ0hdPVtDSF1cW0NIMl1bQ0gyXVtDSDJdW0NIMl1bQ0gyXVtOSF1bQ0gyXVtDSDJdW0NIMl1bQ0gyXUMoPU8pW0NIMl1bQ0gyXVtPSF0=

>  <s_glide_docking_method>  (1) 
confgen

>  <s_i_glide_gridfile>  (1) 
gpcr_5ht2c_6bqh_protein_autoprepared_prepared

>  <s_lp_Force_Field>  (1) 
S-OPLS

>  <s_lp_Variant>  (1) 
DiffSBDD_37-1

>  <s_m_source_file>  (1) 
generated_GPCR_5HT2C_ligand_DiffSBDD_2026-06-23_prepared.sdf

>  <GenAI_Model>  (1) 
DiffSBDD

>  <Protein>  (1) 
GPCR_5HT2C

$$$$
DiffSBDD_35
     RDKit          3D

  0  0  0  0  0  0  0  0  0  0999 V3000
M  V30 BEGIN CTAB
M  V30 COUNTS 35 35 0 0 1
M  V30 BEGIN ATOM
M  V30 1 C 37.574340 29.532841 56.945924 0
M  V30 2 C 39.530924 29.536787 51.858631 0
M  V30 3 C 40.839799 31.766164 61.767760 0
M  V30 4 Cl 40.459136 30.137755 50.464904 0
M  V30 5 C 39.364852 32.202498 61.737986 0
M  V30 6 C 38.338686 31.070630 61.478336 0
M  V30 7 C 38.431056 30.376937 60.103665 0
M  V30 8 C 38.626242 30.149321 54.164996 0
M  V30 9 O 41.696737 32.675663 61.767760 0
M  V30 10 N 37.645137 30.901741 56.427032 0 CFG=1 CHG=1
M  V30 11 C 38.435907 30.561231 57.608077 0 CFG=1
M  V30 12 O 41.079267 30.537757 61.787086 0 CHG=-1
M  V30 13 C 38.035510 31.247738 58.898363 0
M  V30 14 C 39.538107 30.568389 52.998133 0
M  V30 15 C 38.448143 31.262467 55.220929 0
M  V30 16 H 38.026852 28.760025 56.335293 0
M  V30 17 H 36.590173 29.337756 57.367760 0
M  V30 18 H 39.971569 28.588985 52.167757 0
M  V30 19 H 38.518690 29.335515 51.507139 0
M  V30 20 H 39.148220 32.662003 62.702519 0
M  V30 21 H 39.253051 32.993310 60.996997 0
M  V30 22 H 38.447733 30.315607 62.259190 0
M  V30 23 H 37.333462 31.473364 61.602742 0
M  V30 24 H 39.438808 29.989929 59.955035 0
M  V30 25 H 37.788497 29.496409 60.115175 0
M  V30 26 H 37.646750 29.849461 53.789961 0
M  V30 27 H 39.084791 29.264334 54.602533 0
M  V30 28 H 39.505011 30.494233 57.412346 0
M  V30 29 H 38.536355 32.215013 58.935768 0
M  V30 30 H 36.961461 31.442003 58.910376 0
M  V30 31 H 40.555019 30.702548 53.365675 0
M  V30 32 H 39.245137 31.544366 52.611952 0
M  V30 33 H 39.425123 31.645040 55.520752 0
M  V30 34 H 37.942972 32.109826 54.755002 0
M  V30 35 H 36.737964 31.374453 56.573747 0
M  V30 END ATOM
M  V30 BEGIN BOND
M  V30 1 1 4 2
M  V30 2 1 5 3
M  V30 3 1 6 5
M  V30 4 1 7 6
M  V30 5 2 9 3
M  V30 6 1 10 1
M  V30 7 1 11 1
M  V30 8 1 11 10
M  V30 9 1 12 3
M  V30 10 1 13 7
M  V30 11 1 13 11
M  V30 12 1 14 2
M  V30 13 1 14 8
M  V30 14 1 15 8
M  V30 15 1 15 10
M  V30 16 1 16 1
M  V30 17 1 17 1
M  V30 18 1 18 2
M  V30 19 1 19 2
M  V30 20 1 20 5
M  V30 21 1 21 5
M  V30 22 1 22 6
M  V30 23 1 23 6
M  V30 24 1 24 7
M  V30 25 1 25 7
M  V30 26 1 26 8
M  V30 27 1 27 8
M  V30 28 1 11 28 CFG=3
M  V30 29 1 29 13
M  V30 30 1 30 13
M  V30 31 1 31 14
M  V30 32 1 32 14
M  V30 33 1 33 15
M  V30 34 1 34 15
M  V30 35 1 10 35 CFG=1
M  V30 END BOND
M  V30 END CTAB
M  END
>  <i_epik_Tot_Q>  (1) 
0

>  <i_epik_Tot_abs_Q>  (1) 
2

>  <i_i_glide_confnum>  (1) 
113

>  <i_i_glide_lignum>  (1) 
76

>  <i_i_glide_posenum>  (1) 
105

>  <i_i_glide_rotatable_bonds>  (1) 
9

>  <i_lp_mmshare_version>  (1) 
72125

>  <i_m_source_file_index>  (1) 
36

>  <i_f3d_flags>  (1) 
0

>  <num_sample>  (1) 
50

>  <b_lp_Chiralities_Consistent>  (1) 
1

>  <r_epik_Charging_Adjusted_Penalty>  (1) 
0.027909031971393675

>  <r_epik_Ionization_Penalty>  (1) 
0.014709138794413591

>  <r_epik_Ionization_Penalty_Charging>  (1) 
0.014709138794413591

>  <r_epik_Ionization_Penalty_Neutral>  (1) 
0

>  <r_epik_State_Penalty>  (1) 
0.013199893176980082

>  <r_glide_ring_energy>  (1) 
0

>  <r_i_docking_score>  (1) 
-2.3950689961637974

>  <r_i_glide_ecoul>  (1) 
-8.7704130998017078

>  <r_i_glide_eff_state_penalty>  (1) 
0.013199893176980082

>  <r_i_glide_einternal>  (1) 
9.8292432853806062

>  <r_i_glide_emodel>  (1) 
-30.791044210437178

>  <r_i_glide_emodel_strain>  (1) 
0.3571011277809184

>  <r_i_glide_energy>  (1) 
-29.631679616775322

>  <r_i_glide_erotb>  (1) 
4.3969454850061123

>  <r_i_glide_esite>  (1) 
-0.10000000000000001

>  <r_i_glide_evdw>  (1) 
-20.861266516973615

>  <r_i_glide_gscore>  (1) 
-2.4082688893407775

>  <r_i_glide_gscore_strain>  (1) 
0

>  <r_i_glide_hbond>  (1) 
-0.34338000175165395

>  <r_i_glide_ligand_efficiency>  (1) 
-0.15967126641091983

>  <r_i_glide_ligand_efficiency_ln>  (1) 
-0.64591061778286285

>  <r_i_glide_ligand_efficiency_sa>  (1) 
-0.39378320514624776

>  <r_i_glide_lipo>  (1) 
-1.5549276838558406

>  <r_i_glide_metal>  (1) 
-0

>  <r_i_glide_rewards>  (1) 
-2.448281397920459

>  <r_lp_Energy>  (1) 
16.451657999999998

>  <s_epik_cmdline>  (1) 
J2VwaWtfcHl0aG9uJywgJy1waHQnLCAnMS4wJywgJy1waCcsICc3LjQnLCAnLXRuJywgJzgnLCAnLW1hJywgJzUwMCcsICctaW1hZScsICc8aW5maWxlLm1hZT4nLCAnLW9tYWUnLCAnPG91dGZpbGUubWFlPic=

>  <s_epik_input>  (1) 
Q2xbQ0gyXVtDSDJdW0NIMl1bQ0gyXU4xW0NIMl1bQ0BASF0xW0NIMl1bQ0gyXVtDSDJdW0NIMl1DKD1PKVtPSF0=

>  <s_glide_docking_method>  (1) 
confgen

>  <s_i_glide_gridfile>  (1) 
gpcr_5ht2c_6bqh_protein_autoprepared_prepared

>  <s_lp_Force_Field>  (1) 
S-OPLS

>  <s_lp_Variant>  (1) 
DiffSBDD_35-2

>  <s_m_source_file>  (1) 
generated_GPCR_5HT2C_ligand_DiffSBDD_2026-06-23_prepared.sdf

>  <GenAI_Model>  (1) 
DiffSBDD

>  <Protein>  (1) 
GPCR_5HT2C

$$$$
DiffSBDD_37
     RDKit          3D

  0  0  0  0  0  0  0  0  0  0999 V3000
M  V30 BEGIN CTAB
M  V30 COUNTS 52 52 0 0 1
M  V30 BEGIN ATOM
M  V30 1 C 39.993295 30.048646 50.789375 0
M  V30 2 C 38.975995 36.119575 61.576596 0
M  V30 3 C 37.267225 29.547238 57.696028 0
M  V30 4 C 38.489356 30.042667 56.911392 0
M  V30 5 C 38.454964 29.582852 55.451267 0
M  V30 6 C 39.581785 36.995308 62.684591 0
M  V30 7 O 36.845150 37.199849 61.912981 0
M  V30 8 C 39.805848 31.137188 49.767765 0
M  V30 9 C 36.507627 32.276543 60.253950 0
M  V30 10 C 41.129583 30.420262 49.869989 0
M  V30 11 C 37.564718 36.546160 61.160585 0
M  V30 12 C 39.705987 30.020716 54.687213 0
M  V30 13 C 39.643912 29.623765 53.228499 0
M  V30 14 C 37.241384 34.622519 59.469124 0
M  V30 15 O 40.886264 36.537752 62.967780 0
M  V30 16 C 40.045110 30.413664 52.223955 0
M  V30 17 N 36.845141 31.632081 58.967768 0 CHG=1
M  V30 18 C 37.086060 36.129138 59.764214 0
M  V30 19 C 37.136012 30.189402 59.080366 0
M  V30 20 C 36.133761 33.759537 60.101384 0
M  V30 21 H 39.489378 29.102145 50.597038 0
M  V30 22 H 39.619836 36.137701 60.698142 0
M  V30 23 H 38.933187 35.085107 61.915693 0
M  V30 24 H 37.328911 28.463340 57.803886 0
M  V30 25 H 36.359675 29.737772 57.124102 0
M  V30 26 H 38.533581 31.132212 56.925384 0
M  V30 27 H 39.400904 29.688893 57.395539 0
M  V30 28 H 38.364294 28.496577 55.410913 0
M  V30 29 H 37.567564 29.989529 54.962754 0
M  V30 30 H 38.983287 36.952426 63.596028 0
M  V30 31 H 39.636295 38.038272 62.369998 0
M  V30 32 H 39.245137 30.937225 48.869001 0
M  V30 33 H 39.680584 32.137750 50.161014 0
M  V30 34 H 37.354141 32.177311 60.934334 0
M  V30 35 H 35.671631 31.745446 60.711318 0
M  V30 36 H 41.979998 30.937750 50.305752 0
M  V30 37 H 41.364831 29.737816 49.056995 0
M  V30 38 H 39.842021 31.100914 54.764696 0
M  V30 39 H 40.583311 29.562924 55.141701 0
M  V30 40 H 39.250671 28.640625 53.010809 0
M  V30 41 H 37.229296 34.475234 58.388417 0
M  V30 42 H 38.221555 34.273624 59.794327 0
M  V30 43 H 41.269694 37.101590 63.633565 0
M  V30 44 H 40.438873 31.391932 52.453996 0
M  V30 45 H 36.073030 31.737759 58.296562 0
M  V30 46 H 36.044070 36.424170 59.639293 0
M  V30 47 H 37.645178 36.710304 59.032734 0
M  V30 48 H 38.042373 30.034975 59.667271 0
M  V30 49 H 36.318781 29.705038 59.617261 0
M  V30 50 H 35.895171 34.142570 61.094771 0
M  V30 51 H 35.216867 33.858902 59.517521 0
M  V30 52 H 37.640131 32.100188 58.559804 0
M  V30 END ATOM
M  V30 BEGIN BOND
M  V30 1 1 4 3
M  V30 2 1 5 4
M  V30 3 1 6 2
M  V30 4 1 8 1
M  V30 5 1 10 1
M  V30 6 1 10 8
M  V30 7 1 11 2
M  V30 8 2 11 7
M  V30 9 1 12 5
M  V30 10 1 13 12
M  V30 11 1 15 6
M  V30 12 1 16 1
M  V30 13 2 16 13
M  V30 14 1 17 9
M  V30 15 1 18 11
M  V30 16 1 18 14
M  V30 17 1 19 3
M  V30 18 1 19 17
M  V30 19 1 20 9
M  V30 20 1 20 14
M  V30 21 1 21 1
M  V30 22 1 22 2
M  V30 23 1 23 2
M  V30 24 1 24 3
M  V30 25 1 25 3
M  V30 26 1 26 4
M  V30 27 1 27 4
M  V30 28 1 28 5
M  V30 29 1 29 5
M  V30 30 1 30 6
M  V30 31 1 31 6
M  V30 32 1 32 8
M  V30 33 1 33 8
M  V30 34 1 34 9
M  V30 35 1 35 9
M  V30 36 1 36 10
M  V30 37 1 37 10
M  V30 38 1 38 12
M  V30 39 1 39 12
M  V30 40 1 40 13
M  V30 41 1 41 14
M  V30 42 1 42 14
M  V30 43 1 43 15
M  V30 44 1 44 16
M  V30 45 1 45 17
M  V30 46 1 46 18
M  V30 47 1 47 18
M  V30 48 1 48 19
M  V30 49 1 49 19
M  V30 50 1 50 20
M  V30 51 1 51 20
M  V30 52 1 52 17
M  V30 END BOND
M  V30 END CTAB
M  END
>  <i_epik_Tot_Q>  (1) 
1

>  <i_epik_Tot_abs_Q>  (1) 
1

>  <i_i_glide_confnum>  (1) 
1064

>  <i_i_glide_lignum>  (1) 
79

>  <i_i_glide_posenum>  (1) 
116

>  <i_i_glide_rotatable_bonds>  (1) 
15

>  <i_lp_mmshare_version>  (1) 
72125

>  <i_m_source_file_index>  (1) 
38

>  <i_f3d_flags>  (1) 
0

>  <num_sample>  (1) 
50

>  <b_lp_Chiralities_Consistent>  (1) 
1

>  <r_epik_Charging_Adjusted_Penalty>  (1) 
0.00044471717516118901

>  <r_epik_Ionization_Penalty>  (1) 
0.00044477137766854211

>  <r_epik_Ionization_Penalty_Charging>  (1) 
0.00044471717516118901

>  <r_epik_Ionization_Penalty_Neutral>  (1) 
5.4202507353122852e-08

>  <r_epik_State_Penalty>  (1) 
-0

>  <r_glide_ring_energy>  (1) 
0

>  <r_i_docking_score>  (1) 
-2.3005854052864567

>  <r_i_glide_ecoul>  (1) 
-8.153975203885004

>  <r_i_glide_eff_state_penalty>  (1) 
-0

>  <r_i_glide_einternal>  (1) 
10.609332429624201

>  <r_i_glide_emodel>  (1) 
-38.752352500973316

>  <r_i_glide_emodel_strain>  (1) 
0.35811031897740619

>  <r_i_glide_energy>  (1) 
-37.359693337075996

>  <r_i_glide_erotb>  (1) 
5.8968889253399706

>  <r_i_glide_esite>  (1) 
-0.10000000000000001

>  <r_i_glide_evdw>  (1) 
-29.205718133190995

>  <r_i_glide_gscore>  (1) 
-2.3005854052864567

>  <r_i_glide_gscore_strain>  (1) 
0

>  <r_i_glide_hbond>  (1) 
-0.52000000000000002

>  <r_i_glide_ligand_efficiency>  (1) 
-0.11502927026432283

>  <r_i_glide_ligand_efficiency_ln>  (1) 
-0.57576064855821996

>  <r_i_glide_ligand_efficiency_sa>  (1) 
-0.31223747762953458

>  <r_i_glide_lipo>  (1) 
-2.3148781540577978

>  <r_i_glide_metal>  (1) 
-0

>  <r_i_glide_rewards>  (1) 
-2.5792139893263291

>  <r_lp_Energy>  (1) 
10.148906

>  <r_lp_tautomer_probability>  (1) 
1

>  <s_epik_cmdline>  (1) 
J2VwaWtfcHl0aG9uJywgJy1waHQnLCAnMS4wJywgJy1waCcsICc3LjQnLCAnLXRuJywgJzgnLCAnLW1hJywgJzUwMCcsICctaW1hZScsICc8aW5maWxlLm1hZT4nLCAnLW9tYWUnLCAnPG91dGZpbGUubWFlPic=

>  <s_epik_input>  (1) 
W0NIMl0xW0NIMl1bQ0hdMVxbQ0hdPVtDSF1cW0NIMl1bQ0gyXVtDSDJdW0NIMl1bQ0gyXVtOSF1bQ0gyXVtDSDJdW0NIMl1bQ0gyXUMoPU8pW0NIMl1bQ0gyXVtPSF0=

>  <s_glide_docking_method>  (1) 
confgen

>  <s_i_glide_gridfile>  (1) 
gpcr_5ht2c_6bqh_protein_autoprepared_prepared

>  <s_lp_Force_Field>  (1) 
S-OPLS

>  <s_lp_Variant>  (1) 
DiffSBDD_37-2

>  <s_m_source_file>  (1) 
generated_GPCR_5HT2C_ligand_DiffSBDD_2026-06-23_prepared.sdf

>  <GenAI_Model>  (1) 
DiffSBDD

>  <Protein>  (1) 
GPCR_5HT2C

$$$$
DiffSBDD_35
     RDKit          3D

  0  0  0  0  0  0  0  0  0  0999 V3000
M  V30 BEGIN CTAB
M  V30 COUNTS 35 35 0 0 1
M  V30 BEGIN ATOM
M  V30 1 C 37.320664 30.886373 59.620309 0
M  V30 2 C 39.491773 30.940985 53.648372 0
M  V30 3 C 37.768700 24.693118 56.444465 0
M  V30 4 Cl 38.845266 29.326821 53.247841 0
M  V30 5 C 39.067542 25.508851 56.381303 0
M  V30 6 C 39.229993 26.497443 57.558708 0
M  V30 7 C 38.166560 27.611231 57.581973 0
M  V30 8 C 38.271592 31.081527 55.907247 0
M  V30 9 O 37.245259 24.537483 57.569203 0
M  V30 10 N 37.245137 30.857173 58.167764 0 CFG=2 CHG=1
M  V30 11 C 37.183777 29.578633 58.874232 0 CFG=1
M  V30 12 O 37.330698 24.240838 55.365371 0 CHG=-1
M  V30 13 C 38.341966 28.585071 58.754882 0
M  V30 14 C 39.616462 31.124205 55.165060 0
M  V30 15 C 38.440125 31.310672 57.416858 0
M  V30 16 H 36.439796 31.391732 60.011147 0
M  V30 17 H 38.295995 31.224809 59.965056 0
M  V30 18 H 38.844709 31.700812 53.212893 0
M  V30 19 H 40.464274 31.031211 53.166079 0
M  V30 20 H 39.901024 24.806623 56.372442 0
M  V30 21 H 39.108018 26.046938 55.433586 0
M  V30 22 H 39.210633 25.946936 58.501084 0
M  V30 23 H 40.221084 26.948939 57.500818 0
M  V30 24 H 38.201888 28.147720 56.636033 0
M  V30 25 H 37.172165 27.169416 57.642262 0
M  V30 26 H 37.591937 31.831362 55.498835 0
M  V30 27 H 37.789725 30.121645 55.729463 0
M  V30 28 H 36.182031 29.161998 58.784558 0
M  V30 29 H 39.317553 29.061364 58.729057 0
M  V30 30 H 38.360671 28.004384 59.677264 0
M  V30 31 H 40.274708 30.349483 55.558548 0
M  V30 32 H 40.101766 32.079044 55.368504 0
M  V30 33 H 39.362274 30.862383 57.768391 0
M  V30 34 H 38.559989 32.380660 57.591295 0
M  V30 35 H 36.347014 31.202417 57.794774 0
M  V30 END ATOM
M  V30 BEGIN BOND
M  V30 1 1 4 2
M  V30 2 1 5 3
M  V30 3 1 6 5
M  V30 4 1 7 6
M  V30 5 2 9 3
M  V30 6 1 10 1
M  V30 7 1 11 1
M  V30 8 1 11 10
M  V30 9 1 12 3
M  V30 10 1 13 7
M  V30 11 1 13 11
M  V30 12 1 14 2
M  V30 13 1 14 8
M  V30 14 1 15 8
M  V30 15 1 15 10
M  V30 16 1 16 1
M  V30 17 1 17 1
M  V30 18 1 18 2
M  V30 19 1 19 2
M  V30 20 1 20 5
M  V30 21 1 21 5
M  V30 22 1 22 6
M  V30 23 1 23 6
M  V30 24 1 24 7
M  V30 25 1 25 7
M  V30 26 1 26 8
M  V30 27 1 27 8
M  V30 28 1 11 28 CFG=1
M  V30 29 1 29 13
M  V30 30 1 30 13
M  V30 31 1 31 14
M  V30 32 1 32 14
M  V30 33 1 33 15
M  V30 34 1 34 15
M  V30 35 1 10 35 CFG=3
M  V30 END BOND
M  V30 END CTAB
M  END
>  <i_epik_Tot_Q>  (1) 
0

>  <i_epik_Tot_abs_Q>  (1) 
2

>  <i_i_glide_confnum>  (1) 
195

>  <i_i_glide_lignum>  (1) 
75

>  <i_i_glide_posenum>  (1) 
15

>  <i_i_glide_rotatable_bonds>  (1) 
9

>  <i_lp_mmshare_version>  (1) 
72125

>  <i_m_source_file_index>  (1) 
36

>  <i_f3d_flags>  (1) 
0

>  <num_sample>  (1) 
50

>  <b_lp_Chiralities_Consistent>  (1) 
1

>  <r_epik_Charging_Adjusted_Penalty>  (1) 
0.027909031971393675

>  <r_epik_Ionization_Penalty>  (1) 
0.014709138794413591

>  <r_epik_Ionization_Penalty_Charging>  (1) 
0.014709138794413591

>  <r_epik_Ionization_Penalty_Neutral>  (1) 
0

>  <r_epik_State_Penalty>  (1) 
0.013199893176980082

>  <r_glide_ring_energy>  (1) 
0

>  <r_i_docking_score>  (1) 
-2.1310461461787775

>  <r_i_glide_ecoul>  (1) 
-6.8035923205372004

>  <r_i_glide_eff_state_penalty>  (1) 
0.013199893176980082

>  <r_i_glide_einternal>  (1) 
1.8087975194776069

>  <r_i_glide_emodel>  (1) 
-31.709098364351888

>  <r_i_glide_emodel_strain>  (1) 
0

>  <r_i_glide_energy>  (1) 
-27.341740201077066

>  <r_i_glide_erotb>  (1) 
4.3969454850061123

>  <r_i_glide_esite>  (1) 
-0.096138594316402814

>  <r_i_glide_evdw>  (1) 
-20.538147880539867

>  <r_i_glide_gscore>  (1) 
-2.1442460393557576

>  <r_i_glide_gscore_strain>  (1) 
0

>  <r_i_glide_hbond>  (1) 
-0.1745831924124957

>  <r_i_glide_ligand_efficiency>  (1) 
-0.14206974307858516

>  <r_i_glide_ligand_efficiency_ln>  (1) 
-0.57470800841513114

>  <r_i_glide_ligand_efficiency_sa>  (1) 
-0.35037411577743455

>  <r_i_glide_lipo>  (1) 
-1.7152309432104507

>  <r_i_glide_metal>  (1) 
-0

>  <r_i_glide_rewards>  (1) 
-2.5077925523149469

>  <r_lp_Energy>  (1) 
16.179413

>  <s_epik_cmdline>  (1) 
J2VwaWtfcHl0aG9uJywgJy1waHQnLCAnMS4wJywgJy1waCcsICc3LjQnLCAnLXRuJywgJzgnLCAnLW1hJywgJzUwMCcsICctaW1hZScsICc8aW5maWxlLm1hZT4nLCAnLW9tYWUnLCAnPG91dGZpbGUubWFlPic=

>  <s_epik_input>  (1) 
Q2xbQ0gyXVtDSDJdW0NIMl1bQ0gyXU4xW0NIMl1bQ0BASF0xW0NIMl1bQ0gyXVtDSDJdW0NIMl1DKD1PKVtPSF0=

>  <s_glide_docking_method>  (1) 
confgen

>  <s_i_glide_gridfile>  (1) 
gpcr_5ht2c_6bqh_protein_autoprepared_prepared

>  <s_lp_Force_Field>  (1) 
S-OPLS

>  <s_lp_Variant>  (1) 
DiffSBDD_35-1

>  <s_m_source_file>  (1) 
generated_GPCR_5HT2C_ligand_DiffSBDD_2026-06-23_prepared.sdf

>  <GenAI_Model>  (1) 
DiffSBDD

>  <Protein>  (1) 
GPCR_5HT2C

$$$$
DiffSBDD_35
     RDKit          3D

  0  0  0  0  0  0  0  0  0  0999 V3000
M  V30 BEGIN CTAB
M  V30 COUNTS 35 35 0 0 1
M  V30 BEGIN ATOM
M  V30 1 C 37.661966 29.303801 57.616545 0
M  V30 2 C 38.043594 28.220661 52.335752 0
M  V30 3 C 40.858991 32.441989 61.898359 0
M  V30 4 Cl 39.244980 27.907652 51.056430 0
M  V30 5 C 39.355018 32.763175 61.850720 0
M  V30 6 C 38.415272 31.536947 61.749694 0
M  V30 7 C 38.565502 30.688951 60.473597 0
M  V30 8 C 37.646822 29.580954 54.495900 0
M  V30 9 O 41.645123 33.403761 61.767816 0
M  V30 10 N 37.646003 30.537806 56.833328 0 CFG=1 CHG=1
M  V30 11 C 38.499571 30.489286 58.010821 0 CFG=1
M  V30 12 O 41.189917 31.244967 62.061001 0 CHG=-1
M  V30 13 C 38.099610 31.362803 59.175634 0
M  V30 14 C 38.588156 29.267738 53.315734 0
M  V30 15 C 38.332300 30.506415 55.518181 0
M  V30 16 H 38.135681 28.465281 57.109065 0
M  V30 17 H 36.689616 29.144982 58.078608 0
M  V30 18 H 37.843216 27.271481 52.831785 0
M  V30 19 H 37.122578 28.544674 51.856677 0
M  V30 20 H 39.113285 33.320208 62.755694 0
M  V30 21 H 39.174557 33.443913 61.019246 0
M  V30 22 H 38.578183 30.892611 62.615302 0
M  V30 23 H 37.382443 31.875828 61.826846 0
M  V30 24 H 39.599066 30.363501 60.359044 0
M  V30 25 H 37.999416 29.766097 60.594174 0
M  V30 26 H 36.716062 30.043937 54.166846 0
M  V30 27 H 37.365826 28.637743 54.965123 0
M  V30 28 H 39.560646 30.461393 57.771328 0
M  V30 29 H 38.552475 32.345653 59.046171 0
M  V30 30 H 37.018089 31.503429 59.190688 0
M  V30 31 H 39.526581 28.883290 53.716270 0
M  V30 32 H 38.845081 30.181941 52.780508 0
M  V30 33 H 39.367990 30.185226 55.639941 0
M  V30 34 H 38.377208 31.523976 55.128358 0
M  V30 35 H 36.759451 31.055228 56.923834 0
M  V30 END ATOM
M  V30 BEGIN BOND
M  V30 1 1 4 2
M  V30 2 1 5 3
M  V30 3 1 6 5
M  V30 4 1 7 6
M  V30 5 2 9 3
M  V30 6 1 10 1
M  V30 7 1 11 1
M  V30 8 1 11 10
M  V30 9 1 12 3
M  V30 10 1 13 7
M  V30 11 1 13 11
M  V30 12 1 14 2
M  V30 13 1 14 8
M  V30 14 1 15 8
M  V30 15 1 15 10
M  V30 16 1 16 1
M  V30 17 1 17 1
M  V30 18 1 18 2
M  V30 19 1 19 2
M  V30 20 1 20 5
M  V30 21 1 21 5
M  V30 22 1 22 6
M  V30 23 1 23 6
M  V30 24 1 24 7
M  V30 25 1 25 7
M  V30 26 1 26 8
M  V30 27 1 27 8
M  V30 28 1 11 28 CFG=3
M  V30 29 1 29 13
M  V30 30 1 30 13
M  V30 31 1 31 14
M  V30 32 1 32 14
M  V30 33 1 33 15
M  V30 34 1 34 15
M  V30 35 1 10 35 CFG=1
M  V30 END BOND
M  V30 END CTAB
M  END
>  <i_epik_Tot_Q>  (1) 
0

>  <i_epik_Tot_abs_Q>  (1) 
2

>  <i_i_glide_confnum>  (1) 
113

>  <i_i_glide_lignum>  (1) 
76

>  <i_i_glide_posenum>  (1) 
105

>  <i_i_glide_rotatable_bonds>  (1) 
9

>  <i_lp_mmshare_version>  (1) 
72125

>  <i_m_source_file_index>  (1) 
36

>  <i_f3d_flags>  (1) 
0

>  <num_sample>  (1) 
50

>  <b_lp_Chiralities_Consistent>  (1) 
1

>  <r_epik_Charging_Adjusted_Penalty>  (1) 
0.027909031971393675

>  <r_epik_Ionization_Penalty>  (1) 
0.014709138794413591

>  <r_epik_Ionization_Penalty_Charging>  (1) 
0.014709138794413591

>  <r_epik_Ionization_Penalty_Neutral>  (1) 
0

>  <r_epik_State_Penalty>  (1) 
0.013199893176980082

>  <r_glide_ring_energy>  (1) 
0

>  <r_i_docking_score>  (1) 
-1.9463152084677255

>  <r_i_glide_ecoul>  (1) 
-6.7157871310113642

>  <r_i_glide_eff_state_penalty>  (1) 
0.013199893176980082

>  <r_i_glide_einternal>  (1) 
4.7810499783861911

>  <r_i_glide_emodel>  (1) 
-30.150370311002078

>  <r_i_glide_emodel_strain>  (1) 
0.78656481582768301

>  <r_i_glide_energy>  (1) 
-28.094733460875663

>  <r_i_glide_erotb>  (1) 
4.3969454850061123

>  <r_i_glide_esite>  (1) 
-0.10000000000000001

>  <r_i_glide_evdw>  (1) 
-21.378946329864299

>  <r_i_glide_gscore>  (1) 
-1.9595151016447057

>  <r_i_glide_gscore_strain>  (1) 
0

>  <r_i_glide_hbond>  (1) 
-0.29618621659581251

>  <r_i_glide_ligand_efficiency>  (1) 
-0.1297543472311817

>  <r_i_glide_ligand_efficiency_ln>  (1) 
-0.52488912040327484

>  <r_i_glide_ligand_efficiency_sa>  (1) 
-0.32000173783840874

>  <r_i_glide_lipo>  (1) 
-1.4932237854303081

>  <r_i_glide_metal>  (1) 
-0

>  <r_i_glide_rewards>  (1) 
-2.3907351984797769

>  <r_lp_Energy>  (1) 
16.451657999999998

>  <s_epik_cmdline>  (1) 
J2VwaWtfcHl0aG9uJywgJy1waHQnLCAnMS4wJywgJy1waCcsICc3LjQnLCAnLXRuJywgJzgnLCAnLW1hJywgJzUwMCcsICctaW1hZScsICc8aW5maWxlLm1hZT4nLCAnLW9tYWUnLCAnPG91dGZpbGUubWFlPic=

>  <s_epik_input>  (1) 
Q2xbQ0gyXVtDSDJdW0NIMl1bQ0gyXU4xW0NIMl1bQ0BASF0xW0NIMl1bQ0gyXVtDSDJdW0NIMl1DKD1PKVtPSF0=

>  <s_glide_docking_method>  (1) 
confgen

>  <s_i_glide_gridfile>  (1) 
gpcr_5ht2c_6bqh_protein_autoprepared_prepared

>  <s_lp_Force_Field>  (1) 
S-OPLS

>  <s_lp_Variant>  (1) 
DiffSBDD_35-2

>  <s_m_source_file>  (1) 
generated_GPCR_5HT2C_ligand_DiffSBDD_2026-06-23_prepared.sdf

>  <GenAI_Model>  (1) 
DiffSBDD

>  <Protein>  (1) 
GPCR_5HT2C

$$$$
DiffSBDD_35
     RDKit          3D

  0  0  0  0  0  0  0  0  0  0999 V3000
M  V30 BEGIN CTAB
M  V30 COUNTS 35 35 0 0 1
M  V30 BEGIN ATOM
M  V30 1 C 38.669849 31.060938 57.637854 0
M  V30 2 C 38.615604 28.778857 52.431531 0
M  V30 3 C 36.412435 32.215448 61.367745 0
M  V30 4 Cl 39.644605 28.539667 50.996441 0
M  V30 5 C 36.152325 33.657301 60.922829 0
M  V30 6 C 37.448132 34.446948 60.627574 0
M  V30 7 C 38.425766 33.754801 59.658588 0
M  V30 8 C 38.243231 30.291885 54.473330 0
M  V30 9 O 35.645262 31.337765 60.926197 0
M  V30 10 N 38.045143 31.732866 56.507128 0 CFG=1 CHG=1
M  V30 11 C 38.733939 32.560642 57.476967 0 CFG=1
M  V30 12 O 37.368338 32.021644 62.150487 0 CHG=-1
M  V30 13 C 37.826377 33.469376 58.273003 0
M  V30 14 C 39.131461 29.964856 53.261904 0
M  V30 15 C 38.691274 31.578969 55.183914 0
M  V30 16 H 39.504400 30.435896 57.327645 0
M  V30 17 H 37.899082 30.610721 58.261712 0
M  V30 18 H 38.626255 27.852431 53.005514 0
M  V30 19 H 37.596833 28.936359 52.078548 0
M  V30 20 H 35.502618 33.653326 60.047612 0
M  V30 21 H 35.590638 34.154676 61.712557 0
M  V30 22 H 37.183118 35.426611 60.229214 0
M  V30 23 H 37.964310 34.641889 61.568422 0
M  V30 24 H 39.327055 34.358913 59.563485 0
M  V30 25 H 38.775427 32.819227 60.094070 0
M  V30 26 H 37.201192 30.393747 54.168011 0
M  V30 27 H 38.278362 29.450327 55.167409 0
M  V30 28 H 39.645048 32.999682 57.080175 0
M  V30 29 H 37.646147 34.392132 57.720590 0
M  V30 30 H 36.856784 32.982158 58.376439 0
M  V30 31 H 40.133596 29.737756 53.618386 0
M  V30 32 H 39.245595 30.844148 52.626305 0
M  V30 33 H 39.777747 31.579150 55.289286 0
M  V30 34 H 38.439445 32.447609 54.573570 0
M  V30 35 H 37.023761 31.773306 56.568600 0
M  V30 END ATOM
M  V30 BEGIN BOND
M  V30 1 1 4 2
M  V30 2 1 5 3
M  V30 3 1 6 5
M  V30 4 1 7 6
M  V30 5 2 9 3
M  V30 6 1 10 1
M  V30 7 1 11 1
M  V30 8 1 11 10
M  V30 9 1 12 3
M  V30 10 1 13 7
M  V30 11 1 13 11
M  V30 12 1 14 2
M  V30 13 1 14 8
M  V30 14 1 15 8
M  V30 15 1 15 10
M  V30 16 1 16 1
M  V30 17 1 17 1
M  V30 18 1 18 2
M  V30 19 1 19 2
M  V30 20 1 20 5
M  V30 21 1 21 5
M  V30 22 1 22 6
M  V30 23 1 23 6
M  V30 24 1 24 7
M  V30 25 1 25 7
M  V30 26 1 26 8
M  V30 27 1 27 8
M  V30 28 1 11 28 CFG=3
M  V30 29 1 29 13
M  V30 30 1 30 13
M  V30 31 1 31 14
M  V30 32 1 32 14
M  V30 33 1 33 15
M  V30 34 1 34 15
M  V30 35 1 10 35 CFG=3
M  V30 END BOND
M  V30 END CTAB
M  END
>  <i_epik_Tot_Q>  (1) 
0

>  <i_epik_Tot_abs_Q>  (1) 
2

>  <i_i_glide_confnum>  (1) 
70

>  <i_i_glide_lignum>  (1) 
76

>  <i_i_glide_posenum>  (1) 
237

>  <i_i_glide_rotatable_bonds>  (1) 
9

>  <i_lp_mmshare_version>  (1) 
72125

>  <i_m_source_file_index>  (1) 
36

>  <i_f3d_flags>  (1) 
0

>  <num_sample>  (1) 
50

>  <b_lp_Chiralities_Consistent>  (1) 
1

>  <r_epik_Charging_Adjusted_Penalty>  (1) 
0.027909031971393675

>  <r_epik_Ionization_Penalty>  (1) 
0.014709138794413591

>  <r_epik_Ionization_Penalty_Charging>  (1) 
0.014709138794413591

>  <r_epik_Ionization_Penalty_Neutral>  (1) 
0

>  <r_epik_State_Penalty>  (1) 
0.013199893176980082

>  <r_glide_ring_energy>  (1) 
0

>  <r_i_docking_score>  (1) 
-1.8696978023423187

>  <r_i_glide_ecoul>  (1) 
-6.5683678751049213

>  <r_i_glide_eff_state_penalty>  (1) 
0.013199893176980082

>  <r_i_glide_einternal>  (1) 
3.0248560238228732

>  <r_i_glide_emodel>  (1) 
-32.192856069453413

>  <r_i_glide_emodel_strain>  (1) 
0

>  <r_i_glide_energy>  (1) 
-28.677158014875616

>  <r_i_glide_erotb>  (1) 
4.3969454850061123

>  <r_i_glide_esite>  (1) 
-0.14482676149638479

>  <r_i_glide_evdw>  (1) 
-22.108790139770694

>  <r_i_glide_gscore>  (1) 
-1.8828976955192989

>  <r_i_glide_gscore_strain>  (1) 
0

>  <r_i_glide_hbond>  (1) 
-0.44820950143511284

>  <r_i_glide_ligand_efficiency>  (1) 
-0.12464652015615459

>  <r_i_glide_ligand_efficiency_ln>  (1) 
-0.50422666925775572

>  <r_i_glide_ligand_efficiency_sa>  (1) 
-0.30740475303238479

>  <r_i_glide_lipo>  (1) 
-1.3382252780286175

>  <r_i_glide_metal>  (1) 
-0

>  <r_i_glide_rewards>  (1) 
-2.2578869513110225

>  <r_lp_Energy>  (1) 
16.451657999999998

>  <s_epik_cmdline>  (1) 
J2VwaWtfcHl0aG9uJywgJy1waHQnLCAnMS4wJywgJy1waCcsICc3LjQnLCAnLXRuJywgJzgnLCAnLW1hJywgJzUwMCcsICctaW1hZScsICc8aW5maWxlLm1hZT4nLCAnLW9tYWUnLCAnPG91dGZpbGUubWFlPic=

>  <s_epik_input>  (1) 
Q2xbQ0gyXVtDSDJdW0NIMl1bQ0gyXU4xW0NIMl1bQ0BASF0xW0NIMl1bQ0gyXVtDSDJdW0NIMl1DKD1PKVtPSF0=

>  <s_glide_docking_method>  (1) 
confgen

>  <s_i_glide_gridfile>  (1) 
gpcr_5ht2c_6bqh_protein_autoprepared_prepared

>  <s_lp_Force_Field>  (1) 
S-OPLS

>  <s_lp_Variant>  (1) 
DiffSBDD_35-2

>  <s_m_source_file>  (1) 
generated_GPCR_5HT2C_ligand_DiffSBDD_2026-06-23_prepared.sdf

>  <GenAI_Model>  (1) 
DiffSBDD

>  <Protein>  (1) 
GPCR_5HT2C

$$$$
DiffSBDD_35
     RDKit          3D

  0  0  0  0  0  0  0  0  0  0999 V3000
M  V30 BEGIN CTAB
M  V30 COUNTS 35 35 0 0 1
M  V30 BEGIN ATOM
M  V30 1 C 37.889079 32.106792 54.722924 0
M  V30 2 C 36.538199 33.224690 59.604624 0
M  V30 3 C 39.099638 25.876540 55.313839 0
M  V30 4 Cl 35.245138 32.937738 60.794490 0
M  V30 5 C 37.660915 26.335696 55.035122 0
M  V30 6 C 37.505227 27.356940 53.881080 0
M  V30 7 C 38.177612 28.727278 54.092640 0
M  V30 8 C 38.550342 32.075998 58.471252 0
M  V30 9 O 39.298135 25.269830 56.388487 0
M  V30 10 N 37.645137 31.881609 56.139745 0 CFG=1 CHG=1
M  V30 11 C 38.366361 30.854165 55.409594 0 CFG=1
M  V30 12 O 39.966108 26.137753 54.448734 0 CHG=-1
M  V30 13 C 37.625248 29.542721 55.272570 0
M  V30 14 C 37.253086 31.905284 59.281071 0
M  V30 15 C 38.404963 32.730596 57.084742 0
M  V30 16 H 38.568645 32.937765 54.567328 0
M  V30 17 H 36.944716 32.109205 54.186160 0
M  V30 18 H 37.221448 33.957018 60.034979 0
M  V30 19 H 36.078741 33.662947 58.717581 0
M  V30 20 H 37.079309 25.443661 54.802192 0
M  V30 21 H 37.245138 26.732928 55.959454 0
M  V30 22 H 37.893038 26.912683 52.963086 0
M  V30 23 H 36.445136 27.518051 53.691307 0
M  V30 24 H 39.252236 28.597259 54.215724 0
M  V30 25 H 38.058201 29.310015 53.178492 0
M  V30 26 H 39.245137 32.674074 59.062236 0
M  V30 27 H 39.020982 31.098650 58.356645 0
M  V30 28 H 39.411989 30.795827 55.708616 0
M  V30 29 H 37.728549 28.991357 56.207412 0
M  V30 30 H 36.560996 29.737739 55.128936 0
M  V30 31 H 37.509069 31.411426 60.219427 0
M  V30 32 H 36.570025 31.226690 58.770017 0
M  V30 33 H 37.905607 33.696597 57.162677 0
M  V30 34 H 39.402365 32.937732 56.692566 0
M  V30 35 H 36.645110 31.737754 56.361875 0
M  V30 END ATOM
M  V30 BEGIN BOND
M  V30 1 1 4 2
M  V30 2 1 5 3
M  V30 3 1 6 5
M  V30 4 1 7 6
M  V30 5 2 9 3
M  V30 6 1 10 1
M  V30 7 1 11 1
M  V30 8 1 11 10
M  V30 9 1 12 3
M  V30 10 1 13 7
M  V30 11 1 13 11
M  V30 12 1 14 2
M  V30 13 1 14 8
M  V30 14 1 15 8
M  V30 15 1 15 10
M  V30 16 1 16 1
M  V30 17 1 17 1
M  V30 18 1 18 2
M  V30 19 1 19 2
M  V30 20 1 20 5
M  V30 21 1 21 5
M  V30 22 1 22 6
M  V30 23 1 23 6
M  V30 24 1 24 7
M  V30 25 1 25 7
M  V30 26 1 26 8
M  V30 27 1 27 8
M  V30 28 1 11 28 CFG=1
M  V30 29 1 29 13
M  V30 30 1 30 13
M  V30 31 1 31 14
M  V30 32 1 32 14
M  V30 33 1 33 15
M  V30 34 1 34 15
M  V30 35 1 10 35 CFG=3
M  V30 END BOND
M  V30 END CTAB
M  END
>  <i_epik_Tot_Q>  (1) 
0

>  <i_epik_Tot_abs_Q>  (1) 
2

>  <i_i_glide_confnum>  (1) 
113

>  <i_i_glide_lignum>  (1) 
76

>  <i_i_glide_posenum>  (1) 
105

>  <i_i_glide_rotatable_bonds>  (1) 
9

>  <i_lp_mmshare_version>  (1) 
72125

>  <i_m_source_file_index>  (1) 
36

>  <i_f3d_flags>  (1) 
0

>  <num_sample>  (1) 
50

>  <b_lp_Chiralities_Consistent>  (1) 
1

>  <r_epik_Charging_Adjusted_Penalty>  (1) 
0.027909031971393675

>  <r_epik_Ionization_Penalty>  (1) 
0.014709138794413591

>  <r_epik_Ionization_Penalty_Charging>  (1) 
0.014709138794413591

>  <r_epik_Ionization_Penalty_Neutral>  (1) 
0

>  <r_epik_State_Penalty>  (1) 
0.013199893176980082

>  <r_glide_ring_energy>  (1) 
0

>  <r_i_docking_score>  (1) 
-1.7399228055418594

>  <r_i_glide_ecoul>  (1) 
-7.2380816801621393

>  <r_i_glide_eff_state_penalty>  (1) 
0.013199893176980082

>  <r_i_glide_einternal>  (1) 
5.0889327437785656

>  <r_i_glide_emodel>  (1) 
-29.795398736267593

>  <r_i_glide_emodel_strain>  (1) 
0.059269441334503625

>  <r_i_glide_energy>  (1) 
-27.717562119848022

>  <r_i_glide_erotb>  (1) 
4.3969454850061123

>  <r_i_glide_esite>  (1) 
-0.10000000000000001

>  <r_i_glide_evdw>  (1) 
-20.479480439685883

>  <r_i_glide_gscore>  (1) 
-1.7531226987188395

>  <r_i_glide_gscore_strain>  (1) 
0

>  <r_i_glide_hbond>  (1) 
-0.14072735116545287

>  <r_i_glide_ligand_efficiency>  (1) 
-0.11599485370279063

>  <r_i_glide_ligand_efficiency_ln>  (1) 
-0.46922849238251174

>  <r_i_glide_ligand_efficiency_sa>  (1) 
-0.28606790876201871

>  <r_i_glide_lipo>  (1) 
-1.0855328952245389

>  <r_i_glide_metal>  (1) 
-0

>  <r_i_glide_rewards>  (1) 
-2.7141216633263454

>  <r_lp_Energy>  (1) 
16.451657999999998

>  <s_epik_cmdline>  (1) 
J2VwaWtfcHl0aG9uJywgJy1waHQnLCAnMS4wJywgJy1waCcsICc3LjQnLCAnLXRuJywgJzgnLCAnLW1hJywgJzUwMCcsICctaW1hZScsICc8aW5maWxlLm1hZT4nLCAnLW9tYWUnLCAnPG91dGZpbGUubWFlPic=

>  <s_epik_input>  (1) 
Q2xbQ0gyXVtDSDJdW0NIMl1bQ0gyXU4xW0NIMl1bQ0BASF0xW0NIMl1bQ0gyXVtDSDJdW0NIMl1DKD1PKVtPSF0=

>  <s_glide_docking_method>  (1) 
confgen

>  <s_i_glide_gridfile>  (1) 
gpcr_5ht2c_6bqh_protein_autoprepared_prepared

>  <s_lp_Force_Field>  (1) 
S-OPLS

>  <s_lp_Variant>  (1) 
DiffSBDD_35-2

>  <s_m_source_file>  (1) 
generated_GPCR_5HT2C_ligand_DiffSBDD_2026-06-23_prepared.sdf

>  <GenAI_Model>  (1) 
DiffSBDD

>  <Protein>  (1) 
GPCR_5HT2C

$$$$
DiffSBDD_35
     RDKit          3D

  0  0  0  0  0  0  0  0  0  0999 V3000
M  V30 BEGIN CTAB
M  V30 COUNTS 35 35 0 0 1
M  V30 BEGIN ATOM
M  V30 1 C 38.445067 31.122417 58.039235 0
M  V30 2 C 39.082700 29.337876 52.682922 0
M  V30 3 C 39.438907 31.302619 61.410199 0
M  V30 4 Cl 40.045141 29.337770 51.183121 0
M  V30 5 C 39.587059 32.803599 61.125253 0
M  V30 6 C 38.263061 33.602008 61.160801 0
M  V30 7 C 37.150450 33.174100 60.180946 0
M  V30 8 C 38.563776 30.658275 54.807293 0
M  V30 9 O 40.338776 30.553372 60.967760 0
M  V30 10 N 38.045137 31.908698 56.887474 0 CFG=1 CHG=1
M  V30 11 C 38.496892 32.637114 58.059851 0 CFG=1
M  V30 12 O 38.433199 30.937758 62.060737 0 CHG=-1
M  V30 13 C 37.402178 33.483970 58.695950 0
M  V30 14 C 39.414717 30.574601 53.531867 0
M  V30 15 C 38.915375 31.866665 55.691879 0
M  V30 16 H 39.342761 30.538391 57.844979 0
M  V30 17 H 37.579590 30.598411 58.440272 0
M  V30 18 H 39.296338 28.412508 53.218233 0
M  V30 19 H 38.031793 29.319046 52.397638 0
M  V30 20 H 40.267936 33.209334 61.873500 0
M  V30 21 H 40.083466 32.937778 60.167760 0
M  V30 22 H 37.858468 33.531162 62.167757 0
M  V30 23 H 38.482899 34.659378 61.011579 0
M  V30 24 H 36.906802 32.119304 60.306279 0
M  V30 25 H 36.243082 33.704830 60.472041 0
M  V30 26 H 37.508075 30.705656 54.534285 0
M  V30 27 H 38.690870 29.740056 55.382556 0
M  V30 28 H 39.452297 33.127578 57.885288 0
M  V30 29 H 37.645143 34.537756 58.565813 0
M  V30 30 H 36.460801 33.337755 58.167746 0
M  V30 31 H 40.472149 30.556397 53.796602 0
M  V30 32 H 39.261823 31.477071 52.939063 0
M  V30 33 H 39.969272 31.835528 55.973650 0
M  V30 34 H 38.766459 32.791199 55.132775 0
M  V30 35 H 37.030315 31.927068 56.754360 0
M  V30 END ATOM
M  V30 BEGIN BOND
M  V30 1 1 4 2
M  V30 2 1 5 3
M  V30 3 1 6 5
M  V30 4 1 7 6
M  V30 5 2 9 3
M  V30 6 1 10 1
M  V30 7 1 11 1
M  V30 8 1 11 10
M  V30 9 1 12 3
M  V30 10 1 13 7
M  V30 11 1 13 11
M  V30 12 1 14 2
M  V30 13 1 14 8
M  V30 14 1 15 8
M  V30 15 1 15 10
M  V30 16 1 16 1
M  V30 17 1 17 1
M  V30 18 1 18 2
M  V30 19 1 19 2
M  V30 20 1 20 5
M  V30 21 1 21 5
M  V30 22 1 22 6
M  V30 23 1 23 6
M  V30 24 1 24 7
M  V30 25 1 25 7
M  V30 26 1 26 8
M  V30 27 1 27 8
M  V30 28 1 11 28 CFG=3
M  V30 29 1 29 13
M  V30 30 1 30 13
M  V30 31 1 31 14
M  V30 32 1 32 14
M  V30 33 1 33 15
M  V30 34 1 34 15
M  V30 35 1 10 35 CFG=3
M  V30 END BOND
M  V30 END CTAB
M  END
>  <i_epik_Tot_Q>  (1) 
0

>  <i_epik_Tot_abs_Q>  (1) 
2

>  <i_i_glide_confnum>  (1) 
173

>  <i_i_glide_lignum>  (1) 
76

>  <i_i_glide_posenum>  (1) 
361

>  <i_i_glide_rotatable_bonds>  (1) 
9

>  <i_lp_mmshare_version>  (1) 
72125

>  <i_m_source_file_index>  (1) 
36

>  <i_f3d_flags>  (1) 
0

>  <num_sample>  (1) 
50

>  <b_lp_Chiralities_Consistent>  (1) 
1

>  <r_epik_Charging_Adjusted_Penalty>  (1) 
0.027909031971393675

>  <r_epik_Ionization_Penalty>  (1) 
0.014709138794413591

>  <r_epik_Ionization_Penalty_Charging>  (1) 
0.014709138794413591

>  <r_epik_Ionization_Penalty_Neutral>  (1) 
0

>  <r_epik_State_Penalty>  (1) 
0.013199893176980082

>  <r_glide_ring_energy>  (1) 
0

>  <r_i_docking_score>  (1) 
-1.6146085154251066

>  <r_i_glide_ecoul>  (1) 
-5.9239417129218293

>  <r_i_glide_eff_state_penalty>  (1) 
0.013199893176980082

>  <r_i_glide_einternal>  (1) 
3.3803357707060577

>  <r_i_glide_emodel>  (1) 
-29.807419519508962

>  <r_i_glide_emodel_strain>  (1) 
0.12405264249283476

>  <r_i_glide_energy>  (1) 
-27.27470929799982

>  <r_i_glide_erotb>  (1) 
4.3969454850061123

>  <r_i_glide_esite>  (1) 
-0.10000000000000001

>  <r_i_glide_evdw>  (1) 
-21.350767585077993

>  <r_i_glide_gscore>  (1) 
-1.6278084086020868

>  <r_i_glide_gscore_strain>  (1) 
0

>  <r_i_glide_hbond>  (1) 
-0.21445388526775358

>  <r_i_glide_ligand_efficiency>  (1) 
-0.10764056769500711

>  <r_i_glide_ligand_efficiency_ln>  (1) 
-0.43543329455064217

>  <r_i_glide_ligand_efficiency_sa>  (1) 
-0.26546446773721294

>  <r_i_glide_lipo>  (1) 
-1.298771735794082

>  <r_i_glide_metal>  (1) 
-0

>  <r_i_glide_rewards>  (1) 
-2.4553986363541886

>  <r_lp_Energy>  (1) 
16.451657999999998

>  <s_epik_cmdline>  (1) 
J2VwaWtfcHl0aG9uJywgJy1waHQnLCAnMS4wJywgJy1waCcsICc3LjQnLCAnLXRuJywgJzgnLCAnLW1hJywgJzUwMCcsICctaW1hZScsICc8aW5maWxlLm1hZT4nLCAnLW9tYWUnLCAnPG91dGZpbGUubWFlPic=

>  <s_epik_input>  (1) 
Q2xbQ0gyXVtDSDJdW0NIMl1bQ0gyXU4xW0NIMl1bQ0BASF0xW0NIMl1bQ0gyXVtDSDJdW0NIMl1DKD1PKVtPSF0=

>  <s_glide_docking_method>  (1) 
confgen

>  <s_i_glide_gridfile>  (1) 
gpcr_5ht2c_6bqh_protein_autoprepared_prepared

>  <s_lp_Force_Field>  (1) 
S-OPLS

>  <s_lp_Variant>  (1) 
DiffSBDD_35-2

>  <s_m_source_file>  (1) 
generated_GPCR_5HT2C_ligand_DiffSBDD_2026-06-23_prepared.sdf

>  <GenAI_Model>  (1) 
DiffSBDD

>  <Protein>  (1) 
GPCR_5HT2C

$$$$
DiffSBDD_11
     RDKit          3D

  0  0  0  0  0  0  0  0  0  0999 V3000
M  V30 BEGIN CTAB
M  V30 COUNTS 46 45 0 0 1
M  V30 BEGIN ATOM
M  V30 1 S 37.798141 25.520162 56.560209 0
M  V30 2 C 40.348003 29.729084 51.121814 0
M  V30 3 C 38.724164 32.273779 55.994208 0
M  V30 4 O 37.280143 24.147534 56.992992 0
M  V30 5 C 37.830448 28.191167 52.694658 0
M  V30 6 C 39.165299 29.908999 56.842343 0
M  V30 7 C 37.713937 26.947992 53.601433 0
M  V30 8 C 39.047668 26.467804 54.205578 0
M  V30 9 C 38.507732 27.931271 51.332742 0
M  V30 10 N 40.045140 30.250935 49.778729 0 CHG=1
M  V30 11 C 39.582522 27.473736 57.534418 0
M  V30 12 C 38.138340 30.876109 56.233348 0
M  V30 13 C 38.951768 25.233726 55.130841 0
M  V30 14 C 38.984740 26.096351 57.875172 0
M  V30 15 C 38.538003 28.556984 57.200719 0
M  V30 16 C 40.004637 28.237880 51.268243 0
M  V30 17 H 39.850203 30.332481 51.882083 0
M  V30 18 H 41.417867 29.855491 51.253360 0
M  V30 19 H 37.984052 32.931145 55.535199 0
M  V30 20 H 39.592000 32.231811 55.334721 0
M  V30 21 H 39.038149 32.733830 56.931286 0
M  V30 22 H 36.814199 28.534254 52.497463 0
M  V30 23 H 38.311746 29.013033 53.225621 0
M  V30 24 H 39.975522 29.759774 56.127617 0
M  V30 25 H 39.615595 30.347732 57.733537 0
M  V30 26 H 37.244691 26.137293 53.046931 0
M  V30 27 H 37.019631 27.189208 54.405243 0
M  V30 28 H 39.532284 27.299864 54.708692 0
M  V30 29 H 39.716848 26.189715 53.393558 0
M  V30 30 H 38.330577 26.901676 51.026069 0
M  V30 31 H 38.045159 28.537863 50.567856 0
M  V30 32 H 40.302316 31.227966 49.738789 0
M  V30 33 H 40.574170 29.737444 49.089982 0
M  V30 34 H 40.298851 27.368792 56.722238 0
M  V30 35 H 40.174705 27.808065 58.387313 0
M  V30 36 H 37.252589 30.938338 56.872167 0
M  V30 37 H 37.782681 30.475910 55.283554 0
M  V30 38 H 39.932484 24.937432 55.502676 0
M  V30 39 H 38.554538 24.390328 54.567883 0
M  V30 40 H 39.770535 25.352898 58.010963 0
M  V30 41 H 38.442362 26.158922 58.818108 0
M  V30 42 H 37.852148 28.680206 58.039536 0
M  V30 43 H 37.924624 28.245164 56.357725 0
M  V30 44 H 40.462052 27.842972 52.167741 0
M  V30 45 H 40.444911 27.693315 50.434398 0
M  V30 46 H 39.056426 30.154984 49.568873 0
M  V30 END ATOM
M  V30 BEGIN BOND
M  V30 1 2 4 1
M  V30 2 1 7 5
M  V30 3 1 8 7
M  V30 4 1 9 5
M  V30 5 1 10 2
M  V30 6 1 12 3
M  V30 7 1 12 6
M  V30 8 1 1 13 CFG=3
M  V30 9 1 13 8
M  V30 10 1 14 1
M  V30 11 1 14 11
M  V30 12 1 15 6
M  V30 13 1 15 11
M  V30 14 1 16 2
M  V30 15 1 16 9
M  V30 16 1 17 2
M  V30 17 1 18 2
M  V30 18 1 19 3
M  V30 19 1 20 3
M  V30 20 1 21 3
M  V30 21 1 22 5
M  V30 22 1 23 5
M  V30 23 1 24 6
M  V30 24 1 25 6
M  V30 25 1 26 7
M  V30 26 1 27 7
M  V30 27 1 28 8
M  V30 28 1 29 8
M  V30 29 1 30 9
M  V30 30 1 31 9
M  V30 31 1 32 10
M  V30 32 1 33 10
M  V30 33 1 34 11
M  V30 34 1 35 11
M  V30 35 1 36 12
M  V30 36 1 37 12
M  V30 37 1 38 13
M  V30 38 1 39 13
M  V30 39 1 40 14
M  V30 40 1 41 14
M  V30 41 1 42 15
M  V30 42 1 43 15
M  V30 43 1 44 16
M  V30 44 1 45 16
M  V30 45 1 46 10
M  V30 END BOND
M  V30 END CTAB
M  END
>  <i_epik_Tot_Q>  (1) 
1

>  <i_epik_Tot_abs_Q>  (1) 
1

>  <i_i_glide_confnum>  (1) 
749

>  <i_i_glide_lignum>  (1) 
22

>  <i_i_glide_posenum>  (1) 
263

>  <i_i_glide_rotatable_bonds>  (1) 
12

>  <i_lp_mmshare_version>  (1) 
72125

>  <i_m_source_file_index>  (1) 
12

>  <i_f3d_flags>  (1) 
0

>  <num_sample>  (1) 
50

>  <b_lp_Chiralities_Consistent>  (1) 
1

>  <r_epik_Charging_Adjusted_Penalty>  (1) 
0.00091305557232911701

>  <r_epik_Ionization_Penalty>  (1) 
0.00091305666875716605

>  <r_epik_Ionization_Penalty_Charging>  (1) 
0.00091305557232911701

>  <r_epik_Ionization_Penalty_Neutral>  (1) 
1.0964280490645846e-09

>  <r_epik_State_Penalty>  (1) 
-0

>  <r_glide_ring_energy>  (1) 
0

>  <r_i_docking_score>  (1) 
-1.5726727435370733

>  <r_i_glide_ecoul>  (1) 
-2.9487997326047255

>  <r_i_glide_eff_state_penalty>  (1) 
-0

>  <r_i_glide_einternal>  (1) 
8.5383067759195406

>  <r_i_glide_emodel>  (1) 
-32.172833235219493

>  <r_i_glide_emodel_strain>  (1) 
0.052135615302207228

>  <r_i_glide_energy>  (1) 
-32.462229548920483

>  <r_i_glide_erotb>  (1) 
5.6598403828958839

>  <r_i_glide_esite>  (1) 
0

>  <r_i_glide_evdw>  (1) 
-29.513429816315757

>  <r_i_glide_gscore>  (1) 
-1.5726727435370733

>  <r_i_glide_gscore_strain>  (1) 
0

>  <r_i_glide_hbond>  (1) 
0

>  <r_i_glide_ligand_efficiency>  (1) 
-0.098292046471067082

>  <r_i_glide_ligand_efficiency_ln>  (1) 
-0.41686832552565645

>  <r_i_glide_ligand_efficiency_sa>  (1) 
-0.24768043677228502

>  <r_i_glide_lipo>  (1) 
-2.7715906740044711

>  <r_i_glide_metal>  (1) 
-0

>  <r_i_glide_rewards>  (1) 
-2.5429310017219886

>  <r_lp_Energy>  (1) 
9.4463689999999989

>  <r_lp_tautomer_probability>  (1) 
1

>  <s_epik_cmdline>  (1) 
J2VwaWtfcHl0aG9uJywgJy1waHQnLCAnMS4wJywgJy1waCcsICc3LjQnLCAnLXRuJywgJzgnLCAnLW1hJywgJzUwMCcsICctaW1hZScsICc8aW5maWxlLm1hZT4nLCAnLW9tYWUnLCAnPG91dGZpbGUubWFlPic=

>  <s_epik_input>  (1) 
W0NIM11bQ0gyXVtDSDJdW0NIMl1bQ0gyXVtDSDJdW1NAXSg9TylbQ0gyXVtDSDJdW0NIMl1bQ0gyXVtDSDJdW0NIMl1bQ0gyXVtOSDJd

>  <s_glide_docking_method>  (1) 
confgen

>  <s_i_glide_gridfile>  (1) 
gpcr_5ht2c_6bqh_protein_autoprepared_prepared

>  <s_lp_Force_Field>  (1) 
S-OPLS

>  <s_lp_Variant>  (1) 
DiffSBDD_11-1

>  <s_m_source_file>  (1) 
generated_GPCR_5HT2C_ligand_DiffSBDD_2026-06-23_prepared.sdf

>  <GenAI_Model>  (1) 
DiffSBDD

>  <Protein>  (1) 
GPCR_5HT2C

$$$$
DiffSBDD_13
     RDKit          3D

  0  0  0  0  0  0  0  0  0  0999 V3000
M  V30 BEGIN CTAB
M  V30 COUNTS 81 82 0 0 1
M  V30 BEGIN ATOM
M  V30 1 N 40.445137 25.892409 57.148268 0
M  V30 2 C 37.391112 26.199322 56.251576 0 CFG=2
M  V30 3 O 36.412088 36.973999 59.686276 0
M  V30 4 C 39.308137 30.963219 53.511347 0
M  V30 5 C 36.845132 25.004898 54.016884 0
M  V30 6 C 35.645518 29.578175 59.129158 0
M  V30 7 C 39.981047 33.796505 62.665522 0
M  V30 8 C 38.167067 28.534161 56.852398 0
M  V30 9 C 38.716449 26.910735 51.443331 0
M  V30 10 O 36.445018 28.995836 58.166934 0
M  V30 11 C 37.826194 28.935556 58.301234 0 CFG=2
M  V30 12 N 38.512169 27.111449 56.677048 0 CFG=1 CHG=1
M  V30 13 O 38.242026 37.078627 61.111149 0
M  V30 14 C 39.467897 27.948143 50.565587 0
M  V30 15 C 38.744433 28.785245 52.681187 0
M  V30 16 C 38.097140 33.989502 61.191642 0 CFG=1
M  V30 17 C 38.651139 29.744696 53.680459 0
M  V30 18 C 37.370342 24.704419 56.695362 0
M  V30 19 C 38.082265 27.484903 52.776300 0 CFG=2
M  V30 20 C 38.892329 30.283608 60.232363 0
M  V30 21 C 38.260148 31.416610 61.038982 0
M  V30 22 C 39.464735 26.725014 57.726845 0
M  V30 23 C 37.082424 36.368878 60.758689 0
M  V30 24 C 38.488064 32.765000 60.357250 0
M  V30 25 O 38.391863 26.804975 54.013497 0
M  V30 26 C 37.229405 26.326433 54.701532 0 CFG=2
M  V30 27 C 37.245102 24.350437 58.163360 0
M  V30 28 C 40.117682 30.217997 51.337973 0
M  V30 29 F 39.226585 31.911059 54.470006 0
M  V30 30 O 39.258067 34.600680 61.748483 0
M  V30 31 C 39.457409 29.017138 51.544343 0
M  V30 32 C 37.417345 34.977207 60.239718 0
M  V30 33 C 40.044128 31.201238 52.324735 0
M  V30 34 O 40.045124 24.549304 57.367777 0
M  V30 35 C 38.484379 30.247258 58.735550 0
M  V30 36 H 40.649511 25.944136 56.158983 0
M  V30 37 H 36.483312 26.537748 56.739606 0
M  V30 38 H 36.053371 36.296665 59.129111 0
M  V30 39 H 35.936711 24.537756 54.391876 0
M  V30 40 H 36.642195 25.173264 52.968124 0
M  V30 41 H 37.635042 24.270782 54.167755 0
M  V30 42 H 34.788011 28.937546 58.967758 0
M  V30 43 H 36.044431 29.488904 60.132031 0
M  V30 44 H 35.383019 30.614110 58.919969 0
M  V30 45 H 40.696692 34.410574 63.211382 0
M  V30 46 H 39.311252 33.321850 63.378406 0
M  V30 47 H 40.541464 33.016224 62.149365 0
M  V30 48 H 39.029897 29.099455 56.501784 0
M  V30 49 H 37.341430 28.802179 56.199895 0
M  V30 50 H 39.435525 26.137792 51.693348 0
M  V30 51 H 37.961718 26.537750 50.777738 0
M  V30 52 H 38.045432 28.170742 59.038624 0
M  V30 53 H 38.988913 36.528831 60.914753 0
M  V30 54 H 38.869456 28.261652 49.715144 0
M  V30 55 H 40.445133 27.609525 50.241384 0
M  V30 56 H 37.382800 33.716037 61.968094 0
M  V30 57 H 38.075768 29.559950 54.554651 0
M  V30 58 H 36.439686 24.261501 56.350130 0
M  V30 59 H 38.111981 24.089869 56.189446 0
M  V30 60 H 37.017703 27.679026 52.621828 0
M  V30 61 H 38.690941 29.335841 60.732896 0
M  V30 62 H 39.975613 30.394372 60.289777 0
M  V30 63 H 37.192410 31.249349 61.167533 0
M  V30 64 H 38.693535 31.411737 62.038236 0
M  V30 65 H 39.044504 26.360547 58.655583 0
M  V30 66 H 40.045794 27.603901 58.010846 0
M  V30 67 H 36.445145 36.309861 61.636571 0
M  V30 68 H 39.515460 32.862979 60.005932 0
M  V30 69 H 37.883493 32.782282 59.453649 0
M  V30 70 H 36.445153 27.070891 54.567359 0
M  V30 71 H 37.246723 23.259263 58.173704 0
M  V30 72 H 38.039552 24.666655 58.821216 0
M  V30 73 H 36.312485 24.743172 58.564149 0
M  V30 74 H 40.668953 30.393826 50.425983 0
M  V30 75 H 38.045185 35.078914 59.367143 0
M  V30 76 H 36.492683 34.513693 59.886985 0
M  V30 77 H 40.521514 32.137719 52.167762 0
M  V30 78 H 39.156073 24.535574 57.045130 0
M  V30 79 H 39.395648 30.412889 58.163565 0
M  V30 80 H 37.822057 31.048271 58.420709 0
M  V30 81 H 39.070621 27.138862 55.833165 0
M  V30 END ATOM
M  V30 BEGIN BOND
M  V30 1 1 10 6
M  V30 2 1 11 8
M  V30 3 1 11 10
M  V30 4 1 12 2
M  V30 5 1 12 8
M  V30 6 1 14 9
M  V30 7 2 17 4
M  V30 8 1 17 15
M  V30 9 1 18 2
M  V30 10 1 19 9
M  V30 11 1 19 15
M  V30 12 1 21 20
M  V30 13 1 22 1
M  V30 14 1 22 12
M  V30 15 1 23 3
M  V30 16 1 23 13
M  V30 17 1 24 16
M  V30 18 1 24 21
M  V30 19 1 25 19
M  V30 20 1 26 2
M  V30 21 1 26 5
M  V30 22 1 26 25
M  V30 23 1 27 18
M  V30 24 1 29 4
M  V30 25 1 30 7
M  V30 26 1 30 16
M  V30 27 1 31 14
M  V30 28 2 31 15
M  V30 29 1 31 28
M  V30 30 1 32 16
M  V30 31 1 32 23
M  V30 32 1 33 4
M  V30 33 2 33 28
M  V30 34 1 34 1
M  V30 35 1 35 11
M  V30 36 1 35 20
M  V30 37 1 36 1
M  V30 38 1 2 37 CFG=1
M  V30 39 1 38 3
M  V30 40 1 39 5
M  V30 41 1 40 5
M  V30 42 1 41 5
M  V30 43 1 42 6
M  V30 44 1 43 6
M  V30 45 1 44 6
M  V30 46 1 45 7
M  V30 47 1 46 7
M  V30 48 1 47 7
M  V30 49 1 48 8
M  V30 50 1 49 8
M  V30 51 1 50 9
M  V30 52 1 51 9
M  V30 53 1 11 52 CFG=1
M  V30 54 1 53 13
M  V30 55 1 54 14
M  V30 56 1 55 14
M  V30 57 1 16 56 CFG=1
M  V30 58 1 57 17
M  V30 59 1 58 18
M  V30 60 1 59 18
M  V30 61 1 19 60 CFG=3
M  V30 62 1 61 20
M  V30 63 1 62 20
M  V30 64 1 63 21
M  V30 65 1 64 21
M  V30 66 1 65 22
M  V30 67 1 66 22
M  V30 68 1 67 23
M  V30 69 1 68 24
M  V30 70 1 69 24
M  V30 71 1 26 70 CFG=1
M  V30 72 1 71 27
M  V30 73 1 72 27
M  V30 74 1 73 27
M  V30 75 1 74 28
M  V30 76 1 75 32
M  V30 77 1 76 32
M  V30 78 1 77 33
M  V30 79 1 78 34
M  V30 80 1 79 35
M  V30 81 1 80 35
M  V30 82 1 12 81 CFG=3
M  V30 END BOND
M  V30 END CTAB
M  END
>  <i_epik_Tot_Q>  (1) 
1

>  <i_epik_Tot_abs_Q>  (1) 
1

>  <i_i_glide_confnum>  (1) 
8177

>  <i_i_glide_lignum>  (1) 
24

>  <i_i_glide_posenum>  (1) 
58

>  <i_i_glide_rotatable_bonds>  (1) 
21

>  <i_lp_mmshare_version>  (1) 
72125

>  <i_m_source_file_index>  (1) 
14

>  <i_f3d_flags>  (1) 
0

>  <num_sample>  (1) 
50

>  <b_lp_Chiralities_Consistent>  (1) 
1

>  <r_epik_Charging_Adjusted_Penalty>  (1) 
0.45110583801900384

>  <r_epik_Ionization_Penalty>  (1) 
0.22670498176529164

>  <r_epik_Ionization_Penalty_Charging>  (1) 
0.22555291900950195

>  <r_epik_Ionization_Penalty_Neutral>  (1) 
0.001152062755789702

>  <r_epik_State_Penalty>  (1) 
0.22555291900950192

>  <r_glide_ring_energy>  (1) 
0

>  <r_i_docking_score>  (1) 
-1.3165585356234839

>  <r_i_glide_ecoul>  (1) 
-2.6729913993661674

>  <r_i_glide_eff_state_penalty>  (1) 
0.22555291900950192

>  <r_i_glide_einternal>  (1) 
48.284406169537363

>  <r_i_glide_emodel>  (1) 
26.062935280553383

>  <r_i_glide_emodel_strain>  (1) 
18.019141970560028

>  <r_i_glide_energy>  (1) 
-11.261975800758066

>  <r_i_glide_erotb>  (1) 
1.1363863637419909

>  <r_i_glide_esite>  (1) 
0

>  <r_i_glide_evdw>  (1) 
-8.5889844013918974

>  <r_i_glide_gscore>  (1) 
-1.5421114546329857

>  <r_i_glide_gscore_strain>  (1) 
3.504785492640007

>  <r_i_glide_hbond>  (1) 
0

>  <r_i_glide_ligand_efficiency>  (1) 
-0.037615958160670968

>  <r_i_glide_ligand_efficiency_ln>  (1) 
-0.28901381801175097

>  <r_i_glide_ligand_efficiency_sa>  (1) 
-0.12304429346483438

>  <r_i_glide_lipo>  (1) 
-4.1842609257579442

>  <r_i_glide_metal>  (1) 
-0

>  <r_i_glide_rewards>  (1) 
-1.1686244552825202

>  <r_lp_Energy>  (1) 
19.389523000000001

>  <s_epik_Chemistry_Notes>  (1) 
This compound contains an acetal/aminal-like group ( X-CH(R)-Y where X, Y are N, S, or O) that may be acid/base labile, releasing an aldehyde. This compound has a N-S or N-O group and may undergo hydrolysis at high or low pH.

>  <s_epik_cmdline>  (1) 
J2VwaWtfcHl0aG9uJywgJy1waHQnLCAnMS4wJywgJy1waCcsICc3LjQnLCAnLXRuJywgJzgnLCAnLW1hJywgJzUwMCcsICctaW1hZScsICc8aW5maWxlLm1hZT4nLCAnLW9tYWUnLCAnPG91dGZpbGUubWFlPic=

>  <s_epik_input>  (1) 
W09IXVtDSF0oW09IXSlbQ0gyXVtDQEhdKE9bQ0gzXSlbQ0gyXVtDSDJdW0NIMl1bQ0gyXVtDQEBIXShPW0NIM10pW0NIMl1OKFtDSDJdW05IXVtPSF0pW0NASF0oW0NIMl1bQ0gzXSlbQ0BIXShbQ0gzXSlPW0NAQEhdMVtDSDJdW0NIMl1jKGMxMilbY0hdW2NIXWMoRilbY0hdMg==

>  <s_glide_docking_method>  (1) 
confgen

>  <s_i_glide_gridfile>  (1) 
gpcr_5ht2c_6bqh_protein_autoprepared_prepared

>  <s_lp_Force_Field>  (1) 
S-OPLS

>  <s_lp_Variant>  (1) 
DiffSBDD_13-1

>  <s_m_source_file>  (1) 
generated_GPCR_5HT2C_ligand_DiffSBDD_2026-06-23_prepared.sdf

>  <GenAI_Model>  (1) 
DiffSBDD

>  <Protein>  (1) 
GPCR_5HT2C

$$$$
DiffSBDD_11
     RDKit          3D

  0  0  0  0  0  0  0  0  0  0999 V3000
M  V30 BEGIN CTAB
M  V30 COUNTS 46 45 0 0 1
M  V30 BEGIN ATOM
M  V30 1 S 37.645136 27.796872 54.199027 0
M  V30 2 C 36.977535 31.986329 59.920012 0
M  V30 3 C 40.741930 30.656982 49.750642 0
M  V30 4 O 36.845137 28.488106 53.095387 0
M  V30 5 C 38.347285 31.482316 57.156790 0
M  V30 6 C 40.299302 29.283053 51.840154 0
M  V30 7 C 38.504189 31.640045 55.635509 0
M  V30 8 C 37.914259 30.466424 54.840701 0
M  V30 9 C 38.370551 32.832235 57.887393 0
M  V30 10 N 35.729014 32.539141 59.367760 0 CHG=1
M  V30 11 C 39.008630 27.034353 51.889069 0
M  V30 12 C 40.445708 30.682458 51.239997 0
M  V30 13 C 38.512787 29.098415 55.204187 0
M  V30 14 C 39.096458 26.937768 53.430913 0
M  V30 15 C 39.183337 28.422595 51.237476 0
M  V30 16 C 38.227821 32.733159 59.417341 0
M  V30 17 H 37.031925 30.924127 59.678615 0
M  V30 18 H 36.932552 32.055846 61.007345 0
M  V30 19 H 40.823242 31.670857 49.367760 0
M  V30 20 H 39.943145 30.167121 49.194710 0
M  V30 21 H 41.673962 30.137753 49.535074 0
M  V30 22 H 37.405073 30.974361 57.362420 0
M  V30 23 H 39.134267 30.832905 57.541682 0
M  V30 24 H 41.245131 28.749208 51.767759 0
M  V30 25 H 40.075853 29.431127 52.892472 0
M  V30 26 H 39.556036 31.781349 55.383830 0
M  V30 27 H 37.990469 32.546032 55.308888 0
M  V30 28 H 38.063726 30.658066 53.777436 0
M  V30 29 H 36.833913 30.443194 54.993981 0
M  V30 30 H 39.308072 33.337755 57.657581 0
M  V30 31 H 37.581331 33.471478 57.488108 0
M  V30 32 H 34.933036 32.156553 59.854643 0
M  V30 33 H 35.722103 33.545466 59.439823 0
M  V30 34 H 38.045137 26.659107 51.562254 0
M  V30 35 H 39.728804 26.346480 51.457605 0
M  V30 36 H 41.244876 31.219910 51.747059 0
M  V30 37 H 39.558840 31.276246 51.426401 0
M  V30 38 H 38.351686 28.865944 56.256466 0
M  V30 39 H 39.589004 29.090990 55.041949 0
M  V30 40 H 39.037858 25.903011 53.767744 0
M  V30 41 H 40.041398 27.301241 53.822512 0
M  V30 42 H 38.251674 28.980138 51.285016 0
M  V30 43 H 39.362885 28.261698 50.174792 0
M  V30 44 H 39.113759 32.244936 59.825201 0
M  V30 45 H 38.232456 33.742893 59.830114 0
M  V30 46 H 35.645135 32.271349 58.373628 0
M  V30 END ATOM
M  V30 BEGIN BOND
M  V30 1 2 4 1
M  V30 2 1 7 5
M  V30 3 1 8 7
M  V30 4 1 9 5
M  V30 5 1 10 2
M  V30 6 1 12 3
M  V30 7 1 12 6
M  V30 8 1 1 13 CFG=1
M  V30 9 1 13 8
M  V30 10 1 14 1
M  V30 11 1 14 11
M  V30 12 1 15 6
M  V30 13 1 15 11
M  V30 14 1 16 2
M  V30 15 1 16 9
M  V30 16 1 17 2
M  V30 17 1 18 2
M  V30 18 1 19 3
M  V30 19 1 20 3
M  V30 20 1 21 3
M  V30 21 1 22 5
M  V30 22 1 23 5
M  V30 23 1 24 6
M  V30 24 1 25 6
M  V30 25 1 26 7
M  V30 26 1 27 7
M  V30 27 1 28 8
M  V30 28 1 29 8
M  V30 29 1 30 9
M  V30 30 1 31 9
M  V30 31 1 32 10
M  V30 32 1 33 10
M  V30 33 1 34 11
M  V30 34 1 35 11
M  V30 35 1 36 12
M  V30 36 1 37 12
M  V30 37 1 38 13
M  V30 38 1 39 13
M  V30 39 1 40 14
M  V30 40 1 41 14
M  V30 41 1 42 15
M  V30 42 1 43 15
M  V30 43 1 44 16
M  V30 44 1 45 16
M  V30 45 1 46 10
M  V30 END BOND
M  V30 END CTAB
M  END
>  <i_epik_Tot_Q>  (1) 
1

>  <i_epik_Tot_abs_Q>  (1) 
1

>  <i_i_glide_confnum>  (1) 
920

>  <i_i_glide_lignum>  (1) 
22

>  <i_i_glide_posenum>  (1) 
76

>  <i_i_glide_rotatable_bonds>  (1) 
12

>  <i_lp_mmshare_version>  (1) 
72125

>  <i_m_source_file_index>  (1) 
12

>  <i_f3d_flags>  (1) 
0

>  <num_sample>  (1) 
50

>  <b_lp_Chiralities_Consistent>  (1) 
1

>  <r_epik_Charging_Adjusted_Penalty>  (1) 
0.00091305557232911701

>  <r_epik_Ionization_Penalty>  (1) 
0.00091305666875716605

>  <r_epik_Ionization_Penalty_Charging>  (1) 
0.00091305557232911701

>  <r_epik_Ionization_Penalty_Neutral>  (1) 
1.0964280490645846e-09

>  <r_epik_State_Penalty>  (1) 
-0

>  <r_glide_ring_energy>  (1) 
0

>  <r_i_docking_score>  (1) 
-1.2661392279135906

>  <r_i_glide_ecoul>  (1) 
-6.1718539621161446

>  <r_i_glide_eff_state_penalty>  (1) 
-0

>  <r_i_glide_einternal>  (1) 
10.222637796546675

>  <r_i_glide_emodel>  (1) 
-25.76926948602588

>  <r_i_glide_emodel_strain>  (1) 
2.9140909311235568

>  <r_i_glide_energy>  (1) 
-30.548652754607744

>  <r_i_glide_erotb>  (1) 
5.6598403828958839

>  <r_i_glide_esite>  (1) 
-0.10000000000000001

>  <r_i_glide_evdw>  (1) 
-24.376798792491599

>  <r_i_glide_gscore>  (1) 
-1.2661392279135906

>  <r_i_glide_gscore_strain>  (1) 
0

>  <r_i_glide_hbond>  (1) 
-0.19706136898148835

>  <r_i_glide_ligand_efficiency>  (1) 
-0.079133701744599411

>  <r_i_glide_ligand_efficiency_ln>  (1) 
-0.33561549406368507

>  <r_i_glide_ligand_efficiency_sa>  (1) 
-0.19940443316824691

>  <r_i_glide_lipo>  (1) 
-1.8174526027593372

>  <r_i_glide_metal>  (1) 
-0

>  <r_i_glide_rewards>  (1) 
-2.6668476051266463

>  <r_lp_Energy>  (1) 
9.4463689999999989

>  <r_lp_tautomer_probability>  (1) 
1

>  <s_epik_cmdline>  (1) 
J2VwaWtfcHl0aG9uJywgJy1waHQnLCAnMS4wJywgJy1waCcsICc3LjQnLCAnLXRuJywgJzgnLCAnLW1hJywgJzUwMCcsICctaW1hZScsICc8aW5maWxlLm1hZT4nLCAnLW9tYWUnLCAnPG91dGZpbGUubWFlPic=

>  <s_epik_input>  (1) 
W0NIM11bQ0gyXVtDSDJdW0NIMl1bQ0gyXVtDSDJdW1NAXSg9TylbQ0gyXVtDSDJdW0NIMl1bQ0gyXVtDSDJdW0NIMl1bQ0gyXVtOSDJd

>  <s_glide_docking_method>  (1) 
confgen

>  <s_i_glide_gridfile>  (1) 
gpcr_5ht2c_6bqh_protein_autoprepared_prepared

>  <s_lp_Force_Field>  (1) 
S-OPLS

>  <s_lp_Variant>  (1) 
DiffSBDD_11-1

>  <s_m_source_file>  (1) 
generated_GPCR_5HT2C_ligand_DiffSBDD_2026-06-23_prepared.sdf

>  <GenAI_Model>  (1) 
DiffSBDD

>  <Protein>  (1) 
GPCR_5HT2C

$$$$
DiffSBDD_11
     RDKit          3D

  0  0  0  0  0  0  0  0  0  0999 V3000
M  V30 BEGIN CTAB
M  V30 COUNTS 46 45 0 0 1
M  V30 BEGIN ATOM
M  V30 1 S 38.311773 29.313797 56.263149 0
M  V30 2 C 35.481986 34.072828 59.631959 0
M  V30 3 C 40.646212 30.137862 49.767764 0
M  V30 4 O 39.645133 30.048430 56.413323 0
M  V30 5 C 36.809733 30.952560 60.227075 0
M  V30 6 C 39.357583 28.425400 51.153424 0
M  V30 7 C 36.740286 29.862036 59.149757 0
M  V30 8 C 38.070249 29.103117 58.999263 0
M  V30 9 C 35.452893 31.639848 60.465941 0
M  V30 10 N 36.445132 33.737758 58.567758 0 CHG=1
M  V30 11 C 38.814665 28.685871 53.654095 0
M  V30 12 C 40.514569 29.438050 51.122736 0
M  V30 13 C 38.133364 28.213135 57.748308 0
M  V30 14 C 38.569039 27.984263 54.995132 0
M  V30 15 C 39.155837 27.719564 52.506677 0
M  V30 16 C 35.577971 33.125413 60.842349 0
M  V30 17 H 34.476372 34.049153 59.209503 0
M  V30 18 H 35.662007 35.097847 59.956129 0
M  V30 19 H 41.468550 30.854561 49.775518 0
M  V30 20 H 39.734219 30.682843 49.520861 0
M  V30 21 H 40.834390 29.422072 48.967784 0
M  V30 22 H 37.174090 30.537933 61.166981 0
M  V30 23 H 37.561409 31.680419 59.922441 0
M  V30 24 H 38.439919 28.937754 50.878900 0
M  V30 25 H 39.519988 27.669492 50.384073 0
M  V30 26 H 36.476704 30.329363 58.201511 0
M  V30 27 H 35.928790 29.168495 59.367875 0
M  V30 28 H 38.229421 28.488699 59.885216 0
M  V30 29 H 38.903628 29.806908 58.975532 0
M  V30 30 H 34.822801 31.551095 59.579679 0
M  V30 31 H 34.928257 31.104836 61.259124 0
M  V30 32 H 36.470595 34.489738 57.891761 0
M  V30 33 H 37.367749 33.589824 58.945911 0
M  V30 34 H 39.631657 29.393834 53.791476 0
M  V30 35 H 37.937316 29.276119 53.386813 0
M  V30 36 H 41.449748 28.937082 51.367760 0
M  V30 37 H 40.369068 30.207595 51.879509 0
M  V30 38 H 37.248098 27.583560 57.656041 0
M  V30 39 H 39.002963 27.557976 57.803159 0
M  V30 40 H 37.694059 27.335211 54.951052 0
M  V30 41 H 39.430653 27.378113 55.278124 0
M  V30 42 H 38.347516 26.994192 52.401759 0
M  V30 43 H 40.045134 27.140836 52.755299 0
M  V30 44 H 34.769236 33.381931 61.528407 0
M  V30 45 H 36.499258 33.300097 61.400151 0
M  V30 46 H 36.131022 32.895179 58.075865 0
M  V30 END ATOM
M  V30 BEGIN BOND
M  V30 1 2 4 1
M  V30 2 1 7 5
M  V30 3 1 8 7
M  V30 4 1 9 5
M  V30 5 1 10 2
M  V30 6 1 12 3
M  V30 7 1 12 6
M  V30 8 1 1 13 CFG=1
M  V30 9 1 13 8
M  V30 10 1 14 1
M  V30 11 1 14 11
M  V30 12 1 15 6
M  V30 13 1 15 11
M  V30 14 1 16 2
M  V30 15 1 16 9
M  V30 16 1 17 2
M  V30 17 1 18 2
M  V30 18 1 19 3
M  V30 19 1 20 3
M  V30 20 1 21 3
M  V30 21 1 22 5
M  V30 22 1 23 5
M  V30 23 1 24 6
M  V30 24 1 25 6
M  V30 25 1 26 7
M  V30 26 1 27 7
M  V30 27 1 28 8
M  V30 28 1 29 8
M  V30 29 1 30 9
M  V30 30 1 31 9
M  V30 31 1 32 10
M  V30 32 1 33 10
M  V30 33 1 34 11
M  V30 34 1 35 11
M  V30 35 1 36 12
M  V30 36 1 37 12
M  V30 37 1 38 13
M  V30 38 1 39 13
M  V30 39 1 40 14
M  V30 40 1 41 14
M  V30 41 1 42 15
M  V30 42 1 43 15
M  V30 43 1 44 16
M  V30 44 1 45 16
M  V30 45 1 46 10
M  V30 END BOND
M  V30 END CTAB
M  END
>  <i_epik_Tot_Q>  (1) 
1

>  <i_epik_Tot_abs_Q>  (1) 
1

>  <i_i_glide_confnum>  (1) 
724

>  <i_i_glide_lignum>  (1) 
22

>  <i_i_glide_posenum>  (1) 
371

>  <i_i_glide_rotatable_bonds>  (1) 
12

>  <i_lp_mmshare_version>  (1) 
72125

>  <i_m_source_file_index>  (1) 
12

>  <i_f3d_flags>  (1) 
0

>  <num_sample>  (1) 
50

>  <b_lp_Chiralities_Consistent>  (1) 
1

>  <r_epik_Charging_Adjusted_Penalty>  (1) 
0.00091305557232911701

>  <r_epik_Ionization_Penalty>  (1) 
0.00091305666875716605

>  <r_epik_Ionization_Penalty_Charging>  (1) 
0.00091305557232911701

>  <r_epik_Ionization_Penalty_Neutral>  (1) 
1.0964280490645846e-09

>  <r_epik_State_Penalty>  (1) 
-0

>  <r_glide_ring_energy>  (1) 
0

>  <r_i_docking_score>  (1) 
-1.0788654093262611

>  <r_i_glide_ecoul>  (1) 
-4.6753588629694027

>  <r_i_glide_eff_state_penalty>  (1) 
-0

>  <r_i_glide_einternal>  (1) 
13.501145975923112

>  <r_i_glide_emodel>  (1) 
-28.234063285623918

>  <r_i_glide_emodel_strain>  (1) 
0.88129987894925765

>  <r_i_glide_energy>  (1) 
-33.100027240614793

>  <r_i_glide_erotb>  (1) 
5.6598403828958839

>  <r_i_glide_esite>  (1) 
-0.07843541284791497

>  <r_i_glide_evdw>  (1) 
-28.424668377645393

>  <r_i_glide_gscore>  (1) 
-1.0788654093262611

>  <r_i_glide_gscore_strain>  (1) 
0

>  <r_i_glide_hbond>  (1) 
-0.20000000000000001

>  <r_i_glide_ligand_efficiency>  (1) 
-0.067429088082891317

>  <r_i_glide_ligand_efficiency_ln>  (1) 
-0.28597482756767084

>  <r_i_glide_ligand_efficiency_sa>  (1) 
-0.16991065490170063

>  <r_i_glide_lipo>  (1) 
-2.1998746346069082

>  <r_i_glide_metal>  (1) 
-0

>  <r_i_glide_rewards>  (1) 
-2.1378584964396414

>  <r_lp_Energy>  (1) 
9.4463689999999989

>  <r_lp_tautomer_probability>  (1) 
1

>  <s_epik_cmdline>  (1) 
J2VwaWtfcHl0aG9uJywgJy1waHQnLCAnMS4wJywgJy1waCcsICc3LjQnLCAnLXRuJywgJzgnLCAnLW1hJywgJzUwMCcsICctaW1hZScsICc8aW5maWxlLm1hZT4nLCAnLW9tYWUnLCAnPG91dGZpbGUubWFlPic=

>  <s_epik_input>  (1) 
W0NIM11bQ0gyXVtDSDJdW0NIMl1bQ0gyXVtDSDJdW1NAXSg9TylbQ0gyXVtDSDJdW0NIMl1bQ0gyXVtDSDJdW0NIMl1bQ0gyXVtOSDJd

>  <s_glide_docking_method>  (1) 
confgen

>  <s_i_glide_gridfile>  (1) 
gpcr_5ht2c_6bqh_protein_autoprepared_prepared

>  <s_lp_Force_Field>  (1) 
S-OPLS

>  <s_lp_Variant>  (1) 
DiffSBDD_11-1

>  <s_m_source_file>  (1) 
generated_GPCR_5HT2C_ligand_DiffSBDD_2026-06-23_prepared.sdf

>  <GenAI_Model>  (1) 
DiffSBDD

>  <Protein>  (1) 
GPCR_5HT2C

$$$$
DiffSBDD_11
     RDKit          3D

  0  0  0  0  0  0  0  0  0  0999 V3000
M  V30 BEGIN CTAB
M  V30 COUNTS 46 45 0 0 1
M  V30 BEGIN ATOM
M  V30 1 S 38.289282 29.668946 55.826285 0
M  V30 2 C 35.658989 33.821509 59.496201 0
M  V30 3 C 40.658972 30.053892 49.688065 0
M  V30 4 O 39.736421 30.152598 55.748992 0
M  V30 5 C 38.368171 31.972273 59.831084 0
M  V30 6 C 39.337613 28.295911 50.981218 0
M  V30 7 C 38.262564 31.225337 58.491994 0
M  V30 8 C 38.685017 29.748410 58.572462 0
M  V30 9 C 38.249449 33.504172 59.708258 0
M  V30 10 N 35.220112 32.419904 59.367798 0 CHG=1
M  V30 11 C 38.306104 28.670447 53.295783 0
M  V30 12 C 40.455544 29.351748 51.034174 0
M  V30 13 C 38.074828 28.850278 57.478676 0
M  V30 14 C 38.182053 28.170807 54.741358 0
M  V30 15 C 38.987321 27.670578 52.343147 0
M  V30 16 C 37.056872 34.055786 58.894795 0
M  V30 17 H 35.626828 34.123146 60.544438 0
M  V30 18 H 34.932185 34.443350 58.971899 0
M  V30 19 H 41.505648 30.739190 49.728987 0
M  V30 20 H 39.773705 30.629810 49.414371 0
M  V30 21 H 40.844992 29.339369 48.888657 0
M  V30 22 H 37.623518 31.586753 60.525771 0
M  V30 23 H 39.332338 31.746462 60.286839 0
M  V30 24 H 38.445150 28.747519 50.561067 0
M  V30 25 H 39.626978 27.501283 50.292338 0
M  V30 26 H 38.862788 31.741161 57.740981 0
M  V30 27 H 37.242570 31.279292 58.128175 0
M  V30 28 H 38.400900 29.331647 59.538356 0
M  V30 29 H 39.771470 29.685977 58.531047 0
M  V30 30 H 38.237900 33.938609 60.708710 0
M  V30 31 H 39.167707 33.869107 59.247132 0
M  V30 32 H 34.272165 32.323049 59.698158 0
M  V30 33 H 35.246968 32.137068 58.369881 0
M  V30 34 H 38.895014 29.583237 53.306967 0
M  V30 35 H 37.321368 28.951181 52.913410 0
M  V30 36 H 41.381398 28.884751 51.368342 0
M  V30 37 H 40.239544 30.126739 51.768693 0
M  V30 38 H 37.012196 28.677489 57.656578 0
M  V30 39 H 38.572752 27.878893 57.481585 0
M  V30 40 H 37.252107 27.628496 54.896092 0
M  V30 41 H 39.000716 27.500028 54.992378 0
M  V30 42 H 38.312311 26.827453 52.190285 0
M  V30 43 H 39.894358 27.265165 52.796122 0
M  V30 44 H 37.207416 35.133221 58.818250 0
M  V30 45 H 37.092097 33.696046 57.865283 0
M  V30 46 H 35.839402 31.817821 59.892212 0
M  V30 END ATOM
M  V30 BEGIN BOND
M  V30 1 2 4 1
M  V30 2 1 7 5
M  V30 3 1 8 7
M  V30 4 1 9 5
M  V30 5 1 10 2
M  V30 6 1 12 3
M  V30 7 1 12 6
M  V30 8 1 1 13 CFG=1
M  V30 9 1 13 8
M  V30 10 1 14 1
M  V30 11 1 14 11
M  V30 12 1 15 6
M  V30 13 1 15 11
M  V30 14 1 16 2
M  V30 15 1 16 9
M  V30 16 1 17 2
M  V30 17 1 18 2
M  V30 18 1 19 3
M  V30 19 1 20 3
M  V30 20 1 21 3
M  V30 21 1 22 5
M  V30 22 1 23 5
M  V30 23 1 24 6
M  V30 24 1 25 6
M  V30 25 1 26 7
M  V30 26 1 27 7
M  V30 27 1 28 8
M  V30 28 1 29 8
M  V30 29 1 30 9
M  V30 30 1 31 9
M  V30 31 1 32 10
M  V30 32 1 33 10
M  V30 33 1 34 11
M  V30 34 1 35 11
M  V30 35 1 36 12
M  V30 36 1 37 12
M  V30 37 1 38 13
M  V30 38 1 39 13
M  V30 39 1 40 14
M  V30 40 1 41 14
M  V30 41 1 42 15
M  V30 42 1 43 15
M  V30 43 1 44 16
M  V30 44 1 45 16
M  V30 45 1 46 10
M  V30 END BOND
M  V30 END CTAB
M  END
>  <i_epik_Tot_Q>  (1) 
1

>  <i_epik_Tot_abs_Q>  (1) 
1

>  <i_i_glide_confnum>  (1) 
724

>  <i_i_glide_lignum>  (1) 
22

>  <i_i_glide_posenum>  (1) 
371

>  <i_i_glide_rotatable_bonds>  (1) 
12

>  <i_lp_mmshare_version>  (1) 
72125

>  <i_m_source_file_index>  (1) 
12

>  <i_f3d_flags>  (1) 
0

>  <num_sample>  (1) 
50

>  <b_lp_Chiralities_Consistent>  (1) 
1

>  <r_epik_Charging_Adjusted_Penalty>  (1) 
0.00091305557232911701

>  <r_epik_Ionization_Penalty>  (1) 
0.00091305666875716605

>  <r_epik_Ionization_Penalty_Charging>  (1) 
0.00091305557232911701

>  <r_epik_Ionization_Penalty_Neutral>  (1) 
1.0964280490645846e-09

>  <r_epik_State_Penalty>  (1) 
-0

>  <r_glide_ring_energy>  (1) 
0

>  <r_i_docking_score>  (1) 
-1.0419872643207346

>  <r_i_glide_ecoul>  (1) 
-7.6949231449948883

>  <r_i_glide_eff_state_penalty>  (1) 
-0

>  <r_i_glide_einternal>  (1) 
8.421749572611219

>  <r_i_glide_emodel>  (1) 
-30.305643869064951

>  <r_i_glide_emodel_strain>  (1) 
1.5849798232264067

>  <r_i_glide_energy>  (1) 
-33.430134807486596

>  <r_i_glide_erotb>  (1) 
5.6598403828958839

>  <r_i_glide_esite>  (1) 
-0.11183941175635335

>  <r_i_glide_evdw>  (1) 
-25.735211662491711

>  <r_i_glide_gscore>  (1) 
-1.0419872643207346

>  <r_i_glide_gscore_strain>  (1) 
0

>  <r_i_glide_hbond>  (1) 
-0.1583790426319775

>  <r_i_glide_ligand_efficiency>  (1) 
-0.065124204020045914

>  <r_i_glide_ligand_efficiency_ln>  (1) 
-0.27619953857628776

>  <r_i_glide_ligand_efficiency_sa>  (1) 
-0.16410271100500834

>  <r_i_glide_lipo>  (1) 
-1.8824948247899216

>  <r_i_glide_metal>  (1) 
-0

>  <r_i_glide_rewards>  (1) 
-2.1081153131645478

>  <r_lp_Energy>  (1) 
9.4463689999999989

>  <r_lp_tautomer_probability>  (1) 
1

>  <s_epik_cmdline>  (1) 
J2VwaWtfcHl0aG9uJywgJy1waHQnLCAnMS4wJywgJy1waCcsICc3LjQnLCAnLXRuJywgJzgnLCAnLW1hJywgJzUwMCcsICctaW1hZScsICc8aW5maWxlLm1hZT4nLCAnLW9tYWUnLCAnPG91dGZpbGUubWFlPic=

>  <s_epik_input>  (1) 
W0NIM11bQ0gyXVtDSDJdW0NIMl1bQ0gyXVtDSDJdW1NAXSg9TylbQ0gyXVtDSDJdW0NIMl1bQ0gyXVtDSDJdW0NIMl1bQ0gyXVtOSDJd

>  <s_glide_docking_method>  (1) 
confgen

>  <s_i_glide_gridfile>  (1) 
gpcr_5ht2c_6bqh_protein_autoprepared_prepared

>  <s_lp_Force_Field>  (1) 
S-OPLS

>  <s_lp_Variant>  (1) 
DiffSBDD_11-1

>  <s_m_source_file>  (1) 
generated_GPCR_5HT2C_ligand_DiffSBDD_2026-06-23_prepared.sdf

>  <GenAI_Model>  (1) 
DiffSBDD

>  <Protein>  (1) 
GPCR_5HT2C

$$$$
DiffSBDD_11
     RDKit          3D

  0  0  0  0  0  0  0  0  0  0999 V3000
M  V30 BEGIN CTAB
M  V30 COUNTS 46 45 0 0 1
M  V30 BEGIN ATOM
M  V30 1 S 38.045137 31.007931 55.767535 0
M  V30 2 C 40.428801 35.272592 63.702757 0
M  V30 3 C 39.540341 28.558297 50.744493 0
M  V30 4 O 38.045138 31.505366 54.320415 0
M  V30 5 C 39.332866 33.045482 60.608231 0
M  V30 6 C 39.041300 27.347087 52.963060 0
M  V30 7 C 39.016708 33.337774 59.130067 0
M  V30 8 C 38.552912 32.129209 58.293797 0
M  V30 9 C 39.725821 34.319666 61.389507 0
M  V30 10 N 41.551140 36.137734 63.299248 0 CHG=1
M  V30 11 C 39.199158 28.535574 55.246645 0
M  V30 12 C 38.702187 27.497849 51.471129 0
M  V30 13 C 38.627244 32.447941 56.787119 0
M  V30 14 C 39.511159 29.879245 55.933445 0
M  V30 15 C 38.933686 28.669205 53.737859 0
M  V30 16 C 40.267478 34.027257 62.803446 0
M  V30 17 H 39.508987 35.858684 63.716526 0
M  V30 18 H 40.613438 34.956033 64.730009 0
M  V30 19 H 39.345675 28.537756 49.674760 0
M  V30 20 H 40.606076 28.395717 50.901266 0
M  V30 21 H 39.298853 29.564989 51.085668 0
M  V30 22 H 38.470291 32.577117 61.084061 0
M  V30 23 H 40.144846 32.319390 60.659728 0
M  V30 24 H 38.367633 26.611651 53.404522 0
M  V30 25 H 40.045139 26.937627 53.065960 0
M  V30 26 H 39.918562 33.737757 58.671434 0
M  V30 27 H 38.263188 34.123867 59.061909 0
M  V30 28 H 37.531045 31.860666 58.566627 0
M  V30 29 H 39.169718 31.261799 58.521507 0
M  V30 30 H 40.474716 34.878341 60.827234 0
M  V30 31 H 38.851461 34.968478 61.458357 0
M  V30 32 H 41.645071 36.916427 63.948930 0
M  V30 33 H 42.409243 35.607118 63.314434 0
M  V30 34 H 38.348645 28.053332 55.730026 0
M  V30 35 H 40.050719 27.872538 55.401762 0
M  V30 36 H 37.645138 27.740543 51.367754 0
M  V30 37 H 38.845130 26.537759 50.974026 0
M  V30 38 H 39.636638 32.721541 56.478997 0
M  V30 39 H 37.977606 33.295116 56.562536 0
M  V30 40 H 39.737483 29.712696 56.985296 0
M  V30 41 H 40.380204 30.352295 55.475195 0
M  V30 42 H 39.645136 29.386079 53.328657 0
M  V30 43 H 37.942297 29.092599 53.573975 0
M  V30 44 H 39.575288 33.344673 63.298364 0
M  V30 45 H 41.212507 33.486467 62.735329 0
M  V30 46 H 41.391466 36.499886 62.370533 0
M  V30 END ATOM
M  V30 BEGIN BOND
M  V30 1 2 4 1
M  V30 2 1 7 5
M  V30 3 1 8 7
M  V30 4 1 9 5
M  V30 5 1 10 2
M  V30 6 1 12 3
M  V30 7 1 12 6
M  V30 8 1 1 13 CFG=1
M  V30 9 1 13 8
M  V30 10 1 14 1
M  V30 11 1 14 11
M  V30 12 1 15 6
M  V30 13 1 15 11
M  V30 14 1 16 2
M  V30 15 1 16 9
M  V30 16 1 17 2
M  V30 17 1 18 2
M  V30 18 1 19 3
M  V30 19 1 20 3
M  V30 20 1 21 3
M  V30 21 1 22 5
M  V30 22 1 23 5
M  V30 23 1 24 6
M  V30 24 1 25 6
M  V30 25 1 26 7
M  V30 26 1 27 7
M  V30 27 1 28 8
M  V30 28 1 29 8
M  V30 29 1 30 9
M  V30 30 1 31 9
M  V30 31 1 32 10
M  V30 32 1 33 10
M  V30 33 1 34 11
M  V30 34 1 35 11
M  V30 35 1 36 12
M  V30 36 1 37 12
M  V30 37 1 38 13
M  V30 38 1 39 13
M  V30 39 1 40 14
M  V30 40 1 41 14
M  V30 41 1 42 15
M  V30 42 1 43 15
M  V30 43 1 44 16
M  V30 44 1 45 16
M  V30 45 1 46 10
M  V30 END BOND
M  V30 END CTAB
M  END
>  <i_epik_Tot_Q>  (1) 
1

>  <i_epik_Tot_abs_Q>  (1) 
1

>  <i_i_glide_confnum>  (1) 
30

>  <i_i_glide_lignum>  (1) 
22

>  <i_i_glide_posenum>  (1) 
88

>  <i_i_glide_rotatable_bonds>  (1) 
12

>  <i_lp_mmshare_version>  (1) 
72125

>  <i_m_source_file_index>  (1) 
12

>  <i_f3d_flags>  (1) 
0

>  <num_sample>  (1) 
50

>  <b_lp_Chiralities_Consistent>  (1) 
1

>  <r_epik_Charging_Adjusted_Penalty>  (1) 
0.00091305557232911701

>  <r_epik_Ionization_Penalty>  (1) 
0.00091305666875716605

>  <r_epik_Ionization_Penalty_Charging>  (1) 
0.00091305557232911701

>  <r_epik_Ionization_Penalty_Neutral>  (1) 
1.0964280490645846e-09

>  <r_epik_State_Penalty>  (1) 
-0

>  <r_glide_ring_energy>  (1) 
0

>  <r_i_docking_score>  (1) 
-0.41421689619241309

>  <r_i_glide_ecoul>  (1) 
-4.7216366516708268

>  <r_i_glide_eff_state_penalty>  (1) 
-0

>  <r_i_glide_einternal>  (1) 
7.2580978253235857

>  <r_i_glide_emodel>  (1) 
-27.837520866426988

>  <r_i_glide_emodel_strain>  (1) 
0.025309412442328316

>  <r_i_glide_energy>  (1) 
-30.42994301789674

>  <r_i_glide_erotb>  (1) 
5.6598403828958839

>  <r_i_glide_esite>  (1) 
-0.090779921988011186

>  <r_i_glide_evdw>  (1) 
-25.708306366225912

>  <r_i_glide_gscore>  (1) 
-0.41421689619241309

>  <r_i_glide_gscore_strain>  (1) 
0

>  <r_i_glide_hbond>  (1) 
0

>  <r_i_glide_ligand_efficiency>  (1) 
-0.025888556012025818

>  <r_i_glide_ligand_efficiency_ln>  (1) 
-0.10979646250612048

>  <r_i_glide_ligand_efficiency_sa>  (1) 
-0.065235073341867608

>  <r_i_glide_lipo>  (1) 
-2.0598133577253863

>  <r_i_glide_metal>  (1) 
-0

>  <r_i_glide_rewards>  (1) 
-1.9298031833129792

>  <r_lp_Energy>  (1) 
9.4463689999999989

>  <r_lp_tautomer_probability>  (1) 
1

>  <s_epik_cmdline>  (1) 
J2VwaWtfcHl0aG9uJywgJy1waHQnLCAnMS4wJywgJy1waCcsICc3LjQnLCAnLXRuJywgJzgnLCAnLW1hJywgJzUwMCcsICctaW1hZScsICc8aW5maWxlLm1hZT4nLCAnLW9tYWUnLCAnPG91dGZpbGUubWFlPic=

>  <s_epik_input>  (1) 
W0NIM11bQ0gyXVtDSDJdW0NIMl1bQ0gyXVtDSDJdW1NAXSg9TylbQ0gyXVtDSDJdW0NIMl1bQ0gyXVtDSDJdW0NIMl1bQ0gyXVtOSDJd

>  <s_glide_docking_method>  (1) 
confgen

>  <s_i_glide_gridfile>  (1) 
gpcr_5ht2c_6bqh_protein_autoprepared_prepared

>  <s_lp_Force_Field>  (1) 
S-OPLS

>  <s_lp_Variant>  (1) 
DiffSBDD_11-1

>  <s_m_source_file>  (1) 
generated_GPCR_5HT2C_ligand_DiffSBDD_2026-06-23_prepared.sdf

>  <GenAI_Model>  (1) 
DiffSBDD

>  <Protein>  (1) 
GPCR_5HT2C

$$$$
