Pocket2Mol_0
     RDKit          3D

  5  4  0  0  0  0  0  0  0  0999 V2000
   39.1330   30.9319   53.8386 C   0  0  0  0  0  0  0  0  0  0  0  0
   39.4035   30.9277   55.1419 C   0  0  0  0  0  0  0  0  0  0  0  0
   39.6184   29.7866   53.2236 C   0  0  0  0  0  0  0  0  0  0  0  0
   38.4551   31.7594   55.9841 C   0  0  0  0  0  0  0  0  0  0  0  0
   39.0860   32.1768   57.1850 O   0  0  0  0  0  0  0  0  0  0  0  0
  1  2  1  0
  1  3  1  0
  2  4  1  0
  4  5  1  0
M  END
>  <GenAI_Model>  (1) 
Pocket2Mol

>  <Protein>  (1) 
GPCR_5HT2C

>  <num_sample>  (1) 
50

$$$$
Pocket2Mol_1
     RDKit          3D

  5  5  0  0  0  0  0  0  0  0999 V2000
   38.4115   31.9403   56.1264 C   0  0  0  0  0  0  0  0  0  0  0  0
   38.3166   31.4536   57.2314 O   0  0  0  0  0  0  0  0  0  0  0  0
   38.5849   30.2178   57.3845 C   0  0  0  0  0  0  0  0  0  0  0  0
   38.4549   31.0343   55.0993 C   0  0  0  0  0  0  0  0  0  0  0  0
   38.7884   29.8312   56.1592 C   0  0  0  0  0  0  0  0  0  0  0  0
  1  2  1  0
  2  3  1  0
  1  4  2  0
  3  5  2  0
  4  5  1  0
M  END
>  <GenAI_Model>  (2) 
Pocket2Mol

>  <Protein>  (2) 
GPCR_5HT2C

>  <num_sample>  (2) 
50

$$$$
Pocket2Mol_2
     RDKit          3D

  5  5  0  0  0  0  0  0  0  0999 V2000
   39.1143   30.9593   53.8853 C   0  0  0  0  0  0  0  0  0  0  0  0
   38.7479   31.4545   55.0791 C   0  0  0  0  0  0  0  0  0  0  0  0
   39.5044   29.6072   53.9792 C   0  0  0  0  0  0  0  0  0  0  0  0
   39.3771   29.1374   55.3859 C   0  0  0  0  0  0  0  0  0  0  0  0
   39.0606   30.2520   56.2101 C   0  0  0  0  0  0  0  0  0  0  0  0
  1  2  1  0
  1  3  2  0
  3  4  1  0
  2  5  2  0
  4  5  2  0
M  END
>  <GenAI_Model>  (3) 
Pocket2Mol

>  <Protein>  (3) 
GPCR_5HT2C

>  <num_sample>  (3) 
50

$$$$
Pocket2Mol_3
     RDKit          3D

  5  5  0  0  0  0  0  0  0  0999 V2000
   38.6443   31.4883   54.4720 C   0  0  0  0  0  0  0  0  0  0  0  0
   38.6558   31.9480   55.8471 C   0  0  0  0  0  0  0  0  0  0  0  0
   39.2117   30.1996   54.4858 C   0  0  0  0  0  0  0  0  0  0  0  0
   39.4370   29.7684   55.7881 C   0  0  0  0  0  0  0  0  0  0  0  0
   39.0471   30.9457   56.4096 N   0  0  0  0  0  0  0  0  0  0  0  0
  1  2  1  0
  1  3  1  0
  3  4  1  0
  2  5  2  0
  4  5  1  0
M  END
>  <GenAI_Model>  (4) 
Pocket2Mol

>  <Protein>  (4) 
GPCR_5HT2C

>  <num_sample>  (4) 
50

$$$$
Pocket2Mol_4
     RDKit          3D

  5  4  0  0  0  0  0  0  0  0999 V2000
   38.1129   31.6389   54.8554 C   0  0  0  0  0  0  0  0  0  0  0  0
   38.6301   31.6844   56.2041 O   0  0  0  0  0  0  0  0  0  0  0  0
   38.7915   30.6532   56.8760 C   0  0  0  0  0  0  0  0  0  0  0  0
   38.8789   29.5395   56.2915 O   0  0  0  0  0  0  0  0  0  0  0  0
   38.6246   30.7106   58.3439 C   0  0  0  0  0  0  0  0  0  0  0  0
  1  2  1  0
  2  3  1  0
  3  4  2  0
  3  5  1  0
M  END
>  <GenAI_Model>  (5) 
Pocket2Mol

>  <Protein>  (5) 
GPCR_5HT2C

>  <num_sample>  (5) 
50

$$$$
Pocket2Mol_5
     RDKit          3D

  5  5  0  0  0  0  0  0  0  0999 V2000
   38.8270   31.9927   55.4028 C   0  0  0  0  0  0  0  0  0  0  0  0
   38.7039   31.6595   56.6016 C   0  0  0  0  0  0  0  0  0  0  0  0
   39.1102   30.9272   54.5449 C   0  0  0  0  0  0  0  0  0  0  0  0
   39.0723   29.8314   55.3525 C   0  0  0  0  0  0  0  0  0  0  0  0
   38.8673   30.2669   56.6322 C   0  0  0  0  0  0  0  0  0  0  0  0
  1  2  1  0
  1  3  1  0
  3  4  1  0
  2  5  2  0
  4  5  1  0
M  END
>  <GenAI_Model>  (6) 
Pocket2Mol

>  <Protein>  (6) 
GPCR_5HT2C

>  <num_sample>  (6) 
50

$$$$
Pocket2Mol_6
     RDKit          3D

  6  6  0  0  0  0  0  0  0  0999 V2000
   38.9583   31.3514   54.6318 C   0  0  0  0  0  0  0  0  0  0  0  0
   38.8830   31.6963   55.8970 C   0  0  0  0  0  0  0  0  0  0  0  0
   39.3680   30.0687   54.4549 C   0  0  0  0  0  0  0  0  0  0  0  0
   39.4487   29.0865   55.3795 C   0  0  0  0  0  0  0  0  0  0  0  0
   39.2652   29.6124   56.6325 C   0  0  0  0  0  0  0  0  0  0  0  0
   38.9561   30.8624   56.9720 C   0  0  0  0  0  0  0  0  0  0  0  0
  1  2  1  0
  1  3  2  0
  3  4  1  0
  4  5  2  0
  2  6  2  0
  5  6  1  0
M  END
>  <GenAI_Model>  (7) 
Pocket2Mol

>  <Protein>  (7) 
GPCR_5HT2C

>  <num_sample>  (7) 
50

$$$$
Pocket2Mol_7
     RDKit          3D

  6  6  0  0  0  0  0  0  0  0999 V2000
   38.8270   31.9927   55.4028 C   0  0  0  0  0  0  0  0  0  0  0  0
   38.7039   31.6595   56.6016 C   0  0  0  0  0  0  0  0  0  0  0  0
   39.1102   30.9272   54.5449 C   0  0  0  0  0  0  0  0  0  0  0  0
   39.0723   29.8314   55.3525 C   0  0  0  0  0  0  0  0  0  0  0  0
   38.8434   30.4669   56.6155 N   0  0  0  0  0  0  0  0  0  0  0  0
   39.2479   28.6464   55.1410 O   0  0  0  0  0  0  0  0  0  0  0  0
  1  2  1  0
  1  3  1  0
  3  4  1  0
  2  5  2  0
  4  5  1  0
  4  6  2  0
M  END
>  <GenAI_Model>  (8) 
Pocket2Mol

>  <Protein>  (8) 
GPCR_5HT2C

>  <num_sample>  (8) 
50

$$$$
Pocket2Mol_8
     RDKit          3D

  6  6  0  0  0  0  0  0  0  0999 V2000
   38.8270   31.9927   55.4028 C   0  0  0  0  0  0  0  0  0  0  0  0
   38.6258   32.1674   56.6529 C   0  0  0  0  0  0  0  0  0  0  0  0
   38.5839   30.9962   57.3846 C   0  0  0  0  0  0  0  0  0  0  0  0
   38.4026   31.1578   58.8891 C   0  0  0  0  0  0  0  0  0  0  0  0
   38.8345   30.7291   54.9717 C   0  0  0  0  0  0  0  0  0  0  0  0
   38.7872   29.6873   56.7593 S   0  0  0  0  0  0  0  0  0  0  0  0
  1  2  1  0
  2  3  2  0
  3  4  1  0
  1  5  2  0
  3  6  1  0
  5  6  1  0
M  END
>  <GenAI_Model>  (9) 
Pocket2Mol

>  <Protein>  (9) 
GPCR_5HT2C

>  <num_sample>  (9) 
50

$$$$
Pocket2Mol_9
     RDKit          3D

  4  3  0  0  0  0  0  0  0  0999 V2000
   39.2262   31.2676   55.6596 C   0  0  0  0  0  0  0  0  0  0  0  0
   38.6306   31.6249   56.5779 C   0  0  0  0  0  0  0  0  0  0  0  0
   38.3895   32.7861   56.9685 O   0  0  0  0  0  0  0  0  0  0  0  0
   38.2697   30.5959   57.4428 O   0  0  0  0  0  0  0  0  0  0  0  0
  1  2  1  0
  2  3  2  0
  2  4  1  0
M  END
>  <GenAI_Model>  (10) 
Pocket2Mol

>  <Protein>  (10) 
GPCR_5HT2C

>  <num_sample>  (10) 
50

$$$$
Pocket2Mol_10
     RDKit          3D

  6  6  0  0  0  0  0  0  0  0999 V2000
   38.1129   31.6389   54.8554 C   0  0  0  0  0  0  0  0  0  0  0  0
   38.6301   31.6844   56.2041 O   0  0  0  0  0  0  0  0  0  0  0  0
   38.2645   30.8654   57.1073 C   0  0  0  0  0  0  0  0  0  0  0  0
   38.9012   30.4908   54.1835 C   0  0  0  0  0  0  0  0  0  0  0  0
   38.7023   29.2800   55.1109 O   0  0  0  0  0  0  0  0  0  0  0  0
   38.9394   29.5056   56.5413 C   0  0  0  0  0  0  0  0  0  0  0  0
  1  2  1  0
  2  3  1  0
  1  4  1  0
  4  5  1  0
  3  6  1  0
  5  6  1  0
M  END
>  <GenAI_Model>  (11) 
Pocket2Mol

>  <Protein>  (11) 
GPCR_5HT2C

>  <num_sample>  (11) 
50

$$$$
Pocket2Mol_11
     RDKit          3D

  6  6  0  0  0  0  0  0  0  0999 V2000
   39.2262   31.2676   55.6596 C   0  0  0  0  0  0  0  0  0  0  0  0
   38.6306   31.6249   56.5779 C   0  0  0  0  0  0  0  0  0  0  0  0
   39.4023   29.9848   55.3551 C   0  0  0  0  0  0  0  0  0  0  0  0
   38.2113   30.5557   57.2775 C   0  0  0  0  0  0  0  0  0  0  0  0
   38.7701   29.3875   56.3527 N   0  0  0  0  0  0  0  0  0  0  0  0
   39.8422   29.3330   54.3761 O   0  0  0  0  0  0  0  0  0  0  0  0
  1  2  1  0
  1  3  1  0
  2  4  2  0
  3  5  1  0
  4  5  1  0
  3  6  2  0
M  END
>  <GenAI_Model>  (12) 
Pocket2Mol

>  <Protein>  (12) 
GPCR_5HT2C

>  <num_sample>  (12) 
50

$$$$
Pocket2Mol_12
     RDKit          3D

  6  6  0  0  0  0  0  0  0  0999 V2000
   38.1129   31.6389   54.8554 C   0  0  0  0  0  0  0  0  0  0  0  0
   38.6301   31.6844   56.2041 C   0  0  0  0  0  0  0  0  0  0  0  0
   38.1594   30.2287   54.5768 O   0  0  0  0  0  0  0  0  0  0  0  0
   38.8559   30.4992   56.7277 O   0  0  0  0  0  0  0  0  0  0  0  0
   38.5630   29.6033   55.7250 C   0  0  0  0  0  0  0  0  0  0  0  0
   38.7865   28.4174   55.7894 O   0  0  0  0  0  0  0  0  0  0  0  0
  1  2  1  0
  1  3  1  0
  2  4  1  0
  3  5  1  0
  4  5  1  0
  5  6  2  0
M  END
>  <GenAI_Model>  (13) 
Pocket2Mol

>  <Protein>  (13) 
GPCR_5HT2C

>  <num_sample>  (13) 
50

$$$$
Pocket2Mol_13
     RDKit          3D

  6  6  0  0  0  0  0  0  0  0999 V2000
   38.2337   31.8199   55.5505 C   0  0  0  0  0  0  0  0  0  0  0  0
   38.4772   32.0168   56.8231 O   0  0  0  0  0  0  0  0  0  0  0  0
   38.8197   30.5918   55.1007 C   0  0  0  0  0  0  0  0  0  0  0  0
   38.7276   30.9109   57.4482 C   0  0  0  0  0  0  0  0  0  0  0  0
   38.9493   29.8874   56.4631 C   0  0  0  0  0  0  0  0  0  0  0  0
   38.7593   30.7495   58.6717 O   0  0  0  0  0  0  0  0  0  0  0  0
  1  2  1  0
  1  3  1  0
  2  4  1  0
  3  5  1  0
  4  5  1  0
  4  6  2  0
M  END
>  <GenAI_Model>  (14) 
Pocket2Mol

>  <Protein>  (14) 
GPCR_5HT2C

>  <num_sample>  (14) 
50

$$$$
Pocket2Mol_14
     RDKit          3D

  6  6  0  0  0  0  0  0  0  0999 V2000
   38.2337   31.8199   55.5505 C   0  0  0  0  0  0  0  0  0  0  0  0
   38.4772   32.0168   56.8231 C   0  0  0  0  0  0  0  0  0  0  0  0
   38.6710   30.6292   55.0974 C   0  0  0  0  0  0  0  0  0  0  0  0
   38.6089   30.9804   57.3631 C   0  0  0  0  0  0  0  0  0  0  0  0
   38.4585   30.2577   56.6030 C   0  0  0  0  0  0  0  0  0  0  0  0
   39.9088   30.5799   54.9724 C   0  0  0  0  0  0  0  0  0  0  0  0
  1  2  1  0
  1  3  1  0
  2  4  1  0
  3  5  1  0
  4  5  1  0
  3  6  1  0
M  END
>  <GenAI_Model>  (15) 
Pocket2Mol

>  <Protein>  (15) 
GPCR_5HT2C

>  <num_sample>  (15) 
50

$$$$
Pocket2Mol_15
     RDKit          3D

  6  6  0  0  0  0  0  0  0  0999 V2000
   39.2262   31.2676   55.6596 C   0  0  0  0  0  0  0  0  0  0  0  0
   38.6306   31.6249   56.5779 C   0  0  0  0  0  0  0  0  0  0  0  0
   39.4023   29.9848   55.3551 C   0  0  0  0  0  0  0  0  0  0  0  0
   38.2113   30.5557   57.2775 C   0  0  0  0  0  0  0  0  0  0  0  0
   38.8358   29.3990   56.6347 C   0  0  0  0  0  0  0  0  0  0  0  0
   38.3041   29.7381   54.4408 O   0  0  0  0  0  0  0  0  0  0  0  0
  1  2  1  0
  1  3  1  0
  2  4  1  0
  3  5  1  0
  4  5  1  0
  3  6  1  0
M  END
>  <GenAI_Model>  (16) 
Pocket2Mol

>  <Protein>  (16) 
GPCR_5HT2C

>  <num_sample>  (16) 
50

$$$$
Pocket2Mol_16
     RDKit          3D

  6  6  0  0  0  0  0  0  0  0999 V2000
   38.0974   31.5465   55.2838 C   0  0  0  0  0  0  0  0  0  0  0  0
   38.6046   32.0608   56.4560 C   0  0  0  0  0  0  0  0  0  0  0  0
   38.2419   31.3489   57.5651 C   0  0  0  0  0  0  0  0  0  0  0  0
   39.0266   30.4787   54.7532 C   0  0  0  0  0  0  0  0  0  0  0  0
   39.0107   29.9667   57.4271 C   0  0  0  0  0  0  0  0  0  0  0  0
   38.9044   29.3522   55.9497 C   0  0  0  0  0  0  0  0  0  0  0  0
  1  2  1  0
  2  3  1  0
  1  4  1  0
  3  5  1  0
  4  6  1  0
  5  6  1  0
M  END
>  <GenAI_Model>  (17) 
Pocket2Mol

>  <Protein>  (17) 
GPCR_5HT2C

>  <num_sample>  (17) 
50

$$$$
Pocket2Mol_17
     RDKit          3D

  6  6  0  0  0  0  0  0  0  0999 V2000
   38.0974   31.5465   55.2838 C   0  0  0  0  0  0  0  0  0  0  0  0
   38.4761   31.4599   56.6015 O   0  0  0  0  0  0  0  0  0  0  0  0
   38.7793   30.4553   57.0573 C   0  0  0  0  0  0  0  0  0  0  0  0
   38.1936   30.2665   54.6971 C   0  0  0  0  0  0  0  0  0  0  0  0
   38.5667   29.4246   55.9671 C   0  0  0  0  0  0  0  0  0  0  0  0
   39.0361   30.0283   58.2119 O   0  0  0  0  0  0  0  0  0  0  0  0
  1  2  1  0
  2  3  1  0
  1  4  2  0
  3  5  1  0
  4  5  1  0
  3  6  2  0
M  END
>  <GenAI_Model>  (18) 
Pocket2Mol

>  <Protein>  (18) 
GPCR_5HT2C

>  <num_sample>  (18) 
50

$$$$
Pocket2Mol_18
     RDKit          3D

  6  6  0  0  0  0  0  0  0  0999 V2000
   39.1143   30.9593   53.8853 C   0  0  0  0  0  0  0  0  0  0  0  0
   38.7479   31.4545   55.0791 C   0  0  0  0  0  0  0  0  0  0  0  0
   39.4153   29.7429   54.2863 C   0  0  0  0  0  0  0  0  0  0  0  0
   38.9194   30.7500   56.1092 C   0  0  0  0  0  0  0  0  0  0  0  0
   39.3694   29.4535   55.7281 N   0  0  0  0  0  0  0  0  0  0  0  0
   39.6120   28.4820   56.2138 O   0  0  0  0  0  0  0  0  0  0  0  0
  1  2  1  0
  1  3  2  0
  2  4  2  0
  3  5  1  0
  4  5  1  0
  5  6  1  0
M  END
>  <GenAI_Model>  (19) 
Pocket2Mol

>  <Protein>  (19) 
GPCR_5HT2C

>  <num_sample>  (19) 
50

$$$$
Pocket2Mol_19
     RDKit          3D

  6  6  0  0  0  0  0  0  0  0999 V2000
   39.1143   30.9593   53.8853 C   0  0  0  0  0  0  0  0  0  0  0  0
   38.7479   31.4545   55.0791 C   0  0  0  0  0  0  0  0  0  0  0  0
   39.4153   29.7429   54.2863 C   0  0  0  0  0  0  0  0  0  0  0  0
   38.9194   30.7500   56.1092 C   0  0  0  0  0  0  0  0  0  0  0  0
   39.3694   29.4535   55.7281 N   0  0  0  0  0  0  0  0  0  0  0  0
   39.5352   28.4420   56.4894 C   0  0  0  0  0  0  0  0  0  0  0  0
  1  2  1  0
  1  3  2  0
  2  4  2  0
  3  5  1  0
  4  5  1  0
  5  6  1  0
M  END
>  <GenAI_Model>  (20) 
Pocket2Mol

>  <Protein>  (20) 
GPCR_5HT2C

>  <num_sample>  (20) 
50

$$$$
Pocket2Mol_20
     RDKit          3D

  4  3  0  0  0  0  0  0  0  0999 V2000
   38.6443   31.4883   54.4720 C   0  0  0  0  0  0  0  0  0  0  0  0
   38.8264   31.5895   55.8863 C   0  0  0  0  0  0  0  0  0  0  0  0
   38.5931   32.6124   56.5644 C   0  0  0  0  0  0  0  0  0  0  0  0
   39.2127   30.3921   56.4348 O   0  0  0  0  0  0  0  0  0  0  0  0
  1  2  1  0
  2  3  1  0
  2  4  2  0
M  END
>  <GenAI_Model>  (21) 
Pocket2Mol

>  <Protein>  (21) 
GPCR_5HT2C

>  <num_sample>  (21) 
50

$$$$
Pocket2Mol_21
     RDKit          3D

  6  6  0  0  0  0  0  0  0  0999 V2000
   38.1129   31.6389   54.8554 C   0  0  0  0  0  0  0  0  0  0  0  0
   38.6301   31.6844   56.2041 C   0  0  0  0  0  0  0  0  0  0  0  0
   38.1594   30.2287   54.5768 O   0  0  0  0  0  0  0  0  0  0  0  0
   38.4284   29.5910   55.6903 C   0  0  0  0  0  0  0  0  0  0  0  0
   38.9507   30.3778   56.3788 O   0  0  0  0  0  0  0  0  0  0  0  0
   39.1957   28.3962   55.5406 C   0  0  0  0  0  0  0  0  0  0  0  0
  1  2  1  0
  1  3  1  0
  3  4  1  0
  2  5  1  0
  4  5  1  0
  4  6  1  0
M  END
>  <GenAI_Model>  (22) 
Pocket2Mol

>  <Protein>  (22) 
GPCR_5HT2C

>  <num_sample>  (22) 
50

$$$$
Pocket2Mol_22
     RDKit          3D

  6  6  0  0  0  0  0  0  0  0999 V2000
   38.6820   31.7376   56.4541 C   0  0  0  0  0  0  0  0  0  0  0  0
   38.7804   31.7421   55.2319 C   0  0  0  0  0  0  0  0  0  0  0  0
   39.2310   30.5545   54.6989 C   0  0  0  0  0  0  0  0  0  0  0  0
   39.3747   30.4323   53.2130 C   0  0  0  0  0  0  0  0  0  0  0  0
   38.9125   30.5172   57.0176 N   0  0  0  0  0  0  0  0  0  0  0  0
   39.2875   29.4982   55.7660 S   0  0  0  0  0  0  0  0  0  0  0  0
  1  2  1  0
  2  3  2  0
  3  4  1  0
  1  5  2  0
  3  6  1  0
  5  6  1  0
M  END
>  <GenAI_Model>  (23) 
Pocket2Mol

>  <Protein>  (23) 
GPCR_5HT2C

>  <num_sample>  (23) 
50

$$$$
Pocket2Mol_23
     RDKit          3D

  6  5  0  0  0  0  0  0  0  0999 V2000
   38.1129   31.6389   54.8554 C   0  0  0  0  0  0  0  0  0  0  0  0
   38.8931   31.9999   55.9392 O   0  0  0  0  0  0  0  0  0  0  0  0
   38.3258   31.8383   57.1642 C   0  0  0  0  0  0  0  0  0  0  0  0
   38.8210   30.4072   54.2973 C   0  0  0  0  0  0  0  0  0  0  0  0
   38.7616   29.4267   55.2113 O   0  0  0  0  0  0  0  0  0  0  0  0
   39.7189   28.8470   55.7275 C   0  0  0  0  0  0  0  0  0  0  0  0
  1  2  1  0
  2  3  1  0
  1  4  1  0
  4  5  1  0
  5  6  1  0
M  END
>  <GenAI_Model>  (24) 
Pocket2Mol

>  <Protein>  (24) 
GPCR_5HT2C

>  <num_sample>  (24) 
50

$$$$
Pocket2Mol_24
     RDKit          3D

  6  6  0  0  0  0  0  0  0  0999 V2000
   38.5324   32.1847   55.2978 C   0  0  0  0  0  0  0  0  0  0  0  0
   38.7004   32.0932   56.6080 C   0  0  0  0  0  0  0  0  0  0  0  0
   38.7259   30.9835   54.6711 C   0  0  0  0  0  0  0  0  0  0  0  0
   38.9985   29.9207   55.6864 C   0  0  0  0  0  0  0  0  0  0  0  0
   38.8538   30.7827   57.0072 N   0  0  0  0  0  0  0  0  0  0  0  0
   38.6314   30.2576   58.1758 C   0  0  0  0  0  0  0  0  0  0  0  0
  1  2  1  0
  1  3  2  0
  3  4  1  0
  2  5  1  0
  4  5  1  0
  5  6  1  0
M  END
>  <GenAI_Model>  (25) 
Pocket2Mol

>  <Protein>  (25) 
GPCR_5HT2C

>  <num_sample>  (25) 
50

$$$$
Pocket2Mol_25
     RDKit          3D

  7  7  0  0  0  0  0  0  0  0999 V2000
   39.1330   30.9319   53.8386 C   0  0  0  0  0  0  0  0  0  0  0  0
   38.7764   31.4054   55.0455 C   0  0  0  0  0  0  0  0  0  0  0  0
   38.9350   30.6521   56.1683 C   0  0  0  0  0  0  0  0  0  0  0  0
   39.3685   29.5192   53.7394 C   0  0  0  0  0  0  0  0  0  0  0  0
   39.2755   29.2164   55.8923 C   0  0  0  0  0  0  0  0  0  0  0  0
   39.5706   29.0247   52.3072 C   0  0  0  0  0  0  0  0  0  0  0  0
   39.4198   28.7398   54.7455 C   0  0  0  0  0  0  0  0  0  0  0  0
  1  2  1  0
  2  3  2  0
  1  4  2  0
  3  5  1  0
  4  6  1  0
  4  7  1  0
  5  7  2  0
M  END
>  <GenAI_Model>  (26) 
Pocket2Mol

>  <Protein>  (26) 
GPCR_5HT2C

>  <num_sample>  (26) 
50

$$$$
Pocket2Mol_26
     RDKit          3D

  7  7  0  0  0  0  0  0  0  0999 V2000
   38.1129   31.6389   54.8554 C   0  0  0  0  0  0  0  0  0  0  0  0
   38.6301   31.6844   56.2041 O   0  0  0  0  0  0  0  0  0  0  0  0
   38.7915   30.6532   56.8760 C   0  0  0  0  0  0  0  0  0  0  0  0
   38.6030   30.6258   58.1966 O   0  0  0  0  0  0  0  0  0  0  0  0
   39.5946   29.5876   56.3172 C   0  0  0  0  0  0  0  0  0  0  0  0
   38.9111   30.5529   54.1146 C   0  0  0  0  0  0  0  0  0  0  0  0
   39.0604   29.3297   54.9272 O   0  0  0  0  0  0  0  0  0  0  0  0
  1  2  1  0
  2  3  1  0
  3  4  2  0
  3  5  1  0
  1  6  1  0
  5  7  1  0
  6  7  1  0
M  END
>  <GenAI_Model>  (27) 
Pocket2Mol

>  <Protein>  (27) 
GPCR_5HT2C

>  <num_sample>  (27) 
50

$$$$
Pocket2Mol_27
     RDKit          3D

  7  7  0  0  0  0  0  0  0  0999 V2000
   38.6820   31.7376   56.4541 C   0  0  0  0  0  0  0  0  0  0  0  0
   38.7804   31.7421   55.2319 C   0  0  0  0  0  0  0  0  0  0  0  0
   38.7167   30.6476   57.1742 C   0  0  0  0  0  0  0  0  0  0  0  0
   38.9952   30.5823   54.5122 C   0  0  0  0  0  0  0  0  0  0  0  0
   38.6050   30.5194   58.6962 O   0  0  0  0  0  0  0  0  0  0  0  0
   39.0702   29.3627   55.4365 C   0  0  0  0  0  0  0  0  0  0  0  0
   38.9674   29.4370   56.6203 C   0  0  0  0  0  0  0  0  0  0  0  0
  1  2  1  0
  1  3  2  0
  2  4  2  0
  3  5  1  0
  4  6  1  0
  3  7  1  0
  6  7  2  0
M  END
>  <GenAI_Model>  (28) 
Pocket2Mol

>  <Protein>  (28) 
GPCR_5HT2C

>  <num_sample>  (28) 
50

$$$$
Pocket2Mol_28
     RDKit          3D

  7  7  0  0  0  0  0  0  0  0999 V2000
   39.2262   31.2676   55.6596 C   0  0  0  0  0  0  0  0  0  0  0  0
   38.6306   31.6249   56.5779 C   0  0  0  0  0  0  0  0  0  0  0  0
   38.2299   30.6973   57.4321 C   0  0  0  0  0  0  0  0  0  0  0  0
   37.6447   30.9150   58.7838 N   0  0  0  0  0  0  0  0  0  0  0  0
   39.4686   30.0608   55.1842 C   0  0  0  0  0  0  0  0  0  0  0  0
   38.5208   29.3176   57.2297 C   0  0  0  0  0  0  0  0  0  0  0  0
   39.1434   29.0252   56.0577 C   0  0  0  0  0  0  0  0  0  0  0  0
  1  2  1  0
  2  3  2  0
  3  4  1  0
  1  5  2  0
  3  6  1  0
  5  7  1  0
  6  7  2  0
M  END
>  <GenAI_Model>  (29) 
Pocket2Mol

>  <Protein>  (29) 
GPCR_5HT2C

>  <num_sample>  (29) 
50

$$$$
Pocket2Mol_29
     RDKit          3D

  7  7  0  0  0  0  0  0  0  0999 V2000
   38.8270   31.9927   55.4028 C   0  0  0  0  0  0  0  0  0  0  0  0
   38.7039   31.6595   56.6016 C   0  0  0  0  0  0  0  0  0  0  0  0
   38.8401   30.3561   56.9531 C   0  0  0  0  0  0  0  0  0  0  0  0
   38.3952   32.4515   57.6447 O   0  0  0  0  0  0  0  0  0  0  0  0
   38.1881   31.2061   54.5854 C   0  0  0  0  0  0  0  0  0  0  0  0
   38.1029   29.4924   56.0230 C   0  0  0  0  0  0  0  0  0  0  0  0
   38.5429   29.7771   54.7518 C   0  0  0  0  0  0  0  0  0  0  0  0
  1  2  1  0
  2  3  1  0
  2  4  2  0
  1  5  1  0
  3  6  1  0
  5  7  1  0
  6  7  1  0
M  END
>  <GenAI_Model>  (30) 
Pocket2Mol

>  <Protein>  (30) 
GPCR_5HT2C

>  <num_sample>  (30) 
50

$$$$
Pocket2Mol_30
     RDKit          3D

  7  7  0  0  0  0  0  0  0  0999 V2000
   38.1129   31.6389   54.8554 C   0  0  0  0  0  0  0  0  0  0  0  0
   38.8931   31.9999   55.9392 C   0  0  0  0  0  0  0  0  0  0  0  0
   38.2826   31.5433   57.1469 O   0  0  0  0  0  0  0  0  0  0  0  0
   37.7128   30.4513   55.2365 O   0  0  0  0  0  0  0  0  0  0  0  0
   37.9814   30.1950   56.4373 C   0  0  0  0  0  0  0  0  0  0  0  0
   39.1422   29.2281   56.5841 C   0  0  0  0  0  0  0  0  0  0  0  0
   39.7038   29.2516   55.3446 O   0  0  0  0  0  0  0  0  0  0  0  0
  1  2  1  0
  2  3  1  0
  1  4  1  0
  3  5  1  0
  4  5  1  0
  5  6  1  0
  6  7  1  0
M  END
>  <GenAI_Model>  (31) 
Pocket2Mol

>  <Protein>  (31) 
GPCR_5HT2C

>  <num_sample>  (31) 
50

$$$$
Pocket2Mol_31
     RDKit          3D

  4  3  0  0  0  0  0  0  0  0999 V2000
   38.4115   31.9403   56.1264 C   0  0  0  0  0  0  0  0  0  0  0  0
   38.3166   31.4536   57.2314 O   0  0  0  0  0  0  0  0  0  0  0  0
   38.9647   31.0193   55.2144 C   0  0  0  0  0  0  0  0  0  0  0  0
   38.8752   29.8630   55.5642 O   0  0  0  0  0  0  0  0  0  0  0  0
  1  2  1  0
  1  3  1  0
  3  4  1  0
M  END
>  <GenAI_Model>  (32) 
Pocket2Mol

>  <Protein>  (32) 
GPCR_5HT2C

>  <num_sample>  (32) 
50

$$$$
Pocket2Mol_32
     RDKit          3D

  7  7  0  0  0  0  0  0  0  0999 V2000
   39.2262   31.2676   55.6596 C   0  0  0  0  0  0  0  0  0  0  0  0
   38.6306   31.6249   56.5779 C   0  0  0  0  0  0  0  0  0  0  0  0
   38.2299   30.6973   57.4321 C   0  0  0  0  0  0  0  0  0  0  0  0
   38.5562   29.2975   57.2470 C   0  0  0  0  0  0  0  0  0  0  0  0
   39.5705   30.0302   55.2564 C   0  0  0  0  0  0  0  0  0  0  0  0
   40.2305   29.6792   54.0157 F   0  0  0  0  0  0  0  0  0  0  0  0
   39.2173   28.9928   56.1214 C   0  0  0  0  0  0  0  0  0  0  0  0
  1  2  1  0
  2  3  2  0
  3  4  1  0
  1  5  2  0
  5  6  1  0
  4  7  2  0
  5  7  1  0
M  END
>  <GenAI_Model>  (33) 
Pocket2Mol

>  <Protein>  (33) 
GPCR_5HT2C

>  <num_sample>  (33) 
50

$$$$
Pocket2Mol_33
     RDKit          3D

  7  7  0  0  0  0  0  0  0  0999 V2000
   38.1129   31.6389   54.8554 C   0  0  0  0  0  0  0  0  0  0  0  0
   38.8931   31.9999   55.9392 O   0  0  0  0  0  0  0  0  0  0  0  0
   38.3258   31.8383   57.1642 C   0  0  0  0  0  0  0  0  0  0  0  0
   38.8210   30.4072   54.2973 C   0  0  0  0  0  0  0  0  0  0  0  0
   38.7616   29.4267   55.2113 O   0  0  0  0  0  0  0  0  0  0  0  0
   38.1518   30.5293   57.4405 C   0  0  0  0  0  0  0  0  0  0  0  0
   38.3480   29.6339   56.4060 C   0  0  0  0  0  0  0  0  0  0  0  0
  1  2  1  0
  2  3  1  0
  1  4  1  0
  4  5  1  0
  3  6  1  0
  5  7  1  0
  6  7  1  0
M  END
>  <GenAI_Model>  (34) 
Pocket2Mol

>  <Protein>  (34) 
GPCR_5HT2C

>  <num_sample>  (34) 
50

$$$$
Pocket2Mol_34
     RDKit          3D

  7  7  0  0  0  0  0  0  0  0999 V2000
   38.0974   31.5465   55.2838 C   0  0  0  0  0  0  0  0  0  0  0  0
   38.4761   31.4599   56.6015 C   0  0  0  0  0  0  0  0  0  0  0  0
   38.8836   30.6642   54.4115 C   0  0  0  0  0  0  0  0  0  0  0  0
   38.2366   32.2622   57.4143 O   0  0  0  0  0  0  0  0  0  0  0  0
   39.0794   29.4975   54.9599 C   0  0  0  0  0  0  0  0  0  0  0  0
   39.6770   29.6195   56.2466 C   0  0  0  0  0  0  0  0  0  0  0  0
   38.9675   30.3460   57.0273 C   0  0  0  0  0  0  0  0  0  0  0  0
  1  2  1  0
  1  3  1  0
  2  4  1  0
  3  5  1  0
  5  6  1  0
  2  7  1  0
  6  7  1  0
M  END
>  <GenAI_Model>  (35) 
Pocket2Mol

>  <Protein>  (35) 
GPCR_5HT2C

>  <num_sample>  (35) 
50

$$$$
Pocket2Mol_35
     RDKit          3D

  7  7  0  0  0  0  0  0  0  0999 V2000
   38.1129   31.6389   54.8554 C   0  0  0  0  0  0  0  0  0  0  0  0
   38.6301   31.6844   56.2041 O   0  0  0  0  0  0  0  0  0  0  0  0
   38.7915   30.6532   56.8760 C   0  0  0  0  0  0  0  0  0  0  0  0
   38.6030   30.6258   58.1966 O   0  0  0  0  0  0  0  0  0  0  0  0
   38.9981   29.3568   56.2497 C   0  0  0  0  0  0  0  0  0  0  0  0
   38.1350   30.2603   54.4318 C   0  0  0  0  0  0  0  0  0  0  0  0
   38.5449   29.2203   55.1076 C   0  0  0  0  0  0  0  0  0  0  0  0
  1  2  1  0
  2  3  1  0
  3  4  2  0
  3  5  1  0
  1  6  2  0
  5  7  2  0
  6  7  1  0
M  END
>  <GenAI_Model>  (36) 
Pocket2Mol

>  <Protein>  (36) 
GPCR_5HT2C

>  <num_sample>  (36) 
50

$$$$
Pocket2Mol_36
     RDKit          3D

  7  7  0  0  0  0  0  0  0  0999 V2000
   38.6443   31.4883   54.4720 C   0  0  0  0  0  0  0  0  0  0  0  0
   38.6558   31.9480   55.8471 C   0  0  0  0  0  0  0  0  0  0  0  0
   38.6934   31.0950   56.8785 C   0  0  0  0  0  0  0  0  0  0  0  0
   38.3460   31.6852   58.0470 O   0  0  0  0  0  0  0  0  0  0  0  0
   39.0269   30.2431   54.5585 C   0  0  0  0  0  0  0  0  0  0  0  0
   38.8157   29.7326   55.8690 C   0  0  0  0  0  0  0  0  0  0  0  0
   39.2683   30.2513   56.9559 C   0  0  0  0  0  0  0  0  0  0  0  0
  1  2  1  0
  2  3  1  0
  3  4  1  0
  1  5  1  0
  5  6  1  0
  3  7  2  0
  6  7  1  0
M  END
>  <GenAI_Model>  (37) 
Pocket2Mol

>  <Protein>  (37) 
GPCR_5HT2C

>  <num_sample>  (37) 
50

$$$$
Pocket2Mol_37
     RDKit          3D

  7  7  0  0  0  0  0  0  0  0999 V2000
   38.1129   31.6389   54.8554 C   0  0  0  0  0  0  0  0  0  0  0  0
   38.6301   31.6844   56.2041 C   0  0  0  0  0  0  0  0  0  0  0  0
   38.1594   30.2287   54.5768 O   0  0  0  0  0  0  0  0  0  0  0  0
   39.2349   29.6913   54.2903 C   0  0  0  0  0  0  0  0  0  0  0  0
   38.4090   30.6434   56.9532 O   0  0  0  0  0  0  0  0  0  0  0  0
   39.6603   28.8531   55.4108 O   0  0  0  0  0  0  0  0  0  0  0  0
   39.5277   29.5919   56.7865 C   0  0  0  0  0  0  0  0  0  0  0  0
  1  2  1  0
  1  3  1  0
  3  4  1  0
  2  5  1  0
  4  6  1  0
  5  7  1  0
  6  7  1  0
M  END
>  <GenAI_Model>  (38) 
Pocket2Mol

>  <Protein>  (38) 
GPCR_5HT2C

>  <num_sample>  (38) 
50

$$$$
Pocket2Mol_38
     RDKit          3D

  7  7  0  0  0  0  0  0  0  0999 V2000
   38.6820   31.7376   56.4541 C   0  0  0  0  0  0  0  0  0  0  0  0
   38.7804   31.7421   55.2319 C   0  0  0  0  0  0  0  0  0  0  0  0
   39.2310   30.5545   54.6989 C   0  0  0  0  0  0  0  0  0  0  0  0
   39.3747   30.4323   53.2130 C   0  0  0  0  0  0  0  0  0  0  0  0
   38.9125   30.5172   57.0176 N   0  0  0  0  0  0  0  0  0  0  0  0
   39.2084   29.4775   55.9759 C   0  0  0  0  0  0  0  0  0  0  0  0
   39.4389   28.3992   55.8979 O   0  0  0  0  0  0  0  0  0  0  0  0
  1  2  1  0
  2  3  2  0
  3  4  1  0
  1  5  2  0
  3  6  1  0
  5  6  1  0
  6  7  2  0
M  END
>  <GenAI_Model>  (39) 
Pocket2Mol

>  <Protein>  (39) 
GPCR_5HT2C

>  <num_sample>  (39) 
50

$$$$
Pocket2Mol_39
     RDKit          3D

  7  7  0  0  0  0  0  0  0  0999 V2000
   38.8270   31.9927   55.4028 C   0  0  0  0  0  0  0  0  0  0  0  0
   38.6258   32.1674   56.6529 C   0  0  0  0  0  0  0  0  0  0  0  0
   38.5839   30.9962   57.3846 C   0  0  0  0  0  0  0  0  0  0  0  0
   38.4026   31.1578   58.8891 C   0  0  0  0  0  0  0  0  0  0  0  0
   38.8345   30.7291   54.9717 C   0  0  0  0  0  0  0  0  0  0  0  0
   39.0177   30.3624   53.4712 C   0  0  0  0  0  0  0  0  0  0  0  0
   38.7992   29.7234   56.6649 S   0  0  0  0  0  0  0  0  0  0  0  0
  1  2  1  0
  2  3  2  0
  3  4  1  0
  1  5  2  0
  5  6  1  0
  3  7  1  0
  5  7  1  0
M  END
>  <GenAI_Model>  (40) 
Pocket2Mol

>  <Protein>  (40) 
GPCR_5HT2C

>  <num_sample>  (40) 
50

$$$$
Pocket2Mol_40
     RDKit          3D

  7  6  0  0  0  0  0  0  0  0999 V2000
   38.1129   31.6389   54.8554 C   0  0  0  0  0  0  0  0  0  0  0  0
   38.6301   31.6844   56.2041 O   0  0  0  0  0  0  0  0  0  0  0  0
   38.7915   30.6532   56.8760 C   0  0  0  0  0  0  0  0  0  0  0  0
   39.0417   29.3986   56.1286 C   0  0  0  0  0  0  0  0  0  0  0  0
   39.2270   30.6047   58.0440 O   0  0  0  0  0  0  0  0  0  0  0  0
   38.5855   29.4190   54.8679 O   0  0  0  0  0  0  0  0  0  0  0  0
   39.1659   28.2049   56.8491 O   0  0  0  0  0  0  0  0  0  0  0  0
  1  2  1  0
  2  3  1  0
  3  4  1  0
  3  5  2  0
  4  6  2  0
  4  7  1  0
M  END
>  <GenAI_Model>  (41) 
Pocket2Mol

>  <Protein>  (41) 
GPCR_5HT2C

>  <num_sample>  (41) 
50

$$$$
Pocket2Mol_41
     RDKit          3D

  7  7  0  0  0  0  0  0  0  0999 V2000
   38.1129   31.6389   54.8554 C   0  0  0  0  0  0  0  0  0  0  0  0
   38.8931   31.9999   55.9392 O   0  0  0  0  0  0  0  0  0  0  0  0
   38.3258   31.8383   57.1642 C   0  0  0  0  0  0  0  0  0  0  0  0
   38.8210   30.4072   54.2973 C   0  0  0  0  0  0  0  0  0  0  0  0
   38.7616   29.4267   55.2113 O   0  0  0  0  0  0  0  0  0  0  0  0
   38.1518   30.5293   57.4405 C   0  0  0  0  0  0  0  0  0  0  0  0
   38.5367   29.5909   56.3801 C   0  0  0  0  0  0  0  0  0  0  0  0
  1  2  1  0
  2  3  1  0
  1  4  1  0
  4  5  1  0
  3  6  1  0
  5  7  1  0
  6  7  2  0
M  END
>  <GenAI_Model>  (42) 
Pocket2Mol

>  <Protein>  (42) 
GPCR_5HT2C

>  <num_sample>  (42) 
50

$$$$
Pocket2Mol_42
     RDKit          3D

  4  3  0  0  0  0  0  0  0  0999 V2000
   38.1701   31.8221   56.3476 C   0  0  0  0  0  0  0  0  0  0  0  0
   38.5468   30.9849   55.4239 O   0  0  0  0  0  0  0  0  0  0  0  0
   39.7344   30.9547   54.9841 C   0  0  0  0  0  0  0  0  0  0  0  0
   38.8473   31.5423   57.5544 O   0  0  0  0  0  0  0  0  0  0  0  0
  1  2  1  0
  2  3  1  0
  1  4  1  0
M  END
>  <GenAI_Model>  (43) 
Pocket2Mol

>  <Protein>  (43) 
GPCR_5HT2C

>  <num_sample>  (43) 
50

$$$$
Pocket2Mol_43
     RDKit          3D

  7  7  0  0  0  0  0  0  0  0999 V2000
   38.1129   31.6389   54.8554 C   0  0  0  0  0  0  0  0  0  0  0  0
   38.6301   31.6844   56.2041 O   0  0  0  0  0  0  0  0  0  0  0  0
   38.7915   30.6532   56.8760 C   0  0  0  0  0  0  0  0  0  0  0  0
   38.6030   30.6258   58.1966 O   0  0  0  0  0  0  0  0  0  0  0  0
   39.5946   29.5876   56.3172 C   0  0  0  0  0  0  0  0  0  0  0  0
   39.1553   30.9082   54.0174 C   0  0  0  0  0  0  0  0  0  0  0  0
   39.3084   29.5019   54.8000 C   0  0  0  0  0  0  0  0  0  0  0  0
  1  2  1  0
  2  3  1  0
  3  4  2  0
  3  5  1  0
  1  6  1  0
  5  7  1  0
  6  7  1  0
M  END
>  <GenAI_Model>  (44) 
Pocket2Mol

>  <Protein>  (44) 
GPCR_5HT2C

>  <num_sample>  (44) 
50

$$$$
Pocket2Mol_44
     RDKit          3D

  7  6  0  0  0  0  0  0  0  0999 V2000
   38.1129   31.6389   54.8554 C   0  0  0  0  0  0  0  0  0  0  0  0
   38.6301   31.6844   56.2041 O   0  0  0  0  0  0  0  0  0  0  0  0
   38.7915   30.6532   56.8760 C   0  0  0  0  0  0  0  0  0  0  0  0
   39.0417   29.3986   56.1286 C   0  0  0  0  0  0  0  0  0  0  0  0
   39.2270   30.6047   58.0440 O   0  0  0  0  0  0  0  0  0  0  0  0
   38.5855   29.4190   54.8679 O   0  0  0  0  0  0  0  0  0  0  0  0
   39.1659   28.2049   56.8491 N   0  0  0  0  0  0  0  0  0  0  0  0
  1  2  1  0
  2  3  1  0
  3  4  1  0
  3  5  2  0
  4  6  2  0
  4  7  1  0
M  END
>  <GenAI_Model>  (45) 
Pocket2Mol

>  <Protein>  (45) 
GPCR_5HT2C

>  <num_sample>  (45) 
50

$$$$
Pocket2Mol_45
     RDKit          3D

  5  5  0  0  0  0  0  0  0  0999 V2000
   38.2337   31.8199   55.5505 C   0  0  0  0  0  0  0  0  0  0  0  0
   38.4772   32.0168   56.8231 O   0  0  0  0  0  0  0  0  0  0  0  0
   38.6444   30.5093   55.2367 C   0  0  0  0  0  0  0  0  0  0  0  0
   38.6668   29.7364   56.4402 O   0  0  0  0  0  0  0  0  0  0  0  0
   38.5120   30.8222   57.4432 C   0  0  0  0  0  0  0  0  0  0  0  0
  1  2  1  0
  1  3  1  0
  3  4  1  0
  2  5  1  0
  4  5  1  0
M  END
>  <GenAI_Model>  (46) 
Pocket2Mol

>  <Protein>  (46) 
GPCR_5HT2C

>  <num_sample>  (46) 
50

$$$$
Pocket2Mol_46
     RDKit          3D

  5  4  0  0  0  0  0  0  0  0999 V2000
   38.0974   31.5465   55.2838 C   0  0  0  0  0  0  0  0  0  0  0  0
   38.6046   32.0608   56.4560 C   0  0  0  0  0  0  0  0  0  0  0  0
   38.0857   30.2185   55.3751 O   0  0  0  0  0  0  0  0  0  0  0  0
   38.0975   31.5415   57.6573 O   0  0  0  0  0  0  0  0  0  0  0  0
   38.1919   29.4630   54.3223 C   0  0  0  0  0  0  0  0  0  0  0  0
  1  2  1  0
  1  3  1  0
  2  4  1  0
  3  5  1  0
M  END
>  <GenAI_Model>  (47) 
Pocket2Mol

>  <Protein>  (47) 
GPCR_5HT2C

>  <num_sample>  (47) 
50

$$$$
Pocket2Mol_47
     RDKit          3D

  5  5  0  0  0  0  0  0  0  0999 V2000
   38.2337   31.8199   55.5505 C   0  0  0  0  0  0  0  0  0  0  0  0
   38.4791   31.4243   56.7319 C   0  0  0  0  0  0  0  0  0  0  0  0
   38.8221   30.1498   56.9112 C   0  0  0  0  0  0  0  0  0  0  0  0
   38.6587   30.8792   54.6101 C   0  0  0  0  0  0  0  0  0  0  0  0
   38.3988   29.6288   55.7110 C   0  0  0  0  0  0  0  0  0  0  0  0
  1  2  1  0
  2  3  1  0
  1  4  1  0
  3  5  1  0
  4  5  1  0
M  END
>  <GenAI_Model>  (48) 
Pocket2Mol

>  <Protein>  (48) 
GPCR_5HT2C

>  <num_sample>  (48) 
50

$$$$
Pocket2Mol_48
     RDKit          3D

  5  5  0  0  0  0  0  0  0  0999 V2000
   38.5324   32.1847   55.2978 C   0  0  0  0  0  0  0  0  0  0  0  0
   38.4811   31.7430   56.5574 C   0  0  0  0  0  0  0  0  0  0  0  0
   38.9104   31.1229   54.4253 C   0  0  0  0  0  0  0  0  0  0  0  0
   39.0584   29.9203   55.2923 C   0  0  0  0  0  0  0  0  0  0  0  0
   38.5596   30.3193   56.3991 N   0  0  0  0  0  0  0  0  0  0  0  0
  1  2  1  0
  1  3  1  0
  3  4  1  0
  2  5  1  0
  4  5  1  0
M  END
>  <GenAI_Model>  (49) 
Pocket2Mol

>  <Protein>  (49) 
GPCR_5HT2C

>  <num_sample>  (49) 
50

$$$$
Pocket2Mol_49
     RDKit          3D

  5  5  0  0  0  0  0  0  0  0999 V2000
   38.2337   31.8199   55.5505 C   0  0  0  0  0  0  0  0  0  0  0  0
   38.4772   32.0168   56.8231 O   0  0  0  0  0  0  0  0  0  0  0  0
   38.3513   31.1053   57.6727 C   0  0  0  0  0  0  0  0  0  0  0  0
   38.2103   30.5113   55.2142 C   0  0  0  0  0  0  0  0  0  0  0  0
   37.8330   30.0842   56.9869 C   0  0  0  0  0  0  0  0  0  0  0  0
  1  2  1  0
  2  3  1  0
  1  4  1  0
  3  5  1  0
  4  5  1  0
M  END
>  <GenAI_Model>  (50) 
Pocket2Mol

>  <Protein>  (50) 
GPCR_5HT2C

>  <num_sample>  (50) 
50

$$$$
