DiffSBDD_0
     RDKit          3D

 40 42  0  0  0  0  0  0  0  0999 V2000
    8.7450    6.4780  -12.0000 C   0  0  0  0  0  0  0  0  0  0  0  0
    8.9110    6.1200  -10.7810 N   0  0  0  0  0  0  0  0  0  0  0  0
    8.2940    4.9330  -10.0370 C   0  0  0  0  0  0  0  0  0  0  0  0
    8.6710    5.4400   -8.7160 C   0  0  0  0  0  0  0  0  0  0  0  0
    9.7010    6.5330   -8.7410 C   0  0  0  0  0  0  0  0  0  0  0  0
   10.3570    7.1210   -7.8190 N   0  0  0  0  0  0  0  0  0  0  0  0
   11.2420    8.0930   -8.1490 C   0  0  0  0  0  0  0  0  0  0  0  0
   12.0750    9.0840   -7.2070 C   0  0  0  0  0  0  0  0  0  0  0  0
   11.4840    8.9350   -5.5220 S   0  0  1  0  0  4  0  0  0  0  0  0
   11.3520    7.2640   -4.8270 C   0  0  0  0  0  0  0  0  0  0  0  0
   12.1010    7.2970   -3.5450 C   0  0  0  0  0  0  0  0  0  0  0  0
   12.5890    8.4990   -3.4510 C   0  0  2  0  0  0  0  0  0  0  0  0
   12.0150    9.4900   -2.5840 C   0  0  0  0  0  0  0  0  0  0  0  0
   12.3590    9.1650   -1.2950 O   0  0  0  0  0  0  0  0  0  0  0  0
   13.1300    9.2140   -4.6440 C   0  0  0  0  0  0  0  0  0  0  0  0
   11.3770    8.3020   -9.5180 C   0  0  0  0  0  0  0  0  0  0  0  0
   10.6910    7.6100  -10.4380 C   0  0  0  0  0  0  0  0  0  0  0  0
    9.7740    6.7920  -10.0940 C   0  0  0  0  0  0  0  0  0  0  0  0
    8.2824    7.4756  -12.0294 H   0  0  0  0  0  0  0  0  0  0  0  0
    9.7198    6.5107  -12.5085 H   0  0  0  0  0  0  0  0  0  0  0  0
    8.0902    5.7551  -12.5085 H   0  0  0  0  0  0  0  0  0  0  0  0
    7.2059    4.8517  -10.1763 H   0  0  0  0  0  0  0  0  0  0  0  0
    8.6124    3.9181  -10.3174 H   0  0  0  0  0  0  0  0  0  0  0  0
    7.7667    5.8308   -8.2267 H   0  0  0  0  0  0  0  0  0  0  0  0
    9.1221    4.5963   -8.1732 H   0  0  0  0  0  0  0  0  0  0  0  0
   13.1419    8.8191   -7.2471 H   0  0  0  0  0  0  0  0  0  0  0  0
   11.9435   10.1196   -7.5536 H   0  0  0  0  0  0  0  0  0  0  0  0
   10.3170    9.6480   -5.4270 H   0  0  0  0  0  0  0  0  0  0  0  0
   10.2978    7.0061   -4.6479 H   0  0  0  0  0  0  0  0  0  0  0  0
   11.7592    6.5073   -5.5137 H   0  0  0  0  0  0  0  0  0  0  0  0
   11.4259    7.0905   -2.7014 H   0  0  0  0  0  0  0  0  0  0  0  0
   12.8937    6.5348   -3.5193 H   0  0  0  0  0  0  0  0  0  0  0  0
   13.4145    8.0087   -2.9142 H   0  0  0  0  0  0  0  0  0  0  0  0
   12.4103   10.4846   -2.8381 H   0  0  0  0  0  0  0  0  0  0  0  0
   10.9211    9.5143   -2.6969 H   0  0  0  0  0  0  0  0  0  0  0  0
   13.2540    8.7420   -1.2900 H   0  0  0  0  0  0  0  0  0  0  0  0
   13.3740   10.2716   -4.4655 H   0  0  0  0  0  0  0  0  0  0  0  0
   14.0772    8.9014   -5.1078 H   0  0  0  0  0  0  0  0  0  0  0  0
   12.0817    9.0734   -9.8621 H   0  0  0  0  0  0  0  0  0  0  0  0
   10.9216    7.7491  -11.5045 H   0  0  0  0  0  0  0  0  0  0  0  0
  1  2  1  0
  2  3  1  0
  3  4  1  0
  4  5  1  0
  5  6  2  0
  6  7  1  0
  7  8  1  0
  8  9  1  0
  9 10  1  0
 10 11  1  0
 11 12  1  0
 12 13  1  0
 13 14  1  0
 12 15  1  0
  7 16  2  0
 16 17  1  0
 17 18  2  0
 18  2  1  0
 18  5  1  0
 15  9  1  0
  1 19  1  0
  1 20  1  0
  1 21  1  0
  3 22  1  0
  3 23  1  0
  4 24  1  0
  4 25  1  0
  8 26  1  0
  8 27  1  0
  9 28  1  1
 10 29  1  0
 10 30  1  0
 11 31  1  0
 11 32  1  0
 12 33  1  1
 13 34  1  0
 13 35  1  0
 14 36  1  0
 15 37  1  0
 15 38  1  0
 16 39  1  0
 17 40  1  0
M  END
>  <docking_score>  (1) 
-7.45

>  <plif_similarity>  (1) 
0.286

$$$$
DiffSBDD_10
     RDKit          3D

 54 58  0  0  0  0  0  0  0  0999 V2000
    9.7880    4.6950   -8.4540 O   0  0  0  0  0  0  0  0  0  0  0  0
    9.6230    6.0770   -8.2860 C   0  0  0  0  0  0  0  0  0  0  0  0
    9.7470    6.8420   -7.0750 C   0  0  0  0  0  0  0  0  0  0  0  0
   11.2110    6.8780   -6.7940 C   0  0  0  0  0  0  0  0  0  0  0  0
   11.6800    8.2630   -6.3310 C   0  0  0  0  0  0  0  0  0  0  0  0
   11.9150    7.9760   -4.7020 C   0  0  0  0  0  0  0  0  0  0  0  0
   11.5640    6.7810   -4.0540 C   0  0  0  0  0  0  0  0  0  0  0  0
   11.7680    6.6570   -2.7080 C   0  0  0  0  0  0  0  0  0  0  0  0
   12.1780    7.8180   -1.9650 C   0  0  0  0  0  0  0  0  0  0  0  0
   12.4040    8.8980   -2.6650 C   0  0  0  0  0  0  0  0  0  0  0  0
   12.3000    9.0740   -4.0210 C   0  0  0  0  0  0  0  0  0  0  0  0
   12.4570    9.5280   -6.5390 C   0  0  0  0  0  0  0  0  0  0  0  0
   11.2880    9.2550   -7.4590 C   0  0  0  0  0  0  0  0  0  0  0  0
    9.0420    6.9920   -9.1280 N   0  0  0  0  0  0  0  0  0  0  0  0
    9.4730    7.3630  -10.5830 S   0  0  0  0  0  0  0  0  0  0  0  0
   10.9380    6.9670  -10.5960 O   0  0  0  0  0  0  0  0  0  0  0  0
    8.8210    8.7910  -10.8940 O   0  0  0  0  0  0  0  0  0  0  0  0
    9.1650    6.4020  -11.8250 N   0  0  0  0  0  0  0  0  0  0  0  0
    7.9170    5.5830  -12.0320 C   0  0  1  0  0  0  0  0  0  0  0  0
    8.2720    4.1830  -12.1890 C   0  0  0  0  0  0  0  0  0  0  0  0
    7.5970    4.5940  -10.9290 C   0  0  2  0  0  0  0  0  0  0  0  0
    6.0470    4.2350  -11.1260 C   0  0  0  0  0  0  0  0  0  0  0  0
    5.4470    4.2960  -12.5730 C   0  0  0  0  0  0  0  0  0  0  0  0
    5.9000    5.4540  -13.3430 C   0  0  2  0  0  0  0  0  0  0  0  0
    5.6620    6.0520  -14.4540 C   0  0  0  0  0  0  0  0  0  0  0  0
    6.6950    7.0030  -14.7040 C   0  0  0  0  0  0  0  0  0  0  0  0
    7.1600    7.4610  -13.4150 O   0  0  0  0  0  0  0  0  0  0  0  0
    6.8260    6.3860  -12.6150 C   0  0  2  0  0  0  0  0  0  0  0  0
    9.3549    7.8598   -7.2180 H   0  0  0  0  0  0  0  0  0  0  0  0
    9.1761    6.4001   -6.2450 H   0  0  0  0  0  0  0  0  0  0  0  0
   11.4381    6.1455   -6.0054 H   0  0  0  0  0  0  0  0  0  0  0  0
   11.7394    6.6383   -7.7285 H   0  0  0  0  0  0  0  0  0  0  0  0
   11.1273    5.9492   -4.6262 H   0  0  0  0  0  0  0  0  0  0  0  0
   11.6217    5.6902   -2.2042 H   0  0  0  0  0  0  0  0  0  0  0  0
   12.2945    7.7981   -0.8714 H   0  0  0  0  0  0  0  0  0  0  0  0
   12.7190    9.7820   -2.0912 H   0  0  0  0  0  0  0  0  0  0  0  0
   12.5136   10.0341   -4.5136 H   0  0  0  0  0  0  0  0  0  0  0  0
   12.3882   10.3372   -5.7970 H   0  0  0  0  0  0  0  0  0  0  0  0
   13.5212    9.7550   -6.7001 H   0  0  0  0  0  0  0  0  0  0  0  0
   10.3674    9.8515   -7.3770 H   0  0  0  0  0  0  0  0  0  0  0  0
   11.1424    9.1903   -8.5474 H   0  0  0  0  0  0  0  0  0  0  0  0
    7.7310    3.5629  -12.9190 H   0  0  0  0  0  0  0  0  0  0  0  0
    9.2074    3.6514  -12.4182 H   0  0  0  0  0  0  0  0  0  0  0  0
    7.7888    4.4972   -9.8502 H   0  0  0  0  0  0  0  0  0  0  0  0
    5.9009    3.2094  -10.7560 H   0  0  0  0  0  0  0  0  0  0  0  0
    5.5139    5.0259  -10.5780 H   0  0  0  0  0  0  0  0  0  0  0  0
    5.7416    3.3830  -13.1111 H   0  0  0  0  0  0  0  0  0  0  0  0
    4.3556    4.3837  -12.4678 H   0  0  0  0  0  0  0  0  0  0  0  0
    5.1460    6.0806  -12.8442 H   0  0  0  0  0  0  0  0  0  0  0  0
    5.6346    5.3151  -15.2702 H   0  0  0  0  0  0  0  0  0  0  0  0
    4.6913    6.5663  -14.3969 H   0  0  0  0  0  0  0  0  0  0  0  0
    7.5193    6.5302  -15.2581 H   0  0  0  0  0  0  0  0  0  0  0  0
    6.3219    7.8415  -15.3103 H   0  0  0  0  0  0  0  0  0  0  0  0
    6.3559    6.8837  -11.7540 H   0  0  0  0  0  0  0  0  0  0  0  0
  1  2  2  0
  2  3  1  0
  3  4  1  0
  4  5  1  0
  5  6  1  0
  6  7  2  0
  7  8  1  0
  8  9  2  0
  9 10  1  0
 10 11  2  0
  5 12  1  0
 12 13  1  0
  2 14  1  0
 14 15  1  0
 15 16  2  0
 15 17  2  0
 15 18  1  0
 19 18  1  1
 19 20  1  0
 20 21  1  0
 21 22  1  0
 22 23  1  0
 23 24  1  0
 24 25  1  0
 25 26  1  0
 26 27  1  0
 27 28  1  0
 13  5  1  0
 21 19  1  0
 28 24  1  0
 11  6  1  0
 28 19  1  0
  3 29  1  0
  3 30  1  0
  4 31  1  0
  4 32  1  0
  7 33  1  0
  8 34  1  0
  9 35  1  0
 10 36  1  0
 11 37  1  0
 12 38  1  0
 12 39  1  0
 13 40  1  0
 13 41  1  0
 20 42  1  0
 20 43  1  0
 21 44  1  1
 22 45  1  0
 22 46  1  0
 23 47  1  0
 23 48  1  0
 24 49  1  6
 25 50  1  0
 25 51  1  0
 26 52  1  0
 26 53  1  0
 28 54  1  1
M  CHG  2  14  -1  18  -1
M  END
>  <docking_score>  (2) 
-9.639

>  <plif_similarity>  (2) 
0.429

$$$$
DiffSBDD_11
     RDKit          3D

 44 44  0  0  0  0  0  0  0  0999 V2000
    8.9540    4.7680  -11.3040 C   0  0  0  0  0  0  0  0  0  0  0  0
    8.6550    5.4910  -10.0020 C   0  0  0  0  0  0  0  0  0  0  0  0
    9.7590    6.2770   -9.5250 N   0  0  2  0  0  0  0  0  0  0  0  0
    9.9280    5.9350   -8.1920 C   0  0  0  0  0  0  0  0  0  0  0  0
   10.7730    6.8540   -7.3820 C   0  0  0  0  0  0  0  0  0  0  0  0
   10.9820    6.5390   -5.9230 C   0  0  0  0  0  0  0  0  0  0  0  0
   11.3790    7.9900   -7.9470 C   0  0  1  0  0  0  0  0  0  0  0  0
   12.2640    8.8550   -7.1480 C   0  0  0  0  0  0  0  0  0  0  0  0
   12.0220   10.0280   -6.4800 C   0  0  0  0  0  0  0  0  0  0  0  0
   11.3090   10.0200   -4.8700 S   0  0  0  0  0  0  0  0  0  0  0  0
   12.6280    9.2080   -4.0380 C   0  0  0  0  0  0  0  0  0  0  0  0
   12.1590    8.5360   -2.7050 C   0  0  1  0  0  0  0  0  0  0  0  0
   12.3740    6.9610   -2.6170 C   0  0  0  0  0  0  0  0  0  0  0  0
   12.4190    9.2110   -1.5180 N   0  0  0  0  0  0  0  0  0  0  0  0
   11.0170    8.3220   -9.3390 C   0  0  0  0  0  0  0  0  0  0  0  0
    9.6940    7.7350   -9.7520 C   0  0  0  0  0  0  0  0  0  0  0  0
    9.3659    3.7720  -11.0841 H   0  0  0  0  0  0  0  0  0  0  0  0
    8.0263    4.6610  -11.8854 H   0  0  0  0  0  0  0  0  0  0  0  0
    9.6863    5.3474  -11.8854 H   0  0  0  0  0  0  0  0  0  0  0  0
    7.7945    6.1574  -10.1617 H   0  0  0  0  0  0  0  0  0  0  0  0
    8.4475    4.7234   -9.2419 H   0  0  0  0  0  0  0  0  0  0  0  0
   10.5870    6.0460  -10.0930 H   0  0  0  0  0  0  0  0  0  0  0  0
    9.4644    5.0366   -7.7584 H   0  0  0  0  0  0  0  0  0  0  0  0
   10.4778    7.2989   -5.3079 H   0  0  0  0  0  0  0  0  0  0  0  0
   10.5620    5.5475   -5.6981 H   0  0  0  0  0  0  0  0  0  0  0  0
   12.0588    6.5406   -5.6981 H   0  0  0  0  0  0  0  0  0  0  0  0
   10.5136    8.6000   -7.6488 H   0  0  0  0  0  0  0  0  0  0  0  0
   12.6502    8.1838   -6.3667 H   0  0  0  0  0  0  0  0  0  0  0  0
   12.8136    9.2961   -7.9926 H   0  0  0  0  0  0  0  0  0  0  0  0
   12.9896   10.5438   -6.3917 H   0  0  0  0  0  0  0  0  0  0  0  0
   11.2379   10.4988   -7.0911 H   0  0  0  0  0  0  0  0  0  0  0  0
   13.0408    8.4325   -4.7000 H   0  0  0  0  0  0  0  0  0  0  0  0
   13.3865    9.9642   -3.7872 H   0  0  0  0  0  0  0  0  0  0  0  0
   11.0713    8.6659   -2.8053 H   0  0  0  0  0  0  0  0  0  0  0  0
   12.4158    6.6551   -1.5612 H   0  0  0  0  0  0  0  0  0  0  0  0
   11.5375    6.4484   -3.1145 H   0  0  0  0  0  0  0  0  0  0  0  0
   13.3173    6.6913   -3.1145 H   0  0  0  0  0  0  0  0  0  0  0  0
   12.6420   10.1950   -1.7240 H   0  0  0  0  0  0  0  0  0  0  0  0
   11.5890    9.1680   -0.9090 H   0  0  0  0  0  0  0  0  0  0  0  0
   13.2190    8.7710   -1.0410 H   0  0  0  0  0  0  0  0  0  0  0  0
   10.9621    9.4163   -9.4367 H   0  0  0  0  0  0  0  0  0  0  0  0
   11.7894    7.8928   -9.9941 H   0  0  0  0  0  0  0  0  0  0  0  0
    8.8852    8.1724   -9.1482 H   0  0  0  0  0  0  0  0  0  0  0  0
    9.4905    7.9512  -10.8112 H   0  0  0  0  0  0  0  0  0  0  0  0
  1  2  1  0
  2  3  1  0
  3  4  1  0
  4  5  2  0
  5  6  1  0
  5  7  1  0
  7  8  1  0
  8  9  1  0
  9 10  1  0
 10 11  1  0
 11 12  1  0
 12 13  1  0
 12 14  1  0
  7 15  1  0
 15 16  1  0
 16  3  1  0
  1 17  1  0
  1 18  1  0
  1 19  1  0
  2 20  1  0
  2 21  1  0
  3 22  1  6
  4 23  1  0
  6 24  1  0
  6 25  1  0
  6 26  1  0
  7 27  1  6
  8 28  1  0
  8 29  1  0
  9 30  1  0
  9 31  1  0
 11 32  1  0
 11 33  1  0
 12 34  1  6
 13 35  1  0
 13 36  1  0
 13 37  1  0
 14 38  1  0
 14 39  1  0
 14 40  1  0
 15 41  1  0
 15 42  1  0
 16 43  1  0
 16 44  1  0
M  CHG  2   3   1  14   1
M  END
>  <docking_score>  (3) 
-7.194

>  <plif_similarity>  (3) 
0.429

$$$$
DiffSBDD_13
     RDKit          3D

 59 62  0  0  0  0  0  0  0  0999 V2000
    8.2260    5.5420  -16.9320 N   0  0  0  0  0  0  0  0  0  0  0  0
    6.9840    5.0450  -16.5490 C   0  0  2  0  0  0  0  0  0  0  0  0
    6.3510    4.6890  -18.0680 C   0  0  0  0  0  0  0  0  0  0  0  0
    5.7530    6.0490  -18.6980 C   0  0  0  0  0  0  0  0  0  0  0  0
    5.5160    7.1010  -17.6760 C   0  0  0  0  0  0  0  0  0  0  0  0
    5.9550    7.3120  -16.2000 C   0  0  0  0  0  0  0  0  0  0  0  0
    6.1350    5.9020  -15.4450 C   0  0  2  0  0  0  0  0  0  0  0  0
    6.3210    5.6310  -14.1060 C   0  0  0  0  0  0  0  0  0  0  0  0
    5.5870    4.6690  -13.4320 C   0  0  0  0  0  0  0  0  0  0  0  0
    5.8810    4.3290  -12.0610 C   0  0  0  0  0  0  0  0  0  0  0  0
    6.8970    5.0010  -11.3060 C   0  0  0  0  0  0  0  0  0  0  0  0
    7.1430    4.7790   -9.9980 O   0  0  0  0  0  0  0  0  0  0  0  0
    7.6060    6.0070  -12.1000 C   0  0  0  0  0  0  0  0  0  0  0  0
    8.7640    6.6020  -11.5550 O   0  0  0  0  0  0  0  0  0  0  0  0
    9.0690    7.8310  -11.3430 C   0  0  1  0  0  0  0  0  0  0  0  0
    8.3470    9.0260  -11.2640 N   0  0  0  0  0  0  0  0  0  0  0  0
    9.4770    7.3130  -10.0620 C   0  0  0  0  0  0  0  0  0  0  0  0
   10.8910    7.7260  -10.2520 N   0  0  2  0  0  0  0  0  0  0  0  0
   12.0300    7.5880  -11.0770 C   0  0  0  0  0  0  0  0  0  0  0  0
   13.0570    8.0930  -10.2230 C   0  0  0  0  0  0  0  0  0  0  0  0
   12.4650    8.3870   -9.0210 C   0  0  0  0  0  0  0  0  0  0  0  0
   11.1010    8.2550   -9.1620 C   0  0  0  0  0  0  0  0  0  0  0  0
   10.3390    8.2160   -8.1070 N   0  0  0  0  0  0  0  0  0  0  0  0
   11.1990    8.4280   -7.0480 C   0  0  0  0  0  0  0  0  0  0  0  0
   10.8000    8.0410   -5.8020 O   0  0  0  0  0  0  0  0  0  0  0  0
   10.8520    6.6950   -5.6570 C   0  0  0  0  0  0  0  0  0  0  0  0
   11.0690    6.3210   -4.4230 F   0  0  0  0  0  0  0  0  0  0  0  0
   11.7440    6.0600   -6.4440 F   0  0  0  0  0  0  0  0  0  0  0  0
    9.6640    6.2710   -6.0930 F   0  0  0  0  0  0  0  0  0  0  0  0
   12.4650    8.6760   -7.5740 C   0  0  0  0  0  0  0  0  0  0  0  0
    7.3680    6.3670  -13.4030 C   0  0  0  0  0  0  0  0  0  0  0  0
    8.4880    5.1440  -17.8460 H   0  0  0  0  0  0  0  0  0  0  0  0
    8.1780    6.5680  -17.0050 H   0  0  0  0  0  0  0  0  0  0  0  0
    8.9320    5.2810  -16.2290 H   0  0  0  0  0  0  0  0  0  0  0  0
    6.9874    4.1650  -15.8890 H   0  0  0  0  0  0  0  0  0  0  0  0
    7.1453    4.2951  -18.7191 H   0  0  0  0  0  0  0  0  0  0  0  0
    5.5587    3.9309  -17.9807 H   0  0  0  0  0  0  0  0  0  0  0  0
    6.4660    6.4353  -19.4413 H   0  0  0  0  0  0  0  0  0  0  0  0
    4.7819    5.8043  -19.1530 H   0  0  0  0  0  0  0  0  0  0  0  0
    5.8836    8.0111  -18.1726 H   0  0  0  0  0  0  0  0  0  0  0  0
    4.4981    6.7665  -17.4272 H   0  0  0  0  0  0  0  0  0  0  0  0
    6.9121    7.8538  -16.1833 H   0  0  0  0  0  0  0  0  0  0  0  0
    5.1759    7.8903  -15.6817 H   0  0  0  0  0  0  0  0  0  0  0  0
    5.1241    5.6123  -15.1224 H   0  0  0  0  0  0  0  0  0  0  0  0
    4.7649    4.1548  -13.9515 H   0  0  0  0  0  0  0  0  0  0  0  0
    5.3051    3.5257  -11.5783 H   0  0  0  0  0  0  0  0  0  0  0  0
    7.1640    3.8530   -9.6490 H   0  0  0  0  0  0  0  0  0  0  0  0
    9.5756    8.3285  -12.1831 H   0  0  0  0  0  0  0  0  0  0  0  0
    7.8200    9.1670  -12.1370 H   0  0  0  0  0  0  0  0  0  0  0  0
    7.6920    8.9790  -10.4710 H   0  0  0  0  0  0  0  0  0  0  0  0
    8.9990    9.8120  -11.1240 H   0  0  0  0  0  0  0  0  0  0  0  0
    8.9869    7.8123   -9.2132 H   0  0  0  0  0  0  0  0  0  0  0  0
    9.2617    6.2605   -9.8254 H   0  0  0  0  0  0  0  0  0  0  0  0
   10.8330    7.5950  -11.2720 H   0  0  0  0  0  0  0  0  0  0  0  0
   12.1053    7.1965  -12.1022 H   0  0  0  0  0  0  0  0  0  0  0  0
   14.1189    8.2216  -10.4797 H   0  0  0  0  0  0  0  0  0  0  0  0
   12.7286    9.7315   -7.4115 H   0  0  0  0  0  0  0  0  0  0  0  0
   13.2017    8.0311   -7.0726 H   0  0  0  0  0  0  0  0  0  0  0  0
    7.9377    7.1701  -13.8933 H   0  0  0  0  0  0  0  0  0  0  0  0
  1  2  1  0
  2  3  1  0
  3  4  1  0
  4  5  1  0
  5  6  1  0
  6  7  1  0
  7  8  1  0
  8  9  1  0
  9 10  2  0
 10 11  1  0
 11 12  1  0
 11 13  2  0
 13 14  1  0
 14 15  1  0
 15 16  1  0
 15 17  1  0
 17 18  1  0
 18 19  1  0
 19 20  2  0
 20 21  1  0
 21 22  2  0
 22 23  1  0
 23 24  2  0
 24 25  1  0
 25 26  1  0
 26 27  1  0
 26 28  1  0
 26 29  1  0
 24 30  1  0
 13 31  1  0
  7  2  1  0
 31  8  2  0
 22 18  1  0
 30 21  1  0
  1 32  1  0
  1 33  1  0
  1 34  1  0
  2 35  1  1
  3 36  1  0
  3 37  1  0
  4 38  1  0
  4 39  1  0
  5 40  1  0
  5 41  1  0
  6 42  1  0
  6 43  1  0
  7 44  1  6
  9 45  1  0
 10 46  1  0
 12 47  1  0
 15 48  1  6
 16 49  1  0
 16 50  1  0
 16 51  1  0
 17 52  1  0
 17 53  1  0
 18 54  1  6
 19 55  1  0
 20 56  1  0
 30 57  1  0
 30 58  1  0
 31 59  1  0
M  CHG  3   1   1  16   1  18   1
M  END
>  <docking_score>  (4) 
-9.632

>  <plif_similarity>  (4) 
0.429

$$$$
DiffSBDD_14
     RDKit          3D

 48 49  0  0  0  0  0  0  0  0999 V2000
    6.2320    6.9880  -13.6460 C   0  0  0  0  0  0  0  0  0  0  0  0
    6.6690    5.5820  -13.1840 C   0  0  0  0  0  0  0  0  0  0  0  0
    7.3270    4.6680  -14.2680 C   0  0  0  0  0  0  0  0  0  0  0  0
    5.4750    4.8270  -12.9070 C   0  0  0  0  0  0  0  0  0  0  0  0
    5.7660    4.2570  -11.4330 C   0  0  0  0  0  0  0  0  0  0  0  0
    6.7850    5.1410  -10.9300 N   0  0  0  0  0  0  0  0  0  0  0  0
    7.6110    5.6850  -12.0880 C   0  0  2  0  0  0  0  0  0  0  0  0
    8.9110    5.9610  -11.4960 C   0  0  0  0  0  0  0  0  0  0  0  0
    9.9190    6.1040  -12.1820 O   0  0  0  0  0  0  0  0  0  0  0  0
    8.9320    6.2500  -10.1380 N   0  0  0  0  0  0  0  0  0  0  0  0
    9.8300    7.2570   -9.7310 C   0  0  0  0  0  0  0  0  0  0  0  0
   10.1340    7.5840   -8.4310 C   0  0  0  0  0  0  0  0  0  0  0  0
   10.5750    6.4760   -7.5600 C   0  0  0  0  0  0  0  0  0  0  0  0
   11.1840    7.1010   -6.3130 C   0  0  0  0  0  0  0  0  0  0  0  0
   11.2490    6.4150   -5.1790 C   0  0  0  0  0  0  0  0  0  0  0  0
   11.6220    7.1760   -4.0310 C   0  0  0  0  0  0  0  0  0  0  0  0
   11.9180    8.5550   -4.0380 C   0  0  0  0  0  0  0  0  0  0  0  0
   12.2180    9.2450   -2.9670 N   0  0  0  0  0  0  0  0  0  0  0  0
   12.8210    8.7150   -2.0010 N   0  0  0  0  0  0  0  0  0  0  0  0
   11.7700   10.5200   -3.0080 O   0  0  0  0  0  0  0  0  0  0  0  0
   11.9310    9.1790   -5.2550 C   0  0  0  0  0  0  0  0  0  0  0  0
   11.5230    8.4450   -6.4300 C   0  0  0  0  0  0  0  0  0  0  0  0
    6.0360    7.6186  -12.7663 H   0  0  0  0  0  0  0  0  0  0  0  0
    7.0319    7.4404  -14.2505 H   0  0  0  0  0  0  0  0  0  0  0  0
    5.3166    6.9073  -14.2505 H   0  0  0  0  0  0  0  0  0  0  0  0
    7.9015    3.8699  -13.7751 H   0  0  0  0  0  0  0  0  0  0  0  0
    6.5423    4.2207  -14.8959 H   0  0  0  0  0  0  0  0  0  0  0  0
    8.0002    5.2702  -14.8959 H   0  0  0  0  0  0  0  0  0  0  0  0
    4.5843    5.4724  -12.9161 H   0  0  0  0  0  0  0  0  0  0  0  0
    5.2669    4.0428  -13.6498 H   0  0  0  0  0  0  0  0  0  0  0  0
    4.8620    4.3018  -10.8078 H   0  0  0  0  0  0  0  0  0  0  0  0
    6.0746    3.2012  -11.4335 H   0  0  0  0  0  0  0  0  0  0  0  0
    6.3420    5.9230  -10.4280 H   0  0  0  0  0  0  0  0  0  0  0  0
    7.4000    4.6200  -10.2890 H   0  0  0  0  0  0  0  0  0  0  0  0
    7.9394    4.6642  -12.3333 H   0  0  0  0  0  0  0  0  0  0  0  0
    8.3250    5.7570   -9.4660 H   0  0  0  0  0  0  0  0  0  0  0  0
   10.3318    7.8318  -10.5233 H   0  0  0  0  0  0  0  0  0  0  0  0
   10.9399    8.3324   -8.4541 H   0  0  0  0  0  0  0  0  0  0  0  0
    9.1911    7.9424   -7.9922 H   0  0  0  0  0  0  0  0  0  0  0  0
    9.7153    5.8471   -7.2853 H   0  0  0  0  0  0  0  0  0  0  0  0
   11.3088    5.8402   -8.0771 H   0  0  0  0  0  0  0  0  0  0  0  0
   11.0312    5.3380   -5.1276 H   0  0  0  0  0  0  0  0  0  0  0  0
   11.6833    6.6475   -3.0683 H   0  0  0  0  0  0  0  0  0  0  0  0
   12.2610    8.8270   -1.1440 H   0  0  0  0  0  0  0  0  0  0  0  0
   12.9600    7.7120   -2.1920 H   0  0  0  0  0  0  0  0  0  0  0  0
   11.5560   10.7650   -3.9430 H   0  0  0  0  0  0  0  0  0  0  0  0
   12.2488   10.2288   -5.3380 H   0  0  0  0  0  0  0  0  0  0  0  0
   11.4807    8.9445   -7.4091 H   0  0  0  0  0  0  0  0  0  0  0  0
  1  2  1  0
  2  3  1  0
  2  4  1  0
  4  5  1  0
  5  6  1  0
  6  7  1  0
  7  8  1  0
  8  9  2  0
  8 10  1  0
 10 11  2  3
 11 12  1  0
 12 13  1  0
 13 14  1  0
 14 15  1  0
 15 16  2  0
 16 17  1  0
 17 18  1  0
 18 19  1  0
 18 20  1  0
 17 21  2  0
 21 22  1  0
  7  2  1  0
 22 14  2  0
  1 23  1  0
  1 24  1  0
  1 25  1  0
  3 26  1  0
  3 27  1  0
  3 28  1  0
  4 29  1  0
  4 30  1  0
  5 31  1  0
  5 32  1  0
  6 33  1  0
  6 34  1  0
  7 35  1  1
 10 36  1  0
 11 37  1  0
 12 38  1  0
 12 39  1  0
 13 40  1  0
 13 41  1  0
 15 42  1  0
 16 43  1  0
 19 44  1  0
 19 45  1  0
 20 46  1  0
 21 47  1  0
 22 48  1  0
M  CHG  2   6   1  10   1
M  END
>  <docking_score>  (5) 
-9.267

>  <plif_similarity>  (5) 
0.571

$$$$
DiffSBDD_15
     RDKit          3D

 79 80  0  0  0  0  0  0  0  0999 V2000
   12.7610    8.1630   -1.2040 C   0  0  0  0  0  0  0  0  0  0  0  0
   12.3320    7.0850   -2.3470 C   0  0  0  0  0  0  0  0  0  0  0  0
   12.2200    7.8940   -3.4180 C   0  0  0  0  0  0  0  0  0  0  0  0
   11.2460    7.8030   -4.4900 C   0  0  1  0  0  0  0  0  0  0  0  0
   11.7070    9.0580   -5.3700 C   0  0  0  0  0  0  0  0  0  0  0  0
   12.4930    9.6240   -6.4850 C   0  0  0  0  0  0  0  0  0  0  0  0
   13.2390    9.3730   -7.2530 O   0  0  0  0  0  0  0  0  0  0  0  0
   11.5620    6.5440   -5.2140 C   0  0  0  0  0  0  0  0  0  0  0  0
   10.6670    6.7610   -6.5590 C   0  0  0  0  0  0  0  0  0  0  0  0
    9.8690    6.5680   -7.8320 C   0  0  0  0  0  0  0  0  0  0  0  0
    8.9390    5.4670   -7.9700 C   0  0  0  0  0  0  0  0  0  0  0  0
    8.4770    4.9810   -9.2650 C   0  0  0  0  0  0  0  0  0  0  0  0
    9.0920    5.4790  -10.5980 C   0  0  0  0  0  0  0  0  0  0  0  0
    8.9430    4.4700  -11.8510 C   0  0  0  0  0  0  0  0  0  0  0  0
    8.1090    3.5750  -12.5310 C   0  0  0  0  0  0  0  0  0  0  0  0
    6.5740    3.3130  -13.1130 C   0  0  2  0  0  0  0  0  0  0  0  0
    5.9300    4.6240  -12.7270 C   0  0  0  0  0  0  0  0  0  0  0  0
    5.8330    5.0720  -11.6340 O   0  0  0  0  0  0  0  0  0  0  0  0
    5.7310    5.1110  -13.9960 N   0  0  0  0  0  0  0  0  0  0  0  0
    6.6250    5.7120  -14.9550 C   0  0  0  0  0  0  0  0  0  0  0  0
    7.7050    5.7740  -14.6110 O   0  0  0  0  0  0  0  0  0  0  0  0
    6.0580    6.2730  -16.2330 C   0  0  0  0  0  0  0  0  0  0  0  0
    4.8250    6.9640  -16.4670 C   0  0  0  0  0  0  0  0  0  0  0  0
    4.3860    7.4540  -17.5270 C   0  0  0  0  0  0  0  0  0  0  0  0
    5.1140    7.3540  -18.6100 C   0  0  0  0  0  0  0  0  0  0  0  0
    4.5270    7.9180  -19.7880 F   0  0  0  0  0  0  0  0  0  0  0  0
    6.1710    6.5160  -18.6010 C   0  0  0  0  0  0  0  0  0  0  0  0
    6.6920    5.9630  -17.4230 C   0  0  0  0  0  0  0  0  0  0  0  0
    7.6850    4.6560  -17.0090 S   0  0  0  0  0  0  0  0  0  0  0  0
    9.0960    4.9060  -17.6550 C   0  0  0  0  0  0  0  0  0  0  0  0
   10.4540    4.7700  -16.9760 C   0  0  2  0  0  0  0  0  0  0  0  0
   10.1400    5.1210  -15.6550 O   0  0  0  0  0  0  0  0  0  0  0  0
   11.4670    5.6270  -17.6040 C   0  0  0  0  0  0  0  0  0  0  0  0
   12.3060    6.2300  -16.6610 O   0  0  0  0  0  0  0  0  0  0  0  0
    6.5050    1.8980  -13.2620 C   0  0  1  0  0  0  0  0  0  0  0  0
    5.4660    1.2350  -13.9990 C   0  0  0  0  0  0  0  0  0  0  0  0
    7.6660    1.1670  -13.0590 O   0  0  0  0  0  0  0  0  0  0  0  0
    9.6960    6.8490  -10.0240 C   0  0  0  0  0  0  0  0  0  0  0  0
   10.3110    7.2660   -8.8210 C   0  0  0  0  0  0  0  0  0  0  0  0
   11.3570    7.7230   -8.9580 F   0  0  0  0  0  0  0  0  0  0  0  0
   12.5885    7.7294   -0.2079 H   0  0  0  0  0  0  0  0  0  0  0  0
   13.8266    8.4117   -1.3161 H   0  0  0  0  0  0  0  0  0  0  0  0
   12.1576    9.0759   -1.3161 H   0  0  0  0  0  0  0  0  0  0  0  0
   13.1083    6.3199   -2.4954 H   0  0  0  0  0  0  0  0  0  0  0  0
   11.4266    6.5055   -2.1137 H   0  0  0  0  0  0  0  0  0  0  0  0
   12.0834    8.9013   -2.9976 H   0  0  0  0  0  0  0  0  0  0  0  0
   13.1166    7.5763   -3.9704 H   0  0  0  0  0  0  0  0  0  0  0  0
   10.1800    7.8033   -4.2187 H   0  0  0  0  0  0  0  0  0  0  0  0
   10.7128    9.4187   -5.6723 H   0  0  0  0  0  0  0  0  0  0  0  0
   12.5929    9.1560   -4.7254 H   0  0  0  0  0  0  0  0  0  0  0  0
   12.2383   10.6895   -6.5836 H   0  0  0  0  0  0  0  0  0  0  0  0
   12.6344    6.4640   -5.4454 H   0  0  0  0  0  0  0  0  0  0  0  0
   11.3451    5.6210   -4.6562 H   0  0  0  0  0  0  0  0  0  0  0  0
    9.8625    7.3002   -6.0375 H   0  0  0  0  0  0  0  0  0  0  0  0
   11.5582    6.4724   -7.1357 H   0  0  0  0  0  0  0  0  0  0  0  0
    8.5650    4.9762   -7.0593 H   0  0  0  0  0  0  0  0  0  0  0  0
    7.6667    4.2377   -9.2969 H   0  0  0  0  0  0  0  0  0  0  0  0
    9.1824    5.1603  -12.6733 H   0  0  0  0  0  0  0  0  0  0  0  0
    9.3283    3.6447  -11.2342 H   0  0  0  0  0  0  0  0  0  0  0  0
    8.6884    3.4411  -13.4564 H   0  0  0  0  0  0  0  0  0  0  0  0
    7.8406    3.0900  -11.5808 H   0  0  0  0  0  0  0  0  0  0  0  0
    5.8410    3.2607  -13.9315 H   0  0  0  0  0  0  0  0  0  0  0  0
    4.7580    5.0320  -14.3260 H   0  0  0  0  0  0  0  0  0  0  0  0
    4.1735    7.0787  -15.5881 H   0  0  0  0  0  0  0  0  0  0  0  0
    3.4089    7.9588  -17.5508 H   0  0  0  0  0  0  0  0  0  0  0  0
    6.6444    6.2554  -19.5591 H   0  0  0  0  0  0  0  0  0  0  0  0
    9.1393    4.2209  -18.5145 H   0  0  0  0  0  0  0  0  0  0  0  0
    9.0551    6.0012  -17.7493 H   0  0  0  0  0  0  0  0  0  0  0  0
   10.9126    3.7729  -17.0502 H   0  0  0  0  0  0  0  0  0  0  0  0
   10.5130    4.4430  -15.0370 H   0  0  0  0  0  0  0  0  0  0  0  0
   12.0788    5.0140  -18.2821 H   0  0  0  0  0  0  0  0  0  0  0  0
   10.9430    6.4254  -18.1499 H   0  0  0  0  0  0  0  0  0  0  0  0
   12.9100    5.5480  -16.2730 H   0  0  0  0  0  0  0  0  0  0  0  0
    5.9268    1.8817  -12.3263 H   0  0  0  0  0  0  0  0  0  0  0  0
    4.7520    0.7794  -13.2971 H   0  0  0  0  0  0  0  0  0  0  0  0
    4.9419    1.9660  -14.6322 H   0  0  0  0  0  0  0  0  0  0  0  0
    5.9082    0.4517  -14.6322 H   0  0  0  0  0  0  0  0  0  0  0  0
    7.4880    0.4370  -12.4130 H   0  0  0  0  0  0  0  0  0  0  0  0
    9.6103    7.6719  -10.7489 H   0  0  0  0  0  0  0  0  0  0  0  0
  1  2  1  0
  2  3  1  0
  3  4  1  0
  4  5  1  0
  5  6  1  0
  6  7  2  0
  4  8  1  0
  8  9  1  0
  9 10  1  0
 10 11  1  0
 11 12  2  0
 12 13  1  0
 13 14  1  0
 14 15  1  0
 15 16  1  0
 16 17  1  0
 17 18  2  0
 17 19  1  0
 19 20  1  0
 20 21  2  0
 20 22  1  0
 22 23  1  0
 23 24  2  0
 24 25  1  0
 25 26  1  0
 25 27  2  0
 27 28  1  0
 28 29  1  0
 29 30  1  0
 30 31  1  0
 31 32  1  0
 31 33  1  0
 33 34  1  0
 16 35  1  0
 35 36  1  0
 35 37  1  0
 13 38  2  0
 38 39  1  0
 39 40  1  0
 39 10  2  0
 28 22  2  0
  1 41  1  0
  1 42  1  0
  1 43  1  0
  2 44  1  0
  2 45  1  0
  3 46  1  0
  3 47  1  0
  4 48  1  1
  5 49  1  0
  5 50  1  0
  6 51  1  0
  8 52  1  0
  8 53  1  0
  9 54  1  0
  9 55  1  0
 11 56  1  0
 12 57  1  0
 14 58  1  0
 14 59  1  0
 15 60  1  0
 15 61  1  0
 16 62  1  6
 19 63  1  0
 23 64  1  0
 24 65  1  0
 27 66  1  0
 30 67  1  0
 30 68  1  0
 31 69  1  1
 32 70  1  0
 33 71  1  0
 33 72  1  0
 34 73  1  0
 35 74  1  1
 36 75  1  0
 36 76  1  0
 36 77  1  0
 37 78  1  0
 38 79  1  0
M  END
>  <docking_score>  (6) 
-8.812

>  <plif_similarity>  (6) 
0.571

$$$$
DiffSBDD_16
     RDKit          3D

 63 67  0  0  0  0  0  0  0  0999 V2000
   11.3290    6.5940   -4.4380 C   0  0  0  0  0  0  0  0  0  0  0  0
   12.1800    7.7170   -5.0230 C   0  0  2  0  0  0  0  0  0  0  0  0
   12.1100    8.6870   -3.6140 C   0  0  0  0  0  0  0  0  0  0  0  0
   12.3840    8.1330   -2.3480 N   0  0  0  0  0  0  0  0  0  0  0  0
   12.4990    9.0490   -1.4810 N   0  0  0  0  0  0  0  0  0  0  0  0
   11.9720    9.9950   -2.2880 N   0  0  0  0  0  0  0  0  0  0  0  0
   12.0700    9.9320   -3.3590 N   0  0  0  0  0  0  0  0  0  0  0  0
   11.6360    8.6120   -5.8690 C   0  0  1  0  0  0  0  0  0  0  0  0
   12.3380    9.5490   -6.4660 O   0  0  0  0  0  0  0  0  0  0  0  0
   11.2300    8.0230   -7.3160 C   0  0  2  0  0  0  0  0  0  0  0  0
   11.6040    8.8380   -8.6100 C   0  0  0  0  0  0  0  0  0  0  0  0
   11.2670    7.8380   -9.7380 C   0  0  0  0  0  0  0  0  0  0  0  0
    9.9440    7.2920  -10.0720 C   0  0  0  0  0  0  0  0  0  0  0  0
    9.3990    6.3740   -8.9650 N   0  0  0  0  0  0  0  0  0  0  0  0
    8.6680    5.1510   -9.1800 C   0  0  0  0  0  0  0  0  0  0  0  0
    8.2830    4.1350   -8.3140 O   0  0  0  0  0  0  0  0  0  0  0  0
    8.2040    5.0390  -10.6450 C   0  0  0  0  0  0  0  0  0  0  0  0
    6.8770    5.4130  -10.9190 N   0  0  0  0  0  0  0  0  0  0  0  0
    6.5300    4.9040  -11.9740 C   0  0  0  0  0  0  0  0  0  0  0  0
    7.4710    4.1970  -12.5440 C   0  0  0  0  0  0  0  0  0  0  0  0
    7.0330    3.2930  -13.6890 C   0  0  1  0  0  0  0  0  0  0  0  0
    7.5260    3.8950  -14.8520 N   0  0  0  0  0  0  0  0  0  0  0  0
    7.5290    2.9520  -15.8130 N   0  0  0  0  0  0  0  0  0  0  0  0
    7.1750    1.7970  -15.1640 C   0  0  0  0  0  0  0  0  0  0  0  0
    6.8180    0.5100  -15.5650 C   0  0  0  0  0  0  0  0  0  0  0  0
    6.5970    0.0090  -17.1300 Cl  0  0  0  0  0  0  0  0  0  0  0  0
    6.7660   -0.3780  -14.3870 N   0  0  0  0  0  0  0  0  0  0  0  0
    6.8530    0.8160  -13.2330 C   0  0  0  0  0  0  0  0  0  0  0  0
    7.1990    1.9700  -13.7600 C   0  0  2  0  0  0  0  0  0  0  0  0
    8.6880    4.3690  -11.7350 C   0  0  0  0  0  0  0  0  0  0  0  0
    9.2110    6.1340   -7.1680 C   0  0  0  0  0  0  0  0  0  0  0  0
    9.8870    7.3160   -7.3980 C   0  0  0  0  0  0  0  0  0  0  0  0
   11.3647    6.6411   -3.3396 H   0  0  0  0  0  0  0  0  0  0  0  0
   10.2886    6.7081   -4.7763 H   0  0  0  0  0  0  0  0  0  0  0  0
   11.7202    5.6232   -4.7763 H   0  0  0  0  0  0  0  0  0  0  0  0
   13.0561    7.2843   -5.5281 H   0  0  0  0  0  0  0  0  0  0  0  0
   12.8610    9.0670   -0.5160 H   0  0  0  0  0  0  0  0  0  0  0  0
   12.3980   10.8900   -2.0080 H   0  0  0  0  0  0  0  0  0  0  0  0
   12.1220   10.7120   -4.0300 H   0  0  0  0  0  0  0  0  0  0  0  0
   10.9137    8.9451   -5.1092 H   0  0  0  0  0  0  0  0  0  0  0  0
   13.1380    9.7600   -5.9220 H   0  0  0  0  0  0  0  0  0  0  0  0
   11.9851    7.2241   -7.3553 H   0  0  0  0  0  0  0  0  0  0  0  0
   10.9980    9.7522   -8.6940 H   0  0  0  0  0  0  0  0  0  0  0  0
   12.6479    9.1844   -8.6259 H   0  0  0  0  0  0  0  0  0  0  0  0
   11.6132    8.3256  -10.6612 H   0  0  0  0  0  0  0  0  0  0  0  0
   11.7288    6.9336   -9.3151 H   0  0  0  0  0  0  0  0  0  0  0  0
    9.2425    8.1267  -10.2175 H   0  0  0  0  0  0  0  0  0  0  0  0
   10.0473    6.6921  -10.9882 H   0  0  0  0  0  0  0  0  0  0  0  0
    6.2920    6.0180  -10.3260 H   0  0  0  0  0  0  0  0  0  0  0  0
    5.6703    4.2464  -11.7777 H   0  0  0  0  0  0  0  0  0  0  0  0
    6.2778    5.7239  -12.6626 H   0  0  0  0  0  0  0  0  0  0  0  0
    5.9502    3.2464  -13.5011 H   0  0  0  0  0  0  0  0  0  0  0  0
    8.4830    4.2400  -14.6920 H   0  0  0  0  0  0  0  0  0  0  0  0
    7.7470    3.0710  -16.8130 H   0  0  0  0  0  0  0  0  0  0  0  0
    6.6980   -1.4020  -14.3060 H   0  0  0  0  0  0  0  0  0  0  0  0
    5.8687    0.9225  -12.7537 H   0  0  0  0  0  0  0  0  0  0  0  0
    7.6178    0.5294  -12.4962 H   0  0  0  0  0  0  0  0  0  0  0  0
    7.8596    1.9848  -12.8805 H   0  0  0  0  0  0  0  0  0  0  0  0
    9.7167    4.0442  -11.9502 H   0  0  0  0  0  0  0  0  0  0  0  0
    8.1987    6.1915   -6.7414 H   0  0  0  0  0  0  0  0  0  0  0  0
    9.4816    5.2751   -6.5364 H   0  0  0  0  0  0  0  0  0  0  0  0
    9.6628    7.4581   -8.4655 H   0  0  0  0  0  0  0  0  0  0  0  0
    9.6308    7.6684   -6.3880 H   0  0  0  0  0  0  0  0  0  0  0  0
  1  2  1  0
  2  3  1  0
  3  4  2  0
  4  5  1  0
  5  6  1  0
  6  7  1  0
  2  8  1  0
  8  9  1  0
  8 10  1  0
 10 11  1  0
 11 12  1  0
 12 13  1  0
 13 14  1  0
 14 15  1  0
 15 16  2  0
 15 17  1  0
 17 18  2  0
 18 19  1  0
 19 20  1  0
 20 21  1  0
 21 22  1  0
 22 23  1  0
 23 24  1  0
 24 25  2  0
 25 26  1  0
 25 27  1  0
 27 28  1  0
 28 29  1  0
 20 30  2  0
 14 31  1  0
 31 32  1  0
  7  3  1  0
 32 10  1  0
 30 17  1  0
 29 21  1  0
 29 24  1  0
  1 33  1  0
  1 34  1  0
  1 35  1  0
  2 36  1  6
  5 37  1  0
  6 38  1  0
  7 39  1  0
  8 40  1  1
  9 41  1  0
 10 42  1  6
 11 43  1  0
 11 44  1  0
 12 45  1  0
 12 46  1  0
 13 47  1  0
 13 48  1  0
 18 49  1  0
 19 50  1  0
 19 51  1  0
 21 52  1  6
 22 53  1  0
 23 54  1  0
 27 55  1  0
 28 56  1  0
 28 57  1  0
 29 58  1  1
 30 59  1  0
 31 60  1  0
 31 61  1  0
 32 62  1  0
 32 63  1  0
M  CHG  1  18   1
M  END
>  <docking_score>  (7) 
-11.677

>  <plif_similarity>  (7) 
0.429

$$$$
DiffSBDD_18
     RDKit          3D

 38 39  0  0  0  0  0  0  0  0999 V2000
    5.5490    7.4750  -15.7260 C   0  0  0  0  0  0  0  0  0  0  0  0
    6.2800    6.4740  -14.7680 C   0  0  0  0  0  0  0  0  0  0  0  0
    6.4680    7.0030  -13.2200 C   0  0  1  0  0  0  0  0  0  0  0  0
    6.6020    5.6070  -12.5320 C   0  0  1  0  0  0  0  0  0  0  0  0
    5.2660    4.9250  -12.5950 O   0  0  0  0  0  0  0  0  0  0  0  0
    7.9220    6.4110  -12.5810 C   0  0  2  0  0  0  0  0  0  0  0  0
    8.3470    6.5210  -11.1570 N   0  0  0  0  0  0  0  0  0  0  0  0
    8.7690    5.2880  -10.5980 C   0  0  0  0  0  0  0  0  0  0  0  0
    9.4120    4.3370  -11.4320 O   0  0  0  0  0  0  0  0  0  0  0  0
    8.8200    4.9680   -8.9450 S   0  0  0  0  0  0  0  0  0  0  0  0
    9.6910    6.2840   -8.3770 C   0  0  0  0  0  0  0  0  0  0  0  0
   10.4890    6.2010   -7.2190 N   0  0  0  0  0  0  0  0  0  0  0  0
   10.8850    7.3490   -6.5810 C   0  0  0  0  0  0  0  0  0  0  0  0
   10.9440    8.3460   -7.3260 O   0  0  0  0  0  0  0  0  0  0  0  0
   11.3400    7.5680   -5.2730 C   0  0  0  0  0  0  0  0  0  0  0  0
   11.3480    6.5800   -4.3320 C   0  0  0  0  0  0  0  0  0  0  0  0
   11.9240    6.7670   -3.0850 C   0  0  0  0  0  0  0  0  0  0  0  0
   12.5080    8.0140   -2.7800 C   0  0  0  0  0  0  0  0  0  0  0  0
   12.4390    8.9920   -3.7070 C   0  0  0  0  0  0  0  0  0  0  0  0
   11.8280    8.8520   -4.9500 C   0  0  0  0  0  0  0  0  0  0  0  0
    5.0039    8.2215  -15.1297 H   0  0  0  0  0  0  0  0  0  0  0  0
    6.2902    7.9829  -16.3605 H   0  0  0  0  0  0  0  0  0  0  0  0
    4.8396    6.9235  -16.3605 H   0  0  0  0  0  0  0  0  0  0  0  0
    5.6983    5.5408  -14.7413 H   0  0  0  0  0  0  0  0  0  0  0  0
    7.2942    6.3453  -15.1740 H   0  0  0  0  0  0  0  0  0  0  0  0
    5.9539    7.9725  -13.1440 H   0  0  0  0  0  0  0  0  0  0  0  0
    6.3270    6.0565  -11.5664 H   0  0  0  0  0  0  0  0  0  0  0  0
    5.3710    4.0330  -13.0140 H   0  0  0  0  0  0  0  0  0  0  0  0
    8.9313    6.4795  -13.0129 H   0  0  0  0  0  0  0  0  0  0  0  0
    8.3350    7.4050  -10.6300 H   0  0  0  0  0  0  0  0  0  0  0  0
   10.3626    6.5861   -9.1941 H   0  0  0  0  0  0  0  0  0  0  0  0
    8.8938    6.9736   -8.0624 H   0  0  0  0  0  0  0  0  0  0  0  0
   10.7760    5.2810   -6.8540 H   0  0  0  0  0  0  0  0  0  0  0  0
   10.8856    5.6104   -4.5689 H   0  0  0  0  0  0  0  0  0  0  0  0
   11.9255    5.9542   -2.3438 H   0  0  0  0  0  0  0  0  0  0  0  0
   13.0056    8.1844   -1.8139 H   0  0  0  0  0  0  0  0  0  0  0  0
   12.8952    9.9632   -3.4648 H   0  0  0  0  0  0  0  0  0  0  0  0
   11.7306    9.6991   -5.6449 H   0  0  0  0  0  0  0  0  0  0  0  0
  1  2  1  0
  2  3  1  0
  3  4  1  0
  4  5  1  0
  4  6  1  0
  6  7  1  0
  7  8  1  0
  8  9  2  0
  8 10  1  0
 10 11  1  0
 11 12  1  0
 12 13  1  0
 13 14  2  0
 13 15  1  0
 15 16  2  0
 16 17  1  0
 17 18  2  0
 18 19  1  0
 19 20  2  0
  6  3  1  0
 20 15  1  0
  1 21  1  0
  1 22  1  0
  1 23  1  0
  2 24  1  0
  2 25  1  0
  3 26  1  1
  4 27  1  1
  5 28  1  0
  6 29  1  6
  7 30  1  0
 11 31  1  0
 11 32  1  0
 12 33  1  0
 16 34  1  0
 17 35  1  0
 18 36  1  0
 19 37  1  0
 20 38  1  0
M  END
>  <docking_score>  (8) 
-8.297

>  <plif_similarity>  (8) 
0.714

$$$$
DiffSBDD_20
     RDKit          3D

 62 65  0  0  0  0  0  0  0  0999 V2000
   12.7320    6.2780   -2.0110 C   0  0  0  0  0  0  0  0  0  0  0  0
   12.5960    7.2590   -2.3220 C   0  0  0  0  0  0  0  0  0  0  0  0
   12.0830    8.5170   -2.6200 C   0  0  2  0  0  0  0  0  0  0  0  0
   12.0440    9.4600   -1.6660 O   0  0  0  0  0  0  0  0  0  0  0  0
   11.6800    8.6850   -4.0740 C   0  0  0  0  0  0  0  0  0  0  0  0
   11.5840    7.3850   -4.9480 C   0  0  0  0  0  0  0  0  0  0  0  0
   11.5350    7.3780   -6.1420 C   0  0  2  0  0  0  0  0  0  0  0  0
   10.7410    6.4340   -7.0330 C   0  0  0  0  0  0  0  0  0  0  0  0
   10.0290    6.6790   -8.3790 C   0  0  2  0  0  0  0  0  0  0  0  0
    9.7600    5.4180   -9.2020 O   0  0  0  0  0  0  0  0  0  0  0  0
    8.9890    4.6520   -8.7010 C   0  0  0  0  0  0  0  0  0  0  0  0
   11.0150    7.3540   -9.2610 N   0  0  0  0  0  0  0  0  0  0  0  0
   10.6470    7.4780  -10.7230 C   0  0  0  0  0  0  0  0  0  0  0  0
    9.0370    7.2560  -11.3890 S   0  0  0  0  0  0  0  0  0  0  0  0
    8.2730    5.8060  -12.1860 C   0  0  0  0  0  0  0  0  0  0  0  0
    7.4650    6.8270  -13.0880 C   0  0  2  0  0  0  0  0  0  0  0  0
    5.9920    6.6970  -12.8820 C   0  0  0  0  0  0  0  0  0  0  0  0
    6.6180    6.4450  -14.2430 C   0  0  1  0  0  0  0  0  0  0  0  0
    5.9790    7.2060  -15.4100 C   0  0  0  0  0  0  0  0  0  0  0  0
    6.2350    6.7740  -16.7580 C   0  0  0  0  0  0  0  0  0  0  0  0
    5.7190    7.3260  -18.0040 C   0  0  0  0  0  0  0  0  0  0  0  0
    6.9420    5.5170  -16.9530 C   0  0  0  0  0  0  0  0  0  0  0  0
    7.2010    4.6420  -15.8110 C   0  0  0  0  0  0  0  0  0  0  0  0
    6.6550    4.8820  -14.5310 C   0  0  0  0  0  0  0  0  0  0  0  0
   12.3460    7.6710   -8.4930 C   0  0  0  0  0  0  0  0  0  0  0  0
   12.0450    8.2760   -7.1620 C   0  0  1  0  0  0  0  0  0  0  0  0
   11.2310    9.5760   -7.1800 C   0  0  0  0  0  0  0  0  0  0  0  0
   11.4060   10.3670   -5.9320 C   0  0  0  0  0  0  0  0  0  0  0  0
   11.5470   10.0320   -4.5610 C   0  0  0  0  0  0  0  0  0  0  0  0
   11.4340   11.0290   -3.7350 O   0  0  0  0  0  0  0  0  0  0  0  0
   12.8761    5.2385   -1.6814 H   0  0  0  0  0  0  0  0  0  0  0  0
   13.0869    8.8566   -2.9146 H   0  0  0  0  0  0  0  0  0  0  0  0
   11.3510   10.1300   -1.8920 H   0  0  0  0  0  0  0  0  0  0  0  0
   11.5603    6.4164   -4.4272 H   0  0  0  0  0  0  0  0  0  0  0  0
   10.6792    8.0684   -6.1109 H   0  0  0  0  0  0  0  0  0  0  0  0
   11.4478    5.6201   -7.2521 H   0  0  0  0  0  0  0  0  0  0  0  0
    9.8375    6.3835   -6.4077 H   0  0  0  0  0  0  0  0  0  0  0  0
    9.0941    7.1995   -8.1239 H   0  0  0  0  0  0  0  0  0  0  0  0
    9.0608    4.7233   -7.6057 H   0  0  0  0  0  0  0  0  0  0  0  0
    7.9658    4.9015   -9.0184 H   0  0  0  0  0  0  0  0  0  0  0  0
    9.2318    3.6272   -9.0184 H   0  0  0  0  0  0  0  0  0  0  0  0
   10.9443    8.4966  -11.0129 H   0  0  0  0  0  0  0  0  0  0  0  0
   11.1483    6.5855  -11.1257 H   0  0  0  0  0  0  0  0  0  0  0  0
    8.9738    5.1607  -12.7361 H   0  0  0  0  0  0  0  0  0  0  0  0
    7.7700    5.0199  -11.6038 H   0  0  0  0  0  0  0  0  0  0  0  0
    8.2638    7.5812  -13.0333 H   0  0  0  0  0  0  0  0  0  0  0  0
    5.5876    5.8587  -12.2957 H   0  0  0  0  0  0  0  0  0  0  0  0
    5.1942    7.3476  -12.4944 H   0  0  0  0  0  0  0  0  0  0  0  0
    5.3310    8.0740  -15.2186 H   0  0  0  0  0  0  0  0  0  0  0  0
    4.9836    8.1127  -17.7797 H   0  0  0  0  0  0  0  0  0  0  0  0
    6.5481    7.7543  -18.5864 H   0  0  0  0  0  0  0  0  0  0  0  0
    5.2358    6.5277  -18.5864 H   0  0  0  0  0  0  0  0  0  0  0  0
    7.2810    5.2258  -17.9581 H   0  0  0  0  0  0  0  0  0  0  0  0
    7.8461    3.7626  -15.9543 H   0  0  0  0  0  0  0  0  0  0  0  0
    5.6323    4.4791  -14.4893 H   0  0  0  0  0  0  0  0  0  0  0  0
    7.2802    4.3886  -13.7722 H   0  0  0  0  0  0  0  0  0  0  0  0
   12.9121    6.7390   -8.3482 H   0  0  0  0  0  0  0  0  0  0  0  0
   12.9389    8.3843   -9.0843 H   0  0  0  0  0  0  0  0  0  0  0  0
   13.0689    8.5416   -6.8600 H   0  0  0  0  0  0  0  0  0  0  0  0
   11.5575   10.1864   -8.0348 H   0  0  0  0  0  0  0  0  0  0  0  0
   10.1676    9.3070   -7.2626 H   0  0  0  0  0  0  0  0  0  0  0  0
   11.4317   11.4518   -6.1126 H   0  0  0  0  0  0  0  0  0  0  0  0
  1  2  3  0
  2  3  1  0
  3  4  1  0
  3  5  1  0
  5  6  2  0
  6  7  1  0
  7  8  1  0
  8  9  1  0
  9 10  1  0
 10 11  1  0
  9 12  1  0
 12 13  1  0
 13 14  1  0
 14 15  1  0
 15 16  1  0
 16 17  1  0
 18 17  1  1
 18 19  1  0
 19 20  2  0
 20 21  1  0
 20 22  1  0
 22 23  2  0
 23 24  1  0
 12 25  1  0
 25 26  1  0
 26 27  1  0
 27 28  1  0
 28 29  2  0
 29 30  1  0
 29  5  1  0
 26  7  1  0
 18 16  1  0
 24 18  1  0
  1 31  1  0
  3 32  1  1
  4 33  1  0
  6 34  1  0
  7 35  1  6
  8 36  1  0
  8 37  1  0
  9 38  1  1
 11 39  1  0
 11 40  1  0
 11 41  1  0
 13 42  1  0
 13 43  1  0
 15 44  1  0
 15 45  1  0
 16 46  1  6
 17 47  1  0
 17 48  1  0
 19 49  1  0
 21 50  1  0
 21 51  1  0
 21 52  1  0
 22 53  1  0
 23 54  1  0
 24 55  1  0
 24 56  1  0
 25 57  1  0
 25 58  1  0
 26 59  1  1
 27 60  1  0
 27 61  1  0
 28 62  1  0
M  CHG  1  30  -1
M  END
>  <docking_score>  (9) 
-10.287

>  <plif_similarity>  (9) 
0.286

$$$$
DiffSBDD_22
     RDKit          3D

 28 29  0  0  0  0  0  0  0  0999 V2000
   10.5640    6.8750  -11.7130 C   0  0  0  0  0  0  0  0  0  0  0  0
    9.1120    6.9450  -11.3560 C   0  0  0  0  0  0  0  0  0  0  0  0
    9.1880    7.0510   -9.9350 N   0  0  0  0  0  0  0  0  0  0  0  0
    8.6380    5.8210   -9.2520 C   0  0  1  0  0  0  0  0  0  0  0  0
    7.3430    5.4170   -9.8970 O   0  0  0  0  0  0  0  0  0  0  0  0
    9.3460    4.5190   -8.5960 C   0  0  0  0  0  0  0  0  0  0  0  0
    9.1880    5.8450   -7.9630 C   0  0  1  0  0  0  0  0  0  0  0  0
   10.6370    6.1960   -7.8210 C   0  0  0  0  0  0  0  0  0  0  0  0
   10.5320    6.8670   -6.3760 C   0  0  0  0  0  0  0  0  0  0  0  0
   11.2580    6.7860   -4.9390 C   0  0  0  0  0  0  0  0  0  0  0  0
   11.7410    8.2160   -4.3880 C   0  0  0  0  0  0  0  0  0  0  0  0
   11.2660    9.3720   -5.6940 S   0  0  0  0  0  0  0  0  0  0  0  0
   10.5310    8.3240   -6.7880 C   0  0  0  0  0  0  0  0  0  0  0  0
   11.1667    6.8459  -10.7933 H   0  0  0  0  0  0  0  0  0  0  0  0
   10.7529    5.9667  -12.3040 H   0  0  0  0  0  0  0  0  0  0  0  0
   10.8394    7.7609  -12.3040 H   0  0  0  0  0  0  0  0  0  0  0  0
    8.6280    7.8264  -11.8019 H   0  0  0  0  0  0  0  0  0  0  0  0
    8.5140    6.0952  -11.7168 H   0  0  0  0  0  0  0  0  0  0  0  0
    8.6440    7.8720   -9.6320 H   0  0  0  0  0  0  0  0  0  0  0  0
    7.0950    4.5080   -9.5970 H   0  0  0  0  0  0  0  0  0  0  0  0
    8.7497    3.6569   -8.2626 H   0  0  0  0  0  0  0  0  0  0  0  0
   10.1651    3.8274   -8.8424 H   0  0  0  0  0  0  0  0  0  0  0  0
    8.7133    6.3183   -7.0908 H   0  0  0  0  0  0  0  0  0  0  0  0
   11.2877    5.3091   -7.8272 H   0  0  0  0  0  0  0  0  0  0  0  0
   11.0756    6.8120   -8.6199 H   0  0  0  0  0  0  0  0  0  0  0  0
   11.4079    5.8447   -4.3899 H   0  0  0  0  0  0  0  0  0  0  0  0
   12.2444    8.4398   -3.4359 H   0  0  0  0  0  0  0  0  0  0  0  0
   10.0838    8.6717   -7.7309 H   0  0  0  0  0  0  0  0  0  0  0  0
  1  2  1  0
  2  3  1  0
  3  4  1  0
  4  5  1  1
  4  6  1  0
  6  7  1  0
  7  8  1  0
  8  9  1  0
  9 10  1  0
 10 11  2  0
 11 12  1  0
 12 13  1  0
  7  4  1  0
 13  9  2  0
  1 14  1  0
  1 15  1  0
  1 16  1  0
  2 17  1  0
  2 18  1  0
  3 19  1  0
  5 20  1  0
  6 21  1  0
  6 22  1  0
  7 23  1  1
  8 24  1  0
  8 25  1  0
 10 26  1  0
 11 27  1  0
 13 28  1  0
M  END
>  <docking_score>  (10) 
-6.255

>  <plif_similarity>  (10) 
0.286

$$$$
DiffSBDD_25
     RDKit          3D

 63 66  0  0  0  0  0  0  0  0999 V2000
    5.3900    5.1690  -11.9100 C   0  0  0  0  0  0  0  0  0  0  0  0
    6.4190    5.0260  -12.7590 C   0  0  0  0  0  0  0  0  0  0  0  0
    6.5280    6.1620  -13.6540 C   0  0  0  0  0  0  0  0  0  0  0  0
    5.6580    6.4560  -14.9080 C   0  0  0  0  0  0  0  0  0  0  0  0
    5.4340    7.5400  -16.0770 C   0  0  2  0  0  0  0  0  0  0  0  0
    4.6180    7.0090  -17.2890 C   0  0  0  0  0  0  0  0  0  0  0  0
    6.0650    7.2420  -17.3670 C   0  0  2  0  0  0  0  0  0  0  0  0
    6.8100    5.9670  -17.3690 C   0  0  0  0  0  0  0  0  0  0  0  0
    7.9710    5.5510  -18.3240 C   0  0  0  0  0  0  0  0  0  0  0  0
    8.5430    6.2370  -19.4500 C   0  0  0  0  0  0  0  0  0  0  0  0
    6.4970    5.1510  -16.0900 N   0  0  0  0  0  0  0  0  0  0  0  0
    7.7920    4.5720  -15.4400 C   0  0  0  0  0  0  0  0  0  0  0  0
    7.6950    3.3230  -14.3510 C   0  0  1  0  0  0  0  0  0  0  0  0
    7.4430    2.0320  -14.8520 C   0  0  0  0  0  0  0  0  0  0  0  0
    6.6720    1.0920  -14.3180 C   0  0  0  0  0  0  0  0  0  0  0  0
    5.5240    1.1510  -13.8740 O   0  0  0  0  0  0  0  0  0  0  0  0
    7.2630    0.0320  -14.3040 O   0  0  0  0  0  0  0  0  0  0  0  0
    8.0530    2.9960  -12.8090 C   0  0  0  0  0  0  0  0  0  0  0  0
    7.2370    4.1410  -12.0560 N   0  0  0  0  0  0  0  0  0  0  0  0
    7.7370    4.5460  -10.6600 C   0  0  0  0  0  0  0  0  0  0  0  0
    8.9740    5.3390  -10.5290 C   0  0  0  0  0  0  0  0  0  0  0  0
    9.6020    6.2210   -9.5880 C   0  0  0  0  0  0  0  0  0  0  0  0
    9.9160    5.9560   -8.2620 C   0  0  0  0  0  0  0  0  0  0  0  0
   10.5610    6.9240   -7.4830 C   0  0  0  0  0  0  0  0  0  0  0  0
   10.8250    6.7400   -6.0290 C   0  0  0  0  0  0  0  0  0  0  0  0
   11.4370    7.7080   -5.3600 C   0  0  0  0  0  0  0  0  0  0  0  0
   11.9640    8.9260   -5.9800 C   0  0  0  0  0  0  0  0  0  0  0  0
   11.7220    9.2460   -7.3440 C   0  0  0  0  0  0  0  0  0  0  0  0
   10.9670    8.1690   -8.0840 C   0  0  0  0  0  0  0  0  0  0  0  0
   10.6630    8.4990   -9.3820 C   0  0  0  0  0  0  0  0  0  0  0  0
    9.9390    7.5740  -10.1920 C   0  0  0  0  0  0  0  0  0  0  0  0
    9.5610    7.7690  -11.3500 O   0  0  0  0  0  0  0  0  0  0  0  0
    5.1774    4.3865  -11.1667 H   0  0  0  0  0  0  0  0  0  0  0  0
    4.7589    6.0687  -11.9572 H   0  0  0  0  0  0  0  0  0  0  0  0
    7.3127    6.8963  -13.4196 H   0  0  0  0  0  0  0  0  0  0  0  0
    4.9423    5.6321  -15.0453 H   0  0  0  0  0  0  0  0  0  0  0  0
    5.4021    8.4129  -15.4084 H   0  0  0  0  0  0  0  0  0  0  0  0
    4.2199    5.9836  -17.2843 H   0  0  0  0  0  0  0  0  0  0  0  0
    3.7333    7.3416  -17.8518 H   0  0  0  0  0  0  0  0  0  0  0  0
    6.7165    7.8273  -18.0326 H   0  0  0  0  0  0  0  0  0  0  0  0
    8.4254    4.5748  -18.0994 H   0  0  0  0  0  0  0  0  0  0  0  0
    9.2093    7.0360  -19.0928 H   0  0  0  0  0  0  0  0  0  0  0  0
    9.1186    5.5248  -20.0595 H   0  0  0  0  0  0  0  0  0  0  0  0
    7.7390    6.6752  -20.0595 H   0  0  0  0  0  0  0  0  0  0  0  0
    5.5490    5.0070  -15.7140 H   0  0  0  0  0  0  0  0  0  0  0  0
    8.4313    4.2237  -16.2646 H   0  0  0  0  0  0  0  0  0  0  0  0
    8.1603    5.4088  -14.8284 H   0  0  0  0  0  0  0  0  0  0  0  0
    7.4068    4.3716  -14.1852 H   0  0  0  0  0  0  0  0  0  0  0  0
    7.0281    2.1974  -15.8572 H   0  0  0  0  0  0  0  0  0  0  0  0
    8.4256    1.5783  -14.6555 H   0  0  0  0  0  0  0  0  0  0  0  0
    7.7051    1.9940  -12.5175 H   0  0  0  0  0  0  0  0  0  0  0  0
    9.1302    2.9865  -12.5864 H   0  0  0  0  0  0  0  0  0  0  0  0
    6.9322    5.1301  -10.1898 H   0  0  0  0  0  0  0  0  0  0  0  0
    7.9976    3.5851  -10.1922 H   0  0  0  0  0  0  0  0  0  0  0  0
    9.7471    4.5675  -10.6601 H   0  0  0  0  0  0  0  0  0  0  0  0
    8.5715    6.1706  -11.1260 H   0  0  0  0  0  0  0  0  0  0  0  0
    9.6570    4.9818   -7.8217 H   0  0  0  0  0  0  0  0  0  0  0  0
   10.5173    5.8158   -5.5179 H   0  0  0  0  0  0  0  0  0  0  0  0
   11.5561    7.5889   -4.2730 H   0  0  0  0  0  0  0  0  0  0  0  0
   12.5666    9.6155   -5.3705 H   0  0  0  0  0  0  0  0  0  0  0  0
   12.0521   10.1847   -7.8130 H   0  0  0  0  0  0  0  0  0  0  0  0
   10.0701    9.4248   -9.3461 H   0  0  0  0  0  0  0  0  0  0  0  0
   11.6467    8.5549   -9.8710 H   0  0  0  0  0  0  0  0  0  0  0  0
  1  2  2  0
  2  3  1  0
  3  4  2  0
  4  5  1  0
  5  6  1  0
  6  7  1  0
  7  8  1  0
  8  9  2  3
  9 10  1  0
  8 11  1  0
 11 12  1  0
 12 13  1  0
 13 14  1  0
 14 15  1  0
 15 16  2  0
 15 17  1  0
 13 18  1  0
 18 19  1  0
 19 20  1  0
 20 21  1  0
 21 22  1  0
 22 23  2  0
 23 24  1  0
 24 25  2  0
 25 26  1  0
 26 27  2  0
 27 28  1  0
 28 29  2  0
 29 30  1  0
 30 31  1  0
 31 32  2  0
 19  2  1  0
 31 22  1  0
  7  5  1  0
 29 24  1  0
  1 33  1  0
  1 34  1  0
  3 35  1  0
  4 36  1  0
  5 37  1  1
  6 38  1  0
  6 39  1  0
  7 40  1  6
  9 41  1  0
 10 42  1  0
 10 43  1  0
 10 44  1  0
 11 45  1  0
 12 46  1  0
 12 47  1  0
 13 48  1  1
 14 49  1  0
 14 50  1  0
 18 51  1  0
 18 52  1  0
 20 53  1  0
 20 54  1  0
 21 55  1  0
 21 56  1  0
 23 57  1  0
 25 58  1  0
 26 59  1  0
 27 60  1  0
 28 61  1  0
 30 62  1  0
 30 63  1  0
M  CHG  1  17  -1
M  END
>  <docking_score>  (11) 
-11.32

>  <plif_similarity>  (11) 
0.286

$$$$
DiffSBDD_27
     RDKit          3D

 81 86  0  0  0  0  0  0  0  0999 V2000
    8.2920    5.9470  -21.7530 C   0  0  0  0  0  0  0  0  0  0  0  0
    7.1720    5.1810  -21.8520 C   0  0  0  0  0  0  0  0  0  0  0  0
    6.1280    5.0130  -20.9400 O   0  0  0  0  0  0  0  0  0  0  0  0
    6.1450    4.7310  -19.6400 C   0  0  1  0  0  0  0  0  0  0  0  0
    5.3940    5.8310  -18.7830 C   0  0  2  0  0  0  0  0  0  0  0  0
    5.9490    7.2170  -19.2670 C   0  0  0  0  0  0  0  0  0  0  0  0
    4.8910    7.9770  -19.9830 C   0  0  0  0  0  0  0  0  0  0  0  0
    5.3930    8.5280  -21.1030 C   0  0  0  0  0  0  0  0  0  0  0  0
    5.4590    5.7300  -17.3370 O   0  0  0  0  0  0  0  0  0  0  0  0
    6.7900    5.5560  -16.5710 C   0  0  0  0  0  0  0  0  0  0  0  0
    7.3000    4.1240  -16.6770 C   0  0  2  0  0  0  0  0  0  0  0  0
    7.6580    3.4880  -15.2940 C   0  0  2  0  0  0  0  0  0  0  0  0
    6.8800    2.2650  -14.8520 C   0  0  0  0  0  0  0  0  0  0  0  0
    7.7530    4.6160  -14.1980 C   0  0  2  0  0  0  0  0  0  0  0  0
    9.0550    5.1020  -14.2750 O   0  0  0  0  0  0  0  0  0  0  0  0
    7.3790    4.0780  -12.7240 C   0  0  2  0  0  0  0  0  0  0  0  0
    6.2000    4.7930  -11.9910 C   0  0  0  0  0  0  0  0  0  0  0  0
    8.5040    4.0280  -11.7190 C   0  0  0  0  0  0  0  0  0  0  0  0
    9.3990    3.2640  -11.7890 O   0  0  0  0  0  0  0  0  0  0  0  0
    8.2740    5.1040  -10.6850 C   0  0  0  0  0  0  0  0  0  0  0  0
    9.2810    6.1490  -10.6910 C   0  0  0  0  0  0  0  0  0  0  0  0
    9.9920    6.4730  -11.7440 C   0  0  0  0  0  0  0  0  0  0  0  0
   11.1360    7.3160  -11.7010 C   0  0  0  0  0  0  0  0  0  0  0  0
   11.6120    7.7800  -10.5360 C   0  0  0  0  0  0  0  0  0  0  0  0
   10.8840    7.5750   -9.3060 C   0  0  0  0  0  0  0  0  0  0  0  0
    9.6450    6.7290   -9.4210 C   0  0  0  0  0  0  0  0  0  0  0  0
    9.2480    6.4500   -7.9650 O   0  0  0  0  0  0  0  0  0  0  0  0
   10.5810    6.5120   -7.2870 C   0  0  1  0  0  0  0  0  0  0  0  0
   10.1060    6.7920   -5.9140 C   0  0  0  0  0  0  0  0  0  0  0  0
   10.7090    8.2310   -6.7240 C   0  0  2  0  0  0  0  0  0  0  0  0
   11.3290    7.4930   -8.1160 C   0  0  2  0  0  0  0  0  0  0  0  0
   12.4960    8.0800   -7.6290 C   0  0  0  0  0  0  0  0  0  0  0  0
   11.9050    9.4990   -7.1490 O   0  0  0  0  0  0  0  0  0  0  0  0
    8.5800    4.1160  -17.7860 S   0  0  0  0  0  0  0  0  0  0  0  0
    9.8910    3.9740  -16.9200 O   0  0  0  0  0  0  0  0  0  0  0  0
    8.9010    5.4380  -18.4240 O   0  0  0  0  0  0  0  0  0  0  0  0
    8.0310    3.3100  -19.1380 N   0  0  0  0  0  0  0  0  0  0  0  0
    6.5780    3.2500  -19.3070 C   0  0  0  0  0  0  0  0  0  0  0  0
    5.9420    1.9710  -18.7110 C   0  0  0  0  0  0  0  0  0  0  0  0
    5.7850    2.2610  -20.1640 C   0  0  0  0  0  0  0  0  0  0  0  0
    9.0216    5.9634  -22.5760 H   0  0  0  0  0  0  0  0  0  0  0  0
    8.4679    6.5499  -20.8499 H   0  0  0  0  0  0  0  0  0  0  0  0
    7.0746    4.6105  -22.7874 H   0  0  0  0  0  0  0  0  0  0  0  0
    6.8964    4.8431  -18.8445 H   0  0  0  0  0  0  0  0  0  0  0  0
    4.3190    5.6844  -18.9642 H   0  0  0  0  0  0  0  0  0  0  0  0
    6.2852    7.7974  -18.3951 H   0  0  0  0  0  0  0  0  0  0  0  0
    6.7910    7.0444  -19.9534 H   0  0  0  0  0  0  0  0  0  0  0  0
    4.0706    7.2945  -20.2498 H   0  0  0  0  0  0  0  0  0  0  0  0
    4.5159    8.7759  -19.3265 H   0  0  0  0  0  0  0  0  0  0  0  0
    6.1113    9.3164  -20.8337 H   0  0  0  0  0  0  0  0  0  0  0  0
    5.9030    7.7542  -21.6955 H   0  0  0  0  0  0  0  0  0  0  0  0
    4.5752    8.9639  -21.6955 H   0  0  0  0  0  0  0  0  0  0  0  0
    7.5413    6.2375  -16.9966 H   0  0  0  0  0  0  0  0  0  0  0  0
    6.6156    5.7874  -15.5099 H   0  0  0  0  0  0  0  0  0  0  0  0
    6.4961    3.4706  -17.0470 H   0  0  0  0  0  0  0  0  0  0  0  0
    8.6471    3.0304  -15.4432 H   0  0  0  0  0  0  0  0  0  0  0  0
    6.8541    2.2243  -13.7531 H   0  0  0  0  0  0  0  0  0  0  0  0
    5.8528    2.3235  -15.2410 H   0  0  0  0  0  0  0  0  0  0  0  0
    7.3684    1.3594  -15.2410 H   0  0  0  0  0  0  0  0  0  0  0  0
    7.0195    5.4145  -14.3837 H   0  0  0  0  0  0  0  0  0  0  0  0
    9.0350    6.0880  -14.3640 H   0  0  0  0  0  0  0  0  0  0  0  0
    7.0811    3.0616  -13.0209 H   0  0  0  0  0  0  0  0  0  0  0  0
    6.3394    4.7085  -10.9032 H   0  0  0  0  0  0  0  0  0  0  0  0
    6.1808    5.8551  -12.2768 H   0  0  0  0  0  0  0  0  0  0  0  0
    5.2493    4.3191  -12.2768 H   0  0  0  0  0  0  0  0  0  0  0  0
    7.2943    5.5657  -10.8774 H   0  0  0  0  0  0  0  0  0  0  0  0
    8.3246    4.6169   -9.7000 H   0  0  0  0  0  0  0  0  0  0  0  0
    9.6848    6.0681  -12.7195 H   0  0  0  0  0  0  0  0  0  0  0  0
   11.6394    7.5924  -12.6392 H   0  0  0  0  0  0  0  0  0  0  0  0
   12.5684    8.3232  -10.5174 H   0  0  0  0  0  0  0  0  0  0  0  0
    9.0292    6.7173   -5.7022 H   0  0  0  0  0  0  0  0  0  0  0  0
   10.3610    6.3374   -4.9453 H   0  0  0  0  0  0  0  0  0  0  0  0
   11.6808    8.1050   -6.2243 H   0  0  0  0  0  0  0  0  0  0  0  0
   12.9227    7.5094   -6.7910 H   0  0  0  0  0  0  0  0  0  0  0  0
   13.3244    8.1395   -8.3502 H   0  0  0  0  0  0  0  0  0  0  0  0
   11.6760   10.0460   -7.9420 H   0  0  0  0  0  0  0  0  0  0  0  0
    8.4240    3.7800  -19.9660 H   0  0  0  0  0  0  0  0  0  0  0  0
    6.5843    1.1402  -18.3835 H   0  0  0  0  0  0  0  0  0  0  0  0
    5.2486    1.7638  -17.8826 H   0  0  0  0  0  0  0  0  0  0  0  0
    6.3090    1.6384  -20.9041 H   0  0  0  0  0  0  0  0  0  0  0  0
    4.9222    2.3507  -20.8404 H   0  0  0  0  0  0  0  0  0  0  0  0
  1  2  2  0
  2  3  1  0
  3  4  1  0
  4  5  1  0
  5  6  1  0
  6  7  1  0
  7  8  1  0
  5  9  1  0
  9 10  1  0
 10 11  1  0
 11 12  1  0
 12 13  1  0
 12 14  1  0
 14 15  1  0
 14 16  1  0
 16 17  1  0
 16 18  1  0
 18 19  2  0
 18 20  1  0
 20 21  1  0
 21 22  1  0
 22 23  2  0
 23 24  1  0
 24 25  2  0
 25 26  1  0
 26 27  1  0
 28 27  1  6
 28 29  1  0
 29 30  1  0
 30 31  1  0
 31 32  1  6
 32 33  1  0
 11 34  1  0
 34 35  2  0
 34 36  2  0
 34 37  1  0
 37 38  1  0
 38 39  1  0
 39 40  1  0
 38  4  1  0
 26 21  2  0
 30 28  1  0
 40 38  1  0
 31 25  1  0
 31 28  1  0
  1 41  1  0
  1 42  1  0
  2 43  1  0
  4 44  1  1
  5 45  1  6
  6 46  1  0
  6 47  1  0
  7 48  1  0
  7 49  1  0
  8 50  1  0
  8 51  1  0
  8 52  1  0
 10 53  1  0
 10 54  1  0
 11 55  1  6
 12 56  1  6
 13 57  1  0
 13 58  1  0
 13 59  1  0
 14 60  1  6
 15 61  1  0
 16 62  1  6
 17 63  1  0
 17 64  1  0
 17 65  1  0
 20 66  1  0
 20 67  1  0
 22 68  1  0
 23 69  1  0
 24 70  1  0
 29 71  1  0
 29 72  1  0
 30 73  1  6
 32 74  1  0
 32 75  1  0
 33 76  1  0
 37 77  1  0
 39 78  1  0
 39 79  1  0
 40 80  1  0
 40 81  1  0
M  END
>  <docking_score>  (12) 
-8.162

>  <plif_similarity>  (12) 
0.286

$$$$
DiffSBDD_28
     RDKit          3D

 61 65  0  0  0  0  0  0  0  0999 V2000
    9.5770    4.9740  -16.3340 C   0  0  0  0  0  0  0  0  0  0  0  0
    8.0120    4.9640  -16.2200 C   0  0  0  0  0  0  0  0  0  0  0  0
    7.6810    3.3820  -15.9960 C   0  0  0  0  0  0  0  0  0  0  0  0
    7.4710    5.5320  -15.0570 C   0  0  0  0  0  0  0  0  0  0  0  0
    7.3810    6.3540  -15.0030 O   0  0  0  0  0  0  0  0  0  0  0  0
    7.3850    5.0010  -13.6830 C   0  0  0  0  0  0  0  0  0  0  0  0
    8.1790    4.5830  -12.8020 O   0  0  0  0  0  0  0  0  0  0  0  0
    8.0610    5.6990  -11.7870 C   0  0  1  0  0  0  0  0  0  0  0  0
    8.0910    5.0020  -10.4100 C   0  0  2  0  0  0  0  0  0  0  0  0
    6.8200    4.5250  -10.2340 O   0  0  0  0  0  0  0  0  0  0  0  0
    8.6290    5.7920   -9.1830 C   0  0  0  0  0  0  0  0  0  0  0  0
    8.3920    5.3070   -8.0160 O   0  0  0  0  0  0  0  0  0  0  0  0
    9.4470    6.7680   -9.2420 N   0  0  0  0  0  0  0  0  0  0  0  0
    9.7060    7.7740   -8.2490 C   0  0  0  0  0  0  0  0  0  0  0  0
    8.8750    8.8620   -8.3060 O   0  0  0  0  0  0  0  0  0  0  0  0
   10.6100    7.8660   -7.0400 C   0  0  0  0  0  0  0  0  0  0  0  0
   10.9280    9.1520   -6.4190 C   0  0  0  0  0  0  0  0  0  0  0  0
   11.4840    9.1760   -5.2120 C   0  0  0  0  0  0  0  0  0  0  0  0
   11.7170    7.9150   -4.4630 C   0  0  0  0  0  0  0  0  0  0  0  0
   12.1350    7.8460   -2.9150 Cl  0  0  0  0  0  0  0  0  0  0  0  0
   11.5290    6.7220   -5.0740 C   0  0  0  0  0  0  0  0  0  0  0  0
   11.0750    6.6730   -6.3610 C   0  0  0  0  0  0  0  0  0  0  0  0
   11.2840    5.5270   -6.8570 F   0  0  0  0  0  0  0  0  0  0  0  0
    9.8090    7.0650  -10.7290 C   0  0  2  0  0  0  0  0  0  0  0  0
   11.1030    7.0880  -10.9600 C   0  0  0  0  0  0  0  0  0  0  0  0
    9.2660    8.0240  -11.3230 C   0  0  0  0  0  0  0  0  0  0  0  0
    8.9840    6.7020  -11.9780 C   0  0  2  0  0  0  0  0  0  0  0  0
    5.6490    4.1970  -13.2600 C   0  0  0  0  0  0  0  0  0  0  0  0
    6.1900    5.7560  -13.1390 C   0  0  0  0  0  0  0  0  0  0  0  0
    6.8760    5.6000  -17.0580 C   0  0  1  0  0  0  0  0  0  0  0  0
    5.9090    5.3880  -16.6800 O   0  0  0  0  0  0  0  0  0  0  0  0
    6.3340    5.2920  -18.3500 C   0  0  0  0  0  0  0  0  0  0  0  0
    7.0030    6.3150  -18.1100 C   0  0  2  0  0  0  0  0  0  0  0  0
    8.0780    6.4500  -18.8860 O   0  0  0  0  0  0  0  0  0  0  0  0
   10.0180    4.9768  -15.3263 H   0  0  0  0  0  0  0  0  0  0  0  0
    9.9108    4.0780  -16.8778 H   0  0  0  0  0  0  0  0  0  0  0  0
    9.8993    5.8742  -16.8778 H   0  0  0  0  0  0  0  0  0  0  0  0
    7.6358    3.1659  -14.9184 H   0  0  0  0  0  0  0  0  0  0  0  0
    6.7129    3.1408  -16.4593 H   0  0  0  0  0  0  0  0  0  0  0  0
    8.4712    2.7729  -16.4593 H   0  0  0  0  0  0  0  0  0  0  0  0
    7.1215    6.2621  -11.8879 H   0  0  0  0  0  0  0  0  0  0  0  0
    8.8627    4.2188  -10.4426 H   0  0  0  0  0  0  0  0  0  0  0  0
    6.6590    3.7760  -10.8610 H   0  0  0  0  0  0  0  0  0  0  0  0
   10.7086   10.0918   -6.9470 H   0  0  0  0  0  0  0  0  0  0  0  0
   11.7740   10.1379   -4.7641 H   0  0  0  0  0  0  0  0  0  0  0  0
   11.7426    5.7889   -4.5321 H   0  0  0  0  0  0  0  0  0  0  0  0
   11.6461    7.0977  -10.0035 H   0  0  0  0  0  0  0  0  0  0  0  0
   11.3888    6.1948  -11.5349 H   0  0  0  0  0  0  0  0  0  0  0  0
   11.3568    7.9908  -11.5349 H   0  0  0  0  0  0  0  0  0  0  0  0
    8.4404    8.5545  -10.8260 H   0  0  0  0  0  0  0  0  0  0  0  0
    9.6741    8.9654  -11.7195 H   0  0  0  0  0  0  0  0  0  0  0  0
    8.9437    6.4063  -13.0367 H   0  0  0  0  0  0  0  0  0  0  0  0
    4.9471    3.8876  -14.0484 H   0  0  0  0  0  0  0  0  0  0  0  0
    5.2243    3.4055  -12.6250 H   0  0  0  0  0  0  0  0  0  0  0  0
    5.7243    6.4994  -13.8027 H   0  0  0  0  0  0  0  0  0  0  0  0
    6.1570    6.4092  -12.2546 H   0  0  0  0  0  0  0  0  0  0  0  0
    5.2520    5.4190  -17.4200 H   0  0  0  0  0  0  0  0  0  0  0  0
    6.7569    4.4758  -18.9542 H   0  0  0  0  0  0  0  0  0  0  0  0
    5.3408    5.0673  -18.7659 H   0  0  0  0  0  0  0  0  0  0  0  0
    6.8580    7.4046  -18.1509 H   0  0  0  0  0  0  0  0  0  0  0  0
    7.8380    6.9660  -19.6960 H   0  0  0  0  0  0  0  0  0  0  0  0
  1  2  1  0
  2  3  1  0
  2  4  1  0
  4  5  2  0
  4  6  1  0
  6  7  1  0
  7  8  1  0
  8  9  1  0
  9 10  1  0
  9 11  1  0
 11 12  2  0
 11 13  1  0
 13 14  1  0
 14 15  2  0
 14 16  1  0
 16 17  1  0
 17 18  2  0
 18 19  1  0
 19 20  1  0
 19 21  2  0
 21 22  1  0
 22 23  1  0
 13 24  1  0
 24 25  1  6
 24 26  1  0
 26 27  1  0
  6 28  1  0
 28 29  1  0
  2 30  1  0
 30 31  1  1
 30 32  1  0
 32 33  1  0
 33 34  1  0
 29  6  1  0
 33 30  1  0
 27  8  1  0
 22 16  2  0
 27 24  1  0
  1 35  1  0
  1 36  1  0
  1 37  1  0
  3 38  1  0
  3 39  1  0
  3 40  1  0
  8 41  1  6
  9 42  1  6
 10 43  1  0
 17 44  1  0
 18 45  1  0
 21 46  1  0
 25 47  1  0
 25 48  1  0
 25 49  1  0
 26 50  1  0
 26 51  1  0
 27 52  1  6
 28 53  1  0
 28 54  1  0
 29 55  1  0
 29 56  1  0
 31 57  1  0
 32 58  1  0
 32 59  1  0
 33 60  1  1
 34 61  1  0
M  END
>  <docking_score>  (13) 
-9.054

>  <plif_similarity>  (13) 
0.429

$$$$
DiffSBDD_29
     RDKit          3D

 61 62  0  0  0  0  0  0  0  0999 V2000
    5.0980    6.9360  -17.5050 C   0  0  0  0  0  0  0  0  0  0  0  0
    6.0550    6.5040  -16.3900 C   0  0  0  0  0  0  0  0  0  0  0  0
    6.0570    7.6880  -15.3490 C   0  0  0  0  0  0  0  0  0  0  0  0
    6.0530    7.0800  -13.9840 C   0  0  0  0  0  0  0  0  0  0  0  0
    6.7860    5.7500  -13.9590 C   0  0  0  0  0  0  0  0  0  0  0  0
    5.8470    4.6780  -13.4430 C   0  0  0  0  0  0  0  0  0  0  0  0
    6.3390    3.9700  -12.2250 C   0  0  0  0  0  0  0  0  0  0  0  0
    6.2670    4.8750  -10.9970 N   0  0  0  0  0  0  0  0  0  0  0  0
    5.2480    5.4770  -10.6840 O   0  0  0  0  0  0  0  0  0  0  0  0
    7.2460    5.0800  -10.2780 N   0  0  0  0  0  0  0  0  0  0  0  0
    8.6340    4.8770  -10.7510 C   0  0  0  0  0  0  0  0  0  0  0  0
    9.4320    5.7840   -9.7180 C   0  0  0  0  0  0  0  0  0  0  0  0
    9.0190    5.4980   -8.1790 C   0  0  0  0  0  0  0  0  0  0  0  0
    9.3570    6.6820   -7.2270 C   0  0  0  0  0  0  0  0  0  0  0  0
   10.5740    7.3490   -7.8810 N   0  0  0  0  0  0  0  0  0  0  0  0
   11.4650    7.8360   -7.0650 C   0  0  0  0  0  0  0  0  0  0  0  0
   12.5680    8.0570   -7.6570 O   0  0  0  0  0  0  0  0  0  0  0  0
   11.5240    8.1980   -5.6180 C   0  0  1  0  0  0  0  0  0  0  0  0
   11.8760    9.3270   -5.0090 C   0  0  0  0  0  0  0  0  0  0  0  0
   12.0050    9.1090   -3.3870 C   0  0  0  0  0  0  0  0  0  0  0  0
   12.5890    8.1280   -3.1190 C   0  0  0  0  0  0  0  0  0  0  0  0
   11.8070    7.0320   -3.6960 C   0  0  0  0  0  0  0  0  0  0  0  0
   11.8010    6.2880   -2.7590 F   0  0  0  0  0  0  0  0  0  0  0  0
   11.2620    7.2790   -4.8710 N   0  0  0  0  0  0  0  0  0  0  0  0
   10.0550    8.1050   -9.1240 C   0  0  0  0  0  0  0  0  0  0  0  0
    9.1090    7.2220   -9.9130 C   0  0  0  0  0  0  0  0  0  0  0  0
    4.1807    7.3501  -17.0609 H   0  0  0  0  0  0  0  0  0  0  0  0
    5.5825    7.7027  -18.1274 H   0  0  0  0  0  0  0  0  0  0  0  0
    4.8434    6.0655  -18.1274 H   0  0  0  0  0  0  0  0  0  0  0  0
    5.6990    5.5772  -15.9164 H   0  0  0  0  0  0  0  0  0  0  0  0
    7.0646    6.3009  -16.7767 H   0  0  0  0  0  0  0  0  0  0  0  0
    6.9573    8.3057  -15.4833 H   0  0  0  0  0  0  0  0  0  0  0  0
    5.1769    8.3324  -15.4907 H   0  0  0  0  0  0  0  0  0  0  0  0
    6.5453    7.7715  -13.2844 H   0  0  0  0  0  0  0  0  0  0  0  0
    5.0078    6.9009  -13.6916 H   0  0  0  0  0  0  0  0  0  0  0  0
    7.1167    5.4921  -14.9759 H   0  0  0  0  0  0  0  0  0  0  0  0
    7.6644    5.8224  -13.3009 H   0  0  0  0  0  0  0  0  0  0  0  0
    4.8832    5.1502  -13.2021 H   0  0  0  0  0  0  0  0  0  0  0  0
    5.7635    3.9213  -14.2370 H   0  0  0  0  0  0  0  0  0  0  0  0
    5.7177    3.0790  -12.0517 H   0  0  0  0  0  0  0  0  0  0  0  0
    7.3886    3.6835  -12.3871 H   0  0  0  0  0  0  0  0  0  0  0  0
    5.0510    6.1690  -11.3640 H   0  0  0  0  0  0  0  0  0  0  0  0
    7.1840    6.0650   -9.9840 H   0  0  0  0  0  0  0  0  0  0  0  0
    8.9358    3.8215  -10.6813 H   0  0  0  0  0  0  0  0  0  0  0  0
    8.7989    5.1346  -11.8076 H   0  0  0  0  0  0  0  0  0  0  0  0
   10.4899    5.5452   -9.9021 H   0  0  0  0  0  0  0  0  0  0  0  0
    7.9357    5.3121   -8.1358 H   0  0  0  0  0  0  0  0  0  0  0  0
    9.5996    4.6276   -7.8395 H   0  0  0  0  0  0  0  0  0  0  0  0
    8.5134    7.3850   -7.1628 H   0  0  0  0  0  0  0  0  0  0  0  0
    9.5577    6.3527   -6.1968 H   0  0  0  0  0  0  0  0  0  0  0  0
   12.5662    7.8489   -5.5732 H   0  0  0  0  0  0  0  0  0  0  0  0
   12.8464    9.6611   -5.4048 H   0  0  0  0  0  0  0  0  0  0  0  0
   11.0997   10.0828   -5.1990 H   0  0  0  0  0  0  0  0  0  0  0  0
   12.5383    9.9686   -2.9548 H   0  0  0  0  0  0  0  0  0  0  0  0
   10.9888    9.0217   -2.9750 H   0  0  0  0  0  0  0  0  0  0  0  0
   13.5982    8.1508   -3.5560 H   0  0  0  0  0  0  0  0  0  0  0  0
   12.7109    8.0118   -2.0320 H   0  0  0  0  0  0  0  0  0  0  0  0
    9.5227    9.0122   -8.8021 H   0  0  0  0  0  0  0  0  0  0  0  0
   10.9086    8.3784   -9.7617 H   0  0  0  0  0  0  0  0  0  0  0  0
    8.0786    7.4078   -9.5758 H   0  0  0  0  0  0  0  0  0  0  0  0
    9.2152    7.4625  -10.9811 H   0  0  0  0  0  0  0  0  0  0  0  0
  1  2  1  0
  2  3  1  0
  3  4  1  0
  4  5  1  0
  5  6  1  0
  6  7  1  0
  7  8  1  0
  8  9  1  0
  8 10  1  0
 10 11  1  0
 11 12  1  0
 12 13  1  0
 13 14  1  0
 14 15  1  0
 15 16  1  0
 16 17  2  0
 16 18  1  0
 18 19  1  0
 19 20  1  0
 20 21  1  0
 21 22  1  0
 22 23  1  0
 22 24  2  0
 15 25  1  0
 25 26  1  0
 26 12  1  0
 24 18  1  0
  1 27  1  0
  1 28  1  0
  1 29  1  0
  2 30  1  0
  2 31  1  0
  3 32  1  0
  3 33  1  0
  4 34  1  0
  4 35  1  0
  5 36  1  0
  5 37  1  0
  6 38  1  0
  6 39  1  0
  7 40  1  0
  7 41  1  0
  9 42  1  0
 10 43  1  0
 11 44  1  0
 11 45  1  0
 12 46  1  0
 13 47  1  0
 13 48  1  0
 14 49  1  0
 14 50  1  0
 18 51  1  6
 19 52  1  0
 19 53  1  0
 20 54  1  0
 20 55  1  0
 21 56  1  0
 21 57  1  0
 25 58  1  0
 25 59  1  0
 26 60  1  0
 26 61  1  0
M  END
>  <docking_score>  (14) 
-8.799

>  <plif_similarity>  (14) 
0.286

$$$$
DiffSBDD_2
     RDKit          3D

 70 74  0  0  0  0  0  0  0  0999 V2000
    8.4640    2.1820  -17.3480 C   0  0  0  0  0  0  0  0  0  0  0  0
    7.4950    2.6060  -16.2010 C   0  0  0  0  0  0  0  0  0  0  0  0
    7.9980    3.9750  -15.5100 C   0  0  1  0  0  0  0  0  0  0  0  0
    7.9460    5.1720  -16.4310 C   0  0  0  0  0  0  0  0  0  0  0  0
    6.5830    5.6050  -17.1030 C   0  0  0  0  0  0  0  0  0  0  0  0
    5.9290    6.9080  -16.6050 C   0  0  0  0  0  0  0  0  0  0  0  0
    6.4280    7.5120  -15.3190 C   0  0  0  0  0  0  0  0  0  0  0  0
    6.4240    6.4280  -14.2230 C   0  0  0  0  0  0  0  0  0  0  0  0
    5.3200    5.4530  -14.4450 C   0  0  0  0  0  0  0  0  0  0  0  0
    6.1230    6.8490  -12.8250 C   0  0  0  0  0  0  0  0  0  0  0  0
    7.8820    5.8050  -13.7680 C   0  0  1  0  0  0  0  0  0  0  0  0
    7.9720    6.3130  -12.3690 N   0  0  0  0  0  0  0  0  0  0  0  0
    7.9780    5.1370  -11.5650 C   0  0  0  0  0  0  0  0  0  0  0  0
    8.2930    5.3560  -10.1240 C   0  0  0  0  0  0  0  0  0  0  0  0
    7.7420    4.7200   -9.2940 O   0  0  0  0  0  0  0  0  0  0  0  0
    9.4460    6.1920   -9.7340 N   0  0  0  0  0  0  0  0  0  0  0  0
    9.9680    5.8390   -8.6320 C   0  0  0  0  0  0  0  0  0  0  0  0
   10.4890    6.6970   -7.6070 C   0  0  0  0  0  0  0  0  0  0  0  0
   10.6840    8.1060   -7.9880 C   0  0  0  0  0  0  0  0  0  0  0  0
   11.0510    8.9680   -6.7610 C   0  0  0  0  0  0  0  0  0  0  0  0
   11.3640    8.2930   -5.4700 C   0  0  0  0  0  0  0  0  0  0  0  0
   11.2650    6.9530   -5.2560 C   0  0  0  0  0  0  0  0  0  0  0  0
   10.7700    6.1830   -6.2190 C   0  0  0  0  0  0  0  0  0  0  0  0
   11.5830    6.3880   -3.8990 C   0  0  0  0  0  0  0  0  0  0  0  0
   12.1400    7.1600   -2.9580 C   0  0  0  0  0  0  0  0  0  0  0  0
   12.2790    8.5280   -3.2060 C   0  0  0  0  0  0  0  0  0  0  0  0
   13.0610    9.1970   -2.4290 F   0  0  0  0  0  0  0  0  0  0  0  0
   11.8330    9.2390   -4.3410 C   0  0  1  0  0  0  0  0  0  0  0  0
   12.2580   10.6390   -4.6500 C   0  0  0  0  0  0  0  0  0  0  0  0
   10.8920   10.3700   -4.2730 O   0  0  0  0  0  0  0  0  0  0  0  0
    9.7180    7.1300  -10.9150 C   0  0  1  0  0  0  0  0  0  0  0  0
   11.1150    7.3280  -11.0050 O   0  0  0  0  0  0  0  0  0  0  0  0
    9.2450    6.8500  -12.1250 C   0  0  0  0  0  0  0  0  0  0  0  0
    7.6700    4.3600  -14.0010 C   0  0  0  0  0  0  0  0  0  0  0  0
    7.3530    3.6260  -13.1240 O   0  0  0  0  0  0  0  0  0  0  0  0
    9.3902    1.7767  -16.9145 H   0  0  0  0  0  0  0  0  0  0  0  0
    7.9824    1.4123  -17.9691 H   0  0  0  0  0  0  0  0  0  0  0  0
    8.7025    3.0580  -17.9691 H   0  0  0  0  0  0  0  0  0  0  0  0
    6.4881    2.7594  -16.6165 H   0  0  0  0  0  0  0  0  0  0  0  0
    7.4757    1.8111  -15.4408 H   0  0  0  0  0  0  0  0  0  0  0  0
    9.0285    3.6284  -15.3431 H   0  0  0  0  0  0  0  0  0  0  0  0
    8.2982    6.0351  -15.8471 H   0  0  0  0  0  0  0  0  0  0  0  0
    8.5555    4.8521  -17.2890 H   0  0  0  0  0  0  0  0  0  0  0  0
    6.1191    4.9996  -17.8956 H   0  0  0  0  0  0  0  0  0  0  0  0
    5.1179    7.3852  -17.1745 H   0  0  0  0  0  0  0  0  0  0  0  0
    7.4514    7.8895  -15.4611 H   0  0  0  0  0  0  0  0  0  0  0  0
    5.7749    8.3455  -15.0209 H   0  0  0  0  0  0  0  0  0  0  0  0
    4.9324    5.1107  -13.4741 H   0  0  0  0  0  0  0  0  0  0  0  0
    4.5116    5.9373  -15.0124 H   0  0  0  0  0  0  0  0  0  0  0  0
    5.7007    4.5910  -15.0124 H   0  0  0  0  0  0  0  0  0  0  0  0
    6.6146    6.1614  -12.1211 H   0  0  0  0  0  0  0  0  0  0  0  0
    6.4968    7.8705  -12.6612 H   0  0  0  0  0  0  0  0  0  0  0  0
    5.0355    6.8258  -12.6612 H   0  0  0  0  0  0  0  0  0  0  0  0
    8.8308    6.0588  -14.2634 H   0  0  0  0  0  0  0  0  0  0  0  0
    6.9816    4.6754  -11.6294 H   0  0  0  0  0  0  0  0  0  0  0  0
    8.7830    4.5002  -11.9606 H   0  0  0  0  0  0  0  0  0  0  0  0
    9.1939    5.2385   -8.1318 H   0  0  0  0  0  0  0  0  0  0  0  0
   10.9136    5.4236   -9.0107 H   0  0  0  0  0  0  0  0  0  0  0  0
   10.5816    8.4934   -9.0124 H   0  0  0  0  0  0  0  0  0  0  0  0
   11.0810   10.0648   -6.8387 H   0  0  0  0  0  0  0  0  0  0  0  0
   10.5568    5.1276   -5.9938 H   0  0  0  0  0  0  0  0  0  0  0  0
   10.6356    6.0158   -3.4820 H   0  0  0  0  0  0  0  0  0  0  0  0
   12.3708    5.6512   -4.1147 H   0  0  0  0  0  0  0  0  0  0  0  0
   12.4820    6.7255   -2.0071 H   0  0  0  0  0  0  0  0  0  0  0  0
   12.9233   11.1767   -3.9584 H   0  0  0  0  0  0  0  0  0  0  0  0
   12.7456   11.1324   -5.5037 H   0  0  0  0  0  0  0  0  0  0  0  0
    9.1262    8.0186  -10.6501 H   0  0  0  0  0  0  0  0  0  0  0  0
   11.4720    6.8150  -11.7740 H   0  0  0  0  0  0  0  0  0  0  0  0
    9.2805    7.7965  -12.6844 H   0  0  0  0  0  0  0  0  0  0  0  0
    9.8853    6.0009  -12.4062 H   0  0  0  0  0  0  0  0  0  0  0  0
  1  2  1  0
  2  3  1  0
  3  4  1  0
  4  5  1  0
  5  6  2  0
  6  7  1  0
  7  8  1  0
  8  9  1  0
  8 10  1  0
  8 11  1  0
 11 12  1  0
 12 13  1  0
 13 14  1  0
 14 15  2  0
 14 16  1  0
 16 17  1  0
 17 18  1  0
 18 19  1  0
 19 20  2  0
 20 21  1  0
 21 22  2  0
 22 23  1  0
 22 24  1  0
 24 25  1  0
 25 26  2  0
 26 27  1  0
 26 28  1  0
 28 29  1  0
 29 30  1  0
 16 31  1  0
 31 32  1  0
 31 33  1  0
 11 34  1  0
 34 35  2  0
 34  3  1  0
 33 12  1  0
 23 18  2  0
 28 30  1  1
 28 21  1  0
  1 36  1  0
  1 37  1  0
  1 38  1  0
  2 39  1  0
  2 40  1  0
  3 41  1  1
  4 42  1  0
  4 43  1  0
  5 44  1  0
  6 45  1  0
  7 46  1  0
  7 47  1  0
  9 48  1  0
  9 49  1  0
  9 50  1  0
 10 51  1  0
 10 52  1  0
 10 53  1  0
 11 54  1  6
 13 55  1  0
 13 56  1  0
 17 57  1  0
 17 58  1  0
 19 59  1  0
 20 60  1  0
 23 61  1  0
 24 62  1  0
 24 63  1  0
 25 64  1  0
 29 65  1  0
 29 66  1  0
 31 67  1  1
 32 68  1  0
 33 69  1  0
 33 70  1  0
M  END
>  <docking_score>  (15) 
-11.355

>  <plif_similarity>  (15) 
0.286

$$$$
DiffSBDD_30
     RDKit          3D

 41 41  0  0  0  0  0  0  0  0999 V2000
    5.9520    7.2520  -13.1100 C   0  0  0  0  0  0  0  0  0  0  0  0
    6.3410    5.7120  -12.5970 C   0  0  2  0  0  0  0  0  0  0  0  0
    5.7080    5.5730  -11.2730 N   0  0  0  0  0  0  0  0  0  0  0  0
    7.8540    5.7790  -12.3840 C   0  0  0  0  0  0  0  0  0  0  0  0
    8.3590    6.3730  -11.5030 N   0  0  0  0  0  0  0  0  0  0  0  0
    9.3730    5.5710  -10.6250 C   0  0  0  0  0  0  0  0  0  0  0  0
    8.7710    5.7200   -9.2710 C   0  0  0  0  0  0  0  0  0  0  0  0
    7.8950    4.8970   -9.1020 O   0  0  0  0  0  0  0  0  0  0  0  0
    9.1680    6.5630   -8.2550 N   0  0  0  0  0  0  0  0  0  0  0  0
    9.5080    7.9610   -8.2690 C   0  0  0  0  0  0  0  0  0  0  0  0
    9.8210    8.4340   -6.8250 C   0  0  0  0  0  0  0  0  0  0  0  0
   10.7190    7.6150   -6.2390 O   0  0  0  0  0  0  0  0  0  0  0  0
   11.3860    7.7000   -5.0250 C   0  0  0  0  0  0  0  0  0  0  0  0
   11.4170    6.6780   -4.1610 C   0  0  0  0  0  0  0  0  0  0  0  0
   12.1040    6.7860   -3.0060 C   0  0  0  0  0  0  0  0  0  0  0  0
   12.6890    7.9760   -2.5710 C   0  0  0  0  0  0  0  0  0  0  0  0
   12.6660    9.0310   -3.4630 C   0  0  0  0  0  0  0  0  0  0  0  0
   11.9590    8.8630   -4.6150 C   0  0  0  0  0  0  0  0  0  0  0  0
    5.7885    7.8993  -12.2358 H   0  0  0  0  0  0  0  0  0  0  0  0
    6.7764    7.6557  -13.7161 H   0  0  0  0  0  0  0  0  0  0  0  0
    5.0348    7.2158  -13.7161 H   0  0  0  0  0  0  0  0  0  0  0  0
    6.0372    4.9013  -13.2756 H   0  0  0  0  0  0  0  0  0  0  0  0
    4.8120    5.0720  -11.3710 H   0  0  0  0  0  0  0  0  0  0  0  0
    6.3320    5.0420  -10.6480 H   0  0  0  0  0  0  0  0  0  0  0  0
    5.5370    6.5070  -10.8740 H   0  0  0  0  0  0  0  0  0  0  0  0
    8.1890    4.7369  -12.2752 H   0  0  0  0  0  0  0  0  0  0  0  0
    8.1675    6.3756  -13.2533 H   0  0  0  0  0  0  0  0  0  0  0  0
    8.8620    7.1740  -11.9110 H   0  0  0  0  0  0  0  0  0  0  0  0
    7.5910    6.6340  -10.8690 H   0  0  0  0  0  0  0  0  0  0  0  0
    9.4219    4.5152  -10.9297 H   0  0  0  0  0  0  0  0  0  0  0  0
   10.4110    5.9277  -10.6974 H   0  0  0  0  0  0  0  0  0  0  0  0
    9.2320    6.1170   -7.3290 H   0  0  0  0  0  0  0  0  0  0  0  0
   10.3919    8.1166   -8.9050 H   0  0  0  0  0  0  0  0  0  0  0  0
    8.6615    8.5392   -8.6678 H   0  0  0  0  0  0  0  0  0  0  0  0
   10.2315    9.4539   -6.8601 H   0  0  0  0  0  0  0  0  0  0  0  0
    8.8910    8.4170   -6.2379 H   0  0  0  0  0  0  0  0  0  0  0  0
   10.8800    5.7467   -4.3942 H   0  0  0  0  0  0  0  0  0  0  0  0
   12.2087    5.8912   -2.3748 H   0  0  0  0  0  0  0  0  0  0  0  0
   13.1432    8.0689   -1.5735 H   0  0  0  0  0  0  0  0  0  0  0  0
   13.1980    9.9701   -3.2510 H   0  0  0  0  0  0  0  0  0  0  0  0
   11.8419    9.7407   -5.2676 H   0  0  0  0  0  0  0  0  0  0  0  0
  1  2  1  0
  2  3  1  0
  2  4  1  0
  4  5  1  0
  5  6  1  0
  6  7  1  0
  7  8  2  0
  7  9  1  0
  9 10  1  0
 10 11  1  0
 11 12  1  0
 12 13  1  0
 13 14  2  0
 14 15  1  0
 15 16  2  0
 16 17  1  0
 17 18  2  0
 18 13  1  0
  1 19  1  0
  1 20  1  0
  1 21  1  0
  2 22  1  6
  3 23  1  0
  3 24  1  0
  3 25  1  0
  4 26  1  0
  4 27  1  0
  5 28  1  0
  5 29  1  0
  6 30  1  0
  6 31  1  0
  9 32  1  0
 10 33  1  0
 10 34  1  0
 11 35  1  0
 11 36  1  0
 14 37  1  0
 15 38  1  0
 16 39  1  0
 17 40  1  0
 18 41  1  0
M  CHG  2   3   1   5   1
M  END
>  <docking_score>  (16) 
-7.055

>  <plif_similarity>  (16) 
0.714

$$$$
DiffSBDD_31
     RDKit          3D

103109  0  0  0  0  0  0  0  0999 V2000
   11.5890    6.7800   -3.8350 C   0  0  0  0  0  0  0  0  0  0  0  0
   11.1770    7.0410   -5.2430 C   0  0  0  0  0  0  0  0  0  0  0  0
   11.5640    5.9630   -6.3360 C   0  0  0  0  0  0  0  0  0  0  0  0
   11.6940    8.4890   -5.6600 C   0  0  2  0  0  0  0  0  0  0  0  0
   10.5340    9.3000   -6.1710 C   0  0  2  0  0  0  0  0  0  0  0  0
    9.8710    8.6940   -7.3660 C   0  0  0  0  0  0  0  0  0  0  0  0
   11.2320    8.9560   -8.1260 N   0  0  2  0  0  0  0  0  0  0  0  0
   11.3760    7.7980   -9.0140 C   0  0  0  0  0  0  0  0  0  0  0  0
   10.2570    8.0140  -10.0410 C   0  0  0  0  0  0  0  0  0  0  0  0
    9.8870    6.7210  -10.6550 C   0  0  1  0  0  0  0  0  0  0  0  0
    9.0360    6.0270   -9.7480 C   0  0  0  0  0  0  0  0  0  0  0  0
    8.2190    5.1270  -10.2940 C   0  0  0  0  0  0  0  0  0  0  0  0
    9.0330    4.2830  -11.2670 C   0  0  2  0  0  0  0  0  0  0  0  0
    8.6050    5.3280  -12.2790 C   0  0  2  0  0  0  0  0  0  0  0  0
    8.1950    6.4620  -12.0870 C   0  0  0  0  0  0  0  0  0  0  0  0
    9.1200    7.1900  -11.8330 O   0  0  0  0  0  0  0  0  0  0  0  0
    8.5080    3.8270  -12.7060 C   0  0  2  0  0  0  0  0  0  0  0  0
    7.1090    3.0810  -13.1500 C   0  0  1  0  0  0  0  0  0  0  0  0
    7.0140    2.0830  -13.1940 C   0  0  0  0  0  0  0  0  0  0  0  0
    6.7690    1.4890  -14.4800 C   0  0  0  0  0  0  0  0  0  0  0  0
    7.6220    1.0920  -15.7650 C   0  0  0  0  0  0  0  0  0  0  0  0
    7.5550   -0.1220  -15.9650 O   0  0  0  0  0  0  0  0  0  0  0  0
    7.9190    2.0880  -16.8860 C   0  0  1  0  0  0  0  0  0  0  0  0
    7.0230    2.1010  -18.0740 C   0  0  0  0  0  0  0  0  0  0  0  0
    6.2850    3.4620  -18.2600 C   0  0  0  0  0  0  0  0  0  0  0  0
    7.3030    4.6290  -18.1820 C   0  0  2  0  0  0  0  0  0  0  0  0
    6.7370    6.0790  -18.3900 C   0  0  2  0  0  0  0  0  0  0  0  0
    5.5520    6.5080  -17.7080 C   0  0  0  0  0  0  0  0  0  0  0  0
    5.4320    6.5640  -16.5460 O   0  0  0  0  0  0  0  0  0  0  0  0
    4.5470    7.1290  -18.6490 C   0  0  0  0  0  0  0  0  0  0  0  0
    5.5040    7.7430  -19.6620 C   0  0  2  0  0  0  0  0  0  0  0  0
    4.9750    8.3980  -21.0020 C   0  0  0  0  0  0  0  0  0  0  0  0
    6.3500    6.5530  -19.8030 C   0  0  2  0  0  0  0  0  0  0  0  0
    5.5720    5.5010  -20.1520 O   0  0  0  0  0  0  0  0  0  0  0  0
    8.4620    4.4390  -19.1890 C   0  0  0  0  0  0  0  0  0  0  0  0
    9.6000    5.2610  -18.7140 C   0  0  0  0  0  0  0  0  0  0  0  0
    9.3660    5.3910  -17.1200 C   0  0  0  0  0  0  0  0  0  0  0  0
    8.0270    4.7770  -16.8280 C   0  0  2  0  0  0  0  0  0  0  0  0
    8.3710    3.3330  -16.3170 C   0  0  0  0  0  0  0  0  0  0  0  0
    5.8530    3.9410  -13.0640 C   0  0  1  0  0  0  0  0  0  0  0  0
    5.1730    4.5720  -11.9150 C   0  0  0  0  0  0  0  0  0  0  0  0
    5.7130    5.2690  -13.9170 O   0  0  0  0  0  0  0  0  0  0  0  0
   12.1800    8.9970   -7.0100 C   0  0  2  0  0  0  0  0  0  0  0  0
   10.8625    7.2402   -3.1491 H   0  0  0  0  0  0  0  0  0  0  0  0
   11.6237    5.6948   -3.6583 H   0  0  0  0  0  0  0  0  0  0  0  0
   12.5849    7.2123   -3.6583 H   0  0  0  0  0  0  0  0  0  0  0  0
   10.0792    6.9723   -5.2336 H   0  0  0  0  0  0  0  0  0  0  0  0
   11.8955    5.0395   -5.8389 H   0  0  0  0  0  0  0  0  0  0  0  0
   10.6873    5.7468   -6.9643 H   0  0  0  0  0  0  0  0  0  0  0  0
   12.3780    6.3537   -6.9643 H   0  0  0  0  0  0  0  0  0  0  0  0
   12.3832    8.5212   -4.8033 H   0  0  0  0  0  0  0  0  0  0  0  0
    9.8249    9.9500   -5.6374 H   0  0  0  0  0  0  0  0  0  0  0  0
    9.5979    7.6341   -7.2567 H   0  0  0  0  0  0  0  0  0  0  0  0
    8.9042    9.0532   -7.7485 H   0  0  0  0  0  0  0  0  0  0  0  0
   11.3380    9.8000   -8.7060 H   0  0  0  0  0  0  0  0  0  0  0  0
   12.3631    7.7916   -9.4994 H   0  0  0  0  0  0  0  0  0  0  0  0
   11.3033    6.8348   -8.4878 H   0  0  0  0  0  0  0  0  0  0  0  0
    9.3783    8.4450   -9.5389 H   0  0  0  0  0  0  0  0  0  0  0  0
   10.6094    8.7013  -10.8242 H   0  0  0  0  0  0  0  0  0  0  0  0
   10.7184    6.0444  -10.9022 H   0  0  0  0  0  0  0  0  0  0  0  0
    9.6733    5.5058   -9.0185 H   0  0  0  0  0  0  0  0  0  0  0  0
    8.3834    6.7932   -9.3042 H   0  0  0  0  0  0  0  0  0  0  0  0
    7.7924    4.4851   -9.5092 H   0  0  0  0  0  0  0  0  0  0  0  0
    7.3939    5.6289  -10.8205 H   0  0  0  0  0  0  0  0  0  0  0  0
    9.7493    3.6838  -10.6857 H   0  0  0  0  0  0  0  0  0  0  0  0
    8.7440    6.1944  -12.9423 H   0  0  0  0  0  0  0  0  0  0  0  0
    7.6825    6.8235  -12.9907 H   0  0  0  0  0  0  0  0  0  0  0  0
    7.4920    6.4571  -11.2409 H   0  0  0  0  0  0  0  0  0  0  0  0
    8.9006    3.1497  -13.4787 H   0  0  0  0  0  0  0  0  0  0  0  0
    7.3686    2.9956  -14.2155 H   0  0  0  0  0  0  0  0  0  0  0  0
    7.9454    1.6472  -12.8034 H   0  0  0  0  0  0  0  0  0  0  0  0
    6.1070    1.8651  -12.6110 H   0  0  0  0  0  0  0  0  0  0  0  0
    6.3007    0.5316  -14.2077 H   0  0  0  0  0  0  0  0  0  0  0  0
    6.3978    2.4245  -14.9239 H   0  0  0  0  0  0  0  0  0  0  0  0
    8.7689    1.6993  -17.4662 H   0  0  0  0  0  0  0  0  0  0  0  0
    7.6270    1.9032  -18.9718 H   0  0  0  0  0  0  0  0  0  0  0  0
    6.2565    1.3274  -17.9190 H   0  0  0  0  0  0  0  0  0  0  0  0
    5.7881    3.4764  -19.2413 H   0  0  0  0  0  0  0  0  0  0  0  0
    5.5366    3.5802  -17.4626 H   0  0  0  0  0  0  0  0  0  0  0  0
    7.6735    6.4914  -17.9865 H   0  0  0  0  0  0  0  0  0  0  0  0
    3.8920    6.3737  -19.1077 H   0  0  0  0  0  0  0  0  0  0  0  0
    3.8401    7.8321  -18.1842 H   0  0  0  0  0  0  0  0  0  0  0  0
    5.9600    8.6888  -19.3340 H   0  0  0  0  0  0  0  0  0  0  0  0
    4.3007    9.2329  -20.7607 H   0  0  0  0  0  0  0  0  0  0  0  0
    5.8270    8.7725  -21.5883 H   0  0  0  0  0  0  0  0  0  0  0  0
    4.4296    7.6439  -21.5883 H   0  0  0  0  0  0  0  0  0  0  0  0
    7.1703    6.8022  -20.4922 H   0  0  0  0  0  0  0  0  0  0  0  0
    4.7150    5.8330  -20.5200 H   0  0  0  0  0  0  0  0  0  0  0  0
    8.7547    3.3794  -19.2301 H   0  0  0  0  0  0  0  0  0  0  0  0
    8.1541    4.7479  -20.1988 H   0  0  0  0  0  0  0  0  0  0  0  0
   10.5565    4.7614  -18.9273 H   0  0  0  0  0  0  0  0  0  0  0  0
    9.6455    6.2408  -19.2119 H   0  0  0  0  0  0  0  0  0  0  0  0
   10.1563    4.8531  -16.5759 H   0  0  0  0  0  0  0  0  0  0  0  0
    9.3966    6.4431  -16.8005 H   0  0  0  0  0  0  0  0  0  0  0  0
    7.4169    5.3543  -16.1177 H   0  0  0  0  0  0  0  0  0  0  0  0
    9.4692    3.2758  -16.3422 H   0  0  0  0  0  0  0  0  0  0  0  0
    7.7869    3.3278  -15.3849 H   0  0  0  0  0  0  0  0  0  0  0  0
    5.4629    2.9459  -13.3241 H   0  0  0  0  0  0  0  0  0  0  0  0
    5.5957    4.1798  -10.9782 H   0  0  0  0  0  0  0  0  0  0  0  0
    5.3193    5.6615  -11.9554 H   0  0  0  0  0  0  0  0  0  0  0  0
    4.0975    4.3447  -11.9554 H   0  0  0  0  0  0  0  0  0  0  0  0
    5.2280    5.9500  -13.3880 H   0  0  0  0  0  0  0  0  0  0  0  0
   13.2249    9.1102   -7.3345 H   0  0  0  0  0  0  0  0  0  0  0  0
  1  2  1  0
  2  3  1  0
  2  4  1  0
  4  5  1  0
  5  6  1  0
  6  7  1  0
  7  8  1  0
  8  9  1  0
  9 10  1  0
 10 11  1  0
 11 12  1  0
 12 13  1  0
 13 14  1  0
 14 15  1  0
 15 16  1  0
 14 17  1  0
 17 18  1  0
 18 19  1  0
 19 20  1  0
 20 21  1  0
 21 22  2  0
 21 23  1  0
 23 24  1  0
 24 25  1  0
 26 25  1  1
 26 27  1  0
 27 28  1  0
 28 29  2  0
 28 30  1  0
 30 31  1  0
 31 32  1  0
 31 33  1  0
 33 34  1  0
 26 35  1  0
 35 36  1  0
 36 37  1  0
 37 38  1  0
 38 39  1  0
 18 40  1  0
 40 41  1  0
 40 42  1  0
  7 43  1  0
 43  4  1  0
 43  5  1  0
 16 10  1  0
 39 23  1  0
 17 13  1  0
 38 26  1  0
 33 27  1  0
  1 44  1  0
  1 45  1  0
  1 46  1  0
  2 47  1  0
  3 48  1  0
  3 49  1  0
  3 50  1  0
  4 51  1  1
  5 52  1  1
  6 53  1  0
  6 54  1  0
  7 55  1  6
  8 56  1  0
  8 57  1  0
  9 58  1  0
  9 59  1  0
 10 60  1  6
 11 61  1  0
 11 62  1  0
 12 63  1  0
 12 64  1  0
 13 65  1  1
 14 66  1  6
 15 67  1  0
 15 68  1  0
 17 69  1  6
 18 70  1  6
 19 71  1  0
 19 72  1  0
 20 73  1  0
 20 74  1  0
 23 75  1  6
 24 76  1  0
 24 77  1  0
 25 78  1  0
 25 79  1  0
 27 80  1  1
 30 81  1  0
 30 82  1  0
 31 83  1  1
 32 84  1  0
 32 85  1  0
 32 86  1  0
 33 87  1  6
 34 88  1  0
 35 89  1  0
 35 90  1  0
 36 91  1  0
 36 92  1  0
 37 93  1  0
 37 94  1  0
 38 95  1  1
 39 96  1  0
 39 97  1  0
 40 98  1  6
 41 99  1  0
 41100  1  0
 41101  1  0
 42102  1  0
 43103  1  6
M  CHG  1   7   1
M  END
>  <docking_score>  (17) 
-10.014

>  <plif_similarity>  (17) 
0.429

$$$$
DiffSBDD_32
     RDKit          3D

 76 79  0  0  0  0  0  0  0  0999 V2000
   12.8610    8.4070  -10.2550 C   0  0  0  0  0  0  0  0  0  0  0  0
   11.9150    7.9760   -9.8810 C   0  0  0  0  0  0  0  0  0  0  0  0
   11.9830    8.5450   -8.4060 C   0  0  0  0  0  0  0  0  0  0  0  0
   10.6240    8.3230   -7.7660 C   0  0  0  0  0  0  0  0  0  0  0  0
   10.3440    7.2760   -6.9560 C   0  0  1  0  0  0  0  0  0  0  0  0
   11.3270    7.8760   -5.7490 C   0  0  0  0  0  0  0  0  0  0  0  0
   11.2930    6.7820   -4.8150 C   0  0  0  0  0  0  0  0  0  0  0  0
    9.2360    6.6310   -6.8040 C   0  0  0  0  0  0  0  0  0  0  0  0
    9.0400    5.3100   -7.6520 C   0  0  0  0  0  0  0  0  0  0  0  0
    8.4130    5.1870   -9.0050 C   0  0  0  0  0  0  0  0  0  0  0  0
    8.8030    6.0170  -10.1350 C   0  0  2  0  0  0  0  0  0  0  0  0
    8.8750    5.0440  -11.6180 C   0  0  2  0  0  0  0  0  0  0  0  0
    9.3370    5.7660  -12.7390 O   0  0  0  0  0  0  0  0  0  0  0  0
    9.1500    5.4700  -14.0560 O   0  0  0  0  0  0  0  0  0  0  0  0
    7.7520    5.2170  -14.3400 C   0  0  1  0  0  0  0  0  0  0  0  0
    7.7640    4.0910  -15.5020 C   0  0  1  0  0  0  0  0  0  0  0  0
    8.8680    4.3240  -16.3220 C   0  0  0  0  0  0  0  0  0  0  0  0
    7.7840    2.8330  -14.9540 O   0  0  0  0  0  0  0  0  0  0  0  0
    6.7920    2.0070  -14.8510 C   0  0  0  0  0  0  0  0  0  0  0  0
    5.7520    2.2190  -14.2020 O   0  0  0  0  0  0  0  0  0  0  0  0
    7.1890    0.6750  -15.4700 C   0  0  1  0  0  0  0  0  0  0  0  0
    7.9800   -0.1200  -14.4600 F   0  0  0  0  0  0  0  0  0  0  0  0
    6.0360    0.2830  -16.3300 C   0  0  2  0  0  0  0  0  0  0  0  0
    6.2110    1.5360  -17.3110 O   0  0  0  0  0  0  0  0  0  0  0  0
    5.3820    1.2450  -18.2420 F   0  0  0  0  0  0  0  0  0  0  0  0
    6.0800   -1.2720  -16.0780 N   0  0  0  0  0  0  0  0  0  0  0  0
    6.5400   -0.9370  -17.1810 C   0  0  2  0  0  0  0  0  0  0  0  0
    8.1130   -0.5510  -17.4970 C   0  0  0  0  0  0  0  0  0  0  0  0
    8.5500   -1.8840  -18.0100 O   0  0  0  0  0  0  0  0  0  0  0  0
    6.8810    6.2420  -13.2360 C   0  0  2  0  0  0  0  0  0  0  0  0
    7.0730    5.2620  -12.1020 C   0  0  1  0  0  0  0  0  0  0  0  0
    6.6410    4.1250  -12.4410 O   0  0  0  0  0  0  0  0  0  0  0  0
    6.3180    6.0920  -14.6090 C   0  0  1  0  0  0  0  0  0  0  0  0
    5.8980    6.6720  -16.1180 S   0  0  0  0  0  0  0  0  0  0  0  0
    9.7820    7.1200   -9.9830 C   0  0  2  0  0  0  0  0  0  0  0  0
    9.3120    7.9210  -11.1980 O   0  0  0  0  0  0  0  0  0  0  0  0
   11.0670    7.0000  -10.1420 C   0  0  0  0  0  0  0  0  0  0  0  0
   13.1766    8.2237  -11.2927 H   0  0  0  0  0  0  0  0  0  0  0  0
   13.4873    9.0194   -9.5897 H   0  0  0  0  0  0  0  0  0  0  0  0
   12.7583    8.0139   -7.8343 H   0  0  0  0  0  0  0  0  0  0  0  0
   12.2355    9.6156   -8.4158 H   0  0  0  0  0  0  0  0  0  0  0  0
   10.4198    9.2261   -7.1721 H   0  0  0  0  0  0  0  0  0  0  0  0
   10.0077    8.0858   -8.6457 H   0  0  0  0  0  0  0  0  0  0  0  0
   10.4441    6.2529   -7.3475 H   0  0  0  0  0  0  0  0  0  0  0  0
   12.3471    8.0672   -6.1135 H   0  0  0  0  0  0  0  0  0  0  0  0
   11.0056    8.8428   -5.3344 H   0  0  0  0  0  0  0  0  0  0  0  0
   11.3052    7.1761   -3.7881 H   0  0  0  0  0  0  0  0  0  0  0  0
   10.3762    6.1947   -4.9714 H   0  0  0  0  0  0  0  0  0  0  0  0
   12.1716    6.1389   -4.9714 H   0  0  0  0  0  0  0  0  0  0  0  0
    9.1575    6.3559   -5.7419 H   0  0  0  0  0  0  0  0  0  0  0  0
    8.4584    7.3178   -7.1697 H   0  0  0  0  0  0  0  0  0  0  0  0
   10.0532    4.8989   -7.7721 H   0  0  0  0  0  0  0  0  0  0  0  0
    8.2520    4.8327   -7.0510 H   0  0  0  0  0  0  0  0  0  0  0  0
    8.5765    4.1464   -9.3219 H   0  0  0  0  0  0  0  0  0  0  0  0
    7.3917    5.5457   -8.8091 H   0  0  0  0  0  0  0  0  0  0  0  0
    7.9735    6.7346  -10.2185 H   0  0  0  0  0  0  0  0  0  0  0  0
    9.4142    4.1011  -11.4443 H   0  0  0  0  0  0  0  0  0  0  0  0
    6.8487    4.1526  -16.1089 H   0  0  0  0  0  0  0  0  0  0  0  0
    9.7548    4.5112  -15.6986 H   0  0  0  0  0  0  0  0  0  0  0  0
    9.0454    3.4435  -16.9570 H   0  0  0  0  0  0  0  0  0  0  0  0
    8.6745    5.2011  -16.9570 H   0  0  0  0  0  0  0  0  0  0  0  0
    7.9696    0.5438  -16.2338 H   0  0  0  0  0  0  0  0  0  0  0  0
    6.7240   -1.6410  -15.3630 H   0  0  0  0  0  0  0  0  0  0  0  0
    6.3438   -1.4924  -18.1100 H   0  0  0  0  0  0  0  0  0  0  0  0
    8.2044    0.2391  -18.2568 H   0  0  0  0  0  0  0  0  0  0  0  0
    8.6905   -0.1430  -16.6544 H   0  0  0  0  0  0  0  0  0  0  0  0
    9.5360   -1.9010  -18.0870 H   0  0  0  0  0  0  0  0  0  0  0  0
    6.7070    7.1729  -12.6764 H   0  0  0  0  0  0  0  0  0  0  0  0
    6.5214    5.6762  -11.2451 H   0  0  0  0  0  0  0  0  0  0  0  0
    6.7230    3.5000  -11.6780 H   0  0  0  0  0  0  0  0  0  0  0  0
    5.2380    6.1661  -14.8043 H   0  0  0  0  0  0  0  0  0  0  0  0
    6.4330    5.8600  -17.0830 H   0  0  0  0  0  0  0  0  0  0  0  0
    9.7608    7.4423   -8.9315 H   0  0  0  0  0  0  0  0  0  0  0  0
    8.4280    8.3220  -11.0070 H   0  0  0  0  0  0  0  0  0  0  0  0
   11.3736    6.1541   -9.5092 H   0  0  0  0  0  0  0  0  0  0  0  0
   11.1484    6.9228  -11.2363 H   0  0  0  0  0  0  0  0  0  0  0  0
  1  2  2  0
  2  3  1  0
  3  4  1  0
  4  5  1  0
  5  6  1  0
  6  7  1  0
  5  8  1  0
  8  9  1  0
  9 10  1  0
 10 11  1  0
 11 12  1  0
 12 13  1  0
 13 14  1  0
 15 14  1  6
 15 16  1  0
 16 17  1  0
 16 18  1  0
 18 19  1  0
 19 20  2  0
 19 21  1  0
 21 22  1  0
 21 23  1  0
 23 24  1  1
 24 25  1  0
 23 26  1  0
 26 27  1  0
 27 28  1  0
 28 29  1  0
 15 30  1  0
 30 31  1  0
 31 32  1  0
 30 33  1  0
 33 34  1  0
 11 35  1  0
 35 36  1  0
 35 37  1  0
 37  2  1  0
 31 12  1  0
 33 15  1  0
 27 23  1  0
  1 38  1  0
  1 39  1  0
  3 40  1  0
  3 41  1  0
  4 42  1  0
  4 43  1  0
  5 44  1  6
  6 45  1  0
  6 46  1  0
  7 47  1  0
  7 48  1  0
  7 49  1  0
  8 50  1  0
  8 51  1  0
  9 52  1  0
  9 53  1  0
 10 54  1  0
 10 55  1  0
 11 56  1  6
 12 57  1  1
 16 58  1  6
 17 59  1  0
 17 60  1  0
 17 61  1  0
 21 62  1  6
 26 63  1  0
 27 64  1  6
 28 65  1  0
 28 66  1  0
 29 67  1  0
 30 68  1  1
 31 69  1  1
 32 70  1  0
 33 71  1  1
 34 72  1  0
 35 73  1  1
 36 74  1  0
 37 75  1  0
 37 76  1  0
M  END
>  <docking_score>  (18) 
-9.378

>  <plif_similarity>  (18) 
0.286

$$$$
DiffSBDD_35
     RDKit          3D

 57 59  0  0  0  0  0  0  0  0999 V2000
    5.5480   -0.4830  -16.1580 C   0  0  0  0  0  0  0  0  0  0  0  0
    6.4940   -0.6170  -15.4190 O   0  0  0  0  0  0  0  0  0  0  0  0
    7.3490    0.1840  -14.8670 C   0  0  0  0  0  0  0  0  0  0  0  0
    6.4980    1.0470  -14.1480 O   0  0  0  0  0  0  0  0  0  0  0  0
    6.8420    2.4700  -14.3590 C   0  0  0  0  0  0  0  0  0  0  0  0
    7.2480    2.7580  -15.5750 C   0  0  0  0  0  0  0  0  0  0  0  0
    7.6790    3.8100  -16.0590 C   0  0  0  0  0  0  0  0  0  0  0  0
    7.3740    4.9500  -15.6060 C   0  0  0  0  0  0  0  0  0  0  0  0
    6.9830    5.4410  -14.4470 C   0  0  0  0  0  0  0  0  0  0  0  0
    6.4240    7.1520  -14.5710 Cl  0  0  0  0  0  0  0  0  0  0  0  0
    6.8410    4.7130  -13.2940 C   0  0  0  0  0  0  0  0  0  0  0  0
    6.9090    5.3150  -11.5320 S   0  0  0  0  0  4  0  0  0  0  0  0
    6.2310    4.1570  -10.8650 O   0  0  0  0  0  0  0  0  0  0  0  0
    8.5750    5.1670  -10.8930 C   0  0  0  0  0  0  0  0  0  0  0  0
    9.4130    4.5710  -11.5350 O   0  0  0  0  0  0  0  0  0  0  0  0
    8.9690    5.5050   -9.4860 C   0  0  0  0  0  0  0  0  0  0  0  0
    9.5450    6.8930   -9.3720 C   0  0  1  0  0  0  0  0  0  0  0  0
    9.4260    7.9700  -10.4420 C   0  0  0  0  0  0  0  0  0  0  0  0
   10.4370    7.2020   -8.1340 C   0  0  2  0  0  0  0  0  0  0  0  0
   10.2410    6.8340   -6.7050 C   0  0  0  0  0  0  0  0  0  0  0  0
   11.2700    7.7060   -6.1110 N   0  0  0  0  0  0  0  0  0  0  0  0
   11.5720    7.8340   -4.8200 C   0  0  0  0  0  0  0  0  0  0  0  0
   11.5060    6.7050   -4.1310 C   0  0  0  0  0  0  0  0  0  0  0  0
   11.9630    6.7570   -2.8610 C   0  0  0  0  0  0  0  0  0  0  0  0
   12.4170    7.9250   -2.3020 C   0  0  0  0  0  0  0  0  0  0  0  0
   12.3520    9.0600   -3.1410 C   0  0  0  0  0  0  0  0  0  0  0  0
   11.9730    9.0450   -4.3720 N   0  0  0  0  0  0  0  0  0  0  0  0
   11.6780    8.7080   -6.7900 C   0  0  0  0  0  0  0  0  0  0  0  0
   11.4750    8.3190   -8.4900 C   0  0  1  0  0  0  0  0  0  0  0  0
   12.2650    7.7300   -9.1430 F   0  0  0  0  0  0  0  0  0  0  0  0
    6.7010    3.3810  -13.4630 C   0  0  0  0  0  0  0  0  0  0  0  0
    4.6326   -0.3533  -15.5620 H   0  0  0  0  0  0  0  0  0  0  0  0
    5.7009    0.4025  -16.7925 H   0  0  0  0  0  0  0  0  0  0  0  0
    5.4490   -1.3761  -16.7925 H   0  0  0  0  0  0  0  0  0  0  0  0
    8.0327   -0.3574  -14.1965 H   0  0  0  0  0  0  0  0  0  0  0  0
    8.0104    0.6968  -15.5808 H   0  0  0  0  0  0  0  0  0  0  0  0
    7.1951    1.9185  -16.2838 H   0  0  0  0  0  0  0  0  0  0  0  0
    8.7755    3.7439  -16.0011 H   0  0  0  0  0  0  0  0  0  0  0  0
    7.1819    3.8218  -17.0402 H   0  0  0  0  0  0  0  0  0  0  0  0
    7.4558    5.7318  -16.3755 H   0  0  0  0  0  0  0  0  0  0  0  0
    8.0789    5.4373   -8.8433 H   0  0  0  0  0  0  0  0  0  0  0  0
    9.7453    4.7913   -9.1728 H   0  0  0  0  0  0  0  0  0  0  0  0
   10.4817    6.5419   -9.8296 H   0  0  0  0  0  0  0  0  0  0  0  0
    9.3173    8.9536   -9.9617 H   0  0  0  0  0  0  0  0  0  0  0  0
   10.3301    7.9658  -11.0686 H   0  0  0  0  0  0  0  0  0  0  0  0
    8.5446    7.7685  -11.0686 H   0  0  0  0  0  0  0  0  0  0  0  0
   10.6021    6.1430   -7.8864 H   0  0  0  0  0  0  0  0  0  0  0  0
    9.2307    7.0826   -6.3479 H   0  0  0  0  0  0  0  0  0  0  0  0
   10.3301    5.7628   -6.4713 H   0  0  0  0  0  0  0  0  0  0  0  0
   11.1027    5.7793   -4.5673 H   0  0  0  0  0  0  0  0  0  0  0  0
   11.9715    5.8371   -2.2579 H   0  0  0  0  0  0  0  0  0  0  0  0
   12.8041    7.9742   -1.2736 H   0  0  0  0  0  0  0  0  0  0  0  0
   12.6470   10.0285   -2.7109 H   0  0  0  0  0  0  0  0  0  0  0  0
   11.0850    9.5990   -6.5362 H   0  0  0  0  0  0  0  0  0  0  0  0
   12.7340    8.9205   -6.5668 H   0  0  0  0  0  0  0  0  0  0  0  0
   11.3628    9.2366   -9.0862 H   0  0  0  0  0  0  0  0  0  0  0  0
    6.3510    2.9250  -12.5252 H   0  0  0  0  0  0  0  0  0  0  0  0
  1  2  1  0
  2  3  1  0
  3  4  1  0
  4  5  1  0
  5  6  2  0
  6  7  1  0
  7  8  1  0
  8  9  2  0
  9 10  1  0
  9 11  1  0
 11 12  1  0
 12 13  2  0
 12 14  1  1
 14 15  2  0
 14 16  1  0
 16 17  1  0
 17 18  1  0
 17 19  1  0
 19 20  1  0
 20 21  1  0
 21 22  1  0
 22 23  2  0
 23 24  1  0
 24 25  2  0
 25 26  1  0
 26 27  2  0
 21 28  1  0
 28 29  1  0
 29 30  1  0
 11 31  2  0
 31  5  1  0
 29 19  1  0
 27 22  1  0
  1 32  1  0
  1 33  1  0
  1 34  1  0
  3 35  1  0
  3 36  1  0
  6 37  1  0
  7 38  1  0
  7 39  1  0
  8 40  1  0
 16 41  1  0
 16 42  1  0
 17 43  1  1
 18 44  1  0
 18 45  1  0
 18 46  1  0
 19 47  1  6
 20 48  1  0
 20 49  1  0
 23 50  1  0
 24 51  1  0
 25 52  1  0
 26 53  1  0
 28 54  1  0
 28 55  1  0
 29 56  1  6
 31 57  1  0
M  END
>  <docking_score>  (19) 
-10.023

>  <plif_similarity>  (19) 
0.571

$$$$
DiffSBDD_36
     RDKit          3D

 49 51  0  0  0  0  0  0  0  0999 V2000
    7.0420    6.4390  -13.3720 C   0  0  0  0  0  0  0  0  0  0  0  0
    7.5130    5.3530  -12.3650 C   0  0  1  0  0  0  0  0  0  0  0  0
    8.7910    5.7130  -11.5890 C   0  0  0  0  0  0  0  0  0  0  0  0
    9.9610    5.4830  -12.0900 O   0  0  0  0  0  0  0  0  0  0  0  0
    8.6790    6.2540  -10.4250 N   0  0  0  0  0  0  0  0  0  0  0  0
    9.6060    6.2030   -9.3490 C   0  0  2  0  0  0  0  0  0  0  0  0
    9.2550    6.2500   -7.7810 C   0  0  0  0  0  0  0  0  0  0  0  0
   10.6100    6.5850   -6.9770 C   0  0  0  0  0  0  0  0  0  0  0  0
   11.2590    7.6660   -6.0870 C   0  0  0  0  0  0  0  0  0  0  0  0
   11.5990    9.0560   -6.5650 C   0  0  0  0  0  0  0  0  0  0  0  0
   12.2110    9.7130   -5.4490 C   0  0  0  0  0  0  0  0  0  0  0  0
   12.1950    8.7970   -4.3760 C   0  0  0  0  0  0  0  0  0  0  0  0
   12.6380    8.9940   -3.0900 C   0  0  0  0  0  0  0  0  0  0  0  0
   12.5600    7.9310   -2.2000 C   0  0  0  0  0  0  0  0  0  0  0  0
   11.9820    6.7220   -2.5680 C   0  0  0  0  0  0  0  0  0  0  0  0
   11.5250    6.5280   -3.8180 C   0  0  0  0  0  0  0  0  0  0  0  0
   11.5920    7.5620   -4.8000 C   0  0  1  0  0  0  0  0  0  0  0  0
   10.2850    7.5470   -9.4370 C   0  0  0  0  0  0  0  0  0  0  0  0
    9.3670    8.5210   -9.3180 O   0  0  0  0  0  0  0  0  0  0  0  0
   11.4360    7.6910   -9.8940 O   0  0  0  0  0  0  0  0  0  0  0  0
    6.3920    5.0670  -11.3380 C   0  0  0  0  0  0  0  0  0  0  0  0
    5.6910    3.9160  -11.9490 C   0  0  0  0  0  0  0  0  0  0  0  0
    6.2660    3.5660  -13.3200 C   0  0  0  0  0  0  0  0  0  0  0  0
    7.7200    3.8790  -13.1520 C   0  0  1  0  0  0  0  0  0  0  0  0
    8.3570    4.0010  -14.4300 O   0  0  0  0  0  0  0  0  0  0  0  0
    6.6635    7.3117  -12.8197 H   0  0  0  0  0  0  0  0  0  0  0  0
    7.8886    6.7443  -14.0045 H   0  0  0  0  0  0  0  0  0  0  0  0
    6.2406    6.0296  -14.0045 H   0  0  0  0  0  0  0  0  0  0  0  0
    7.8150    6.7870  -10.2540 H   0  0  0  0  0  0  0  0  0  0  0  0
   10.0437    5.2077   -9.5155 H   0  0  0  0  0  0  0  0  0  0  0  0
    8.5047    7.0313   -7.5898 H   0  0  0  0  0  0  0  0  0  0  0  0
    8.8448    5.2837   -7.4523 H   0  0  0  0  0  0  0  0  0  0  0  0
   10.6850    5.7047   -6.3217 H   0  0  0  0  0  0  0  0  0  0  0  0
   11.0828    6.9980   -7.8803 H   0  0  0  0  0  0  0  0  0  0  0  0
   11.4149    9.4778   -7.5641 H   0  0  0  0  0  0  0  0  0  0  0  0
   12.6159   10.7356   -5.4318 H   0  0  0  0  0  0  0  0  0  0  0  0
   13.0431    9.9668   -2.7745 H   0  0  0  0  0  0  0  0  0  0  0  0
   12.9637    8.0482   -1.1835 H   0  0  0  0  0  0  0  0  0  0  0  0
   11.8971    5.9132   -1.8273 H   0  0  0  0  0  0  0  0  0  0  0  0
   11.0913    5.5540   -4.0888 H   0  0  0  0  0  0  0  0  0  0  0  0
   12.5983    7.2235   -5.0877 H   0  0  0  0  0  0  0  0  0  0  0  0
    6.8099    4.8030  -10.3553 H   0  0  0  0  0  0  0  0  0  0  0  0
    5.7379    5.9307  -11.1478 H   0  0  0  0  0  0  0  0  0  0  0  0
    5.7934    3.0439  -11.2865 H   0  0  0  0  0  0  0  0  0  0  0  0
    4.6338    4.1896  -12.0808 H   0  0  0  0  0  0  0  0  0  0  0  0
    6.1131    2.5024  -13.5553 H   0  0  0  0  0  0  0  0  0  0  0  0
    5.7923    4.1152  -14.1470 H   0  0  0  0  0  0  0  0  0  0  0  0
    8.3531    3.1469  -12.6293 H   0  0  0  0  0  0  0  0  0  0  0  0
    7.9210    4.7220  -14.9480 H   0  0  0  0  0  0  0  0  0  0  0  0
  2  1  1  6
  2  3  1  0
  3  4  2  0
  3  5  1  0
  5  6  1  0
  6  7  1  0
  7  8  1  0
  8  9  1  0
  9 10  2  0
 10 11  1  0
 11 12  2  0
 12 13  1  0
 13 14  2  0
 14 15  1  0
 15 16  2  0
 16 17  1  0
  6 18  1  0
 18 19  2  0
 18 20  1  0
  2 21  1  0
 21 22  1  0
 22 23  1  0
 23 24  1  0
 24 25  1  0
 24  2  1  0
 17  9  1  0
 17 12  1  0
  1 26  1  0
  1 27  1  0
  1 28  1  0
  5 29  1  0
  6 30  1  1
  7 31  1  0
  7 32  1  0
  8 33  1  0
  8 34  1  0
 10 35  1  0
 11 36  1  0
 13 37  1  0
 14 38  1  0
 15 39  1  0
 16 40  1  0
 17 41  1  6
 21 42  1  0
 21 43  1  0
 22 44  1  0
 22 45  1  0
 23 46  1  0
 23 47  1  0
 24 48  1  1
 25 49  1  0
M  CHG  1  20  -1
M  END
>  <docking_score>  (20) 
-10.354

>  <plif_similarity>  (20) 
0.571

$$$$
DiffSBDD_39
     RDKit          3D

 48 49  0  0  0  0  0  0  0  0999 V2000
   13.6150    7.9980  -10.0170 O   0  0  0  0  0  0  0  0  0  0  0  0
   12.5660    8.4130   -9.3620 C   0  0  0  0  0  0  0  0  0  0  0  0
   12.9250    8.9200   -8.4080 O   0  0  0  0  0  0  0  0  0  0  0  0
   10.9490    8.4900   -9.5560 C   0  0  0  0  0  0  0  0  0  0  0  0
   11.6780    7.5710  -10.1590 C   0  0  1  0  0  0  0  0  0  0  0  0
   11.3060    7.3380  -11.5850 C   0  0  0  0  0  0  0  0  0  0  0  0
    9.8400    7.1880  -11.4350 C   0  0  0  0  0  0  0  0  0  0  0  0
    9.4590    5.7890  -11.6360 C   0  0  0  0  0  0  0  0  0  0  0  0
    8.6120    5.1320  -10.6230 N   0  0  0  0  0  0  0  0  0  0  0  0
    8.6100    5.7070   -9.2430 C   0  0  0  0  0  0  0  0  0  0  0  0
    9.5450    4.8770   -8.3870 C   0  0  0  0  0  0  0  0  0  0  0  0
    9.4790    6.1730   -7.3430 C   0  0  0  0  0  0  0  0  0  0  0  0
   10.9400    6.2510   -6.8060 C   0  0  0  0  0  0  0  0  0  0  0  0
   11.1180    7.0530   -5.4910 C   0  0  0  0  0  0  0  0  0  0  0  0
   11.4050    6.4020   -4.1920 C   0  0  0  0  0  0  0  0  0  0  0  0
   12.0600    7.0690   -3.0090 C   0  0  0  0  0  0  0  0  0  0  0  0
   12.6220    8.3730   -2.7310 C   0  0  0  0  0  0  0  0  0  0  0  0
   12.2430    9.5760   -3.4950 C   0  0  0  0  0  0  0  0  0  0  0  0
   11.4870    9.6210   -4.7340 C   0  0  0  0  0  0  0  0  0  0  0  0
   11.2530    8.4740   -5.7120 C   0  0  0  0  0  0  0  0  0  0  0  0
   13.3320    7.3840  -10.7400 H   0  0  0  0  0  0  0  0  0  0  0  0
   13.2800    8.2380   -7.7860 H   0  0  0  0  0  0  0  0  0  0  0  0
   10.2772    8.2119   -8.7305 H   0  0  0  0  0  0  0  0  0  0  0  0
   10.2291    9.2586   -9.8738 H   0  0  0  0  0  0  0  0  0  0  0  0
   11.8660    6.4882  -10.2047 H   0  0  0  0  0  0  0  0  0  0  0  0
   11.5675    8.1955  -12.2225 H   0  0  0  0  0  0  0  0  0  0  0  0
   11.8157    6.4919  -12.0692 H   0  0  0  0  0  0  0  0  0  0  0  0
    9.5424    7.5055  -10.4247 H   0  0  0  0  0  0  0  0  0  0  0  0
    9.3335    7.8126  -12.1855 H   0  0  0  0  0  0  0  0  0  0  0  0
    8.9196    5.7349  -12.5932 H   0  0  0  0  0  0  0  0  0  0  0  0
   10.4122    5.2427  -11.5815 H   0  0  0  0  0  0  0  0  0  0  0  0
    8.9240    4.1540  -10.5480 H   0  0  0  0  0  0  0  0  0  0  0  0
    7.6480    5.2650  -10.9620 H   0  0  0  0  0  0  0  0  0  0  0  0
    8.9586    6.7499   -9.2729 H   0  0  0  0  0  0  0  0  0  0  0  0
    7.5930    5.6900   -8.8241 H   0  0  0  0  0  0  0  0  0  0  0  0
    9.1201    3.9391   -7.9998 H   0  0  0  0  0  0  0  0  0  0  0  0
   10.4871    4.4495   -8.7608 H   0  0  0  0  0  0  0  0  0  0  0  0
    9.2008    7.0960   -7.8728 H   0  0  0  0  0  0  0  0  0  0  0  0
    8.7264    6.0576   -6.5491 H   0  0  0  0  0  0  0  0  0  0  0  0
   11.2927    5.2243   -6.6288 H   0  0  0  0  0  0  0  0  0  0  0  0
   11.5185    6.7883   -7.5719 H   0  0  0  0  0  0  0  0  0  0  0  0
   11.1169    5.3462   -4.0813 H   0  0  0  0  0  0  0  0  0  0  0  0
   12.1274    6.3967   -2.1410 H   0  0  0  0  0  0  0  0  0  0  0  0
   13.3589    8.4705   -1.9201 H   0  0  0  0  0  0  0  0  0  0  0  0
   12.5676   10.5426   -3.0823 H   0  0  0  0  0  0  0  0  0  0  0  0
   11.0333   10.5882   -4.9960 H   0  0  0  0  0  0  0  0  0  0  0  0
   10.3196    8.7508   -6.2241 H   0  0  0  0  0  0  0  0  0  0  0  0
   12.2681    8.4486   -6.1350 H   0  0  0  0  0  0  0  0  0  0  0  0
  1  2  1  0
  2  3  1  0
  2  4  1  0
  4  5  1  0
  5  6  1  0
  6  7  1  0
  7  8  1  0
  8  9  1  0
  9 10  1  0
 10 11  1  0
 11 12  1  0
 12 13  1  0
 13 14  1  0
 14 15  2  0
 15 16  1  0
 16 17  2  0
 17 18  1  0
 18 19  2  0
 19 20  1  0
  5  2  1  0
 20 14  1  0
  1 21  1  0
  3 22  1  0
  4 23  1  0
  4 24  1  0
  5 25  1  1
  6 26  1  0
  6 27  1  0
  7 28  1  0
  7 29  1  0
  8 30  1  0
  8 31  1  0
  9 32  1  0
  9 33  1  0
 10 34  1  0
 10 35  1  0
 11 36  1  0
 11 37  1  0
 12 38  1  0
 12 39  1  0
 13 40  1  0
 13 41  1  0
 15 42  1  0
 16 43  1  0
 17 44  1  0
 18 45  1  0
 19 46  1  0
 20 47  1  0
 20 48  1  0
M  CHG  1   9   1
M  END
>  <docking_score>  (21) 
-7.474

>  <plif_similarity>  (21) 
0.286

$$$$
DiffSBDD_40
     RDKit          3D

 91 97  0  0  0  0  0  0  0  0999 V2000
    6.0900    8.1050  -15.8740 C   0  0  0  0  0  0  0  0  0  0  0  0
    5.9530    6.7720  -15.2160 C   0  0  2  0  0  0  0  0  0  0  0  0
    5.8430    6.7810  -13.7370 C   0  0  0  0  0  0  0  0  0  0  0  0
    7.1110    7.1420  -12.8120 C   0  0  0  0  0  0  0  0  0  0  0  0
    7.6140    5.7290  -12.3390 C   0  0  2  0  0  0  0  0  0  0  0  0
    7.9360    5.5620  -11.1080 O   0  0  0  0  0  0  0  0  0  0  0  0
    8.8980    5.6380  -10.1730 C   0  0  0  0  0  0  0  0  0  0  0  0
    9.9460    6.6320  -10.5450 C   0  0  0  0  0  0  0  0  0  0  0  0
   10.2680    7.5820   -9.2590 C   0  0  1  0  0  0  0  0  0  0  0  0
   11.3890    8.4700   -9.3990 O   0  0  0  0  0  0  0  0  0  0  0  0
   12.6610    8.3980   -9.3570 C   0  0  0  0  0  0  0  0  0  0  0  0
   13.2630    8.2630  -10.5090 N   0  0  0  0  0  0  0  0  0  0  0  0
   13.3060    8.5280   -8.2940 O   0  0  0  0  0  0  0  0  0  0  0  0
    9.4410    7.4720   -8.1120 C   0  0  2  0  0  0  0  0  0  0  0  0
    8.6770    8.0970   -6.9770 C   0  0  0  0  0  0  0  0  0  0  0  0
   10.2510    7.9970   -6.9200 C   0  0  1  0  0  0  0  0  0  0  0  0
   10.5750    6.8030   -6.1980 C   0  0  0  0  0  0  0  0  0  0  0  0
   11.2610    7.2080   -5.0130 C   0  0  0  0  0  0  0  0  0  0  0  0
   11.6290    6.5300   -3.8580 C   0  0  0  0  0  0  0  0  0  0  0  0
   12.4050    7.1880   -2.8860 C   0  0  0  0  0  0  0  0  0  0  0  0
   12.8080    8.4800   -3.0350 C   0  0  0  0  0  0  0  0  0  0  0  0
   12.3720    9.2300   -4.1740 C   0  0  0  0  0  0  0  0  0  0  0  0
   11.5310    8.5750   -5.1790 C   0  0  0  0  0  0  0  0  0  0  0  0
   10.9910    9.0590   -6.2480 N   0  0  0  0  0  0  0  0  0  0  0  0
    7.5780    4.5060  -13.2350 C   0  0  0  0  0  0  0  0  0  0  0  0
    8.0320    3.3150  -12.6130 C   0  0  0  0  0  0  0  0  0  0  0  0
    7.9260    2.1030  -13.3120 C   0  0  0  0  0  0  0  0  0  0  0  0
    7.4270    2.0570  -14.5750 C   0  0  0  0  0  0  0  0  0  0  0  0
    6.9710    3.2940  -15.2080 C   0  0  0  0  0  0  0  0  0  0  0  0
    7.1280    4.5710  -14.6040 C   0  0  0  0  0  0  0  0  0  0  0  0
    7.0230    5.7990  -15.6540 C   0  0  1  0  0  0  0  0  0  0  0  0
    7.0710    5.6100  -17.1150 N   0  0  1  0  0  0  0  0  0  0  0  0
    5.8590    5.1230  -17.6410 O   0  0  0  0  0  0  0  0  0  0  0  0
    5.9000    4.9990  -19.0330 C   0  0  0  0  0  0  0  0  0  0  0  0
    7.4230    5.3090  -19.2920 C   0  0  0  0  0  0  0  0  0  0  0  0
    8.3430    5.5500  -20.6150 C   0  0  0  0  0  0  0  0  0  0  0  0
    9.3490    6.0120  -20.1730 C   0  0  0  0  0  0  0  0  0  0  0  0
   10.0200    5.9150  -19.1560 C   0  0  1  0  0  0  0  0  0  0  0  0
   10.9310    6.8520  -19.6080 N   0  0  0  0  0  0  0  0  0  0  0  0
   11.0160    7.7700  -20.0090 C   0  0  0  0  0  0  0  0  0  0  0  0
   12.1570    7.6670  -19.2520 N   0  0  0  0  0  0  0  0  0  0  0  0
    9.5080    5.8120  -17.9410 C   0  0  0  0  0  0  0  0  0  0  0  0
    8.0230    5.6940  -17.9720 C   0  0  2  0  0  0  0  0  0  0  0  0
    6.1704    8.8871  -15.1047 H   0  0  0  0  0  0  0  0  0  0  0  0
    6.9937    8.1132  -16.5011 H   0  0  0  0  0  0  0  0  0  0  0  0
    5.2068    8.2969  -16.5011 H   0  0  0  0  0  0  0  0  0  0  0  0
    4.9725    6.4273  -15.5762 H   0  0  0  0  0  0  0  0  0  0  0  0
    5.0564    7.5080  -13.4865 H   0  0  0  0  0  0  0  0  0  0  0  0
    5.6665    5.7211  -13.5016 H   0  0  0  0  0  0  0  0  0  0  0  0
    7.8868    7.6651  -13.3904 H   0  0  0  0  0  0  0  0  0  0  0  0
    6.8632    7.8163  -11.9790 H   0  0  0  0  0  0  0  0  0  0  0  0
    6.5787    5.4379  -12.1077 H   0  0  0  0  0  0  0  0  0  0  0  0
    8.4441    5.9382   -9.2170 H   0  0  0  0  0  0  0  0  0  0  0  0
    9.3746    4.6503  -10.0877 H   0  0  0  0  0  0  0  0  0  0  0  0
   10.8615    6.1040  -10.8503 H   0  0  0  0  0  0  0  0  0  0  0  0
    9.5868    7.2513  -11.3801 H   0  0  0  0  0  0  0  0  0  0  0  0
   10.9334    6.8061   -8.8524 H   0  0  0  0  0  0  0  0  0  0  0  0
   14.2900    8.1980  -10.5480 H   0  0  0  0  0  0  0  0  0  0  0  0
   12.7110    8.2200  -11.3770 H   0  0  0  0  0  0  0  0  0  0  0  0
    8.9138    6.7420   -8.7438 H   0  0  0  0  0  0  0  0  0  0  0  0
    8.1915    9.0748   -7.1120 H   0  0  0  0  0  0  0  0  0  0  0  0
    7.8510    7.7787   -6.3240 H   0  0  0  0  0  0  0  0  0  0  0  0
    9.6560    6.2585   -5.9356 H   0  0  0  0  0  0  0  0  0  0  0  0
   11.2009    6.1330   -6.8058 H   0  0  0  0  0  0  0  0  0  0  0  0
   11.3162    5.4867   -3.7043 H   0  0  0  0  0  0  0  0  0  0  0  0
   12.6953    6.6412   -1.9768 H   0  0  0  0  0  0  0  0  0  0  0  0
   13.4646    8.9448   -2.2848 H   0  0  0  0  0  0  0  0  0  0  0  0
   12.6645   10.2837   -4.2929 H   0  0  0  0  0  0  0  0  0  0  0  0
   10.3490    9.8240   -5.9960 H   0  0  0  0  0  0  0  0  0  0  0  0
   11.7210    9.4280   -6.8740 H   0  0  0  0  0  0  0  0  0  0  0  0
    8.4599    3.3410  -11.6000 H   0  0  0  0  0  0  0  0  0  0  0  0
    8.2535    1.1712  -12.8277 H   0  0  0  0  0  0  0  0  0  0  0  0
    7.3667    1.1006  -15.1150 H   0  0  0  0  0  0  0  0  0  0  0  0
    6.4859    3.2336  -16.1934 H   0  0  0  0  0  0  0  0  0  0  0  0
    8.0419    6.2041  -15.5658 H   0  0  0  0  0  0  0  0  0  0  0  0
    7.3600    4.6480  -16.8880 H   0  0  0  0  0  0  0  0  0  0  0  0
    5.0976    4.7546  -19.7446 H   0  0  0  0  0  0  0  0  0  0  0  0
    8.5411    4.6009  -21.1346 H   0  0  0  0  0  0  0  0  0  0  0  0
    7.8621    6.2024  -21.3587 H   0  0  0  0  0  0  0  0  0  0  0  0
   10.0801    5.7570  -20.9543 H   0  0  0  0  0  0  0  0  0  0  0  0
    8.8584    6.9394  -19.8425 H   0  0  0  0  0  0  0  0  0  0  0  0
   10.4152    4.9472  -18.8137 H   0  0  0  0  0  0  0  0  0  0  0  0
   11.4360    6.2950  -20.3130 H   0  0  0  0  0  0  0  0  0  0  0  0
   11.0390    7.2350  -18.6590 H   0  0  0  0  0  0  0  0  0  0  0  0
   11.1480    7.8241  -21.0997 H   0  0  0  0  0  0  0  0  0  0  0  0
   10.2704    8.5780  -19.9734 H   0  0  0  0  0  0  0  0  0  0  0  0
   12.8190    7.0270  -19.7130 H   0  0  0  0  0  0  0  0  0  0  0  0
   12.5910    8.5970  -19.1560 H   0  0  0  0  0  0  0  0  0  0  0  0
    9.9256    4.9186  -17.4537 H   0  0  0  0  0  0  0  0  0  0  0  0
    9.7659    6.7248  -17.3839 H   0  0  0  0  0  0  0  0  0  0  0  0
    8.4898    6.4762  -17.3554 H   0  0  0  0  0  0  0  0  0  0  0  0
  1  2  1  0
  2  3  1  0
  3  4  1  0
  4  5  1  0
  5  6  1  0
  6  7  1  0
  7  8  1  0
  8  9  1  0
  9 10  1  0
 10 11  1  0
 11 12  1  0
 11 13  2  0
  9 14  1  0
 14 15  1  0
 16 15  1  1
 16 17  1  0
 17 18  1  0
 18 19  2  0
 19 20  1  0
 20 21  2  0
 21 22  1  0
 22 23  2  0
 23 24  1  0
  5 25  1  0
 25 26  2  0
 26 27  1  0
 27 28  2  0
 28 29  1  0
 29 30  2  0
 30 31  1  0
 31 32  1  0
 32 33  1  0
 33 34  1  0
 34 35  2  0
 35 36  1  0
 36 37  1  0
 37 38  1  0
 38 39  1  0
 39 40  1  0
 40 41  1  0
 38 42  1  0
 42 43  1  0
 31  2  1  0
 43 32  1  0
 16 14  1  0
 23 18  1  0
 30 25  1  0
 43 35  1  0
 24 16  1  0
  1 44  1  0
  1 45  1  0
  1 46  1  0
  2 47  1  6
  3 48  1  0
  3 49  1  0
  4 50  1  0
  4 51  1  0
  5 52  1  6
  7 53  1  0
  7 54  1  0
  8 55  1  0
  8 56  1  0
  9 57  1  1
 12 58  1  0
 12 59  1  0
 14 60  1  1
 15 61  1  0
 15 62  1  0
 17 63  1  0
 17 64  1  0
 19 65  1  0
 20 66  1  0
 21 67  1  0
 22 68  1  0
 24 69  1  0
 24 70  1  0
 26 71  1  0
 27 72  1  0
 28 73  1  0
 29 74  1  0
 31 75  1  1
 32 76  1  6
 34 77  1  0
 36 78  1  0
 36 79  1  0
 37 80  1  0
 37 81  1  0
 38 82  1  6
 39 83  1  0
 39 84  1  0
 40 85  1  0
 40 86  1  0
 41 87  1  0
 41 88  1  0
 42 89  1  0
 42 90  1  0
 43 91  1  6
M  CHG  3  24   1  32   1  39   1
M  END
>  <docking_score>  (22) 
-10.201

>  <plif_similarity>  (22) 
0.571

$$$$
DiffSBDD_41
     RDKit          3D

 72 77  0  0  0  0  0  0  0  0999 V2000
    4.8550   -0.5110  -16.4780 C   0  0  0  0  0  0  0  0  0  0  0  0
    5.9990    0.3880  -16.0120 C   0  0  0  0  0  0  0  0  0  0  0  0
    6.3960    0.0300  -14.5760 C   0  0  1  0  0  0  0  0  0  0  0  0
    7.5340    0.3710  -13.6500 C   0  0  0  0  0  0  0  0  0  0  0  0
    6.2430    1.1010  -13.5790 C   0  0  1  0  0  0  0  0  0  0  0  0
    6.3020    2.5170  -14.0170 C   0  0  0  0  0  0  0  0  0  0  0  0
    7.1190    3.3800  -13.4770 N   0  0  0  0  0  0  0  0  0  0  0  0
    7.7090    4.5250  -14.2990 C   0  0  0  0  0  0  0  0  0  0  0  0
    8.0210    5.5900  -13.4600 C   0  0  2  0  0  0  0  0  0  0  0  0
    9.2500    6.0640  -13.4180 F   0  0  0  0  0  0  0  0  0  0  0  0
    7.4730    5.2870  -11.7370 S   0  0  2  0  0  4  0  0  0  0  0  0
    6.6150    5.4440  -10.3260 O   0  0  0  0  0  0  0  0  0  0  0  0
    9.0080    5.0840  -11.1920 N   0  0  0  0  0  0  0  0  0  0  0  0
    9.3370    5.5580   -9.9960 C   0  0  1  0  0  0  0  0  0  0  0  0
    9.8230    7.0250  -10.0930 C   0  0  0  0  0  0  0  0  0  0  0  0
   10.5030    7.1870   -8.8160 N   0  0  0  0  0  0  0  0  0  0  0  0
   10.2370    6.1400   -7.9790 C   0  0  1  0  0  0  0  0  0  0  0  0
   10.7190    6.1620   -6.5090 C   0  0  0  0  0  0  0  0  0  0  0  0
   11.1990    7.5320   -6.1450 C   0  0  0  0  0  0  0  0  0  0  0  0
   11.3420    8.5800   -7.0620 C   0  0  0  0  0  0  0  0  0  0  0  0
   11.3580    9.8850   -6.5860 C   0  0  0  0  0  0  0  0  0  0  0  0
   11.4320   10.2570   -5.2290 C   0  0  0  0  0  0  0  0  0  0  0  0
   11.7300    9.1900   -4.3170 C   0  0  0  0  0  0  0  0  0  0  0  0
   12.1160    9.4750   -3.0490 C   0  0  0  0  0  0  0  0  0  0  0  0
   12.3870    8.4200   -2.1610 C   0  0  0  0  0  0  0  0  0  0  0  0
   12.1860    7.0750   -2.4890 C   0  0  0  0  0  0  0  0  0  0  0  0
   12.3630    6.1360   -1.7110 F   0  0  0  0  0  0  0  0  0  0  0  0
   11.8120    6.7880   -3.8990 C   0  0  0  0  0  0  0  0  0  0  0  0
   11.6020    7.8420   -4.8020 C   0  0  0  0  0  0  0  0  0  0  0  0
   11.5150    8.2510   -8.5350 C   0  0  0  0  0  0  0  0  0  0  0  0
   12.8900    7.6700   -8.7190 C   0  0  0  0  0  0  0  0  0  0  0  0
   11.2840    9.4150   -9.4700 C   0  0  0  0  0  0  0  0  0  0  0  0
    9.5200    5.1070   -8.5480 C   0  0  1  0  0  0  0  0  0  0  0  0
    8.3230    4.6430   -7.9780 O   0  0  0  0  0  0  0  0  0  0  0  0
    6.6680    3.6710  -12.1540 C   0  0  0  0  0  0  0  0  0  0  0  0
    4.3317   -0.9222  -15.6022 H   0  0  0  0  0  0  0  0  0  0  0  0
    4.1499    0.0772  -17.0837 H   0  0  0  0  0  0  0  0  0  0  0  0
    5.2597   -1.3352  -17.0837 H   0  0  0  0  0  0  0  0  0  0  0  0
    6.8655    0.2480  -16.6750 H   0  0  0  0  0  0  0  0  0  0  0  0
    5.6697    1.4371  -16.0445 H   0  0  0  0  0  0  0  0  0  0  0  0
    6.0641   -0.9748  -14.8765 H   0  0  0  0  0  0  0  0  0  0  0  0
    7.8210   -0.3242  -12.8473 H   0  0  0  0  0  0  0  0  0  0  0  0
    8.5893    0.6547  -13.7759 H   0  0  0  0  0  0  0  0  0  0  0  0
    5.4809    1.3003  -12.8112 H   0  0  0  0  0  0  0  0  0  0  0  0
    6.5433    2.4962  -15.0900 H   0  0  0  0  0  0  0  0  0  0  0  0
    5.3220    2.8970  -13.6928 H   0  0  0  0  0  0  0  0  0  0  0  0
    8.6218    4.1790  -14.8061 H   0  0  0  0  0  0  0  0  0  0  0  0
    6.9734    4.8536  -15.0479 H   0  0  0  0  0  0  0  0  0  0  0  0
    7.4535    6.3817  -13.9710 H   0  0  0  0  0  0  0  0  0  0  0  0
    7.0910    6.0630   -9.7180 H   0  0  0  0  0  0  0  0  0  0  0  0
    9.1900    4.0700  -11.1740 H   0  0  0  0  0  0  0  0  0  0  0  0
   10.3692    5.2065  -10.1406 H   0  0  0  0  0  0  0  0  0  0  0  0
   10.5139    7.1650  -10.9374 H   0  0  0  0  0  0  0  0  0  0  0  0
    9.0189    7.7545  -10.2702 H   0  0  0  0  0  0  0  0  0  0  0  0
   11.1793    5.6594   -8.2808 H   0  0  0  0  0  0  0  0  0  0  0  0
    9.8853    5.8813   -5.8486 H   0  0  0  0  0  0  0  0  0  0  0  0
   11.5470    5.4475   -6.3912 H   0  0  0  0  0  0  0  0  0  0  0  0
   11.3089   10.6943   -7.3294 H   0  0  0  0  0  0  0  0  0  0  0  0
   11.2726   11.2921   -4.8925 H   0  0  0  0  0  0  0  0  0  0  0  0
   12.2159   10.5196   -2.7192 H   0  0  0  0  0  0  0  0  0  0  0  0
   12.7754    8.6633   -1.1610 H   0  0  0  0  0  0  0  0  0  0  0  0
   11.6995    5.7468   -4.2356 H   0  0  0  0  0  0  0  0  0  0  0  0
   13.3421    7.4790   -7.7346 H   0  0  0  0  0  0  0  0  0  0  0  0
   12.8172    6.7257   -9.2785 H   0  0  0  0  0  0  0  0  0  0  0  0
   13.5164    8.3804   -9.2785 H   0  0  0  0  0  0  0  0  0  0  0  0
   11.1030   10.3271   -8.8823 H   0  0  0  0  0  0  0  0  0  0  0  0
   12.1714    9.5576  -10.1042 H   0  0  0  0  0  0  0  0  0  0  0  0
   10.4094    9.2079  -10.1042 H   0  0  0  0  0  0  0  0  0  0  0  0
   10.1024    4.1889   -8.3809 H   0  0  0  0  0  0  0  0  0  0  0  0
    8.1630    3.7080   -8.2600 H   0  0  0  0  0  0  0  0  0  0  0  0
    6.9861    2.8854  -11.4528 H   0  0  0  0  0  0  0  0  0  0  0  0
    5.5712    3.7194  -12.0863 H   0  0  0  0  0  0  0  0  0  0  0  0
  1  2  1  0
  2  3  1  0
  3  4  1  0
  4  5  1  0
  5  6  1  0
  6  7  1  0
  7  8  1  0
  8  9  1  0
  9 10  1  0
  9 11  1  0
 11 12  1  0
 11 13  1  0
 13 14  1  0
 14 15  1  0
 15 16  1  0
 16 17  1  0
 17 18  1  0
 18 19  1  0
 19 20  2  0
 20 21  1  0
 21 22  2  0
 22 23  1  0
 23 24  2  0
 24 25  1  0
 25 26  2  0
 26 27  1  0
 26 28  1  0
 28 29  2  0
 20 30  1  0
 30 31  1  0
 30 32  1  0
 17 33  1  0
 33 34  1  0
 11 35  1  0
  5  3  1  0
 35  7  1  0
 33 14  1  0
 30 16  1  0
 29 19  1  0
 29 23  1  0
  1 36  1  0
  1 37  1  0
  1 38  1  0
  2 39  1  0
  2 40  1  0
  3 41  1  1
  4 42  1  0
  4 43  1  0
  5 44  1  1
  6 45  1  0
  6 46  1  0
  8 47  1  0
  8 48  1  0
  9 49  1  6
 12 50  1  0
 13 51  1  0
 14 52  1  1
 15 53  1  0
 15 54  1  0
 17 55  1  6
 18 56  1  0
 18 57  1  0
 21 58  1  0
 22 59  1  0
 24 60  1  0
 25 61  1  0
 28 62  1  0
 31 63  1  0
 31 64  1  0
 31 65  1  0
 32 66  1  0
 32 67  1  0
 32 68  1  0
 33 69  1  6
 34 70  1  0
 35 71  1  0
 35 72  1  0
M  END
>  <docking_score>  (23) 
-11.894

>  <plif_similarity>  (23) 
0.429

$$$$
DiffSBDD_42
     RDKit          3D

 66 71  0  0  0  0  0  0  0  0999 V2000
    8.5780    5.9510   -7.7410 C   0  0  0  0  0  0  0  0  0  0  0  0
    9.6030    5.5460   -8.7480 C   0  0  1  0  0  0  0  0  0  0  0  0
    9.3120    5.6320  -10.0140 C   0  0  1  0  0  0  0  0  0  0  0  0
    8.2040    5.3110  -10.9040 C   0  0  1  0  0  0  0  0  0  0  0  0
    6.9950    4.7520  -10.3400 C   0  0  0  0  0  0  0  0  0  0  0  0
    6.0180    5.0950  -11.5340 C   0  0  2  0  0  0  0  0  0  0  0  0
    5.3020    4.3160  -12.6870 C   0  0  0  0  0  0  0  0  0  0  0  0
    6.1810    4.1330  -13.9380 C   0  0  1  0  0  0  0  0  0  0  0  0
    6.8490    5.3640  -14.4170 C   0  0  0  0  0  0  0  0  0  0  0  0
    8.3160    5.5510  -13.9250 C   0  0  0  0  0  0  0  0  0  0  0  0
    8.2490    5.3510  -12.4710 C   0  0  2  0  0  0  0  0  0  0  0  0
    6.8960    6.0730  -12.2940 C   0  0  0  0  0  0  0  0  0  0  0  0
    8.1950    3.8330  -12.3770 C   0  0  2  0  0  0  0  0  0  0  0  0
    9.3600    3.2050  -11.9190 O   0  0  0  0  0  0  0  0  0  0  0  0
    7.3680    3.1910  -13.4840 C   0  0  0  0  0  0  0  0  0  0  0  0
   10.0450    7.1830  -10.6610 S   0  0  0  0  0  0  0  0  0  0  0  0
   10.8780    7.7060   -9.2840 C   0  0  2  0  0  0  0  0  0  0  0  0
   12.3540    8.1130   -9.5030 C   0  0  0  0  0  0  0  0  0  0  0  0
   10.9420    6.5690   -8.4270 C   0  0  1  0  0  0  0  0  0  0  0  0
   11.3200    6.7720   -7.1260 C   0  0  0  0  0  0  0  0  0  0  0  0
   11.6360    5.9120   -6.3480 O   0  0  0  0  0  0  0  0  0  0  0  0
   11.5950    8.0110   -6.9840 C   0  0  0  0  0  0  0  0  0  0  0  0
   11.8030    8.6570   -5.9100 C   0  0  0  0  0  0  0  0  0  0  0  0
   11.5720    8.0770   -4.9850 N   0  0  0  0  0  0  0  0  0  0  0  0
   11.8020    7.8180   -3.8830 C   0  0  0  0  0  0  0  0  0  0  0  0
   11.9930    9.1140   -3.4270 C   0  0  0  0  0  0  0  0  0  0  0  0
   12.5550    9.0800   -2.1500 C   0  0  0  0  0  0  0  0  0  0  0  0
   12.6460    7.9030   -1.4130 C   0  0  0  0  0  0  0  0  0  0  0  0
   12.3220    6.6580   -1.9480 C   0  0  0  0  0  0  0  0  0  0  0  0
   11.8270    6.6480   -3.1210 C   0  0  0  0  0  0  0  0  0  0  0  0
   12.0100    9.6760   -6.6980 C   0  0  0  0  0  0  0  0  0  0  0  0
   13.2180    9.7590   -7.2150 F   0  0  0  0  0  0  0  0  0  0  0  0
   11.3080   10.5590   -6.7910 F   0  0  0  0  0  0  0  0  0  0  0  0
    8.9769    5.7934   -6.7280 H   0  0  0  0  0  0  0  0  0  0  0  0
    8.3310    7.0143   -7.8765 H   0  0  0  0  0  0  0  0  0  0  0  0
    7.6709    5.3437   -7.8765 H   0  0  0  0  0  0  0  0  0  0  0  0
    9.7531    4.4639   -8.6196 H   0  0  0  0  0  0  0  0  0  0  0  0
    9.5738    4.5637  -10.0306 H   0  0  0  0  0  0  0  0  0  0  0  0
    8.6084    4.2974  -11.0418 H   0  0  0  0  0  0  0  0  0  0  0  0
    7.0777    3.6688  -10.1671 H   0  0  0  0  0  0  0  0  0  0  0  0
    6.7018    5.1336   -9.3508 H   0  0  0  0  0  0  0  0  0  0  0  0
    5.0996    5.1828  -10.9351 H   0  0  0  0  0  0  0  0  0  0  0  0
    5.0175    3.3218  -12.3121 H   0  0  0  0  0  0  0  0  0  0  0  0
    4.4279    4.9120  -12.9882 H   0  0  0  0  0  0  0  0  0  0  0  0
    5.5270    3.7650  -14.7423 H   0  0  0  0  0  0  0  0  0  0  0  0
    6.8581    5.3415  -15.5167 H   0  0  0  0  0  0  0  0  0  0  0  0
    6.2758    6.2063  -14.0023 H   0  0  0  0  0  0  0  0  0  0  0  0
    8.9789    4.8059  -14.3891 H   0  0  0  0  0  0  0  0  0  0  0  0
    8.7222    6.5379  -14.1915 H   0  0  0  0  0  0  0  0  0  0  0  0
    7.0268    7.0013  -11.7185 H   0  0  0  0  0  0  0  0  0  0  0  0
    6.4530    6.3577  -13.2598 H   0  0  0  0  0  0  0  0  0  0  0  0
    7.5776    3.5901  -11.4996 H   0  0  0  0  0  0  0  0  0  0  0  0
    9.9870    3.0800  -12.6760 H   0  0  0  0  0  0  0  0  0  0  0  0
    8.0190    2.9936  -14.3485 H   0  0  0  0  0  0  0  0  0  0  0  0
    6.9386    2.2551  -13.0970 H   0  0  0  0  0  0  0  0  0  0  0  0
   10.3449    8.5932   -8.9117 H   0  0  0  0  0  0  0  0  0  0  0  0
   12.8455    8.2485   -8.5283 H   0  0  0  0  0  0  0  0  0  0  0  0
   12.8719    7.3241  -10.0682 H   0  0  0  0  0  0  0  0  0  0  0  0
   12.3944    9.0558  -10.0682 H   0  0  0  0  0  0  0  0  0  0  0  0
   11.8429    5.9959   -8.6914 H   0  0  0  0  0  0  0  0  0  0  0  0
   10.7620    7.4900   -5.2340 H   0  0  0  0  0  0  0  0  0  0  0  0
   11.7405   10.0274   -3.9856 H   0  0  0  0  0  0  0  0  0  0  0  0
   12.9383   10.0134   -1.7120 H   0  0  0  0  0  0  0  0  0  0  0  0
   12.9866    7.9577   -0.3685 H   0  0  0  0  0  0  0  0  0  0  0  0
   12.4860    5.7280   -1.3839 H   0  0  0  0  0  0  0  0  0  0  0  0
   11.4178    5.7149   -3.5355 H   0  0  0  0  0  0  0  0  0  0  0  0
  1  2  1  0
  2  3  1  0
  3  4  1  0
  4  5  1  0
  5  6  1  0
  6  7  1  0
  7  8  1  0
  8  9  1  0
  9 10  1  0
 11 10  1  1
 11 12  1  0
 11 13  1  0
 13 14  1  0
 13 15  1  0
  3 16  1  0
 16 17  1  0
 17 18  1  0
 17 19  1  0
 19 20  1  0
 20 21  2  0
 20 22  1  0
 22 23  2  0
 23 24  1  0
 24 25  1  0
 25 26  2  0
 26 27  1  0
 27 28  2  0
 28 29  1  0
 29 30  2  0
 23 31  1  0
 31 32  1  0
 31 33  1  0
 19  2  1  0
 31 22  1  0
 11  4  1  0
 30 25  1  0
 12  6  1  0
 15  8  1  0
  1 34  1  0
  1 35  1  0
  1 36  1  0
  2 37  1  1
  3 38  1  6
  4 39  1  1
  5 40  1  0
  5 41  1  0
  6 42  1  1
  7 43  1  0
  7 44  1  0
  8 45  1  6
  9 46  1  0
  9 47  1  0
 10 48  1  0
 10 49  1  0
 12 50  1  0
 12 51  1  0
 13 52  1  1
 14 53  1  0
 15 54  1  0
 15 55  1  0
 17 56  1  1
 18 57  1  0
 18 58  1  0
 18 59  1  0
 19 60  1  6
 24 61  1  0
 26 62  1  0
 27 63  1  0
 28 64  1  0
 29 65  1  0
 30 66  1  0
M  END
>  <docking_score>  (24) 
-11.717

>  <plif_similarity>  (24) 
0.571

$$$$
DiffSBDD_43
     RDKit          3D

 73 80  0  0  0  0  0  0  0  0999 V2000
    6.5410    3.9840  -18.6770 C   0  0  0  0  0  0  0  0  0  0  0  0
    7.6560    4.2160  -17.8270 C   0  0  2  0  0  0  0  0  0  0  0  0
    7.7040    3.0420  -16.6760 S   0  0  0  0  0  0  0  0  0  0  0  0
    6.8490    4.6770  -16.4170 C   0  0  2  0  0  0  0  0  0  0  0  0
    6.1590    5.6490  -17.3810 O   0  0  0  0  0  0  0  0  0  0  0  0
    5.9960    7.3630  -16.7380 C   0  0  0  0  0  0  0  0  0  0  0  0
    5.6450    7.3640  -15.2730 C   0  0  0  0  0  0  0  0  0  0  0  0
    6.7750    6.4140  -14.5220 C   0  0  1  0  0  0  0  0  0  0  0  0
    6.8190    6.6610  -13.4130 O   0  0  0  0  0  0  0  0  0  0  0  0
    8.1700    6.1400  -13.2430 N   0  0  0  0  0  0  0  0  0  0  0  0
    8.7140    6.3470  -12.0730 C   0  0  0  0  0  0  0  0  0  0  0  0
    8.7160    5.3050  -11.0190 C   0  0  0  0  0  0  0  0  0  0  0  0
    9.3080    5.7110   -9.7530 C   0  0  2  0  0  0  0  0  0  0  0  0
    8.8880    4.7890   -8.6920 C   0  0  0  0  0  0  0  0  0  0  0  0
    7.8650    4.0050   -9.1990 F   0  0  0  0  0  0  0  0  0  0  0  0
    9.9180    3.9240   -8.3390 F   0  0  0  0  0  0  0  0  0  0  0  0
    8.3260    5.4690   -7.6680 F   0  0  0  0  0  0  0  0  0  0  0  0
    9.2490    7.2860   -9.2210 C   0  0  1  0  0  0  0  0  0  0  0  0
   10.3240    7.6180   -8.1750 C   0  0  2  0  0  0  0  0  0  0  0  0
    9.7680    8.2320   -6.8280 C   0  0  0  0  0  0  0  0  0  0  0  0
   10.9480    8.7600   -6.0740 C   0  0  1  0  0  0  0  0  0  0  0  0
   11.4830    8.0530   -5.0300 C   0  0  0  0  0  0  0  0  0  0  0  0
   12.3890    7.3470   -4.0850 C   0  0  2  0  0  0  0  0  0  0  0  0
   11.6050    6.5560   -3.0120 C   0  0  0  0  0  0  0  0  0  0  0  0
   11.4610    7.1110   -1.6260 C   0  0  0  0  0  0  0  0  0  0  0  0
   12.1410    8.4570   -1.8440 C   0  0  2  0  0  0  0  0  0  0  0  0
   12.1420    9.5010   -2.9210 C   0  0  0  0  0  0  0  0  0  0  0  0
   12.9500    8.2890   -3.2250 C   0  0  2  0  0  0  0  0  0  0  0  0
   12.1830    8.6850   -7.0860 C   0  0  2  0  0  0  0  0  0  0  0  0
   12.0350    9.8030   -8.0500 C   0  0  0  0  0  0  0  0  0  0  0  0
   11.4230    8.5900   -8.3190 C   0  0  2  0  0  0  0  0  0  0  0  0
    9.2480    8.3110  -10.3920 C   0  0  0  0  0  0  0  0  0  0  0  0
    9.4660    7.5910  -11.7120 C   0  0  0  0  0  0  0  0  0  0  0  0
    8.6200    4.9910  -13.9850 C   0  0  0  0  0  0  0  0  0  0  0  0
    7.5150    5.4820  -15.2980 C   0  0  1  0  0  0  0  0  0  0  0  0
    5.6460    3.7978  -18.0652 H   0  0  0  0  0  0  0  0  0  0  0  0
    6.3740    4.8666  -19.3119 H   0  0  0  0  0  0  0  0  0  0  0  0
    6.7399    3.1080  -19.3119 H   0  0  0  0  0  0  0  0  0  0  0  0
    8.4721    4.6157  -18.4468 H   0  0  0  0  0  0  0  0  0  0  0  0
    6.9505    7.8913  -16.8787 H   0  0  0  0  0  0  0  0  0  0  0  0
    5.1889    7.8669  -17.2900 H   0  0  0  0  0  0  0  0  0  0  0  0
    5.6825    8.3881  -14.8733 H   0  0  0  0  0  0  0  0  0  0  0  0
    4.6273    6.9815  -15.1061 H   0  0  0  0  0  0  0  0  0  0  0  0
    7.5458    7.1730  -14.7216 H   0  0  0  0  0  0  0  0  0  0  0  0
    8.3008    4.2994  -11.1816 H   0  0  0  0  0  0  0  0  0  0  0  0
   10.3767    5.6532  -10.0070 H   0  0  0  0  0  0  0  0  0  0  0  0
    8.2818    7.3809   -8.7057 H   0  0  0  0  0  0  0  0  0  0  0  0
   10.7025    6.5892   -8.2656 H   0  0  0  0  0  0  0  0  0  0  0  0
    9.0624    9.0472   -7.0463 H   0  0  0  0  0  0  0  0  0  0  0  0
    9.2314    7.4728   -6.2400 H   0  0  0  0  0  0  0  0  0  0  0  0
   10.5584    9.7121   -5.6845 H   0  0  0  0  0  0  0  0  0  0  0  0
   11.0607    8.7143   -4.2591 H   0  0  0  0  0  0  0  0  0  0  0  0
   11.6903    7.2472   -5.7496 H   0  0  0  0  0  0  0  0  0  0  0  0
   13.0585    6.7472   -4.7190 H   0  0  0  0  0  0  0  0  0  0  0  0
   10.5872    6.4128   -3.4038 H   0  0  0  0  0  0  0  0  0  0  0  0
   12.2205    5.6569   -2.8612 H   0  0  0  0  0  0  0  0  0  0  0  0
   10.4067    7.2229   -1.3328 H   0  0  0  0  0  0  0  0  0  0  0  0
   11.8802    6.4914   -0.8196 H   0  0  0  0  0  0  0  0  0  0  0  0
   12.0981    8.6763   -0.7669 H   0  0  0  0  0  0  0  0  0  0  0  0
   11.2181    9.6846   -3.4892 H   0  0  0  0  0  0  0  0  0  0  0  0
   12.3798   10.5750   -2.9188 H   0  0  0  0  0  0  0  0  0  0  0  0
   13.9882    8.1149   -3.5442 H   0  0  0  0  0  0  0  0  0  0  0  0
   13.0362    8.2358   -6.5566 H   0  0  0  0  0  0  0  0  0  0  0  0
   11.4239   10.6783   -7.7846 H   0  0  0  0  0  0  0  0  0  0  0  0
   12.7356   10.4537   -8.5939 H   0  0  0  0  0  0  0  0  0  0  0  0
   11.2207    8.3307   -9.3687 H   0  0  0  0  0  0  0  0  0  0  0  0
    8.2807    8.8341  -10.4176 H   0  0  0  0  0  0  0  0  0  0  0  0
   10.0601    9.0367  -10.2378 H   0  0  0  0  0  0  0  0  0  0  0  0
    9.2455    8.3239  -12.5021 H   0  0  0  0  0  0  0  0  0  0  0  0
   10.4938    7.2149  -11.6020 H   0  0  0  0  0  0  0  0  0  0  0  0
    9.6863    5.0104  -14.2544 H   0  0  0  0  0  0  0  0  0  0  0  0
    8.5850    3.9797  -13.5537 H   0  0  0  0  0  0  0  0  0  0  0  0
    8.0749    5.7228  -16.2137 H   0  0  0  0  0  0  0  0  0  0  0  0
  1  2  1  0
  2  3  1  0
  3  4  1  0
  4  5  1  6
  5  6  1  0
  6  7  1  0
  7  8  1  0
  8  9  1  0
  9 10  1  0
 10 11  1  0
 11 12  2  0
 12 13  1  0
 13 14  1  0
 14 15  1  0
 14 16  1  0
 14 17  1  0
 13 18  1  0
 18 19  1  0
 19 20  1  0
 20 21  1  0
 21 22  1  0
 22 23  1  0
 23 24  1  0
 24 25  1  0
 25 26  1  0
 26 27  1  0
 27 28  1  0
 21 29  1  0
 29 30  1  0
 30 31  1  0
 18 32  1  0
 32 33  1  0
 10 34  1  0
 34 35  1  0
  4  2  1  0
 35  8  1  0
 35  4  1  0
 33 11  1  0
 31 19  1  0
 28 23  1  0
 31 29  1  0
 28 26  1  0
  1 36  1  0
  1 37  1  0
  1 38  1  0
  2 39  1  6
  6 40  1  0
  6 41  1  0
  7 42  1  0
  7 43  1  0
  8 44  1  6
 12 45  1  0
 13 46  1  6
 18 47  1  1
 19 48  1  1
 20 49  1  0
 20 50  1  0
 21 51  1  1
 22 52  1  0
 22 53  1  0
 23 54  1  6
 24 55  1  0
 24 56  1  0
 25 57  1  0
 25 58  1  0
 26 59  1  1
 27 60  1  0
 27 61  1  0
 28 62  1  1
 29 63  1  1
 30 64  1  0
 30 65  1  0
 31 66  1  6
 32 67  1  0
 32 68  1  0
 33 69  1  0
 33 70  1  0
 34 71  1  0
 34 72  1  0
 35 73  1  6
M  END
>  <docking_score>  (25) 
-10.875

>  <plif_similarity>  (25) 
0.571

$$$$
DiffSBDD_44
     RDKit          3D

 45 47  0  0  0  0  0  0  0  0999 V2000
    8.1680    5.5200   -8.8510 N   0  0  0  0  0  0  0  0  0  0  0  0
    8.1730    5.4120  -10.1990 C   0  0  0  0  0  0  0  0  0  0  0  0
    8.6100    5.1930  -11.0020 C   0  0  1  0  0  0  0  0  0  0  0  0
    9.5780    6.3800  -11.3390 C   0  0  0  0  0  0  0  0  0  0  0  0
   10.5950    7.1740  -10.7890 C   0  0  0  0  0  0  0  0  0  0  0  0
   10.5280    8.1600   -9.7610 C   0  0  0  0  0  0  0  0  0  0  0  0
   11.6980    8.1340   -8.9660 C   0  0  0  0  0  0  0  0  0  0  0  0
   12.7670    8.2610   -9.5830 O   0  0  0  0  0  0  0  0  0  0  0  0
   11.6440    7.8550   -7.4930 C   0  0  0  0  0  0  0  0  0  0  0  0
   10.9770    7.5810   -6.3990 C   0  0  0  0  0  0  0  0  0  0  0  0
   11.5010    7.6660   -5.0390 C   0  0  0  0  0  0  0  0  0  0  0  0
   11.5210    6.6100   -4.1050 C   0  0  0  0  0  0  0  0  0  0  0  0
   12.0020    6.7930   -2.8110 C   0  0  0  0  0  0  0  0  0  0  0  0
   12.4400    8.0180   -2.4040 C   0  0  0  0  0  0  0  0  0  0  0  0
   12.3860    9.1060   -3.2940 C   0  0  0  0  0  0  0  0  0  0  0  0
   11.9160    8.8910   -4.5480 C   0  0  0  0  0  0  0  0  0  0  0  0
   11.9660    9.9500   -5.3660 O   0  0  0  0  0  0  0  0  0  0  0  0
    8.7010    4.1320  -12.0000 C   0  0  1  0  0  0  0  0  0  0  0  0
    7.4700    3.0660  -12.5380 O   0  0  0  0  0  0  0  0  0  0  0  0
    7.2780    4.2150  -11.9770 C   0  0  1  0  0  0  0  0  0  0  0  0
    6.4610    5.2840  -11.9820 C   0  0  0  0  0  0  0  0  0  0  0  0
    5.5310    5.0280  -11.2350 O   0  0  0  0  0  0  0  0  0  0  0  0
    6.1590    6.3010  -12.9190 C   0  0  0  0  0  0  0  0  0  0  0  0
    6.5310    7.5990  -12.5340 O   0  0  0  0  0  0  0  0  0  0  0  0
    9.0690    5.9050   -8.5340 H   0  0  0  0  0  0  0  0  0  0  0  0
    7.4040    6.1470   -8.5590 H   0  0  0  0  0  0  0  0  0  0  0  0
    7.2940    4.7603  -10.3114 H   0  0  0  0  0  0  0  0  0  0  0  0
    8.6266    6.4127  -10.2533 H   0  0  0  0  0  0  0  0  0  0  0  0
   10.0871    5.9828  -12.2295 H   0  0  0  0  0  0  0  0  0  0  0  0
    8.8118    7.1210  -11.0671 H   0  0  0  0  0  0  0  0  0  0  0  0
   11.3330    6.4476  -10.4179 H   0  0  0  0  0  0  0  0  0  0  0  0
   10.7243    7.8581  -11.6407 H   0  0  0  0  0  0  0  0  0  0  0  0
   10.4256    9.1542  -10.2204 H   0  0  0  0  0  0  0  0  0  0  0  0
    9.6603    7.9444   -9.1203 H   0  0  0  0  0  0  0  0  0  0  0  0
   12.6933    7.9063   -7.1670 H   0  0  0  0  0  0  0  0  0  0  0  0
    9.9316    7.2590   -6.5154 H   0  0  0  0  0  0  0  0  0  0  0  0
   11.1484    5.6195   -4.4051 H   0  0  0  0  0  0  0  0  0  0  0  0
   12.0287    5.9435   -2.1127 H   0  0  0  0  0  0  0  0  0  0  0  0
   12.8333    8.1549   -1.3859 H   0  0  0  0  0  0  0  0  0  0  0  0
   12.7170   10.1071   -2.9805 H   0  0  0  0  0  0  0  0  0  0  0  0
   12.4200   10.7800   -5.0750 H   0  0  0  0  0  0  0  0  0  0  0  0
    9.7716    4.0335  -12.2325 H   0  0  0  0  0  0  0  0  0  0  0  0
    6.6786    6.0629  -13.8588 H   0  0  0  0  0  0  0  0  0  0  0  0
    5.0631    6.3132  -13.0133 H   0  0  0  0  0  0  0  0  0  0  0  0
    7.1220    7.5520  -11.7410 H   0  0  0  0  0  0  0  0  0  0  0  0
  1  2  1  0
  3  2  1  1
  3  4  1  0
  4  5  1  0
  5  6  1  0
  6  7  1  0
  7  8  2  0
  7  9  1  0
  9 10  2  3
 10 11  1  0
 11 12  2  0
 12 13  1  0
 13 14  2  0
 14 15  1  0
 15 16  2  0
 16 17  1  0
  3 18  1  0
 18 19  1  0
 19 20  1  0
 20 21  1  1
 21 22  2  0
 21 23  1  0
 23 24  1  0
 20  3  1  0
 16 11  1  0
 20 18  1  0
  1 25  1  0
  1 26  1  0
  2 27  1  0
  2 28  1  0
  4 29  1  0
  4 30  1  0
  5 31  1  0
  5 32  1  0
  6 33  1  0
  6 34  1  0
  9 35  1  0
 10 36  1  0
 12 37  1  0
 13 38  1  0
 14 39  1  0
 15 40  1  0
 17 41  1  0
 18 42  1  6
 23 43  1  0
 23 44  1  0
 24 45  1  0
M  END
>  <docking_score>  (26) 
-8.773

>  <plif_similarity>  (26) 
0.571

$$$$
DiffSBDD_47
     RDKit          3D

 52 54  0  0  0  0  0  0  0  0999 V2000
   12.7680    8.3910   -1.6420 C   0  0  0  0  0  0  0  0  0  0  0  0
   12.4030    7.7010   -3.0150 C   0  0  0  0  0  0  0  0  0  0  0  0
   11.7310    6.4870   -3.2460 C   0  0  0  0  0  0  0  0  0  0  0  0
   11.9790    8.5960   -3.8510 C   0  0  1  0  0  0  0  0  0  0  0  0
   11.7960    9.9660   -3.4240 C   0  0  0  0  0  0  0  0  0  0  0  0
   10.7960   10.7950   -4.1450 O   0  0  0  0  0  0  0  0  0  0  0  0
   11.6540    7.9940   -4.9600 N   0  0  0  0  0  0  0  0  0  0  0  0
   11.9910    8.3380   -6.2410 C   0  0  0  0  0  0  0  0  0  0  0  0
   12.5250    9.4390   -6.3140 O   0  0  0  0  0  0  0  0  0  0  0  0
   11.4500    7.7270   -7.3940 C   0  0  0  0  0  0  0  0  0  0  0  0
   10.3980    6.7740   -7.1000 C   0  0  0  0  0  0  0  0  0  0  0  0
    9.6350    6.2480   -8.0970 C   0  0  0  0  0  0  0  0  0  0  0  0
    9.8350    6.6620   -9.4140 C   0  0  0  0  0  0  0  0  0  0  0  0
   10.9500    7.3950   -9.8020 C   0  0  0  0  0  0  0  0  0  0  0  0
   11.7080    8.0370   -8.7730 C   0  0  0  0  0  0  0  0  0  0  0  0
   12.7500    8.8220   -9.1400 O   0  0  0  0  0  0  0  0  0  0  0  0
   10.9740    7.4120  -11.2350 C   0  0  0  0  0  0  0  0  0  0  0  0
    9.7560    6.8640  -11.5690 C   0  0  1  0  0  0  0  0  0  0  0  0
    8.9400    6.3010  -12.6970 C   0  0  0  0  0  0  0  0  0  0  0  0
    7.9400    5.3700  -12.5970 C   0  0  1  0  0  0  0  0  0  0  0  0
    6.3480    5.5020  -12.9940 S   0  0  0  0  0  0  0  0  0  0  0  0
    5.7840    4.0230  -12.8220 C   0  0  0  0  0  0  0  0  0  0  0  0
    4.5440    3.9230  -12.9170 O   0  0  0  0  0  0  0  0  0  0  0  0
    6.8300    3.1310  -12.5310 C   0  0  0  0  0  0  0  0  0  0  0  0
    8.1430    3.8770  -12.6820 C   0  0  2  0  0  0  0  0  0  0  0  0
    9.1390    3.4700  -11.8280 O   0  0  0  0  0  0  0  0  0  0  0  0
    9.0210    6.4640  -10.4370 O   0  0  0  0  0  0  0  0  0  0  0  0
   12.4312    7.7542   -0.8107 H   0  0  0  0  0  0  0  0  0  0  0  0
   13.8574    8.5297   -1.5795 H   0  0  0  0  0  0  0  0  0  0  0  0
   12.2696    9.3696   -1.5795 H   0  0  0  0  0  0  0  0  0  0  0  0
   13.3975    7.2427   -3.1191 H   0  0  0  0  0  0  0  0  0  0  0  0
   11.4734    6.0216   -2.2832 H   0  0  0  0  0  0  0  0  0  0  0  0
   10.8113    6.6800   -3.8177 H   0  0  0  0  0  0  0  0  0  0  0  0
   12.3829    5.8101   -3.8177 H   0  0  0  0  0  0  0  0  0  0  0  0
   10.9407    8.3689   -3.5675 H   0  0  0  0  0  0  0  0  0  0  0  0
   11.4979    9.9414   -2.3655 H   0  0  0  0  0  0  0  0  0  0  0  0
   12.7598   10.4510   -3.6383 H   0  0  0  0  0  0  0  0  0  0  0  0
   11.2230   11.6350   -4.4500 H   0  0  0  0  0  0  0  0  0  0  0  0
   11.0700    7.1520   -4.8590 H   0  0  0  0  0  0  0  0  0  0  0  0
   10.2140    6.4722   -6.0583 H   0  0  0  0  0  0  0  0  0  0  0  0
    8.8634    5.4991   -7.8650 H   0  0  0  0  0  0  0  0  0  0  0  0
   12.8930    9.6960   -8.6970 H   0  0  0  0  0  0  0  0  0  0  0  0
   11.0639    8.4395  -11.6172 H   0  0  0  0  0  0  0  0  0  0  0  0
   11.8281    6.8658  -11.6619 H   0  0  0  0  0  0  0  0  0  0  0  0
   10.2144    7.5258  -12.3186 H   0  0  0  0  0  0  0  0  0  0  0  0
    8.4700    7.1744  -13.1727 H   0  0  0  0  0  0  0  0  0  0  0  0
    9.7097    5.6875  -13.1881 H   0  0  0  0  0  0  0  0  0  0  0  0
    8.1923    5.9339  -11.6868 H   0  0  0  0  0  0  0  0  0  0  0  0
    6.7281    2.7608  -11.5002 H   0  0  0  0  0  0  0  0  0  0  0  0
    6.7994    2.2717  -13.2170 H   0  0  0  0  0  0  0  0  0  0  0  0
    8.4989    3.6159  -13.6896 H   0  0  0  0  0  0  0  0  0  0  0  0
    8.8120    2.7170  -11.2750 H   0  0  0  0  0  0  0  0  0  0  0  0
  1  2  1  0
  2  3  1  0
  2  4  1  0
  4  5  1  0
  5  6  1  0
  4  7  1  0
  7  8  1  0
  8  9  2  0
  8 10  1  0
 10 11  1  0
 11 12  2  0
 12 13  1  0
 13 14  2  0
 14 15  1  0
 15 16  1  0
 14 17  1  0
 17 18  1  0
 18 19  1  0
 19 20  1  0
 20 21  1  0
 21 22  1  0
 22 23  2  0
 22 24  1  0
 24 25  1  0
 25 26  1  0
 18 27  1  0
 15 10  2  0
 25 20  1  0
 27 13  1  0
  1 28  1  0
  1 29  1  0
  1 30  1  0
  2 31  1  0
  3 32  1  0
  3 33  1  0
  3 34  1  0
  4 35  1  6
  5 36  1  0
  5 37  1  0
  6 38  1  0
  7 39  1  0
 11 40  1  0
 12 41  1  0
 16 42  1  0
 17 43  1  0
 17 44  1  0
 18 45  1  6
 19 46  1  0
 19 47  1  0
 20 48  1  1
 24 49  1  0
 24 50  1  0
 25 51  1  6
 26 52  1  0
M  END
>  <docking_score>  (27) 
-9.656

>  <plif_similarity>  (27) 
0.429

$$$$
DiffSBDD_49
     RDKit          3D

 60 61  0  0  0  0  0  0  0  0999 V2000
    4.9770    6.9110  -17.9150 C   0  0  0  0  0  0  0  0  0  0  0  0
    5.0710    7.1330  -16.4400 C   0  0  0  0  0  0  0  0  0  0  0  0
    6.3230    6.6560  -15.7860 C   0  0  0  0  0  0  0  0  0  0  0  0
    7.0920    5.7570  -16.5930 C   0  0  0  0  0  0  0  0  0  0  0  0
    7.8650    4.5450  -15.5890 S   0  0  0  0  0  0  0  0  0  0  0  0
    8.0840    3.3790  -16.3660 O   0  0  0  0  0  0  0  0  0  0  0  0
    9.0440    5.0860  -14.9750 O   0  0  0  0  0  0  0  0  0  0  0  0
    6.8100    4.1380  -14.3830 N   0  0  0  0  0  0  0  0  0  0  0  0
    7.2610    3.5580  -13.1020 C   0  0  0  0  0  0  0  0  0  0  0  0
    7.9890    2.5990  -12.8120 O   0  0  0  0  0  0  0  0  0  0  0  0
    7.1330    4.5190  -11.9890 C   0  0  0  0  0  0  0  0  0  0  0  0
    8.3830    4.5910  -11.3050 C   0  0  0  0  0  0  0  0  0  0  0  0
    8.6120    5.5640  -10.2680 N   0  0  0  0  0  0  0  0  0  0  0  0
    7.7720    5.4870   -9.3610 O   0  0  0  0  0  0  0  0  0  0  0  0
    9.4990    6.7200  -10.0690 C   0  0  1  0  0  0  0  0  0  0  0  0
    9.4080    6.9060   -8.5430 C   0  0  0  0  0  0  0  0  0  0  0  0
    9.6610    8.2830   -8.2640 C   0  0  0  0  0  0  0  0  0  0  0  0
   11.0810    8.7210   -8.5220 C   0  0  0  0  0  0  0  0  0  0  0  0
   11.4800    9.4430   -7.2270 C   0  0  0  0  0  0  0  0  0  0  0  0
   11.5380    8.5720   -5.8750 C   0  0  0  0  0  0  0  0  0  0  0  0
   11.4140    7.1990   -6.1170 C   0  0  0  0  0  0  0  0  0  0  0  0
   11.4220    6.2970   -4.9090 C   0  0  0  0  0  0  0  0  0  0  0  0
   11.7170    6.7990   -3.6010 C   0  0  0  0  0  0  0  0  0  0  0  0
   11.6110    6.5870   -2.5940 F   0  0  0  0  0  0  0  0  0  0  0  0
   12.1530    8.2790   -3.4950 C   0  0  0  0  0  0  0  0  0  0  0  0
   12.2730    8.9790   -2.1850 C   0  0  0  0  0  0  0  0  0  0  0  0
   13.2880    8.4630   -1.6050 F   0  0  0  0  0  0  0  0  0  0  0  0
   11.8200    9.1390   -4.4590 C   0  0  0  0  0  0  0  0  0  0  0  0
   11.7170   10.4410   -4.4040 F   0  0  0  0  0  0  0  0  0  0  0  0
   11.5210    8.0630   -9.6900 C   0  0  0  0  0  0  0  0  0  0  0  0
   10.8090    7.2790  -10.5970 C   0  0  2  0  0  0  0  0  0  0  0  0
   11.3090    6.9200  -11.9680 C   0  0  0  0  0  0  0  0  0  0  0  0
   11.6750    6.5450  -13.0130 N   0  0  0  0  0  0  0  0  0  0  0  0
    4.5549    5.9140  -18.1096 H   0  0  0  0  0  0  0  0  0  0  0  0
    4.3264    7.6780  -18.3605 H   0  0  0  0  0  0  0  0  0  0  0  0
    5.9805    6.9776  -18.3605 H   0  0  0  0  0  0  0  0  0  0  0  0
    4.9861    8.2142  -16.2563 H   0  0  0  0  0  0  0  0  0  0  0  0
    4.2595    6.5364  -15.9979 H   0  0  0  0  0  0  0  0  0  0  0  0
    6.9467    7.5313  -15.5518 H   0  0  0  0  0  0  0  0  0  0  0  0
    6.0217    6.0997  -14.8861 H   0  0  0  0  0  0  0  0  0  0  0  0
    6.4279    5.2597  -17.3153 H   0  0  0  0  0  0  0  0  0  0  0  0
    7.8675    6.3283  -17.1243 H   0  0  0  0  0  0  0  0  0  0  0  0
    6.8689    5.5110  -12.3842 H   0  0  0  0  0  0  0  0  0  0  0  0
    6.3438    4.1901  -11.2969 H   0  0  0  0  0  0  0  0  0  0  0  0
    8.5451    3.6039  -10.8474 H   0  0  0  0  0  0  0  0  0  0  0  0
    9.0710    4.9198  -12.0978 H   0  0  0  0  0  0  0  0  0  0  0  0
    7.5990    4.5350   -9.1510 H   0  0  0  0  0  0  0  0  0  0  0  0
    9.1448    7.2460  -10.9678 H   0  0  0  0  0  0  0  0  0  0  0  0
    8.4036    6.6294   -8.1899 H   0  0  0  0  0  0  0  0  0  0  0  0
   10.1401    6.2653   -8.0297 H   0  0  0  0  0  0  0  0  0  0  0  0
    8.9941    8.8897   -8.8941 H   0  0  0  0  0  0  0  0  0  0  0  0
    9.4801    8.4234   -7.1881 H   0  0  0  0  0  0  0  0  0  0  0  0
   12.4803    9.8726   -7.3847 H   0  0  0  0  0  0  0  0  0  0  0  0
   10.6748   10.1723   -7.0547 H   0  0  0  0  0  0  0  0  0  0  0  0
   11.3157    6.7984   -7.1367 H   0  0  0  0  0  0  0  0  0  0  0  0
   11.1959    5.2280   -5.0355 H   0  0  0  0  0  0  0  0  0  0  0  0
   12.4275   10.0570   -2.3397 H   0  0  0  0  0  0  0  0  0  0  0  0
   11.3609    8.8653   -1.5808 H   0  0  0  0  0  0  0  0  0  0  0  0
   12.5894    8.1876   -9.9204 H   0  0  0  0  0  0  0  0  0  0  0  0
   11.2829    6.3748  -10.1874 H   0  0  0  0  0  0  0  0  0  0  0  0
  1  2  1  0
  2  3  1  0
  3  4  1  0
  4  5  1  0
  5  6  2  0
  5  7  2  0
  5  8  1  0
  8  9  1  0
  9 10  2  0
  9 11  1  0
 11 12  1  0
 12 13  1  0
 13 14  1  0
 13 15  1  0
 15 16  1  0
 16 17  1  0
 17 18  1  0
 18 19  1  0
 19 20  1  0
 20 21  1  0
 21 22  2  0
 22 23  1  0
 23 24  1  0
 23 25  2  0
 25 26  1  0
 26 27  1  0
 25 28  1  0
 28 29  1  0
 18 30  2  0
 30 31  1  0
 31 32  1  0
 32 33  3  0
 31 15  1  0
 28 20  2  0
  1 34  1  0
  1 35  1  0
  1 36  1  0
  2 37  1  0
  2 38  1  0
  3 39  1  0
  3 40  1  0
  4 41  1  0
  4 42  1  0
 11 43  1  0
 11 44  1  0
 12 45  1  0
 12 46  1  0
 14 47  1  0
 15 48  1  6
 16 49  1  0
 16 50  1  0
 17 51  1  0
 17 52  1  0
 19 53  1  0
 19 54  1  0
 21 55  1  0
 22 56  1  0
 26 57  1  0
 26 58  1  0
 30 59  1  0
 31 60  1  6
M  CHG  1   8  -1
M  END
>  <docking_score>  (28) 
-9.665

>  <plif_similarity>  (28) 
0.571

$$$$
DiffSBDD_51
     RDKit          3D

 67 70  0  0  0  0  0  0  0  0999 V2000
   12.2950    8.1460   -9.8060 C   0  0  0  0  0  0  0  0  0  0  0  0
   11.0880    8.6210   -9.2330 O   0  0  0  0  0  0  0  0  0  0  0  0
   10.1660    7.9040   -8.8260 C   0  0  1  0  0  0  0  0  0  0  0  0
    9.5380    6.8960   -9.7480 C   0  0  0  0  0  0  0  0  0  0  0  0
    8.8430    5.6420  -10.1410 N   0  0  0  0  0  0  0  0  0  0  0  0
    8.3220    5.5330  -11.3850 N   0  0  0  0  0  0  0  0  0  0  0  0
    7.1490    4.6430  -11.3500 C   0  0  0  0  0  0  0  0  0  0  0  0
    7.0770    3.8180  -12.5230 C   0  0  0  0  0  0  0  0  0  0  0  0
    6.2650    2.6030  -12.4870 C   0  0  0  0  0  0  0  0  0  0  0  0
    6.2270    1.8610  -13.5810 C   0  0  0  0  0  0  0  0  0  0  0  0
    5.6100    0.5310  -13.6720 N   0  0  0  0  0  0  0  0  0  0  0  0
    5.0630    0.2480  -14.8550 C   0  0  0  0  0  0  0  0  0  0  0  0
    4.5750   -0.0230  -15.8900 N   0  0  0  0  0  0  0  0  0  0  0  0
    6.8070    2.1930  -14.8350 C   0  0  0  0  0  0  0  0  0  0  0  0
    7.6250    3.3520  -14.8620 C   0  0  0  0  0  0  0  0  0  0  0  0
    7.8100    4.0910  -13.6960 C   0  0  0  0  0  0  0  0  0  0  0  0
    8.7690    5.1900  -13.7470 C   0  0  0  0  0  0  0  0  0  0  0  0
    9.3470    5.5010  -14.7240 O   0  0  0  0  0  0  0  0  0  0  0  0
    8.8900    6.1140  -12.5310 C   0  0  2  0  0  0  0  0  0  0  0  0
    9.4270    7.4030  -12.5810 C   0  0  0  0  0  0  0  0  0  0  0  0
    8.6510    4.6370   -9.1850 C   0  0  0  0  0  0  0  0  0  0  0  0
    8.6960    5.3420   -7.8170 C   0  0  0  0  0  0  0  0  0  0  0  0
    9.0260    6.6460   -6.9690 C   0  0  0  0  0  0  0  0  0  0  0  0
    9.6510    7.8860   -7.5600 N   0  0  0  0  0  0  0  0  0  0  0  0
   10.0650    8.8470   -6.5310 C   0  0  0  0  0  0  0  0  0  0  0  0
   11.5810    8.8060   -6.1470 C   0  0  1  0  0  0  0  0  0  0  0  0
   12.4210   10.0410   -6.3410 C   0  0  0  0  0  0  0  0  0  0  0  0
   11.7870    8.1950   -4.8080 C   0  0  0  0  0  0  0  0  0  0  0  0
   11.4670    6.9110   -4.6370 C   0  0  0  0  0  0  0  0  0  0  0  0
   11.6100    6.2620   -3.3700 C   0  0  0  0  0  0  0  0  0  0  0  0
   12.1560    6.9590   -2.3180 C   0  0  0  0  0  0  0  0  0  0  0  0
   12.4330    8.3640   -2.5050 C   0  0  0  0  0  0  0  0  0  0  0  0
   12.7920    8.9640   -1.2740 C   0  0  0  0  0  0  0  0  0  0  0  0
   12.2590    8.9810   -3.7250 C   0  0  0  0  0  0  0  0  0  0  0  0
   12.9971    7.8697   -9.0055 H   0  0  0  0  0  0  0  0  0  0  0  0
   12.0832    7.2642  -10.4285 H   0  0  0  0  0  0  0  0  0  0  0  0
   12.7410    8.9357  -10.4285 H   0  0  0  0  0  0  0  0  0  0  0  0
    9.4351    8.6583   -9.1528 H   0  0  0  0  0  0  0  0  0  0  0  0
    8.8253    7.5872  -10.2216 H   0  0  0  0  0  0  0  0  0  0  0  0
   10.4548    6.2978   -9.6407 H   0  0  0  0  0  0  0  0  0  0  0  0
    7.2175    3.9967  -10.4625 H   0  0  0  0  0  0  0  0  0  0  0  0
    6.2441    5.2673  -11.3121 H   0  0  0  0  0  0  0  0  0  0  0  0
    5.7064    2.3166  -11.5837 H   0  0  0  0  0  0  0  0  0  0  0  0
    5.6010   -0.1310  -12.8840 H   0  0  0  0  0  0  0  0  0  0  0  0
    6.6316    1.5852  -15.7349 H   0  0  0  0  0  0  0  0  0  0  0  0
    8.1102    3.6650  -15.7983 H   0  0  0  0  0  0  0  0  0  0  0  0
    7.8905    6.5222  -12.7417 H   0  0  0  0  0  0  0  0  0  0  0  0
    9.5822    7.7755  -11.5577 H   0  0  0  0  0  0  0  0  0  0  0  0
   10.3899    7.3787  -13.1123 H   0  0  0  0  0  0  0  0  0  0  0  0
    8.7317    8.0695  -13.1123 H   0  0  0  0  0  0  0  0  0  0  0  0
    7.6759    4.1498   -9.3325 H   0  0  0  0  0  0  0  0  0  0  0  0
    9.4202    3.8544   -9.2616 H   0  0  0  0  0  0  0  0  0  0  0  0
    8.3312    4.6011   -7.0903 H   0  0  0  0  0  0  0  0  0  0  0  0
    8.7862    6.6442   -5.8955 H   0  0  0  0  0  0  0  0  0  0  0  0
    9.8350    9.8580   -6.8984 H   0  0  0  0  0  0  0  0  0  0  0  0
    9.5135    8.5723   -5.6197 H   0  0  0  0  0  0  0  0  0  0  0  0
   11.9888    8.1554   -6.9347 H   0  0  0  0  0  0  0  0  0  0  0  0
   12.7006   10.4521   -5.3598 H   0  0  0  0  0  0  0  0  0  0  0  0
   13.3306    9.7813   -6.9025 H   0  0  0  0  0  0  0  0  0  0  0  0
   11.8453   10.7915   -6.9025 H   0  0  0  0  0  0  0  0  0  0  0  0
   11.0831    6.3363   -5.4927 H   0  0  0  0  0  0  0  0  0  0  0  0
   11.2872    5.2186   -3.2391 H   0  0  0  0  0  0  0  0  0  0  0  0
   12.3754    6.4611   -1.3620 H   0  0  0  0  0  0  0  0  0  0  0  0
   12.4220    8.3456   -0.4430 H   0  0  0  0  0  0  0  0  0  0  0  0
   13.8872    9.0452   -1.2113 H   0  0  0  0  0  0  0  0  0  0  0  0
   12.3458    9.9675   -1.2113 H   0  0  0  0  0  0  0  0  0  0  0  0
   12.4794   10.0508   -3.8553 H   0  0  0  0  0  0  0  0  0  0  0  0
  1  2  1  0
  2  3  1  0
  3  4  1  0
  4  5  1  0
  5  6  1  0
  6  7  1  0
  7  8  1  0
  8  9  1  0
  9 10  2  0
 10 11  1  0
 11 12  1  0
 12 13  3  0
 10 14  1  0
 14 15  2  0
 15 16  1  0
 16 17  1  0
 17 18  2  0
 17 19  1  0
 19 20  1  0
  5 21  1  0
 21 22  1  0
 22 23  2  0
 23 24  1  0
 24 25  1  0
 25 26  1  0
 26 27  1  0
 26 28  1  0
 28 29  2  0
 29 30  1  0
 30 31  2  0
 31 32  1  0
 32 33  1  0
 32 34  2  0
 24  3  1  0
 34 28  1  0
 19  6  1  0
 16  8  2  0
  1 35  1  0
  1 36  1  0
  1 37  1  0
  3 38  1  6
  4 39  1  0
  4 40  1  0
  7 41  1  0
  7 42  1  0
  9 43  1  0
 11 44  1  0
 14 45  1  0
 15 46  1  0
 19 47  1  1
 20 48  1  0
 20 49  1  0
 20 50  1  0
 21 51  1  0
 21 52  1  0
 22 53  1  0
 23 54  1  0
 25 55  1  0
 25 56  1  0
 26 57  1  6
 27 58  1  0
 27 59  1  0
 27 60  1  0
 29 61  1  0
 30 62  1  0
 31 63  1  0
 33 64  1  0
 33 65  1  0
 33 66  1  0
 34 67  1  0
M  END
>  <docking_score>  (29) 
-10.715

>  <plif_similarity>  (29) 
0.429

$$$$
DiffSBDD_53
     RDKit          3D

 73 75  0  0  0  0  0  0  0  0999 V2000
    6.7890    1.4800  -14.2320 C   0  0  0  0  0  0  0  0  0  0  0  0
    6.2940    2.1700  -13.1910 C   0  0  0  0  0  0  0  0  0  0  0  0
    6.4580    3.4120  -12.6360 C   0  0  0  0  0  0  0  0  0  0  0  0
    5.7210    4.2350  -12.0880 C   0  0  0  0  0  0  0  0  0  0  0  0
    6.2130    5.4720  -12.1270 C   0  0  0  0  0  0  0  0  0  0  0  0
    5.2630    4.3760  -12.6760 C   0  0  0  0  0  0  0  0  0  0  0  0
    6.0130    4.1280  -11.0690 C   0  0  0  0  0  0  0  0  0  0  0  0
    7.5720    4.7350  -10.8570 C   0  0  0  0  0  0  0  0  0  0  0  0
    8.7400    4.3430  -10.1740 C   0  0  0  0  0  0  0  0  0  0  0  0
    8.5060    4.9910   -8.5700 S   0  0  0  0  0  0  0  0  0  0  0  0
    8.9510    6.8080   -9.0580 C   0  0  0  0  0  0  0  0  0  0  0  0
   10.0980    7.3020   -8.5140 C   0  0  0  0  0  0  0  0  0  0  0  0
   10.7360    7.4420   -8.2080 C   0  0  0  0  0  0  0  0  0  0  0  0
   11.6730    8.3270   -9.3570 C   0  0  1  0  0  0  0  0  0  0  0  0
   11.2430    7.6760  -10.6920 C   0  0  0  0  0  0  0  0  0  0  0  0
   12.0040    7.2250  -11.8230 C   0  0  0  0  0  0  0  0  0  0  0  0
   11.4370    6.8350  -12.4320 C   0  0  0  0  0  0  0  0  0  0  0  0
   11.9770    9.5150   -8.8290 C   0  0  0  0  0  0  0  0  0  0  0  0
   11.9680    9.9060   -7.4990 C   0  0  0  0  0  0  0  0  0  0  0  0
   11.9690    8.5560   -6.5050 C   0  0  2  0  0  0  0  0  0  0  0  0
   11.4790    7.1500   -7.2930 C   0  0  1  0  0  0  0  0  0  0  0  0
   10.7210    6.3890   -5.9120 C   0  0  0  0  0  0  0  0  0  0  0  0
   11.7160    6.1460   -4.8920 C   0  0  0  0  0  0  0  0  0  0  0  0
   11.5670    7.3190   -3.7950 C   0  0  1  0  0  0  0  0  0  0  0  0
   12.0450    8.4590   -2.4250 C   0  0  1  0  0  0  0  0  0  0  0  0
   13.0510    7.5780   -1.7500 C   0  0  0  0  0  0  0  0  0  0  0  0
   12.5560    9.2920   -3.4480 C   0  0  0  0  0  0  0  0  0  0  0  0
   11.4070    9.7360   -4.3990 C   0  0  0  0  0  0  0  0  0  0  0  0
   10.9330   10.6740   -4.7560 O   0  0  0  0  0  0  0  0  0  0  0  0
   11.5870    8.7240   -4.8650 N   0  0  0  0  0  0  0  0  0  0  0  0
    6.4426    0.4543  -14.4266 H   0  0  0  0  0  0  0  0  0  0  0  0
    7.5407    1.9408  -14.8897 H   0  0  0  0  0  0  0  0  0  0  0  0
    5.5560    1.5761  -12.6319 H   0  0  0  0  0  0  0  0  0  0  0  0
    7.2295    3.2341  -11.8723 H   0  0  0  0  0  0  0  0  0  0  0  0
    6.4790    3.9393  -13.6011 H   0  0  0  0  0  0  0  0  0  0  0  0
    6.3597    5.8408  -11.1011 H   0  0  0  0  0  0  0  0  0  0  0  0
    7.1774    5.4665  -12.6561 H   0  0  0  0  0  0  0  0  0  0  0  0
    5.5083    6.1304  -12.6561 H   0  0  0  0  0  0  0  0  0  0  0  0
    4.2733    4.6807  -12.3050 H   0  0  0  0  0  0  0  0  0  0  0  0
    5.6900    5.1843  -13.2878 H   0  0  0  0  0  0  0  0  0  0  0  0
    5.1615    3.4675  -13.2878 H   0  0  0  0  0  0  0  0  0  0  0  0
    5.3137    4.6848  -10.4280 H   0  0  0  0  0  0  0  0  0  0  0  0
    5.9969    3.0626  -10.7957 H   0  0  0  0  0  0  0  0  0  0  0  0
    7.9281    4.8337  -11.8931 H   0  0  0  0  0  0  0  0  0  0  0  0
    7.2701    5.4600  -10.0868 H   0  0  0  0  0  0  0  0  0  0  0  0
    8.8311    3.2471  -10.1466 H   0  0  0  0  0  0  0  0  0  0  0  0
    9.6609    4.7057  -10.6540 H   0  0  0  0  0  0  0  0  0  0  0  0
    8.3185    7.4047   -9.7318 H   0  0  0  0  0  0  0  0  0  0  0  0
   12.7141    8.4038   -9.7038 H   0  0  0  0  0  0  0  0  0  0  0  0
   10.6888    6.7794  -10.3774 H   0  0  0  0  0  0  0  0  0  0  0  0
   10.8499    8.5909  -11.1593 H   0  0  0  0  0  0  0  0  0  0  0  0
   12.5126    8.0815  -12.2896 H   0  0  0  0  0  0  0  0  0  0  0  0
   12.7553    6.4916  -11.4947 H   0  0  0  0  0  0  0  0  0  0  0  0
   10.6445    6.2899  -11.8983 H   0  0  0  0  0  0  0  0  0  0  0  0
   10.9849    7.6141  -13.0633 H   0  0  0  0  0  0  0  0  0  0  0  0
   12.0029    6.1341  -13.0633 H   0  0  0  0  0  0  0  0  0  0  0  0
   13.0069    9.7077   -9.1638 H   0  0  0  0  0  0  0  0  0  0  0  0
   11.0837   10.0654   -9.1592 H   0  0  0  0  0  0  0  0  0  0  0  0
   12.8622   10.5120   -7.2913 H   0  0  0  0  0  0  0  0  0  0  0  0
   11.0622   10.4985   -7.3027 H   0  0  0  0  0  0  0  0  0  0  0  0
   13.0427    8.4108   -6.3149 H   0  0  0  0  0  0  0  0  0  0  0  0
   12.2264    6.5157   -7.7920 H   0  0  0  0  0  0  0  0  0  0  0  0
    9.9389    7.0508   -5.5116 H   0  0  0  0  0  0  0  0  0  0  0  0
   10.2697    5.4343   -6.2201 H   0  0  0  0  0  0  0  0  0  0  0  0
   11.5436    5.1663   -4.4226 H   0  0  0  0  0  0  0  0  0  0  0  0
   12.7272    6.1410   -5.3249 H   0  0  0  0  0  0  0  0  0  0  0  0
   11.1459    6.5225   -3.1640 H   0  0  0  0  0  0  0  0  0  0  0  0
   11.4446    8.9379   -1.6375 H   0  0  0  0  0  0  0  0  0  0  0  0
   12.9457    7.6702   -0.6589 H   0  0  0  0  0  0  0  0  0  0  0  0
   12.8813    6.5327   -2.0477 H   0  0  0  0  0  0  0  0  0  0  0  0
   14.0648    7.8841   -2.0477 H   0  0  0  0  0  0  0  0  0  0  0  0
   13.0185   10.1817   -2.9958 H   0  0  0  0  0  0  0  0  0  0  0  0
   13.3067    8.7333   -4.0262 H   0  0  0  0  0  0  0  0  0  0  0  0
  1  2  2  0
  2  3  1  0
  3  4  1  0
  4  5  1  0
  4  6  1  0
  4  7  1  0
  7  8  1  0
  8  9  1  0
  9 10  1  0
 10 11  1  0
 11 12  2  0
 12 13  2  0
 13 14  1  0
 14 15  1  0
 15 16  1  0
 16 17  1  0
 14 18  1  0
 18 19  1  0
 19 20  1  0
 20 21  1  0
 21 22  1  0
 22 23  1  0
 23 24  1  0
 24 25  1  0
 25 26  1  0
 25 27  1  0
 27 28  1  0
 28 29  2  0
 28 30  1  0
 21 13  1  0
 30 24  1  0
 30 20  1  0
  1 31  1  0
  1 32  1  0
  2 33  1  0
  3 34  1  0
  3 35  1  0
  5 36  1  0
  5 37  1  0
  5 38  1  0
  6 39  1  0
  6 40  1  0
  6 41  1  0
  7 42  1  0
  7 43  1  0
  8 44  1  0
  8 45  1  0
  9 46  1  0
  9 47  1  0
 11 48  1  0
 14 49  1  1
 15 50  1  0
 15 51  1  0
 16 52  1  0
 16 53  1  0
 17 54  1  0
 17 55  1  0
 17 56  1  0
 18 57  1  0
 18 58  1  0
 19 59  1  0
 19 60  1  0
 20 61  1  1
 21 62  1  6
 22 63  1  0
 22 64  1  0
 23 65  1  0
 23 66  1  0
 24 67  1  1
 25 68  1  1
 26 69  1  0
 26 70  1  0
 26 71  1  0
 27 72  1  0
 27 73  1  0
M  END
>  <docking_score>  (30) 
-8.713

>  <plif_similarity>  (30) 
0.286

$$$$
DiffSBDD_55
     RDKit          3D

 28 29  0  0  0  0  0  0  0  0999 V2000
   11.8480    9.5970   -6.8160 C   0  0  0  0  0  0  0  0  0  0  0  0
   11.5030    8.3370   -7.3360 C   0  0  2  0  0  0  0  0  0  0  0  0
   11.3060    7.7310   -9.0220 S   0  0  0  0  0  0  0  0  0  0  0  0
    9.7820    6.9870   -8.4170 C   0  0  2  0  0  0  0  0  0  0  0  0
    8.8040    6.6490   -9.3390 N   0  0  0  0  0  0  0  0  0  0  0  0
    7.9120    5.6600   -9.3490 O   0  0  0  0  0  0  0  0  0  0  0  0
    9.5770    7.5210   -6.9080 C   0  0  0  0  0  0  0  0  0  0  0  0
   11.0110    7.6410   -6.3550 N   0  0  0  0  0  0  0  0  0  0  0  0
   11.4570    7.8920   -5.0030 C   0  0  0  0  0  0  0  0  0  0  0  0
   11.4540    6.7130   -4.1750 C   0  0  0  0  0  0  0  0  0  0  0  0
   11.9680    6.7520   -2.9610 C   0  0  0  0  0  0  0  0  0  0  0  0
   12.5110    7.8690   -2.4360 C   0  0  0  0  0  0  0  0  0  0  0  0
   13.1000    7.8820   -1.2700 F   0  0  0  0  0  0  0  0  0  0  0  0
   12.4130    9.0960   -3.1060 C   0  0  0  0  0  0  0  0  0  0  0  0
   11.8600    9.0490   -4.4240 C   0  0  0  0  0  0  0  0  0  0  0  0
   11.8367    9.5556   -5.7168 H   0  0  0  0  0  0  0  0  0  0  0  0
   12.8549    9.8734   -7.1622 H   0  0  0  0  0  0  0  0  0  0  0  0
   11.1224   10.3477   -7.1622 H   0  0  0  0  0  0  0  0  0  0  0  0
   12.3675    8.2503   -8.0107 H   0  0  0  0  0  0  0  0  0  0  0  0
    9.7522    5.8969   -8.2728 H   0  0  0  0  0  0  0  0  0  0  0  0
    9.3290    6.5140  -10.2150 H   0  0  0  0  0  0  0  0  0  0  0  0
    7.1240    5.9320   -9.8850 H   0  0  0  0  0  0  0  0  0  0  0  0
    9.0738    8.4992   -6.9047 H   0  0  0  0  0  0  0  0  0  0  0  0
    8.9460    6.8517   -6.3048 H   0  0  0  0  0  0  0  0  0  0  0  0
   11.0213    5.7765   -4.5568 H   0  0  0  0  0  0  0  0  0  0  0  0
   11.9531    5.8361   -2.3520 H   0  0  0  0  0  0  0  0  0  0  0  0
   12.7419   10.0392   -2.6454 H   0  0  0  0  0  0  0  0  0  0  0  0
   11.7579    9.9873   -4.9890 H   0  0  0  0  0  0  0  0  0  0  0  0
  1  2  1  0
  2  3  1  0
  3  4  1  0
  4  5  1  0
  5  6  1  0
  4  7  1  0
  7  8  1  0
  8  9  1  0
  9 10  1  0
 10 11  2  0
 11 12  1  0
 12 13  1  0
 12 14  2  0
 14 15  1  0
  8  2  1  0
 15  9  2  0
  1 16  1  0
  1 17  1  0
  1 18  1  0
  2 19  1  1
  4 20  1  1
  5 21  1  0
  6 22  1  0
  7 23  1  0
  7 24  1  0
 10 25  1  0
 11 26  1  0
 14 27  1  0
 15 28  1  0
M  END
>  <docking_score>  (31) 
-8.231

>  <plif_similarity>  (31) 
0.429

$$$$
DiffSBDD_57
     RDKit          3D

 63 67  0  0  0  0  0  0  0  0999 V2000
    8.1420    5.5580  -17.6170 C   0  0  0  0  0  0  0  0  0  0  0  0
    8.7380    4.8100  -16.4200 C   0  0  2  0  0  0  0  0  0  0  0  0
   10.1570    5.1500  -16.3460 C   0  0  0  0  0  0  0  0  0  0  0  0
   10.6560    4.4520  -17.7270 C   0  0  0  0  0  0  0  0  0  0  0  0
   10.3990    2.9970  -17.6140 C   0  0  0  0  0  0  0  0  0  0  0  0
    8.9260    2.5750  -17.8310 C   0  0  0  0  0  0  0  0  0  0  0  0
    7.7700    2.5620  -16.6540 C   0  0  0  0  0  0  0  0  0  0  0  0
    8.3140    3.6170  -15.7180 C   0  0  2  0  0  0  0  0  0  0  0  0
    7.8310    4.8600  -15.1720 C   0  0  1  0  0  0  0  0  0  0  0  0
    7.8160    4.6150  -13.4740 C   0  0  0  0  0  0  0  0  0  0  0  0
    7.2740    5.7210  -12.7390 C   0  0  1  0  0  0  0  0  0  0  0  0
    8.1470    6.0760  -11.6440 C   0  0  0  0  0  0  0  0  0  0  0  0
    8.8780    7.2710  -11.7950 C   0  0  0  0  0  0  0  0  0  0  0  0
    9.7260    7.7260  -10.8750 C   0  0  0  0  0  0  0  0  0  0  0  0
    9.9920    6.8800   -9.7670 C   0  0  0  0  0  0  0  0  0  0  0  0
   10.8360    7.4250   -8.9640 O   0  0  0  0  0  0  0  0  0  0  0  0
   11.0790    7.4540   -7.6210 C   0  0  0  0  0  0  0  0  0  0  0  0
   11.1360    6.2050   -6.8940 C   0  0  0  0  0  0  0  0  0  0  0  0
   11.3290    6.2730   -5.6450 C   0  0  0  0  0  0  0  0  0  0  0  0
   11.5690    7.5460   -4.9990 C   0  0  0  0  0  0  0  0  0  0  0  0
   11.8860    7.4750   -3.6760 C   0  0  0  0  0  0  0  0  0  0  0  0
   11.8350    6.6670   -2.7430 F   0  0  0  0  0  0  0  0  0  0  0  0
   12.5400    7.8840   -2.9530 F   0  0  0  0  0  0  0  0  0  0  0  0
   11.4140    8.6180   -5.7010 C   0  0  0  0  0  0  0  0  0  0  0  0
   11.6030    9.9990   -5.1750 N   0  0  0  0  0  0  0  0  0  0  0  0
   10.8050   10.5950   -4.4770 N   0  0  0  0  0  0  0  0  0  0  0  0
   11.2230    8.6500   -7.0330 N   0  0  0  0  0  0  0  0  0  0  0  0
    9.2320    5.7590   -9.6110 C   0  0  0  0  0  0  0  0  0  0  0  0
    8.3130    5.3540  -10.4660 C   0  0  0  0  0  0  0  0  0  0  0  0
    6.2310    6.5130  -13.0920 C   0  0  0  0  0  0  0  0  0  0  0  0
    6.0490    6.6310  -14.4790 C   0  0  0  0  0  0  0  0  0  0  0  0
    6.8870    6.0340  -15.2450 N   0  0  0  0  0  0  0  0  0  0  0  0
    7.4945    6.3707  -17.2561 H   0  0  0  0  0  0  0  0  0  0  0  0
    8.9543    5.9799  -18.2271 H   0  0  0  0  0  0  0  0  0  0  0  0
    7.5494    4.8605  -18.2271 H   0  0  0  0  0  0  0  0  0  0  0  0
   10.3216    6.2376  -16.3503 H   0  0  0  0  0  0  0  0  0  0  0  0
   10.6762    4.8204  -15.4340 H   0  0  0  0  0  0  0  0  0  0  0  0
   10.0975    4.8661  -18.5794 H   0  0  0  0  0  0  0  0  0  0  0  0
   11.7269    4.6428  -17.8904 H   0  0  0  0  0  0  0  0  0  0  0  0
   11.0158    2.4820  -18.3652 H   0  0  0  0  0  0  0  0  0  0  0  0
   10.6493    2.7197  -16.5794 H   0  0  0  0  0  0  0  0  0  0  0  0
    8.5405    3.2428  -18.6155 H   0  0  0  0  0  0  0  0  0  0  0  0
    9.0489    1.4958  -18.0049 H   0  0  0  0  0  0  0  0  0  0  0  0
    6.7833    2.8422  -17.0514 H   0  0  0  0  0  0  0  0  0  0  0  0
    7.6027    1.5797  -16.1881 H   0  0  0  0  0  0  0  0  0  0  0  0
    8.6568    2.7742  -15.0998 H   0  0  0  0  0  0  0  0  0  0  0  0
    7.2103    3.7228  -13.2567 H   0  0  0  0  0  0  0  0  0  0  0  0
    8.8624    4.4980  -13.1557 H   0  0  0  0  0  0  0  0  0  0  0  0
    6.2156    5.4304  -12.6657 H   0  0  0  0  0  0  0  0  0  0  0  0
    8.7416    7.8557  -12.7167 H   0  0  0  0  0  0  0  0  0  0  0  0
   10.1997    8.7143  -10.9695 H   0  0  0  0  0  0  0  0  0  0  0  0
   11.0168    5.2379   -7.4044 H   0  0  0  0  0  0  0  0  0  0  0  0
   11.3142    5.3528   -5.0425 H   0  0  0  0  0  0  0  0  0  0  0  0
   11.2743    7.8568   -4.5067 H   0  0  0  0  0  0  0  0  0  0  0  0
   11.0150   11.5510   -4.1560 H   0  0  0  0  0  0  0  0  0  0  0  0
    9.3966    5.1502   -8.7098 H   0  0  0  0  0  0  0  0  0  0  0  0
    7.6945    4.4695  -10.2537 H   0  0  0  0  0  0  0  0  0  0  0  0
    5.3131    6.0908  -12.6571 H   0  0  0  0  0  0  0  0  0  0  0  0
    6.4537    7.5213  -12.7128 H   0  0  0  0  0  0  0  0  0  0  0  0
    5.0500    6.2349  -14.7137 H   0  0  0  0  0  0  0  0  0  0  0  0
    6.1963    7.7009  -14.6877 H   0  0  0  0  0  0  0  0  0  0  0  0
    6.2980    5.7840  -16.0520 H   0  0  0  0  0  0  0  0  0  0  0  0
    7.6320    6.7240  -15.0740 H   0  0  0  0  0  0  0  0  0  0  0  0
  2  1  1  6
  2  3  1  0
  3  4  1  0
  4  5  1  0
  5  6  1  0
  6  7  1  0
  7  8  1  0
  8  9  1  0
  9 10  1  1
 10 11  1  0
 11 12  1  0
 12 13  1  0
 13 14  2  0
 14 15  1  0
 15 16  1  0
 16 17  1  0
 17 18  2  0
 18 19  1  0
 19 20  2  0
 20 21  1  0
 21 22  1  0
 21 23  1  0
 20 24  1  0
 24 25  1  0
 25 26  2  3
 24 27  2  0
 15 28  2  0
 28 29  1  0
 11 30  1  0
 30 31  1  0
 31 32  1  0
  8  2  1  0
 32  9  1  0
  9  2  1  0
 29 12  2  0
 27 17  1  0
  1 33  1  0
  1 34  1  0
  1 35  1  0
  3 36  1  0
  3 37  1  0
  4 38  1  0
  4 39  1  0
  5 40  1  0
  5 41  1  0
  6 42  1  0
  6 43  1  0
  7 44  1  0
  7 45  1  0
  8 46  1  1
 10 47  1  0
 10 48  1  0
 11 49  1  1
 13 50  1  0
 14 51  1  0
 18 52  1  0
 19 53  1  0
 21 54  1  0
 26 55  1  0
 28 56  1  0
 29 57  1  0
 30 58  1  0
 30 59  1  0
 31 60  1  0
 31 61  1  0
 32 62  1  0
 32 63  1  0
M  CHG  1  32   1
M  END
>  <docking_score>  (32) 
-11.094

>  <plif_similarity>  (32) 
0.286

$$$$
DiffSBDD_58
     RDKit          3D

 61 64  0  0  0  0  0  0  0  0999 V2000
    9.0790    8.5530   -6.1110 C   0  0  0  0  0  0  0  0  0  0  0  0
   10.3640    9.1590   -6.5670 C   0  0  1  0  0  0  0  0  0  0  0  0
   11.1340    9.6730   -5.3840 C   0  0  0  0  0  0  0  0  0  0  0  0
   11.0420   10.8420   -5.0340 O   0  0  0  0  0  0  0  0  0  0  0  0
   11.4300    8.4110   -4.4740 C   0  0  2  0  0  0  0  0  0  0  0  0
   12.6140    8.7230   -3.6740 C   0  0  0  0  0  0  0  0  0  0  0  0
   12.0490    9.4300   -2.8020 F   0  0  0  0  0  0  0  0  0  0  0  0
   13.5510    9.4020   -4.3130 F   0  0  0  0  0  0  0  0  0  0  0  0
   13.1250    7.6990   -3.1620 F   0  0  0  0  0  0  0  0  0  0  0  0
   11.3860    7.0090   -5.0480 C   0  0  0  0  0  0  0  0  0  0  0  0
   11.6670    6.9270   -6.5680 C   0  0  0  0  0  0  0  0  0  0  0  0
   11.3510    8.2510   -7.3590 C   0  0  1  0  0  0  0  0  0  0  0  0
   11.2870    7.8130   -8.8350 C   0  0  1  0  0  0  0  0  0  0  0  0
   12.6420    7.9320   -9.5920 C   0  0  0  0  0  0  0  0  0  0  0  0
   12.4830    7.5870  -11.0820 C   0  0  0  0  0  0  0  0  0  0  0  0
   11.0160    7.2670  -11.5040 C   0  0  0  0  0  0  0  0  0  0  0  0
    9.9610    6.7690  -10.5920 C   0  0  2  0  0  0  0  0  0  0  0  0
   10.2690    6.7790   -9.1400 C   0  0  1  0  0  0  0  0  0  0  0  0
    9.6170    5.6150   -8.5200 C   0  0  0  0  0  0  0  0  0  0  0  0
    8.8700    4.8140   -9.6420 C   0  0  0  0  0  0  0  0  0  0  0  0
    8.9370    5.7720  -10.8290 C   0  0  2  0  0  0  0  0  0  0  0  0
    8.8200    5.5650  -12.3260 O   0  0  0  0  0  0  0  0  0  0  0  0
    7.8350    6.1940  -13.1560 C   0  0  1  0  0  0  0  0  0  0  0  0
    8.0770    5.4030  -14.3060 C   0  0  0  0  0  0  0  0  0  0  0  0
    7.7540    5.1870  -15.5980 C   0  0  0  0  0  0  0  0  0  0  0  0
    6.8520    5.8720  -16.3850 C   0  0  0  0  0  0  0  0  0  0  0  0
    6.7750    5.6030  -17.5740 O   0  0  0  0  0  0  0  0  0  0  0  0
    5.9860    6.9000  -15.7070 C   0  0  0  0  0  0  0  0  0  0  0  0
    6.0510    7.3040  -14.4050 C   0  0  0  0  0  0  0  0  0  0  0  0
    6.5860    7.1370  -12.9930 C   0  0  0  0  0  0  0  0  0  0  0  0
    9.0499    8.5393   -5.0115 H   0  0  0  0  0  0  0  0  0  0  0  0
    8.2368    9.1488   -6.4927 H   0  0  0  0  0  0  0  0  0  0  0  0
    9.0030    7.5241   -6.4927 H   0  0  0  0  0  0  0  0  0  0  0  0
   10.0222    9.9347   -7.2680 H   0  0  0  0  0  0  0  0  0  0  0  0
   10.5286    8.2818   -3.8569 H   0  0  0  0  0  0  0  0  0  0  0  0
   12.1395    6.4007   -4.5263 H   0  0  0  0  0  0  0  0  0  0  0  0
   10.3592    6.6432   -4.9002 H   0  0  0  0  0  0  0  0  0  0  0  0
   12.7313    6.6875   -6.7089 H   0  0  0  0  0  0  0  0  0  0  0  0
   10.9970    6.1529   -6.9703 H   0  0  0  0  0  0  0  0  0  0  0  0
   12.0734    9.0766   -7.4398 H   0  0  0  0  0  0  0  0  0  0  0  0
   10.7753    8.5772   -9.4385 H   0  0  0  0  0  0  0  0  0  0  0  0
   13.0138    8.9633   -9.5009 H   0  0  0  0  0  0  0  0  0  0  0  0
   13.3523    7.2208   -9.1453 H   0  0  0  0  0  0  0  0  0  0  0  0
   12.8349    8.4438  -11.6753 H   0  0  0  0  0  0  0  0  0  0  0  0
   13.0731    6.6766  -11.2635 H   0  0  0  0  0  0  0  0  0  0  0  0
   10.6212    8.2028  -11.9264 H   0  0  0  0  0  0  0  0  0  0  0  0
   11.1781    6.3749  -12.1268 H   0  0  0  0  0  0  0  0  0  0  0  0
    9.4420    7.6095  -11.0760 H   0  0  0  0  0  0  0  0  0  0  0  0
   10.1614    7.0805   -8.0876 H   0  0  0  0  0  0  0  0  0  0  0  0
   10.3742    4.9731   -8.0460 H   0  0  0  0  0  0  0  0  0  0  0  0
    8.9034    5.9453   -7.7508 H   0  0  0  0  0  0  0  0  0  0  0  0
    9.3844    3.8676   -9.8649 H   0  0  0  0  0  0  0  0  0  0  0  0
    7.8446    4.5255   -9.3675 H   0  0  0  0  0  0  0  0  0  0  0  0
    7.8495    5.9127  -10.7425 H   0  0  0  0  0  0  0  0  0  0  0  0
    7.6681    7.2281  -12.8202 H   0  0  0  0  0  0  0  0  0  0  0  0
    8.8418    4.6605  -14.0342 H   0  0  0  0  0  0  0  0  0  0  0  0
    8.2796    4.3545  -16.0886 H   0  0  0  0  0  0  0  0  0  0  0  0
    5.2158    7.3784  -16.3298 H   0  0  0  0  0  0  0  0  0  0  0  0
    5.3917    8.1829  -14.3519 H   0  0  0  0  0  0  0  0  0  0  0  0
    6.8843    8.1087  -12.5724 H   0  0  0  0  0  0  0  0  0  0  0  0
    5.8339    6.7213  -12.3064 H   0  0  0  0  0  0  0  0  0  0  0  0
  1  2  1  0
  2  3  1  0
  3  4  2  0
  3  5  1  0
  5  6  1  0
  6  7  1  0
  6  8  1  0
  6  9  1  0
  5 10  1  0
 10 11  1  0
 11 12  1  0
 12 13  1  0
 13 14  1  0
 14 15  1  0
 15 16  1  0
 16 17  1  0
 17 18  1  0
 18 19  1  0
 19 20  1  0
 20 21  1  0
 21 22  1  0
 22 23  1  0
 23 24  1  0
 24 25  2  0
 25 26  1  0
 26 27  2  0
 26 28  1  0
 28 29  2  0
 29 30  1  0
 12  2  1  0
 18 13  1  0
 30 23  1  0
 21 17  1  0
  1 31  1  0
  1 32  1  0
  1 33  1  0
  2 34  1  6
  5 35  1  1
 10 36  1  0
 10 37  1  0
 11 38  1  0
 11 39  1  0
 12 40  1  6
 13 41  1  6
 14 42  1  0
 14 43  1  0
 15 44  1  0
 15 45  1  0
 16 46  1  0
 16 47  1  0
 17 48  1  1
 18 49  1  1
 19 50  1  0
 19 51  1  0
 20 52  1  0
 20 53  1  0
 21 54  1  1
 23 55  1  6
 24 56  1  0
 25 57  1  0
 28 58  1  0
 29 59  1  0
 30 60  1  0
 30 61  1  0
M  END
>  <docking_score>  (33) 
-10.704

>  <plif_similarity>  (33) 
0.286

$$$$
DiffSBDD_59
     RDKit          3D

 68 71  0  0  0  0  0  0  0  0999 V2000
    9.1900    5.6880  -18.7960 C   0  0  0  0  0  0  0  0  0  0  0  0
    8.9060    5.4810  -17.3450 C   0  0  2  0  0  0  0  0  0  0  0  0
    9.5730    4.2950  -16.8940 O   0  0  0  0  0  0  0  0  0  0  0  0
    8.7730    3.2150  -16.9550 C   0  0  1  0  0  0  0  0  0  0  0  0
    9.2090    1.8850  -17.5040 C   0  0  0  0  0  0  0  0  0  0  0  0
    7.5990    3.3450  -16.1050 C   0  0  2  0  0  0  0  0  0  0  0  0
    7.1000    2.3530  -15.1280 C   0  0  1  0  0  0  0  0  0  0  0  0
    6.6700    0.8900  -15.1060 C   0  0  0  0  0  0  0  0  0  0  0  0
    7.3390    2.9280  -13.5530 P   0  0  2  0  0  5  0  0  0  0  0  0
    8.2830    2.0300  -12.8260 O   0  0  0  0  0  0  0  0  0  0  0  0
    6.0290    3.3520  -12.5920 C   0  0  0  0  0  0  0  0  0  0  0  0
    6.6390    4.3760  -11.5750 C   0  0  2  0  0  0  0  0  0  0  0  0
    5.8040    5.3760  -11.0040 O   0  0  0  0  0  0  0  0  0  0  0  0
    7.7970    4.9430  -12.3240 C   0  0  2  0  0  0  0  0  0  0  0  0
    8.3220    6.2380  -12.2180 C   0  0  0  0  0  0  0  0  0  0  0  0
    7.7900    7.3240  -12.4800 O   0  0  0  0  0  0  0  0  0  0  0  0
    9.6470    6.3010  -11.5150 C   0  0  1  0  0  0  0  0  0  0  0  0
   10.6800    6.1910  -12.5380 N   0  0  0  0  0  0  0  0  0  0  0  0
    9.6740    7.8180  -10.9840 C   0  0  0  0  0  0  0  0  0  0  0  0
    9.6940    7.1170   -9.9450 N   0  0  0  0  0  0  0  0  0  0  0  0
   10.2660    7.2310   -8.7530 C   0  0  0  0  0  0  0  0  0  0  0  0
   10.0450    6.2610   -7.7900 C   0  0  0  0  0  0  0  0  0  0  0  0
   10.6110    6.3810   -6.5660 C   0  0  0  0  0  0  0  0  0  0  0  0
   11.2690    7.5380   -6.2200 C   0  0  0  0  0  0  0  0  0  0  0  0
   11.5550    7.6740   -4.7450 C   0  0  0  0  0  0  0  0  0  0  0  0
   12.0540    8.8450   -4.2630 C   0  0  0  0  0  0  0  0  0  0  0  0
   12.6920    8.9330   -3.1130 C   0  0  0  0  0  0  0  0  0  0  0  0
   12.6910    7.8900   -2.2410 N   0  0  0  0  0  0  0  0  0  0  0  0
   12.0500    6.7840   -2.6360 C   0  0  0  0  0  0  0  0  0  0  0  0
   11.4780    6.6750   -3.8580 N   0  0  0  0  0  0  0  0  0  0  0  0
   11.6180    8.5140   -7.1910 C   0  0  0  0  0  0  0  0  0  0  0  0
   11.0140    8.3720   -8.5020 C   0  0  0  0  0  0  0  0  0  0  0  0
    7.9740    4.3760  -13.6860 N   0  0  0  0  0  0  0  0  0  0  0  0
    6.8160    4.5480  -16.0420 O   0  0  0  0  0  0  0  0  0  0  0  0
    7.3620    5.4260  -17.0590 C   0  0  0  0  0  0  0  0  0  0  0  0
    6.6340    6.6140  -17.3320 O   0  0  0  0  0  0  0  0  0  0  0  0
   10.0743    6.3325  -18.9082 H   0  0  0  0  0  0  0  0  0  0  0  0
    9.3815    4.7162  -19.2744 H   0  0  0  0  0  0  0  0  0  0  0  0
    8.3235    6.1678  -19.2744 H   0  0  0  0  0  0  0  0  0  0  0  0
    9.2948    6.3411  -16.7802 H   0  0  0  0  0  0  0  0  0  0  0  0
    8.4622    3.1853  -18.0098 H   0  0  0  0  0  0  0  0  0  0  0  0
    9.4333    1.2008  -16.6724 H   0  0  0  0  0  0  0  0  0  0  0  0
    8.4029    1.4608  -18.1206 H   0  0  0  0  0  0  0  0  0  0  0  0
   10.1098    2.0203  -18.1206 H   0  0  0  0  0  0  0  0  0  0  0  0
    8.2177    3.8060  -15.3210 H   0  0  0  0  0  0  0  0  0  0  0  0
    6.4805    2.1926  -16.0227 H   0  0  0  0  0  0  0  0  0  0  0  0
    6.5708    0.5526  -14.0637 H   0  0  0  0  0  0  0  0  0  0  0  0
    5.7028    0.7843  -15.6192 H   0  0  0  0  0  0  0  0  0  0  0  0
    7.4262    0.2778  -15.6192 H   0  0  0  0  0  0  0  0  0  0  0  0
    5.2353    3.8198  -13.1930 H   0  0  0  0  0  0  0  0  0  0  0  0
    5.5600    2.4869  -12.1004 H   0  0  0  0  0  0  0  0  0  0  0  0
    6.8867    3.8432  -10.6451 H   0  0  0  0  0  0  0  0  0  0  0  0
    6.3380    6.1930  -10.8340 H   0  0  0  0  0  0  0  0  0  0  0  0
    8.4588    4.5634  -11.5316 H   0  0  0  0  0  0  0  0  0  0  0  0
    9.7926    5.5362  -10.7379 H   0  0  0  0  0  0  0  0  0  0  0  0
   11.1090    7.1140  -12.6930 H   0  0  0  0  0  0  0  0  0  0  0  0
   11.4020    5.5250  -12.2260 H   0  0  0  0  0  0  0  0  0  0  0  0
   10.5722    8.4128  -11.2067 H   0  0  0  0  0  0  0  0  0  0  0  0
    8.9815    8.6349  -11.2354 H   0  0  0  0  0  0  0  0  0  0  0  0
    9.1380    6.2540  -10.0370 H   0  0  0  0  0  0  0  0  0  0  0  0
    9.4096    5.3929   -8.0194 H   0  0  0  0  0  0  0  0  0  0  0  0
   10.5444    5.5514   -5.8468 H   0  0  0  0  0  0  0  0  0  0  0  0
   11.9188    9.7590   -4.8600 H   0  0  0  0  0  0  0  0  0  0  0  0
   13.2296    9.8578   -2.8567 H   0  0  0  0  0  0  0  0  0  0  0  0
   11.9855    5.9325   -1.9426 H   0  0  0  0  0  0  0  0  0  0  0  0
   12.3114    9.3362   -6.9604 H   0  0  0  0  0  0  0  0  0  0  0  0
   11.1450    9.1452   -9.2734 H   0  0  0  0  0  0  0  0  0  0  0  0
    8.9720    4.3210  -13.9380 H   0  0  0  0  0  0  0  0  0  0  0  0
  1  2  1  0
  2  3  1  0
  3  4  1  0
  4  5  1  0
  4  6  1  0
  6  7  1  0
  7  8  1  0
  7  9  1  0
  9 10  2  0
  9 11  1  0
 11 12  1  0
 12 13  1  0
 12 14  1  0
 14 15  1  0
 15 16  2  0
 15 17  1  0
 17 18  1  0
 17 19  1  0
 19 20  1  0
 20 21  1  0
 21 22  1  0
 22 23  2  0
 23 24  1  0
 24 25  1  0
 25 26  1  0
 26 27  2  0
 27 28  1  0
 28 29  2  0
 29 30  1  0
 24 31  2  0
 31 32  1  0
 14 33  1  0
  6 34  1  0
 34 35  1  0
 35 36  2  0
 35  2  1  0
  9 33  1  6
 32 21  2  0
 30 25  2  0
  1 37  1  0
  1 38  1  0
  1 39  1  0
  2 40  1  1
  4 41  1  6
  5 42  1  0
  5 43  1  0
  5 44  1  0
  6 45  1  6
  7 46  1  6
  8 47  1  0
  8 48  1  0
  8 49  1  0
 11 50  1  0
 11 51  1  0
 12 52  1  1
 13 53  1  0
 14 54  1  1
 17 55  1  1
 18 56  1  0
 18 57  1  0
 19 58  1  0
 19 59  1  0
 20 60  1  0
 22 61  1  0
 23 62  1  0
 26 63  1  0
 27 64  1  0
 29 65  1  0
 31 66  1  0
 32 67  1  0
 33 68  1  0
M  END
>  <docking_score>  (34) 
-9.704

>  <plif_similarity>  (34) 
0.286

$$$$
DiffSBDD_5
     RDKit          3D

 62 65  0  0  0  0  0  0  0  0999 V2000
   11.6800   10.3310   -5.9980 C   0  0  0  0  0  0  0  0  0  0  0  0
   11.4630    9.0170   -5.4940 C   0  0  0  0  0  0  0  0  0  0  0  0
   10.7570    8.1410   -6.2900 C   0  0  0  0  0  0  0  0  0  0  0  0
   10.0860    8.7110   -7.3560 O   0  0  0  0  0  0  0  0  0  0  0  0
    9.7660    8.1030   -8.6460 C   0  0  0  0  0  0  0  0  0  0  0  0
   11.0170    8.2600   -9.5410 C   0  0  0  0  0  0  0  0  0  0  0  0
   11.2300    7.3110  -10.9030 C   0  0  0  0  0  0  0  0  0  0  0  0
    9.9440    7.1350  -11.5790 C   0  0  1  0  0  0  0  0  0  0  0  0
   10.3810    6.1860  -12.7710 O   0  0  0  0  0  0  0  0  0  0  0  0
    8.5730    6.5520  -11.9960 C   0  0  2  0  0  0  0  0  0  0  0  0
    7.6090    7.4980  -12.7320 O   0  0  0  0  0  0  0  0  0  0  0  0
    6.7190    6.7210  -13.6500 C   0  0  0  0  0  0  0  0  0  0  0  0
    6.6000    5.3540  -13.0960 C   0  0  0  0  0  0  0  0  0  0  0  0
    7.3080    4.0180  -12.6290 S   0  0  2  0  0  4  0  0  0  0  0  0
    8.6050    3.5460  -12.4320 O   0  0  0  0  0  0  0  0  0  0  0  0
    6.0240    2.9270  -13.0210 N   0  0  0  0  0  0  0  0  0  0  0  0
    6.4230    2.0950  -14.1270 C   0  0  0  0  0  0  0  0  0  0  0  0
    7.2360    2.5980  -15.1830 C   0  0  0  0  0  0  0  0  0  0  0  0
    7.4590    1.7740  -16.2740 C   0  0  0  0  0  0  0  0  0  0  0  0
    6.9710    0.4610  -16.3530 C   0  0  0  0  0  0  0  0  0  0  0  0
    6.1970   -0.0510  -15.3200 C   0  0  0  0  0  0  0  0  0  0  0  0
    5.9460    0.8360  -14.1520 C   0  0  0  0  0  0  0  0  0  0  0  0
    7.7020    5.7250  -11.4950 C   0  0  1  0  0  0  0  0  0  0  0  0
    8.3730    4.9780  -10.2610 C   0  0  0  0  0  0  0  0  0  0  0  0
    9.5490    4.5260  -10.3220 O   0  0  0  0  0  0  0  0  0  0  0  0
    7.9110    5.0130   -9.0980 O   0  0  0  0  0  0  0  0  0  0  0  0
   10.6780    6.7790   -5.9200 C   0  0  0  0  0  0  0  0  0  0  0  0
   11.2420    6.3590   -4.7340 C   0  0  0  0  0  0  0  0  0  0  0  0
   11.8220    7.2980   -3.8730 C   0  0  0  0  0  0  0  0  0  0  0  0
   12.3630    7.2070   -2.6200 N   0  0  0  0  0  0  0  0  0  0  0  0
   12.7230    8.4080   -2.2050 C   0  0  0  0  0  0  0  0  0  0  0  0
   13.2570    8.7010   -0.9180 N   0  0  0  0  0  0  0  0  0  0  0  0
   12.4320    9.2710   -3.1640 O   0  0  0  0  0  0  0  0  0  0  0  0
   11.9820    8.6460   -4.2730 C   0  0  0  0  0  0  0  0  0  0  0  0
   11.7957   11.0315   -5.1578 H   0  0  0  0  0  0  0  0  0  0  0  0
   12.5921   10.3419   -6.6128 H   0  0  0  0  0  0  0  0  0  0  0  0
   10.8198   10.6346   -6.6128 H   0  0  0  0  0  0  0  0  0  0  0  0
    9.5278    7.0374   -8.5129 H   0  0  0  0  0  0  0  0  0  0  0  0
    8.8918    8.5891   -9.1036 H   0  0  0  0  0  0  0  0  0  0  0  0
   11.0264    9.3051   -9.8840 H   0  0  0  0  0  0  0  0  0  0  0  0
   11.8292    7.9204   -8.8814 H   0  0  0  0  0  0  0  0  0  0  0  0
   11.9391    7.8024  -11.5854 H   0  0  0  0  0  0  0  0  0  0  0  0
   11.6273    6.3287  -10.6078 H   0  0  0  0  0  0  0  0  0  0  0  0
    9.6648    8.0253  -10.9964 H   0  0  0  0  0  0  0  0  0  0  0  0
   10.8550    6.7170  -13.4590 H   0  0  0  0  0  0  0  0  0  0  0  0
    9.3626    5.8654  -12.3351 H   0  0  0  0  0  0  0  0  0  0  0  0
    5.7271    7.1937  -13.7018 H   0  0  0  0  0  0  0  0  0  0  0  0
    7.1376    6.6937  -14.6669 H   0  0  0  0  0  0  0  0  0  0  0  0
    6.0539    5.5909  -12.1710 H   0  0  0  0  0  0  0  0  0  0  0  0
    6.5578    4.9571  -14.1210 H   0  0  0  0  0  0  0  0  0  0  0  0
    8.8410    3.6170  -11.4730 H   0  0  0  0  0  0  0  0  0  0  0  0
    5.1160    2.8790  -12.5390 H   0  0  0  0  0  0  0  0  0  0  0  0
    7.6720    3.6067  -15.1338 H   0  0  0  0  0  0  0  0  0  0  0  0
    8.0457    2.1673  -17.1173 H   0  0  0  0  0  0  0  0  0  0  0  0
    7.2008   -0.1610  -17.2306 H   0  0  0  0  0  0  0  0  0  0  0  0
    5.7863   -1.0705  -15.3634 H   0  0  0  0  0  0  0  0  0  0  0  0
    5.3636    0.4586  -13.2985 H   0  0  0  0  0  0  0  0  0  0  0  0
    6.8187    6.3633  -11.3455 H   0  0  0  0  0  0  0  0  0  0  0  0
   10.1687    6.0572   -6.5755 H   0  0  0  0  0  0  0  0  0  0  0  0
   11.2362    5.2922   -4.4660 H   0  0  0  0  0  0  0  0  0  0  0  0
   12.6640    9.1460   -0.2030 H   0  0  0  0  0  0  0  0  0  0  0  0
   14.2360    8.4670   -0.7010 H   0  0  0  0  0  0  0  0  0  0  0  0
  1  2  1  0
  2  3  1  0
  3  4  1  0
  4  5  1  0
  5  6  1  0
  6  7  1  0
  7  8  1  0
  8  9  1  0
  8 10  1  0
 10 11  1  0
 11 12  1  0
 12 13  1  0
 13 14  1  0
 14 15  1  6
 14 16  1  0
 16 17  1  0
 17 18  2  0
 18 19  1  0
 19 20  2  0
 20 21  1  0
 21 22  2  0
 14 23  1  0
 23 24  1  0
 24 25  2  0
 24 26  1  0
  3 27  2  0
 27 28  1  0
 28 29  2  0
 29 30  1  0
 30 31  2  0
 31 32  1  0
 31 33  1  0
 33 34  1  0
 34  2  2  0
 23 10  1  0
 34 29  1  0
 22 17  1  0
  1 35  1  0
  1 36  1  0
  1 37  1  0
  5 38  1  0
  5 39  1  0
  6 40  1  0
  6 41  1  0
  7 42  1  0
  7 43  1  0
  8 44  1  6
  9 45  1  0
 10 46  1  6
 12 47  1  0
 12 48  1  0
 13 49  1  0
 13 50  1  0
 15 51  1  0
 16 52  1  0
 18 53  1  0
 19 54  1  0
 20 55  1  0
 21 56  1  0
 22 57  1  0
 23 58  1  1
 27 59  1  0
 28 60  1  0
 32 61  1  0
 32 62  1  0
M  CHG  1  26  -1
M  END
>  <docking_score>  (35) 
-9.756

>  <plif_similarity>  (35) 
0.429

$$$$
DiffSBDD_60
     RDKit          3D

 71 74  0  0  0  0  0  0  0  0999 V2000
    6.6080    7.5330  -12.5760 C   0  0  0  0  0  0  0  0  0  0  0  0
    6.2460    6.0800  -12.9890 C   0  0  1  0  0  0  0  0  0  0  0  0
    5.9910    5.8350  -14.4110 N   0  0  0  0  0  0  0  0  0  0  0  0
    6.6740    5.7540  -15.6750 C   0  0  0  0  0  0  0  0  0  0  0  0
    7.9120    5.3180  -15.7270 C   0  0  0  0  0  0  0  0  0  0  0  0
    8.6090    5.2800  -16.9870 C   0  0  0  0  0  0  0  0  0  0  0  0
    7.9650    5.5610  -18.1160 C   0  0  0  0  0  0  0  0  0  0  0  0
    6.7090    6.0650  -18.1030 C   0  0  0  0  0  0  0  0  0  0  0  0
    6.0630    6.5030  -19.2380 C   0  0  0  0  0  0  0  0  0  0  0  0
    4.8000    7.0930  -19.2260 C   0  0  0  0  0  0  0  0  0  0  0  0
    4.1150    7.1660  -18.0410 C   0  0  0  0  0  0  0  0  0  0  0  0
    4.6760    6.6980  -16.8990 C   0  0  0  0  0  0  0  0  0  0  0  0
    5.9580    6.1640  -16.9460 C   0  0  0  0  0  0  0  0  0  0  0  0
    6.0340    4.9830  -12.0380 C   0  0  2  0  0  0  0  0  0  0  0  0
    5.2700    5.7660  -11.0440 O   0  0  0  0  0  0  0  0  0  0  0  0
    7.4820    4.7760  -11.6280 N   0  0  0  0  0  0  0  0  0  0  0  0
    7.9430    4.9650  -10.3160 C   0  0  0  0  0  0  0  0  0  0  0  0
    9.3090    5.3400   -9.8620 C   0  0  0  0  0  0  0  0  0  0  0  0
    9.4090    7.0640   -9.6520 C   0  0  2  0  0  0  0  0  0  0  0  0
    9.1270    7.0390   -8.1740 C   0  0  0  0  0  0  0  0  0  0  0  0
    9.8790    8.0180   -7.4160 C   0  0  0  0  0  0  0  0  0  0  0  0
   11.2470    7.8590   -6.8350 C   0  0  1  0  0  0  0  0  0  0  0  0
   11.5910    6.4840   -6.2850 C   0  0  0  0  0  0  0  0  0  0  0  0
   12.4670    8.3290   -8.0170 S   0  0  0  0  0  0  0  0  0  0  0  0
   11.2150    8.9110   -5.6410 C   0  0  1  0  0  0  0  0  0  0  0  0
   11.6380    8.4090   -4.4110 O   0  0  0  0  0  0  0  0  0  0  0  0
   11.3110   10.4000   -5.4330 C   0  0  0  0  0  0  0  0  0  0  0  0
   10.9220   10.5440   -4.0340 O   0  0  0  0  0  0  0  0  0  0  0  0
    9.7020    8.4340  -10.2350 O   0  0  0  0  0  0  0  0  0  0  0  0
   10.4220    7.2940  -10.7830 C   0  0  2  0  0  0  0  0  0  0  0  0
   10.3550    6.9160  -12.2540 C   0  0  0  0  0  0  0  0  0  0  0  0
   11.3330    6.4540  -12.7190 O   0  0  0  0  0  0  0  0  0  0  0  0
    8.5040    4.0660  -12.4610 C   0  0  2  0  0  0  0  0  0  0  0  0
    7.8490    2.8480  -12.9400 C   0  0  0  0  0  0  0  0  0  0  0  0
    9.1100    3.1200  -11.9480 O   0  0  0  0  0  0  0  0  0  0  0  0
    6.6268    7.6084  -11.4787 H   0  0  0  0  0  0  0  0  0  0  0  0
    7.5983    7.7926  -12.9784 H   0  0  0  0  0  0  0  0  0  0  0  0
    5.8553    8.2269  -12.9784 H   0  0  0  0  0  0  0  0  0  0  0  0
    5.1796    6.3022  -12.8361 H   0  0  0  0  0  0  0  0  0  0  0  0
    4.9850    5.6610  -14.5530 H   0  0  0  0  0  0  0  0  0  0  0  0
    8.4162    4.9821  -14.8089 H   0  0  0  0  0  0  0  0  0  0  0  0
    9.6769    5.0178  -17.0154 H   0  0  0  0  0  0  0  0  0  0  0  0
    8.4632    5.3802  -19.0799 H   0  0  0  0  0  0  0  0  0  0  0  0
    6.5710    6.3806  -20.2059 H   0  0  0  0  0  0  0  0  0  0  0  0
    4.3607    7.4931  -20.1517 H   0  0  0  0  0  0  0  0  0  0  0  0
    3.1070    7.6057  -18.0166 H   0  0  0  0  0  0  0  0  0  0  0  0
    4.1240    6.7404  -15.9485 H   0  0  0  0  0  0  0  0  0  0  0  0
    5.5477    4.0276  -12.2843 H   0  0  0  0  0  0  0  0  0  0  0  0
    5.4720    5.4320  -10.1340 H   0  0  0  0  0  0  0  0  0  0  0  0
    7.2898    5.7481   -9.9036 H   0  0  0  0  0  0  0  0  0  0  0  0
    7.9480    3.9135   -9.9931 H   0  0  0  0  0  0  0  0  0  0  0  0
    9.5249    4.8426   -8.9049 H   0  0  0  0  0  0  0  0  0  0  0  0
   10.0423    5.0236  -10.6185 H   0  0  0  0  0  0  0  0  0  0  0  0
    8.0549    7.2330   -8.0227 H   0  0  0  0  0  0  0  0  0  0  0  0
    9.4329    6.0480   -7.8075 H   0  0  0  0  0  0  0  0  0  0  0  0
    9.9551    8.8911   -8.0808 H   0  0  0  0  0  0  0  0  0  0  0  0
    9.2930    8.0035   -6.4852 H   0  0  0  0  0  0  0  0  0  0  0  0
   11.5829    6.5164   -5.1855 H   0  0  0  0  0  0  0  0  0  0  0  0
   10.8482    5.7524   -6.6358 H   0  0  0  0  0  0  0  0  0  0  0  0
   12.5908    6.1884   -6.6358 H   0  0  0  0  0  0  0  0  0  0  0  0
   11.8550    8.8980   -9.1030 H   0  0  0  0  0  0  0  0  0  0  0  0
   10.3150    8.9869   -6.2688 H   0  0  0  0  0  0  0  0  0  0  0  0
   11.3660    9.0310   -3.6900 H   0  0  0  0  0  0  0  0  0  0  0  0
   12.3367   10.7604   -5.6004 H   0  0  0  0  0  0  0  0  0  0  0  0
   10.6866   10.9828   -6.1261 H   0  0  0  0  0  0  0  0  0  0  0  0
   11.1700   11.4470   -3.7140 H   0  0  0  0  0  0  0  0  0  0  0  0
   11.4624    6.9599  -10.9092 H   0  0  0  0  0  0  0  0  0  0  0  0
    9.4432    7.0658  -12.8509 H   0  0  0  0  0  0  0  0  0  0  0  0
    8.9908    4.9218  -12.9516 H   0  0  0  0  0  0  0  0  0  0  0  0
    6.8679    2.5260  -12.5609 H   0  0  0  0  0  0  0  0  0  0  0  0
    7.6067    2.3299  -13.8796 H   0  0  0  0  0  0  0  0  0  0  0  0
  1  2  1  0
  2  3  1  0
  3  4  1  0
  4  5  2  0
  5  6  1  0
  6  7  2  0
  7  8  1  0
  8  9  2  0
  9 10  1  0
 10 11  2  0
 11 12  1  0
 12 13  2  0
  2 14  1  0
 14 15  1  0
 14 16  1  0
 16 17  1  0
 17 18  1  0
 19 18  1  1
 19 20  1  0
 20 21  1  0
 21 22  1  0
 22 23  1  0
 22 24  1  6
 22 25  1  0
 25 26  1  0
 25 27  1  0
 27 28  1  0
 19 29  1  0
 29 30  1  0
 30 31  1  0
 31 32  2  0
 16 33  1  0
 33 34  1  0
 34 35  1  0
 13  4  1  0
 30 19  1  0
 35 33  1  0
 13  8  1  0
  1 36  1  0
  1 37  1  0
  1 38  1  0
  2 39  1  6
  3 40  1  0
  5 41  1  0
  6 42  1  0
  7 43  1  0
  9 44  1  0
 10 45  1  0
 11 46  1  0
 12 47  1  0
 14 48  1  6
 15 49  1  0
 17 50  1  0
 17 51  1  0
 18 52  1  0
 18 53  1  0
 20 54  1  0
 20 55  1  0
 21 56  1  0
 21 57  1  0
 23 58  1  0
 23 59  1  0
 23 60  1  0
 24 61  1  0
 25 62  1  1
 26 63  1  0
 27 64  1  0
 27 65  1  0
 28 66  1  0
 30 67  1  1
 31 68  1  0
 33 69  1  6
 34 70  1  0
 34 71  1  0
M  END
>  <docking_score>  (36) 
-8.388

>  <plif_similarity>  (36) 
0.429

$$$$
DiffSBDD_61
     RDKit          3D

 47 48  0  0  0  0  0  0  0  0999 V2000
    6.0530    3.9510  -11.6700 C   0  0  0  0  0  0  0  0  0  0  0  0
    6.7140    5.2780  -11.7070 C   0  0  2  0  0  0  0  0  0  0  0  0
    6.7830    5.8890  -13.0310 N   0  0  0  0  0  0  0  0  0  0  0  0
    7.1640    5.3750  -14.2030 C   0  0  0  0  0  0  0  0  0  0  0  0
    6.8480    5.9980  -15.1130 C   0  0  0  0  0  0  0  0  0  0  0  0
    6.4400    7.2290  -14.5430 C   0  0  1  0  0  0  0  0  0  0  0  0
    5.3410    7.7060  -15.2970 F   0  0  0  0  0  0  0  0  0  0  0  0
    6.3770    7.0180  -13.2220 C   0  0  0  0  0  0  0  0  0  0  0  0
    8.3980    5.0360  -11.2510 P   0  0  2  0  0  5  0  0  0  0  0  0
    9.0320    4.0190  -12.1200 O   0  0  0  0  0  0  0  0  0  0  0  0
    8.6600    4.4620   -9.8680 O   0  0  0  0  0  0  0  0  0  0  0  0
    8.9770    6.3840  -11.2330 O   0  0  0  0  0  0  0  0  0  0  0  0
    9.5780    7.5180  -10.4350 P   0  0  1  0  0  5  0  0  0  0  0  0
   11.0180    7.3910  -10.8450 O   0  0  0  0  0  0  0  0  0  0  0  0
    8.8310    8.7550  -10.7020 O   0  0  0  0  0  0  0  0  0  0  0  0
    9.4820    7.4130   -8.9590 O   0  0  0  0  0  0  0  0  0  0  0  0
   10.5510    6.8740   -8.0870 C   0  0  0  0  0  0  0  0  0  0  0  0
   11.0810    7.8420   -7.1010 C   0  0  0  0  0  0  0  0  0  0  0  0
   11.6540    9.1000   -7.4510 C   0  0  0  0  0  0  0  0  0  0  0  0
   12.1580    9.9860   -6.5710 C   0  0  0  0  0  0  0  0  0  0  0  0
   12.2230    9.6180   -5.2090 C   0  0  0  0  0  0  0  0  0  0  0  0
   11.8360    8.3400   -4.7860 C   0  0  0  0  0  0  0  0  0  0  0  0
   11.9560    7.8900   -3.6180 N   0  0  0  0  0  0  0  0  0  0  0  0
   12.0390    7.6480   -2.3650 C   0  0  0  0  0  0  0  0  0  0  0  0
   11.4010    6.6340   -1.9580 O   0  0  0  0  0  0  0  0  0  0  0  0
   12.8280    8.3080   -1.7270 O   0  0  0  0  0  0  0  0  0  0  0  0
   11.1270    7.4610   -5.7240 C   0  0  0  0  0  0  0  0  0  0  0  0
   10.5490    6.3150   -5.2120 F   0  0  0  0  0  0  0  0  0  0  0  0
    5.9011    3.6461  -10.6241 H   0  0  0  0  0  0  0  0  0  0  0  0
    5.0799    4.0118  -12.1792 H   0  0  0  0  0  0  0  0  0  0  0  0
    6.6877    3.2109  -12.1792 H   0  0  0  0  0  0  0  0  0  0  0  0
    6.1226    5.9288  -11.0462 H   0  0  0  0  0  0  0  0  0  0  0  0
    8.2610    5.2937  -14.2042 H   0  0  0  0  0  0  0  0  0  0  0  0
    6.6653    4.3992  -14.2983 H   0  0  0  0  0  0  0  0  0  0  0  0
    7.6927    6.1443  -15.8023 H   0  0  0  0  0  0  0  0  0  0  0  0
    6.0575    5.5178  -15.7084 H   0  0  0  0  0  0  0  0  0  0  0  0
    7.1134    8.0964  -14.6076 H   0  0  0  0  0  0  0  0  0  0  0  0
    7.0103    7.7440  -12.6911 H   0  0  0  0  0  0  0  0  0  0  0  0
    5.3489    7.1381  -12.8497 H   0  0  0  0  0  0  0  0  0  0  0  0
    8.3660    5.1100   -9.1800 H   0  0  0  0  0  0  0  0  0  0  0  0
    8.9030    9.3600   -9.9220 H   0  0  0  0  0  0  0  0  0  0  0  0
   10.1453    6.0112   -7.5384 H   0  0  0  0  0  0  0  0  0  0  0  0
   11.3896    6.6065   -8.7467 H   0  0  0  0  0  0  0  0  0  0  0  0
   11.6867    9.3662   -8.5178 H   0  0  0  0  0  0  0  0  0  0  0  0
   12.5107   10.9729   -6.9050 H   0  0  0  0  0  0  0  0  0  0  0  0
   12.5834   10.3470   -4.4683 H   0  0  0  0  0  0  0  0  0  0  0  0
   12.1360    6.9190   -3.9110 H   0  0  0  0  0  0  0  0  0  0  0  0
  1  2  1  0
  2  3  1  0
  3  4  1  0
  4  5  1  0
  5  6  1  0
  6  7  1  0
  6  8  1  0
  2  9  1  0
  9 10  2  0
  9 11  1  1
  9 12  1  0
 13 12  1  6
 13 14  2  0
 13 15  1  0
 13 16  1  0
 16 17  1  0
 17 18  1  0
 18 19  2  0
 19 20  1  0
 20 21  2  0
 21 22  1  0
 22 23  1  0
 23 24  1  0
 24 25  2  0
 24 26  1  0
 22 27  2  0
 27 28  1  0
  8  3  1  0
 27 18  1  0
  1 29  1  0
  1 30  1  0
  1 31  1  0
  2 32  1  1
  4 33  1  0
  4 34  1  0
  5 35  1  0
  5 36  1  0
  6 37  1  1
  8 38  1  0
  8 39  1  0
 11 40  1  0
 15 41  1  0
 17 42  1  0
 17 43  1  0
 19 44  1  0
 20 45  1  0
 21 46  1  0
 23 47  1  0
M  CHG  1  26  -1
M  END
>  <docking_score>  (37) 
-8.92

>  <plif_similarity>  (37) 
0.286

$$$$
DiffSBDD_63
     RDKit          3D

 47 48  0  0  0  0  0  0  0  0999 V2000
    7.4530    1.9020  -13.2950 C   0  0  0  0  0  0  0  0  0  0  0  0
    7.8540    3.2090  -13.4360 C   0  0  0  0  0  0  0  0  0  0  0  0
    8.5300    3.8480  -12.4620 N   0  0  0  0  0  0  0  0  0  0  0  0
    8.8810    4.7760  -11.6390 C   0  0  0  0  0  0  0  0  0  0  0  0
    8.0510    4.8470  -10.2900 C   0  0  0  0  0  0  0  0  0  0  0  0
    8.7050    4.8290   -8.9720 C   0  0  0  0  0  0  0  0  0  0  0  0
    8.8890    6.2400   -8.6060 O   0  0  0  0  0  0  0  0  0  0  0  0
    9.8260    6.8840   -7.9420 C   0  0  0  0  0  0  0  0  0  0  0  0
   10.0360    6.8920   -6.4690 N   0  0  0  0  0  0  0  0  0  0  0  0
   11.1880    7.4500   -6.2700 C   0  0  1  0  0  0  0  0  0  0  0  0
   11.5420    7.6580   -4.8840 C   0  0  0  0  0  0  0  0  0  0  0  0
   11.6170    6.6240   -4.0000 C   0  0  0  0  0  0  0  0  0  0  0  0
   12.0730    6.7790   -2.6710 C   0  0  0  0  0  0  0  0  0  0  0  0
   12.4930    8.0990   -2.3150 C   0  0  0  0  0  0  0  0  0  0  0  0
   13.0290    8.2890   -1.1120 F   0  0  0  0  0  0  0  0  0  0  0  0
   12.3710    9.2350   -3.1800 C   0  0  0  0  0  0  0  0  0  0  0  0
   11.8660    8.9560   -4.4530 C   0  0  0  0  0  0  0  0  0  0  0  0
   11.6420    9.9480   -5.2860 F   0  0  0  0  0  0  0  0  0  0  0  0
   12.0070    7.8480   -7.6980 S   0  0  0  0  0  0  0  0  0  0  0  0
   10.7600    7.4430   -8.7280 C   0  0  1  0  0  0  0  0  0  0  0  0
   10.6950    7.7650  -10.1510 C   0  0  0  0  0  0  0  0  0  0  0  0
    7.9260    4.2010  -14.6930 C   0  0  0  0  0  0  0  0  0  0  0  0
    8.8530    4.1420  -15.3890 O   0  0  0  0  0  0  0  0  0  0  0  0
    6.7950    4.9400  -15.0400 N   0  0  0  0  0  0  0  0  0  0  0  0
    6.7100    5.9620  -15.9320 C   0  0  0  0  0  0  0  0  0  0  0  0
    5.9200    7.3520  -15.4570 S   0  0  0  0  0  0  0  0  0  0  0  0
    6.9021    1.4050  -14.1071 H   0  0  0  0  0  0  0  0  0  0  0  0
    7.6829    1.3529  -12.3700 H   0  0  0  0  0  0  0  0  0  0  0  0
    9.2100    3.1170  -12.2070 H   0  0  0  0  0  0  0  0  0  0  0  0
    9.9374    4.6148  -11.3780 H   0  0  0  0  0  0  0  0  0  0  0  0
    8.6907    5.7264  -12.1591 H   0  0  0  0  0  0  0  0  0  0  0  0
    7.4712    5.7807  -10.3336 H   0  0  0  0  0  0  0  0  0  0  0  0
    7.5160    3.8859  -10.2963 H   0  0  0  0  0  0  0  0  0  0  0  0
    8.0679    4.3202   -8.2336 H   0  0  0  0  0  0  0  0  0  0  0  0
    9.6613    4.2861   -8.9983 H   0  0  0  0  0  0  0  0  0  0  0  0
   10.7125    8.4415   -6.2973 H   0  0  0  0  0  0  0  0  0  0  0  0
   11.3086    5.6229   -4.3358 H   0  0  0  0  0  0  0  0  0  0  0  0
   12.1028    5.9412   -1.9589 H   0  0  0  0  0  0  0  0  0  0  0  0
   12.6536   10.2505   -2.8656 H   0  0  0  0  0  0  0  0  0  0  0  0
   10.2557    8.3913   -8.4904 H   0  0  0  0  0  0  0  0  0  0  0  0
   10.4787    8.8364  -10.2750 H   0  0  0  0  0  0  0  0  0  0  0  0
   11.6590    7.5283  -10.6249 H   0  0  0  0  0  0  0  0  0  0  0  0
    9.8983    7.1729  -10.6249 H   0  0  0  0  0  0  0  0  0  0  0  0
    5.9200    4.6810  -14.5630 H   0  0  0  0  0  0  0  0  0  0  0  0
    7.7376    6.2461  -16.2029 H   0  0  0  0  0  0  0  0  0  0  0  0
    6.0938    5.5618  -16.7506 H   0  0  0  0  0  0  0  0  0  0  0  0
    4.7050    7.4250  -16.0850 H   0  0  0  0  0  0  0  0  0  0  0  0
  1  2  2  0
  2  3  1  0
  3  4  1  0
  4  5  1  0
  5  6  1  0
  6  7  1  0
  7  8  1  0
  8  9  2  0
  9 10  1  0
 10 11  1  0
 11 12  1  0
 12 13  2  0
 13 14  1  0
 14 15  1  0
 14 16  2  0
 16 17  1  0
 17 18  1  0
 10 19  1  0
 19 20  1  0
 20 21  1  0
  2 22  1  0
 22 23  2  0
 22 24  1  0
 24 25  1  0
 25 26  1  0
 20  8  1  0
 17 11  2  0
  1 27  1  0
  1 28  1  0
  3 29  1  0
  4 30  1  0
  4 31  1  0
  5 32  1  0
  5 33  1  0
  6 34  1  0
  6 35  1  0
 10 36  1  6
 12 37  1  0
 13 38  1  0
 16 39  1  0
 20 40  1  6
 21 41  1  0
 21 42  1  0
 21 43  1  0
 24 44  1  0
 25 45  1  0
 25 46  1  0
 26 47  1  0
M  END
>  <docking_score>  (38) 
-8.583

>  <plif_similarity>  (38) 
0.571

$$$$
DiffSBDD_64
     RDKit          3D

 77 80  0  0  0  0  0  0  0  0999 V2000
    6.7180    6.2340  -14.9310 C   0  0  0  0  0  0  0  0  0  0  0  0
    7.8830    5.1620  -14.7220 C   0  0  2  0  0  0  0  0  0  0  0  0
    8.7400    5.0840  -15.9400 C   0  0  0  0  0  0  0  0  0  0  0  0
    8.3210    3.7500  -16.6380 C   0  0  2  0  0  0  0  0  0  0  0  0
    7.0430    4.2240  -17.4100 C   0  0  0  0  0  0  0  0  0  0  0  0
    8.0590    2.8100  -15.4400 C   0  0  2  0  0  0  0  0  0  0  0  0
    7.2010    1.5890  -15.6980 C   0  0  0  0  0  0  0  0  0  0  0  0
    7.4740    3.8310  -14.4910 N   0  0  1  0  0  0  0  0  0  0  0  0
    6.4350    3.3770  -13.5010 C   0  0  0  0  0  0  0  0  0  0  0  0
    6.7280    3.9180  -12.1590 C   0  0  2  0  0  0  0  0  0  0  0  0
    5.7600    4.7300  -11.5290 C   0  0  0  0  0  0  0  0  0  0  0  0
    8.3430    4.3110  -11.5980 S   0  0  0  0  0  0  0  0  0  0  0  0
    8.2900    5.6200  -10.5190 C   0  0  1  0  0  0  0  0  0  0  0  0
    9.0000    5.2650   -9.3190 C   0  0  0  0  0  0  0  0  0  0  0  0
    9.3530    6.4940   -8.2820 C   0  0  0  0  0  0  0  0  0  0  0  0
   10.2210    7.4470   -8.9590 N   0  0  1  0  0  0  0  0  0  0  0  0
   11.2230    7.7050   -7.7880 C   0  0  2  0  0  0  0  0  0  0  0  0
   10.7750    7.0320   -6.6030 C   0  0  0  0  0  0  0  0  0  0  0  0
   11.4540    6.7180   -5.2810 C   0  0  0  0  0  0  0  0  0  0  0  0
   11.9790    7.7020   -4.6950 C   0  0  2  0  0  0  0  0  0  0  0  0
   12.1810    7.6640   -3.1690 C   0  0  0  0  0  0  0  0  0  0  0  0
   11.8700    9.0930   -2.6650 C   0  0  0  0  0  0  0  0  0  0  0  0
   11.6340   10.0040   -3.8510 C   0  0  0  0  0  0  0  0  0  0  0  0
   12.1700    9.2120   -5.0940 C   0  0  1  0  0  0  0  0  0  0  0  0
   13.6390    9.4770   -5.1900 O   0  0  0  0  0  0  0  0  0  0  0  0
   11.6880    9.8240   -6.4660 C   0  0  0  0  0  0  0  0  0  0  0  0
   11.4550    9.2410   -7.7930 C   0  0  0  0  0  0  0  0  0  0  0  0
   10.2730    6.9110  -10.6240 C   0  0  0  0  0  0  0  0  0  0  0  0
    8.8530    6.9100  -11.0670 C   0  0  0  0  0  0  0  0  0  0  0  0
    6.3506    6.5720  -13.9508 H   0  0  0  0  0  0  0  0  0  0  0  0
    7.1086    7.0951  -15.4931 H   0  0  0  0  0  0  0  0  0  0  0  0
    5.8923    5.7733  -15.4931 H   0  0  0  0  0  0  0  0  0  0  0  0
    8.3937    5.5341  -13.8216 H   0  0  0  0  0  0  0  0  0  0  0  0
    8.5527    5.9428  -16.6013 H   0  0  0  0  0  0  0  0  0  0  0  0
    9.8122    5.1057  -15.6954 H   0  0  0  0  0  0  0  0  0  0  0  0
    9.0010    3.2306  -17.3293 H   0  0  0  0  0  0  0  0  0  0  0  0
    6.2647    4.5127  -16.6883 H   0  0  0  0  0  0  0  0  0  0  0  0
    7.2958    5.0882  -18.0419 H   0  0  0  0  0  0  0  0  0  0  0  0
    6.6711    3.4040  -18.0419 H   0  0  0  0  0  0  0  0  0  0  0  0
    8.9467    2.2693  -15.0800 H   0  0  0  0  0  0  0  0  0  0  0  0
    6.8917    1.1488  -14.7385 H   0  0  0  0  0  0  0  0  0  0  0  0
    6.3092    1.8820  -16.2714 H   0  0  0  0  0  0  0  0  0  0  0  0
    7.7789    0.8493  -16.2714 H   0  0  0  0  0  0  0  0  0  0  0  0
    6.7320    4.0400  -15.1740 H   0  0  0  0  0  0  0  0  0  0  0  0
    5.4458    3.7316  -13.8262 H   0  0  0  0  0  0  0  0  0  0  0  0
    6.4467    2.2782  -13.4519 H   0  0  0  0  0  0  0  0  0  0  0  0
    6.6401    2.8769  -11.8149 H   0  0  0  0  0  0  0  0  0  0  0  0
    5.8632    4.6435  -10.4373 H   0  0  0  0  0  0  0  0  0  0  0  0
    5.9085    5.7777  -11.8294 H   0  0  0  0  0  0  0  0  0  0  0  0
    4.7541    4.4015  -11.8294 H   0  0  0  0  0  0  0  0  0  0  0  0
    7.2251    5.8145  -10.3238 H   0  0  0  0  0  0  0  0  0  0  0  0
    8.3874    4.5327   -8.7727 H   0  0  0  0  0  0  0  0  0  0  0  0
    9.9739    4.8835   -9.6597 H   0  0  0  0  0  0  0  0  0  0  0  0
    8.4238    6.9953   -7.9734 H   0  0  0  0  0  0  0  0  0  0  0  0
    9.8599    6.0958   -7.3906 H   0  0  0  0  0  0  0  0  0  0  0  0
   10.1300    8.4210   -9.2810 H   0  0  0  0  0  0  0  0  0  0  0  0
   12.2260    7.2628   -7.8796 H   0  0  0  0  0  0  0  0  0  0  0  0
    9.8860    7.6065   -6.3035 H   0  0  0  0  0  0  0  0  0  0  0  0
   10.8384    6.0136   -7.0138 H   0  0  0  0  0  0  0  0  0  0  0  0
   10.7003    6.2846   -4.6071 H   0  0  0  0  0  0  0  0  0  0  0  0
   12.2802    6.0324   -5.5205 H   0  0  0  0  0  0  0  0  0  0  0  0
   12.4900    7.2226   -5.5430 H   0  0  0  0  0  0  0  0  0  0  0  0
   11.4936    6.9382   -2.7099 H   0  0  0  0  0  0  0  0  0  0  0  0
   13.2032    7.3557   -2.9043 H   0  0  0  0  0  0  0  0  0  0  0  0
   10.9695    9.0717   -2.0337 H   0  0  0  0  0  0  0  0  0  0  0  0
   12.7203    9.4684   -2.0767 H   0  0  0  0  0  0  0  0  0  0  0  0
   10.5612   10.2189   -3.9644 H   0  0  0  0  0  0  0  0  0  0  0  0
   12.1416   10.9725   -3.7317 H   0  0  0  0  0  0  0  0  0  0  0  0
   13.9800    9.1350   -6.0540 H   0  0  0  0  0  0  0  0  0  0  0  0
   10.7183   10.2784   -6.2146 H   0  0  0  0  0  0  0  0  0  0  0  0
   12.6432   10.3076   -6.7185 H   0  0  0  0  0  0  0  0  0  0  0  0
   10.5666    9.7216   -8.2286 H   0  0  0  0  0  0  0  0  0  0  0  0
   12.3693    9.4182   -8.3784 H   0  0  0  0  0  0  0  0  0  0  0  0
   10.8693    7.6039  -11.2358 H   0  0  0  0  0  0  0  0  0  0  0  0
   10.7410    5.9209  -10.7272 H   0  0  0  0  0  0  0  0  0  0  0  0
    8.3155    7.7761  -10.6535 H   0  0  0  0  0  0  0  0  0  0  0  0
    8.7546    6.9796  -12.1604 H   0  0  0  0  0  0  0  0  0  0  0  0
  1  2  1  0
  2  3  1  0
  3  4  1  0
  4  5  1  0
  4  6  1  0
  6  7  1  0
  6  8  1  0
  8  9  1  0
  9 10  1  0
 10 11  1  0
 10 12  1  0
 12 13  1  0
 13 14  1  0
 14 15  1  0
 15 16  1  0
 16 17  1  0
 17 18  1  0
 18 19  1  0
 19 20  1  0
 20 21  1  0
 21 22  1  0
 22 23  1  0
 23 24  1  0
 24 25  1  6
 24 26  1  0
 26 27  1  0
 16 28  1  0
 28 29  1  0
  8  2  1  0
 29 13  1  0
 27 17  1  0
 24 20  1  0
  1 30  1  0
  1 31  1  0
  1 32  1  0
  2 33  1  1
  3 34  1  0
  3 35  1  0
  4 36  1  6
  5 37  1  0
  5 38  1  0
  5 39  1  0
  6 40  1  1
  7 41  1  0
  7 42  1  0
  7 43  1  0
  8 44  1  1
  9 45  1  0
  9 46  1  0
 10 47  1  1
 11 48  1  0
 11 49  1  0
 11 50  1  0
 13 51  1  1
 14 52  1  0
 14 53  1  0
 15 54  1  0
 15 55  1  0
 16 56  1  6
 17 57  1  6
 18 58  1  0
 18 59  1  0
 19 60  1  0
 19 61  1  0
 20 62  1  6
 21 63  1  0
 21 64  1  0
 22 65  1  0
 22 66  1  0
 23 67  1  0
 23 68  1  0
 25 69  1  0
 26 70  1  0
 26 71  1  0
 27 72  1  0
 27 73  1  0
 28 74  1  0
 28 75  1  0
 29 76  1  0
 29 77  1  0
M  CHG  2   8   1  16   1
M  END
>  <docking_score>  (39) 
-9.504

>  <plif_similarity>  (39) 
0.286

$$$$
DiffSBDD_66
     RDKit          3D

 37 39  0  0  0  0  0  0  0  0999 V2000
    8.3110    5.1300   -7.9780 O   0  0  0  0  0  0  0  0  0  0  0  0
    9.4720    5.9750   -8.0260 C   0  0  1  0  0  0  0  0  0  0  0  0
    9.3250    6.2560   -9.4060 N   0  0  0  0  0  0  0  0  0  0  0  0
    9.1070    5.5200  -10.6360 N   0  0  0  0  0  0  0  0  0  0  0  0
    8.7020    6.1590  -11.9070 C   0  0  1  0  0  0  0  0  0  0  0  0
    9.6630    5.8780  -12.9140 O   0  0  0  0  0  0  0  0  0  0  0  0
    8.0050    5.2120  -11.0150 C   0  0  2  0  0  0  0  0  0  0  0  0
    6.7380    5.2470  -10.6650 O   0  0  0  0  0  0  0  0  0  0  0  0
    9.7370    7.2850   -7.2970 C   0  0  2  0  0  0  0  0  0  0  0  0
   10.8420    7.9880   -8.0590 C   0  0  0  0  0  0  0  0  0  0  0  0
   11.5670    8.9950   -7.1930 C   0  0  0  0  0  0  0  0  0  0  0  0
   11.8740    8.7350   -5.8480 C   0  0  0  0  0  0  0  0  0  0  0  0
   11.2840    7.7170   -5.2050 C   0  0  0  0  0  0  0  0  0  0  0  0
   10.1560    6.8060   -5.8380 C   0  0  0  0  0  0  0  0  0  0  0  0
   11.9390    7.9360   -3.8530 C   0  0  2  0  0  0  0  0  0  0  0  0
   12.0210    7.2070   -2.5260 C   0  0  0  0  0  0  0  0  0  0  0  0
   12.9690    6.1360   -2.3890 F   0  0  0  0  0  0  0  0  0  0  0  0
   10.8840    6.6020   -2.2820 F   0  0  0  0  0  0  0  0  0  0  0  0
   12.3450    8.1120   -1.4840 F   0  0  0  0  0  0  0  0  0  0  0  0
   12.7520    9.1140   -3.9980 C   0  0  0  0  0  0  0  0  0  0  0  0
   12.5990    9.5410   -5.1160 N   0  0  0  0  0  0  0  0  0  0  0  0
    8.2640    4.6860   -7.0940 H   0  0  0  0  0  0  0  0  0  0  0  0
   10.2919    5.4518   -7.5122 H   0  0  0  0  0  0  0  0  0  0  0  0
   10.1940    6.7680   -9.6140 H   0  0  0  0  0  0  0  0  0  0  0  0
    8.3634    7.0591  -12.4411 H   0  0  0  0  0  0  0  0  0  0  0  0
   10.1380    5.0390  -12.6920 H   0  0  0  0  0  0  0  0  0  0  0  0
    7.5472    4.2121  -10.9893 H   0  0  0  0  0  0  0  0  0  0  0  0
    6.5350    6.1240  -10.2530 H   0  0  0  0  0  0  0  0  0  0  0  0
    8.9013    7.9972   -7.2305 H   0  0  0  0  0  0  0  0  0  0  0  0
   11.5639    7.2374   -8.4132 H   0  0  0  0  0  0  0  0  0  0  0  0
   10.3869    8.5268   -8.9031 H   0  0  0  0  0  0  0  0  0  0  0  0
   12.5250    9.1986   -7.6937 H   0  0  0  0  0  0  0  0  0  0  0  0
   10.8257    9.8033   -7.1087 H   0  0  0  0  0  0  0  0  0  0  0  0
   10.5290    5.7730   -5.8988 H   0  0  0  0  0  0  0  0  0  0  0  0
    9.2672    6.8763   -5.1937 H   0  0  0  0  0  0  0  0  0  0  0  0
   12.8360    7.4030   -4.2012 H   0  0  0  0  0  0  0  0  0  0  0  0
   13.4006    9.5498   -3.2238 H   0  0  0  0  0  0  0  0  0  0  0  0
  1  2  1  0
  2  3  1  0
  3  4  1  0
  4  5  1  0
  5  6  1  0
  5  7  1  0
  7  8  1  0
  2  9  1  0
  9 10  1  0
 10 11  1  0
 11 12  1  0
 12 13  2  0
 13 14  1  0
 13 15  1  0
 15 16  1  0
 16 17  1  0
 16 18  1  0
 16 19  1  0
 15 20  1  0
 20 21  2  0
  7  4  1  0
 14  9  1  0
 21 12  1  0
  1 22  1  0
  2 23  1  6
  3 24  1  0
  5 25  1  1
  6 26  1  0
  7 27  1  6
  8 28  1  0
  9 29  1  1
 10 30  1  0
 10 31  1  0
 11 32  1  0
 11 33  1  0
 14 34  1  0
 14 35  1  0
 15 36  1  1
 20 37  1  0
M  END
>  <docking_score>  (40) 
-8.662

>  <plif_similarity>  (40) 
0.286

$$$$
DiffSBDD_68
     RDKit          3D

 43 45  0  0  0  0  0  0  0  0999 V2000
   12.7790    7.9210   -1.1700 F   0  0  0  0  0  0  0  0  0  0  0  0
   12.6690    8.0670   -2.3990 C   0  0  2  0  0  0  0  0  0  0  0  0
   12.6350    9.1490   -3.1680 C   0  0  0  0  0  0  0  0  0  0  0  0
   12.5820    9.6960   -4.3110 C   0  0  0  0  0  0  0  0  0  0  0  0
   11.9630    8.9770   -5.3460 C   0  0  0  0  0  0  0  0  0  0  0  0
   11.9010    9.5590   -6.6340 C   0  0  0  0  0  0  0  0  0  0  0  0
   11.3230    8.8840   -7.6460 C   0  0  0  0  0  0  0  0  0  0  0  0
   10.7570    7.6040   -7.4070 C   0  0  0  0  0  0  0  0  0  0  0  0
   10.2120    6.7350   -8.5370 N   0  0  0  0  0  0  0  0  0  0  0  0
   10.5560    7.3030   -9.7950 C   0  0  0  0  0  0  0  0  0  0  0  0
    9.3630    7.1900  -10.7870 C   0  0  0  0  0  0  0  0  0  0  0  0
    8.8240    5.7760  -10.8390 C   0  0  0  0  0  0  0  0  0  0  0  0
    7.8090    5.4940   -9.8550 N   0  0  0  0  0  0  0  0  0  0  0  0
    8.3650    5.0170   -8.5800 C   0  0  0  0  0  0  0  0  0  0  0  0
    9.8380    5.3750   -8.3940 C   0  0  0  0  0  0  0  0  0  0  0  0
   10.8710    7.0120   -6.2290 C   0  0  0  0  0  0  0  0  0  0  0  0
   11.5450    7.7220   -5.1330 C   0  0  0  0  0  0  0  0  0  0  0  0
   11.5500    6.9850   -4.0640 C   0  0  0  0  0  0  0  0  0  0  0  0
   11.9950    6.5260   -3.0610 C   0  0  0  0  0  0  0  0  0  0  0  0
   13.6448    8.5556   -2.5367 H   0  0  0  0  0  0  0  0  0  0  0  0
   11.7584    9.6372   -2.7172 H   0  0  0  0  0  0  0  0  0  0  0  0
   13.7257    9.0682   -3.2857 H   0  0  0  0  0  0  0  0  0  0  0  0
   12.0370   10.6447   -4.1972 H   0  0  0  0  0  0  0  0  0  0  0  0
   13.6319    9.7910   -4.6250 H   0  0  0  0  0  0  0  0  0  0  0  0
   12.3235   10.5596   -6.8083 H   0  0  0  0  0  0  0  0  0  0  0  0
   11.2895    9.3228   -8.6541 H   0  0  0  0  0  0  0  0  0  0  0  0
   10.8120    8.3637   -9.6557 H   0  0  0  0  0  0  0  0  0  0  0  0
   11.4165    6.7570  -10.2090 H   0  0  0  0  0  0  0  0  0  0  0  0
    8.5603    7.8679  -10.4611 H   0  0  0  0  0  0  0  0  0  0  0  0
    9.7189    7.4635  -11.7913 H   0  0  0  0  0  0  0  0  0  0  0  0
    8.3932    5.6075  -11.8370 H   0  0  0  0  0  0  0  0  0  0  0  0
    9.6697    5.1071  -10.6214 H   0  0  0  0  0  0  0  0  0  0  0  0
    7.2740    6.3550   -9.6790 H   0  0  0  0  0  0  0  0  0  0  0  0
    7.2140    4.7420  -10.2320 H   0  0  0  0  0  0  0  0  0  0  0  0
    7.7894    5.4669   -7.7576 H   0  0  0  0  0  0  0  0  0  0  0  0
    8.2934    3.9193   -8.5827 H   0  0  0  0  0  0  0  0  0  0  0  0
   10.1263    5.0606   -7.3801 H   0  0  0  0  0  0  0  0  0  0  0  0
   10.3541    4.8584   -9.2166 H   0  0  0  0  0  0  0  0  0  0  0  0
   10.4664    6.0012   -6.0722 H   0  0  0  0  0  0  0  0  0  0  0  0
   10.6228    7.3830   -3.6260 H   0  0  0  0  0  0  0  0  0  0  0  0
   12.1742    6.2671   -4.6163 H   0  0  0  0  0  0  0  0  0  0  0  0
   11.2174    6.0939   -2.4140 H   0  0  0  0  0  0  0  0  0  0  0  0
   12.6977    5.6869   -3.1713 H   0  0  0  0  0  0  0  0  0  0  0  0
  1  2  1  0
  2  3  1  0
  3  4  1  0
  4  5  1  0
  5  6  1  0
  6  7  2  0
  7  8  1  0
  8  9  1  0
  9 10  1  0
 10 11  1  0
 11 12  1  0
 12 13  1  0
 13 14  1  0
 14 15  1  0
  8 16  2  0
 16 17  1  0
 17 18  1  0
 18 19  1  0
 19  2  1  0
 17  5  2  0
 15  9  1  0
  2 20  1  6
  3 21  1  0
  3 22  1  0
  4 23  1  0
  4 24  1  0
  6 25  1  0
  7 26  1  0
 10 27  1  0
 10 28  1  0
 11 29  1  0
 11 30  1  0
 12 31  1  0
 12 32  1  0
 13 33  1  0
 13 34  1  0
 14 35  1  0
 14 36  1  0
 15 37  1  0
 15 38  1  0
 16 39  1  0
 18 40  1  0
 18 41  1  0
 19 42  1  0
 19 43  1  0
M  CHG  1  13   1
M  END
>  <docking_score>  (41) 
-10.317

>  <plif_similarity>  (41) 
0.429

$$$$
DiffSBDD_6
     RDKit          3D

 72 73  0  0  0  0  0  0  0  0999 V2000
   11.9950    6.6360   -2.5610 C   0  0  0  0  0  0  0  0  0  0  0  0
   12.1150    7.6160   -3.5860 C   0  0  0  0  0  0  0  0  0  0  0  0
   11.4750    7.4800   -4.8730 C   0  0  1  0  0  0  0  0  0  0  0  0
   10.8900    6.6020   -5.4310 O   0  0  0  0  0  0  0  0  0  0  0  0
   10.7660    6.6570   -6.6560 C   0  0  1  0  0  0  0  0  0  0  0  0
    9.5610    6.2500   -7.1700 C   0  0  0  0  0  0  0  0  0  0  0  0
    9.8210    6.2180   -8.7520 C   0  0  0  0  0  0  0  0  0  0  0  0
    8.9240    5.3600   -8.9210 C   0  0  0  0  0  0  0  0  0  0  0  0
    8.8180    4.7190  -10.1260 C   0  0  0  0  0  0  0  0  0  0  0  0
    8.6070    4.6630  -11.1540 C   0  0  0  0  0  0  0  0  0  0  0  0
    8.2600    5.3500  -12.4530 C   0  0  2  0  0  0  0  0  0  0  0  0
    7.2880    6.4790  -12.2150 C   0  0  0  0  0  0  0  0  0  0  0  0
    6.7600    7.1330  -13.4690 C   0  0  2  0  0  0  0  0  0  0  0  0
    5.6820    7.9650  -12.9220 O   0  0  0  0  0  0  0  0  0  0  0  0
    6.7460    6.4990  -14.7030 C   0  0  1  0  0  0  0  0  0  0  0  0
    6.1730    6.9030  -16.0670 C   0  0  2  0  0  0  0  0  0  0  0  0
    4.6380    6.8740  -16.0890 C   0  0  0  0  0  0  0  0  0  0  0  0
    6.8130    6.2080  -17.1340 C   0  0  0  0  0  0  0  0  0  0  0  0
    6.5660    6.5960  -18.4970 O   0  0  0  0  0  0  0  0  0  0  0  0
    7.7210    6.1660  -19.3170 C   0  0  0  0  0  0  0  0  0  0  0  0
    7.6030    5.3620  -14.8640 C   0  0  0  0  0  0  0  0  0  0  0  0
    8.0520    4.5110  -13.5670 C   0  0  1  0  0  0  0  0  0  0  0  0
    8.3620    2.9210  -12.8600 O   0  0  0  0  0  0  0  0  0  0  0  0
    7.4420    2.2320  -13.5060 C   0  0  0  0  0  0  0  0  0  0  0  0
   10.9960    8.0410   -7.1340 C   0  0  0  0  0  0  0  0  0  0  0  0
   11.2550    8.9250   -5.6340 C   0  0  1  0  0  0  0  0  0  0  0  0
   11.1290    9.9870   -5.6020 F   0  0  0  0  0  0  0  0  0  0  0  0
   11.8090    9.9030   -4.2510 C   0  0  0  0  0  0  0  0  0  0  0  0
   10.7980   10.7780   -4.1880 O   0  0  0  0  0  0  0  0  0  0  0  0
   12.0549    7.1249   -1.5774 H   0  0  0  0  0  0  0  0  0  0  0  0
   11.0272    6.1220   -2.6567 H   0  0  0  0  0  0  0  0  0  0  0  0
   12.8102    5.9037   -2.6567 H   0  0  0  0  0  0  0  0  0  0  0  0
   11.7370    8.5550   -3.1555 H   0  0  0  0  0  0  0  0  0  0  0  0
   13.1782    7.5296   -3.8547 H   0  0  0  0  0  0  0  0  0  0  0  0
   12.1386    6.6138   -4.7335 H   0  0  0  0  0  0  0  0  0  0  0  0
   11.5192    5.9402   -7.0150 H   0  0  0  0  0  0  0  0  0  0  0  0
    9.2908    5.2516   -6.7956 H   0  0  0  0  0  0  0  0  0  0  0  0
    8.7287    6.9106   -6.8857 H   0  0  0  0  0  0  0  0  0  0  0  0
    9.6168    7.1757   -9.2531 H   0  0  0  0  0  0  0  0  0  0  0  0
   10.8353    6.0219   -9.1297 H   0  0  0  0  0  0  0  0  0  0  0  0
    9.0783    4.5825   -8.1584 H   0  0  0  0  0  0  0  0  0  0  0  0
    7.9945    5.9450   -8.8590 H   0  0  0  0  0  0  0  0  0  0  0  0
    9.8477    4.3348  -10.1723 H   0  0  0  0  0  0  0  0  0  0  0  0
    7.7374    4.6316   -9.9397 H   0  0  0  0  0  0  0  0  0  0  0  0
    9.5164    4.1380  -11.4817 H   0  0  0  0  0  0  0  0  0  0  0  0
    7.5348    4.6213  -10.9120 H   0  0  0  0  0  0  0  0  0  0  0  0
    9.1726    5.8399  -12.8233 H   0  0  0  0  0  0  0  0  0  0  0  0
    6.4322    6.0808  -11.6501 H   0  0  0  0  0  0  0  0  0  0  0  0
    7.8431    7.2565  -11.6697 H   0  0  0  0  0  0  0  0  0  0  0  0
    7.4850    7.7264  -14.0454 H   0  0  0  0  0  0  0  0  0  0  0  0
    5.7360    7.9690  -11.9340 H   0  0  0  0  0  0  0  0  0  0  0  0
    5.7909    6.7967  -14.2456 H   0  0  0  0  0  0  0  0  0  0  0  0
    6.4164    7.9616  -16.2407 H   0  0  0  0  0  0  0  0  0  0  0  0
    4.2566    6.8668  -15.0573 H   0  0  0  0  0  0  0  0  0  0  0  0
    4.2619    7.7652  -16.6127 H   0  0  0  0  0  0  0  0  0  0  0  0
    4.2958    5.9692  -16.6127 H   0  0  0  0  0  0  0  0  0  0  0  0
    7.8965    6.3015  -16.9688 H   0  0  0  0  0  0  0  0  0  0  0  0
    6.3771    5.1998  -17.0757 H   0  0  0  0  0  0  0  0  0  0  0  0
    8.5455    5.8591  -18.6567 H   0  0  0  0  0  0  0  0  0  0  0  0
    7.4245    5.3180  -19.9518 H   0  0  0  0  0  0  0  0  0  0  0  0
    8.0513    7.0014  -19.9518 H   0  0  0  0  0  0  0  0  0  0  0  0
    7.0855    4.6652  -15.5398 H   0  0  0  0  0  0  0  0  0  0  0  0
    8.5460    5.7997  -15.2233 H   0  0  0  0  0  0  0  0  0  0  0  0
    7.0024    4.4502  -13.2435 H   0  0  0  0  0  0  0  0  0  0  0  0
    6.7794    1.7358  -12.7816 H   0  0  0  0  0  0  0  0  0  0  0  0
    6.8511    2.9116  -14.1377 H   0  0  0  0  0  0  0  0  0  0  0  0
    7.9279    1.4738  -14.1377 H   0  0  0  0  0  0  0  0  0  0  0  0
   11.8812    8.0947   -7.7848 H   0  0  0  0  0  0  0  0  0  0  0  0
   10.1683    8.4386   -7.7397 H   0  0  0  0  0  0  0  0  0  0  0  0
   11.8934    9.3049   -3.3317 H   0  0  0  0  0  0  0  0  0  0  0  0
   12.8097   10.3468   -4.3590 H   0  0  0  0  0  0  0  0  0  0  0  0
   10.2880   10.6330   -3.3520 H   0  0  0  0  0  0  0  0  0  0  0  0
  1  2  1  0
  2  3  1  0
  3  4  1  0
  4  5  1  0
  5  6  1  0
  6  7  1  0
  7  8  1  0
  8  9  1  0
  9 10  1  0
 10 11  1  0
 11 12  1  0
 12 13  1  0
 13 14  1  0
 13 15  1  0
 15 16  1  0
 16 17  1  0
 16 18  1  0
 18 19  1  0
 19 20  1  0
 15 21  1  0
 21 22  1  0
 22 23  1  0
 23 24  1  0
  5 25  1  0
 25 26  1  0
 26 27  1  1
 26 28  1  0
 28 29  1  0
 26  3  1  0
 22 11  1  0
  1 30  1  0
  1 31  1  0
  1 32  1  0
  2 33  1  0
  2 34  1  0
  3 35  1  6
  5 36  1  6
  6 37  1  0
  6 38  1  0
  7 39  1  0
  7 40  1  0
  8 41  1  0
  8 42  1  0
  9 43  1  0
  9 44  1  0
 10 45  1  0
 10 46  1  0
 11 47  1  6
 12 48  1  0
 12 49  1  0
 13 50  1  6
 14 51  1  0
 15 52  1  1
 16 53  1  6
 17 54  1  0
 17 55  1  0
 17 56  1  0
 18 57  1  0
 18 58  1  0
 20 59  1  0
 20 60  1  0
 20 61  1  0
 21 62  1  0
 21 63  1  0
 22 64  1  6
 24 65  1  0
 24 66  1  0
 24 67  1  0
 25 68  1  0
 25 69  1  0
 28 70  1  0
 28 71  1  0
 29 72  1  0
M  END
>  <docking_score>  (42) 
-8.739

>  <plif_similarity>  (42) 
0.571

$$$$
DiffSBDD_70
     RDKit          3D

 73 77  0  0  0  0  0  0  0  0999 V2000
    5.6770    4.5040  -12.4830 C   0  0  0  0  0  0  0  0  0  0  0  0
    6.7940    4.2460  -13.1420 C   0  0  0  0  0  0  0  0  0  0  0  0
    7.9770    3.3320  -12.5270 C   0  0  0  0  0  0  0  0  0  0  0  0
    9.0960    4.1280  -11.7540 C   0  0  0  0  0  0  0  0  0  0  0  0
    8.7010    5.4670  -11.0880 C   0  0  1  0  0  0  0  0  0  0  0  0
    8.8440    5.4620   -9.4850 C   0  0  1  0  0  0  0  0  0  0  0  0
    8.2240    4.3140   -8.9290 C   0  0  0  0  0  0  0  0  0  0  0  0
    9.4560    6.7150   -9.2320 N   0  0  0  0  0  0  0  0  0  0  0  0
    9.5190    7.5310   -8.0810 C   0  0  0  0  0  0  0  0  0  0  0  0
    9.7440    6.5060   -7.0490 C   0  0  0  0  0  0  0  0  0  0  0  0
   11.1000    6.4380   -6.9250 O   0  0  0  0  0  0  0  0  0  0  0  0
   11.6010    7.7700   -6.5220 C   0  0  0  0  0  0  0  0  0  0  0  0
   11.7110    8.8880   -7.3410 N   0  0  0  0  0  0  0  0  0  0  0  0
   11.9070   10.1470   -6.7040 C   0  0  0  0  0  0  0  0  0  0  0  0
   12.2220   10.2190   -5.3850 N   0  0  0  0  0  0  0  0  0  0  0  0
   12.1820    9.1260   -4.5870 C   0  0  0  0  0  0  0  0  0  0  0  0
   12.5990    9.1520   -3.2370 C   0  0  0  0  0  0  0  0  0  0  0  0
   12.4330    7.9670   -2.4680 C   0  0  0  0  0  0  0  0  0  0  0  0
   13.0500    7.9900   -0.8490 Cl  0  0  0  0  0  0  0  0  0  0  0  0
   11.7760    6.8570   -2.9030 C   0  0  0  0  0  0  0  0  0  0  0  0
   11.4610    6.7180   -4.2540 C   0  0  0  0  0  0  0  0  0  0  0  0
   11.7400    7.8690   -5.0970 C   0  0  0  0  0  0  0  0  0  0  0  0
    9.9690    7.2210  -10.1790 C   0  0  0  0  0  0  0  0  0  0  0  0
   10.8130    8.0070  -10.1320 O   0  0  0  0  0  0  0  0  0  0  0  0
    9.5820    6.7060  -11.4260 C   0  0  2  0  0  0  0  0  0  0  0  0
    8.6440    7.8170  -12.0640 C   0  0  0  0  0  0  0  0  0  0  0  0
   10.9170    6.3270  -11.9730 O   0  0  0  0  0  0  0  0  0  0  0  0
   11.5250    6.9280  -12.9320 C   0  0  0  0  0  0  0  0  0  0  0  0
    7.1280    4.8470  -14.2450 C   0  0  1  0  0  0  0  0  0  0  0  0
    6.5290    6.2030  -14.8350 C   0  0  0  0  0  0  0  0  0  0  0  0
    8.1250    4.1940  -15.1610 C   0  0  1  0  0  0  0  0  0  0  0  0
    9.1040    5.0930  -16.0410 C   0  0  0  0  0  0  0  0  0  0  0  0
    8.8470    3.7910  -16.3700 C   0  0  2  0  0  0  0  0  0  0  0  0
    7.4460    3.4650  -16.1760 N   0  0  0  0  0  0  0  0  0  0  0  0
    7.1550    2.0440  -16.3940 C   0  0  0  0  0  0  0  0  0  0  0  0
    7.2230    1.0490  -15.4300 C   0  0  0  0  0  0  0  0  0  0  0  0
    4.8996    5.1318  -12.9429 H   0  0  0  0  0  0  0  0  0  0  0  0
    5.5252    4.0908  -11.4749 H   0  0  0  0  0  0  0  0  0  0  0  0
    7.5250    2.6124  -11.8285 H   0  0  0  0  0  0  0  0  0  0  0  0
    8.4743    2.8534  -13.3835 H   0  0  0  0  0  0  0  0  0  0  0  0
    9.4795    3.4684  -10.9617 H   0  0  0  0  0  0  0  0  0  0  0  0
    9.8219    4.4094  -12.5311 H   0  0  0  0  0  0  0  0  0  0  0  0
    7.6766    5.5494  -11.4803 H   0  0  0  0  0  0  0  0  0  0  0  0
    7.8971    6.0151   -9.3988 H   0  0  0  0  0  0  0  0  0  0  0  0
    8.2569    4.3749   -7.8312 H   0  0  0  0  0  0  0  0  0  0  0  0
    7.1768    4.2651   -9.2623 H   0  0  0  0  0  0  0  0  0  0  0  0
    8.7574    3.4115   -9.2623 H   0  0  0  0  0  0  0  0  0  0  0  0
   10.3529    8.2464   -8.1336 H   0  0  0  0  0  0  0  0  0  0  0  0
    8.6364    8.1665   -7.9163 H   0  0  0  0  0  0  0  0  0  0  0  0
    9.2810    6.8047   -6.0969 H   0  0  0  0  0  0  0  0  0  0  0  0
    9.2996    5.5366   -7.3186 H   0  0  0  0  0  0  0  0  0  0  0  0
   11.8018   11.0731   -7.2882 H   0  0  0  0  0  0  0  0  0  0  0  0
   13.0376   10.0590   -2.7954 H   0  0  0  0  0  0  0  0  0  0  0  0
   11.4936    6.0697   -2.1886 H   0  0  0  0  0  0  0  0  0  0  0  0
   11.0268    5.7917   -4.6583 H   0  0  0  0  0  0  0  0  0  0  0  0
    8.1586    8.3920  -11.2616 H   0  0  0  0  0  0  0  0  0  0  0  0
    9.2481    8.4938  -12.6862 H   0  0  0  0  0  0  0  0  0  0  0  0
    7.8755    7.3350  -12.6862 H   0  0  0  0  0  0  0  0  0  0  0  0
   12.2491    7.6437  -12.5156 H   0  0  0  0  0  0  0  0  0  0  0  0
   12.0546    6.1887  -13.5508 H   0  0  0  0  0  0  0  0  0  0  0  0
   10.7918    7.4662  -13.5508 H   0  0  0  0  0  0  0  0  0  0  0  0
    6.3639    4.2726  -14.7893 H   0  0  0  0  0  0  0  0  0  0  0  0
    6.2364    6.8654  -14.0070 H   0  0  0  0  0  0  0  0  0  0  0  0
    7.2904    6.7021  -15.4524 H   0  0  0  0  0  0  0  0  0  0  0  0
    5.6473    5.9763  -15.4524 H   0  0  0  0  0  0  0  0  0  0  0  0
    8.7009    5.9098  -16.6578 H   0  0  0  0  0  0  0  0  0  0  0  0
   10.0070    5.6909  -15.8484 H   0  0  0  0  0  0  0  0  0  0  0  0
    9.5406    3.2434  -17.0251 H   0  0  0  0  0  0  0  0  0  0  0  0
    6.1218    2.0136  -16.7703 H   0  0  0  0  0  0  0  0  0  0  0  0
    8.0165    1.7653  -17.0185 H   0  0  0  0  0  0  0  0  0  0  0  0
    7.1918    1.5051  -14.4295 H   0  0  0  0  0  0  0  0  0  0  0  0
    6.3695    0.3652  -15.5480 H   0  0  0  0  0  0  0  0  0  0  0  0
    8.1616    0.4877  -15.5480 H   0  0  0  0  0  0  0  0  0  0  0  0
  1  2  2  0
  2  3  1  0
  3  4  1  0
  4  5  1  0
  5  6  1  0
  6  7  1  0
  6  8  1  0
  8  9  1  0
  9 10  1  0
 10 11  1  0
 11 12  1  0
 12 13  1  0
 13 14  2  0
 14 15  1  0
 15 16  2  0
 16 17  1  0
 17 18  2  0
 18 19  1  0
 18 20  1  0
 20 21  2  0
 21 22  1  0
  8 23  1  0
 23 24  2  0
 23 25  1  0
 25 26  1  0
 25 27  1  6
 27 28  1  0
  2 29  1  0
 29 30  1  0
 29 31  1  0
 31 32  1  0
 32 33  1  0
 33 34  1  0
 34 35  1  0
 35 36  1  0
 25  5  1  0
 33 31  1  0
 22 12  2  0
 31 34  1  1
 22 16  1  0
  1 37  1  0
  1 38  1  0
  3 39  1  0
  3 40  1  0
  4 41  1  0
  4 42  1  0
  5 43  1  1
  6 44  1  6
  7 45  1  0
  7 46  1  0
  7 47  1  0
  9 48  1  0
  9 49  1  0
 10 50  1  0
 10 51  1  0
 14 52  1  0
 17 53  1  0
 20 54  1  0
 21 55  1  0
 26 56  1  0
 26 57  1  0
 26 58  1  0
 28 59  1  0
 28 60  1  0
 28 61  1  0
 29 62  1  1
 30 63  1  0
 30 64  1  0
 30 65  1  0
 32 66  1  0
 32 67  1  0
 33 68  1  1
 35 69  1  0
 35 70  1  0
 36 71  1  0
 36 72  1  0
 36 73  1  0
M  END
>  <docking_score>  (43) 
-9.327

>  <plif_similarity>  (43) 
0.429

$$$$
DiffSBDD_72
     RDKit          3D

 47 49  0  0  0  0  0  0  0  0999 V2000
   12.2810    6.5700   -2.3950 C   0  0  0  0  0  0  0  0  0  0  0  0
   11.9270    7.4600   -3.6400 C   0  0  0  0  0  0  0  0  0  0  0  0
   11.3390    7.2570   -4.8000 N   0  0  0  0  0  0  0  0  0  0  0  0
   11.1800    8.4230   -5.7370 C   0  0  0  0  0  0  0  0  0  0  0  0
   10.4420    7.9930   -6.9880 C   0  0  1  0  0  0  0  0  0  0  0  0
   10.9950    8.7220   -8.2280 C   0  0  0  0  0  0  0  0  0  0  0  0
   11.7260    7.7850   -9.2070 C   0  0  0  0  0  0  0  0  0  0  0  0
   10.7280    7.4730  -10.2780 C   0  0  0  0  0  0  0  0  0  0  0  0
    9.4590    6.6250   -9.8510 C   0  0  1  0  0  0  0  0  0  0  0  0
    9.1600    5.8210  -11.0740 N   0  0  0  0  0  0  0  0  0  0  0  0
    9.9930    5.9760  -12.2490 O   0  0  0  0  0  0  0  0  0  0  0  0
    8.4110    4.5660  -11.0400 C   0  0  0  0  0  0  0  0  0  0  0  0
    7.5820    4.4540  -12.3370 C   0  0  1  0  0  0  0  0  0  0  0  0
    6.3820    3.5520  -12.2400 C   0  0  0  0  0  0  0  0  0  0  0  0
    5.3010    4.3270  -12.8200 C   0  0  0  0  0  0  0  0  0  0  0  0
    6.0190    5.4650  -13.4810 C   0  0  0  0  0  0  0  0  0  0  0  0
    7.0280    5.7080  -12.6470 O   0  0  0  0  0  0  0  0  0  0  0  0
    9.9250    5.8990   -8.4320 C   0  0  0  0  0  0  0  0  0  0  0  0
    9.6760    6.5820   -7.1040 C   0  0  0  0  0  0  0  0  0  0  0  0
   11.7600    9.5130   -5.2050 C   0  0  0  0  0  0  0  0  0  0  0  0
   12.4580    9.2060   -3.6920 S   0  0  0  0  0  0  0  0  0  0  0  0
   12.0598    7.1260   -1.4720 H   0  0  0  0  0  0  0  0  0  0  0  0
   11.6810    5.6484   -2.4206 H   0  0  0  0  0  0  0  0  0  0  0  0
   13.3501    6.3123   -2.4206 H   0  0  0  0  0  0  0  0  0  0  0  0
    9.4041    8.3284   -6.8455 H   0  0  0  0  0  0  0  0  0  0  0  0
   10.1557    9.1957   -8.7583 H   0  0  0  0  0  0  0  0  0  0  0  0
   11.7289    9.4603   -7.8727 H   0  0  0  0  0  0  0  0  0  0  0  0
   12.6062    8.2867   -9.6354 H   0  0  0  0  0  0  0  0  0  0  0  0
   12.0890    6.8744   -8.7080 H   0  0  0  0  0  0  0  0  0  0  0  0
   10.3671    8.4293  -10.6846 H   0  0  0  0  0  0  0  0  0  0  0  0
   11.2678    6.8390  -10.9968 H   0  0  0  0  0  0  0  0  0  0  0  0
    8.5016    7.1034   -9.5971 H   0  0  0  0  0  0  0  0  0  0  0  0
    9.9660    5.1440  -12.7850 H   0  0  0  0  0  0  0  0  0  0  0  0
    9.1095    3.7190  -10.9720 H   0  0  0  0  0  0  0  0  0  0  0  0
    7.7449    4.5487  -10.1648 H   0  0  0  0  0  0  0  0  0  0  0  0
    8.2915    4.0583  -13.0786 H   0  0  0  0  0  0  0  0  0  0  0  0
    6.5450    2.6247  -12.8087 H   0  0  0  0  0  0  0  0  0  0  0  0
    6.1701    3.2454  -11.2050 H   0  0  0  0  0  0  0  0  0  0  0  0
    4.7393    3.7330  -13.5560 H   0  0  0  0  0  0  0  0  0  0  0  0
    4.5571    4.6555  -12.0792 H   0  0  0  0  0  0  0  0  0  0  0  0
    6.3892    5.1746  -14.4753 H   0  0  0  0  0  0  0  0  0  0  0  0
    5.3770    6.3418  -13.6515 H   0  0  0  0  0  0  0  0  0  0  0  0
    9.4086    4.9287   -8.3895 H   0  0  0  0  0  0  0  0  0  0  0  0
   11.0225    5.8916   -8.5056 H   0  0  0  0  0  0  0  0  0  0  0  0
    8.5955    6.7562   -6.9932 H   0  0  0  0  0  0  0  0  0  0  0  0
   10.0611    5.9245   -6.3107 H   0  0  0  0  0  0  0  0  0  0  0  0
   11.7793   10.4962   -5.6979 H   0  0  0  0  0  0  0  0  0  0  0  0
  1  2  1  0
  2  3  2  0
  3  4  1  0
  4  5  1  0
  5  6  1  0
  6  7  1  0
  7  8  1  0
  8  9  1  0
  9 10  1  0
 10 11  1  0
 10 12  1  0
 12 13  1  0
 13 14  1  0
 14 15  1  0
 15 16  1  0
 16 17  1  0
  9 18  1  0
 18 19  1  0
  4 20  2  0
 20 21  1  0
 21  2  1  0
 19  5  1  0
 17 13  1  0
  1 22  1  0
  1 23  1  0
  1 24  1  0
  5 25  1  1
  6 26  1  0
  6 27  1  0
  7 28  1  0
  7 29  1  0
  8 30  1  0
  8 31  1  0
  9 32  1  1
 11 33  1  0
 12 34  1  0
 12 35  1  0
 13 36  1  6
 14 37  1  0
 14 38  1  0
 15 39  1  0
 15 40  1  0
 16 41  1  0
 16 42  1  0
 18 43  1  0
 18 44  1  0
 19 45  1  0
 19 46  1  0
 20 47  1  0
M  END
>  <docking_score>  (44) 
-8.554

>  <plif_similarity>  (44) 
0.286

$$$$
DiffSBDD_73
     RDKit          3D

 73 79  0  0  0  0  0  0  0  0999 V2000
    5.5200    4.4830  -19.4710 C   0  0  0  0  0  0  0  0  0  0  0  0
    5.8580    6.0610  -19.5770 C   0  0  1  0  0  0  0  0  0  0  0  0
    6.0890    6.4320  -20.8210 F   0  0  0  0  0  0  0  0  0  0  0  0
    4.8140    7.2450  -19.0140 C   0  0  0  0  0  0  0  0  0  0  0  0
    4.3960    6.7170  -17.5830 C   0  0  2  0  0  0  0  0  0  0  0  0
    3.4870    7.6460  -16.8760 F   0  0  0  0  0  0  0  0  0  0  0  0
    5.6960    6.8350  -16.7800 C   0  0  1  0  0  0  0  0  0  0  0  0
    5.9880    8.0630  -16.6880 F   0  0  0  0  0  0  0  0  0  0  0  0
    5.3970    6.1800  -15.4880 C   0  0  1  0  0  0  0  0  0  0  0  0
    6.3100    5.3840  -14.6950 C   0  0  0  0  0  0  0  0  0  0  0  0
    6.2350    6.7160  -14.2480 C   0  0  2  0  0  0  0  0  0  0  0  0
    6.4500    7.0840  -13.1850 C   0  0  0  0  0  0  0  0  0  0  0  0
    7.7150    7.5700  -12.5140 C   0  0  0  0  0  0  0  0  0  0  0  0
    8.3560    6.2600  -12.1520 C   0  0  1  0  0  0  0  0  0  0  0  0
    9.1460    5.3480  -13.0550 O   0  0  0  0  0  0  0  0  0  0  0  0
    8.5240    5.9260  -10.7270 C   0  0  1  0  0  0  0  0  0  0  0  0
    7.5110    5.1690  -10.2420 O   0  0  0  0  0  0  0  0  0  0  0  0
    9.5780    6.3900  -10.1360 C   0  0  2  0  0  0  0  0  0  0  0  0
   10.6900    7.0230  -10.7100 C   0  0  0  0  0  0  0  0  0  0  0  0
   11.5270    7.6450   -9.3810 C   0  0  2  0  0  0  0  0  0  0  0  0
   12.1530    8.7230   -8.3850 C   0  0  2  0  0  0  0  0  0  0  0  0
   12.0140    9.0410   -6.8980 C   0  0  0  0  0  0  0  0  0  0  0  0
   10.6570    8.7660   -6.0990 C   0  0  2  0  0  0  0  0  0  0  0  0
   10.3250    7.3220   -6.0280 C   0  0  2  0  0  0  0  0  0  0  0  0
   11.2880    6.3330   -6.8620 C   0  0  0  0  0  0  0  0  0  0  0  0
   11.0820    6.6070   -8.4030 C   0  0  1  0  0  0  0  0  0  0  0  0
    9.5680    6.3150   -8.5540 C   0  0  1  0  0  0  0  0  0  0  0  0
    8.4450    5.9570   -7.8610 O   0  0  0  0  0  0  0  0  0  0  0  0
    9.4890    8.2560   -6.8510 C   0  0  2  0  0  0  0  0  0  0  0  0
    9.4220    8.8540   -8.4260 C   0  0  0  0  0  0  0  0  0  0  0  0
   10.7290    8.8820   -9.0940 C   0  0  2  0  0  0  0  0  0  0  0  0
    6.6700    6.0240  -17.3510 O   0  0  0  0  0  0  0  0  0  0  0  0
    7.1030    6.2820  -18.6970 C   0  0  1  0  0  0  0  0  0  0  0  0
    8.3340    5.9780  -19.0050 C   0  0  0  0  0  0  0  0  0  0  0  0
    8.8250    6.9200  -19.6910 F   0  0  0  0  0  0  0  0  0  0  0  0
    8.5080    4.8680  -19.8570 F   0  0  0  0  0  0  0  0  0  0  0  0
    8.8460    5.7980  -17.8920 F   0  0  0  0  0  0  0  0  0  0  0  0
    5.4576    4.1917  -18.4121 H   0  0  0  0  0  0  0  0  0  0  0  0
    4.5580    4.2801  -19.9644 H   0  0  0  0  0  0  0  0  0  0  0  0
    6.3145    3.9039  -19.9644 H   0  0  0  0  0  0  0  0  0  0  0  0
    5.3240    8.2169  -18.9412 H   0  0  0  0  0  0  0  0  0  0  0  0
    3.9532    7.4091  -19.6789 H   0  0  0  0  0  0  0  0  0  0  0  0
    3.9220    5.7287  -17.6753 H   0  0  0  0  0  0  0  0  0  0  0  0
    4.3669    6.0056  -15.8321 H   0  0  0  0  0  0  0  0  0  0  0  0
    5.8983    4.5890  -14.0558 H   0  0  0  0  0  0  0  0  0  0  0  0
    7.1677    4.7568  -14.9795 H   0  0  0  0  0  0  0  0  0  0  0  0
    6.5440    7.7557  -14.0649 H   0  0  0  0  0  0  0  0  0  0  0  0
    5.7522    7.9248  -13.0579 H   0  0  0  0  0  0  0  0  0  0  0  0
    6.4313    6.0935  -12.7070 H   0  0  0  0  0  0  0  0  0  0  0  0
    8.3429    8.1518  -13.2048 H   0  0  0  0  0  0  0  0  0  0  0  0
    7.5505    8.2492  -11.6645 H   0  0  0  0  0  0  0  0  0  0  0  0
    7.4252    6.0845  -12.7113 H   0  0  0  0  0  0  0  0  0  0  0  0
    9.4810    4.5750  -12.5340 H   0  0  0  0  0  0  0  0  0  0  0  0
    7.9757    6.8381  -10.4486 H   0  0  0  0  0  0  0  0  0  0  0  0
    7.3900    5.3560   -9.2770 H   0  0  0  0  0  0  0  0  0  0  0  0
    9.0831    7.3654  -10.0191 H   0  0  0  0  0  0  0  0  0  0  0  0
   11.3106    6.3016  -11.2618 H   0  0  0  0  0  0  0  0  0  0  0  0
   10.4102    7.7983  -11.4385 H   0  0  0  0  0  0  0  0  0  0  0  0
   13.2133    9.0069   -8.3126 H   0  0  0  0  0  0  0  0  0  0  0  0
   12.7968    8.4634   -6.3845 H   0  0  0  0  0  0  0  0  0  0  0  0
   12.0701   10.1395   -6.8892 H   0  0  0  0  0  0  0  0  0  0  0  0
   10.7771    9.6042   -5.3968 H   0  0  0  0  0  0  0  0  0  0  0  0
   10.1330    6.6053   -5.2160 H   0  0  0  0  0  0  0  0  0  0  0  0
   12.3370    6.5210   -6.5896 H   0  0  0  0  0  0  0  0  0  0  0  0
   11.0409    5.2863   -6.6310 H   0  0  0  0  0  0  0  0  0  0  0  0
   11.9701    6.0686   -8.7655 H   0  0  0  0  0  0  0  0  0  0  0  0
    9.7912    5.2541   -8.7404 H   0  0  0  0  0  0  0  0  0  0  0  0
    7.7150    5.7540   -8.4990 H   0  0  0  0  0  0  0  0  0  0  0  0
    8.3957    8.1920   -6.9538 H   0  0  0  0  0  0  0  0  0  0  0  0
    8.7440    8.2167   -9.0126 H   0  0  0  0  0  0  0  0  0  0  0  0
    9.0659    9.8929   -8.3645 H   0  0  0  0  0  0  0  0  0  0  0  0
   10.2762    9.6841   -9.6953 H   0  0  0  0  0  0  0  0  0  0  0  0
    7.4102    7.3108  -18.9361 H   0  0  0  0  0  0  0  0  0  0  0  0
  1  2  1  0
  2  3  1  6
  2  4  1  0
  4  5  1  0
  5  6  1  0
  5  7  1  0
  7  8  1  1
  7  9  1  0
  9 10  1  0
 10 11  1  0
 11 12  1  0
 12 13  1  0
 13 14  1  0
 14 15  1  0
 14 16  1  0
 16 17  1  0
 16 18  1  0
 18 19  1  0
 20 19  1  1
 20 21  1  0
 21 22  1  0
 22 23  1  0
 23 24  1  0
 24 25  1  0
 25 26  1  0
 26 27  1  0
 27 28  1  0
 24 29  1  0
 29 30  1  0
 30 31  1  0
  7 32  1  0
 32 33  1  0
 33 34  1  0
 34 35  1  0
 34 36  1  0
 34 37  1  0
 33  2  1  0
 11  9  1  0
 27 18  1  0
 26 20  1  0
 31 20  1  0
 31 21  1  0
 29 23  1  0
  1 38  1  0
  1 39  1  0
  1 40  1  0
  4 41  1  0
  4 42  1  0
  5 43  1  6
  9 44  1  1
 10 45  1  0
 10 46  1  0
 11 47  1  6
 12 48  1  0
 12 49  1  0
 13 50  1  0
 13 51  1  0
 14 52  1  6
 15 53  1  0
 16 54  1  1
 17 55  1  0
 18 56  1  6
 19 57  1  0
 19 58  1  0
 21 59  1  6
 22 60  1  0
 22 61  1  0
 23 62  1  1
 24 63  1  1
 25 64  1  0
 25 65  1  0
 26 66  1  6
 27 67  1  1
 28 68  1  0
 29 69  1  1
 30 70  1  0
 30 71  1  0
 31 72  1  6
 33 73  1  1
M  END
>  <docking_score>  (45) 
-10.212

>  <plif_similarity>  (45) 
0.429

$$$$
DiffSBDD_75
     RDKit          3D

 71 75  0  0  0  0  0  0  0  0999 V2000
    6.0230    7.2970  -15.3150 C   0  0  0  0  0  0  0  0  0  0  0  0
    6.6720    5.9130  -15.3940 C   0  0  0  0  0  0  0  0  0  0  0  0
    7.0020    5.2020  -14.0240 C   0  0  2  0  0  0  0  0  0  0  0  0
    7.9840    3.9100  -12.8440 S   0  0  0  0  0  0  0  0  0  0  0  0
    7.7380    5.3100  -11.8070 C   0  0  2  0  0  0  0  0  0  0  0  0
    9.1270    5.9300  -11.3500 N   0  0  0  0  0  0  0  0  0  0  0  0
   10.1690    6.3900  -12.0770 C   0  0  0  0  0  0  0  0  0  0  0  0
   11.0530    7.4630  -11.3500 C   0  0  0  0  0  0  0  0  0  0  0  0
   10.6550    7.5750   -9.8860 C   0  0  2  0  0  0  0  0  0  0  0  0
   11.5700    8.3650   -8.8940 C   0  0  0  0  0  0  0  0  0  0  0  0
   10.6800    8.8370   -7.9380 C   0  0  0  0  0  0  0  0  0  0  0  0
   10.8240    8.1620   -6.7670 C   0  0  2  0  0  0  0  0  0  0  0  0
   10.0480    7.6480   -6.4940 C   0  0  0  0  0  0  0  0  0  0  0  0
   10.5110    6.4420   -5.6600 C   0  0  0  0  0  0  0  0  0  0  0  0
   11.1760    7.0670   -4.7140 C   0  0  1  0  0  0  0  0  0  0  0  0
   12.0020    6.3930   -3.7900 C   0  0  0  0  0  0  0  0  0  0  0  0
   12.1340    6.8630   -2.3980 C   0  0  0  0  0  0  0  0  0  0  0  0
   13.1200    6.3290   -1.6300 F   0  0  0  0  0  0  0  0  0  0  0  0
   10.8430    6.8740   -1.7680 F   0  0  0  0  0  0  0  0  0  0  0  0
   12.4500    8.3360   -2.5790 C   0  0  0  0  0  0  0  0  0  0  0  0
   12.0190    9.1650   -3.3330 C   0  0  1  0  0  0  0  0  0  0  0  0
   12.0450   10.2910   -3.0020 F   0  0  0  0  0  0  0  0  0  0  0  0
   11.7510    9.3240   -4.7800 C   0  0  0  0  0  0  0  0  0  0  0  0
   11.3240    8.2530   -5.5130 C   0  0  0  0  0  0  0  0  0  0  0  0
   10.5570    6.1500   -9.3290 C   0  0  0  0  0  0  0  0  0  0  0  0
    9.1620    5.5940   -9.9210 C   0  0  2  0  0  0  0  0  0  0  0  0
    7.7670    4.7740   -9.8720 C   0  0  0  0  0  0  0  0  0  0  0  0
    8.2850    5.8670   -9.0470 N   0  0  0  0  0  0  0  0  0  0  0  0
    6.1710    5.1040  -11.4870 C   0  0  0  0  0  0  0  0  0  0  0  0
    5.5770    5.2910  -13.1730 C   0  0  2  0  0  0  0  0  0  0  0  0
    5.0440    4.1910  -12.9170 C   0  0  0  0  0  0  0  0  0  0  0  0
    5.8903    7.5801  -14.2604 H   0  0  0  0  0  0  0  0  0  0  0  0
    6.6693    8.0341  -15.8139 H   0  0  0  0  0  0  0  0  0  0  0  0
    5.0430    7.2714  -15.8139 H   0  0  0  0  0  0  0  0  0  0  0  0
    5.9891    5.2567  -15.9534 H   0  0  0  0  0  0  0  0  0  0  0  0
    7.6477    6.0798  -15.8739 H   0  0  0  0  0  0  0  0  0  0  0  0
    7.9976    5.4434  -14.4245 H   0  0  0  0  0  0  0  0  0  0  0  0
    7.6520    6.3866  -11.5986 H   0  0  0  0  0  0  0  0  0  0  0  0
   10.8110    5.5348  -12.3347 H   0  0  0  0  0  0  0  0  0  0  0  0
    9.7374    6.8882  -12.9576 H   0  0  0  0  0  0  0  0  0  0  0  0
   12.1103    7.1668  -11.4164 H   0  0  0  0  0  0  0  0  0  0  0  0
   10.9021    8.4381  -11.8362 H   0  0  0  0  0  0  0  0  0  0  0  0
    9.7275    8.1649   -9.9278 H   0  0  0  0  0  0  0  0  0  0  0  0
   12.3209    7.7023   -8.4390 H   0  0  0  0  0  0  0  0  0  0  0  0
   12.1390    9.1690   -9.3837 H   0  0  0  0  0  0  0  0  0  0  0  0
   10.8720    9.9060   -7.7636 H   0  0  0  0  0  0  0  0  0  0  0  0
    9.6548    8.6864   -8.3071 H   0  0  0  0  0  0  0  0  0  0  0  0
   11.7465    8.1036   -7.3633 H   0  0  0  0  0  0  0  0  0  0  0  0
    9.3817    8.2803   -5.8888 H   0  0  0  0  0  0  0  0  0  0  0  0
    9.5047    7.2966   -7.3836 H   0  0  0  0  0  0  0  0  0  0  0  0
    9.6606    5.8737   -5.2553 H   0  0  0  0  0  0  0  0  0  0  0  0
   11.0883    5.6871   -6.2139 H   0  0  0  0  0  0  0  0  0  0  0  0
   10.8715    7.2810   -3.6789 H   0  0  0  0  0  0  0  0  0  0  0  0
   11.6303    5.3591   -3.7360 H   0  0  0  0  0  0  0  0  0  0  0  0
   13.0088    6.5663   -4.1978 H   0  0  0  0  0  0  0  0  0  0  0  0
   12.2554    8.7654   -1.5851 H   0  0  0  0  0  0  0  0  0  0  0  0
   13.4135    8.1935   -3.0902 H   0  0  0  0  0  0  0  0  0  0  0  0
   11.5088    8.2059   -3.1605 H   0  0  0  0  0  0  0  0  0  0  0  0
   11.8952   10.3014   -5.2637 H   0  0  0  0  0  0  0  0  0  0  0  0
   11.4012    5.5359   -9.6756 H   0  0  0  0  0  0  0  0  0  0  0  0
   10.5915    6.1219   -8.2299 H   0  0  0  0  0  0  0  0  0  0  0  0
    6.9733    4.9355  -10.6162 H   0  0  0  0  0  0  0  0  0  0  0  0
    7.4027    3.7415   -9.7663 H   0  0  0  0  0  0  0  0  0  0  0  0
    7.8130    6.7810   -9.1080 H   0  0  0  0  0  0  0  0  0  0  0  0
    8.3790    5.9260   -8.0230 H   0  0  0  0  0  0  0  0  0  0  0  0
    5.9535    4.1087  -11.0721 H   0  0  0  0  0  0  0  0  0  0  0  0
    5.7304    5.7725  -10.7327 H   0  0  0  0  0  0  0  0  0  0  0  0
    4.9931    6.0877  -13.6572 H   0  0  0  0  0  0  0  0  0  0  0  0
    4.9802    4.0594  -11.8268 H   0  0  0  0  0  0  0  0  0  0  0  0
    4.0329    4.1640  -13.3494 H   0  0  0  0  0  0  0  0  0  0  0  0
    5.6494    3.3807  -13.3494 H   0  0  0  0  0  0  0  0  0  0  0  0
  1  2  1  0
  2  3  1  0
  3  4  1  0
  4  5  1  0
  5  6  1  0
  6  7  1  0
  7  8  1  0
  8  9  1  0
  9 10  1  0
 10 11  1  0
 11 12  1  0
 12 13  1  0
 13 14  1  0
 14 15  1  0
 15 16  1  0
 16 17  1  0
 17 18  1  0
 17 19  1  0
 17 20  1  0
 20 21  1  0
 21 22  1  0
 21 23  1  0
 23 24  2  0
  9 25  1  0
 25 26  1  0
 26 27  1  0
 27 28  1  0
  5 29  1  0
 29 30  1  0
 30 31  1  0
 30  3  1  0
 26  6  1  6
 24 12  1  0
 28 26  1  0
 24 15  1  0
  1 32  1  0
  1 33  1  0
  1 34  1  0
  2 35  1  0
  2 36  1  0
  3 37  1  1
  5 38  1  6
  7 39  1  0
  7 40  1  0
  8 41  1  0
  8 42  1  0
  9 43  1  6
 10 44  1  0
 10 45  1  0
 11 46  1  0
 11 47  1  0
 12 48  1  6
 13 49  1  0
 13 50  1  0
 14 51  1  0
 14 52  1  0
 15 53  1  1
 16 54  1  0
 16 55  1  0
 20 56  1  0
 20 57  1  0
 21 58  1  1
 23 59  1  0
 25 60  1  0
 25 61  1  0
 27 62  1  0
 27 63  1  0
 28 64  1  0
 28 65  1  0
 29 66  1  0
 29 67  1  0
 30 68  1  1
 31 69  1  0
 31 70  1  0
 31 71  1  0
M  CHG  1  28   1
M  END
>  <docking_score>  (46) 
-11.933

>  <plif_similarity>  (46) 
0.714

$$$$
DiffSBDD_77
     RDKit          3D

 65 68  0  0  0  0  0  0  0  0999 V2000
   12.4430    6.5800   -1.9970 C   0  0  0  0  0  0  0  0  0  0  0  0
   12.1510    7.4290   -3.1310 C   0  0  0  0  0  0  0  0  0  0  0  0
   11.7050    6.9180   -4.4680 C   0  0  0  0  0  0  0  0  0  0  0  0
   11.7000    8.0950   -5.2380 N   0  0  0  0  0  0  0  0  0  0  0  0
   11.9130    9.3320   -4.3510 C   0  0  0  0  0  0  0  0  0  0  0  0
   12.1730    8.9530   -3.0860 C   0  0  0  0  0  0  0  0  0  0  0  0
   12.1510    9.5360   -1.8430 N   0  0  0  0  0  0  0  0  0  0  0  0
   12.0260   10.3670   -5.2300 C   0  0  0  0  0  0  0  0  0  0  0  0
   11.9040    9.9050   -6.6770 C   0  0  0  0  0  0  0  0  0  0  0  0
   11.5420    8.4710   -6.5690 C   0  0  1  0  0  0  0  0  0  0  0  0
   11.7830    7.3110   -7.6080 C   0  0  0  0  0  0  0  0  0  0  0  0
   11.1960    7.7800   -9.0290 N   0  0  0  0  0  0  0  0  0  0  0  0
   12.2300    7.9880   -9.8210 C   0  0  0  0  0  0  0  0  0  0  0  0
   10.0130    7.8880   -9.6170 C   0  0  0  0  0  0  0  0  0  0  0  0
    9.4080    8.9280   -9.7140 O   0  0  0  0  0  0  0  0  0  0  0  0
    9.4230    6.7780  -10.2310 C   0  0  2  0  0  0  0  0  0  0  0  0
    9.0810    6.5800  -11.6740 C   0  0  1  0  0  0  0  0  0  0  0  0
   10.0850    6.9680  -12.7450 C   0  0  0  0  0  0  0  0  0  0  0  0
    8.4730    5.2870  -11.8420 C   0  0  1  0  0  0  0  0  0  0  0  0
    8.1350    4.5430  -13.3870 S   0  0  1  0  0  4  0  0  0  0  0  0
    7.6300    2.8880  -12.9150 C   0  0  0  0  0  0  0  0  0  0  0  0
    6.5470    4.9380  -13.7840 C   0  0  0  0  0  0  0  0  0  0  0  0
    5.3910    4.3170  -12.9670 C   0  0  0  0  0  0  0  0  0  0  0  0
    6.0290    6.1240  -14.5130 C   0  0  0  0  0  0  0  0  0  0  0  0
    8.7220    4.1260  -10.9920 C   0  0  0  0  0  0  0  0  0  0  0  0
    8.6020    4.5900   -9.4940 C   0  0  1  0  0  0  0  0  0  0  0  0
    9.1520    5.0500   -8.3940 C   0  0  0  0  0  0  0  0  0  0  0  0
    8.9100    6.2850   -9.1550 C   0  0  1  0  0  0  0  0  0  0  0  0
   12.2526    7.1337   -1.0658 H   0  0  0  0  0  0  0  0  0  0  0  0
   11.7999    5.6882   -2.0314 H   0  0  0  0  0  0  0  0  0  0  0  0
   13.4986    6.2724   -2.0314 H   0  0  0  0  0  0  0  0  0  0  0  0
   11.4487    5.8913   -4.7682 H   0  0  0  0  0  0  0  0  0  0  0  0
   11.9010   10.5300   -1.7450 H   0  0  0  0  0  0  0  0  0  0  0  0
   12.3830    8.9780   -1.0080 H   0  0  0  0  0  0  0  0  0  0  0  0
   12.1864   11.4132   -4.9303 H   0  0  0  0  0  0  0  0  0  0  0  0
   12.0507   10.4987   -7.5913 H   0  0  0  0  0  0  0  0  0  0  0  0
   10.5371    8.5482   -7.0098 H   0  0  0  0  0  0  0  0  0  0  0  0
   12.8607    7.1098   -7.6983 H   0  0  0  0  0  0  0  0  0  0  0  0
   11.2806    6.3912   -7.2741 H   0  0  0  0  0  0  0  0  0  0  0  0
   13.1280    8.1686   -9.2119 H   0  0  0  0  0  0  0  0  0  0  0  0
   12.3893    7.1039  -10.4558 H   0  0  0  0  0  0  0  0  0  0  0  0
   12.0351    8.8649  -10.4558 H   0  0  0  0  0  0  0  0  0  0  0  0
    9.9085    6.1161  -10.9633 H   0  0  0  0  0  0  0  0  0  0  0  0
    8.3539    7.3751  -11.8956 H   0  0  0  0  0  0  0  0  0  0  0  0
   11.0098    7.3254  -12.2685 H   0  0  0  0  0  0  0  0  0  0  0  0
   10.3100    6.0921  -13.3712 H   0  0  0  0  0  0  0  0  0  0  0  0
    9.6625    7.7676  -13.3712 H   0  0  0  0  0  0  0  0  0  0  0  0
    7.6671    5.9361  -11.4688 H   0  0  0  0  0  0  0  0  0  0  0  0
    9.1420    4.7990  -14.2790 H   0  0  0  0  0  0  0  0  0  0  0  0
    7.6064    2.8107  -11.8180 H   0  0  0  0  0  0  0  0  0  0  0  0
    6.6279    2.6813  -13.3188 H   0  0  0  0  0  0  0  0  0  0  0  0
    8.3460    2.1570  -13.3188 H   0  0  0  0  0  0  0  0  0  0  0  0
    7.0252    4.4329  -14.6361 H   0  0  0  0  0  0  0  0  0  0  0  0
    5.5997    4.4291  -11.8928 H   0  0  0  0  0  0  0  0  0  0  0  0
    4.4503    4.8312  -13.2134 H   0  0  0  0  0  0  0  0  0  0  0  0
    5.3004    3.2488  -13.2134 H   0  0  0  0  0  0  0  0  0  0  0  0
    5.6974    6.8832  -13.7894 H   0  0  0  0  0  0  0  0  0  0  0  0
    6.8261    6.5430  -15.1448 H   0  0  0  0  0  0  0  0  0  0  0  0
    5.1799    5.8241  -15.1448 H   0  0  0  0  0  0  0  0  0  0  0  0
    7.9785    3.3429  -11.2015 H   0  0  0  0  0  0  0  0  0  0  0  0
    9.7237    3.7155  -11.1873 H   0  0  0  0  0  0  0  0  0  0  0  0
    7.9992    3.6725   -9.5645 H   0  0  0  0  0  0  0  0  0  0  0  0
    8.5779    4.9225   -7.4644 H   0  0  0  0  0  0  0  0  0  0  0  0
   10.1068    4.7274   -7.9533 H   0  0  0  0  0  0  0  0  0  0  0  0
    8.6373    7.2882   -8.7956 H   0  0  0  0  0  0  0  0  0  0  0  0
  1  2  1  0
  2  3  2  0
  3  4  1  0
  4  5  1  0
  5  6  2  0
  6  7  1  0
  5  8  1  0
  8  9  2  0
  9 10  1  0
 10 11  1  0
 11 12  1  0
 12 13  1  0
 12 14  1  0
 14 15  2  0
 14 16  1  0
 16 17  1  0
 17 18  1  0
 17 19  1  0
 19 20  1  0
 20 21  1  0
 20 22  1  0
 22 23  1  0
 22 24  1  0
 19 25  1  0
 25 26  1  0
 26 27  1  0
 27 28  1  0
  6  2  1  0
 28 16  1  0
 10  4  1  0
 28 26  1  0
  1 29  1  0
  1 30  1  0
  1 31  1  0
  3 32  1  0
  7 33  1  0
  7 34  1  0
  8 35  1  0
  9 36  1  0
 10 37  1  1
 11 38  1  0
 11 39  1  0
 13 40  1  0
 13 41  1  0
 13 42  1  0
 16 43  1  6
 17 44  1  6
 18 45  1  0
 18 46  1  0
 18 47  1  0
 19 48  1  1
 20 49  1  6
 21 50  1  0
 21 51  1  0
 21 52  1  0
 22 53  1  0
 23 54  1  0
 23 55  1  0
 23 56  1  0
 24 57  1  0
 24 58  1  0
 24 59  1  0
 25 60  1  0
 25 61  1  0
 26 62  1  1
 27 63  1  0
 27 64  1  0
 28 65  1  1
M  END
>  <docking_score>  (47) 
-9.251

>  <plif_similarity>  (47) 
0.286

$$$$
DiffSBDD_78
     RDKit          3D

 81 85  0  0  0  0  0  0  0  0999 V2000
    5.9500    7.6430  -15.0280 C   0  0  0  0  0  0  0  0  0  0  0  0
    6.4770    7.0250  -13.8920 C   0  0  0  0  0  0  0  0  0  0  0  0
    7.1400    5.7150  -13.3460 C   0  0  1  0  0  0  0  0  0  0  0  0
    7.8220    4.4440  -13.8750 O   0  0  0  0  0  0  0  0  0  0  0  0
    7.3660    3.2380  -13.4360 C   0  0  1  0  0  0  0  0  0  0  0  0
    6.8030    2.2270  -13.8580 C   0  0  0  0  0  0  0  0  0  0  0  0
    7.2390    0.9510  -13.8810 N   0  0  0  0  0  0  0  0  0  0  0  0
    6.8960    0.3630  -15.0040 C   0  0  2  0  0  0  0  0  0  0  0  0
    5.5820    0.0690  -15.3980 C   0  0  0  0  0  0  0  0  0  0  0  0
    5.5190   -0.3850  -16.9300 C   0  0  1  0  0  0  0  0  0  0  0  0
    5.5030   -1.8750  -17.0620 C   0  0  0  0  0  0  0  0  0  0  0  0
    4.3840    0.1370  -17.4840 F   0  0  0  0  0  0  0  0  0  0  0  0
    6.6470    0.2820  -17.5820 C   0  0  2  0  0  0  0  0  0  0  0  0
    6.7790    0.1730  -18.9500 F   0  0  0  0  0  0  0  0  0  0  0  0
    8.0290   -0.0820  -16.9680 C   0  0  0  0  0  0  0  0  0  0  0  0
    7.8850   -0.1870  -15.6190 O   0  0  0  0  0  0  0  0  0  0  0  0
    7.9440    3.2550  -12.3970 C   0  0  1  0  0  0  0  0  0  0  0  0
    8.5770    4.4020  -11.5780 C   0  0  0  0  0  0  0  0  0  0  0  0
    7.8330    5.8530  -12.0200 C   0  0  1  0  0  0  0  0  0  0  0  0
    9.0910    6.6670  -11.9860 N   0  0  2  0  0  0  0  0  0  0  0  0
   10.2480    6.4700  -12.3910 C   0  0  0  0  0  0  0  0  0  0  0  0
    9.4790    7.3030  -10.5490 C   0  0  0  0  0  0  0  0  0  0  0  0
    9.3860    7.1580   -9.2890 C   0  0  0  0  0  0  0  0  0  0  0  0
   10.3760    6.8480   -8.4290 C   0  0  0  0  0  0  0  0  0  0  0  0
   10.8880    8.0190   -7.7790 N   0  0  1  0  0  0  0  0  0  0  0  0
   10.4100    8.1910   -6.4570 C   0  0  0  0  0  0  0  0  0  0  0  0
   11.0110    9.5170   -6.0770 C   0  0  0  0  0  0  0  0  0  0  0  0
   12.3630    9.4860   -6.7800 C   0  0  0  0  0  0  0  0  0  0  0  0
   12.0040    8.5540   -7.8880 C   0  0  2  0  0  0  0  0  0  0  0  0
   12.8670    8.1540   -9.0680 C   0  0  0  0  0  0  0  0  0  0  0  0
    6.2040    3.7320  -12.1100 C   0  0  1  0  0  0  0  0  0  0  0  0
    6.2100    4.8490  -11.3690 C   0  0  0  0  0  0  0  0  0  0  0  0
    6.1550    5.0040  -12.6660 C   0  0  1  0  0  0  0  0  0  0  0  0
    5.2642    8.4472  -14.7231 H   0  0  0  0  0  0  0  0  0  0  0  0
    6.7687    8.0671  -15.6279 H   0  0  0  0  0  0  0  0  0  0  0  0
    5.4019    6.9015  -15.6279 H   0  0  0  0  0  0  0  0  0  0  0  0
    7.2414    7.7628  -13.6068 H   0  0  0  0  0  0  0  0  0  0  0  0
    5.4798    6.6522  -13.6152 H   0  0  0  0  0  0  0  0  0  0  0  0
    6.4285    3.0345  -13.9742 H   0  0  0  0  0  0  0  0  0  0  0  0
    5.8627    2.1823  -13.2889 H   0  0  0  0  0  0  0  0  0  0  0  0
    6.8979    2.4387  -14.9333 H   0  0  0  0  0  0  0  0  0  0  0  0
    8.2650    0.9430  -13.7960 H   0  0  0  0  0  0  0  0  0  0  0  0
    6.8120    0.4400  -13.0960 H   0  0  0  0  0  0  0  0  0  0  0  0
    6.4566    1.2603  -15.4641 H   0  0  0  0  0  0  0  0  0  0  0  0
    5.1930   -0.7442  -14.7676 H   0  0  0  0  0  0  0  0  0  0  0  0
    4.9744    0.9785  -15.2816 H   0  0  0  0  0  0  0  0  0  0  0  0
    5.4981   -2.3317  -16.0613 H   0  0  0  0  0  0  0  0  0  0  0  0
    4.6015   -2.1848  -17.6109 H   0  0  0  0  0  0  0  0  0  0  0  0
    6.3977   -2.2041  -17.6109 H   0  0  0  0  0  0  0  0  0  0  0  0
    6.3578    1.3231  -17.3761 H   0  0  0  0  0  0  0  0  0  0  0  0
    8.3779   -1.0403  -17.3802 H   0  0  0  0  0  0  0  0  0  0  0  0
    8.7672    0.6968  -17.2100 H   0  0  0  0  0  0  0  0  0  0  0  0
    8.7303    2.4990  -12.2544 H   0  0  0  0  0  0  0  0  0  0  0  0
    8.4240    4.2190  -10.5042 H   0  0  0  0  0  0  0  0  0  0  0  0
    9.6570    4.4565  -11.7795 H   0  0  0  0  0  0  0  0  0  0  0  0
    7.0090    6.2633  -11.4178 H   0  0  0  0  0  0  0  0  0  0  0  0
    8.6050    7.1170  -12.7750 H   0  0  0  0  0  0  0  0  0  0  0  0
   10.9232    6.3550  -11.5302 H   0  0  0  0  0  0  0  0  0  0  0  0
   10.2722    5.5548  -13.0008 H   0  0  0  0  0  0  0  0  0  0  0  0
   10.5737    7.3256  -13.0008 H   0  0  0  0  0  0  0  0  0  0  0  0
   10.5722    7.3642  -10.6550 H   0  0  0  0  0  0  0  0  0  0  0  0
    8.5621    7.9107  -10.5579 H   0  0  0  0  0  0  0  0  0  0  0  0
    8.9839    8.1145   -8.9237 H   0  0  0  0  0  0  0  0  0  0  0  0
    8.8293    6.2096   -9.2632 H   0  0  0  0  0  0  0  0  0  0  0  0
    9.9855    6.1573   -7.6672 H   0  0  0  0  0  0  0  0  0  0  0  0
   11.1943    6.3802   -8.9961 H   0  0  0  0  0  0  0  0  0  0  0  0
   10.4810    8.5470   -8.5640 H   0  0  0  0  0  0  0  0  0  0  0  0
    9.3109    8.2282   -6.4311 H   0  0  0  0  0  0  0  0  0  0  0  0
   10.6812    7.3700   -5.7770 H   0  0  0  0  0  0  0  0  0  0  0  0
   10.3936   10.3513   -6.4413 H   0  0  0  0  0  0  0  0  0  0  0  0
   11.0877    9.6659   -4.9898 H   0  0  0  0  0  0  0  0  0  0  0  0
   12.6619   10.4775   -7.1508 H   0  0  0  0  0  0  0  0  0  0  0  0
   13.2213    9.1883   -6.1597 H   0  0  0  0  0  0  0  0  0  0  0  0
   12.4056    7.7099   -7.3081 H   0  0  0  0  0  0  0  0  0  0  0  0
   13.8083    7.7177   -8.7026 H   0  0  0  0  0  0  0  0  0  0  0  0
   12.3318    7.4121   -9.6789 H   0  0  0  0  0  0  0  0  0  0  0  0
   13.0872    9.0419   -9.6789 H   0  0  0  0  0  0  0  0  0  0  0  0
    5.6248    2.7969  -12.1071 H   0  0  0  0  0  0  0  0  0  0  0  0
    5.3301    5.0967  -10.7570 H   0  0  0  0  0  0  0  0  0  0  0  0
    6.8796    5.2363  -10.5870 H   0  0  0  0  0  0  0  0  0  0  0  0
    5.4942    5.4448  -13.4270 H   0  0  0  0  0  0  0  0  0  0  0  0
  1  2  1  0
  3  2  1  6
  3  4  1  0
  4  5  1  0
  5  6  1  0
  6  7  1  0
  7  8  1  0
  8  9  1  0
  9 10  1  0
 10 11  1  0
 10 12  1  6
 10 13  1  0
 13 14  1  0
 13 15  1  0
 15 16  1  0
  5 17  1  0
 17 18  1  0
 18 19  1  0
 19 20  1  0
 20 21  1  0
 20 22  1  0
 22 23  1  0
 23 24  1  0
 24 25  1  0
 25 26  1  0
 26 27  1  0
 27 28  1  0
 28 29  1  0
 29 30  1  0
 17 31  1  0
 31 32  1  0
 32 33  1  0
 19  3  1  0
 29 25  1  0
 33 31  1  0
 33  3  1  0
 16  8  1  0
  1 34  1  0
  1 35  1  0
  1 36  1  0
  2 37  1  0
  2 38  1  0
  5 39  1  1
  6 40  1  0
  6 41  1  0
  7 42  1  0
  7 43  1  0
  8 44  1  6
  9 45  1  0
  9 46  1  0
 11 47  1  0
 11 48  1  0
 11 49  1  0
 13 50  1  6
 15 51  1  0
 15 52  1  0
 17 53  1  1
 18 54  1  0
 18 55  1  0
 19 56  1  1
 20 57  1  6
 21 58  1  0
 21 59  1  0
 21 60  1  0
 22 61  1  0
 22 62  1  0
 23 63  1  0
 23 64  1  0
 24 65  1  0
 24 66  1  0
 25 67  1  6
 26 68  1  0
 26 69  1  0
 27 70  1  0
 27 71  1  0
 28 72  1  0
 28 73  1  0
 29 74  1  6
 30 75  1  0
 30 76  1  0
 30 77  1  0
 31 78  1  1
 32 79  1  0
 32 80  1  0
 33 81  1  1
M  CHG  3   7   1  20   1  25   1
M  END
>  <docking_score>  (48) 
-9.304

>  <plif_similarity>  (48) 
0.286

$$$$
DiffSBDD_79
     RDKit          3D

 53 56  0  0  0  0  0  0  0  0999 V2000
    5.9790    7.6210  -16.3910 C   0  0  0  0  0  0  0  0  0  0  0  0
    6.6050    6.5460  -15.4670 C   0  0  1  0  0  0  0  0  0  0  0  0
    5.8820    6.0150  -14.3660 C   0  0  0  0  0  0  0  0  0  0  0  0
    6.5340    5.9960  -13.1510 C   0  0  0  0  0  0  0  0  0  0  0  0
    7.8290    5.3340  -13.0890 C   0  0  0  0  0  0  0  0  0  0  0  0
    8.4370    4.7630  -11.9290 N   0  0  0  0  0  0  0  0  0  0  0  0
    7.8990    5.0830  -10.6660 C   0  0  0  0  0  0  0  0  0  0  0  0
    6.8480    4.7080  -10.2420 O   0  0  0  0  0  0  0  0  0  0  0  0
    8.8000    5.8220   -9.7850 C   0  0  0  0  0  0  0  0  0  0  0  0
    9.0230    5.3670   -8.5210 C   0  0  0  0  0  0  0  0  0  0  0  0
   10.0460    5.9610   -7.6910 C   0  0  0  0  0  0  0  0  0  0  0  0
   10.6940    7.0740   -8.1440 C   0  0  0  0  0  0  0  0  0  0  0  0
   11.8160    7.7170   -7.3390 C   0  0  0  0  0  0  0  0  0  0  0  0
   11.2840    7.7530   -5.8240 C   0  0  0  0  0  0  0  0  0  0  0  0
   12.0170    8.9190   -5.1490 C   0  0  0  0  0  0  0  0  0  0  0  0
   12.2200    8.4610   -3.6250 C   0  0  0  0  0  0  0  0  0  0  0  0
   11.7240    7.0420   -3.4760 C   0  0  0  0  0  0  0  0  0  0  0  0
   11.3790    6.5370   -4.9280 C   0  0  0  0  0  0  0  0  0  0  0  0
   10.3150    7.6440   -9.3850 C   0  0  0  0  0  0  0  0  0  0  0  0
    9.4160    7.0480  -10.2380 C   0  0  0  0  0  0  0  0  0  0  0  0
    8.1250    4.6410  -14.5600 C   0  0  2  0  0  0  0  0  0  0  0  0
    8.7570    5.2840  -15.5700 C   0  0  0  0  0  0  0  0  0  0  0  0
    7.3220    5.3950  -16.0390 C   0  0  2  0  0  0  0  0  0  0  0  0
    6.8120    4.8700  -17.4230 C   0  0  0  0  0  0  0  0  0  0  0  0
    5.5197    8.4098  -15.7771 H   0  0  0  0  0  0  0  0  0  0  0  0
    6.7626    8.0601  -17.0259 H   0  0  0  0  0  0  0  0  0  0  0  0
    5.2103    7.1562  -17.0259 H   0  0  0  0  0  0  0  0  0  0  0  0
    7.3121    7.3134  -15.1189 H   0  0  0  0  0  0  0  0  0  0  0  0
    4.9687    6.6160  -14.2453 H   0  0  0  0  0  0  0  0  0  0  0  0
    5.7054    4.9587  -14.6171 H   0  0  0  0  0  0  0  0  0  0  0  0
    6.6840    7.0410  -12.8421 H   0  0  0  0  0  0  0  0  0  0  0  0
    5.8839    5.3978  -12.4956 H   0  0  0  0  0  0  0  0  0  0  0  0
    8.4173    4.5375   -8.1271 H   0  0  0  0  0  0  0  0  0  0  0  0
   10.2977    5.5248   -6.7131 H   0  0  0  0  0  0  0  0  0  0  0  0
   12.7347    7.1162   -7.4106 H   0  0  0  0  0  0  0  0  0  0  0  0
   12.0633    8.7223   -7.7108 H   0  0  0  0  0  0  0  0  0  0  0  0
   10.1927    7.8352   -5.9352 H   0  0  0  0  0  0  0  0  0  0  0  0
   12.9896    9.0948   -5.6319 H   0  0  0  0  0  0  0  0  0  0  0  0
   11.4514    9.8594   -5.2242 H   0  0  0  0  0  0  0  0  0  0  0  0
   13.2872    8.5096   -3.3628 H   0  0  0  0  0  0  0  0  0  0  0  0
   11.6569    9.1273   -2.9550 H   0  0  0  0  0  0  0  0  0  0  0  0
   12.5061    6.4105   -3.0293 H   0  0  0  0  0  0  0  0  0  0  0  0
   10.8443    6.9940   -2.8174 H   0  0  0  0  0  0  0  0  0  0  0  0
   12.1714    5.8653   -5.2898 H   0  0  0  0  0  0  0  0  0  0  0  0
   10.4298    5.9811   -4.9287 H   0  0  0  0  0  0  0  0  0  0  0  0
   10.7598    8.6061   -9.6790 H   0  0  0  0  0  0  0  0  0  0  0  0
    9.1770    7.4841  -11.2192 H   0  0  0  0  0  0  0  0  0  0  0  0
    8.2357    3.6641  -14.0667 H   0  0  0  0  0  0  0  0  0  0  0  0
    9.2584    6.2275  -15.3085 H   0  0  0  0  0  0  0  0  0  0  0  0
    9.5957    4.8850  -16.1594 H   0  0  0  0  0  0  0  0  0  0  0  0
    6.0538    4.0895  -17.2623 H   0  0  0  0  0  0  0  0  0  0  0  0
    6.3677    5.7017  -17.9896 H   0  0  0  0  0  0  0  0  0  0  0  0
    7.6562    4.4500  -17.9896 H   0  0  0  0  0  0  0  0  0  0  0  0
  1  2  1  0
  2  3  1  0
  3  4  1  0
  4  5  1  0
  5  6  2  3
  6  7  1  0
  7  8  2  0
  7  9  1  0
  9 10  1  0
 10 11  2  0
 11 12  1  0
 12 13  1  0
 13 14  1  0
 14 15  1  0
 15 16  1  0
 16 17  1  0
 17 18  1  0
 12 19  2  0
 19 20  1  0
  5 21  1  0
 21 22  1  0
 22 23  1  0
 23 24  1  6
 23  2  1  0
 20  9  2  0
 23 21  1  0
 18 14  1  0
  1 25  1  0
  1 26  1  0
  1 27  1  0
  2 28  1  1
  3 29  1  0
  3 30  1  0
  4 31  1  0
  4 32  1  0
 10 33  1  0
 11 34  1  0
 13 35  1  0
 13 36  1  0
 14 37  1  0
 15 38  1  0
 15 39  1  0
 16 40  1  0
 16 41  1  0
 17 42  1  0
 17 43  1  0
 18 44  1  0
 18 45  1  0
 19 46  1  0
 20 47  1  0
 21 48  1  1
 22 49  1  0
 22 50  1  0
 24 51  1  0
 24 52  1  0
 24 53  1  0
M  END
>  <docking_score>  (49) 
-10.629

>  <plif_similarity>  (49) 
0.286

$$$$
DiffSBDD_7
     RDKit          3D

 63 65  0  0  0  0  0  0  0  0999 V2000
    5.6020    5.0610  -11.8560 C   0  0  0  0  0  0  0  0  0  0  0  0
    6.5020    5.5160  -12.9550 C   0  0  1  0  0  0  0  0  0  0  0  0
    6.2970    6.9030  -13.4310 C   0  0  0  0  0  0  0  0  0  0  0  0
    5.8880    6.5860  -14.6910 C   0  0  1  0  0  0  0  0  0  0  0  0
    5.0970    7.4180  -15.3830 F   0  0  0  0  0  0  0  0  0  0  0  0
    6.7040    5.4450  -15.5230 C   0  0  1  0  0  0  0  0  0  0  0  0
    7.0510    6.2500  -16.9100 C   0  0  0  0  0  0  0  0  0  0  0  0
    7.9910    5.0020  -14.8110 C   0  0  0  0  0  0  0  0  0  0  0  0
    7.7520    4.9090  -13.3890 C   0  0  1  0  0  0  0  0  0  0  0  0
    8.8600    5.8560  -12.6040 C   0  0  0  0  0  0  0  0  0  0  0  0
    9.4240    5.2130  -11.3840 C   0  0  0  0  0  0  0  0  0  0  0  0
    8.8410    6.0170  -10.2800 N   0  0  0  0  0  0  0  0  0  0  0  0
    8.3120    5.0870   -9.1170 C   0  0  0  0  0  0  0  0  0  0  0  0
    9.7750    6.8210   -9.5450 C   0  0  0  0  0  0  0  0  0  0  0  0
   11.0520    7.3660  -10.2080 C   0  0  0  0  0  0  0  0  0  0  0  0
   11.7780    8.3080   -9.5830 C   0  0  0  0  0  0  0  0  0  0  0  0
   12.7350    8.4100   -8.7730 C   0  0  0  0  0  0  0  0  0  0  0  0
   11.8960    7.6310   -7.9420 C   0  0  0  0  0  0  0  0  0  0  0  0
   10.9490    7.6730   -7.0960 C   0  0  2  0  0  0  0  0  0  0  0  0
   11.2840    8.0790   -5.7420 C   0  0  0  0  0  0  0  0  0  0  0  0
   11.2820    9.4870   -5.5710 C   0  0  0  0  0  0  0  0  0  0  0  0
   11.6520   10.0480   -4.3610 C   0  0  0  0  0  0  0  0  0  0  0  0
   11.9990    9.2670   -3.3120 C   0  0  0  0  0  0  0  0  0  0  0  0
   11.9830    7.9080   -3.4040 C   0  0  0  0  0  0  0  0  0  0  0  0
   12.1970    7.0240   -2.1850 C   0  0  0  0  0  0  0  0  0  0  0  0
   10.9580    6.6190   -1.7490 F   0  0  0  0  0  0  0  0  0  0  0  0
   12.7550    7.7170   -1.2680 F   0  0  0  0  0  0  0  0  0  0  0  0
   12.8770    5.9840   -2.5280 F   0  0  0  0  0  0  0  0  0  0  0  0
   11.6410    7.3570   -4.6600 C   0  0  0  0  0  0  0  0  0  0  0  0
    9.5850    7.3050   -7.9380 S   0  0  0  0  0  0  0  0  0  0  0  0
    6.0627    5.2939  -10.8847 H   0  0  0  0  0  0  0  0  0  0  0  0
    4.6346    5.5783  -11.9364 H   0  0  0  0  0  0  0  0  0  0  0  0
    5.4450    3.9752  -11.9364 H   0  0  0  0  0  0  0  0  0  0  0  0
    6.0280    4.6447  -13.4306 H   0  0  0  0  0  0  0  0  0  0  0  0
    5.5228    7.4346  -12.8583 H   0  0  0  0  0  0  0  0  0  0  0  0
    7.1566    7.5844  -13.3487 H   0  0  0  0  0  0  0  0  0  0  0  0
    5.0602    5.9811  -14.2924 H   0  0  0  0  0  0  0  0  0  0  0  0
    6.1362    4.5123  -15.6557 H   0  0  0  0  0  0  0  0  0  0  0  0
    7.4756    7.2350  -16.6659 H   0  0  0  0  0  0  0  0  0  0  0  0
    7.7798    5.6718  -17.4970 H   0  0  0  0  0  0  0  0  0  0  0  0
    6.1302    6.3829  -17.4970 H   0  0  0  0  0  0  0  0  0  0  0  0
    8.3017    4.0191  -15.1949 H   0  0  0  0  0  0  0  0  0  0  0  0
    8.7849    5.7395  -15.0001 H   0  0  0  0  0  0  0  0  0  0  0  0
    7.7765    3.8309  -13.1722 H   0  0  0  0  0  0  0  0  0  0  0  0
    9.6857    6.0751  -13.2970 H   0  0  0  0  0  0  0  0  0  0  0  0
    8.3382    6.7687  -12.2803 H   0  0  0  0  0  0  0  0  0  0  0  0
    9.1131    4.1603  -11.3128 H   0  0  0  0  0  0  0  0  0  0  0  0
   10.5238    5.1964  -11.3729 H   0  0  0  0  0  0  0  0  0  0  0  0
    8.5666    5.5346   -8.1450 H   0  0  0  0  0  0  0  0  0  0  0  0
    7.2199    4.9836   -9.1982 H   0  0  0  0  0  0  0  0  0  0  0  0
    8.7813    4.0954   -9.1982 H   0  0  0  0  0  0  0  0  0  0  0  0
   11.3694    6.9858  -11.1902 H   0  0  0  0  0  0  0  0  0  0  0  0
   12.1524    8.8938  -10.4354 H   0  0  0  0  0  0  0  0  0  0  0  0
   11.0286    8.4249   -8.7863 H   0  0  0  0  0  0  0  0  0  0  0  0
   13.6739    7.9288   -9.0844 H   0  0  0  0  0  0  0  0  0  0  0  0
   13.1831    9.3675   -8.4689 H   0  0  0  0  0  0  0  0  0  0  0  0
   11.4566    6.9551   -8.6904 H   0  0  0  0  0  0  0  0  0  0  0  0
   12.6387    7.6724   -7.1317 H   0  0  0  0  0  0  0  0  0  0  0  0
   10.7569    8.7226   -7.3632 H   0  0  0  0  0  0  0  0  0  0  0  0
   10.9842   10.1379   -6.4062 H   0  0  0  0  0  0  0  0  0  0  0  0
   11.6641   11.1424   -4.2508 H   0  0  0  0  0  0  0  0  0  0  0  0
   12.3003    9.7393   -2.3653 H   0  0  0  0  0  0  0  0  0  0  0  0
   11.6679    6.2621   -4.7623 H   0  0  0  0  0  0  0  0  0  0  0  0
  1  2  1  0
  2  3  1  0
  3  4  1  0
  4  5  1  0
  4  6  1  0
  6  7  1  0
  6  8  1  0
  8  9  1  0
  9 10  1  0
 10 11  1  0
 11 12  1  0
 12 13  1  0
 12 14  1  0
 14 15  2  0
 15 16  1  0
 16 17  1  0
 17 18  1  0
 18 19  1  0
 19 20  1  0
 20 21  2  0
 21 22  1  0
 22 23  2  0
 23 24  1  0
 24 25  1  0
 25 26  1  0
 25 27  1  0
 25 28  1  0
 24 29  2  0
 19 30  1  0
  9  2  1  0
 30 14  1  0
 29 20  1  0
  1 31  1  0
  1 32  1  0
  1 33  1  0
  2 34  1  6
  3 35  1  0
  3 36  1  0
  4 37  1  1
  6 38  1  6
  7 39  1  0
  7 40  1  0
  7 41  1  0
  8 42  1  0
  8 43  1  0
  9 44  1  1
 10 45  1  0
 10 46  1  0
 11 47  1  0
 11 48  1  0
 13 49  1  0
 13 50  1  0
 13 51  1  0
 15 52  1  0
 16 53  1  0
 16 54  1  0
 17 55  1  0
 17 56  1  0
 18 57  1  0
 18 58  1  0
 19 59  1  1
 21 60  1  0
 22 61  1  0
 23 62  1  0
 29 63  1  0
M  END
>  <docking_score>  (50) 
-11.609

>  <plif_similarity>  (50) 
0.571

$$$$
DiffSBDD_80
     RDKit          3D

 80 86  0  0  0  0  0  0  0  0999 V2000
    6.7280    7.8830  -13.1410 C   0  0  0  0  0  0  0  0  0  0  0  0
    6.7710    6.7910  -14.2790 C   0  0  0  0  0  0  0  0  0  0  0  0
    6.1860    6.9630  -15.6060 C   0  0  0  0  0  0  0  0  0  0  0  0
    6.3860    5.9460  -16.6510 C   0  0  0  0  0  0  0  0  0  0  0  0
    7.1850    4.7980  -16.4000 C   0  0  0  0  0  0  0  0  0  0  0  0
    7.5430    4.5860  -15.0390 C   0  0  0  0  0  0  0  0  0  0  0  0
    7.5130    5.5890  -14.0790 C   0  0  0  0  0  0  0  0  0  0  0  0
    8.1600    5.1420  -12.8850 C   0  0  0  0  0  0  0  0  0  0  0  0
    8.2700    5.4740  -11.4800 C   0  0  1  0  0  0  0  0  0  0  0  0
    9.1940    6.4240  -11.1920 C   0  0  0  0  0  0  0  0  0  0  0  0
    9.6820    6.7330   -9.9180 C   0  0  0  0  0  0  0  0  0  0  0  0
   10.2970    7.8780   -9.6690 O   0  0  0  0  0  0  0  0  0  0  0  0
    9.3940    5.8390   -8.8300 C   0  0  0  0  0  0  0  0  0  0  0  0
    8.3750    4.8950   -9.1860 C   0  0  0  0  0  0  0  0  0  0  0  0
    7.5030    4.9360  -10.3370 C   0  0  0  0  0  0  0  0  0  0  0  0
    8.3320    3.9390  -13.3200 N   0  0  0  0  0  0  0  0  0  0  0  0
    8.0600    3.4690  -14.6130 N   0  0  0  0  0  0  0  0  0  0  0  0
    7.3140    2.1460  -15.1860 C   0  0  2  0  0  0  0  0  0  0  0  0
    6.1830    1.7520  -14.0240 C   0  0  0  0  0  0  0  0  0  0  0  0
    7.9140    0.5040  -15.0060 C   0  0  0  0  0  0  0  0  0  0  0  0
    7.0600   -0.3080  -15.2130 C   0  0  0  0  0  0  0  0  0  0  0  0
    5.9560   -0.2310  -16.0680 O   0  0  0  0  0  0  0  0  0  0  0  0
    6.4420   -0.1160  -17.3520 C   0  0  1  0  0  0  0  0  0  0  0  0
    5.5420   -0.3010  -18.7550 C   0  0  2  0  0  0  0  0  0  0  0  0
    4.6370    0.6350  -18.9180 C   0  0  0  0  0  0  0  0  0  0  0  0
    4.5760    1.8080  -19.8040 O   0  0  0  0  0  0  0  0  0  0  0  0
    5.4560   -1.6400  -19.2820 C   0  0  1  0  0  0  0  0  0  0  0  0
    5.2620   -1.6060  -20.7270 O   0  0  0  0  0  0  0  0  0  0  0  0
    6.8730   -2.4090  -19.1130 C   0  0  0  0  0  0  0  0  0  0  0  0
    6.9230   -2.9140  -17.6610 N   0  0  0  0  0  0  0  0  0  0  0  0
    5.8160   -3.9720  -17.3000 C   0  0  2  0  0  0  0  0  0  0  0  0
    6.3550   -5.1490  -18.1080 O   0  0  0  0  0  0  0  0  0  0  0  0
    4.4490   -3.4470  -17.7530 C   0  0  2  0  0  0  0  0  0  0  0  0
    4.3580   -3.7410  -19.1780 O   0  0  0  0  0  0  0  0  0  0  0  0
    4.3330   -2.3590  -18.8200 C   0  0  2  0  0  0  0  0  0  0  0  0
    7.5320    0.8500  -17.4140 C   0  0  0  0  0  0  0  0  0  0  0  0
    6.9190    2.2430  -16.7540 C   0  0  2  0  0  0  0  0  0  0  0  0
    7.6150    3.6260  -17.2240 C   0  0  1  0  0  0  0  0  0  0  0  0
    7.4810    3.7250  -18.7940 C   0  0  0  0  0  0  0  0  0  0  0  0
    6.7474    7.3893  -12.1582 H   0  0  0  0  0  0  0  0  0  0  0  0
    7.6007    8.5458  -13.2357 H   0  0  0  0  0  0  0  0  0  0  0  0
    5.8058    8.4752  -13.2357 H   0  0  0  0  0  0  0  0  0  0  0  0
    5.5903    7.8610  -15.8266 H   0  0  0  0  0  0  0  0  0  0  0  0
    5.9126    6.0758  -17.6354 H   0  0  0  0  0  0  0  0  0  0  0  0
    9.0343    4.6928  -11.3552 H   0  0  0  0  0  0  0  0  0  0  0  0
    9.5958    7.0037  -12.0361 H   0  0  0  0  0  0  0  0  0  0  0  0
    9.8440    8.7360   -9.8650 H   0  0  0  0  0  0  0  0  0  0  0  0
   10.3107    5.2928   -8.5630 H   0  0  0  0  0  0  0  0  0  0  0  0
    9.0331    6.4342   -7.9783 H   0  0  0  0  0  0  0  0  0  0  0  0
    8.8996    3.9314   -9.2649 H   0  0  0  0  0  0  0  0  0  0  0  0
    7.6389    5.1336   -8.4042 H   0  0  0  0  0  0  0  0  0  0  0  0
    7.1482    3.9215  -10.5714 H   0  0  0  0  0  0  0  0  0  0  0  0
    6.6317    5.5748  -10.1304 H   0  0  0  0  0  0  0  0  0  0  0  0
    6.6165    1.9030  -13.0243 H   0  0  0  0  0  0  0  0  0  0  0  0
    5.2980    2.3948  -14.1408 H   0  0  0  0  0  0  0  0  0  0  0  0
    5.8890    0.6985  -14.1408 H   0  0  0  0  0  0  0  0  0  0  0  0
    8.7360    0.3455  -15.7196 H   0  0  0  0  0  0  0  0  0  0  0  0
    8.2594    0.3789  -13.9692 H   0  0  0  0  0  0  0  0  0  0  0  0
    7.6078   -1.1985  -15.5549 H   0  0  0  0  0  0  0  0  0  0  0  0
    6.5219   -0.2114  -14.2585 H   0  0  0  0  0  0  0  0  0  0  0  0
    6.7584   -1.1629  -17.4701 H   0  0  0  0  0  0  0  0  0  0  0  0
    6.0989   -0.0256  -19.6628 H   0  0  0  0  0  0  0  0  0  0  0  0
    3.7277    0.0716  -19.1743 H   0  0  0  0  0  0  0  0  0  0  0  0
    4.8682    1.1899  -17.9968 H   0  0  0  0  0  0  0  0  0  0  0  0
    4.5700    1.5090  -20.7480 H   0  0  0  0  0  0  0  0  0  0  0  0
    6.1030   -1.3250  -21.1660 H   0  0  0  0  0  0  0  0  0  0  0  0
    6.9320   -3.2559  -19.8125 H   0  0  0  0  0  0  0  0  0  0  0  0
    7.7182   -1.7399  -19.3316 H   0  0  0  0  0  0  0  0  0  0  0  0
    6.8100   -2.1040  -17.0350 H   0  0  0  0  0  0  0  0  0  0  0  0
    5.6502   -4.2169  -16.2405 H   0  0  0  0  0  0  0  0  0  0  0  0
    7.3160   -5.0060  -18.3000 H   0  0  0  0  0  0  0  0  0  0  0  0
    3.9248   -3.5637  -16.7930 H   0  0  0  0  0  0  0  0  0  0  0  0
    3.6697   -1.4860  -18.9096 H   0  0  0  0  0  0  0  0  0  0  0  0
    8.3952    0.4950  -16.8319 H   0  0  0  0  0  0  0  0  0  0  0  0
    7.8853    1.0047  -18.4442 H   0  0  0  0  0  0  0  0  0  0  0  0
    5.8574    2.2886  -17.0385 H   0  0  0  0  0  0  0  0  0  0  0  0
    8.6955    3.6375  -17.0179 H   0  0  0  0  0  0  0  0  0  0  0  0
    6.6204    4.3608  -19.0492 H   0  0  0  0  0  0  0  0  0  0  0  0
    8.3983    4.1640  -19.2133 H   0  0  0  0  0  0  0  0  0  0  0  0
    7.3309    2.7192  -19.2133 H   0  0  0  0  0  0  0  0  0  0  0  0
  1  2  1  0
  2  3  1  0
  3  4  2  0
  4  5  1  0
  5  6  2  0
  6  7  1  0
  7  8  1  0
  8  9  1  0
  9 10  1  0
 10 11  2  0
 11 12  1  0
 11 13  1  0
 13 14  1  0
 14 15  1  0
  8 16  2  0
 16 17  1  0
 17 18  1  0
 18 19  1  1
 18 20  1  0
 20 21  1  0
 21 22  1  0
 22 23  1  0
 23 24  1  0
 24 25  1  0
 25 26  1  0
 24 27  1  0
 27 28  1  6
 27 29  1  0
 29 30  1  0
 30 31  1  0
 31 32  1  0
 31 33  1  0
 33 34  1  0
 34 35  1  0
 23 36  1  0
 36 37  1  0
 37 38  1  0
 38 39  1  0
  7  2  2  0
 15  9  1  0
 37 18  1  0
 38  5  1  0
 17  6  1  0
 35 27  1  0
 35 33  1  0
  1 40  1  0
  1 41  1  0
  1 42  1  0
  3 43  1  0
  4 44  1  0
  9 45  1  1
 10 46  1  0
 12 47  1  0
 13 48  1  0
 13 49  1  0
 14 50  1  0
 14 51  1  0
 15 52  1  0
 15 53  1  0
 19 54  1  0
 19 55  1  0
 19 56  1  0
 20 57  1  0
 20 58  1  0
 21 59  1  0
 21 60  1  0
 23 61  1  6
 24 62  1  6
 25 63  1  0
 25 64  1  0
 26 65  1  0
 28 66  1  0
 29 67  1  0
 29 68  1  0
 30 69  1  0
 31 70  1  1
 32 71  1  0
 33 72  1  1
 35 73  1  1
 36 74  1  0
 36 75  1  0
 37 76  1  1
 38 77  1  6
 39 78  1  0
 39 79  1  0
 39 80  1  0
M  END
>  <docking_score>  (51) 
-9.674

>  <plif_similarity>  (51) 
0.286

$$$$
DiffSBDD_83
     RDKit          3D

 45 47  0  0  0  0  0  0  0  0999 V2000
    7.0770    6.9540  -13.0600 C   0  0  0  0  0  0  0  0  0  0  0  0
    7.6190    5.5350  -12.3660 C   0  0  2  0  0  0  0  0  0  0  0  0
    6.5020    4.9260  -11.6720 C   0  0  0  0  0  0  0  0  0  0  0  0
    6.8600    4.8810  -10.3210 N   0  0  0  0  0  0  0  0  0  0  0  0
    8.0970    5.2780  -10.1150 C   0  0  1  0  0  0  0  0  0  0  0  0
    8.7570    4.8020   -8.8620 C   0  0  0  0  0  0  0  0  0  0  0  0
    8.6950    5.7040  -11.3530 C   0  0  1  0  0  0  0  0  0  0  0  0
   10.1480    6.3610  -11.8560 C   0  0  1  0  0  0  0  0  0  0  0  0
   11.2520    7.3370  -11.8710 C   0  0  0  0  0  0  0  0  0  0  0  0
   10.9030    6.9480  -10.7620 N   0  0  0  0  0  0  0  0  0  0  0  0
   10.8480    8.1920   -9.8330 C   0  0  0  0  0  0  0  0  0  0  0  0
   11.3080    7.6470   -8.5290 C   0  0  0  0  0  0  0  0  0  0  0  0
   10.3650    8.0350   -7.3630 C   0  0  0  0  0  0  0  0  0  0  0  0
   10.5320    7.2330   -6.3020 O   0  0  0  0  0  0  0  0  0  0  0  0
   11.3000    7.5890   -5.3360 C   0  0  0  0  0  0  0  0  0  0  0  0
   11.8470    8.8800   -5.1620 C   0  0  0  0  0  0  0  0  0  0  0  0
   12.4620    9.2590   -3.9280 C   0  0  0  0  0  0  0  0  0  0  0  0
   12.6260    8.2920   -2.9860 C   0  0  0  0  0  0  0  0  0  0  0  0
   13.2520    8.5740   -1.7820 F   0  0  0  0  0  0  0  0  0  0  0  0
   12.0590    7.0570   -3.0500 C   0  0  0  0  0  0  0  0  0  0  0  0
   12.0840    6.1930   -1.9850 F   0  0  0  0  0  0  0  0  0  0  0  0
   11.4520    6.6350   -4.2620 C   0  0  0  0  0  0  0  0  0  0  0  0
    6.8042    7.6682  -12.2691 H   0  0  0  0  0  0  0  0  0  0  0  0
    7.8739    7.3847  -13.6840 H   0  0  0  0  0  0  0  0  0  0  0  0
    6.1959    6.7438  -13.6840 H   0  0  0  0  0  0  0  0  0  0  0  0
    8.0307    4.9338  -13.1900 H   0  0  0  0  0  0  0  0  0  0  0  0
    5.5615    4.5706  -12.1183 H   0  0  0  0  0  0  0  0  0  0  0  0
    6.2260    4.5720   -9.5710 H   0  0  0  0  0  0  0  0  0  0  0  0
    8.3383    6.2188   -9.5987 H   0  0  0  0  0  0  0  0  0  0  0  0
    8.2135    5.1940   -7.9896 H   0  0  0  0  0  0  0  0  0  0  0  0
    8.7463    3.7023   -8.8369 H   0  0  0  0  0  0  0  0  0  0  0  0
    9.7971    5.1593   -8.8369 H   0  0  0  0  0  0  0  0  0  0  0  0
    8.2905    6.7155  -11.2003 H   0  0  0  0  0  0  0  0  0  0  0  0
    9.8109    5.7933  -12.7358 H   0  0  0  0  0  0  0  0  0  0  0  0
   12.2335    7.0323  -12.2632 H   0  0  0  0  0  0  0  0  0  0  0  0
   11.3647    8.3370  -12.3152 H   0  0  0  0  0  0  0  0  0  0  0  0
   11.5213    8.9846  -10.1913 H   0  0  0  0  0  0  0  0  0  0  0  0
    9.8523    8.6569   -9.7848 H   0  0  0  0  0  0  0  0  0  0  0  0
   11.3504    6.5501   -8.5994 H   0  0  0  0  0  0  0  0  0  0  0  0
   12.2988    8.0750   -8.3166 H   0  0  0  0  0  0  0  0  0  0  0  0
   10.5771    9.0718   -7.0630 H   0  0  0  0  0  0  0  0  0  0  0  0
    9.3272    7.9299   -7.7121 H   0  0  0  0  0  0  0  0  0  0  0  0
   11.7990    9.6045   -5.9883 H   0  0  0  0  0  0  0  0  0  0  0  0
   12.7900   10.2933   -3.7475 H   0  0  0  0  0  0  0  0  0  0  0  0
   11.1032    5.5986   -4.3813 H   0  0  0  0  0  0  0  0  0  0  0  0
  1  2  1  0
  2  3  1  0
  3  4  2  0
  4  5  1  0
  5  6  1  0
  5  7  1  0
  7  8  1  0
  8  9  1  0
  9 10  1  0
 10 11  1  0
 11 12  1  0
 12 13  1  0
 13 14  1  0
 14 15  1  0
 15 16  1  0
 16 17  2  0
 17 18  1  0
 18 19  1  0
 18 20  2  0
 20 21  1  0
 20 22  1  0
  7  2  1  0
 10  8  1  0
 22 15  2  0
  1 23  1  0
  1 24  1  0
  1 25  1  0
  2 26  1  6
  3 27  1  0
  4 28  1  0
  5 29  1  1
  6 30  1  0
  6 31  1  0
  6 32  1  0
  7 33  1  6
  8 34  1  6
  9 35  1  0
  9 36  1  0
 11 37  1  0
 11 38  1  0
 12 39  1  0
 12 40  1  0
 13 41  1  0
 13 42  1  0
 16 43  1  0
 17 44  1  0
 22 45  1  0
M  CHG  1   4   1
M  END
>  <docking_score>  (52) 
-8.612

>  <plif_similarity>  (52) 
0.571

$$$$
DiffSBDD_84
     RDKit          3D

 42 43  0  0  0  0  0  0  0  0999 V2000
   12.3140    6.7240   -2.0630 C   0  0  0  0  0  0  0  0  0  0  0  0
   11.9820    7.3870   -3.3700 C   0  0  0  0  0  0  0  0  0  0  0  0
   11.5100    6.6540   -4.4420 C   0  0  0  0  0  0  0  0  0  0  0  0
   11.2430    7.2520   -5.7270 C   0  0  0  0  0  0  0  0  0  0  0  0
   10.6120    6.5440   -6.6330 C   0  0  0  0  0  0  0  0  0  0  0  0
    9.4620    6.4530   -7.3880 C   0  0  0  0  0  0  0  0  0  0  0  0
    9.4680    7.6130   -8.4380 C   0  0  0  0  0  0  0  0  0  0  0  0
    9.7870    7.0620   -9.8220 C   0  0  0  0  0  0  0  0  0  0  0  0
   10.7490    7.4600  -10.4670 O   0  0  0  0  0  0  0  0  0  0  0  0
    8.8120    6.2120  -10.2250 N   0  0  0  0  0  0  0  0  0  0  0  0
    9.1550    5.0770  -11.0290 C   0  0  0  0  0  0  0  0  0  0  0  0
    7.9570    4.4600  -11.8000 C   0  0  0  0  0  0  0  0  0  0  0  0
    7.9770    3.4710  -12.8820 C   0  0  0  0  0  0  0  0  0  0  0  0
    6.8280    2.9140  -13.3200 C   0  0  0  0  0  0  0  0  0  0  0  0
    5.5730    3.3450  -12.9040 C   0  0  0  0  0  0  0  0  0  0  0  0
    5.6160    4.4680  -12.0380 C   0  0  0  0  0  0  0  0  0  0  0  0
    6.7240    4.9520  -11.3730 C   0  0  0  0  0  0  0  0  0  0  0  0
   11.5070    8.6370   -5.8230 C   0  0  0  0  0  0  0  0  0  0  0  0
   11.8680    9.4400   -4.7130 C   0  0  0  0  0  0  0  0  0  0  0  0
   12.1080    8.7490   -3.4950 C   0  0  0  0  0  0  0  0  0  0  0  0
   12.3700    9.4460   -2.3890 O   0  0  0  0  0  0  0  0  0  0  0  0
   11.9911    7.3688   -1.2323 H   0  0  0  0  0  0  0  0  0  0  0  0
   11.7939    5.7568   -1.9999 H   0  0  0  0  0  0  0  0  0  0  0  0
   13.4000    6.5611   -1.9999 H   0  0  0  0  0  0  0  0  0  0  0  0
   11.3316    5.5765   -4.3107 H   0  0  0  0  0  0  0  0  0  0  0  0
   11.3685    6.5340   -7.4315 H   0  0  0  0  0  0  0  0  0  0  0  0
   10.1614    5.9184   -5.8484 H   0  0  0  0  0  0  0  0  0  0  0  0
    9.4334    5.4830   -7.9060 H   0  0  0  0  0  0  0  0  0  0  0  0
    8.5768    6.5341   -6.7400 H   0  0  0  0  0  0  0  0  0  0  0  0
    8.4783    8.0928   -8.4563 H   0  0  0  0  0  0  0  0  0  0  0  0
   10.2350    8.3499   -8.1573 H   0  0  0  0  0  0  0  0  0  0  0  0
    7.8330    6.3800   -9.9540 H   0  0  0  0  0  0  0  0  0  0  0  0
    9.9132    5.3896  -11.7620 H   0  0  0  0  0  0  0  0  0  0  0  0
    9.5227    4.3011  -10.3414 H   0  0  0  0  0  0  0  0  0  0  0  0
    8.9342    3.1810  -13.3398 H   0  0  0  0  0  0  0  0  0  0  0  0
    6.8871    2.0825  -14.0377 H   0  0  0  0  0  0  0  0  0  0  0  0
    4.6359    2.8612  -13.2167 H   0  0  0  0  0  0  0  0  0  0  0  0
    4.6704    5.0075  -11.8808 H   0  0  0  0  0  0  0  0  0  0  0  0
    6.6397    5.6824  -10.5548 H   0  0  0  0  0  0  0  0  0  0  0  0
   11.4282    9.1161   -6.8100 H   0  0  0  0  0  0  0  0  0  0  0  0
   11.9572   10.5337   -4.7896 H   0  0  0  0  0  0  0  0  0  0  0  0
   13.2840    9.4460   -2.0090 H   0  0  0  0  0  0  0  0  0  0  0  0
  1  2  1  0
  2  3  1  0
  3  4  2  0
  4  5  1  0
  5  6  1  0
  6  7  1  0
  7  8  1  0
  8  9  2  0
  8 10  1  0
 10 11  1  0
 11 12  1  0
 12 13  2  0
 13 14  1  0
 14 15  2  0
 15 16  1  0
 16 17  2  0
  4 18  1  0
 18 19  2  0
 19 20  1  0
 20 21  1  0
 20  2  2  0
 17 12  1  0
  1 22  1  0
  1 23  1  0
  1 24  1  0
  3 25  1  0
  5 26  1  0
  5 27  1  0
  6 28  1  0
  6 29  1  0
  7 30  1  0
  7 31  1  0
 10 32  1  0
 11 33  1  0
 11 34  1  0
 13 35  1  0
 14 36  1  0
 15 37  1  0
 16 38  1  0
 17 39  1  0
 18 40  1  0
 19 41  1  0
 21 42  1  0
M  END
>  <docking_score>  (53) 
-9.345

>  <plif_similarity>  (53) 
0.429

$$$$
DiffSBDD_85
     RDKit          3D

 46 48  0  0  0  0  0  0  0  0999 V2000
    5.7900    7.7510  -16.2480 C   0  0  0  0  0  0  0  0  0  0  0  0
    5.6820    6.8240  -15.4250 C   0  0  0  0  0  0  0  0  0  0  0  0
    6.3310    6.7380  -13.8580 S   0  0  0  0  0  0  0  0  0  0  0  0
    7.7510    5.8650  -13.4930 C   0  0  0  0  0  0  0  0  0  0  0  0
    8.4410    5.9860  -12.2430 N   0  0  0  0  0  0  0  0  0  0  0  0
    9.4510    6.9260  -11.7940 C   0  0  1  0  0  0  0  0  0  0  0  0
    8.6740    8.2860  -11.5520 C   0  0  0  0  0  0  0  0  0  0  0  0
    9.4160    8.8220  -10.3140 C   0  0  0  0  0  0  0  0  0  0  0  0
   10.2260    7.7050   -9.8080 C   0  0  1  0  0  0  0  0  0  0  0  0
   11.3100    7.6990   -8.5900 S   0  0  0  0  0  0  0  0  0  0  0  0
   10.5790    7.9490   -6.8960 C   0  0  1  0  0  0  0  0  0  0  0  0
   10.8340    6.7490   -6.0320 C   0  0  0  0  0  0  0  0  0  0  0  0
   11.3660    7.1530   -4.6720 C   0  0  0  0  0  0  0  0  0  0  0  0
   11.6230    6.3330   -3.5740 C   0  0  0  0  0  0  0  0  0  0  0  0
   12.2250    6.8850   -2.3680 C   0  0  0  0  0  0  0  0  0  0  0  0
   12.6090    8.2410   -2.3760 C   0  0  0  0  0  0  0  0  0  0  0  0
   13.2110    8.8440   -1.3560 O   0  0  0  0  0  0  0  0  0  0  0  0
   12.3310    9.0620   -3.4590 C   0  0  0  0  0  0  0  0  0  0  0  0
   11.7190    8.4750   -4.5990 C   0  0  0  0  0  0  0  0  0  0  0  0
   11.3380    9.3340   -6.0910 S   0  0  0  0  0  0  0  0  0  0  0  0
   10.0500    6.5520  -10.5350 O   0  0  0  0  0  0  0  0  0  0  0  0
    8.0450    4.8760  -11.1130 S   0  0  0  0  0  0  0  0  0  0  0  0
    7.5260    5.4970   -9.8590 O   0  0  0  0  0  0  0  0  0  0  0  0
    6.9580    4.0450  -11.6030 O   0  0  0  0  0  0  0  0  0  0  0  0
    9.1600    3.9780  -10.8220 O   0  0  0  0  0  0  0  0  0  0  0  0
    5.3117    7.6686  -17.2351 H   0  0  0  0  0  0  0  0  0  0  0  0
    6.3638    8.6529  -15.9884 H   0  0  0  0  0  0  0  0  0  0  0  0
    5.0943    5.9538  -15.7525 H   0  0  0  0  0  0  0  0  0  0  0  0
    7.4871    4.8017  -13.5920 H   0  0  0  0  0  0  0  0  0  0  0  0
    8.4731    6.3181  -14.1881 H   0  0  0  0  0  0  0  0  0  0  0  0
   10.2567    6.9770  -12.5412 H   0  0  0  0  0  0  0  0  0  0  0  0
    8.7724    8.9673  -12.4100 H   0  0  0  0  0  0  0  0  0  0  0  0
    7.5877    8.1741  -11.4204 H   0  0  0  0  0  0  0  0  0  0  0  0
   10.0629    9.6668  -10.5929 H   0  0  0  0  0  0  0  0  0  0  0  0
    8.7126    9.1860   -9.5506 H   0  0  0  0  0  0  0  0  0  0  0  0
   11.0254    7.9630  -10.5182 H   0  0  0  0  0  0  0  0  0  0  0  0
    9.4996    8.1154   -7.0268 H   0  0  0  0  0  0  0  0  0  0  0  0
    9.8921    6.1967   -5.8987 H   0  0  0  0  0  0  0  0  0  0  0  0
   11.5879    6.1189   -6.5266 H   0  0  0  0  0  0  0  0  0  0  0  0
   11.3698    5.2635   -3.6188 H   0  0  0  0  0  0  0  0  0  0  0  0
   12.3758    6.2604   -1.4752 H   0  0  0  0  0  0  0  0  0  0  0  0
   13.0950    8.4960   -0.4370 H   0  0  0  0  0  0  0  0  0  0  0  0
   12.5767   10.1340   -3.4359 H   0  0  0  0  0  0  0  0  0  0  0  0
    7.3010    6.4450  -10.0300 H   0  0  0  0  0  0  0  0  0  0  0  0
    6.2470    3.9920  -10.9160 H   0  0  0  0  0  0  0  0  0  0  0  0
    9.8590    4.0860  -11.5140 H   0  0  0  0  0  0  0  0  0  0  0  0
  1  2  2  0
  2  3  1  0
  3  4  1  0
  4  5  1  0
  5  6  1  0
  6  7  1  0
  7  8  1  0
  8  9  1  0
  9 10  1  0
 10 11  1  0
 11 12  1  0
 12 13  1  0
 13 14  1  0
 14 15  2  0
 15 16  1  0
 16 17  1  0
 16 18  2  0
 18 19  1  0
 19 20  1  0
  9 21  1  0
  5 22  1  0
 22 23  1  0
 22 24  1  0
 22 25  1  0
 21  6  1  0
 20 11  1  0
 19 13  2  0
  1 26  1  0
  1 27  1  0
  2 28  1  0
  4 29  1  0
  4 30  1  0
  6 31  1  6
  7 32  1  0
  7 33  1  0
  8 34  1  0
  8 35  1  0
  9 36  1  1
 11 37  1  6
 12 38  1  0
 12 39  1  0
 14 40  1  0
 15 41  1  0
 17 42  1  0
 18 43  1  0
 23 44  1  0
 24 45  1  0
 25 46  1  0
M  END
>  <docking_score>  (54) 
-8.433

>  <plif_similarity>  (54) 
0.714

$$$$
DiffSBDD_86
     RDKit          3D

114117  0  0  0  0  0  0  0  0999 V2000
   14.6700    4.9610  -19.6300 C   0  0  0  0  0  0  0  0  0  0  0  0
   14.1780    5.8380  -18.7110 C   0  0  0  0  0  0  0  0  0  0  0  0
   15.3170    6.7160  -17.8000 C   0  0  2  0  0  0  0  0  0  0  0  0
   16.3160    5.6730  -17.3760 C   0  0  0  0  0  0  0  0  0  0  0  0
   16.6410    5.1550  -16.0470 C   0  0  0  0  0  0  0  0  0  0  0  0
   14.9600    8.0750  -18.2220 C   0  0  2  0  0  0  0  0  0  0  0  0
   14.1220    8.3920  -19.5710 C   0  0  0  0  0  0  0  0  0  0  0  0
   14.7210    9.2480  -20.1740 C   0  0  0  0  0  0  0  0  0  0  0  0
   16.2560    9.1840  -20.7530 C   0  0  1  0  0  0  0  0  0  0  0  0
   16.4110   10.6690  -20.9820 O   0  0  0  0  0  0  0  0  0  0  0  0
   17.0220    8.8960  -19.7110 C   0  0  0  0  0  0  0  0  0  0  0  0
   16.6320    7.6280  -18.6650 P   0  0  2  0  0  5  0  0  0  0  0  0
   17.5720    8.1740  -17.4450 O   0  0  0  0  0  0  0  0  0  0  0  0
   13.1070    5.6950  -17.7620 C   0  0  1  0  0  0  0  0  0  0  0  0
   13.0410    6.1170  -16.4060 C   0  0  0  0  0  0  0  0  0  0  0  0
   12.7840    7.7410  -16.0120 C   0  0  0  0  0  0  0  0  0  0  0  0
   12.0900    6.4920  -18.7230 O   0  0  0  0  0  0  0  0  0  0  0  0
   10.6230    5.9640  -18.2030 C   0  0  1  0  0  0  0  0  0  0  0  0
    9.2160    5.6140  -18.6270 C   0  0  0  0  0  0  0  0  0  0  0  0
    8.6600    6.5850  -19.5940 O   0  0  0  0  0  0  0  0  0  0  0  0
   10.9880    5.1280  -17.1370 C   0  0  1  0  0  0  0  0  0  0  0  0
    9.4740    4.7460  -16.2440 C   0  0  0  0  0  0  0  0  0  0  0  0
    8.6690    4.1080  -15.5740 C   0  0  2  0  0  0  0  0  0  0  0  0
    8.2210    3.0400  -16.2360 O   0  0  0  0  0  0  0  0  0  0  0  0
    7.9180    4.3900  -14.2480 C   0  0  2  0  0  0  0  0  0  0  0  0
    6.5580    4.9650  -14.3330 C   0  0  0  0  0  0  0  0  0  0  0  0
    6.7800    6.4200  -14.7210 C   0  0  0  0  0  0  0  0  0  0  0  0
    5.7370    7.3240  -15.2620 C   0  0  0  0  0  0  0  0  0  0  0  0
    5.2130    7.4000  -16.5530 C   0  0  2  0  0  0  0  0  0  0  0  0
    3.8670    6.9910  -16.9490 C   0  0  0  0  0  0  0  0  0  0  0  0
    5.2670    6.4740  -17.5040 C   0  0  1  0  0  0  0  0  0  0  0  0
    5.4080    6.1850  -18.8120 C   0  0  0  0  0  0  0  0  0  0  0  0
    8.6650    5.0930  -13.2310 O   0  0  0  0  0  0  0  0  0  0  0  0
    8.5460    4.4660  -12.0910 C   0  0  0  0  0  0  0  0  0  0  0  0
    9.4140    3.5140  -11.7260 O   0  0  0  0  0  0  0  0  0  0  0  0
    7.8580    5.1440  -11.0070 C   0  0  0  0  0  0  0  0  0  0  0  0
    8.4340    5.7400   -9.9600 C   0  0  0  0  0  0  0  0  0  0  0  0
    9.0250    6.9010  -10.0480 N   0  0  0  0  0  0  0  0  0  0  0  0
   10.0000    7.2840  -10.2360 C   0  0  0  0  0  0  0  0  0  0  0  0
   11.3270    7.7190   -9.9380 C   0  0  0  0  0  0  0  0  0  0  0  0
   11.4570    8.8440   -8.9380 C   0  0  0  0  0  0  0  0  0  0  0  0
   12.4000    8.5970   -7.9750 C   0  0  0  0  0  0  0  0  0  0  0  0
    8.4320    5.4050   -8.7800 N   0  0  0  0  0  0  0  0  0  0  0  0
    8.6610    5.9560   -7.6260 C   0  0  0  0  0  0  0  0  0  0  0  0
    9.9490    6.3960   -7.1320 O   0  0  0  0  0  0  0  0  0  0  0  0
   11.0860    5.4770   -7.2440 F   0  0  0  0  0  0  0  0  0  0  0  0
   11.3650    3.9690  -17.9600 C   0  0  0  0  0  0  0  0  0  0  0  0
   12.8470    4.2170  -18.0910 C   0  0  2  0  0  0  0  0  0  0  0  0
   13.8470    3.1850  -17.5520 C   0  0  0  0  0  0  0  0  0  0  0  0
   13.9803    4.3666  -20.2472 H   0  0  0  0  0  0  0  0  0  0  0  0
   15.7570    4.8473  -19.7548 H   0  0  0  0  0  0  0  0  0  0  0  0
   16.0254    4.7786  -17.9465 H   0  0  0  0  0  0  0  0  0  0  0  0
   17.2217    6.2816  -17.5147 H   0  0  0  0  0  0  0  0  0  0  0  0
   16.2217    5.8232  -15.2804 H   0  0  0  0  0  0  0  0  0  0  0  0
   16.2120    4.1488  -15.9307 H   0  0  0  0  0  0  0  0  0  0  0  0
   17.7336    5.1035  -15.9307 H   0  0  0  0  0  0  0  0  0  0  0  0
   14.4490    8.8323  -17.6094 H   0  0  0  0  0  0  0  0  0  0  0  0
   14.0425    7.4839  -20.1866 H   0  0  0  0  0  0  0  0  0  0  0  0
   13.1039    8.7290  -19.3261 H   0  0  0  0  0  0  0  0  0  0  0  0
   14.0980    9.4561  -21.0564 H   0  0  0  0  0  0  0  0  0  0  0  0
   14.8827    9.9546  -19.3467 H   0  0  0  0  0  0  0  0  0  0  0  0
   16.4713    8.5026  -21.5892 H   0  0  0  0  0  0  0  0  0  0  0  0
   17.0870   11.0300  -20.3560 H   0  0  0  0  0  0  0  0  0  0  0  0
   18.0226    8.6745  -20.1108 H   0  0  0  0  0  0  0  0  0  0  0  0
   16.9006    9.7822  -19.0708 H   0  0  0  0  0  0  0  0  0  0  0  0
   12.2220    5.5488  -15.9409 H   0  0  0  0  0  0  0  0  0  0  0  0
   14.0655    5.9397  -16.0469 H   0  0  0  0  0  0  0  0  0  0  0  0
   12.7660    7.8545  -14.9180 H   0  0  0  0  0  0  0  0  0  0  0  0
   13.5965    8.3529  -16.4308 H   0  0  0  0  0  0  0  0  0  0  0  0
   11.8223    8.0722  -16.4308 H   0  0  0  0  0  0  0  0  0  0  0  0
   10.2004    6.9309  -18.5137 H   0  0  0  0  0  0  0  0  0  0  0  0
    9.2251    4.6175  -19.0928 H   0  0  0  0  0  0  0  0  0  0  0  0
    8.5807    5.6339  -17.7292 H   0  0  0  0  0  0  0  0  0  0  0  0
    8.2730    6.0980  -20.3640 H   0  0  0  0  0  0  0  0  0  0  0  0
   11.7336    5.4848  -16.4112 H   0  0  0  0  0  0  0  0  0  0  0  0
    9.5078    5.6222  -15.5799 H   0  0  0  0  0  0  0  0  0  0  0  0
    9.1926    4.1092  -17.0957 H   0  0  0  0  0  0  0  0  0  0  0  0
    9.3435    4.5127  -14.8050 H   0  0  0  0  0  0  0  0  0  0  0  0
    8.3560    2.2290  -15.6840 H   0  0  0  0  0  0  0  0  0  0  0  0
    7.7940    3.3435  -13.9326 H   0  0  0  0  0  0  0  0  0  0  0  0
    5.9638    4.4452  -15.0989 H   0  0  0  0  0  0  0  0  0  0  0  0
    6.0030    4.8651  -13.3885 H   0  0  0  0  0  0  0  0  0  0  0  0
    7.1519    6.9129  -13.8107 H   0  0  0  0  0  0  0  0  0  0  0  0
    7.4141    6.2935  -15.6109 H   0  0  0  0  0  0  0  0  0  0  0  0
    4.8603    7.1393  -14.6238 H   0  0  0  0  0  0  0  0  0  0  0  0
    6.3353    8.2467  -15.2874 H   0  0  0  0  0  0  0  0  0  0  0  0
    5.6959    8.3866  -16.4941 H   0  0  0  0  0  0  0  0  0  0  0  0
    3.2437    6.3637  -16.2948 H   0  0  0  0  0  0  0  0  0  0  0  0
    2.9453    7.4506  -17.3354 H   0  0  0  0  0  0  0  0  0  0  0  0
    6.0461    5.7026  -17.5932 H   0  0  0  0  0  0  0  0  0  0  0  0
    5.8880    5.2012  -18.9205 H   0  0  0  0  0  0  0  0  0  0  0  0
    4.4184    6.1651  -19.2919 H   0  0  0  0  0  0  0  0  0  0  0  0
    6.0328    6.9527  -19.2919 H   0  0  0  0  0  0  0  0  0  0  0  0
    7.2602    5.9296  -11.4923 H   0  0  0  0  0  0  0  0  0  0  0  0
    7.4059    4.2774  -10.5025 H   0  0  0  0  0  0  0  0  0  0  0  0
    8.3550    7.6660   -9.8910 H   0  0  0  0  0  0  0  0  0  0  0  0
   10.2816    6.5387  -10.9944 H   0  0  0  0  0  0  0  0  0  0  0  0
    9.6466    8.2461   -9.8367 H   0  0  0  0  0  0  0  0  0  0  0  0
   11.8817    6.8549   -9.5435 H   0  0  0  0  0  0  0  0  0  0  0  0
   11.7215    8.1211  -10.8828 H   0  0  0  0  0  0  0  0  0  0  0  0
   11.7376    9.7612   -9.4765 H   0  0  0  0  0  0  0  0  0  0  0  0
   10.4867    8.9471   -8.4301 H   0  0  0  0  0  0  0  0  0  0  0  0
   11.9473    8.7156   -6.9795 H   0  0  0  0  0  0  0  0  0  0  0  0
   12.7773    7.5697   -8.0862 H   0  0  0  0  0  0  0  0  0  0  0  0
   13.2324    9.3074   -8.0862 H   0  0  0  0  0  0  0  0  0  0  0  0
    8.1790    4.4120   -8.6750 H   0  0  0  0  0  0  0  0  0  0  0  0
    8.0224    6.8513   -7.6026 H   0  0  0  0  0  0  0  0  0  0  0  0
    8.4952    5.0894   -6.9691 H   0  0  0  0  0  0  0  0  0  0  0  0
   11.1531    3.0183  -17.4489 H   0  0  0  0  0  0  0  0  0  0  0  0
   10.8227    3.8793  -18.9128 H   0  0  0  0  0  0  0  0  0  0  0  0
   13.1073    4.0155  -19.1406 H   0  0  0  0  0  0  0  0  0  0  0  0
   13.8324    3.2000  -16.4522 H   0  0  0  0  0  0  0  0  0  0  0  0
   13.5676    2.1827  -17.9087 H   0  0  0  0  0  0  0  0  0  0  0  0
   14.8576    3.4327  -17.9087 H   0  0  0  0  0  0  0  0  0  0  0  0
  1  2  2  0
  2  3  1  0
  3  4  1  6
  4  5  1  0
  3  6  1  0
  6  7  1  0
  7  8  1  0
  8  9  1  0
  9 10  1  0
  9 11  1  0
 12 11  1  1
 12 13  2  0
  2 14  1  0
 14 15  1  1
 15 16  1  0
 14 17  1  0
 17 18  1  0
 18 19  1  0
 19 20  1  0
 18 21  1  0
 21 22  1  0
 22 23  1  0
 23 24  1  0
 23 25  1  0
 25 26  1  0
 26 27  1  0
 27 28  1  0
 28 29  1  0
 29 30  1  0
 30 31  1  0
 31 32  1  0
 25 33  1  0
 33 34  1  0
 34 35  2  0
 34 36  1  0
 36 37  1  0
 37 38  1  0
 38 39  1  0
 39 40  1  0
 40 41  1  0
 41 42  1  0
 37 43  2  3
 43 44  1  0
 44 45  1  0
 45 46  1  0
 21 47  1  0
 47 48  1  0
 48 49  1  0
 12  3  1  0
 48 14  1  0
 12  6  1  0
 31 29  1  0
  1 50  1  0
  1 51  1  0
  4 52  1  0
  4 53  1  0
  5 54  1  0
  5 55  1  0
  5 56  1  0
  6 57  1  1
  7 58  1  0
  7 59  1  0
  8 60  1  0
  8 61  1  0
  9 62  1  6
 10 63  1  0
 11 64  1  0
 11 65  1  0
 15 66  1  0
 15 67  1  0
 16 68  1  0
 16 69  1  0
 16 70  1  0
 18 71  1  1
 19 72  1  0
 19 73  1  0
 20 74  1  0
 21 75  1  1
 22 76  1  0
 22 77  1  0
 23 78  1  1
 24 79  1  0
 25 80  1  1
 26 81  1  0
 26 82  1  0
 27 83  1  0
 27 84  1  0
 28 85  1  0
 28 86  1  0
 29 87  1  6
 30 88  1  0
 30 89  1  0
 31 90  1  1
 32 91  1  0
 32 92  1  0
 32 93  1  0
 36 94  1  0
 36 95  1  0
 38 96  1  0
 39 97  1  0
 39 98  1  0
 40 99  1  0
 40100  1  0
 41101  1  0
 41102  1  0
 42103  1  0
 42104  1  0
 42105  1  0
 43106  1  0
 44107  1  0
 44108  1  0
 47109  1  0
 47110  1  0
 48111  1  6
 49112  1  0
 49113  1  0
 49114  1  0
M  CHG  1  43   1
M  END
>  <docking_score>  (55) 
-8.28

>  <plif_similarity>  (55) 
0.571

$$$$
DiffSBDD_87
     RDKit          3D

 76 79  0  0  0  0  0  0  0  0999 V2000
   11.7550    6.9720   -2.6770 C   0  0  0  0  0  0  0  0  0  0  0  0
   11.5800    6.7020   -4.0340 C   0  0  0  0  0  0  0  0  0  0  0  0
   11.2280    6.6500   -5.2030 C   0  0  0  0  0  0  0  0  0  0  0  0
   10.6220    7.6420   -6.0230 C   0  0  1  0  0  0  0  0  0  0  0  0
    9.6670    7.4210   -6.7670 O   0  0  0  0  0  0  0  0  0  0  0  0
    9.4040    6.8060   -7.9650 C   0  0  0  0  0  0  0  0  0  0  0  0
    8.9480    5.4950   -7.8520 C   0  0  0  0  0  0  0  0  0  0  0  0
    8.3360    4.7820   -8.8550 C   0  0  0  0  0  0  0  0  0  0  0  0
    8.3690    5.3420  -10.1490 C   0  0  0  0  0  0  0  0  0  0  0  0
    7.8130    4.6810  -11.2430 C   0  0  0  0  0  0  0  0  0  0  0  0
    8.7450    3.9170  -12.0490 C   0  0  0  0  0  0  0  0  0  0  0  0
    8.3130    3.0460  -12.9320 C   0  0  0  0  0  0  0  0  0  0  0  0
    7.0120    2.7380  -13.1350 C   0  0  0  0  0  0  0  0  0  0  0  0
    6.4830    1.6370  -14.0800 C   0  0  2  0  0  0  0  0  0  0  0  0
    7.0100    0.3180  -13.5990 C   0  0  0  0  0  0  0  0  0  0  0  0
    6.7700    1.7140  -15.5310 N   0  0  2  0  0  0  0  0  0  0  0  0
    7.1160    2.9930  -16.0790 C   0  0  0  0  0  0  0  0  0  0  0  0
    7.9090    2.9330  -17.3660 C   0  0  0  0  0  0  0  0  0  0  0  0
    6.9780    2.1050  -18.3110 C   0  0  0  0  0  0  0  0  0  0  0  0
    7.1330    0.6390  -17.6480 C   0  0  2  0  0  0  0  0  0  0  0  0
    8.5250   -0.2010  -17.1390 C   0  0  0  0  0  0  0  0  0  0  0  0
    6.5980   -0.0700  -18.8210 N   0  0  0  0  0  0  0  0  0  0  0  0
    5.3260   -0.4960  -18.9500 C   0  0  0  0  0  0  0  0  0  0  0  0
    5.2690   -1.8990  -19.3550 C   0  0  0  0  0  0  0  0  0  0  0  0
    4.4520    0.2820  -18.8230 O   0  0  0  0  0  0  0  0  0  0  0  0
    6.1960    0.7140  -16.4110 C   0  0  0  0  0  0  0  0  0  0  0  0
    6.1260    3.5890  -12.4230 C   0  0  0  0  0  0  0  0  0  0  0  0
    6.4290    4.5220  -11.5660 C   0  0  0  0  0  0  0  0  0  0  0  0
    8.9990    6.6420  -10.2330 C   0  0  0  0  0  0  0  0  0  0  0  0
    9.4080    7.3470   -9.2080 C   0  0  0  0  0  0  0  0  0  0  0  0
   11.2680    9.2350   -6.0580 S   0  0  0  0  0  0  0  0  0  0  0  0
   12.4240    8.8130   -7.3790 C   0  0  0  0  0  0  0  0  0  0  0  0
   12.2580    8.8760   -8.7240 C   0  0  1  0  0  0  0  0  0  0  0  0
   13.4210    8.0780   -9.1420 C   0  0  0  0  0  0  0  0  0  0  0  0
   12.5570    8.4560   -9.8150 O   0  0  0  0  0  0  0  0  0  0  0  0
   11.2522    6.1962   -2.0810 H   0  0  0  0  0  0  0  0  0  0  0  0
   12.8291    6.9779   -2.4399 H   0  0  0  0  0  0  0  0  0  0  0  0
   11.3218    7.9549   -2.4399 H   0  0  0  0  0  0  0  0  0  0  0  0
   12.6281    6.9217   -4.2855 H   0  0  0  0  0  0  0  0  0  0  0  0
   10.6036    6.2685   -3.7717 H   0  0  0  0  0  0  0  0  0  0  0  0
   12.1443    6.3764   -5.7466 H   0  0  0  0  0  0  0  0  0  0  0  0
   10.3376    6.0208   -5.0570 H   0  0  0  0  0  0  0  0  0  0  0  0
   11.3157    7.3913   -6.8390 H   0  0  0  0  0  0  0  0  0  0  0  0
    9.0886    4.9908   -6.8845 H   0  0  0  0  0  0  0  0  0  0  0  0
    7.8430    3.8187   -8.6576 H   0  0  0  0  0  0  0  0  0  0  0  0
    9.8268    4.0686  -11.9194 H   0  0  0  0  0  0  0  0  0  0  0  0
    9.0626    2.5305  -13.5503 H   0  0  0  0  0  0  0  0  0  0  0  0
    5.3936    1.7777  -14.0223 H   0  0  0  0  0  0  0  0  0  0  0  0
    7.0154    0.3044  -12.4991 H   0  0  0  0  0  0  0  0  0  0  0  0
    6.3665   -0.4922  -13.9725 H   0  0  0  0  0  0  0  0  0  0  0  0
    8.0346    0.1743  -13.9725 H   0  0  0  0  0  0  0  0  0  0  0  0
    7.7140    1.3040  -15.5060 H   0  0  0  0  0  0  0  0  0  0  0  0
    6.1852    3.5455  -16.2749 H   0  0  0  0  0  0  0  0  0  0  0  0
    7.7621    3.4855  -15.3374 H   0  0  0  0  0  0  0  0  0  0  0  0
    8.0864    3.9410  -17.7690 H   0  0  0  0  0  0  0  0  0  0  0  0
    8.9074    2.4885  -17.2410 H   0  0  0  0  0  0  0  0  0  0  0  0
    5.9381    2.4616  -18.2737 H   0  0  0  0  0  0  0  0  0  0  0  0
    7.2369    2.1593  -19.3787 H   0  0  0  0  0  0  0  0  0  0  0  0
    8.5593   -0.2217  -16.0397 H   0  0  0  0  0  0  0  0  0  0  0  0
    8.4932   -1.2308  -17.5243 H   0  0  0  0  0  0  0  0  0  0  0  0
    9.4213    0.3071  -17.5243 H   0  0  0  0  0  0  0  0  0  0  0  0
    7.2430   -0.2540  -19.6020 H   0  0  0  0  0  0  0  0  0  0  0  0
    5.2430   -2.5382  -18.4601 H   0  0  0  0  0  0  0  0  0  0  0  0
    4.3631   -2.0710  -19.9549 H   0  0  0  0  0  0  0  0  0  0  0  0
    6.1579   -2.1439  -19.9549 H   0  0  0  0  0  0  0  0  0  0  0  0
    5.1824    1.0119  -16.7175 H   0  0  0  0  0  0  0  0  0  0  0  0
    6.1132   -0.2618  -15.9101 H   0  0  0  0  0  0  0  0  0  0  0  0
    5.0535    3.4426  -12.6189 H   0  0  0  0  0  0  0  0  0  0  0  0
    5.6556    5.1586  -11.1115 H   0  0  0  0  0  0  0  0  0  0  0  0
    9.1457    7.0711  -11.2352 H   0  0  0  0  0  0  0  0  0  0  0  0
    9.7555    8.3801   -9.3559 H   0  0  0  0  0  0  0  0  0  0  0  0
   13.3011    9.4476   -7.1843 H   0  0  0  0  0  0  0  0  0  0  0  0
   12.3796    7.7190   -7.2734 H   0  0  0  0  0  0  0  0  0  0  0  0
   11.4094    9.5610   -8.5801 H   0  0  0  0  0  0  0  0  0  0  0  0
   14.4247    8.5242   -9.2015 H   0  0  0  0  0  0  0  0  0  0  0  0
   13.8905    7.1189   -8.8780 H   0  0  0  0  0  0  0  0  0  0  0  0
  1  2  1  0
  2  3  1  0
  3  4  1  0
  4  5  1  0
  5  6  1  0
  6  7  1  0
  7  8  2  0
  8  9  1  0
  9 10  1  0
 10 11  1  0
 11 12  2  0
 12 13  1  0
 13 14  1  0
 14 15  1  0
 14 16  1  0
 16 17  1  0
 17 18  1  0
 18 19  1  0
 19 20  1  0
 20 21  1  0
 20 22  1  6
 22 23  1  0
 23 24  1  0
 23 25  2  0
 20 26  1  0
 13 27  2  0
 27 28  1  0
  9 29  2  0
 29 30  1  0
  4 31  1  0
 31 32  1  0
 32 33  1  0
 33 34  1  0
 34 35  1  0
 30  6  2  0
 35 33  1  0
 28 10  2  0
 26 16  1  0
  1 36  1  0
  1 37  1  0
  1 38  1  0
  2 39  1  0
  2 40  1  0
  3 41  1  0
  3 42  1  0
  4 43  1  1
  7 44  1  0
  8 45  1  0
 11 46  1  0
 12 47  1  0
 14 48  1  6
 15 49  1  0
 15 50  1  0
 15 51  1  0
 16 52  1  1
 17 53  1  0
 17 54  1  0
 18 55  1  0
 18 56  1  0
 19 57  1  0
 19 58  1  0
 21 59  1  0
 21 60  1  0
 21 61  1  0
 22 62  1  0
 24 63  1  0
 24 64  1  0
 24 65  1  0
 26 66  1  0
 26 67  1  0
 27 68  1  0
 28 69  1  0
 29 70  1  0
 30 71  1  0
 32 72  1  0
 32 73  1  0
 33 74  1  6
 34 75  1  0
 34 76  1  0
M  CHG  1  16   1
M  END
>  <docking_score>  (56) 
-9.266

>  <plif_similarity>  (56) 
0.286

$$$$
DiffSBDD_89
     RDKit          3D

 79 82  0  0  0  0  0  0  0  0999 V2000
    5.4320    7.7240  -15.7800 C   0  0  0  0  0  0  0  0  0  0  0  0
    6.0320    7.0060  -14.6610 C   0  0  0  0  0  0  0  0  0  0  0  0
    6.8780    5.8180  -14.9140 C   0  0  1  0  0  0  0  0  0  0  0  0
    7.2260    5.6800  -16.2990 F   0  0  0  0  0  0  0  0  0  0  0  0
    8.0090    5.3650  -13.9120 C   0  0  1  0  0  0  0  0  0  0  0  0
    7.5990    5.7480  -12.4180 C   0  0  1  0  0  0  0  0  0  0  0  0
    6.4150    5.0940  -11.7080 C   0  0  0  0  0  0  0  0  0  0  0  0
    8.7960    5.6580  -11.4730 C   0  0  1  0  0  0  0  0  0  0  0  0
    9.3300    4.2310  -11.6810 C   0  0  0  0  0  0  0  0  0  0  0  0
    9.8570    6.7630  -11.9070 C   0  0  0  0  0  0  0  0  0  0  0  0
    9.7440    7.9090  -10.8770 C   0  0  0  0  0  0  0  0  0  0  0  0
    9.5220    7.1240   -9.6260 C   0  0  0  0  0  0  0  0  0  0  0  0
    8.7160    5.9220   -9.9150 C   0  0  0  0  0  0  0  0  0  0  0  0
    8.2500    4.9840   -8.8700 C   0  0  0  0  0  0  0  0  0  0  0  0
    8.6010    5.3530   -7.4100 C   0  0  0  0  0  0  0  0  0  0  0  0
    9.6820    6.4710   -7.3120 C   0  0  0  0  0  0  0  0  0  0  0  0
   10.2570    6.5870   -6.0730 C   0  0  0  0  0  0  0  0  0  0  0  0
   11.2290    7.6060   -5.8850 C   0  0  0  0  0  0  0  0  0  0  0  0
   11.8060    7.5930   -4.6520 O   0  0  0  0  0  0  0  0  0  0  0  0
   11.5060    8.4940   -6.9260 C   0  0  0  0  0  0  0  0  0  0  0  0
   12.4780    9.5370   -6.6410 C   0  0  0  0  0  0  0  0  0  0  0  0
   11.9390   10.7210   -6.7940 F   0  0  0  0  0  0  0  0  0  0  0  0
   13.4690    9.2860   -7.4670 F   0  0  0  0  0  0  0  0  0  0  0  0
   12.9220    9.6070   -5.3680 F   0  0  0  0  0  0  0  0  0  0  0  0
   10.9800    8.3470   -8.1540 C   0  0  0  0  0  0  0  0  0  0  0  0
   10.0530    7.2570   -8.4030 C   0  0  0  0  0  0  0  0  0  0  0  0
    8.5050    4.1590  -14.5780 C   0  0  2  0  0  0  0  0  0  0  0  0
    8.9550    4.6560  -15.9640 C   0  0  0  0  0  0  0  0  0  0  0  0
    7.6300    2.9560  -14.6500 N   0  0  0  0  0  0  0  0  0  0  0  0
    7.5390    2.1570  -13.4350 C   0  0  0  0  0  0  0  0  0  0  0  0
    6.2190    1.5320  -13.1970 C   0  0  0  0  0  0  0  0  0  0  0  0
    5.3920    1.2080  -14.4390 C   0  0  0  0  0  0  0  0  0  0  0  0
    4.3650    0.5820  -14.3350 O   0  0  0  0  0  0  0  0  0  0  0  0
    6.2620    1.1700  -15.5120 C   0  0  1  0  0  0  0  0  0  0  0  0
    6.2840   -0.0330  -16.3970 C   0  0  0  0  0  0  0  0  0  0  0  0
    7.5840   -0.1200  -17.2350 C   0  0  0  0  0  0  0  0  0  0  0  0
    5.2000   -0.0600  -17.3860 C   0  0  0  0  0  0  0  0  0  0  0  0
    6.3940   -0.9480  -15.2280 O   0  0  0  0  0  0  0  0  0  0  0  0
    7.1280    2.3270  -15.7790 C   0  0  0  0  0  0  0  0  0  0  0  0
    7.1310    2.7530  -16.9590 O   0  0  0  0  0  0  0  0  0  0  0  0
    4.7710    8.5150  -15.3960 H   0  0  0  0  0  0  0  0  0  0  0  0
    6.2254    8.1752  -16.3939 H   0  0  0  0  0  0  0  0  0  0  0  0
    4.8471    7.0233  -16.3939 H   0  0  0  0  0  0  0  0  0  0  0  0
    6.6557    7.7302  -14.1164 H   0  0  0  0  0  0  0  0  0  0  0  0
    5.1624    6.5898  -14.1313 H   0  0  0  0  0  0  0  0  0  0  0  0
    6.1583    5.0404  -14.6186 H   0  0  0  0  0  0  0  0  0  0  0  0
    8.9826    5.8194  -13.6761 H   0  0  0  0  0  0  0  0  0  0  0  0
    7.2285    6.7631  -12.6235 H   0  0  0  0  0  0  0  0  0  0  0  0
    6.5527    5.1701  -10.6193 H   0  0  0  0  0  0  0  0  0  0  0  0
    5.4856    5.6067  -11.9967 H   0  0  0  0  0  0  0  0  0  0  0  0
    6.3541    4.0343  -11.9967 H   0  0  0  0  0  0  0  0  0  0  0  0
    9.5065    3.7594  -10.7030 H   0  0  0  0  0  0  0  0  0  0  0  0
    8.5916    3.6417  -12.2444 H   0  0  0  0  0  0  0  0  0  0  0  0
   10.2739    4.2712  -12.2444 H   0  0  0  0  0  0  0  0  0  0  0  0
   10.8724    6.3402  -11.8950 H   0  0  0  0  0  0  0  0  0  0  0  0
    9.6599    7.1244  -12.9271 H   0  0  0  0  0  0  0  0  0  0  0  0
   10.6686    8.5028  -10.8260 H   0  0  0  0  0  0  0  0  0  0  0  0
    8.9633    8.6515  -11.0988 H   0  0  0  0  0  0  0  0  0  0  0  0
    7.6846    4.0737   -9.1182 H   0  0  0  0  0  0  0  0  0  0  0  0
    8.1369    4.8769   -6.5337 H   0  0  0  0  0  0  0  0  0  0  0  0
    9.9749    5.9128   -5.2508 H   0  0  0  0  0  0  0  0  0  0  0  0
   12.6320    7.0690   -4.4980 H   0  0  0  0  0  0  0  0  0  0  0  0
   11.2485    9.0443   -8.9613 H   0  0  0  0  0  0  0  0  0  0  0  0
    9.3048    3.7318  -13.9552 H   0  0  0  0  0  0  0  0  0  0  0  0
    9.6888    5.4664  -15.8425 H   0  0  0  0  0  0  0  0  0  0  0  0
    9.4146    3.8255  -16.5199 H   0  0  0  0  0  0  0  0  0  0  0  0
    8.0831    5.0312  -16.5199 H   0  0  0  0  0  0  0  0  0  0  0  0
    8.2903    1.3558  -13.4960 H   0  0  0  0  0  0  0  0  0  0  0  0
    7.7076    2.8497  -12.5973 H   0  0  0  0  0  0  0  0  0  0  0  0
    6.3865    0.5920  -12.6509 H   0  0  0  0  0  0  0  0  0  0  0  0
    5.6349    2.2808  -12.6419 H   0  0  0  0  0  0  0  0  0  0  0  0
    7.0313    0.7133  -14.8720 H   0  0  0  0  0  0  0  0  0  0  0  0
    8.4515   -0.1781  -16.5611 H   0  0  0  0  0  0  0  0  0  0  0  0
    7.5518   -1.0180  -17.8695 H   0  0  0  0  0  0  0  0  0  0  0  0
    7.6718    0.7743  -17.8695 H   0  0  0  0  0  0  0  0  0  0  0  0
    4.2305   -0.0841  -16.8668 H   0  0  0  0  0  0  0  0  0  0  0  0
    5.2561    0.8398  -18.0162 H   0  0  0  0  0  0  0  0  0  0  0  0
    5.3009   -0.9559  -18.0162 H   0  0  0  0  0  0  0  0  0  0  0  0
    6.0360   -0.4990  -14.4220 H   0  0  0  0  0  0  0  0  0  0  0  0
  1  2  1  0
  2  3  1  0
  3  4  1  0
  3  5  1  0
  5  6  1  0
  6  7  1  0
  6  8  1  0
  8  9  1  1
  8 10  1  0
 10 11  1  0
 11 12  1  0
 12 13  1  0
 13 14  2  0
 14 15  1  0
 15 16  2  0
 16 17  1  0
 17 18  2  0
 18 19  1  0
 18 20  1  0
 20 21  1  0
 21 22  1  0
 21 23  1  0
 21 24  1  0
 20 25  2  0
 25 26  1  0
  5 27  1  0
 27 28  1  0
 27 29  1  0
 29 30  1  0
 30 31  1  0
 31 32  1  0
 32 33  2  0
 32 34  1  0
 34 35  1  0
 35 36  1  0
 35 37  1  0
 35 38  1  0
 34 39  1  0
 39 40  2  0
 13  8  1  0
 26 16  1  0
 39 29  1  0
 26 12  2  0
  1 41  1  0
  1 42  1  0
  1 43  1  0
  2 44  1  0
  2 45  1  0
  3 46  1  6
  5 47  1  6
  6 48  1  6
  7 49  1  0
  7 50  1  0
  7 51  1  0
  9 52  1  0
  9 53  1  0
  9 54  1  0
 10 55  1  0
 10 56  1  0
 11 57  1  0
 11 58  1  0
 14 59  1  0
 15 60  1  0
 17 61  1  0
 19 62  1  0
 25 63  1  0
 27 64  1  1
 28 65  1  0
 28 66  1  0
 28 67  1  0
 30 68  1  0
 30 69  1  0
 31 70  1  0
 31 71  1  0
 34 72  1  1
 36 73  1  0
 36 74  1  0
 36 75  1  0
 37 76  1  0
 37 77  1  0
 37 78  1  0
 38 79  1  0
M  END
>  <docking_score>  (57) 
-11.307

>  <plif_similarity>  (57) 
0.286

$$$$
DiffSBDD_8
     RDKit          3D

 60 62  0  0  0  0  0  0  0  0999 V2000
    5.9120    1.0960  -13.6400 C   0  0  0  0  0  0  0  0  0  0  0  0
    7.1490    1.5500  -12.9950 C   0  0  0  0  0  0  0  0  0  0  0  0
    6.9570    3.1250  -12.8910 C   0  0  1  0  0  0  0  0  0  0  0  0
    5.8590    3.5940  -12.0310 C   0  0  0  0  0  0  0  0  0  0  0  0
    8.1640    4.0540  -12.5930 N   0  0  0  0  0  0  0  0  0  0  0  0
    8.7830    5.0840  -13.5300 O   0  0  0  0  0  0  0  0  0  0  0  0
    8.7670    5.3350  -14.9010 C   0  0  0  0  0  0  0  0  0  0  0  0
    8.0320    4.8340  -11.2970 C   0  0  1  0  0  0  0  0  0  0  0  0
    8.7590    4.2480  -10.0560 C   0  0  0  0  0  0  0  0  0  0  0  0
    8.8120    5.2970   -8.8090 C   0  0  0  0  0  0  0  0  0  0  0  0
    9.2680    6.8870   -8.8940 C   0  0  1  0  0  0  0  0  0  0  0  0
    9.4990    8.1340   -7.7350 S   0  0  0  0  0  0  0  0  0  0  0  0
   10.5870    7.7550   -6.5650 N   0  0  0  0  0  0  0  0  0  0  0  0
   11.5390    8.5950   -5.8350 C   0  0  0  0  0  0  0  0  0  0  0  0
   11.6810    7.7340   -4.6150 C   0  0  0  0  0  0  0  0  0  0  0  0
   12.1420    8.7970   -3.4960 C   0  0  2  0  0  0  0  0  0  0  0  0
   13.1850    9.5130   -4.0070 N   0  0  0  0  0  0  0  0  0  0  0  0
   12.3210    8.0130   -2.2630 C   0  0  0  0  0  0  0  0  0  0  0  0
   12.6730    8.5010   -1.1870 N   0  0  0  0  0  0  0  0  0  0  0  0
   12.1470    6.8590   -2.3300 O   0  0  0  0  0  0  0  0  0  0  0  0
   10.7460    6.6550   -5.6570 C   0  0  0  0  0  0  0  0  0  0  0  0
   10.2160    7.1990   -9.8690 C   0  0  0  0  0  0  0  0  0  0  0  0
   11.4300    7.8050   -9.7460 C   0  0  0  0  0  0  0  0  0  0  0  0
   12.2820    7.8410  -10.9000 C   0  0  0  0  0  0  0  0  0  0  0  0
   11.8100    7.3300  -12.1270 C   0  0  0  0  0  0  0  0  0  0  0  0
   12.5410    7.3310  -13.2130 F   0  0  0  0  0  0  0  0  0  0  0  0
   10.5310    6.7420  -12.1070 C   0  0  0  0  0  0  0  0  0  0  0  0
    9.7020    6.6820  -11.0350 C   0  0  0  0  0  0  0  0  0  0  0  0
    8.3580    6.2570  -11.3610 O   0  0  0  0  0  0  0  0  0  0  0  0
    5.1748    0.8254  -12.8697 H   0  0  0  0  0  0  0  0  0  0  0  0
    5.5074    1.9042  -14.2669 H   0  0  0  0  0  0  0  0  0  0  0  0
    6.1263    0.2179  -14.2669 H   0  0  0  0  0  0  0  0  0  0  0  0
    7.2599    1.1007  -11.9971 H   0  0  0  0  0  0  0  0  0  0  0  0
    8.0529    1.2645  -13.5531 H   0  0  0  0  0  0  0  0  0  0  0  0
    6.7278    3.2352  -13.9612 H   0  0  0  0  0  0  0  0  0  0  0  0
    6.1428    3.4728  -10.9752 H   0  0  0  0  0  0  0  0  0  0  0  0
    5.6595    4.6559  -12.2375 H   0  0  0  0  0  0  0  0  0  0  0  0
    4.9539    3.0040  -12.2375 H   0  0  0  0  0  0  0  0  0  0  0  0
    8.6979    6.4190  -15.0745 H   0  0  0  0  0  0  0  0  0  0  0  0
    9.6916    4.9492  -15.3552 H   0  0  0  0  0  0  0  0  0  0  0  0
    7.8989    4.8349  -15.3552 H   0  0  0  0  0  0  0  0  0  0  0  0
    6.9467    4.7185  -11.1599 H   0  0  0  0  0  0  0  0  0  0  0  0
    8.2275    3.3412   -9.7316 H   0  0  0  0  0  0  0  0  0  0  0  0
    9.7955    4.0265  -10.3501 H   0  0  0  0  0  0  0  0  0  0  0  0
    7.7908    5.3112   -8.4004 H   0  0  0  0  0  0  0  0  0  0  0  0
    9.6679    4.8856   -8.2538 H   0  0  0  0  0  0  0  0  0  0  0  0
    8.1696    6.9085   -8.9493 H   0  0  0  0  0  0  0  0  0  0  0  0
   12.4901    8.7133   -6.3749 H   0  0  0  0  0  0  0  0  0  0  0  0
   11.2295    9.6358   -5.6590 H   0  0  0  0  0  0  0  0  0  0  0  0
   12.0514    7.0496   -3.8376 H   0  0  0  0  0  0  0  0  0  0  0  0
   11.4302    9.5894   -3.2212 H   0  0  0  0  0  0  0  0  0  0  0  0
   14.0360    9.3180   -3.4590 H   0  0  0  0  0  0  0  0  0  0  0  0
   13.3390    9.2410   -4.9890 H   0  0  0  0  0  0  0  0  0  0  0  0
   12.8320    9.5160   -1.1090 H   0  0  0  0  0  0  0  0  0  0  0  0
   12.8090    7.8930   -0.3670 H   0  0  0  0  0  0  0  0  0  0  0  0
   11.3147    5.8055   -6.0631 H   0  0  0  0  0  0  0  0  0  0  0  0
    9.8797    6.0949   -5.2750 H   0  0  0  0  0  0  0  0  0  0  0  0
   11.7469    8.2524   -8.7924 H   0  0  0  0  0  0  0  0  0  0  0  0
   13.2950    8.2637  -10.8283 H   0  0  0  0  0  0  0  0  0  0  0  0
   10.1720    6.2912  -13.0439 H   0  0  0  0  0  0  0  0  0  0  0  0
  1  2  1  0
  2  3  1  0
  3  4  1  0
  3  5  1  0
  5  6  1  0
  6  7  1  0
  5  8  1  0
  8  9  1  0
  9 10  1  0
 10 11  1  0
 11 12  1  0
 12 13  1  0
 13 14  1  0
 14 15  1  0
 15 16  1  0
 16 17  1  0
 16 18  1  0
 18 19  1  0
 18 20  2  0
 15 21  1  0
 11 22  1  0
 22 23  1  0
 23 24  2  0
 24 25  1  0
 25 26  1  0
 25 27  2  0
 27 28  1  0
 28 29  1  0
 29  8  1  0
 21 13  1  0
 28 22  2  0
  1 30  1  0
  1 31  1  0
  1 32  1  0
  2 33  1  0
  2 34  1  0
  3 35  1  6
  4 36  1  0
  4 37  1  0
  4 38  1  0
  7 39  1  0
  7 40  1  0
  7 41  1  0
  8 42  1  1
  9 43  1  0
  9 44  1  0
 10 45  1  0
 10 46  1  0
 11 47  1  6
 14 48  1  0
 14 49  1  0
 15 50  1  0
 16 51  1  1
 17 52  1  0
 17 53  1  0
 19 54  1  0
 19 55  1  0
 21 56  1  0
 21 57  1  0
 23 58  1  0
 24 59  1  0
 27 60  1  0
M  END
>  <docking_score>  (58) 
-8.624

>  <plif_similarity>  (58) 
0.286

$$$$
DiffSBDD_93
     RDKit          3D

 69 73  0  0  0  0  0  0  0  0999 V2000
    8.7540    4.6820   -8.9180 C   0  0  0  0  0  0  0  0  0  0  0  0
    7.5540    4.6330   -9.8620 C   0  0  0  0  0  0  0  0  0  0  0  0
    8.5020    4.7200  -11.0720 C   0  0  2  0  0  0  0  0  0  0  0  0
    9.3720    5.5950  -11.5790 C   0  0  2  0  0  0  0  0  0  0  0  0
   10.1120    6.9410  -11.2160 C   0  0  0  0  0  0  0  0  0  0  0  0
    9.5020    7.9230  -10.6440 C   0  0  1  0  0  0  0  0  0  0  0  0
    9.7980    8.3240   -9.3000 C   0  0  0  0  0  0  0  0  0  0  0  0
   10.8210    8.1030   -8.6940 N   0  0  0  0  0  0  0  0  0  0  0  0
   11.0760    7.8890   -7.4130 C   0  0  0  0  0  0  0  0  0  0  0  0
   11.0630    6.5850   -7.0040 C   0  0  0  0  0  0  0  0  0  0  0  0
   11.2730    6.3010   -5.6490 C   0  0  0  0  0  0  0  0  0  0  0  0
   11.5380    7.2690   -4.7990 C   0  0  0  0  0  0  0  0  0  0  0  0
   11.6600    8.5960   -5.2780 C   0  0  0  0  0  0  0  0  0  0  0  0
   11.3500    8.9270   -6.5060 C   0  0  0  0  0  0  0  0  0  0  0  0
   12.1590    9.4930   -4.2160 C   0  0  0  0  0  0  0  0  0  0  0  0
   12.2600    8.5660   -3.2050 N   0  0  0  0  0  0  0  0  0  0  0  0
   11.7710    7.3390   -3.4300 C   0  0  0  0  0  0  0  0  0  0  0  0
   11.5580    6.5040   -2.6480 O   0  0  0  0  0  0  0  0  0  0  0  0
    8.8650    9.0360  -11.3370 C   0  0  0  0  0  0  0  0  0  0  0  0
    8.0080    8.5730  -12.3450 C   0  0  0  0  0  0  0  0  0  0  0  0
    7.1530    7.3630  -12.2030 C   0  0  0  0  0  0  0  0  0  0  0  0
    8.1330    6.2200  -12.3390 N   0  0  2  0  0  0  0  0  0  0  0  0
    7.3960    4.9810  -12.4080 C   0  0  2  0  0  0  0  0  0  0  0  0
    6.2320    4.1530  -12.0760 C   0  0  0  0  0  0  0  0  0  0  0  0
    8.0430    4.5330  -13.7520 C   0  0  1  0  0  0  0  0  0  0  0  0
    8.3000    3.1500  -13.5920 O   0  0  0  0  0  0  0  0  0  0  0  0
    7.2610    5.5230  -14.7420 C   0  0  0  0  0  0  0  0  0  0  0  0
    6.0210    6.3410  -14.7660 C   0  0  0  0  0  0  0  0  0  0  0  0
    5.5070    6.9770  -15.9140 C   0  0  0  0  0  0  0  0  0  0  0  0
    6.0420    6.7430  -17.1060 C   0  0  0  0  0  0  0  0  0  0  0  0
    7.1470    5.9880  -17.2130 C   0  0  0  0  0  0  0  0  0  0  0  0
    7.7590    5.4710  -16.0430 C   0  0  0  0  0  0  0  0  0  0  0  0
    9.0250    4.9050  -16.2510 O   0  0  0  0  0  0  0  0  0  0  0  0
    8.4017    4.6676   -7.8760 H   0  0  0  0  0  0  0  0  0  0  0  0
    9.3989    3.8094   -9.0991 H   0  0  0  0  0  0  0  0  0  0  0  0
    9.3256    5.6042   -9.0991 H   0  0  0  0  0  0  0  0  0  0  0  0
    6.9787    3.6970   -9.8087 H   0  0  0  0  0  0  0  0  0  0  0  0
    6.7276    5.3503   -9.7496 H   0  0  0  0  0  0  0  0  0  0  0  0
    9.1430    3.9127  -10.6881 H   0  0  0  0  0  0  0  0  0  0  0  0
   10.3040    5.0242  -11.7041 H   0  0  0  0  0  0  0  0  0  0  0  0
   10.9436    6.6656  -10.5508 H   0  0  0  0  0  0  0  0  0  0  0  0
   10.3375    7.3560  -12.2094 H   0  0  0  0  0  0  0  0  0  0  0  0
    8.7857    7.0900  -10.6993 H   0  0  0  0  0  0  0  0  0  0  0  0
    9.6953    9.4192   -9.2987 H   0  0  0  0  0  0  0  0  0  0  0  0
    9.1144    7.6565   -8.7549 H   0  0  0  0  0  0  0  0  0  0  0  0
   11.6590    8.0740   -9.2920 H   0  0  0  0  0  0  0  0  0  0  0  0
   10.8907    5.7733   -7.7261 H   0  0  0  0  0  0  0  0  0  0  0  0
   11.2160    5.2617   -5.2932 H   0  0  0  0  0  0  0  0  0  0  0  0
   11.3055    9.9811   -6.8172 H   0  0  0  0  0  0  0  0  0  0  0  0
   13.1324    9.9375   -4.4709 H   0  0  0  0  0  0  0  0  0  0  0  0
   11.5362   10.3735   -3.9995 H   0  0  0  0  0  0  0  0  0  0  0  0
   12.6960    8.8060   -2.3040 H   0  0  0  0  0  0  0  0  0  0  0  0
    8.2838    9.6258  -10.6129 H   0  0  0  0  0  0  0  0  0  0  0  0
    9.6472    9.6567  -11.7984 H   0  0  0  0  0  0  0  0  0  0  0  0
    7.3201    9.4039  -12.5602 H   0  0  0  0  0  0  0  0  0  0  0  0
    8.7300    8.2383  -13.1044 H   0  0  0  0  0  0  0  0  0  0  0  0
    6.6599    7.3432  -11.2199 H   0  0  0  0  0  0  0  0  0  0  0  0
    6.3419    7.3223  -12.9449 H   0  0  0  0  0  0  0  0  0  0  0  0
    8.6080    6.8490  -13.0010 H   0  0  0  0  0  0  0  0  0  0  0  0
    6.1323    4.0821  -10.9828 H   0  0  0  0  0  0  0  0  0  0  0  0
    5.3247    4.6098  -12.4981 H   0  0  0  0  0  0  0  0  0  0  0  0
    6.3659    3.1461  -12.4981 H   0  0  0  0  0  0  0  0  0  0  0  0
    9.0241    4.6307  -14.2397 H   0  0  0  0  0  0  0  0  0  0  0  0
    9.2350    2.9550  -13.8510 H   0  0  0  0  0  0  0  0  0  0  0  0
    5.4662    6.4583  -13.8235 H   0  0  0  0  0  0  0  0  0  0  0  0
    4.6583    7.6707  -15.8217 H   0  0  0  0  0  0  0  0  0  0  0  0
    5.5789    7.1687  -18.0084 H   0  0  0  0  0  0  0  0  0  0  0  0
    7.5752    5.7717  -18.2028 H   0  0  0  0  0  0  0  0  0  0  0  0
    9.3650    4.2120  -15.6310 H   0  0  0  0  0  0  0  0  0  0  0  0
  1  2  1  0
  2  3  1  0
  3  4  1  0
  4  5  1  0
  5  6  1  0
  6  7  1  0
  7  8  1  0
  8  9  1  0
  9 10  1  0
 10 11  2  0
 11 12  1  0
 12 13  2  0
 13 14  1  0
 13 15  1  0
 15 16  1  0
 16 17  1  0
 17 18  2  0
  6 19  1  0
 19 20  1  0
 20 21  1  0
 21 22  1  0
 22 23  1  0
 23 24  1  1
 23 25  1  0
 25 26  1  0
 25 27  1  0
 27 28  2  0
 28 29  1  0
 29 30  2  0
 30 31  1  0
 31 32  2  0
 32 33  1  0
 23  3  1  0
 32 27  1  0
 22  4  1  0
 14  9  2  0
 17 12  1  0
  1 34  1  0
  1 35  1  0
  1 36  1  0
  2 37  1  0
  2 38  1  0
  3 39  1  6
  4 40  1  6
  5 41  1  0
  5 42  1  0
  6 43  1  1
  7 44  1  0
  7 45  1  0
  8 46  1  0
 10 47  1  0
 11 48  1  0
 14 49  1  0
 15 50  1  0
 15 51  1  0
 16 52  1  0
 19 53  1  0
 19 54  1  0
 20 55  1  0
 20 56  1  0
 21 57  1  0
 21 58  1  0
 22 59  1  6
 24 60  1  0
 24 61  1  0
 24 62  1  0
 25 63  1  1
 26 64  1  0
 28 65  1  0
 29 66  1  0
 30 67  1  0
 31 68  1  0
 33 69  1  0
M  CHG  1  22   1
M  END
>  <docking_score>  (59) 
-9.919

>  <plif_similarity>  (59) 
0.714

$$$$
DiffSBDD_94
     RDKit          3D

 66 70  0  0  0  0  0  0  0  0999 V2000
   11.7350   10.1080   -6.4020 C   0  0  0  0  0  0  0  0  0  0  0  0
   11.6680    8.6890   -5.8260 C   0  0  2  0  0  0  0  0  0  0  0  0
   10.2980    8.2960   -6.4910 C   0  0  0  0  0  0  0  0  0  0  0  0
   10.4260    7.0490   -7.2730 N   0  0  0  0  0  0  0  0  0  0  0  0
    9.4570    6.8160   -8.4380 C   0  0  2  0  0  0  0  0  0  0  0  0
    8.7300    5.4970   -8.3620 C   0  0  0  0  0  0  0  0  0  0  0  0
    8.3690    4.7690   -9.5600 C   0  0  0  0  0  0  0  0  0  0  0  0
    8.7550    5.5670  -10.7000 N   0  0  0  0  0  0  0  0  0  0  0  0
    8.1750    4.9410  -11.9670 C   0  0  2  0  0  0  0  0  0  0  0  0
    6.7760    4.4100  -11.7460 C   0  0  0  0  0  0  0  0  0  0  0  0
    7.2430    3.3800  -12.6970 N   0  0  1  0  0  0  0  0  0  0  0  0
    7.0010    3.6610  -14.1430 C   0  0  0  0  0  0  0  0  0  0  0  0
    7.1800    2.3170  -14.7960 C   0  0  2  0  0  0  0  0  0  0  0  0
    7.5630    2.5200  -16.2810 C   0  0  0  0  0  0  0  0  0  0  0  0
    7.0250    1.4140  -17.1020 C   0  0  2  0  0  0  0  0  0  0  0  0
    7.7480    1.5620  -18.3860 F   0  0  0  0  0  0  0  0  0  0  0  0
    5.7710    0.6750  -17.3530 C   0  0  0  0  0  0  0  0  0  0  0  0
    6.8810    0.1450  -16.5470 C   0  0  1  0  0  0  0  0  0  0  0  0
    8.3210   -0.1240  -16.2970 O   0  0  0  0  0  0  0  0  0  0  0  0
    6.2620   -0.0890  -15.1520 C   0  0  0  0  0  0  0  0  0  0  0  0
    6.1660    1.3030  -14.5360 C   0  0  0  0  0  0  0  0  0  0  0  0
    5.3260    1.2840  -13.6320 O   0  0  0  0  0  0  0  0  0  0  0  0
    8.7100    3.7230  -12.3090 C   0  0  0  0  0  0  0  0  0  0  0  0
    9.7370    6.6150  -10.9610 C   0  0  0  0  0  0  0  0  0  0  0  0
    9.8430    7.4020  -12.0650 O   0  0  0  0  0  0  0  0  0  0  0  0
   10.1330    6.7440   -9.7060 C   0  0  1  0  0  0  0  0  0  0  0  0
   11.4320    8.0560   -9.5690 Cl  0  0  0  0  0  0  0  0  0  0  0  0
   11.8470    8.2320   -4.3970 C   0  0  0  0  0  0  0  0  0  0  0  0
   12.5020    9.0050   -3.5130 C   0  0  0  0  0  0  0  0  0  0  0  0
   12.7570    8.4020   -2.2230 C   0  0  0  0  0  0  0  0  0  0  0  0
   12.3640    7.1140   -2.0500 C   0  0  0  0  0  0  0  0  0  0  0  0
   11.6840    6.4040   -2.9380 N   0  0  0  0  0  0  0  0  0  0  0  0
   11.4240    6.9290   -4.1280 N   0  0  0  0  0  0  0  0  0  0  0  0
   11.7694   10.8367   -5.5787 H   0  0  0  0  0  0  0  0  0  0  0  0
   12.6390   10.2104   -7.0203 H   0  0  0  0  0  0  0  0  0  0  0  0
   10.8447   10.2952   -7.0203 H   0  0  0  0  0  0  0  0  0  0  0  0
   12.6253    8.1849   -6.0248 H   0  0  0  0  0  0  0  0  0  0  0  0
    9.5446    8.1504   -5.7029 H   0  0  0  0  0  0  0  0  0  0  0  0
    9.9940    9.1056   -7.1708 H   0  0  0  0  0  0  0  0  0  0  0  0
   10.3070    6.2640   -6.6170 H   0  0  0  0  0  0  0  0  0  0  0  0
   11.3490    7.1260   -7.7240 H   0  0  0  0  0  0  0  0  0  0  0  0
    8.7705    7.6719   -8.3593 H   0  0  0  0  0  0  0  0  0  0  0  0
    9.3663    4.8242   -7.7683 H   0  0  0  0  0  0  0  0  0  0  0  0
    7.7506    5.7866   -7.9536 H   0  0  0  0  0  0  0  0  0  0  0  0
    8.8966    3.8041   -9.5838 H   0  0  0  0  0  0  0  0  0  0  0  0
    7.2864    4.5752   -9.5780 H   0  0  0  0  0  0  0  0  0  0  0  0
    8.3290    5.7597  -12.6854 H   0  0  0  0  0  0  0  0  0  0  0  0
    6.5518    4.0573  -10.7285 H   0  0  0  0  0  0  0  0  0  0  0  0
    5.8562    5.0013  -11.8660 H   0  0  0  0  0  0  0  0  0  0  0  0
    6.8450    2.4330  -12.6310 H   0  0  0  0  0  0  0  0  0  0  0  0
    5.9825    4.0441  -14.3042 H   0  0  0  0  0  0  0  0  0  0  0  0
    7.6761    4.4285  -14.5495 H   0  0  0  0  0  0  0  0  0  0  0  0
    8.0209    1.8299  -14.2806 H   0  0  0  0  0  0  0  0  0  0  0  0
    7.1455    3.4734  -16.6370 H   0  0  0  0  0  0  0  0  0  0  0  0
    8.6593    2.5337  -16.3707 H   0  0  0  0  0  0  0  0  0  0  0  0
    4.8314    0.9881  -16.8744 H   0  0  0  0  0  0  0  0  0  0  0  0
    5.1982    0.3505  -18.2342 H   0  0  0  0  0  0  0  0  0  0  0  0
    8.5930    0.3000  -15.4440 H   0  0  0  0  0  0  0  0  0  0  0  0
    5.2645   -0.5440  -15.2410 H   0  0  0  0  0  0  0  0  0  0  0  0
    6.8631   -0.7764  -14.5386 H   0  0  0  0  0  0  0  0  0  0  0  0
    9.1278    3.1390  -11.4757 H   0  0  0  0  0  0  0  0  0  0  0  0
    9.5659    3.6014  -12.9892 H   0  0  0  0  0  0  0  0  0  0  0  0
   10.2450    5.6498   -9.7163 H   0  0  0  0  0  0  0  0  0  0  0  0
   12.8230   10.0289   -3.7549 H   0  0  0  0  0  0  0  0  0  0  0  0
   13.2491    8.9639   -1.4155 H   0  0  0  0  0  0  0  0  0  0  0  0
   12.6300    6.6235   -1.1020 H   0  0  0  0  0  0  0  0  0  0  0  0
  1  2  1  0
  2  3  1  0
  3  4  1  0
  4  5  1  0
  5  6  1  0
  6  7  1  0
  7  8  1  0
  8  9  1  0
  9 10  1  0
 10 11  1  0
 11 12  1  0
 12 13  1  0
 13 14  1  0
 14 15  1  0
 15 16  1  6
 15 17  1  0
 17 18  1  0
 18 19  1  1
 18 20  1  0
 20 21  1  0
 21 22  2  0
 11 23  1  0
  8 24  1  0
 24 25  2  0
 24 26  1  0
 26 27  1  0
  2 28  1  0
 28 29  2  0
 29 30  1  0
 30 31  2  0
 31 32  1  0
 32 33  2  0
 26  5  1  0
 33 28  1  0
 23  9  1  0
 21 13  1  0
 18 15  1  0
  1 34  1  0
  1 35  1  0
  1 36  1  0
  2 37  1  6
  3 38  1  0
  3 39  1  0
  4 40  1  0
  4 41  1  0
  5 42  1  6
  6 43  1  0
  6 44  1  0
  7 45  1  0
  7 46  1  0
  9 47  1  6
 10 48  1  0
 10 49  1  0
 11 50  1  1
 12 51  1  0
 12 52  1  0
 13 53  1  1
 14 54  1  0
 14 55  1  0
 17 56  1  0
 17 57  1  0
 19 58  1  0
 20 59  1  0
 20 60  1  0
 23 61  1  0
 23 62  1  0
 26 63  1  1
 29 64  1  0
 30 65  1  0
 31 66  1  0
M  CHG  2   4   1  11   1
M  END
>  <docking_score>  (60) 
-9.779

>  <plif_similarity>  (60) 
0.429

$$$$
DiffSBDD_95
     RDKit          3D

 66 71  0  0  0  0  0  0  0  0999 V2000
    4.7250    4.3160  -20.5130 C   0  0  0  0  0  0  0  0  0  0  0  0
    5.8890    4.9200  -19.5630 C   0  0  2  0  0  0  0  0  0  0  0  0
    7.1170    6.2110  -20.2370 S   0  0  0  0  0  0  0  0  0  0  0  0
    8.4270    6.1660  -18.8950 C   0  0  0  0  0  0  0  0  0  0  0  0
    9.1290    4.8600  -18.2490 C   0  0  0  0  0  0  0  0  0  0  0  0
    8.4050    4.0070  -17.0800 C   0  0  0  0  0  0  0  0  0  0  0  0
    7.2580    3.2530  -17.6820 C   0  0  0  0  0  0  0  0  0  0  0  0
    6.8150    3.9660  -18.9500 C   0  0  2  0  0  0  0  0  0  0  0  0
    5.9700    5.2680  -18.1980 C   0  0  1  0  0  0  0  0  0  0  0  0
    5.4040    6.8400  -17.8840 C   0  0  1  0  0  0  0  0  0  0  0  0
    4.2460    6.9630  -16.7600 C   0  0  0  0  0  0  0  0  0  0  0  0
    5.6040    7.5750  -16.5930 C   0  0  1  0  0  0  0  0  0  0  0  0
    6.5140    6.8940  -15.5450 C   0  0  0  0  0  0  0  0  0  0  0  0
    6.1360    6.9330  -14.1080 N   0  0  0  0  0  0  0  0  0  0  0  0
    5.6580    5.6280  -13.5560 C   0  0  0  0  0  0  0  0  0  0  0  0
    6.7460    4.7360  -13.0550 C   0  0  2  0  0  0  0  0  0  0  0  0
    6.5910    3.6990  -13.9190 C   0  0  0  0  0  0  0  0  0  0  0  0
    6.2950    4.3610  -11.4680 C   0  0  0  0  0  0  0  0  0  0  0  0
    7.3980    4.8050  -10.5040 C   0  0  0  0  0  0  0  0  0  0  0  0
    8.4840    5.3020  -11.4600 N   0  0  0  0  0  0  0  0  0  0  0  0
    8.1850    5.2130  -12.7310 C   0  0  2  0  0  0  0  0  0  0  0  0
    9.2400    5.4280  -13.3960 N   0  0  0  0  0  0  0  0  0  0  0  0
   10.1770    6.0040  -12.5170 O   0  0  0  0  0  0  0  0  0  0  0  0
    9.5860    6.0200  -11.2770 C   0  0  2  0  0  0  0  0  0  0  0  0
    9.9450    6.6960  -10.0070 C   0  0  0  0  0  0  0  0  0  0  0  0
   10.3810    7.9310   -9.8560 C   0  0  0  0  0  0  0  0  0  0  0  0
   11.0630    8.5300   -8.8630 C   0  0  0  0  0  0  0  0  0  0  0  0
   10.8690    7.7790   -7.5510 C   0  0  0  0  0  0  0  0  0  0  0  0
   10.1970    6.5810   -7.5240 C   0  0  0  0  0  0  0  0  0  0  0  0
    9.8150    5.9970   -8.7410 C   0  0  0  0  0  0  0  0  0  0  0  0
    3.9214    3.8990  -19.8882 H   0  0  0  0  0  0  0  0  0  0  0  0
    4.3178    5.1166  -21.1480 H   0  0  0  0  0  0  0  0  0  0  0  0
    5.1451    3.5221  -21.1480 H   0  0  0  0  0  0  0  0  0  0  0  0
    9.2594    6.7639  -19.2946 H   0  0  0  0  0  0  0  0  0  0  0  0
    7.8062    6.4685  -18.0388 H   0  0  0  0  0  0  0  0  0  0  0  0
    9.3084    4.1606  -19.0789 H   0  0  0  0  0  0  0  0  0  0  0  0
    9.9972    5.2895  -17.7277 H   0  0  0  0  0  0  0  0  0  0  0  0
    9.1225    3.3001  -16.6379 H   0  0  0  0  0  0  0  0  0  0  0  0
    8.0400    4.6820  -16.2919 H   0  0  0  0  0  0  0  0  0  0  0  0
    7.5761    2.2286  -17.9257 H   0  0  0  0  0  0  0  0  0  0  0  0
    6.4233    3.2085  -16.9669 H   0  0  0  0  0  0  0  0  0  0  0  0
    7.4186    3.2851  -19.5681 H   0  0  0  0  0  0  0  0  0  0  0  0
    5.8806    5.3370  -17.1038 H   0  0  0  0  0  0  0  0  0  0  0  0
    5.5945    7.1140  -18.9322 H   0  0  0  0  0  0  0  0  0  0  0  0
    3.3657    7.5991  -16.9342 H   0  0  0  0  0  0  0  0  0  0  0  0
    3.6156    6.2639  -16.1909 H   0  0  0  0  0  0  0  0  0  0  0  0
    5.9476    8.5955  -16.3683 H   0  0  0  0  0  0  0  0  0  0  0  0
    6.5879    5.8334  -15.8272 H   0  0  0  0  0  0  0  0  0  0  0  0
    7.4394    7.4874  -15.5836 H   0  0  0  0  0  0  0  0  0  0  0  0
    5.3840    7.6270  -13.9920 H   0  0  0  0  0  0  0  0  0  0  0  0
    6.9910    7.1760  -13.5870 H   0  0  0  0  0  0  0  0  0  0  0  0
    4.9728    5.8375  -12.7214 H   0  0  0  0  0  0  0  0  0  0  0  0
    5.1713    5.0948  -14.3859 H   0  0  0  0  0  0  0  0  0  0  0  0
    6.4517    2.7669  -13.3518 H   0  0  0  0  0  0  0  0  0  0  0  0
    5.7096    3.8780  -14.5524 H   0  0  0  0  0  0  0  0  0  0  0  0
    7.4862    3.6125  -14.5524 H   0  0  0  0  0  0  0  0  0  0  0  0
    5.3539    3.8732  -11.1742 H   0  0  0  0  0  0  0  0  0  0  0  0
    7.4074    4.7745   -9.4045 H   0  0  0  0  0  0  0  0  0  0  0  0
    8.4171    4.1380  -12.7103 H   0  0  0  0  0  0  0  0  0  0  0  0
    9.0410    6.0750  -14.1730 H   0  0  0  0  0  0  0  0  0  0  0  0
    8.9879    6.8943  -11.5733 H   0  0  0  0  0  0  0  0  0  0  0  0
   10.1427    8.5958  -10.6994 H   0  0  0  0  0  0  0  0  0  0  0  0
   11.6756    9.4359   -8.9815 H   0  0  0  0  0  0  0  0  0  0  0  0
   11.2706    8.1999   -6.6174 H   0  0  0  0  0  0  0  0  0  0  0  0
    9.9633    6.0899   -6.5679 H   0  0  0  0  0  0  0  0  0  0  0  0
    9.4038    4.9768   -8.7360 H   0  0  0  0  0  0  0  0  0  0  0  0
  2  1  1  6
  2  3  1  0
  3  4  1  0
  4  5  1  0
  5  6  1  0
  6  7  1  0
  7  8  1  0
  8  9  1  0
  9 10  1  0
 10 11  1  0
 11 12  1  0
 12 13  1  0
 13 14  1  0
 14 15  1  0
 16 15  1  6
 16 17  1  0
 16 18  1  0
 18 19  2  0
 19 20  1  0
 20 21  1  0
 21 22  1  0
 22 23  1  0
 23 24  1  0
 24 25  1  0
 25 26  2  0
 26 27  1  0
 27 28  2  0
 28 29  1  0
 29 30  2  0
  8  2  1  0
 12 10  1  0
 21 16  1  0
 30 25  1  0
  9  2  1  0
 24 20  1  0
  1 31  1  0
  1 32  1  0
  1 33  1  0
  4 34  1  0
  4 35  1  0
  5 36  1  0
  5 37  1  0
  6 38  1  0
  6 39  1  0
  7 40  1  0
  7 41  1  0
  8 42  1  6
  9 43  1  1
 10 44  1  6
 11 45  1  0
 11 46  1  0
 12 47  1  6
 13 48  1  0
 13 49  1  0
 14 50  1  0
 14 51  1  0
 15 52  1  0
 15 53  1  0
 17 54  1  0
 17 55  1  0
 17 56  1  0
 18 57  1  0
 19 58  1  0
 21 59  1  6
 22 60  1  0
 24 61  1  1
 26 62  1  0
 27 63  1  0
 28 64  1  0
 29 65  1  0
 30 66  1  0
M  CHG  1  14   1
M  END
>  <docking_score>  (61) 
-9.226

>  <plif_similarity>  (61) 
0.286

$$$$
DiffSBDD_9
     RDKit          3D

 65 70  0  0  0  0  0  0  0  0999 V2000
    7.8630    5.4990   -9.2050 O   0  0  0  0  0  0  0  0  0  0  0  0
    9.0300    6.1300   -9.1090 C   0  0  0  0  0  0  0  0  0  0  0  0
    9.8950    6.1060   -7.8540 C   0  0  0  0  0  0  0  0  0  0  0  0
   10.8950    7.1200   -8.3400 N   0  0  0  0  0  0  0  0  0  0  0  0
   12.0030    7.3900   -7.5400 C   0  0  1  0  0  0  0  0  0  0  0  0
   12.5790    9.1460   -7.1240 C   0  0  1  0  0  0  0  0  0  0  0  0
   11.5890   10.1950   -6.7950 C   0  0  0  0  0  0  0  0  0  0  0  0
   11.5060   10.6910   -5.6730 C   0  0  0  0  0  0  0  0  0  0  0  0
   11.8400   10.2770   -4.3960 C   0  0  0  0  0  0  0  0  0  0  0  0
   11.9000    8.9200   -3.9800 C   0  0  0  0  0  0  0  0  0  0  0  0
   12.0230    8.5330   -2.6220 C   0  0  0  0  0  0  0  0  0  0  0  0
   12.1880    9.5270   -1.7050 O   0  0  0  0  0  0  0  0  0  0  0  0
   11.9670    7.2410   -2.2850 C   0  0  0  0  0  0  0  0  0  0  0  0
   11.5950    6.3380   -3.2170 C   0  0  0  0  0  0  0  0  0  0  0  0
   11.4730    6.7000   -4.5710 C   0  0  0  0  0  0  0  0  0  0  0  0
   11.8040    7.9350   -4.9960 C   0  0  0  0  0  0  0  0  0  0  0  0
   11.9900    8.2810   -6.2480 C   0  0  2  0  0  0  0  0  0  0  0  0
   10.8910    7.7920   -9.6720 C   0  0  0  0  0  0  0  0  0  0  0  0
    9.6010    7.1240  -10.1360 C   0  0  0  0  0  0  0  0  0  0  0  0
    9.5580    6.7620  -11.6730 C   0  0  0  0  0  0  0  0  0  0  0  0
    8.8930    5.5280  -11.9320 O   0  0  0  0  0  0  0  0  0  0  0  0
    8.8420    4.7910  -12.9230 O   0  0  0  0  0  0  0  0  0  0  0  0
    7.7390    3.8730  -12.4820 C   0  0  1  0  0  0  0  0  0  0  0  0
    6.2960    4.2140  -12.3070 C   0  0  0  0  0  0  0  0  0  0  0  0
    5.5780    3.2100  -13.1100 O   0  0  0  0  0  0  0  0  0  0  0  0
    6.3670    2.1510  -13.4310 C   0  0  1  0  0  0  0  0  0  0  0  0
    6.3060    1.2670  -14.6520 C   0  0  1  0  0  0  0  0  0  0  0  0
    7.0520    1.5350  -15.8480 C   0  0  0  0  0  0  0  0  0  0  0  0
    6.5430    0.5380  -16.6510 C   0  0  0  0  0  0  0  0  0  0  0  0
    5.7940   -0.3990  -15.9860 C   0  0  0  0  0  0  0  0  0  0  0  0
    5.5270    0.1730  -14.8340 N   0  0  0  0  0  0  0  0  0  0  0  0
    7.8060    2.4250  -13.1400 C   0  0  0  0  0  0  0  0  0  0  0  0
    7.6790    4.7100   -8.6360 H   0  0  0  0  0  0  0  0  0  0  0  0
    9.8154    5.5404   -6.9139 H   0  0  0  0  0  0  0  0  0  0  0  0
   12.3768    6.4167   -7.8906 H   0  0  0  0  0  0  0  0  0  0  0  0
   13.4546    9.6769   -7.5258 H   0  0  0  0  0  0  0  0  0  0  0  0
   11.7852   11.0289   -7.4850 H   0  0  0  0  0  0  0  0  0  0  0  0
   10.6398    9.6444   -6.8715 H   0  0  0  0  0  0  0  0  0  0  0  0
   12.0682   11.6304   -5.7796 H   0  0  0  0  0  0  0  0  0  0  0  0
   10.4300   10.4924   -5.5598 H   0  0  0  0  0  0  0  0  0  0  0  0
   12.8413   10.6898   -4.2037 H   0  0  0  0  0  0  0  0  0  0  0  0
   10.9610   10.6240   -3.8330 H   0  0  0  0  0  0  0  0  0  0  0  0
   11.4130    9.8520   -1.1810 H   0  0  0  0  0  0  0  0  0  0  0  0
   12.2200    6.9184   -1.2643 H   0  0  0  0  0  0  0  0  0  0  0  0
   11.3838    5.3022   -2.9128 H   0  0  0  0  0  0  0  0  0  0  0  0
   11.1006    5.9613   -5.2960 H   0  0  0  0  0  0  0  0  0  0  0  0
   11.4642    8.6295   -5.3468 H   0  0  0  0  0  0  0  0  0  0  0  0
   11.5735    8.5112  -10.1484 H   0  0  0  0  0  0  0  0  0  0  0  0
    9.0300    7.5648  -12.2084 H   0  0  0  0  0  0  0  0  0  0  0  0
   10.5974    6.6565  -12.0174 H   0  0  0  0  0  0  0  0  0  0  0  0
    8.0736    3.9960  -11.4414 H   0  0  0  0  0  0  0  0  0  0  0  0
    6.0060    4.1444  -11.2482 H   0  0  0  0  0  0  0  0  0  0  0  0
    6.0686    5.2425  -12.6240 H   0  0  0  0  0  0  0  0  0  0  0  0
    5.7730    1.4977  -12.7750 H   0  0  0  0  0  0  0  0  0  0  0  0
    5.4674    1.8629  -15.0415 H   0  0  0  0  0  0  0  0  0  0  0  0
    6.8396    2.5366  -16.2502 H   0  0  0  0  0  0  0  0  0  0  0  0
    8.1458    1.5350  -15.7318 H   0  0  0  0  0  0  0  0  0  0  0  0
    5.9076    1.0049  -17.4180 H   0  0  0  0  0  0  0  0  0  0  0  0
    7.4069    0.0054  -17.0753 H   0  0  0  0  0  0  0  0  0  0  0  0
    4.8682   -0.6229  -16.5362 H   0  0  0  0  0  0  0  0  0  0  0  0
    6.3177   -1.3597  -15.8726 H   0  0  0  0  0  0  0  0  0  0  0  0
    4.5370    0.4560  -14.8190 H   0  0  0  0  0  0  0  0  0  0  0  0
    5.7170   -0.5000  -14.0780 H   0  0  0  0  0  0  0  0  0  0  0  0
    8.2200    1.6857  -12.4385 H   0  0  0  0  0  0  0  0  0  0  0  0
    8.4566    2.3691  -14.0252 H   0  0  0  0  0  0  0  0  0  0  0  0
  1  2  1  0
  2  3  2  0
  3  4  1  0
  4  5  1  0
  5  6  1  0
  6  7  1  0
  7  8  1  0
  8  9  1  0
  9 10  1  0
 10 11  2  0
 11 12  1  0
 11 13  1  0
 13 14  2  0
 14 15  1  0
 15 16  2  0
 16 17  1  0
  4 18  1  0
 18 19  2  0
 19 20  1  0
 20 21  1  0
 21 22  1  0
 22 23  1  0
 23 24  1  0
 24 25  1  0
 25 26  1  0
 26 27  1  0
 27 28  1  0
 28 29  1  0
 29 30  1  0
 30 31  1  0
 26 32  1  0
 19  2  1  0
 32 23  1  0
 17  5  1  0
 31 27  1  0
 17  6  1  0
 16 10  1  0
  1 33  1  0
  3 34  1  0
  5 35  1  1
  6 36  1  1
  7 37  1  0
  7 38  1  0
  8 39  1  0
  8 40  1  0
  9 41  1  0
  9 42  1  0
 12 43  1  0
 13 44  1  0
 14 45  1  0
 15 46  1  0
 17 47  1  6
 18 48  1  0
 20 49  1  0
 20 50  1  0
 23 51  1  1
 24 52  1  0
 24 53  1  0
 26 54  1  1
 27 55  1  1
 28 56  1  0
 28 57  1  0
 29 58  1  0
 29 59  1  0
 30 60  1  0
 30 61  1  0
 31 62  1  0
 31 63  1  0
 32 64  1  0
 32 65  1  0
M  CHG  1  31   1
M  END
>  <docking_score>  (62) 
-10.687

>  <plif_similarity>  (62) 
0.429

$$$$
