Pocket2Mol_92_num_sample_100
     RDKit          3D

  0  0  0  0  0  0  0  0  0  0999 V3000
M  V30 BEGIN CTAB
M  V30 COUNTS 18 19 0 0 1
M  V30 BEGIN ATOM
M  V30 1 C 39.200731 28.156853 51.069733 0
M  V30 2 C 38.865413 28.364285 52.422825 0
M  V30 3 C 39.199340 29.586723 53.053512 0
M  V30 4 C 38.199106 27.358303 53.149787 0
M  V30 5 C 37.867406 27.569226 54.501972 0
M  V30 6 C 39.867403 30.591415 52.328159 0
M  V30 7 C 38.864472 29.795248 54.406259 0
M  V30 8 C 39.867405 29.166354 50.347566 0
M  V30 9 C 38.199555 28.786851 55.129633 0
M  V30 10 C 40.202753 30.381185 50.976331 0
M  V30 11 H 38.946594 27.224979 50.585059 0
M  V30 12 H 37.941384 26.425200 52.671521 0
M  V30 13 H 37.356068 26.797532 55.058244 0
M  V30 14 H 40.123328 31.524886 52.806954 0
M  V30 15 H 39.117676 30.727823 54.889830 0
M  V30 16 H 40.122825 29.008816 49.310854 0
M  V30 17 H 37.942346 28.947449 56.166652 0
M  V30 18 H 40.714838 31.153937 50.420874 0
M  V30 END ATOM
M  V30 BEGIN BOND
M  V30 1 1 2 1
M  V30 2 1 3 2
M  V30 3 2 4 2
M  V30 4 1 5 4
M  V30 5 1 6 3
M  V30 6 2 7 3
M  V30 7 2 8 1
M  V30 8 2 9 5
M  V30 9 1 9 7
M  V30 10 2 10 6
M  V30 11 1 10 8
M  V30 12 1 11 1
M  V30 13 1 12 4
M  V30 14 1 13 5
M  V30 15 1 14 6
M  V30 16 1 15 7
M  V30 17 1 16 8
M  V30 18 1 17 9
M  V30 19 1 18 10
M  V30 END BOND
M  V30 END CTAB
M  END
>  <i_epik_Tot_Q>  (1) 
0

>  <i_epik_Tot_abs_Q>  (1) 
0

>  <i_i_glide_confnum>  (1) 
1

>  <i_i_glide_lignum>  (1) 
97

>  <i_i_glide_posenum>  (1) 
323

>  <i_i_glide_rotatable_bonds>  (1) 
0

>  <i_lp_mmshare_version>  (1) 
72125

>  <i_m_source_file_index>  (1) 
93

>  <i_f3d_flags>  (1) 
0

>  <num_sample>  (1) 
100

>  <b_lp_Chiralities_Consistent>  (1) 
1

>  <r_epik_Charging_Adjusted_Penalty>  (1) 
0

>  <r_epik_Ionization_Penalty>  (1) 
0

>  <r_epik_Ionization_Penalty_Charging>  (1) 
0

>  <r_epik_Ionization_Penalty_Neutral>  (1) 
0

>  <r_epik_State_Penalty>  (1) 
-0

>  <r_glide_ring_energy>  (1) 
0

>  <r_i_docking_score>  (1) 
-6.7979900479530828

>  <r_i_glide_ecoul>  (1) 
-1.2319509663364794

>  <r_i_glide_eff_state_penalty>  (1) 
-0

>  <r_i_glide_einternal>  (1) 
0

>  <r_i_glide_emodel>  (1) 
-30.644218287187684

>  <r_i_glide_emodel_strain>  (1) 
0

>  <r_i_glide_energy>  (1) 
-21.672107980983885

>  <r_i_glide_erotb>  (1) 
0

>  <r_i_glide_esite>  (1) 
0

>  <r_i_glide_evdw>  (1) 
-20.440157014647404

>  <r_i_glide_gscore>  (1) 
-6.7979900479530828

>  <r_i_glide_gscore_strain>  (1) 
0

>  <r_i_glide_hbond>  (1) 
0

>  <r_i_glide_ligand_efficiency>  (1) 
-0.6797990047953083

>  <r_i_glide_ligand_efficiency_ln>  (1) 
-2.0583845250116433

>  <r_i_glide_ligand_efficiency_sa>  (1) 
-1.4645825581801633

>  <r_i_glide_lipo>  (1) 
-2.7828159179352947

>  <r_i_glide_metal>  (1) 
-0

>  <r_i_glide_rewards>  (1) 
-2.8083736343349459

>  <r_lp_Energy>  (1) 
18.967330999999998

>  <r_lp_tautomer_probability>  (1) 
1

>  <s_epik_cmdline>  (1) 
J2VwaWtfcHl0aG9uJywgJy1waHQnLCAnMS4wJywgJy1waCcsICc3LjQnLCAnLXRuJywgJzgnLCAnLW1hJywgJzUwMCcsICctaW1hZScsICc8aW5maWxlLm1hZT4nLCAnLW9tYWUnLCAnPG91dGZpbGUubWFlPic=

>  <s_epik_input>  (1) 
W2NIXTFbY0hdW2NIXVtjSF1jKGMxMilbY0hdW2NIXVtjSF1bY0hdMg==

>  <s_glide_docking_method>  (1) 
confgen

>  <s_i_glide_gridfile>  (1) 
gpcr_5ht2c_6bqh_protein_autoprepared_prepared

>  <s_lp_Force_Field>  (1) 
S-OPLS

>  <s_lp_Variant>  (1) 
Pocket2Mol_92_num_sample_100-1

>  <s_m_source_file>  (1) 
generated__ligand_Pocket2Mol_2026-05-06_prepared.sdf

>  <GenAI_Model>  (1) 
Pocket2Mol

>  <Protein>  (1) 
GPCR_5HT2C

$$$$
Pocket2Mol_97_num_sample_100
     RDKit          3D

  0  0  0  0  0  0  0  0  0  0999 V3000
M  V30 BEGIN CTAB
M  V30 COUNTS 17 18 0 0 1
M  V30 BEGIN ATOM
M  V30 1 C 39.867441 30.425940 52.382635 0
M  V30 2 C 39.072046 29.481971 53.055494 0
M  V30 3 C 38.677734 28.298896 52.409797 0
M  V30 4 C 38.660193 29.697987 54.375365 0
M  V30 5 C 37.867404 28.719186 55.001157 0
M  V30 6 C 39.073621 28.051627 51.080589 0
M  V30 7 C 39.867405 29.000482 50.400938 0
M  V30 8 C 37.884952 27.375799 53.117711 0
M  V30 9 N 37.479905 27.570488 54.393256 0
M  V30 10 C 40.266514 30.185691 51.052872 0
M  V30 11 H 40.170321 31.334062 52.881623 0
M  V30 12 H 38.942897 30.596535 54.903174 0
M  V30 13 H 37.533699 28.858049 56.019019 0
M  V30 14 H 38.769649 27.141421 50.582124 0
M  V30 15 H 40.171001 28.821425 49.381342 0
M  V30 16 H 37.566639 26.456049 52.653503 0
M  V30 17 H 40.875855 30.911018 50.531787 0
M  V30 END ATOM
M  V30 BEGIN BOND
M  V30 1 2 2 1
M  V30 2 1 3 2
M  V30 3 1 4 2
M  V30 4 2 5 4
M  V30 5 2 6 3
M  V30 6 1 7 6
M  V30 7 1 8 3
M  V30 8 1 9 5
M  V30 9 2 9 8
M  V30 10 1 10 1
M  V30 11 2 10 7
M  V30 12 1 11 1
M  V30 13 1 12 4
M  V30 14 1 13 5
M  V30 15 1 14 6
M  V30 16 1 15 7
M  V30 17 1 16 8
M  V30 18 1 17 10
M  V30 END BOND
M  V30 END CTAB
M  END
>  <i_epik_Tot_Q>  (1) 
0

>  <i_epik_Tot_abs_Q>  (1) 
0

>  <i_i_glide_confnum>  (1) 
1

>  <i_i_glide_lignum>  (1) 
102

>  <i_i_glide_posenum>  (1) 
92

>  <i_i_glide_rotatable_bonds>  (1) 
0

>  <i_lp_mmshare_version>  (1) 
72125

>  <i_m_source_file_index>  (1) 
98

>  <i_f3d_flags>  (1) 
0

>  <num_sample>  (1) 
100

>  <b_lp_Chiralities_Consistent>  (1) 
1

>  <r_epik_Charging_Adjusted_Penalty>  (1) 
0.015036794032578672

>  <r_epik_Ionization_Penalty>  (1) 
0.01503679403257876

>  <r_epik_Ionization_Penalty_Charging>  (1) 
0

>  <r_epik_Ionization_Penalty_Neutral>  (1) 
0.01503679403257876

>  <r_epik_State_Penalty>  (1) 
0.015036794032578672

>  <r_glide_ring_energy>  (1) 
0

>  <r_i_docking_score>  (1) 
-6.6842585611020642

>  <r_i_glide_ecoul>  (1) 
-1.715514389920346

>  <r_i_glide_eff_state_penalty>  (1) 
0.015036794032578672

>  <r_i_glide_einternal>  (1) 
0

>  <r_i_glide_emodel>  (1) 
-31.834211698739839

>  <r_i_glide_emodel_strain>  (1) 
0

>  <r_i_glide_energy>  (1) 
-22.537723631099666

>  <r_i_glide_erotb>  (1) 
0

>  <r_i_glide_esite>  (1) 
0

>  <r_i_glide_evdw>  (1) 
-20.822209241179319

>  <r_i_glide_gscore>  (1) 
-6.6992953551346428

>  <r_i_glide_gscore_strain>  (1) 
0

>  <r_i_glide_hbond>  (1) 
0

>  <r_i_glide_ligand_efficiency>  (1) 
-0.66842585611020644

>  <r_i_glide_ligand_efficiency_ln>  (1) 
-2.0239474147938679

>  <r_i_glide_ligand_efficiency_sa>  (1) 
-1.4400798521180893

>  <r_i_glide_lipo>  (1) 
-2.5169175304253688

>  <r_i_glide_metal>  (1) 
-0

>  <r_i_glide_rewards>  (1) 
-2.8839402041622555

>  <r_lp_Energy>  (1) 
19.776892999999998

>  <s_epik_cmdline>  (1) 
J2VwaWtfcHl0aG9uJywgJy1waHQnLCAnMS4wJywgJy1waCcsICc3LjQnLCAnLXRuJywgJzgnLCAnLW1hJywgJzUwMCcsICctaW1hZScsICc8aW5maWxlLm1hZT4nLCAnLW9tYWUnLCAnPG91dGZpbGUubWFlPic=

>  <s_epik_input>  (1) 
W2NIXTFbY0hdW2NIXVtjSF1jKGMxMilbY0hdbltjSF1bY0hdMg==

>  <s_glide_docking_method>  (1) 
confgen

>  <s_i_glide_gridfile>  (1) 
gpcr_5ht2c_6bqh_protein_autoprepared_prepared

>  <s_lp_Force_Field>  (1) 
S-OPLS

>  <s_lp_Variant>  (1) 
Pocket2Mol_97_num_sample_100-1

>  <s_m_source_file>  (1) 
generated__ligand_Pocket2Mol_2026-05-06_prepared.sdf

>  <GenAI_Model>  (1) 
Pocket2Mol

>  <Protein>  (1) 
GPCR_5HT2C

$$$$
Pocket2Mol_72_num_sample_100
     RDKit          3D

  0  0  0  0  0  0  0  0  0  0999 V3000
M  V30 BEGIN CTAB
M  V30 COUNTS 15 16 0 0 1
M  V30 BEGIN ATOM
M  V30 1 C 39.867412 30.421311 52.460204 0
M  V30 2 C 39.092458 29.405776 53.117545 0
M  V30 3 C 38.720373 28.215466 52.490682 0
M  V30 4 C 38.634074 29.380686 54.298126 0
M  V30 5 C 39.134555 28.008403 51.115166 0
M  V30 6 C 37.961598 28.139321 54.405992 0
M  V30 7 C 39.867403 28.966104 50.481101 0
M  V30 8 C 37.996835 27.380557 53.279492 0
M  V30 9 C 40.248284 30.214364 51.178792 0
M  V30 10 H 40.140168 31.328993 52.977347 0
M  V30 11 H 38.737181 30.140055 55.059572 0
M  V30 12 H 38.861769 27.099738 50.596405 0
M  V30 13 H 37.467404 27.831115 55.313746 0
M  V30 14 H 40.173588 28.814482 49.456936 0
M  V30 15 H 40.831518 30.963361 50.662579 0
M  V30 END ATOM
M  V30 BEGIN BOND
M  V30 1 1 2 1
M  V30 2 1 3 2
M  V30 3 2 4 2
M  V30 4 1 5 3
M  V30 5 1 6 4
M  V30 6 2 7 5
M  V30 7 2 8 3
M  V30 8 2 8 6
M  V30 9 2 9 1
M  V30 10 1 9 7
M  V30 11 1 10 1
M  V30 12 1 11 4
M  V30 13 1 12 5
M  V30 14 1 13 6
M  V30 15 1 14 7
M  V30 16 1 15 9
M  V30 END BOND
M  V30 END CTAB
M  END
>  <i_epik_Tot_Q>  (1) 
0

>  <i_epik_Tot_abs_Q>  (1) 
0

>  <i_i_glide_confnum>  (1) 
1

>  <i_i_glide_lignum>  (1) 
77

>  <i_i_glide_posenum>  (1) 
280

>  <i_i_glide_rotatable_bonds>  (1) 
0

>  <i_lp_mmshare_version>  (1) 
72125

>  <i_m_source_file_index>  (1) 
73

>  <i_f3d_flags>  (1) 
0

>  <num_sample>  (1) 
100

>  <b_lp_Chiralities_Consistent>  (1) 
1

>  <r_epik_Charging_Adjusted_Penalty>  (1) 
0

>  <r_epik_Ionization_Penalty>  (1) 
0

>  <r_epik_Ionization_Penalty_Charging>  (1) 
0

>  <r_epik_Ionization_Penalty_Neutral>  (1) 
0

>  <r_epik_State_Penalty>  (1) 
-0

>  <r_glide_ring_energy>  (1) 
0

>  <r_i_docking_score>  (1) 
-6.6453012763583859

>  <r_i_glide_ecoul>  (1) 
-0.78437277153218776

>  <r_i_glide_eff_state_penalty>  (1) 
-0

>  <r_i_glide_einternal>  (1) 
0

>  <r_i_glide_emodel>  (1) 
-30.693894183439127

>  <r_i_glide_emodel_strain>  (1) 
0

>  <r_i_glide_energy>  (1) 
-21.872249435785562

>  <r_i_glide_erotb>  (1) 
0

>  <r_i_glide_esite>  (1) 
0

>  <r_i_glide_evdw>  (1) 
-21.087876664253375

>  <r_i_glide_gscore>  (1) 
-6.6453012763583859

>  <r_i_glide_gscore_strain>  (1) 
0

>  <r_i_glide_hbond>  (1) 
0

>  <r_i_glide_ligand_efficiency>  (1) 
-0.73836680848426506

>  <r_i_glide_ligand_efficiency_ln>  (1) 
-2.0784593373465636

>  <r_i_glide_ligand_efficiency_sa>  (1) 
-1.5358648538065836

>  <r_i_glide_lipo>  (1) 
-2.6690919131768895

>  <r_i_glide_metal>  (1) 
-0

>  <r_i_glide_rewards>  (1) 
-2.804159614239

>  <r_lp_Energy>  (1) 
11.424324

>  <r_lp_tautomer_probability>  (1) 
1

>  <s_epik_cmdline>  (1) 
J2VwaWtfcHl0aG9uJywgJy1waHQnLCAnMS4wJywgJy1waCcsICc3LjQnLCAnLXRuJywgJzgnLCAnLW1hJywgJzUwMCcsICctaW1hZScsICc8aW5maWxlLm1hZT4nLCAnLW9tYWUnLCAnPG91dGZpbGUubWFlPic=

>  <s_epik_input>  (1) 
W2NIXTFbY0hdW2NIXVtjSF1jKGMxPTIpPUM9W0NIXVtDSF0y

>  <s_glide_docking_method>  (1) 
confgen

>  <s_i_glide_gridfile>  (1) 
gpcr_5ht2c_6bqh_protein_autoprepared_prepared

>  <s_lp_Force_Field>  (1) 
S-OPLS

>  <s_lp_Variant>  (1) 
Pocket2Mol_72_num_sample_100-1

>  <s_m_source_file>  (1) 
generated__ligand_Pocket2Mol_2026-05-06_prepared.sdf

>  <GenAI_Model>  (1) 
Pocket2Mol

>  <Protein>  (1) 
GPCR_5HT2C

$$$$
Pocket2Mol_89_num_sample_100
     RDKit          3D

  0  0  0  0  0  0  0  0  0  0999 V3000
M  V30 BEGIN CTAB
M  V30 COUNTS 17 18 0 0 1
M  V30 BEGIN ATOM
M  V30 1 C 38.072748 27.479909 53.317034 0
M  V30 2 C 38.774795 28.275343 52.452736 0
M  V30 3 C 39.120424 28.014290 51.124696 0
M  V30 4 C 39.867412 28.993502 50.423709 0
M  V30 5 C 40.244744 30.203025 51.080147 0
M  V30 6 C 39.127171 29.429715 53.089805 0
M  V30 7 C 38.642739 29.521541 54.582101 0
M  V30 8 C 39.867417 30.421428 52.431815 0
M  V30 9 C 37.971211 28.096122 54.486428 0
M  V30 10 H 37.683484 26.506921 53.053623 0
M  V30 11 H 38.828021 27.090502 50.646018 0
M  V30 12 H 40.151118 28.824831 49.396938 0
M  V30 13 H 40.815287 30.952164 50.549848 0
M  V30 14 H 37.918210 30.319518 54.748649 0
M  V30 15 H 39.465261 29.555471 55.296803 0
M  V30 16 H 40.145452 31.331483 52.941593 0
M  V30 17 H 37.467413 27.671974 55.340300 0
M  V30 END ATOM
M  V30 BEGIN BOND
M  V30 1 1 2 1
M  V30 2 2 3 2
M  V30 3 1 4 3
M  V30 4 2 5 4
M  V30 5 1 6 2
M  V30 6 1 7 6
M  V30 7 1 8 5
M  V30 8 2 8 6
M  V30 9 2 9 1
M  V30 10 1 9 7
M  V30 11 1 10 1
M  V30 12 1 11 3
M  V30 13 1 12 4
M  V30 14 1 13 5
M  V30 15 1 14 7
M  V30 16 1 15 7
M  V30 17 1 16 8
M  V30 18 1 17 9
M  V30 END BOND
M  V30 END CTAB
M  END
>  <i_epik_Tot_Q>  (1) 
0

>  <i_epik_Tot_abs_Q>  (1) 
0

>  <i_i_glide_confnum>  (1) 
1

>  <i_i_glide_lignum>  (1) 
94

>  <i_i_glide_posenum>  (1) 
17

>  <i_i_glide_rotatable_bonds>  (1) 
0

>  <i_lp_mmshare_version>  (1) 
72125

>  <i_m_source_file_index>  (1) 
90

>  <i_f3d_flags>  (1) 
0

>  <num_sample>  (1) 
100

>  <b_lp_Chiralities_Consistent>  (1) 
1

>  <r_epik_Charging_Adjusted_Penalty>  (1) 
0

>  <r_epik_Ionization_Penalty>  (1) 
0

>  <r_epik_Ionization_Penalty_Charging>  (1) 
0

>  <r_epik_Ionization_Penalty_Neutral>  (1) 
0

>  <r_epik_State_Penalty>  (1) 
-0

>  <r_glide_ring_energy>  (1) 
0

>  <r_i_docking_score>  (1) 
-6.6232647853085771

>  <r_i_glide_ecoul>  (1) 
-1.0687471911216149

>  <r_i_glide_eff_state_penalty>  (1) 
-0

>  <r_i_glide_einternal>  (1) 
0

>  <r_i_glide_emodel>  (1) 
-29.783753870945965

>  <r_i_glide_emodel_strain>  (1) 
0

>  <r_i_glide_energy>  (1) 
-21.1941481729638

>  <r_i_glide_erotb>  (1) 
0

>  <r_i_glide_esite>  (1) 
0

>  <r_i_glide_evdw>  (1) 
-20.125400981842184

>  <r_i_glide_gscore>  (1) 
-6.6232647853085771

>  <r_i_glide_gscore_strain>  (1) 
0

>  <r_i_glide_hbond>  (1) 
0

>  <r_i_glide_ligand_efficiency>  (1) 
-0.73591830947873083

>  <r_i_glide_ligand_efficiency_ln>  (1) 
-2.0715669559961838

>  <r_i_glide_ligand_efficiency_sa>  (1) 
-1.5307717706344128

>  <r_i_glide_lipo>  (1) 
-2.6311904681864133

>  <r_i_glide_metal>  (1) 
-0

>  <r_i_glide_rewards>  (1) 
-2.8254921893618121

>  <r_lp_Energy>  (1) 
7.8773689999999998

>  <r_lp_tautomer_probability>  (1) 
1

>  <s_epik_cmdline>  (1) 
J2VwaWtfcHl0aG9uJywgJy1waHQnLCAnMS4wJywgJy1waCcsICc3LjQnLCAnLXRuJywgJzgnLCAnLW1hJywgJzUwMCcsICctaW1hZScsICc8aW5maWxlLm1hZT4nLCAnLW9tYWUnLCAnPG91dGZpbGUubWFlPic=

>  <s_epik_input>  (1) 
W0NIXTE9W0NIXVtDSDJdYyhjMTIpW2NIXVtjSF1bY0hdW2NIXTI=

>  <s_glide_docking_method>  (1) 
confgen

>  <s_i_glide_gridfile>  (1) 
gpcr_5ht2c_6bqh_protein_autoprepared_prepared

>  <s_lp_Force_Field>  (1) 
S-OPLS

>  <s_lp_Variant>  (1) 
Pocket2Mol_89_num_sample_100-1

>  <s_m_source_file>  (1) 
generated__ligand_Pocket2Mol_2026-05-06_prepared.sdf

>  <GenAI_Model>  (1) 
Pocket2Mol

>  <Protein>  (1) 
GPCR_5HT2C

$$$$
Pocket2Mol_72_num_sample_100
     RDKit          3D

  0  0  0  0  0  0  0  0  0  0999 V3000
M  V30 BEGIN CTAB
M  V30 COUNTS 15 16 0 0 1
M  V30 BEGIN ATOM
M  V30 1 C 39.118255 28.064771 51.126759 0
M  V30 2 C 38.733278 28.293900 52.494497 0
M  V30 3 C 39.086493 29.449009 53.192188 0
M  V30 4 C 38.052235 27.564149 53.278145 0
M  V30 5 C 39.867895 30.454138 52.499617 0
M  V30 6 C 37.991303 28.286998 54.495966 0
M  V30 7 C 40.235792 30.250772 51.205283 0
M  V30 8 C 38.639333 29.480425 54.473382 0
M  V30 9 C 39.850722 29.012639 50.495919 0
M  V30 10 H 38.829825 27.157164 50.614830 0
M  V30 11 H 37.613544 26.602135 53.065811 0
M  V30 12 H 40.154720 31.360231 53.008366 0
M  V30 13 H 37.467405 27.911527 55.365334 0
M  V30 14 H 40.812854 31.005951 50.691791 0
M  V30 15 H 40.150614 28.867514 49.469084 0
M  V30 END ATOM
M  V30 BEGIN BOND
M  V30 1 1 2 1
M  V30 2 1 3 2
M  V30 3 2 4 2
M  V30 4 1 5 3
M  V30 5 1 6 4
M  V30 6 2 7 5
M  V30 7 2 8 3
M  V30 8 2 8 6
M  V30 9 2 9 1
M  V30 10 1 9 7
M  V30 11 1 10 1
M  V30 12 1 11 4
M  V30 13 1 12 5
M  V30 14 1 13 6
M  V30 15 1 14 7
M  V30 16 1 15 9
M  V30 END BOND
M  V30 END CTAB
M  END
>  <i_epik_Tot_Q>  (1) 
0

>  <i_epik_Tot_abs_Q>  (1) 
0

>  <i_i_glide_confnum>  (1) 
1

>  <i_i_glide_lignum>  (1) 
77

>  <i_i_glide_posenum>  (1) 
297

>  <i_i_glide_rotatable_bonds>  (1) 
0

>  <i_lp_mmshare_version>  (1) 
72125

>  <i_m_source_file_index>  (1) 
73

>  <i_f3d_flags>  (1) 
0

>  <num_sample>  (1) 
100

>  <b_lp_Chiralities_Consistent>  (1) 
1

>  <r_epik_Charging_Adjusted_Penalty>  (1) 
0

>  <r_epik_Ionization_Penalty>  (1) 
0

>  <r_epik_Ionization_Penalty_Charging>  (1) 
0

>  <r_epik_Ionization_Penalty_Neutral>  (1) 
0

>  <r_epik_State_Penalty>  (1) 
-0

>  <r_glide_ring_energy>  (1) 
0

>  <r_i_docking_score>  (1) 
-6.6141128244373091

>  <r_i_glide_ecoul>  (1) 
-0.9471827655262659

>  <r_i_glide_eff_state_penalty>  (1) 
-0

>  <r_i_glide_einternal>  (1) 
0

>  <r_i_glide_emodel>  (1) 
-30.807834413125278

>  <r_i_glide_emodel_strain>  (1) 
0

>  <r_i_glide_energy>  (1) 
-22.027592369673524

>  <r_i_glide_erotb>  (1) 
0

>  <r_i_glide_esite>  (1) 
0

>  <r_i_glide_evdw>  (1) 
-21.08040960414726

>  <r_i_glide_gscore>  (1) 
-6.6141128244373091

>  <r_i_glide_gscore_strain>  (1) 
0

>  <r_i_glide_hbond>  (1) 
0

>  <r_i_glide_ligand_efficiency>  (1) 
-0.73490142493747879

>  <r_i_glide_ligand_efficiency_ln>  (1) 
-2.0687044855472378

>  <r_i_glide_ligand_efficiency_sa>  (1) 
-1.5286565655502431

>  <r_i_glide_lipo>  (1) 
-2.6336590102347812

>  <r_i_glide_metal>  (1) 
-0

>  <r_i_glide_rewards>  (1) 
-2.7843559191662246

>  <r_lp_Energy>  (1) 
11.424324

>  <r_lp_tautomer_probability>  (1) 
1

>  <s_epik_cmdline>  (1) 
J2VwaWtfcHl0aG9uJywgJy1waHQnLCAnMS4wJywgJy1waCcsICc3LjQnLCAnLXRuJywgJzgnLCAnLW1hJywgJzUwMCcsICctaW1hZScsICc8aW5maWxlLm1hZT4nLCAnLW9tYWUnLCAnPG91dGZpbGUubWFlPic=

>  <s_epik_input>  (1) 
W2NIXTFbY0hdW2NIXVtjSF1jKGMxPTIpPUM9W0NIXVtDSF0y

>  <s_glide_docking_method>  (1) 
confgen

>  <s_i_glide_gridfile>  (1) 
gpcr_5ht2c_6bqh_protein_autoprepared_prepared

>  <s_lp_Force_Field>  (1) 
S-OPLS

>  <s_lp_Variant>  (1) 
Pocket2Mol_72_num_sample_100-1

>  <s_m_source_file>  (1) 
generated__ligand_Pocket2Mol_2026-05-06_prepared.sdf

>  <GenAI_Model>  (1) 
Pocket2Mol

>  <Protein>  (1) 
GPCR_5HT2C

$$$$
Pocket2Mol_97_num_sample_100
     RDKit          3D

  0  0  0  0  0  0  0  0  0  0999 V3000
M  V30 BEGIN CTAB
M  V30 COUNTS 17 18 0 0 1
M  V30 BEGIN ATOM
M  V30 1 C 39.186205 28.173089 51.068291 0
M  V30 2 C 38.848675 28.345299 52.423789 0
M  V30 3 C 39.187123 29.533116 53.092132 0
M  V30 4 C 38.173759 27.344807 53.133717 0
M  V30 5 C 37.867404 27.569603 54.489048 0
M  V30 6 C 39.867407 30.559583 52.411292 0
M  V30 7 C 40.210101 30.392401 51.053484 0
M  V30 8 C 38.835659 29.670500 54.448762 0
M  V30 9 N 38.189517 28.708469 55.149261 0
M  V30 10 C 39.867404 29.199901 50.381574 0
M  V30 11 H 38.924439 27.259171 50.555072 0
M  V30 12 H 37.892698 26.421431 52.653504 0
M  V30 13 H 37.347351 26.815872 55.061758 0
M  V30 14 H 40.127473 31.473012 52.925679 0
M  V30 15 H 40.732375 31.179187 50.527111 0
M  V30 16 H 39.082311 30.572401 54.989870 0
M  V30 17 H 40.126945 29.073929 49.341234 0
M  V30 END ATOM
M  V30 BEGIN BOND
M  V30 1 2 2 1
M  V30 2 1 3 2
M  V30 3 1 4 2
M  V30 4 2 5 4
M  V30 5 2 6 3
M  V30 6 1 7 6
M  V30 7 1 8 3
M  V30 8 1 9 5
M  V30 9 2 9 8
M  V30 10 1 10 1
M  V30 11 2 10 7
M  V30 12 1 11 1
M  V30 13 1 12 4
M  V30 14 1 13 5
M  V30 15 1 14 6
M  V30 16 1 15 7
M  V30 17 1 16 8
M  V30 18 1 17 10
M  V30 END BOND
M  V30 END CTAB
M  END
>  <i_epik_Tot_Q>  (1) 
0

>  <i_epik_Tot_abs_Q>  (1) 
0

>  <i_i_glide_confnum>  (1) 
1

>  <i_i_glide_lignum>  (1) 
102

>  <i_i_glide_posenum>  (1) 
120

>  <i_i_glide_rotatable_bonds>  (1) 
0

>  <i_lp_mmshare_version>  (1) 
72125

>  <i_m_source_file_index>  (1) 
98

>  <i_f3d_flags>  (1) 
0

>  <num_sample>  (1) 
100

>  <b_lp_Chiralities_Consistent>  (1) 
1

>  <r_epik_Charging_Adjusted_Penalty>  (1) 
0.015036794032578672

>  <r_epik_Ionization_Penalty>  (1) 
0.01503679403257876

>  <r_epik_Ionization_Penalty_Charging>  (1) 
0

>  <r_epik_Ionization_Penalty_Neutral>  (1) 
0.01503679403257876

>  <r_epik_State_Penalty>  (1) 
0.015036794032578672

>  <r_glide_ring_energy>  (1) 
0

>  <r_i_docking_score>  (1) 
-6.6036212408502371

>  <r_i_glide_ecoul>  (1) 
-1.0893721876313762

>  <r_i_glide_eff_state_penalty>  (1) 
0.015036794032578672

>  <r_i_glide_einternal>  (1) 
0

>  <r_i_glide_emodel>  (1) 
-31.002159023137807

>  <r_i_glide_emodel_strain>  (1) 
1.0832046370978787e-10

>  <r_i_glide_energy>  (1) 
-21.817569871206537

>  <r_i_glide_erotb>  (1) 
0

>  <r_i_glide_esite>  (1) 
0

>  <r_i_glide_evdw>  (1) 
-20.728197683575161

>  <r_i_glide_gscore>  (1) 
-6.6186580348828157

>  <r_i_glide_gscore_strain>  (1) 
0

>  <r_i_glide_hbond>  (1) 
0

>  <r_i_glide_ligand_efficiency>  (1) 
-0.66036212408502371

>  <r_i_glide_ligand_efficiency_ln>  (1) 
-1.9995309900898115

>  <r_i_glide_ligand_efficiency_sa>  (1) 
-1.4227070681119145

>  <r_i_glide_lipo>  (1) 
-2.6457496118098702

>  <r_i_glide_metal>  (1) 
-0

>  <r_i_glide_rewards>  (1) 
-2.7730927107494807

>  <r_lp_Energy>  (1) 
19.776892999999998

>  <s_epik_cmdline>  (1) 
J2VwaWtfcHl0aG9uJywgJy1waHQnLCAnMS4wJywgJy1waCcsICc3LjQnLCAnLXRuJywgJzgnLCAnLW1hJywgJzUwMCcsICctaW1hZScsICc8aW5maWxlLm1hZT4nLCAnLW9tYWUnLCAnPG91dGZpbGUubWFlPic=

>  <s_epik_input>  (1) 
W2NIXTFbY0hdW2NIXVtjSF1jKGMxMilbY0hdbltjSF1bY0hdMg==

>  <s_glide_docking_method>  (1) 
confgen

>  <s_i_glide_gridfile>  (1) 
gpcr_5ht2c_6bqh_protein_autoprepared_prepared

>  <s_lp_Force_Field>  (1) 
S-OPLS

>  <s_lp_Variant>  (1) 
Pocket2Mol_97_num_sample_100-1

>  <s_m_source_file>  (1) 
generated__ligand_Pocket2Mol_2026-05-06_prepared.sdf

>  <GenAI_Model>  (1) 
Pocket2Mol

>  <Protein>  (1) 
GPCR_5HT2C

$$$$
Pocket2Mol_68_num_sample_100
     RDKit          3D

  0  0  0  0  0  0  0  0  0  0999 V3000
M  V30 BEGIN CTAB
M  V30 COUNTS 19 20 0 0 1
M  V30 BEGIN ATOM
M  V30 1 C 38.094354 27.352796 53.352649 0
M  V30 2 C 38.829660 28.309073 52.490025 0
M  V30 3 C 39.165594 28.035236 51.153310 0
M  V30 4 C 39.867459 29.010990 50.408824 0
M  V30 5 C 40.220587 30.239387 51.017845 0
M  V30 6 C 39.166773 29.487714 53.074310 0
M  V30 7 C 38.749700 29.645717 54.489425 0
M  V30 8 C 37.919069 28.295043 54.622573 0
M  V30 9 C 39.867446 30.478411 52.365319 0
M  V30 10 H 37.140794 27.054201 52.920110 0
M  V30 11 H 38.706745 26.472981 53.557066 0
M  V30 12 H 38.890098 27.093199 50.699784 0
M  V30 13 H 40.130342 28.822343 49.379997 0
M  V30 14 H 40.753030 30.991768 50.455122 0
M  V30 15 H 39.619744 29.669353 55.146360 0
M  V30 16 H 38.136258 30.533675 54.646707 0
M  V30 17 H 36.870542 28.586793 54.653499 0
M  V30 18 H 38.111230 27.772439 55.560444 0
M  V30 19 H 40.127282 31.411261 52.840958 0
M  V30 END ATOM
M  V30 BEGIN BOND
M  V30 1 1 2 1
M  V30 2 2 3 2
M  V30 3 1 4 3
M  V30 4 2 5 4
M  V30 5 1 6 2
M  V30 6 1 7 6
M  V30 7 1 8 1
M  V30 8 1 8 7
M  V30 9 1 9 5
M  V30 10 2 9 6
M  V30 11 1 10 1
M  V30 12 1 11 1
M  V30 13 1 12 3
M  V30 14 1 13 4
M  V30 15 1 14 5
M  V30 16 1 15 7
M  V30 17 1 16 7
M  V30 18 1 17 8
M  V30 19 1 18 8
M  V30 20 1 19 9
M  V30 END BOND
M  V30 END CTAB
M  END
>  <i_epik_Tot_Q>  (1) 
0

>  <i_epik_Tot_abs_Q>  (1) 
0

>  <i_i_glide_confnum>  (1) 
1

>  <i_i_glide_lignum>  (1) 
73

>  <i_i_glide_posenum>  (1) 
33

>  <i_i_glide_rotatable_bonds>  (1) 
0

>  <i_lp_mmshare_version>  (1) 
72125

>  <i_m_source_file_index>  (1) 
69

>  <i_f3d_flags>  (1) 
0

>  <num_sample>  (1) 
100

>  <b_lp_Chiralities_Consistent>  (1) 
1

>  <r_epik_Charging_Adjusted_Penalty>  (1) 
0

>  <r_epik_Ionization_Penalty>  (1) 
0

>  <r_epik_Ionization_Penalty_Charging>  (1) 
0

>  <r_epik_Ionization_Penalty_Neutral>  (1) 
0

>  <r_epik_State_Penalty>  (1) 
-0

>  <r_glide_ring_energy>  (1) 
0

>  <r_i_docking_score>  (1) 
-6.5557490829869227

>  <r_i_glide_ecoul>  (1) 
-1.043768792742868

>  <r_i_glide_eff_state_penalty>  (1) 
-0

>  <r_i_glide_einternal>  (1) 
0

>  <r_i_glide_emodel>  (1) 
-29.335136044571957

>  <r_i_glide_emodel_strain>  (1) 
0.0005629290564179712

>  <r_i_glide_energy>  (1) 
-20.703820141924098

>  <r_i_glide_erotb>  (1) 
0

>  <r_i_glide_esite>  (1) 
0

>  <r_i_glide_evdw>  (1) 
-19.660051349181231

>  <r_i_glide_gscore>  (1) 
-6.5557490829869227

>  <r_i_glide_gscore_strain>  (1) 
0

>  <r_i_glide_hbond>  (1) 
0

>  <r_i_glide_ligand_efficiency>  (1) 
-0.72841656477632477

>  <r_i_glide_ligand_efficiency_ln>  (1) 
-2.050449983857209

>  <r_i_glide_ligand_efficiency_sa>  (1) 
-1.5151675128342728

>  <r_i_glide_lipo>  (1) 
-2.5994471185924479

>  <r_i_glide_metal>  (1) 
-0

>  <r_i_glide_rewards>  (1) 
-2.8167340780239831

>  <r_lp_Energy>  (1) 
13.687139

>  <r_lp_tautomer_probability>  (1) 
1

>  <s_epik_cmdline>  (1) 
J2VwaWtfcHl0aG9uJywgJy1waHQnLCAnMS4wJywgJy1waCcsICc3LjQnLCAnLXRuJywgJzgnLCAnLW1hJywgJzUwMCcsICctaW1hZScsICc8aW5maWxlLm1hZT4nLCAnLW9tYWUnLCAnPG91dGZpbGUubWFlPic=

>  <s_epik_input>  (1) 
W0NIMl0xW0NIMl1bQ0gyXWMoYzEyKVtjSF1bY0hdW2NIXVtjSF0y

>  <s_glide_docking_method>  (1) 
confgen

>  <s_i_glide_gridfile>  (1) 
gpcr_5ht2c_6bqh_protein_autoprepared_prepared

>  <s_lp_Force_Field>  (1) 
S-OPLS

>  <s_lp_Variant>  (1) 
Pocket2Mol_68_num_sample_100-1

>  <s_m_source_file>  (1) 
generated__ligand_Pocket2Mol_2026-05-06_prepared.sdf

>  <GenAI_Model>  (1) 
Pocket2Mol

>  <Protein>  (1) 
GPCR_5HT2C

$$$$
Pocket2Mol_93_num_sample_100
     RDKit          3D

  0  0  0  0  0  0  0  0  0  0999 V3000
M  V30 BEGIN CTAB
M  V30 COUNTS 17 18 0 0 1
M  V30 BEGIN ATOM
M  V30 1 C 39.194975 28.084831 51.111728 0
M  V30 2 C 38.857737 28.350761 52.453477 0
M  V30 3 C 39.191725 29.602194 53.057007 0
M  V30 4 C 38.185993 27.379728 53.216428 0
M  V30 5 C 39.867405 30.558820 52.268349 0
M  V30 6 N 38.874014 29.867876 54.348566 0
M  V30 7 C 37.867989 27.671293 54.547707 0
M  V30 8 C 39.867419 29.053426 50.351869 0
M  V30 9 C 38.230724 28.923912 55.067886 0
M  V30 10 C 40.204407 30.287038 50.927561 0
M  V30 11 H 38.936125 27.134406 50.665945 0
M  V30 12 H 37.920675 26.425998 52.784664 0
M  V30 13 H 40.130938 31.513063 52.699969 0
M  V30 14 H 37.354292 26.947313 55.162210 0
M  V30 15 H 40.124846 28.850139 49.323670 0
M  V30 16 H 37.998531 29.177833 56.092045 0
M  V30 17 H 40.722345 31.032853 50.340142 0
M  V30 END ATOM
M  V30 BEGIN BOND
M  V30 1 2 2 1
M  V30 2 1 3 2
M  V30 3 1 4 2
M  V30 4 2 5 3
M  V30 5 1 6 3
M  V30 6 2 7 4
M  V30 7 1 8 1
M  V30 8 2 9 6
M  V30 9 1 9 7
M  V30 10 1 10 5
M  V30 11 2 10 8
M  V30 12 1 11 1
M  V30 13 1 12 4
M  V30 14 1 13 5
M  V30 15 1 14 7
M  V30 16 1 15 8
M  V30 17 1 16 9
M  V30 18 1 17 10
M  V30 END BOND
M  V30 END CTAB
M  END
>  <i_epik_Tot_Q>  (1) 
0

>  <i_epik_Tot_abs_Q>  (1) 
0

>  <i_i_glide_confnum>  (1) 
1

>  <i_i_glide_lignum>  (1) 
98

>  <i_i_glide_posenum>  (1) 
39

>  <i_i_glide_rotatable_bonds>  (1) 
0

>  <i_lp_mmshare_version>  (1) 
72125

>  <i_m_source_file_index>  (1) 
94

>  <i_f3d_flags>  (1) 
0

>  <num_sample>  (1) 
100

>  <b_lp_Chiralities_Consistent>  (1) 
1

>  <r_epik_Charging_Adjusted_Penalty>  (1) 
0

>  <r_epik_Ionization_Penalty>  (1) 
0.0026406434276513078

>  <r_epik_Ionization_Penalty_Charging>  (1) 
0

>  <r_epik_Ionization_Penalty_Neutral>  (1) 
0.0026406434276513078

>  <r_epik_State_Penalty>  (1) 
-0

>  <r_glide_ring_energy>  (1) 
0

>  <r_i_docking_score>  (1) 
-6.5547143206443588

>  <r_i_glide_ecoul>  (1) 
-1.0556876209934243

>  <r_i_glide_eff_state_penalty>  (1) 
-0

>  <r_i_glide_einternal>  (1) 
0

>  <r_i_glide_emodel>  (1) 
-30.920743407281655

>  <r_i_glide_emodel_strain>  (1) 
0

>  <r_i_glide_energy>  (1) 
-21.91189440830151

>  <r_i_glide_erotb>  (1) 
0

>  <r_i_glide_esite>  (1) 
0

>  <r_i_glide_evdw>  (1) 
-20.856206787308086

>  <r_i_glide_gscore>  (1) 
-6.5547143206443588

>  <r_i_glide_gscore_strain>  (1) 
0

>  <r_i_glide_hbond>  (1) 
0

>  <r_i_glide_ligand_efficiency>  (1) 
-0.65547143206443592

>  <r_i_glide_ligand_efficiency_ln>  (1) 
-1.9847223117881905

>  <r_i_glide_ligand_efficiency_sa>  (1) 
-1.4121703915644981

>  <r_i_glide_lipo>  (1) 
-2.5823451334561804

>  <r_i_glide_metal>  (1) 
-0

>  <r_i_glide_rewards>  (1) 
-2.7712057046737604

>  <r_lp_Energy>  (1) 
20.260538

>  <r_lp_tautomer_probability>  (1) 
1

>  <s_epik_cmdline>  (1) 
J2VwaWtfcHl0aG9uJywgJy1waHQnLCAnMS4wJywgJy1waCcsICc3LjQnLCAnLXRuJywgJzgnLCAnLW1hJywgJzUwMCcsICctaW1hZScsICc8aW5maWxlLm1hZT4nLCAnLW9tYWUnLCAnPG91dGZpbGUubWFlPic=

>  <s_epik_input>  (1) 
W2NIXTFbY0hdW2NIXVtjSF1jKGMxMiluW2NIXVtjSF1bY0hdMg==

>  <s_glide_docking_method>  (1) 
confgen

>  <s_i_glide_gridfile>  (1) 
gpcr_5ht2c_6bqh_protein_autoprepared_prepared

>  <s_lp_Force_Field>  (1) 
S-OPLS

>  <s_lp_Variant>  (1) 
Pocket2Mol_93_num_sample_100-1

>  <s_m_source_file>  (1) 
generated__ligand_Pocket2Mol_2026-05-06_prepared.sdf

>  <GenAI_Model>  (1) 
Pocket2Mol

>  <Protein>  (1) 
GPCR_5HT2C

$$$$
Pocket2Mol_93_num_sample_100
     RDKit          3D

  0  0  0  0  0  0  0  0  0  0999 V3000
M  V30 BEGIN CTAB
M  V30 COUNTS 17 18 0 0 1
M  V30 BEGIN ATOM
M  V30 1 C 39.867489 30.427680 52.361943 0
M  V30 2 C 39.184773 29.435546 53.092303 0
M  V30 3 C 38.837071 28.189635 52.485124 0
M  V30 4 C 38.840408 29.663592 54.436304 0
M  V30 5 C 39.190521 27.990496 51.131425 0
M  V30 6 N 38.189089 27.223337 53.183729 0
M  V30 7 C 38.169765 28.656470 55.138718 0
M  V30 8 C 40.207849 30.204182 51.020856 0
M  V30 9 C 37.868010 27.457964 54.473935 0
M  V30 10 C 39.867386 28.990592 50.406034 0
M  V30 11 H 40.127262 31.364293 52.833558 0
M  V30 12 H 39.088617 30.598083 54.919120 0
M  V30 13 H 38.937422 27.058482 50.646980 0
M  V30 14 H 37.889036 28.798995 56.172638 0
M  V30 15 H 40.729317 30.967961 50.460407 0
M  V30 16 H 37.350880 26.662817 54.990711 0
M  V30 17 H 40.127821 28.821451 49.373075 0
M  V30 END ATOM
M  V30 BEGIN BOND
M  V30 1 2 2 1
M  V30 2 1 3 2
M  V30 3 1 4 2
M  V30 4 2 5 3
M  V30 5 1 6 3
M  V30 6 2 7 4
M  V30 7 1 8 1
M  V30 8 2 9 6
M  V30 9 1 9 7
M  V30 10 1 10 5
M  V30 11 2 10 8
M  V30 12 1 11 1
M  V30 13 1 12 4
M  V30 14 1 13 5
M  V30 15 1 14 7
M  V30 16 1 15 8
M  V30 17 1 16 9
M  V30 18 1 17 10
M  V30 END BOND
M  V30 END CTAB
M  END
>  <i_epik_Tot_Q>  (1) 
0

>  <i_epik_Tot_abs_Q>  (1) 
0

>  <i_i_glide_confnum>  (1) 
1

>  <i_i_glide_lignum>  (1) 
98

>  <i_i_glide_posenum>  (1) 
295

>  <i_i_glide_rotatable_bonds>  (1) 
0

>  <i_lp_mmshare_version>  (1) 
72125

>  <i_m_source_file_index>  (1) 
94

>  <i_f3d_flags>  (1) 
0

>  <num_sample>  (1) 
100

>  <b_lp_Chiralities_Consistent>  (1) 
1

>  <r_epik_Charging_Adjusted_Penalty>  (1) 
0

>  <r_epik_Ionization_Penalty>  (1) 
0.0026406434276513078

>  <r_epik_Ionization_Penalty_Charging>  (1) 
0

>  <r_epik_Ionization_Penalty_Neutral>  (1) 
0.0026406434276513078

>  <r_epik_State_Penalty>  (1) 
-0

>  <r_glide_ring_energy>  (1) 
0

>  <r_i_docking_score>  (1) 
-6.5433023666640988

>  <r_i_glide_ecoul>  (1) 
-0.29860301631497355

>  <r_i_glide_eff_state_penalty>  (1) 
-0

>  <r_i_glide_einternal>  (1) 
0

>  <r_i_glide_emodel>  (1) 
-30.675858198002317

>  <r_i_glide_emodel_strain>  (1) 
0

>  <r_i_glide_energy>  (1) 
-21.6826938749916

>  <r_i_glide_erotb>  (1) 
0

>  <r_i_glide_esite>  (1) 
0

>  <r_i_glide_evdw>  (1) 
-21.384090858676625

>  <r_i_glide_gscore>  (1) 
-6.5433023666640988

>  <r_i_glide_gscore_strain>  (1) 
0

>  <r_i_glide_hbond>  (1) 
0

>  <r_i_glide_ligand_efficiency>  (1) 
-0.65433023666640988

>  <r_i_glide_ligand_efficiency_ln>  (1) 
-1.9812668507905409

>  <r_i_glide_ligand_efficiency_sa>  (1) 
-1.409711760610886

>  <r_i_glide_lipo>  (1) 
-2.4855930272623277

>  <r_i_glide_metal>  (1) 
-0

>  <r_i_glide_rewards>  (1) 
-2.9437143440206941

>  <r_lp_Energy>  (1) 
20.260538

>  <r_lp_tautomer_probability>  (1) 
1

>  <s_epik_cmdline>  (1) 
J2VwaWtfcHl0aG9uJywgJy1waHQnLCAnMS4wJywgJy1waCcsICc3LjQnLCAnLXRuJywgJzgnLCAnLW1hJywgJzUwMCcsICctaW1hZScsICc8aW5maWxlLm1hZT4nLCAnLW9tYWUnLCAnPG91dGZpbGUubWFlPic=

>  <s_epik_input>  (1) 
W2NIXTFbY0hdW2NIXVtjSF1jKGMxMiluW2NIXVtjSF1bY0hdMg==

>  <s_glide_docking_method>  (1) 
confgen

>  <s_i_glide_gridfile>  (1) 
gpcr_5ht2c_6bqh_protein_autoprepared_prepared

>  <s_lp_Force_Field>  (1) 
S-OPLS

>  <s_lp_Variant>  (1) 
Pocket2Mol_93_num_sample_100-1

>  <s_m_source_file>  (1) 
generated__ligand_Pocket2Mol_2026-05-06_prepared.sdf

>  <GenAI_Model>  (1) 
Pocket2Mol

>  <Protein>  (1) 
GPCR_5HT2C

$$$$
Pocket2Mol_79_num_sample_100
     RDKit          3D

  0  0  0  0  0  0  0  0  0  0999 V3000
M  V30 BEGIN CTAB
M  V30 COUNTS 17 18 0 0 1
M  V30 BEGIN ATOM
M  V30 1 C 39.867399 30.381902 52.376747 0
M  V30 2 C 39.077547 29.296988 52.882792 0
M  V30 3 C 39.108473 27.884108 52.203969 0 CFG=2
M  V30 4 C 38.214947 29.412178 53.880003 0
M  V30 5 C 37.481142 28.258607 53.974650 0
M  V30 6 C 39.338669 28.097210 50.719075 0
M  V30 7 C 39.929369 29.217953 50.229306 0
M  V30 8 C 37.886601 27.406384 53.052842 0
M  V30 9 C 40.294497 30.339638 51.102702 0
M  V30 10 H 40.077416 31.241935 52.994606 0
M  V30 11 H 39.965492 27.319969 52.567737 0
M  V30 12 H 38.035190 30.312099 54.449998 0
M  V30 13 H 36.667403 28.093272 54.653465 0
M  V30 14 H 39.067641 27.287921 50.057146 0
M  V30 15 H 40.115948 29.295473 49.168773 0
M  V30 16 H 37.454025 26.429064 52.901760 0
M  V30 17 H 40.860584 31.167908 50.700089 0
M  V30 END ATOM
M  V30 BEGIN BOND
M  V30 1 1 2 1
M  V30 2 1 3 2
M  V30 3 2 4 2
M  V30 4 1 5 4
M  V30 5 1 6 3
M  V30 6 2 7 6
M  V30 7 1 8 3
M  V30 8 2 8 5
M  V30 9 2 9 1
M  V30 10 1 9 7
M  V30 11 1 10 1
M  V30 12 1 3 11 CFG=1
M  V30 13 1 12 4
M  V30 14 1 13 5
M  V30 15 1 14 6
M  V30 16 1 15 7
M  V30 17 1 16 8
M  V30 18 1 17 9
M  V30 END BOND
M  V30 END CTAB
M  END
>  <i_epik_Tot_Q>  (1) 
0

>  <i_epik_Tot_abs_Q>  (1) 
0

>  <i_i_glide_confnum>  (1) 
1

>  <i_i_glide_lignum>  (1) 
84

>  <i_i_glide_posenum>  (1) 
249

>  <i_i_glide_rotatable_bonds>  (1) 
0

>  <i_lp_mmshare_version>  (1) 
72125

>  <i_m_source_file_index>  (1) 
80

>  <i_f3d_flags>  (1) 
0

>  <num_sample>  (1) 
100

>  <b_lp_Chiralities_Consistent>  (1) 
1

>  <r_epik_Charging_Adjusted_Penalty>  (1) 
0

>  <r_epik_Ionization_Penalty>  (1) 
0

>  <r_epik_Ionization_Penalty_Charging>  (1) 
0

>  <r_epik_Ionization_Penalty_Neutral>  (1) 
0

>  <r_epik_State_Penalty>  (1) 
-0

>  <r_glide_ring_energy>  (1) 
0

>  <r_i_docking_score>  (1) 
-6.5421586363618456

>  <r_i_glide_ecoul>  (1) 
-0.95797512635364379

>  <r_i_glide_eff_state_penalty>  (1) 
-0

>  <r_i_glide_einternal>  (1) 
0

>  <r_i_glide_emodel>  (1) 
-28.406237681614577

>  <r_i_glide_emodel_strain>  (1) 
0

>  <r_i_glide_energy>  (1) 
-20.268841779438002

>  <r_i_glide_erotb>  (1) 
0

>  <r_i_glide_esite>  (1) 
0

>  <r_i_glide_evdw>  (1) 
-19.310866653084357

>  <r_i_glide_gscore>  (1) 
-6.5421586363618456

>  <r_i_glide_gscore_strain>  (1) 
0

>  <r_i_glide_hbond>  (1) 
0

>  <r_i_glide_ligand_efficiency>  (1) 
-0.72690651515131621

>  <r_i_glide_ligand_efficiency_ln>  (1) 
-2.0461992825704072

>  <r_i_glide_ligand_efficiency_sa>  (1) 
-1.5120264830372869

>  <r_i_glide_lipo>  (1) 
-2.7437874439443983

>  <r_i_glide_metal>  (1) 
-0

>  <r_i_glide_rewards>  (1) 
-2.6891315908101827

>  <r_lp_Energy>  (1) 
11.987261999999999

>  <r_lp_tautomer_probability>  (1) 
1

>  <s_epik_cmdline>  (1) 
J2VwaWtfcHl0aG9uJywgJy1waHQnLCAnMS4wJywgJy1waCcsICc3LjQnLCAnLXRuJywgJzgnLCAnLW1hJywgJzUwMCcsICctaW1hZScsICc8aW5maWxlLm1hZT4nLCAnLW9tYWUnLCAnPG91dGZpbGUubWFlPic=

>  <s_epik_input>  (1) 
W0NIXTE9W0NIXVtDSF09W0NIXVtDQEBIXShDMT0yKVtDSF09W0NIXVtDSF0y

>  <s_glide_docking_method>  (1) 
confgen

>  <s_i_glide_gridfile>  (1) 
gpcr_5ht2c_6bqh_protein_autoprepared_prepared

>  <s_lp_Force_Field>  (1) 
S-OPLS

>  <s_lp_Variant>  (1) 
Pocket2Mol_79_num_sample_100-1

>  <s_m_source_file>  (1) 
generated__ligand_Pocket2Mol_2026-05-06_prepared.sdf

>  <GenAI_Model>  (1) 
Pocket2Mol

>  <Protein>  (1) 
GPCR_5HT2C

$$$$
Pocket2Mol_1_num_sample_100
     RDKit          3D

  0  0  0  0  0  0  0  0  0  0999 V3000
M  V30 BEGIN CTAB
M  V30 COUNTS 19 20 0 0 1
M  V30 BEGIN ATOM
M  V30 1 C 39.216419 29.812975 53.536587 0
M  V30 2 C 39.755379 29.756552 52.200663 0
M  V30 3 C 39.707150 28.545321 51.395791 0 CFG=1
M  V30 4 C 40.267520 30.754984 51.589647 0
M  V30 5 C 38.593455 27.622167 51.859692 0
M  V30 6 C 38.010957 27.744311 53.075776 0
M  V30 7 C 40.630814 30.509229 50.181069 0
M  V30 8 O 37.067529 26.880295 53.453522 0
M  V30 9 N 39.867934 29.196054 50.050462 0
M  V30 10 C 38.394431 28.840237 53.964520 0
M  V30 11 H 39.450837 30.646290 54.182670 0
M  V30 12 H 40.642767 28.021499 51.586255 0
M  V30 13 H 40.368832 31.733269 52.022810 0
M  V30 14 H 38.307055 26.821372 51.193451 0
M  V30 15 H 40.245554 31.268199 49.498184 0
M  V30 16 H 41.708350 30.393468 50.067627 0
M  V30 17 H 36.832262 26.361400 52.695636 0
M  V30 18 H 40.248120 28.579375 49.347907 0
M  V30 19 H 37.976214 28.893891 54.959290 0
M  V30 END ATOM
M  V30 BEGIN BOND
M  V30 1 1 2 1
M  V30 2 1 3 2
M  V30 3 2 4 2
M  V30 4 1 5 3
M  V30 5 2 6 5
M  V30 6 1 7 4
M  V30 7 1 8 6
M  V30 8 1 9 3
M  V30 9 1 9 7
M  V30 10 2 10 1
M  V30 11 1 10 6
M  V30 12 1 11 1
M  V30 13 1 3 12 CFG=1
M  V30 14 1 13 4
M  V30 15 1 14 5
M  V30 16 1 15 7
M  V30 17 1 16 7
M  V30 18 1 17 8
M  V30 19 1 18 9
M  V30 20 1 19 10
M  V30 END BOND
M  V30 END CTAB
M  END
>  <i_epik_Tot_Q>  (1) 
0

>  <i_epik_Tot_abs_Q>  (1) 
0

>  <i_i_glide_confnum>  (1) 
1

>  <i_i_glide_lignum>  (1) 
4

>  <i_i_glide_posenum>  (1) 
172

>  <i_i_glide_rotatable_bonds>  (1) 
1

>  <i_lp_mmshare_version>  (1) 
72125

>  <i_m_source_file_index>  (1) 
2

>  <i_f3d_flags>  (1) 
0

>  <num_sample>  (1) 
100

>  <b_lp_Chiralities_Consistent>  (1) 
1

>  <r_epik_Charging_Adjusted_Penalty>  (1) 
0.0032380173127296522

>  <r_epik_Ionization_Penalty>  (1) 
0.0032399356015129686

>  <r_epik_Ionization_Penalty_Charging>  (1) 
0

>  <r_epik_Ionization_Penalty_Neutral>  (1) 
0.0032399356015129686

>  <r_epik_State_Penalty>  (1) 
0.0032380173127296522

>  <r_glide_ring_energy>  (1) 
0

>  <r_i_docking_score>  (1) 
-6.5416925954785645

>  <r_i_glide_ecoul>  (1) 
-2.6417966253459952

>  <r_i_glide_eff_state_penalty>  (1) 
0.0032380173127296522

>  <r_i_glide_einternal>  (1) 
0.097323926959157259

>  <r_i_glide_emodel>  (1) 
-31.830503101373065

>  <r_i_glide_emodel_strain>  (1) 
0

>  <r_i_glide_energy>  (1) 
-21.942632003140954

>  <r_i_glide_erotb>  (1) 
0

>  <r_i_glide_esite>  (1) 
0

>  <r_i_glide_evdw>  (1) 
-19.300835377794957

>  <r_i_glide_gscore>  (1) 
-6.5449306127912941

>  <r_i_glide_gscore_strain>  (1) 
0

>  <r_i_glide_hbond>  (1) 
-0.3016989949113793

>  <r_i_glide_ligand_efficiency>  (1) 
-0.65416925954785643

>  <r_i_glide_ligand_efficiency_ln>  (1) 
-1.9807794231724156

>  <r_i_glide_ligand_efficiency_sa>  (1) 
-1.4093649459223732

>  <r_i_glide_lipo>  (1) 
-2.3865215768762877

>  <r_i_glide_metal>  (1) 
-0

>  <r_i_glide_rewards>  (1) 
-2.4953987783119795

>  <r_lp_Energy>  (1) 
5.6363089999999998

>  <s_epik_cmdline>  (1) 
J2VwaWtfcHl0aG9uJywgJy1waHQnLCAnMS4wJywgJy1waCcsICc3LjQnLCAnLXRuJywgJzgnLCAnLW1hJywgJzUwMCcsICctaW1hZScsICc8aW5maWxlLm1hZT4nLCAnLW9tYWUnLCAnPG91dGZpbGUubWFlPic=

>  <s_epik_input>  (1) 
W0NIXTE9W0NIXUMoW09IXSk9W0NIXVtDQEhdKEMxPTIpW05IXVtDSDJdW0NIXTI=

>  <s_glide_docking_method>  (1) 
confgen

>  <s_i_glide_gridfile>  (1) 
gpcr_5ht2c_6bqh_protein_autoprepared_prepared

>  <s_lp_Force_Field>  (1) 
S-OPLS

>  <s_lp_Variant>  (1) 
Pocket2Mol_1_num_sample_100-2

>  <s_m_source_file>  (1) 
generated__ligand_Pocket2Mol_2026-05-06_prepared.sdf

>  <GenAI_Model>  (1) 
Pocket2Mol

>  <Protein>  (1) 
GPCR_5HT2C

$$$$
Pocket2Mol_52_num_sample_100
     RDKit          3D

  0  0  0  0  0  0  0  0  0  0999 V3000
M  V30 BEGIN CTAB
M  V30 COUNTS 16 16 0 0 1
M  V30 BEGIN ATOM
M  V30 1 C 39.867432 30.422517 52.534772 0
M  V30 2 C 39.250622 30.178102 53.777814 0
M  V30 3 C 39.680915 29.522816 51.464086 0
M  V30 4 C 40.342623 29.789855 50.127500 0
M  V30 5 C 38.445426 29.036809 53.951523 0
M  V30 6 C 38.254347 28.138858 52.882959 0
M  V30 7 O 37.467719 27.039613 53.053614 0
M  V30 8 C 38.872720 28.379480 51.639196 0
M  V30 9 H 40.483018 31.299207 52.401822 0
M  V30 10 H 39.393664 30.867585 54.597246 0
M  V30 11 H 40.267401 28.929254 49.460951 0
M  V30 12 H 39.867922 30.643565 49.640297 0
M  V30 13 H 41.399289 30.023188 50.267810 0
M  V30 14 H 37.971676 28.851181 54.904734 0
M  V30 15 H 37.162057 26.647406 52.241171 0
M  V30 16 H 38.724191 27.691288 50.819283 0
M  V30 END ATOM
M  V30 BEGIN BOND
M  V30 1 2 2 1
M  V30 2 1 3 1
M  V30 3 1 4 3
M  V30 4 1 5 2
M  V30 5 2 6 5
M  V30 6 1 7 6
M  V30 7 2 8 3
M  V30 8 1 8 6
M  V30 9 1 9 1
M  V30 10 1 10 2
M  V30 11 1 11 4
M  V30 12 1 12 4
M  V30 13 1 13 4
M  V30 14 1 14 5
M  V30 15 1 15 7
M  V30 16 1 16 8
M  V30 END BOND
M  V30 END CTAB
M  END
>  <i_epik_Tot_Q>  (1) 
0

>  <i_epik_Tot_abs_Q>  (1) 
0

>  <i_i_glide_confnum>  (1) 
1

>  <i_i_glide_lignum>  (1) 
55

>  <i_i_glide_posenum>  (1) 
110

>  <i_i_glide_rotatable_bonds>  (1) 
1

>  <i_lp_mmshare_version>  (1) 
72125

>  <i_m_source_file_index>  (1) 
53

>  <i_f3d_flags>  (1) 
0

>  <num_sample>  (1) 
100

>  <b_lp_Chiralities_Consistent>  (1) 
1

>  <r_epik_Charging_Adjusted_Penalty>  (1) 
0

>  <r_epik_Ionization_Penalty>  (1) 
0.0017015869167085525

>  <r_epik_Ionization_Penalty_Charging>  (1) 
0

>  <r_epik_Ionization_Penalty_Neutral>  (1) 
0.0017015869167085525

>  <r_epik_State_Penalty>  (1) 
-0

>  <r_glide_ring_energy>  (1) 
0

>  <r_i_docking_score>  (1) 
-6.5261294540458747

>  <r_i_glide_ecoul>  (1) 
-4.5085255024020245

>  <r_i_glide_eff_state_penalty>  (1) 
-0

>  <r_i_glide_einternal>  (1) 
0.26266267205873711

>  <r_i_glide_emodel>  (1) 
-29.374175557568474

>  <r_i_glide_emodel_strain>  (1) 
0.016243542049100057

>  <r_i_glide_energy>  (1) 
-21.151208427636199

>  <r_i_glide_erotb>  (1) 
0

>  <r_i_glide_esite>  (1) 
0

>  <r_i_glide_evdw>  (1) 
-16.642682925234173

>  <r_i_glide_gscore>  (1) 
-6.5261294540458747

>  <r_i_glide_gscore_strain>  (1) 
0

>  <r_i_glide_hbond>  (1) 
-0.3140617796709832

>  <r_i_glide_ligand_efficiency>  (1) 
-0.81576618175573434

>  <r_i_glide_ligand_efficiency_ln>  (1) 
-2.1192574581188088

>  <r_i_glide_ligand_efficiency_sa>  (1) 
-1.6315323635114689

>  <r_i_glide_lipo>  (1) 
-2.1624828600388937

>  <r_i_glide_metal>  (1) 
-0

>  <r_i_glide_rewards>  (1) 
-2.5411718427139851

>  <r_lp_Energy>  (1) 
5.2727110000000001

>  <r_lp_tautomer_probability>  (1) 
1

>  <s_epik_cmdline>  (1) 
J2VwaWtfcHl0aG9uJywgJy1waHQnLCAnMS4wJywgJy1waCcsICc3LjQnLCAnLXRuJywgJzgnLCAnLW1hJywgJzUwMCcsICctaW1hZScsICc8aW5maWxlLm1hZT4nLCAnLW9tYWUnLCAnPG91dGZpbGUubWFlPic=

>  <s_epik_input>  (1) 
W0NIM11jMVtjSF1bY0hdW2NIXWMoW09IXSlbY0hdMQ==

>  <s_glide_docking_method>  (1) 
confgen

>  <s_i_glide_gridfile>  (1) 
gpcr_5ht2c_6bqh_protein_autoprepared_prepared

>  <s_lp_Force_Field>  (1) 
S-OPLS

>  <s_lp_Variant>  (1) 
Pocket2Mol_52_num_sample_100-1

>  <s_m_source_file>  (1) 
generated__ligand_Pocket2Mol_2026-05-06_prepared.sdf

>  <GenAI_Model>  (1) 
Pocket2Mol

>  <Protein>  (1) 
GPCR_5HT2C

$$$$
Pocket2Mol_89_num_sample_100
     RDKit          3D

  0  0  0  0  0  0  0  0  0  0999 V3000
M  V30 BEGIN CTAB
M  V30 COUNTS 17 18 0 0 1
M  V30 BEGIN ATOM
M  V30 1 C 38.617884 29.458420 54.405439 0
M  V30 2 C 39.099766 29.447049 53.125037 0
M  V30 3 C 39.867403 30.421883 52.483518 0
M  V30 4 C 40.260211 30.190499 51.142178 0
M  V30 5 C 39.867403 28.985226 50.488353 0
M  V30 6 C 38.720939 28.289165 52.511043 0
M  V30 7 C 37.867400 27.326675 53.414857 0
M  V30 8 C 39.087707 28.021429 51.184414 0
M  V30 9 C 37.944429 28.338467 54.623975 0
M  V30 10 H 38.782759 30.269198 55.100417 0
M  V30 11 H 40.154043 31.327745 52.995914 0
M  V30 12 H 40.853083 30.925032 50.616341 0
M  V30 13 H 40.161300 28.807507 49.464971 0
M  V30 14 H 38.364893 26.379376 53.621178 0
M  V30 15 H 36.848948 27.189386 53.053501 0
M  V30 16 H 38.784125 27.103360 50.701614 0
M  V30 17 H 37.467405 28.106078 55.563110 0
M  V30 END ATOM
M  V30 BEGIN BOND
M  V30 1 1 2 1
M  V30 2 2 3 2
M  V30 3 1 4 3
M  V30 4 2 5 4
M  V30 5 1 6 2
M  V30 6 1 7 6
M  V30 7 1 8 5
M  V30 8 2 8 6
M  V30 9 2 9 1
M  V30 10 1 9 7
M  V30 11 1 10 1
M  V30 12 1 11 3
M  V30 13 1 12 4
M  V30 14 1 13 5
M  V30 15 1 14 7
M  V30 16 1 15 7
M  V30 17 1 16 8
M  V30 18 1 17 9
M  V30 END BOND
M  V30 END CTAB
M  END
>  <i_epik_Tot_Q>  (1) 
0

>  <i_epik_Tot_abs_Q>  (1) 
0

>  <i_i_glide_confnum>  (1) 
1

>  <i_i_glide_lignum>  (1) 
94

>  <i_i_glide_posenum>  (1) 
267

>  <i_i_glide_rotatable_bonds>  (1) 
0

>  <i_lp_mmshare_version>  (1) 
72125

>  <i_m_source_file_index>  (1) 
90

>  <i_f3d_flags>  (1) 
0

>  <num_sample>  (1) 
100

>  <b_lp_Chiralities_Consistent>  (1) 
1

>  <r_epik_Charging_Adjusted_Penalty>  (1) 
0

>  <r_epik_Ionization_Penalty>  (1) 
0

>  <r_epik_Ionization_Penalty_Charging>  (1) 
0

>  <r_epik_Ionization_Penalty_Neutral>  (1) 
0

>  <r_epik_State_Penalty>  (1) 
-0

>  <r_glide_ring_energy>  (1) 
0

>  <r_i_docking_score>  (1) 
-6.5197560778287125

>  <r_i_glide_ecoul>  (1) 
-0.9539470212449237

>  <r_i_glide_eff_state_penalty>  (1) 
-0

>  <r_i_glide_einternal>  (1) 
0

>  <r_i_glide_emodel>  (1) 
-29.527785970585672

>  <r_i_glide_emodel_strain>  (1) 
0

>  <r_i_glide_energy>  (1) 
-21.072419052477141

>  <r_i_glide_erotb>  (1) 
0

>  <r_i_glide_esite>  (1) 
0

>  <r_i_glide_evdw>  (1) 
-20.118472031232216

>  <r_i_glide_gscore>  (1) 
-6.5197560778287125

>  <r_i_glide_gscore_strain>  (1) 
0

>  <r_i_glide_hbond>  (1) 
0

>  <r_i_glide_ligand_efficiency>  (1) 
-0.72441734198096808

>  <r_i_glide_ligand_efficiency_ln>  (1) 
-2.039192405827392

>  <r_i_glide_ligand_efficiency_sa>  (1) 
-1.506848794192871

>  <r_i_glide_lipo>  (1) 
-2.6177368578213107

>  <r_i_glide_metal>  (1) 
-0

>  <r_i_glide_rewards>  (1) 
-2.7530035652590525

>  <r_lp_Energy>  (1) 
7.8773689999999998

>  <r_lp_tautomer_probability>  (1) 
1

>  <s_epik_cmdline>  (1) 
J2VwaWtfcHl0aG9uJywgJy1waHQnLCAnMS4wJywgJy1waCcsICc3LjQnLCAnLXRuJywgJzgnLCAnLW1hJywgJzUwMCcsICctaW1hZScsICc8aW5maWxlLm1hZT4nLCAnLW9tYWUnLCAnPG91dGZpbGUubWFlPic=

>  <s_epik_input>  (1) 
W0NIXTE9W0NIXVtDSDJdYyhjMTIpW2NIXVtjSF1bY0hdW2NIXTI=

>  <s_glide_docking_method>  (1) 
confgen

>  <s_i_glide_gridfile>  (1) 
gpcr_5ht2c_6bqh_protein_autoprepared_prepared

>  <s_lp_Force_Field>  (1) 
S-OPLS

>  <s_lp_Variant>  (1) 
Pocket2Mol_89_num_sample_100-1

>  <s_m_source_file>  (1) 
generated__ligand_Pocket2Mol_2026-05-06_prepared.sdf

>  <GenAI_Model>  (1) 
Pocket2Mol

>  <Protein>  (1) 
GPCR_5HT2C

$$$$
Pocket2Mol_94_num_sample_100
     RDKit          3D

  0  0  0  0  0  0  0  0  0  0999 V3000
M  V30 BEGIN CTAB
M  V30 COUNTS 16 17 0 0 1
M  V30 BEGIN ATOM
M  V30 1 C 38.669494 27.836982 52.167897 0
M  V30 2 C 38.507032 28.653545 53.333727 0
M  V30 3 C 39.078135 29.919166 53.452637 0
M  V30 4 C 37.867158 28.415973 54.400827 0
M  V30 5 C 39.867412 30.421430 52.342312 0
M  V30 6 C 38.046652 29.569865 55.203291 0
M  V30 7 C 40.030444 29.660435 51.221294 0
M  V30 8 C 38.809057 30.538253 54.631292 0
M  V30 9 O 40.747970 30.127817 50.193209 0
M  V30 10 C 39.406148 28.316336 51.140318 0
M  V30 11 H 38.212509 26.859535 52.110009 0
M  V30 12 H 37.304472 27.526986 54.645561 0
M  V30 13 H 40.318879 31.400911 52.402243 0
M  V30 14 H 37.607330 29.662626 56.186346 0
M  V30 15 H 41.024156 31.006143 50.409466 0
M  V30 16 H 39.539268 27.716189 50.253499 0
M  V30 END ATOM
M  V30 BEGIN BOND
M  V30 1 1 2 1
M  V30 2 1 3 2
M  V30 3 2 4 2
M  V30 4 1 5 3
M  V30 5 1 6 4
M  V30 6 2 7 5
M  V30 7 2 8 3
M  V30 8 2 8 6
M  V30 9 1 9 7
M  V30 10 2 10 1
M  V30 11 1 10 7
M  V30 12 1 11 1
M  V30 13 1 12 4
M  V30 14 1 13 5
M  V30 15 1 14 6
M  V30 16 1 15 9
M  V30 17 1 16 10
M  V30 END BOND
M  V30 END CTAB
M  END
>  <i_epik_Tot_Q>  (1) 
0

>  <i_epik_Tot_abs_Q>  (1) 
0

>  <i_i_glide_confnum>  (1) 
1

>  <i_i_glide_lignum>  (1) 
99

>  <i_i_glide_posenum>  (1) 
98

>  <i_i_glide_rotatable_bonds>  (1) 
1

>  <i_lp_mmshare_version>  (1) 
72125

>  <i_m_source_file_index>  (1) 
95

>  <i_f3d_flags>  (1) 
0

>  <num_sample>  (1) 
100

>  <b_lp_Chiralities_Consistent>  (1) 
1

>  <r_epik_Charging_Adjusted_Penalty>  (1) 
0

>  <r_epik_Ionization_Penalty>  (1) 
1.8682351542324854e-05

>  <r_epik_Ionization_Penalty_Charging>  (1) 
0

>  <r_epik_Ionization_Penalty_Neutral>  (1) 
1.8682351542324854e-05

>  <r_epik_State_Penalty>  (1) 
-0

>  <r_glide_ring_energy>  (1) 
0

>  <r_i_docking_score>  (1) 
-6.5010306078475271

>  <r_i_glide_ecoul>  (1) 
-1.7274606897209339

>  <r_i_glide_eff_state_penalty>  (1) 
-0

>  <r_i_glide_einternal>  (1) 
0.013632326089520586

>  <r_i_glide_emodel>  (1) 
-35.143994342826588

>  <r_i_glide_emodel_strain>  (1) 
0

>  <r_i_glide_energy>  (1) 
-25.166037078263621

>  <r_i_glide_erotb>  (1) 
0

>  <r_i_glide_esite>  (1) 
0

>  <r_i_glide_evdw>  (1) 
-23.438576388542685

>  <r_i_glide_gscore>  (1) 
-6.5010306078475271

>  <r_i_glide_gscore_strain>  (1) 
0

>  <r_i_glide_hbond>  (1) 
0

>  <r_i_glide_ligand_efficiency>  (1) 
-0.65010306078475266

>  <r_i_glide_ligand_efficiency_ln>  (1) 
-1.9684672536185421

>  <r_i_glide_ligand_efficiency_sa>  (1) 
-1.4006045862505776

>  <r_i_glide_lipo>  (1) 
-2.3460707615793499

>  <r_i_glide_metal>  (1) 
-0

>  <r_i_glide_rewards>  (1) 
-2.7239119233829028

>  <r_lp_Energy>  (1) 
8.2800799999999999

>  <r_lp_tautomer_probability>  (1) 
1

>  <s_epik_cmdline>  (1) 
J2VwaWtfcHl0aG9uJywgJy1waHQnLCAnMS4wJywgJy1waCcsICc3LjQnLCAnLXRuJywgJzgnLCAnLW1hJywgJzUwMCcsICctaW1hZScsICc8aW5maWxlLm1hZT4nLCAnLW9tYWUnLCAnPG91dGZpbGUubWFlPic=

>  <s_epik_input>  (1) 
W2NIXTFbY0hdYyhbT0hdKVtjSF1jKGMxPTIpPUM9W0NIXVtDSF0y

>  <s_glide_docking_method>  (1) 
confgen

>  <s_i_glide_gridfile>  (1) 
gpcr_5ht2c_6bqh_protein_autoprepared_prepared

>  <s_lp_Force_Field>  (1) 
S-OPLS

>  <s_lp_Variant>  (1) 
Pocket2Mol_94_num_sample_100-1

>  <s_m_source_file>  (1) 
generated__ligand_Pocket2Mol_2026-05-06_prepared.sdf

>  <GenAI_Model>  (1) 
Pocket2Mol

>  <Protein>  (1) 
GPCR_5HT2C

$$$$
Pocket2Mol_86_num_sample_100
     RDKit          3D

  0  0  0  0  0  0  0  0  0  0999 V3000
M  V30 BEGIN CTAB
M  V30 COUNTS 17 17 0 0 1
M  V30 BEGIN ATOM
M  V30 1 C 38.137274 29.387621 54.180483 0
M  V30 2 C 39.071288 30.421429 53.965045 0
M  V30 3 C 37.998009 28.353138 53.235275 0
M  V30 4 O 37.091988 27.354781 53.453497 0
M  V30 5 C 38.796950 28.350935 52.067825 0
M  V30 6 C 39.218921 31.532826 54.983101 0
M  V30 7 O 38.667403 27.351070 51.144970 0
M  V30 8 C 39.867402 30.420590 52.800586 0
M  V30 9 C 39.730856 29.384938 51.853500 0
M  V30 10 H 37.526271 29.388448 55.071965 0
M  V30 11 H 37.088867 26.673600 52.797875 0
M  V30 12 H 38.661119 31.314282 55.894567 0
M  V30 13 H 40.267352 31.665722 55.250751 0
M  V30 14 H 38.839641 32.468836 54.574945 0
M  V30 15 H 37.793671 26.989107 51.077277 0
M  V30 16 H 40.582175 31.213967 52.633561 0
M  V30 17 H 40.341195 29.385105 50.962151 0
M  V30 END ATOM
M  V30 BEGIN BOND
M  V30 1 2 2 1
M  V30 2 1 3 1
M  V30 3 1 4 3
M  V30 4 2 5 3
M  V30 5 1 6 2
M  V30 6 1 7 5
M  V30 7 1 8 2
M  V30 8 1 9 5
M  V30 9 2 9 8
M  V30 10 1 10 1
M  V30 11 1 11 4
M  V30 12 1 12 6
M  V30 13 1 13 6
M  V30 14 1 14 6
M  V30 15 1 15 7
M  V30 16 1 16 8
M  V30 17 1 17 9
M  V30 END BOND
M  V30 END CTAB
M  END
>  <i_epik_Tot_Q>  (1) 
0

>  <i_epik_Tot_abs_Q>  (1) 
0

>  <i_i_glide_confnum>  (1) 
1

>  <i_i_glide_lignum>  (1) 
91

>  <i_i_glide_posenum>  (1) 
201

>  <i_i_glide_rotatable_bonds>  (1) 
2

>  <i_lp_mmshare_version>  (1) 
72125

>  <i_m_source_file_index>  (1) 
87

>  <i_f3d_flags>  (1) 
0

>  <num_sample>  (1) 
100

>  <b_lp_Chiralities_Consistent>  (1) 
1

>  <r_epik_Charging_Adjusted_Penalty>  (1) 
0

>  <r_epik_Ionization_Penalty>  (1) 
0.0034619861512114073

>  <r_epik_Ionization_Penalty_Charging>  (1) 
0

>  <r_epik_Ionization_Penalty_Neutral>  (1) 
0.0034619861512114073

>  <r_epik_State_Penalty>  (1) 
-0

>  <r_glide_ring_energy>  (1) 
0

>  <r_i_docking_score>  (1) 
-6.482539052714932

>  <r_i_glide_ecoul>  (1) 
-4.660252855431458

>  <r_i_glide_eff_state_penalty>  (1) 
-0

>  <r_i_glide_einternal>  (1) 
0.15976422700785342

>  <r_i_glide_emodel>  (1) 
-33.802456679536768

>  <r_i_glide_emodel_strain>  (1) 
0.27991608174466354

>  <r_i_glide_energy>  (1) 
-23.465107957793069

>  <r_i_glide_erotb>  (1) 
0

>  <r_i_glide_esite>  (1) 
0

>  <r_i_glide_evdw>  (1) 
-18.804855102361611

>  <r_i_glide_gscore>  (1) 
-6.482539052714932

>  <r_i_glide_gscore_strain>  (1) 
0

>  <r_i_glide_hbond>  (1) 
-0.37917039712982181

>  <r_i_glide_ligand_efficiency>  (1) 
-0.72028211696832578

>  <r_i_glide_ligand_efficiency_ln>  (1) 
-2.0275519895183232

>  <r_i_glide_ligand_efficiency_sa>  (1) 
-1.4982471795393941

>  <r_i_glide_lipo>  (1) 
-1.972837024023153

>  <r_i_glide_metal>  (1) 
-0

>  <r_i_glide_rewards>  (1) 
-2.4912509481291583

>  <r_lp_Energy>  (1) 
6.77806

>  <r_lp_tautomer_probability>  (1) 
1

>  <s_epik_cmdline>  (1) 
J2VwaWtfcHl0aG9uJywgJy1waHQnLCAnMS4wJywgJy1waCcsICc3LjQnLCAnLXRuJywgJzgnLCAnLW1hJywgJzUwMCcsICctaW1hZScsICc8aW5maWxlLm1hZT4nLCAnLW9tYWUnLCAnPG91dGZpbGUubWFlPic=

>  <s_epik_input>  (1) 
W0NIM11jMVtjSF1jKFtPSF0pYyhbT0hdKVtjSF1bY0hdMQ==

>  <s_glide_docking_method>  (1) 
confgen

>  <s_i_glide_gridfile>  (1) 
gpcr_5ht2c_6bqh_protein_autoprepared_prepared

>  <s_lp_Force_Field>  (1) 
S-OPLS

>  <s_lp_Variant>  (1) 
Pocket2Mol_86_num_sample_100-1

>  <s_m_source_file>  (1) 
generated__ligand_Pocket2Mol_2026-05-06_prepared.sdf

>  <GenAI_Model>  (1) 
Pocket2Mol

>  <Protein>  (1) 
GPCR_5HT2C

$$$$
Pocket2Mol_86_num_sample_100
     RDKit          3D

  0  0  0  0  0  0  0  0  0  0999 V3000
M  V30 BEGIN CTAB
M  V30 COUNTS 17 17 0 0 1
M  V30 BEGIN ATOM
M  V30 1 C 38.839103 28.377393 51.588695 0
M  V30 2 C 39.645807 29.515754 51.382599 0
M  V30 3 C 38.256980 28.147787 52.851262 0
M  V30 4 O 37.467499 27.053061 53.053596 0
M  V30 5 C 38.486209 29.050456 53.907269 0
M  V30 6 C 40.267409 29.770840 50.026141 0
M  V30 7 O 37.926519 28.821442 55.126374 0
M  V30 8 C 39.867418 30.421219 52.440292 0
M  V30 9 C 39.290032 30.186951 53.702531 0
M  V30 10 H 38.665208 27.684376 50.778225 0
M  V30 11 H 37.157471 26.648769 52.248284 0
M  V30 12 H 40.266403 28.866228 49.419500 0
M  V30 13 H 39.708556 30.541941 49.495385 0
M  V30 14 H 41.298848 30.108644 50.133722 0
M  V30 15 H 37.438570 28.011026 55.102526 0
M  V30 16 H 40.482633 31.295034 52.283004 0
M  V30 17 H 39.462566 30.880355 54.512787 0
M  V30 END ATOM
M  V30 BEGIN BOND
M  V30 1 2 2 1
M  V30 2 1 3 1
M  V30 3 1 4 3
M  V30 4 2 5 3
M  V30 5 1 6 2
M  V30 6 1 7 5
M  V30 7 1 8 2
M  V30 8 1 9 5
M  V30 9 2 9 8
M  V30 10 1 10 1
M  V30 11 1 11 4
M  V30 12 1 12 6
M  V30 13 1 13 6
M  V30 14 1 14 6
M  V30 15 1 15 7
M  V30 16 1 16 8
M  V30 17 1 17 9
M  V30 END BOND
M  V30 END CTAB
M  END
>  <i_epik_Tot_Q>  (1) 
0

>  <i_epik_Tot_abs_Q>  (1) 
0

>  <i_i_glide_confnum>  (1) 
1

>  <i_i_glide_lignum>  (1) 
91

>  <i_i_glide_posenum>  (1) 
367

>  <i_i_glide_rotatable_bonds>  (1) 
2

>  <i_lp_mmshare_version>  (1) 
72125

>  <i_m_source_file_index>  (1) 
87

>  <i_f3d_flags>  (1) 
0

>  <num_sample>  (1) 
100

>  <b_lp_Chiralities_Consistent>  (1) 
1

>  <r_epik_Charging_Adjusted_Penalty>  (1) 
0

>  <r_epik_Ionization_Penalty>  (1) 
0.0034619861512114073

>  <r_epik_Ionization_Penalty_Charging>  (1) 
0

>  <r_epik_Ionization_Penalty_Neutral>  (1) 
0.0034619861512114073

>  <r_epik_State_Penalty>  (1) 
-0

>  <r_glide_ring_energy>  (1) 
0

>  <r_i_docking_score>  (1) 
-6.4696328334090021

>  <r_i_glide_ecoul>  (1) 
-4.0790584482429137

>  <r_i_glide_eff_state_penalty>  (1) 
-0

>  <r_i_glide_einternal>  (1) 
0.25319758421311844

>  <r_i_glide_emodel>  (1) 
-32.468839192297267

>  <r_i_glide_emodel_strain>  (1) 
0.0051214405117150363

>  <r_i_glide_energy>  (1) 
-21.924709676044529

>  <r_i_glide_erotb>  (1) 
0

>  <r_i_glide_esite>  (1) 
0

>  <r_i_glide_evdw>  (1) 
-17.845651227801614

>  <r_i_glide_gscore>  (1) 
-6.4696328334090021

>  <r_i_glide_gscore_strain>  (1) 
0

>  <r_i_glide_hbond>  (1) 
-0.31672092858939016

>  <r_i_glide_ligand_efficiency>  (1) 
-0.71884809260100024

>  <r_i_glide_ligand_efficiency_ln>  (1) 
-2.0235152948809128

>  <r_i_glide_ligand_efficiency_sa>  (1) 
-1.4952642886510581

>  <r_i_glide_lipo>  (1) 
-2.1560507432521456

>  <r_i_glide_metal>  (1) 
-0

>  <r_i_glide_rewards>  (1) 
-2.4927198329409483

>  <r_lp_Energy>  (1) 
6.77806

>  <r_lp_tautomer_probability>  (1) 
1

>  <s_epik_cmdline>  (1) 
J2VwaWtfcHl0aG9uJywgJy1waHQnLCAnMS4wJywgJy1waCcsICc3LjQnLCAnLXRuJywgJzgnLCAnLW1hJywgJzUwMCcsICctaW1hZScsICc8aW5maWxlLm1hZT4nLCAnLW9tYWUnLCAnPG91dGZpbGUubWFlPic=

>  <s_epik_input>  (1) 
W0NIM11jMVtjSF1jKFtPSF0pYyhbT0hdKVtjSF1bY0hdMQ==

>  <s_glide_docking_method>  (1) 
confgen

>  <s_i_glide_gridfile>  (1) 
gpcr_5ht2c_6bqh_protein_autoprepared_prepared

>  <s_lp_Force_Field>  (1) 
S-OPLS

>  <s_lp_Variant>  (1) 
Pocket2Mol_86_num_sample_100-1

>  <s_m_source_file>  (1) 
generated__ligand_Pocket2Mol_2026-05-06_prepared.sdf

>  <GenAI_Model>  (1) 
Pocket2Mol

>  <Protein>  (1) 
GPCR_5HT2C

$$$$
Pocket2Mol_80_num_sample_100
     RDKit          3D

  0  0  0  0  0  0  0  0  0  0999 V3000
M  V30 BEGIN CTAB
M  V30 COUNTS 17 17 0 0 1
M  V30 BEGIN ATOM
M  V30 1 C 39.200449 29.617790 53.421040 0
M  V30 2 C 39.867403 30.341692 52.413507 0
M  V30 3 C 40.003498 29.791284 51.122291 0
M  V30 4 C 40.724384 30.566775 50.041023 0
M  V30 5 C 39.467403 28.518919 50.839590 0
M  V30 6 C 38.669241 28.340130 53.135188 0
M  V30 7 C 37.983707 27.566812 54.190554 0
M  V30 8 O 37.867405 27.954673 55.350296 0
M  V30 9 C 38.799546 27.795660 51.843222 0
M  V30 10 H 39.100985 30.039243 54.411579 0
M  V30 11 H 40.275677 31.317369 52.631110 0
M  V30 12 H 40.806274 29.982617 49.124554 0
M  V30 13 H 40.188037 31.488491 49.814193 0
M  V30 14 H 41.732725 30.821430 50.366940 0
M  V30 15 H 39.568124 28.097819 49.853501 0
M  V30 16 H 37.586975 26.607322 53.857699 0
M  V30 17 H 38.391349 26.821430 51.621604 0
M  V30 END ATOM
M  V30 BEGIN BOND
M  V30 1 2 2 1
M  V30 2 1 3 2
M  V30 3 1 4 3
M  V30 4 2 5 3
M  V30 5 1 6 1
M  V30 6 1 7 6
M  V30 7 2 8 7
M  V30 8 1 9 5
M  V30 9 2 9 6
M  V30 10 1 10 1
M  V30 11 1 11 2
M  V30 12 1 12 4
M  V30 13 1 13 4
M  V30 14 1 14 4
M  V30 15 1 15 5
M  V30 16 1 16 7
M  V30 17 1 17 9
M  V30 END BOND
M  V30 END CTAB
M  END
>  <i_epik_Tot_Q>  (1) 
0

>  <i_epik_Tot_abs_Q>  (1) 
0

>  <i_i_glide_confnum>  (1) 
1

>  <i_i_glide_lignum>  (1) 
85

>  <i_i_glide_posenum>  (1) 
299

>  <i_i_glide_rotatable_bonds>  (1) 
1

>  <i_lp_mmshare_version>  (1) 
72125

>  <i_m_source_file_index>  (1) 
81

>  <i_f3d_flags>  (1) 
0

>  <num_sample>  (1) 
100

>  <b_lp_Chiralities_Consistent>  (1) 
1

>  <r_epik_Charging_Adjusted_Penalty>  (1) 
0

>  <r_epik_Ionization_Penalty>  (1) 
0

>  <r_epik_Ionization_Penalty_Charging>  (1) 
0

>  <r_epik_Ionization_Penalty_Neutral>  (1) 
0

>  <r_epik_State_Penalty>  (1) 
-0

>  <r_glide_ring_energy>  (1) 
0

>  <r_i_docking_score>  (1) 
-6.4508282979151019

>  <r_i_glide_ecoul>  (1) 
-1.0763685613840852

>  <r_i_glide_eff_state_penalty>  (1) 
-0

>  <r_i_glide_einternal>  (1) 
0.14699221214275304

>  <r_i_glide_emodel>  (1) 
-30.010554085913089

>  <r_i_glide_emodel_strain>  (1) 
0.0064424986327020761

>  <r_i_glide_energy>  (1) 
-21.405134044825783

>  <r_i_glide_erotb>  (1) 
0

>  <r_i_glide_esite>  (1) 
0

>  <r_i_glide_evdw>  (1) 
-20.328765483441696

>  <r_i_glide_gscore>  (1) 
-6.4508282979151019

>  <r_i_glide_gscore_strain>  (1) 
0

>  <r_i_glide_hbond>  (1) 
0

>  <r_i_glide_ligand_efficiency>  (1) 
-0.71675869976834461

>  <r_i_glide_ligand_efficiency_ln>  (1) 
-2.0176337763829011

>  <r_i_glide_ligand_efficiency_sa>  (1) 
-1.4909181764198505

>  <r_i_glide_lipo>  (1) 
-2.1740225654577787

>  <r_i_glide_metal>  (1) 
-0

>  <r_i_glide_rewards>  (1) 
-3.098912174077626

>  <r_lp_Energy>  (1) 
4.8020719999999999

>  <r_lp_tautomer_probability>  (1) 
1

>  <s_epik_cmdline>  (1) 
J2VwaWtfcHl0aG9uJywgJy1waHQnLCAnMS4wJywgJy1waCcsICc3LjQnLCAnLXRuJywgJzgnLCAnLW1hJywgJzUwMCcsICctaW1hZScsICc8aW5maWxlLm1hZT4nLCAnLW9tYWUnLCAnPG91dGZpbGUubWFlPic=

>  <s_epik_input>  (1) 
W2NIXTFbY0hdYyhbQ0hdPU8pW2NIXVtjSF1jMVtDSDNd

>  <s_glide_docking_method>  (1) 
confgen

>  <s_i_glide_gridfile>  (1) 
gpcr_5ht2c_6bqh_protein_autoprepared_prepared

>  <s_lp_Force_Field>  (1) 
S-OPLS

>  <s_lp_Variant>  (1) 
Pocket2Mol_80_num_sample_100-1

>  <s_m_source_file>  (1) 
generated__ligand_Pocket2Mol_2026-05-06_prepared.sdf

>  <GenAI_Model>  (1) 
Pocket2Mol

>  <Protein>  (1) 
GPCR_5HT2C

$$$$
Pocket2Mol_94_num_sample_100
     RDKit          3D

  0  0  0  0  0  0  0  0  0  0999 V3000
M  V30 BEGIN CTAB
M  V30 COUNTS 16 17 0 0 1
M  V30 BEGIN ATOM
M  V30 1 C 38.196906 27.685777 52.831377 0
M  V30 2 C 39.038707 28.525881 52.036837 0
M  V30 3 C 39.479839 29.774086 52.468579 0
M  V30 4 C 39.511174 28.326972 50.879108 0
M  V30 5 C 39.063180 30.232579 53.782942 0
M  V30 6 C 40.266294 29.489427 50.583480 0
M  V30 7 C 38.259699 29.444200 54.555521 0
M  V30 8 C 40.267351 30.421349 51.569290 0
M  V30 9 O 37.865147 29.865247 55.763314 0
M  V30 10 C 37.814878 28.121257 54.051620 0
M  V30 11 H 37.869729 26.726532 52.462979 0
M  V30 12 H 39.367234 27.459439 50.253468 0
M  V30 13 H 39.386366 31.198309 54.145127 0
M  V30 14 H 40.791577 29.615315 49.648129 0
M  V30 15 H 38.046819 30.790855 55.829128 0
M  V30 16 H 37.177135 27.501613 54.663754 0
M  V30 END ATOM
M  V30 BEGIN BOND
M  V30 1 1 2 1
M  V30 2 1 3 2
M  V30 3 2 4 2
M  V30 4 1 5 3
M  V30 5 1 6 4
M  V30 6 2 7 5
M  V30 7 2 8 3
M  V30 8 2 8 6
M  V30 9 1 9 7
M  V30 10 2 10 1
M  V30 11 1 10 7
M  V30 12 1 11 1
M  V30 13 1 12 4
M  V30 14 1 13 5
M  V30 15 1 14 6
M  V30 16 1 15 9
M  V30 17 1 16 10
M  V30 END BOND
M  V30 END CTAB
M  END
>  <i_epik_Tot_Q>  (1) 
0

>  <i_epik_Tot_abs_Q>  (1) 
0

>  <i_i_glide_confnum>  (1) 
1

>  <i_i_glide_lignum>  (1) 
99

>  <i_i_glide_posenum>  (1) 
361

>  <i_i_glide_rotatable_bonds>  (1) 
1

>  <i_lp_mmshare_version>  (1) 
72125

>  <i_m_source_file_index>  (1) 
95

>  <i_f3d_flags>  (1) 
0

>  <num_sample>  (1) 
100

>  <b_lp_Chiralities_Consistent>  (1) 
1

>  <r_epik_Charging_Adjusted_Penalty>  (1) 
0

>  <r_epik_Ionization_Penalty>  (1) 
1.8682351542324854e-05

>  <r_epik_Ionization_Penalty_Charging>  (1) 
0

>  <r_epik_Ionization_Penalty_Neutral>  (1) 
1.8682351542324854e-05

>  <r_epik_State_Penalty>  (1) 
-0

>  <r_glide_ring_energy>  (1) 
0

>  <r_i_docking_score>  (1) 
-6.4497390007419675

>  <r_i_glide_ecoul>  (1) 
-0.9727635228550936

>  <r_i_glide_eff_state_penalty>  (1) 
-0

>  <r_i_glide_einternal>  (1) 
0.15475101887471032

>  <r_i_glide_emodel>  (1) 
-32.730767508230812

>  <r_i_glide_emodel_strain>  (1) 
0

>  <r_i_glide_energy>  (1) 
-22.902147111130514

>  <r_i_glide_erotb>  (1) 
0

>  <r_i_glide_esite>  (1) 
0

>  <r_i_glide_evdw>  (1) 
-21.929383588275421

>  <r_i_glide_gscore>  (1) 
-6.4497390007419675

>  <r_i_glide_gscore_strain>  (1) 
0

>  <r_i_glide_hbond>  (1) 
0

>  <r_i_glide_ligand_efficiency>  (1) 
-0.64497390007419675

>  <r_i_glide_ligand_efficiency_ln>  (1) 
-1.9529365085623838

>  <r_i_glide_ligand_efficiency_sa>  (1) 
-1.3895541444850075

>  <r_i_glide_lipo>  (1) 
-2.6323552928999323

>  <r_i_glide_metal>  (1) 
-0

>  <r_i_glide_rewards>  (1) 
-2.5750000000000002

>  <r_lp_Energy>  (1) 
8.2800799999999999

>  <r_lp_tautomer_probability>  (1) 
1

>  <s_epik_cmdline>  (1) 
J2VwaWtfcHl0aG9uJywgJy1waHQnLCAnMS4wJywgJy1waCcsICc3LjQnLCAnLXRuJywgJzgnLCAnLW1hJywgJzUwMCcsICctaW1hZScsICc8aW5maWxlLm1hZT4nLCAnLW9tYWUnLCAnPG91dGZpbGUubWFlPic=

>  <s_epik_input>  (1) 
W2NIXTFbY0hdYyhbT0hdKVtjSF1jKGMxPTIpPUM9W0NIXVtDSF0y

>  <s_glide_docking_method>  (1) 
confgen

>  <s_i_glide_gridfile>  (1) 
gpcr_5ht2c_6bqh_protein_autoprepared_prepared

>  <s_lp_Force_Field>  (1) 
S-OPLS

>  <s_lp_Variant>  (1) 
Pocket2Mol_94_num_sample_100-1

>  <s_m_source_file>  (1) 
generated__ligand_Pocket2Mol_2026-05-06_prepared.sdf

>  <GenAI_Model>  (1) 
Pocket2Mol

>  <Protein>  (1) 
GPCR_5HT2C

$$$$
Pocket2Mol_71_num_sample_100
     RDKit          3D

  0  0  0  0  0  0  0  0  0  0999 V3000
M  V30 BEGIN CTAB
M  V30 COUNTS 17 17 0 0 1
M  V30 BEGIN ATOM
M  V30 1 C 39.159645 30.539287 54.251337 0
M  V30 2 C 39.866749 30.487383 53.032770 0
M  V30 3 C 39.567528 29.485718 52.085127 0
M  V30 4 C 40.320005 29.445302 50.766518 0
M  V30 5 C 38.563451 28.528675 52.365224 0
M  V30 6 O 38.267434 27.558296 51.453504 0
M  V30 7 C 38.156983 29.587148 54.526392 0
M  V30 8 O 37.467605 29.638750 55.702752 0
M  V30 9 C 37.862960 28.580984 53.585692 0
M  V30 10 H 39.385902 31.310606 54.973077 0
M  V30 11 H 40.631670 31.221218 52.821740 0
M  V30 12 H 40.267536 28.466974 50.289221 0
M  V30 13 H 39.898936 30.177594 50.077243 0
M  V30 14 H 41.371648 29.686987 50.921387 0
M  V30 15 H 37.495182 27.039366 51.641759 0
M  V30 16 H 37.339458 30.510513 56.055525 0
M  V30 17 H 37.094598 27.852415 53.799377 0
M  V30 END ATOM
M  V30 BEGIN BOND
M  V30 1 2 2 1
M  V30 2 1 3 2
M  V30 3 1 4 3
M  V30 4 2 5 3
M  V30 5 1 6 5
M  V30 6 1 7 1
M  V30 7 1 8 7
M  V30 8 1 9 5
M  V30 9 2 9 7
M  V30 10 1 10 1
M  V30 11 1 11 2
M  V30 12 1 12 4
M  V30 13 1 13 4
M  V30 14 1 14 4
M  V30 15 1 15 6
M  V30 16 1 16 8
M  V30 17 1 17 9
M  V30 END BOND
M  V30 END CTAB
M  END
>  <i_epik_Tot_Q>  (1) 
0

>  <i_epik_Tot_abs_Q>  (1) 
0

>  <i_i_glide_confnum>  (1) 
1

>  <i_i_glide_lignum>  (1) 
76

>  <i_i_glide_posenum>  (1) 
174

>  <i_i_glide_rotatable_bonds>  (1) 
2

>  <i_lp_mmshare_version>  (1) 
72125

>  <i_m_source_file_index>  (1) 
72

>  <i_f3d_flags>  (1) 
0

>  <num_sample>  (1) 
100

>  <b_lp_Chiralities_Consistent>  (1) 
1

>  <r_epik_Charging_Adjusted_Penalty>  (1) 
0.00325898940304725

>  <r_epik_Ionization_Penalty>  (1) 
0.005516606254364515

>  <r_epik_Ionization_Penalty_Charging>  (1) 
0

>  <r_epik_Ionization_Penalty_Neutral>  (1) 
0.005516606254364515

>  <r_epik_State_Penalty>  (1) 
0.00325898940304725

>  <r_glide_ring_energy>  (1) 
0

>  <r_i_docking_score>  (1) 
-6.4470234510105016

>  <r_i_glide_ecoul>  (1) 
-4.2869666092200482

>  <r_i_glide_eff_state_penalty>  (1) 
0.00325898940304725

>  <r_i_glide_einternal>  (1) 
0.89986061782627869

>  <r_i_glide_emodel>  (1) 
-30.742279595663391

>  <r_i_glide_emodel_strain>  (1) 
0.54009078179891734

>  <r_i_glide_energy>  (1) 
-22.226004628351198

>  <r_i_glide_erotb>  (1) 
0

>  <r_i_glide_esite>  (1) 
0

>  <r_i_glide_evdw>  (1) 
-17.93903801913115

>  <r_i_glide_gscore>  (1) 
-6.4502824404135488

>  <r_i_glide_gscore_strain>  (1) 
0

>  <r_i_glide_hbond>  (1) 
-0.32000000000000001

>  <r_i_glide_ligand_efficiency>  (1) 
-0.71633593900116688

>  <r_i_glide_ligand_efficiency_ln>  (1) 
-2.0164437295743127

>  <r_i_glide_ligand_efficiency_sa>  (1) 
-1.4900387985870229

>  <r_i_glide_lipo>  (1) 
-2.081326616103953

>  <r_i_glide_metal>  (1) 
-0

>  <r_i_glide_rewards>  (1) 
-2.5089589319700312

>  <r_lp_Energy>  (1) 
3.8278699999999999

>  <r_lp_tautomer_probability>  (1) 
0.99999999989799981

>  <s_epik_cmdline>  (1) 
J2VwaWtfcHl0aG9uJywgJy1waHQnLCAnMS4wJywgJy1waCcsICc3LjQnLCAnLXRuJywgJzgnLCAnLW1hJywgJzUwMCcsICctaW1hZScsICc8aW5maWxlLm1hZT4nLCAnLW9tYWUnLCAnPG91dGZpbGUubWFlPic=

>  <s_epik_input>  (1) 
W0NIM11jMVtjSF1bY0hdYyhbT0hdKVtjSF1jMVtPSF0=

>  <s_glide_docking_method>  (1) 
confgen

>  <s_i_glide_gridfile>  (1) 
gpcr_5ht2c_6bqh_protein_autoprepared_prepared

>  <s_lp_Force_Field>  (1) 
S-OPLS

>  <s_lp_Variant>  (1) 
Pocket2Mol_71_num_sample_100-1

>  <s_m_source_file>  (1) 
generated__ligand_Pocket2Mol_2026-05-06_prepared.sdf

>  <GenAI_Model>  (1) 
Pocket2Mol

>  <Protein>  (1) 
GPCR_5HT2C

$$$$
Pocket2Mol_97_num_sample_100
     RDKit          3D

  0  0  0  0  0  0  0  0  0  0999 V3000
M  V30 BEGIN CTAB
M  V30 COUNTS 17 18 0 0 1
M  V30 BEGIN ATOM
M  V30 1 C 38.946466 29.916967 54.234470 0
M  V30 2 C 39.258000 29.561446 52.906786 0
M  V30 3 C 38.872611 28.296406 52.405621 0
M  V30 4 C 39.951094 30.444469 52.057777 0
M  V30 5 C 40.230344 30.026124 50.742364 0
M  V30 6 C 38.177220 27.389579 53.231195 0
M  V30 7 C 37.867552 27.748814 54.558275 0
M  V30 8 C 39.202790 27.978462 51.072478 0
M  V30 9 N 39.867403 28.821433 50.253619 0
M  V30 10 C 38.251231 29.009440 55.058723 0
M  V30 11 H 39.237718 30.881265 54.623606 0
M  V30 12 H 40.263810 31.419538 52.399782 0
M  V30 13 H 40.760366 30.677549 50.063134 0
M  V30 14 H 37.880935 26.422191 52.852399 0
M  V30 15 H 37.334669 27.056377 55.194024 0
M  V30 16 H 38.928029 27.023623 50.648615 0
M  V30 17 H 38.011626 29.280301 56.076627 0
M  V30 END ATOM
M  V30 BEGIN BOND
M  V30 1 2 2 1
M  V30 2 1 3 2
M  V30 3 1 4 2
M  V30 4 2 5 4
M  V30 5 2 6 3
M  V30 6 1 7 6
M  V30 7 1 8 3
M  V30 8 1 9 5
M  V30 9 2 9 8
M  V30 10 1 10 1
M  V30 11 2 10 7
M  V30 12 1 11 1
M  V30 13 1 12 4
M  V30 14 1 13 5
M  V30 15 1 14 6
M  V30 16 1 15 7
M  V30 17 1 16 8
M  V30 18 1 17 10
M  V30 END BOND
M  V30 END CTAB
M  END
>  <i_epik_Tot_Q>  (1) 
0

>  <i_epik_Tot_abs_Q>  (1) 
0

>  <i_i_glide_confnum>  (1) 
1

>  <i_i_glide_lignum>  (1) 
102

>  <i_i_glide_posenum>  (1) 
242

>  <i_i_glide_rotatable_bonds>  (1) 
0

>  <i_lp_mmshare_version>  (1) 
72125

>  <i_m_source_file_index>  (1) 
98

>  <i_f3d_flags>  (1) 
0

>  <num_sample>  (1) 
100

>  <b_lp_Chiralities_Consistent>  (1) 
1

>  <r_epik_Charging_Adjusted_Penalty>  (1) 
0.015036794032578672

>  <r_epik_Ionization_Penalty>  (1) 
0.01503679403257876

>  <r_epik_Ionization_Penalty_Charging>  (1) 
0

>  <r_epik_Ionization_Penalty_Neutral>  (1) 
0.01503679403257876

>  <r_epik_State_Penalty>  (1) 
0.015036794032578672

>  <r_glide_ring_energy>  (1) 
0

>  <r_i_docking_score>  (1) 
-6.4379942187589361

>  <r_i_glide_ecoul>  (1) 
-1.2443307473585294

>  <r_i_glide_eff_state_penalty>  (1) 
0.015036794032578672

>  <r_i_glide_einternal>  (1) 
0

>  <r_i_glide_emodel>  (1) 
-31.677286350988652

>  <r_i_glide_emodel_strain>  (1) 
0

>  <r_i_glide_energy>  (1) 
-22.722534749456585

>  <r_i_glide_erotb>  (1) 
0

>  <r_i_glide_esite>  (1) 
0

>  <r_i_glide_evdw>  (1) 
-21.478204002098057

>  <r_i_glide_gscore>  (1) 
-6.4530310127915147

>  <r_i_glide_gscore_strain>  (1) 
0

>  <r_i_glide_hbond>  (1) 
0

>  <r_i_glide_ligand_efficiency>  (1) 
-0.64379942187589356

>  <r_i_glide_ligand_efficiency_ln>  (1) 
-1.9493802695398235

>  <r_i_glide_ligand_efficiency_sa>  (1) 
-1.3870238079118968

>  <r_i_glide_lipo>  (1) 
-2.4617702684862328

>  <r_i_glide_metal>  (1) 
-0

>  <r_i_glide_rewards>  (1) 
-2.7307009320965996

>  <r_lp_Energy>  (1) 
19.776892999999998

>  <s_epik_cmdline>  (1) 
J2VwaWtfcHl0aG9uJywgJy1waHQnLCAnMS4wJywgJy1waCcsICc3LjQnLCAnLXRuJywgJzgnLCAnLW1hJywgJzUwMCcsICctaW1hZScsICc8aW5maWxlLm1hZT4nLCAnLW9tYWUnLCAnPG91dGZpbGUubWFlPic=

>  <s_epik_input>  (1) 
W2NIXTFbY0hdW2NIXVtjSF1jKGMxMilbY0hdbltjSF1bY0hdMg==

>  <s_glide_docking_method>  (1) 
confgen

>  <s_i_glide_gridfile>  (1) 
gpcr_5ht2c_6bqh_protein_autoprepared_prepared

>  <s_lp_Force_Field>  (1) 
S-OPLS

>  <s_lp_Variant>  (1) 
Pocket2Mol_97_num_sample_100-1

>  <s_m_source_file>  (1) 
generated__ligand_Pocket2Mol_2026-05-06_prepared.sdf

>  <GenAI_Model>  (1) 
Pocket2Mol

>  <Protein>  (1) 
GPCR_5HT2C

$$$$
Pocket2Mol_52_num_sample_100
     RDKit          3D

  0  0  0  0  0  0  0  0  0  0999 V3000
M  V30 BEGIN CTAB
M  V30 COUNTS 16 16 0 0 1
M  V30 BEGIN ATOM
M  V30 1 C 39.867412 30.110282 52.136677 0
M  V30 2 C 39.554847 29.114675 51.190351 0
M  V30 3 C 39.375507 30.011092 53.454458 0
M  V30 4 C 39.715623 31.077912 54.472590 0
M  V30 5 C 38.747713 28.021480 51.559332 0
M  V30 6 C 38.252731 27.923771 52.874872 0
M  V30 7 O 37.467405 26.869247 53.231358 0
M  V30 8 C 38.567247 28.916431 53.822167 0
M  V30 9 H 40.486157 30.949841 51.852390 0
M  V30 10 H 39.932735 29.190844 50.181130 0
M  V30 11 H 39.368171 30.804455 55.469256 0
M  V30 12 H 40.795385 31.221490 54.519469 0
M  V30 13 H 39.244913 32.021431 54.198805 0
M  V30 14 H 38.507492 27.259146 50.832590 0
M  V30 15 H 37.091364 26.421415 52.480915 0
M  V30 16 H 38.186947 28.838822 54.830590 0
M  V30 END ATOM
M  V30 BEGIN BOND
M  V30 1 2 2 1
M  V30 2 1 3 1
M  V30 3 1 4 3
M  V30 4 1 5 2
M  V30 5 2 6 5
M  V30 6 1 7 6
M  V30 7 2 8 3
M  V30 8 1 8 6
M  V30 9 1 9 1
M  V30 10 1 10 2
M  V30 11 1 11 4
M  V30 12 1 12 4
M  V30 13 1 13 4
M  V30 14 1 14 5
M  V30 15 1 15 7
M  V30 16 1 16 8
M  V30 END BOND
M  V30 END CTAB
M  END
>  <i_epik_Tot_Q>  (1) 
0

>  <i_epik_Tot_abs_Q>  (1) 
0

>  <i_i_glide_confnum>  (1) 
1

>  <i_i_glide_lignum>  (1) 
55

>  <i_i_glide_posenum>  (1) 
336

>  <i_i_glide_rotatable_bonds>  (1) 
1

>  <i_lp_mmshare_version>  (1) 
72125

>  <i_m_source_file_index>  (1) 
53

>  <i_f3d_flags>  (1) 
0

>  <num_sample>  (1) 
100

>  <b_lp_Chiralities_Consistent>  (1) 
1

>  <r_epik_Charging_Adjusted_Penalty>  (1) 
0

>  <r_epik_Ionization_Penalty>  (1) 
0.0017015869167085525

>  <r_epik_Ionization_Penalty_Charging>  (1) 
0

>  <r_epik_Ionization_Penalty_Neutral>  (1) 
0.0017015869167085525

>  <r_epik_State_Penalty>  (1) 
-0

>  <r_glide_ring_energy>  (1) 
0

>  <r_i_docking_score>  (1) 
-6.435878838950952

>  <r_i_glide_ecoul>  (1) 
-4.3298023794657023

>  <r_i_glide_eff_state_penalty>  (1) 
-0

>  <r_i_glide_einternal>  (1) 
0.47200173491013131

>  <r_i_glide_emodel>  (1) 
-28.781379659114105

>  <r_i_glide_emodel_strain>  (1) 
0.016022950210406783

>  <r_i_glide_energy>  (1) 
-20.778618682936951

>  <r_i_glide_erotb>  (1) 
0

>  <r_i_glide_esite>  (1) 
0

>  <r_i_glide_evdw>  (1) 
-16.448816303471247

>  <r_i_glide_gscore>  (1) 
-6.435878838950952

>  <r_i_glide_gscore_strain>  (1) 
0

>  <r_i_glide_hbond>  (1) 
-0.32000000000000001

>  <r_i_glide_ligand_efficiency>  (1) 
-0.804484854868869

>  <r_i_glide_ligand_efficiency_ln>  (1) 
-2.0899499964010291

>  <r_i_glide_ligand_efficiency_sa>  (1) 
-1.6089697097377382

>  <r_i_glide_lipo>  (1) 
-2.1167355979429465

>  <r_i_glide_metal>  (1) 
-0

>  <r_i_glide_rewards>  (1) 
-2.527232068914588

>  <r_lp_Energy>  (1) 
5.2727110000000001

>  <r_lp_tautomer_probability>  (1) 
1

>  <s_epik_cmdline>  (1) 
J2VwaWtfcHl0aG9uJywgJy1waHQnLCAnMS4wJywgJy1waCcsICc3LjQnLCAnLXRuJywgJzgnLCAnLW1hJywgJzUwMCcsICctaW1hZScsICc8aW5maWxlLm1hZT4nLCAnLW9tYWUnLCAnPG91dGZpbGUubWFlPic=

>  <s_epik_input>  (1) 
W0NIM11jMVtjSF1bY0hdW2NIXWMoW09IXSlbY0hdMQ==

>  <s_glide_docking_method>  (1) 
confgen

>  <s_i_glide_gridfile>  (1) 
gpcr_5ht2c_6bqh_protein_autoprepared_prepared

>  <s_lp_Force_Field>  (1) 
S-OPLS

>  <s_lp_Variant>  (1) 
Pocket2Mol_52_num_sample_100-1

>  <s_m_source_file>  (1) 
generated__ligand_Pocket2Mol_2026-05-06_prepared.sdf

>  <GenAI_Model>  (1) 
Pocket2Mol

>  <Protein>  (1) 
GPCR_5HT2C

$$$$
Pocket2Mol_72_num_sample_100
     RDKit          3D

  0  0  0  0  0  0  0  0  0  0999 V3000
M  V30 BEGIN CTAB
M  V30 COUNTS 15 16 0 0 1
M  V30 BEGIN ATOM
M  V30 1 C 38.538048 27.675404 52.285572 0
M  V30 2 C 38.733171 28.763286 53.199529 0
M  V30 3 C 39.467403 29.905315 52.870240 0
M  V30 4 C 38.317271 28.900305 54.388749 0
M  V30 5 C 40.049199 29.985455 51.541569 0
M  V30 6 C 38.806427 30.162058 54.807745 0
M  V30 7 C 39.867408 28.959051 50.665448 0
M  V30 8 C 39.535992 30.821417 53.869787 0
M  V30 9 C 39.086259 27.761525 51.053495 0
M  V30 10 H 37.964767 26.807639 52.574872 0
M  V30 11 H 37.718754 28.205730 54.959691 0
M  V30 12 H 40.619760 30.856173 51.248677 0
M  V30 13 H 38.606450 30.559093 55.792531 0
M  V30 14 H 40.294615 29.019599 49.675810 0
M  V30 15 H 38.952760 26.954056 50.347659 0
M  V30 END ATOM
M  V30 BEGIN BOND
M  V30 1 1 2 1
M  V30 2 1 3 2
M  V30 3 2 4 2
M  V30 4 1 5 3
M  V30 5 1 6 4
M  V30 6 2 7 5
M  V30 7 2 8 3
M  V30 8 2 8 6
M  V30 9 2 9 1
M  V30 10 1 9 7
M  V30 11 1 10 1
M  V30 12 1 11 4
M  V30 13 1 12 5
M  V30 14 1 13 6
M  V30 15 1 14 7
M  V30 16 1 15 9
M  V30 END BOND
M  V30 END CTAB
M  END
>  <i_epik_Tot_Q>  (1) 
0

>  <i_epik_Tot_abs_Q>  (1) 
0

>  <i_i_glide_confnum>  (1) 
1

>  <i_i_glide_lignum>  (1) 
77

>  <i_i_glide_posenum>  (1) 
29

>  <i_i_glide_rotatable_bonds>  (1) 
0

>  <i_lp_mmshare_version>  (1) 
72125

>  <i_m_source_file_index>  (1) 
73

>  <i_f3d_flags>  (1) 
0

>  <num_sample>  (1) 
100

>  <b_lp_Chiralities_Consistent>  (1) 
1

>  <r_epik_Charging_Adjusted_Penalty>  (1) 
0

>  <r_epik_Ionization_Penalty>  (1) 
0

>  <r_epik_Ionization_Penalty_Charging>  (1) 
0

>  <r_epik_Ionization_Penalty_Neutral>  (1) 
0

>  <r_epik_State_Penalty>  (1) 
-0

>  <r_glide_ring_energy>  (1) 
0

>  <r_i_docking_score>  (1) 
-6.4309641540356193

>  <r_i_glide_ecoul>  (1) 
-0.85883638822337005

>  <r_i_glide_eff_state_penalty>  (1) 
-0

>  <r_i_glide_einternal>  (1) 
0

>  <r_i_glide_emodel>  (1) 
-30.278930852510637

>  <r_i_glide_emodel_strain>  (1) 
0

>  <r_i_glide_energy>  (1) 
-21.741818870300321

>  <r_i_glide_erotb>  (1) 
0

>  <r_i_glide_esite>  (1) 
0

>  <r_i_glide_evdw>  (1) 
-20.882982482076951

>  <r_i_glide_gscore>  (1) 
-6.4309641540356193

>  <r_i_glide_gscore_strain>  (1) 
0

>  <r_i_glide_hbond>  (1) 
0

>  <r_i_glide_ligand_efficiency>  (1) 
-0.71455157267062441

>  <r_i_glide_ligand_efficiency_ln>  (1) 
-2.0114208428216207

>  <r_i_glide_ligand_efficiency_sa>  (1) 
-1.486327167048463

>  <r_i_glide_lipo>  (1) 
-2.5464839616871111

>  <r_i_glide_metal>  (1) 
-0

>  <r_i_glide_rewards>  (1) 
-2.7115056100111556

>  <r_lp_Energy>  (1) 
11.424324

>  <r_lp_tautomer_probability>  (1) 
1

>  <s_epik_cmdline>  (1) 
J2VwaWtfcHl0aG9uJywgJy1waHQnLCAnMS4wJywgJy1waCcsICc3LjQnLCAnLXRuJywgJzgnLCAnLW1hJywgJzUwMCcsICctaW1hZScsICc8aW5maWxlLm1hZT4nLCAnLW9tYWUnLCAnPG91dGZpbGUubWFlPic=

>  <s_epik_input>  (1) 
W2NIXTFbY0hdW2NIXVtjSF1jKGMxPTIpPUM9W0NIXVtDSF0y

>  <s_glide_docking_method>  (1) 
confgen

>  <s_i_glide_gridfile>  (1) 
gpcr_5ht2c_6bqh_protein_autoprepared_prepared

>  <s_lp_Force_Field>  (1) 
S-OPLS

>  <s_lp_Variant>  (1) 
Pocket2Mol_72_num_sample_100-1

>  <s_m_source_file>  (1) 
generated__ligand_Pocket2Mol_2026-05-06_prepared.sdf

>  <GenAI_Model>  (1) 
Pocket2Mol

>  <Protein>  (1) 
GPCR_5HT2C

$$$$
Pocket2Mol_89_num_sample_100
     RDKit          3D

  0  0  0  0  0  0  0  0  0  0999 V3000
M  V30 BEGIN CTAB
M  V30 COUNTS 17 18 0 0 1
M  V30 BEGIN ATOM
M  V30 1 C 40.221327 30.462672 51.732360 0
M  V30 2 C 39.467407 29.799817 52.664020 0
M  V30 3 C 39.150305 30.200986 53.965116 0
M  V30 4 C 38.338667 29.343687 54.749406 0
M  V30 5 C 37.872925 28.110242 54.199847 0
M  V30 6 C 39.026532 28.624296 52.130416 0
M  V30 7 C 39.491446 28.370229 50.653502 0
M  V30 8 C 38.223231 27.749253 52.872427 0
M  V30 9 C 40.270389 29.741269 50.622983 0
M  V30 10 H 40.681522 31.422727 51.909115 0
M  V30 11 H 39.511334 31.139075 54.361051 0
M  V30 12 H 38.071896 29.623005 55.758755 0
M  V30 13 H 37.254164 27.453176 54.792225 0
M  V30 14 H 38.667877 28.354440 49.942999 0
M  V30 15 H 40.145000 27.506263 50.545556 0
M  V30 16 H 37.875587 26.821447 52.442879 0
M  V30 17 H 40.802917 30.049352 49.735366 0
M  V30 END ATOM
M  V30 BEGIN BOND
M  V30 1 1 2 1
M  V30 2 2 3 2
M  V30 3 1 4 3
M  V30 4 2 5 4
M  V30 5 1 6 2
M  V30 6 1 7 6
M  V30 7 1 8 5
M  V30 8 2 8 6
M  V30 9 2 9 1
M  V30 10 1 9 7
M  V30 11 1 10 1
M  V30 12 1 11 3
M  V30 13 1 12 4
M  V30 14 1 13 5
M  V30 15 1 14 7
M  V30 16 1 15 7
M  V30 17 1 16 8
M  V30 18 1 17 9
M  V30 END BOND
M  V30 END CTAB
M  END
>  <i_epik_Tot_Q>  (1) 
0

>  <i_epik_Tot_abs_Q>  (1) 
0

>  <i_i_glide_confnum>  (1) 
1

>  <i_i_glide_lignum>  (1) 
94

>  <i_i_glide_posenum>  (1) 
366

>  <i_i_glide_rotatable_bonds>  (1) 
0

>  <i_lp_mmshare_version>  (1) 
72125

>  <i_m_source_file_index>  (1) 
90

>  <i_f3d_flags>  (1) 
0

>  <num_sample>  (1) 
100

>  <b_lp_Chiralities_Consistent>  (1) 
1

>  <r_epik_Charging_Adjusted_Penalty>  (1) 
0

>  <r_epik_Ionization_Penalty>  (1) 
0

>  <r_epik_Ionization_Penalty_Charging>  (1) 
0

>  <r_epik_Ionization_Penalty_Neutral>  (1) 
0

>  <r_epik_State_Penalty>  (1) 
-0

>  <r_glide_ring_energy>  (1) 
0

>  <r_i_docking_score>  (1) 
-6.4290783915348584

>  <r_i_glide_ecoul>  (1) 
-1.1737397893139283

>  <r_i_glide_eff_state_penalty>  (1) 
-0

>  <r_i_glide_einternal>  (1) 
0

>  <r_i_glide_emodel>  (1) 
-29.240267900429366

>  <r_i_glide_emodel_strain>  (1) 
0

>  <r_i_glide_energy>  (1) 
-20.9024994169474

>  <r_i_glide_erotb>  (1) 
0

>  <r_i_glide_esite>  (1) 
0

>  <r_i_glide_evdw>  (1) 
-19.728759627633472

>  <r_i_glide_gscore>  (1) 
-6.4290783915348584

>  <r_i_glide_gscore_strain>  (1) 
0

>  <r_i_glide_hbond>  (1) 
0

>  <r_i_glide_ligand_efficiency>  (1) 
-0.7143420435038732

>  <r_i_glide_ligand_efficiency_ln>  (1) 
-2.0108310304843431

>  <r_i_glide_ligand_efficiency_sa>  (1) 
-1.4858913288182463

>  <r_i_glide_lipo>  (1) 
-2.5546875868704291

>  <r_i_glide_metal>  (1) 
-0

>  <r_i_glide_rewards>  (1) 
-2.7118918548856659

>  <r_lp_Energy>  (1) 
7.8773689999999998

>  <r_lp_tautomer_probability>  (1) 
1

>  <s_epik_cmdline>  (1) 
J2VwaWtfcHl0aG9uJywgJy1waHQnLCAnMS4wJywgJy1waCcsICc3LjQnLCAnLXRuJywgJzgnLCAnLW1hJywgJzUwMCcsICctaW1hZScsICc8aW5maWxlLm1hZT4nLCAnLW9tYWUnLCAnPG91dGZpbGUubWFlPic=

>  <s_epik_input>  (1) 
W0NIXTE9W0NIXVtDSDJdYyhjMTIpW2NIXVtjSF1bY0hdW2NIXTI=

>  <s_glide_docking_method>  (1) 
confgen

>  <s_i_glide_gridfile>  (1) 
gpcr_5ht2c_6bqh_protein_autoprepared_prepared

>  <s_lp_Force_Field>  (1) 
S-OPLS

>  <s_lp_Variant>  (1) 
Pocket2Mol_89_num_sample_100-1

>  <s_m_source_file>  (1) 
generated__ligand_Pocket2Mol_2026-05-06_prepared.sdf

>  <GenAI_Model>  (1) 
Pocket2Mol

>  <Protein>  (1) 
GPCR_5HT2C

$$$$
Pocket2Mol_91_num_sample_100
     RDKit          3D

  0  0  0  0  0  0  0  0  0  0999 V3000
M  V30 BEGIN CTAB
M  V30 COUNTS 14 15 0 0 1
M  V30 BEGIN ATOM
M  V30 1 C 39.867425 28.979103 50.414825 0
M  V30 2 C 39.067213 28.015322 51.077887 0
M  V30 3 C 38.700472 28.281584 52.398207 0
M  V30 4 C 37.956279 27.569893 53.263785 0
M  V30 5 C 40.271878 30.158587 51.115908 0
M  V30 6 C 39.067403 29.352191 53.053488 0
M  V30 7 N 38.563570 29.339183 54.376594 0
M  V30 8 C 37.926684 28.241058 54.416992 0
M  V30 9 C 39.867403 30.343756 52.466777 0
M  V30 10 H 40.170745 28.823708 49.391295 0
M  V30 11 H 38.745871 27.112850 50.577837 0
M  V30 12 H 37.775156 26.514663 53.120221 0
M  V30 13 H 40.884378 30.901127 50.624783 0
M  V30 14 H 40.163488 31.221431 53.021823 0
M  V30 END ATOM
M  V30 BEGIN BOND
M  V30 1 1 2 1
M  V30 2 2 3 2
M  V30 3 1 4 3
M  V30 4 2 5 1
M  V30 5 1 6 3
M  V30 6 1 7 6
M  V30 7 2 8 4
M  V30 8 2 8 7
M  V30 9 1 9 5
M  V30 10 2 9 6
M  V30 11 1 10 1
M  V30 12 1 11 2
M  V30 13 1 12 4
M  V30 14 1 13 5
M  V30 15 1 14 9
M  V30 END BOND
M  V30 END CTAB
M  END
>  <i_epik_Tot_Q>  (1) 
0

>  <i_epik_Tot_abs_Q>  (1) 
0

>  <i_i_glide_confnum>  (1) 
1

>  <i_i_glide_lignum>  (1) 
96

>  <i_i_glide_posenum>  (1) 
111

>  <i_i_glide_rotatable_bonds>  (1) 
0

>  <i_lp_mmshare_version>  (1) 
72125

>  <i_m_source_file_index>  (1) 
92

>  <i_f3d_flags>  (1) 
0

>  <num_sample>  (1) 
100

>  <b_lp_Chiralities_Consistent>  (1) 
1

>  <r_epik_Charging_Adjusted_Penalty>  (1) 
0

>  <r_epik_Ionization_Penalty>  (1) 
7.4584844087238395e-05

>  <r_epik_Ionization_Penalty_Charging>  (1) 
0

>  <r_epik_Ionization_Penalty_Neutral>  (1) 
7.4584844087238395e-05

>  <r_epik_State_Penalty>  (1) 
-0

>  <r_glide_ring_energy>  (1) 
0

>  <r_i_docking_score>  (1) 
-6.4221031560640789

>  <r_i_glide_ecoul>  (1) 
-0.78231318340428802

>  <r_i_glide_eff_state_penalty>  (1) 
-0

>  <r_i_glide_einternal>  (1) 
0

>  <r_i_glide_emodel>  (1) 
-30.581889619638499

>  <r_i_glide_emodel_strain>  (1) 
0

>  <r_i_glide_energy>  (1) 
-21.985969085801916

>  <r_i_glide_erotb>  (1) 
0

>  <r_i_glide_esite>  (1) 
0

>  <r_i_glide_evdw>  (1) 
-21.203655902397628

>  <r_i_glide_gscore>  (1) 
-6.4221031560640789

>  <r_i_glide_gscore_strain>  (1) 
0

>  <r_i_glide_hbond>  (1) 
0

>  <r_i_glide_ligand_efficiency>  (1) 
-0.71356701734045325

>  <r_i_glide_ligand_efficiency_ln>  (1) 
-2.0086493772091165

>  <r_i_glide_ligand_efficiency_sa>  (1) 
-1.4842792094332744

>  <r_i_glide_lipo>  (1) 
-2.4748387500927933

>  <r_i_glide_metal>  (1) 
-0

>  <r_i_glide_rewards>  (1) 
-2.7697346333407609

>  <r_lp_Energy>  (1) 
14.311973999999999

>  <r_lp_tautomer_probability>  (1) 
1

>  <s_epik_Chemistry_Notes>  (1) 
This compound has an imine and may undergo hydrolysis.

>  <s_epik_cmdline>  (1) 
J2VwaWtfcHl0aG9uJywgJy1waHQnLCAnMS4wJywgJy1waCcsICc3LjQnLCAnLXRuJywgJzgnLCAnLW1hJywgJzUwMCcsICctaW1hZScsICc8aW5maWxlLm1hZT4nLCAnLW9tYWUnLCAnPG91dGZpbGUubWFlPic=

>  <s_epik_input>  (1) 
W2NIXTFbY0hdW2NIXVtjSF1jKGMxMilOPUM9W0NIXTI=

>  <s_glide_docking_method>  (1) 
confgen

>  <s_i_glide_gridfile>  (1) 
gpcr_5ht2c_6bqh_protein_autoprepared_prepared

>  <s_lp_Force_Field>  (1) 
S-OPLS

>  <s_lp_Variant>  (1) 
Pocket2Mol_91_num_sample_100-1

>  <s_m_source_file>  (1) 
generated__ligand_Pocket2Mol_2026-05-06_prepared.sdf

>  <GenAI_Model>  (1) 
Pocket2Mol

>  <Protein>  (1) 
GPCR_5HT2C

$$$$
Pocket2Mol_80_num_sample_100
     RDKit          3D

  0  0  0  0  0  0  0  0  0  0999 V3000
M  V30 BEGIN CTAB
M  V30 COUNTS 17 17 0 0 1
M  V30 BEGIN ATOM
M  V30 1 C 39.188057 29.726412 53.451728 0
M  V30 2 C 39.867403 30.380783 52.404681 0
M  V30 3 C 40.007535 29.750074 51.150978 0
M  V30 4 C 40.735102 30.456215 50.026063 0
M  V30 5 C 39.467557 28.463589 50.945544 0
M  V30 6 C 38.652130 28.438096 53.245864 0
M  V30 7 C 37.946567 27.749924 54.348613 0
M  V30 8 O 37.467575 26.621066 54.252323 0
M  V30 9 C 38.791333 27.807312 51.990776 0
M  V30 10 H 39.081587 30.212222 54.411511 0
M  V30 11 H 40.278429 31.366947 52.562129 0
M  V30 12 H 40.878767 29.797122 49.169591 0
M  V30 13 H 40.162497 31.323839 49.697387 0
M  V30 14 H 41.715097 30.799010 50.359617 0
M  V30 15 H 39.571217 27.981216 49.986026 0
M  V30 16 H 37.884307 28.328767 55.270497 0
M  V30 17 H 38.378927 26.821532 51.829286 0
M  V30 END ATOM
M  V30 BEGIN BOND
M  V30 1 2 2 1
M  V30 2 1 3 2
M  V30 3 1 4 3
M  V30 4 2 5 3
M  V30 5 1 6 1
M  V30 6 1 7 6
M  V30 7 2 8 7
M  V30 8 1 9 5
M  V30 9 2 9 6
M  V30 10 1 10 1
M  V30 11 1 11 2
M  V30 12 1 12 4
M  V30 13 1 13 4
M  V30 14 1 14 4
M  V30 15 1 15 5
M  V30 16 1 16 7
M  V30 17 1 17 9
M  V30 END BOND
M  V30 END CTAB
M  END
>  <i_epik_Tot_Q>  (1) 
0

>  <i_epik_Tot_abs_Q>  (1) 
0

>  <i_i_glide_confnum>  (1) 
1

>  <i_i_glide_lignum>  (1) 
85

>  <i_i_glide_posenum>  (1) 
329

>  <i_i_glide_rotatable_bonds>  (1) 
1

>  <i_lp_mmshare_version>  (1) 
72125

>  <i_m_source_file_index>  (1) 
81

>  <i_f3d_flags>  (1) 
0

>  <num_sample>  (1) 
100

>  <b_lp_Chiralities_Consistent>  (1) 
1

>  <r_epik_Charging_Adjusted_Penalty>  (1) 
0

>  <r_epik_Ionization_Penalty>  (1) 
0

>  <r_epik_Ionization_Penalty_Charging>  (1) 
0

>  <r_epik_Ionization_Penalty_Neutral>  (1) 
0

>  <r_epik_State_Penalty>  (1) 
-0

>  <r_glide_ring_energy>  (1) 
0

>  <r_i_docking_score>  (1) 
-6.3966673237951746

>  <r_i_glide_ecoul>  (1) 
-0.69653093601034088

>  <r_i_glide_eff_state_penalty>  (1) 
-0

>  <r_i_glide_einternal>  (1) 
0.011373855781006914

>  <r_i_glide_emodel>  (1) 
-30.74351021112173

>  <r_i_glide_emodel_strain>  (1) 
0.0032098262328359439

>  <r_i_glide_energy>  (1) 
-22.139970347930095

>  <r_i_glide_erotb>  (1) 
0

>  <r_i_glide_esite>  (1) 
0

>  <r_i_glide_evdw>  (1) 
-21.443439411919755

>  <r_i_glide_gscore>  (1) 
-6.3966673237951746

>  <r_i_glide_gscore_strain>  (1) 
0

>  <r_i_glide_hbond>  (1) 
0

>  <r_i_glide_ligand_efficiency>  (1) 
-0.71074081375501941

>  <r_i_glide_ligand_efficiency_ln>  (1) 
-2.0006937795794699

>  <r_i_glide_ligand_efficiency_sa>  (1) 
-1.4784004690745622

>  <r_i_glide_lipo>  (1) 
-2.1688438074445595

>  <r_i_glide_metal>  (1) 
-0

>  <r_i_glide_rewards>  (1) 
-3.0511719053530761

>  <r_lp_Energy>  (1) 
4.8020719999999999

>  <r_lp_tautomer_probability>  (1) 
1

>  <s_epik_cmdline>  (1) 
J2VwaWtfcHl0aG9uJywgJy1waHQnLCAnMS4wJywgJy1waCcsICc3LjQnLCAnLXRuJywgJzgnLCAnLW1hJywgJzUwMCcsICctaW1hZScsICc8aW5maWxlLm1hZT4nLCAnLW9tYWUnLCAnPG91dGZpbGUubWFlPic=

>  <s_epik_input>  (1) 
W2NIXTFbY0hdYyhbQ0hdPU8pW2NIXVtjSF1jMVtDSDNd

>  <s_glide_docking_method>  (1) 
confgen

>  <s_i_glide_gridfile>  (1) 
gpcr_5ht2c_6bqh_protein_autoprepared_prepared

>  <s_lp_Force_Field>  (1) 
S-OPLS

>  <s_lp_Variant>  (1) 
Pocket2Mol_80_num_sample_100-1

>  <s_m_source_file>  (1) 
generated__ligand_Pocket2Mol_2026-05-06_prepared.sdf

>  <GenAI_Model>  (1) 
Pocket2Mol

>  <Protein>  (1) 
GPCR_5HT2C

$$$$
Pocket2Mol_98_num_sample_100
     RDKit          3D

  0  0  0  0  0  0  0  0  0  0999 V3000
M  V30 BEGIN CTAB
M  V30 COUNTS 18 19 0 0 1
M  V30 BEGIN ATOM
M  V30 1 C 40.790999 30.475394 50.155330 0
M  V30 2 O 40.267393 29.148876 49.849877 0
M  V30 3 O 40.525307 30.873093 51.530520 0
M  V30 4 C 39.724332 28.846065 51.032545 0
M  V30 5 C 39.867399 29.796208 51.954505 0
M  V30 6 C 39.352393 29.651854 53.253150 0
M  V30 7 C 38.666508 28.461307 53.584277 0
M  V30 8 C 38.100836 28.275006 54.976099 0
M  V30 9 C 39.054586 27.641570 51.308612 0
M  V30 10 C 38.515570 27.444822 52.602095 0
M  V30 11 H 41.867142 30.490179 49.983757 0
M  V30 12 H 40.330727 31.207503 49.492115 0
M  V30 13 H 39.480864 30.434615 53.985505 0
M  V30 14 H 37.558812 27.335424 55.069587 0
M  V30 15 H 38.911249 28.278008 55.704933 0
M  V30 16 H 37.418786 29.092968 55.209911 0
M  V30 17 H 38.949904 26.881853 50.546393 0
M  V30 18 H 37.992191 26.529180 52.838020 0
M  V30 END ATOM
M  V30 BEGIN BOND
M  V30 1 1 2 1
M  V30 2 1 3 1
M  V30 3 1 4 2
M  V30 4 1 5 3
M  V30 5 2 5 4
M  V30 6 1 6 5
M  V30 7 2 7 6
M  V30 8 1 8 7
M  V30 9 1 9 4
M  V30 10 1 10 7
M  V30 11 2 10 9
M  V30 12 1 11 1
M  V30 13 1 12 1
M  V30 14 1 13 6
M  V30 15 1 14 8
M  V30 16 1 15 8
M  V30 17 1 16 8
M  V30 18 1 17 9
M  V30 19 1 18 10
M  V30 END BOND
M  V30 END CTAB
M  END
>  <i_epik_Tot_Q>  (1) 
0

>  <i_epik_Tot_abs_Q>  (1) 
0

>  <i_i_glide_confnum>  (1) 
1

>  <i_i_glide_lignum>  (1) 
103

>  <i_i_glide_posenum>  (1) 
333

>  <i_i_glide_rotatable_bonds>  (1) 
0

>  <i_lp_mmshare_version>  (1) 
72125

>  <i_m_source_file_index>  (1) 
99

>  <i_f3d_flags>  (1) 
0

>  <num_sample>  (1) 
100

>  <b_lp_Chiralities_Consistent>  (1) 
1

>  <r_epik_Charging_Adjusted_Penalty>  (1) 
0

>  <r_epik_Ionization_Penalty>  (1) 
0

>  <r_epik_Ionization_Penalty_Charging>  (1) 
0

>  <r_epik_Ionization_Penalty_Neutral>  (1) 
0

>  <r_epik_State_Penalty>  (1) 
-0

>  <r_glide_ring_energy>  (1) 
0

>  <r_i_docking_score>  (1) 
-6.3867514568621804

>  <r_i_glide_ecoul>  (1) 
-0.84788367217987504

>  <r_i_glide_eff_state_penalty>  (1) 
-0

>  <r_i_glide_einternal>  (1) 
0

>  <r_i_glide_emodel>  (1) 
-30.027611568726833

>  <r_i_glide_emodel_strain>  (1) 
0.006343758349451889

>  <r_i_glide_energy>  (1) 
-21.316234535862915

>  <r_i_glide_erotb>  (1) 
0

>  <r_i_glide_esite>  (1) 
0

>  <r_i_glide_evdw>  (1) 
-20.468350863683039

>  <r_i_glide_gscore>  (1) 
-6.3867514568621804

>  <r_i_glide_gscore_strain>  (1) 
0

>  <r_i_glide_hbond>  (1) 
0

>  <r_i_glide_ligand_efficiency>  (1) 
-0.63867514568621808

>  <r_i_glide_ligand_efficiency_ln>  (1) 
-1.9338643144761796

>  <r_i_glide_ligand_efficiency_sa>  (1) 
-1.3759838895275556

>  <r_i_glide_lipo>  (1) 
-1.9854172021678083

>  <r_i_glide_metal>  (1) 
-0

>  <r_i_glide_rewards>  (1) 
-3.2507341606832387

>  <r_lp_Energy>  (1) 
16.823695000000001

>  <r_lp_tautomer_probability>  (1) 
1

>  <s_epik_Chemistry_Notes>  (1) 
This compound contains an acetal/aminal-like group ( X-CH(R)-Y where X, Y are N, S, or O) that may be acid/base labile, releasing an aldehyde.

>  <s_epik_cmdline>  (1) 
J2VwaWtfcHl0aG9uJywgJy1waHQnLCAnMS4wJywgJy1waCcsICc3LjQnLCAnLXRuJywgJzgnLCAnLW1hJywgJzUwMCcsICctaW1hZScsICc8aW5maWxlLm1hZT4nLCAnLW9tYWUnLCAnPG91dGZpbGUubWFlPic=

>  <s_epik_input>  (1) 
TzFbQ0gyXU9jKGMxMilbY0hdYyhbQ0gzXSlbY0hdW2NIXTI=

>  <s_glide_docking_method>  (1) 
confgen

>  <s_i_glide_gridfile>  (1) 
gpcr_5ht2c_6bqh_protein_autoprepared_prepared

>  <s_lp_Force_Field>  (1) 
S-OPLS

>  <s_lp_Variant>  (1) 
Pocket2Mol_98_num_sample_100-1

>  <s_m_source_file>  (1) 
generated__ligand_Pocket2Mol_2026-05-06_prepared.sdf

>  <GenAI_Model>  (1) 
Pocket2Mol

>  <Protein>  (1) 
GPCR_5HT2C

$$$$
Pocket2Mol_92_num_sample_100
     RDKit          3D

  0  0  0  0  0  0  0  0  0  0999 V3000
M  V30 BEGIN CTAB
M  V30 COUNTS 18 19 0 0 1
M  V30 BEGIN ATOM
M  V30 1 C 37.867415 28.440149 54.510245 0
M  V30 2 C 38.532423 28.633131 53.281590 0
M  V30 3 C 39.260132 29.828430 53.053586 0
M  V30 4 C 38.477252 27.643184 52.278579 0
M  V30 5 C 39.143494 27.841696 51.053511 0
M  V30 6 C 39.315303 30.818378 54.056598 0
M  V30 7 C 39.925140 30.021413 51.824931 0
M  V30 8 C 37.926196 29.432521 55.508151 0
M  V30 9 C 39.866359 29.029040 50.827026 0
M  V30 10 C 38.649062 30.619865 55.281664 0
M  V30 11 H 37.310613 27.532492 54.692552 0
M  V30 12 H 37.925143 26.729395 52.443713 0
M  V30 13 H 39.099846 27.082157 50.286818 0
M  V30 14 H 39.867413 31.732167 53.891464 0
M  V30 15 H 40.481942 30.929070 51.642625 0
M  V30 16 H 37.416117 29.282536 56.448335 0
M  V30 17 H 40.376438 29.179025 49.886840 0
M  V30 18 H 38.692710 31.379404 56.048358 0
M  V30 END ATOM
M  V30 BEGIN BOND
M  V30 1 1 2 1
M  V30 2 1 3 2
M  V30 3 2 4 2
M  V30 4 1 5 4
M  V30 5 1 6 3
M  V30 6 2 7 3
M  V30 7 2 8 1
M  V30 8 2 9 5
M  V30 9 1 9 7
M  V30 10 2 10 6
M  V30 11 1 10 8
M  V30 12 1 11 1
M  V30 13 1 12 4
M  V30 14 1 13 5
M  V30 15 1 14 6
M  V30 16 1 15 7
M  V30 17 1 16 8
M  V30 18 1 17 9
M  V30 19 1 18 10
M  V30 END BOND
M  V30 END CTAB
M  END
>  <i_epik_Tot_Q>  (1) 
0

>  <i_epik_Tot_abs_Q>  (1) 
0

>  <i_i_glide_confnum>  (1) 
1

>  <i_i_glide_lignum>  (1) 
97

>  <i_i_glide_posenum>  (1) 
205

>  <i_i_glide_rotatable_bonds>  (1) 
0

>  <i_lp_mmshare_version>  (1) 
72125

>  <i_m_source_file_index>  (1) 
93

>  <i_f3d_flags>  (1) 
0

>  <num_sample>  (1) 
100

>  <b_lp_Chiralities_Consistent>  (1) 
1

>  <r_epik_Charging_Adjusted_Penalty>  (1) 
0

>  <r_epik_Ionization_Penalty>  (1) 
0

>  <r_epik_Ionization_Penalty_Charging>  (1) 
0

>  <r_epik_Ionization_Penalty_Neutral>  (1) 
0

>  <r_epik_State_Penalty>  (1) 
-0

>  <r_glide_ring_energy>  (1) 
0

>  <r_i_docking_score>  (1) 
-6.3765885896153938

>  <r_i_glide_ecoul>  (1) 
-1.1437058047613227

>  <r_i_glide_eff_state_penalty>  (1) 
-0

>  <r_i_glide_einternal>  (1) 
0

>  <r_i_glide_emodel>  (1) 
-30.260803522601556

>  <r_i_glide_emodel_strain>  (1) 
0

>  <r_i_glide_energy>  (1) 
-21.844866488310583

>  <r_i_glide_erotb>  (1) 
0

>  <r_i_glide_esite>  (1) 
0

>  <r_i_glide_evdw>  (1) 
-20.701160683549261

>  <r_i_glide_gscore>  (1) 
-6.3765885896153938

>  <r_i_glide_gscore_strain>  (1) 
0

>  <r_i_glide_hbond>  (1) 
0

>  <r_i_glide_ligand_efficiency>  (1) 
-0.6376588589615394

>  <r_i_glide_ligand_efficiency_ln>  (1) 
-1.9307870683309263

>  <r_i_glide_ligand_efficiency_sa>  (1) 
-1.3737943661528889

>  <r_i_glide_lipo>  (1) 
-2.3944592535171458

>  <r_i_glide_metal>  (1) 
-0

>  <r_i_glide_rewards>  (1) 
-2.7755154312065859

>  <r_lp_Energy>  (1) 
18.967330999999998

>  <r_lp_tautomer_probability>  (1) 
1

>  <s_epik_cmdline>  (1) 
J2VwaWtfcHl0aG9uJywgJy1waHQnLCAnMS4wJywgJy1waCcsICc3LjQnLCAnLXRuJywgJzgnLCAnLW1hJywgJzUwMCcsICctaW1hZScsICc8aW5maWxlLm1hZT4nLCAnLW9tYWUnLCAnPG91dGZpbGUubWFlPic=

>  <s_epik_input>  (1) 
W2NIXTFbY0hdW2NIXVtjSF1jKGMxMilbY0hdW2NIXVtjSF1bY0hdMg==

>  <s_glide_docking_method>  (1) 
confgen

>  <s_i_glide_gridfile>  (1) 
gpcr_5ht2c_6bqh_protein_autoprepared_prepared

>  <s_lp_Force_Field>  (1) 
S-OPLS

>  <s_lp_Variant>  (1) 
Pocket2Mol_92_num_sample_100-1

>  <s_m_source_file>  (1) 
generated__ligand_Pocket2Mol_2026-05-06_prepared.sdf

>  <GenAI_Model>  (1) 
Pocket2Mol

>  <Protein>  (1) 
GPCR_5HT2C

$$$$
Pocket2Mol_68_num_sample_100
     RDKit          3D

  0  0  0  0  0  0  0  0  0  0999 V3000
M  V30 BEGIN CTAB
M  V30 COUNTS 19 20 0 0 1
M  V30 BEGIN ATOM
M  V30 1 C 39.823885 29.043541 50.800640 0
M  V30 2 C 39.145378 28.644404 52.053970 0
M  V30 3 C 38.517987 27.404596 52.217765 0
M  V30 4 C 37.902093 27.102932 53.453498 0
M  V30 5 C 37.930314 28.055328 54.500792 0
M  V30 6 C 39.169956 29.558308 53.054405 0
M  V30 7 C 39.867416 30.821429 52.745897 0
M  V30 8 C 40.267403 30.507152 51.232058 0
M  V30 9 C 38.569328 29.297452 54.297466 0
M  V30 10 H 40.666958 28.382695 50.618433 0
M  V30 11 H 39.144577 29.030903 49.948560 0
M  V30 12 H 38.506856 26.691747 51.408965 0
M  V30 13 H 37.413914 26.150258 53.598119 0
M  V30 14 H 37.467506 27.832988 55.449326 0
M  V30 15 H 39.194272 31.672769 52.839437 0
M  V30 16 H 40.720559 30.960970 53.405952 0
M  V30 17 H 41.332608 30.657598 51.053565 0
M  V30 18 H 39.763447 31.226141 50.585227 0
M  V30 19 H 38.598120 30.034812 55.086804 0
M  V30 END ATOM
M  V30 BEGIN BOND
M  V30 1 1 2 1
M  V30 2 2 3 2
M  V30 3 1 4 3
M  V30 4 2 5 4
M  V30 5 1 6 2
M  V30 6 1 7 6
M  V30 7 1 8 1
M  V30 8 1 8 7
M  V30 9 1 9 5
M  V30 10 2 9 6
M  V30 11 1 10 1
M  V30 12 1 11 1
M  V30 13 1 12 3
M  V30 14 1 13 4
M  V30 15 1 14 5
M  V30 16 1 15 7
M  V30 17 1 16 7
M  V30 18 1 17 8
M  V30 19 1 18 8
M  V30 20 1 19 9
M  V30 END BOND
M  V30 END CTAB
M  END
>  <i_epik_Tot_Q>  (1) 
0

>  <i_epik_Tot_abs_Q>  (1) 
0

>  <i_i_glide_confnum>  (1) 
1

>  <i_i_glide_lignum>  (1) 
73

>  <i_i_glide_posenum>  (1) 
19

>  <i_i_glide_rotatable_bonds>  (1) 
0

>  <i_lp_mmshare_version>  (1) 
72125

>  <i_m_source_file_index>  (1) 
69

>  <i_f3d_flags>  (1) 
0

>  <num_sample>  (1) 
100

>  <b_lp_Chiralities_Consistent>  (1) 
1

>  <r_epik_Charging_Adjusted_Penalty>  (1) 
0

>  <r_epik_Ionization_Penalty>  (1) 
0

>  <r_epik_Ionization_Penalty_Charging>  (1) 
0

>  <r_epik_Ionization_Penalty_Neutral>  (1) 
0

>  <r_epik_State_Penalty>  (1) 
-0

>  <r_glide_ring_energy>  (1) 
0

>  <r_i_docking_score>  (1) 
-6.3738663665709847

>  <r_i_glide_ecoul>  (1) 
-1.0236925039457749

>  <r_i_glide_eff_state_penalty>  (1) 
-0

>  <r_i_glide_einternal>  (1) 
0

>  <r_i_glide_emodel>  (1) 
-27.64242063857558

>  <r_i_glide_emodel_strain>  (1) 
0

>  <r_i_glide_energy>  (1) 
-19.250024671424182

>  <r_i_glide_erotb>  (1) 
0

>  <r_i_glide_esite>  (1) 
0

>  <r_i_glide_evdw>  (1) 
-18.226332167478407

>  <r_i_glide_gscore>  (1) 
-6.3738663665709847

>  <r_i_glide_gscore_strain>  (1) 
0

>  <r_i_glide_hbond>  (1) 
0

>  <r_i_glide_ligand_efficiency>  (1) 
-0.7082073740634427

>  <r_i_glide_ligand_efficiency_ln>  (1) 
-1.9935622951708312

>  <r_i_glide_ligand_efficiency_sa>  (1) 
-1.4731307021554361

>  <r_i_glide_lipo>  (1) 
-2.602191753760982

>  <r_i_glide_metal>  (1) 
-0

>  <r_i_glide_rewards>  (1) 
-2.7068041288442162

>  <r_lp_Energy>  (1) 
13.687139

>  <r_lp_tautomer_probability>  (1) 
1

>  <s_epik_cmdline>  (1) 
J2VwaWtfcHl0aG9uJywgJy1waHQnLCAnMS4wJywgJy1waCcsICc3LjQnLCAnLXRuJywgJzgnLCAnLW1hJywgJzUwMCcsICctaW1hZScsICc8aW5maWxlLm1hZT4nLCAnLW9tYWUnLCAnPG91dGZpbGUubWFlPic=

>  <s_epik_input>  (1) 
W0NIMl0xW0NIMl1bQ0gyXWMoYzEyKVtjSF1bY0hdW2NIXVtjSF0y

>  <s_glide_docking_method>  (1) 
confgen

>  <s_i_glide_gridfile>  (1) 
gpcr_5ht2c_6bqh_protein_autoprepared_prepared

>  <s_lp_Force_Field>  (1) 
S-OPLS

>  <s_lp_Variant>  (1) 
Pocket2Mol_68_num_sample_100-1

>  <s_m_source_file>  (1) 
generated__ligand_Pocket2Mol_2026-05-06_prepared.sdf

>  <GenAI_Model>  (1) 
Pocket2Mol

>  <Protein>  (1) 
GPCR_5HT2C

$$$$
Pocket2Mol_79_num_sample_100
     RDKit          3D

  0  0  0  0  0  0  0  0  0  0999 V3000
M  V30 BEGIN CTAB
M  V30 COUNTS 17 18 0 0 1
M  V30 BEGIN ATOM
M  V30 1 C 39.003034 30.013945 53.936038 0
M  V30 2 C 39.086015 29.346571 52.669381 0
M  V30 3 C 38.300163 28.017817 52.398916 0 CFG=2
M  V30 4 C 39.867402 29.740695 51.672930 0
M  V30 5 C 39.859346 28.786136 50.688260 0
M  V30 6 C 38.189518 27.263846 53.714539 0
M  V30 7 C 38.276551 27.889677 54.916519 0
M  V30 8 C 39.067407 27.790462 51.053282 0
M  V30 9 C 38.592644 29.323656 55.016444 0
M  V30 10 H 39.300937 31.048379 54.031004 0
M  V30 11 H 37.276683 28.267183 52.116418 0
M  V30 12 H 40.496580 30.619627 51.682345 0
M  V30 13 H 40.442131 28.820394 49.782068 0
M  V30 14 H 37.969081 26.208009 53.663430 0
M  V30 15 H 38.133630 27.317468 55.820785 0
M  V30 16 H 38.902060 26.901094 50.462020 0
M  V30 17 H 38.554489 29.812720 55.978669 0
M  V30 END ATOM
M  V30 BEGIN BOND
M  V30 1 1 2 1
M  V30 2 1 3 2
M  V30 3 2 4 2
M  V30 4 1 5 4
M  V30 5 1 6 3
M  V30 6 2 7 6
M  V30 7 1 8 3
M  V30 8 2 8 5
M  V30 9 2 9 1
M  V30 10 1 9 7
M  V30 11 1 10 1
M  V30 12 1 3 11 CFG=3
M  V30 13 1 12 4
M  V30 14 1 13 5
M  V30 15 1 14 6
M  V30 16 1 15 7
M  V30 17 1 16 8
M  V30 18 1 17 9
M  V30 END BOND
M  V30 END CTAB
M  END
>  <i_epik_Tot_Q>  (1) 
0

>  <i_epik_Tot_abs_Q>  (1) 
0

>  <i_i_glide_confnum>  (1) 
1

>  <i_i_glide_lignum>  (1) 
84

>  <i_i_glide_posenum>  (1) 
78

>  <i_i_glide_rotatable_bonds>  (1) 
0

>  <i_lp_mmshare_version>  (1) 
72125

>  <i_m_source_file_index>  (1) 
80

>  <i_f3d_flags>  (1) 
0

>  <num_sample>  (1) 
100

>  <b_lp_Chiralities_Consistent>  (1) 
1

>  <r_epik_Charging_Adjusted_Penalty>  (1) 
0

>  <r_epik_Ionization_Penalty>  (1) 
0

>  <r_epik_Ionization_Penalty_Charging>  (1) 
0

>  <r_epik_Ionization_Penalty_Neutral>  (1) 
0

>  <r_epik_State_Penalty>  (1) 
-0

>  <r_glide_ring_energy>  (1) 
0

>  <r_i_docking_score>  (1) 
-6.3701610782741707

>  <r_i_glide_ecoul>  (1) 
-0.58181342495803423

>  <r_i_glide_eff_state_penalty>  (1) 
-0

>  <r_i_glide_einternal>  (1) 
0

>  <r_i_glide_emodel>  (1) 
-28.994577188192181

>  <r_i_glide_emodel_strain>  (1) 
1.5041976553220593e-08

>  <r_i_glide_energy>  (1) 
-21.071118672827794

>  <r_i_glide_erotb>  (1) 
0

>  <r_i_glide_esite>  (1) 
0

>  <r_i_glide_evdw>  (1) 
-20.489305247869758

>  <r_i_glide_gscore>  (1) 
-6.3701610782741707

>  <r_i_glide_gscore_strain>  (1) 
0

>  <r_i_glide_hbond>  (1) 
0

>  <r_i_glide_ligand_efficiency>  (1) 
-0.70779567536379673

>  <r_i_glide_ligand_efficiency_ln>  (1) 
-1.9924033874347031

>  <r_i_glide_ligand_efficiency_sa>  (1) 
-1.4722743343503311

>  <r_i_glide_lipo>  (1) 
-2.4931069983650884

>  <r_i_glide_metal>  (1) 
-0

>  <r_i_glide_rewards>  (1) 
-2.7653168037718889

>  <r_lp_Energy>  (1) 
11.987261999999999

>  <r_lp_tautomer_probability>  (1) 
1

>  <s_epik_cmdline>  (1) 
J2VwaWtfcHl0aG9uJywgJy1waHQnLCAnMS4wJywgJy1waCcsICc3LjQnLCAnLXRuJywgJzgnLCAnLW1hJywgJzUwMCcsICctaW1hZScsICc8aW5maWxlLm1hZT4nLCAnLW9tYWUnLCAnPG91dGZpbGUubWFlPic=

>  <s_epik_input>  (1) 
W0NIXTE9W0NIXVtDSF09W0NIXVtDQEBIXShDMT0yKVtDSF09W0NIXVtDSF0y

>  <s_glide_docking_method>  (1) 
confgen

>  <s_i_glide_gridfile>  (1) 
gpcr_5ht2c_6bqh_protein_autoprepared_prepared

>  <s_lp_Force_Field>  (1) 
S-OPLS

>  <s_lp_Variant>  (1) 
Pocket2Mol_79_num_sample_100-1

>  <s_m_source_file>  (1) 
generated__ligand_Pocket2Mol_2026-05-06_prepared.sdf

>  <GenAI_Model>  (1) 
Pocket2Mol

>  <Protein>  (1) 
GPCR_5HT2C

$$$$
Pocket2Mol_72_num_sample_100
     RDKit          3D

  0  0  0  0  0  0  0  0  0  0999 V3000
M  V30 BEGIN CTAB
M  V30 COUNTS 15 16 0 0 1
M  V30 BEGIN ATOM
M  V30 1 C 40.087533 30.175712 51.788174 0
M  V30 2 C 39.432291 29.946367 53.046126 0
M  V30 3 C 38.667461 28.805820 53.302160 0
M  V30 4 C 39.408903 30.668481 54.087227 0
M  V30 5 C 38.542055 27.815569 52.248604 0
M  V30 6 C 38.606576 29.956089 55.012868 0
M  V30 7 C 39.161150 28.021428 51.053504 0
M  V30 8 C 38.123830 28.774347 54.545745 0
M  V30 9 C 39.959637 29.245241 50.815285 0
M  V30 10 H 40.667403 31.072623 51.622297 0
M  V30 11 H 39.892174 31.621431 54.236136 0
M  V30 12 H 37.959811 26.919506 52.410788 0
M  V30 13 H 38.401403 30.331286 56.005207 0
M  V30 14 H 39.067404 27.283835 50.269137 0
M  V30 15 H 40.440854 29.396009 49.860351 0
M  V30 END ATOM
M  V30 BEGIN BOND
M  V30 1 1 2 1
M  V30 2 1 3 2
M  V30 3 2 4 2
M  V30 4 1 5 3
M  V30 5 1 6 4
M  V30 6 2 7 5
M  V30 7 2 8 3
M  V30 8 2 8 6
M  V30 9 2 9 1
M  V30 10 1 9 7
M  V30 11 1 10 1
M  V30 12 1 11 4
M  V30 13 1 12 5
M  V30 14 1 13 6
M  V30 15 1 14 7
M  V30 16 1 15 9
M  V30 END BOND
M  V30 END CTAB
M  END
>  <i_epik_Tot_Q>  (1) 
0

>  <i_epik_Tot_abs_Q>  (1) 
0

>  <i_i_glide_confnum>  (1) 
1

>  <i_i_glide_lignum>  (1) 
77

>  <i_i_glide_posenum>  (1) 
2

>  <i_i_glide_rotatable_bonds>  (1) 
0

>  <i_lp_mmshare_version>  (1) 
72125

>  <i_m_source_file_index>  (1) 
73

>  <i_f3d_flags>  (1) 
0

>  <num_sample>  (1) 
100

>  <b_lp_Chiralities_Consistent>  (1) 
1

>  <r_epik_Charging_Adjusted_Penalty>  (1) 
0

>  <r_epik_Ionization_Penalty>  (1) 
0

>  <r_epik_Ionization_Penalty_Charging>  (1) 
0

>  <r_epik_Ionization_Penalty_Neutral>  (1) 
0

>  <r_epik_State_Penalty>  (1) 
-0

>  <r_glide_ring_energy>  (1) 
0

>  <r_i_docking_score>  (1) 
-6.3557750244682252

>  <r_i_glide_ecoul>  (1) 
-1.0549732911655363

>  <r_i_glide_eff_state_penalty>  (1) 
-0

>  <r_i_glide_einternal>  (1) 
0

>  <r_i_glide_emodel>  (1) 
-30.298768857994276

>  <r_i_glide_emodel_strain>  (1) 
0

>  <r_i_glide_energy>  (1) 
-21.86147052791868

>  <r_i_glide_erotb>  (1) 
0

>  <r_i_glide_esite>  (1) 
0

>  <r_i_glide_evdw>  (1) 
-20.806497236753145

>  <r_i_glide_gscore>  (1) 
-6.3557750244682252

>  <r_i_glide_gscore_strain>  (1) 
0

>  <r_i_glide_hbond>  (1) 
0

>  <r_i_glide_ligand_efficiency>  (1) 
-0.70619722494091386

>  <r_i_glide_ligand_efficiency_ln>  (1) 
-1.9879038430774121

>  <r_i_glide_ligand_efficiency_sa>  (1) 
-1.4689494234837419

>  <r_i_glide_lipo>  (1) 
-2.4719484741597433

>  <r_i_glide_metal>  (1) 
-0

>  <r_i_glide_rewards>  (1) 
-2.6852556947959938

>  <r_lp_Energy>  (1) 
11.424324

>  <r_lp_tautomer_probability>  (1) 
1

>  <s_epik_cmdline>  (1) 
J2VwaWtfcHl0aG9uJywgJy1waHQnLCAnMS4wJywgJy1waCcsICc3LjQnLCAnLXRuJywgJzgnLCAnLW1hJywgJzUwMCcsICctaW1hZScsICc8aW5maWxlLm1hZT4nLCAnLW9tYWUnLCAnPG91dGZpbGUubWFlPic=

>  <s_epik_input>  (1) 
W2NIXTFbY0hdW2NIXVtjSF1jKGMxPTIpPUM9W0NIXVtDSF0y

>  <s_glide_docking_method>  (1) 
confgen

>  <s_i_glide_gridfile>  (1) 
gpcr_5ht2c_6bqh_protein_autoprepared_prepared

>  <s_lp_Force_Field>  (1) 
S-OPLS

>  <s_lp_Variant>  (1) 
Pocket2Mol_72_num_sample_100-1

>  <s_m_source_file>  (1) 
generated__ligand_Pocket2Mol_2026-05-06_prepared.sdf

>  <GenAI_Model>  (1) 
Pocket2Mol

>  <Protein>  (1) 
GPCR_5HT2C

$$$$
Pocket2Mol_49_num_sample_100
     RDKit          3D

  0  0  0  0  0  0  0  0  0  0999 V3000
M  V30 BEGIN CTAB
M  V30 COUNTS 16 16 0 0 1
M  V30 BEGIN ATOM
M  V30 1 C 40.267403 30.064946 51.407987 0
M  V30 2 C 39.797633 30.229308 52.724980 0
M  V30 3 C 38.918183 29.277527 53.284768 0
M  V30 4 C 38.405069 29.459611 54.701252 0
M  V30 5 C 38.513969 28.158923 52.521429 0
M  V30 6 O 37.656452 27.238237 53.053501 0
M  V30 7 C 39.867402 28.947913 50.651123 0
M  V30 8 C 38.993452 27.994842 51.207197 0
M  V30 9 H 40.937681 30.796546 50.979079 0
M  V30 10 H 40.107426 31.087302 53.304192 0
M  V30 11 H 38.799761 30.367727 55.157687 0
M  V30 12 H 37.316790 29.526908 54.702705 0
M  V30 13 H 38.698752 28.612158 55.321236 0
M  V30 14 H 37.263486 26.672041 52.400288 0
M  V30 15 H 40.229423 28.823189 49.641578 0
M  V30 16 H 38.686879 27.139725 50.623023 0
M  V30 END ATOM
M  V30 BEGIN BOND
M  V30 1 1 2 1
M  V30 2 2 3 2
M  V30 3 1 4 3
M  V30 4 1 5 3
M  V30 5 1 6 5
M  V30 6 2 7 1
M  V30 7 2 8 5
M  V30 8 1 8 7
M  V30 9 1 9 1
M  V30 10 1 10 2
M  V30 11 1 11 4
M  V30 12 1 12 4
M  V30 13 1 13 4
M  V30 14 1 14 6
M  V30 15 1 15 7
M  V30 16 1 16 8
M  V30 END BOND
M  V30 END CTAB
M  END
>  <i_epik_Tot_Q>  (1) 
0

>  <i_epik_Tot_abs_Q>  (1) 
0

>  <i_i_glide_confnum>  (1) 
1

>  <i_i_glide_lignum>  (1) 
52

>  <i_i_glide_posenum>  (1) 
268

>  <i_i_glide_rotatable_bonds>  (1) 
1

>  <i_lp_mmshare_version>  (1) 
72125

>  <i_m_source_file_index>  (1) 
50

>  <i_f3d_flags>  (1) 
0

>  <num_sample>  (1) 
100

>  <b_lp_Chiralities_Consistent>  (1) 
1

>  <r_epik_Charging_Adjusted_Penalty>  (1) 
0

>  <r_epik_Ionization_Penalty>  (1) 
0.00081241911792291806

>  <r_epik_Ionization_Penalty_Charging>  (1) 
0

>  <r_epik_Ionization_Penalty_Neutral>  (1) 
0.00081241911792291806

>  <r_epik_State_Penalty>  (1) 
-0

>  <r_glide_ring_energy>  (1) 
0

>  <r_i_docking_score>  (1) 
-6.3520805686034958

>  <r_i_glide_ecoul>  (1) 
-3.5559839741593144

>  <r_i_glide_eff_state_penalty>  (1) 
-0

>  <r_i_glide_einternal>  (1) 
0.24328068075206066

>  <r_i_glide_emodel>  (1) 
-28.785022334256947

>  <r_i_glide_emodel_strain>  (1) 
0.00098385156602009971

>  <r_i_glide_energy>  (1) 
-20.918026040926978

>  <r_i_glide_erotb>  (1) 
0

>  <r_i_glide_esite>  (1) 
0

>  <r_i_glide_evdw>  (1) 
-17.362042066767664

>  <r_i_glide_gscore>  (1) 
-6.3520805686034958

>  <r_i_glide_gscore_strain>  (1) 
0

>  <r_i_glide_hbond>  (1) 
-0.32000000000000001

>  <r_i_glide_ligand_efficiency>  (1) 
-0.79401007107543697

>  <r_i_glide_ligand_efficiency_ln>  (1) 
-2.0627378317233571

>  <r_i_glide_ligand_efficiency_sa>  (1) 
-1.5880201421508742

>  <r_i_glide_lipo>  (1) 
-2.0718159337250981

>  <r_i_glide_metal>  (1) 
-0

>  <r_i_glide_rewards>  (1) 
-2.5587649354161179

>  <r_lp_Energy>  (1) 
7.6312429999999996

>  <r_lp_tautomer_probability>  (1) 
1

>  <s_epik_cmdline>  (1) 
J2VwaWtfcHl0aG9uJywgJy1waHQnLCAnMS4wJywgJy1waCcsICc3LjQnLCAnLXRuJywgJzgnLCAnLW1hJywgJzUwMCcsICctaW1hZScsICc8aW5maWxlLm1hZT4nLCAnLW9tYWUnLCAnPG91dGZpbGUubWFlPic=

>  <s_epik_input>  (1) 
W0NIM11jMVtjSF1bY0hdW2NIXVtjSF1jMVtPSF0=

>  <s_glide_docking_method>  (1) 
confgen

>  <s_i_glide_gridfile>  (1) 
gpcr_5ht2c_6bqh_protein_autoprepared_prepared

>  <s_lp_Force_Field>  (1) 
S-OPLS

>  <s_lp_Variant>  (1) 
Pocket2Mol_49_num_sample_100-1

>  <s_m_source_file>  (1) 
generated__ligand_Pocket2Mol_2026-05-06_prepared.sdf

>  <GenAI_Model>  (1) 
Pocket2Mol

>  <Protein>  (1) 
GPCR_5HT2C

$$$$
Pocket2Mol_86_num_sample_100
     RDKit          3D

  0  0  0  0  0  0  0  0  0  0999 V3000
M  V30 BEGIN CTAB
M  V30 COUNTS 17 17 0 0 1
M  V30 BEGIN ATOM
M  V30 1 C 38.721814 28.542805 52.005811 0
M  V30 2 C 39.661497 29.560905 51.743097 0
M  V30 3 C 37.983631 28.558893 53.206225 0
M  V30 4 O 37.067429 27.577154 53.454121 0
M  V30 5 C 38.188105 29.595346 54.147504 0
M  V30 6 C 40.444845 29.556894 50.449852 0
M  V30 7 O 37.467208 29.621427 55.307806 0
M  V30 8 C 39.867379 30.588762 52.684496 0
M  V30 9 C 39.132867 30.605755 53.885206 0
M  V30 10 H 38.562801 27.754215 51.284395 0
M  V30 11 H 37.010422 26.930214 52.764528 0
M  V30 12 H 40.265872 28.655294 49.862842 0
M  V30 13 H 40.162163 30.416314 49.842316 0
M  V30 14 H 41.509387 29.626989 50.669696 0
M  V30 15 H 37.384447 30.474763 55.711081 0
M  V30 16 H 40.587305 31.368341 52.482673 0
M  V30 17 H 39.292348 31.397068 54.602890 0
M  V30 END ATOM
M  V30 BEGIN BOND
M  V30 1 2 2 1
M  V30 2 1 3 1
M  V30 3 1 4 3
M  V30 4 2 5 3
M  V30 5 1 6 2
M  V30 6 1 7 5
M  V30 7 1 8 2
M  V30 8 1 9 5
M  V30 9 2 9 8
M  V30 10 1 10 1
M  V30 11 1 11 4
M  V30 12 1 12 6
M  V30 13 1 13 6
M  V30 14 1 14 6
M  V30 15 1 15 7
M  V30 16 1 16 8
M  V30 17 1 17 9
M  V30 END BOND
M  V30 END CTAB
M  END
>  <i_epik_Tot_Q>  (1) 
0

>  <i_epik_Tot_abs_Q>  (1) 
0

>  <i_i_glide_confnum>  (1) 
1

>  <i_i_glide_lignum>  (1) 
91

>  <i_i_glide_posenum>  (1) 
51

>  <i_i_glide_rotatable_bonds>  (1) 
2

>  <i_lp_mmshare_version>  (1) 
72125

>  <i_m_source_file_index>  (1) 
87

>  <i_f3d_flags>  (1) 
0

>  <num_sample>  (1) 
100

>  <b_lp_Chiralities_Consistent>  (1) 
1

>  <r_epik_Charging_Adjusted_Penalty>  (1) 
0

>  <r_epik_Ionization_Penalty>  (1) 
0.0034619861512114073

>  <r_epik_Ionization_Penalty_Charging>  (1) 
0

>  <r_epik_Ionization_Penalty_Neutral>  (1) 
0.0034619861512114073

>  <r_epik_State_Penalty>  (1) 
-0

>  <r_glide_ring_energy>  (1) 
0

>  <r_i_docking_score>  (1) 
-6.3431051285574904

>  <r_i_glide_ecoul>  (1) 
-3.8378271613974189

>  <r_i_glide_eff_state_penalty>  (1) 
-0

>  <r_i_glide_einternal>  (1) 
0.16110853249549772

>  <r_i_glide_emodel>  (1) 
-32.388657981639142

>  <r_i_glide_emodel_strain>  (1) 
0.080494858741577247

>  <r_i_glide_energy>  (1) 
-22.082646759080028

>  <r_i_glide_erotb>  (1) 
0

>  <r_i_glide_esite>  (1) 
0

>  <r_i_glide_evdw>  (1) 
-18.244819597682611

>  <r_i_glide_gscore>  (1) 
-6.3431051285574904

>  <r_i_glide_gscore_strain>  (1) 
0

>  <r_i_glide_hbond>  (1) 
-0.19204267930381591

>  <r_i_glide_ligand_efficiency>  (1) 
-0.7047894587286101

>  <r_i_glide_ligand_efficiency_ln>  (1) 
-1.9839410636090737

>  <r_i_glide_ligand_efficiency_sa>  (1) 
-1.4660211517588897

>  <r_i_glide_lipo>  (1) 
-2.1434896702630515

>  <r_i_glide_metal>  (1) 
-0

>  <r_i_glide_rewards>  (1) 
-2.5196577248968799

>  <r_lp_Energy>  (1) 
6.77806

>  <r_lp_tautomer_probability>  (1) 
1

>  <s_epik_cmdline>  (1) 
J2VwaWtfcHl0aG9uJywgJy1waHQnLCAnMS4wJywgJy1waCcsICc3LjQnLCAnLXRuJywgJzgnLCAnLW1hJywgJzUwMCcsICctaW1hZScsICc8aW5maWxlLm1hZT4nLCAnLW9tYWUnLCAnPG91dGZpbGUubWFlPic=

>  <s_epik_input>  (1) 
W0NIM11jMVtjSF1jKFtPSF0pYyhbT0hdKVtjSF1bY0hdMQ==

>  <s_glide_docking_method>  (1) 
confgen

>  <s_i_glide_gridfile>  (1) 
gpcr_5ht2c_6bqh_protein_autoprepared_prepared

>  <s_lp_Force_Field>  (1) 
S-OPLS

>  <s_lp_Variant>  (1) 
Pocket2Mol_86_num_sample_100-1

>  <s_m_source_file>  (1) 
generated__ligand_Pocket2Mol_2026-05-06_prepared.sdf

>  <GenAI_Model>  (1) 
Pocket2Mol

>  <Protein>  (1) 
GPCR_5HT2C

$$$$
Pocket2Mol_83_num_sample_100
     RDKit          3D

  0  0  0  0  0  0  0  0  0  0999 V3000
M  V30 BEGIN CTAB
M  V30 COUNTS 16 17 0 0 1
M  V30 BEGIN ATOM
M  V30 1 C 39.113839 28.019057 51.056511 0
M  V30 2 C 38.718197 28.189538 52.409287 0
M  V30 3 C 39.867403 29.010892 50.388505 0
M  V30 4 C 40.244405 30.189749 51.055332 0
M  V30 5 C 39.867449 30.382602 52.391390 0
M  V30 6 C 37.975751 27.404046 53.345893 0
M  V30 7 C 37.929566 28.117520 54.516660 0
M  V30 8 C 39.115854 29.395902 53.050764 0
M  V30 9 N 38.614106 29.315006 54.336843 0
M  V30 10 H 38.833957 27.117520 50.530493 0
M  V30 11 H 40.156239 28.862436 49.359723 0
M  V30 12 H 40.821105 30.945493 50.538766 0
M  V30 13 H 40.151436 31.285660 52.909560 0
M  V30 14 H 37.539191 26.434160 53.156479 0
M  V30 15 H 37.467778 27.874851 55.462120 0
M  V30 16 H 38.715500 30.010225 55.063526 0
M  V30 END ATOM
M  V30 BEGIN BOND
M  V30 1 2 2 1
M  V30 2 1 3 1
M  V30 3 2 4 3
M  V30 4 1 5 4
M  V30 5 1 6 2
M  V30 6 2 7 6
M  V30 7 1 8 2
M  V30 8 2 8 5
M  V30 9 1 9 7
M  V30 10 1 9 8
M  V30 11 1 10 1
M  V30 12 1 11 3
M  V30 13 1 12 4
M  V30 14 1 13 5
M  V30 15 1 14 6
M  V30 16 1 15 7
M  V30 17 1 16 9
M  V30 END BOND
M  V30 END CTAB
M  END
>  <i_epik_Tot_Q>  (1) 
0

>  <i_epik_Tot_abs_Q>  (1) 
0

>  <i_i_glide_confnum>  (1) 
1

>  <i_i_glide_lignum>  (1) 
88

>  <i_i_glide_posenum>  (1) 
346

>  <i_i_glide_rotatable_bonds>  (1) 
0

>  <i_lp_mmshare_version>  (1) 
72125

>  <i_m_source_file_index>  (1) 
84

>  <i_f3d_flags>  (1) 
0

>  <num_sample>  (1) 
100

>  <b_lp_Chiralities_Consistent>  (1) 
1

>  <r_epik_Charging_Adjusted_Penalty>  (1) 
0

>  <r_epik_Ionization_Penalty>  (1) 
6.3316205355000374e-10

>  <r_epik_Ionization_Penalty_Charging>  (1) 
0

>  <r_epik_Ionization_Penalty_Neutral>  (1) 
6.3316205355000374e-10

>  <r_epik_State_Penalty>  (1) 
-0

>  <r_glide_ring_energy>  (1) 
0

>  <r_i_docking_score>  (1) 
-6.3211765853443342

>  <r_i_glide_ecoul>  (1) 
-1.1143080734068771

>  <r_i_glide_eff_state_penalty>  (1) 
-0

>  <r_i_glide_einternal>  (1) 
0

>  <r_i_glide_emodel>  (1) 
-29.680838056577272

>  <r_i_glide_emodel_strain>  (1) 
0

>  <r_i_glide_energy>  (1) 
-21.066579512684708

>  <r_i_glide_erotb>  (1) 
0

>  <r_i_glide_esite>  (1) 
0

>  <r_i_glide_evdw>  (1) 
-19.95227143927783

>  <r_i_glide_gscore>  (1) 
-6.3211765853443342

>  <r_i_glide_gscore_strain>  (1) 
0

>  <r_i_glide_hbond>  (1) 
0

>  <r_i_glide_ligand_efficiency>  (1) 
-0.70235295392714825

>  <r_i_glide_ligand_efficiency_ln>  (1) 
-1.9770824452409432

>  <r_i_glide_ligand_efficiency_sa>  (1) 
-1.4609530175365806

>  <r_i_glide_lipo>  (1) 
-2.4531781780162643

>  <r_i_glide_metal>  (1) 
-0

>  <r_i_glide_rewards>  (1) 
-2.7032386243531468

>  <r_lp_Energy>  (1) 
12.824451

>  <r_lp_tautomer_probability>  (1) 
1

>  <s_epik_cmdline>  (1) 
J2VwaWtfcHl0aG9uJywgJy1waHQnLCAnMS4wJywgJy1waCcsICc3LjQnLCAnLXRuJywgJzgnLCAnLW1hJywgJzUwMCcsICctaW1hZScsICc8aW5maWxlLm1hZT4nLCAnLW9tYWUnLCAnPG91dGZpbGUubWFlPic=

>  <s_epik_input>  (1) 
W2NIXTFbY0hdW2NIXVtjSF1jKGMxMilbbkhdW2NIXVtjSF0y

>  <s_glide_docking_method>  (1) 
confgen

>  <s_i_glide_gridfile>  (1) 
gpcr_5ht2c_6bqh_protein_autoprepared_prepared

>  <s_lp_Force_Field>  (1) 
S-OPLS

>  <s_lp_Variant>  (1) 
Pocket2Mol_83_num_sample_100-1

>  <s_m_source_file>  (1) 
generated__ligand_Pocket2Mol_2026-05-06_prepared.sdf

>  <GenAI_Model>  (1) 
Pocket2Mol

>  <Protein>  (1) 
GPCR_5HT2C

$$$$
Pocket2Mol_98_num_sample_100
     RDKit          3D

  0  0  0  0  0  0  0  0  0  0999 V3000
M  V30 BEGIN CTAB
M  V30 COUNTS 18 19 0 0 1
M  V30 BEGIN ATOM
M  V30 1 C 37.921448 29.467355 55.214645 0
M  V30 2 O 37.749337 28.292239 54.360691 0
M  V30 3 O 38.794416 30.471287 54.613914 0
M  V30 4 C 38.490754 28.669164 53.314648 0
M  V30 5 C 39.063639 29.865884 53.454000 0
M  V30 6 C 39.867432 30.421441 52.447585 0
M  V30 7 C 40.071418 29.688438 51.255677 0
M  V30 8 C 40.922422 30.267184 50.145638 0
M  V30 9 C 38.666026 27.895735 52.154624 0
M  V30 10 C 39.467447 28.410692 51.108713 0
M  V30 11 H 36.945579 29.919163 55.403776 0
M  V30 12 H 38.347587 29.156996 56.169296 0
M  V30 13 H 40.316084 31.394514 52.578213 0
M  V30 14 H 40.928910 29.621434 49.267540 0
M  V30 15 H 40.525778 31.236827 49.847836 0
M  V30 16 H 41.947111 30.418146 50.486106 0
M  V30 17 H 38.193417 26.928566 52.061283 0
M  V30 18 H 39.614514 27.837885 50.206283 0
M  V30 END ATOM
M  V30 BEGIN BOND
M  V30 1 1 2 1
M  V30 2 1 3 1
M  V30 3 1 4 2
M  V30 4 1 5 3
M  V30 5 2 5 4
M  V30 6 1 6 5
M  V30 7 2 7 6
M  V30 8 1 8 7
M  V30 9 1 9 4
M  V30 10 1 10 7
M  V30 11 2 10 9
M  V30 12 1 11 1
M  V30 13 1 12 1
M  V30 14 1 13 6
M  V30 15 1 14 8
M  V30 16 1 15 8
M  V30 17 1 16 8
M  V30 18 1 17 9
M  V30 19 1 18 10
M  V30 END BOND
M  V30 END CTAB
M  END
>  <i_epik_Tot_Q>  (1) 
0

>  <i_epik_Tot_abs_Q>  (1) 
0

>  <i_i_glide_confnum>  (1) 
1

>  <i_i_glide_lignum>  (1) 
103

>  <i_i_glide_posenum>  (1) 
160

>  <i_i_glide_rotatable_bonds>  (1) 
0

>  <i_lp_mmshare_version>  (1) 
72125

>  <i_m_source_file_index>  (1) 
99

>  <i_f3d_flags>  (1) 
0

>  <num_sample>  (1) 
100

>  <b_lp_Chiralities_Consistent>  (1) 
1

>  <r_epik_Charging_Adjusted_Penalty>  (1) 
0

>  <r_epik_Ionization_Penalty>  (1) 
0

>  <r_epik_Ionization_Penalty_Charging>  (1) 
0

>  <r_epik_Ionization_Penalty_Neutral>  (1) 
0

>  <r_epik_State_Penalty>  (1) 
-0

>  <r_glide_ring_energy>  (1) 
0

>  <r_i_docking_score>  (1) 
-6.3203582382964427

>  <r_i_glide_ecoul>  (1) 
-1.1511367462225579

>  <r_i_glide_eff_state_penalty>  (1) 
-0

>  <r_i_glide_einternal>  (1) 
0

>  <r_i_glide_emodel>  (1) 
-30.97624167188582

>  <r_i_glide_emodel_strain>  (1) 
0.0068419762042992716

>  <r_i_glide_energy>  (1) 
-22.355987573651067

>  <r_i_glide_erotb>  (1) 
0

>  <r_i_glide_esite>  (1) 
0

>  <r_i_glide_evdw>  (1) 
-21.204850827428508

>  <r_i_glide_gscore>  (1) 
-6.3203582382964427

>  <r_i_glide_gscore_strain>  (1) 
0

>  <r_i_glide_hbond>  (1) 
0

>  <r_i_glide_ligand_efficiency>  (1) 
-0.63203582382964429

>  <r_i_glide_ligand_efficiency_ln>  (1) 
-1.9137609055718696

>  <r_i_glide_ligand_efficiency_sa>  (1) 
-1.361679904201466

>  <r_i_glide_lipo>  (1) 
-2.1592542348748913

>  <r_i_glide_metal>  (1) 
-0

>  <r_i_glide_rewards>  (1) 
-2.928190950116742

>  <r_lp_Energy>  (1) 
16.823695000000001

>  <r_lp_tautomer_probability>  (1) 
1

>  <s_epik_Chemistry_Notes>  (1) 
This compound contains an acetal/aminal-like group ( X-CH(R)-Y where X, Y are N, S, or O) that may be acid/base labile, releasing an aldehyde.

>  <s_epik_cmdline>  (1) 
J2VwaWtfcHl0aG9uJywgJy1waHQnLCAnMS4wJywgJy1waCcsICc3LjQnLCAnLXRuJywgJzgnLCAnLW1hJywgJzUwMCcsICctaW1hZScsICc8aW5maWxlLm1hZT4nLCAnLW9tYWUnLCAnPG91dGZpbGUubWFlPic=

>  <s_epik_input>  (1) 
TzFbQ0gyXU9jKGMxMilbY0hdYyhbQ0gzXSlbY0hdW2NIXTI=

>  <s_glide_docking_method>  (1) 
confgen

>  <s_i_glide_gridfile>  (1) 
gpcr_5ht2c_6bqh_protein_autoprepared_prepared

>  <s_lp_Force_Field>  (1) 
S-OPLS

>  <s_lp_Variant>  (1) 
Pocket2Mol_98_num_sample_100-1

>  <s_m_source_file>  (1) 
generated__ligand_Pocket2Mol_2026-05-06_prepared.sdf

>  <GenAI_Model>  (1) 
Pocket2Mol

>  <Protein>  (1) 
GPCR_5HT2C

$$$$
Pocket2Mol_72_num_sample_100
     RDKit          3D

  0  0  0  0  0  0  0  0  0  0999 V3000
M  V30 BEGIN CTAB
M  V30 COUNTS 15 16 0 0 1
M  V30 BEGIN ATOM
M  V30 1 C 39.334901 30.299521 53.808464 0
M  V30 2 C 39.467494 29.621393 52.548601 0
M  V30 3 C 38.903691 28.367732 52.302597 0
M  V30 4 C 40.065881 29.989942 51.492969 0
M  V30 5 C 38.156304 27.731428 53.370583 0
M  V30 6 C 39.867363 28.935006 50.570630 0
M  V30 7 C 38.023867 28.363804 54.568945 0
M  V30 8 C 39.138413 27.894100 51.053632 0
M  V30 9 C 38.634199 29.694852 54.795096 0
M  V30 10 H 39.782781 31.270714 53.963763 0
M  V30 11 H 40.608358 30.911086 51.331570 0
M  V30 12 H 37.706389 26.760742 53.215455 0
M  V30 13 H 40.266489 28.966132 49.567875 0
M  V30 14 H 37.467451 27.889797 55.363437 0
M  V30 15 H 38.518407 30.184807 55.751367 0
M  V30 END ATOM
M  V30 BEGIN BOND
M  V30 1 1 2 1
M  V30 2 1 3 2
M  V30 3 2 4 2
M  V30 4 1 5 3
M  V30 5 1 6 4
M  V30 6 2 7 5
M  V30 7 2 8 3
M  V30 8 2 8 6
M  V30 9 2 9 1
M  V30 10 1 9 7
M  V30 11 1 10 1
M  V30 12 1 11 4
M  V30 13 1 12 5
M  V30 14 1 13 6
M  V30 15 1 14 7
M  V30 16 1 15 9
M  V30 END BOND
M  V30 END CTAB
M  END
>  <i_epik_Tot_Q>  (1) 
0

>  <i_epik_Tot_abs_Q>  (1) 
0

>  <i_i_glide_confnum>  (1) 
1

>  <i_i_glide_lignum>  (1) 
77

>  <i_i_glide_posenum>  (1) 
327

>  <i_i_glide_rotatable_bonds>  (1) 
0

>  <i_lp_mmshare_version>  (1) 
72125

>  <i_m_source_file_index>  (1) 
73

>  <i_f3d_flags>  (1) 
0

>  <num_sample>  (1) 
100

>  <b_lp_Chiralities_Consistent>  (1) 
1

>  <r_epik_Charging_Adjusted_Penalty>  (1) 
0

>  <r_epik_Ionization_Penalty>  (1) 
0

>  <r_epik_Ionization_Penalty_Charging>  (1) 
0

>  <r_epik_Ionization_Penalty_Neutral>  (1) 
0

>  <r_epik_State_Penalty>  (1) 
-0

>  <r_glide_ring_energy>  (1) 
0

>  <r_i_docking_score>  (1) 
-6.3109105918834807

>  <r_i_glide_ecoul>  (1) 
-0.60396157069946044

>  <r_i_glide_eff_state_penalty>  (1) 
-0

>  <r_i_glide_einternal>  (1) 
0

>  <r_i_glide_emodel>  (1) 
-30.109951597721764

>  <r_i_glide_emodel_strain>  (1) 
0

>  <r_i_glide_energy>  (1) 
-21.732210851209114

>  <r_i_glide_erotb>  (1) 
0

>  <r_i_glide_esite>  (1) 
0

>  <r_i_glide_evdw>  (1) 
-21.128249280509653

>  <r_i_glide_gscore>  (1) 
-6.3109105918834807

>  <r_i_glide_gscore_strain>  (1) 
0

>  <r_i_glide_hbond>  (1) 
0

>  <r_i_glide_ligand_efficiency>  (1) 
-0.70121228798705337

>  <r_i_glide_ligand_efficiency_ln>  (1) 
-1.9738715374011797

>  <r_i_glide_ligand_efficiency_sa>  (1) 
-1.4585803367670831

>  <r_i_glide_lipo>  (1) 
-2.546974665067312

>  <r_i_glide_metal>  (1) 
-0

>  <r_i_glide_rewards>  (1) 
-2.6169292271857669

>  <r_lp_Energy>  (1) 
11.424324

>  <r_lp_tautomer_probability>  (1) 
1

>  <s_epik_cmdline>  (1) 
J2VwaWtfcHl0aG9uJywgJy1waHQnLCAnMS4wJywgJy1waCcsICc3LjQnLCAnLXRuJywgJzgnLCAnLW1hJywgJzUwMCcsICctaW1hZScsICc8aW5maWxlLm1hZT4nLCAnLW9tYWUnLCAnPG91dGZpbGUubWFlPic=

>  <s_epik_input>  (1) 
W2NIXTFbY0hdW2NIXVtjSF1jKGMxPTIpPUM9W0NIXVtDSF0y

>  <s_glide_docking_method>  (1) 
confgen

>  <s_i_glide_gridfile>  (1) 
gpcr_5ht2c_6bqh_protein_autoprepared_prepared

>  <s_lp_Force_Field>  (1) 
S-OPLS

>  <s_lp_Variant>  (1) 
Pocket2Mol_72_num_sample_100-1

>  <s_m_source_file>  (1) 
generated__ligand_Pocket2Mol_2026-05-06_prepared.sdf

>  <GenAI_Model>  (1) 
Pocket2Mol

>  <Protein>  (1) 
GPCR_5HT2C

$$$$
Pocket2Mol_89_num_sample_100
     RDKit          3D

  0  0  0  0  0  0  0  0  0  0999 V3000
M  V30 BEGIN CTAB
M  V30 COUNTS 17 18 0 0 1
M  V30 BEGIN ATOM
M  V30 1 C 38.250785 28.828269 54.504519 0
M  V30 2 C 38.710318 28.680923 53.222808 0
M  V30 3 C 38.486599 27.621426 52.343179 0
M  V30 4 C 39.067402 27.687963 51.053501 0
M  V30 5 C 39.851548 28.822949 50.686535 0
M  V30 6 C 39.463438 29.768329 52.886159 0
M  V30 7 C 39.588193 30.844393 54.023886 0
M  V30 8 C 40.051386 29.876383 51.617434 0
M  V30 9 C 38.691014 29.979481 54.992162 0
M  V30 10 H 37.628606 28.100992 55.004956 0
M  V30 11 H 37.885700 26.774045 52.637616 0
M  V30 12 H 38.913617 26.884010 50.347890 0
M  V30 13 H 40.288698 28.881150 49.701777 0
M  V30 14 H 39.123220 31.795254 53.762659 0
M  V30 15 H 40.608893 30.968153 54.386723 0
M  V30 16 H 40.642454 30.741898 51.354163 0
M  V30 17 H 38.463926 30.330656 55.988463 0
M  V30 END ATOM
M  V30 BEGIN BOND
M  V30 1 1 2 1
M  V30 2 2 3 2
M  V30 3 1 4 3
M  V30 4 2 5 4
M  V30 5 1 6 2
M  V30 6 1 7 6
M  V30 7 1 8 5
M  V30 8 2 8 6
M  V30 9 2 9 1
M  V30 10 1 9 7
M  V30 11 1 10 1
M  V30 12 1 11 3
M  V30 13 1 12 4
M  V30 14 1 13 5
M  V30 15 1 14 7
M  V30 16 1 15 7
M  V30 17 1 16 8
M  V30 18 1 17 9
M  V30 END BOND
M  V30 END CTAB
M  END
>  <i_epik_Tot_Q>  (1) 
0

>  <i_epik_Tot_abs_Q>  (1) 
0

>  <i_i_glide_confnum>  (1) 
1

>  <i_i_glide_lignum>  (1) 
94

>  <i_i_glide_posenum>  (1) 
270

>  <i_i_glide_rotatable_bonds>  (1) 
0

>  <i_lp_mmshare_version>  (1) 
72125

>  <i_m_source_file_index>  (1) 
90

>  <i_f3d_flags>  (1) 
0

>  <num_sample>  (1) 
100

>  <b_lp_Chiralities_Consistent>  (1) 
1

>  <r_epik_Charging_Adjusted_Penalty>  (1) 
0

>  <r_epik_Ionization_Penalty>  (1) 
0

>  <r_epik_Ionization_Penalty_Charging>  (1) 
0

>  <r_epik_Ionization_Penalty_Neutral>  (1) 
0

>  <r_epik_State_Penalty>  (1) 
-0

>  <r_glide_ring_energy>  (1) 
0

>  <r_i_docking_score>  (1) 
-6.3077863923688682

>  <r_i_glide_ecoul>  (1) 
-1.0540435426620411

>  <r_i_glide_eff_state_penalty>  (1) 
-0

>  <r_i_glide_einternal>  (1) 
0

>  <r_i_glide_emodel>  (1) 
-29.340503358070691

>  <r_i_glide_emodel_strain>  (1) 
0

>  <r_i_glide_energy>  (1) 
-21.160036519763292

>  <r_i_glide_erotb>  (1) 
0

>  <r_i_glide_esite>  (1) 
0

>  <r_i_glide_evdw>  (1) 
-20.105992977101252

>  <r_i_glide_gscore>  (1) 
-6.3077863923688682

>  <r_i_glide_gscore_strain>  (1) 
0

>  <r_i_glide_hbond>  (1) 
0

>  <r_i_glide_ligand_efficiency>  (1) 
-0.70086515470765198

>  <r_i_glide_ligand_efficiency_ln>  (1) 
-1.972894377542983

>  <r_i_glide_ligand_efficiency_sa>  (1) 
-1.4578582704481573

>  <r_i_glide_lipo>  (1) 
-2.5019599218984281

>  <r_i_glide_metal>  (1) 
-0

>  <r_i_glide_rewards>  (1) 
-2.6424202902160707

>  <r_lp_Energy>  (1) 
7.8773689999999998

>  <r_lp_tautomer_probability>  (1) 
1

>  <s_epik_cmdline>  (1) 
J2VwaWtfcHl0aG9uJywgJy1waHQnLCAnMS4wJywgJy1waCcsICc3LjQnLCAnLXRuJywgJzgnLCAnLW1hJywgJzUwMCcsICctaW1hZScsICc8aW5maWxlLm1hZT4nLCAnLW9tYWUnLCAnPG91dGZpbGUubWFlPic=

>  <s_epik_input>  (1) 
W0NIXTE9W0NIXVtDSDJdYyhjMTIpW2NIXVtjSF1bY0hdW2NIXTI=

>  <s_glide_docking_method>  (1) 
confgen

>  <s_i_glide_gridfile>  (1) 
gpcr_5ht2c_6bqh_protein_autoprepared_prepared

>  <s_lp_Force_Field>  (1) 
S-OPLS

>  <s_lp_Variant>  (1) 
Pocket2Mol_89_num_sample_100-1

>  <s_m_source_file>  (1) 
generated__ligand_Pocket2Mol_2026-05-06_prepared.sdf

>  <GenAI_Model>  (1) 
Pocket2Mol

>  <Protein>  (1) 
GPCR_5HT2C

$$$$
Pocket2Mol_68_num_sample_100
     RDKit          3D

  0  0  0  0  0  0  0  0  0  0999 V3000
M  V30 BEGIN CTAB
M  V30 COUNTS 19 20 0 0 1
M  V30 BEGIN ATOM
M  V30 1 C 39.616988 30.821426 53.895729 0
M  V30 2 C 39.467225 29.766275 52.864876 0
M  V30 3 C 40.041830 29.854622 51.583987 0
M  V30 4 C 39.839352 28.798052 50.668216 0
M  V30 5 C 39.067404 27.673497 51.053501 0
M  V30 6 C 38.722681 28.691047 53.230861 0
M  V30 7 C 38.169264 28.731181 54.606655 0
M  V30 8 C 38.768099 30.137174 55.056275 0
M  V30 9 C 38.502832 27.621686 52.347138 0
M  V30 10 H 40.662352 30.970850 54.168114 0
M  V30 11 H 39.174667 31.760128 53.562173 0
M  V30 12 H 40.628065 30.718131 51.304088 0
M  V30 13 H 40.267398 28.847531 49.678881 0
M  V30 14 H 38.908356 26.860805 50.359368 0
M  V30 15 H 37.078773 28.726810 54.593688 0
M  V30 16 H 38.539967 27.902360 55.210416 0
M  V30 17 H 39.396912 30.003226 55.937297 0
M  V30 18 H 37.959051 30.801239 55.364645 0
M  V30 19 H 37.908170 26.773110 52.651274 0
M  V30 END ATOM
M  V30 BEGIN BOND
M  V30 1 1 2 1
M  V30 2 2 3 2
M  V30 3 1 4 3
M  V30 4 2 5 4
M  V30 5 1 6 2
M  V30 6 1 7 6
M  V30 7 1 8 1
M  V30 8 1 8 7
M  V30 9 1 9 5
M  V30 10 2 9 6
M  V30 11 1 10 1
M  V30 12 1 11 1
M  V30 13 1 12 3
M  V30 14 1 13 4
M  V30 15 1 14 5
M  V30 16 1 15 7
M  V30 17 1 16 7
M  V30 18 1 17 8
M  V30 19 1 18 8
M  V30 20 1 19 9
M  V30 END BOND
M  V30 END CTAB
M  END
>  <i_epik_Tot_Q>  (1) 
0

>  <i_epik_Tot_abs_Q>  (1) 
0

>  <i_i_glide_confnum>  (1) 
1

>  <i_i_glide_lignum>  (1) 
73

>  <i_i_glide_posenum>  (1) 
139

>  <i_i_glide_rotatable_bonds>  (1) 
0

>  <i_lp_mmshare_version>  (1) 
72125

>  <i_m_source_file_index>  (1) 
69

>  <i_f3d_flags>  (1) 
0

>  <num_sample>  (1) 
100

>  <b_lp_Chiralities_Consistent>  (1) 
1

>  <r_epik_Charging_Adjusted_Penalty>  (1) 
0

>  <r_epik_Ionization_Penalty>  (1) 
0

>  <r_epik_Ionization_Penalty_Charging>  (1) 
0

>  <r_epik_Ionization_Penalty_Neutral>  (1) 
0

>  <r_epik_State_Penalty>  (1) 
-0

>  <r_glide_ring_energy>  (1) 
0

>  <r_i_docking_score>  (1) 
-6.3015860667168528

>  <r_i_glide_ecoul>  (1) 
-1.0231305414468357

>  <r_i_glide_eff_state_penalty>  (1) 
-0

>  <r_i_glide_einternal>  (1) 
0

>  <r_i_glide_emodel>  (1) 
-29.769883451617986

>  <r_i_glide_emodel_strain>  (1) 
0

>  <r_i_glide_energy>  (1) 
-21.472658117503666

>  <r_i_glide_erotb>  (1) 
0

>  <r_i_glide_esite>  (1) 
0

>  <r_i_glide_evdw>  (1) 
-20.44952757605683

>  <r_i_glide_gscore>  (1) 
-6.3015860667168528

>  <r_i_glide_gscore_strain>  (1) 
0

>  <r_i_glide_hbond>  (1) 
0

>  <r_i_glide_ligand_efficiency>  (1) 
-0.70017622963520587

>  <r_i_glide_ligand_efficiency_ln>  (1) 
-1.9709550937979603

>  <r_i_glide_ligand_efficiency_sa>  (1) 
-1.4564252485496672

>  <r_i_glide_lipo>  (1) 
-2.4933072406862218

>  <r_i_glide_metal>  (1) 
-0

>  <r_i_glide_rewards>  (1) 
-2.6323328660107639

>  <r_lp_Energy>  (1) 
13.687139

>  <r_lp_tautomer_probability>  (1) 
1

>  <s_epik_cmdline>  (1) 
J2VwaWtfcHl0aG9uJywgJy1waHQnLCAnMS4wJywgJy1waCcsICc3LjQnLCAnLXRuJywgJzgnLCAnLW1hJywgJzUwMCcsICctaW1hZScsICc8aW5maWxlLm1hZT4nLCAnLW9tYWUnLCAnPG91dGZpbGUubWFlPic=

>  <s_epik_input>  (1) 
W0NIMl0xW0NIMl1bQ0gyXWMoYzEyKVtjSF1bY0hdW2NIXVtjSF0y

>  <s_glide_docking_method>  (1) 
confgen

>  <s_i_glide_gridfile>  (1) 
gpcr_5ht2c_6bqh_protein_autoprepared_prepared

>  <s_lp_Force_Field>  (1) 
S-OPLS

>  <s_lp_Variant>  (1) 
Pocket2Mol_68_num_sample_100-1

>  <s_m_source_file>  (1) 
generated__ligand_Pocket2Mol_2026-05-06_prepared.sdf

>  <GenAI_Model>  (1) 
Pocket2Mol

>  <Protein>  (1) 
GPCR_5HT2C

$$$$
Pocket2Mol_89_num_sample_100
     RDKit          3D

  0  0  0  0  0  0  0  0  0  0999 V3000
M  V30 BEGIN CTAB
M  V30 COUNTS 17 18 0 0 1
M  V30 BEGIN ATOM
M  V30 1 C 39.523354 30.688792 53.843512 0
M  V30 2 C 39.466903 29.780553 52.820876 0
M  V30 3 C 40.055264 29.864103 51.554815 0
M  V30 4 C 39.854343 28.790371 50.653843 0
M  V30 5 C 39.067404 27.667304 51.053591 0
M  V30 6 C 38.712068 28.712975 53.210984 0
M  V30 7 C 38.141947 28.820961 54.671014 0
M  V30 8 C 38.489320 27.632793 52.349430 0
M  V30 9 C 38.826034 30.228269 54.872110 0
M  V30 10 H 40.059736 31.620765 53.784177 0
M  V30 11 H 40.645216 30.723996 51.271424 0
M  V30 12 H 40.288317 28.822543 49.666824 0
M  V30 13 H 38.909958 26.845951 50.369283 0
M  V30 14 H 38.532367 28.057674 55.344612 0
M  V30 15 H 37.056374 28.878498 54.694394 0
M  V30 16 H 37.888812 26.793685 52.663278 0
M  V30 17 H 38.714695 30.763181 55.804197 0
M  V30 END ATOM
M  V30 BEGIN BOND
M  V30 1 1 2 1
M  V30 2 2 3 2
M  V30 3 1 4 3
M  V30 4 2 5 4
M  V30 5 1 6 2
M  V30 6 1 7 6
M  V30 7 1 8 5
M  V30 8 2 8 6
M  V30 9 2 9 1
M  V30 10 1 9 7
M  V30 11 1 10 1
M  V30 12 1 11 3
M  V30 13 1 12 4
M  V30 14 1 13 5
M  V30 15 1 14 7
M  V30 16 1 15 7
M  V30 17 1 16 8
M  V30 18 1 17 9
M  V30 END BOND
M  V30 END CTAB
M  END
>  <i_epik_Tot_Q>  (1) 
0

>  <i_epik_Tot_abs_Q>  (1) 
0

>  <i_i_glide_confnum>  (1) 
1

>  <i_i_glide_lignum>  (1) 
94

>  <i_i_glide_posenum>  (1) 
286

>  <i_i_glide_rotatable_bonds>  (1) 
0

>  <i_lp_mmshare_version>  (1) 
72125

>  <i_m_source_file_index>  (1) 
90

>  <i_f3d_flags>  (1) 
0

>  <num_sample>  (1) 
100

>  <b_lp_Chiralities_Consistent>  (1) 
1

>  <r_epik_Charging_Adjusted_Penalty>  (1) 
0

>  <r_epik_Ionization_Penalty>  (1) 
0

>  <r_epik_Ionization_Penalty_Charging>  (1) 
0

>  <r_epik_Ionization_Penalty_Neutral>  (1) 
0

>  <r_epik_State_Penalty>  (1) 
-0

>  <r_glide_ring_energy>  (1) 
0

>  <r_i_docking_score>  (1) 
-6.3012666356142333

>  <r_i_glide_ecoul>  (1) 
-1.0135604896598371

>  <r_i_glide_eff_state_penalty>  (1) 
-0

>  <r_i_glide_einternal>  (1) 
0

>  <r_i_glide_emodel>  (1) 
-29.085092518466368

>  <r_i_glide_emodel_strain>  (1) 
0

>  <r_i_glide_energy>  (1) 
-20.913081047954819

>  <r_i_glide_erotb>  (1) 
0

>  <r_i_glide_esite>  (1) 
0

>  <r_i_glide_evdw>  (1) 
-19.899520558294981

>  <r_i_glide_gscore>  (1) 
-6.3012666356142333

>  <r_i_glide_gscore_strain>  (1) 
0

>  <r_i_glide_hbond>  (1) 
0

>  <r_i_glide_ligand_efficiency>  (1) 
-0.70014073729047033

>  <r_i_glide_ligand_efficiency_ln>  (1) 
-1.9708551849254703

>  <r_i_glide_ligand_efficiency_sa>  (1) 
-1.4563514214975406

>  <r_i_glide_lipo>  (1) 
-2.5027765202284411

>  <r_i_glide_metal>  (1) 
-0

>  <r_i_glide_rewards>  (1) 
-2.6514800140220669

>  <r_lp_Energy>  (1) 
7.8773689999999998

>  <r_lp_tautomer_probability>  (1) 
1

>  <s_epik_cmdline>  (1) 
J2VwaWtfcHl0aG9uJywgJy1waHQnLCAnMS4wJywgJy1waCcsICc3LjQnLCAnLXRuJywgJzgnLCAnLW1hJywgJzUwMCcsICctaW1hZScsICc8aW5maWxlLm1hZT4nLCAnLW9tYWUnLCAnPG91dGZpbGUubWFlPic=

>  <s_epik_input>  (1) 
W0NIXTE9W0NIXVtDSDJdYyhjMTIpW2NIXVtjSF1bY0hdW2NIXTI=

>  <s_glide_docking_method>  (1) 
confgen

>  <s_i_glide_gridfile>  (1) 
gpcr_5ht2c_6bqh_protein_autoprepared_prepared

>  <s_lp_Force_Field>  (1) 
S-OPLS

>  <s_lp_Variant>  (1) 
Pocket2Mol_89_num_sample_100-1

>  <s_m_source_file>  (1) 
generated__ligand_Pocket2Mol_2026-05-06_prepared.sdf

>  <GenAI_Model>  (1) 
Pocket2Mol

>  <Protein>  (1) 
GPCR_5HT2C

$$$$
Pocket2Mol_71_num_sample_100
     RDKit          3D

  0  0  0  0  0  0  0  0  0  0999 V3000
M  V30 BEGIN CTAB
M  V30 COUNTS 17 17 0 0 1
M  V30 BEGIN ATOM
M  V30 1 C 38.665944 27.621430 51.541342 0
M  V30 2 C 39.467386 28.611690 50.949686 0
M  V30 3 C 39.867430 29.734124 51.696539 0
M  V30 4 C 40.720041 30.804205 51.040080 0
M  V30 5 C 39.467401 29.857552 53.051496 0
M  V30 6 O 39.852632 30.935445 53.791244 0
M  V30 7 C 38.259385 27.748294 52.884878 0
M  V30 8 O 37.468214 26.793198 53.453503 0
M  V30 9 C 38.664486 28.862813 53.639309 0
M  V30 10 H 38.354537 26.767455 50.960864 0
M  V30 11 H 39.768806 28.513891 49.917067 0
M  V30 12 H 40.962236 31.621389 51.711520 0
M  V30 13 H 41.653246 30.377395 50.669150 0
M  V30 14 H 40.187092 31.222933 50.186267 0
M  V30 15 H 40.285051 31.604010 53.281680 0
M  V30 16 H 37.071524 26.223054 52.807691 0
M  V30 17 H 38.353515 28.959297 54.669385 0
M  V30 END ATOM
M  V30 BEGIN BOND
M  V30 1 2 2 1
M  V30 2 1 3 2
M  V30 3 1 4 3
M  V30 4 2 5 3
M  V30 5 1 6 5
M  V30 6 1 7 1
M  V30 7 1 8 7
M  V30 8 1 9 5
M  V30 9 2 9 7
M  V30 10 1 10 1
M  V30 11 1 11 2
M  V30 12 1 12 4
M  V30 13 1 13 4
M  V30 14 1 14 4
M  V30 15 1 15 6
M  V30 16 1 16 8
M  V30 17 1 17 9
M  V30 END BOND
M  V30 END CTAB
M  END
>  <i_epik_Tot_Q>  (1) 
0

>  <i_epik_Tot_abs_Q>  (1) 
0

>  <i_i_glide_confnum>  (1) 
1

>  <i_i_glide_lignum>  (1) 
76

>  <i_i_glide_posenum>  (1) 
346

>  <i_i_glide_rotatable_bonds>  (1) 
2

>  <i_lp_mmshare_version>  (1) 
72125

>  <i_m_source_file_index>  (1) 
72

>  <i_f3d_flags>  (1) 
0

>  <num_sample>  (1) 
100

>  <b_lp_Chiralities_Consistent>  (1) 
1

>  <r_epik_Charging_Adjusted_Penalty>  (1) 
0.00325898940304725

>  <r_epik_Ionization_Penalty>  (1) 
0.005516606254364515

>  <r_epik_Ionization_Penalty_Charging>  (1) 
0

>  <r_epik_Ionization_Penalty_Neutral>  (1) 
0.005516606254364515

>  <r_epik_State_Penalty>  (1) 
0.00325898940304725

>  <r_glide_ring_energy>  (1) 
0

>  <r_i_docking_score>  (1) 
-6.2993080432783506

>  <r_i_glide_ecoul>  (1) 
-3.9308533016128679

>  <r_i_glide_eff_state_penalty>  (1) 
0.00325898940304725

>  <r_i_glide_einternal>  (1) 
0.30517684609731044

>  <r_i_glide_emodel>  (1) 
-31.495825721989032

>  <r_i_glide_emodel_strain>  (1) 
0.55575942868110229

>  <r_i_glide_energy>  (1) 
-22.915577501889807

>  <r_i_glide_erotb>  (1) 
0

>  <r_i_glide_esite>  (1) 
0

>  <r_i_glide_evdw>  (1) 
-18.98472420027694

>  <r_i_glide_gscore>  (1) 
-6.3025670326813978

>  <r_i_glide_gscore_strain>  (1) 
0

>  <r_i_glide_hbond>  (1) 
-0.22420739062715414

>  <r_i_glide_ligand_efficiency>  (1) 
-0.69992311591981671

>  <r_i_glide_ligand_efficiency_ln>  (1) 
-1.9702425935079744

>  <r_i_glide_ligand_efficiency_sa>  (1) 
-1.4558987508048937

>  <r_i_glide_lipo>  (1) 
-2.0894954367984666

>  <r_i_glide_metal>  (1) 
-0

>  <r_i_glide_rewards>  (1) 
-2.4500000000000002

>  <r_lp_Energy>  (1) 
3.8278699999999999

>  <r_lp_tautomer_probability>  (1) 
0.99999999989799981

>  <s_epik_cmdline>  (1) 
J2VwaWtfcHl0aG9uJywgJy1waHQnLCAnMS4wJywgJy1waCcsICc3LjQnLCAnLXRuJywgJzgnLCAnLW1hJywgJzUwMCcsICctaW1hZScsICc8aW5maWxlLm1hZT4nLCAnLW9tYWUnLCAnPG91dGZpbGUubWFlPic=

>  <s_epik_input>  (1) 
W0NIM11jMVtjSF1bY0hdYyhbT0hdKVtjSF1jMVtPSF0=

>  <s_glide_docking_method>  (1) 
confgen

>  <s_i_glide_gridfile>  (1) 
gpcr_5ht2c_6bqh_protein_autoprepared_prepared

>  <s_lp_Force_Field>  (1) 
S-OPLS

>  <s_lp_Variant>  (1) 
Pocket2Mol_71_num_sample_100-1

>  <s_m_source_file>  (1) 
generated__ligand_Pocket2Mol_2026-05-06_prepared.sdf

>  <GenAI_Model>  (1) 
Pocket2Mol

>  <Protein>  (1) 
GPCR_5HT2C

$$$$
Pocket2Mol_1_num_sample_100
     RDKit          3D

  0  0  0  0  0  0  0  0  0  0999 V3000
M  V30 BEGIN CTAB
M  V30 COUNTS 19 20 0 0 1
M  V30 BEGIN ATOM
M  V30 1 C 39.274261 30.272550 53.461374 0
M  V30 2 C 38.667404 28.969982 53.556506 0
M  V30 3 C 38.397950 28.154498 52.378844 0 CFG=1
M  V30 4 C 38.356376 28.396664 54.658734 0
M  V30 5 C 39.290164 28.551527 51.210334 0
M  V30 6 C 39.941777 29.737481 51.171458 0
M  V30 7 C 37.867402 27.008595 54.523591 0
M  V30 8 O 40.667403 30.068817 50.096618 0
M  V30 9 N 38.284105 26.821484 53.065142 0
M  V30 10 C 39.867704 30.650185 52.314949 0
M  V30 11 H 39.273394 30.936101 54.314281 0
M  V30 12 H 37.384763 28.401675 52.058778 0
M  V30 13 H 38.497038 28.842604 55.632811 0
M  V30 14 H 39.345381 27.869042 50.374353 0
M  V30 15 H 38.374443 26.307237 55.186741 0
M  V30 16 H 36.786942 26.961034 54.653501 0
M  V30 17 H 41.024382 30.931775 50.246945 0
M  V30 18 H 37.628809 26.230515 52.567257 0
M  V30 19 H 40.334893 31.621426 52.253500 0
M  V30 END ATOM
M  V30 BEGIN BOND
M  V30 1 1 2 1
M  V30 2 1 3 2
M  V30 3 2 4 2
M  V30 4 1 5 3
M  V30 5 2 6 5
M  V30 6 1 7 4
M  V30 7 1 8 6
M  V30 8 1 9 3
M  V30 9 1 9 7
M  V30 10 2 10 1
M  V30 11 1 10 6
M  V30 12 1 11 1
M  V30 13 1 3 12 CFG=3
M  V30 14 1 13 4
M  V30 15 1 14 5
M  V30 16 1 15 7
M  V30 17 1 16 7
M  V30 18 1 17 8
M  V30 19 1 18 9
M  V30 20 1 19 10
M  V30 END BOND
M  V30 END CTAB
M  END
>  <i_epik_Tot_Q>  (1) 
0

>  <i_epik_Tot_abs_Q>  (1) 
0

>  <i_i_glide_confnum>  (1) 
1

>  <i_i_glide_lignum>  (1) 
4

>  <i_i_glide_posenum>  (1) 
15

>  <i_i_glide_rotatable_bonds>  (1) 
1

>  <i_lp_mmshare_version>  (1) 
72125

>  <i_m_source_file_index>  (1) 
2

>  <i_f3d_flags>  (1) 
0

>  <num_sample>  (1) 
100

>  <b_lp_Chiralities_Consistent>  (1) 
1

>  <r_epik_Charging_Adjusted_Penalty>  (1) 
0.0032380173127296522

>  <r_epik_Ionization_Penalty>  (1) 
0.0032399356015129686

>  <r_epik_Ionization_Penalty_Charging>  (1) 
0

>  <r_epik_Ionization_Penalty_Neutral>  (1) 
0.0032399356015129686

>  <r_epik_State_Penalty>  (1) 
0.0032380173127296522

>  <r_glide_ring_energy>  (1) 
0

>  <r_i_docking_score>  (1) 
-6.29364039563061

>  <r_i_glide_ecoul>  (1) 
-2.4929646171787505

>  <r_i_glide_eff_state_penalty>  (1) 
0.0032380173127296522

>  <r_i_glide_einternal>  (1) 
0.019420135880186873

>  <r_i_glide_emodel>  (1) 
-32.761238575189154

>  <r_i_glide_emodel_strain>  (1) 
0

>  <r_i_glide_energy>  (1) 
-23.211009166688328

>  <r_i_glide_erotb>  (1) 
0

>  <r_i_glide_esite>  (1) 
0

>  <r_i_glide_evdw>  (1) 
-20.718044549509578

>  <r_i_glide_gscore>  (1) 
-6.2968784129433395

>  <r_i_glide_gscore_strain>  (1) 
0

>  <r_i_glide_hbond>  (1) 
-0.070741141210116265

>  <r_i_glide_ligand_efficiency>  (1) 
-0.62936403956306097

>  <r_i_glide_ligand_efficiency_ln>  (1) 
-1.9056709269903909

>  <r_i_glide_ligand_efficiency_sa>  (1) 
-1.3559237194932576

>  <r_i_glide_lipo>  (1) 
-2.3638481989146736

>  <r_i_glide_metal>  (1) 
-0

>  <r_i_glide_rewards>  (1) 
-2.4524421527662579

>  <r_lp_Energy>  (1) 
5.6363089999999998

>  <s_epik_cmdline>  (1) 
J2VwaWtfcHl0aG9uJywgJy1waHQnLCAnMS4wJywgJy1waCcsICc3LjQnLCAnLXRuJywgJzgnLCAnLW1hJywgJzUwMCcsICctaW1hZScsICc8aW5maWxlLm1hZT4nLCAnLW9tYWUnLCAnPG91dGZpbGUubWFlPic=

>  <s_epik_input>  (1) 
W0NIXTE9W0NIXUMoW09IXSk9W0NIXVtDQEhdKEMxPTIpW05IXVtDSDJdW0NIXTI=

>  <s_glide_docking_method>  (1) 
confgen

>  <s_i_glide_gridfile>  (1) 
gpcr_5ht2c_6bqh_protein_autoprepared_prepared

>  <s_lp_Force_Field>  (1) 
S-OPLS

>  <s_lp_Variant>  (1) 
Pocket2Mol_1_num_sample_100-2

>  <s_m_source_file>  (1) 
generated__ligand_Pocket2Mol_2026-05-06_prepared.sdf

>  <GenAI_Model>  (1) 
Pocket2Mol

>  <Protein>  (1) 
GPCR_5HT2C

$$$$
Pocket2Mol_86_num_sample_100
     RDKit          3D

  0  0  0  0  0  0  0  0  0  0999 V3000
M  V30 BEGIN CTAB
M  V30 COUNTS 17 17 0 0 1
M  V30 BEGIN ATOM
M  V30 1 C 39.466359 29.906986 52.982307 0
M  V30 2 C 39.867264 29.748070 51.638561 0
M  V30 3 C 38.659310 28.927794 53.597231 0
M  V30 4 O 38.261476 29.087819 54.894452 0
M  V30 5 C 38.258056 27.786512 52.867737 0
M  V30 6 C 40.718988 30.804110 50.973491 0
M  V30 7 O 37.467706 26.838526 53.453509 0
M  V30 8 C 39.467753 28.608975 50.915318 0
M  V30 9 C 38.667385 27.629053 51.528427 0
M  V30 10 H 39.772900 30.781524 53.537216 0
M  V30 11 H 38.487146 29.926565 55.265702 0
M  V30 12 H 40.902477 31.621429 51.667035 0
M  V30 13 H 41.675948 30.392126 50.653785 0
M  V30 14 H 40.210457 31.213303 50.101387 0
M  V30 15 H 37.068915 26.262617 52.815731 0
M  V30 16 H 39.773151 28.488007 49.886288 0
M  V30 17 H 38.360807 26.760788 50.967659 0
M  V30 END ATOM
M  V30 BEGIN BOND
M  V30 1 2 2 1
M  V30 2 1 3 1
M  V30 3 1 4 3
M  V30 4 2 5 3
M  V30 5 1 6 2
M  V30 6 1 7 5
M  V30 7 1 8 2
M  V30 8 1 9 5
M  V30 9 2 9 8
M  V30 10 1 10 1
M  V30 11 1 11 4
M  V30 12 1 12 6
M  V30 13 1 13 6
M  V30 14 1 14 6
M  V30 15 1 15 7
M  V30 16 1 16 8
M  V30 17 1 17 9
M  V30 END BOND
M  V30 END CTAB
M  END
>  <i_epik_Tot_Q>  (1) 
0

>  <i_epik_Tot_abs_Q>  (1) 
0

>  <i_i_glide_confnum>  (1) 
1

>  <i_i_glide_lignum>  (1) 
91

>  <i_i_glide_posenum>  (1) 
341

>  <i_i_glide_rotatable_bonds>  (1) 
2

>  <i_lp_mmshare_version>  (1) 
72125

>  <i_m_source_file_index>  (1) 
87

>  <i_f3d_flags>  (1) 
0

>  <num_sample>  (1) 
100

>  <b_lp_Chiralities_Consistent>  (1) 
1

>  <r_epik_Charging_Adjusted_Penalty>  (1) 
0

>  <r_epik_Ionization_Penalty>  (1) 
0.0034619861512114073

>  <r_epik_Ionization_Penalty_Charging>  (1) 
0

>  <r_epik_Ionization_Penalty_Neutral>  (1) 
0.0034619861512114073

>  <r_epik_State_Penalty>  (1) 
-0

>  <r_glide_ring_energy>  (1) 
0

>  <r_i_docking_score>  (1) 
-6.2929607877634259

>  <r_i_glide_ecoul>  (1) 
-3.5166505358480276

>  <r_i_glide_eff_state_penalty>  (1) 
-0

>  <r_i_glide_einternal>  (1) 
0.27204540316824177

>  <r_i_glide_emodel>  (1) 
-33.057254288222069

>  <r_i_glide_emodel_strain>  (1) 
0.0014118937232332485

>  <r_i_glide_energy>  (1) 
-22.81037410467988

>  <r_i_glide_erotb>  (1) 
0

>  <r_i_glide_esite>  (1) 
0

>  <r_i_glide_evdw>  (1) 
-19.293723568831851

>  <r_i_glide_gscore>  (1) 
-6.2929607877634259

>  <r_i_glide_gscore_strain>  (1) 
0

>  <r_i_glide_hbond>  (1) 
-0.22379166783361182

>  <r_i_glide_ligand_efficiency>  (1) 
-0.69921786530704733

>  <r_i_glide_ligand_efficiency_ln>  (1) 
-1.9682573543227393

>  <r_i_glide_ligand_efficiency_sa>  (1) 
-1.4544317704140746

>  <r_i_glide_lipo>  (1) 
-2.1156044667018654

>  <r_i_glide_metal>  (1) 
-0

>  <r_i_glide_rewards>  (1) 
-2.4613808944091522

>  <r_lp_Energy>  (1) 
6.77806

>  <r_lp_tautomer_probability>  (1) 
1

>  <s_epik_cmdline>  (1) 
J2VwaWtfcHl0aG9uJywgJy1waHQnLCAnMS4wJywgJy1waCcsICc3LjQnLCAnLXRuJywgJzgnLCAnLW1hJywgJzUwMCcsICctaW1hZScsICc8aW5maWxlLm1hZT4nLCAnLW9tYWUnLCAnPG91dGZpbGUubWFlPic=

>  <s_epik_input>  (1) 
W0NIM11jMVtjSF1jKFtPSF0pYyhbT0hdKVtjSF1bY0hdMQ==

>  <s_glide_docking_method>  (1) 
confgen

>  <s_i_glide_gridfile>  (1) 
gpcr_5ht2c_6bqh_protein_autoprepared_prepared

>  <s_lp_Force_Field>  (1) 
S-OPLS

>  <s_lp_Variant>  (1) 
Pocket2Mol_86_num_sample_100-1

>  <s_m_source_file>  (1) 
generated__ligand_Pocket2Mol_2026-05-06_prepared.sdf

>  <GenAI_Model>  (1) 
Pocket2Mol

>  <Protein>  (1) 
GPCR_5HT2C

$$$$
Pocket2Mol_94_num_sample_100
     RDKit          3D

  0  0  0  0  0  0  0  0  0  0999 V3000
M  V30 BEGIN CTAB
M  V30 COUNTS 16 17 0 0 1
M  V30 BEGIN ATOM
M  V30 1 C 38.498978 27.890360 52.218861 0
M  V30 2 C 38.457575 28.725033 53.382327 0
M  V30 3 C 39.113648 29.952453 53.453488 0
M  V30 4 C 37.867406 28.537156 54.486445 0
M  V30 5 C 39.867403 30.393541 52.293493 0
M  V30 6 C 38.165595 29.683150 55.264173 0
M  V30 7 C 39.916666 29.613710 51.174585 0
M  V30 8 C 38.953061 30.596941 54.638293 0
M  V30 9 O 40.603306 30.024625 50.103082 0
M  V30 10 C 39.202816 28.312528 51.144683 0
M  V30 11 H 37.976951 26.944248 52.199041 0
M  V30 12 H 37.265527 27.687593 54.772097 0
M  V30 13 H 40.385047 31.341701 52.314162 0
M  V30 14 H 37.790727 29.810931 56.269626 0
M  V30 15 H 40.425855 29.415097 49.404037 0
M  V30 16 H 39.243998 27.697431 50.257185 0
M  V30 END ATOM
M  V30 BEGIN BOND
M  V30 1 1 2 1
M  V30 2 1 3 2
M  V30 3 2 4 2
M  V30 4 1 5 3
M  V30 5 1 6 4
M  V30 6 2 7 5
M  V30 7 2 8 3
M  V30 8 2 8 6
M  V30 9 1 9 7
M  V30 10 2 10 1
M  V30 11 1 10 7
M  V30 12 1 11 1
M  V30 13 1 12 4
M  V30 14 1 13 5
M  V30 15 1 14 6
M  V30 16 1 15 9
M  V30 17 1 16 10
M  V30 END BOND
M  V30 END CTAB
M  END
>  <i_epik_Tot_Q>  (1) 
0

>  <i_epik_Tot_abs_Q>  (1) 
0

>  <i_i_glide_confnum>  (1) 
1

>  <i_i_glide_lignum>  (1) 
99

>  <i_i_glide_posenum>  (1) 
188

>  <i_i_glide_rotatable_bonds>  (1) 
1

>  <i_lp_mmshare_version>  (1) 
72125

>  <i_m_source_file_index>  (1) 
95

>  <i_f3d_flags>  (1) 
0

>  <num_sample>  (1) 
100

>  <b_lp_Chiralities_Consistent>  (1) 
1

>  <r_epik_Charging_Adjusted_Penalty>  (1) 
0

>  <r_epik_Ionization_Penalty>  (1) 
1.8682351542324854e-05

>  <r_epik_Ionization_Penalty_Charging>  (1) 
0

>  <r_epik_Ionization_Penalty_Neutral>  (1) 
1.8682351542324854e-05

>  <r_epik_State_Penalty>  (1) 
-0

>  <r_glide_ring_energy>  (1) 
0

>  <r_i_docking_score>  (1) 
-6.2903716778725753

>  <r_i_glide_ecoul>  (1) 
-0.65146086860504393

>  <r_i_glide_eff_state_penalty>  (1) 
-0

>  <r_i_glide_einternal>  (1) 
0.056399469039216221

>  <r_i_glide_emodel>  (1) 
-33.505913894291574

>  <r_i_glide_emodel_strain>  (1) 
0

>  <r_i_glide_energy>  (1) 
-23.872886083876757

>  <r_i_glide_erotb>  (1) 
0

>  <r_i_glide_esite>  (1) 
0

>  <r_i_glide_evdw>  (1) 
-23.221425215271715

>  <r_i_glide_gscore>  (1) 
-6.2903716778725753

>  <r_i_glide_gscore_strain>  (1) 
0

>  <r_i_glide_hbond>  (1) 
0

>  <r_i_glide_ligand_efficiency>  (1) 
-0.62903716778725749

>  <r_i_glide_ligand_efficiency_ln>  (1) 
-1.9046811817859544

>  <r_i_glide_ligand_efficiency_sa>  (1) 
-1.3552194956002743

>  <r_i_glide_lipo>  (1) 
-2.3393598299652578

>  <r_i_glide_metal>  (1) 
-0

>  <r_i_glide_rewards>  (1) 
-2.692221456852975

>  <r_lp_Energy>  (1) 
8.2800799999999999

>  <r_lp_tautomer_probability>  (1) 
1

>  <s_epik_cmdline>  (1) 
J2VwaWtfcHl0aG9uJywgJy1waHQnLCAnMS4wJywgJy1waCcsICc3LjQnLCAnLXRuJywgJzgnLCAnLW1hJywgJzUwMCcsICctaW1hZScsICc8aW5maWxlLm1hZT4nLCAnLW9tYWUnLCAnPG91dGZpbGUubWFlPic=

>  <s_epik_input>  (1) 
W2NIXTFbY0hdYyhbT0hdKVtjSF1jKGMxPTIpPUM9W0NIXVtDSF0y

>  <s_glide_docking_method>  (1) 
confgen

>  <s_i_glide_gridfile>  (1) 
gpcr_5ht2c_6bqh_protein_autoprepared_prepared

>  <s_lp_Force_Field>  (1) 
S-OPLS

>  <s_lp_Variant>  (1) 
Pocket2Mol_94_num_sample_100-1

>  <s_m_source_file>  (1) 
generated__ligand_Pocket2Mol_2026-05-06_prepared.sdf

>  <GenAI_Model>  (1) 
Pocket2Mol

>  <Protein>  (1) 
GPCR_5HT2C

$$$$
Pocket2Mol_68_num_sample_100
     RDKit          3D

  0  0  0  0  0  0  0  0  0  0999 V3000
M  V30 BEGIN CTAB
M  V30 COUNTS 19 20 0 0 1
M  V30 BEGIN ATOM
M  V30 1 C 40.096404 29.655325 51.224382 0
M  V30 2 C 39.444797 29.621430 52.558078 0
M  V30 3 C 39.467405 30.705777 53.453501 0
M  V30 4 C 38.805764 30.584210 54.696017 0
M  V30 5 C 38.134331 29.378862 55.018317 0
M  V30 6 C 38.802389 28.467090 52.867499 0
M  V30 7 C 38.855601 27.409834 51.833062 0
M  V30 8 C 39.592384 28.240895 50.698098 0
M  V30 9 C 38.133596 28.309273 54.094058 0
M  V30 10 H 39.742217 30.486651 50.613393 0
M  V30 11 H 41.179949 29.693059 51.317203 0
M  V30 12 H 39.978498 31.620585 53.193269 0
M  V30 13 H 38.809250 31.407304 55.395903 0
M  V30 14 H 37.624214 29.278953 55.965441 0
M  V30 15 H 39.450459 26.562829 52.176095 0
M  V30 16 H 37.867403 27.076169 51.529184 0
M  V30 17 H 38.879064 28.421429 49.894240 0
M  V30 18 H 40.394574 27.657175 50.253501 0
M  V30 19 H 37.624725 27.385121 54.326334 0
M  V30 END ATOM
M  V30 BEGIN BOND
M  V30 1 1 2 1
M  V30 2 2 3 2
M  V30 3 1 4 3
M  V30 4 2 5 4
M  V30 5 1 6 2
M  V30 6 1 7 6
M  V30 7 1 8 1
M  V30 8 1 8 7
M  V30 9 1 9 5
M  V30 10 2 9 6
M  V30 11 1 10 1
M  V30 12 1 11 1
M  V30 13 1 12 3
M  V30 14 1 13 4
M  V30 15 1 14 5
M  V30 16 1 15 7
M  V30 17 1 16 7
M  V30 18 1 17 8
M  V30 19 1 18 8
M  V30 20 1 19 9
M  V30 END BOND
M  V30 END CTAB
M  END
>  <i_epik_Tot_Q>  (1) 
0

>  <i_epik_Tot_abs_Q>  (1) 
0

>  <i_i_glide_confnum>  (1) 
1

>  <i_i_glide_lignum>  (1) 
73

>  <i_i_glide_posenum>  (1) 
181

>  <i_i_glide_rotatable_bonds>  (1) 
0

>  <i_lp_mmshare_version>  (1) 
72125

>  <i_m_source_file_index>  (1) 
69

>  <i_f3d_flags>  (1) 
0

>  <num_sample>  (1) 
100

>  <b_lp_Chiralities_Consistent>  (1) 
1

>  <r_epik_Charging_Adjusted_Penalty>  (1) 
0

>  <r_epik_Ionization_Penalty>  (1) 
0

>  <r_epik_Ionization_Penalty_Charging>  (1) 
0

>  <r_epik_Ionization_Penalty_Neutral>  (1) 
0

>  <r_epik_State_Penalty>  (1) 
-0

>  <r_glide_ring_energy>  (1) 
0

>  <r_i_docking_score>  (1) 
-6.2742723159588403

>  <r_i_glide_ecoul>  (1) 
-1.2184973965794959

>  <r_i_glide_eff_state_penalty>  (1) 
-0

>  <r_i_glide_einternal>  (1) 
0

>  <r_i_glide_emodel>  (1) 
-28.984521356015378

>  <r_i_glide_emodel_strain>  (1) 
0

>  <r_i_glide_energy>  (1) 
-20.723259720938046

>  <r_i_glide_erotb>  (1) 
0

>  <r_i_glide_esite>  (1) 
0

>  <r_i_glide_evdw>  (1) 
-19.504762324358548

>  <r_i_glide_gscore>  (1) 
-6.2742723159588403

>  <r_i_glide_gscore_strain>  (1) 
0

>  <r_i_glide_hbond>  (1) 
0

>  <r_i_glide_ligand_efficiency>  (1) 
-0.69714136843987118

>  <r_i_glide_ligand_efficiency_ln>  (1) 
-1.9624121372125432

>  <r_i_glide_ligand_efficiency_sa>  (1) 
-1.4501124828720435

>  <r_i_glide_lipo>  (1) 
-2.408664123954424

>  <r_i_glide_metal>  (1) 
-0

>  <r_i_glide_rewards>  (1) 
-2.7075954662995647

>  <r_lp_Energy>  (1) 
13.687139

>  <r_lp_tautomer_probability>  (1) 
1

>  <s_epik_cmdline>  (1) 
J2VwaWtfcHl0aG9uJywgJy1waHQnLCAnMS4wJywgJy1waCcsICc3LjQnLCAnLXRuJywgJzgnLCAnLW1hJywgJzUwMCcsICctaW1hZScsICc8aW5maWxlLm1hZT4nLCAnLW9tYWUnLCAnPG91dGZpbGUubWFlPic=

>  <s_epik_input>  (1) 
W0NIMl0xW0NIMl1bQ0gyXWMoYzEyKVtjSF1bY0hdW2NIXVtjSF0y

>  <s_glide_docking_method>  (1) 
confgen

>  <s_i_glide_gridfile>  (1) 
gpcr_5ht2c_6bqh_protein_autoprepared_prepared

>  <s_lp_Force_Field>  (1) 
S-OPLS

>  <s_lp_Variant>  (1) 
Pocket2Mol_68_num_sample_100-1

>  <s_m_source_file>  (1) 
generated__ligand_Pocket2Mol_2026-05-06_prepared.sdf

>  <GenAI_Model>  (1) 
Pocket2Mol

>  <Protein>  (1) 
GPCR_5HT2C

$$$$
Pocket2Mol_83_num_sample_100
     RDKit          3D

  0  0  0  0  0  0  0  0  0  0999 V3000
M  V30 BEGIN CTAB
M  V30 COUNTS 16 17 0 0 1
M  V30 BEGIN ATOM
M  V30 1 C 39.867311 30.301411 52.635807 0
M  V30 2 C 39.073884 29.250619 53.177267 0
M  V30 3 C 40.267403 30.284259 51.280191 0
M  V30 4 C 39.890810 29.220429 50.442351 0
M  V30 5 C 39.117254 28.169796 50.953910 0
M  V30 6 C 38.514849 28.972416 54.464264 0
M  V30 7 C 37.844476 27.779490 54.357827 0
M  V30 8 C 38.717310 28.192161 52.295971 0
M  V30 9 N 37.964150 27.315502 53.053499 0
M  V30 10 H 40.163549 31.125398 53.268259 0
M  V30 11 H 40.865560 31.093702 50.885753 0
M  V30 12 H 40.198064 29.212259 49.406705 0
M  V30 13 H 38.827969 27.348284 50.315188 0
M  V30 14 H 38.610386 29.589282 55.345952 0
M  V30 15 H 37.290298 27.222589 55.098710 0
M  V30 16 H 37.543311 26.454429 52.728737 0
M  V30 END ATOM
M  V30 BEGIN BOND
M  V30 1 2 2 1
M  V30 2 1 3 1
M  V30 3 2 4 3
M  V30 4 1 5 4
M  V30 5 1 6 2
M  V30 6 2 7 6
M  V30 7 1 8 2
M  V30 8 2 8 5
M  V30 9 1 9 7
M  V30 10 1 9 8
M  V30 11 1 10 1
M  V30 12 1 11 3
M  V30 13 1 12 4
M  V30 14 1 13 5
M  V30 15 1 14 6
M  V30 16 1 15 7
M  V30 17 1 16 9
M  V30 END BOND
M  V30 END CTAB
M  END
>  <i_epik_Tot_Q>  (1) 
0

>  <i_epik_Tot_abs_Q>  (1) 
0

>  <i_i_glide_confnum>  (1) 
1

>  <i_i_glide_lignum>  (1) 
88

>  <i_i_glide_posenum>  (1) 
88

>  <i_i_glide_rotatable_bonds>  (1) 
0

>  <i_lp_mmshare_version>  (1) 
72125

>  <i_m_source_file_index>  (1) 
84

>  <i_f3d_flags>  (1) 
0

>  <num_sample>  (1) 
100

>  <b_lp_Chiralities_Consistent>  (1) 
1

>  <r_epik_Charging_Adjusted_Penalty>  (1) 
0

>  <r_epik_Ionization_Penalty>  (1) 
6.3316205355000374e-10

>  <r_epik_Ionization_Penalty_Charging>  (1) 
0

>  <r_epik_Ionization_Penalty_Neutral>  (1) 
6.3316205355000374e-10

>  <r_epik_State_Penalty>  (1) 
-0

>  <r_glide_ring_energy>  (1) 
0

>  <r_i_docking_score>  (1) 
-6.2741718570824219

>  <r_i_glide_ecoul>  (1) 
-1.8699422733213238

>  <r_i_glide_eff_state_penalty>  (1) 
-0

>  <r_i_glide_einternal>  (1) 
0

>  <r_i_glide_emodel>  (1) 
-30.269668223743857

>  <r_i_glide_emodel_strain>  (1) 
0

>  <r_i_glide_energy>  (1) 
-21.719465932127541

>  <r_i_glide_erotb>  (1) 
0

>  <r_i_glide_esite>  (1) 
0

>  <r_i_glide_evdw>  (1) 
-19.849523658806216

>  <r_i_glide_gscore>  (1) 
-6.2741718570824219

>  <r_i_glide_gscore_strain>  (1) 
0

>  <r_i_glide_hbond>  (1) 
-0.021068821215370254

>  <r_i_glide_ligand_efficiency>  (1) 
-0.69713020634249134

>  <r_i_glide_ligand_efficiency_ln>  (1) 
-1.9623807165619167

>  <r_i_glide_ligand_efficiency_sa>  (1) 
-1.4500892647738524

>  <r_i_glide_lipo>  (1) 
-2.3904532988303786

>  <r_i_glide_metal>  (1) 
-0

>  <r_i_glide_rewards>  (1) 
-2.5896822130981634

>  <r_lp_Energy>  (1) 
12.824451

>  <r_lp_tautomer_probability>  (1) 
1

>  <s_epik_cmdline>  (1) 
J2VwaWtfcHl0aG9uJywgJy1waHQnLCAnMS4wJywgJy1waCcsICc3LjQnLCAnLXRuJywgJzgnLCAnLW1hJywgJzUwMCcsICctaW1hZScsICc8aW5maWxlLm1hZT4nLCAnLW9tYWUnLCAnPG91dGZpbGUubWFlPic=

>  <s_epik_input>  (1) 
W2NIXTFbY0hdW2NIXVtjSF1jKGMxMilbbkhdW2NIXVtjSF0y

>  <s_glide_docking_method>  (1) 
confgen

>  <s_i_glide_gridfile>  (1) 
gpcr_5ht2c_6bqh_protein_autoprepared_prepared

>  <s_lp_Force_Field>  (1) 
S-OPLS

>  <s_lp_Variant>  (1) 
Pocket2Mol_83_num_sample_100-1

>  <s_m_source_file>  (1) 
generated__ligand_Pocket2Mol_2026-05-06_prepared.sdf

>  <GenAI_Model>  (1) 
Pocket2Mol

>  <Protein>  (1) 
GPCR_5HT2C

$$$$
Pocket2Mol_91_num_sample_100
     RDKit          3D

  0  0  0  0  0  0  0  0  0  0999 V3000
M  V30 BEGIN CTAB
M  V30 COUNTS 14 15 0 0 1
M  V30 BEGIN ATOM
M  V30 1 C 40.268551 30.199619 51.123385 0
M  V30 2 C 39.867400 30.415600 52.466380 0
M  V30 3 C 39.085548 29.427626 53.071857 0
M  V30 4 C 38.559569 29.359222 54.308005 0
M  V30 5 C 39.867403 28.999473 50.456744 0
M  V30 6 C 38.706893 28.328862 52.470888 0
M  V30 7 N 37.911033 27.527484 53.324789 0
M  V30 8 C 37.867410 28.220988 54.387545 0
M  V30 9 C 39.068627 28.045196 51.147600 0
M  V30 10 H 40.872635 30.933806 50.609688 0
M  V30 11 H 40.153434 31.309570 52.999710 0
M  V30 12 H 38.428523 30.242765 54.916055 0
M  V30 13 H 40.164781 28.821430 49.435363 0
M  V30 14 H 38.747360 27.132903 50.665193 0
M  V30 END ATOM
M  V30 BEGIN BOND
M  V30 1 1 2 1
M  V30 2 2 3 2
M  V30 3 1 4 3
M  V30 4 2 5 1
M  V30 5 1 6 3
M  V30 6 1 7 6
M  V30 7 2 8 4
M  V30 8 2 8 7
M  V30 9 1 9 5
M  V30 10 2 9 6
M  V30 11 1 10 1
M  V30 12 1 11 2
M  V30 13 1 12 4
M  V30 14 1 13 5
M  V30 15 1 14 9
M  V30 END BOND
M  V30 END CTAB
M  END
>  <i_epik_Tot_Q>  (1) 
0

>  <i_epik_Tot_abs_Q>  (1) 
0

>  <i_i_glide_confnum>  (1) 
1

>  <i_i_glide_lignum>  (1) 
96

>  <i_i_glide_posenum>  (1) 
205

>  <i_i_glide_rotatable_bonds>  (1) 
0

>  <i_lp_mmshare_version>  (1) 
72125

>  <i_m_source_file_index>  (1) 
92

>  <i_f3d_flags>  (1) 
0

>  <num_sample>  (1) 
100

>  <b_lp_Chiralities_Consistent>  (1) 
1

>  <r_epik_Charging_Adjusted_Penalty>  (1) 
0

>  <r_epik_Ionization_Penalty>  (1) 
7.4584844087238395e-05

>  <r_epik_Ionization_Penalty_Charging>  (1) 
0

>  <r_epik_Ionization_Penalty_Neutral>  (1) 
7.4584844087238395e-05

>  <r_epik_State_Penalty>  (1) 
-0

>  <r_glide_ring_energy>  (1) 
0

>  <r_i_docking_score>  (1) 
-6.260170838087002

>  <r_i_glide_ecoul>  (1) 
-0.46984689405848556

>  <r_i_glide_eff_state_penalty>  (1) 
-0

>  <r_i_glide_einternal>  (1) 
0

>  <r_i_glide_emodel>  (1) 
-30.049285919345081

>  <r_i_glide_emodel_strain>  (1) 
0

>  <r_i_glide_energy>  (1) 
-21.670110165740898

>  <r_i_glide_erotb>  (1) 
0

>  <r_i_glide_esite>  (1) 
0

>  <r_i_glide_evdw>  (1) 
-21.200263271682413

>  <r_i_glide_gscore>  (1) 
-6.260170838087002

>  <r_i_glide_gscore_strain>  (1) 
0

>  <r_i_glide_hbond>  (1) 
0

>  <r_i_glide_ligand_efficiency>  (1) 
-0.69557453756522247

>  <r_i_glide_ligand_efficiency_ln>  (1) 
-1.9580016000323281

>  <r_i_glide_ligand_efficiency_sa>  (1) 
-1.4468533433162285

>  <r_i_glide_lipo>  (1) 
-2.3483050206192102

>  <r_i_glide_metal>  (1) 
-0

>  <r_i_glide_rewards>  (1) 
-2.7813756197748978

>  <r_lp_Energy>  (1) 
14.311973999999999

>  <r_lp_tautomer_probability>  (1) 
1

>  <s_epik_Chemistry_Notes>  (1) 
This compound has an imine and may undergo hydrolysis.

>  <s_epik_cmdline>  (1) 
J2VwaWtfcHl0aG9uJywgJy1waHQnLCAnMS4wJywgJy1waCcsICc3LjQnLCAnLXRuJywgJzgnLCAnLW1hJywgJzUwMCcsICctaW1hZScsICc8aW5maWxlLm1hZT4nLCAnLW9tYWUnLCAnPG91dGZpbGUubWFlPic=

>  <s_epik_input>  (1) 
W2NIXTFbY0hdW2NIXVtjSF1jKGMxMilOPUM9W0NIXTI=

>  <s_glide_docking_method>  (1) 
confgen

>  <s_i_glide_gridfile>  (1) 
gpcr_5ht2c_6bqh_protein_autoprepared_prepared

>  <s_lp_Force_Field>  (1) 
S-OPLS

>  <s_lp_Variant>  (1) 
Pocket2Mol_91_num_sample_100-1

>  <s_m_source_file>  (1) 
generated__ligand_Pocket2Mol_2026-05-06_prepared.sdf

>  <GenAI_Model>  (1) 
Pocket2Mol

>  <Protein>  (1) 
GPCR_5HT2C

$$$$
Pocket2Mol_97_num_sample_100
     RDKit          3D

  0  0  0  0  0  0  0  0  0  0999 V3000
M  V30 BEGIN CTAB
M  V30 COUNTS 17 18 0 0 1
M  V30 BEGIN ATOM
M  V30 1 C 38.465614 27.613020 52.325751 0
M  V30 2 C 38.667429 28.650936 53.249860 0
M  V30 3 C 39.466778 29.753879 52.910220 0
M  V30 4 C 38.083938 28.609274 54.522072 0
M  V30 5 C 38.323469 29.678105 55.408698 0
M  V30 6 C 40.064197 29.832566 51.636332 0
M  V30 7 C 39.862543 28.794109 50.706512 0
M  V30 8 C 39.653499 30.770178 53.863292 0
M  V30 9 N 39.098650 30.745587 55.098309 0
M  V30 10 C 39.067344 27.681346 51.053490 0
M  V30 11 H 37.850960 26.765517 52.588128 0
M  V30 12 H 37.465339 27.777602 54.818326 0
M  V30 13 H 37.885695 29.675555 56.396224 0
M  V30 14 H 40.673432 30.685124 51.372742 0
M  V30 15 H 40.313545 28.850262 49.727479 0
M  V30 16 H 40.267401 31.621398 53.633595 0
M  V30 17 H 38.914309 26.884063 50.339898 0
M  V30 END ATOM
M  V30 BEGIN BOND
M  V30 1 2 2 1
M  V30 2 1 3 2
M  V30 3 1 4 2
M  V30 4 2 5 4
M  V30 5 2 6 3
M  V30 6 1 7 6
M  V30 7 1 8 3
M  V30 8 1 9 5
M  V30 9 2 9 8
M  V30 10 1 10 1
M  V30 11 2 10 7
M  V30 12 1 11 1
M  V30 13 1 12 4
M  V30 14 1 13 5
M  V30 15 1 14 6
M  V30 16 1 15 7
M  V30 17 1 16 8
M  V30 18 1 17 10
M  V30 END BOND
M  V30 END CTAB
M  END
>  <i_epik_Tot_Q>  (1) 
0

>  <i_epik_Tot_abs_Q>  (1) 
0

>  <i_i_glide_confnum>  (1) 
1

>  <i_i_glide_lignum>  (1) 
102

>  <i_i_glide_posenum>  (1) 
118

>  <i_i_glide_rotatable_bonds>  (1) 
0

>  <i_lp_mmshare_version>  (1) 
72125

>  <i_m_source_file_index>  (1) 
98

>  <i_f3d_flags>  (1) 
0

>  <num_sample>  (1) 
100

>  <b_lp_Chiralities_Consistent>  (1) 
1

>  <r_epik_Charging_Adjusted_Penalty>  (1) 
0.015036794032578672

>  <r_epik_Ionization_Penalty>  (1) 
0.01503679403257876

>  <r_epik_Ionization_Penalty_Charging>  (1) 
0

>  <r_epik_Ionization_Penalty_Neutral>  (1) 
0.01503679403257876

>  <r_epik_State_Penalty>  (1) 
0.015036794032578672

>  <r_glide_ring_energy>  (1) 
0

>  <r_i_docking_score>  (1) 
-6.2583230010435802

>  <r_i_glide_ecoul>  (1) 
-0.97607134707901189

>  <r_i_glide_eff_state_penalty>  (1) 
0.015036794032578672

>  <r_i_glide_einternal>  (1) 
0

>  <r_i_glide_emodel>  (1) 
-30.861939845335264

>  <r_i_glide_emodel_strain>  (1) 
0

>  <r_i_glide_energy>  (1) 
-22.156514664425771

>  <r_i_glide_erotb>  (1) 
0

>  <r_i_glide_esite>  (1) 
0

>  <r_i_glide_evdw>  (1) 
-21.180443317346757

>  <r_i_glide_gscore>  (1) 
-6.2733597950761588

>  <r_i_glide_gscore_strain>  (1) 
0

>  <r_i_glide_hbond>  (1) 
0

>  <r_i_glide_ligand_efficiency>  (1) 
-0.62583230010435797

>  <r_i_glide_ligand_efficiency_ln>  (1) 
-1.8949770633676335

>  <r_i_glide_ligand_efficiency_sa>  (1) 
-1.3483148174872734

>  <r_i_glide_lipo>  (1) 
-2.4307838788717491

>  <r_i_glide_metal>  (1) 
-0

>  <r_i_glide_rewards>  (1) 
-2.6371430482752207

>  <r_lp_Energy>  (1) 
19.776892999999998

>  <s_epik_cmdline>  (1) 
J2VwaWtfcHl0aG9uJywgJy1waHQnLCAnMS4wJywgJy1waCcsICc3LjQnLCAnLXRuJywgJzgnLCAnLW1hJywgJzUwMCcsICctaW1hZScsICc8aW5maWxlLm1hZT4nLCAnLW9tYWUnLCAnPG91dGZpbGUubWFlPic=

>  <s_epik_input>  (1) 
W2NIXTFbY0hdW2NIXVtjSF1jKGMxMilbY0hdbltjSF1bY0hdMg==

>  <s_glide_docking_method>  (1) 
confgen

>  <s_i_glide_gridfile>  (1) 
gpcr_5ht2c_6bqh_protein_autoprepared_prepared

>  <s_lp_Force_Field>  (1) 
S-OPLS

>  <s_lp_Variant>  (1) 
Pocket2Mol_97_num_sample_100-1

>  <s_m_source_file>  (1) 
generated__ligand_Pocket2Mol_2026-05-06_prepared.sdf

>  <GenAI_Model>  (1) 
Pocket2Mol

>  <Protein>  (1) 
GPCR_5HT2C

$$$$
Pocket2Mol_74_num_sample_100
     RDKit          3D

  0  0  0  0  0  0  0  0  0  0999 V3000
M  V30 BEGIN CTAB
M  V30 COUNTS 16 17 0 0 1
M  V30 BEGIN ATOM
M  V30 1 C 39.141939 28.013043 50.972534 0
M  V30 2 C 38.739308 28.214420 52.341832 0
M  V30 3 C 39.071959 29.347231 53.023028 0
M  V30 4 C 38.067038 27.464885 53.109780 0
M  V30 5 C 39.867070 30.398332 52.366955 0
M  V30 6 N 38.643773 29.397320 54.242605 0
M  V30 7 C 37.865475 28.057312 54.478408 0
M  V30 8 C 39.867404 28.973725 50.351618 0
M  V30 9 C 40.246237 30.207518 51.074266 0
M  V30 10 H 38.867228 27.108682 50.449316 0
M  V30 11 H 37.663474 26.499490 52.838695 0
M  V30 12 H 40.115493 31.279342 52.939979 0
M  V30 13 H 36.807354 28.233376 54.653470 0
M  V30 14 H 38.312926 27.448419 55.264451 0
M  V30 15 H 40.174608 28.836836 49.326523 0
M  V30 16 H 40.829232 30.964059 50.571254 0
M  V30 END ATOM
M  V30 BEGIN BOND
M  V30 1 1 2 1
M  V30 2 1 3 2
M  V30 3 2 4 2
M  V30 4 1 5 3
M  V30 5 2 6 3
M  V30 6 1 7 4
M  V30 7 1 7 6
M  V30 8 2 8 1
M  V30 9 2 9 5
M  V30 10 1 9 8
M  V30 11 1 10 1
M  V30 12 1 11 4
M  V30 13 1 12 5
M  V30 14 1 13 7
M  V30 15 1 14 7
M  V30 16 1 15 8
M  V30 17 1 16 9
M  V30 END BOND
M  V30 END CTAB
M  END
>  <i_epik_Tot_Q>  (1) 
0

>  <i_epik_Tot_abs_Q>  (1) 
0

>  <i_i_glide_confnum>  (1) 
1

>  <i_i_glide_lignum>  (1) 
79

>  <i_i_glide_posenum>  (1) 
349

>  <i_i_glide_rotatable_bonds>  (1) 
0

>  <i_lp_mmshare_version>  (1) 
72125

>  <i_m_source_file_index>  (1) 
75

>  <i_f3d_flags>  (1) 
0

>  <num_sample>  (1) 
100

>  <b_lp_Chiralities_Consistent>  (1) 
1

>  <r_epik_Charging_Adjusted_Penalty>  (1) 
0

>  <r_epik_Ionization_Penalty>  (1) 
0

>  <r_epik_Ionization_Penalty_Charging>  (1) 
0

>  <r_epik_Ionization_Penalty_Neutral>  (1) 
0

>  <r_epik_State_Penalty>  (1) 
-0

>  <r_glide_ring_energy>  (1) 
0

>  <r_i_docking_score>  (1) 
-6.2562363423780498

>  <r_i_glide_ecoul>  (1) 
-0.73412530364727879

>  <r_i_glide_eff_state_penalty>  (1) 
-0

>  <r_i_glide_einternal>  (1) 
0

>  <r_i_glide_emodel>  (1) 
-29.496967469087458

>  <r_i_glide_emodel_strain>  (1) 
0

>  <r_i_glide_energy>  (1) 
-21.019716149627037

>  <r_i_glide_erotb>  (1) 
0

>  <r_i_glide_esite>  (1) 
0

>  <r_i_glide_evdw>  (1) 
-20.285590845979758

>  <r_i_glide_gscore>  (1) 
-6.2562363423780498

>  <r_i_glide_gscore_strain>  (1) 
0

>  <r_i_glide_hbond>  (1) 
0

>  <r_i_glide_ligand_efficiency>  (1) 
-0.69513737137533882

>  <r_i_glide_ligand_efficiency_ln>  (1) 
-1.9567710028022047

>  <r_i_glide_ligand_efficiency_sa>  (1) 
-1.4459440009966664

>  <r_i_glide_lipo>  (1) 
-2.4760564832635237

>  <r_i_glide_metal>  (1) 
-0

>  <r_i_glide_rewards>  (1) 
-2.6557815212684464

>  <r_lp_Energy>  (1) 
8.0132250000000003

>  <r_lp_tautomer_probability>  (1) 
1

>  <s_epik_Chemistry_Notes>  (1) 
This compound has an imine and may undergo hydrolysis.

>  <s_epik_cmdline>  (1) 
J2VwaWtfcHl0aG9uJywgJy1waHQnLCAnMS4wJywgJy1waCcsICc3LjQnLCAnLXRuJywgJzgnLCAnLW1hJywgJzUwMCcsICctaW1hZScsICc8aW5maWxlLm1hZT4nLCAnLW9tYWUnLCAnPG91dGZpbGUubWFlPic=

>  <s_epik_input>  (1) 
W2NIXTFbY0hdW2NIXVtjSF1jKGMxPTIpPU5bQ0gyXVtDSF0y

>  <s_glide_docking_method>  (1) 
confgen

>  <s_i_glide_gridfile>  (1) 
gpcr_5ht2c_6bqh_protein_autoprepared_prepared

>  <s_lp_Force_Field>  (1) 
S-OPLS

>  <s_lp_Variant>  (1) 
Pocket2Mol_74_num_sample_100-1

>  <s_m_source_file>  (1) 
generated__ligand_Pocket2Mol_2026-05-06_prepared.sdf

>  <GenAI_Model>  (1) 
Pocket2Mol

>  <Protein>  (1) 
GPCR_5HT2C

$$$$
Pocket2Mol_71_num_sample_100
     RDKit          3D

  0  0  0  0  0  0  0  0  0  0999 V3000
M  V30 BEGIN CTAB
M  V30 COUNTS 17 17 0 0 1
M  V30 BEGIN ATOM
M  V30 1 C 40.024363 30.421432 52.169103 0
M  V30 2 C 39.465387 30.307522 53.456118 0
M  V30 3 C 38.602596 29.233804 53.760512 0
M  V30 4 C 37.993222 29.127267 55.150389 0
M  V30 5 C 38.304736 28.267505 52.768941 0
M  V30 6 O 37.467402 27.224881 53.053494 0
M  V30 7 C 39.729178 29.463418 51.182712 0
M  V30 8 O 40.267352 29.585441 49.934753 0
M  V30 9 C 38.871415 28.384024 51.481577 0
M  V30 10 H 40.679142 31.248034 51.937916 0
M  V30 11 H 39.693353 31.047586 54.209562 0
M  V30 12 H 37.472825 28.185937 55.324416 0
M  V30 13 H 38.769996 29.221608 55.909630 0
M  V30 14 H 37.275423 29.934655 55.300779 0
M  V30 15 H 37.152820 26.752032 52.291143 0
M  V30 16 H 39.773142 29.110539 49.283422 0
M  V30 17 H 38.645095 27.648322 50.723445 0
M  V30 END ATOM
M  V30 BEGIN BOND
M  V30 1 2 2 1
M  V30 2 1 3 2
M  V30 3 1 4 3
M  V30 4 2 5 3
M  V30 5 1 6 5
M  V30 6 1 7 1
M  V30 7 1 8 7
M  V30 8 1 9 5
M  V30 9 2 9 7
M  V30 10 1 10 1
M  V30 11 1 11 2
M  V30 12 1 12 4
M  V30 13 1 13 4
M  V30 14 1 14 4
M  V30 15 1 15 6
M  V30 16 1 16 8
M  V30 17 1 17 9
M  V30 END BOND
M  V30 END CTAB
M  END
>  <i_epik_Tot_Q>  (1) 
0

>  <i_epik_Tot_abs_Q>  (1) 
0

>  <i_i_glide_confnum>  (1) 
1

>  <i_i_glide_lignum>  (1) 
76

>  <i_i_glide_posenum>  (1) 
30

>  <i_i_glide_rotatable_bonds>  (1) 
2

>  <i_lp_mmshare_version>  (1) 
72125

>  <i_m_source_file_index>  (1) 
72

>  <i_f3d_flags>  (1) 
0

>  <num_sample>  (1) 
100

>  <b_lp_Chiralities_Consistent>  (1) 
1

>  <r_epik_Charging_Adjusted_Penalty>  (1) 
0.00325898940304725

>  <r_epik_Ionization_Penalty>  (1) 
0.005516606254364515

>  <r_epik_Ionization_Penalty_Charging>  (1) 
0

>  <r_epik_Ionization_Penalty_Neutral>  (1) 
0.005516606254364515

>  <r_epik_State_Penalty>  (1) 
0.00325898940304725

>  <r_glide_ring_energy>  (1) 
0

>  <r_i_docking_score>  (1) 
-6.2439565029559772

>  <r_i_glide_ecoul>  (1) 
-4.6992572376798929

>  <r_i_glide_eff_state_penalty>  (1) 
0.00325898940304725

>  <r_i_glide_einternal>  (1) 
0.43717241601555157

>  <r_i_glide_emodel>  (1) 
-31.383697407877264

>  <r_i_glide_emodel_strain>  (1) 
0.47404708347866809

>  <r_i_glide_energy>  (1) 
-22.869310610359193

>  <r_i_glide_erotb>  (1) 
0

>  <r_i_glide_esite>  (1) 
0

>  <r_i_glide_evdw>  (1) 
-18.170053372679302

>  <r_i_glide_gscore>  (1) 
-6.2472154923590244

>  <r_i_glide_gscore_strain>  (1) 
0

>  <r_i_glide_hbond>  (1) 
-0.32000000000000001

>  <r_i_glide_ligand_efficiency>  (1) 
-0.69377294477288631

>  <r_i_glide_ligand_efficiency_ln>  (1) 
-1.9529302217982305

>  <r_i_glide_ligand_efficiency_sa>  (1) 
-1.4431058792931633

>  <r_i_glide_lipo>  (1) 
-1.9184512652864252

>  <r_i_glide_metal>  (1) 
-0

>  <r_i_glide_rewards>  (1) 
-2.3953729727866508

>  <r_lp_Energy>  (1) 
3.8278699999999999

>  <r_lp_tautomer_probability>  (1) 
0.99999999989799981

>  <s_epik_cmdline>  (1) 
J2VwaWtfcHl0aG9uJywgJy1waHQnLCAnMS4wJywgJy1waCcsICc3LjQnLCAnLXRuJywgJzgnLCAnLW1hJywgJzUwMCcsICctaW1hZScsICc8aW5maWxlLm1hZT4nLCAnLW9tYWUnLCAnPG91dGZpbGUubWFlPic=

>  <s_epik_input>  (1) 
W0NIM11jMVtjSF1bY0hdYyhbT0hdKVtjSF1jMVtPSF0=

>  <s_glide_docking_method>  (1) 
confgen

>  <s_i_glide_gridfile>  (1) 
gpcr_5ht2c_6bqh_protein_autoprepared_prepared

>  <s_lp_Force_Field>  (1) 
S-OPLS

>  <s_lp_Variant>  (1) 
Pocket2Mol_71_num_sample_100-1

>  <s_m_source_file>  (1) 
generated__ligand_Pocket2Mol_2026-05-06_prepared.sdf

>  <GenAI_Model>  (1) 
Pocket2Mol

>  <Protein>  (1) 
GPCR_5HT2C

$$$$
Pocket2Mol_57_num_sample_100
     RDKit          3D

  0  0  0  0  0  0  0  0  0  0999 V3000
M  V30 BEGIN CTAB
M  V30 COUNTS 16 16 0 0 1
M  V30 BEGIN ATOM
M  V30 1 C 39.469401 28.599414 50.884951 0
M  V30 2 C 39.867788 29.749884 51.591301 0
M  V30 3 C 38.667406 27.630952 51.513547 0
M  V30 4 C 38.257964 27.812515 52.849931 0
M  V30 5 O 37.467804 26.879734 53.453452 0
M  V30 6 C 40.721195 30.795595 50.912552 0
M  V30 7 C 38.660820 28.960082 53.559902 0
M  V30 8 C 39.467305 29.928581 52.931506 0
M  V30 9 H 39.776174 28.461363 49.858557 0
M  V30 10 H 38.359186 26.754465 50.967218 0
M  V30 11 H 37.073677 26.289639 52.825138 0
M  V30 12 H 40.904913 31.621414 51.595394 0
M  V30 13 H 41.680283 30.375973 50.608548 0
M  V30 14 H 40.213722 31.192648 50.033380 0
M  V30 15 H 38.346716 29.100458 54.583496 0
M  V30 16 H 39.772340 30.811044 53.474781 0
M  V30 END ATOM
M  V30 BEGIN BOND
M  V30 1 1 2 1
M  V30 2 2 3 1
M  V30 3 1 4 3
M  V30 4 1 5 4
M  V30 5 1 6 2
M  V30 6 2 7 4
M  V30 7 2 8 2
M  V30 8 1 8 7
M  V30 9 1 9 1
M  V30 10 1 10 3
M  V30 11 1 11 5
M  V30 12 1 12 6
M  V30 13 1 13 6
M  V30 14 1 14 6
M  V30 15 1 15 7
M  V30 16 1 16 8
M  V30 END BOND
M  V30 END CTAB
M  END
>  <i_epik_Tot_Q>  (1) 
0

>  <i_epik_Tot_abs_Q>  (1) 
0

>  <i_i_glide_confnum>  (1) 
1

>  <i_i_glide_lignum>  (1) 
61

>  <i_i_glide_posenum>  (1) 
281

>  <i_i_glide_rotatable_bonds>  (1) 
1

>  <i_lp_mmshare_version>  (1) 
72125

>  <i_m_source_file_index>  (1) 
58

>  <i_f3d_flags>  (1) 
0

>  <num_sample>  (1) 
100

>  <b_lp_Chiralities_Consistent>  (1) 
1

>  <r_epik_Charging_Adjusted_Penalty>  (1) 
0

>  <r_epik_Ionization_Penalty>  (1) 
0.0011734046256504545

>  <r_epik_Ionization_Penalty_Charging>  (1) 
0

>  <r_epik_Ionization_Penalty_Neutral>  (1) 
0.0011734046256504545

>  <r_epik_State_Penalty>  (1) 
-0

>  <r_glide_ring_energy>  (1) 
0

>  <r_i_docking_score>  (1) 
-6.2380896549563438

>  <r_i_glide_ecoul>  (1) 
-3.2739316153092775

>  <r_i_glide_eff_state_penalty>  (1) 
-0

>  <r_i_glide_einternal>  (1) 
0.24877974455758411

>  <r_i_glide_emodel>  (1) 
-29.434277731188008

>  <r_i_glide_emodel_strain>  (1) 
0.018143755220759061

>  <r_i_glide_energy>  (1) 
-21.133313412057976

>  <r_i_glide_erotb>  (1) 
0

>  <r_i_glide_esite>  (1) 
0

>  <r_i_glide_evdw>  (1) 
-17.8593817967487

>  <r_i_glide_gscore>  (1) 
-6.2380896549563438

>  <r_i_glide_gscore_strain>  (1) 
0

>  <r_i_glide_hbond>  (1) 
-0.21428617614192785

>  <r_i_glide_ligand_efficiency>  (1) 
-0.77976120686954298

>  <r_i_glide_ligand_efficiency_ln>  (1) 
-2.0257210830355512

>  <r_i_glide_ligand_efficiency_sa>  (1) 
-1.5595224137390862

>  <r_i_glide_lipo>  (1) 
-2.139775938697873

>  <r_i_glide_metal>  (1) 
-0

>  <r_i_glide_rewards>  (1) 
-2.4999687079827169

>  <r_lp_Energy>  (1) 
4.2645419999999996

>  <r_lp_tautomer_probability>  (1) 
1

>  <s_epik_cmdline>  (1) 
J2VwaWtfcHl0aG9uJywgJy1waHQnLCAnMS4wJywgJy1waCcsICc3LjQnLCAnLXRuJywgJzgnLCAnLW1hJywgJzUwMCcsICctaW1hZScsICc8aW5maWxlLm1hZT4nLCAnLW9tYWUnLCAnPG91dGZpbGUubWFlPic=

>  <s_epik_input>  (1) 
W0NIM11jMVtjSF1bY0hdYyhbT0hdKVtjSF1bY0hdMQ==

>  <s_glide_docking_method>  (1) 
confgen

>  <s_i_glide_gridfile>  (1) 
gpcr_5ht2c_6bqh_protein_autoprepared_prepared

>  <s_lp_Force_Field>  (1) 
S-OPLS

>  <s_lp_Variant>  (1) 
Pocket2Mol_57_num_sample_100-1

>  <s_m_source_file>  (1) 
generated__ligand_Pocket2Mol_2026-05-06_prepared.sdf

>  <GenAI_Model>  (1) 
Pocket2Mol

>  <Protein>  (1) 
GPCR_5HT2C

$$$$
Pocket2Mol_83_num_sample_100
     RDKit          3D

  0  0  0  0  0  0  0  0  0  0999 V3000
M  V30 BEGIN CTAB
M  V30 COUNTS 16 17 0 0 1
M  V30 BEGIN ATOM
M  V30 1 C 39.634888 30.554628 53.453648 0
M  V30 2 C 39.397585 29.445744 52.599287 0
M  V30 3 C 38.809899 30.798587 54.575535 0
M  V30 4 C 37.736135 29.939463 54.867452 0
M  V30 5 C 37.484317 28.836067 54.039950 0
M  V30 6 C 40.021943 28.932704 51.419923 0
M  V30 7 C 39.319549 27.812633 51.053501 0
M  V30 8 C 38.300680 28.602193 52.927831 0
M  V30 9 N 38.282318 27.621430 51.956761 0
M  V30 10 H 40.456415 31.221430 53.241848 0
M  V30 11 H 39.004905 31.649681 55.212193 0
M  V30 12 H 37.106669 30.130234 55.726810 0
M  V30 13 H 36.667403 28.170596 54.255696 0
M  V30 14 H 40.883645 29.353061 50.922840 0
M  V30 15 H 39.467403 27.136178 50.226593 0
M  V30 16 H 37.615806 26.860082 51.884114 0
M  V30 END ATOM
M  V30 BEGIN BOND
M  V30 1 2 2 1
M  V30 2 1 3 1
M  V30 3 2 4 3
M  V30 4 1 5 4
M  V30 5 1 6 2
M  V30 6 2 7 6
M  V30 7 1 8 2
M  V30 8 2 8 5
M  V30 9 1 9 7
M  V30 10 1 9 8
M  V30 11 1 10 1
M  V30 12 1 11 3
M  V30 13 1 12 4
M  V30 14 1 13 5
M  V30 15 1 14 6
M  V30 16 1 15 7
M  V30 17 1 16 9
M  V30 END BOND
M  V30 END CTAB
M  END
>  <i_epik_Tot_Q>  (1) 
0

>  <i_epik_Tot_abs_Q>  (1) 
0

>  <i_i_glide_confnum>  (1) 
1

>  <i_i_glide_lignum>  (1) 
88

>  <i_i_glide_posenum>  (1) 
361

>  <i_i_glide_rotatable_bonds>  (1) 
0

>  <i_lp_mmshare_version>  (1) 
72125

>  <i_m_source_file_index>  (1) 
84

>  <i_f3d_flags>  (1) 
0

>  <num_sample>  (1) 
100

>  <b_lp_Chiralities_Consistent>  (1) 
1

>  <r_epik_Charging_Adjusted_Penalty>  (1) 
0

>  <r_epik_Ionization_Penalty>  (1) 
6.3316205355000374e-10

>  <r_epik_Ionization_Penalty_Charging>  (1) 
0

>  <r_epik_Ionization_Penalty_Neutral>  (1) 
6.3316205355000374e-10

>  <r_epik_State_Penalty>  (1) 
-0

>  <r_glide_ring_energy>  (1) 
0

>  <r_i_docking_score>  (1) 
-6.2266851034231285

>  <r_i_glide_ecoul>  (1) 
-3.1945233592486479

>  <r_i_glide_eff_state_penalty>  (1) 
-0

>  <r_i_glide_einternal>  (1) 
0

>  <r_i_glide_emodel>  (1) 
-31.149250517983234

>  <r_i_glide_emodel_strain>  (1) 
0

>  <r_i_glide_energy>  (1) 
-22.663761364484227

>  <r_i_glide_erotb>  (1) 
0

>  <r_i_glide_esite>  (1) 
0

>  <r_i_glide_evdw>  (1) 
-19.469238005235578

>  <r_i_glide_gscore>  (1) 
-6.2266851034231285

>  <r_i_glide_gscore_strain>  (1) 
0

>  <r_i_glide_hbond>  (1) 
-0.26301865598977775

>  <r_i_glide_ligand_efficiency>  (1) 
-0.69185390038034766

>  <r_i_glide_ligand_efficiency_ln>  (1) 
-1.947528224185902

>  <r_i_glide_ligand_efficiency_sa>  (1) 
-1.4391141060965249

>  <r_i_glide_lipo>  (1) 
-1.9668820882945579

>  <r_i_glide_metal>  (1) 
-0

>  <r_i_glide_rewards>  (1) 
-2.5441439549897171

>  <r_lp_Energy>  (1) 
12.824451

>  <r_lp_tautomer_probability>  (1) 
1

>  <s_epik_cmdline>  (1) 
J2VwaWtfcHl0aG9uJywgJy1waHQnLCAnMS4wJywgJy1waCcsICc3LjQnLCAnLXRuJywgJzgnLCAnLW1hJywgJzUwMCcsICctaW1hZScsICc8aW5maWxlLm1hZT4nLCAnLW9tYWUnLCAnPG91dGZpbGUubWFlPic=

>  <s_epik_input>  (1) 
W2NIXTFbY0hdW2NIXVtjSF1jKGMxMilbbkhdW2NIXVtjSF0y

>  <s_glide_docking_method>  (1) 
confgen

>  <s_i_glide_gridfile>  (1) 
gpcr_5ht2c_6bqh_protein_autoprepared_prepared

>  <s_lp_Force_Field>  (1) 
S-OPLS

>  <s_lp_Variant>  (1) 
Pocket2Mol_83_num_sample_100-1

>  <s_m_source_file>  (1) 
generated__ligand_Pocket2Mol_2026-05-06_prepared.sdf

>  <GenAI_Model>  (1) 
Pocket2Mol

>  <Protein>  (1) 
GPCR_5HT2C

$$$$
Pocket2Mol_79_num_sample_100
     RDKit          3D

  0  0  0  0  0  0  0  0  0  0999 V3000
M  V30 BEGIN CTAB
M  V30 COUNTS 17 18 0 0 1
M  V30 BEGIN ATOM
M  V30 1 C 38.802096 27.856556 51.650757 0
M  V30 2 C 38.667405 28.159661 53.045042 0
M  V30 3 C 38.858082 29.621449 53.580748 0 CFG=2
M  V30 4 C 38.456341 27.248741 53.984767 0
M  V30 5 C 38.578108 27.836546 55.220123 0
M  V30 6 C 39.867403 30.322266 52.681578 0
M  V30 7 C 40.103770 29.918094 51.406793 0
M  V30 8 C 38.855137 29.121178 55.065696 0
M  V30 9 C 39.473105 28.709081 50.854269 0
M  V30 10 H 38.401543 26.936372 51.249127 0
M  V30 11 H 37.921801 30.164425 53.453517 0
M  V30 12 H 38.323409 26.191008 53.809884 0
M  V30 13 H 38.509487 27.321356 56.166902 0
M  V30 14 H 40.349518 31.206503 53.072156 0
M  V30 15 H 40.787718 30.484962 50.791434 0
M  V30 16 H 39.020619 29.806658 55.884061 0
M  V30 17 H 39.600500 28.472275 49.810260 0
M  V30 END ATOM
M  V30 BEGIN BOND
M  V30 1 1 2 1
M  V30 2 1 3 2
M  V30 3 2 4 2
M  V30 4 1 5 4
M  V30 5 1 6 3
M  V30 6 2 7 6
M  V30 7 1 8 3
M  V30 8 2 8 5
M  V30 9 2 9 1
M  V30 10 1 9 7
M  V30 11 1 10 1
M  V30 12 1 3 11 CFG=1
M  V30 13 1 12 4
M  V30 14 1 13 5
M  V30 15 1 14 6
M  V30 16 1 15 7
M  V30 17 1 16 8
M  V30 18 1 17 9
M  V30 END BOND
M  V30 END CTAB
M  END
>  <i_epik_Tot_Q>  (1) 
0

>  <i_epik_Tot_abs_Q>  (1) 
0

>  <i_i_glide_confnum>  (1) 
1

>  <i_i_glide_lignum>  (1) 
84

>  <i_i_glide_posenum>  (1) 
139

>  <i_i_glide_rotatable_bonds>  (1) 
0

>  <i_lp_mmshare_version>  (1) 
72125

>  <i_m_source_file_index>  (1) 
80

>  <i_f3d_flags>  (1) 
0

>  <num_sample>  (1) 
100

>  <b_lp_Chiralities_Consistent>  (1) 
1

>  <r_epik_Charging_Adjusted_Penalty>  (1) 
0

>  <r_epik_Ionization_Penalty>  (1) 
0

>  <r_epik_Ionization_Penalty_Charging>  (1) 
0

>  <r_epik_Ionization_Penalty_Neutral>  (1) 
0

>  <r_epik_State_Penalty>  (1) 
-0

>  <r_glide_ring_energy>  (1) 
0

>  <r_i_docking_score>  (1) 
-6.2252153711736442

>  <r_i_glide_ecoul>  (1) 
-0.87624446399231248

>  <r_i_glide_eff_state_penalty>  (1) 
-0

>  <r_i_glide_einternal>  (1) 
0

>  <r_i_glide_emodel>  (1) 
-28.227416076932354

>  <r_i_glide_emodel_strain>  (1) 
0

>  <r_i_glide_energy>  (1) 
-20.484246755112625

>  <r_i_glide_erotb>  (1) 
0

>  <r_i_glide_esite>  (1) 
0

>  <r_i_glide_evdw>  (1) 
-19.608002291120314

>  <r_i_glide_gscore>  (1) 
-6.2252153711736442

>  <r_i_glide_gscore_strain>  (1) 
0

>  <r_i_glide_hbond>  (1) 
0

>  <r_i_glide_ligand_efficiency>  (1) 
-0.69169059679707157

>  <r_i_glide_ligand_efficiency_ln>  (1) 
-1.9470685341597767

>  <r_i_glide_ligand_efficiency_sa>  (1) 
-1.438774420954706

>  <r_i_glide_lipo>  (1) 
-2.5191545364455337

>  <r_i_glide_metal>  (1) 
-0

>  <r_i_glide_rewards>  (1) 
-2.5942240505732479

>  <r_lp_Energy>  (1) 
11.987261999999999

>  <r_lp_tautomer_probability>  (1) 
1

>  <s_epik_cmdline>  (1) 
J2VwaWtfcHl0aG9uJywgJy1waHQnLCAnMS4wJywgJy1waCcsICc3LjQnLCAnLXRuJywgJzgnLCAnLW1hJywgJzUwMCcsICctaW1hZScsICc8aW5maWxlLm1hZT4nLCAnLW9tYWUnLCAnPG91dGZpbGUubWFlPic=

>  <s_epik_input>  (1) 
W0NIXTE9W0NIXVtDSF09W0NIXVtDQEBIXShDMT0yKVtDSF09W0NIXVtDSF0y

>  <s_glide_docking_method>  (1) 
confgen

>  <s_i_glide_gridfile>  (1) 
gpcr_5ht2c_6bqh_protein_autoprepared_prepared

>  <s_lp_Force_Field>  (1) 
S-OPLS

>  <s_lp_Variant>  (1) 
Pocket2Mol_79_num_sample_100-1

>  <s_m_source_file>  (1) 
generated__ligand_Pocket2Mol_2026-05-06_prepared.sdf

>  <GenAI_Model>  (1) 
Pocket2Mol

>  <Protein>  (1) 
GPCR_5HT2C

$$$$
Pocket2Mol_86_num_sample_100
     RDKit          3D

  0  0  0  0  0  0  0  0  0  0999 V3000
M  V30 BEGIN CTAB
M  V30 COUNTS 17 17 0 0 1
M  V30 BEGIN ATOM
M  V30 1 C 39.467403 29.925712 52.915515 0
M  V30 2 C 39.870919 29.741133 51.575099 0
M  V30 3 C 38.661003 28.959641 53.545196 0
M  V30 4 O 38.264673 29.137405 54.836122 0
M  V30 5 C 38.258274 27.810012 52.840601 0
M  V30 6 C 40.723918 30.783951 50.889427 0
M  V30 7 O 37.467945 26.878464 53.453177 0
M  V30 8 C 39.473400 28.587248 50.873427 0
M  V30 9 C 38.667489 27.622920 51.504339 0
M  V30 10 H 39.771183 30.810512 53.457082 0
M  V30 11 H 37.716059 28.413992 55.103708 0
M  V30 12 H 40.897239 31.621423 51.561104 0
M  V30 13 H 41.685856 30.369334 50.586410 0
M  V30 14 H 40.220530 31.168853 50.001011 0
M  V30 15 H 37.074574 26.282772 52.828068 0
M  V30 16 H 39.782071 28.444996 49.849100 0
M  V30 17 H 38.359286 26.743482 50.961681 0
M  V30 END ATOM
M  V30 BEGIN BOND
M  V30 1 2 2 1
M  V30 2 1 3 1
M  V30 3 1 4 3
M  V30 4 2 5 3
M  V30 5 1 6 2
M  V30 6 1 7 5
M  V30 7 1 8 2
M  V30 8 1 9 5
M  V30 9 2 9 8
M  V30 10 1 10 1
M  V30 11 1 11 4
M  V30 12 1 12 6
M  V30 13 1 13 6
M  V30 14 1 14 6
M  V30 15 1 15 7
M  V30 16 1 16 8
M  V30 17 1 17 9
M  V30 END BOND
M  V30 END CTAB
M  END
>  <i_epik_Tot_Q>  (1) 
0

>  <i_epik_Tot_abs_Q>  (1) 
0

>  <i_i_glide_confnum>  (1) 
1

>  <i_i_glide_lignum>  (1) 
91

>  <i_i_glide_posenum>  (1) 
7

>  <i_i_glide_rotatable_bonds>  (1) 
2

>  <i_lp_mmshare_version>  (1) 
72125

>  <i_m_source_file_index>  (1) 
87

>  <i_f3d_flags>  (1) 
0

>  <num_sample>  (1) 
100

>  <b_lp_Chiralities_Consistent>  (1) 
1

>  <r_epik_Charging_Adjusted_Penalty>  (1) 
0

>  <r_epik_Ionization_Penalty>  (1) 
0.0034619861512114073

>  <r_epik_Ionization_Penalty_Charging>  (1) 
0

>  <r_epik_Ionization_Penalty_Neutral>  (1) 
0.0034619861512114073

>  <r_epik_State_Penalty>  (1) 
-0

>  <r_glide_ring_energy>  (1) 
0

>  <r_i_docking_score>  (1) 
-6.2167127033141849

>  <r_i_glide_ecoul>  (1) 
-2.9247844249283181

>  <r_i_glide_eff_state_penalty>  (1) 
-0

>  <r_i_glide_einternal>  (1) 
0.20832170418329521

>  <r_i_glide_emodel>  (1) 
-32.392121263174964

>  <r_i_glide_emodel_strain>  (1) 
0.017463317663755085

>  <r_i_glide_energy>  (1) 
-22.255251255369942

>  <r_i_glide_erotb>  (1) 
0

>  <r_i_glide_esite>  (1) 
0

>  <r_i_glide_evdw>  (1) 
-19.330466830441623

>  <r_i_glide_gscore>  (1) 
-6.2167127033141849

>  <r_i_glide_gscore_strain>  (1) 
0

>  <r_i_glide_hbond>  (1) 
-0.20981311831025268

>  <r_i_glide_ligand_efficiency>  (1) 
-0.69074585592379834

>  <r_i_glide_ligand_efficiency_ln>  (1) 
-1.9444091439124567

>  <r_i_glide_ligand_efficiency_sa>  (1) 
-1.4368092807472344

>  <r_i_glide_lipo>  (1) 
-2.1437841262751567

>  <r_i_glide_metal>  (1) 
-0

>  <r_i_glide_rewards>  (1) 
-2.4578744534674466

>  <r_lp_Energy>  (1) 
6.77806

>  <r_lp_tautomer_probability>  (1) 
1

>  <s_epik_cmdline>  (1) 
J2VwaWtfcHl0aG9uJywgJy1waHQnLCAnMS4wJywgJy1waCcsICc3LjQnLCAnLXRuJywgJzgnLCAnLW1hJywgJzUwMCcsICctaW1hZScsICc8aW5maWxlLm1hZT4nLCAnLW9tYWUnLCAnPG91dGZpbGUubWFlPic=

>  <s_epik_input>  (1) 
W0NIM11jMVtjSF1jKFtPSF0pYyhbT0hdKVtjSF1bY0hdMQ==

>  <s_glide_docking_method>  (1) 
confgen

>  <s_i_glide_gridfile>  (1) 
gpcr_5ht2c_6bqh_protein_autoprepared_prepared

>  <s_lp_Force_Field>  (1) 
S-OPLS

>  <s_lp_Variant>  (1) 
Pocket2Mol_86_num_sample_100-1

>  <s_m_source_file>  (1) 
generated__ligand_Pocket2Mol_2026-05-06_prepared.sdf

>  <GenAI_Model>  (1) 
Pocket2Mol

>  <Protein>  (1) 
GPCR_5HT2C

$$$$
Pocket2Mol_71_num_sample_100
     RDKit          3D

  0  0  0  0  0  0  0  0  0  0999 V3000
M  V30 BEGIN CTAB
M  V30 COUNTS 17 17 0 0 1
M  V30 BEGIN ATOM
M  V30 1 C 40.016732 30.421430 52.167461 0
M  V30 2 C 39.457222 30.307014 53.453661 0
M  V30 3 C 38.599300 29.230365 53.757148 0
M  V30 4 C 37.988340 29.118515 55.142083 0
M  V30 5 C 38.305538 28.263566 52.767380 0
M  V30 6 O 37.468694 27.221810 53.053230 0
M  V30 7 C 39.727280 29.459673 51.182190 0
M  V30 8 O 40.267404 29.579422 49.935957 0
M  V30 9 C 38.874347 28.378581 51.481337 0
M  V30 10 H 40.668439 31.250863 51.937348 0
M  V30 11 H 39.681500 31.048965 54.206382 0
M  V30 12 H 37.943509 28.081706 55.475999 0
M  V30 13 H 38.571567 29.678607 55.873344 0
M  V30 14 H 36.977691 29.527170 55.133467 0
M  V30 15 H 37.156905 26.750830 52.288554 0
M  V30 16 H 40.766414 30.375140 49.829917 0
M  V30 17 H 38.652003 27.642148 50.722869 0
M  V30 END ATOM
M  V30 BEGIN BOND
M  V30 1 2 2 1
M  V30 2 1 3 2
M  V30 3 1 4 3
M  V30 4 2 5 3
M  V30 5 1 6 5
M  V30 6 1 7 1
M  V30 7 1 8 7
M  V30 8 1 9 5
M  V30 9 2 9 7
M  V30 10 1 10 1
M  V30 11 1 11 2
M  V30 12 1 12 4
M  V30 13 1 13 4
M  V30 14 1 14 4
M  V30 15 1 15 6
M  V30 16 1 16 8
M  V30 17 1 17 9
M  V30 END BOND
M  V30 END CTAB
M  END
>  <i_epik_Tot_Q>  (1) 
0

>  <i_epik_Tot_abs_Q>  (1) 
0

>  <i_i_glide_confnum>  (1) 
1

>  <i_i_glide_lignum>  (1) 
76

>  <i_i_glide_posenum>  (1) 
55

>  <i_i_glide_rotatable_bonds>  (1) 
2

>  <i_lp_mmshare_version>  (1) 
72125

>  <i_m_source_file_index>  (1) 
72

>  <i_f3d_flags>  (1) 
0

>  <num_sample>  (1) 
100

>  <b_lp_Chiralities_Consistent>  (1) 
1

>  <r_epik_Charging_Adjusted_Penalty>  (1) 
0.00325898940304725

>  <r_epik_Ionization_Penalty>  (1) 
0.005516606254364515

>  <r_epik_Ionization_Penalty_Charging>  (1) 
0

>  <r_epik_Ionization_Penalty_Neutral>  (1) 
0.005516606254364515

>  <r_epik_State_Penalty>  (1) 
0.00325898940304725

>  <r_glide_ring_energy>  (1) 
0

>  <r_i_docking_score>  (1) 
-6.1889904803885765

>  <r_i_glide_ecoul>  (1) 
-4.2785688550744476

>  <r_i_glide_eff_state_penalty>  (1) 
0.00325898940304725

>  <r_i_glide_einternal>  (1) 
0.29739297707275253

>  <r_i_glide_emodel>  (1) 
-31.480555216084849

>  <r_i_glide_emodel_strain>  (1) 
0.039075186387180771

>  <r_i_glide_energy>  (1) 
-22.542314616542981

>  <r_i_glide_erotb>  (1) 
0

>  <r_i_glide_esite>  (1) 
0

>  <r_i_glide_evdw>  (1) 
-18.263745761468535

>  <r_i_glide_gscore>  (1) 
-6.1922494697916237

>  <r_i_glide_gscore_strain>  (1) 
0

>  <r_i_glide_hbond>  (1) 
-0.32000000000000001

>  <r_i_glide_ligand_efficiency>  (1) 
-0.68766560893206408

>  <r_i_glide_ligand_efficiency_ln>  (1) 
-1.9357384289673385

>  <r_i_glide_ligand_efficiency_sa>  (1) 
-1.4304021088087235

>  <r_i_glide_lipo>  (1) 
-1.9229520779282414

>  <r_i_glide_metal>  (1) 
-0

>  <r_i_glide_rewards>  (1) 
-2.3943247755287889

>  <r_lp_Energy>  (1) 
3.8278699999999999

>  <r_lp_tautomer_probability>  (1) 
0.99999999989799981

>  <s_epik_cmdline>  (1) 
J2VwaWtfcHl0aG9uJywgJy1waHQnLCAnMS4wJywgJy1waCcsICc3LjQnLCAnLXRuJywgJzgnLCAnLW1hJywgJzUwMCcsICctaW1hZScsICc8aW5maWxlLm1hZT4nLCAnLW9tYWUnLCAnPG91dGZpbGUubWFlPic=

>  <s_epik_input>  (1) 
W0NIM11jMVtjSF1bY0hdYyhbT0hdKVtjSF1jMVtPSF0=

>  <s_glide_docking_method>  (1) 
confgen

>  <s_i_glide_gridfile>  (1) 
gpcr_5ht2c_6bqh_protein_autoprepared_prepared

>  <s_lp_Force_Field>  (1) 
S-OPLS

>  <s_lp_Variant>  (1) 
Pocket2Mol_71_num_sample_100-1

>  <s_m_source_file>  (1) 
generated__ligand_Pocket2Mol_2026-05-06_prepared.sdf

>  <GenAI_Model>  (1) 
Pocket2Mol

>  <Protein>  (1) 
GPCR_5HT2C

$$$$
Pocket2Mol_68_num_sample_100
     RDKit          3D

  0  0  0  0  0  0  0  0  0  0999 V3000
M  V30 BEGIN CTAB
M  V30 COUNTS 19 20 0 0 1
M  V30 BEGIN ATOM
M  V30 1 C 39.551944 28.413377 50.742318 0
M  V30 2 C 39.166629 28.677884 52.149341 0
M  V30 3 C 38.528202 27.726657 52.963271 0
M  V30 4 C 38.196234 28.073464 54.292687 0
M  V30 5 C 38.511011 29.366981 54.780188 0
M  V30 6 C 39.467465 29.915724 52.615506 0
M  V30 7 C 40.125182 30.821450 51.643939 0
M  V30 8 C 40.267459 29.802315 50.434248 0
M  V30 9 C 39.153370 30.297218 53.931751 0
M  V30 10 H 40.226009 27.563256 50.650952 0
M  V30 11 H 38.668506 28.259299 50.126006 0
M  V30 12 H 38.292387 26.746274 52.578224 0
M  V30 13 H 37.703969 27.356856 54.933744 0
M  V30 14 H 38.258948 29.641388 55.794373 0
M  V30 15 H 39.467577 31.650990 51.390385 0
M  V30 16 H 41.067279 31.211990 52.008073 0
M  V30 17 H 41.329235 29.621465 50.276579 0
M  V30 18 H 39.893241 30.238233 49.507290 0
M  V30 19 H 39.395573 31.288011 54.288511 0
M  V30 END ATOM
M  V30 BEGIN BOND
M  V30 1 1 2 1
M  V30 2 2 3 2
M  V30 3 1 4 3
M  V30 4 2 5 4
M  V30 5 1 6 2
M  V30 6 1 7 6
M  V30 7 1 8 1
M  V30 8 1 8 7
M  V30 9 1 9 5
M  V30 10 2 9 6
M  V30 11 1 10 1
M  V30 12 1 11 1
M  V30 13 1 12 3
M  V30 14 1 13 4
M  V30 15 1 14 5
M  V30 16 1 15 7
M  V30 17 1 16 7
M  V30 18 1 17 8
M  V30 19 1 18 8
M  V30 20 1 19 9
M  V30 END BOND
M  V30 END CTAB
M  END
>  <i_epik_Tot_Q>  (1) 
0

>  <i_epik_Tot_abs_Q>  (1) 
0

>  <i_i_glide_confnum>  (1) 
1

>  <i_i_glide_lignum>  (1) 
73

>  <i_i_glide_posenum>  (1) 
105

>  <i_i_glide_rotatable_bonds>  (1) 
0

>  <i_lp_mmshare_version>  (1) 
72125

>  <i_m_source_file_index>  (1) 
69

>  <i_f3d_flags>  (1) 
0

>  <num_sample>  (1) 
100

>  <b_lp_Chiralities_Consistent>  (1) 
1

>  <r_epik_Charging_Adjusted_Penalty>  (1) 
0

>  <r_epik_Ionization_Penalty>  (1) 
0

>  <r_epik_Ionization_Penalty_Charging>  (1) 
0

>  <r_epik_Ionization_Penalty_Neutral>  (1) 
0

>  <r_epik_State_Penalty>  (1) 
-0

>  <r_glide_ring_energy>  (1) 
0

>  <r_i_docking_score>  (1) 
-6.1879825480330117

>  <r_i_glide_ecoul>  (1) 
-1.0148454754158427

>  <r_i_glide_eff_state_penalty>  (1) 
-0

>  <r_i_glide_einternal>  (1) 
0

>  <r_i_glide_emodel>  (1) 
-27.582590465822914

>  <r_i_glide_emodel_strain>  (1) 
0

>  <r_i_glide_energy>  (1) 
-19.434945568012814

>  <r_i_glide_erotb>  (1) 
0

>  <r_i_glide_esite>  (1) 
0

>  <r_i_glide_evdw>  (1) 
-18.420100092596972

>  <r_i_glide_gscore>  (1) 
-6.1879825480330117

>  <r_i_glide_gscore_strain>  (1) 
0

>  <r_i_glide_hbond>  (1) 
0

>  <r_i_glide_ligand_efficiency>  (1) 
-0.68755361644811241

>  <r_i_glide_ligand_efficiency_ln>  (1) 
-1.9354231766817438

>  <r_i_glide_ligand_efficiency_sa>  (1) 
-1.4301691550545523

>  <r_i_glide_lipo>  (1) 
-2.5411581374670509

>  <r_i_glide_metal>  (1) 
-0

>  <r_i_glide_rewards>  (1) 
-2.5735925846237362

>  <r_lp_Energy>  (1) 
13.687139

>  <r_lp_tautomer_probability>  (1) 
1

>  <s_epik_cmdline>  (1) 
J2VwaWtfcHl0aG9uJywgJy1waHQnLCAnMS4wJywgJy1waCcsICc3LjQnLCAnLXRuJywgJzgnLCAnLW1hJywgJzUwMCcsICctaW1hZScsICc8aW5maWxlLm1hZT4nLCAnLW9tYWUnLCAnPG91dGZpbGUubWFlPic=

>  <s_epik_input>  (1) 
W0NIMl0xW0NIMl1bQ0gyXWMoYzEyKVtjSF1bY0hdW2NIXVtjSF0y

>  <s_glide_docking_method>  (1) 
confgen

>  <s_i_glide_gridfile>  (1) 
gpcr_5ht2c_6bqh_protein_autoprepared_prepared

>  <s_lp_Force_Field>  (1) 
S-OPLS

>  <s_lp_Variant>  (1) 
Pocket2Mol_68_num_sample_100-1

>  <s_m_source_file>  (1) 
generated__ligand_Pocket2Mol_2026-05-06_prepared.sdf

>  <GenAI_Model>  (1) 
Pocket2Mol

>  <Protein>  (1) 
GPCR_5HT2C

$$$$
Pocket2Mol_96_num_sample_100
     RDKit          3D

  0  0  0  0  0  0  0  0  0  0999 V3000
M  V30 BEGIN CTAB
M  V30 COUNTS 18 19 0 0 1
M  V30 BEGIN ATOM
M  V30 1 C 39.413904 30.965879 54.546116 0
M  V30 2 C 38.449953 29.932133 54.664229 0
M  V30 3 C 40.022917 30.821475 53.329251 0
M  V30 4 C 38.517300 29.188366 53.523145 0
M  V30 5 N 39.469925 29.734324 52.699222 0
M  V30 6 C 37.774081 28.005651 53.083828 0
M  V30 7 O 36.792722 27.621430 53.701063 0
M  V30 8 C 39.807607 29.254779 51.380717 0
M  V30 9 N 38.236609 27.382105 51.980627 0
M  V30 10 C 39.467727 27.766155 51.292354 0
M  V30 11 H 39.634826 31.738738 55.268204 0
M  V30 12 H 37.784048 29.749113 55.495446 0
M  V30 13 H 40.794028 31.398540 52.848257 0
M  V30 14 H 39.225485 29.820350 50.652735 0
M  V30 15 H 40.863480 29.433292 51.176717 0
M  V30 16 H 37.730188 26.576378 51.631715 0
M  V30 17 H 39.437987 27.428753 50.256341 0
M  V30 18 H 40.266613 27.221855 51.790287 0
M  V30 END ATOM
M  V30 BEGIN BOND
M  V30 1 1 2 1
M  V30 2 2 3 1
M  V30 3 2 4 2
M  V30 4 1 5 3
M  V30 5 1 5 4
M  V30 6 1 6 4
M  V30 7 2 7 6
M  V30 8 1 8 5
M  V30 9 1 9 6
M  V30 10 1 10 8
M  V30 11 1 10 9
M  V30 12 1 11 1
M  V30 13 1 12 2
M  V30 14 1 13 3
M  V30 15 1 14 8
M  V30 16 1 15 8
M  V30 17 1 16 9
M  V30 18 1 17 10
M  V30 19 1 18 10
M  V30 END BOND
M  V30 END CTAB
M  END
>  <i_epik_Tot_Q>  (1) 
0

>  <i_epik_Tot_abs_Q>  (1) 
0

>  <i_i_glide_confnum>  (1) 
1

>  <i_i_glide_lignum>  (1) 
101

>  <i_i_glide_posenum>  (1) 
344

>  <i_i_glide_rotatable_bonds>  (1) 
0

>  <i_lp_mmshare_version>  (1) 
72125

>  <i_m_source_file_index>  (1) 
97

>  <i_f3d_flags>  (1) 
0

>  <num_sample>  (1) 
100

>  <b_lp_Chiralities_Consistent>  (1) 
1

>  <r_epik_Charging_Adjusted_Penalty>  (1) 
0

>  <r_epik_Ionization_Penalty>  (1) 
5.1203149696400337e-08

>  <r_epik_Ionization_Penalty_Charging>  (1) 
0

>  <r_epik_Ionization_Penalty_Neutral>  (1) 
5.1203149696400337e-08

>  <r_epik_State_Penalty>  (1) 
-0

>  <r_glide_ring_energy>  (1) 
0

>  <r_i_docking_score>  (1) 
-6.1642769661000383

>  <r_i_glide_ecoul>  (1) 
-2.7675194307346653

>  <r_i_glide_eff_state_penalty>  (1) 
-0

>  <r_i_glide_einternal>  (1) 
0

>  <r_i_glide_emodel>  (1) 
-30.026740642676124

>  <r_i_glide_emodel_strain>  (1) 
0

>  <r_i_glide_energy>  (1) 
-20.460658284890229

>  <r_i_glide_erotb>  (1) 
0

>  <r_i_glide_esite>  (1) 
0

>  <r_i_glide_evdw>  (1) 
-17.693138854155563

>  <r_i_glide_gscore>  (1) 
-6.1642769661000383

>  <r_i_glide_gscore_strain>  (1) 
0

>  <r_i_glide_hbond>  (1) 
-0.22000279280927551

>  <r_i_glide_ligand_efficiency>  (1) 
-0.61642769661000385

>  <r_i_glide_ligand_efficiency_ln>  (1) 
-1.8665005722870414

>  <r_i_glide_ligand_efficiency_sa>  (1) 
-1.3280532134730418

>  <r_i_glide_lipo>  (1) 
-1.6558516113735597

>  <r_i_glide_metal>  (1) 
-0

>  <r_i_glide_rewards>  (1) 
-2.988637704599225

>  <r_lp_Energy>  (1) 
15.907292999999999

>  <r_lp_tautomer_probability>  (1) 
1

>  <s_epik_cmdline>  (1) 
J2VwaWtfcHl0aG9uJywgJy1waHQnLCAnMS4wJywgJy1waCcsICc3LjQnLCAnLXRuJywgJzgnLCAnLW1hJywgJzUwMCcsICctaW1hZScsICc8aW5maWxlLm1hZT4nLCAnLW9tYWUnLCAnPG91dGZpbGUubWFlPic=

>  <s_epik_input>  (1) 
W2NIXTFbY0hdW2NIXW4oYzEyKVtDSDJdW0NIMl1bTkhdQzI9Tw==

>  <s_glide_docking_method>  (1) 
confgen

>  <s_i_glide_gridfile>  (1) 
gpcr_5ht2c_6bqh_protein_autoprepared_prepared

>  <s_lp_Force_Field>  (1) 
S-OPLS

>  <s_lp_Variant>  (1) 
Pocket2Mol_96_num_sample_100-1

>  <s_m_source_file>  (1) 
generated__ligand_Pocket2Mol_2026-05-06_prepared.sdf

>  <GenAI_Model>  (1) 
Pocket2Mol

>  <Protein>  (1) 
GPCR_5HT2C

$$$$
Pocket2Mol_74_num_sample_100
     RDKit          3D

  0  0  0  0  0  0  0  0  0  0999 V3000
M  V30 BEGIN CTAB
M  V30 COUNTS 16 17 0 0 1
M  V30 BEGIN ATOM
M  V30 1 C 39.867414 30.421425 52.339047 0
M  V30 2 C 39.093483 29.401638 53.008282 0
M  V30 3 C 38.745505 28.243730 52.377686 0
M  V30 4 C 38.630462 29.373517 54.186990 0
M  V30 5 C 39.145032 28.012361 50.987016 0
M  V30 6 N 38.061752 27.414465 53.096136 0
M  V30 7 C 37.867331 28.109317 54.485702 0
M  V30 8 C 40.245733 30.221919 51.053501 0
M  V30 9 C 39.867428 28.975598 50.353402 0
M  V30 10 H 40.139495 31.330186 52.855053 0
M  V30 11 H 38.749094 30.158302 54.920331 0
M  V30 12 H 38.845608 27.084383 50.521061 0
M  V30 13 H 38.297168 27.536204 55.307907 0
M  V30 14 H 36.815748 28.327654 54.653495 0
M  V30 15 H 40.824008 30.975921 50.538422 0
M  V30 16 H 40.170219 28.827937 49.328838 0
M  V30 END ATOM
M  V30 BEGIN BOND
M  V30 1 1 2 1
M  V30 2 1 3 2
M  V30 3 2 4 2
M  V30 4 1 5 3
M  V30 5 2 6 3
M  V30 6 1 7 4
M  V30 7 1 7 6
M  V30 8 2 8 1
M  V30 9 2 9 5
M  V30 10 1 9 8
M  V30 11 1 10 1
M  V30 12 1 11 4
M  V30 13 1 12 5
M  V30 14 1 13 7
M  V30 15 1 14 7
M  V30 16 1 15 8
M  V30 17 1 16 9
M  V30 END BOND
M  V30 END CTAB
M  END
>  <i_epik_Tot_Q>  (1) 
0

>  <i_epik_Tot_abs_Q>  (1) 
0

>  <i_i_glide_confnum>  (1) 
1

>  <i_i_glide_lignum>  (1) 
79

>  <i_i_glide_posenum>  (1) 
189

>  <i_i_glide_rotatable_bonds>  (1) 
0

>  <i_lp_mmshare_version>  (1) 
72125

>  <i_m_source_file_index>  (1) 
75

>  <i_f3d_flags>  (1) 
0

>  <num_sample>  (1) 
100

>  <b_lp_Chiralities_Consistent>  (1) 
1

>  <r_epik_Charging_Adjusted_Penalty>  (1) 
0

>  <r_epik_Ionization_Penalty>  (1) 
0

>  <r_epik_Ionization_Penalty_Charging>  (1) 
0

>  <r_epik_Ionization_Penalty_Neutral>  (1) 
0

>  <r_epik_State_Penalty>  (1) 
-0

>  <r_glide_ring_energy>  (1) 
0

>  <r_i_docking_score>  (1) 
-6.1631456292374134

>  <r_i_glide_ecoul>  (1) 
-0.0060108613677930522

>  <r_i_glide_eff_state_penalty>  (1) 
-0

>  <r_i_glide_einternal>  (1) 
0

>  <r_i_glide_emodel>  (1) 
-29.198964455990374

>  <r_i_glide_emodel_strain>  (1) 
0

>  <r_i_glide_energy>  (1) 
-20.847851812822512

>  <r_i_glide_erotb>  (1) 
0

>  <r_i_glide_esite>  (1) 
0

>  <r_i_glide_evdw>  (1) 
-20.841840951454717

>  <r_i_glide_gscore>  (1) 
-6.1631456292374134

>  <r_i_glide_gscore_strain>  (1) 
0

>  <r_i_glide_hbond>  (1) 
0

>  <r_i_glide_ligand_efficiency>  (1) 
-0.68479395880415705

>  <r_i_glide_ligand_efficiency_ln>  (1) 
-1.92765490198135

>  <r_i_glide_ligand_efficiency_sa>  (1) 
-1.4244288358321993

>  <r_i_glide_lipo>  (1) 
-2.3534479877497567

>  <r_i_glide_metal>  (1) 
-0

>  <r_i_glide_rewards>  (1) 
-2.7667039647097513

>  <r_lp_Energy>  (1) 
8.0132250000000003

>  <r_lp_tautomer_probability>  (1) 
1

>  <s_epik_Chemistry_Notes>  (1) 
This compound has an imine and may undergo hydrolysis.

>  <s_epik_cmdline>  (1) 
J2VwaWtfcHl0aG9uJywgJy1waHQnLCAnMS4wJywgJy1waCcsICc3LjQnLCAnLXRuJywgJzgnLCAnLW1hJywgJzUwMCcsICctaW1hZScsICc8aW5maWxlLm1hZT4nLCAnLW9tYWUnLCAnPG91dGZpbGUubWFlPic=

>  <s_epik_input>  (1) 
W2NIXTFbY0hdW2NIXVtjSF1jKGMxPTIpPU5bQ0gyXVtDSF0y

>  <s_glide_docking_method>  (1) 
confgen

>  <s_i_glide_gridfile>  (1) 
gpcr_5ht2c_6bqh_protein_autoprepared_prepared

>  <s_lp_Force_Field>  (1) 
S-OPLS

>  <s_lp_Variant>  (1) 
Pocket2Mol_74_num_sample_100-1

>  <s_m_source_file>  (1) 
generated__ligand_Pocket2Mol_2026-05-06_prepared.sdf

>  <GenAI_Model>  (1) 
Pocket2Mol

>  <Protein>  (1) 
GPCR_5HT2C

$$$$
Pocket2Mol_93_num_sample_100
     RDKit          3D

  0  0  0  0  0  0  0  0  0  0999 V3000
M  V30 BEGIN CTAB
M  V30 COUNTS 17 18 0 0 1
M  V30 BEGIN ATOM
M  V30 1 C 39.991993 29.892325 51.782447 0
M  V30 2 C 39.329688 29.756809 53.019440 0
M  V30 3 C 38.514841 28.616617 53.290955 0
M  V30 4 C 39.463089 30.753147 54.001453 0
M  V30 5 C 38.399826 27.629721 52.286791 0
M  V30 6 N 37.867434 28.480636 54.476003 0
M  V30 7 C 38.785168 30.598726 55.215576 0
M  V30 8 C 39.859766 28.898835 50.802410 0
M  V30 9 C 38.000415 29.452628 55.406165 0
M  V30 10 C 39.067405 27.768474 51.053601 0
M  V30 11 H 40.602150 30.763517 51.587427 0
M  V30 12 H 40.073691 31.621420 53.821630 0
M  V30 13 H 37.789055 26.759361 52.467002 0
M  V30 14 H 38.861066 31.348400 55.989846 0
M  V30 15 H 40.364661 29.004811 49.854144 0
M  V30 16 H 37.464202 29.306685 56.332266 0
M  V30 17 H 38.966788 27.002507 50.297396 0
M  V30 END ATOM
M  V30 BEGIN BOND
M  V30 1 2 2 1
M  V30 2 1 3 2
M  V30 3 1 4 2
M  V30 4 2 5 3
M  V30 5 1 6 3
M  V30 6 2 7 4
M  V30 7 1 8 1
M  V30 8 2 9 6
M  V30 9 1 9 7
M  V30 10 1 10 5
M  V30 11 2 10 8
M  V30 12 1 11 1
M  V30 13 1 12 4
M  V30 14 1 13 5
M  V30 15 1 14 7
M  V30 16 1 15 8
M  V30 17 1 16 9
M  V30 18 1 17 10
M  V30 END BOND
M  V30 END CTAB
M  END
>  <i_epik_Tot_Q>  (1) 
0

>  <i_epik_Tot_abs_Q>  (1) 
0

>  <i_i_glide_confnum>  (1) 
1

>  <i_i_glide_lignum>  (1) 
98

>  <i_i_glide_posenum>  (1) 
351

>  <i_i_glide_rotatable_bonds>  (1) 
0

>  <i_lp_mmshare_version>  (1) 
72125

>  <i_m_source_file_index>  (1) 
94

>  <i_f3d_flags>  (1) 
0

>  <num_sample>  (1) 
100

>  <b_lp_Chiralities_Consistent>  (1) 
1

>  <r_epik_Charging_Adjusted_Penalty>  (1) 
0

>  <r_epik_Ionization_Penalty>  (1) 
0.0026406434276513078

>  <r_epik_Ionization_Penalty_Charging>  (1) 
0

>  <r_epik_Ionization_Penalty_Neutral>  (1) 
0.0026406434276513078

>  <r_epik_State_Penalty>  (1) 
-0

>  <r_glide_ring_energy>  (1) 
0

>  <r_i_docking_score>  (1) 
-6.1628272171406824

>  <r_i_glide_ecoul>  (1) 
-1.4879065359742678

>  <r_i_glide_eff_state_penalty>  (1) 
-0

>  <r_i_glide_einternal>  (1) 
0

>  <r_i_glide_emodel>  (1) 
-31.052317253653943

>  <r_i_glide_emodel_strain>  (1) 
0

>  <r_i_glide_energy>  (1) 
-22.582080857360847

>  <r_i_glide_erotb>  (1) 
0

>  <r_i_glide_esite>  (1) 
0

>  <r_i_glide_evdw>  (1) 
-21.094174321386578

>  <r_i_glide_gscore>  (1) 
-6.1628272171406824

>  <r_i_glide_gscore_strain>  (1) 
0

>  <r_i_glide_hbond>  (1) 
0

>  <r_i_glide_ligand_efficiency>  (1) 
-0.61628272171406828

>  <r_i_glide_ligand_efficiency_ln>  (1) 
-1.8660615982958999

>  <r_i_glide_ligand_efficiency_sa>  (1) 
-1.3277408745280543

>  <r_i_glide_lipo>  (1) 
-2.2128864359745775

>  <r_i_glide_metal>  (1) 
-0

>  <r_i_glide_rewards>  (1) 
-2.6720460847006358

>  <r_lp_Energy>  (1) 
20.260538

>  <r_lp_tautomer_probability>  (1) 
1

>  <s_epik_cmdline>  (1) 
J2VwaWtfcHl0aG9uJywgJy1waHQnLCAnMS4wJywgJy1waCcsICc3LjQnLCAnLXRuJywgJzgnLCAnLW1hJywgJzUwMCcsICctaW1hZScsICc8aW5maWxlLm1hZT4nLCAnLW9tYWUnLCAnPG91dGZpbGUubWFlPic=

>  <s_epik_input>  (1) 
W2NIXTFbY0hdW2NIXVtjSF1jKGMxMiluW2NIXVtjSF1bY0hdMg==

>  <s_glide_docking_method>  (1) 
confgen

>  <s_i_glide_gridfile>  (1) 
gpcr_5ht2c_6bqh_protein_autoprepared_prepared

>  <s_lp_Force_Field>  (1) 
S-OPLS

>  <s_lp_Variant>  (1) 
Pocket2Mol_93_num_sample_100-1

>  <s_m_source_file>  (1) 
generated__ligand_Pocket2Mol_2026-05-06_prepared.sdf

>  <GenAI_Model>  (1) 
Pocket2Mol

>  <Protein>  (1) 
GPCR_5HT2C

$$$$
Pocket2Mol_82_num_sample_100
     RDKit          3D

  0  0  0  0  0  0  0  0  0  0999 V3000
M  V30 BEGIN CTAB
M  V30 COUNTS 16 16 0 0 1
M  V30 BEGIN ATOM
M  V30 1 C 38.058015 28.059575 53.824951 0
M  V30 2 C 38.855899 28.762463 52.752072 0
M  V30 3 C 39.001047 28.187681 51.463559 0
M  V30 4 C 39.467402 30.006281 53.031863 0
M  V30 5 C 40.207691 30.669602 52.034576 0
M  V30 6 C 39.747038 28.856854 50.475242 0
M  V30 7 C 40.346755 30.096129 50.758979 0
M  V30 8 O 37.969710 28.523504 54.958099 0
M  V30 9 N 37.467404 26.922599 53.453556 0
M  V30 10 H 38.542426 27.238681 51.230900 0
M  V30 11 H 39.363952 30.453397 54.010513 0
M  V30 12 H 40.667404 31.621350 52.249856 0
M  V30 13 H 39.853806 28.421496 49.495936 0
M  V30 14 H 40.914741 30.608869 49.996123 0
M  V30 15 H 37.557385 26.590413 52.504427 0
M  V30 16 H 36.920654 26.402348 54.122001 0
M  V30 END ATOM
M  V30 BEGIN BOND
M  V30 1 1 2 1
M  V30 2 1 3 2
M  V30 3 2 4 2
M  V30 4 1 5 4
M  V30 5 2 6 3
M  V30 6 2 7 5
M  V30 7 1 7 6
M  V30 8 2 8 1
M  V30 9 1 9 1
M  V30 10 1 10 3
M  V30 11 1 11 4
M  V30 12 1 12 5
M  V30 13 1 13 6
M  V30 14 1 14 7
M  V30 15 1 15 9
M  V30 16 1 16 9
M  V30 END BOND
M  V30 END CTAB
M  END
>  <i_epik_Tot_Q>  (1) 
0

>  <i_epik_Tot_abs_Q>  (1) 
0

>  <i_i_glide_confnum>  (1) 
1

>  <i_i_glide_lignum>  (1) 
87

>  <i_i_glide_posenum>  (1) 
124

>  <i_i_glide_rotatable_bonds>  (1) 
1

>  <i_lp_mmshare_version>  (1) 
72125

>  <i_m_source_file_index>  (1) 
83

>  <i_f3d_flags>  (1) 
0

>  <num_sample>  (1) 
100

>  <b_lp_Chiralities_Consistent>  (1) 
1

>  <r_epik_Charging_Adjusted_Penalty>  (1) 
0

>  <r_epik_Ionization_Penalty>  (1) 
4.7216645763340487e-07

>  <r_epik_Ionization_Penalty_Charging>  (1) 
0

>  <r_epik_Ionization_Penalty_Neutral>  (1) 
4.7216645763340487e-07

>  <r_epik_State_Penalty>  (1) 
-0

>  <r_glide_ring_energy>  (1) 
0

>  <r_i_docking_score>  (1) 
-6.1628160254035436

>  <r_i_glide_ecoul>  (1) 
-2.2016443598505084

>  <r_i_glide_eff_state_penalty>  (1) 
-0

>  <r_i_glide_einternal>  (1) 
0.086201075643562497

>  <r_i_glide_emodel>  (1) 
-29.3526257783132

>  <r_i_glide_emodel_strain>  (1) 
0

>  <r_i_glide_energy>  (1) 
-20.557620075201097

>  <r_i_glide_erotb>  (1) 
0

>  <r_i_glide_esite>  (1) 
0

>  <r_i_glide_evdw>  (1) 
-18.355975715350588

>  <r_i_glide_gscore>  (1) 
-6.1628160254035436

>  <r_i_glide_gscore_strain>  (1) 
0

>  <r_i_glide_hbond>  (1) 
0

>  <r_i_glide_ligand_efficiency>  (1) 
-0.68475733615594925

>  <r_i_glide_ligand_efficiency_ln>  (1) 
-1.9275518113707604

>  <r_i_glide_ligand_efficiency_sa>  (1) 
-1.424352657654105

>  <r_i_glide_lipo>  (1) 
-1.7673012537168318

>  <r_i_glide_metal>  (1) 
-0

>  <r_i_glide_rewards>  (1) 
-3.1474693319416054

>  <r_lp_Energy>  (1) 
9.4363049999999991

>  <r_lp_tautomer_probability>  (1) 
1

>  <s_epik_cmdline>  (1) 
J2VwaWtfcHl0aG9uJywgJy1waHQnLCAnMS4wJywgJy1waCcsICc3LjQnLCAnLXRuJywgJzgnLCAnLW1hJywgJzUwMCcsICctaW1hZScsICc8aW5maWxlLm1hZT4nLCAnLW9tYWUnLCAnPG91dGZpbGUubWFlPic=

>  <s_epik_input>  (1) 
Tz1DKFtOSDJdKWMxW2NIXVtjSF1bY0hdW2NIXVtjSF0x

>  <s_glide_docking_method>  (1) 
confgen

>  <s_i_glide_gridfile>  (1) 
gpcr_5ht2c_6bqh_protein_autoprepared_prepared

>  <s_lp_Force_Field>  (1) 
S-OPLS

>  <s_lp_Variant>  (1) 
Pocket2Mol_82_num_sample_100-1

>  <s_m_source_file>  (1) 
generated__ligand_Pocket2Mol_2026-05-06_prepared.sdf

>  <GenAI_Model>  (1) 
Pocket2Mol

>  <Protein>  (1) 
GPCR_5HT2C

$$$$
Pocket2Mol_94_num_sample_100
     RDKit          3D

  0  0  0  0  0  0  0  0  0  0999 V3000
M  V30 BEGIN CTAB
M  V30 COUNTS 16 17 0 0 1
M  V30 BEGIN ATOM
M  V30 1 C 37.572593 28.694407 53.944315 0
M  V30 2 C 38.474337 28.626458 52.833417 0
M  V30 3 C 39.409741 29.621343 52.559963 0
M  V30 4 C 38.591889 27.731042 51.947043 0
M  V30 5 C 39.467418 30.769120 53.449940 0
M  V30 6 C 39.628060 28.184324 51.098573 0
M  V30 7 C 38.615623 30.853450 54.512928 0
M  V30 8 C 40.162876 29.381870 51.453503 0
M  V30 9 O 38.661747 31.916380 55.325840 0
M  V30 10 C 37.632326 29.770359 54.762072 0
M  V30 11 H 36.857794 27.904572 54.123621 0
M  V30 12 H 38.020073 26.821426 51.854936 0
M  V30 13 H 40.180045 31.558341 53.265684 0
M  V30 14 H 39.954944 27.619121 50.241740 0
M  V30 15 H 37.910114 31.870355 55.900718 0
M  V30 16 H 36.957562 29.841619 55.604155 0
M  V30 END ATOM
M  V30 BEGIN BOND
M  V30 1 1 2 1
M  V30 2 1 3 2
M  V30 3 2 4 2
M  V30 4 1 5 3
M  V30 5 1 6 4
M  V30 6 2 7 5
M  V30 7 2 8 3
M  V30 8 2 8 6
M  V30 9 1 9 7
M  V30 10 2 10 1
M  V30 11 1 10 7
M  V30 12 1 11 1
M  V30 13 1 12 4
M  V30 14 1 13 5
M  V30 15 1 14 6
M  V30 16 1 15 9
M  V30 17 1 16 10
M  V30 END BOND
M  V30 END CTAB
M  END
>  <i_epik_Tot_Q>  (1) 
0

>  <i_epik_Tot_abs_Q>  (1) 
0

>  <i_i_glide_confnum>  (1) 
1

>  <i_i_glide_lignum>  (1) 
99

>  <i_i_glide_posenum>  (1) 
352

>  <i_i_glide_rotatable_bonds>  (1) 
1

>  <i_lp_mmshare_version>  (1) 
72125

>  <i_m_source_file_index>  (1) 
95

>  <i_f3d_flags>  (1) 
0

>  <num_sample>  (1) 
100

>  <b_lp_Chiralities_Consistent>  (1) 
1

>  <r_epik_Charging_Adjusted_Penalty>  (1) 
0

>  <r_epik_Ionization_Penalty>  (1) 
1.8682351542324854e-05

>  <r_epik_Ionization_Penalty_Charging>  (1) 
0

>  <r_epik_Ionization_Penalty_Neutral>  (1) 
1.8682351542324854e-05

>  <r_epik_State_Penalty>  (1) 
-0

>  <r_glide_ring_energy>  (1) 
0

>  <r_i_docking_score>  (1) 
-6.1585120563632056

>  <r_i_glide_ecoul>  (1) 
-1.8087856562736737

>  <r_i_glide_eff_state_penalty>  (1) 
-0

>  <r_i_glide_einternal>  (1) 
0.15565834712285676

>  <r_i_glide_emodel>  (1) 
-33.147418045142587

>  <r_i_glide_emodel_strain>  (1) 
3.6314844464868656e-08

>  <r_i_glide_energy>  (1) 
-23.766539667986475

>  <r_i_glide_erotb>  (1) 
0

>  <r_i_glide_esite>  (1) 
0

>  <r_i_glide_evdw>  (1) 
-21.957754011712801

>  <r_i_glide_gscore>  (1) 
-6.1585120563632056

>  <r_i_glide_gscore_strain>  (1) 
0

>  <r_i_glide_hbond>  (1) 
0

>  <r_i_glide_ligand_efficiency>  (1) 
-0.61585120563632056

>  <r_i_glide_ligand_efficiency_ln>  (1) 
-1.864754997358764

>  <r_i_glide_ligand_efficiency_sa>  (1) 
-1.3268112013208484

>  <r_i_glide_lipo>  (1) 
-2.2722888701031754

>  <r_i_glide_metal>  (1) 
-0

>  <r_i_glide_rewards>  (1) 
-2.517017637233339

>  <r_lp_Energy>  (1) 
8.2800799999999999

>  <r_lp_tautomer_probability>  (1) 
1

>  <s_epik_cmdline>  (1) 
J2VwaWtfcHl0aG9uJywgJy1waHQnLCAnMS4wJywgJy1waCcsICc3LjQnLCAnLXRuJywgJzgnLCAnLW1hJywgJzUwMCcsICctaW1hZScsICc8aW5maWxlLm1hZT4nLCAnLW9tYWUnLCAnPG91dGZpbGUubWFlPic=

>  <s_epik_input>  (1) 
W2NIXTFbY0hdYyhbT0hdKVtjSF1jKGMxPTIpPUM9W0NIXVtDSF0y

>  <s_glide_docking_method>  (1) 
confgen

>  <s_i_glide_gridfile>  (1) 
gpcr_5ht2c_6bqh_protein_autoprepared_prepared

>  <s_lp_Force_Field>  (1) 
S-OPLS

>  <s_lp_Variant>  (1) 
Pocket2Mol_94_num_sample_100-1

>  <s_m_source_file>  (1) 
generated__ligand_Pocket2Mol_2026-05-06_prepared.sdf

>  <GenAI_Model>  (1) 
Pocket2Mol

>  <Protein>  (1) 
GPCR_5HT2C

$$$$
Pocket2Mol_49_num_sample_100
     RDKit          3D

  0  0  0  0  0  0  0  0  0  0999 V3000
M  V30 BEGIN CTAB
M  V30 COUNTS 16 16 0 0 1
M  V30 BEGIN ATOM
M  V30 1 C 39.859878 30.692715 53.040695 0
M  V30 2 C 39.044524 29.754943 53.701448 0
M  V30 3 C 38.636818 28.582355 53.034368 0
M  V30 4 C 37.752904 27.574109 53.745720 0
M  V30 5 C 39.053474 28.350503 51.704185 0
M  V30 6 O 38.667405 27.221430 51.053522 0
M  V30 7 C 40.267403 30.461432 51.712203 0
M  V30 8 C 39.867439 29.289993 51.046727 0
M  V30 9 H 40.169668 31.591224 53.551953 0
M  V30 10 H 38.730354 29.936928 54.719142 0
M  V30 11 H 37.523126 27.898518 54.760879 0
M  V30 12 H 36.809530 27.452883 53.212756 0
M  V30 13 H 38.248891 26.604714 53.804542 0
M  V30 14 H 37.926187 26.789116 51.453423 0
M  V30 15 H 40.890684 31.183408 51.205432 0
M  V30 16 H 40.182396 29.112874 50.028511 0
M  V30 END ATOM
M  V30 BEGIN BOND
M  V30 1 1 2 1
M  V30 2 2 3 2
M  V30 3 1 4 3
M  V30 4 1 5 3
M  V30 5 1 6 5
M  V30 6 2 7 1
M  V30 7 2 8 5
M  V30 8 1 8 7
M  V30 9 1 9 1
M  V30 10 1 10 2
M  V30 11 1 11 4
M  V30 12 1 12 4
M  V30 13 1 13 4
M  V30 14 1 14 6
M  V30 15 1 15 7
M  V30 16 1 16 8
M  V30 END BOND
M  V30 END CTAB
M  END
>  <i_epik_Tot_Q>  (1) 
0

>  <i_epik_Tot_abs_Q>  (1) 
0

>  <i_i_glide_confnum>  (1) 
1

>  <i_i_glide_lignum>  (1) 
52

>  <i_i_glide_posenum>  (1) 
235

>  <i_i_glide_rotatable_bonds>  (1) 
1

>  <i_lp_mmshare_version>  (1) 
72125

>  <i_m_source_file_index>  (1) 
50

>  <i_f3d_flags>  (1) 
0

>  <num_sample>  (1) 
100

>  <b_lp_Chiralities_Consistent>  (1) 
1

>  <r_epik_Charging_Adjusted_Penalty>  (1) 
0

>  <r_epik_Ionization_Penalty>  (1) 
0.00081241911792291806

>  <r_epik_Ionization_Penalty_Charging>  (1) 
0

>  <r_epik_Ionization_Penalty_Neutral>  (1) 
0.00081241911792291806

>  <r_epik_State_Penalty>  (1) 
-0

>  <r_glide_ring_energy>  (1) 
0

>  <r_i_docking_score>  (1) 
-6.1516032764956901

>  <r_i_glide_ecoul>  (1) 
-2.1560104856781548

>  <r_i_glide_eff_state_penalty>  (1) 
-0

>  <r_i_glide_einternal>  (1) 
0.3638491912812849

>  <r_i_glide_emodel>  (1) 
-26.708254662157984

>  <r_i_glide_emodel_strain>  (1) 
0.0085178022888197091

>  <r_i_glide_energy>  (1) 
-19.161236077919543

>  <r_i_glide_erotb>  (1) 
0

>  <r_i_glide_esite>  (1) 
0

>  <r_i_glide_evdw>  (1) 
-17.005225592241388

>  <r_i_glide_gscore>  (1) 
-6.1516032764956901

>  <r_i_glide_gscore_strain>  (1) 
0

>  <r_i_glide_hbond>  (1) 
-0.13755852432058588

>  <r_i_glide_ligand_efficiency>  (1) 
-0.76895040956196126

>  <r_i_glide_ligand_efficiency_ln>  (1) 
-1.9976359977075551

>  <r_i_glide_ligand_efficiency_sa>  (1) 
-1.5379008191239227

>  <r_i_glide_lipo>  (1) 
-2.1369713909230841

>  <r_i_glide_metal>  (1) 
-0

>  <r_i_glide_rewards>  (1) 
-2.7034105087882274

>  <r_lp_Energy>  (1) 
7.6312429999999996

>  <r_lp_tautomer_probability>  (1) 
1

>  <s_epik_cmdline>  (1) 
J2VwaWtfcHl0aG9uJywgJy1waHQnLCAnMS4wJywgJy1waCcsICc3LjQnLCAnLXRuJywgJzgnLCAnLW1hJywgJzUwMCcsICctaW1hZScsICc8aW5maWxlLm1hZT4nLCAnLW9tYWUnLCAnPG91dGZpbGUubWFlPic=

>  <s_epik_input>  (1) 
W0NIM11jMVtjSF1bY0hdW2NIXVtjSF1jMVtPSF0=

>  <s_glide_docking_method>  (1) 
confgen

>  <s_i_glide_gridfile>  (1) 
gpcr_5ht2c_6bqh_protein_autoprepared_prepared

>  <s_lp_Force_Field>  (1) 
S-OPLS

>  <s_lp_Variant>  (1) 
Pocket2Mol_49_num_sample_100-1

>  <s_m_source_file>  (1) 
generated__ligand_Pocket2Mol_2026-05-06_prepared.sdf

>  <GenAI_Model>  (1) 
Pocket2Mol

>  <Protein>  (1) 
GPCR_5HT2C

$$$$
Pocket2Mol_75_num_sample_100
     RDKit          3D

  0  0  0  0  0  0  0  0  0  0999 V3000
M  V30 BEGIN CTAB
M  V30 COUNTS 21 22 0 0 1
M  V30 BEGIN ATOM
M  V30 1 C 38.283812 27.238472 53.266362 0
M  V30 2 C 38.441512 28.401228 52.273056 0 CFG=1
M  V30 3 C 38.008332 27.938683 54.607004 0
M  V30 4 C 38.802145 29.247284 54.534420 0
M  V30 5 N 38.882727 29.515319 53.113928 0
M  V30 6 N 39.862961 30.382627 52.700662 0
M  V30 7 C 40.267416 30.422969 51.475150 0
M  V30 8 C 39.852924 29.406993 50.453121 0
M  V30 9 C 39.396528 28.105779 51.117256 0
M  V30 10 H 37.490026 26.545829 52.986343 0
M  V30 11 H 39.210497 26.669424 53.347481 0
M  V30 12 H 37.464426 28.671554 51.872042 0
M  V30 13 H 36.947554 28.176329 54.653483 0
M  V30 14 H 38.261571 27.330033 55.474507 0
M  V30 15 H 38.306065 30.066776 55.055358 0
M  V30 16 H 39.808102 29.122773 54.936326 0
M  V30 17 H 40.938889 31.220390 51.156128 0
M  V30 18 H 39.067403 29.839990 49.853502 0
M  V30 19 H 40.667417 29.214252 49.761885 0
M  V30 20 H 40.267405 27.614290 51.528125 0
M  V30 21 H 38.954725 27.418456 50.395923 0
M  V30 END ATOM
M  V30 BEGIN BOND
M  V30 1 1 2 1
M  V30 2 1 3 1
M  V30 3 1 4 3
M  V30 4 1 5 2
M  V30 5 1 5 4
M  V30 6 1 6 5
M  V30 7 2 7 6
M  V30 8 1 8 7
M  V30 9 1 9 2
M  V30 10 1 9 8
M  V30 11 1 10 1
M  V30 12 1 11 1
M  V30 13 1 2 12 CFG=3
M  V30 14 1 13 3
M  V30 15 1 14 3
M  V30 16 1 15 4
M  V30 17 1 16 4
M  V30 18 1 17 7
M  V30 19 1 18 8
M  V30 20 1 19 8
M  V30 21 1 20 9
M  V30 22 1 21 9
M  V30 END BOND
M  V30 END CTAB
M  END
>  <i_epik_Tot_Q>  (1) 
0

>  <i_epik_Tot_abs_Q>  (1) 
0

>  <i_i_glide_confnum>  (1) 
1

>  <i_i_glide_lignum>  (1) 
80

>  <i_i_glide_posenum>  (1) 
259

>  <i_i_glide_rotatable_bonds>  (1) 
0

>  <i_lp_mmshare_version>  (1) 
72125

>  <i_m_source_file_index>  (1) 
76

>  <i_f3d_flags>  (1) 
0

>  <num_sample>  (1) 
100

>  <b_lp_Chiralities_Consistent>  (1) 
1

>  <r_epik_Charging_Adjusted_Penalty>  (1) 
0

>  <r_epik_Ionization_Penalty>  (1) 
0.0031146778150898829

>  <r_epik_Ionization_Penalty_Charging>  (1) 
0

>  <r_epik_Ionization_Penalty_Neutral>  (1) 
0.0031146778150898829

>  <r_epik_State_Penalty>  (1) 
-0

>  <r_glide_ring_energy>  (1) 
0

>  <r_i_docking_score>  (1) 
-6.1481747226970525

>  <r_i_glide_ecoul>  (1) 
-0.73441169224221603

>  <r_i_glide_eff_state_penalty>  (1) 
-0

>  <r_i_glide_einternal>  (1) 
0

>  <r_i_glide_emodel>  (1) 
-29.240349040907518

>  <r_i_glide_emodel_strain>  (1) 
6.3337779465655331e-11

>  <r_i_glide_energy>  (1) 
-20.991262304433544

>  <r_i_glide_erotb>  (1) 
0

>  <r_i_glide_esite>  (1) 
0

>  <r_i_glide_evdw>  (1) 
-20.256850612191329

>  <r_i_glide_gscore>  (1) 
-6.1481747226970525

>  <r_i_glide_gscore_strain>  (1) 
0

>  <r_i_glide_hbond>  (1) 
0

>  <r_i_glide_ligand_efficiency>  (1) 
-0.68313052474411695

>  <r_i_glide_ligand_efficiency_ln>  (1) 
-1.9229724324900033

>  <r_i_glide_ligand_efficiency_sa>  (1) 
-1.4209687535531963

>  <r_i_glide_lipo>  (1) 
-1.755800315166969

>  <r_i_glide_metal>  (1) 
-0

>  <r_i_glide_rewards>  (1) 
-3.2693701230841845

>  <r_lp_Energy>  (1) 
16.062878999999999

>  <r_lp_tautomer_probability>  (1) 
1

>  <s_epik_Chemistry_Notes>  (1) 
This compound has an imine and may undergo hydrolysis.

>  <s_epik_cmdline>  (1) 
J2VwaWtfcHl0aG9uJywgJy1waHQnLCAnMS4wJywgJy1waCcsICc3LjQnLCAnLXRuJywgJzgnLCAnLW1hJywgJzUwMCcsICctaW1hZScsICc8aW5maWxlLm1hZT4nLCAnLW9tYWUnLCAnPG91dGZpbGUubWFlPic=

>  <s_epik_input>  (1) 
W0NIMl0xW0NIMl1bQ0gyXU4oW0NASF0xMilOPVtDSF1bQ0gyXVtDSDJdMg==

>  <s_glide_docking_method>  (1) 
confgen

>  <s_i_glide_gridfile>  (1) 
gpcr_5ht2c_6bqh_protein_autoprepared_prepared

>  <s_lp_Force_Field>  (1) 
S-OPLS

>  <s_lp_Variant>  (1) 
Pocket2Mol_75_num_sample_100-1

>  <s_m_source_file>  (1) 
generated__ligand_Pocket2Mol_2026-05-06_prepared.sdf

>  <GenAI_Model>  (1) 
Pocket2Mol

>  <Protein>  (1) 
GPCR_5HT2C

$$$$
Pocket2Mol_51_num_sample_100
     RDKit          3D

  0  0  0  0  0  0  0  0  0  0999 V3000
M  V30 BEGIN CTAB
M  V30 COUNTS 18 18 0 0 1
M  V30 BEGIN ATOM
M  V30 1 C 39.867406 30.239881 52.454373 0
M  V30 2 C 39.041253 29.560199 53.371616 0
M  V30 3 C 38.457003 28.326430 53.015156 0
M  V30 4 C 37.562618 27.599314 53.997411 0
M  V30 5 C 40.110410 29.687161 51.180579 0
M  V30 6 C 40.992772 30.421439 50.193160 0
M  V30 7 C 39.528930 28.452216 50.827242 0
M  V30 8 C 38.704198 27.772956 51.742818 0
M  V30 9 H 40.311194 31.186781 52.726831 0
M  V30 10 H 38.852574 29.986692 54.346426 0
M  V30 11 H 37.185221 26.665786 53.578250 0
M  V30 12 H 38.108848 27.367914 54.911617 0
M  V30 13 H 36.706657 28.222809 54.253485 0
M  V30 14 H 41.067326 29.882937 49.248705 0
M  V30 15 H 40.577157 31.406646 49.983858 0
M  V30 16 H 41.996957 30.547071 50.598382 0
M  V30 17 H 39.713089 28.027526 49.853502 0
M  V30 18 H 38.258605 26.828057 51.467116 0
M  V30 END ATOM
M  V30 BEGIN BOND
M  V30 1 2 2 1
M  V30 2 1 3 2
M  V30 3 1 4 3
M  V30 4 1 5 1
M  V30 5 1 6 5
M  V30 6 2 7 5
M  V30 7 2 8 3
M  V30 8 1 8 7
M  V30 9 1 9 1
M  V30 10 1 10 2
M  V30 11 1 11 4
M  V30 12 1 12 4
M  V30 13 1 13 4
M  V30 14 1 14 6
M  V30 15 1 15 6
M  V30 16 1 16 6
M  V30 17 1 17 7
M  V30 18 1 18 8
M  V30 END BOND
M  V30 END CTAB
M  END
>  <i_epik_Tot_Q>  (1) 
0

>  <i_epik_Tot_abs_Q>  (1) 
0

>  <i_i_glide_confnum>  (1) 
1

>  <i_i_glide_lignum>  (1) 
54

>  <i_i_glide_posenum>  (1) 
343

>  <i_i_glide_rotatable_bonds>  (1) 
0

>  <i_lp_mmshare_version>  (1) 
72125

>  <i_m_source_file_index>  (1) 
52

>  <i_f3d_flags>  (1) 
0

>  <num_sample>  (1) 
100

>  <b_lp_Chiralities_Consistent>  (1) 
1

>  <r_epik_Charging_Adjusted_Penalty>  (1) 
0

>  <r_epik_Ionization_Penalty>  (1) 
0

>  <r_epik_Ionization_Penalty_Charging>  (1) 
0

>  <r_epik_Ionization_Penalty_Neutral>  (1) 
0

>  <r_epik_State_Penalty>  (1) 
-0

>  <r_glide_ring_energy>  (1) 
0

>  <r_i_docking_score>  (1) 
-6.1399291336373745

>  <r_i_glide_ecoul>  (1) 
-0.93615000730943532

>  <r_i_glide_eff_state_penalty>  (1) 
-0

>  <r_i_glide_einternal>  (1) 
0

>  <r_i_glide_emodel>  (1) 
-27.459535993002987

>  <r_i_glide_emodel_strain>  (1) 
0

>  <r_i_glide_energy>  (1) 
-20.068336512133101

>  <r_i_glide_erotb>  (1) 
0

>  <r_i_glide_esite>  (1) 
0

>  <r_i_glide_evdw>  (1) 
-19.132186504823665

>  <r_i_glide_gscore>  (1) 
-6.1399291336373745

>  <r_i_glide_gscore_strain>  (1) 
0

>  <r_i_glide_hbond>  (1) 
0

>  <r_i_glide_ligand_efficiency>  (1) 
-0.76749114170467181

>  <r_i_glide_ligand_efficiency_ln>  (1) 
-1.9938450042107447

>  <r_i_glide_ligand_efficiency_sa>  (1) 
-1.5349822834093438

>  <r_i_glide_lipo>  (1) 
-2.4791982804596482

>  <r_i_glide_metal>  (1) 
-0

>  <r_i_glide_rewards>  (1) 
-2.5636990268401272

>  <r_lp_Energy>  (1) 
3.9239269999999999

>  <r_lp_tautomer_probability>  (1) 
1

>  <s_epik_cmdline>  (1) 
J2VwaWtfcHl0aG9uJywgJy1waHQnLCAnMS4wJywgJy1waCcsICc3LjQnLCAnLXRuJywgJzgnLCAnLW1hJywgJzUwMCcsICctaW1hZScsICc8aW5maWxlLm1hZT4nLCAnLW9tYWUnLCAnPG91dGZpbGUubWFlPic=

>  <s_epik_input>  (1) 
W2NIXTFbY0hdYyhbQ0gzXSlbY0hdW2NIXWMxW0NIM10=

>  <s_glide_docking_method>  (1) 
confgen

>  <s_i_glide_gridfile>  (1) 
gpcr_5ht2c_6bqh_protein_autoprepared_prepared

>  <s_lp_Force_Field>  (1) 
S-OPLS

>  <s_lp_Variant>  (1) 
Pocket2Mol_51_num_sample_100-1

>  <s_m_source_file>  (1) 
generated__ligand_Pocket2Mol_2026-05-06_prepared.sdf

>  <GenAI_Model>  (1) 
Pocket2Mol

>  <Protein>  (1) 
GPCR_5HT2C

$$$$
Pocket2Mol_81_num_sample_100
     RDKit          3D

  0  0  0  0  0  0  0  0  0  0999 V3000
M  V30 BEGIN CTAB
M  V30 COUNTS 15 16 0 0 1
M  V30 BEGIN ATOM
M  V30 1 C 39.072475 27.997720 51.066827 0
M  V30 2 C 38.660049 28.172028 52.408468 0
M  V30 3 C 39.075284 29.355960 53.076540 0
M  V30 4 C 37.884102 27.449890 53.373205 0
M  V30 5 C 39.867404 30.333070 52.447992 0
M  V30 6 N 37.810937 28.090224 54.516240 0
M  V30 7 N 38.523916 29.231519 54.339296 0
M  V30 8 C 39.867414 28.970618 50.424623 0
M  V30 9 C 40.264718 30.135743 51.111837 0
M  V30 10 H 38.774783 27.109606 50.529472 0
M  V30 11 H 37.387165 26.497248 53.263118 0
M  V30 12 H 40.167089 31.222430 52.981969 0
M  V30 13 H 38.613272 29.897284 55.093415 0
M  V30 14 H 40.173893 28.822037 49.399337 0
M  V30 15 H 40.873395 30.876047 50.613227 0
M  V30 END ATOM
M  V30 BEGIN BOND
M  V30 1 1 2 1
M  V30 2 2 3 2
M  V30 3 1 4 2
M  V30 4 1 5 3
M  V30 5 2 6 4
M  V30 6 1 7 3
M  V30 7 1 7 6
M  V30 8 2 8 1
M  V30 9 2 9 5
M  V30 10 1 9 8
M  V30 11 1 10 1
M  V30 12 1 11 4
M  V30 13 1 12 5
M  V30 14 1 13 7
M  V30 15 1 14 8
M  V30 16 1 15 9
M  V30 END BOND
M  V30 END CTAB
M  END
>  <i_epik_Tot_Q>  (1) 
0

>  <i_epik_Tot_abs_Q>  (1) 
0

>  <i_i_glide_confnum>  (1) 
1

>  <i_i_glide_lignum>  (1) 
86

>  <i_i_glide_posenum>  (1) 
372

>  <i_i_glide_rotatable_bonds>  (1) 
0

>  <i_lp_mmshare_version>  (1) 
72125

>  <i_m_source_file_index>  (1) 
82

>  <i_f3d_flags>  (1) 
0

>  <num_sample>  (1) 
100

>  <b_lp_Chiralities_Consistent>  (1) 
1

>  <r_epik_Charging_Adjusted_Penalty>  (1) 
0

>  <r_epik_Ionization_Penalty>  (1) 
2.5998422111611493e-06

>  <r_epik_Ionization_Penalty_Charging>  (1) 
0

>  <r_epik_Ionization_Penalty_Neutral>  (1) 
2.5998422111611493e-06

>  <r_epik_State_Penalty>  (1) 
-0

>  <r_glide_ring_energy>  (1) 
0

>  <r_i_docking_score>  (1) 
-6.1377938150629134

>  <r_i_glide_ecoul>  (1) 
-1.53216451775669

>  <r_i_glide_eff_state_penalty>  (1) 
-0

>  <r_i_glide_einternal>  (1) 
0

>  <r_i_glide_emodel>  (1) 
-30.694034003337961

>  <r_i_glide_emodel_strain>  (1) 
0

>  <r_i_glide_energy>  (1) 
-22.078748661470428

>  <r_i_glide_erotb>  (1) 
0

>  <r_i_glide_esite>  (1) 
0

>  <r_i_glide_evdw>  (1) 
-20.546584143713737

>  <r_i_glide_gscore>  (1) 
-6.1377938150629134

>  <r_i_glide_gscore_strain>  (1) 
0

>  <r_i_glide_hbond>  (1) 
0

>  <r_i_glide_ligand_efficiency>  (1) 
-0.68197709056254596

>  <r_i_glide_ligand_efficiency_ln>  (1) 
-1.9197255827980158

>  <r_i_glide_ligand_efficiency_sa>  (1) 
-1.4185695137711554

>  <r_i_glide_lipo>  (1) 
-2.1964042669607822

>  <r_i_glide_metal>  (1) 
-0

>  <r_i_glide_rewards>  (1) 
-2.6842356632529412

>  <r_lp_Energy>  (1) 
10.425352

>  <r_lp_tautomer_probability>  (1) 
1

>  <s_epik_cmdline>  (1) 
J2VwaWtfcHl0aG9uJywgJy1waHQnLCAnMS4wJywgJy1waCcsICc3LjQnLCAnLXRuJywgJzgnLCAnLW1hJywgJzUwMCcsICctaW1hZScsICc8aW5maWxlLm1hZT4nLCAnLW9tYWUnLCAnPG91dGZpbGUubWFlPic=

>  <s_epik_input>  (1) 
W2NIXTFbY0hdW2NIXVtjSF1jKGMxMiluW25IXVtjSF0y

>  <s_glide_docking_method>  (1) 
confgen

>  <s_i_glide_gridfile>  (1) 
gpcr_5ht2c_6bqh_protein_autoprepared_prepared

>  <s_lp_Force_Field>  (1) 
S-OPLS

>  <s_lp_Variant>  (1) 
Pocket2Mol_81_num_sample_100-1

>  <s_m_source_file>  (1) 
generated__ligand_Pocket2Mol_2026-05-06_prepared.sdf

>  <GenAI_Model>  (1) 
Pocket2Mol

>  <Protein>  (1) 
GPCR_5HT2C

$$$$
Pocket2Mol_70_num_sample_100
     RDKit          3D

  0  0  0  0  0  0  0  0  0  0999 V3000
M  V30 BEGIN CTAB
M  V30 COUNTS 17 18 0 0 1
M  V30 BEGIN ATOM
M  V30 1 C 38.345147 28.781830 53.938932 0
M  V30 2 C 38.879968 28.562080 52.618115 0
M  V30 3 C 39.844714 29.482112 51.966251 0 CFG=2
M  V30 4 C 38.563125 27.606642 51.855171 0
M  V30 5 C 39.867408 30.821463 52.675451 0
M  V30 6 N 39.117317 27.707128 50.653501 0
M  V30 7 N 39.809050 29.014491 50.472649 0
M  V30 8 C 38.552442 29.955593 54.553975 0
M  V30 9 C 39.289415 31.019975 53.885578 0
M  V30 10 H 37.762490 28.012121 54.423966 0
M  V30 11 H 40.822285 29.122122 52.253500 0
M  V30 12 H 37.867413 26.808787 52.034744 0
M  V30 13 H 40.402810 31.621428 52.191520 0
M  V30 14 H 38.728837 27.233479 49.849535 0
M  V30 15 H 39.185433 29.617576 49.936443 0
M  V30 16 H 38.138624 30.126372 55.537617 0
M  V30 17 H 39.363443 31.989270 54.356955 0
M  V30 END ATOM
M  V30 BEGIN BOND
M  V30 1 1 2 1
M  V30 2 1 3 2
M  V30 3 2 4 2
M  V30 4 1 5 3
M  V30 5 1 6 4
M  V30 6 1 7 3
M  V30 7 1 7 6
M  V30 8 2 8 1
M  V30 9 2 9 5
M  V30 10 1 9 8
M  V30 11 1 10 1
M  V30 12 1 3 11 CFG=1
M  V30 13 1 12 4
M  V30 14 1 13 5
M  V30 15 1 14 6
M  V30 16 1 15 7
M  V30 17 1 16 8
M  V30 18 1 17 9
M  V30 END BOND
M  V30 END CTAB
M  END
>  <i_epik_Tot_Q>  (1) 
0

>  <i_epik_Tot_abs_Q>  (1) 
0

>  <i_i_glide_confnum>  (1) 
1

>  <i_i_glide_lignum>  (1) 
75

>  <i_i_glide_posenum>  (1) 
360

>  <i_i_glide_rotatable_bonds>  (1) 
0

>  <i_lp_mmshare_version>  (1) 
72125

>  <i_m_source_file_index>  (1) 
71

>  <i_f3d_flags>  (1) 
0

>  <num_sample>  (1) 
100

>  <b_lp_Chiralities_Consistent>  (1) 
1

>  <r_epik_Charging_Adjusted_Penalty>  (1) 
0

>  <r_epik_Ionization_Penalty>  (1) 
4.3565390981668577e-05

>  <r_epik_Ionization_Penalty_Charging>  (1) 
0

>  <r_epik_Ionization_Penalty_Neutral>  (1) 
4.3565390981668577e-05

>  <r_epik_State_Penalty>  (1) 
-0

>  <r_glide_ring_energy>  (1) 
0

>  <r_i_docking_score>  (1) 
-6.1252959122420227

>  <r_i_glide_ecoul>  (1) 
-2.1176567478640718

>  <r_i_glide_eff_state_penalty>  (1) 
-0

>  <r_i_glide_einternal>  (1) 
0

>  <r_i_glide_emodel>  (1) 
-28.919761186618434

>  <r_i_glide_emodel_strain>  (1) 
0

>  <r_i_glide_energy>  (1) 
-20.075726515018051

>  <r_i_glide_erotb>  (1) 
0

>  <r_i_glide_esite>  (1) 
0

>  <r_i_glide_evdw>  (1) 
-17.95806976715398

>  <r_i_glide_gscore>  (1) 
-6.1252959122420227

>  <r_i_glide_gscore_strain>  (1) 
0

>  <r_i_glide_hbond>  (1) 
-0.19609672360850228

>  <r_i_glide_ligand_efficiency>  (1) 
-0.68058843469355812

>  <r_i_glide_ligand_efficiency_ln>  (1) 
-1.9158165978272748

>  <r_i_glide_ligand_efficiency_sa>  (1) 
-1.4156809931622878

>  <r_i_glide_lipo>  (1) 
-2.0903431331516682

>  <r_i_glide_metal>  (1) 
-0

>  <r_i_glide_rewards>  (1) 
-2.6233040549445423

>  <r_lp_Energy>  (1) 
4.0619379999999996

>  <r_lp_tautomer_probability>  (1) 
1

>  <s_epik_cmdline>  (1) 
J2VwaWtfcHl0aG9uJywgJy1waHQnLCAnMS4wJywgJy1waCcsICc3LjQnLCAnLXRuJywgJzgnLCAnLW1hJywgJzUwMCcsICctaW1hZScsICc8aW5maWxlLm1hZT4nLCAnLW9tYWUnLCAnPG91dGZpbGUubWFlPic=

>  <s_epik_input>  (1) 
W0NIXTE9W0NIXVtDSF09W0NIXVtDQEBIXShDMT0yKVtOSF1bTkhdW0NIXTI=

>  <s_glide_docking_method>  (1) 
confgen

>  <s_i_glide_gridfile>  (1) 
gpcr_5ht2c_6bqh_protein_autoprepared_prepared

>  <s_lp_Force_Field>  (1) 
S-OPLS

>  <s_lp_Variant>  (1) 
Pocket2Mol_70_num_sample_100-1

>  <s_m_source_file>  (1) 
generated__ligand_Pocket2Mol_2026-05-06_prepared.sdf

>  <GenAI_Model>  (1) 
Pocket2Mol

>  <Protein>  (1) 
GPCR_5HT2C

$$$$
Pocket2Mol_93_num_sample_100
     RDKit          3D

  0  0  0  0  0  0  0  0  0  0999 V3000
M  V30 BEGIN CTAB
M  V30 COUNTS 17 18 0 0 1
M  V30 BEGIN ATOM
M  V30 1 C 38.513421 27.707732 52.306975 0
M  V30 2 C 38.664245 28.692201 53.302026 0
M  V30 3 C 39.431301 29.871494 53.053501 0
M  V30 4 C 38.053765 28.522885 54.557998 0
M  V30 5 C 40.024607 30.021427 51.778275 0
M  V30 6 N 39.585089 30.822023 54.007443 0
M  V30 7 C 38.215313 29.521731 55.525607 0
M  V30 8 C 39.116305 27.877574 51.053501 0
M  V30 9 C 38.984585 30.649811 55.205197 0
M  V30 10 C 39.867405 29.032748 50.787151 0
M  V30 11 H 37.929902 26.821429 52.507251 0
M  V30 12 H 37.467403 27.641285 54.771542 0
M  V30 13 H 40.605830 30.906596 51.562366 0
M  V30 14 H 37.754426 29.428166 56.498683 0
M  V30 15 H 38.999689 27.120456 50.290196 0
M  V30 16 H 39.126058 31.438206 55.930013 0
M  V30 17 H 40.326113 29.164554 49.818316 0
M  V30 END ATOM
M  V30 BEGIN BOND
M  V30 1 2 2 1
M  V30 2 1 3 2
M  V30 3 1 4 2
M  V30 4 2 5 3
M  V30 5 1 6 3
M  V30 6 2 7 4
M  V30 7 1 8 1
M  V30 8 2 9 6
M  V30 9 1 9 7
M  V30 10 1 10 5
M  V30 11 2 10 8
M  V30 12 1 11 1
M  V30 13 1 12 4
M  V30 14 1 13 5
M  V30 15 1 14 7
M  V30 16 1 15 8
M  V30 17 1 16 9
M  V30 18 1 17 10
M  V30 END BOND
M  V30 END CTAB
M  END
>  <i_epik_Tot_Q>  (1) 
0

>  <i_epik_Tot_abs_Q>  (1) 
0

>  <i_i_glide_confnum>  (1) 
1

>  <i_i_glide_lignum>  (1) 
98

>  <i_i_glide_posenum>  (1) 
280

>  <i_i_glide_rotatable_bonds>  (1) 
0

>  <i_lp_mmshare_version>  (1) 
72125

>  <i_m_source_file_index>  (1) 
94

>  <i_f3d_flags>  (1) 
0

>  <num_sample>  (1) 
100

>  <b_lp_Chiralities_Consistent>  (1) 
1

>  <r_epik_Charging_Adjusted_Penalty>  (1) 
0

>  <r_epik_Ionization_Penalty>  (1) 
0.0026406434276513078

>  <r_epik_Ionization_Penalty_Charging>  (1) 
0

>  <r_epik_Ionization_Penalty_Neutral>  (1) 
0.0026406434276513078

>  <r_epik_State_Penalty>  (1) 
-0

>  <r_glide_ring_energy>  (1) 
0

>  <r_i_docking_score>  (1) 
-6.1239138837272904

>  <r_i_glide_ecoul>  (1) 
-0.58786473902539305

>  <r_i_glide_eff_state_penalty>  (1) 
-0

>  <r_i_glide_einternal>  (1) 
0

>  <r_i_glide_emodel>  (1) 
-30.782630263644386

>  <r_i_glide_emodel_strain>  (1) 
0

>  <r_i_glide_energy>  (1) 
-22.365876647472476

>  <r_i_glide_erotb>  (1) 
0

>  <r_i_glide_esite>  (1) 
0

>  <r_i_glide_evdw>  (1) 
-21.778011908447084

>  <r_i_glide_gscore>  (1) 
-6.1239138837272904

>  <r_i_glide_gscore_strain>  (1) 
0

>  <r_i_glide_hbond>  (1) 
0

>  <r_i_glide_ligand_efficiency>  (1) 
-0.612391388372729

>  <r_i_glide_ligand_efficiency_ln>  (1) 
-1.8542789091848937

>  <r_i_glide_ligand_efficiency_sa>  (1) 
-1.3193572509869955

>  <r_i_glide_lipo>  (1) 
-2.1982664570326058

>  <r_i_glide_metal>  (1) 
-0

>  <r_i_glide_rewards>  (1) 
-2.7485671204185205

>  <r_lp_Energy>  (1) 
20.260538

>  <r_lp_tautomer_probability>  (1) 
1

>  <s_epik_cmdline>  (1) 
J2VwaWtfcHl0aG9uJywgJy1waHQnLCAnMS4wJywgJy1waCcsICc3LjQnLCAnLXRuJywgJzgnLCAnLW1hJywgJzUwMCcsICctaW1hZScsICc8aW5maWxlLm1hZT4nLCAnLW9tYWUnLCAnPG91dGZpbGUubWFlPic=

>  <s_epik_input>  (1) 
W2NIXTFbY0hdW2NIXVtjSF1jKGMxMiluW2NIXVtjSF1bY0hdMg==

>  <s_glide_docking_method>  (1) 
confgen

>  <s_i_glide_gridfile>  (1) 
gpcr_5ht2c_6bqh_protein_autoprepared_prepared

>  <s_lp_Force_Field>  (1) 
S-OPLS

>  <s_lp_Variant>  (1) 
Pocket2Mol_93_num_sample_100-1

>  <s_m_source_file>  (1) 
generated__ligand_Pocket2Mol_2026-05-06_prepared.sdf

>  <GenAI_Model>  (1) 
Pocket2Mol

>  <Protein>  (1) 
GPCR_5HT2C

$$$$
Pocket2Mol_83_num_sample_100
     RDKit          3D

  0  0  0  0  0  0  0  0  0  0999 V3000
M  V30 BEGIN CTAB
M  V30 COUNTS 16 17 0 0 1
M  V30 BEGIN ATOM
M  V30 1 C 38.384073 27.841582 52.529965 0
M  V30 2 C 39.203009 28.825932 51.915264 0
M  V30 3 C 37.861501 28.037846 53.828785 0
M  V30 4 C 38.146341 29.217989 54.539377 0
M  V30 5 C 38.952864 30.204211 53.955708 0
M  V30 6 C 39.867402 28.936570 50.653501 0
M  V30 7 C 40.508880 30.150207 50.644039 0
M  V30 8 C 39.467403 30.006105 52.665950 0
M  V30 9 N 40.267402 30.791001 51.853804 0
M  V30 10 H 38.154818 26.930920 51.995788 0
M  V30 11 H 37.238881 27.277448 54.277774 0
M  V30 12 H 37.743313 29.364658 55.531609 0
M  V30 13 H 39.173499 31.113776 54.494807 0
M  V30 14 H 39.855677 28.201382 49.863883 0
M  V30 15 H 41.115922 30.613279 49.878300 0
M  V30 16 H 40.634602 31.706978 52.079664 0
M  V30 END ATOM
M  V30 BEGIN BOND
M  V30 1 2 2 1
M  V30 2 1 3 1
M  V30 3 2 4 3
M  V30 4 1 5 4
M  V30 5 1 6 2
M  V30 6 2 7 6
M  V30 7 1 8 2
M  V30 8 2 8 5
M  V30 9 1 9 7
M  V30 10 1 9 8
M  V30 11 1 10 1
M  V30 12 1 11 3
M  V30 13 1 12 4
M  V30 14 1 13 5
M  V30 15 1 14 6
M  V30 16 1 15 7
M  V30 17 1 16 9
M  V30 END BOND
M  V30 END CTAB
M  END
>  <i_epik_Tot_Q>  (1) 
0

>  <i_epik_Tot_abs_Q>  (1) 
0

>  <i_i_glide_confnum>  (1) 
1

>  <i_i_glide_lignum>  (1) 
88

>  <i_i_glide_posenum>  (1) 
205

>  <i_i_glide_rotatable_bonds>  (1) 
0

>  <i_lp_mmshare_version>  (1) 
72125

>  <i_m_source_file_index>  (1) 
84

>  <i_f3d_flags>  (1) 
0

>  <num_sample>  (1) 
100

>  <b_lp_Chiralities_Consistent>  (1) 
1

>  <r_epik_Charging_Adjusted_Penalty>  (1) 
0

>  <r_epik_Ionization_Penalty>  (1) 
6.3316205355000374e-10

>  <r_epik_Ionization_Penalty_Charging>  (1) 
0

>  <r_epik_Ionization_Penalty_Neutral>  (1) 
6.3316205355000374e-10

>  <r_epik_State_Penalty>  (1) 
-0

>  <r_glide_ring_energy>  (1) 
0

>  <r_i_docking_score>  (1) 
-6.1210969310819001

>  <r_i_glide_ecoul>  (1) 
-1.9770541257987051

>  <r_i_glide_eff_state_penalty>  (1) 
-0

>  <r_i_glide_einternal>  (1) 
0

>  <r_i_glide_emodel>  (1) 
-30.169914601027621

>  <r_i_glide_emodel_strain>  (1) 
0

>  <r_i_glide_energy>  (1) 
-21.828316984720168

>  <r_i_glide_erotb>  (1) 
0

>  <r_i_glide_esite>  (1) 
0

>  <r_i_glide_evdw>  (1) 
-19.851262858921462

>  <r_i_glide_gscore>  (1) 
-6.1210969310819001

>  <r_i_glide_gscore_strain>  (1) 
0

>  <r_i_glide_hbond>  (1) 
0

>  <r_i_glide_ligand_efficiency>  (1) 
-0.68012188123132222

>  <r_i_glide_ligand_efficiency_ln>  (1) 
-1.9145032771459916

>  <r_i_glide_ligand_efficiency_sa>  (1) 
-1.414710522852902

>  <r_i_glide_lipo>  (1) 
-2.3277625819805814

>  <r_i_glide_metal>  (1) 
-0

>  <r_i_glide_rewards>  (1) 
-2.5042130872854402

>  <r_lp_Energy>  (1) 
12.824451

>  <r_lp_tautomer_probability>  (1) 
1

>  <s_epik_cmdline>  (1) 
J2VwaWtfcHl0aG9uJywgJy1waHQnLCAnMS4wJywgJy1waCcsICc3LjQnLCAnLXRuJywgJzgnLCAnLW1hJywgJzUwMCcsICctaW1hZScsICc8aW5maWxlLm1hZT4nLCAnLW9tYWUnLCAnPG91dGZpbGUubWFlPic=

>  <s_epik_input>  (1) 
W2NIXTFbY0hdW2NIXVtjSF1jKGMxMilbbkhdW2NIXVtjSF0y

>  <s_glide_docking_method>  (1) 
confgen

>  <s_i_glide_gridfile>  (1) 
gpcr_5ht2c_6bqh_protein_autoprepared_prepared

>  <s_lp_Force_Field>  (1) 
S-OPLS

>  <s_lp_Variant>  (1) 
Pocket2Mol_83_num_sample_100-1

>  <s_m_source_file>  (1) 
generated__ligand_Pocket2Mol_2026-05-06_prepared.sdf

>  <GenAI_Model>  (1) 
Pocket2Mol

>  <Protein>  (1) 
GPCR_5HT2C

$$$$
Pocket2Mol_54_num_sample_100
     RDKit          3D

  0  0  0  0  0  0  0  0  0  0999 V3000
M  V30 BEGIN CTAB
M  V30 COUNTS 17 17 0 0 1
M  V30 BEGIN ATOM
M  V30 1 C 39.279527 30.065164 54.388265 0
M  V30 2 C 38.484318 28.908099 54.489037 0
M  V30 3 C 38.257865 28.106200 53.352680 0
M  V30 4 N 37.467403 26.964094 53.453491 0
M  V30 5 C 39.850625 30.421604 53.152115 0
M  V30 6 C 39.627263 29.621425 52.012921 0
M  V30 7 C 40.239319 30.011786 50.681966 0
M  V30 8 C 38.830250 28.462139 52.113671 0
M  V30 9 H 39.449946 30.681296 55.260269 0
M  V30 10 H 38.047082 28.636919 55.438895 0
M  V30 11 H 37.144694 26.489773 52.614935 0
M  V30 12 H 36.929874 26.792217 54.290432 0
M  V30 13 H 40.458413 31.309078 53.077023 0
M  V30 14 H 40.830006 30.924414 50.771229 0
M  V30 15 H 40.891630 29.221963 50.319608 0
M  V30 16 H 39.467929 30.189149 49.934231 0
M  V30 17 H 38.656627 27.848418 51.241613 0
M  V30 END ATOM
M  V30 BEGIN BOND
M  V30 1 1 2 1
M  V30 2 2 3 2
M  V30 3 1 4 3
M  V30 4 2 5 1
M  V30 5 1 6 5
M  V30 6 1 7 6
M  V30 7 1 8 3
M  V30 8 2 8 6
M  V30 9 1 9 1
M  V30 10 1 10 2
M  V30 11 1 11 4
M  V30 12 1 12 4
M  V30 13 1 13 5
M  V30 14 1 14 7
M  V30 15 1 15 7
M  V30 16 1 16 7
M  V30 17 1 17 8
M  V30 END BOND
M  V30 END CTAB
M  END
>  <i_epik_Tot_Q>  (1) 
0

>  <i_epik_Tot_abs_Q>  (1) 
0

>  <i_i_glide_confnum>  (1) 
1

>  <i_i_glide_lignum>  (1) 
58

>  <i_i_glide_posenum>  (1) 
313

>  <i_i_glide_rotatable_bonds>  (1) 
0

>  <i_lp_mmshare_version>  (1) 
72125

>  <i_m_source_file_index>  (1) 
55

>  <i_f3d_flags>  (1) 
0

>  <num_sample>  (1) 
100

>  <b_lp_Chiralities_Consistent>  (1) 
1

>  <r_epik_Charging_Adjusted_Penalty>  (1) 
0

>  <r_epik_Ionization_Penalty>  (1) 
0.0013172751215551738

>  <r_epik_Ionization_Penalty_Charging>  (1) 
0

>  <r_epik_Ionization_Penalty_Neutral>  (1) 
0.0013172751215551738

>  <r_epik_State_Penalty>  (1) 
-0

>  <r_glide_ring_energy>  (1) 
0

>  <r_i_docking_score>  (1) 
-6.1175740739045219

>  <r_i_glide_ecoul>  (1) 
-2.4902838158333203

>  <r_i_glide_eff_state_penalty>  (1) 
-0

>  <r_i_glide_einternal>  (1) 
0

>  <r_i_glide_emodel>  (1) 
-26.344842280331143

>  <r_i_glide_emodel_strain>  (1) 
0

>  <r_i_glide_energy>  (1) 
-18.785882273676453

>  <r_i_glide_erotb>  (1) 
0

>  <r_i_glide_esite>  (1) 
0

>  <r_i_glide_evdw>  (1) 
-16.295598457843134

>  <r_i_glide_gscore>  (1) 
-6.1175740739045219

>  <r_i_glide_gscore_strain>  (1) 
0

>  <r_i_glide_hbond>  (1) 
-0.32000000000000001

>  <r_i_glide_ligand_efficiency>  (1) 
-0.76469675923806524

>  <r_i_glide_ligand_efficiency_ln>  (1) 
-1.9865855516670676

>  <r_i_glide_ligand_efficiency_sa>  (1) 
-1.5293935184761307

>  <r_i_glide_lipo>  (1) 
-2.0748977959296431

>  <r_i_glide_metal>  (1) 
-0

>  <r_i_glide_rewards>  (1) 
-2.5343537827077243

>  <r_lp_Energy>  (1) 
5.5447359999999994

>  <r_lp_tautomer_probability>  (1) 
1

>  <s_epik_cmdline>  (1) 
J2VwaWtfcHl0aG9uJywgJy1waHQnLCAnMS4wJywgJy1waCcsICc3LjQnLCAnLXRuJywgJzgnLCAnLW1hJywgJzUwMCcsICctaW1hZScsICc8aW5maWxlLm1hZT4nLCAnLW9tYWUnLCAnPG91dGZpbGUubWFlPic=

>  <s_epik_input>  (1) 
W0NIM11jKFtjSF0xKVtjSF1bY0hdW2NIXWMxW05IMl0=

>  <s_glide_docking_method>  (1) 
confgen

>  <s_i_glide_gridfile>  (1) 
gpcr_5ht2c_6bqh_protein_autoprepared_prepared

>  <s_lp_Force_Field>  (1) 
S-OPLS

>  <s_lp_Variant>  (1) 
Pocket2Mol_54_num_sample_100-1

>  <s_m_source_file>  (1) 
generated__ligand_Pocket2Mol_2026-05-06_prepared.sdf

>  <GenAI_Model>  (1) 
Pocket2Mol

>  <Protein>  (1) 
GPCR_5HT2C

$$$$
Pocket2Mol_49_num_sample_100
     RDKit          3D

  0  0  0  0  0  0  0  0  0  0999 V3000
M  V30 BEGIN CTAB
M  V30 COUNTS 16 16 0 0 1
M  V30 BEGIN ATOM
M  V30 1 C 39.867403 30.429872 52.705801 0
M  V30 2 C 39.868565 29.350943 51.803264 0
M  V30 3 C 39.067355 28.219742 52.053772 0
M  V30 4 C 39.091144 27.053123 51.091627 0
M  V30 5 C 38.252589 28.175337 53.207667 0
M  V30 6 O 37.467403 27.085759 53.453501 0
M  V30 7 C 39.060226 30.384506 53.858457 0
M  V30 8 C 38.251068 29.258675 54.108459 0
M  V30 9 H 40.486086 31.293551 52.513915 0
M  V30 10 H 40.491817 29.388277 50.921624 0
M  V30 11 H 39.753611 27.254759 50.253501 0
M  V30 12 H 39.469451 26.170492 51.602184 0
M  V30 13 H 38.102705 26.827356 50.703955 0
M  V30 14 H 37.347445 26.531796 52.694504 0
M  V30 15 H 39.059270 31.214547 54.549899 0
M  V30 16 H 37.629701 29.226586 54.991606 0
M  V30 END ATOM
M  V30 BEGIN BOND
M  V30 1 1 2 1
M  V30 2 2 3 2
M  V30 3 1 4 3
M  V30 4 1 5 3
M  V30 5 1 6 5
M  V30 6 2 7 1
M  V30 7 2 8 5
M  V30 8 1 8 7
M  V30 9 1 9 1
M  V30 10 1 10 2
M  V30 11 1 11 4
M  V30 12 1 12 4
M  V30 13 1 13 4
M  V30 14 1 14 6
M  V30 15 1 15 7
M  V30 16 1 16 8
M  V30 END BOND
M  V30 END CTAB
M  END
>  <i_epik_Tot_Q>  (1) 
0

>  <i_epik_Tot_abs_Q>  (1) 
0

>  <i_i_glide_confnum>  (1) 
1

>  <i_i_glide_lignum>  (1) 
52

>  <i_i_glide_posenum>  (1) 
376

>  <i_i_glide_rotatable_bonds>  (1) 
1

>  <i_lp_mmshare_version>  (1) 
72125

>  <i_m_source_file_index>  (1) 
50

>  <i_f3d_flags>  (1) 
0

>  <num_sample>  (1) 
100

>  <b_lp_Chiralities_Consistent>  (1) 
1

>  <r_epik_Charging_Adjusted_Penalty>  (1) 
0

>  <r_epik_Ionization_Penalty>  (1) 
0.00081241911792291806

>  <r_epik_Ionization_Penalty_Charging>  (1) 
0

>  <r_epik_Ionization_Penalty_Neutral>  (1) 
0.00081241911792291806

>  <r_epik_State_Penalty>  (1) 
-0

>  <r_glide_ring_energy>  (1) 
0

>  <r_i_docking_score>  (1) 
-6.1018617543725124

>  <r_i_glide_ecoul>  (1) 
-2.8001791448782614

>  <r_i_glide_eff_state_penalty>  (1) 
-0

>  <r_i_glide_einternal>  (1) 
0.22225366831839055

>  <r_i_glide_emodel>  (1) 
-27.348967428999455

>  <r_i_glide_emodel_strain>  (1) 
0.0016113907642276715

>  <r_i_glide_energy>  (1) 
-19.786809351127634

>  <r_i_glide_erotb>  (1) 
0

>  <r_i_glide_esite>  (1) 
0

>  <r_i_glide_evdw>  (1) 
-16.986630206249373

>  <r_i_glide_gscore>  (1) 
-6.1018617543725124

>  <r_i_glide_gscore_strain>  (1) 
0

>  <r_i_glide_hbond>  (1) 
-0.11997208188732972

>  <r_i_glide_ligand_efficiency>  (1) 
-0.76273271929656405

>  <r_i_glide_ligand_efficiency_ln>  (1) 
-1.9814832240796316

>  <r_i_glide_ligand_efficiency_sa>  (1) 
-1.5254654385931283

>  <r_i_glide_lipo>  (1) 
-2.163913319595633

>  <r_i_glide_metal>  (1) 
-0

>  <r_i_glide_rewards>  (1) 
-2.548617970845342

>  <r_lp_Energy>  (1) 
7.6312429999999996

>  <r_lp_tautomer_probability>  (1) 
1

>  <s_epik_cmdline>  (1) 
J2VwaWtfcHl0aG9uJywgJy1waHQnLCAnMS4wJywgJy1waCcsICc3LjQnLCAnLXRuJywgJzgnLCAnLW1hJywgJzUwMCcsICctaW1hZScsICc8aW5maWxlLm1hZT4nLCAnLW9tYWUnLCAnPG91dGZpbGUubWFlPic=

>  <s_epik_input>  (1) 
W0NIM11jMVtjSF1bY0hdW2NIXVtjSF1jMVtPSF0=

>  <s_glide_docking_method>  (1) 
confgen

>  <s_i_glide_gridfile>  (1) 
gpcr_5ht2c_6bqh_protein_autoprepared_prepared

>  <s_lp_Force_Field>  (1) 
S-OPLS

>  <s_lp_Variant>  (1) 
Pocket2Mol_49_num_sample_100-1

>  <s_m_source_file>  (1) 
generated__ligand_Pocket2Mol_2026-05-06_prepared.sdf

>  <GenAI_Model>  (1) 
Pocket2Mol

>  <Protein>  (1) 
GPCR_5HT2C

$$$$
Pocket2Mol_94_num_sample_100
     RDKit          3D

  0  0  0  0  0  0  0  0  0  0999 V3000
M  V30 BEGIN CTAB
M  V30 COUNTS 16 17 0 0 1
M  V30 BEGIN ATOM
M  V30 1 C 39.867736 30.425475 52.269519 0
M  V30 2 C 39.169946 30.231419 53.503489 0
M  V30 3 C 38.460145 29.068793 53.790926 0
M  V30 4 C 39.060822 31.009216 54.498826 0
M  V30 5 C 38.432621 28.017288 52.790207 0
M  V30 6 C 38.260057 30.305633 55.429434 0
M  V30 7 C 39.093669 28.184761 51.607981 0
M  V30 8 C 37.867404 29.074039 55.011661 0
M  V30 9 O 39.067406 27.221433 50.683473 0
M  V30 10 C 39.838553 29.439253 51.346452 0
M  V30 11 H 40.408097 31.341472 52.079605 0
M  V30 12 H 39.484578 31.996338 54.611865 0
M  V30 13 H 37.887321 27.103934 52.981834 0
M  V30 14 H 37.988174 30.723351 56.388610 0
M  V30 15 H 38.483667 26.542547 50.987512 0
M  V30 16 H 40.359634 29.567418 50.409007 0
M  V30 END ATOM
M  V30 BEGIN BOND
M  V30 1 1 2 1
M  V30 2 1 3 2
M  V30 3 2 4 2
M  V30 4 1 5 3
M  V30 5 1 6 4
M  V30 6 2 7 5
M  V30 7 2 8 3
M  V30 8 2 8 6
M  V30 9 1 9 7
M  V30 10 2 10 1
M  V30 11 1 10 7
M  V30 12 1 11 1
M  V30 13 1 12 4
M  V30 14 1 13 5
M  V30 15 1 14 6
M  V30 16 1 15 9
M  V30 17 1 16 10
M  V30 END BOND
M  V30 END CTAB
M  END
>  <i_epik_Tot_Q>  (1) 
0

>  <i_epik_Tot_abs_Q>  (1) 
0

>  <i_i_glide_confnum>  (1) 
1

>  <i_i_glide_lignum>  (1) 
99

>  <i_i_glide_posenum>  (1) 
223

>  <i_i_glide_rotatable_bonds>  (1) 
1

>  <i_lp_mmshare_version>  (1) 
72125

>  <i_m_source_file_index>  (1) 
95

>  <i_f3d_flags>  (1) 
0

>  <num_sample>  (1) 
100

>  <b_lp_Chiralities_Consistent>  (1) 
1

>  <r_epik_Charging_Adjusted_Penalty>  (1) 
0

>  <r_epik_Ionization_Penalty>  (1) 
1.8682351542324854e-05

>  <r_epik_Ionization_Penalty_Charging>  (1) 
0

>  <r_epik_Ionization_Penalty_Neutral>  (1) 
1.8682351542324854e-05

>  <r_epik_State_Penalty>  (1) 
-0

>  <r_glide_ring_energy>  (1) 
0

>  <r_i_docking_score>  (1) 
-6.0986256338370302

>  <r_i_glide_ecoul>  (1) 
-1.5649065566377725

>  <r_i_glide_eff_state_penalty>  (1) 
-0

>  <r_i_glide_einternal>  (1) 
0.042277523782541682

>  <r_i_glide_emodel>  (1) 
-32.800449774155005

>  <r_i_glide_emodel_strain>  (1) 
0

>  <r_i_glide_energy>  (1) 
-23.454859036240872

>  <r_i_glide_erotb>  (1) 
0

>  <r_i_glide_esite>  (1) 
0

>  <r_i_glide_evdw>  (1) 
-21.8899524796031

>  <r_i_glide_gscore>  (1) 
-6.0986256338370302

>  <r_i_glide_gscore_strain>  (1) 
0

>  <r_i_glide_hbond>  (1) 
0

>  <r_i_glide_ligand_efficiency>  (1) 
-0.60986256338370304

>  <r_i_glide_ligand_efficiency_ln>  (1) 
-1.8466218014410523

>  <r_i_glide_ligand_efficiency_sa>  (1) 
-1.3139090627056185

>  <r_i_glide_lipo>  (1) 
-2.1918165326052494

>  <r_i_glide_metal>  (1) 
-0

>  <r_i_glide_rewards>  (1) 
-2.5775754937559601

>  <r_lp_Energy>  (1) 
8.2800799999999999

>  <r_lp_tautomer_probability>  (1) 
1

>  <s_epik_cmdline>  (1) 
J2VwaWtfcHl0aG9uJywgJy1waHQnLCAnMS4wJywgJy1waCcsICc3LjQnLCAnLXRuJywgJzgnLCAnLW1hJywgJzUwMCcsICctaW1hZScsICc8aW5maWxlLm1hZT4nLCAnLW9tYWUnLCAnPG91dGZpbGUubWFlPic=

>  <s_epik_input>  (1) 
W2NIXTFbY0hdYyhbT0hdKVtjSF1jKGMxPTIpPUM9W0NIXVtDSF0y

>  <s_glide_docking_method>  (1) 
confgen

>  <s_i_glide_gridfile>  (1) 
gpcr_5ht2c_6bqh_protein_autoprepared_prepared

>  <s_lp_Force_Field>  (1) 
S-OPLS

>  <s_lp_Variant>  (1) 
Pocket2Mol_94_num_sample_100-1

>  <s_m_source_file>  (1) 
generated__ligand_Pocket2Mol_2026-05-06_prepared.sdf

>  <GenAI_Model>  (1) 
Pocket2Mol

>  <Protein>  (1) 
GPCR_5HT2C

$$$$
Pocket2Mol_96_num_sample_100
     RDKit          3D

  0  0  0  0  0  0  0  0  0  0999 V3000
M  V30 BEGIN CTAB
M  V30 COUNTS 18 19 0 0 1
M  V30 BEGIN ATOM
M  V30 1 C 37.880512 27.214995 53.193775 0
M  V30 2 C 38.159719 28.415210 53.901528 0
M  V30 3 C 38.562925 27.265673 52.006762 0
M  V30 4 C 38.992669 29.160191 53.120200 0
M  V30 5 N 39.243786 28.461290 51.959144 0
M  V30 6 C 39.616432 30.481020 53.330678 0
M  V30 7 O 39.538426 31.048952 54.416556 0
M  V30 8 C 40.103002 28.898806 50.895002 0
M  V30 9 N 40.263670 31.015091 52.271974 0
M  V30 10 C 40.267409 30.419977 50.928804 0
M  V30 11 H 37.252913 26.397577 53.518049 0
M  V30 12 H 37.789794 28.703027 54.875217 0
M  V30 13 H 38.629566 26.561700 51.190021 0
M  V30 14 H 41.067403 28.421438 51.053499 0
M  V30 15 H 39.711142 28.561649 49.934377 0
M  V30 16 H 40.712341 31.914760 52.384831 0
M  V30 17 H 41.186742 30.706169 50.416463 0
M  V30 18 H 39.456509 30.882152 50.365763 0
M  V30 END ATOM
M  V30 BEGIN BOND
M  V30 1 1 2 1
M  V30 2 2 3 1
M  V30 3 2 4 2
M  V30 4 1 5 3
M  V30 5 1 5 4
M  V30 6 1 6 4
M  V30 7 2 7 6
M  V30 8 1 8 5
M  V30 9 1 9 6
M  V30 10 1 10 8
M  V30 11 1 10 9
M  V30 12 1 11 1
M  V30 13 1 12 2
M  V30 14 1 13 3
M  V30 15 1 14 8
M  V30 16 1 15 8
M  V30 17 1 16 9
M  V30 18 1 17 10
M  V30 19 1 18 10
M  V30 END BOND
M  V30 END CTAB
M  END
>  <i_epik_Tot_Q>  (1) 
0

>  <i_epik_Tot_abs_Q>  (1) 
0

>  <i_i_glide_confnum>  (1) 
1

>  <i_i_glide_lignum>  (1) 
101

>  <i_i_glide_posenum>  (1) 
308

>  <i_i_glide_rotatable_bonds>  (1) 
0

>  <i_lp_mmshare_version>  (1) 
72125

>  <i_m_source_file_index>  (1) 
97

>  <i_f3d_flags>  (1) 
0

>  <num_sample>  (1) 
100

>  <b_lp_Chiralities_Consistent>  (1) 
1

>  <r_epik_Charging_Adjusted_Penalty>  (1) 
0

>  <r_epik_Ionization_Penalty>  (1) 
5.1203149696400337e-08

>  <r_epik_Ionization_Penalty_Charging>  (1) 
0

>  <r_epik_Ionization_Penalty_Neutral>  (1) 
5.1203149696400337e-08

>  <r_epik_State_Penalty>  (1) 
-0

>  <r_glide_ring_energy>  (1) 
0

>  <r_i_docking_score>  (1) 
-6.0982120548695136

>  <r_i_glide_ecoul>  (1) 
-1.6419877815576629

>  <r_i_glide_eff_state_penalty>  (1) 
-0

>  <r_i_glide_einternal>  (1) 
0

>  <r_i_glide_emodel>  (1) 
-30.393770943724032

>  <r_i_glide_emodel_strain>  (1) 
0

>  <r_i_glide_energy>  (1) 
-20.930211945168516

>  <r_i_glide_erotb>  (1) 
0

>  <r_i_glide_esite>  (1) 
0

>  <r_i_glide_evdw>  (1) 
-19.288224163610852

>  <r_i_glide_gscore>  (1) 
-6.0982120548695136

>  <r_i_glide_gscore_strain>  (1) 
0

>  <r_i_glide_hbond>  (1) 
0

>  <r_i_glide_ligand_efficiency>  (1) 
-0.6098212054869514

>  <r_i_glide_ligand_efficiency_ln>  (1) 
-1.8464965725806683

>  <r_i_glide_ligand_efficiency_sa>  (1) 
-1.3138199598181499

>  <r_i_glide_lipo>  (1) 
-1.816736213165008

>  <r_i_glide_metal>  (1) 
-0

>  <r_i_glide_rewards>  (1) 
-3.0707664662903142

>  <r_lp_Energy>  (1) 
15.907292999999999

>  <r_lp_tautomer_probability>  (1) 
1

>  <s_epik_cmdline>  (1) 
J2VwaWtfcHl0aG9uJywgJy1waHQnLCAnMS4wJywgJy1waCcsICc3LjQnLCAnLXRuJywgJzgnLCAnLW1hJywgJzUwMCcsICctaW1hZScsICc8aW5maWxlLm1hZT4nLCAnLW9tYWUnLCAnPG91dGZpbGUubWFlPic=

>  <s_epik_input>  (1) 
W2NIXTFbY0hdW2NIXW4oYzEyKVtDSDJdW0NIMl1bTkhdQzI9Tw==

>  <s_glide_docking_method>  (1) 
confgen

>  <s_i_glide_gridfile>  (1) 
gpcr_5ht2c_6bqh_protein_autoprepared_prepared

>  <s_lp_Force_Field>  (1) 
S-OPLS

>  <s_lp_Variant>  (1) 
Pocket2Mol_96_num_sample_100-1

>  <s_m_source_file>  (1) 
generated__ligand_Pocket2Mol_2026-05-06_prepared.sdf

>  <GenAI_Model>  (1) 
Pocket2Mol

>  <Protein>  (1) 
GPCR_5HT2C

$$$$
Pocket2Mol_73_num_sample_100
     RDKit          3D

  0  0  0  0  0  0  0  0  0  0999 V3000
M  V30 BEGIN CTAB
M  V30 COUNTS 15 16 0 0 1
M  V30 BEGIN ATOM
M  V30 1 C 39.867460 29.109783 50.754398 0
M  V30 2 C 39.200348 28.602183 51.940450 0
M  V30 3 C 40.267404 30.357847 51.067263 0
M  V30 4 C 39.867420 30.655631 52.439495 0
M  V30 5 C 39.229186 29.589434 52.938446 0
M  V30 6 C 38.647915 29.392963 54.229732 0
M  V30 7 N 38.667624 27.465988 52.097646 0
M  V30 8 N 38.076006 28.290153 54.512122 0
M  V30 9 C 38.036393 27.221404 53.444911 0
M  V30 10 H 39.981255 28.547047 49.841725 0
M  V30 11 H 40.798986 31.030296 50.408978 0
M  V30 12 H 40.051725 31.582246 52.962291 0
M  V30 13 H 38.724039 30.224350 54.935522 0
M  V30 14 H 38.482855 26.317701 53.861246 0
M  V30 15 H 36.992510 26.956887 53.277747 0
M  V30 END ATOM
M  V30 BEGIN BOND
M  V30 1 1 2 1
M  V30 2 2 3 1
M  V30 3 1 4 3
M  V30 4 1 5 2
M  V30 5 2 5 4
M  V30 6 1 6 5
M  V30 7 2 7 2
M  V30 8 2 8 6
M  V30 9 1 9 7
M  V30 10 1 9 8
M  V30 11 1 10 1
M  V30 12 1 11 3
M  V30 13 1 12 4
M  V30 14 1 13 6
M  V30 15 1 14 9
M  V30 16 1 15 9
M  V30 END BOND
M  V30 END CTAB
M  END
>  <i_epik_Tot_Q>  (1) 
0

>  <i_epik_Tot_abs_Q>  (1) 
0

>  <i_i_glide_confnum>  (1) 
1

>  <i_i_glide_lignum>  (1) 
78

>  <i_i_glide_posenum>  (1) 
131

>  <i_i_glide_rotatable_bonds>  (1) 
0

>  <i_lp_mmshare_version>  (1) 
72125

>  <i_m_source_file_index>  (1) 
74

>  <i_f3d_flags>  (1) 
0

>  <num_sample>  (1) 
100

>  <b_lp_Chiralities_Consistent>  (1) 
1

>  <r_epik_Charging_Adjusted_Penalty>  (1) 
0

>  <r_epik_Ionization_Penalty>  (1) 
1.1225786931258508e-06

>  <r_epik_Ionization_Penalty_Charging>  (1) 
0

>  <r_epik_Ionization_Penalty_Neutral>  (1) 
1.1225786931258508e-06

>  <r_epik_State_Penalty>  (1) 
-0

>  <r_glide_ring_energy>  (1) 
0

>  <r_i_docking_score>  (1) 
-6.0944407317367189

>  <r_i_glide_ecoul>  (1) 
-0.10269486292669552

>  <r_i_glide_eff_state_penalty>  (1) 
-0

>  <r_i_glide_einternal>  (1) 
0

>  <r_i_glide_emodel>  (1) 
-29.735177382259195

>  <r_i_glide_emodel_strain>  (1) 
0

>  <r_i_glide_energy>  (1) 
-21.413992942475666

>  <r_i_glide_erotb>  (1) 
0

>  <r_i_glide_esite>  (1) 
0

>  <r_i_glide_evdw>  (1) 
-21.311298079548969

>  <r_i_glide_gscore>  (1) 
-6.0944407317367189

>  <r_i_glide_gscore_strain>  (1) 
0

>  <r_i_glide_hbond>  (1) 
0

>  <r_i_glide_ligand_efficiency>  (1) 
-0.6771600813040799

>  <r_i_glide_ligand_efficiency_ln>  (1) 
-1.906165983752798

>  <r_i_glide_ligand_efficiency_sa>  (1) 
-1.4085497307371289

>  <r_i_glide_lipo>  (1) 
-1.1658954605366794

>  <r_i_glide_metal>  (1) 
-0

>  <r_i_glide_rewards>  (1) 
-3.8475761377835864

>  <r_lp_Energy>  (1) 
3.4627279999999998

>  <r_lp_tautomer_probability>  (1) 
1

>  <s_epik_Chemistry_Notes>  (1) 
This compound has an imine and may undergo hydrolysis. This compound contains an acetal/aminal-like group ( X-CH(R)-Y where X, Y are N, S, or O) that may be acid/base labile, releasing an aldehyde.

>  <s_epik_cmdline>  (1) 
J2VwaWtfcHl0aG9uJywgJy1waHQnLCAnMS4wJywgJy1waCcsICc3LjQnLCAnLXRuJywgJzgnLCAnLW1hJywgJzUwMCcsICctaW1hZScsICc8aW5maWxlLm1hZT4nLCAnLW9tYWUnLCAnPG91dGZpbGUubWFlPic=

>  <s_epik_input>  (1) 
W0NIXTE9W0NIXVtDSF09QyhDMT0yKVtDSF09TltDSDJdTjI=

>  <s_glide_docking_method>  (1) 
confgen

>  <s_i_glide_gridfile>  (1) 
gpcr_5ht2c_6bqh_protein_autoprepared_prepared

>  <s_lp_Force_Field>  (1) 
S-OPLS

>  <s_lp_Variant>  (1) 
Pocket2Mol_73_num_sample_100-1

>  <s_m_source_file>  (1) 
generated__ligand_Pocket2Mol_2026-05-06_prepared.sdf

>  <GenAI_Model>  (1) 
Pocket2Mol

>  <Protein>  (1) 
GPCR_5HT2C

$$$$
Pocket2Mol_1_num_sample_100
     RDKit          3D

  0  0  0  0  0  0  0  0  0  0999 V3000
M  V30 BEGIN CTAB
M  V30 COUNTS 19 20 0 0 1
M  V30 BEGIN ATOM
M  V30 1 C 39.545769 30.422152 53.507347 0
M  V30 2 C 39.238975 29.388606 52.551283 0
M  V30 3 C 38.189001 28.406638 52.782800 0 CFG=2
M  V30 4 C 39.867596 29.213248 51.449361 0
M  V30 5 C 37.867403 28.271370 54.265123 0
M  V30 6 C 38.242811 29.202833 55.174827 0
M  V30 7 C 39.454882 28.021456 50.681462 0
M  V30 8 O 37.882310 29.070129 56.456986 0
M  V30 9 N 38.667402 27.359644 51.811995 0
M  V30 10 C 39.055226 30.346836 54.757684 0
M  V30 11 H 40.186480 31.244926 53.227483 0
M  V30 12 H 37.281900 28.814994 52.335843 0
M  V30 13 H 40.683746 29.835840 51.112134 0
M  V30 14 H 37.273389 27.421212 54.567074 0
M  V30 15 H 38.813944 28.319299 49.853384 0
M  V30 16 H 40.268473 27.393333 50.328913 0
M  V30 17 H 38.093535 29.878225 56.899730 0
M  V30 18 H 37.890186 26.816711 51.453501 0
M  V30 19 H 39.301890 31.117617 55.473587 0
M  V30 END ATOM
M  V30 BEGIN BOND
M  V30 1 1 2 1
M  V30 2 1 3 2
M  V30 3 2 4 2
M  V30 4 1 5 3
M  V30 5 2 6 5
M  V30 6 1 7 4
M  V30 7 1 8 6
M  V30 8 1 9 3
M  V30 9 1 9 7
M  V30 10 2 10 1
M  V30 11 1 10 6
M  V30 12 1 11 1
M  V30 13 1 3 12 CFG=3
M  V30 14 1 13 4
M  V30 15 1 14 5
M  V30 16 1 15 7
M  V30 17 1 16 7
M  V30 18 1 17 8
M  V30 19 1 18 9
M  V30 20 1 19 10
M  V30 END BOND
M  V30 END CTAB
M  END
>  <i_epik_Tot_Q>  (1) 
0

>  <i_epik_Tot_abs_Q>  (1) 
0

>  <i_i_glide_confnum>  (1) 
1

>  <i_i_glide_lignum>  (1) 
3

>  <i_i_glide_posenum>  (1) 
201

>  <i_i_glide_rotatable_bonds>  (1) 
1

>  <i_lp_mmshare_version>  (1) 
72125

>  <i_m_source_file_index>  (1) 
2

>  <i_f3d_flags>  (1) 
0

>  <num_sample>  (1) 
100

>  <b_lp_Chiralities_Consistent>  (1) 
1

>  <r_epik_Charging_Adjusted_Penalty>  (1) 
0.0032380173127296522

>  <r_epik_Ionization_Penalty>  (1) 
0.0032399356015129686

>  <r_epik_Ionization_Penalty_Charging>  (1) 
0

>  <r_epik_Ionization_Penalty_Neutral>  (1) 
0.0032399356015129686

>  <r_epik_State_Penalty>  (1) 
0.0032380173127296522

>  <r_glide_ring_energy>  (1) 
0

>  <r_i_docking_score>  (1) 
-6.0941545857354313

>  <r_i_glide_ecoul>  (1) 
-2.2298054095643076

>  <r_i_glide_eff_state_penalty>  (1) 
0.0032380173127296522

>  <r_i_glide_einternal>  (1) 
0.14344225571990421

>  <r_i_glide_emodel>  (1) 
-32.391705009530597

>  <r_i_glide_emodel_strain>  (1) 
0

>  <r_i_glide_energy>  (1) 
-23.338005648725105

>  <r_i_glide_erotb>  (1) 
0

>  <r_i_glide_esite>  (1) 
0

>  <r_i_glide_evdw>  (1) 
-21.108200239160798

>  <r_i_glide_gscore>  (1) 
-6.0973926030481609

>  <r_i_glide_gscore_strain>  (1) 
0

>  <r_i_glide_hbond>  (1) 
-0.18191333632825149

>  <r_i_glide_ligand_efficiency>  (1) 
-0.60941545857354318

>  <r_i_glide_ligand_efficiency_ln>  (1) 
-1.8452679988967715

>  <r_i_glide_ligand_efficiency_sa>  (1) 
-1.3129458045925297

>  <r_i_glide_lipo>  (1) 
-2.0908459155888282

>  <r_i_glide_metal>  (1) 
-0

>  <r_i_glide_rewards>  (1) 
-2.4347525277383957

>  <r_lp_Energy>  (1) 
5.6201189999999999

>  <s_epik_cmdline>  (1) 
J2VwaWtfcHl0aG9uJywgJy1waHQnLCAnMS4wJywgJy1waCcsICc3LjQnLCAnLXRuJywgJzgnLCAnLW1hJywgJzUwMCcsICctaW1hZScsICc8aW5maWxlLm1hZT4nLCAnLW9tYWUnLCAnPG91dGZpbGUubWFlPic=

>  <s_epik_input>  (1) 
W0NIXTE9W0NIXUMoW09IXSk9W0NIXVtDQEBIXShDMT0yKVtOSF1bQ0gyXVtDSF0y

>  <s_glide_docking_method>  (1) 
confgen

>  <s_i_glide_gridfile>  (1) 
gpcr_5ht2c_6bqh_protein_autoprepared_prepared

>  <s_lp_Force_Field>  (1) 
S-OPLS

>  <s_lp_Variant>  (1) 
Pocket2Mol_1_num_sample_100-1

>  <s_m_source_file>  (1) 
generated__ligand_Pocket2Mol_2026-05-06_prepared.sdf

>  <GenAI_Model>  (1) 
Pocket2Mol

>  <Protein>  (1) 
GPCR_5HT2C

$$$$
Pocket2Mol_73_num_sample_100
     RDKit          3D

  0  0  0  0  0  0  0  0  0  0999 V3000
M  V30 BEGIN CTAB
M  V30 COUNTS 15 16 0 0 1
M  V30 BEGIN ATOM
M  V30 1 C 40.119200 29.971816 51.198610 0
M  V30 2 C 39.467429 29.621479 52.448771 0
M  V30 3 C 39.867356 28.948709 50.358831 0
M  V30 4 C 39.067391 27.946283 51.053501 0
M  V30 5 C 38.839052 28.374413 52.301523 0
M  V30 6 C 38.105803 27.755056 53.359784 0
M  V30 7 N 39.439834 30.297022 53.520096 0
M  V30 8 N 37.995092 28.337507 54.487243 0
M  V30 9 C 38.639898 29.696129 54.649540 0
M  V30 10 H 40.673751 30.886066 51.042876 0
M  V30 11 H 40.204447 28.882354 49.335960 0
M  V30 12 H 38.714481 27.016138 50.630833 0
M  V30 13 H 37.659793 26.780243 53.144712 0
M  V30 14 H 37.855898 30.406819 54.917369 0
M  V30 15 H 39.283930 29.656839 55.528897 0
M  V30 END ATOM
M  V30 BEGIN BOND
M  V30 1 1 2 1
M  V30 2 2 3 1
M  V30 3 1 4 3
M  V30 4 1 5 2
M  V30 5 2 5 4
M  V30 6 1 6 5
M  V30 7 2 7 2
M  V30 8 2 8 6
M  V30 9 1 9 7
M  V30 10 1 9 8
M  V30 11 1 10 1
M  V30 12 1 11 3
M  V30 13 1 12 4
M  V30 14 1 13 6
M  V30 15 1 14 9
M  V30 16 1 15 9
M  V30 END BOND
M  V30 END CTAB
M  END
>  <i_epik_Tot_Q>  (1) 
0

>  <i_epik_Tot_abs_Q>  (1) 
0

>  <i_i_glide_confnum>  (1) 
1

>  <i_i_glide_lignum>  (1) 
78

>  <i_i_glide_posenum>  (1) 
353

>  <i_i_glide_rotatable_bonds>  (1) 
0

>  <i_lp_mmshare_version>  (1) 
72125

>  <i_m_source_file_index>  (1) 
74

>  <i_f3d_flags>  (1) 
0

>  <num_sample>  (1) 
100

>  <b_lp_Chiralities_Consistent>  (1) 
1

>  <r_epik_Charging_Adjusted_Penalty>  (1) 
0

>  <r_epik_Ionization_Penalty>  (1) 
1.1225786931258508e-06

>  <r_epik_Ionization_Penalty_Charging>  (1) 
0

>  <r_epik_Ionization_Penalty_Neutral>  (1) 
1.1225786931258508e-06

>  <r_epik_State_Penalty>  (1) 
-0

>  <r_glide_ring_energy>  (1) 
0

>  <r_i_docking_score>  (1) 
-6.0940106039924862

>  <r_i_glide_ecoul>  (1) 
-0.67243325314116376

>  <r_i_glide_eff_state_penalty>  (1) 
-0

>  <r_i_glide_einternal>  (1) 
0

>  <r_i_glide_emodel>  (1) 
-31.122225559119084

>  <r_i_glide_emodel_strain>  (1) 
0

>  <r_i_glide_energy>  (1) 
-22.80162840411688

>  <r_i_glide_erotb>  (1) 
0

>  <r_i_glide_esite>  (1) 
0

>  <r_i_glide_evdw>  (1) 
-22.129195150975715

>  <r_i_glide_gscore>  (1) 
-6.0940106039924862

>  <r_i_glide_gscore_strain>  (1) 
0

>  <r_i_glide_hbond>  (1) 
0

>  <r_i_glide_ligand_efficiency>  (1) 
-0.67711228933249845

>  <r_i_glide_ligand_efficiency_ln>  (1) 
-1.9060314521508326

>  <r_i_glide_ligand_efficiency_sa>  (1) 
-1.4084503194301707

>  <r_i_glide_lipo>  (1) 
-1.3200000000000001

>  <r_i_glide_metal>  (1) 
-0

>  <r_i_glide_rewards>  (1) 
-3.5666858584725256

>  <r_lp_Energy>  (1) 
3.4627279999999998

>  <r_lp_tautomer_probability>  (1) 
1

>  <s_epik_Chemistry_Notes>  (1) 
This compound has an imine and may undergo hydrolysis. This compound contains an acetal/aminal-like group ( X-CH(R)-Y where X, Y are N, S, or O) that may be acid/base labile, releasing an aldehyde.

>  <s_epik_cmdline>  (1) 
J2VwaWtfcHl0aG9uJywgJy1waHQnLCAnMS4wJywgJy1waCcsICc3LjQnLCAnLXRuJywgJzgnLCAnLW1hJywgJzUwMCcsICctaW1hZScsICc8aW5maWxlLm1hZT4nLCAnLW9tYWUnLCAnPG91dGZpbGUubWFlPic=

>  <s_epik_input>  (1) 
W0NIXTE9W0NIXVtDSF09QyhDMT0yKVtDSF09TltDSDJdTjI=

>  <s_glide_docking_method>  (1) 
confgen

>  <s_i_glide_gridfile>  (1) 
gpcr_5ht2c_6bqh_protein_autoprepared_prepared

>  <s_lp_Force_Field>  (1) 
S-OPLS

>  <s_lp_Variant>  (1) 
Pocket2Mol_73_num_sample_100-1

>  <s_m_source_file>  (1) 
generated__ligand_Pocket2Mol_2026-05-06_prepared.sdf

>  <GenAI_Model>  (1) 
Pocket2Mol

>  <Protein>  (1) 
GPCR_5HT2C

$$$$
Pocket2Mol_82_num_sample_100
     RDKit          3D

  0  0  0  0  0  0  0  0  0  0999 V3000
M  V30 BEGIN CTAB
M  V30 COUNTS 16 16 0 0 1
M  V30 BEGIN ATOM
M  V30 1 C 38.608832 29.859996 54.546641 0
M  V30 2 C 39.058871 29.520402 53.144363 0
M  V30 3 C 39.867404 30.421429 52.405225 0
M  V30 4 C 38.665147 28.295897 52.557217 0
M  V30 5 C 39.069273 27.978310 51.246812 0
M  V30 6 C 40.267403 30.096884 51.095131 0
M  V30 7 C 39.867403 28.878931 50.517102 0
M  V30 8 O 37.928321 29.076010 55.202926 0
M  V30 9 N 38.994783 31.053304 55.003186 0
M  V30 10 H 40.177411 31.359502 52.836654 0
M  V30 11 H 38.048610 27.602351 53.111603 0
M  V30 12 H 38.763769 27.043014 50.799534 0
M  V30 13 H 40.880750 30.785861 50.532172 0
M  V30 14 H 40.173355 28.636104 49.511567 0
M  V30 15 H 39.548073 31.661112 54.421420 0
M  V30 16 H 38.718189 31.348042 55.928523 0
M  V30 END ATOM
M  V30 BEGIN BOND
M  V30 1 1 2 1
M  V30 2 1 3 2
M  V30 3 2 4 2
M  V30 4 1 5 4
M  V30 5 2 6 3
M  V30 6 2 7 5
M  V30 7 1 7 6
M  V30 8 2 8 1
M  V30 9 1 9 1
M  V30 10 1 10 3
M  V30 11 1 11 4
M  V30 12 1 12 5
M  V30 13 1 13 6
M  V30 14 1 14 7
M  V30 15 1 15 9
M  V30 16 1 16 9
M  V30 END BOND
M  V30 END CTAB
M  END
>  <i_epik_Tot_Q>  (1) 
0

>  <i_epik_Tot_abs_Q>  (1) 
0

>  <i_i_glide_confnum>  (1) 
1

>  <i_i_glide_lignum>  (1) 
87

>  <i_i_glide_posenum>  (1) 
256

>  <i_i_glide_rotatable_bonds>  (1) 
1

>  <i_lp_mmshare_version>  (1) 
72125

>  <i_m_source_file_index>  (1) 
83

>  <i_f3d_flags>  (1) 
0

>  <num_sample>  (1) 
100

>  <b_lp_Chiralities_Consistent>  (1) 
1

>  <r_epik_Charging_Adjusted_Penalty>  (1) 
0

>  <r_epik_Ionization_Penalty>  (1) 
4.7216645763340487e-07

>  <r_epik_Ionization_Penalty_Charging>  (1) 
0

>  <r_epik_Ionization_Penalty_Neutral>  (1) 
4.7216645763340487e-07

>  <r_epik_State_Penalty>  (1) 
-0

>  <r_glide_ring_energy>  (1) 
0

>  <r_i_docking_score>  (1) 
-6.0919915541230658

>  <r_i_glide_ecoul>  (1) 
-1.2225338447131027

>  <r_i_glide_eff_state_penalty>  (1) 
-0

>  <r_i_glide_einternal>  (1) 
0.042559871894837009

>  <r_i_glide_emodel>  (1) 
-30.451143642844169

>  <r_i_glide_emodel_strain>  (1) 
0

>  <r_i_glide_energy>  (1) 
-21.735886847486842

>  <r_i_glide_erotb>  (1) 
0

>  <r_i_glide_esite>  (1) 
0

>  <r_i_glide_evdw>  (1) 
-20.513353002773741

>  <r_i_glide_gscore>  (1) 
-6.0919915541230658

>  <r_i_glide_gscore_strain>  (1) 
0

>  <r_i_glide_hbond>  (1) 
0

>  <r_i_glide_ligand_efficiency>  (1) 
-0.67688795045811845

>  <r_i_glide_ligand_efficiency_ln>  (1) 
-1.9053999513536308

>  <r_i_glide_ligand_efficiency_sa>  (1) 
-1.407983675766691

>  <r_i_glide_lipo>  (1) 
-1.8442766388901768

>  <r_i_glide_metal>  (1) 
-0

>  <r_i_glide_rewards>  (1) 
-3.0386671883872367

>  <r_lp_Energy>  (1) 
9.4363049999999991

>  <r_lp_tautomer_probability>  (1) 
1

>  <s_epik_cmdline>  (1) 
J2VwaWtfcHl0aG9uJywgJy1waHQnLCAnMS4wJywgJy1waCcsICc3LjQnLCAnLXRuJywgJzgnLCAnLW1hJywgJzUwMCcsICctaW1hZScsICc8aW5maWxlLm1hZT4nLCAnLW9tYWUnLCAnPG91dGZpbGUubWFlPic=

>  <s_epik_input>  (1) 
Tz1DKFtOSDJdKWMxW2NIXVtjSF1bY0hdW2NIXVtjSF0x

>  <s_glide_docking_method>  (1) 
confgen

>  <s_i_glide_gridfile>  (1) 
gpcr_5ht2c_6bqh_protein_autoprepared_prepared

>  <s_lp_Force_Field>  (1) 
S-OPLS

>  <s_lp_Variant>  (1) 
Pocket2Mol_82_num_sample_100-1

>  <s_m_source_file>  (1) 
generated__ligand_Pocket2Mol_2026-05-06_prepared.sdf

>  <GenAI_Model>  (1) 
Pocket2Mol

>  <Protein>  (1) 
GPCR_5HT2C

$$$$
Pocket2Mol_95_num_sample_100
     RDKit          3D

  0  0  0  0  0  0  0  0  0  0999 V3000
M  V30 BEGIN CTAB
M  V30 COUNTS 14 15 0 0 1
M  V30 BEGIN ATOM
M  V30 1 C 40.303574 30.101135 51.036933 0
M  V30 2 C 39.867403 30.485798 52.379039 0
M  V30 3 C 39.174285 29.469263 52.900765 0
M  V30 4 C 39.141646 28.422741 51.954907 0
M  V30 5 C 39.867403 28.848959 50.769897 0
M  V30 6 C 38.543086 29.387024 54.202260 0
M  V30 7 O 38.570889 30.289469 55.036742 0
M  V30 8 N 38.567223 27.315493 52.151768 0
M  V30 9 C 37.910592 27.221430 53.453501 0
M  V30 10 N 37.892404 28.139845 54.385660 0
M  V30 11 H 40.881919 30.719754 50.365513 0
M  V30 12 H 40.067317 31.430630 52.862741 0
M  V30 13 H 39.992851 28.238377 49.889387 0
M  V30 14 H 37.380877 26.290213 53.670344 0
M  V30 END ATOM
M  V30 BEGIN BOND
M  V30 1 1 2 1
M  V30 2 2 3 2
M  V30 3 1 4 3
M  V30 4 2 5 1
M  V30 5 1 5 4
M  V30 6 1 6 3
M  V30 7 2 7 6
M  V30 8 2 8 4
M  V30 9 1 9 8
M  V30 10 1 10 6
M  V30 11 2 10 9
M  V30 12 1 11 1
M  V30 13 1 12 2
M  V30 14 1 13 5
M  V30 15 1 14 9
M  V30 END BOND
M  V30 END CTAB
M  END
>  <i_epik_Tot_Q>  (1) 
0

>  <i_epik_Tot_abs_Q>  (1) 
0

>  <i_i_glide_confnum>  (1) 
1

>  <i_i_glide_lignum>  (1) 
100

>  <i_i_glide_posenum>  (1) 
29

>  <i_i_glide_rotatable_bonds>  (1) 
0

>  <i_lp_mmshare_version>  (1) 
72125

>  <i_m_source_file_index>  (1) 
96

>  <i_f3d_flags>  (1) 
0

>  <num_sample>  (1) 
100

>  <b_lp_Chiralities_Consistent>  (1) 
1

>  <r_epik_Charging_Adjusted_Penalty>  (1) 
0

>  <r_epik_Ionization_Penalty>  (1) 
0.00072225958823983786

>  <r_epik_Ionization_Penalty_Charging>  (1) 
0

>  <r_epik_Ionization_Penalty_Neutral>  (1) 
0.00072225958823983786

>  <r_epik_State_Penalty>  (1) 
-0

>  <r_glide_ring_energy>  (1) 
0

>  <r_i_docking_score>  (1) 
-6.0905091227229944

>  <r_i_glide_ecoul>  (1) 
0.37757995042077397

>  <r_i_glide_eff_state_penalty>  (1) 
-0

>  <r_i_glide_einternal>  (1) 
0

>  <r_i_glide_emodel>  (1) 
-32.114576559265529

>  <r_i_glide_emodel_strain>  (1) 
0

>  <r_i_glide_energy>  (1) 
-23.116612475530061

>  <r_i_glide_erotb>  (1) 
0

>  <r_i_glide_esite>  (1) 
0

>  <r_i_glide_evdw>  (1) 
-23.494192425950835

>  <r_i_glide_gscore>  (1) 
-6.0905091227229944

>  <r_i_glide_gscore_strain>  (1) 
0

>  <r_i_glide_hbond>  (1) 
0

>  <r_i_glide_ligand_efficiency>  (1) 
-0.60905091227229946

>  <r_i_glide_ligand_efficiency_ln>  (1) 
-1.8441641778263713

>  <r_i_glide_ligand_efficiency_sa>  (1) 
-1.3121604133950076

>  <r_i_glide_lipo>  (1) 
-1.1792051438877713

>  <r_i_glide_metal>  (1) 
-0

>  <r_i_glide_rewards>  (1) 
-3.7932313501007977

>  <r_lp_Energy>  (1) 
19.123919000000001

>  <r_lp_tautomer_probability>  (1) 
1

>  <s_epik_Chemistry_Notes>  (1) 
This compound has an imine and may undergo hydrolysis.

>  <s_epik_cmdline>  (1) 
J2VwaWtfcHl0aG9uJywgJy1waHQnLCAnMS4wJywgJy1waCcsICc3LjQnLCAnLXRuJywgJzgnLCAnLW1hJywgJzUwMCcsICctaW1hZScsICc8aW5maWxlLm1hZT4nLCAnLW9tYWUnLCAnPG91dGZpbGUubWFlPic=

>  <s_epik_input>  (1) 
W0NIXT0xW0NIXT1bQ0hdQyhDMTIpPU5bQ0hdPU5DMj1P

>  <s_glide_docking_method>  (1) 
confgen

>  <s_i_glide_gridfile>  (1) 
gpcr_5ht2c_6bqh_protein_autoprepared_prepared

>  <s_lp_Force_Field>  (1) 
S-OPLS

>  <s_lp_Variant>  (1) 
Pocket2Mol_95_num_sample_100-1

>  <s_m_source_file>  (1) 
generated__ligand_Pocket2Mol_2026-05-06_prepared.sdf

>  <GenAI_Model>  (1) 
Pocket2Mol

>  <Protein>  (1) 
GPCR_5HT2C

$$$$
Pocket2Mol_50_num_sample_100
     RDKit          3D

  0  0  0  0  0  0  0  0  0  0999 V3000
M  V30 BEGIN CTAB
M  V30 COUNTS 14 14 0 0 1
M  V30 BEGIN ATOM
M  V30 1 C 38.740482 27.931446 51.453495 0
M  V30 2 C 39.567372 28.975285 50.995582 0
M  V30 3 C 39.929128 30.021419 51.866448 0
M  V30 4 C 39.467409 30.020068 53.198718 0
M  V30 5 C 38.274340 27.933093 52.782507 0
M  V30 6 O 39.818963 31.028454 54.045469 0
M  V30 7 O 37.467401 26.926520 53.223330 0
M  V30 8 C 38.639962 28.975626 53.655715 0
M  V30 9 H 38.462222 27.130771 50.783509 0
M  V30 10 H 39.921379 28.975054 49.975083 0
M  V30 11 H 40.562380 30.822769 51.512979 0
M  V30 12 H 40.279194 31.736996 53.619840 0
M  V30 13 H 37.088285 26.421430 52.511423 0
M  V30 14 H 38.283413 28.976032 54.675636 0
M  V30 END ATOM
M  V30 BEGIN BOND
M  V30 1 1 2 1
M  V30 2 2 3 2
M  V30 3 1 4 3
M  V30 4 2 5 1
M  V30 5 1 6 4
M  V30 6 1 7 5
M  V30 7 2 8 4
M  V30 8 1 8 5
M  V30 9 1 9 1
M  V30 10 1 10 2
M  V30 11 1 11 3
M  V30 12 1 12 6
M  V30 13 1 13 7
M  V30 14 1 14 8
M  V30 END BOND
M  V30 END CTAB
M  END
>  <i_epik_Tot_Q>  (1) 
0

>  <i_epik_Tot_abs_Q>  (1) 
0

>  <i_i_glide_confnum>  (1) 
1

>  <i_i_glide_lignum>  (1) 
53

>  <i_i_glide_posenum>  (1) 
129

>  <i_i_glide_rotatable_bonds>  (1) 
2

>  <i_lp_mmshare_version>  (1) 
72125

>  <i_m_source_file_index>  (1) 
51

>  <i_f3d_flags>  (1) 
0

>  <num_sample>  (1) 
100

>  <b_lp_Chiralities_Consistent>  (1) 
1

>  <r_epik_Charging_Adjusted_Penalty>  (1) 
0.012403777776626769

>  <r_epik_Ionization_Penalty>  (1) 
0.012403777776626781

>  <r_epik_Ionization_Penalty_Charging>  (1) 
0

>  <r_epik_Ionization_Penalty_Neutral>  (1) 
0.012403777776626781

>  <r_epik_State_Penalty>  (1) 
0.012403777776626769

>  <r_glide_ring_energy>  (1) 
0

>  <r_i_docking_score>  (1) 
-6.0779522825120198

>  <r_i_glide_ecoul>  (1) 
-4.599980054531394

>  <r_i_glide_eff_state_penalty>  (1) 
0.012403777776626769

>  <r_i_glide_einternal>  (1) 
0.33976402061918221

>  <r_i_glide_emodel>  (1) 
-29.013856058533179

>  <r_i_glide_emodel_strain>  (1) 
0.0014380867664209873

>  <r_i_glide_energy>  (1) 
-20.820673394527279

>  <r_i_glide_erotb>  (1) 
0

>  <r_i_glide_esite>  (1) 
0

>  <r_i_glide_evdw>  (1) 
-16.220693339995886

>  <r_i_glide_gscore>  (1) 
-6.0903560602886468

>  <r_i_glide_gscore_strain>  (1) 
0

>  <r_i_glide_hbond>  (1) 
-0.32000000000000001

>  <r_i_glide_ligand_efficiency>  (1) 
-0.75974403531400247

>  <r_i_glide_ligand_efficiency_ln>  (1) 
-1.9737190007498879

>  <r_i_glide_ligand_efficiency_sa>  (1) 
-1.5194880706280052

>  <r_i_glide_lipo>  (1) 
-1.8193243851091434

>  <r_i_glide_metal>  (1) 
-0

>  <r_i_glide_rewards>  (1) 
-2.4500000000000002

>  <r_lp_Energy>  (1) 
4.2546869999999997

>  <r_lp_tautomer_probability>  (1) 
0.99999999989799981

>  <s_epik_cmdline>  (1) 
J2VwaWtfcHl0aG9uJywgJy1waHQnLCAnMS4wJywgJy1waCcsICc3LjQnLCAnLXRuJywgJzgnLCAnLW1hJywgJzUwMCcsICctaW1hZScsICc8aW5maWxlLm1hZT4nLCAnLW9tYWUnLCAnPG91dGZpbGUubWFlPic=

>  <s_epik_input>  (1) 
W09IXWMoW2NIXTEpW2NIXVtjSF1bY0hdYzFbT0hd

>  <s_glide_docking_method>  (1) 
confgen

>  <s_i_glide_gridfile>  (1) 
gpcr_5ht2c_6bqh_protein_autoprepared_prepared

>  <s_lp_Force_Field>  (1) 
S-OPLS

>  <s_lp_Variant>  (1) 
Pocket2Mol_50_num_sample_100-1

>  <s_m_source_file>  (1) 
generated__ligand_Pocket2Mol_2026-05-06_prepared.sdf

>  <GenAI_Model>  (1) 
Pocket2Mol

>  <Protein>  (1) 
GPCR_5HT2C

$$$$
Pocket2Mol_79_num_sample_100
     RDKit          3D

  0  0  0  0  0  0  0  0  0  0999 V3000
M  V30 BEGIN CTAB
M  V30 COUNTS 17 18 0 0 1
M  V30 BEGIN ATOM
M  V30 1 C 39.951827 30.417704 52.357022 0
M  V30 2 C 39.066759 29.824946 53.313989 0
M  V30 3 C 38.697005 28.302291 53.246379 0 CFG=2
M  V30 4 C 38.428410 30.508263 54.253503 0
M  V30 5 C 37.503348 29.692519 54.854364 0
M  V30 6 C 38.742961 27.871030 51.790881 0
M  V30 7 C 39.467403 28.541454 50.860100 0
M  V30 8 C 37.561857 28.489430 54.304214 0
M  V30 9 C 40.167201 29.793794 51.183691 0
M  V30 10 H 40.412786 31.372903 52.557559 0
M  V30 11 H 39.467404 27.721257 53.751523 0
M  V30 12 H 38.532161 31.568743 54.434167 0
M  V30 13 H 36.800832 30.000184 55.617592 0
M  V30 14 H 38.224713 26.960914 51.526828 0
M  V30 15 H 39.509548 28.160908 49.853505 0
M  V30 16 H 36.921822 27.666018 54.581138 0
M  V30 17 H 40.811948 30.251183 50.447179 0
M  V30 END ATOM
M  V30 BEGIN BOND
M  V30 1 1 2 1
M  V30 2 1 3 2
M  V30 3 2 4 2
M  V30 4 1 5 4
M  V30 5 1 6 3
M  V30 6 2 7 6
M  V30 7 1 8 3
M  V30 8 2 8 5
M  V30 9 2 9 1
M  V30 10 1 9 7
M  V30 11 1 10 1
M  V30 12 1 3 11 CFG=1
M  V30 13 1 12 4
M  V30 14 1 13 5
M  V30 15 1 14 6
M  V30 16 1 15 7
M  V30 17 1 16 8
M  V30 18 1 17 9
M  V30 END BOND
M  V30 END CTAB
M  END
>  <i_epik_Tot_Q>  (1) 
0

>  <i_epik_Tot_abs_Q>  (1) 
0

>  <i_i_glide_confnum>  (1) 
1

>  <i_i_glide_lignum>  (1) 
84

>  <i_i_glide_posenum>  (1) 
43

>  <i_i_glide_rotatable_bonds>  (1) 
0

>  <i_lp_mmshare_version>  (1) 
72125

>  <i_m_source_file_index>  (1) 
80

>  <i_f3d_flags>  (1) 
0

>  <num_sample>  (1) 
100

>  <b_lp_Chiralities_Consistent>  (1) 
1

>  <r_epik_Charging_Adjusted_Penalty>  (1) 
0

>  <r_epik_Ionization_Penalty>  (1) 
0

>  <r_epik_Ionization_Penalty_Charging>  (1) 
0

>  <r_epik_Ionization_Penalty_Neutral>  (1) 
0

>  <r_epik_State_Penalty>  (1) 
-0

>  <r_glide_ring_energy>  (1) 
0

>  <r_i_docking_score>  (1) 
-6.0761615021721047

>  <r_i_glide_ecoul>  (1) 
-1.3134798442777582

>  <r_i_glide_eff_state_penalty>  (1) 
-0

>  <r_i_glide_einternal>  (1) 
0

>  <r_i_glide_emodel>  (1) 
-28.008849136815346

>  <r_i_glide_emodel_strain>  (1) 
0

>  <r_i_glide_energy>  (1) 
-20.451078917988205

>  <r_i_glide_erotb>  (1) 
0

>  <r_i_glide_esite>  (1) 
0

>  <r_i_glide_evdw>  (1) 
-19.137599073710447

>  <r_i_glide_gscore>  (1) 
-6.0761615021721047

>  <r_i_glide_gscore_strain>  (1) 
0

>  <r_i_glide_hbond>  (1) 
0

>  <r_i_glide_ligand_efficiency>  (1) 
-0.67512905579690052

>  <r_i_glide_ligand_efficiency_ln>  (1) 
-1.9004487658588196

>  <r_i_glide_ligand_efficiency_sa>  (1) 
-1.4043250274354393

>  <r_i_glide_lipo>  (1) 
-2.2052856788134538

>  <r_i_glide_metal>  (1) 
-0

>  <r_i_glide_rewards>  (1) 
-2.7169738930314642

>  <r_lp_Energy>  (1) 
11.987261999999999

>  <r_lp_tautomer_probability>  (1) 
1

>  <s_epik_cmdline>  (1) 
J2VwaWtfcHl0aG9uJywgJy1waHQnLCAnMS4wJywgJy1waCcsICc3LjQnLCAnLXRuJywgJzgnLCAnLW1hJywgJzUwMCcsICctaW1hZScsICc8aW5maWxlLm1hZT4nLCAnLW9tYWUnLCAnPG91dGZpbGUubWFlPic=

>  <s_epik_input>  (1) 
W0NIXTE9W0NIXVtDSF09W0NIXVtDQEBIXShDMT0yKVtDSF09W0NIXVtDSF0y

>  <s_glide_docking_method>  (1) 
confgen

>  <s_i_glide_gridfile>  (1) 
gpcr_5ht2c_6bqh_protein_autoprepared_prepared

>  <s_lp_Force_Field>  (1) 
S-OPLS

>  <s_lp_Variant>  (1) 
Pocket2Mol_79_num_sample_100-1

>  <s_m_source_file>  (1) 
generated__ligand_Pocket2Mol_2026-05-06_prepared.sdf

>  <GenAI_Model>  (1) 
Pocket2Mol

>  <Protein>  (1) 
GPCR_5HT2C

$$$$
Pocket2Mol_81_num_sample_100
     RDKit          3D

  0  0  0  0  0  0  0  0  0  0999 V3000
M  V30 BEGIN CTAB
M  V30 COUNTS 15 16 0 0 1
M  V30 BEGIN ATOM
M  V30 1 C 39.867401 30.321753 52.581502 0
M  V30 2 C 39.067403 29.278174 53.120189 0
M  V30 3 C 38.704883 28.225161 52.253130 0
M  V30 4 C 38.482881 28.967913 54.375945 0
M  V30 5 C 39.101403 28.180094 50.912927 0
M  V30 6 N 37.812026 27.838900 54.340798 0
M  V30 7 N 37.940876 27.385494 53.053513 0
M  V30 8 C 40.267403 30.292718 51.223840 0
M  V30 9 C 39.883635 29.221430 50.391679 0
M  V30 10 H 40.166905 31.147291 53.210870 0
M  V30 11 H 38.529199 29.529822 55.297555 0
M  V30 12 H 38.803382 27.354670 50.283547 0
M  V30 13 H 37.495403 26.524175 52.764937 0
M  V30 14 H 40.870891 31.095352 50.823559 0
M  V30 15 H 40.191070 29.202959 49.356360 0
M  V30 END ATOM
M  V30 BEGIN BOND
M  V30 1 1 2 1
M  V30 2 2 3 2
M  V30 3 1 4 2
M  V30 4 1 5 3
M  V30 5 2 6 4
M  V30 6 1 7 3
M  V30 7 1 7 6
M  V30 8 2 8 1
M  V30 9 2 9 5
M  V30 10 1 9 8
M  V30 11 1 10 1
M  V30 12 1 11 4
M  V30 13 1 12 5
M  V30 14 1 13 7
M  V30 15 1 14 8
M  V30 16 1 15 9
M  V30 END BOND
M  V30 END CTAB
M  END
>  <i_epik_Tot_Q>  (1) 
0

>  <i_epik_Tot_abs_Q>  (1) 
0

>  <i_i_glide_confnum>  (1) 
1

>  <i_i_glide_lignum>  (1) 
86

>  <i_i_glide_posenum>  (1) 
52

>  <i_i_glide_rotatable_bonds>  (1) 
0

>  <i_lp_mmshare_version>  (1) 
72125

>  <i_m_source_file_index>  (1) 
82

>  <i_f3d_flags>  (1) 
0

>  <num_sample>  (1) 
100

>  <b_lp_Chiralities_Consistent>  (1) 
1

>  <r_epik_Charging_Adjusted_Penalty>  (1) 
0

>  <r_epik_Ionization_Penalty>  (1) 
2.5998422111611493e-06

>  <r_epik_Ionization_Penalty_Charging>  (1) 
0

>  <r_epik_Ionization_Penalty_Neutral>  (1) 
2.5998422111611493e-06

>  <r_epik_State_Penalty>  (1) 
-0

>  <r_glide_ring_energy>  (1) 
0

>  <r_i_docking_score>  (1) 
-6.0755653433290977

>  <r_i_glide_ecoul>  (1) 
-2.3414512804705052

>  <r_i_glide_eff_state_penalty>  (1) 
-0

>  <r_i_glide_einternal>  (1) 
0

>  <r_i_glide_emodel>  (1) 
-31.103722344243618

>  <r_i_glide_emodel_strain>  (1) 
0

>  <r_i_glide_energy>  (1) 
-22.575783703247573

>  <r_i_glide_erotb>  (1) 
0

>  <r_i_glide_esite>  (1) 
0

>  <r_i_glide_evdw>  (1) 
-20.234332422777069

>  <r_i_glide_gscore>  (1) 
-6.0755653433290977

>  <r_i_glide_gscore_strain>  (1) 
0

>  <r_i_glide_hbond>  (1) 
-0.023055937485809315

>  <r_i_glide_ligand_efficiency>  (1) 
-0.67506281592545525

>  <r_i_glide_ligand_efficiency_ln>  (1) 
-1.900262304498791

>  <r_i_glide_ligand_efficiency_sa>  (1) 
-1.4041872429504052

>  <r_i_glide_lipo>  (1) 
-2.0978777579779297

>  <r_i_glide_metal>  (1) 
-0

>  <r_i_glide_rewards>  (1) 
-2.5916973346559291

>  <r_lp_Energy>  (1) 
10.425352

>  <r_lp_tautomer_probability>  (1) 
1

>  <s_epik_cmdline>  (1) 
J2VwaWtfcHl0aG9uJywgJy1waHQnLCAnMS4wJywgJy1waCcsICc3LjQnLCAnLXRuJywgJzgnLCAnLW1hJywgJzUwMCcsICctaW1hZScsICc8aW5maWxlLm1hZT4nLCAnLW9tYWUnLCAnPG91dGZpbGUubWFlPic=

>  <s_epik_input>  (1) 
W2NIXTFbY0hdW2NIXVtjSF1jKGMxMiluW25IXVtjSF0y

>  <s_glide_docking_method>  (1) 
confgen

>  <s_i_glide_gridfile>  (1) 
gpcr_5ht2c_6bqh_protein_autoprepared_prepared

>  <s_lp_Force_Field>  (1) 
S-OPLS

>  <s_lp_Variant>  (1) 
Pocket2Mol_81_num_sample_100-1

>  <s_m_source_file>  (1) 
generated__ligand_Pocket2Mol_2026-05-06_prepared.sdf

>  <GenAI_Model>  (1) 
Pocket2Mol

>  <Protein>  (1) 
GPCR_5HT2C

$$$$
Pocket2Mol_93_num_sample_100
     RDKit          3D

  0  0  0  0  0  0  0  0  0  0999 V3000
M  V30 BEGIN CTAB
M  V30 COUNTS 17 18 0 0 1
M  V30 BEGIN ATOM
M  V30 1 C 37.867298 28.589638 54.445194 0
M  V30 2 C 38.543592 28.653173 53.212225 0
M  V30 3 C 39.388573 29.758795 52.897849 0
M  V30 4 C 38.389578 27.621346 52.273601 0
M  V30 5 C 39.528485 30.780223 53.861921 0
M  V30 6 N 40.035713 29.833331 51.706367 0
M  V30 7 C 39.067389 27.712331 51.053502 0
M  V30 8 C 38.017519 29.621372 55.383301 0
M  V30 9 C 39.867437 28.836025 50.812181 0
M  V30 10 C 38.847506 30.714104 55.093676 0
M  V30 11 H 37.228919 27.747424 54.667884 0
M  V30 12 H 37.757347 26.773941 52.488011 0
M  V30 13 H 40.162883 31.621430 53.649420 0
M  V30 14 H 38.968386 26.935537 50.307898 0
M  V30 15 H 37.494171 29.575455 56.328420 0
M  V30 16 H 40.393163 28.939631 49.875542 0
M  V30 17 H 38.963417 31.508447 55.817096 0
M  V30 END ATOM
M  V30 BEGIN BOND
M  V30 1 2 2 1
M  V30 2 1 3 2
M  V30 3 1 4 2
M  V30 4 2 5 3
M  V30 5 1 6 3
M  V30 6 2 7 4
M  V30 7 1 8 1
M  V30 8 2 9 6
M  V30 9 1 9 7
M  V30 10 1 10 5
M  V30 11 2 10 8
M  V30 12 1 11 1
M  V30 13 1 12 4
M  V30 14 1 13 5
M  V30 15 1 14 7
M  V30 16 1 15 8
M  V30 17 1 16 9
M  V30 18 1 17 10
M  V30 END BOND
M  V30 END CTAB
M  END
>  <i_epik_Tot_Q>  (1) 
0

>  <i_epik_Tot_abs_Q>  (1) 
0

>  <i_i_glide_confnum>  (1) 
1

>  <i_i_glide_lignum>  (1) 
98

>  <i_i_glide_posenum>  (1) 
255

>  <i_i_glide_rotatable_bonds>  (1) 
0

>  <i_lp_mmshare_version>  (1) 
72125

>  <i_m_source_file_index>  (1) 
94

>  <i_f3d_flags>  (1) 
0

>  <num_sample>  (1) 
100

>  <b_lp_Chiralities_Consistent>  (1) 
1

>  <r_epik_Charging_Adjusted_Penalty>  (1) 
0

>  <r_epik_Ionization_Penalty>  (1) 
0.0026406434276513078

>  <r_epik_Ionization_Penalty_Charging>  (1) 
0

>  <r_epik_Ionization_Penalty_Neutral>  (1) 
0.0026406434276513078

>  <r_epik_State_Penalty>  (1) 
-0

>  <r_glide_ring_energy>  (1) 
0

>  <r_i_docking_score>  (1) 
-6.0753882428941566

>  <r_i_glide_ecoul>  (1) 
-1.0778485109025908

>  <r_i_glide_eff_state_penalty>  (1) 
-0

>  <r_i_glide_einternal>  (1) 
0

>  <r_i_glide_emodel>  (1) 
-30.71348791536715

>  <r_i_glide_emodel_strain>  (1) 
0

>  <r_i_glide_energy>  (1) 
-22.36342830742495

>  <r_i_glide_erotb>  (1) 
0

>  <r_i_glide_esite>  (1) 
0

>  <r_i_glide_evdw>  (1) 
-21.285579796522359

>  <r_i_glide_gscore>  (1) 
-6.0753882428941566

>  <r_i_glide_gscore_strain>  (1) 
0

>  <r_i_glide_hbond>  (1) 
0

>  <r_i_glide_ligand_efficiency>  (1) 
-0.60753882428941564

>  <r_i_glide_ligand_efficiency_ln>  (1) 
-1.8395856796490149

>  <r_i_glide_ligand_efficiency_sa>  (1) 
-1.3089027185903024

>  <r_i_glide_lipo>  (1) 
-2.189285234824724

>  <r_i_glide_metal>  (1) 
-0

>  <r_i_glide_rewards>  (1) 
-2.6601467416079263

>  <r_lp_Energy>  (1) 
20.260538

>  <r_lp_tautomer_probability>  (1) 
1

>  <s_epik_cmdline>  (1) 
J2VwaWtfcHl0aG9uJywgJy1waHQnLCAnMS4wJywgJy1waCcsICc3LjQnLCAnLXRuJywgJzgnLCAnLW1hJywgJzUwMCcsICctaW1hZScsICc8aW5maWxlLm1hZT4nLCAnLW9tYWUnLCAnPG91dGZpbGUubWFlPic=

>  <s_epik_input>  (1) 
W2NIXTFbY0hdW2NIXVtjSF1jKGMxMiluW2NIXVtjSF1bY0hdMg==

>  <s_glide_docking_method>  (1) 
confgen

>  <s_i_glide_gridfile>  (1) 
gpcr_5ht2c_6bqh_protein_autoprepared_prepared

>  <s_lp_Force_Field>  (1) 
S-OPLS

>  <s_lp_Variant>  (1) 
Pocket2Mol_93_num_sample_100-1

>  <s_m_source_file>  (1) 
generated__ligand_Pocket2Mol_2026-05-06_prepared.sdf

>  <GenAI_Model>  (1) 
Pocket2Mol

>  <Protein>  (1) 
GPCR_5HT2C

$$$$
Pocket2Mol_49_num_sample_100
     RDKit          3D

  0  0  0  0  0  0  0  0  0  0999 V3000
M  V30 BEGIN CTAB
M  V30 COUNTS 16 16 0 0 1
M  V30 BEGIN ATOM
M  V30 1 C 38.716019 30.425012 54.368358 0
M  V30 2 C 39.583460 30.421620 53.258776 0
M  V30 3 C 39.467426 29.418002 52.273464 0
M  V30 4 C 40.397256 29.419889 51.074701 0
M  V30 5 C 38.479954 28.415372 52.404336 0
M  V30 6 O 38.361953 27.442546 51.453567 0
M  V30 7 C 37.732555 29.426152 54.497518 0
M  V30 8 C 37.614046 28.421553 53.516674 0
M  V30 9 H 38.803823 31.195847 55.120553 0
M  V30 10 H 40.335524 31.191088 53.161524 0
M  V30 11 H 41.022991 30.312432 51.052669 0
M  V30 12 H 41.046527 28.545854 51.107467 0
M  V30 13 H 39.821289 29.388959 50.148775 0
M  V30 14 H 37.569979 26.920436 51.511903 0
M  V30 15 H 37.067404 29.431569 55.349221 0
M  V30 16 H 36.858674 27.655826 53.618645 0
M  V30 END ATOM
M  V30 BEGIN BOND
M  V30 1 1 2 1
M  V30 2 2 3 2
M  V30 3 1 4 3
M  V30 4 1 5 3
M  V30 5 1 6 5
M  V30 6 2 7 1
M  V30 7 2 8 5
M  V30 8 1 8 7
M  V30 9 1 9 1
M  V30 10 1 10 2
M  V30 11 1 11 4
M  V30 12 1 12 4
M  V30 13 1 13 4
M  V30 14 1 14 6
M  V30 15 1 15 7
M  V30 16 1 16 8
M  V30 END BOND
M  V30 END CTAB
M  END
>  <i_epik_Tot_Q>  (1) 
0

>  <i_epik_Tot_abs_Q>  (1) 
0

>  <i_i_glide_confnum>  (1) 
1

>  <i_i_glide_lignum>  (1) 
52

>  <i_i_glide_posenum>  (1) 
237

>  <i_i_glide_rotatable_bonds>  (1) 
1

>  <i_lp_mmshare_version>  (1) 
72125

>  <i_m_source_file_index>  (1) 
50

>  <i_f3d_flags>  (1) 
0

>  <num_sample>  (1) 
100

>  <b_lp_Chiralities_Consistent>  (1) 
1

>  <r_epik_Charging_Adjusted_Penalty>  (1) 
0

>  <r_epik_Ionization_Penalty>  (1) 
0.00081241911792291806

>  <r_epik_Ionization_Penalty_Charging>  (1) 
0

>  <r_epik_Ionization_Penalty_Neutral>  (1) 
0.00081241911792291806

>  <r_epik_State_Penalty>  (1) 
-0

>  <r_glide_ring_energy>  (1) 
0

>  <r_i_docking_score>  (1) 
-6.0747829119440722

>  <r_i_glide_ecoul>  (1) 
-3.5145354662210631

>  <r_i_glide_eff_state_penalty>  (1) 
-0

>  <r_i_glide_einternal>  (1) 
0.13261105168951093

>  <r_i_glide_emodel>  (1) 
-27.858208102996244

>  <r_i_glide_emodel_strain>  (1) 
0

>  <r_i_glide_energy>  (1) 
-20.283676981279516

>  <r_i_glide_erotb>  (1) 
0

>  <r_i_glide_esite>  (1) 
0

>  <r_i_glide_evdw>  (1) 
-16.769141515058454

>  <r_i_glide_gscore>  (1) 
-6.0747829119440722

>  <r_i_glide_gscore_strain>  (1) 
0

>  <r_i_glide_hbond>  (1) 
-0.32000000000000001

>  <r_i_glide_ligand_efficiency>  (1) 
-0.75934786399300902

>  <r_i_glide_ligand_efficiency_ln>  (1) 
-1.9726897977190623

>  <r_i_glide_ligand_efficiency_sa>  (1) 
-1.5186957279860183

>  <r_i_glide_lipo>  (1) 
-1.8783223651983019

>  <r_i_glide_metal>  (1) 
-0

>  <r_i_glide_rewards>  (1) 
-2.5108231510596886

>  <r_lp_Energy>  (1) 
7.6312429999999996

>  <r_lp_tautomer_probability>  (1) 
1

>  <s_epik_cmdline>  (1) 
J2VwaWtfcHl0aG9uJywgJy1waHQnLCAnMS4wJywgJy1waCcsICc3LjQnLCAnLXRuJywgJzgnLCAnLW1hJywgJzUwMCcsICctaW1hZScsICc8aW5maWxlLm1hZT4nLCAnLW9tYWUnLCAnPG91dGZpbGUubWFlPic=

>  <s_epik_input>  (1) 
W0NIM11jMVtjSF1bY0hdW2NIXVtjSF1jMVtPSF0=

>  <s_glide_docking_method>  (1) 
confgen

>  <s_i_glide_gridfile>  (1) 
gpcr_5ht2c_6bqh_protein_autoprepared_prepared

>  <s_lp_Force_Field>  (1) 
S-OPLS

>  <s_lp_Variant>  (1) 
Pocket2Mol_49_num_sample_100-1

>  <s_m_source_file>  (1) 
generated__ligand_Pocket2Mol_2026-05-06_prepared.sdf

>  <GenAI_Model>  (1) 
Pocket2Mol

>  <Protein>  (1) 
GPCR_5HT2C

$$$$
Pocket2Mol_1_num_sample_100
     RDKit          3D

  0  0  0  0  0  0  0  0  0  0999 V3000
M  V30 BEGIN CTAB
M  V30 COUNTS 19 20 0 0 1
M  V30 BEGIN ATOM
M  V30 1 C 38.811832 27.800899 51.887953 0
M  V30 2 C 38.727543 28.346195 53.220676 0
M  V30 3 C 39.005066 29.749541 53.503313 0 CFG=2
M  V30 4 C 38.459508 27.658440 54.267474 0
M  V30 5 C 39.867405 30.376614 52.414498 0
M  V30 6 C 40.026901 29.804220 51.195875 0
M  V30 7 C 38.564619 28.399721 55.544349 0
M  V30 8 O 40.751216 30.421277 50.253503 0
M  V30 9 N 39.291150 29.621461 54.977026 0
M  V30 10 C 39.420073 28.502933 50.914499 0
M  V30 11 H 38.410459 26.821436 51.676274 0
M  V30 12 H 38.048340 30.270134 53.453504 0
M  V30 13 H 38.243733 26.599859 54.256700 0
M  V30 14 H 40.316858 31.333585 52.632052 0
M  V30 15 H 37.579272 28.649070 55.938855 0
M  V30 16 H 39.165095 27.881350 56.292355 0
M  V30 17 H 41.026438 31.258048 50.598639 0
M  V30 18 H 39.033153 30.463024 55.475073 0
M  V30 19 H 39.495414 28.083028 49.922804 0
M  V30 END ATOM
M  V30 BEGIN BOND
M  V30 1 1 2 1
M  V30 2 1 3 2
M  V30 3 2 4 2
M  V30 4 1 5 3
M  V30 5 2 6 5
M  V30 6 1 7 4
M  V30 7 1 8 6
M  V30 8 1 9 3
M  V30 9 1 9 7
M  V30 10 2 10 1
M  V30 11 1 10 6
M  V30 12 1 11 1
M  V30 13 1 3 12 CFG=1
M  V30 14 1 13 4
M  V30 15 1 14 5
M  V30 16 1 15 7
M  V30 17 1 16 7
M  V30 18 1 17 8
M  V30 19 1 18 9
M  V30 20 1 19 10
M  V30 END BOND
M  V30 END CTAB
M  END
>  <i_epik_Tot_Q>  (1) 
0

>  <i_epik_Tot_abs_Q>  (1) 
0

>  <i_i_glide_confnum>  (1) 
1

>  <i_i_glide_lignum>  (1) 
3

>  <i_i_glide_posenum>  (1) 
188

>  <i_i_glide_rotatable_bonds>  (1) 
1

>  <i_lp_mmshare_version>  (1) 
72125

>  <i_m_source_file_index>  (1) 
2

>  <i_f3d_flags>  (1) 
0

>  <num_sample>  (1) 
100

>  <b_lp_Chiralities_Consistent>  (1) 
1

>  <r_epik_Charging_Adjusted_Penalty>  (1) 
0.0032380173127296522

>  <r_epik_Ionization_Penalty>  (1) 
0.0032399356015129686

>  <r_epik_Ionization_Penalty_Charging>  (1) 
0

>  <r_epik_Ionization_Penalty_Neutral>  (1) 
0.0032399356015129686

>  <r_epik_State_Penalty>  (1) 
0.0032380173127296522

>  <r_glide_ring_energy>  (1) 
0

>  <r_i_docking_score>  (1) 
-6.0735784801855894

>  <r_i_glide_ecoul>  (1) 
-1.7945380666867743

>  <r_i_glide_eff_state_penalty>  (1) 
0.0032380173127296522

>  <r_i_glide_einternal>  (1) 
0.04220508190233252

>  <r_i_glide_emodel>  (1) 
-33.017637293822546

>  <r_i_glide_emodel_strain>  (1) 
0

>  <r_i_glide_energy>  (1) 
-23.944113757323912

>  <r_i_glide_erotb>  (1) 
0

>  <r_i_glide_esite>  (1) 
0

>  <r_i_glide_evdw>  (1) 
-22.149575690637139

>  <r_i_glide_gscore>  (1) 
-6.076816497498319

>  <r_i_glide_gscore_strain>  (1) 
0

>  <r_i_glide_hbond>  (1) 
0

>  <r_i_glide_ligand_efficiency>  (1) 
-0.60735784801855897

>  <r_i_glide_ligand_efficiency_ln>  (1) 
-1.8390376959763439

>  <r_i_glide_ligand_efficiency_sa>  (1) 
-1.3085128170342961

>  <r_i_glide_lipo>  (1) 
-2.2418236696301133

>  <r_i_glide_metal>  (1) 
-0

>  <r_i_glide_rewards>  (1) 
-2.4583333333333335

>  <r_lp_Energy>  (1) 
5.6201189999999999

>  <s_epik_cmdline>  (1) 
J2VwaWtfcHl0aG9uJywgJy1waHQnLCAnMS4wJywgJy1waCcsICc3LjQnLCAnLXRuJywgJzgnLCAnLW1hJywgJzUwMCcsICctaW1hZScsICc8aW5maWxlLm1hZT4nLCAnLW9tYWUnLCAnPG91dGZpbGUubWFlPic=

>  <s_epik_input>  (1) 
W0NIXTE9W0NIXUMoW09IXSk9W0NIXVtDQEBIXShDMT0yKVtOSF1bQ0gyXVtDSF0y

>  <s_glide_docking_method>  (1) 
confgen

>  <s_i_glide_gridfile>  (1) 
gpcr_5ht2c_6bqh_protein_autoprepared_prepared

>  <s_lp_Force_Field>  (1) 
S-OPLS

>  <s_lp_Variant>  (1) 
Pocket2Mol_1_num_sample_100-1

>  <s_m_source_file>  (1) 
generated__ligand_Pocket2Mol_2026-05-06_prepared.sdf

>  <GenAI_Model>  (1) 
Pocket2Mol

>  <Protein>  (1) 
GPCR_5HT2C

$$$$
Pocket2Mol_91_num_sample_100
     RDKit          3D

  0  0  0  0  0  0  0  0  0  0999 V3000
M  V30 BEGIN CTAB
M  V30 COUNTS 14 15 0 0 1
M  V30 BEGIN ATOM
M  V30 1 C 39.849155 28.810408 50.652746 0
M  V30 2 C 40.051940 29.873573 51.568532 0
M  V30 3 C 39.466971 29.753546 52.831684 0
M  V30 4 C 39.476474 30.586776 53.887938 0
M  V30 5 C 39.067411 27.679984 51.051666 0
M  V30 6 C 38.741013 28.730552 53.203469 0
M  V30 7 N 38.257366 28.899213 54.523265 0
M  V30 8 C 38.729251 30.033373 54.846178 0
M  V30 9 C 38.499898 27.644821 52.353586 0
M  V30 10 H 40.275413 28.854003 49.662140 0
M  V30 11 H 40.635768 30.742988 51.299856 0
M  V30 12 H 39.719577 31.630844 53.778365 0
M  V30 13 H 38.904154 26.862378 50.364367 0
M  V30 14 H 37.896638 26.809429 52.674766 0
M  V30 END ATOM
M  V30 BEGIN BOND
M  V30 1 1 2 1
M  V30 2 2 3 2
M  V30 3 1 4 3
M  V30 4 2 5 1
M  V30 5 1 6 3
M  V30 6 1 7 6
M  V30 7 2 8 4
M  V30 8 2 8 7
M  V30 9 1 9 5
M  V30 10 2 9 6
M  V30 11 1 10 1
M  V30 12 1 11 2
M  V30 13 1 12 4
M  V30 14 1 13 5
M  V30 15 1 14 9
M  V30 END BOND
M  V30 END CTAB
M  END
>  <i_epik_Tot_Q>  (1) 
0

>  <i_epik_Tot_abs_Q>  (1) 
0

>  <i_i_glide_confnum>  (1) 
1

>  <i_i_glide_lignum>  (1) 
96

>  <i_i_glide_posenum>  (1) 
59

>  <i_i_glide_rotatable_bonds>  (1) 
0

>  <i_lp_mmshare_version>  (1) 
72125

>  <i_m_source_file_index>  (1) 
92

>  <i_f3d_flags>  (1) 
0

>  <num_sample>  (1) 
100

>  <b_lp_Chiralities_Consistent>  (1) 
1

>  <r_epik_Charging_Adjusted_Penalty>  (1) 
0

>  <r_epik_Ionization_Penalty>  (1) 
7.4584844087238395e-05

>  <r_epik_Ionization_Penalty_Charging>  (1) 
0

>  <r_epik_Ionization_Penalty_Neutral>  (1) 
7.4584844087238395e-05

>  <r_epik_State_Penalty>  (1) 
-0

>  <r_glide_ring_energy>  (1) 
0

>  <r_i_docking_score>  (1) 
-6.0725327208024176

>  <r_i_glide_ecoul>  (1) 
-1.0250779585375887

>  <r_i_glide_eff_state_penalty>  (1) 
-0

>  <r_i_glide_einternal>  (1) 
0

>  <r_i_glide_emodel>  (1) 
-29.954297874877529

>  <r_i_glide_emodel_strain>  (1) 
0

>  <r_i_glide_energy>  (1) 
-21.826273855541892

>  <r_i_glide_erotb>  (1) 
0

>  <r_i_glide_esite>  (1) 
0

>  <r_i_glide_evdw>  (1) 
-20.801195897004302

>  <r_i_glide_gscore>  (1) 
-6.0725327208024176

>  <r_i_glide_gscore_strain>  (1) 
0

>  <r_i_glide_hbond>  (1) 
0

>  <r_i_glide_ligand_efficiency>  (1) 
-0.67472585786693529

>  <r_i_glide_ligand_efficiency_ln>  (1) 
-1.8993137872916555

>  <r_i_glide_ligand_efficiency_sa>  (1) 
-1.4034863419438306

>  <r_i_glide_lipo>  (1) 
-2.2772411159784247

>  <r_i_glide_metal>  (1) 
-0

>  <r_i_glide_rewards>  (1) 
-2.6014701161931395

>  <r_lp_Energy>  (1) 
14.311973999999999

>  <r_lp_tautomer_probability>  (1) 
1

>  <s_epik_Chemistry_Notes>  (1) 
This compound has an imine and may undergo hydrolysis.

>  <s_epik_cmdline>  (1) 
J2VwaWtfcHl0aG9uJywgJy1waHQnLCAnMS4wJywgJy1waCcsICc3LjQnLCAnLXRuJywgJzgnLCAnLW1hJywgJzUwMCcsICctaW1hZScsICc8aW5maWxlLm1hZT4nLCAnLW9tYWUnLCAnPG91dGZpbGUubWFlPic=

>  <s_epik_input>  (1) 
W2NIXTFbY0hdW2NIXVtjSF1jKGMxMilOPUM9W0NIXTI=

>  <s_glide_docking_method>  (1) 
confgen

>  <s_i_glide_gridfile>  (1) 
gpcr_5ht2c_6bqh_protein_autoprepared_prepared

>  <s_lp_Force_Field>  (1) 
S-OPLS

>  <s_lp_Variant>  (1) 
Pocket2Mol_91_num_sample_100-1

>  <s_m_source_file>  (1) 
generated__ligand_Pocket2Mol_2026-05-06_prepared.sdf

>  <GenAI_Model>  (1) 
Pocket2Mol

>  <Protein>  (1) 
GPCR_5HT2C

$$$$
Pocket2Mol_97_num_sample_100
     RDKit          3D

  0  0  0  0  0  0  0  0  0  0999 V3000
M  V30 BEGIN CTAB
M  V30 COUNTS 17 18 0 0 1
M  V30 BEGIN ATOM
M  V30 1 C 37.862392 28.735227 54.376109 0
M  V30 2 C 38.540288 28.686285 53.141501 0
M  V30 3 C 39.421762 29.730779 52.778109 0
M  V30 4 C 38.359519 27.611265 52.251232 0
M  V30 5 C 39.067722 27.624918 51.034035 0
M  V30 6 C 39.624192 30.821411 53.648176 0
M  V30 7 C 38.944461 30.866688 54.881870 0
M  V30 8 C 40.080848 29.644939 51.534881 0
M  V30 9 N 39.911309 28.616268 50.677017 0
M  V30 10 C 38.065689 29.826136 55.244980 0
M  V30 11 H 37.187895 27.941097 54.659900 0
M  V30 12 H 37.696147 26.793410 52.489073 0
M  V30 13 H 38.953539 26.816587 50.326790 0
M  V30 14 H 40.296650 31.621429 53.374532 0
M  V30 15 H 39.097092 31.701021 55.551349 0
M  V30 16 H 40.762699 30.420157 51.217095 0
M  V30 17 H 37.546907 29.865265 56.191678 0
M  V30 END ATOM
M  V30 BEGIN BOND
M  V30 1 2 2 1
M  V30 2 1 3 2
M  V30 3 1 4 2
M  V30 4 2 5 4
M  V30 5 2 6 3
M  V30 6 1 7 6
M  V30 7 1 8 3
M  V30 8 1 9 5
M  V30 9 2 9 8
M  V30 10 1 10 1
M  V30 11 2 10 7
M  V30 12 1 11 1
M  V30 13 1 12 4
M  V30 14 1 13 5
M  V30 15 1 14 6
M  V30 16 1 15 7
M  V30 17 1 16 8
M  V30 18 1 17 10
M  V30 END BOND
M  V30 END CTAB
M  END
>  <i_epik_Tot_Q>  (1) 
0

>  <i_epik_Tot_abs_Q>  (1) 
0

>  <i_i_glide_confnum>  (1) 
1

>  <i_i_glide_lignum>  (1) 
102

>  <i_i_glide_posenum>  (1) 
358

>  <i_i_glide_rotatable_bonds>  (1) 
0

>  <i_lp_mmshare_version>  (1) 
72125

>  <i_m_source_file_index>  (1) 
98

>  <i_f3d_flags>  (1) 
0

>  <num_sample>  (1) 
100

>  <b_lp_Chiralities_Consistent>  (1) 
1

>  <r_epik_Charging_Adjusted_Penalty>  (1) 
0.015036794032578672

>  <r_epik_Ionization_Penalty>  (1) 
0.01503679403257876

>  <r_epik_Ionization_Penalty_Charging>  (1) 
0

>  <r_epik_Ionization_Penalty_Neutral>  (1) 
0.01503679403257876

>  <r_epik_State_Penalty>  (1) 
0.015036794032578672

>  <r_glide_ring_energy>  (1) 
0

>  <r_i_docking_score>  (1) 
-6.0714466932471245

>  <r_i_glide_ecoul>  (1) 
-1.3665851109121983

>  <r_i_glide_eff_state_penalty>  (1) 
0.015036794032578672

>  <r_i_glide_einternal>  (1) 
0

>  <r_i_glide_emodel>  (1) 
-31.030904799946086

>  <r_i_glide_emodel_strain>  (1) 
0

>  <r_i_glide_energy>  (1) 
-22.584804409698773

>  <r_i_glide_erotb>  (1) 
0

>  <r_i_glide_esite>  (1) 
0

>  <r_i_glide_evdw>  (1) 
-21.218219298786575

>  <r_i_glide_gscore>  (1) 
-6.0864834872797031

>  <r_i_glide_gscore_strain>  (1) 
0

>  <r_i_glide_hbond>  (1) 
0

>  <r_i_glide_ligand_efficiency>  (1) 
-0.60714466932471245

>  <r_i_glide_ligand_efficiency_ln>  (1) 
-1.8383922055867132

>  <r_i_glide_ligand_efficiency_sa>  (1) 
-1.3080535374610975

>  <r_i_glide_lipo>  (1) 
-2.2868813751013768

>  <r_i_glide_metal>  (1) 
-0

>  <r_i_glide_rewards>  (1) 
-2.5337033806021676

>  <r_lp_Energy>  (1) 
19.776892999999998

>  <s_epik_cmdline>  (1) 
J2VwaWtfcHl0aG9uJywgJy1waHQnLCAnMS4wJywgJy1waCcsICc3LjQnLCAnLXRuJywgJzgnLCAnLW1hJywgJzUwMCcsICctaW1hZScsICc8aW5maWxlLm1hZT4nLCAnLW9tYWUnLCAnPG91dGZpbGUubWFlPic=

>  <s_epik_input>  (1) 
W2NIXTFbY0hdW2NIXVtjSF1jKGMxMilbY0hdbltjSF1bY0hdMg==

>  <s_glide_docking_method>  (1) 
confgen

>  <s_i_glide_gridfile>  (1) 
gpcr_5ht2c_6bqh_protein_autoprepared_prepared

>  <s_lp_Force_Field>  (1) 
S-OPLS

>  <s_lp_Variant>  (1) 
Pocket2Mol_97_num_sample_100-1

>  <s_m_source_file>  (1) 
generated__ligand_Pocket2Mol_2026-05-06_prepared.sdf

>  <GenAI_Model>  (1) 
Pocket2Mol

>  <Protein>  (1) 
GPCR_5HT2C

$$$$
Pocket2Mol_87_num_sample_100
     RDKit          3D

  0  0  0  0  0  0  0  0  0  0999 V3000
M  V30 BEGIN CTAB
M  V30 COUNTS 18 18 0 0 1
M  V30 BEGIN ATOM
M  V30 1 C 40.267190 30.177556 51.053574 0
M  V30 2 C 39.867550 30.421422 52.380613 0
M  V30 3 C 39.060980 29.480048 53.073569 0
M  V30 4 C 38.627337 29.749001 54.485233 0
M  V30 5 N 39.050869 30.950120 55.020963 0
M  V30 6 C 37.872299 28.886700 55.192871 0
M  V30 7 C 39.867542 29.000127 50.402418 0
M  V30 8 C 38.670052 28.288980 52.403664 0
M  V30 9 C 39.074441 28.055523 51.075820 0
M  V30 10 H 40.879044 30.900641 50.533362 0
M  V30 11 H 40.179099 31.331781 52.865380 0
M  V30 12 H 39.508429 31.644021 54.449520 0
M  V30 13 H 40.172489 28.821449 49.383560 0
M  V30 14 H 38.059100 27.556388 52.901252 0
M  V30 15 H 38.771332 27.148688 50.572380 0
M  V30 16 H 37.577967 29.116849 56.206951 0
M  V30 17 H 37.539260 27.951187 54.779941 0
M  V30 18 H 38.703761 31.276590 55.912324 0
M  V30 END ATOM
M  V30 BEGIN BOND
M  V30 1 1 2 1
M  V30 2 2 3 2
M  V30 3 1 4 3
M  V30 4 1 5 4
M  V30 5 2 6 4
M  V30 6 2 7 1
M  V30 7 1 8 3
M  V30 8 1 9 7
M  V30 9 2 9 8
M  V30 10 1 10 1
M  V30 11 1 11 2
M  V30 12 1 12 5
M  V30 13 1 13 7
M  V30 14 1 14 8
M  V30 15 1 15 9
M  V30 16 1 16 6
M  V30 17 1 17 6
M  V30 18 1 18 5
M  V30 END BOND
M  V30 END CTAB
M  END
>  <i_epik_Tot_Q>  (1) 
0

>  <i_epik_Tot_abs_Q>  (1) 
0

>  <i_i_glide_confnum>  (1) 
1

>  <i_i_glide_lignum>  (1) 
92

>  <i_i_glide_posenum>  (1) 
209

>  <i_i_glide_rotatable_bonds>  (1) 
1

>  <i_lp_mmshare_version>  (1) 
72125

>  <i_m_source_file_index>  (1) 
88

>  <i_f3d_flags>  (1) 
0

>  <num_sample>  (1) 
100

>  <b_lp_Chiralities_Consistent>  (1) 
1

>  <r_epik_Charging_Adjusted_Penalty>  (1) 
0.00088152279553634463

>  <r_epik_Ionization_Penalty>  (1) 
0.001176351566598113

>  <r_epik_Ionization_Penalty_Charging>  (1) 
0.00088152279553634463

>  <r_epik_Ionization_Penalty_Neutral>  (1) 
0.00029482877106176849

>  <r_epik_State_Penalty>  (1) 
-0

>  <r_glide_ring_energy>  (1) 
0

>  <r_i_docking_score>  (1) 
-6.0650930718775422

>  <r_i_glide_ecoul>  (1) 
-1.2568707224525166

>  <r_i_glide_eff_state_penalty>  (1) 
-0

>  <r_i_glide_einternal>  (1) 
0.0025682996050415685

>  <r_i_glide_emodel>  (1) 
-27.855207530016887

>  <r_i_glide_emodel_strain>  (1) 
0.00038154815392132946

>  <r_i_glide_energy>  (1) 
-20.160102516212653

>  <r_i_glide_erotb>  (1) 
0

>  <r_i_glide_esite>  (1) 
0

>  <r_i_glide_evdw>  (1) 
-18.903231793760138

>  <r_i_glide_gscore>  (1) 
-6.0650930718775422

>  <r_i_glide_gscore_strain>  (1) 
0

>  <r_i_glide_hbond>  (1) 
0

>  <r_i_glide_ligand_efficiency>  (1) 
-0.67389923020861575

>  <r_i_glide_ligand_efficiency_ln>  (1) 
-1.896986878829356

>  <r_i_glide_ligand_efficiency_sa>  (1) 
-1.4017668871240729

>  <r_i_glide_lipo>  (1) 
-2.1378156270222859

>  <r_i_glide_metal>  (1) 
-0

>  <r_i_glide_rewards>  (1) 
-2.7935852467993714

>  <r_lp_Energy>  (1) 
13.175675

>  <r_lp_tautomer_probability>  (1) 
1

>  <s_epik_Chemistry_Notes>  (1) 
This compound has an imine and may undergo hydrolysis.

>  <s_epik_cmdline>  (1) 
J2VwaWtfcHl0aG9uJywgJy1waHQnLCAnMS4wJywgJy1waCcsICc3LjQnLCAnLXRuJywgJzgnLCAnLW1hJywgJzUwMCcsICctaW1hZScsICc8aW5maWxlLm1hZT4nLCAnLW9tYWUnLCAnPG91dGZpbGUubWFlPic=

>  <s_epik_input>  (1) 
W2NIXTFbY0hdW2NIXVtjSF1bY0hdYzEvQyg9Ti9bSF0pW0NIM10=

>  <s_glide_docking_method>  (1) 
confgen

>  <s_i_glide_gridfile>  (1) 
gpcr_5ht2c_6bqh_protein_autoprepared_prepared

>  <s_lp_Force_Field>  (1) 
S-OPLS

>  <s_lp_Variant>  (1) 
Pocket2Mol_87_num_sample_100-1

>  <s_m_source_file>  (1) 
generated__ligand_Pocket2Mol_2026-05-06_prepared.sdf

>  <GenAI_Model>  (1) 
Pocket2Mol

>  <Protein>  (1) 
GPCR_5HT2C

$$$$
Pocket2Mol_69_num_sample_100
     RDKit          3D

  0  0  0  0  0  0  0  0  0  0999 V3000
M  V30 BEGIN CTAB
M  V30 COUNTS 15 16 0 0 1
M  V30 BEGIN ATOM
M  V30 1 C 40.541797 30.421429 50.470942 0
M  V30 2 O 40.267403 30.821430 51.847394 0
M  V30 3 O 40.027134 29.090875 50.162763 0
M  V30 4 C 39.599883 29.741816 52.263528 0
M  V30 5 C 39.469370 28.791064 51.338931 0
M  V30 6 C 38.796803 27.589668 51.605555 0
M  V30 7 C 38.244305 27.390346 52.892746 0
M  V30 8 C 39.067403 29.596623 53.555436 0
M  V30 9 C 38.379386 28.403667 53.876278 0
M  V30 10 H 41.619374 30.439294 50.302252 0
M  V30 11 H 40.075260 31.144309 49.800408 0
M  V30 12 H 38.701273 26.831006 50.841722 0
M  V30 13 H 37.720262 26.474084 53.123320 0
M  V30 14 H 39.182036 30.380899 54.289276 0
M  V30 15 H 37.959955 28.265220 54.862274 0
M  V30 END ATOM
M  V30 BEGIN BOND
M  V30 1 1 2 1
M  V30 2 1 3 1
M  V30 3 1 4 2
M  V30 4 1 5 3
M  V30 5 1 5 4
M  V30 6 2 6 5
M  V30 7 1 7 6
M  V30 8 2 8 4
M  V30 9 2 9 7
M  V30 10 1 9 8
M  V30 11 1 10 1
M  V30 12 1 11 1
M  V30 13 1 12 6
M  V30 14 1 13 7
M  V30 15 1 14 8
M  V30 16 1 15 9
M  V30 END BOND
M  V30 END CTAB
M  END
>  <i_epik_Tot_Q>  (1) 
0

>  <i_epik_Tot_abs_Q>  (1) 
0

>  <i_i_glide_confnum>  (1) 
1

>  <i_i_glide_lignum>  (1) 
74

>  <i_i_glide_posenum>  (1) 
369

>  <i_i_glide_rotatable_bonds>  (1) 
0

>  <i_lp_mmshare_version>  (1) 
72125

>  <i_m_source_file_index>  (1) 
70

>  <i_f3d_flags>  (1) 
0

>  <num_sample>  (1) 
100

>  <b_lp_Chiralities_Consistent>  (1) 
1

>  <r_epik_Charging_Adjusted_Penalty>  (1) 
0

>  <r_epik_Ionization_Penalty>  (1) 
0

>  <r_epik_Ionization_Penalty_Charging>  (1) 
0

>  <r_epik_Ionization_Penalty_Neutral>  (1) 
0

>  <r_epik_State_Penalty>  (1) 
-0

>  <r_glide_ring_energy>  (1) 
0

>  <r_i_docking_score>  (1) 
-6.0605169001884498

>  <r_i_glide_ecoul>  (1) 
-0.68524739310047955

>  <r_i_glide_eff_state_penalty>  (1) 
-0

>  <r_i_glide_einternal>  (1) 
0

>  <r_i_glide_emodel>  (1) 
-29.045231990591684

>  <r_i_glide_emodel_strain>  (1) 
0

>  <r_i_glide_energy>  (1) 
-21.2816179748271

>  <r_i_glide_erotb>  (1) 
0

>  <r_i_glide_esite>  (1) 
0

>  <r_i_glide_evdw>  (1) 
-20.596370581726621

>  <r_i_glide_gscore>  (1) 
-6.0605169001884498

>  <r_i_glide_gscore_strain>  (1) 
0

>  <r_i_glide_hbond>  (1) 
0

>  <r_i_glide_ligand_efficiency>  (1) 
-0.67339076668760556

>  <r_i_glide_ligand_efficiency_ln>  (1) 
-1.8955555837862956

>  <r_i_glide_ligand_efficiency_sa>  (1) 
-1.4007092403794075

>  <r_i_glide_lipo>  (1) 
-1.7841861244060071

>  <r_i_glide_metal>  (1) 
-0

>  <r_i_glide_rewards>  (1) 
-3.1437251377310393

>  <r_lp_Energy>  (1) 
19.342499999999998

>  <r_lp_tautomer_probability>  (1) 
1

>  <s_epik_Chemistry_Notes>  (1) 
This compound contains an acetal/aminal-like group ( X-CH(R)-Y where X, Y are N, S, or O) that may be acid/base labile, releasing an aldehyde.

>  <s_epik_cmdline>  (1) 
J2VwaWtfcHl0aG9uJywgJy1waHQnLCAnMS4wJywgJy1waCcsICc3LjQnLCAnLXRuJywgJzgnLCAnLW1hJywgJzUwMCcsICctaW1hZScsICc8aW5maWxlLm1hZT4nLCAnLW9tYWUnLCAnPG91dGZpbGUubWFlPic=

>  <s_epik_input>  (1) 
TzFbQ0gyXU9jKGMxMilbY0hdW2NIXVtjSF1bY0hdMg==

>  <s_glide_docking_method>  (1) 
confgen

>  <s_i_glide_gridfile>  (1) 
gpcr_5ht2c_6bqh_protein_autoprepared_prepared

>  <s_lp_Force_Field>  (1) 
S-OPLS

>  <s_lp_Variant>  (1) 
Pocket2Mol_69_num_sample_100-1

>  <s_m_source_file>  (1) 
generated__ligand_Pocket2Mol_2026-05-06_prepared.sdf

>  <GenAI_Model>  (1) 
Pocket2Mol

>  <Protein>  (1) 
GPCR_5HT2C

$$$$
Pocket2Mol_87_num_sample_100
     RDKit          3D

  0  0  0  0  0  0  0  0  0  0999 V3000
M  V30 BEGIN CTAB
M  V30 COUNTS 18 18 0 0 1
M  V30 BEGIN ATOM
M  V30 1 C 40.149145 29.344364 51.512524 0
M  V30 2 C 39.765803 30.108108 52.633943 0
M  V30 3 C 38.681313 29.688186 53.453501 0
M  V30 4 C 38.248525 30.504915 54.640733 0
M  V30 5 N 37.153240 30.022878 55.333427 0
M  V30 6 C 38.874697 31.638010 55.012527 0
M  V30 7 C 39.467360 28.157537 51.200879 0
M  V30 8 C 38.002717 28.485703 53.123696 0
M  V30 9 C 38.398073 27.729928 52.004561 0
M  V30 10 H 40.970319 29.672512 50.893048 0
M  V30 11 H 40.298253 31.016354 52.856338 0
M  V30 12 H 36.609812 29.257179 54.972536 0
M  V30 13 H 39.764016 27.572776 50.342189 0
M  V30 14 H 37.177085 28.143035 53.726772 0
M  V30 15 H 37.874001 26.821431 51.760767 0
M  V30 16 H 38.532348 32.200573 55.869690 0
M  V30 17 H 39.725382 32.018273 54.477638 0
M  V30 18 H 36.685635 30.596396 56.034766 0
M  V30 END ATOM
M  V30 BEGIN BOND
M  V30 1 1 2 1
M  V30 2 2 3 2
M  V30 3 1 4 3
M  V30 4 1 5 4
M  V30 5 2 6 4
M  V30 6 2 7 1
M  V30 7 1 8 3
M  V30 8 1 9 7
M  V30 9 2 9 8
M  V30 10 1 10 1
M  V30 11 1 11 2
M  V30 12 1 12 5
M  V30 13 1 13 7
M  V30 14 1 14 8
M  V30 15 1 15 9
M  V30 16 1 16 6
M  V30 17 1 17 6
M  V30 18 1 18 5
M  V30 END BOND
M  V30 END CTAB
M  END
>  <i_epik_Tot_Q>  (1) 
0

>  <i_epik_Tot_abs_Q>  (1) 
0

>  <i_i_glide_confnum>  (1) 
1

>  <i_i_glide_lignum>  (1) 
92

>  <i_i_glide_posenum>  (1) 
383

>  <i_i_glide_rotatable_bonds>  (1) 
1

>  <i_lp_mmshare_version>  (1) 
72125

>  <i_m_source_file_index>  (1) 
88

>  <i_f3d_flags>  (1) 
0

>  <num_sample>  (1) 
100

>  <b_lp_Chiralities_Consistent>  (1) 
1

>  <r_epik_Charging_Adjusted_Penalty>  (1) 
0.00088152279553634463

>  <r_epik_Ionization_Penalty>  (1) 
0.001176351566598113

>  <r_epik_Ionization_Penalty_Charging>  (1) 
0.00088152279553634463

>  <r_epik_Ionization_Penalty_Neutral>  (1) 
0.00029482877106176849

>  <r_epik_State_Penalty>  (1) 
-0

>  <r_glide_ring_energy>  (1) 
0

>  <r_i_docking_score>  (1) 
-6.0484012582093731

>  <r_i_glide_ecoul>  (1) 
-2.5910101410371507

>  <r_i_glide_eff_state_penalty>  (1) 
-0

>  <r_i_glide_einternal>  (1) 
0.077677083877521369

>  <r_i_glide_emodel>  (1) 
-27.587678678760032

>  <r_i_glide_emodel_strain>  (1) 
0.0067149508290604842

>  <r_i_glide_energy>  (1) 
-19.957643832575769

>  <r_i_glide_erotb>  (1) 
0

>  <r_i_glide_esite>  (1) 
-0.075965350377601673

>  <r_i_glide_evdw>  (1) 
-17.36663369153862

>  <r_i_glide_gscore>  (1) 
-6.0484012582093731

>  <r_i_glide_gscore_strain>  (1) 
0

>  <r_i_glide_hbond>  (1) 
-0.16

>  <r_i_glide_ligand_efficiency>  (1) 
-0.67204458424548585

>  <r_i_glide_ligand_efficiency_ln>  (1) 
-1.891766159025533

>  <r_i_glide_ligand_efficiency_sa>  (1) 
-1.3979090680586781

>  <r_i_glide_lipo>  (1) 
-2.0637860354326016

>  <r_i_glide_metal>  (1) 
-0

>  <r_i_glide_rewards>  (1) 
-2.4916666666666667

>  <r_lp_Energy>  (1) 
13.175675

>  <r_lp_tautomer_probability>  (1) 
1

>  <s_epik_Chemistry_Notes>  (1) 
This compound has an imine and may undergo hydrolysis.

>  <s_epik_cmdline>  (1) 
J2VwaWtfcHl0aG9uJywgJy1waHQnLCAnMS4wJywgJy1waCcsICc3LjQnLCAnLXRuJywgJzgnLCAnLW1hJywgJzUwMCcsICctaW1hZScsICc8aW5maWxlLm1hZT4nLCAnLW9tYWUnLCAnPG91dGZpbGUubWFlPic=

>  <s_epik_input>  (1) 
W2NIXTFbY0hdW2NIXVtjSF1bY0hdYzEvQyg9Ti9bSF0pW0NIM10=

>  <s_glide_docking_method>  (1) 
confgen

>  <s_i_glide_gridfile>  (1) 
gpcr_5ht2c_6bqh_protein_autoprepared_prepared

>  <s_lp_Force_Field>  (1) 
S-OPLS

>  <s_lp_Variant>  (1) 
Pocket2Mol_87_num_sample_100-1

>  <s_m_source_file>  (1) 
generated__ligand_Pocket2Mol_2026-05-06_prepared.sdf

>  <GenAI_Model>  (1) 
Pocket2Mol

>  <Protein>  (1) 
GPCR_5HT2C

$$$$
Pocket2Mol_82_num_sample_100
     RDKit          3D

  0  0  0  0  0  0  0  0  0  0999 V3000
M  V30 BEGIN CTAB
M  V30 COUNTS 16 16 0 0 1
M  V30 BEGIN ATOM
M  V30 1 C 38.492108 30.854558 54.716706 0
M  V30 2 C 38.860674 30.007604 53.532024 0
M  V30 3 C 39.867403 30.417845 52.626038 0
M  V30 4 C 38.168326 28.800111 53.288635 0
M  V30 5 C 38.490332 28.004288 52.171837 0
M  V30 6 C 40.188451 29.621469 51.509108 0
M  V30 7 C 39.502109 28.413500 51.282981 0
M  V30 8 O 39.067540 31.913823 54.954287 0
M  V30 9 N 37.467401 30.421429 55.453450 0
M  V30 10 H 40.397271 31.347550 52.773497 0
M  V30 11 H 37.386862 28.475683 53.961064 0
M  V30 12 H 37.958531 27.080604 51.996553 0
M  V30 13 H 40.959194 29.939956 50.822624 0
M  V30 14 H 39.747623 27.803925 50.425729 0
M  V30 15 H 36.997631 29.564155 55.205303 0
M  V30 16 H 37.164166 30.965639 56.247019 0
M  V30 END ATOM
M  V30 BEGIN BOND
M  V30 1 1 2 1
M  V30 2 1 3 2
M  V30 3 2 4 2
M  V30 4 1 5 4
M  V30 5 2 6 3
M  V30 6 2 7 5
M  V30 7 1 7 6
M  V30 8 2 8 1
M  V30 9 1 9 1
M  V30 10 1 10 3
M  V30 11 1 11 4
M  V30 12 1 12 5
M  V30 13 1 13 6
M  V30 14 1 14 7
M  V30 15 1 15 9
M  V30 16 1 16 9
M  V30 END BOND
M  V30 END CTAB
M  END
>  <i_epik_Tot_Q>  (1) 
0

>  <i_epik_Tot_abs_Q>  (1) 
0

>  <i_i_glide_confnum>  (1) 
1

>  <i_i_glide_lignum>  (1) 
87

>  <i_i_glide_posenum>  (1) 
372

>  <i_i_glide_rotatable_bonds>  (1) 
1

>  <i_lp_mmshare_version>  (1) 
72125

>  <i_m_source_file_index>  (1) 
83

>  <i_f3d_flags>  (1) 
0

>  <num_sample>  (1) 
100

>  <b_lp_Chiralities_Consistent>  (1) 
1

>  <r_epik_Charging_Adjusted_Penalty>  (1) 
0

>  <r_epik_Ionization_Penalty>  (1) 
4.7216645763340487e-07

>  <r_epik_Ionization_Penalty_Charging>  (1) 
0

>  <r_epik_Ionization_Penalty_Neutral>  (1) 
4.7216645763340487e-07

>  <r_epik_State_Penalty>  (1) 
-0

>  <r_glide_ring_energy>  (1) 
0

>  <r_i_docking_score>  (1) 
-6.0472591280634047

>  <r_i_glide_ecoul>  (1) 
-2.40206851953499

>  <r_i_glide_eff_state_penalty>  (1) 
-0

>  <r_i_glide_einternal>  (1) 
0.25651103642548634

>  <r_i_glide_emodel>  (1) 
-30.490683370299621

>  <r_i_glide_emodel_strain>  (1) 
3.2415513295802612e-07

>  <r_i_glide_energy>  (1) 
-21.946553339071361

>  <r_i_glide_erotb>  (1) 
0

>  <r_i_glide_esite>  (1) 
-0.071970239971998404

>  <r_i_glide_evdw>  (1) 
-19.544484819536372

>  <r_i_glide_gscore>  (1) 
-6.0472591280634047

>  <r_i_glide_gscore_strain>  (1) 
0

>  <r_i_glide_hbond>  (1) 
-0.090306663917593469

>  <r_i_glide_ligand_efficiency>  (1) 
-0.67191768089593384

>  <r_i_glide_ligand_efficiency_ln>  (1) 
-1.8914089335262469

>  <r_i_glide_ligand_efficiency_sa>  (1) 
-1.3976450984541837

>  <r_i_glide_lipo>  (1) 
-1.8250653622721837

>  <r_i_glide_metal>  (1) 
-0

>  <r_i_glide_rewards>  (1) 
-2.7223823429945617

>  <r_lp_Energy>  (1) 
9.4363049999999991

>  <r_lp_tautomer_probability>  (1) 
1

>  <s_epik_cmdline>  (1) 
J2VwaWtfcHl0aG9uJywgJy1waHQnLCAnMS4wJywgJy1waCcsICc3LjQnLCAnLXRuJywgJzgnLCAnLW1hJywgJzUwMCcsICctaW1hZScsICc8aW5maWxlLm1hZT4nLCAnLW9tYWUnLCAnPG91dGZpbGUubWFlPic=

>  <s_epik_input>  (1) 
Tz1DKFtOSDJdKWMxW2NIXVtjSF1bY0hdW2NIXVtjSF0x

>  <s_glide_docking_method>  (1) 
confgen

>  <s_i_glide_gridfile>  (1) 
gpcr_5ht2c_6bqh_protein_autoprepared_prepared

>  <s_lp_Force_Field>  (1) 
S-OPLS

>  <s_lp_Variant>  (1) 
Pocket2Mol_82_num_sample_100-1

>  <s_m_source_file>  (1) 
generated__ligand_Pocket2Mol_2026-05-06_prepared.sdf

>  <GenAI_Model>  (1) 
Pocket2Mol

>  <Protein>  (1) 
GPCR_5HT2C

$$$$
Pocket2Mol_50_num_sample_100
     RDKit          3D

  0  0  0  0  0  0  0  0  0  0999 V3000
M  V30 BEGIN CTAB
M  V30 COUNTS 14 14 0 0 1
M  V30 BEGIN ATOM
M  V30 1 C 38.613157 29.218068 53.752601 0
M  V30 2 C 39.467394 30.297227 53.453508 0
M  V30 3 C 40.020147 30.421429 52.164037 0
M  V30 4 C 39.724847 29.465989 51.173892 0
M  V30 5 C 38.311841 28.261973 52.762532 0
M  V30 6 O 40.260128 29.593161 49.924779 0
M  V30 7 O 37.476853 27.221484 53.053501 0
M  V30 8 C 38.870640 28.383506 51.472206 0
M  V30 9 H 38.185786 29.125794 54.740975 0
M  V30 10 H 39.695526 31.032140 54.211845 0
M  V30 11 H 40.670740 31.251640 51.934530 0
M  V30 12 H 39.794407 29.085895 49.277012 0
M  V30 13 H 37.161448 26.745270 52.293546 0
M  V30 14 H 38.641877 27.650383 50.712754 0
M  V30 END ATOM
M  V30 BEGIN BOND
M  V30 1 1 2 1
M  V30 2 2 3 2
M  V30 3 1 4 3
M  V30 4 2 5 1
M  V30 5 1 6 4
M  V30 6 1 7 5
M  V30 7 2 8 4
M  V30 8 1 8 5
M  V30 9 1 9 1
M  V30 10 1 10 2
M  V30 11 1 11 3
M  V30 12 1 12 6
M  V30 13 1 13 7
M  V30 14 1 14 8
M  V30 END BOND
M  V30 END CTAB
M  END
>  <i_epik_Tot_Q>  (1) 
0

>  <i_epik_Tot_abs_Q>  (1) 
0

>  <i_i_glide_confnum>  (1) 
1

>  <i_i_glide_lignum>  (1) 
53

>  <i_i_glide_posenum>  (1) 
75

>  <i_i_glide_rotatable_bonds>  (1) 
2

>  <i_lp_mmshare_version>  (1) 
72125

>  <i_m_source_file_index>  (1) 
51

>  <i_f3d_flags>  (1) 
0

>  <num_sample>  (1) 
100

>  <b_lp_Chiralities_Consistent>  (1) 
1

>  <r_epik_Charging_Adjusted_Penalty>  (1) 
0.012403777776626769

>  <r_epik_Ionization_Penalty>  (1) 
0.012403777776626781

>  <r_epik_Ionization_Penalty_Charging>  (1) 
0

>  <r_epik_Ionization_Penalty_Neutral>  (1) 
0.012403777776626781

>  <r_epik_State_Penalty>  (1) 
0.012403777776626769

>  <r_glide_ring_energy>  (1) 
0

>  <r_i_docking_score>  (1) 
-6.0413498094965172

>  <r_i_glide_ecoul>  (1) 
-4.5087189311277065

>  <r_i_glide_eff_state_penalty>  (1) 
0.012403777776626769

>  <r_i_glide_einternal>  (1) 
0.38005790788591115

>  <r_i_glide_emodel>  (1) 
-29.529584678576139

>  <r_i_glide_emodel_strain>  (1) 
0.013718159265753371

>  <r_i_glide_energy>  (1) 
-21.419098913706478

>  <r_i_glide_erotb>  (1) 
0

>  <r_i_glide_esite>  (1) 
0

>  <r_i_glide_evdw>  (1) 
-16.910379982578771

>  <r_i_glide_gscore>  (1) 
-6.0537535872731443

>  <r_i_glide_gscore_strain>  (1) 
0

>  <r_i_glide_hbond>  (1) 
-0.32000000000000001

>  <r_i_glide_ligand_efficiency>  (1) 
-0.75516872618706465

>  <r_i_glide_ligand_efficiency_ln>  (1) 
-1.961832925784641

>  <r_i_glide_ligand_efficiency_sa>  (1) 
-1.5103374523741295

>  <r_i_glide_lipo>  (1) 
-1.8145306304135809

>  <r_i_glide_metal>  (1) 
-0

>  <r_i_glide_rewards>  (1) 
-2.3973961180614682

>  <r_lp_Energy>  (1) 
4.2546869999999997

>  <r_lp_tautomer_probability>  (1) 
0.99999999989799981

>  <s_epik_cmdline>  (1) 
J2VwaWtfcHl0aG9uJywgJy1waHQnLCAnMS4wJywgJy1waCcsICc3LjQnLCAnLXRuJywgJzgnLCAnLW1hJywgJzUwMCcsICctaW1hZScsICc8aW5maWxlLm1hZT4nLCAnLW9tYWUnLCAnPG91dGZpbGUubWFlPic=

>  <s_epik_input>  (1) 
W09IXWMoW2NIXTEpW2NIXVtjSF1bY0hdYzFbT0hd

>  <s_glide_docking_method>  (1) 
confgen

>  <s_i_glide_gridfile>  (1) 
gpcr_5ht2c_6bqh_protein_autoprepared_prepared

>  <s_lp_Force_Field>  (1) 
S-OPLS

>  <s_lp_Variant>  (1) 
Pocket2Mol_50_num_sample_100-1

>  <s_m_source_file>  (1) 
generated__ligand_Pocket2Mol_2026-05-06_prepared.sdf

>  <GenAI_Model>  (1) 
Pocket2Mol

>  <Protein>  (1) 
GPCR_5HT2C

$$$$
Pocket2Mol_64_num_sample_100
     RDKit          3D

  0  0  0  0  0  0  0  0  0  0999 V3000
M  V30 BEGIN CTAB
M  V30 COUNTS 15 15 0 0 1
M  V30 BEGIN ATOM
M  V30 1 C 38.607598 29.204380 53.777247 0
M  V30 2 C 39.464969 30.283821 53.491457 0
M  V30 3 C 40.018258 30.421430 52.204401 0
M  V30 4 C 39.720808 29.478671 51.202465 0
M  V30 5 C 38.304492 28.261442 52.775865 0
M  V30 6 N 40.267403 29.621432 49.929294 0
M  V30 7 O 37.467404 27.221429 53.053502 0
M  V30 8 C 38.863957 28.396005 51.487956 0
M  V30 9 H 38.179639 29.101303 54.764000 0
M  V30 10 H 39.695166 31.008720 54.258547 0
M  V30 11 H 40.671025 31.252945 51.986380 0
M  V30 12 H 39.897300 29.083082 49.158834 0
M  V30 13 H 40.721277 30.488048 49.676017 0
M  V30 14 H 37.155098 26.753487 52.287148 0
M  V30 15 H 38.632704 27.672794 50.719485 0
M  V30 END ATOM
M  V30 BEGIN BOND
M  V30 1 1 2 1
M  V30 2 2 3 2
M  V30 3 1 4 3
M  V30 4 2 5 1
M  V30 5 1 6 4
M  V30 6 1 7 5
M  V30 7 2 8 4
M  V30 8 1 8 5
M  V30 9 1 9 1
M  V30 10 1 10 2
M  V30 11 1 11 3
M  V30 12 1 12 6
M  V30 13 1 13 6
M  V30 14 1 14 7
M  V30 15 1 15 8
M  V30 END BOND
M  V30 END CTAB
M  END
>  <i_epik_Tot_Q>  (1) 
0

>  <i_epik_Tot_abs_Q>  (1) 
0

>  <i_i_glide_confnum>  (1) 
1

>  <i_i_glide_lignum>  (1) 
68

>  <i_i_glide_posenum>  (1) 
65

>  <i_i_glide_rotatable_bonds>  (1) 
1

>  <i_lp_mmshare_version>  (1) 
72125

>  <i_m_source_file_index>  (1) 
65

>  <i_f3d_flags>  (1) 
0

>  <num_sample>  (1) 
100

>  <b_lp_Chiralities_Consistent>  (1) 
1

>  <r_epik_Charging_Adjusted_Penalty>  (1) 
0

>  <r_epik_Ionization_Penalty>  (1) 
0.0026005809723615375

>  <r_epik_Ionization_Penalty_Charging>  (1) 
0

>  <r_epik_Ionization_Penalty_Neutral>  (1) 
0.0026005809723615375

>  <r_epik_State_Penalty>  (1) 
-0

>  <r_glide_ring_energy>  (1) 
0

>  <r_i_docking_score>  (1) 
-6.0405283821437914

>  <r_i_glide_ecoul>  (1) 
-4.3788744874016476

>  <r_i_glide_eff_state_penalty>  (1) 
-0

>  <r_i_glide_einternal>  (1) 
0.16870860373549784

>  <r_i_glide_emodel>  (1) 
-29.861516234109594

>  <r_i_glide_emodel_strain>  (1) 
0

>  <r_i_glide_energy>  (1) 
-21.404783535542833

>  <r_i_glide_erotb>  (1) 
0

>  <r_i_glide_esite>  (1) 
0

>  <r_i_glide_evdw>  (1) 
-17.025909048141187

>  <r_i_glide_gscore>  (1) 
-6.0405283821437914

>  <r_i_glide_gscore_strain>  (1) 
0

>  <r_i_glide_hbond>  (1) 
-0.32000000000000001

>  <r_i_glide_ligand_efficiency>  (1) 
-0.75506604776797392

>  <r_i_glide_ligand_efficiency_ln>  (1) 
-1.9615661802265232

>  <r_i_glide_ligand_efficiency_sa>  (1) 
-1.5101320955359481

>  <r_i_glide_lipo>  (1) 
-1.8149015910455411

>  <r_i_glide_metal>  (1) 
-0

>  <r_i_glide_rewards>  (1) 
-2.3975001655809449

>  <r_lp_Energy>  (1) 
4.3794230000000001

>  <r_lp_tautomer_probability>  (1) 
1

>  <s_epik_cmdline>  (1) 
J2VwaWtfcHl0aG9uJywgJy1waHQnLCAnMS4wJywgJy1waCcsICc3LjQnLCAnLXRuJywgJzgnLCAnLW1hJywgJzUwMCcsICctaW1hZScsICc8aW5maWxlLm1hZT4nLCAnLW9tYWUnLCAnPG91dGZpbGUubWFlPic=

>  <s_epik_input>  (1) 
W09IXWMoW2NIXTEpW2NIXVtjSF1bY0hdYzFbTkgyXQ==

>  <s_glide_docking_method>  (1) 
confgen

>  <s_i_glide_gridfile>  (1) 
gpcr_5ht2c_6bqh_protein_autoprepared_prepared

>  <s_lp_Force_Field>  (1) 
S-OPLS

>  <s_lp_Variant>  (1) 
Pocket2Mol_64_num_sample_100-1

>  <s_m_source_file>  (1) 
generated__ligand_Pocket2Mol_2026-05-06_prepared.sdf

>  <GenAI_Model>  (1) 
Pocket2Mol

>  <Protein>  (1) 
GPCR_5HT2C

$$$$
Pocket2Mol_74_num_sample_100
     RDKit          3D

  0  0  0  0  0  0  0  0  0  0999 V3000
M  V30 BEGIN CTAB
M  V30 COUNTS 16 17 0 0 1
M  V30 BEGIN ATOM
M  V30 1 C 40.033342 29.925452 51.594934 0
M  V30 2 C 39.415385 29.811881 52.897597 0
M  V30 3 C 38.667404 28.722200 53.237663 0
M  V30 4 C 39.429690 30.614911 53.881260 0
M  V30 5 C 38.481532 27.625803 52.278610 0
M  V30 6 N 38.166709 28.753368 54.431657 0
M  V30 7 C 38.637671 30.111716 55.065494 0
M  V30 8 C 39.867428 28.922356 50.698616 0
M  V30 9 C 39.067448 27.730244 51.053967 0
M  V30 10 H 40.616875 30.798620 51.338755 0
M  V30 11 H 39.940071 31.566416 53.897753 0
M  V30 12 H 37.884414 26.780844 52.585720 0
M  V30 13 H 39.268208 29.961312 55.942680 0
M  V30 14 H 37.797343 30.765095 55.305501 0
M  V30 15 H 40.318670 28.994135 49.720599 0
M  V30 16 H 38.943079 26.934822 50.332484 0
M  V30 END ATOM
M  V30 BEGIN BOND
M  V30 1 1 2 1
M  V30 2 1 3 2
M  V30 3 2 4 2
M  V30 4 1 5 3
M  V30 5 2 6 3
M  V30 6 1 7 4
M  V30 7 1 7 6
M  V30 8 2 8 1
M  V30 9 2 9 5
M  V30 10 1 9 8
M  V30 11 1 10 1
M  V30 12 1 11 4
M  V30 13 1 12 5
M  V30 14 1 13 7
M  V30 15 1 14 7
M  V30 16 1 15 8
M  V30 17 1 16 9
M  V30 END BOND
M  V30 END CTAB
M  END
>  <i_epik_Tot_Q>  (1) 
0

>  <i_epik_Tot_abs_Q>  (1) 
0

>  <i_i_glide_confnum>  (1) 
1

>  <i_i_glide_lignum>  (1) 
79

>  <i_i_glide_posenum>  (1) 
150

>  <i_i_glide_rotatable_bonds>  (1) 
0

>  <i_lp_mmshare_version>  (1) 
72125

>  <i_m_source_file_index>  (1) 
75

>  <i_f3d_flags>  (1) 
0

>  <num_sample>  (1) 
100

>  <b_lp_Chiralities_Consistent>  (1) 
1

>  <r_epik_Charging_Adjusted_Penalty>  (1) 
0

>  <r_epik_Ionization_Penalty>  (1) 
0

>  <r_epik_Ionization_Penalty_Charging>  (1) 
0

>  <r_epik_Ionization_Penalty_Neutral>  (1) 
0

>  <r_epik_State_Penalty>  (1) 
-0

>  <r_glide_ring_energy>  (1) 
0

>  <r_i_docking_score>  (1) 
-6.0392462214175238

>  <r_i_glide_ecoul>  (1) 
-1.1267781661460869

>  <r_i_glide_eff_state_penalty>  (1) 
-0

>  <r_i_glide_einternal>  (1) 
0

>  <r_i_glide_emodel>  (1) 
-30.488006665971565

>  <r_i_glide_emodel_strain>  (1) 
0

>  <r_i_glide_energy>  (1) 
-22.304778731906985

>  <r_i_glide_erotb>  (1) 
0

>  <r_i_glide_esite>  (1) 
0

>  <r_i_glide_evdw>  (1) 
-21.178000565760897

>  <r_i_glide_gscore>  (1) 
-6.0392462214175238

>  <r_i_glide_gscore_strain>  (1) 
0

>  <r_i_glide_hbond>  (1) 
0

>  <r_i_glide_ligand_efficiency>  (1) 
-0.67102735793528046

>  <r_i_glide_ligand_efficiency_ln>  (1) 
-1.8889027265169924

>  <r_i_glide_ligand_efficiency_sa>  (1) 
-1.3957931520664368

>  <r_i_glide_lipo>  (1) 
-2.2316968353406943

>  <r_i_glide_metal>  (1) 
-0

>  <r_i_glide_rewards>  (1) 
-2.5796326328668715

>  <r_lp_Energy>  (1) 
8.0132250000000003

>  <r_lp_tautomer_probability>  (1) 
1

>  <s_epik_Chemistry_Notes>  (1) 
This compound has an imine and may undergo hydrolysis.

>  <s_epik_cmdline>  (1) 
J2VwaWtfcHl0aG9uJywgJy1waHQnLCAnMS4wJywgJy1waCcsICc3LjQnLCAnLXRuJywgJzgnLCAnLW1hJywgJzUwMCcsICctaW1hZScsICc8aW5maWxlLm1hZT4nLCAnLW9tYWUnLCAnPG91dGZpbGUubWFlPic=

>  <s_epik_input>  (1) 
W2NIXTFbY0hdW2NIXVtjSF1jKGMxPTIpPU5bQ0gyXVtDSF0y

>  <s_glide_docking_method>  (1) 
confgen

>  <s_i_glide_gridfile>  (1) 
gpcr_5ht2c_6bqh_protein_autoprepared_prepared

>  <s_lp_Force_Field>  (1) 
S-OPLS

>  <s_lp_Variant>  (1) 
Pocket2Mol_74_num_sample_100-1

>  <s_m_source_file>  (1) 
generated__ligand_Pocket2Mol_2026-05-06_prepared.sdf

>  <GenAI_Model>  (1) 
Pocket2Mol

>  <Protein>  (1) 
GPCR_5HT2C

$$$$
Pocket2Mol_82_num_sample_100
     RDKit          3D

  0  0  0  0  0  0  0  0  0  0999 V3000
M  V30 BEGIN CTAB
M  V30 COUNTS 16 16 0 0 1
M  V30 BEGIN ATOM
M  V30 1 C 37.867402 28.663999 54.170871 0
M  V30 2 C 38.702938 28.969125 52.952351 0
M  V30 3 C 39.490141 30.146771 52.890354 0
M  V30 4 C 38.699485 28.075968 51.857719 0
M  V30 5 C 39.467410 28.358067 50.712925 0
M  V30 6 C 40.257705 30.421457 51.740168 0
M  V30 7 C 40.244807 29.529791 50.653556 0
M  V30 8 O 37.224624 27.621421 54.253497 0
M  V30 9 N 37.874207 29.598184 55.125735 0
M  V30 10 H 39.506157 30.840199 53.716679 0
M  V30 11 H 38.101531 27.176128 51.894454 0
M  V30 12 H 39.456382 27.675994 49.878481 0
M  V30 13 H 40.853908 31.319059 51.692483 0
M  V30 14 H 40.831090 29.744916 49.772423 0
M  V30 15 H 38.412825 30.440509 55.004317 0
M  V30 16 H 37.327108 29.463891 55.963870 0
M  V30 END ATOM
M  V30 BEGIN BOND
M  V30 1 1 2 1
M  V30 2 1 3 2
M  V30 3 2 4 2
M  V30 4 1 5 4
M  V30 5 2 6 3
M  V30 6 2 7 5
M  V30 7 1 7 6
M  V30 8 2 8 1
M  V30 9 1 9 1
M  V30 10 1 10 3
M  V30 11 1 11 4
M  V30 12 1 12 5
M  V30 13 1 13 6
M  V30 14 1 14 7
M  V30 15 1 15 9
M  V30 16 1 16 9
M  V30 END BOND
M  V30 END CTAB
M  END
>  <i_epik_Tot_Q>  (1) 
0

>  <i_epik_Tot_abs_Q>  (1) 
0

>  <i_i_glide_confnum>  (1) 
1

>  <i_i_glide_lignum>  (1) 
87

>  <i_i_glide_posenum>  (1) 
178

>  <i_i_glide_rotatable_bonds>  (1) 
1

>  <i_lp_mmshare_version>  (1) 
72125

>  <i_m_source_file_index>  (1) 
83

>  <i_f3d_flags>  (1) 
0

>  <num_sample>  (1) 
100

>  <b_lp_Chiralities_Consistent>  (1) 
1

>  <r_epik_Charging_Adjusted_Penalty>  (1) 
0

>  <r_epik_Ionization_Penalty>  (1) 
4.7216645763340487e-07

>  <r_epik_Ionization_Penalty_Charging>  (1) 
0

>  <r_epik_Ionization_Penalty_Neutral>  (1) 
4.7216645763340487e-07

>  <r_epik_State_Penalty>  (1) 
-0

>  <r_glide_ring_energy>  (1) 
0

>  <r_i_docking_score>  (1) 
-6.033020453112119

>  <r_i_glide_ecoul>  (1) 
-1.380931202362796

>  <r_i_glide_eff_state_penalty>  (1) 
-0

>  <r_i_glide_einternal>  (1) 
0.062050867752073913

>  <r_i_glide_emodel>  (1) 
-29.216054944709477

>  <r_i_glide_emodel_strain>  (1) 
0

>  <r_i_glide_energy>  (1) 
-20.595114215951192

>  <r_i_glide_erotb>  (1) 
0

>  <r_i_glide_esite>  (1) 
0

>  <r_i_glide_evdw>  (1) 
-19.214183013588396

>  <r_i_glide_gscore>  (1) 
-6.033020453112119

>  <r_i_glide_gscore_strain>  (1) 
0

>  <r_i_glide_hbond>  (1) 
0

>  <r_i_glide_ligand_efficiency>  (1) 
-0.67033560590134655

>  <r_i_glide_ligand_efficiency_ln>  (1) 
-1.8869554850408894

>  <r_i_glide_ligand_efficiency_sa>  (1) 
-1.3943542498510877

>  <r_i_glide_lipo>  (1) 
-1.8043282751983734

>  <r_i_glide_metal>  (1) 
-0

>  <r_i_glide_rewards>  (1) 
-3.0608433468799059

>  <r_lp_Energy>  (1) 
9.4363049999999991

>  <r_lp_tautomer_probability>  (1) 
1

>  <s_epik_cmdline>  (1) 
J2VwaWtfcHl0aG9uJywgJy1waHQnLCAnMS4wJywgJy1waCcsICc3LjQnLCAnLXRuJywgJzgnLCAnLW1hJywgJzUwMCcsICctaW1hZScsICc8aW5maWxlLm1hZT4nLCAnLW9tYWUnLCAnPG91dGZpbGUubWFlPic=

>  <s_epik_input>  (1) 
Tz1DKFtOSDJdKWMxW2NIXVtjSF1bY0hdW2NIXVtjSF0x

>  <s_glide_docking_method>  (1) 
confgen

>  <s_i_glide_gridfile>  (1) 
gpcr_5ht2c_6bqh_protein_autoprepared_prepared

>  <s_lp_Force_Field>  (1) 
S-OPLS

>  <s_lp_Variant>  (1) 
Pocket2Mol_82_num_sample_100-1

>  <s_m_source_file>  (1) 
generated__ligand_Pocket2Mol_2026-05-06_prepared.sdf

>  <GenAI_Model>  (1) 
Pocket2Mol

>  <Protein>  (1) 
GPCR_5HT2C

$$$$
Pocket2Mol_96_num_sample_100
     RDKit          3D

  0  0  0  0  0  0  0  0  0  0999 V3000
M  V30 BEGIN CTAB
M  V30 COUNTS 18 19 0 0 1
M  V30 BEGIN ATOM
M  V30 1 C 40.267462 29.630427 50.557362 0
M  V30 2 C 40.265189 30.421428 51.739906 0
M  V30 3 C 39.467395 28.544384 50.784040 0
M  V30 4 C 39.467403 29.789975 52.651563 0
M  V30 5 N 38.966018 28.646007 52.069565 0
M  V30 6 C 39.085962 30.141215 54.044193 0
M  V30 7 O 39.404846 31.221524 54.529908 0
M  V30 8 C 38.047272 27.733571 52.691935 0
M  V30 9 N 38.384047 29.213590 54.729912 0
M  V30 10 C 38.106881 27.862430 54.219332 0
M  V30 11 H 40.795009 29.836110 49.637723 0
M  V30 12 H 40.789019 31.349960 51.905196 0
M  V30 13 H 39.196013 27.714072 50.149096 0
M  V30 14 H 37.049340 27.987382 52.333908 0
M  V30 15 H 38.267917 26.717786 52.371864 0
M  V30 16 H 38.090061 29.428205 55.671973 0
M  V30 17 H 37.177526 27.494278 54.653498 0
M  V30 18 H 38.898452 27.213726 54.596711 0
M  V30 END ATOM
M  V30 BEGIN BOND
M  V30 1 1 2 1
M  V30 2 2 3 1
M  V30 3 2 4 2
M  V30 4 1 5 3
M  V30 5 1 5 4
M  V30 6 1 6 4
M  V30 7 2 7 6
M  V30 8 1 8 5
M  V30 9 1 9 6
M  V30 10 1 10 8
M  V30 11 1 10 9
M  V30 12 1 11 1
M  V30 13 1 12 2
M  V30 14 1 13 3
M  V30 15 1 14 8
M  V30 16 1 15 8
M  V30 17 1 16 9
M  V30 18 1 17 10
M  V30 19 1 18 10
M  V30 END BOND
M  V30 END CTAB
M  END
>  <i_epik_Tot_Q>  (1) 
0

>  <i_epik_Tot_abs_Q>  (1) 
0

>  <i_i_glide_confnum>  (1) 
1

>  <i_i_glide_lignum>  (1) 
101

>  <i_i_glide_posenum>  (1) 
68

>  <i_i_glide_rotatable_bonds>  (1) 
0

>  <i_lp_mmshare_version>  (1) 
72125

>  <i_m_source_file_index>  (1) 
97

>  <i_f3d_flags>  (1) 
0

>  <num_sample>  (1) 
100

>  <b_lp_Chiralities_Consistent>  (1) 
1

>  <r_epik_Charging_Adjusted_Penalty>  (1) 
0

>  <r_epik_Ionization_Penalty>  (1) 
5.1203149696400337e-08

>  <r_epik_Ionization_Penalty_Charging>  (1) 
0

>  <r_epik_Ionization_Penalty_Neutral>  (1) 
5.1203149696400337e-08

>  <r_epik_State_Penalty>  (1) 
-0

>  <r_glide_ring_energy>  (1) 
0

>  <r_i_docking_score>  (1) 
-6.0314886077880674

>  <r_i_glide_ecoul>  (1) 
-0.50541779381508045

>  <r_i_glide_eff_state_penalty>  (1) 
-0

>  <r_i_glide_einternal>  (1) 
0

>  <r_i_glide_emodel>  (1) 
-32.832481612106776

>  <r_i_glide_emodel_strain>  (1) 
0

>  <r_i_glide_energy>  (1) 
-23.472467926892417

>  <r_i_glide_erotb>  (1) 
0

>  <r_i_glide_esite>  (1) 
0

>  <r_i_glide_evdw>  (1) 
-22.967050133077336

>  <r_i_glide_gscore>  (1) 
-6.0314886077880674

>  <r_i_glide_gscore_strain>  (1) 
0

>  <r_i_glide_hbond>  (1) 
0

>  <r_i_glide_ligand_efficiency>  (1) 
-0.60314886077880669

>  <r_i_glide_ligand_efficiency_ln>  (1) 
-1.826293172758211

>  <r_i_glide_ligand_efficiency_sa>  (1) 
-1.2994448289150724

>  <r_i_glide_lipo>  (1) 
-1.7736412976870859

>  <r_i_glide_metal>  (1) 
-0

>  <r_i_glide_rewards>  (1) 
-3.0336821343748523

>  <r_lp_Energy>  (1) 
15.907292999999999

>  <r_lp_tautomer_probability>  (1) 
1

>  <s_epik_cmdline>  (1) 
J2VwaWtfcHl0aG9uJywgJy1waHQnLCAnMS4wJywgJy1waCcsICc3LjQnLCAnLXRuJywgJzgnLCAnLW1hJywgJzUwMCcsICctaW1hZScsICc8aW5maWxlLm1hZT4nLCAnLW9tYWUnLCAnPG91dGZpbGUubWFlPic=

>  <s_epik_input>  (1) 
W2NIXTFbY0hdW2NIXW4oYzEyKVtDSDJdW0NIMl1bTkhdQzI9Tw==

>  <s_glide_docking_method>  (1) 
confgen

>  <s_i_glide_gridfile>  (1) 
gpcr_5ht2c_6bqh_protein_autoprepared_prepared

>  <s_lp_Force_Field>  (1) 
S-OPLS

>  <s_lp_Variant>  (1) 
Pocket2Mol_96_num_sample_100-1

>  <s_m_source_file>  (1) 
generated__ligand_Pocket2Mol_2026-05-06_prepared.sdf

>  <GenAI_Model>  (1) 
Pocket2Mol

>  <Protein>  (1) 
GPCR_5HT2C

$$$$
Pocket2Mol_1_num_sample_100
     RDKit          3D

  0  0  0  0  0  0  0  0  0  0999 V3000
M  V30 BEGIN CTAB
M  V30 COUNTS 19 20 0 0 1
M  V30 BEGIN ATOM
M  V30 1 C 38.726103 27.877042 52.134052 0
M  V30 2 C 38.509234 28.797646 53.224126 0
M  V30 3 C 39.300526 30.013843 53.382475 0 CFG=1
M  V30 4 C 37.591601 28.666893 54.108472 0
M  V30 5 C 39.917003 30.445162 52.058534 0
M  V30 6 C 40.025977 29.606953 51.000107 0
M  V30 7 C 37.467409 29.800874 55.052332 0
M  V30 8 O 40.625240 30.021457 49.876378 0
M  V30 9 N 38.338506 30.773192 54.257052 0
M  V30 10 C 39.467197 28.255588 51.076299 0
M  V30 11 H 38.273142 26.896062 52.153488 0
M  V30 12 H 40.140557 29.764304 54.030762 0
M  V30 13 H 36.898611 27.838818 54.142451 0
M  V30 14 H 40.317537 31.447019 52.005223 0
M  V30 15 H 36.445121 30.166545 55.158982 0
M  V30 16 H 37.893696 29.551136 56.024238 0
M  V30 17 H 40.880538 30.923531 50.002052 0
M  V30 18 H 38.789424 31.452279 54.854352 0
M  V30 19 H 39.610836 27.570134 50.253502 0
M  V30 END ATOM
M  V30 BEGIN BOND
M  V30 1 1 2 1
M  V30 2 1 3 2
M  V30 3 2 4 2
M  V30 4 1 5 3
M  V30 5 2 6 5
M  V30 6 1 7 4
M  V30 7 1 8 6
M  V30 8 1 9 3
M  V30 9 1 9 7
M  V30 10 2 10 1
M  V30 11 1 10 6
M  V30 12 1 11 1
M  V30 13 1 3 12 CFG=1
M  V30 14 1 13 4
M  V30 15 1 14 5
M  V30 16 1 15 7
M  V30 17 1 16 7
M  V30 18 1 17 8
M  V30 19 1 18 9
M  V30 20 1 19 10
M  V30 END BOND
M  V30 END CTAB
M  END
>  <i_epik_Tot_Q>  (1) 
0

>  <i_epik_Tot_abs_Q>  (1) 
0

>  <i_i_glide_confnum>  (1) 
1

>  <i_i_glide_lignum>  (1) 
4

>  <i_i_glide_posenum>  (1) 
99

>  <i_i_glide_rotatable_bonds>  (1) 
1

>  <i_lp_mmshare_version>  (1) 
72125

>  <i_m_source_file_index>  (1) 
2

>  <i_f3d_flags>  (1) 
0

>  <num_sample>  (1) 
100

>  <b_lp_Chiralities_Consistent>  (1) 
1

>  <r_epik_Charging_Adjusted_Penalty>  (1) 
0.0032380173127296522

>  <r_epik_Ionization_Penalty>  (1) 
0.0032399356015129686

>  <r_epik_Ionization_Penalty_Charging>  (1) 
0

>  <r_epik_Ionization_Penalty_Neutral>  (1) 
0.0032399356015129686

>  <r_epik_State_Penalty>  (1) 
0.0032380173127296522

>  <r_glide_ring_energy>  (1) 
0

>  <r_i_docking_score>  (1) 
-6.02914020529645

>  <r_i_glide_ecoul>  (1) 
-1.951077016626221

>  <r_i_glide_eff_state_penalty>  (1) 
0.0032380173127296522

>  <r_i_glide_einternal>  (1) 
0.00043437171698679222

>  <r_i_glide_emodel>  (1) 
-34.247344866749842

>  <r_i_glide_emodel_strain>  (1) 
0

>  <r_i_glide_energy>  (1) 
-25.089187549361775

>  <r_i_glide_erotb>  (1) 
0

>  <r_i_glide_esite>  (1) 
0

>  <r_i_glide_evdw>  (1) 
-23.138110532735553

>  <r_i_glide_gscore>  (1) 
-6.0323782226091796

>  <r_i_glide_gscore_strain>  (1) 
0

>  <r_i_glide_hbond>  (1) 
0

>  <r_i_glide_ligand_efficiency>  (1) 
-0.60291402052964504

>  <r_i_glide_ligand_efficiency_ln>  (1) 
-1.8255820926723112

>  <r_i_glide_ligand_efficiency_sa>  (1) 
-1.2989388809356626

>  <r_i_glide_lipo>  (1) 
-2.08909208664386

>  <r_i_glide_metal>  (1) 
-0

>  <r_i_glide_rewards>  (1) 
-2.4937190568346086

>  <r_lp_Energy>  (1) 
5.6363089999999998

>  <s_epik_cmdline>  (1) 
J2VwaWtfcHl0aG9uJywgJy1waHQnLCAnMS4wJywgJy1waCcsICc3LjQnLCAnLXRuJywgJzgnLCAnLW1hJywgJzUwMCcsICctaW1hZScsICc8aW5maWxlLm1hZT4nLCAnLW9tYWUnLCAnPG91dGZpbGUubWFlPic=

>  <s_epik_input>  (1) 
W0NIXTE9W0NIXUMoW09IXSk9W0NIXVtDQEhdKEMxPTIpW05IXVtDSDJdW0NIXTI=

>  <s_glide_docking_method>  (1) 
confgen

>  <s_i_glide_gridfile>  (1) 
gpcr_5ht2c_6bqh_protein_autoprepared_prepared

>  <s_lp_Force_Field>  (1) 
S-OPLS

>  <s_lp_Variant>  (1) 
Pocket2Mol_1_num_sample_100-2

>  <s_m_source_file>  (1) 
generated__ligand_Pocket2Mol_2026-05-06_prepared.sdf

>  <GenAI_Model>  (1) 
Pocket2Mol

>  <Protein>  (1) 
GPCR_5HT2C

$$$$
Pocket2Mol_69_num_sample_100
     RDKit          3D

  0  0  0  0  0  0  0  0  0  0999 V3000
M  V30 BEGIN CTAB
M  V30 COUNTS 15 16 0 0 1
M  V30 BEGIN ATOM
M  V30 1 C 38.146008 27.850458 54.191228 0
M  V30 2 O 38.267163 27.230220 52.875311 0
M  V30 3 O 38.754629 29.177081 54.244016 0
M  V30 4 C 38.915776 28.204378 52.230954 0
M  V30 5 C 39.184260 29.273005 52.982628 0
M  V30 6 C 39.867403 30.388075 52.466654 0
M  V30 7 C 40.267404 30.371903 51.109973 0
M  V30 8 C 39.294980 28.136561 50.881571 0
M  V30 9 C 39.976241 29.237031 50.310175 0
M  V30 10 H 38.627557 27.209961 54.931164 0
M  V30 11 H 37.088040 27.936749 54.441551 0
M  V30 12 H 40.078206 31.242004 53.092768 0
M  V30 13 H 40.789441 31.217884 50.685988 0
M  V30 14 H 39.067402 27.262117 50.289279 0
M  V30 15 H 40.273800 29.213171 49.272341 0
M  V30 END ATOM
M  V30 BEGIN BOND
M  V30 1 1 2 1
M  V30 2 1 3 1
M  V30 3 1 4 2
M  V30 4 1 5 3
M  V30 5 1 5 4
M  V30 6 2 6 5
M  V30 7 1 7 6
M  V30 8 2 8 4
M  V30 9 2 9 7
M  V30 10 1 9 8
M  V30 11 1 10 1
M  V30 12 1 11 1
M  V30 13 1 12 6
M  V30 14 1 13 7
M  V30 15 1 14 8
M  V30 16 1 15 9
M  V30 END BOND
M  V30 END CTAB
M  END
>  <i_epik_Tot_Q>  (1) 
0

>  <i_epik_Tot_abs_Q>  (1) 
0

>  <i_i_glide_confnum>  (1) 
1

>  <i_i_glide_lignum>  (1) 
74

>  <i_i_glide_posenum>  (1) 
104

>  <i_i_glide_rotatable_bonds>  (1) 
0

>  <i_lp_mmshare_version>  (1) 
72125

>  <i_m_source_file_index>  (1) 
70

>  <i_f3d_flags>  (1) 
0

>  <num_sample>  (1) 
100

>  <b_lp_Chiralities_Consistent>  (1) 
1

>  <r_epik_Charging_Adjusted_Penalty>  (1) 
0

>  <r_epik_Ionization_Penalty>  (1) 
0

>  <r_epik_Ionization_Penalty_Charging>  (1) 
0

>  <r_epik_Ionization_Penalty_Neutral>  (1) 
0

>  <r_epik_State_Penalty>  (1) 
-0

>  <r_glide_ring_energy>  (1) 
0

>  <r_i_docking_score>  (1) 
-6.0289206539184894

>  <r_i_glide_ecoul>  (1) 
-0.15233145006084642

>  <r_i_glide_eff_state_penalty>  (1) 
-0

>  <r_i_glide_einternal>  (1) 
0

>  <r_i_glide_emodel>  (1) 
-26.795170523407982

>  <r_i_glide_emodel_strain>  (1) 
0

>  <r_i_glide_energy>  (1) 
-19.072031778057937

>  <r_i_glide_erotb>  (1) 
0

>  <r_i_glide_esite>  (1) 
0

>  <r_i_glide_evdw>  (1) 
-18.919700327997091

>  <r_i_glide_gscore>  (1) 
-6.0289206539184894

>  <r_i_glide_gscore_strain>  (1) 
0

>  <r_i_glide_hbond>  (1) 
0

>  <r_i_glide_ligand_efficiency>  (1) 
-0.66988007265760996

>  <r_i_glide_ligand_efficiency_ln>  (1) 
-1.8856731856294902

>  <r_i_glide_ligand_efficiency_sa>  (1) 
-1.3934067025199288

>  <r_i_glide_lipo>  (1) 
-1.8617019125833143

>  <r_i_glide_metal>  (1) 
-0

>  <r_i_glide_rewards>  (1) 
-3.1983840074261938

>  <r_lp_Energy>  (1) 
19.342499999999998

>  <r_lp_tautomer_probability>  (1) 
1

>  <s_epik_Chemistry_Notes>  (1) 
This compound contains an acetal/aminal-like group ( X-CH(R)-Y where X, Y are N, S, or O) that may be acid/base labile, releasing an aldehyde.

>  <s_epik_cmdline>  (1) 
J2VwaWtfcHl0aG9uJywgJy1waHQnLCAnMS4wJywgJy1waCcsICc3LjQnLCAnLXRuJywgJzgnLCAnLW1hJywgJzUwMCcsICctaW1hZScsICc8aW5maWxlLm1hZT4nLCAnLW9tYWUnLCAnPG91dGZpbGUubWFlPic=

>  <s_epik_input>  (1) 
TzFbQ0gyXU9jKGMxMilbY0hdW2NIXVtjSF1bY0hdMg==

>  <s_glide_docking_method>  (1) 
confgen

>  <s_i_glide_gridfile>  (1) 
gpcr_5ht2c_6bqh_protein_autoprepared_prepared

>  <s_lp_Force_Field>  (1) 
S-OPLS

>  <s_lp_Variant>  (1) 
Pocket2Mol_69_num_sample_100-1

>  <s_m_source_file>  (1) 
generated__ligand_Pocket2Mol_2026-05-06_prepared.sdf

>  <GenAI_Model>  (1) 
Pocket2Mol

>  <Protein>  (1) 
GPCR_5HT2C

$$$$
Pocket2Mol_80_num_sample_100
     RDKit          3D

  0  0  0  0  0  0  0  0  0  0999 V3000
M  V30 BEGIN CTAB
M  V30 COUNTS 17 17 0 0 1
M  V30 BEGIN ATOM
M  V30 1 C 39.392884 28.251399 51.622770 0
M  V30 2 C 38.853732 27.501623 52.686500 0
M  V30 3 C 38.619931 28.110410 53.936116 0
M  V30 4 C 38.039880 27.296331 55.074270 0
M  V30 5 C 38.928242 29.474491 54.117351 0
M  V30 6 C 39.702186 29.616603 51.801834 0
M  V30 7 C 40.268122 30.392195 50.675611 0
M  V30 8 O 40.507162 29.926683 49.562152 0
M  V30 9 C 39.467436 30.225455 53.054492 0
M  V30 10 H 39.566297 27.770144 50.670837 0
M  V30 11 H 38.619861 26.456984 52.540662 0
M  V30 12 H 37.915960 27.900027 55.973812 0
M  V30 13 H 37.064189 26.898040 54.794890 0
M  V30 14 H 38.697071 26.460034 55.313786 0
M  V30 15 H 38.753227 29.951493 55.070737 0
M  V30 16 H 40.465360 31.439098 50.907595 0
M  V30 17 H 39.698504 31.269884 53.208974 0
M  V30 END ATOM
M  V30 BEGIN BOND
M  V30 1 2 2 1
M  V30 2 1 3 2
M  V30 3 1 4 3
M  V30 4 2 5 3
M  V30 5 1 6 1
M  V30 6 1 7 6
M  V30 7 2 8 7
M  V30 8 1 9 5
M  V30 9 2 9 6
M  V30 10 1 10 1
M  V30 11 1 11 2
M  V30 12 1 12 4
M  V30 13 1 13 4
M  V30 14 1 14 4
M  V30 15 1 15 5
M  V30 16 1 16 7
M  V30 17 1 17 9
M  V30 END BOND
M  V30 END CTAB
M  END
>  <i_epik_Tot_Q>  (1) 
0

>  <i_epik_Tot_abs_Q>  (1) 
0

>  <i_i_glide_confnum>  (1) 
1

>  <i_i_glide_lignum>  (1) 
85

>  <i_i_glide_posenum>  (1) 
74

>  <i_i_glide_rotatable_bonds>  (1) 
1

>  <i_lp_mmshare_version>  (1) 
72125

>  <i_m_source_file_index>  (1) 
81

>  <i_f3d_flags>  (1) 
0

>  <num_sample>  (1) 
100

>  <b_lp_Chiralities_Consistent>  (1) 
1

>  <r_epik_Charging_Adjusted_Penalty>  (1) 
0

>  <r_epik_Ionization_Penalty>  (1) 
0

>  <r_epik_Ionization_Penalty_Charging>  (1) 
0

>  <r_epik_Ionization_Penalty_Neutral>  (1) 
0

>  <r_epik_State_Penalty>  (1) 
-0

>  <r_glide_ring_energy>  (1) 
0

>  <r_i_docking_score>  (1) 
-6.0270544537528687

>  <r_i_glide_ecoul>  (1) 
-1.2989538630723407

>  <r_i_glide_eff_state_penalty>  (1) 
-0

>  <r_i_glide_einternal>  (1) 
0.076475433557274597

>  <r_i_glide_emodel>  (1) 
-28.888113058231433

>  <r_i_glide_emodel_strain>  (1) 
0

>  <r_i_glide_energy>  (1) 
-20.811558830311053

>  <r_i_glide_erotb>  (1) 
0

>  <r_i_glide_esite>  (1) 
0

>  <r_i_glide_evdw>  (1) 
-19.512604967238712

>  <r_i_glide_gscore>  (1) 
-6.0270544537528687

>  <r_i_glide_gscore_strain>  (1) 
0

>  <r_i_glide_hbond>  (1) 
0

>  <r_i_glide_ligand_efficiency>  (1) 
-0.66967271708365206

>  <r_i_glide_ligand_efficiency_ln>  (1) 
-1.88508949182867

>  <r_i_glide_ligand_efficiency_sa>  (1) 
-1.3929753855449194

>  <r_i_glide_lipo>  (1) 
-1.9529830276043925

>  <r_i_glide_metal>  (1) 
-0

>  <r_i_glide_rewards>  (1) 
-2.903598098325689

>  <r_lp_Energy>  (1) 
4.8020719999999999

>  <r_lp_tautomer_probability>  (1) 
1

>  <s_epik_cmdline>  (1) 
J2VwaWtfcHl0aG9uJywgJy1waHQnLCAnMS4wJywgJy1waCcsICc3LjQnLCAnLXRuJywgJzgnLCAnLW1hJywgJzUwMCcsICctaW1hZScsICc8aW5maWxlLm1hZT4nLCAnLW9tYWUnLCAnPG91dGZpbGUubWFlPic=

>  <s_epik_input>  (1) 
W2NIXTFbY0hdYyhbQ0hdPU8pW2NIXVtjSF1jMVtDSDNd

>  <s_glide_docking_method>  (1) 
confgen

>  <s_i_glide_gridfile>  (1) 
gpcr_5ht2c_6bqh_protein_autoprepared_prepared

>  <s_lp_Force_Field>  (1) 
S-OPLS

>  <s_lp_Variant>  (1) 
Pocket2Mol_80_num_sample_100-1

>  <s_m_source_file>  (1) 
generated__ligand_Pocket2Mol_2026-05-06_prepared.sdf

>  <GenAI_Model>  (1) 
Pocket2Mol

>  <Protein>  (1) 
GPCR_5HT2C

$$$$
Pocket2Mol_92_num_sample_100
     RDKit          3D

  0  0  0  0  0  0  0  0  0  0999 V3000
M  V30 BEGIN CTAB
M  V30 COUNTS 18 19 0 0 1
M  V30 BEGIN ATOM
M  V30 1 C 38.129344 26.994820 53.674457 0
M  V30 2 C 38.664290 28.242014 54.050777 0
M  V30 3 C 38.934360 28.512030 55.413871 0
M  V30 4 C 38.932007 29.221429 53.073005 0
M  V30 5 C 39.467402 30.467830 53.453501 0
M  V30 6 C 38.669672 27.530773 56.391325 0
M  V30 7 C 39.467383 29.761045 55.790359 0
M  V30 8 C 37.867397 26.016011 54.653501 0
M  V30 9 C 39.733352 30.737637 54.810458 0
M  V30 10 C 38.137544 26.283219 56.010347 0
M  V30 11 H 37.920042 26.787592 52.634994 0
M  V30 12 H 38.727590 29.017550 52.031685 0
M  V30 13 H 39.673175 31.218723 52.704106 0
M  V30 14 H 38.874835 27.734107 57.432366 0
M  V30 15 H 39.673009 29.970984 56.829795 0
M  V30 16 H 37.457793 25.059564 54.363192 0
M  V30 17 H 40.142275 31.693956 55.100103 0
M  V30 18 H 37.935306 25.531528 56.759169 0
M  V30 END ATOM
M  V30 BEGIN BOND
M  V30 1 1 2 1
M  V30 2 1 3 2
M  V30 3 2 4 2
M  V30 4 1 5 4
M  V30 5 1 6 3
M  V30 6 2 7 3
M  V30 7 2 8 1
M  V30 8 2 9 5
M  V30 9 1 9 7
M  V30 10 2 10 6
M  V30 11 1 10 8
M  V30 12 1 11 1
M  V30 13 1 12 4
M  V30 14 1 13 5
M  V30 15 1 14 6
M  V30 16 1 15 7
M  V30 17 1 16 8
M  V30 18 1 17 9
M  V30 19 1 18 10
M  V30 END BOND
M  V30 END CTAB
M  END
>  <i_epik_Tot_Q>  (1) 
0

>  <i_epik_Tot_abs_Q>  (1) 
0

>  <i_i_glide_confnum>  (1) 
1

>  <i_i_glide_lignum>  (1) 
97

>  <i_i_glide_posenum>  (1) 
360

>  <i_i_glide_rotatable_bonds>  (1) 
0

>  <i_lp_mmshare_version>  (1) 
72125

>  <i_m_source_file_index>  (1) 
93

>  <i_f3d_flags>  (1) 
0

>  <num_sample>  (1) 
100

>  <b_lp_Chiralities_Consistent>  (1) 
1

>  <r_epik_Charging_Adjusted_Penalty>  (1) 
0

>  <r_epik_Ionization_Penalty>  (1) 
0

>  <r_epik_Ionization_Penalty_Charging>  (1) 
0

>  <r_epik_Ionization_Penalty_Neutral>  (1) 
0

>  <r_epik_State_Penalty>  (1) 
-0

>  <r_glide_ring_energy>  (1) 
0

>  <r_i_docking_score>  (1) 
-6.0115263996918653

>  <r_i_glide_ecoul>  (1) 
-0.46273143281127449

>  <r_i_glide_eff_state_penalty>  (1) 
-0

>  <r_i_glide_einternal>  (1) 
0

>  <r_i_glide_emodel>  (1) 
-26.382461706115425

>  <r_i_glide_emodel_strain>  (1) 
0

>  <r_i_glide_energy>  (1) 
-18.448340357565922

>  <r_i_glide_erotb>  (1) 
0

>  <r_i_glide_esite>  (1) 
0

>  <r_i_glide_evdw>  (1) 
-17.985608924754647

>  <r_i_glide_gscore>  (1) 
-6.0115263996918653

>  <r_i_glide_gscore_strain>  (1) 
0

>  <r_i_glide_hbond>  (1) 
0

>  <r_i_glide_ligand_efficiency>  (1) 
-0.60115263996918655

>  <r_i_glide_ligand_efficiency_ln>  (1) 
-1.8202487537548826

>  <r_i_glide_ligand_efficiency_sa>  (1) 
-1.2951441015538632

>  <r_i_glide_lipo>  (1) 
-2.4297188956730942

>  <r_i_glide_metal>  (1) 
-0

>  <r_i_glide_rewards>  (1) 
-2.6131173428593479

>  <r_lp_Energy>  (1) 
18.967330999999998

>  <r_lp_tautomer_probability>  (1) 
1

>  <s_epik_cmdline>  (1) 
J2VwaWtfcHl0aG9uJywgJy1waHQnLCAnMS4wJywgJy1waCcsICc3LjQnLCAnLXRuJywgJzgnLCAnLW1hJywgJzUwMCcsICctaW1hZScsICc8aW5maWxlLm1hZT4nLCAnLW9tYWUnLCAnPG91dGZpbGUubWFlPic=

>  <s_epik_input>  (1) 
W2NIXTFbY0hdW2NIXVtjSF1jKGMxMilbY0hdW2NIXVtjSF1bY0hdMg==

>  <s_glide_docking_method>  (1) 
confgen

>  <s_i_glide_gridfile>  (1) 
gpcr_5ht2c_6bqh_protein_autoprepared_prepared

>  <s_lp_Force_Field>  (1) 
S-OPLS

>  <s_lp_Variant>  (1) 
Pocket2Mol_92_num_sample_100-1

>  <s_m_source_file>  (1) 
generated__ligand_Pocket2Mol_2026-05-06_prepared.sdf

>  <GenAI_Model>  (1) 
Pocket2Mol

>  <Protein>  (1) 
GPCR_5HT2C

$$$$
Pocket2Mol_0_num_sample_100
     RDKit          3D

  0  0  0  0  0  0  0  0  0  0999 V3000
M  V30 BEGIN CTAB
M  V30 COUNTS 19 19 0 0 1
M  V30 BEGIN ATOM
M  V30 1 C 38.388027 27.610295 54.453168 0
M  V30 2 C 38.899263 28.386910 53.299378 0
M  V30 3 C 39.355198 29.709070 53.496692 0
M  V30 4 C 38.954659 27.823748 51.998639 0
M  V30 5 C 39.467402 28.573515 50.922432 0
M  V30 6 C 39.923880 29.885333 51.131012 0
M  V30 7 C 39.867408 30.452875 52.416088 0
M  V30 8 C 37.944469 26.339023 54.378618 0
M  V30 9 C 37.467412 25.620507 55.567365 0
M  V30 10 N 37.061388 24.426572 55.525669 0
M  V30 11 H 38.384879 28.115146 55.409634 0
M  V30 12 H 39.318406 30.150793 54.482383 0
M  V30 13 H 38.609122 26.821369 51.823895 0
M  V30 14 H 39.507622 28.139947 49.934243 0
M  V30 15 H 40.316073 30.459014 50.303620 0
M  V30 16 H 40.217372 31.462089 52.574270 0
M  V30 17 H 37.921103 25.790951 53.453521 0
M  V30 18 H 37.488615 26.190233 56.500710 0
M  V30 19 H 36.770237 24.078490 56.427754 0
M  V30 END ATOM
M  V30 BEGIN BOND
M  V30 1 1 2 1
M  V30 2 1 3 2
M  V30 3 2 4 2
M  V30 4 1 5 4
M  V30 5 2 6 5
M  V30 6 2 7 3
M  V30 7 1 7 6
M  V30 8 2 8 1
M  V30 9 1 9 8
M  V30 10 2 10 9
M  V30 11 1 11 1
M  V30 12 1 12 3
M  V30 13 1 13 4
M  V30 14 1 14 5
M  V30 15 1 15 6
M  V30 16 1 16 7
M  V30 17 1 17 8
M  V30 18 1 18 9
M  V30 19 1 19 10
M  V30 END BOND
M  V30 END CTAB
M  END
>  <i_epik_Tot_Q>  (1) 
0

>  <i_epik_Tot_abs_Q>  (1) 
0

>  <i_i_glide_confnum>  (1) 
1

>  <i_i_glide_lignum>  (1) 
1

>  <i_i_glide_posenum>  (1) 
361

>  <i_i_glide_rotatable_bonds>  (1) 
2

>  <i_lp_mmshare_version>  (1) 
72125

>  <i_m_source_file_index>  (1) 
1

>  <i_f3d_flags>  (1) 
0

>  <num_sample>  (1) 
100

>  <b_lp_Chiralities_Consistent>  (1) 
1

>  <r_epik_Charging_Adjusted_Penalty>  (1) 
0

>  <r_epik_Ionization_Penalty>  (1) 
0

>  <r_epik_Ionization_Penalty_Charging>  (1) 
0

>  <r_epik_Ionization_Penalty_Neutral>  (1) 
0

>  <r_epik_State_Penalty>  (1) 
-0

>  <r_glide_ring_energy>  (1) 
0

>  <r_i_docking_score>  (1) 
-6.0044702184251433

>  <r_i_glide_ecoul>  (1) 
-1.0279491330583457

>  <r_i_glide_eff_state_penalty>  (1) 
-0

>  <r_i_glide_einternal>  (1) 
0.0028467611740474741

>  <r_i_glide_emodel>  (1) 
-30.154764935445634

>  <r_i_glide_emodel_strain>  (1) 
0

>  <r_i_glide_energy>  (1) 
-21.79780477301605

>  <r_i_glide_erotb>  (1) 
0.80789427267668723

>  <r_i_glide_esite>  (1) 
0

>  <r_i_glide_evdw>  (1) 
-20.769855639957704

>  <r_i_glide_gscore>  (1) 
-6.0044702184251433

>  <r_i_glide_gscore_strain>  (1) 
0

>  <r_i_glide_hbond>  (1) 
0

>  <r_i_glide_ligand_efficiency>  (1) 
-0.60044702184251431

>  <r_i_glide_ligand_efficiency_ln>  (1) 
-1.8181121907086524

>  <r_i_glide_ligand_efficiency_sa>  (1) 
-1.2936238933838453

>  <r_i_glide_lipo>  (1) 
-2.3778960218889957

>  <r_i_glide_metal>  (1) 
-0

>  <r_i_glide_rewards>  (1) 
-3.2417833172561981

>  <r_lp_Energy>  (1) 
9.4498509999999989

>  <r_lp_tautomer_probability>  (1) 
1

>  <s_epik_Chemistry_Notes>  (1) 
This compound has an imine and may undergo hydrolysis.

>  <s_epik_cmdline>  (1) 
J2VwaWtfcHl0aG9uJywgJy1waHQnLCAnMS4wJywgJy1waCcsICc3LjQnLCAnLXRuJywgJzgnLCAnLW1hJywgJzUwMCcsICctaW1hZScsICc8aW5maWxlLm1hZT4nLCAnLW9tYWUnLCAnPG91dGZpbGUubWFlPic=

>  <s_epik_input>  (1) 
W0hdXE49W0NIXVxbQ0hdPVtDSF1cYzFbY0hdW2NIXVtjSF1bY0hdW2NIXTE=

>  <s_glide_docking_method>  (1) 
confgen

>  <s_i_glide_gridfile>  (1) 
gpcr_5ht2c_6bqh_protein_autoprepared_prepared

>  <s_lp_Force_Field>  (1) 
S-OPLS

>  <s_lp_Variant>  (1) 
Pocket2Mol_0_num_sample_100-1

>  <s_m_source_file>  (1) 
generated__ligand_Pocket2Mol_2026-05-06_prepared.sdf

>  <GenAI_Model>  (1) 
Pocket2Mol

>  <Protein>  (1) 
GPCR_5HT2C

$$$$
Pocket2Mol_29_num_sample_100
     RDKit          3D

  0  0  0  0  0  0  0  0  0  0999 V3000
M  V30 BEGIN CTAB
M  V30 COUNTS 13 13 0 0 1
M  V30 BEGIN ATOM
M  V30 1 C 39.061637 29.319716 53.174231 0
M  V30 2 C 39.867403 30.295612 52.553283 0
M  V30 3 C 38.657308 28.177429 52.454523 0
M  V30 4 C 40.267405 30.129172 51.213146 0
M  V30 5 O 37.867419 27.237456 53.052811 0
M  V30 6 C 39.867403 28.985651 50.496000 0
M  V30 7 C 39.065007 28.008765 51.116215 0
M  V30 8 H 38.750692 29.449590 54.200636 0
M  V30 9 H 40.175051 31.172955 53.103999 0
M  V30 10 H 40.882575 30.878784 50.735940 0
M  V30 11 H 37.438627 26.661439 52.432812 0
M  V30 12 H 40.174647 28.858539 49.468540 0
M  V30 13 H 38.757898 27.132612 50.563351 0
M  V30 END ATOM
M  V30 BEGIN BOND
M  V30 1 1 2 1
M  V30 2 2 3 1
M  V30 3 2 4 2
M  V30 4 1 5 3
M  V30 5 1 6 4
M  V30 6 1 7 3
M  V30 7 2 7 6
M  V30 8 1 8 1
M  V30 9 1 9 2
M  V30 10 1 10 4
M  V30 11 1 11 5
M  V30 12 1 12 6
M  V30 13 1 13 7
M  V30 END BOND
M  V30 END CTAB
M  END
>  <i_epik_Tot_Q>  (1) 
0

>  <i_epik_Tot_abs_Q>  (1) 
0

>  <i_i_glide_confnum>  (1) 
1

>  <i_i_glide_lignum>  (1) 
32

>  <i_i_glide_posenum>  (1) 
345

>  <i_i_glide_rotatable_bonds>  (1) 
1

>  <i_lp_mmshare_version>  (1) 
72125

>  <i_m_source_file_index>  (1) 
30

>  <i_f3d_flags>  (1) 
0

>  <num_sample>  (1) 
100

>  <b_lp_Chiralities_Consistent>  (1) 
1

>  <r_epik_Charging_Adjusted_Penalty>  (1) 
0

>  <r_epik_Ionization_Penalty>  (1) 
0.0022482968708945868

>  <r_epik_Ionization_Penalty_Charging>  (1) 
0

>  <r_epik_Ionization_Penalty_Neutral>  (1) 
0.0022482968708945868

>  <r_epik_State_Penalty>  (1) 
-0

>  <r_glide_ring_energy>  (1) 
0

>  <r_i_docking_score>  (1) 
-5.9986207999382151

>  <r_i_glide_ecoul>  (1) 
-2.9012918298694994

>  <r_i_glide_eff_state_penalty>  (1) 
-0

>  <r_i_glide_einternal>  (1) 
0.28634095485855876

>  <r_i_glide_emodel>  (1) 
-26.527280966898061

>  <r_i_glide_emodel_strain>  (1) 
0.0069628268382047054

>  <r_i_glide_energy>  (1) 
-19.645823925143727

>  <r_i_glide_erotb>  (1) 
0

>  <r_i_glide_esite>  (1) 
0

>  <r_i_glide_evdw>  (1) 
-16.744532095274227

>  <r_i_glide_gscore>  (1) 
-5.9986207999382151

>  <r_i_glide_gscore_strain>  (1) 
0

>  <r_i_glide_hbond>  (1) 
-0.2272250611733555

>  <r_i_glide_ligand_efficiency>  (1) 
-0.85694582856260215

>  <r_i_glide_ligand_efficiency_ln>  (1) 
-2.036253821883141

>  <r_i_glide_ligand_efficiency_sa>  (1) 
-1.6392783974041236

>  <r_i_glide_lipo>  (1) 
-1.8726555394442057

>  <r_i_glide_metal>  (1) 
-0

>  <r_i_glide_rewards>  (1) 
-2.6263198200765174

>  <r_lp_Energy>  (1) 
6.6738649999999993

>  <r_lp_tautomer_probability>  (1) 
1

>  <s_epik_cmdline>  (1) 
J2VwaWtfcHl0aG9uJywgJy1waHQnLCAnMS4wJywgJy1waCcsICc3LjQnLCAnLXRuJywgJzgnLCAnLW1hJywgJzUwMCcsICctaW1hZScsICc8aW5maWxlLm1hZT4nLCAnLW9tYWUnLCAnPG91dGZpbGUubWFlPic=

>  <s_epik_input>  (1) 
W09IXWMxW2NIXVtjSF1bY0hdW2NIXVtjSF0x

>  <s_glide_docking_method>  (1) 
confgen

>  <s_i_glide_gridfile>  (1) 
gpcr_5ht2c_6bqh_protein_autoprepared_prepared

>  <s_lp_Force_Field>  (1) 
S-OPLS

>  <s_lp_Variant>  (1) 
Pocket2Mol_29_num_sample_100-1

>  <s_m_source_file>  (1) 
generated__ligand_Pocket2Mol_2026-05-06_prepared.sdf

>  <GenAI_Model>  (1) 
Pocket2Mol

>  <Protein>  (1) 
GPCR_5HT2C

$$$$
Pocket2Mol_87_num_sample_100
     RDKit          3D

  0  0  0  0  0  0  0  0  0  0999 V3000
M  V30 BEGIN CTAB
M  V30 COUNTS 18 18 0 0 1
M  V30 BEGIN ATOM
M  V30 1 C 39.075843 27.986593 51.194685 0
M  V30 2 C 38.675386 28.292360 52.509226 0
M  V30 3 C 39.067401 29.518371 53.112391 0
M  V30 4 C 38.636105 29.849957 54.511365 0
M  V30 5 N 37.867403 28.892910 55.140782 0
M  V30 6 C 38.969408 31.003260 55.123934 0
M  V30 7 C 39.867403 28.892625 50.469309 0
M  V30 8 C 39.867403 30.421431 52.365889 0
M  V30 9 C 40.263679 30.105349 51.053331 0
M  V30 10 H 38.772206 27.053341 50.741810 0
M  V30 11 H 38.066429 27.587647 53.052538 0
M  V30 12 H 37.555683 28.063712 54.659316 0
M  V30 13 H 40.170847 28.657960 49.461045 0
M  V30 14 H 40.179399 31.356756 52.794148 0
M  V30 15 H 40.872453 30.800240 50.492703 0
M  V30 16 H 38.638128 31.206882 56.132302 0
M  V30 17 H 39.567858 31.752967 54.638453 0
M  V30 18 H 37.459496 29.058483 56.050607 0
M  V30 END ATOM
M  V30 BEGIN BOND
M  V30 1 1 2 1
M  V30 2 2 3 2
M  V30 3 1 4 3
M  V30 4 1 5 4
M  V30 5 2 6 4
M  V30 6 2 7 1
M  V30 7 1 8 3
M  V30 8 1 9 7
M  V30 9 2 9 8
M  V30 10 1 10 1
M  V30 11 1 11 2
M  V30 12 1 12 5
M  V30 13 1 13 7
M  V30 14 1 14 8
M  V30 15 1 15 9
M  V30 16 1 16 6
M  V30 17 1 17 6
M  V30 18 1 18 5
M  V30 END BOND
M  V30 END CTAB
M  END
>  <i_epik_Tot_Q>  (1) 
0

>  <i_epik_Tot_abs_Q>  (1) 
0

>  <i_i_glide_confnum>  (1) 
1

>  <i_i_glide_lignum>  (1) 
92

>  <i_i_glide_posenum>  (1) 
187

>  <i_i_glide_rotatable_bonds>  (1) 
1

>  <i_lp_mmshare_version>  (1) 
72125

>  <i_m_source_file_index>  (1) 
88

>  <i_f3d_flags>  (1) 
0

>  <num_sample>  (1) 
100

>  <b_lp_Chiralities_Consistent>  (1) 
1

>  <r_epik_Charging_Adjusted_Penalty>  (1) 
0.00088152279553634463

>  <r_epik_Ionization_Penalty>  (1) 
0.001176351566598113

>  <r_epik_Ionization_Penalty_Charging>  (1) 
0.00088152279553634463

>  <r_epik_Ionization_Penalty_Neutral>  (1) 
0.00029482877106176849

>  <r_epik_State_Penalty>  (1) 
-0

>  <r_glide_ring_energy>  (1) 
0

>  <r_i_docking_score>  (1) 
-5.9986035392936392

>  <r_i_glide_ecoul>  (1) 
-0.92438647256445594

>  <r_i_glide_eff_state_penalty>  (1) 
-0

>  <r_i_glide_einternal>  (1) 
0.0025570055700254724

>  <r_i_glide_emodel>  (1) 
-27.027614984614868

>  <r_i_glide_emodel_strain>  (1) 
0

>  <r_i_glide_energy>  (1) 
-19.416499829868318

>  <r_i_glide_erotb>  (1) 
0

>  <r_i_glide_esite>  (1) 
0

>  <r_i_glide_evdw>  (1) 
-18.492113357303861

>  <r_i_glide_gscore>  (1) 
-5.9986035392936392

>  <r_i_glide_gscore_strain>  (1) 
0

>  <r_i_glide_hbond>  (1) 
0

>  <r_i_glide_ligand_efficiency>  (1) 
-0.66651150436595996

>  <r_i_glide_ligand_efficiency_ln>  (1) 
-1.8761908631052122

>  <r_i_glide_ligand_efficiency_sa>  (1) 
-1.3863997981096219

>  <r_i_glide_lipo>  (1) 
-2.141843388368196

>  <r_i_glide_metal>  (1) 
-0

>  <r_i_glide_rewards>  (1) 
-2.7934965121755821

>  <r_lp_Energy>  (1) 
13.175675

>  <r_lp_tautomer_probability>  (1) 
1

>  <s_epik_Chemistry_Notes>  (1) 
This compound has an imine and may undergo hydrolysis.

>  <s_epik_cmdline>  (1) 
J2VwaWtfcHl0aG9uJywgJy1waHQnLCAnMS4wJywgJy1waCcsICc3LjQnLCAnLXRuJywgJzgnLCAnLW1hJywgJzUwMCcsICctaW1hZScsICc8aW5maWxlLm1hZT4nLCAnLW9tYWUnLCAnPG91dGZpbGUubWFlPic=

>  <s_epik_input>  (1) 
W2NIXTFbY0hdW2NIXVtjSF1bY0hdYzEvQyg9Ti9bSF0pW0NIM10=

>  <s_glide_docking_method>  (1) 
confgen

>  <s_i_glide_gridfile>  (1) 
gpcr_5ht2c_6bqh_protein_autoprepared_prepared

>  <s_lp_Force_Field>  (1) 
S-OPLS

>  <s_lp_Variant>  (1) 
Pocket2Mol_87_num_sample_100-1

>  <s_m_source_file>  (1) 
generated__ligand_Pocket2Mol_2026-05-06_prepared.sdf

>  <GenAI_Model>  (1) 
Pocket2Mol

>  <Protein>  (1) 
GPCR_5HT2C

$$$$
Pocket2Mol_98_num_sample_100
     RDKit          3D

  0  0  0  0  0  0  0  0  0  0999 V3000
M  V30 BEGIN CTAB
M  V30 COUNTS 18 19 0 0 1
M  V30 BEGIN ATOM
M  V30 1 C 40.360177 30.021557 50.581325 0
M  V30 2 O 39.687173 28.729524 50.705194 0
M  V30 3 O 40.267402 30.820862 51.798235 0
M  V30 4 C 39.210509 28.848482 51.948867 0
M  V30 5 C 39.531549 29.996666 52.549610 0
M  V30 6 C 39.112832 30.290915 53.856150 0
M  V30 7 C 38.327886 29.339950 54.549324 0
M  V30 8 C 37.856767 29.626757 55.960058 0
M  V30 9 C 38.433799 27.870246 52.591289 0
M  V30 10 C 37.984041 28.117152 53.910472 0
M  V30 11 H 41.413238 29.866765 50.347488 0
M  V30 12 H 39.901774 30.577897 49.762490 0
M  V30 13 H 39.383165 31.227630 54.321777 0
M  V30 14 H 37.470706 28.731252 56.446093 0
M  V30 15 H 38.678988 30.010254 56.564635 0
M  V30 16 H 37.067209 30.378668 55.945922 0
M  V30 17 H 38.182654 26.948355 52.087106 0
M  V30 18 H 37.383761 27.381933 54.426396 0
M  V30 END ATOM
M  V30 BEGIN BOND
M  V30 1 1 2 1
M  V30 2 1 3 1
M  V30 3 1 4 2
M  V30 4 1 5 3
M  V30 5 2 5 4
M  V30 6 1 6 5
M  V30 7 2 7 6
M  V30 8 1 8 7
M  V30 9 1 9 4
M  V30 10 1 10 7
M  V30 11 2 10 9
M  V30 12 1 11 1
M  V30 13 1 12 1
M  V30 14 1 13 6
M  V30 15 1 14 8
M  V30 16 1 15 8
M  V30 17 1 16 8
M  V30 18 1 17 9
M  V30 19 1 18 10
M  V30 END BOND
M  V30 END CTAB
M  END
>  <i_epik_Tot_Q>  (1) 
0

>  <i_epik_Tot_abs_Q>  (1) 
0

>  <i_i_glide_confnum>  (1) 
1

>  <i_i_glide_lignum>  (1) 
103

>  <i_i_glide_posenum>  (1) 
43

>  <i_i_glide_rotatable_bonds>  (1) 
0

>  <i_lp_mmshare_version>  (1) 
72125

>  <i_m_source_file_index>  (1) 
99

>  <i_f3d_flags>  (1) 
0

>  <num_sample>  (1) 
100

>  <b_lp_Chiralities_Consistent>  (1) 
1

>  <r_epik_Charging_Adjusted_Penalty>  (1) 
0

>  <r_epik_Ionization_Penalty>  (1) 
0

>  <r_epik_Ionization_Penalty_Charging>  (1) 
0

>  <r_epik_Ionization_Penalty_Neutral>  (1) 
0

>  <r_epik_State_Penalty>  (1) 
-0

>  <r_glide_ring_energy>  (1) 
0

>  <r_i_docking_score>  (1) 
-5.9983167074841273

>  <r_i_glide_ecoul>  (1) 
-0.62917591334919698

>  <r_i_glide_eff_state_penalty>  (1) 
-0

>  <r_i_glide_einternal>  (1) 
0

>  <r_i_glide_emodel>  (1) 
-28.848121672754178

>  <r_i_glide_emodel_strain>  (1) 
0.00030577826436939404

>  <r_i_glide_energy>  (1) 
-20.660908236233279

>  <r_i_glide_erotb>  (1) 
0

>  <r_i_glide_esite>  (1) 
0

>  <r_i_glide_evdw>  (1) 
-20.031732322884082

>  <r_i_glide_gscore>  (1) 
-5.9983167074841273

>  <r_i_glide_gscore_strain>  (1) 
0

>  <r_i_glide_hbond>  (1) 
0

>  <r_i_glide_ligand_efficiency>  (1) 
-0.5998316707484127

>  <r_i_glide_ligand_efficiency_ln>  (1) 
-1.8162489500145458

>  <r_i_glide_ligand_efficiency_sa>  (1) 
-1.2922981596401637

>  <r_i_glide_lipo>  (1) 
-1.7012682775761103

>  <r_i_glide_metal>  (1) 
-0

>  <r_i_glide_rewards>  (1) 
-3.2010854267614333

>  <r_lp_Energy>  (1) 
16.823695000000001

>  <r_lp_tautomer_probability>  (1) 
1

>  <s_epik_Chemistry_Notes>  (1) 
This compound contains an acetal/aminal-like group ( X-CH(R)-Y where X, Y are N, S, or O) that may be acid/base labile, releasing an aldehyde.

>  <s_epik_cmdline>  (1) 
J2VwaWtfcHl0aG9uJywgJy1waHQnLCAnMS4wJywgJy1waCcsICc3LjQnLCAnLXRuJywgJzgnLCAnLW1hJywgJzUwMCcsICctaW1hZScsICc8aW5maWxlLm1hZT4nLCAnLW9tYWUnLCAnPG91dGZpbGUubWFlPic=

>  <s_epik_input>  (1) 
TzFbQ0gyXU9jKGMxMilbY0hdYyhbQ0gzXSlbY0hdW2NIXTI=

>  <s_glide_docking_method>  (1) 
confgen

>  <s_i_glide_gridfile>  (1) 
gpcr_5ht2c_6bqh_protein_autoprepared_prepared

>  <s_lp_Force_Field>  (1) 
S-OPLS

>  <s_lp_Variant>  (1) 
Pocket2Mol_98_num_sample_100-1

>  <s_m_source_file>  (1) 
generated__ligand_Pocket2Mol_2026-05-06_prepared.sdf

>  <GenAI_Model>  (1) 
Pocket2Mol

>  <Protein>  (1) 
GPCR_5HT2C

$$$$
Pocket2Mol_50_num_sample_100
     RDKit          3D

  0  0  0  0  0  0  0  0  0  0999 V3000
M  V30 BEGIN CTAB
M  V30 COUNTS 14 14 0 0 1
M  V30 BEGIN ATOM
M  V30 1 C 38.598094 29.215418 53.768174 0
M  V30 2 C 39.453926 30.296058 53.479669 0
M  V30 3 C 40.014402 30.426638 52.195043 0
M  V30 4 C 39.725150 29.475978 51.198338 0
M  V30 5 C 38.303539 28.263793 52.772028 0
M  V30 6 O 40.267402 29.608696 49.953693 0
M  V30 7 O 37.467411 27.221467 53.053501 0
M  V30 8 C 38.870433 28.391820 51.485893 0
M  V30 9 H 38.164927 29.117989 54.752993 0
M  V30 10 H 39.677502 31.026965 54.243164 0
M  V30 11 H 40.667389 31.258464 51.975458 0
M  V30 12 H 40.763045 30.407377 49.853526 0
M  V30 13 H 37.153723 26.754088 52.287142 0
M  V30 14 H 38.646890 27.663628 50.720088 0
M  V30 END ATOM
M  V30 BEGIN BOND
M  V30 1 1 2 1
M  V30 2 2 3 2
M  V30 3 1 4 3
M  V30 4 2 5 1
M  V30 5 1 6 4
M  V30 6 1 7 5
M  V30 7 2 8 4
M  V30 8 1 8 5
M  V30 9 1 9 1
M  V30 10 1 10 2
M  V30 11 1 11 3
M  V30 12 1 12 6
M  V30 13 1 13 7
M  V30 14 1 14 8
M  V30 END BOND
M  V30 END CTAB
M  END
>  <i_epik_Tot_Q>  (1) 
0

>  <i_epik_Tot_abs_Q>  (1) 
0

>  <i_i_glide_confnum>  (1) 
1

>  <i_i_glide_lignum>  (1) 
53

>  <i_i_glide_posenum>  (1) 
336

>  <i_i_glide_rotatable_bonds>  (1) 
2

>  <i_lp_mmshare_version>  (1) 
72125

>  <i_m_source_file_index>  (1) 
51

>  <i_f3d_flags>  (1) 
0

>  <num_sample>  (1) 
100

>  <b_lp_Chiralities_Consistent>  (1) 
1

>  <r_epik_Charging_Adjusted_Penalty>  (1) 
0.012403777776626769

>  <r_epik_Ionization_Penalty>  (1) 
0.012403777776626781

>  <r_epik_Ionization_Penalty_Charging>  (1) 
0

>  <r_epik_Ionization_Penalty_Neutral>  (1) 
0.012403777776626781

>  <r_epik_State_Penalty>  (1) 
0.012403777776626769

>  <r_glide_ring_energy>  (1) 
0

>  <r_i_docking_score>  (1) 
-5.9978935453827642

>  <r_i_glide_ecoul>  (1) 
-4.2388543734534894

>  <r_i_glide_eff_state_penalty>  (1) 
0.012403777776626769

>  <r_i_glide_einternal>  (1) 
0.15645889780635772

>  <r_i_glide_emodel>  (1) 
-29.290511334855758

>  <r_i_glide_emodel_strain>  (1) 
0

>  <r_i_glide_energy>  (1) 
-21.114190794097528

>  <r_i_glide_erotb>  (1) 
0

>  <r_i_glide_esite>  (1) 
0

>  <r_i_glide_evdw>  (1) 
-16.875336420644039

>  <r_i_glide_gscore>  (1) 
-6.0102973231593912

>  <r_i_glide_gscore_strain>  (1) 
0

>  <r_i_glide_hbond>  (1) 
-0.32000000000000001

>  <r_i_glide_ligand_efficiency>  (1) 
-0.74973669317284553

>  <r_i_glide_ligand_efficiency_ln>  (1) 
-1.9477211904178289

>  <r_i_glide_ligand_efficiency_sa>  (1) 
-1.4994733863456913

>  <r_i_glide_lipo>  (1) 
-1.8149368989473669

>  <r_i_glide_metal>  (1) 
-0

>  <r_i_glide_rewards>  (1) 
-2.3957654471617991

>  <r_lp_Energy>  (1) 
4.2546869999999997

>  <r_lp_tautomer_probability>  (1) 
0.99999999989799981

>  <s_epik_cmdline>  (1) 
J2VwaWtfcHl0aG9uJywgJy1waHQnLCAnMS4wJywgJy1waCcsICc3LjQnLCAnLXRuJywgJzgnLCAnLW1hJywgJzUwMCcsICctaW1hZScsICc8aW5maWxlLm1hZT4nLCAnLW9tYWUnLCAnPG91dGZpbGUubWFlPic=

>  <s_epik_input>  (1) 
W09IXWMoW2NIXTEpW2NIXVtjSF1bY0hdYzFbT0hd

>  <s_glide_docking_method>  (1) 
confgen

>  <s_i_glide_gridfile>  (1) 
gpcr_5ht2c_6bqh_protein_autoprepared_prepared

>  <s_lp_Force_Field>  (1) 
S-OPLS

>  <s_lp_Variant>  (1) 
Pocket2Mol_50_num_sample_100-1

>  <s_m_source_file>  (1) 
generated__ligand_Pocket2Mol_2026-05-06_prepared.sdf

>  <GenAI_Model>  (1) 
Pocket2Mol

>  <Protein>  (1) 
GPCR_5HT2C

$$$$
Pocket2Mol_95_num_sample_100
     RDKit          3D

  0  0  0  0  0  0  0  0  0  0999 V3000
M  V30 BEGIN CTAB
M  V30 COUNTS 14 15 0 0 1
M  V30 BEGIN ATOM
M  V30 1 C 40.028828 29.290593 50.471634 0
M  V30 2 C 39.997760 30.207214 51.610232 0
M  V30 3 C 39.419471 29.576854 52.637881 0
M  V30 4 C 39.067403 28.274378 52.219507 0
M  V30 5 C 39.467403 28.112819 50.831745 0
M  V30 6 C 39.163279 30.080408 53.972647 0
M  V30 7 O 39.467080 31.210249 54.350598 0
M  V30 8 N 38.499516 27.423952 52.965386 0
M  V30 9 C 38.227943 27.919953 54.311915 0
M  V30 10 N 38.521601 29.106673 54.780037 0
M  V30 11 H 40.434448 29.517887 49.496844 0
M  V30 12 H 40.375163 31.220486 51.618643 0
M  V30 13 H 39.313742 27.207562 50.261827 0
M  V30 14 H 37.728651 27.230778 54.998033 0
M  V30 END ATOM
M  V30 BEGIN BOND
M  V30 1 1 2 1
M  V30 2 2 3 2
M  V30 3 1 4 3
M  V30 4 2 5 1
M  V30 5 1 5 4
M  V30 6 1 6 3
M  V30 7 2 7 6
M  V30 8 2 8 4
M  V30 9 1 9 8
M  V30 10 1 10 6
M  V30 11 2 10 9
M  V30 12 1 11 1
M  V30 13 1 12 2
M  V30 14 1 13 5
M  V30 15 1 14 9
M  V30 END BOND
M  V30 END CTAB
M  END
>  <i_epik_Tot_Q>  (1) 
0

>  <i_epik_Tot_abs_Q>  (1) 
0

>  <i_i_glide_confnum>  (1) 
1

>  <i_i_glide_lignum>  (1) 
100

>  <i_i_glide_posenum>  (1) 
75

>  <i_i_glide_rotatable_bonds>  (1) 
0

>  <i_lp_mmshare_version>  (1) 
72125

>  <i_m_source_file_index>  (1) 
96

>  <i_f3d_flags>  (1) 
0

>  <num_sample>  (1) 
100

>  <b_lp_Chiralities_Consistent>  (1) 
1

>  <r_epik_Charging_Adjusted_Penalty>  (1) 
0

>  <r_epik_Ionization_Penalty>  (1) 
0.00072225958823983786

>  <r_epik_Ionization_Penalty_Charging>  (1) 
0

>  <r_epik_Ionization_Penalty_Neutral>  (1) 
0.00072225958823983786

>  <r_epik_State_Penalty>  (1) 
-0

>  <r_glide_ring_energy>  (1) 
0

>  <r_i_docking_score>  (1) 
-5.9971275755374593

>  <r_i_glide_ecoul>  (1) 
0.55603387291125328

>  <r_i_glide_eff_state_penalty>  (1) 
-0

>  <r_i_glide_einternal>  (1) 
0

>  <r_i_glide_emodel>  (1) 
-32.213324114166895

>  <r_i_glide_emodel_strain>  (1) 
0

>  <r_i_glide_energy>  (1) 
-23.353319565624343

>  <r_i_glide_erotb>  (1) 
0

>  <r_i_glide_esite>  (1) 
0

>  <r_i_glide_evdw>  (1) 
-23.909353438535597

>  <r_i_glide_gscore>  (1) 
-5.9971275755374593

>  <r_i_glide_gscore_strain>  (1) 
0

>  <r_i_glide_hbond>  (1) 
0

>  <r_i_glide_ligand_efficiency>  (1) 
-0.59971275755374598

>  <r_i_glide_ligand_efficiency_ln>  (1) 
-1.8158888890582996

>  <r_i_glide_ligand_efficiency_sa>  (1) 
-1.292041968928471

>  <r_i_glide_lipo>  (1) 
-1.2030935515187544

>  <r_i_glide_metal>  (1) 
-0

>  <r_i_glide_rewards>  (1) 
-3.6819714330286129

>  <r_lp_Energy>  (1) 
19.123919000000001

>  <r_lp_tautomer_probability>  (1) 
1

>  <s_epik_Chemistry_Notes>  (1) 
This compound has an imine and may undergo hydrolysis.

>  <s_epik_cmdline>  (1) 
J2VwaWtfcHl0aG9uJywgJy1waHQnLCAnMS4wJywgJy1waCcsICc3LjQnLCAnLXRuJywgJzgnLCAnLW1hJywgJzUwMCcsICctaW1hZScsICc8aW5maWxlLm1hZT4nLCAnLW9tYWUnLCAnPG91dGZpbGUubWFlPic=

>  <s_epik_input>  (1) 
W0NIXT0xW0NIXT1bQ0hdQyhDMTIpPU5bQ0hdPU5DMj1P

>  <s_glide_docking_method>  (1) 
confgen

>  <s_i_glide_gridfile>  (1) 
gpcr_5ht2c_6bqh_protein_autoprepared_prepared

>  <s_lp_Force_Field>  (1) 
S-OPLS

>  <s_lp_Variant>  (1) 
Pocket2Mol_95_num_sample_100-1

>  <s_m_source_file>  (1) 
generated__ligand_Pocket2Mol_2026-05-06_prepared.sdf

>  <GenAI_Model>  (1) 
Pocket2Mol

>  <Protein>  (1) 
GPCR_5HT2C

$$$$
Pocket2Mol_29_num_sample_100
     RDKit          3D

  0  0  0  0  0  0  0  0  0  0999 V3000
M  V30 BEGIN CTAB
M  V30 COUNTS 13 13 0 0 1
M  V30 BEGIN ATOM
M  V30 1 C 39.064935 28.020705 51.114921 0
M  V30 2 C 39.867403 28.995647 50.492015 0
M  V30 3 C 38.657325 28.193233 52.452728 0
M  V30 4 C 40.267403 30.141204 51.205884 0
M  V30 5 O 37.867404 27.255256 53.053446 0
M  V30 6 C 39.867403 30.311488 52.545601 0
M  V30 7 C 39.061962 29.337372 53.169374 0
M  V30 8 H 38.757740 27.143046 50.564520 0
M  V30 9 H 40.174829 28.865519 49.465038 0
M  V30 10 H 40.882655 30.889400 50.726511 0
M  V30 11 H 37.433843 26.680948 52.435175 0
M  V30 12 H 40.175289 31.190263 53.093735 0
M  V30 13 H 38.751255 29.470198 54.195545 0
M  V30 END ATOM
M  V30 BEGIN BOND
M  V30 1 1 2 1
M  V30 2 2 3 1
M  V30 3 2 4 2
M  V30 4 1 5 3
M  V30 5 1 6 4
M  V30 6 1 7 3
M  V30 7 2 7 6
M  V30 8 1 8 1
M  V30 9 1 9 2
M  V30 10 1 10 4
M  V30 11 1 11 5
M  V30 12 1 12 6
M  V30 13 1 13 7
M  V30 END BOND
M  V30 END CTAB
M  END
>  <i_epik_Tot_Q>  (1) 
0

>  <i_epik_Tot_abs_Q>  (1) 
0

>  <i_i_glide_confnum>  (1) 
1

>  <i_i_glide_lignum>  (1) 
32

>  <i_i_glide_posenum>  (1) 
315

>  <i_i_glide_rotatable_bonds>  (1) 
1

>  <i_lp_mmshare_version>  (1) 
72125

>  <i_m_source_file_index>  (1) 
30

>  <i_f3d_flags>  (1) 
0

>  <num_sample>  (1) 
100

>  <b_lp_Chiralities_Consistent>  (1) 
1

>  <r_epik_Charging_Adjusted_Penalty>  (1) 
0

>  <r_epik_Ionization_Penalty>  (1) 
0.0022482968708945868

>  <r_epik_Ionization_Penalty_Charging>  (1) 
0

>  <r_epik_Ionization_Penalty_Neutral>  (1) 
0.0022482968708945868

>  <r_epik_State_Penalty>  (1) 
-0

>  <r_glide_ring_energy>  (1) 
0

>  <r_i_docking_score>  (1) 
-5.9943427738729973

>  <r_i_glide_ecoul>  (1) 
-2.9008118808957541

>  <r_i_glide_eff_state_penalty>  (1) 
-0

>  <r_i_glide_einternal>  (1) 
0.41636545801577834

>  <r_i_glide_emodel>  (1) 
-26.466042705644725

>  <r_i_glide_emodel_strain>  (1) 
0.0090647720665897324

>  <r_i_glide_energy>  (1) 
-19.656714567874829

>  <r_i_glide_erotb>  (1) 
0

>  <r_i_glide_esite>  (1) 
0

>  <r_i_glide_evdw>  (1) 
-16.755902686979073

>  <r_i_glide_gscore>  (1) 
-5.9943427738729973

>  <r_i_glide_gscore_strain>  (1) 
0

>  <r_i_glide_hbond>  (1) 
-0.22575696783620253

>  <r_i_glide_ligand_efficiency>  (1) 
-0.8563346819818568

>  <r_i_glide_ligand_efficiency_ln>  (1) 
-2.0348016302517737

>  <r_i_glide_ligand_efficiency_sa>  (1) 
-1.638109316052571

>  <r_i_glide_lipo>  (1) 
-1.8702607925840233

>  <r_i_glide_metal>  (1) 
-0

>  <r_i_glide_rewards>  (1) 
-2.6254080969694549

>  <r_lp_Energy>  (1) 
6.6738649999999993

>  <r_lp_tautomer_probability>  (1) 
1

>  <s_epik_cmdline>  (1) 
J2VwaWtfcHl0aG9uJywgJy1waHQnLCAnMS4wJywgJy1waCcsICc3LjQnLCAnLXRuJywgJzgnLCAnLW1hJywgJzUwMCcsICctaW1hZScsICc8aW5maWxlLm1hZT4nLCAnLW9tYWUnLCAnPG91dGZpbGUubWFlPic=

>  <s_epik_input>  (1) 
W09IXWMxW2NIXVtjSF1bY0hdW2NIXVtjSF0x

>  <s_glide_docking_method>  (1) 
confgen

>  <s_i_glide_gridfile>  (1) 
gpcr_5ht2c_6bqh_protein_autoprepared_prepared

>  <s_lp_Force_Field>  (1) 
S-OPLS

>  <s_lp_Variant>  (1) 
Pocket2Mol_29_num_sample_100-1

>  <s_m_source_file>  (1) 
generated__ligand_Pocket2Mol_2026-05-06_prepared.sdf

>  <GenAI_Model>  (1) 
Pocket2Mol

>  <Protein>  (1) 
GPCR_5HT2C

$$$$
Pocket2Mol_95_num_sample_100
     RDKit          3D

  0  0  0  0  0  0  0  0  0  0999 V3000
M  V30 BEGIN CTAB
M  V30 COUNTS 14 15 0 0 1
M  V30 BEGIN ATOM
M  V30 1 C 39.867395 28.819334 50.643779 0
M  V30 2 C 39.033943 27.893097 51.411446 0
M  V30 3 C 38.810597 28.432576 52.614187 0
M  V30 4 C 39.467400 29.681151 52.670034 0
M  V30 5 C 40.137244 29.907763 51.399411 0
M  V30 6 C 38.039430 27.890101 53.713690 0
M  V30 7 O 37.467403 26.802804 53.680894 0
M  V30 8 N 39.447595 30.444255 53.680457 0
M  V30 9 C 38.660790 29.917208 54.792696 0
M  V30 10 N 38.029759 28.770769 54.825329 0
M  V30 11 H 40.212767 28.659915 49.634177 0
M  V30 12 H 38.661224 26.939118 51.064134 0
M  V30 13 H 40.716541 30.791932 51.172208 0
M  V30 14 H 38.592295 30.542796 55.686523 0
M  V30 END ATOM
M  V30 BEGIN BOND
M  V30 1 1 2 1
M  V30 2 2 3 2
M  V30 3 1 4 3
M  V30 4 2 5 1
M  V30 5 1 5 4
M  V30 6 1 6 3
M  V30 7 2 7 6
M  V30 8 2 8 4
M  V30 9 1 9 8
M  V30 10 1 10 6
M  V30 11 2 10 9
M  V30 12 1 11 1
M  V30 13 1 12 2
M  V30 14 1 13 5
M  V30 15 1 14 9
M  V30 END BOND
M  V30 END CTAB
M  END
>  <i_epik_Tot_Q>  (1) 
0

>  <i_epik_Tot_abs_Q>  (1) 
0

>  <i_i_glide_confnum>  (1) 
1

>  <i_i_glide_lignum>  (1) 
100

>  <i_i_glide_posenum>  (1) 
389

>  <i_i_glide_rotatable_bonds>  (1) 
0

>  <i_lp_mmshare_version>  (1) 
72125

>  <i_m_source_file_index>  (1) 
96

>  <i_f3d_flags>  (1) 
0

>  <num_sample>  (1) 
100

>  <b_lp_Chiralities_Consistent>  (1) 
1

>  <r_epik_Charging_Adjusted_Penalty>  (1) 
0

>  <r_epik_Ionization_Penalty>  (1) 
0.00072225958823983786

>  <r_epik_Ionization_Penalty_Charging>  (1) 
0

>  <r_epik_Ionization_Penalty_Neutral>  (1) 
0.00072225958823983786

>  <r_epik_State_Penalty>  (1) 
-0

>  <r_glide_ring_energy>  (1) 
0

>  <r_i_docking_score>  (1) 
-5.9868857813903924

>  <r_i_glide_ecoul>  (1) 
-0.043318098939836458

>  <r_i_glide_eff_state_penalty>  (1) 
-0

>  <r_i_glide_einternal>  (1) 
0

>  <r_i_glide_emodel>  (1) 
-33.113071210804797

>  <r_i_glide_emodel_strain>  (1) 
0

>  <r_i_glide_energy>  (1) 
-24.268197629810512

>  <r_i_glide_erotb>  (1) 
0

>  <r_i_glide_esite>  (1) 
0

>  <r_i_glide_evdw>  (1) 
-24.224879530870677

>  <r_i_glide_gscore>  (1) 
-5.9868857813903924

>  <r_i_glide_gscore_strain>  (1) 
0

>  <r_i_glide_hbond>  (1) 
0

>  <r_i_glide_ligand_efficiency>  (1) 
-0.5986885781390392

>  <r_i_glide_ligand_efficiency_ln>  (1) 
-1.8127877443917191

>  <r_i_glide_ligand_efficiency_sa>  (1) 
-1.2898354412686104

>  <r_i_glide_lipo>  (1) 
-1.3200000000000001

>  <r_i_glide_metal>  (1) 
-0

>  <r_i_glide_rewards>  (1) 
-3.4491440900058832

>  <r_lp_Energy>  (1) 
19.123919000000001

>  <r_lp_tautomer_probability>  (1) 
1

>  <s_epik_Chemistry_Notes>  (1) 
This compound has an imine and may undergo hydrolysis.

>  <s_epik_cmdline>  (1) 
J2VwaWtfcHl0aG9uJywgJy1waHQnLCAnMS4wJywgJy1waCcsICc3LjQnLCAnLXRuJywgJzgnLCAnLW1hJywgJzUwMCcsICctaW1hZScsICc8aW5maWxlLm1hZT4nLCAnLW9tYWUnLCAnPG91dGZpbGUubWFlPic=

>  <s_epik_input>  (1) 
W0NIXT0xW0NIXT1bQ0hdQyhDMTIpPU5bQ0hdPU5DMj1P

>  <s_glide_docking_method>  (1) 
confgen

>  <s_i_glide_gridfile>  (1) 
gpcr_5ht2c_6bqh_protein_autoprepared_prepared

>  <s_lp_Force_Field>  (1) 
S-OPLS

>  <s_lp_Variant>  (1) 
Pocket2Mol_95_num_sample_100-1

>  <s_m_source_file>  (1) 
generated__ligand_Pocket2Mol_2026-05-06_prepared.sdf

>  <GenAI_Model>  (1) 
Pocket2Mol

>  <Protein>  (1) 
GPCR_5HT2C

$$$$
Pocket2Mol_50_num_sample_100
     RDKit          3D

  0  0  0  0  0  0  0  0  0  0999 V3000
M  V30 BEGIN CTAB
M  V30 COUNTS 14 14 0 0 1
M  V30 BEGIN ATOM
M  V30 1 C 39.867406 30.421435 52.562164 0
M  V30 2 C 39.851955 29.421121 51.569481 0
M  V30 3 C 39.042927 28.280030 51.733781 0
M  V30 4 C 38.251445 28.139662 52.891971 0
M  V30 5 C 39.075842 30.280950 53.719476 0
M  V30 6 O 37.467406 27.038487 53.053513 0
M  V30 7 O 39.089570 31.252913 54.677074 0
M  V30 8 C 38.268648 29.139273 53.884309 0
M  V30 9 H 40.486124 31.297127 52.434745 0
M  V30 10 H 40.458770 29.530622 50.682635 0
M  V30 11 H 39.029644 27.513408 50.972110 0
M  V30 12 H 37.204795 26.621145 52.238744 0
M  V30 13 H 38.419908 31.149882 55.338035 0
M  V30 14 H 37.660186 29.029835 54.770442 0
M  V30 END ATOM
M  V30 BEGIN BOND
M  V30 1 1 2 1
M  V30 2 2 3 2
M  V30 3 1 4 3
M  V30 4 2 5 1
M  V30 5 1 6 4
M  V30 6 1 7 5
M  V30 7 2 8 4
M  V30 8 1 8 5
M  V30 9 1 9 1
M  V30 10 1 10 2
M  V30 11 1 11 3
M  V30 12 1 12 6
M  V30 13 1 13 7
M  V30 14 1 14 8
M  V30 END BOND
M  V30 END CTAB
M  END
>  <i_epik_Tot_Q>  (1) 
0

>  <i_epik_Tot_abs_Q>  (1) 
0

>  <i_i_glide_confnum>  (1) 
1

>  <i_i_glide_lignum>  (1) 
53

>  <i_i_glide_posenum>  (1) 
215

>  <i_i_glide_rotatable_bonds>  (1) 
2

>  <i_lp_mmshare_version>  (1) 
72125

>  <i_m_source_file_index>  (1) 
51

>  <i_f3d_flags>  (1) 
0

>  <num_sample>  (1) 
100

>  <b_lp_Chiralities_Consistent>  (1) 
1

>  <r_epik_Charging_Adjusted_Penalty>  (1) 
0.012403777776626769

>  <r_epik_Ionization_Penalty>  (1) 
0.012403777776626781

>  <r_epik_Ionization_Penalty_Charging>  (1) 
0

>  <r_epik_Ionization_Penalty_Neutral>  (1) 
0.012403777776626781

>  <r_epik_State_Penalty>  (1) 
0.012403777776626769

>  <r_glide_ring_energy>  (1) 
0

>  <r_i_docking_score>  (1) 
-5.9786065649490983

>  <r_i_glide_ecoul>  (1) 
-4.4780263912899159

>  <r_i_glide_eff_state_penalty>  (1) 
0.012403777776626769

>  <r_i_glide_einternal>  (1) 
0.72945519004622916

>  <r_i_glide_emodel>  (1) 
-28.16763841806063

>  <r_i_glide_emodel_strain>  (1) 
0.11591391181644983

>  <r_i_glide_energy>  (1) 
-20.420218698702428

>  <r_i_glide_erotb>  (1) 
0

>  <r_i_glide_esite>  (1) 
0

>  <r_i_glide_evdw>  (1) 
-15.942192307412512

>  <r_i_glide_gscore>  (1) 
-5.9910103427257253

>  <r_i_glide_gscore_strain>  (1) 
0

>  <r_i_glide_hbond>  (1) 
-0.28811578553218697

>  <r_i_glide_ligand_efficiency>  (1) 
-0.74732582061863728

>  <r_i_glide_ligand_efficiency_ln>  (1) 
-1.941458048165372

>  <r_i_glide_ligand_efficiency_sa>  (1) 
-1.4946516412372748

>  <r_i_glide_lipo>  (1) 
-1.8346462408478086

>  <r_i_glide_metal>  (1) 
-0

>  <r_i_glide_rewards>  (1) 
-2.3994347422816169

>  <r_lp_Energy>  (1) 
4.2546869999999997

>  <r_lp_tautomer_probability>  (1) 
0.99999999989799981

>  <s_epik_cmdline>  (1) 
J2VwaWtfcHl0aG9uJywgJy1waHQnLCAnMS4wJywgJy1waCcsICc3LjQnLCAnLXRuJywgJzgnLCAnLW1hJywgJzUwMCcsICctaW1hZScsICc8aW5maWxlLm1hZT4nLCAnLW9tYWUnLCAnPG91dGZpbGUubWFlPic=

>  <s_epik_input>  (1) 
W09IXWMoW2NIXTEpW2NIXVtjSF1bY0hdYzFbT0hd

>  <s_glide_docking_method>  (1) 
confgen

>  <s_i_glide_gridfile>  (1) 
gpcr_5ht2c_6bqh_protein_autoprepared_prepared

>  <s_lp_Force_Field>  (1) 
S-OPLS

>  <s_lp_Variant>  (1) 
Pocket2Mol_50_num_sample_100-1

>  <s_m_source_file>  (1) 
generated__ligand_Pocket2Mol_2026-05-06_prepared.sdf

>  <GenAI_Model>  (1) 
Pocket2Mol

>  <Protein>  (1) 
GPCR_5HT2C

$$$$
Pocket2Mol_96_num_sample_100
     RDKit          3D

  0  0  0  0  0  0  0  0  0  0999 V3000
M  V30 BEGIN CTAB
M  V30 COUNTS 18 19 0 0 1
M  V30 BEGIN ATOM
M  V30 1 C 39.867414 28.923957 50.638009 0
M  V30 2 C 39.067439 27.996461 51.364566 0
M  V30 3 C 40.104280 29.997250 51.453729 0
M  V30 4 C 38.829278 28.540387 52.593693 0
M  V30 5 N 39.467380 29.762478 52.659993 0
M  V30 6 C 38.060164 28.044303 53.763211 0
M  V30 7 O 37.626349 26.895710 53.791777 0
M  V30 8 C 39.477577 30.632379 53.809344 0
M  V30 9 N 37.867404 28.921412 54.772195 0
M  V30 10 C 38.265795 30.335684 54.706528 0
M  V30 11 H 40.234064 28.817102 49.628106 0
M  V30 12 H 38.699342 27.040056 51.020876 0
M  V30 13 H 40.667206 30.906047 51.291523 0
M  V30 14 H 40.408100 30.463337 54.352115 0
M  V30 15 H 39.467604 31.669758 53.479284 0
M  V30 16 H 37.362670 28.616133 55.590847 0
M  V30 17 H 38.446480 30.705931 55.716100 0
M  V30 18 H 37.403952 30.891005 54.333025 0
M  V30 END ATOM
M  V30 BEGIN BOND
M  V30 1 1 2 1
M  V30 2 2 3 1
M  V30 3 2 4 2
M  V30 4 1 5 3
M  V30 5 1 5 4
M  V30 6 1 6 4
M  V30 7 2 7 6
M  V30 8 1 8 5
M  V30 9 1 9 6
M  V30 10 1 10 8
M  V30 11 1 10 9
M  V30 12 1 11 1
M  V30 13 1 12 2
M  V30 14 1 13 3
M  V30 15 1 14 8
M  V30 16 1 15 8
M  V30 17 1 16 9
M  V30 18 1 17 10
M  V30 19 1 18 10
M  V30 END BOND
M  V30 END CTAB
M  END
>  <i_epik_Tot_Q>  (1) 
0

>  <i_epik_Tot_abs_Q>  (1) 
0

>  <i_i_glide_confnum>  (1) 
1

>  <i_i_glide_lignum>  (1) 
101

>  <i_i_glide_posenum>  (1) 
70

>  <i_i_glide_rotatable_bonds>  (1) 
0

>  <i_lp_mmshare_version>  (1) 
72125

>  <i_m_source_file_index>  (1) 
97

>  <i_f3d_flags>  (1) 
0

>  <num_sample>  (1) 
100

>  <b_lp_Chiralities_Consistent>  (1) 
1

>  <r_epik_Charging_Adjusted_Penalty>  (1) 
0

>  <r_epik_Ionization_Penalty>  (1) 
5.1203149696400337e-08

>  <r_epik_Ionization_Penalty_Charging>  (1) 
0

>  <r_epik_Ionization_Penalty_Neutral>  (1) 
5.1203149696400337e-08

>  <r_epik_State_Penalty>  (1) 
-0

>  <r_glide_ring_energy>  (1) 
0

>  <r_i_docking_score>  (1) 
-5.9765741177873801

>  <r_i_glide_ecoul>  (1) 
-0.33301248544977646

>  <r_i_glide_eff_state_penalty>  (1) 
-0

>  <r_i_glide_einternal>  (1) 
0

>  <r_i_glide_emodel>  (1) 
-34.152347483942449

>  <r_i_glide_emodel_strain>  (1) 
0

>  <r_i_glide_energy>  (1) 
-24.877553287870334

>  <r_i_glide_erotb>  (1) 
0

>  <r_i_glide_esite>  (1) 
0

>  <r_i_glide_evdw>  (1) 
-24.544540802420556

>  <r_i_glide_gscore>  (1) 
-5.9765741177873801

>  <r_i_glide_gscore_strain>  (1) 
0

>  <r_i_glide_hbond>  (1) 
0

>  <r_i_glide_ligand_efficiency>  (1) 
-0.59765741177873799

>  <r_i_glide_ligand_efficiency_ln>  (1) 
-1.8096654437355189

>  <r_i_glide_ligand_efficiency_sa>  (1) 
-1.2876138606907834

>  <r_i_glide_lipo>  (1) 
-1.7037522767554278

>  <r_i_glide_metal>  (1) 
-0

>  <r_i_glide_rewards>  (1) 
-2.9956429280934578

>  <r_lp_Energy>  (1) 
15.907292999999999

>  <r_lp_tautomer_probability>  (1) 
1

>  <s_epik_cmdline>  (1) 
J2VwaWtfcHl0aG9uJywgJy1waHQnLCAnMS4wJywgJy1waCcsICc3LjQnLCAnLXRuJywgJzgnLCAnLW1hJywgJzUwMCcsICctaW1hZScsICc8aW5maWxlLm1hZT4nLCAnLW9tYWUnLCAnPG91dGZpbGUubWFlPic=

>  <s_epik_input>  (1) 
W2NIXTFbY0hdW2NIXW4oYzEyKVtDSDJdW0NIMl1bTkhdQzI9Tw==

>  <s_glide_docking_method>  (1) 
confgen

>  <s_i_glide_gridfile>  (1) 
gpcr_5ht2c_6bqh_protein_autoprepared_prepared

>  <s_lp_Force_Field>  (1) 
S-OPLS

>  <s_lp_Variant>  (1) 
Pocket2Mol_96_num_sample_100-1

>  <s_m_source_file>  (1) 
generated__ligand_Pocket2Mol_2026-05-06_prepared.sdf

>  <GenAI_Model>  (1) 
Pocket2Mol

>  <Protein>  (1) 
GPCR_5HT2C

$$$$
Pocket2Mol_51_num_sample_100
     RDKit          3D

  0  0  0  0  0  0  0  0  0  0999 V3000
M  V30 BEGIN CTAB
M  V30 COUNTS 18 18 0 0 1
M  V30 BEGIN ATOM
M  V30 1 C 39.068977 28.240472 51.602023 0
M  V30 2 C 38.531050 27.998198 52.881477 0
M  V30 3 C 38.662936 28.967893 53.898308 0
M  V30 4 C 38.087196 28.708823 55.276530 0
M  V30 5 C 39.738013 29.453319 51.335976 0
M  V30 6 C 40.312156 29.717231 49.960313 0
M  V30 7 C 39.867419 30.422904 52.351719 0
M  V30 8 C 39.331543 30.180255 53.631523 0
M  V30 9 H 38.965835 27.496763 50.824641 0
M  V30 10 H 38.017409 27.068957 53.082323 0
M  V30 11 H 38.862537 28.811371 56.036135 0
M  V30 12 H 37.298128 29.428793 55.496910 0
M  V30 13 H 37.669249 27.704748 55.359170 0
M  V30 14 H 41.355716 30.023486 50.035488 0
M  V30 15 H 40.267403 28.821958 49.341004 0
M  V30 16 H 39.754540 30.509691 49.459967 0
M  V30 17 H 40.377764 31.353560 52.148659 0
M  V30 18 H 39.432071 30.924712 54.408229 0
M  V30 END ATOM
M  V30 BEGIN BOND
M  V30 1 2 2 1
M  V30 2 1 3 2
M  V30 3 1 4 3
M  V30 4 1 5 1
M  V30 5 1 6 5
M  V30 6 2 7 5
M  V30 7 2 8 3
M  V30 8 1 8 7
M  V30 9 1 9 1
M  V30 10 1 10 2
M  V30 11 1 11 4
M  V30 12 1 12 4
M  V30 13 1 13 4
M  V30 14 1 14 6
M  V30 15 1 15 6
M  V30 16 1 16 6
M  V30 17 1 17 7
M  V30 18 1 18 8
M  V30 END BOND
M  V30 END CTAB
M  END
>  <i_epik_Tot_Q>  (1) 
0

>  <i_epik_Tot_abs_Q>  (1) 
0

>  <i_i_glide_confnum>  (1) 
1

>  <i_i_glide_lignum>  (1) 
54

>  <i_i_glide_posenum>  (1) 
58

>  <i_i_glide_rotatable_bonds>  (1) 
0

>  <i_lp_mmshare_version>  (1) 
72125

>  <i_m_source_file_index>  (1) 
52

>  <i_f3d_flags>  (1) 
0

>  <num_sample>  (1) 
100

>  <b_lp_Chiralities_Consistent>  (1) 
1

>  <r_epik_Charging_Adjusted_Penalty>  (1) 
0

>  <r_epik_Ionization_Penalty>  (1) 
0

>  <r_epik_Ionization_Penalty_Charging>  (1) 
0

>  <r_epik_Ionization_Penalty_Neutral>  (1) 
0

>  <r_epik_State_Penalty>  (1) 
-0

>  <r_glide_ring_energy>  (1) 
0

>  <r_i_docking_score>  (1) 
-5.9745249629081902

>  <r_i_glide_ecoul>  (1) 
-1.038226912401262

>  <r_i_glide_eff_state_penalty>  (1) 
-0

>  <r_i_glide_einternal>  (1) 
0

>  <r_i_glide_emodel>  (1) 
-25.585126540902632

>  <r_i_glide_emodel_strain>  (1) 
0.012552838304199732

>  <r_i_glide_energy>  (1) 
-18.405592167260316

>  <r_i_glide_erotb>  (1) 
0

>  <r_i_glide_esite>  (1) 
0

>  <r_i_glide_evdw>  (1) 
-17.367365254859052

>  <r_i_glide_gscore>  (1) 
-5.9745249629081902

>  <r_i_glide_gscore_strain>  (1) 
0

>  <r_i_glide_hbond>  (1) 
0

>  <r_i_glide_ligand_efficiency>  (1) 
-0.74681562036352378

>  <r_i_glide_ligand_efficiency_ln>  (1) 
-1.9401326123726597

>  <r_i_glide_ligand_efficiency_sa>  (1) 
-1.4936312407270478

>  <r_i_glide_lipo>  (1) 
-2.250720451696373

>  <r_i_glide_metal>  (1) 
-0

>  <r_i_glide_rewards>  (1) 
-2.6997022116086744

>  <r_lp_Energy>  (1) 
3.9239269999999999

>  <r_lp_tautomer_probability>  (1) 
1

>  <s_epik_cmdline>  (1) 
J2VwaWtfcHl0aG9uJywgJy1waHQnLCAnMS4wJywgJy1waCcsICc3LjQnLCAnLXRuJywgJzgnLCAnLW1hJywgJzUwMCcsICctaW1hZScsICc8aW5maWxlLm1hZT4nLCAnLW9tYWUnLCAnPG91dGZpbGUubWFlPic=

>  <s_epik_input>  (1) 
W2NIXTFbY0hdYyhbQ0gzXSlbY0hdW2NIXWMxW0NIM10=

>  <s_glide_docking_method>  (1) 
confgen

>  <s_i_glide_gridfile>  (1) 
gpcr_5ht2c_6bqh_protein_autoprepared_prepared

>  <s_lp_Force_Field>  (1) 
S-OPLS

>  <s_lp_Variant>  (1) 
Pocket2Mol_51_num_sample_100-1

>  <s_m_source_file>  (1) 
generated__ligand_Pocket2Mol_2026-05-06_prepared.sdf

>  <GenAI_Model>  (1) 
Pocket2Mol

>  <Protein>  (1) 
GPCR_5HT2C

$$$$
Pocket2Mol_81_num_sample_100
     RDKit          3D

  0  0  0  0  0  0  0  0  0  0999 V3000
M  V30 BEGIN CTAB
M  V30 COUNTS 15 16 0 0 1
M  V30 BEGIN ATOM
M  V30 1 C 39.552538 30.487148 53.490712 0
M  V30 2 C 39.312158 29.416775 52.590580 0
M  V30 3 C 38.259703 28.531120 52.902879 0
M  V30 4 C 39.867388 28.949395 51.371338 0
M  V30 5 C 37.467405 28.673403 54.047213 0
M  V30 6 N 39.253253 27.876196 50.930556 0
M  V30 7 N 38.271099 27.621430 51.853502 0
M  V30 8 C 38.757223 30.645482 54.651303 0
M  V30 9 C 37.714809 29.738146 54.928272 0
M  V30 10 H 40.346857 31.190111 53.286584 0
M  V30 11 H 40.690421 29.360251 50.805299 0
M  V30 12 H 36.670476 27.973481 54.248522 0
M  V30 13 H 37.634613 26.841654 51.725678 0
M  V30 14 H 38.947857 31.467003 55.327109 0
M  V30 15 H 37.106958 29.863998 55.814041 0
M  V30 END ATOM
M  V30 BEGIN BOND
M  V30 1 1 2 1
M  V30 2 2 3 2
M  V30 3 1 4 2
M  V30 4 1 5 3
M  V30 5 2 6 4
M  V30 6 1 7 3
M  V30 7 1 7 6
M  V30 8 2 8 1
M  V30 9 2 9 5
M  V30 10 1 9 8
M  V30 11 1 10 1
M  V30 12 1 11 4
M  V30 13 1 12 5
M  V30 14 1 13 7
M  V30 15 1 14 8
M  V30 16 1 15 9
M  V30 END BOND
M  V30 END CTAB
M  END
>  <i_epik_Tot_Q>  (1) 
0

>  <i_epik_Tot_abs_Q>  (1) 
0

>  <i_i_glide_confnum>  (1) 
1

>  <i_i_glide_lignum>  (1) 
86

>  <i_i_glide_posenum>  (1) 
237

>  <i_i_glide_rotatable_bonds>  (1) 
0

>  <i_lp_mmshare_version>  (1) 
72125

>  <i_m_source_file_index>  (1) 
82

>  <i_f3d_flags>  (1) 
0

>  <num_sample>  (1) 
100

>  <b_lp_Chiralities_Consistent>  (1) 
1

>  <r_epik_Charging_Adjusted_Penalty>  (1) 
0

>  <r_epik_Ionization_Penalty>  (1) 
2.5998422111611493e-06

>  <r_epik_Ionization_Penalty_Charging>  (1) 
0

>  <r_epik_Ionization_Penalty_Neutral>  (1) 
2.5998422111611493e-06

>  <r_epik_State_Penalty>  (1) 
-0

>  <r_glide_ring_energy>  (1) 
0

>  <r_i_docking_score>  (1) 
-5.9554699555307868

>  <r_i_glide_ecoul>  (1) 
-2.8077300004979202

>  <r_i_glide_eff_state_penalty>  (1) 
-0

>  <r_i_glide_einternal>  (1) 
0

>  <r_i_glide_emodel>  (1) 
-31.38263950345328

>  <r_i_glide_emodel_strain>  (1) 
0

>  <r_i_glide_energy>  (1) 
-23.023272187154639

>  <r_i_glide_erotb>  (1) 
0

>  <r_i_glide_esite>  (1) 
0

>  <r_i_glide_evdw>  (1) 
-20.21554218665672

>  <r_i_glide_gscore>  (1) 
-5.9554699555307868

>  <r_i_glide_gscore_strain>  (1) 
0

>  <r_i_glide_hbond>  (1) 
-0.29732125088113426

>  <r_i_glide_ligand_efficiency>  (1) 
-0.66171888394786516

>  <r_i_glide_ligand_efficiency_ln>  (1) 
-1.8626999172177672

>  <r_i_glide_ligand_efficiency_sa>  (1) 
-1.376430745907915

>  <r_i_glide_lipo>  (1) 
-1.6158779139415629

>  <r_i_glide_metal>  (1) 
-0

>  <r_i_glide_rewards>  (1) 
-2.6103341813005665

>  <r_lp_Energy>  (1) 
10.425352

>  <r_lp_tautomer_probability>  (1) 
1

>  <s_epik_cmdline>  (1) 
J2VwaWtfcHl0aG9uJywgJy1waHQnLCAnMS4wJywgJy1waCcsICc3LjQnLCAnLXRuJywgJzgnLCAnLW1hJywgJzUwMCcsICctaW1hZScsICc8aW5maWxlLm1hZT4nLCAnLW9tYWUnLCAnPG91dGZpbGUubWFlPic=

>  <s_epik_input>  (1) 
W2NIXTFbY0hdW2NIXVtjSF1jKGMxMiluW25IXVtjSF0y

>  <s_glide_docking_method>  (1) 
confgen

>  <s_i_glide_gridfile>  (1) 
gpcr_5ht2c_6bqh_protein_autoprepared_prepared

>  <s_lp_Force_Field>  (1) 
S-OPLS

>  <s_lp_Variant>  (1) 
Pocket2Mol_81_num_sample_100-1

>  <s_m_source_file>  (1) 
generated__ligand_Pocket2Mol_2026-05-06_prepared.sdf

>  <GenAI_Model>  (1) 
Pocket2Mol

>  <Protein>  (1) 
GPCR_5HT2C

$$$$
Pocket2Mol_82_num_sample_100
     RDKit          3D

  0  0  0  0  0  0  0  0  0  0999 V3000
M  V30 BEGIN CTAB
M  V30 COUNTS 16 16 0 0 1
M  V30 BEGIN ATOM
M  V30 1 C 38.647299 29.755279 54.510754 0
M  V30 2 C 39.067403 29.481713 53.085969 0
M  V30 3 C 38.667417 28.290542 52.425533 0
M  V30 4 C 39.867404 30.421430 52.400995 0
M  V30 5 C 40.266155 30.179847 51.073256 0
M  V30 6 C 39.070208 28.054473 51.096642 0
M  V30 7 C 39.867403 29.000002 50.422068 0
M  V30 8 O 39.011826 30.771546 55.096742 0
M  V30 9 N 37.867406 28.829768 55.069820 0
M  V30 10 H 38.055772 27.560484 52.932312 0
M  V30 11 H 40.176385 31.330665 52.895548 0
M  V30 12 H 40.877665 30.903601 50.553507 0
M  V30 13 H 38.765593 27.147763 50.593781 0
M  V30 14 H 40.172275 28.821429 49.403212 0
M  V30 15 H 37.596873 28.013765 54.545799 0
M  V30 16 H 37.545922 28.955536 56.018604 0
M  V30 END ATOM
M  V30 BEGIN BOND
M  V30 1 1 2 1
M  V30 2 1 3 2
M  V30 3 2 4 2
M  V30 4 1 5 4
M  V30 5 2 6 3
M  V30 6 2 7 5
M  V30 7 1 7 6
M  V30 8 2 8 1
M  V30 9 1 9 1
M  V30 10 1 10 3
M  V30 11 1 11 4
M  V30 12 1 12 5
M  V30 13 1 13 6
M  V30 14 1 14 7
M  V30 15 1 15 9
M  V30 16 1 16 9
M  V30 END BOND
M  V30 END CTAB
M  END
>  <i_epik_Tot_Q>  (1) 
0

>  <i_epik_Tot_abs_Q>  (1) 
0

>  <i_i_glide_confnum>  (1) 
1

>  <i_i_glide_lignum>  (1) 
87

>  <i_i_glide_posenum>  (1) 
46

>  <i_i_glide_rotatable_bonds>  (1) 
1

>  <i_lp_mmshare_version>  (1) 
72125

>  <i_m_source_file_index>  (1) 
83

>  <i_f3d_flags>  (1) 
0

>  <num_sample>  (1) 
100

>  <b_lp_Chiralities_Consistent>  (1) 
1

>  <r_epik_Charging_Adjusted_Penalty>  (1) 
0

>  <r_epik_Ionization_Penalty>  (1) 
4.7216645763340487e-07

>  <r_epik_Ionization_Penalty_Charging>  (1) 
0

>  <r_epik_Ionization_Penalty_Neutral>  (1) 
4.7216645763340487e-07

>  <r_epik_State_Penalty>  (1) 
-0

>  <r_glide_ring_energy>  (1) 
0

>  <r_i_docking_score>  (1) 
-5.9552970383627803

>  <r_i_glide_ecoul>  (1) 
-0.36867482391545875

>  <r_i_glide_eff_state_penalty>  (1) 
-0

>  <r_i_glide_einternal>  (1) 
0.02573400732360831

>  <r_i_glide_emodel>  (1) 
-29.148511566203602

>  <r_i_glide_emodel_strain>  (1) 
0

>  <r_i_glide_energy>  (1) 
-20.62087570487477

>  <r_i_glide_erotb>  (1) 
0

>  <r_i_glide_esite>  (1) 
0

>  <r_i_glide_evdw>  (1) 
-20.252200880959311

>  <r_i_glide_gscore>  (1) 
-5.9552970383627803

>  <r_i_glide_gscore_strain>  (1) 
0

>  <r_i_glide_hbond>  (1) 
0

>  <r_i_glide_ligand_efficiency>  (1) 
-0.66169967092919779

>  <r_i_glide_ligand_efficiency_ln>  (1) 
-1.8626458336950669

>  <r_i_glide_ligand_efficiency_sa>  (1) 
-1.3763907812185929

>  <r_i_glide_lipo>  (1) 
-1.8475932944086599

>  <r_i_glide_metal>  (1) 
-0

>  <r_i_glide_rewards>  (1) 
-3.0397924763188371

>  <r_lp_Energy>  (1) 
9.4363049999999991

>  <r_lp_tautomer_probability>  (1) 
1

>  <s_epik_cmdline>  (1) 
J2VwaWtfcHl0aG9uJywgJy1waHQnLCAnMS4wJywgJy1waCcsICc3LjQnLCAnLXRuJywgJzgnLCAnLW1hJywgJzUwMCcsICctaW1hZScsICc8aW5maWxlLm1hZT4nLCAnLW9tYWUnLCAnPG91dGZpbGUubWFlPic=

>  <s_epik_input>  (1) 
Tz1DKFtOSDJdKWMxW2NIXVtjSF1bY0hdW2NIXVtjSF0x

>  <s_glide_docking_method>  (1) 
confgen

>  <s_i_glide_gridfile>  (1) 
gpcr_5ht2c_6bqh_protein_autoprepared_prepared

>  <s_lp_Force_Field>  (1) 
S-OPLS

>  <s_lp_Variant>  (1) 
Pocket2Mol_82_num_sample_100-1

>  <s_m_source_file>  (1) 
generated__ligand_Pocket2Mol_2026-05-06_prepared.sdf

>  <GenAI_Model>  (1) 
Pocket2Mol

>  <Protein>  (1) 
GPCR_5HT2C

$$$$
Pocket2Mol_90_num_sample_100
     RDKit          3D

  0  0  0  0  0  0  0  0  0  0999 V3000
M  V30 BEGIN CTAB
M  V30 COUNTS 14 14 0 0 1
M  V30 BEGIN ATOM
M  V30 1 C 39.867403 29.046009 50.402119 0
M  V30 2 C 39.054831 28.255537 51.289115 0
M  V30 3 C 39.032551 28.821427 52.511244 0
M  V30 4 C 39.867404 30.029970 52.432265 0
M  V30 5 C 40.360388 30.104768 51.053502 0
M  V30 6 C 38.296239 28.281849 53.661451 0
M  V30 7 O 40.104565 30.821430 53.340599 0
M  V30 8 N 37.611201 27.175322 53.360918 0
M  V30 9 O 38.287695 28.771052 54.786570 0
M  V30 10 H 40.049681 28.821430 49.363518 0
M  V30 11 H 38.540783 27.348179 51.007727 0
M  V30 12 H 41.001307 30.885254 50.669606 0
M  V30 13 H 37.629096 26.805995 52.421397 0
M  V30 14 H 37.067409 26.715532 54.075151 0
M  V30 END ATOM
M  V30 BEGIN BOND
M  V30 1 1 2 1
M  V30 2 2 3 2
M  V30 3 1 4 3
M  V30 4 2 5 1
M  V30 5 1 5 4
M  V30 6 1 6 3
M  V30 7 2 7 4
M  V30 8 1 8 6
M  V30 9 2 9 6
M  V30 10 1 10 1
M  V30 11 1 11 2
M  V30 12 1 12 5
M  V30 13 1 13 8
M  V30 14 1 14 8
M  V30 END BOND
M  V30 END CTAB
M  END
>  <i_epik_Tot_Q>  (1) 
0

>  <i_epik_Tot_abs_Q>  (1) 
0

>  <i_i_glide_confnum>  (1) 
1

>  <i_i_glide_lignum>  (1) 
95

>  <i_i_glide_posenum>  (1) 
309

>  <i_i_glide_rotatable_bonds>  (1) 
1

>  <i_lp_mmshare_version>  (1) 
72125

>  <i_m_source_file_index>  (1) 
91

>  <i_f3d_flags>  (1) 
0

>  <num_sample>  (1) 
100

>  <b_lp_Chiralities_Consistent>  (1) 
1

>  <r_epik_Charging_Adjusted_Penalty>  (1) 
0.0065050288304222097

>  <r_epik_Ionization_Penalty>  (1) 
0.0032614418865694397

>  <r_epik_Ionization_Penalty_Charging>  (1) 
0

>  <r_epik_Ionization_Penalty_Neutral>  (1) 
0.0032614418865694397

>  <r_epik_State_Penalty>  (1) 
0.0065050288304222097

>  <r_glide_ring_energy>  (1) 
0

>  <r_i_docking_score>  (1) 
-5.9502549742493009

>  <r_i_glide_ecoul>  (1) 
-1.1762128852179787

>  <r_i_glide_eff_state_penalty>  (1) 
0.0065050288304222097

>  <r_i_glide_einternal>  (1) 
0.83103829975536936

>  <r_i_glide_emodel>  (1) 
-29.849702192643772

>  <r_i_glide_emodel_strain>  (1) 
0

>  <r_i_glide_energy>  (1) 
-21.53442760974049

>  <r_i_glide_erotb>  (1) 
0

>  <r_i_glide_esite>  (1) 
0

>  <r_i_glide_evdw>  (1) 
-20.358214724522512

>  <r_i_glide_gscore>  (1) 
-5.9567600030797232

>  <r_i_glide_gscore_strain>  (1) 
0

>  <r_i_glide_hbond>  (1) 
0

>  <r_i_glide_ligand_efficiency>  (1) 
-0.66113944158325566

>  <r_i_glide_ligand_efficiency_ln>  (1) 
-1.8610688208855131

>  <r_i_glide_ligand_efficiency_sa>  (1) 
-1.3752254572188998

>  <r_i_glide_lipo>  (1) 
-1.3200000000000001

>  <r_i_glide_metal>  (1) 
-0

>  <r_i_glide_rewards>  (1) 
-3.4424173340709001

>  <r_lp_Energy>  (1) 
1.7710899999999998

>  <s_epik_cmdline>  (1) 
J2VwaWtfcHl0aG9uJywgJy1waHQnLCAnMS4wJywgJy1waCcsICc3LjQnLCAnLXRuJywgJzgnLCAnLW1hJywgJzUwMCcsICctaW1hZScsICc8aW5maWxlLm1hZT4nLCAnLW9tYWUnLCAnPG91dGZpbGUubWFlPic=

>  <s_epik_input>  (1) 
Tz1DMVtDSF09W0NIXVtDSF09QzFDKD1PKVtOSDJd

>  <s_glide_docking_method>  (1) 
confgen

>  <s_i_glide_gridfile>  (1) 
gpcr_5ht2c_6bqh_protein_autoprepared_prepared

>  <s_lp_Force_Field>  (1) 
S-OPLS

>  <s_lp_Variant>  (1) 
Pocket2Mol_90_num_sample_100-1

>  <s_m_source_file>  (1) 
generated__ligand_Pocket2Mol_2026-05-06_prepared.sdf

>  <GenAI_Model>  (1) 
Pocket2Mol

>  <Protein>  (1) 
GPCR_5HT2C

$$$$
Pocket2Mol_73_num_sample_100
     RDKit          3D

  0  0  0  0  0  0  0  0  0  0999 V3000
M  V30 BEGIN CTAB
M  V30 COUNTS 15 16 0 0 1
M  V30 BEGIN ATOM
M  V30 1 C 39.103220 27.938418 51.064792 0
M  V30 2 C 38.863289 28.435101 52.408746 0
M  V30 3 C 39.867343 28.872597 50.462605 0
M  V30 4 C 40.119411 29.959708 51.400673 0
M  V30 5 C 39.508078 29.673573 52.558071 0
M  V30 6 C 39.467403 30.419787 53.777388 0
M  V30 7 N 38.192678 27.880792 53.329076 0
M  V30 8 N 38.833223 29.966127 54.782336 0
M  V30 9 C 38.118116 28.644837 54.627933 0
M  V30 10 H 38.716071 27.001881 50.689530 0
M  V30 11 H 40.231787 28.824243 49.448605 0
M  V30 12 H 40.703455 30.846012 51.197278 0
M  V30 13 H 40.001821 31.372726 53.789367 0
M  V30 14 H 38.458698 27.983639 55.425313 0
M  V30 15 H 37.067395 28.821923 54.847400 0
M  V30 END ATOM
M  V30 BEGIN BOND
M  V30 1 1 2 1
M  V30 2 2 3 1
M  V30 3 1 4 3
M  V30 4 1 5 2
M  V30 5 2 5 4
M  V30 6 1 6 5
M  V30 7 2 7 2
M  V30 8 2 8 6
M  V30 9 1 9 7
M  V30 10 1 9 8
M  V30 11 1 10 1
M  V30 12 1 11 3
M  V30 13 1 12 4
M  V30 14 1 13 6
M  V30 15 1 14 9
M  V30 16 1 15 9
M  V30 END BOND
M  V30 END CTAB
M  END
>  <i_epik_Tot_Q>  (1) 
0

>  <i_epik_Tot_abs_Q>  (1) 
0

>  <i_i_glide_confnum>  (1) 
1

>  <i_i_glide_lignum>  (1) 
78

>  <i_i_glide_posenum>  (1) 
63

>  <i_i_glide_rotatable_bonds>  (1) 
0

>  <i_lp_mmshare_version>  (1) 
72125

>  <i_m_source_file_index>  (1) 
74

>  <i_f3d_flags>  (1) 
0

>  <num_sample>  (1) 
100

>  <b_lp_Chiralities_Consistent>  (1) 
1

>  <r_epik_Charging_Adjusted_Penalty>  (1) 
0

>  <r_epik_Ionization_Penalty>  (1) 
1.1225786931258508e-06

>  <r_epik_Ionization_Penalty_Charging>  (1) 
0

>  <r_epik_Ionization_Penalty_Neutral>  (1) 
1.1225786931258508e-06

>  <r_epik_State_Penalty>  (1) 
-0

>  <r_glide_ring_energy>  (1) 
0

>  <r_i_docking_score>  (1) 
-5.9450891388354643

>  <r_i_glide_ecoul>  (1) 
0.036533568959800755

>  <r_i_glide_eff_state_penalty>  (1) 
-0

>  <r_i_glide_einternal>  (1) 
0

>  <r_i_glide_emodel>  (1) 
-30.058599677356327

>  <r_i_glide_emodel_strain>  (1) 
0

>  <r_i_glide_energy>  (1) 
-21.941335860581738

>  <r_i_glide_erotb>  (1) 
0

>  <r_i_glide_esite>  (1) 
0

>  <r_i_glide_evdw>  (1) 
-21.977869429541538

>  <r_i_glide_gscore>  (1) 
-5.9450891388354643

>  <r_i_glide_gscore_strain>  (1) 
0

>  <r_i_glide_hbond>  (1) 
0

>  <r_i_glide_ligand_efficiency>  (1) 
-0.66056545987060711

>  <r_i_glide_ligand_efficiency_ln>  (1) 
-1.8594530959688291

>  <r_i_glide_ligand_efficiency_sa>  (1) 
-1.3740315271436918

>  <r_i_glide_lipo>  (1) 
-1.2259137798607869

>  <r_i_glide_metal>  (1) 
-0

>  <r_i_glide_rewards>  (1) 
-3.6257619228415701

>  <r_lp_Energy>  (1) 
3.4627279999999998

>  <r_lp_tautomer_probability>  (1) 
1

>  <s_epik_Chemistry_Notes>  (1) 
This compound has an imine and may undergo hydrolysis. This compound contains an acetal/aminal-like group ( X-CH(R)-Y where X, Y are N, S, or O) that may be acid/base labile, releasing an aldehyde.

>  <s_epik_cmdline>  (1) 
J2VwaWtfcHl0aG9uJywgJy1waHQnLCAnMS4wJywgJy1waCcsICc3LjQnLCAnLXRuJywgJzgnLCAnLW1hJywgJzUwMCcsICctaW1hZScsICc8aW5maWxlLm1hZT4nLCAnLW9tYWUnLCAnPG91dGZpbGUubWFlPic=

>  <s_epik_input>  (1) 
W0NIXTE9W0NIXVtDSF09QyhDMT0yKVtDSF09TltDSDJdTjI=

>  <s_glide_docking_method>  (1) 
confgen

>  <s_i_glide_gridfile>  (1) 
gpcr_5ht2c_6bqh_protein_autoprepared_prepared

>  <s_lp_Force_Field>  (1) 
S-OPLS

>  <s_lp_Variant>  (1) 
Pocket2Mol_73_num_sample_100-1

>  <s_m_source_file>  (1) 
generated__ligand_Pocket2Mol_2026-05-06_prepared.sdf

>  <GenAI_Model>  (1) 
Pocket2Mol

>  <Protein>  (1) 
GPCR_5HT2C

$$$$
Pocket2Mol_91_num_sample_100
     RDKit          3D

  0  0  0  0  0  0  0  0  0  0999 V3000
M  V30 BEGIN CTAB
M  V30 COUNTS 14 15 0 0 1
M  V30 BEGIN ATOM
M  V30 1 C 37.814973 28.102985 54.078270 0
M  V30 2 C 38.206190 27.741062 52.764034 0
M  V30 3 C 39.041124 28.620571 52.074587 0
M  V30 4 C 39.560512 28.548738 50.835284 0
M  V30 5 C 38.279360 29.338285 54.632458 0
M  V30 6 C 39.467398 29.753527 52.565701 0
M  V30 7 N 40.267469 30.445665 51.627724 0
M  V30 8 C 40.265820 29.663723 50.627975 0
M  V30 9 C 39.122404 30.180993 53.855234 0
M  V30 10 H 37.170783 27.454248 54.653501 0
M  V30 11 H 37.869743 26.821430 52.313753 0
M  V30 12 H 39.132954 27.903170 50.083011 0
M  V30 13 H 37.988166 29.631021 55.631115 0
M  V30 14 H 39.481224 31.122752 54.244855 0
M  V30 END ATOM
M  V30 BEGIN BOND
M  V30 1 1 2 1
M  V30 2 2 3 2
M  V30 3 1 4 3
M  V30 4 2 5 1
M  V30 5 1 6 3
M  V30 6 1 7 6
M  V30 7 2 8 4
M  V30 8 2 8 7
M  V30 9 1 9 5
M  V30 10 2 9 6
M  V30 11 1 10 1
M  V30 12 1 11 2
M  V30 13 1 12 4
M  V30 14 1 13 5
M  V30 15 1 14 9
M  V30 END BOND
M  V30 END CTAB
M  END
>  <i_epik_Tot_Q>  (1) 
0

>  <i_epik_Tot_abs_Q>  (1) 
0

>  <i_i_glide_confnum>  (1) 
1

>  <i_i_glide_lignum>  (1) 
96

>  <i_i_glide_posenum>  (1) 
321

>  <i_i_glide_rotatable_bonds>  (1) 
0

>  <i_lp_mmshare_version>  (1) 
72125

>  <i_m_source_file_index>  (1) 
92

>  <i_f3d_flags>  (1) 
0

>  <num_sample>  (1) 
100

>  <b_lp_Chiralities_Consistent>  (1) 
1

>  <r_epik_Charging_Adjusted_Penalty>  (1) 
0

>  <r_epik_Ionization_Penalty>  (1) 
7.4584844087238395e-05

>  <r_epik_Ionization_Penalty_Charging>  (1) 
0

>  <r_epik_Ionization_Penalty_Neutral>  (1) 
7.4584844087238395e-05

>  <r_epik_State_Penalty>  (1) 
-0

>  <r_glide_ring_energy>  (1) 
0

>  <r_i_docking_score>  (1) 
-5.9428406120312376

>  <r_i_glide_ecoul>  (1) 
-0.79454193444760324

>  <r_i_glide_eff_state_penalty>  (1) 
-0

>  <r_i_glide_einternal>  (1) 
0

>  <r_i_glide_emodel>  (1) 
-30.124354998671194

>  <r_i_glide_emodel_strain>  (1) 
0

>  <r_i_glide_energy>  (1) 
-22.169922563552024

>  <r_i_glide_erotb>  (1) 
0

>  <r_i_glide_esite>  (1) 
0

>  <r_i_glide_evdw>  (1) 
-21.37538062910442

>  <r_i_glide_gscore>  (1) 
-5.9428406120312376

>  <r_i_glide_gscore_strain>  (1) 
0

>  <r_i_glide_hbond>  (1) 
0

>  <r_i_glide_ligand_efficiency>  (1) 
-0.6603156235590264

>  <r_i_glide_ligand_efficiency_ln>  (1) 
-1.8587498213786844

>  <r_i_glide_ligand_efficiency_sa>  (1) 
-1.3735118466735619

>  <r_i_glide_lipo>  (1) 
-2.321556957075543

>  <r_i_glide_metal>  (1) 
-0

>  <r_i_glide_rewards>  (1) 
-2.4333333333333336

>  <r_lp_Energy>  (1) 
14.311973999999999

>  <r_lp_tautomer_probability>  (1) 
1

>  <s_epik_Chemistry_Notes>  (1) 
This compound has an imine and may undergo hydrolysis.

>  <s_epik_cmdline>  (1) 
J2VwaWtfcHl0aG9uJywgJy1waHQnLCAnMS4wJywgJy1waCcsICc3LjQnLCAnLXRuJywgJzgnLCAnLW1hJywgJzUwMCcsICctaW1hZScsICc8aW5maWxlLm1hZT4nLCAnLW9tYWUnLCAnPG91dGZpbGUubWFlPic=

>  <s_epik_input>  (1) 
W2NIXTFbY0hdW2NIXVtjSF1jKGMxMilOPUM9W0NIXTI=

>  <s_glide_docking_method>  (1) 
confgen

>  <s_i_glide_gridfile>  (1) 
gpcr_5ht2c_6bqh_protein_autoprepared_prepared

>  <s_lp_Force_Field>  (1) 
S-OPLS

>  <s_lp_Variant>  (1) 
Pocket2Mol_91_num_sample_100-1

>  <s_m_source_file>  (1) 
generated__ligand_Pocket2Mol_2026-05-06_prepared.sdf

>  <GenAI_Model>  (1) 
Pocket2Mol

>  <Protein>  (1) 
GPCR_5HT2C

$$$$
Pocket2Mol_0_num_sample_100
     RDKit          3D

  0  0  0  0  0  0  0  0  0  0999 V3000
M  V30 BEGIN CTAB
M  V30 COUNTS 19 19 0 0 1
M  V30 BEGIN ATOM
M  V30 1 C 37.996333 27.084789 53.335188 0
M  V30 2 C 38.771925 28.193311 52.669996 0
M  V30 3 C 39.135099 28.032610 51.312641 0
M  V30 4 C 39.131145 29.401984 53.333770 0
M  V30 5 C 39.867403 30.394688 52.653499 0
M  V30 6 C 40.239109 30.205607 51.312577 0
M  V30 7 C 39.867404 29.030525 50.641864 0
M  V30 8 C 37.875792 26.804204 54.669464 0
M  V30 9 C 38.576042 27.505266 55.769061 0
M  V30 10 N 38.318476 27.280317 56.983330 0
M  V30 11 H 37.467401 26.437678 52.653501 0
M  V30 12 H 38.857814 27.129821 50.786491 0
M  V30 13 H 38.826939 29.591149 54.340635 0
M  V30 14 H 40.136816 31.307686 53.162606 0
M  V30 15 H 40.800306 30.970038 50.794165 0
M  V30 16 H 40.144089 28.891070 49.607322 0
M  V30 17 H 37.238845 25.991966 54.988941 0
M  V30 18 H 39.345639 28.206366 55.480823 0
M  V30 19 H 38.885435 27.827244 57.615769 0
M  V30 END ATOM
M  V30 BEGIN BOND
M  V30 1 1 2 1
M  V30 2 1 3 2
M  V30 3 2 4 2
M  V30 4 1 5 4
M  V30 5 2 6 5
M  V30 6 2 7 3
M  V30 7 1 7 6
M  V30 8 2 8 1
M  V30 9 1 9 8
M  V30 10 2 10 9
M  V30 11 1 11 1
M  V30 12 1 12 3
M  V30 13 1 13 4
M  V30 14 1 14 5
M  V30 15 1 15 6
M  V30 16 1 16 7
M  V30 17 1 17 8
M  V30 18 1 18 9
M  V30 19 1 19 10
M  V30 END BOND
M  V30 END CTAB
M  END
>  <i_epik_Tot_Q>  (1) 
0

>  <i_epik_Tot_abs_Q>  (1) 
0

>  <i_i_glide_confnum>  (1) 
1

>  <i_i_glide_lignum>  (1) 
2

>  <i_i_glide_posenum>  (1) 
65

>  <i_i_glide_rotatable_bonds>  (1) 
2

>  <i_lp_mmshare_version>  (1) 
72125

>  <i_m_source_file_index>  (1) 
1

>  <i_f3d_flags>  (1) 
0

>  <num_sample>  (1) 
100

>  <b_lp_Chiralities_Consistent>  (1) 
1

>  <r_epik_Charging_Adjusted_Penalty>  (1) 
0

>  <r_epik_Ionization_Penalty>  (1) 
0

>  <r_epik_Ionization_Penalty_Charging>  (1) 
0

>  <r_epik_Ionization_Penalty_Neutral>  (1) 
0

>  <r_epik_State_Penalty>  (1) 
-0

>  <r_glide_ring_energy>  (1) 
0

>  <r_i_docking_score>  (1) 
-5.9384305586757584

>  <r_i_glide_ecoul>  (1) 
-1.4516158233224206

>  <r_i_glide_eff_state_penalty>  (1) 
-0

>  <r_i_glide_einternal>  (1) 
0.098929589767593029

>  <r_i_glide_emodel>  (1) 
-30.554881115132741

>  <r_i_glide_emodel_strain>  (1) 
0

>  <r_i_glide_energy>  (1) 
-22.005054616592133

>  <r_i_glide_erotb>  (1) 
0.80789427267668723

>  <r_i_glide_esite>  (1) 
0

>  <r_i_glide_evdw>  (1) 
-20.553438793269713

>  <r_i_glide_gscore>  (1) 
-5.9384305586757584

>  <r_i_glide_gscore_strain>  (1) 
0

>  <r_i_glide_hbond>  (1) 
0

>  <r_i_glide_ligand_efficiency>  (1) 
-0.5938430558675758

>  <r_i_glide_ligand_efficiency_ln>  (1) 
-1.7981158369766992

>  <r_i_glide_ligand_efficiency_sa>  (1) 
-1.2793960799956474

>  <r_i_glide_lipo>  (1) 
-2.4707038385979518

>  <r_i_glide_metal>  (1) 
-0

>  <r_i_glide_rewards>  (1) 
-3.0302066795926446

>  <r_lp_Energy>  (1) 
13.405619999999999

>  <r_lp_tautomer_probability>  (1) 
1

>  <s_epik_Chemistry_Notes>  (1) 
This compound has an imine and may undergo hydrolysis.

>  <s_epik_cmdline>  (1) 
J2VwaWtfcHl0aG9uJywgJy1waHQnLCAnMS4wJywgJy1waCcsICc3LjQnLCAnLXRuJywgJzgnLCAnLW1hJywgJzUwMCcsICctaW1hZScsICc8aW5maWxlLm1hZT4nLCAnLW9tYWUnLCAnPG91dGZpbGUubWFlPic=

>  <s_epik_input>  (1) 
W0hdL049W0NIXS9bQ0hdPVtDSF1cYzFbY0hdW2NIXVtjSF1bY0hdW2NIXTE=

>  <s_glide_docking_method>  (1) 
confgen

>  <s_i_glide_gridfile>  (1) 
gpcr_5ht2c_6bqh_protein_autoprepared_prepared

>  <s_lp_Force_Field>  (1) 
S-OPLS

>  <s_lp_Variant>  (1) 
Pocket2Mol_0_num_sample_100-2

>  <s_m_source_file>  (1) 
generated__ligand_Pocket2Mol_2026-05-06_prepared.sdf

>  <GenAI_Model>  (1) 
Pocket2Mol

>  <Protein>  (1) 
GPCR_5HT2C

$$$$
Pocket2Mol_0_num_sample_100
     RDKit          3D

  0  0  0  0  0  0  0  0  0  0999 V3000
M  V30 BEGIN CTAB
M  V30 COUNTS 19 19 0 0 1
M  V30 BEGIN ATOM
M  V30 1 C 38.239207 26.830498 53.797149 0
M  V30 2 C 38.786042 28.072183 53.205179 0
M  V30 3 C 39.059500 29.211782 54.005484 0
M  V30 4 C 39.053649 28.122662 51.818295 0
M  V30 5 C 39.594015 29.287348 51.239562 0
M  V30 6 C 39.867404 30.411651 52.039778 0
M  V30 7 C 39.596684 30.376016 53.420139 0
M  V30 8 C 37.989683 26.655956 55.110266 0
M  V30 9 C 37.456024 25.387822 55.625217 0
M  V30 10 N 37.215472 25.194739 56.848116 0
M  V30 11 H 38.037020 26.021430 53.112061 0
M  V30 12 H 38.861960 29.195724 55.064860 0
M  V30 13 H 38.848191 27.261593 51.197895 0
M  V30 14 H 39.798388 29.318058 50.179109 0
M  V30 15 H 40.281514 31.304659 51.593565 0
M  V30 16 H 39.804644 31.241310 54.032349 0
M  V30 17 H 38.170148 27.427889 55.840857 0
M  V30 18 H 37.278122 24.613509 54.873567 0
M  V30 19 H 36.855409 24.269625 57.031704 0
M  V30 END ATOM
M  V30 BEGIN BOND
M  V30 1 1 2 1
M  V30 2 1 3 2
M  V30 3 2 4 2
M  V30 4 1 5 4
M  V30 5 2 6 5
M  V30 6 2 7 3
M  V30 7 1 7 6
M  V30 8 2 8 1
M  V30 9 1 9 8
M  V30 10 2 10 9
M  V30 11 1 11 1
M  V30 12 1 12 3
M  V30 13 1 13 4
M  V30 14 1 14 5
M  V30 15 1 15 6
M  V30 16 1 16 7
M  V30 17 1 17 8
M  V30 18 1 18 9
M  V30 19 1 19 10
M  V30 END BOND
M  V30 END CTAB
M  END
>  <i_epik_Tot_Q>  (1) 
0

>  <i_epik_Tot_abs_Q>  (1) 
0

>  <i_i_glide_confnum>  (1) 
1

>  <i_i_glide_lignum>  (1) 
1

>  <i_i_glide_posenum>  (1) 
383

>  <i_i_glide_rotatable_bonds>  (1) 
2

>  <i_lp_mmshare_version>  (1) 
72125

>  <i_m_source_file_index>  (1) 
1

>  <i_f3d_flags>  (1) 
0

>  <num_sample>  (1) 
100

>  <b_lp_Chiralities_Consistent>  (1) 
1

>  <r_epik_Charging_Adjusted_Penalty>  (1) 
0

>  <r_epik_Ionization_Penalty>  (1) 
0

>  <r_epik_Ionization_Penalty_Charging>  (1) 
0

>  <r_epik_Ionization_Penalty_Neutral>  (1) 
0

>  <r_epik_State_Penalty>  (1) 
-0

>  <r_glide_ring_energy>  (1) 
0

>  <r_i_docking_score>  (1) 
-5.9320397857926492

>  <r_i_glide_ecoul>  (1) 
-1.2069846606457681

>  <r_i_glide_eff_state_penalty>  (1) 
-0

>  <r_i_glide_einternal>  (1) 
0.77806366032488117

>  <r_i_glide_emodel>  (1) 
-29.406404442408313

>  <r_i_glide_emodel_strain>  (1) 
0

>  <r_i_glide_energy>  (1) 
-21.537877833869143

>  <r_i_glide_erotb>  (1) 
0.80789427267668723

>  <r_i_glide_esite>  (1) 
0

>  <r_i_glide_evdw>  (1) 
-20.330893173223373

>  <r_i_glide_gscore>  (1) 
-5.9320397857926492

>  <r_i_glide_gscore_strain>  (1) 
0

>  <r_i_glide_hbond>  (1) 
0

>  <r_i_glide_ligand_efficiency>  (1) 
-0.59320397857926488

>  <r_i_glide_ligand_efficiency_ln>  (1) 
-1.7961807550020767

>  <r_i_glide_ligand_efficiency_sa>  (1) 
-1.278019229716099

>  <r_i_glide_lipo>  (1) 
-2.362004112255105

>  <r_i_glide_metal>  (1) 
-0

>  <r_i_glide_rewards>  (1) 
-3.1803375884561982

>  <r_lp_Energy>  (1) 
9.4498509999999989

>  <r_lp_tautomer_probability>  (1) 
1

>  <s_epik_Chemistry_Notes>  (1) 
This compound has an imine and may undergo hydrolysis.

>  <s_epik_cmdline>  (1) 
J2VwaWtfcHl0aG9uJywgJy1waHQnLCAnMS4wJywgJy1waCcsICc3LjQnLCAnLXRuJywgJzgnLCAnLW1hJywgJzUwMCcsICctaW1hZScsICc8aW5maWxlLm1hZT4nLCAnLW9tYWUnLCAnPG91dGZpbGUubWFlPic=

>  <s_epik_input>  (1) 
W0hdXE49W0NIXVxbQ0hdPVtDSF1cYzFbY0hdW2NIXVtjSF1bY0hdW2NIXTE=

>  <s_glide_docking_method>  (1) 
confgen

>  <s_i_glide_gridfile>  (1) 
gpcr_5ht2c_6bqh_protein_autoprepared_prepared

>  <s_lp_Force_Field>  (1) 
S-OPLS

>  <s_lp_Variant>  (1) 
Pocket2Mol_0_num_sample_100-1

>  <s_m_source_file>  (1) 
generated__ligand_Pocket2Mol_2026-05-06_prepared.sdf

>  <GenAI_Model>  (1) 
Pocket2Mol

>  <Protein>  (1) 
GPCR_5HT2C

$$$$
Pocket2Mol_91_num_sample_100
     RDKit          3D

  0  0  0  0  0  0  0  0  0  0999 V3000
M  V30 BEGIN CTAB
M  V30 COUNTS 14 15 0 0 1
M  V30 BEGIN ATOM
M  V30 1 C 37.742673 29.321410 54.639212 0
M  V30 2 C 37.765390 28.341946 53.610825 0
M  V30 3 C 38.663409 28.534720 52.558061 0
M  V30 4 C 38.902609 27.794993 51.458549 0
M  V30 5 C 38.622618 30.445732 54.556278 0
M  V30 6 C 39.467403 29.562450 52.467389 0
M  V30 7 N 40.241241 29.503604 51.281760 0
M  V30 8 C 39.829167 28.431886 50.739402 0
M  V30 9 C 39.501377 30.566360 53.445056 0
M  V30 10 H 37.067409 29.221427 55.475330 0
M  V30 11 H 37.113599 27.481017 53.641671 0
M  V30 12 H 38.187223 27.070068 51.098718 0
M  V30 13 H 38.615798 31.199916 55.329677 0
M  V30 14 H 40.171020 31.407713 53.353932 0
M  V30 END ATOM
M  V30 BEGIN BOND
M  V30 1 1 2 1
M  V30 2 2 3 2
M  V30 3 1 4 3
M  V30 4 2 5 1
M  V30 5 1 6 3
M  V30 6 1 7 6
M  V30 7 2 8 4
M  V30 8 2 8 7
M  V30 9 1 9 5
M  V30 10 2 9 6
M  V30 11 1 10 1
M  V30 12 1 11 2
M  V30 13 1 12 4
M  V30 14 1 13 5
M  V30 15 1 14 9
M  V30 END BOND
M  V30 END CTAB
M  END
>  <i_epik_Tot_Q>  (1) 
0

>  <i_epik_Tot_abs_Q>  (1) 
0

>  <i_i_glide_confnum>  (1) 
1

>  <i_i_glide_lignum>  (1) 
96

>  <i_i_glide_posenum>  (1) 
214

>  <i_i_glide_rotatable_bonds>  (1) 
0

>  <i_lp_mmshare_version>  (1) 
72125

>  <i_m_source_file_index>  (1) 
92

>  <i_f3d_flags>  (1) 
0

>  <num_sample>  (1) 
100

>  <b_lp_Chiralities_Consistent>  (1) 
1

>  <r_epik_Charging_Adjusted_Penalty>  (1) 
0

>  <r_epik_Ionization_Penalty>  (1) 
7.4584844087238395e-05

>  <r_epik_Ionization_Penalty_Charging>  (1) 
0

>  <r_epik_Ionization_Penalty_Neutral>  (1) 
7.4584844087238395e-05

>  <r_epik_State_Penalty>  (1) 
-0

>  <r_glide_ring_energy>  (1) 
0

>  <r_i_docking_score>  (1) 
-5.9308689423272352

>  <r_i_glide_ecoul>  (1) 
-1.0070692500473597

>  <r_i_glide_eff_state_penalty>  (1) 
-0

>  <r_i_glide_einternal>  (1) 
0

>  <r_i_glide_emodel>  (1) 
-29.989212620467729

>  <r_i_glide_emodel_strain>  (1) 
0

>  <r_i_glide_energy>  (1) 
-22.050804144935036

>  <r_i_glide_erotb>  (1) 
0

>  <r_i_glide_esite>  (1) 
0

>  <r_i_glide_evdw>  (1) 
-21.043734894887677

>  <r_i_glide_gscore>  (1) 
-5.9308689423272352

>  <r_i_glide_gscore_strain>  (1) 
0

>  <r_i_glide_hbond>  (1) 
0

>  <r_i_glide_ligand_efficiency>  (1) 
-0.65898543803635945

>  <r_i_glide_ligand_efficiency_ln>  (1) 
-1.855005427009623

>  <r_i_glide_ligand_efficiency_sa>  (1) 
-1.3707449492862045

>  <r_i_glide_lipo>  (1) 
-2.134132840272573

>  <r_i_glide_metal>  (1) 
-0

>  <r_i_glide_rewards>  (1) 
-2.593488969803174

>  <r_lp_Energy>  (1) 
14.311973999999999

>  <r_lp_tautomer_probability>  (1) 
1

>  <s_epik_Chemistry_Notes>  (1) 
This compound has an imine and may undergo hydrolysis.

>  <s_epik_cmdline>  (1) 
J2VwaWtfcHl0aG9uJywgJy1waHQnLCAnMS4wJywgJy1waCcsICc3LjQnLCAnLXRuJywgJzgnLCAnLW1hJywgJzUwMCcsICctaW1hZScsICc8aW5maWxlLm1hZT4nLCAnLW9tYWUnLCAnPG91dGZpbGUubWFlPic=

>  <s_epik_input>  (1) 
W2NIXTFbY0hdW2NIXVtjSF1jKGMxMilOPUM9W0NIXTI=

>  <s_glide_docking_method>  (1) 
confgen

>  <s_i_glide_gridfile>  (1) 
gpcr_5ht2c_6bqh_protein_autoprepared_prepared

>  <s_lp_Force_Field>  (1) 
S-OPLS

>  <s_lp_Variant>  (1) 
Pocket2Mol_91_num_sample_100-1

>  <s_m_source_file>  (1) 
generated__ligand_Pocket2Mol_2026-05-06_prepared.sdf

>  <GenAI_Model>  (1) 
Pocket2Mol

>  <Protein>  (1) 
GPCR_5HT2C

$$$$
Pocket2Mol_58_num_sample_100
     RDKit          3D

  0  0  0  0  0  0  0  0  0  0999 V3000
M  V30 BEGIN CTAB
M  V30 COUNTS 17 17 0 0 1
M  V30 BEGIN ATOM
M  V30 1 C 40.926097 30.421483 50.127155 0
M  V30 2 C 40.068141 29.705682 51.148998 0
M  V30 3 C 39.867405 30.275001 52.422844 0
M  V30 4 C 39.067379 29.611301 53.373314 0
M  V30 5 C 38.465311 28.377943 53.050010 0
M  V30 6 C 39.467403 28.471410 50.828186 0
M  V30 7 N 37.670351 27.722658 53.986815 0
M  V30 8 C 38.667406 27.808913 51.777687 0
M  V30 9 H 41.061165 29.823187 49.226181 0
M  V30 10 H 40.456055 31.362353 49.841820 0
M  V30 11 H 41.909779 30.641543 50.542045 0
M  V30 12 H 40.325950 31.221429 52.670488 0
M  V30 13 H 38.913775 30.049906 54.348684 0
M  V30 14 H 39.617711 28.034233 49.853561 0
M  V30 15 H 37.118744 26.918799 53.721720 0
M  V30 16 H 37.402830 28.184293 54.844477 0
M  V30 17 H 38.207181 26.864208 51.527857 0
M  V30 END ATOM
M  V30 BEGIN BOND
M  V30 1 1 2 1
M  V30 2 1 3 2
M  V30 3 2 4 3
M  V30 4 1 5 4
M  V30 5 2 6 2
M  V30 6 1 7 5
M  V30 7 2 8 5
M  V30 8 1 8 6
M  V30 9 1 9 1
M  V30 10 1 10 1
M  V30 11 1 11 1
M  V30 12 1 12 3
M  V30 13 1 13 4
M  V30 14 1 14 6
M  V30 15 1 15 7
M  V30 16 1 16 7
M  V30 17 1 17 8
M  V30 END BOND
M  V30 END CTAB
M  END
>  <i_epik_Tot_Q>  (1) 
0

>  <i_epik_Tot_abs_Q>  (1) 
0

>  <i_i_glide_confnum>  (1) 
1

>  <i_i_glide_lignum>  (1) 
62

>  <i_i_glide_posenum>  (1) 
311

>  <i_i_glide_rotatable_bonds>  (1) 
0

>  <i_lp_mmshare_version>  (1) 
72125

>  <i_m_source_file_index>  (1) 
59

>  <i_f3d_flags>  (1) 
0

>  <num_sample>  (1) 
100

>  <b_lp_Chiralities_Consistent>  (1) 
1

>  <r_epik_Charging_Adjusted_Penalty>  (1) 
0

>  <r_epik_Ionization_Penalty>  (1) 
0.002249743429862997

>  <r_epik_Ionization_Penalty_Charging>  (1) 
0

>  <r_epik_Ionization_Penalty_Neutral>  (1) 
0.002249743429862997

>  <r_epik_State_Penalty>  (1) 
-0

>  <r_glide_ring_energy>  (1) 
0

>  <r_i_docking_score>  (1) 
-5.9305057115472497

>  <r_i_glide_ecoul>  (1) 
-1.1178500063540271

>  <r_i_glide_eff_state_penalty>  (1) 
-0

>  <r_i_glide_einternal>  (1) 
0

>  <r_i_glide_emodel>  (1) 
-28.208235475299873

>  <r_i_glide_emodel_strain>  (1) 
0.0055161913427301812

>  <r_i_glide_energy>  (1) 
-20.792208230927184

>  <r_i_glide_erotb>  (1) 
0

>  <r_i_glide_esite>  (1) 
0

>  <r_i_glide_evdw>  (1) 
-19.674358224573158

>  <r_i_glide_gscore>  (1) 
-5.9305057115472497

>  <r_i_glide_gscore_strain>  (1) 
0

>  <r_i_glide_hbond>  (1) 
0

>  <r_i_glide_ligand_efficiency>  (1) 
-0.74131321394340621

>  <r_i_glide_ligand_efficiency_ln>  (1) 
-1.9258380557898684

>  <r_i_glide_ligand_efficiency_sa>  (1) 
-1.4826264278868126

>  <r_i_glide_lipo>  (1) 
-2.1763590081170103

>  <r_i_glide_metal>  (1) 
-0

>  <r_i_glide_rewards>  (1) 
-2.6027512912484774

>  <r_lp_Energy>  (1) 
4.6440260000000002

>  <r_lp_tautomer_probability>  (1) 
1

>  <s_epik_cmdline>  (1) 
J2VwaWtfcHl0aG9uJywgJy1waHQnLCAnMS4wJywgJy1waCcsICc3LjQnLCAnLXRuJywgJzgnLCAnLW1hJywgJzUwMCcsICctaW1hZScsICc8aW5maWxlLm1hZT4nLCAnLW9tYWUnLCAnPG91dGZpbGUubWFlPic=

>  <s_epik_input>  (1) 
W0NIM11jMVtjSF1bY0hdYyhbTkgyXSlbY0hdW2NIXTE=

>  <s_glide_docking_method>  (1) 
confgen

>  <s_i_glide_gridfile>  (1) 
gpcr_5ht2c_6bqh_protein_autoprepared_prepared

>  <s_lp_Force_Field>  (1) 
S-OPLS

>  <s_lp_Variant>  (1) 
Pocket2Mol_58_num_sample_100-1

>  <s_m_source_file>  (1) 
generated__ligand_Pocket2Mol_2026-05-06_prepared.sdf

>  <GenAI_Model>  (1) 
Pocket2Mol

>  <Protein>  (1) 
GPCR_5HT2C

$$$$
Pocket2Mol_70_num_sample_100
     RDKit          3D

  0  0  0  0  0  0  0  0  0  0999 V3000
M  V30 BEGIN CTAB
M  V30 COUNTS 17 18 0 0 1
M  V30 BEGIN ATOM
M  V30 1 C 39.867403 30.421428 52.433337 0
M  V30 2 C 39.137430 29.324276 53.019652 0
M  V30 3 C 39.006884 27.996024 52.362282 0 CFG=2
M  V30 4 C 38.502149 29.370217 54.119926 0
M  V30 5 C 39.315284 28.104195 50.872894 0
M  V30 6 N 37.827587 28.250574 54.364858 0
M  V30 7 N 37.867649 27.318160 53.202436 0
M  V30 8 C 40.256928 30.352398 51.148732 0
M  V30 9 C 39.918776 29.189813 50.332485 0
M  V30 10 H 40.081086 31.304401 53.016657 0
M  V30 11 H 39.889116 27.451346 52.694890 0
M  V30 12 H 38.390449 30.200155 54.803702 0
M  V30 13 H 39.067479 27.254393 50.253760 0
M  V30 14 H 37.033989 28.235159 54.990265 0
M  V30 15 H 36.982371 27.393052 52.704379 0
M  V30 16 H 40.789111 31.181945 50.705236 0
M  V30 17 H 40.142063 29.202002 49.275986 0
M  V30 END ATOM
M  V30 BEGIN BOND
M  V30 1 1 2 1
M  V30 2 1 3 2
M  V30 3 2 4 2
M  V30 4 1 5 3
M  V30 5 1 6 4
M  V30 6 1 7 3
M  V30 7 1 7 6
M  V30 8 2 8 1
M  V30 9 2 9 5
M  V30 10 1 9 8
M  V30 11 1 10 1
M  V30 12 1 3 11 CFG=1
M  V30 13 1 12 4
M  V30 14 1 13 5
M  V30 15 1 14 6
M  V30 16 1 15 7
M  V30 17 1 16 8
M  V30 18 1 17 9
M  V30 END BOND
M  V30 END CTAB
M  END
>  <i_epik_Tot_Q>  (1) 
0

>  <i_epik_Tot_abs_Q>  (1) 
0

>  <i_i_glide_confnum>  (1) 
1

>  <i_i_glide_lignum>  (1) 
75

>  <i_i_glide_posenum>  (1) 
1

>  <i_i_glide_rotatable_bonds>  (1) 
0

>  <i_lp_mmshare_version>  (1) 
72125

>  <i_m_source_file_index>  (1) 
71

>  <i_f3d_flags>  (1) 
0

>  <num_sample>  (1) 
100

>  <b_lp_Chiralities_Consistent>  (1) 
1

>  <r_epik_Charging_Adjusted_Penalty>  (1) 
0

>  <r_epik_Ionization_Penalty>  (1) 
4.3565390981668577e-05

>  <r_epik_Ionization_Penalty_Charging>  (1) 
0

>  <r_epik_Ionization_Penalty_Neutral>  (1) 
4.3565390981668577e-05

>  <r_epik_State_Penalty>  (1) 
-0

>  <r_glide_ring_energy>  (1) 
0

>  <r_i_docking_score>  (1) 
-5.9267288856864173

>  <r_i_glide_ecoul>  (1) 
-0.69177733290407739

>  <r_i_glide_eff_state_penalty>  (1) 
-0

>  <r_i_glide_einternal>  (1) 
0

>  <r_i_glide_emodel>  (1) 
-29.928621678358059

>  <r_i_glide_emodel_strain>  (1) 
0

>  <r_i_glide_energy>  (1) 
-21.371288856375187

>  <r_i_glide_erotb>  (1) 
0

>  <r_i_glide_esite>  (1) 
0

>  <r_i_glide_evdw>  (1) 
-20.67951152347111

>  <r_i_glide_gscore>  (1) 
-5.9267288856864173

>  <r_i_glide_gscore_strain>  (1) 
0

>  <r_i_glide_hbond>  (1) 
-0.089196345827295048

>  <r_i_glide_ligand_efficiency>  (1) 
-0.65852543174293521

>  <r_i_glide_ligand_efficiency_ln>  (1) 
-1.8537105362252329

>  <r_i_glide_ligand_efficiency_sa>  (1) 
-1.3697880976367507

>  <r_i_glide_lipo>  (1) 
-2.0888947531452344

>  <r_i_glide_metal>  (1) 
-0

>  <r_i_glide_rewards>  (1) 
-2.6108956106047203

>  <r_lp_Energy>  (1) 
4.0619379999999996

>  <r_lp_tautomer_probability>  (1) 
1

>  <s_epik_cmdline>  (1) 
J2VwaWtfcHl0aG9uJywgJy1waHQnLCAnMS4wJywgJy1waCcsICc3LjQnLCAnLXRuJywgJzgnLCAnLW1hJywgJzUwMCcsICctaW1hZScsICc8aW5maWxlLm1hZT4nLCAnLW9tYWUnLCAnPG91dGZpbGUubWFlPic=

>  <s_epik_input>  (1) 
W0NIXTE9W0NIXVtDSF09W0NIXVtDQEBIXShDMT0yKVtOSF1bTkhdW0NIXTI=

>  <s_glide_docking_method>  (1) 
confgen

>  <s_i_glide_gridfile>  (1) 
gpcr_5ht2c_6bqh_protein_autoprepared_prepared

>  <s_lp_Force_Field>  (1) 
S-OPLS

>  <s_lp_Variant>  (1) 
Pocket2Mol_70_num_sample_100-1

>  <s_m_source_file>  (1) 
generated__ligand_Pocket2Mol_2026-05-06_prepared.sdf

>  <GenAI_Model>  (1) 
Pocket2Mol

>  <Protein>  (1) 
GPCR_5HT2C

$$$$
Pocket2Mol_59_num_sample_100
     RDKit          3D

  0  0  0  0  0  0  0  0  0  0999 V3000
M  V30 BEGIN CTAB
M  V30 COUNTS 16 16 0 0 1
M  V30 BEGIN ATOM
M  V30 1 C 39.867404 29.078050 50.489748 0
M  V30 2 C 39.067774 28.099567 51.110540 0
M  V30 3 C 38.664768 28.262842 52.449905 0
M  V30 4 N 37.867393 27.291928 53.056163 0
M  V30 5 C 40.267405 30.221233 51.206194 0
M  V30 6 C 39.067403 29.412842 53.172391 0
M  V30 7 N 38.672840 29.586673 54.501053 0
M  V30 8 C 39.867404 30.388831 52.546336 0
M  V30 9 H 40.173261 28.951954 49.461941 0
M  V30 10 H 38.761959 27.223937 50.557354 0
M  V30 11 H 37.400456 26.595187 52.487152 0
M  V30 12 H 37.434101 27.486481 53.943693 0
M  V30 13 H 40.880772 30.971322 50.728223 0
M  V30 14 H 37.985692 28.976658 54.913802 0
M  V30 15 H 38.818934 30.469731 54.969690 0
M  V30 16 H 40.175290 31.266444 53.093750 0
M  V30 END ATOM
M  V30 BEGIN BOND
M  V30 1 1 2 1
M  V30 2 2 3 2
M  V30 3 1 4 3
M  V30 4 2 5 1
M  V30 5 1 6 3
M  V30 6 1 7 6
M  V30 7 1 8 5
M  V30 8 2 8 6
M  V30 9 1 9 1
M  V30 10 1 10 2
M  V30 11 1 11 4
M  V30 12 1 12 4
M  V30 13 1 13 5
M  V30 14 1 14 7
M  V30 15 1 15 7
M  V30 16 1 16 8
M  V30 END BOND
M  V30 END CTAB
M  END
>  <i_epik_Tot_Q>  (1) 
0

>  <i_epik_Tot_abs_Q>  (1) 
0

>  <i_i_glide_confnum>  (1) 
1

>  <i_i_glide_lignum>  (1) 
63

>  <i_i_glide_posenum>  (1) 
176

>  <i_i_glide_rotatable_bonds>  (1) 
0

>  <i_lp_mmshare_version>  (1) 
72125

>  <i_m_source_file_index>  (1) 
60

>  <i_f3d_flags>  (1) 
0

>  <num_sample>  (1) 
100

>  <b_lp_Chiralities_Consistent>  (1) 
1

>  <r_epik_Charging_Adjusted_Penalty>  (1) 
0.0055702355519192566

>  <r_epik_Ionization_Penalty>  (1) 
0.0049730634188153225

>  <r_epik_Ionization_Penalty_Charging>  (1) 
0

>  <r_epik_Ionization_Penalty_Neutral>  (1) 
0.0049730634188153225

>  <r_epik_State_Penalty>  (1) 
0.0055702355519192566

>  <r_glide_ring_energy>  (1) 
0

>  <r_i_docking_score>  (1) 
-5.9259267794460957

>  <r_i_glide_ecoul>  (1) 
-2.2111659101836532

>  <r_i_glide_eff_state_penalty>  (1) 
0.0055702355519192566

>  <r_i_glide_einternal>  (1) 
0

>  <r_i_glide_emodel>  (1) 
-28.282062483748827

>  <r_i_glide_emodel_strain>  (1) 
0

>  <r_i_glide_energy>  (1) 
-20.953509355353965

>  <r_i_glide_erotb>  (1) 
0

>  <r_i_glide_esite>  (1) 
0

>  <r_i_glide_evdw>  (1) 
-18.742343445170313

>  <r_i_glide_gscore>  (1) 
-5.9314970149980146

>  <r_i_glide_gscore_strain>  (1) 
0

>  <r_i_glide_hbond>  (1) 
-0.2123768190373489

>  <r_i_glide_ligand_efficiency>  (1) 
-0.74074084743076196

>  <r_i_glide_ligand_efficiency_ln>  (1) 
-1.9243511199155616

>  <r_i_glide_ligand_efficiency_sa>  (1) 
-1.4814816948615241

>  <r_i_glide_lipo>  (1) 
-1.8593557994687078

>  <r_i_glide_metal>  (1) 
-0

>  <r_i_glide_rewards>  (1) 
-2.5909723377058937

>  <r_lp_Energy>  (1) 
13.721331999999999

>  <s_epik_cmdline>  (1) 
J2VwaWtfcHl0aG9uJywgJy1waHQnLCAnMS4wJywgJy1waCcsICc3LjQnLCAnLXRuJywgJzgnLCAnLW1hJywgJzUwMCcsICctaW1hZScsICc8aW5maWxlLm1hZT4nLCAnLW9tYWUnLCAnPG91dGZpbGUubWFlPic=

>  <s_epik_input>  (1) 
W05IMl1jMVtjSF1bY0hdW2NIXVtjSF1jMVtOSDJd

>  <s_glide_docking_method>  (1) 
confgen

>  <s_i_glide_gridfile>  (1) 
gpcr_5ht2c_6bqh_protein_autoprepared_prepared

>  <s_lp_Force_Field>  (1) 
S-OPLS

>  <s_lp_Variant>  (1) 
Pocket2Mol_59_num_sample_100-1

>  <s_m_source_file>  (1) 
generated__ligand_Pocket2Mol_2026-05-06_prepared.sdf

>  <GenAI_Model>  (1) 
Pocket2Mol

>  <Protein>  (1) 
GPCR_5HT2C

$$$$
Pocket2Mol_80_num_sample_100
     RDKit          3D

  0  0  0  0  0  0  0  0  0  0999 V3000
M  V30 BEGIN CTAB
M  V30 COUNTS 17 17 0 0 1
M  V30 BEGIN ATOM
M  V30 1 C 38.504202 28.411547 52.563674 0
M  V30 2 C 38.035129 28.538871 53.885431 0
M  V30 3 C 38.479113 29.606794 54.693064 0
M  V30 4 C 37.965884 29.746028 56.112118 0
M  V30 5 C 39.397567 30.546559 54.177619 0
M  V30 6 C 39.417950 29.353689 52.046475 0
M  V30 7 C 39.891082 29.227895 50.653475 0
M  V30 8 O 40.667404 30.021429 50.122876 0
M  V30 9 C 39.867391 30.421430 52.855412 0
M  V30 10 H 38.157445 27.594762 51.945352 0
M  V30 11 H 37.331732 27.819566 54.279318 0
M  V30 12 H 38.510352 30.515130 56.660649 0
M  V30 13 H 36.910357 30.021430 56.104592 0
M  V30 14 H 38.071025 28.804502 56.651398 0
M  V30 15 H 39.737822 31.365572 54.794723 0
M  V30 16 H 39.490776 28.365138 50.120582 0
M  V30 17 H 40.565671 31.146704 52.460736 0
M  V30 END ATOM
M  V30 BEGIN BOND
M  V30 1 2 2 1
M  V30 2 1 3 2
M  V30 3 1 4 3
M  V30 4 2 5 3
M  V30 5 1 6 1
M  V30 6 1 7 6
M  V30 7 2 8 7
M  V30 8 1 9 5
M  V30 9 2 9 6
M  V30 10 1 10 1
M  V30 11 1 11 2
M  V30 12 1 12 4
M  V30 13 1 13 4
M  V30 14 1 14 4
M  V30 15 1 15 5
M  V30 16 1 16 7
M  V30 17 1 17 9
M  V30 END BOND
M  V30 END CTAB
M  END
>  <i_epik_Tot_Q>  (1) 
0

>  <i_epik_Tot_abs_Q>  (1) 
0

>  <i_i_glide_confnum>  (1) 
1

>  <i_i_glide_lignum>  (1) 
85

>  <i_i_glide_posenum>  (1) 
193

>  <i_i_glide_rotatable_bonds>  (1) 
1

>  <i_lp_mmshare_version>  (1) 
72125

>  <i_m_source_file_index>  (1) 
81

>  <i_f3d_flags>  (1) 
0

>  <num_sample>  (1) 
100

>  <b_lp_Chiralities_Consistent>  (1) 
1

>  <r_epik_Charging_Adjusted_Penalty>  (1) 
0

>  <r_epik_Ionization_Penalty>  (1) 
0

>  <r_epik_Ionization_Penalty_Charging>  (1) 
0

>  <r_epik_Ionization_Penalty_Neutral>  (1) 
0

>  <r_epik_State_Penalty>  (1) 
-0

>  <r_glide_ring_energy>  (1) 
0

>  <r_i_docking_score>  (1) 
-5.9256717209720566

>  <r_i_glide_ecoul>  (1) 
-1.0823574700216803

>  <r_i_glide_eff_state_penalty>  (1) 
-0

>  <r_i_glide_einternal>  (1) 
0.020913680724563233

>  <r_i_glide_emodel>  (1) 
-29.335189540814788

>  <r_i_glide_emodel_strain>  (1) 
0.0023537742948596119

>  <r_i_glide_energy>  (1) 
-21.369709347375224

>  <r_i_glide_erotb>  (1) 
0

>  <r_i_glide_esite>  (1) 
0

>  <r_i_glide_evdw>  (1) 
-20.287351877353544

>  <r_i_glide_gscore>  (1) 
-5.9256717209720566

>  <r_i_glide_gscore_strain>  (1) 
0

>  <r_i_glide_hbond>  (1) 
0

>  <r_i_glide_ligand_efficiency>  (1) 
-0.65840796899689513

>  <r_i_glide_ligand_efficiency_ln>  (1) 
-1.8533798854721222

>  <r_i_glide_ligand_efficiency_sa>  (1) 
-1.3695437652789015

>  <r_i_glide_lipo>  (1) 
-1.7503669612370214

>  <r_i_glide_metal>  (1) 
-0

>  <r_i_glide_rewards>  (1) 
-2.9985835453641059

>  <r_lp_Energy>  (1) 
4.8020719999999999

>  <r_lp_tautomer_probability>  (1) 
1

>  <s_epik_cmdline>  (1) 
J2VwaWtfcHl0aG9uJywgJy1waHQnLCAnMS4wJywgJy1waCcsICc3LjQnLCAnLXRuJywgJzgnLCAnLW1hJywgJzUwMCcsICctaW1hZScsICc8aW5maWxlLm1hZT4nLCAnLW9tYWUnLCAnPG91dGZpbGUubWFlPic=

>  <s_epik_input>  (1) 
W2NIXTFbY0hdYyhbQ0hdPU8pW2NIXVtjSF1jMVtDSDNd

>  <s_glide_docking_method>  (1) 
confgen

>  <s_i_glide_gridfile>  (1) 
gpcr_5ht2c_6bqh_protein_autoprepared_prepared

>  <s_lp_Force_Field>  (1) 
S-OPLS

>  <s_lp_Variant>  (1) 
Pocket2Mol_80_num_sample_100-1

>  <s_m_source_file>  (1) 
generated__ligand_Pocket2Mol_2026-05-06_prepared.sdf

>  <GenAI_Model>  (1) 
Pocket2Mol

>  <Protein>  (1) 
GPCR_5HT2C

$$$$
Pocket2Mol_74_num_sample_100
     RDKit          3D

  0  0  0  0  0  0  0  0  0  0999 V3000
M  V30 BEGIN CTAB
M  V30 COUNTS 16 17 0 0 1
M  V30 BEGIN ATOM
M  V30 1 C 37.869921 28.528119 54.127510 0
M  V30 2 C 38.590032 28.584679 52.875776 0
M  V30 3 C 39.427055 29.621365 52.581922 0
M  V30 4 C 38.586646 27.777881 51.896944 0
M  V30 5 C 39.608712 30.718003 53.542411 0
M  V30 6 N 40.006159 29.544941 51.425362 0
M  V30 7 C 39.476045 28.222566 50.764077 0
M  V30 8 C 38.028317 29.532391 55.024095 0
M  V30 9 C 38.928068 30.666811 54.719943 0
M  V30 10 H 37.212152 27.699212 54.344284 0
M  V30 11 H 38.010083 26.864922 51.847175 0
M  V30 12 H 40.272778 31.522278 53.271436 0
M  V30 13 H 40.267285 27.505843 50.561323 0
M  V30 14 H 38.910096 28.421376 49.855063 0
M  V30 15 H 37.493729 29.506236 55.962875 0
M  V30 16 H 39.044428 31.463966 55.439750 0
M  V30 END ATOM
M  V30 BEGIN BOND
M  V30 1 1 2 1
M  V30 2 1 3 2
M  V30 3 2 4 2
M  V30 4 1 5 3
M  V30 5 2 6 3
M  V30 6 1 7 4
M  V30 7 1 7 6
M  V30 8 2 8 1
M  V30 9 2 9 5
M  V30 10 1 9 8
M  V30 11 1 10 1
M  V30 12 1 11 4
M  V30 13 1 12 5
M  V30 14 1 13 7
M  V30 15 1 14 7
M  V30 16 1 15 8
M  V30 17 1 16 9
M  V30 END BOND
M  V30 END CTAB
M  END
>  <i_epik_Tot_Q>  (1) 
0

>  <i_epik_Tot_abs_Q>  (1) 
0

>  <i_i_glide_confnum>  (1) 
1

>  <i_i_glide_lignum>  (1) 
79

>  <i_i_glide_posenum>  (1) 
356

>  <i_i_glide_rotatable_bonds>  (1) 
0

>  <i_lp_mmshare_version>  (1) 
72125

>  <i_m_source_file_index>  (1) 
75

>  <i_f3d_flags>  (1) 
0

>  <num_sample>  (1) 
100

>  <b_lp_Chiralities_Consistent>  (1) 
1

>  <r_epik_Charging_Adjusted_Penalty>  (1) 
0

>  <r_epik_Ionization_Penalty>  (1) 
0

>  <r_epik_Ionization_Penalty_Charging>  (1) 
0

>  <r_epik_Ionization_Penalty_Neutral>  (1) 
0

>  <r_epik_State_Penalty>  (1) 
-0

>  <r_glide_ring_energy>  (1) 
0

>  <r_i_docking_score>  (1) 
-5.9157054901092865

>  <r_i_glide_ecoul>  (1) 
-0.87182194225423004

>  <r_i_glide_eff_state_penalty>  (1) 
-0

>  <r_i_glide_einternal>  (1) 
0

>  <r_i_glide_emodel>  (1) 
-29.073358926111702

>  <r_i_glide_emodel_strain>  (1) 
0

>  <r_i_glide_energy>  (1) 
-21.057529691548904

>  <r_i_glide_erotb>  (1) 
0

>  <r_i_glide_esite>  (1) 
0

>  <r_i_glide_evdw>  (1) 
-20.185707749294675

>  <r_i_glide_gscore>  (1) 
-5.9157054901092865

>  <r_i_glide_gscore_strain>  (1) 
0

>  <r_i_glide_hbond>  (1) 
0

>  <r_i_glide_ligand_efficiency>  (1) 
-0.65730061001214291

>  <r_i_glide_ligand_efficiency_ln>  (1) 
-1.8502627347616538

>  <r_i_glide_ligand_efficiency_sa>  (1) 
-1.3672403657684071

>  <r_i_glide_lipo>  (1) 
-2.1160181419979982

>  <r_i_glide_metal>  (1) 
-0

>  <r_i_glide_rewards>  (1) 
-2.6596286693084199

>  <r_lp_Energy>  (1) 
8.0132250000000003

>  <r_lp_tautomer_probability>  (1) 
1

>  <s_epik_Chemistry_Notes>  (1) 
This compound has an imine and may undergo hydrolysis.

>  <s_epik_cmdline>  (1) 
J2VwaWtfcHl0aG9uJywgJy1waHQnLCAnMS4wJywgJy1waCcsICc3LjQnLCAnLXRuJywgJzgnLCAnLW1hJywgJzUwMCcsICctaW1hZScsICc8aW5maWxlLm1hZT4nLCAnLW9tYWUnLCAnPG91dGZpbGUubWFlPic=

>  <s_epik_input>  (1) 
W2NIXTFbY0hdW2NIXVtjSF1jKGMxPTIpPU5bQ0gyXVtDSF0y

>  <s_glide_docking_method>  (1) 
confgen

>  <s_i_glide_gridfile>  (1) 
gpcr_5ht2c_6bqh_protein_autoprepared_prepared

>  <s_lp_Force_Field>  (1) 
S-OPLS

>  <s_lp_Variant>  (1) 
Pocket2Mol_74_num_sample_100-1

>  <s_m_source_file>  (1) 
generated__ligand_Pocket2Mol_2026-05-06_prepared.sdf

>  <GenAI_Model>  (1) 
Pocket2Mol

>  <Protein>  (1) 
GPCR_5HT2C

$$$$
Pocket2Mol_70_num_sample_100
     RDKit          3D

  0  0  0  0  0  0  0  0  0  0999 V3000
M  V30 BEGIN CTAB
M  V30 COUNTS 17 18 0 0 1
M  V30 BEGIN ATOM
M  V30 1 C 39.076541 28.011776 51.308299 0
M  V30 2 C 38.702070 28.164742 52.692957 0
M  V30 3 C 38.880723 29.435801 53.445111 0 CFG=2
M  V30 4 C 38.230571 27.243309 53.432267 0
M  V30 5 C 39.867879 30.353368 52.727041 0
M  V30 6 N 38.092025 27.627087 54.698625 0
M  V30 7 N 38.693005 28.971517 54.932973 0
M  V30 8 C 39.815027 28.961982 50.707194 0
M  V30 9 C 40.267401 30.135669 51.450926 0
M  V30 10 H 38.782507 27.127162 50.760496 0
M  V30 11 H 37.950690 29.972691 53.257030 0
M  V30 12 H 38.019444 26.215520 53.179937 0
M  V30 13 H 40.216358 31.221150 53.265547 0
M  V30 14 H 38.065009 26.956631 55.454449 0
M  V30 15 H 39.603597 28.831203 55.367040 0
M  V30 16 H 40.106168 28.839208 49.674239 0
M  V30 17 H 40.943201 30.835121 50.979293 0
M  V30 END ATOM
M  V30 BEGIN BOND
M  V30 1 1 2 1
M  V30 2 1 3 2
M  V30 3 2 4 2
M  V30 4 1 5 3
M  V30 5 1 6 4
M  V30 6 1 7 3
M  V30 7 1 7 6
M  V30 8 2 8 1
M  V30 9 2 9 5
M  V30 10 1 9 8
M  V30 11 1 10 1
M  V30 12 1 3 11 CFG=3
M  V30 13 1 12 4
M  V30 14 1 13 5
M  V30 15 1 14 6
M  V30 16 1 15 7
M  V30 17 1 16 8
M  V30 18 1 17 9
M  V30 END BOND
M  V30 END CTAB
M  END
>  <i_epik_Tot_Q>  (1) 
0

>  <i_epik_Tot_abs_Q>  (1) 
0

>  <i_i_glide_confnum>  (1) 
1

>  <i_i_glide_lignum>  (1) 
75

>  <i_i_glide_posenum>  (1) 
182

>  <i_i_glide_rotatable_bonds>  (1) 
0

>  <i_lp_mmshare_version>  (1) 
72125

>  <i_m_source_file_index>  (1) 
71

>  <i_f3d_flags>  (1) 
0

>  <num_sample>  (1) 
100

>  <b_lp_Chiralities_Consistent>  (1) 
1

>  <r_epik_Charging_Adjusted_Penalty>  (1) 
0

>  <r_epik_Ionization_Penalty>  (1) 
4.3565390981668577e-05

>  <r_epik_Ionization_Penalty_Charging>  (1) 
0

>  <r_epik_Ionization_Penalty_Neutral>  (1) 
4.3565390981668577e-05

>  <r_epik_State_Penalty>  (1) 
-0

>  <r_glide_ring_energy>  (1) 
0

>  <r_i_docking_score>  (1) 
-5.9154073298230516

>  <r_i_glide_ecoul>  (1) 
-0.56506483450201062

>  <r_i_glide_eff_state_penalty>  (1) 
-0

>  <r_i_glide_einternal>  (1) 
0

>  <r_i_glide_emodel>  (1) 
-29.617922862099945

>  <r_i_glide_emodel_strain>  (1) 
0

>  <r_i_glide_energy>  (1) 
-21.076936716918752

>  <r_i_glide_erotb>  (1) 
0

>  <r_i_glide_esite>  (1) 
0

>  <r_i_glide_evdw>  (1) 
-20.511871882416742

>  <r_i_glide_gscore>  (1) 
-5.9154073298230516

>  <r_i_glide_gscore_strain>  (1) 
0

>  <r_i_glide_hbond>  (1) 
0

>  <r_i_glide_ligand_efficiency>  (1) 
-0.65726748109145017

>  <r_i_glide_ligand_efficiency_ln>  (1) 
-1.8501694787894747

>  <r_i_glide_ligand_efficiency_sa>  (1) 
-1.3671714548363989

>  <r_i_glide_lipo>  (1) 
-2.2046220512893053

>  <r_i_glide_metal>  (1) 
-0

>  <r_i_glide_rewards>  (1) 
-2.6004319592376079

>  <r_lp_Energy>  (1) 
4.0619379999999996

>  <r_lp_tautomer_probability>  (1) 
1

>  <s_epik_cmdline>  (1) 
J2VwaWtfcHl0aG9uJywgJy1waHQnLCAnMS4wJywgJy1waCcsICc3LjQnLCAnLXRuJywgJzgnLCAnLW1hJywgJzUwMCcsICctaW1hZScsICc8aW5maWxlLm1hZT4nLCAnLW9tYWUnLCAnPG91dGZpbGUubWFlPic=

>  <s_epik_input>  (1) 
W0NIXTE9W0NIXVtDSF09W0NIXVtDQEBIXShDMT0yKVtOSF1bTkhdW0NIXTI=

>  <s_glide_docking_method>  (1) 
confgen

>  <s_i_glide_gridfile>  (1) 
gpcr_5ht2c_6bqh_protein_autoprepared_prepared

>  <s_lp_Force_Field>  (1) 
S-OPLS

>  <s_lp_Variant>  (1) 
Pocket2Mol_70_num_sample_100-1

>  <s_m_source_file>  (1) 
generated__ligand_Pocket2Mol_2026-05-06_prepared.sdf

>  <GenAI_Model>  (1) 
Pocket2Mol

>  <Protein>  (1) 
GPCR_5HT2C

$$$$
Pocket2Mol_98_num_sample_100
     RDKit          3D

  0  0  0  0  0  0  0  0  0  0999 V3000
M  V30 BEGIN CTAB
M  V30 COUNTS 18 19 0 0 1
M  V30 BEGIN ATOM
M  V30 1 C 38.129114 31.239136 55.810477 0
M  V30 2 O 37.342324 30.021429 55.628891 0
M  V30 3 O 39.116796 31.428667 54.751710 0
M  V30 4 C 37.886788 29.571186 54.496638 0
M  V30 5 C 38.860889 30.343911 54.014389 0
M  V30 6 C 39.540842 30.021430 52.830491 0
M  V30 7 C 39.179688 28.840364 52.137979 0
M  V30 8 C 39.895185 28.458601 50.862580 0
M  V30 9 C 37.488537 28.390180 53.847329 0
M  V30 10 C 38.144357 28.017639 52.651900 0
M  V30 11 H 37.467403 32.104678 55.826483 0
M  V30 12 H 38.640552 31.186456 56.771779 0
M  V30 13 H 40.325616 30.662226 52.456204 0
M  V30 14 H 39.588051 27.473745 50.508238 0
M  V30 15 H 39.691502 29.187173 50.077138 0
M  V30 16 H 40.967983 28.436644 51.053501 0
M  V30 17 H 36.697373 27.778179 54.253501 0
M  V30 18 H 37.859514 27.113405 52.134264 0
M  V30 END ATOM
M  V30 BEGIN BOND
M  V30 1 1 2 1
M  V30 2 1 3 1
M  V30 3 1 4 2
M  V30 4 1 5 3
M  V30 5 2 5 4
M  V30 6 1 6 5
M  V30 7 2 7 6
M  V30 8 1 8 7
M  V30 9 1 9 4
M  V30 10 1 10 7
M  V30 11 2 10 9
M  V30 12 1 11 1
M  V30 13 1 12 1
M  V30 14 1 13 6
M  V30 15 1 14 8
M  V30 16 1 15 8
M  V30 17 1 16 8
M  V30 18 1 17 9
M  V30 19 1 18 10
M  V30 END BOND
M  V30 END CTAB
M  END
>  <i_epik_Tot_Q>  (1) 
0

>  <i_epik_Tot_abs_Q>  (1) 
0

>  <i_i_glide_confnum>  (1) 
1

>  <i_i_glide_lignum>  (1) 
103

>  <i_i_glide_posenum>  (1) 
346

>  <i_i_glide_rotatable_bonds>  (1) 
0

>  <i_lp_mmshare_version>  (1) 
72125

>  <i_m_source_file_index>  (1) 
99

>  <i_f3d_flags>  (1) 
0

>  <num_sample>  (1) 
100

>  <b_lp_Chiralities_Consistent>  (1) 
1

>  <r_epik_Charging_Adjusted_Penalty>  (1) 
0

>  <r_epik_Ionization_Penalty>  (1) 
0

>  <r_epik_Ionization_Penalty_Charging>  (1) 
0

>  <r_epik_Ionization_Penalty_Neutral>  (1) 
0

>  <r_epik_State_Penalty>  (1) 
-0

>  <r_glide_ring_energy>  (1) 
0

>  <r_i_docking_score>  (1) 
-5.9079817397807961

>  <r_i_glide_ecoul>  (1) 
-1.2700410854814177

>  <r_i_glide_eff_state_penalty>  (1) 
-0

>  <r_i_glide_einternal>  (1) 
0

>  <r_i_glide_emodel>  (1) 
-28.804871158248861

>  <r_i_glide_emodel_strain>  (1) 
0.0046322786145154282

>  <r_i_glide_energy>  (1) 
-20.745288695634031

>  <r_i_glide_erotb>  (1) 
0

>  <r_i_glide_esite>  (1) 
-0.086033671348076504

>  <r_i_glide_evdw>  (1) 
-19.475247610152614

>  <r_i_glide_gscore>  (1) 
-5.9079817397807961

>  <r_i_glide_gscore_strain>  (1) 
0

>  <r_i_glide_hbond>  (1) 
0

>  <r_i_glide_ligand_efficiency>  (1) 
-0.59079817397807965

>  <r_i_glide_ligand_efficiency_ln>  (1) 
-1.7888961445122853

>  <r_i_glide_ligand_efficiency_sa>  (1) 
-1.272836080825867

>  <r_i_glide_lipo>  (1) 
-1.9627569794474442

>  <r_i_glide_metal>  (1) 
-0

>  <r_i_glide_rewards>  (1) 
-2.694922545655432

>  <r_lp_Energy>  (1) 
16.823695000000001

>  <r_lp_tautomer_probability>  (1) 
1

>  <s_epik_Chemistry_Notes>  (1) 
This compound contains an acetal/aminal-like group ( X-CH(R)-Y where X, Y are N, S, or O) that may be acid/base labile, releasing an aldehyde.

>  <s_epik_cmdline>  (1) 
J2VwaWtfcHl0aG9uJywgJy1waHQnLCAnMS4wJywgJy1waCcsICc3LjQnLCAnLXRuJywgJzgnLCAnLW1hJywgJzUwMCcsICctaW1hZScsICc8aW5maWxlLm1hZT4nLCAnLW9tYWUnLCAnPG91dGZpbGUubWFlPic=

>  <s_epik_input>  (1) 
TzFbQ0gyXU9jKGMxMilbY0hdYyhbQ0gzXSlbY0hdW2NIXTI=

>  <s_glide_docking_method>  (1) 
confgen

>  <s_i_glide_gridfile>  (1) 
gpcr_5ht2c_6bqh_protein_autoprepared_prepared

>  <s_lp_Force_Field>  (1) 
S-OPLS

>  <s_lp_Variant>  (1) 
Pocket2Mol_98_num_sample_100-1

>  <s_m_source_file>  (1) 
generated__ligand_Pocket2Mol_2026-05-06_prepared.sdf

>  <GenAI_Model>  (1) 
Pocket2Mol

>  <Protein>  (1) 
GPCR_5HT2C

$$$$
Pocket2Mol_74_num_sample_100
     RDKit          3D

  0  0  0  0  0  0  0  0  0  0999 V3000
M  V30 BEGIN CTAB
M  V30 COUNTS 16 17 0 0 1
M  V30 BEGIN ATOM
M  V30 1 C 38.564917 27.855841 52.252977 0
M  V30 2 C 38.718760 28.876351 53.265146 0
M  V30 3 C 39.467403 29.995064 53.040210 0
M  V30 4 C 38.242612 28.938484 54.440286 0
M  V30 5 C 40.128781 30.193152 51.740845 0
M  V30 6 N 39.525096 30.821429 54.034052 0
M  V30 7 C 38.649697 30.193459 55.176559 0
M  V30 8 C 39.173356 28.021430 51.053480 0
M  V30 9 C 39.979571 29.233738 50.787338 0
M  V30 10 H 37.972597 26.973429 52.449026 0
M  V30 11 H 37.608877 28.190304 54.892961 0
M  V30 12 H 40.704081 31.096055 51.596701 0
M  V30 13 H 37.789154 30.817120 55.425598 0
M  V30 14 H 39.236106 29.976188 56.069745 0
M  V30 15 H 39.067397 27.266757 50.286947 0
M  V30 16 H 40.453385 29.359532 49.825040 0
M  V30 END ATOM
M  V30 BEGIN BOND
M  V30 1 1 2 1
M  V30 2 1 3 2
M  V30 3 2 4 2
M  V30 4 1 5 3
M  V30 5 2 6 3
M  V30 6 1 7 4
M  V30 7 1 7 6
M  V30 8 2 8 1
M  V30 9 2 9 5
M  V30 10 1 9 8
M  V30 11 1 10 1
M  V30 12 1 11 4
M  V30 13 1 12 5
M  V30 14 1 13 7
M  V30 15 1 14 7
M  V30 16 1 15 8
M  V30 17 1 16 9
M  V30 END BOND
M  V30 END CTAB
M  END
>  <i_epik_Tot_Q>  (1) 
0

>  <i_epik_Tot_abs_Q>  (1) 
0

>  <i_i_glide_confnum>  (1) 
1

>  <i_i_glide_lignum>  (1) 
79

>  <i_i_glide_posenum>  (1) 
393

>  <i_i_glide_rotatable_bonds>  (1) 
0

>  <i_lp_mmshare_version>  (1) 
72125

>  <i_m_source_file_index>  (1) 
75

>  <i_f3d_flags>  (1) 
0

>  <num_sample>  (1) 
100

>  <b_lp_Chiralities_Consistent>  (1) 
1

>  <r_epik_Charging_Adjusted_Penalty>  (1) 
0

>  <r_epik_Ionization_Penalty>  (1) 
0

>  <r_epik_Ionization_Penalty_Charging>  (1) 
0

>  <r_epik_Ionization_Penalty_Neutral>  (1) 
0

>  <r_epik_State_Penalty>  (1) 
-0

>  <r_glide_ring_energy>  (1) 
0

>  <r_i_docking_score>  (1) 
-5.9070067395952606

>  <r_i_glide_ecoul>  (1) 
-0.37719945582985059

>  <r_i_glide_eff_state_penalty>  (1) 
-0

>  <r_i_glide_einternal>  (1) 
0

>  <r_i_glide_emodel>  (1) 
-29.244213579742659

>  <r_i_glide_emodel_strain>  (1) 
0

>  <r_i_glide_energy>  (1) 
-21.240171223142443

>  <r_i_glide_erotb>  (1) 
0

>  <r_i_glide_esite>  (1) 
0

>  <r_i_glide_evdw>  (1) 
-20.862971767312594

>  <r_i_glide_gscore>  (1) 
-5.9070067395952606

>  <r_i_glide_gscore_strain>  (1) 
0

>  <r_i_glide_hbond>  (1) 
0

>  <r_i_glide_ligand_efficiency>  (1) 
-0.6563340821772512

>  <r_i_glide_ligand_efficiency_ln>  (1) 
-1.8475420154929207

>  <r_i_glide_ligand_efficiency_sa>  (1) 
-1.3652299068545195

>  <r_i_glide_lipo>  (1) 
-2.161894282202776

>  <r_i_glide_metal>  (1) 
-0

>  <r_i_glide_rewards>  (1) 
-2.6453839506523775

>  <r_lp_Energy>  (1) 
8.0132250000000003

>  <r_lp_tautomer_probability>  (1) 
1

>  <s_epik_Chemistry_Notes>  (1) 
This compound has an imine and may undergo hydrolysis.

>  <s_epik_cmdline>  (1) 
J2VwaWtfcHl0aG9uJywgJy1waHQnLCAnMS4wJywgJy1waCcsICc3LjQnLCAnLXRuJywgJzgnLCAnLW1hJywgJzUwMCcsICctaW1hZScsICc8aW5maWxlLm1hZT4nLCAnLW9tYWUnLCAnPG91dGZpbGUubWFlPic=

>  <s_epik_input>  (1) 
W2NIXTFbY0hdW2NIXVtjSF1jKGMxPTIpPU5bQ0gyXVtDSF0y

>  <s_glide_docking_method>  (1) 
confgen

>  <s_i_glide_gridfile>  (1) 
gpcr_5ht2c_6bqh_protein_autoprepared_prepared

>  <s_lp_Force_Field>  (1) 
S-OPLS

>  <s_lp_Variant>  (1) 
Pocket2Mol_74_num_sample_100-1

>  <s_m_source_file>  (1) 
generated__ligand_Pocket2Mol_2026-05-06_prepared.sdf

>  <GenAI_Model>  (1) 
Pocket2Mol

>  <Protein>  (1) 
GPCR_5HT2C

$$$$
Pocket2Mol_57_num_sample_100
     RDKit          3D

  0  0  0  0  0  0  0  0  0  0999 V3000
M  V30 BEGIN CTAB
M  V30 COUNTS 16 16 0 0 1
M  V30 BEGIN ATOM
M  V30 1 C 38.753586 27.812423 51.763406 0
M  V30 2 C 38.514539 28.370369 53.035347 0
M  V30 3 C 39.547157 28.503817 50.828227 0
M  V30 4 C 40.104327 29.752935 51.162047 0
M  V30 5 O 40.871463 30.421443 50.252888 0
M  V30 6 C 37.660410 27.626432 54.038564 0
M  V30 7 C 39.867402 30.312184 52.434020 0
M  V30 8 C 39.071383 29.621444 53.370537 0
M  V30 9 H 38.326208 26.854371 51.503843 0
M  V30 10 H 39.726452 28.076871 49.853501 0
M  V30 11 H 41.109537 31.296972 50.522690 0
M  V30 12 H 37.557068 28.182778 54.970586 0
M  V30 13 H 36.667384 27.464987 53.624727 0
M  V30 14 H 38.100140 26.654938 54.265532 0
M  V30 15 H 40.292818 31.270291 52.691843 0
M  V30 16 H 38.889325 30.052388 54.344686 0
M  V30 END ATOM
M  V30 BEGIN BOND
M  V30 1 1 2 1
M  V30 2 2 3 1
M  V30 3 1 4 3
M  V30 4 1 5 4
M  V30 5 1 6 2
M  V30 6 2 7 4
M  V30 7 2 8 2
M  V30 8 1 8 7
M  V30 9 1 9 1
M  V30 10 1 10 3
M  V30 11 1 11 5
M  V30 12 1 12 6
M  V30 13 1 13 6
M  V30 14 1 14 6
M  V30 15 1 15 7
M  V30 16 1 16 8
M  V30 END BOND
M  V30 END CTAB
M  END
>  <i_epik_Tot_Q>  (1) 
0

>  <i_epik_Tot_abs_Q>  (1) 
0

>  <i_i_glide_confnum>  (1) 
1

>  <i_i_glide_lignum>  (1) 
61

>  <i_i_glide_posenum>  (1) 
105

>  <i_i_glide_rotatable_bonds>  (1) 
1

>  <i_lp_mmshare_version>  (1) 
72125

>  <i_m_source_file_index>  (1) 
58

>  <i_f3d_flags>  (1) 
0

>  <num_sample>  (1) 
100

>  <b_lp_Chiralities_Consistent>  (1) 
1

>  <r_epik_Charging_Adjusted_Penalty>  (1) 
0

>  <r_epik_Ionization_Penalty>  (1) 
0.0011734046256504545

>  <r_epik_Ionization_Penalty_Charging>  (1) 
0

>  <r_epik_Ionization_Penalty_Neutral>  (1) 
0.0011734046256504545

>  <r_epik_State_Penalty>  (1) 
-0

>  <r_glide_ring_energy>  (1) 
0

>  <r_i_docking_score>  (1) 
-5.9061744380091579

>  <r_i_glide_ecoul>  (1) 
-1.8832235471451331

>  <r_i_glide_eff_state_penalty>  (1) 
-0

>  <r_i_glide_einternal>  (1) 
0.036095405280798687

>  <r_i_glide_emodel>  (1) 
-28.868308063386095

>  <r_i_glide_emodel_strain>  (1) 
0

>  <r_i_glide_energy>  (1) 
-20.892118026890401

>  <r_i_glide_erotb>  (1) 
0

>  <r_i_glide_esite>  (1) 
0

>  <r_i_glide_evdw>  (1) 
-19.008894479745269

>  <r_i_glide_gscore>  (1) 
-5.9061744380091579

>  <r_i_glide_gscore_strain>  (1) 
0

>  <r_i_glide_hbond>  (1) 
0

>  <r_i_glide_ligand_efficiency>  (1) 
-0.73827180475114473

>  <r_i_glide_ligand_efficiency_ln>  (1) 
-1.9179368590278025

>  <r_i_glide_ligand_efficiency_sa>  (1) 
-1.4765436095022897

>  <r_i_glide_lipo>  (1) 
-2.1551469529280785

>  <r_i_glide_metal>  (1) 
-0

>  <r_i_glide_rewards>  (1) 
-2.5180992290220461

>  <r_lp_Energy>  (1) 
4.2645419999999996

>  <r_lp_tautomer_probability>  (1) 
1

>  <s_epik_cmdline>  (1) 
J2VwaWtfcHl0aG9uJywgJy1waHQnLCAnMS4wJywgJy1waCcsICc3LjQnLCAnLXRuJywgJzgnLCAnLW1hJywgJzUwMCcsICctaW1hZScsICc8aW5maWxlLm1hZT4nLCAnLW9tYWUnLCAnPG91dGZpbGUubWFlPic=

>  <s_epik_input>  (1) 
W0NIM11jMVtjSF1bY0hdYyhbT0hdKVtjSF1bY0hdMQ==

>  <s_glide_docking_method>  (1) 
confgen

>  <s_i_glide_gridfile>  (1) 
gpcr_5ht2c_6bqh_protein_autoprepared_prepared

>  <s_lp_Force_Field>  (1) 
S-OPLS

>  <s_lp_Variant>  (1) 
Pocket2Mol_57_num_sample_100-1

>  <s_m_source_file>  (1) 
generated__ligand_Pocket2Mol_2026-05-06_prepared.sdf

>  <GenAI_Model>  (1) 
Pocket2Mol

>  <Protein>  (1) 
GPCR_5HT2C

$$$$
Pocket2Mol_57_num_sample_100
     RDKit          3D

  0  0  0  0  0  0  0  0  0  0999 V3000
M  V30 BEGIN CTAB
M  V30 COUNTS 16 16 0 0 1
M  V30 BEGIN ATOM
M  V30 1 C 39.067328 29.620942 53.341359 0
M  V30 2 C 38.534139 28.358234 53.006858 0
M  V30 3 C 39.867402 30.316106 52.412907 0
M  V30 4 C 40.136998 29.749236 51.151023 0
M  V30 5 O 40.910984 30.421428 50.250226 0
M  V30 6 C 37.670836 27.611730 54.002521 0
M  V30 7 C 39.606208 28.487977 50.818852 0
M  V30 8 C 38.805376 27.792874 51.744512 0
M  V30 9 H 38.860404 30.056752 54.308290 0
M  V30 10 H 40.272667 31.283062 52.669519 0
M  V30 11 H 41.131592 31.302563 50.516606 0
M  V30 12 H 37.334909 26.655245 53.599749 0
M  V30 13 H 38.230650 27.419630 54.917950 0
M  V30 14 H 36.789168 28.200845 54.253501 0
M  V30 15 H 39.811311 28.054623 49.853501 0
M  V30 16 H 38.397792 26.826280 51.484811 0
M  V30 END ATOM
M  V30 BEGIN BOND
M  V30 1 1 2 1
M  V30 2 2 3 1
M  V30 3 1 4 3
M  V30 4 1 5 4
M  V30 5 1 6 2
M  V30 6 2 7 4
M  V30 7 2 8 2
M  V30 8 1 8 7
M  V30 9 1 9 1
M  V30 10 1 10 3
M  V30 11 1 11 5
M  V30 12 1 12 6
M  V30 13 1 13 6
M  V30 14 1 14 6
M  V30 15 1 15 7
M  V30 16 1 16 8
M  V30 END BOND
M  V30 END CTAB
M  END
>  <i_epik_Tot_Q>  (1) 
0

>  <i_epik_Tot_abs_Q>  (1) 
0

>  <i_i_glide_confnum>  (1) 
1

>  <i_i_glide_lignum>  (1) 
61

>  <i_i_glide_posenum>  (1) 
104

>  <i_i_glide_rotatable_bonds>  (1) 
1

>  <i_lp_mmshare_version>  (1) 
72125

>  <i_m_source_file_index>  (1) 
58

>  <i_f3d_flags>  (1) 
0

>  <num_sample>  (1) 
100

>  <b_lp_Chiralities_Consistent>  (1) 
1

>  <r_epik_Charging_Adjusted_Penalty>  (1) 
0

>  <r_epik_Ionization_Penalty>  (1) 
0.0011734046256504545

>  <r_epik_Ionization_Penalty_Charging>  (1) 
0

>  <r_epik_Ionization_Penalty_Neutral>  (1) 
0.0011734046256504545

>  <r_epik_State_Penalty>  (1) 
-0

>  <r_glide_ring_energy>  (1) 
0

>  <r_i_docking_score>  (1) 
-5.9040236747154333

>  <r_i_glide_ecoul>  (1) 
-1.8865368947071781

>  <r_i_glide_eff_state_penalty>  (1) 
-0

>  <r_i_glide_einternal>  (1) 
0.052966006526460795

>  <r_i_glide_emodel>  (1) 
-28.768154437606412

>  <r_i_glide_emodel_strain>  (1) 
0

>  <r_i_glide_energy>  (1) 
-20.803310843839341

>  <r_i_glide_erotb>  (1) 
0

>  <r_i_glide_esite>  (1) 
0

>  <r_i_glide_evdw>  (1) 
-18.916773949132164

>  <r_i_glide_gscore>  (1) 
-5.9040236747154333

>  <r_i_glide_gscore_strain>  (1) 
0

>  <r_i_glide_hbond>  (1) 
0

>  <r_i_glide_ligand_efficiency>  (1) 
-0.73800295933942917

>  <r_i_glide_ligand_efficiency_ln>  (1) 
-1.9172384326200873

>  <r_i_glide_ligand_efficiency_sa>  (1) 
-1.4760059186788586

>  <r_i_glide_lipo>  (1) 
-2.1584372645118335

>  <r_i_glide_metal>  (1) 
-0

>  <r_i_glide_rewards>  (1) 
-2.5167671785409151

>  <r_lp_Energy>  (1) 
4.2645419999999996

>  <r_lp_tautomer_probability>  (1) 
1

>  <s_epik_cmdline>  (1) 
J2VwaWtfcHl0aG9uJywgJy1waHQnLCAnMS4wJywgJy1waCcsICc3LjQnLCAnLXRuJywgJzgnLCAnLW1hJywgJzUwMCcsICctaW1hZScsICc8aW5maWxlLm1hZT4nLCAnLW9tYWUnLCAnPG91dGZpbGUubWFlPic=

>  <s_epik_input>  (1) 
W0NIM11jMVtjSF1bY0hdYyhbT0hdKVtjSF1bY0hdMQ==

>  <s_glide_docking_method>  (1) 
confgen

>  <s_i_glide_gridfile>  (1) 
gpcr_5ht2c_6bqh_protein_autoprepared_prepared

>  <s_lp_Force_Field>  (1) 
S-OPLS

>  <s_lp_Variant>  (1) 
Pocket2Mol_57_num_sample_100-1

>  <s_m_source_file>  (1) 
generated__ligand_Pocket2Mol_2026-05-06_prepared.sdf

>  <GenAI_Model>  (1) 
Pocket2Mol

>  <Protein>  (1) 
GPCR_5HT2C

$$$$
Pocket2Mol_1_num_sample_100
     RDKit          3D

  0  0  0  0  0  0  0  0  0  0999 V3000
M  V30 BEGIN CTAB
M  V30 COUNTS 19 20 0 0 1
M  V30 BEGIN ATOM
M  V30 1 C 39.646806 30.421429 53.556186 0
M  V30 2 C 39.300338 29.418115 52.580573 0
M  V30 3 C 38.283607 28.404544 52.838526 0 CFG=2
M  V30 4 C 39.867784 29.295154 51.438584 0
M  V30 5 C 38.085770 28.189406 54.333758 0
M  V30 6 C 38.510241 29.087142 55.256955 0
M  V30 7 C 39.441515 28.118992 50.653527 0
M  V30 8 O 38.267405 28.879034 56.556716 0
M  V30 9 N 38.711440 27.407298 51.793467 0
M  V30 10 C 39.254755 30.274731 54.834496 0
M  V30 11 H 40.241881 31.274645 53.267965 0
M  V30 12 H 37.339072 28.814745 52.479129 0
M  V30 13 H 40.652015 29.946247 51.080003 0
M  V30 14 H 37.543486 27.306045 54.637666 0
M  V30 15 H 38.767363 28.421430 49.853502 0
M  V30 16 H 40.267403 27.526623 50.261918 0
M  V30 17 H 37.762479 28.084907 56.632363 0
M  V30 18 H 37.927572 26.860477 51.454778 0
M  V30 19 H 39.532595 31.019323 55.566562 0
M  V30 END ATOM
M  V30 BEGIN BOND
M  V30 1 1 2 1
M  V30 2 1 3 2
M  V30 3 2 4 2
M  V30 4 1 5 3
M  V30 5 2 6 5
M  V30 6 1 7 4
M  V30 7 1 8 6
M  V30 8 1 9 3
M  V30 9 1 9 7
M  V30 10 2 10 1
M  V30 11 1 10 6
M  V30 12 1 11 1
M  V30 13 1 3 12 CFG=3
M  V30 14 1 13 4
M  V30 15 1 14 5
M  V30 16 1 15 7
M  V30 17 1 16 7
M  V30 18 1 17 8
M  V30 19 1 18 9
M  V30 20 1 19 10
M  V30 END BOND
M  V30 END CTAB
M  END
>  <i_epik_Tot_Q>  (1) 
0

>  <i_epik_Tot_abs_Q>  (1) 
0

>  <i_i_glide_confnum>  (1) 
1

>  <i_i_glide_lignum>  (1) 
3

>  <i_i_glide_posenum>  (1) 
93

>  <i_i_glide_rotatable_bonds>  (1) 
1

>  <i_lp_mmshare_version>  (1) 
72125

>  <i_m_source_file_index>  (1) 
2

>  <i_f3d_flags>  (1) 
0

>  <num_sample>  (1) 
100

>  <b_lp_Chiralities_Consistent>  (1) 
1

>  <r_epik_Charging_Adjusted_Penalty>  (1) 
0.0032380173127296522

>  <r_epik_Ionization_Penalty>  (1) 
0.0032399356015129686

>  <r_epik_Ionization_Penalty_Charging>  (1) 
0

>  <r_epik_Ionization_Penalty_Neutral>  (1) 
0.0032399356015129686

>  <r_epik_State_Penalty>  (1) 
0.0032380173127296522

>  <r_glide_ring_energy>  (1) 
0

>  <r_i_docking_score>  (1) 
-5.9018129165087974

>  <r_i_glide_ecoul>  (1) 
-1.5355849490141364

>  <r_i_glide_eff_state_penalty>  (1) 
0.0032380173127296522

>  <r_i_glide_einternal>  (1) 
0.0041840047329162466

>  <r_i_glide_emodel>  (1) 
-31.496402261927567

>  <r_i_glide_emodel_strain>  (1) 
0

>  <r_i_glide_energy>  (1) 
-22.660934296256265

>  <r_i_glide_erotb>  (1) 
0

>  <r_i_glide_esite>  (1) 
0

>  <r_i_glide_evdw>  (1) 
-21.125349347242128

>  <r_i_glide_gscore>  (1) 
-5.9050509338215269

>  <r_i_glide_gscore_strain>  (1) 
0

>  <r_i_glide_hbond>  (1) 
-0.14374214489556367

>  <r_i_glide_ligand_efficiency>  (1) 
-0.59018129165087974

>  <r_i_glide_ligand_efficiency_ln>  (1) 
-1.7870282673499118

>  <r_i_glide_ligand_efficiency_sa>  (1) 
-1.27150704814048

>  <r_i_glide_lipo>  (1) 
-2.0947656512843684

>  <r_i_glide_metal>  (1) 
-0

>  <r_i_glide_rewards>  (1) 
-2.3799379279273678

>  <r_lp_Energy>  (1) 
5.6201189999999999

>  <s_epik_cmdline>  (1) 
J2VwaWtfcHl0aG9uJywgJy1waHQnLCAnMS4wJywgJy1waCcsICc3LjQnLCAnLXRuJywgJzgnLCAnLW1hJywgJzUwMCcsICctaW1hZScsICc8aW5maWxlLm1hZT4nLCAnLW9tYWUnLCAnPG91dGZpbGUubWFlPic=

>  <s_epik_input>  (1) 
W0NIXTE9W0NIXUMoW09IXSk9W0NIXVtDQEBIXShDMT0yKVtOSF1bQ0gyXVtDSF0y

>  <s_glide_docking_method>  (1) 
confgen

>  <s_i_glide_gridfile>  (1) 
gpcr_5ht2c_6bqh_protein_autoprepared_prepared

>  <s_lp_Force_Field>  (1) 
S-OPLS

>  <s_lp_Variant>  (1) 
Pocket2Mol_1_num_sample_100-1

>  <s_m_source_file>  (1) 
generated__ligand_Pocket2Mol_2026-05-06_prepared.sdf

>  <GenAI_Model>  (1) 
Pocket2Mol

>  <Protein>  (1) 
GPCR_5HT2C

$$$$
Pocket2Mol_1_num_sample_100
     RDKit          3D

  0  0  0  0  0  0  0  0  0  0999 V3000
M  V30 BEGIN CTAB
M  V30 COUNTS 19 20 0 0 1
M  V30 BEGIN ATOM
M  V30 1 C 39.867401 30.421431 52.841226 0
M  V30 2 C 39.105164 30.431120 54.066407 0
M  V30 3 C 37.919478 29.601777 54.249249 0 CFG=1
M  V30 4 C 39.413063 31.117704 55.102486 0
M  V30 5 C 37.930663 28.405054 53.301257 0
M  V30 6 C 38.730548 28.355337 52.206224 0
M  V30 7 C 38.561997 30.877426 56.286913 0
M  V30 8 O 38.667403 27.308988 51.374895 0
M  V30 9 N 37.867522 29.621429 55.756257 0
M  V30 10 C 39.677398 29.439042 51.941536 0
M  V30 11 H 40.606733 31.187897 52.656593 0
M  V30 12 H 37.070454 30.208175 53.934900 0
M  V30 13 H 40.265788 31.777366 55.158523 0
M  V30 14 H 37.234165 27.605230 53.507320 0
M  V30 15 H 39.134792 30.674293 57.191862 0
M  V30 16 H 37.867368 31.704004 56.443500 0
M  V30 17 H 37.915775 26.788167 51.619115 0
M  V30 18 H 36.910462 29.609580 56.086326 0
M  V30 19 H 40.263378 29.426349 51.033825 0
M  V30 END ATOM
M  V30 BEGIN BOND
M  V30 1 1 2 1
M  V30 2 1 3 2
M  V30 3 2 4 2
M  V30 4 1 5 3
M  V30 5 2 6 5
M  V30 6 1 7 4
M  V30 7 1 8 6
M  V30 8 1 9 3
M  V30 9 1 9 7
M  V30 10 2 10 1
M  V30 11 1 10 6
M  V30 12 1 11 1
M  V30 13 1 3 12 CFG=3
M  V30 14 1 13 4
M  V30 15 1 14 5
M  V30 16 1 15 7
M  V30 17 1 16 7
M  V30 18 1 17 8
M  V30 19 1 18 9
M  V30 20 1 19 10
M  V30 END BOND
M  V30 END CTAB
M  END
>  <i_epik_Tot_Q>  (1) 
0

>  <i_epik_Tot_abs_Q>  (1) 
0

>  <i_i_glide_confnum>  (1) 
1

>  <i_i_glide_lignum>  (1) 
4

>  <i_i_glide_posenum>  (1) 
262

>  <i_i_glide_rotatable_bonds>  (1) 
1

>  <i_lp_mmshare_version>  (1) 
72125

>  <i_m_source_file_index>  (1) 
2

>  <i_f3d_flags>  (1) 
0

>  <num_sample>  (1) 
100

>  <b_lp_Chiralities_Consistent>  (1) 
1

>  <r_epik_Charging_Adjusted_Penalty>  (1) 
0.0032380173127296522

>  <r_epik_Ionization_Penalty>  (1) 
0.0032399356015129686

>  <r_epik_Ionization_Penalty_Charging>  (1) 
0

>  <r_epik_Ionization_Penalty_Neutral>  (1) 
0.0032399356015129686

>  <r_epik_State_Penalty>  (1) 
0.0032380173127296522

>  <r_glide_ring_energy>  (1) 
0

>  <r_i_docking_score>  (1) 
-5.8947363152847059

>  <r_i_glide_ecoul>  (1) 
-2.0906301834126206

>  <r_i_glide_eff_state_penalty>  (1) 
0.0032380173127296522

>  <r_i_glide_einternal>  (1) 
0.32192176535792982

>  <r_i_glide_emodel>  (1) 
-31.875667619385354

>  <r_i_glide_emodel_strain>  (1) 
1.132453064656147e-07

>  <r_i_glide_energy>  (1) 
-23.082306496379292

>  <r_i_glide_erotb>  (1) 
0

>  <r_i_glide_esite>  (1) 
0

>  <r_i_glide_evdw>  (1) 
-20.991676312966671

>  <r_i_glide_gscore>  (1) 
-5.8979743325974354

>  <r_i_glide_gscore_strain>  (1) 
0

>  <r_i_glide_hbond>  (1) 
-0.13123664703497068

>  <r_i_glide_ligand_efficiency>  (1) 
-0.58947363152847054

>  <r_i_glide_ligand_efficiency_ln>  (1) 
-1.7848855212813537

>  <r_i_glide_ligand_efficiency_sa>  (1) 
-1.2699824406240094

>  <r_i_glide_lipo>  (1) 
-1.9598785498617968

>  <r_i_glide_metal>  (1) 
-0

>  <r_i_glide_rewards>  (1) 
-2.4436807925404405

>  <r_lp_Energy>  (1) 
5.6363089999999998

>  <s_epik_cmdline>  (1) 
J2VwaWtfcHl0aG9uJywgJy1waHQnLCAnMS4wJywgJy1waCcsICc3LjQnLCAnLXRuJywgJzgnLCAnLW1hJywgJzUwMCcsICctaW1hZScsICc8aW5maWxlLm1hZT4nLCAnLW9tYWUnLCAnPG91dGZpbGUubWFlPic=

>  <s_epik_input>  (1) 
W0NIXTE9W0NIXUMoW09IXSk9W0NIXVtDQEhdKEMxPTIpW05IXVtDSDJdW0NIXTI=

>  <s_glide_docking_method>  (1) 
confgen

>  <s_i_glide_gridfile>  (1) 
gpcr_5ht2c_6bqh_protein_autoprepared_prepared

>  <s_lp_Force_Field>  (1) 
S-OPLS

>  <s_lp_Variant>  (1) 
Pocket2Mol_1_num_sample_100-2

>  <s_m_source_file>  (1) 
generated__ligand_Pocket2Mol_2026-05-06_prepared.sdf

>  <GenAI_Model>  (1) 
Pocket2Mol

>  <Protein>  (1) 
GPCR_5HT2C

$$$$
Pocket2Mol_54_num_sample_100
     RDKit          3D

  0  0  0  0  0  0  0  0  0  0999 V3000
M  V30 BEGIN CTAB
M  V30 COUNTS 17 17 0 0 1
M  V30 BEGIN ATOM
M  V30 1 C 38.671652 27.876716 52.100476 0
M  V30 2 C 38.470370 28.594374 53.295827 0
M  V30 3 C 39.067404 29.859573 53.467881 0
M  V30 4 N 38.866055 30.571217 54.649018 0
M  V30 5 C 39.467405 28.423222 51.074954 0
M  V30 6 C 40.064661 29.689970 51.243942 0
M  V30 7 C 40.913967 30.284593 50.139541 0
M  V30 8 C 39.867398 30.405927 52.442185 0
M  V30 9 H 38.213652 26.907172 51.969310 0
M  V30 10 H 37.857853 28.173812 54.080083 0
M  V30 11 H 39.139251 31.541370 54.711294 0
M  V30 12 H 38.153428 30.275604 55.302418 0
M  V30 13 H 39.617160 27.872074 50.159904 0
M  V30 14 H 40.921013 29.648967 49.253843 0
M  V30 15 H 40.518839 31.257768 49.850310 0
M  V30 16 H 41.941407 30.421644 50.477035 0
M  V30 17 H 40.323410 31.375844 52.571350 0
M  V30 END ATOM
M  V30 BEGIN BOND
M  V30 1 1 2 1
M  V30 2 2 3 2
M  V30 3 1 4 3
M  V30 4 2 5 1
M  V30 5 1 6 5
M  V30 6 1 7 6
M  V30 7 1 8 3
M  V30 8 2 8 6
M  V30 9 1 9 1
M  V30 10 1 10 2
M  V30 11 1 11 4
M  V30 12 1 12 4
M  V30 13 1 13 5
M  V30 14 1 14 7
M  V30 15 1 15 7
M  V30 16 1 16 7
M  V30 17 1 17 8
M  V30 END BOND
M  V30 END CTAB
M  END
>  <i_epik_Tot_Q>  (1) 
0

>  <i_epik_Tot_abs_Q>  (1) 
0

>  <i_i_glide_confnum>  (1) 
1

>  <i_i_glide_lignum>  (1) 
58

>  <i_i_glide_posenum>  (1) 
263

>  <i_i_glide_rotatable_bonds>  (1) 
0

>  <i_lp_mmshare_version>  (1) 
72125

>  <i_m_source_file_index>  (1) 
55

>  <i_f3d_flags>  (1) 
0

>  <num_sample>  (1) 
100

>  <b_lp_Chiralities_Consistent>  (1) 
1

>  <r_epik_Charging_Adjusted_Penalty>  (1) 
0

>  <r_epik_Ionization_Penalty>  (1) 
0.0013172751215551738

>  <r_epik_Ionization_Penalty_Charging>  (1) 
0

>  <r_epik_Ionization_Penalty_Neutral>  (1) 
0.0013172751215551738

>  <r_epik_State_Penalty>  (1) 
-0

>  <r_glide_ring_energy>  (1) 
0

>  <r_i_docking_score>  (1) 
-5.8932540543851637

>  <r_i_glide_ecoul>  (1) 
-1.2087918124050034

>  <r_i_glide_eff_state_penalty>  (1) 
-0

>  <r_i_glide_einternal>  (1) 
0

>  <r_i_glide_emodel>  (1) 
-27.846052454584417

>  <r_i_glide_emodel_strain>  (1) 
0.0074999342166748306

>  <r_i_glide_energy>  (1) 
-20.57176533269093

>  <r_i_glide_erotb>  (1) 
0

>  <r_i_glide_esite>  (1) 
0

>  <r_i_glide_evdw>  (1) 
-19.362973520285927

>  <r_i_glide_gscore>  (1) 
-5.8932540543851637

>  <r_i_glide_gscore_strain>  (1) 
0

>  <r_i_glide_hbond>  (1) 
0

>  <r_i_glide_ligand_efficiency>  (1) 
-0.73665675679814546

>  <r_i_glide_ligand_efficiency_ln>  (1) 
-1.9137411685270678

>  <r_i_glide_ligand_efficiency_sa>  (1) 
-1.4733135135962911

>  <r_i_glide_lipo>  (1) 
-2.1658062764391808

>  <r_i_glide_metal>  (1) 
-0

>  <r_i_glide_rewards>  (1) 
-2.5779803300709361

>  <r_lp_Energy>  (1) 
5.5447359999999994

>  <r_lp_tautomer_probability>  (1) 
1

>  <s_epik_cmdline>  (1) 
J2VwaWtfcHl0aG9uJywgJy1waHQnLCAnMS4wJywgJy1waCcsICc3LjQnLCAnLXRuJywgJzgnLCAnLW1hJywgJzUwMCcsICctaW1hZScsICc8aW5maWxlLm1hZT4nLCAnLW9tYWUnLCAnPG91dGZpbGUubWFlPic=

>  <s_epik_input>  (1) 
W0NIM11jKFtjSF0xKVtjSF1bY0hdW2NIXWMxW05IMl0=

>  <s_glide_docking_method>  (1) 
confgen

>  <s_i_glide_gridfile>  (1) 
gpcr_5ht2c_6bqh_protein_autoprepared_prepared

>  <s_lp_Force_Field>  (1) 
S-OPLS

>  <s_lp_Variant>  (1) 
Pocket2Mol_54_num_sample_100-1

>  <s_m_source_file>  (1) 
generated__ligand_Pocket2Mol_2026-05-06_prepared.sdf

>  <GenAI_Model>  (1) 
Pocket2Mol

>  <Protein>  (1) 
GPCR_5HT2C

$$$$
Pocket2Mol_52_num_sample_100
     RDKit          3D

  0  0  0  0  0  0  0  0  0  0999 V3000
M  V30 BEGIN CTAB
M  V30 COUNTS 16 16 0 0 1
M  V30 BEGIN ATOM
M  V30 1 C 38.549993 28.664273 53.413642 0
M  V30 2 C 38.668351 27.872240 52.254671 0
M  V30 3 C 39.149350 29.939831 53.460786 0
M  V30 4 C 39.019253 30.792052 54.707251 0
M  V30 5 C 39.384019 28.354272 51.141364 0
M  V30 6 C 39.981313 29.629498 51.185262 0
M  V30 7 O 40.667404 30.098764 50.103926 0
M  V30 8 C 39.867403 30.421428 52.345441 0
M  V30 9 H 37.999289 28.293772 54.266185 0
M  V30 10 H 38.208359 26.895273 52.218940 0
M  V30 11 H 39.527591 31.749784 54.593974 0
M  V30 12 H 37.968493 30.991644 54.921539 0
M  V30 13 H 39.452683 30.277378 55.565123 0
M  V30 14 H 39.471593 27.746675 50.253502 0
M  V30 15 H 40.981743 30.984131 50.215904 0
M  V30 16 H 40.324707 31.399351 52.378656 0
M  V30 END ATOM
M  V30 BEGIN BOND
M  V30 1 2 2 1
M  V30 2 1 3 1
M  V30 3 1 4 3
M  V30 4 1 5 2
M  V30 5 2 6 5
M  V30 6 1 7 6
M  V30 7 2 8 3
M  V30 8 1 8 6
M  V30 9 1 9 1
M  V30 10 1 10 2
M  V30 11 1 11 4
M  V30 12 1 12 4
M  V30 13 1 13 4
M  V30 14 1 14 5
M  V30 15 1 15 7
M  V30 16 1 16 8
M  V30 END BOND
M  V30 END CTAB
M  END
>  <i_epik_Tot_Q>  (1) 
0

>  <i_epik_Tot_abs_Q>  (1) 
0

>  <i_i_glide_confnum>  (1) 
1

>  <i_i_glide_lignum>  (1) 
55

>  <i_i_glide_posenum>  (1) 
367

>  <i_i_glide_rotatable_bonds>  (1) 
1

>  <i_lp_mmshare_version>  (1) 
72125

>  <i_m_source_file_index>  (1) 
53

>  <i_f3d_flags>  (1) 
0

>  <num_sample>  (1) 
100

>  <b_lp_Chiralities_Consistent>  (1) 
1

>  <r_epik_Charging_Adjusted_Penalty>  (1) 
0

>  <r_epik_Ionization_Penalty>  (1) 
0.0017015869167085525

>  <r_epik_Ionization_Penalty_Charging>  (1) 
0

>  <r_epik_Ionization_Penalty_Neutral>  (1) 
0.0017015869167085525

>  <r_epik_State_Penalty>  (1) 
-0

>  <r_glide_ring_energy>  (1) 
0

>  <r_i_docking_score>  (1) 
-5.8886118815705899

>  <r_i_glide_ecoul>  (1) 
-1.9339362223806211

>  <r_i_glide_eff_state_penalty>  (1) 
-0

>  <r_i_glide_einternal>  (1) 
0.013955970549011557

>  <r_i_glide_emodel>  (1) 
-27.982718595209146

>  <r_i_glide_emodel_strain>  (1) 
0

>  <r_i_glide_energy>  (1) 
-20.436847151025901

>  <r_i_glide_erotb>  (1) 
0

>  <r_i_glide_esite>  (1) 
0

>  <r_i_glide_evdw>  (1) 
-18.502910928645282

>  <r_i_glide_gscore>  (1) 
-5.8886118815705899

>  <r_i_glide_gscore_strain>  (1) 
0

>  <r_i_glide_hbond>  (1) 
0

>  <r_i_glide_ligand_efficiency>  (1) 
-0.73607648519632374

>  <r_i_glide_ligand_efficiency_ln>  (1) 
-1.9122336962299831

>  <r_i_glide_ligand_efficiency_sa>  (1) 
-1.4721529703926477

>  <r_i_glide_lipo>  (1) 
-2.0365588389807465

>  <r_i_glide_metal>  (1) 
-0

>  <r_i_glide_rewards>  (1) 
-2.6368170628004859

>  <r_lp_Energy>  (1) 
5.2727110000000001

>  <r_lp_tautomer_probability>  (1) 
1

>  <s_epik_cmdline>  (1) 
J2VwaWtfcHl0aG9uJywgJy1waHQnLCAnMS4wJywgJy1waCcsICc3LjQnLCAnLXRuJywgJzgnLCAnLW1hJywgJzUwMCcsICctaW1hZScsICc8aW5maWxlLm1hZT4nLCAnLW9tYWUnLCAnPG91dGZpbGUubWFlPic=

>  <s_epik_input>  (1) 
W0NIM11jMVtjSF1bY0hdW2NIXWMoW09IXSlbY0hdMQ==

>  <s_glide_docking_method>  (1) 
confgen

>  <s_i_glide_gridfile>  (1) 
gpcr_5ht2c_6bqh_protein_autoprepared_prepared

>  <s_lp_Force_Field>  (1) 
S-OPLS

>  <s_lp_Variant>  (1) 
Pocket2Mol_52_num_sample_100-1

>  <s_m_source_file>  (1) 
generated__ligand_Pocket2Mol_2026-05-06_prepared.sdf

>  <GenAI_Model>  (1) 
Pocket2Mol

>  <Protein>  (1) 
GPCR_5HT2C

$$$$
Pocket2Mol_83_num_sample_100
     RDKit          3D

  0  0  0  0  0  0  0  0  0  0999 V3000
M  V30 BEGIN CTAB
M  V30 COUNTS 16 17 0 0 1
M  V30 BEGIN ATOM
M  V30 1 C 38.493014 27.725973 52.336277 0
M  V30 2 C 38.667416 28.820070 53.224775 0
M  V30 3 C 39.087817 27.728598 51.054651 0
M  V30 4 C 39.867402 28.821280 50.634605 0
M  V30 5 C 40.059335 29.910541 51.492609 0
M  V30 6 C 38.212194 29.125052 54.546310 0
M  V30 7 C 38.722534 30.357320 54.869593 0
M  V30 8 C 39.467400 29.903968 52.764424 0
M  V30 9 N 39.478537 30.821430 53.797918 0
M  V30 10 H 37.893764 26.881053 52.643101 0
M  V30 11 H 38.940479 26.887034 50.392102 0
M  V30 12 H 40.312600 28.821475 49.651693 0
M  V30 13 H 40.656269 30.753447 51.175558 0
M  V30 14 H 37.584156 28.499235 55.162486 0
M  V30 15 H 38.610114 30.943977 55.771137 0
M  V30 16 H 39.952589 31.713950 53.799305 0
M  V30 END ATOM
M  V30 BEGIN BOND
M  V30 1 2 2 1
M  V30 2 1 3 1
M  V30 3 2 4 3
M  V30 4 1 5 4
M  V30 5 1 6 2
M  V30 6 2 7 6
M  V30 7 1 8 2
M  V30 8 2 8 5
M  V30 9 1 9 7
M  V30 10 1 9 8
M  V30 11 1 10 1
M  V30 12 1 11 3
M  V30 13 1 12 4
M  V30 14 1 13 5
M  V30 15 1 14 6
M  V30 16 1 15 7
M  V30 17 1 16 9
M  V30 END BOND
M  V30 END CTAB
M  END
>  <i_epik_Tot_Q>  (1) 
0

>  <i_epik_Tot_abs_Q>  (1) 
0

>  <i_i_glide_confnum>  (1) 
1

>  <i_i_glide_lignum>  (1) 
88

>  <i_i_glide_posenum>  (1) 
305

>  <i_i_glide_rotatable_bonds>  (1) 
0

>  <i_lp_mmshare_version>  (1) 
72125

>  <i_m_source_file_index>  (1) 
84

>  <i_f3d_flags>  (1) 
0

>  <num_sample>  (1) 
100

>  <b_lp_Chiralities_Consistent>  (1) 
1

>  <r_epik_Charging_Adjusted_Penalty>  (1) 
0

>  <r_epik_Ionization_Penalty>  (1) 
6.3316205355000374e-10

>  <r_epik_Ionization_Penalty_Charging>  (1) 
0

>  <r_epik_Ionization_Penalty_Neutral>  (1) 
6.3316205355000374e-10

>  <r_epik_State_Penalty>  (1) 
-0

>  <r_glide_ring_energy>  (1) 
0

>  <r_i_docking_score>  (1) 
-5.8814107898701398

>  <r_i_glide_ecoul>  (1) 
-1.3404721456399449

>  <r_i_glide_eff_state_penalty>  (1) 
-0

>  <r_i_glide_einternal>  (1) 
0

>  <r_i_glide_emodel>  (1) 
-29.656743702701078

>  <r_i_glide_emodel_strain>  (1) 
0

>  <r_i_glide_energy>  (1) 
-21.641781224948854

>  <r_i_glide_erotb>  (1) 
0

>  <r_i_glide_esite>  (1) 
0

>  <r_i_glide_evdw>  (1) 
-20.301309079308908

>  <r_i_glide_gscore>  (1) 
-5.8814107898701398

>  <r_i_glide_gscore_strain>  (1) 
0

>  <r_i_glide_hbond>  (1) 
0

>  <r_i_glide_ligand_efficiency>  (1) 
-0.65349008776334883

>  <r_i_glide_ligand_efficiency_ln>  (1) 
-1.8395363377227196

>  <r_i_glide_ligand_efficiency_sa>  (1) 
-1.3593141600813112

>  <r_i_glide_lipo>  (1) 
-2.193557074060704

>  <r_i_glide_metal>  (1) 
-0

>  <r_i_glide_rewards>  (1) 
-2.4717174399979993

>  <r_lp_Energy>  (1) 
12.824451

>  <r_lp_tautomer_probability>  (1) 
1

>  <s_epik_cmdline>  (1) 
J2VwaWtfcHl0aG9uJywgJy1waHQnLCAnMS4wJywgJy1waCcsICc3LjQnLCAnLXRuJywgJzgnLCAnLW1hJywgJzUwMCcsICctaW1hZScsICc8aW5maWxlLm1hZT4nLCAnLW9tYWUnLCAnPG91dGZpbGUubWFlPic=

>  <s_epik_input>  (1) 
W2NIXTFbY0hdW2NIXVtjSF1jKGMxMilbbkhdW2NIXVtjSF0y

>  <s_glide_docking_method>  (1) 
confgen

>  <s_i_glide_gridfile>  (1) 
gpcr_5ht2c_6bqh_protein_autoprepared_prepared

>  <s_lp_Force_Field>  (1) 
S-OPLS

>  <s_lp_Variant>  (1) 
Pocket2Mol_83_num_sample_100-1

>  <s_m_source_file>  (1) 
generated__ligand_Pocket2Mol_2026-05-06_prepared.sdf

>  <GenAI_Model>  (1) 
Pocket2Mol

>  <Protein>  (1) 
GPCR_5HT2C

$$$$
Pocket2Mol_98_num_sample_100
     RDKit          3D

  0  0  0  0  0  0  0  0  0  0999 V3000
M  V30 BEGIN CTAB
M  V30 COUNTS 18 19 0 0 1
M  V30 BEGIN ATOM
M  V30 1 C 39.535301 28.126058 50.637742 0
M  V30 2 O 38.506617 27.565393 51.504604 0
M  V30 3 O 40.186821 29.295629 51.220221 0
M  V30 4 C 38.545181 28.456904 52.496860 0
M  V30 5 C 39.467403 29.408530 52.340859 0
M  V30 6 C 39.639845 30.432746 53.286389 0
M  V30 7 C 38.807326 30.449738 54.430941 0
M  V30 8 C 38.957610 31.544882 55.466995 0
M  V30 9 C 37.696876 28.424524 53.615503 0
M  V30 10 C 37.827352 29.435080 54.597583 0
M  V30 11 H 40.267403 27.355338 50.406674 0
M  V30 12 H 39.067348 28.436104 49.705298 0
M  V30 13 H 40.389873 31.196144 53.139212 0
M  V30 14 H 38.306943 31.372890 56.325376 0
M  V30 15 H 39.986380 31.596822 55.822496 0
M  V30 16 H 38.693946 32.510077 55.033670 0
M  V30 17 H 36.956033 27.645719 53.721515 0
M  V30 18 H 37.183608 29.436607 55.465496 0
M  V30 END ATOM
M  V30 BEGIN BOND
M  V30 1 1 2 1
M  V30 2 1 3 1
M  V30 3 1 4 2
M  V30 4 1 5 3
M  V30 5 2 5 4
M  V30 6 1 6 5
M  V30 7 2 7 6
M  V30 8 1 8 7
M  V30 9 1 9 4
M  V30 10 1 10 7
M  V30 11 2 10 9
M  V30 12 1 11 1
M  V30 13 1 12 1
M  V30 14 1 13 6
M  V30 15 1 14 8
M  V30 16 1 15 8
M  V30 17 1 16 8
M  V30 18 1 17 9
M  V30 19 1 18 10
M  V30 END BOND
M  V30 END CTAB
M  END
>  <i_epik_Tot_Q>  (1) 
0

>  <i_epik_Tot_abs_Q>  (1) 
0

>  <i_i_glide_confnum>  (1) 
1

>  <i_i_glide_lignum>  (1) 
103

>  <i_i_glide_posenum>  (1) 
287

>  <i_i_glide_rotatable_bonds>  (1) 
0

>  <i_lp_mmshare_version>  (1) 
72125

>  <i_m_source_file_index>  (1) 
99

>  <i_f3d_flags>  (1) 
0

>  <num_sample>  (1) 
100

>  <b_lp_Chiralities_Consistent>  (1) 
1

>  <r_epik_Charging_Adjusted_Penalty>  (1) 
0

>  <r_epik_Ionization_Penalty>  (1) 
0

>  <r_epik_Ionization_Penalty_Charging>  (1) 
0

>  <r_epik_Ionization_Penalty_Neutral>  (1) 
0

>  <r_epik_State_Penalty>  (1) 
-0

>  <r_glide_ring_energy>  (1) 
0

>  <r_i_docking_score>  (1) 
-5.8792512649340622

>  <r_i_glide_ecoul>  (1) 
-0.3468615182523157

>  <r_i_glide_eff_state_penalty>  (1) 
-0

>  <r_i_glide_einternal>  (1) 
0

>  <r_i_glide_emodel>  (1) 
-29.208255688174106

>  <r_i_glide_emodel_strain>  (1) 
0.0046090699763823295

>  <r_i_glide_energy>  (1) 
-21.187866238126006

>  <r_i_glide_erotb>  (1) 
0

>  <r_i_glide_esite>  (1) 
0

>  <r_i_glide_evdw>  (1) 
-20.841004719873691

>  <r_i_glide_gscore>  (1) 
-5.8792512649340622

>  <r_i_glide_gscore_strain>  (1) 
0

>  <r_i_glide_hbond>  (1) 
0

>  <r_i_glide_ligand_efficiency>  (1) 
-0.58792512649340622

>  <r_i_glide_ligand_efficiency_ln>  (1) 
-1.7801967547803808

>  <r_i_glide_ligand_efficiency_sa>  (1) 
-1.2666462876587778

>  <r_i_glide_lipo>  (1) 
-1.5909133223209424

>  <r_i_glide_metal>  (1) 
-0

>  <r_i_glide_rewards>  (1) 
-3.1942584788815873

>  <r_lp_Energy>  (1) 
16.823695000000001

>  <r_lp_tautomer_probability>  (1) 
1

>  <s_epik_Chemistry_Notes>  (1) 
This compound contains an acetal/aminal-like group ( X-CH(R)-Y where X, Y are N, S, or O) that may be acid/base labile, releasing an aldehyde.

>  <s_epik_cmdline>  (1) 
J2VwaWtfcHl0aG9uJywgJy1waHQnLCAnMS4wJywgJy1waCcsICc3LjQnLCAnLXRuJywgJzgnLCAnLW1hJywgJzUwMCcsICctaW1hZScsICc8aW5maWxlLm1hZT4nLCAnLW9tYWUnLCAnPG91dGZpbGUubWFlPic=

>  <s_epik_input>  (1) 
TzFbQ0gyXU9jKGMxMilbY0hdYyhbQ0gzXSlbY0hdW2NIXTI=

>  <s_glide_docking_method>  (1) 
confgen

>  <s_i_glide_gridfile>  (1) 
gpcr_5ht2c_6bqh_protein_autoprepared_prepared

>  <s_lp_Force_Field>  (1) 
S-OPLS

>  <s_lp_Variant>  (1) 
Pocket2Mol_98_num_sample_100-1

>  <s_m_source_file>  (1) 
generated__ligand_Pocket2Mol_2026-05-06_prepared.sdf

>  <GenAI_Model>  (1) 
Pocket2Mol

>  <Protein>  (1) 
GPCR_5HT2C

$$$$
Pocket2Mol_87_num_sample_100
     RDKit          3D

  0  0  0  0  0  0  0  0  0  0999 V3000
M  V30 BEGIN CTAB
M  V30 COUNTS 18 18 0 0 1
M  V30 BEGIN ATOM
M  V30 1 C 37.941671 27.139218 53.570542 0
M  V30 2 C 38.527926 27.675401 52.408999 0
M  V30 3 C 39.101054 28.975215 52.428472 0
M  V30 4 C 39.735477 29.555134 51.198294 0
M  V30 5 N 40.267416 30.821378 51.338744 0
M  V30 6 C 39.789440 28.894113 50.028582 0
M  V30 7 C 37.917810 27.885361 54.759052 0
M  V30 8 C 39.066639 29.719965 53.637718 0
M  V30 9 C 38.476101 29.173787 54.792912 0
M  V30 10 H 37.508911 26.149704 53.547208 0
M  V30 11 H 38.535735 27.087151 51.507994 0
M  V30 12 H 40.212886 31.331381 52.207829 0
M  V30 13 H 37.467403 27.468644 55.648147 0
M  V30 14 H 39.493021 30.710108 53.679748 0
M  V30 15 H 38.453285 29.746911 55.708192 0
M  V30 16 H 40.254496 29.342211 49.163605 0
M  V30 17 H 39.375407 27.909864 49.914526 0
M  V30 18 H 40.698683 31.307197 50.564279 0
M  V30 END ATOM
M  V30 BEGIN BOND
M  V30 1 1 2 1
M  V30 2 2 3 2
M  V30 3 1 4 3
M  V30 4 1 5 4
M  V30 5 2 6 4
M  V30 6 2 7 1
M  V30 7 1 8 3
M  V30 8 1 9 7
M  V30 9 2 9 8
M  V30 10 1 10 1
M  V30 11 1 11 2
M  V30 12 1 12 5
M  V30 13 1 13 7
M  V30 14 1 14 8
M  V30 15 1 15 9
M  V30 16 1 16 6
M  V30 17 1 17 6
M  V30 18 1 18 5
M  V30 END BOND
M  V30 END CTAB
M  END
>  <i_epik_Tot_Q>  (1) 
0

>  <i_epik_Tot_abs_Q>  (1) 
0

>  <i_i_glide_confnum>  (1) 
1

>  <i_i_glide_lignum>  (1) 
92

>  <i_i_glide_posenum>  (1) 
290

>  <i_i_glide_rotatable_bonds>  (1) 
1

>  <i_lp_mmshare_version>  (1) 
72125

>  <i_m_source_file_index>  (1) 
88

>  <i_f3d_flags>  (1) 
0

>  <num_sample>  (1) 
100

>  <b_lp_Chiralities_Consistent>  (1) 
1

>  <r_epik_Charging_Adjusted_Penalty>  (1) 
0.00088152279553634463

>  <r_epik_Ionization_Penalty>  (1) 
0.001176351566598113

>  <r_epik_Ionization_Penalty_Charging>  (1) 
0.00088152279553634463

>  <r_epik_Ionization_Penalty_Neutral>  (1) 
0.00029482877106176849

>  <r_epik_State_Penalty>  (1) 
-0

>  <r_glide_ring_energy>  (1) 
0

>  <r_i_docking_score>  (1) 
-5.8772555008524563

>  <r_i_glide_ecoul>  (1) 
-1.7442271546597015

>  <r_i_glide_eff_state_penalty>  (1) 
-0

>  <r_i_glide_einternal>  (1) 
0.0030425375842251245

>  <r_i_glide_emodel>  (1) 
-27.538754470510781

>  <r_i_glide_emodel_strain>  (1) 
0

>  <r_i_glide_energy>  (1) 
-20.081876095900217

>  <r_i_glide_erotb>  (1) 
0

>  <r_i_glide_esite>  (1) 
0

>  <r_i_glide_evdw>  (1) 
-18.337648941240516

>  <r_i_glide_gscore>  (1) 
-5.8772555008524563

>  <r_i_glide_gscore_strain>  (1) 
0

>  <r_i_glide_hbond>  (1) 
0

>  <r_i_glide_ligand_efficiency>  (1) 
-0.65302838898360627

>  <r_i_glide_ligand_efficiency_ln>  (1) 
-1.838236682688432

>  <r_i_glide_ligand_efficiency_sa>  (1) 
-1.358353787918446

>  <r_i_glide_lipo>  (1) 
-2.2809900905308624

>  <r_i_glide_metal>  (1) 
-0

>  <r_i_glide_rewards>  (1) 
-2.4177488900606132

>  <r_lp_Energy>  (1) 
13.175675

>  <r_lp_tautomer_probability>  (1) 
1

>  <s_epik_Chemistry_Notes>  (1) 
This compound has an imine and may undergo hydrolysis.

>  <s_epik_cmdline>  (1) 
J2VwaWtfcHl0aG9uJywgJy1waHQnLCAnMS4wJywgJy1waCcsICc3LjQnLCAnLXRuJywgJzgnLCAnLW1hJywgJzUwMCcsICctaW1hZScsICc8aW5maWxlLm1hZT4nLCAnLW9tYWUnLCAnPG91dGZpbGUubWFlPic=

>  <s_epik_input>  (1) 
W2NIXTFbY0hdW2NIXVtjSF1bY0hdYzEvQyg9Ti9bSF0pW0NIM10=

>  <s_glide_docking_method>  (1) 
confgen

>  <s_i_glide_gridfile>  (1) 
gpcr_5ht2c_6bqh_protein_autoprepared_prepared

>  <s_lp_Force_Field>  (1) 
S-OPLS

>  <s_lp_Variant>  (1) 
Pocket2Mol_87_num_sample_100-1

>  <s_m_source_file>  (1) 
generated__ligand_Pocket2Mol_2026-05-06_prepared.sdf

>  <GenAI_Model>  (1) 
Pocket2Mol

>  <Protein>  (1) 
GPCR_5HT2C

$$$$
Pocket2Mol_57_num_sample_100
     RDKit          3D

  0  0  0  0  0  0  0  0  0  0999 V3000
M  V30 BEGIN CTAB
M  V30 COUNTS 16 16 0 0 1
M  V30 BEGIN ATOM
M  V30 1 C 39.867409 30.251969 52.458055 0
M  V30 2 C 40.094817 29.698322 51.181426 0
M  V30 3 C 39.038055 29.581269 53.379025 0
M  V30 4 C 38.436202 28.357475 53.023550 0
M  V30 5 O 37.627919 27.710843 53.911575 0
M  V30 6 C 40.981043 30.421471 50.189343 0
M  V30 7 C 38.667389 27.803077 51.750036 0
M  V30 8 C 39.494499 28.472439 50.829928 0
M  V30 9 H 40.325725 31.191992 52.729657 0
M  V30 10 H 38.860868 30.007122 54.355880 0
M  V30 11 H 37.249656 26.920738 53.556324 0
M  V30 12 H 41.061949 29.871210 49.251923 0
M  V30 13 H 40.566953 31.403874 49.964677 0
M  V30 14 H 41.983591 30.553071 50.596862 0
M  V30 15 H 38.207731 26.865558 51.475762 0
M  V30 16 H 39.665646 28.047437 49.853502 0
M  V30 END ATOM
M  V30 BEGIN BOND
M  V30 1 1 2 1
M  V30 2 2 3 1
M  V30 3 1 4 3
M  V30 4 1 5 4
M  V30 5 1 6 2
M  V30 6 2 7 4
M  V30 7 2 8 2
M  V30 8 1 8 7
M  V30 9 1 9 1
M  V30 10 1 10 3
M  V30 11 1 11 5
M  V30 12 1 12 6
M  V30 13 1 13 6
M  V30 14 1 14 6
M  V30 15 1 15 7
M  V30 16 1 16 8
M  V30 END BOND
M  V30 END CTAB
M  END
>  <i_epik_Tot_Q>  (1) 
0

>  <i_epik_Tot_abs_Q>  (1) 
0

>  <i_i_glide_confnum>  (1) 
1

>  <i_i_glide_lignum>  (1) 
61

>  <i_i_glide_posenum>  (1) 
143

>  <i_i_glide_rotatable_bonds>  (1) 
1

>  <i_lp_mmshare_version>  (1) 
72125

>  <i_m_source_file_index>  (1) 
58

>  <i_f3d_flags>  (1) 
0

>  <num_sample>  (1) 
100

>  <b_lp_Chiralities_Consistent>  (1) 
1

>  <r_epik_Charging_Adjusted_Penalty>  (1) 
0

>  <r_epik_Ionization_Penalty>  (1) 
0.0011734046256504545

>  <r_epik_Ionization_Penalty_Charging>  (1) 
0

>  <r_epik_Ionization_Penalty_Neutral>  (1) 
0.0011734046256504545

>  <r_epik_State_Penalty>  (1) 
-0

>  <r_glide_ring_energy>  (1) 
0

>  <r_i_docking_score>  (1) 
-5.8759670768580197

>  <r_i_glide_ecoul>  (1) 
-1.5753358353077156

>  <r_i_glide_eff_state_penalty>  (1) 
-0

>  <r_i_glide_einternal>  (1) 
0.021660360811709564

>  <r_i_glide_emodel>  (1) 
-28.765012476845786

>  <r_i_glide_emodel_strain>  (1) 
0

>  <r_i_glide_energy>  (1) 
-20.822491761037096

>  <r_i_glide_erotb>  (1) 
0

>  <r_i_glide_esite>  (1) 
0

>  <r_i_glide_evdw>  (1) 
-19.24715592572938

>  <r_i_glide_gscore>  (1) 
-5.8759670768580197

>  <r_i_glide_gscore_strain>  (1) 
0

>  <r_i_glide_hbond>  (1) 
0

>  <r_i_glide_ligand_efficiency>  (1) 
-0.73449588460725246

>  <r_i_glide_ligand_efficiency_ln>  (1) 
-1.9081274956278855

>  <r_i_glide_ligand_efficiency_sa>  (1) 
-1.4689917692145051

>  <r_i_glide_lipo>  (1) 
-2.1803745056581931

>  <r_i_glide_metal>  (1) 
-0

>  <r_i_glide_rewards>  (1) 
-2.4969343996172002

>  <r_lp_Energy>  (1) 
4.2645419999999996

>  <r_lp_tautomer_probability>  (1) 
1

>  <s_epik_cmdline>  (1) 
J2VwaWtfcHl0aG9uJywgJy1waHQnLCAnMS4wJywgJy1waCcsICc3LjQnLCAnLXRuJywgJzgnLCAnLW1hJywgJzUwMCcsICctaW1hZScsICc8aW5maWxlLm1hZT4nLCAnLW9tYWUnLCAnPG91dGZpbGUubWFlPic=

>  <s_epik_input>  (1) 
W0NIM11jMVtjSF1bY0hdYyhbT0hdKVtjSF1bY0hdMQ==

>  <s_glide_docking_method>  (1) 
confgen

>  <s_i_glide_gridfile>  (1) 
gpcr_5ht2c_6bqh_protein_autoprepared_prepared

>  <s_lp_Force_Field>  (1) 
S-OPLS

>  <s_lp_Variant>  (1) 
Pocket2Mol_57_num_sample_100-1

>  <s_m_source_file>  (1) 
generated__ligand_Pocket2Mol_2026-05-06_prepared.sdf

>  <GenAI_Model>  (1) 
Pocket2Mol

>  <Protein>  (1) 
GPCR_5HT2C

$$$$
Pocket2Mol_95_num_sample_100
     RDKit          3D

  0  0  0  0  0  0  0  0  0  0999 V3000
M  V30 BEGIN CTAB
M  V30 COUNTS 14 15 0 0 1
M  V30 BEGIN ATOM
M  V30 1 C 38.264839 28.205832 53.726289 0
M  V30 2 C 37.700874 26.862709 53.860974 0
M  V30 3 C 38.104264 26.354923 55.031104 0
M  V30 4 C 38.917326 27.312897 55.674642 0
M  V30 5 C 39.005297 28.489474 54.823194 0
M  V30 6 C 37.798404 25.057610 55.601345 0
M  V30 7 O 37.086104 24.216861 55.053506 0
M  V30 8 N 39.458642 27.133245 56.805220 0
M  V30 9 C 39.161745 25.829430 57.392513 0
M  V30 10 N 38.421330 24.885400 56.865553 0
M  V30 11 H 38.113279 28.866532 52.885653 0
M  V30 12 H 37.066890 26.367464 53.139775 0
M  V30 13 H 39.566040 29.376653 55.078158 0
M  V30 14 H 39.601460 25.621224 58.371290 0
M  V30 END ATOM
M  V30 BEGIN BOND
M  V30 1 1 2 1
M  V30 2 2 3 2
M  V30 3 1 4 3
M  V30 4 2 5 1
M  V30 5 1 5 4
M  V30 6 1 6 3
M  V30 7 2 7 6
M  V30 8 2 8 4
M  V30 9 1 9 8
M  V30 10 1 10 6
M  V30 11 2 10 9
M  V30 12 1 11 1
M  V30 13 1 12 2
M  V30 14 1 13 5
M  V30 15 1 14 9
M  V30 END BOND
M  V30 END CTAB
M  END
>  <i_epik_Tot_Q>  (1) 
0

>  <i_epik_Tot_abs_Q>  (1) 
0

>  <i_i_glide_confnum>  (1) 
1

>  <i_i_glide_lignum>  (1) 
100

>  <i_i_glide_posenum>  (1) 
373

>  <i_i_glide_rotatable_bonds>  (1) 
0

>  <i_lp_mmshare_version>  (1) 
72125

>  <i_m_source_file_index>  (1) 
96

>  <i_f3d_flags>  (1) 
0

>  <num_sample>  (1) 
100

>  <b_lp_Chiralities_Consistent>  (1) 
1

>  <r_epik_Charging_Adjusted_Penalty>  (1) 
0

>  <r_epik_Ionization_Penalty>  (1) 
0.00072225958823983786

>  <r_epik_Ionization_Penalty_Charging>  (1) 
0

>  <r_epik_Ionization_Penalty_Neutral>  (1) 
0.00072225958823983786

>  <r_epik_State_Penalty>  (1) 
-0

>  <r_glide_ring_energy>  (1) 
0

>  <r_i_docking_score>  (1) 
-5.8738245183778224

>  <r_i_glide_ecoul>  (1) 
-0.29440644954780071

>  <r_i_glide_eff_state_penalty>  (1) 
-0

>  <r_i_glide_einternal>  (1) 
0

>  <r_i_glide_emodel>  (1) 
-31.81386826298808

>  <r_i_glide_emodel_strain>  (1) 
0

>  <r_i_glide_energy>  (1) 
-23.136028531438885

>  <r_i_glide_erotb>  (1) 
0

>  <r_i_glide_esite>  (1) 
0

>  <r_i_glide_evdw>  (1) 
-22.841622081891085

>  <r_i_glide_gscore>  (1) 
-5.8738245183778224

>  <r_i_glide_gscore_strain>  (1) 
0

>  <r_i_glide_hbond>  (1) 
0

>  <r_i_glide_ligand_efficiency>  (1) 
-0.58738245183778226

>  <r_i_glide_ligand_efficiency_ln>  (1) 
-1.7785535733320808

>  <r_i_glide_ligand_efficiency_sa>  (1) 
-1.2654771305553003

>  <r_i_glide_lipo>  (1) 
-1.0744531678660936

>  <r_i_glide_metal>  (1) 
-0

>  <r_i_glide_rewards>  (1) 
-3.6131292789850051

>  <r_lp_Energy>  (1) 
19.123919000000001

>  <r_lp_tautomer_probability>  (1) 
1

>  <s_epik_Chemistry_Notes>  (1) 
This compound has an imine and may undergo hydrolysis.

>  <s_epik_cmdline>  (1) 
J2VwaWtfcHl0aG9uJywgJy1waHQnLCAnMS4wJywgJy1waCcsICc3LjQnLCAnLXRuJywgJzgnLCAnLW1hJywgJzUwMCcsICctaW1hZScsICc8aW5maWxlLm1hZT4nLCAnLW9tYWUnLCAnPG91dGZpbGUubWFlPic=

>  <s_epik_input>  (1) 
W0NIXT0xW0NIXT1bQ0hdQyhDMTIpPU5bQ0hdPU5DMj1P

>  <s_glide_docking_method>  (1) 
confgen

>  <s_i_glide_gridfile>  (1) 
gpcr_5ht2c_6bqh_protein_autoprepared_prepared

>  <s_lp_Force_Field>  (1) 
S-OPLS

>  <s_lp_Variant>  (1) 
Pocket2Mol_95_num_sample_100-1

>  <s_m_source_file>  (1) 
generated__ligand_Pocket2Mol_2026-05-06_prepared.sdf

>  <GenAI_Model>  (1) 
Pocket2Mol

>  <Protein>  (1) 
GPCR_5HT2C

$$$$
Pocket2Mol_65_num_sample_100
     RDKit          3D

  0  0  0  0  0  0  0  0  0  0999 V3000
M  V30 BEGIN CTAB
M  V30 COUNTS 20 20 0 0 1
M  V30 BEGIN ATOM
M  V30 1 C 40.101888 30.086191 51.327832 0
M  V30 2 C 39.810661 30.315783 52.811930 0
M  V30 3 C 39.708086 28.633159 51.086968 0
M  V30 4 C 39.006516 28.185257 52.375081 0
M  V30 5 N 38.678793 29.431346 53.053551 0
M  V30 6 N 38.332703 29.283218 54.433608 0 CHG=1
M  V30 7 C 37.435315 30.118737 54.985686 0
M  V30 8 N 37.067404 30.021429 56.272377 0
M  V30 9 H 39.476170 30.741209 50.719314 0
M  V30 10 H 41.139442 30.290455 51.060666 0
M  V30 11 H 39.571537 31.356899 53.032148 0
M  V30 12 H 40.662130 30.021444 53.424795 0
M  V30 13 H 39.047213 28.552394 50.223356 0
M  V30 14 H 40.585680 28.021421 50.887842 0
M  V30 15 H 39.689336 27.590377 52.982846 0
M  V30 16 H 38.115507 27.587567 52.176661 0
M  V30 17 H 36.993033 30.896925 54.372462 0
M  V30 18 H 37.460943 29.311649 56.869770 0
M  V30 19 H 36.372120 30.695279 56.653503 0
M  V30 20 H 38.789885 28.534546 54.933932 0
M  V30 END ATOM
M  V30 BEGIN BOND
M  V30 1 1 2 1
M  V30 2 1 3 1
M  V30 3 1 4 3
M  V30 4 1 5 2
M  V30 5 1 5 4
M  V30 6 1 6 5
M  V30 7 2 7 6
M  V30 8 1 8 7
M  V30 9 1 9 1
M  V30 10 1 10 1
M  V30 11 1 11 2
M  V30 12 1 12 2
M  V30 13 1 13 3
M  V30 14 1 14 3
M  V30 15 1 15 4
M  V30 16 1 16 4
M  V30 17 1 17 7
M  V30 18 1 18 8
M  V30 19 1 19 8
M  V30 20 1 20 6
M  V30 END BOND
M  V30 END CTAB
M  END
>  <i_epik_Tot_Q>  (1) 
1

>  <i_epik_Tot_abs_Q>  (1) 
1

>  <i_i_glide_confnum>  (1) 
1

>  <i_i_glide_lignum>  (1) 
69

>  <i_i_glide_posenum>  (1) 
179

>  <i_i_glide_rotatable_bonds>  (1) 
1

>  <i_lp_mmshare_version>  (1) 
72125

>  <i_m_source_file_index>  (1) 
66

>  <i_f3d_flags>  (1) 
0

>  <num_sample>  (1) 
100

>  <b_lp_Chiralities_Consistent>  (1) 
1

>  <r_epik_Charging_Adjusted_Penalty>  (1) 
1.6312684749255997e-05

>  <r_epik_Ionization_Penalty>  (1) 
1.6401951855999153e-05

>  <r_epik_Ionization_Penalty_Charging>  (1) 
1.6312684749255997e-05

>  <r_epik_Ionization_Penalty_Neutral>  (1) 
8.9267106743156534e-08

>  <r_epik_State_Penalty>  (1) 
-0

>  <r_glide_ring_energy>  (1) 
0

>  <r_i_docking_score>  (1) 
-5.8687044320682613

>  <r_i_glide_ecoul>  (1) 
-6.9054791631036503

>  <r_i_glide_eff_state_penalty>  (1) 
-0

>  <r_i_glide_einternal>  (1) 
0.020961081581108432

>  <r_i_glide_emodel>  (1) 
-32.227527813889097

>  <r_i_glide_emodel_strain>  (1) 
1.7354407688685569e-07

>  <r_i_glide_energy>  (1) 
-19.601499113055699

>  <r_i_glide_erotb>  (1) 
0

>  <r_i_glide_esite>  (1) 
-0.12967240460963583

>  <r_i_glide_evdw>  (1) 
-12.696019949952049

>  <r_i_glide_gscore>  (1) 
-5.8687044320682613

>  <r_i_glide_gscore_strain>  (1) 
0

>  <r_i_glide_hbond>  (1) 
-0.20000000000000001

>  <r_i_glide_ligand_efficiency>  (1) 
-0.73358805400853266

>  <r_i_glide_ligand_efficiency_ln>  (1) 
-1.9057690664479645

>  <r_i_glide_ligand_efficiency_sa>  (1) 
-1.4671761080170656

>  <r_i_glide_lipo>  (1) 
-1.3199938972778209

>  <r_i_glide_metal>  (1) 
-0

>  <r_i_glide_rewards>  (1) 
-2.5484152582176538

>  <r_lp_Energy>  (1) 
12.792574

>  <r_lp_tautomer_probability>  (1) 
1

>  <s_epik_Chemistry_Notes>  (1) 
This compound has an imine and may undergo hydrolysis.

>  <s_epik_cmdline>  (1) 
J2VwaWtfcHl0aG9uJywgJy1waHQnLCAnMS4wJywgJy1waCcsICc3LjQnLCAnLXRuJywgJzgnLCAnLW1hJywgJzUwMCcsICctaW1hZScsICc8aW5maWxlLm1hZT4nLCAnLW9tYWUnLCAnPG91dGZpbGUubWFlPic=

>  <s_epik_input>  (1) 
W0NIMl0xW0NIMl1bQ0gyXVtDSDJdTjEvTj1bQ0hdL1tOSDJd

>  <s_glide_docking_method>  (1) 
confgen

>  <s_i_glide_gridfile>  (1) 
gpcr_5ht2c_6bqh_protein_autoprepared_prepared

>  <s_lp_Force_Field>  (1) 
S-OPLS

>  <s_lp_Variant>  (1) 
Pocket2Mol_65_num_sample_100-1

>  <s_m_source_file>  (1) 
generated__ligand_Pocket2Mol_2026-05-06_prepared.sdf

>  <GenAI_Model>  (1) 
Pocket2Mol

>  <Protein>  (1) 
GPCR_5HT2C

$$$$
Pocket2Mol_81_num_sample_100
     RDKit          3D

  0  0  0  0  0  0  0  0  0  0999 V3000
M  V30 BEGIN CTAB
M  V30 COUNTS 15 16 0 0 1
M  V30 BEGIN ATOM
M  V30 1 C 39.469659 30.423529 53.554819 0
M  V30 2 C 39.689035 29.917477 52.246502 0
M  V30 3 C 39.085499 28.684373 51.918895 0
M  V30 4 C 40.391963 30.329676 51.083020 0
M  V30 5 C 38.296119 27.964307 52.824041 0
M  V30 6 N 40.267403 29.467941 50.101530 0
M  V30 7 N 39.476919 28.464155 50.605329 0
M  V30 8 C 38.672868 29.706252 54.480871 0
M  V30 9 C 38.086960 28.476611 54.113537 0
M  V30 10 H 39.912013 31.364795 53.845185 0
M  V30 11 H 40.981757 31.221347 50.933769 0
M  V30 12 H 37.851129 27.024769 52.532097 0
M  V30 13 H 39.229603 27.670257 50.031974 0
M  V30 14 H 38.511658 30.103868 55.473056 0
M  V30 15 H 37.478980 27.932522 54.822119 0
M  V30 END ATOM
M  V30 BEGIN BOND
M  V30 1 1 2 1
M  V30 2 2 3 2
M  V30 3 1 4 2
M  V30 4 1 5 3
M  V30 5 2 6 4
M  V30 6 1 7 3
M  V30 7 1 7 6
M  V30 8 2 8 1
M  V30 9 2 9 5
M  V30 10 1 9 8
M  V30 11 1 10 1
M  V30 12 1 11 4
M  V30 13 1 12 5
M  V30 14 1 13 7
M  V30 15 1 14 8
M  V30 16 1 15 9
M  V30 END BOND
M  V30 END CTAB
M  END
>  <i_epik_Tot_Q>  (1) 
0

>  <i_epik_Tot_abs_Q>  (1) 
0

>  <i_i_glide_confnum>  (1) 
1

>  <i_i_glide_lignum>  (1) 
86

>  <i_i_glide_posenum>  (1) 
335

>  <i_i_glide_rotatable_bonds>  (1) 
0

>  <i_lp_mmshare_version>  (1) 
72125

>  <i_m_source_file_index>  (1) 
82

>  <i_f3d_flags>  (1) 
0

>  <num_sample>  (1) 
100

>  <b_lp_Chiralities_Consistent>  (1) 
1

>  <r_epik_Charging_Adjusted_Penalty>  (1) 
0

>  <r_epik_Ionization_Penalty>  (1) 
2.5998422111611493e-06

>  <r_epik_Ionization_Penalty_Charging>  (1) 
0

>  <r_epik_Ionization_Penalty_Neutral>  (1) 
2.5998422111611493e-06

>  <r_epik_State_Penalty>  (1) 
-0

>  <r_glide_ring_energy>  (1) 
0

>  <r_i_docking_score>  (1) 
-5.8511513441584677

>  <r_i_glide_ecoul>  (1) 
-1.6218943989045631

>  <r_i_glide_eff_state_penalty>  (1) 
-0

>  <r_i_glide_einternal>  (1) 
0

>  <r_i_glide_emodel>  (1) 
-30.368419900818591

>  <r_i_glide_emodel_strain>  (1) 
0

>  <r_i_glide_energy>  (1) 
-22.155478911392368

>  <r_i_glide_erotb>  (1) 
0

>  <r_i_glide_esite>  (1) 
0

>  <r_i_glide_evdw>  (1) 
-20.533584512487806

>  <r_i_glide_gscore>  (1) 
-5.8511513441584677

>  <r_i_glide_gscore_strain>  (1) 
0

>  <r_i_glide_hbond>  (1) 
0

>  <r_i_glide_ligand_efficiency>  (1) 
-0.65012792712871859

>  <r_i_glide_ligand_efficiency_ln>  (1) 
-1.8300720523778089

>  <r_i_glide_ligand_efficiency_sa>  (1) 
-1.352320584134715

>  <r_i_glide_lipo>  (1) 
-2.0553218719758064

>  <r_i_glide_metal>  (1) 
-0

>  <r_i_glide_rewards>  (1) 
-2.5258660867225866

>  <r_lp_Energy>  (1) 
10.425352

>  <r_lp_tautomer_probability>  (1) 
1

>  <s_epik_cmdline>  (1) 
J2VwaWtfcHl0aG9uJywgJy1waHQnLCAnMS4wJywgJy1waCcsICc3LjQnLCAnLXRuJywgJzgnLCAnLW1hJywgJzUwMCcsICctaW1hZScsICc8aW5maWxlLm1hZT4nLCAnLW9tYWUnLCAnPG91dGZpbGUubWFlPic=

>  <s_epik_input>  (1) 
W2NIXTFbY0hdW2NIXVtjSF1jKGMxMiluW25IXVtjSF0y

>  <s_glide_docking_method>  (1) 
confgen

>  <s_i_glide_gridfile>  (1) 
gpcr_5ht2c_6bqh_protein_autoprepared_prepared

>  <s_lp_Force_Field>  (1) 
S-OPLS

>  <s_lp_Variant>  (1) 
Pocket2Mol_81_num_sample_100-1

>  <s_m_source_file>  (1) 
generated__ligand_Pocket2Mol_2026-05-06_prepared.sdf

>  <GenAI_Model>  (1) 
Pocket2Mol

>  <Protein>  (1) 
GPCR_5HT2C

$$$$
Pocket2Mol_0_num_sample_100
     RDKit          3D

  0  0  0  0  0  0  0  0  0  0999 V3000
M  V30 BEGIN CTAB
M  V30 COUNTS 19 19 0 0 1
M  V30 BEGIN ATOM
M  V30 1 C 37.975555 26.660819 53.652622 0
M  V30 2 C 37.954875 25.910658 54.926150 0
M  V30 3 C 38.787757 26.278651 56.013359 0
M  V30 4 C 37.096471 24.798699 55.060841 0
M  V30 5 C 37.067398 24.063829 56.258406 0
M  V30 6 C 37.892619 24.433555 57.334483 0
M  V30 7 C 38.752674 25.539820 57.212795 0
M  V30 8 C 38.774620 27.713763 53.399986 0
M  V30 9 C 38.747869 28.399372 52.102569 0
M  V30 10 N 39.502999 29.371222 51.829970 0
M  V30 11 H 37.297968 26.321397 52.886299 0
M  V30 12 H 39.452205 27.122936 55.931032 0
M  V30 13 H 36.460086 24.506505 54.237996 0
M  V30 14 H 36.409161 23.212433 56.350814 0
M  V30 15 H 37.867405 23.866256 58.253408 0
M  V30 16 H 39.388191 25.822788 58.039325 0
M  V30 17 H 39.467403 28.098841 54.127097 0
M  V30 18 H 38.027718 28.007355 51.378429 0
M  V30 19 H 39.369910 29.727842 50.893524 0
M  V30 END ATOM
M  V30 BEGIN BOND
M  V30 1 1 2 1
M  V30 2 1 3 2
M  V30 3 2 4 2
M  V30 4 1 5 4
M  V30 5 2 6 5
M  V30 6 2 7 3
M  V30 7 1 7 6
M  V30 8 2 8 1
M  V30 9 1 9 8
M  V30 10 2 10 9
M  V30 11 1 11 1
M  V30 12 1 12 3
M  V30 13 1 13 4
M  V30 14 1 14 5
M  V30 15 1 15 6
M  V30 16 1 16 7
M  V30 17 1 17 8
M  V30 18 1 18 9
M  V30 19 1 19 10
M  V30 END BOND
M  V30 END CTAB
M  END
>  <i_epik_Tot_Q>  (1) 
0

>  <i_epik_Tot_abs_Q>  (1) 
0

>  <i_i_glide_confnum>  (1) 
1

>  <i_i_glide_lignum>  (1) 
1

>  <i_i_glide_posenum>  (1) 
274

>  <i_i_glide_rotatable_bonds>  (1) 
2

>  <i_lp_mmshare_version>  (1) 
72125

>  <i_m_source_file_index>  (1) 
1

>  <i_f3d_flags>  (1) 
0

>  <num_sample>  (1) 
100

>  <b_lp_Chiralities_Consistent>  (1) 
1

>  <r_epik_Charging_Adjusted_Penalty>  (1) 
0

>  <r_epik_Ionization_Penalty>  (1) 
0

>  <r_epik_Ionization_Penalty_Charging>  (1) 
0

>  <r_epik_Ionization_Penalty_Neutral>  (1) 
0

>  <r_epik_State_Penalty>  (1) 
-0

>  <r_glide_ring_energy>  (1) 
0

>  <r_i_docking_score>  (1) 
-5.8503929398327461

>  <r_i_glide_ecoul>  (1) 
-1.0643428299405402

>  <r_i_glide_eff_state_penalty>  (1) 
-0

>  <r_i_glide_einternal>  (1) 
0.72606448992372052

>  <r_i_glide_emodel>  (1) 
-29.897492491584135

>  <r_i_glide_emodel_strain>  (1) 
0

>  <r_i_glide_energy>  (1) 
-22.116620896632529

>  <r_i_glide_erotb>  (1) 
0.80789427267668723

>  <r_i_glide_esite>  (1) 
0

>  <r_i_glide_evdw>  (1) 
-21.05227806669199

>  <r_i_glide_gscore>  (1) 
-5.8503929398327461

>  <r_i_glide_gscore_strain>  (1) 
0

>  <r_i_glide_hbond>  (1) 
0

>  <r_i_glide_ligand_efficiency>  (1) 
-0.58503929398327459

>  <r_i_glide_ligand_efficiency_ln>  (1) 
-1.7714586528727161

>  <r_i_glide_ligand_efficiency_sa>  (1) 
-1.2604289499893284

>  <r_i_glide_lipo>  (1) 
-2.4850872340870662

>  <r_i_glide_metal>  (1) 
-0

>  <r_i_glide_rewards>  (1) 
-2.9609346505966863

>  <r_lp_Energy>  (1) 
9.4498509999999989

>  <r_lp_tautomer_probability>  (1) 
1

>  <s_epik_Chemistry_Notes>  (1) 
This compound has an imine and may undergo hydrolysis.

>  <s_epik_cmdline>  (1) 
J2VwaWtfcHl0aG9uJywgJy1waHQnLCAnMS4wJywgJy1waCcsICc3LjQnLCAnLXRuJywgJzgnLCAnLW1hJywgJzUwMCcsICctaW1hZScsICc8aW5maWxlLm1hZT4nLCAnLW9tYWUnLCAnPG91dGZpbGUubWFlPic=

>  <s_epik_input>  (1) 
W0hdXE49W0NIXVxbQ0hdPVtDSF1cYzFbY0hdW2NIXVtjSF1bY0hdW2NIXTE=

>  <s_glide_docking_method>  (1) 
confgen

>  <s_i_glide_gridfile>  (1) 
gpcr_5ht2c_6bqh_protein_autoprepared_prepared

>  <s_lp_Force_Field>  (1) 
S-OPLS

>  <s_lp_Variant>  (1) 
Pocket2Mol_0_num_sample_100-1

>  <s_m_source_file>  (1) 
generated__ligand_Pocket2Mol_2026-05-06_prepared.sdf

>  <GenAI_Model>  (1) 
Pocket2Mol

>  <Protein>  (1) 
GPCR_5HT2C

$$$$
Pocket2Mol_56_num_sample_100
     RDKit          3D

  0  0  0  0  0  0  0  0  0  0999 V3000
M  V30 BEGIN CTAB
M  V30 COUNTS 17 17 0 0 1
M  V30 BEGIN ATOM
M  V30 1 C 39.485388 28.471322 50.825563 0
M  V30 2 C 38.670553 27.839390 51.773793 0
M  V30 3 C 38.496548 28.450485 53.030394 0
M  V30 4 C 37.616064 27.808530 54.078711 0
M  V30 5 C 40.095005 29.688535 51.169205 0
M  V30 6 C 40.977112 30.418798 50.177744 0
M  V30 7 C 39.867403 30.221735 52.453478 0
M  V30 8 N 39.081481 29.621428 53.380755 0
M  V30 9 H 39.636908 28.032923 49.853501 0
M  V30 10 H 38.182058 26.904106 51.541976 0
M  V30 11 H 37.180203 26.876433 53.717866 0
M  V30 12 H 38.190197 27.594971 54.980397 0
M  V30 13 H 36.804106 28.486810 54.336696 0
M  V30 14 H 41.067401 29.863949 49.244128 0
M  V30 15 H 40.549626 31.393905 49.945308 0
M  V30 16 H 41.975545 30.567455 50.589431 0
M  V30 17 H 40.322176 31.157388 52.744886 0
M  V30 END ATOM
M  V30 BEGIN BOND
M  V30 1 2 2 1
M  V30 2 1 3 2
M  V30 3 1 4 3
M  V30 4 1 5 1
M  V30 5 1 6 5
M  V30 6 2 7 5
M  V30 7 2 8 3
M  V30 8 1 8 7
M  V30 9 1 9 1
M  V30 10 1 10 2
M  V30 11 1 11 4
M  V30 12 1 12 4
M  V30 13 1 13 4
M  V30 14 1 14 6
M  V30 15 1 15 6
M  V30 16 1 16 6
M  V30 17 1 17 7
M  V30 END BOND
M  V30 END CTAB
M  END
>  <i_epik_Tot_Q>  (1) 
0

>  <i_epik_Tot_abs_Q>  (1) 
0

>  <i_i_glide_confnum>  (1) 
1

>  <i_i_glide_lignum>  (1) 
60

>  <i_i_glide_posenum>  (1) 
37

>  <i_i_glide_rotatable_bonds>  (1) 
0

>  <i_lp_mmshare_version>  (1) 
72125

>  <i_m_source_file_index>  (1) 
57

>  <i_f3d_flags>  (1) 
0

>  <num_sample>  (1) 
100

>  <b_lp_Chiralities_Consistent>  (1) 
1

>  <r_epik_Charging_Adjusted_Penalty>  (1) 
0.022258434784609007

>  <r_epik_Ionization_Penalty>  (1) 
0.022258434785048374

>  <r_epik_Ionization_Penalty_Charging>  (1) 
0

>  <r_epik_Ionization_Penalty_Neutral>  (1) 
0.022258434785048374

>  <r_epik_State_Penalty>  (1) 
0.022258434784609007

>  <r_glide_ring_energy>  (1) 
0

>  <r_i_docking_score>  (1) 
-5.8502427911374548

>  <r_i_glide_ecoul>  (1) 
-0.88676609074744128

>  <r_i_glide_eff_state_penalty>  (1) 
0.022258434784609007

>  <r_i_glide_einternal>  (1) 
0

>  <r_i_glide_emodel>  (1) 
-27.228093701857375

>  <r_i_glide_emodel_strain>  (1) 
0

>  <r_i_glide_energy>  (1) 
-20.209549195290094

>  <r_i_glide_erotb>  (1) 
0

>  <r_i_glide_esite>  (1) 
0

>  <r_i_glide_evdw>  (1) 
-19.322783104542651

>  <r_i_glide_gscore>  (1) 
-5.8725012259220639

>  <r_i_glide_gscore_strain>  (1) 
0

>  <r_i_glide_hbond>  (1) 
0

>  <r_i_glide_ligand_efficiency>  (1) 
-0.73128034889218185

>  <r_i_glide_ligand_efficiency_ln>  (1) 
-1.8997739401625877

>  <r_i_glide_ligand_efficiency_sa>  (1) 
-1.4625606977843639

>  <r_i_glide_lipo>  (1) 
-2.2903036959495831

>  <r_i_glide_metal>  (1) 
-0

>  <r_i_glide_rewards>  (1) 
-2.4830434611332324

>  <r_lp_Energy>  (1) 
7.9607329999999994

>  <s_epik_cmdline>  (1) 
J2VwaWtfcHl0aG9uJywgJy1waHQnLCAnMS4wJywgJy1waCcsICc3LjQnLCAnLXRuJywgJzgnLCAnLW1hJywgJzUwMCcsICctaW1hZScsICc8aW5maWxlLm1hZT4nLCAnLW9tYWUnLCAnPG91dGZpbGUubWFlPic=

>  <s_epik_input>  (1) 
bjFbY0hdYyhbQ0gzXSlbY0hdW2NIXWMxW0NIM10=

>  <s_glide_docking_method>  (1) 
confgen

>  <s_i_glide_gridfile>  (1) 
gpcr_5ht2c_6bqh_protein_autoprepared_prepared

>  <s_lp_Force_Field>  (1) 
S-OPLS

>  <s_lp_Variant>  (1) 
Pocket2Mol_56_num_sample_100-1

>  <s_m_source_file>  (1) 
generated__ligand_Pocket2Mol_2026-05-06_prepared.sdf

>  <GenAI_Model>  (1) 
Pocket2Mol

>  <Protein>  (1) 
GPCR_5HT2C

$$$$
Pocket2Mol_70_num_sample_100
     RDKit          3D

  0  0  0  0  0  0  0  0  0  0999 V3000
M  V30 BEGIN CTAB
M  V30 COUNTS 17 18 0 0 1
M  V30 BEGIN ATOM
M  V30 1 C 39.882722 30.419836 52.227557 0
M  V30 2 C 39.138314 30.231813 53.453541 0
M  V30 3 C 38.581505 28.916328 53.891845 0 CFG=2
M  V30 4 C 38.667416 31.148815 54.286142 0
M  V30 5 C 38.443749 27.987398 52.692376 0
M  V30 6 N 37.785650 30.570844 55.178216 0
M  V30 7 N 37.468067 29.221519 54.806137 0
M  V30 8 C 39.867397 29.429941 51.313740 0
M  V30 9 C 39.061409 28.229686 51.516128 0
M  V30 10 H 40.459298 31.318060 52.062124 0
M  V30 11 H 39.355604 28.459352 54.510273 0
M  V30 12 H 38.760680 32.224618 54.254464 0
M  V30 13 H 37.854534 27.092042 52.825231 0
M  V30 14 H 37.086048 31.131109 55.645345 0
M  V30 15 H 36.594600 29.246202 54.283284 0
M  V30 16 H 40.433566 29.541028 50.400589 0
M  V30 17 H 38.942304 27.529747 50.702163 0
M  V30 END ATOM
M  V30 BEGIN BOND
M  V30 1 1 2 1
M  V30 2 1 3 2
M  V30 3 2 4 2
M  V30 4 1 5 3
M  V30 5 1 6 4
M  V30 6 1 7 3
M  V30 7 1 7 6
M  V30 8 2 8 1
M  V30 9 2 9 5
M  V30 10 1 9 8
M  V30 11 1 10 1
M  V30 12 1 3 11 CFG=1
M  V30 13 1 12 4
M  V30 14 1 13 5
M  V30 15 1 14 6
M  V30 16 1 15 7
M  V30 17 1 16 8
M  V30 18 1 17 9
M  V30 END BOND
M  V30 END CTAB
M  END
>  <i_epik_Tot_Q>  (1) 
0

>  <i_epik_Tot_abs_Q>  (1) 
0

>  <i_i_glide_confnum>  (1) 
1

>  <i_i_glide_lignum>  (1) 
75

>  <i_i_glide_posenum>  (1) 
209

>  <i_i_glide_rotatable_bonds>  (1) 
0

>  <i_lp_mmshare_version>  (1) 
72125

>  <i_m_source_file_index>  (1) 
71

>  <i_f3d_flags>  (1) 
0

>  <num_sample>  (1) 
100

>  <b_lp_Chiralities_Consistent>  (1) 
1

>  <r_epik_Charging_Adjusted_Penalty>  (1) 
0

>  <r_epik_Ionization_Penalty>  (1) 
4.3565390981668577e-05

>  <r_epik_Ionization_Penalty_Charging>  (1) 
0

>  <r_epik_Ionization_Penalty_Neutral>  (1) 
4.3565390981668577e-05

>  <r_epik_State_Penalty>  (1) 
-0

>  <r_glide_ring_energy>  (1) 
0

>  <r_i_docking_score>  (1) 
-5.8486143280026344

>  <r_i_glide_ecoul>  (1) 
-1.9885472766759862

>  <r_i_glide_eff_state_penalty>  (1) 
-0

>  <r_i_glide_einternal>  (1) 
0

>  <r_i_glide_emodel>  (1) 
-30.199711414737255

>  <r_i_glide_emodel_strain>  (1) 
0

>  <r_i_glide_energy>  (1) 
-21.755164630589938

>  <r_i_glide_erotb>  (1) 
0

>  <r_i_glide_esite>  (1) 
-0.043548122009423387

>  <r_i_glide_evdw>  (1) 
-19.766617353913951

>  <r_i_glide_gscore>  (1) 
-5.8486143280026344

>  <r_i_glide_gscore_strain>  (1) 
0

>  <r_i_glide_hbond>  (1) 
-0.077766237143298736

>  <r_i_glide_ligand_efficiency>  (1) 
-0.64984603644473715

>  <r_i_glide_ligand_efficiency_ln>  (1) 
-1.8292785466060162

>  <r_i_glide_ligand_efficiency_sa>  (1) 
-1.3517342278830962

>  <r_i_glide_lipo>  (1) 
-1.9390775346045201

>  <r_i_glide_metal>  (1) 
-0

>  <r_i_glide_rewards>  (1) 
-2.5016094750482969

>  <r_lp_Energy>  (1) 
4.0619379999999996

>  <r_lp_tautomer_probability>  (1) 
1

>  <s_epik_cmdline>  (1) 
J2VwaWtfcHl0aG9uJywgJy1waHQnLCAnMS4wJywgJy1waCcsICc3LjQnLCAnLXRuJywgJzgnLCAnLW1hJywgJzUwMCcsICctaW1hZScsICc8aW5maWxlLm1hZT4nLCAnLW9tYWUnLCAnPG91dGZpbGUubWFlPic=

>  <s_epik_input>  (1) 
W0NIXTE9W0NIXVtDSF09W0NIXVtDQEBIXShDMT0yKVtOSF1bTkhdW0NIXTI=

>  <s_glide_docking_method>  (1) 
confgen

>  <s_i_glide_gridfile>  (1) 
gpcr_5ht2c_6bqh_protein_autoprepared_prepared

>  <s_lp_Force_Field>  (1) 
S-OPLS

>  <s_lp_Variant>  (1) 
Pocket2Mol_70_num_sample_100-1

>  <s_m_source_file>  (1) 
generated__ligand_Pocket2Mol_2026-05-06_prepared.sdf

>  <GenAI_Model>  (1) 
Pocket2Mol

>  <Protein>  (1) 
GPCR_5HT2C

$$$$
Pocket2Mol_27_num_sample_100
     RDKit          3D

  0  0  0  0  0  0  0  0  0  0999 V3000
M  V30 BEGIN CTAB
M  V30 COUNTS 15 15 0 0 1
M  V30 BEGIN ATOM
M  V30 1 C 39.067395 29.500413 53.308096 0
M  V30 2 C 39.867403 30.421432 52.605253 0
M  V30 3 C 40.267400 30.144130 51.282948 0
M  V30 4 C 38.666247 28.299088 52.689731 0
M  V30 5 C 39.867404 28.944945 50.663499 0
M  V30 6 C 37.805423 27.309501 53.449255 0
M  V30 7 C 39.067311 28.020945 51.365352 0
M  V30 8 H 38.761357 29.715236 54.322186 0
M  V30 9 H 40.174318 31.340930 53.079571 0
M  V30 10 H 40.880657 30.852222 50.744311 0
M  V30 11 H 40.173080 28.734311 49.650176 0
M  V30 12 H 37.574205 26.430596 52.848191 0
M  V30 13 H 38.319320 26.977020 54.351813 0
M  V30 14 H 36.864722 27.775421 53.744180 0
M  V30 15 H 38.761114 27.100517 50.887518 0
M  V30 END ATOM
M  V30 BEGIN BOND
M  V30 1 1 2 1
M  V30 2 2 3 2
M  V30 3 2 4 1
M  V30 4 1 5 3
M  V30 5 1 6 4
M  V30 6 1 7 4
M  V30 7 2 7 5
M  V30 8 1 8 1
M  V30 9 1 9 2
M  V30 10 1 10 3
M  V30 11 1 11 5
M  V30 12 1 12 6
M  V30 13 1 13 6
M  V30 14 1 14 6
M  V30 15 1 15 7
M  V30 END BOND
M  V30 END CTAB
M  END
>  <i_epik_Tot_Q>  (1) 
0

>  <i_epik_Tot_abs_Q>  (1) 
0

>  <i_i_glide_confnum>  (1) 
1

>  <i_i_glide_lignum>  (1) 
30

>  <i_i_glide_posenum>  (1) 
241

>  <i_i_glide_rotatable_bonds>  (1) 
0

>  <i_lp_mmshare_version>  (1) 
72125

>  <i_m_source_file_index>  (1) 
28

>  <i_f3d_flags>  (1) 
0

>  <num_sample>  (1) 
100

>  <b_lp_Chiralities_Consistent>  (1) 
1

>  <r_epik_Charging_Adjusted_Penalty>  (1) 
0

>  <r_epik_Ionization_Penalty>  (1) 
0

>  <r_epik_Ionization_Penalty_Charging>  (1) 
0

>  <r_epik_Ionization_Penalty_Neutral>  (1) 
0

>  <r_epik_State_Penalty>  (1) 
-0

>  <r_glide_ring_energy>  (1) 
0

>  <r_i_docking_score>  (1) 
-5.8408264582248046

>  <r_i_glide_ecoul>  (1) 
-0.93158535669003828

>  <r_i_glide_eff_state_penalty>  (1) 
-0

>  <r_i_glide_einternal>  (1) 
0

>  <r_i_glide_emodel>  (1) 
-23.977982724481119

>  <r_i_glide_emodel_strain>  (1) 
0

>  <r_i_glide_energy>  (1) 
-17.525105952953975

>  <r_i_glide_erotb>  (1) 
0

>  <r_i_glide_esite>  (1) 
0

>  <r_i_glide_evdw>  (1) 
-16.593520596263936

>  <r_i_glide_gscore>  (1) 
-5.8408264582248046

>  <r_i_glide_gscore_strain>  (1) 
0

>  <r_i_glide_hbond>  (1) 
0

>  <r_i_glide_ligand_efficiency>  (1) 
-0.83440377974640068

>  <r_i_glide_ligand_efficiency_ln>  (1) 
-1.982689954103938

>  <r_i_glide_ligand_efficiency_sa>  (1) 
-1.5961570093000343

>  <r_i_glide_lipo>  (1) 
-2.1653516300536291

>  <r_i_glide_metal>  (1) 
-0

>  <r_i_glide_rewards>  (1) 
-2.7060609948544725

>  <r_lp_Energy>  (1) 
6.403492

>  <r_lp_tautomer_probability>  (1) 
1

>  <s_epik_cmdline>  (1) 
J2VwaWtfcHl0aG9uJywgJy1waHQnLCAnMS4wJywgJy1waCcsICc3LjQnLCAnLXRuJywgJzgnLCAnLW1hJywgJzUwMCcsICctaW1hZScsICc8aW5maWxlLm1hZT4nLCAnLW9tYWUnLCAnPG91dGZpbGUubWFlPic=

>  <s_epik_input>  (1) 
W0NIM11jMVtjSF1bY0hdW2NIXVtjSF1bY0hdMQ==

>  <s_glide_docking_method>  (1) 
confgen

>  <s_i_glide_gridfile>  (1) 
gpcr_5ht2c_6bqh_protein_autoprepared_prepared

>  <s_lp_Force_Field>  (1) 
S-OPLS

>  <s_lp_Variant>  (1) 
Pocket2Mol_27_num_sample_100-1

>  <s_m_source_file>  (1) 
generated__ligand_Pocket2Mol_2026-05-06_prepared.sdf

>  <GenAI_Model>  (1) 
Pocket2Mol

>  <Protein>  (1) 
GPCR_5HT2C

$$$$
Pocket2Mol_79_num_sample_100
     RDKit          3D

  0  0  0  0  0  0  0  0  0  0999 V3000
M  V30 BEGIN CTAB
M  V30 COUNTS 17 18 0 0 1
M  V30 BEGIN ATOM
M  V30 1 C 39.867403 30.021561 52.244961 0
M  V30 2 C 39.237652 29.950809 53.533492 0
M  V30 3 C 38.824320 28.573985 54.161019 0 CFG=2
M  V30 4 C 38.888744 31.011536 54.248439 0
M  V30 5 C 38.140341 30.606389 55.324313 0
M  V30 6 C 38.463212 27.633248 53.018934 0
M  V30 7 C 38.938539 27.807720 51.758157 0
M  V30 8 C 38.023215 29.289677 55.301190 0
M  V30 9 C 39.745436 28.983685 51.395674 0
M  V30 10 H 40.400011 30.912843 51.944061 0
M  V30 11 H 39.689238 28.128734 54.653501 0
M  V30 12 H 39.067428 32.037753 53.968069 0
M  V30 13 H 37.677310 31.263248 56.048408 0
M  V30 14 H 37.859791 26.770071 53.259374 0
M  V30 15 H 38.696993 27.078909 50.997430 0
M  V30 16 H 37.467411 28.721789 56.029635 0
M  V30 17 H 40.191159 29.042939 50.413594 0
M  V30 END ATOM
M  V30 BEGIN BOND
M  V30 1 1 2 1
M  V30 2 1 3 2
M  V30 3 2 4 2
M  V30 4 1 5 4
M  V30 5 1 6 3
M  V30 6 2 7 6
M  V30 7 1 8 3
M  V30 8 2 8 5
M  V30 9 2 9 1
M  V30 10 1 9 7
M  V30 11 1 10 1
M  V30 12 1 3 11 CFG=1
M  V30 13 1 12 4
M  V30 14 1 13 5
M  V30 15 1 14 6
M  V30 16 1 15 7
M  V30 17 1 16 8
M  V30 18 1 17 9
M  V30 END BOND
M  V30 END CTAB
M  END
>  <i_epik_Tot_Q>  (1) 
0

>  <i_epik_Tot_abs_Q>  (1) 
0

>  <i_i_glide_confnum>  (1) 
1

>  <i_i_glide_lignum>  (1) 
84

>  <i_i_glide_posenum>  (1) 
135

>  <i_i_glide_rotatable_bonds>  (1) 
0

>  <i_lp_mmshare_version>  (1) 
72125

>  <i_m_source_file_index>  (1) 
80

>  <i_f3d_flags>  (1) 
0

>  <num_sample>  (1) 
100

>  <b_lp_Chiralities_Consistent>  (1) 
1

>  <r_epik_Charging_Adjusted_Penalty>  (1) 
0

>  <r_epik_Ionization_Penalty>  (1) 
0

>  <r_epik_Ionization_Penalty_Charging>  (1) 
0

>  <r_epik_Ionization_Penalty_Neutral>  (1) 
0

>  <r_epik_State_Penalty>  (1) 
-0

>  <r_glide_ring_energy>  (1) 
0

>  <r_i_docking_score>  (1) 
-5.8387012491988086

>  <r_i_glide_ecoul>  (1) 
-1.1760709883863032

>  <r_i_glide_eff_state_penalty>  (1) 
-0

>  <r_i_glide_einternal>  (1) 
0

>  <r_i_glide_emodel>  (1) 
-27.703620928005595

>  <r_i_glide_emodel_strain>  (1) 
0

>  <r_i_glide_energy>  (1) 
-20.441213172377495

>  <r_i_glide_erotb>  (1) 
0

>  <r_i_glide_esite>  (1) 
0

>  <r_i_glide_evdw>  (1) 
-19.265142183991191

>  <r_i_glide_gscore>  (1) 
-5.8387012491988086

>  <r_i_glide_gscore_strain>  (1) 
0

>  <r_i_glide_hbond>  (1) 
0

>  <r_i_glide_ligand_efficiency>  (1) 
-0.64874458324431206

>  <r_i_glide_ligand_efficiency_ln>  (1) 
-1.8261780203326681

>  <r_i_glide_ligand_efficiency_sa>  (1) 
-1.3494431128990432

>  <r_i_glide_lipo>  (1) 
-2.0762882547813453

>  <r_i_glide_metal>  (1) 
-0

>  <r_i_glide_rewards>  (1) 
-2.6227452369599584

>  <r_lp_Energy>  (1) 
11.987261999999999

>  <r_lp_tautomer_probability>  (1) 
1

>  <s_epik_cmdline>  (1) 
J2VwaWtfcHl0aG9uJywgJy1waHQnLCAnMS4wJywgJy1waCcsICc3LjQnLCAnLXRuJywgJzgnLCAnLW1hJywgJzUwMCcsICctaW1hZScsICc8aW5maWxlLm1hZT4nLCAnLW9tYWUnLCAnPG91dGZpbGUubWFlPic=

>  <s_epik_input>  (1) 
W0NIXTE9W0NIXVtDSF09W0NIXVtDQEBIXShDMT0yKVtDSF09W0NIXVtDSF0y

>  <s_glide_docking_method>  (1) 
confgen

>  <s_i_glide_gridfile>  (1) 
gpcr_5ht2c_6bqh_protein_autoprepared_prepared

>  <s_lp_Force_Field>  (1) 
S-OPLS

>  <s_lp_Variant>  (1) 
Pocket2Mol_79_num_sample_100-1

>  <s_m_source_file>  (1) 
generated__ligand_Pocket2Mol_2026-05-06_prepared.sdf

>  <GenAI_Model>  (1) 
Pocket2Mol

>  <Protein>  (1) 
GPCR_5HT2C

$$$$
Pocket2Mol_84_num_sample_100
     RDKit          3D

  0  0  0  0  0  0  0  0  0  0999 V3000
M  V30 BEGIN CTAB
M  V30 COUNTS 19 19 0 0 1
M  V30 BEGIN ATOM
M  V30 1 C 38.763530 26.537245 54.582865 0
M  V30 2 C 39.310083 27.471927 55.653742 0
M  V30 3 O 39.224323 26.935009 53.301214 0
M  V30 4 C 38.670293 28.087295 52.737925 0 CFG=1
M  V30 5 C 39.209200 28.108880 51.300051 0
M  V30 6 O 38.579662 28.684187 55.664787 0
M  V30 7 C 39.000607 29.621156 54.760401 0
M  V30 8 O 37.267037 28.021428 52.653502 0
M  V30 9 C 39.066939 29.392877 53.431027 0
M  V30 10 H 37.677003 26.455970 54.632659 0
M  V30 11 H 39.154580 25.535101 54.760389 0
M  V30 12 H 39.179324 27.009247 56.632127 0
M  V30 13 H 40.381765 27.639169 55.531260 0
M  V30 14 H 38.935855 27.188887 50.780653 0
M  V30 15 H 38.798258 28.955725 50.748692 0
M  V30 16 H 40.296465 28.190262 51.309466 0
M  V30 17 H 39.276042 30.552383 55.233493 0
M  V30 18 H 37.048152 27.311576 52.062068 0
M  V30 19 H 39.414651 30.186003 52.784914 0
M  V30 END ATOM
M  V30 BEGIN BOND
M  V30 1 1 2 1
M  V30 2 1 3 1
M  V30 3 1 4 3
M  V30 4 1 5 4
M  V30 5 1 6 2
M  V30 6 1 7 6
M  V30 7 1 4 8 CFG=3
M  V30 8 1 9 4
M  V30 9 2 9 7
M  V30 10 1 10 1
M  V30 11 1 11 1
M  V30 12 1 12 2
M  V30 13 1 13 2
M  V30 14 1 14 5
M  V30 15 1 15 5
M  V30 16 1 16 5
M  V30 17 1 17 7
M  V30 18 1 18 8
M  V30 19 1 19 9
M  V30 END BOND
M  V30 END CTAB
M  END
>  <i_epik_Tot_Q>  (1) 
0

>  <i_epik_Tot_abs_Q>  (1) 
0

>  <i_i_glide_confnum>  (1) 
1

>  <i_i_glide_lignum>  (1) 
89

>  <i_i_glide_posenum>  (1) 
298

>  <i_i_glide_rotatable_bonds>  (1) 
1

>  <i_lp_mmshare_version>  (1) 
72125

>  <i_m_source_file_index>  (1) 
85

>  <i_f3d_flags>  (1) 
0

>  <num_sample>  (1) 
100

>  <b_lp_Chiralities_Consistent>  (1) 
1

>  <r_epik_Charging_Adjusted_Penalty>  (1) 
0

>  <r_epik_Ionization_Penalty>  (1) 
7.9405632778621754e-05

>  <r_epik_Ionization_Penalty_Charging>  (1) 
0

>  <r_epik_Ionization_Penalty_Neutral>  (1) 
7.9405632778621754e-05

>  <r_epik_State_Penalty>  (1) 
-0

>  <r_glide_ring_energy>  (1) 
0

>  <r_i_docking_score>  (1) 
-5.835587687996652

>  <r_i_glide_ecoul>  (1) 
-3.3917409394252354

>  <r_i_glide_eff_state_penalty>  (1) 
-0

>  <r_i_glide_einternal>  (1) 
0.12109652014907635

>  <r_i_glide_emodel>  (1) 
-29.728698849348117

>  <r_i_glide_emodel_strain>  (1) 
0

>  <r_i_glide_energy>  (1) 
-21.758424427494553

>  <r_i_glide_erotb>  (1) 
0

>  <r_i_glide_esite>  (1) 
0

>  <r_i_glide_evdw>  (1) 
-18.366683488069317

>  <r_i_glide_gscore>  (1) 
-5.835587687996652

>  <r_i_glide_gscore_strain>  (1) 
0

>  <r_i_glide_hbond>  (1) 
-0.32000000000000001

>  <r_i_glide_ligand_efficiency>  (1) 
-0.64839863199962799

>  <r_i_glide_ligand_efficiency_ln>  (1) 
-1.825204187832997

>  <r_i_glide_ligand_efficiency_sa>  (1) 
-1.3487235053114111

>  <r_i_glide_lipo>  (1) 
-1.1765990608037111

>  <r_i_glide_metal>  (1) 
-0

>  <r_i_glide_rewards>  (1) 
-2.9118933118756898

>  <r_lp_Energy>  (1) 
3.4776590000000001

>  <r_lp_tautomer_probability>  (1) 
1

>  <s_epik_cmdline>  (1) 
J2VwaWtfcHl0aG9uJywgJy1waHQnLCAnMS4wJywgJy1waCcsICc3LjQnLCAnLXRuJywgJzgnLCAnLW1hJywgJzUwMCcsICctaW1hZScsICc8aW5maWxlLm1hZT4nLCAnLW9tYWUnLCAnPG91dGZpbGUubWFlPic=

>  <s_epik_input>  (1) 
W0NIM11bQ0BAXTEoW09IXSlPW0NIMl1bQ0gyXU9bQ0hdPVtDSF0x

>  <s_glide_docking_method>  (1) 
confgen

>  <s_i_glide_gridfile>  (1) 
gpcr_5ht2c_6bqh_protein_autoprepared_prepared

>  <s_lp_Force_Field>  (1) 
S-OPLS

>  <s_lp_Variant>  (1) 
Pocket2Mol_84_num_sample_100-1

>  <s_m_source_file>  (1) 
generated__ligand_Pocket2Mol_2026-05-06_prepared.sdf

>  <GenAI_Model>  (1) 
Pocket2Mol

>  <Protein>  (1) 
GPCR_5HT2C

$$$$
Pocket2Mol_64_num_sample_100
     RDKit          3D

  0  0  0  0  0  0  0  0  0  0999 V3000
M  V30 BEGIN CTAB
M  V30 COUNTS 15 15 0 0 1
M  V30 BEGIN ATOM
M  V30 1 C 40.267403 30.510044 51.783562 0
M  V30 2 C 39.862714 30.421430 53.128872 0
M  V30 3 C 39.060862 29.345206 53.553900 0
M  V30 4 C 38.663062 28.355938 52.632486 0
M  V30 5 C 39.873229 29.526235 50.862099 0
M  V30 6 N 37.867400 27.292344 53.053502 0
M  V30 7 O 40.267404 29.621427 49.559978 0
M  V30 8 C 39.069875 28.445616 51.284607 0
M  V30 9 H 40.881051 31.335176 51.459009 0
M  V30 10 H 40.166802 31.180500 53.834806 0
M  V30 11 H 38.750404 29.279734 54.586888 0
M  V30 12 H 37.409165 26.697355 52.371505 0
M  V30 13 H 37.440610 27.315695 53.968200 0
M  V30 14 H 39.715384 29.115705 48.982700 0
M  V30 15 H 38.765805 27.688373 50.576993 0
M  V30 END ATOM
M  V30 BEGIN BOND
M  V30 1 1 2 1
M  V30 2 2 3 2
M  V30 3 1 4 3
M  V30 4 2 5 1
M  V30 5 1 6 4
M  V30 6 1 7 5
M  V30 7 2 8 4
M  V30 8 1 8 5
M  V30 9 1 9 1
M  V30 10 1 10 2
M  V30 11 1 11 3
M  V30 12 1 12 6
M  V30 13 1 13 6
M  V30 14 1 14 7
M  V30 15 1 15 8
M  V30 END BOND
M  V30 END CTAB
M  END
>  <i_epik_Tot_Q>  (1) 
0

>  <i_epik_Tot_abs_Q>  (1) 
0

>  <i_i_glide_confnum>  (1) 
1

>  <i_i_glide_lignum>  (1) 
68

>  <i_i_glide_posenum>  (1) 
218

>  <i_i_glide_rotatable_bonds>  (1) 
1

>  <i_lp_mmshare_version>  (1) 
72125

>  <i_m_source_file_index>  (1) 
65

>  <i_f3d_flags>  (1) 
0

>  <num_sample>  (1) 
100

>  <b_lp_Chiralities_Consistent>  (1) 
1

>  <r_epik_Charging_Adjusted_Penalty>  (1) 
0

>  <r_epik_Ionization_Penalty>  (1) 
0.0026005809723615375

>  <r_epik_Ionization_Penalty_Charging>  (1) 
0

>  <r_epik_Ionization_Penalty_Neutral>  (1) 
0.0026005809723615375

>  <r_epik_State_Penalty>  (1) 
-0

>  <r_glide_ring_energy>  (1) 
0

>  <r_i_docking_score>  (1) 
-5.8319024221146138

>  <r_i_glide_ecoul>  (1) 
-2.9679505624572604

>  <r_i_glide_eff_state_penalty>  (1) 
-0

>  <r_i_glide_einternal>  (1) 
0.20885206888135405

>  <r_i_glide_emodel>  (1) 
-28.651592409587877

>  <r_i_glide_emodel_strain>  (1) 
0.032933085080712132

>  <r_i_glide_energy>  (1) 
-20.542854033305808

>  <r_i_glide_erotb>  (1) 
0

>  <r_i_glide_esite>  (1) 
0

>  <r_i_glide_evdw>  (1) 
-17.574903470848547

>  <r_i_glide_gscore>  (1) 
-5.8319024221146138

>  <r_i_glide_gscore_strain>  (1) 
0

>  <r_i_glide_hbond>  (1) 
-0.26847736587345006

>  <r_i_glide_ligand_efficiency>  (1) 
-0.72898780276432673

>  <r_i_glide_ligand_efficiency_ln>  (1) 
-1.893818195013798

>  <r_i_glide_ligand_efficiency_sa>  (1) 
-1.4579756055286537

>  <r_i_glide_lipo>  (1) 
-1.7765283590155758

>  <r_i_glide_metal>  (1) 
-0

>  <r_i_glide_rewards>  (1) 
-2.4629589393145714

>  <r_lp_Energy>  (1) 
4.3794230000000001

>  <r_lp_tautomer_probability>  (1) 
1

>  <s_epik_cmdline>  (1) 
J2VwaWtfcHl0aG9uJywgJy1waHQnLCAnMS4wJywgJy1waCcsICc3LjQnLCAnLXRuJywgJzgnLCAnLW1hJywgJzUwMCcsICctaW1hZScsICc8aW5maWxlLm1hZT4nLCAnLW9tYWUnLCAnPG91dGZpbGUubWFlPic=

>  <s_epik_input>  (1) 
W09IXWMoW2NIXTEpW2NIXVtjSF1bY0hdYzFbTkgyXQ==

>  <s_glide_docking_method>  (1) 
confgen

>  <s_i_glide_gridfile>  (1) 
gpcr_5ht2c_6bqh_protein_autoprepared_prepared

>  <s_lp_Force_Field>  (1) 
S-OPLS

>  <s_lp_Variant>  (1) 
Pocket2Mol_64_num_sample_100-1

>  <s_m_source_file>  (1) 
generated__ligand_Pocket2Mol_2026-05-06_prepared.sdf

>  <GenAI_Model>  (1) 
Pocket2Mol

>  <Protein>  (1) 
GPCR_5HT2C

$$$$
Pocket2Mol_75_num_sample_100
     RDKit          3D

  0  0  0  0  0  0  0  0  0  0999 V3000
M  V30 BEGIN CTAB
M  V30 COUNTS 21 22 0 0 1
M  V30 BEGIN ATOM
M  V30 1 C 39.607741 28.657198 50.705522 0
M  V30 2 C 39.345413 28.472288 52.203694 0 CFG=1
M  V30 3 C 40.499610 29.915716 50.606926 0
M  V30 4 C 40.184417 30.747054 51.853384 0
M  V30 5 N 39.614294 29.790273 52.782833 0
M  V30 6 N 38.871185 30.285087 53.829674 0
M  V30 7 C 38.015957 29.550768 54.462617 0
M  V30 8 C 37.708958 28.129825 54.047777 0
M  V30 9 C 37.957133 27.939647 52.551186 0
M  V30 10 H 40.069069 27.778660 50.254056 0
M  V30 11 H 38.667406 28.822001 50.188312 0
M  V30 12 H 40.082596 27.775955 52.599414 0
M  V30 13 H 41.546194 29.621527 50.653504 0
M  V30 14 H 40.351161 30.468913 49.679387 0
M  V30 15 H 41.067403 31.221425 52.277058 0
M  V30 16 H 39.467407 31.534023 51.632308 0
M  V30 17 H 37.492409 29.955466 55.329564 0
M  V30 18 H 38.314544 27.437915 54.633555 0
M  V30 19 H 36.667388 27.894493 54.253594 0
M  V30 20 H 37.194963 28.481390 51.989067 0
M  V30 21 H 37.867394 26.889537 52.271970 0
M  V30 END ATOM
M  V30 BEGIN BOND
M  V30 1 1 2 1
M  V30 2 1 3 1
M  V30 3 1 4 3
M  V30 4 1 5 2
M  V30 5 1 5 4
M  V30 6 1 6 5
M  V30 7 2 7 6
M  V30 8 1 8 7
M  V30 9 1 9 2
M  V30 10 1 9 8
M  V30 11 1 10 1
M  V30 12 1 11 1
M  V30 13 1 2 12 CFG=1
M  V30 14 1 13 3
M  V30 15 1 14 3
M  V30 16 1 15 4
M  V30 17 1 16 4
M  V30 18 1 17 7
M  V30 19 1 18 8
M  V30 20 1 19 8
M  V30 21 1 20 9
M  V30 22 1 21 9
M  V30 END BOND
M  V30 END CTAB
M  END
>  <i_epik_Tot_Q>  (1) 
0

>  <i_epik_Tot_abs_Q>  (1) 
0

>  <i_i_glide_confnum>  (1) 
1

>  <i_i_glide_lignum>  (1) 
80

>  <i_i_glide_posenum>  (1) 
88

>  <i_i_glide_rotatable_bonds>  (1) 
0

>  <i_lp_mmshare_version>  (1) 
72125

>  <i_m_source_file_index>  (1) 
76

>  <i_f3d_flags>  (1) 
0

>  <num_sample>  (1) 
100

>  <b_lp_Chiralities_Consistent>  (1) 
1

>  <r_epik_Charging_Adjusted_Penalty>  (1) 
0

>  <r_epik_Ionization_Penalty>  (1) 
0.0031146778150898829

>  <r_epik_Ionization_Penalty_Charging>  (1) 
0

>  <r_epik_Ionization_Penalty_Neutral>  (1) 
0.0031146778150898829

>  <r_epik_State_Penalty>  (1) 
-0

>  <r_glide_ring_energy>  (1) 
0

>  <r_i_docking_score>  (1) 
-5.8291404633812416

>  <r_i_glide_ecoul>  (1) 
-0.4696525338742093

>  <r_i_glide_eff_state_penalty>  (1) 
-0

>  <r_i_glide_einternal>  (1) 
0

>  <r_i_glide_emodel>  (1) 
-27.718286449254848

>  <r_i_glide_emodel_strain>  (1) 
0.0013150792462113259

>  <r_i_glide_energy>  (1) 
-19.89856724585832

>  <r_i_glide_erotb>  (1) 
0

>  <r_i_glide_esite>  (1) 
0

>  <r_i_glide_evdw>  (1) 
-19.42891471198411

>  <r_i_glide_gscore>  (1) 
-5.8291404633812416

>  <r_i_glide_gscore_strain>  (1) 
0

>  <r_i_glide_hbond>  (1) 
0

>  <r_i_glide_ligand_efficiency>  (1) 
-0.64768227370902687

>  <r_i_glide_ligand_efficiency_ln>  (1) 
-1.8231876811849774

>  <r_i_glide_ligand_efficiency_sa>  (1) 
-1.3472334200196225

>  <r_i_glide_lipo>  (1) 
-1.8797076168167348

>  <r_i_glide_metal>  (1) 
-0

>  <r_i_glide_rewards>  (1) 
-2.9075392308841703

>  <r_lp_Energy>  (1) 
16.062878999999999

>  <r_lp_tautomer_probability>  (1) 
1

>  <s_epik_Chemistry_Notes>  (1) 
This compound has an imine and may undergo hydrolysis.

>  <s_epik_cmdline>  (1) 
J2VwaWtfcHl0aG9uJywgJy1waHQnLCAnMS4wJywgJy1waCcsICc3LjQnLCAnLXRuJywgJzgnLCAnLW1hJywgJzUwMCcsICctaW1hZScsICc8aW5maWxlLm1hZT4nLCAnLW9tYWUnLCAnPG91dGZpbGUubWFlPic=

>  <s_epik_input>  (1) 
W0NIMl0xW0NIMl1bQ0gyXU4oW0NASF0xMilOPVtDSF1bQ0gyXVtDSDJdMg==

>  <s_glide_docking_method>  (1) 
confgen

>  <s_i_glide_gridfile>  (1) 
gpcr_5ht2c_6bqh_protein_autoprepared_prepared

>  <s_lp_Force_Field>  (1) 
S-OPLS

>  <s_lp_Variant>  (1) 
Pocket2Mol_75_num_sample_100-1

>  <s_m_source_file>  (1) 
generated__ligand_Pocket2Mol_2026-05-06_prepared.sdf

>  <GenAI_Model>  (1) 
Pocket2Mol

>  <Protein>  (1) 
GPCR_5HT2C

$$$$
Pocket2Mol_27_num_sample_100
     RDKit          3D

  0  0  0  0  0  0  0  0  0  0999 V3000
M  V30 BEGIN CTAB
M  V30 COUNTS 15 15 0 0 1
M  V30 BEGIN ATOM
M  V30 1 C 39.867401 30.281689 52.497477 0
M  V30 2 C 39.067399 29.621635 53.453446 0
M  V30 3 C 38.471920 28.384314 53.139982 0
M  V30 4 C 40.065448 29.706119 51.225551 0
M  V30 5 C 38.673086 27.807220 51.870972 0
M  V30 6 C 40.917421 30.419892 50.195481 0
M  V30 7 C 39.467452 28.467449 50.913883 0
M  V30 8 H 40.323969 31.229843 52.738703 0
M  V30 9 H 38.913430 30.064102 54.427218 0
M  V30 10 H 37.861230 27.877826 53.873159 0
M  V30 11 H 38.215892 26.858589 51.630708 0
M  V30 12 H 41.067403 29.806176 49.307000 0
M  V30 13 H 40.435241 31.347535 49.886249 0
M  V30 14 H 41.895649 30.661911 50.610809 0
M  V30 15 H 39.616181 28.024697 49.940932 0
M  V30 END ATOM
M  V30 BEGIN BOND
M  V30 1 1 2 1
M  V30 2 2 3 2
M  V30 3 2 4 1
M  V30 4 1 5 3
M  V30 5 1 6 4
M  V30 6 1 7 4
M  V30 7 2 7 5
M  V30 8 1 8 1
M  V30 9 1 9 2
M  V30 10 1 10 3
M  V30 11 1 11 5
M  V30 12 1 12 6
M  V30 13 1 13 6
M  V30 14 1 14 6
M  V30 15 1 15 7
M  V30 END BOND
M  V30 END CTAB
M  END
>  <i_epik_Tot_Q>  (1) 
0

>  <i_epik_Tot_abs_Q>  (1) 
0

>  <i_i_glide_confnum>  (1) 
1

>  <i_i_glide_lignum>  (1) 
30

>  <i_i_glide_posenum>  (1) 
112

>  <i_i_glide_rotatable_bonds>  (1) 
0

>  <i_lp_mmshare_version>  (1) 
72125

>  <i_m_source_file_index>  (1) 
28

>  <i_f3d_flags>  (1) 
0

>  <num_sample>  (1) 
100

>  <b_lp_Chiralities_Consistent>  (1) 
1

>  <r_epik_Charging_Adjusted_Penalty>  (1) 
0

>  <r_epik_Ionization_Penalty>  (1) 
0

>  <r_epik_Ionization_Penalty_Charging>  (1) 
0

>  <r_epik_Ionization_Penalty_Neutral>  (1) 
0

>  <r_epik_State_Penalty>  (1) 
-0

>  <r_glide_ring_energy>  (1) 
0

>  <r_i_docking_score>  (1) 
-5.8263289922249504

>  <r_i_glide_ecoul>  (1) 
-0.9914691543050993

>  <r_i_glide_eff_state_penalty>  (1) 
-0

>  <r_i_glide_einternal>  (1) 
0

>  <r_i_glide_emodel>  (1) 
-24.843962941581925

>  <r_i_glide_emodel_strain>  (1) 
0.0043466214866185737

>  <r_i_glide_energy>  (1) 
-18.411449422452378

>  <r_i_glide_erotb>  (1) 
0

>  <r_i_glide_esite>  (1) 
0

>  <r_i_glide_evdw>  (1) 
-17.419980268147278

>  <r_i_glide_gscore>  (1) 
-5.8263289922249504

>  <r_i_glide_gscore_strain>  (1) 
0

>  <r_i_glide_hbond>  (1) 
0

>  <r_i_glide_ligand_efficiency>  (1) 
-0.83233271317499291

>  <r_i_glide_ligand_efficiency_ln>  (1) 
-1.9777687361216099

>  <r_i_glide_ligand_efficiency_sa>  (1) 
-1.5921952014739909

>  <r_i_glide_lipo>  (1) 
-2.1811638801381763

>  <r_i_glide_metal>  (1) 
-0

>  <r_i_glide_rewards>  (1) 
-2.6254457255336461

>  <r_lp_Energy>  (1) 
6.403492

>  <r_lp_tautomer_probability>  (1) 
1

>  <s_epik_cmdline>  (1) 
J2VwaWtfcHl0aG9uJywgJy1waHQnLCAnMS4wJywgJy1waCcsICc3LjQnLCAnLXRuJywgJzgnLCAnLW1hJywgJzUwMCcsICctaW1hZScsICc8aW5maWxlLm1hZT4nLCAnLW9tYWUnLCAnPG91dGZpbGUubWFlPic=

>  <s_epik_input>  (1) 
W0NIM11jMVtjSF1bY0hdW2NIXVtjSF1bY0hdMQ==

>  <s_glide_docking_method>  (1) 
confgen

>  <s_i_glide_gridfile>  (1) 
gpcr_5ht2c_6bqh_protein_autoprepared_prepared

>  <s_lp_Force_Field>  (1) 
S-OPLS

>  <s_lp_Variant>  (1) 
Pocket2Mol_27_num_sample_100-1

>  <s_m_source_file>  (1) 
generated__ligand_Pocket2Mol_2026-05-06_prepared.sdf

>  <GenAI_Model>  (1) 
Pocket2Mol

>  <Protein>  (1) 
GPCR_5HT2C

$$$$
Pocket2Mol_41_num_sample_100
     RDKit          3D

  0  0  0  0  0  0  0  0  0  0999 V3000
M  V30 BEGIN CTAB
M  V30 COUNTS 15 15 0 0 1
M  V30 BEGIN ATOM
M  V30 1 C 38.716579 28.164418 52.245252 0
M  V30 2 C 39.467081 28.461236 51.059080 0
M  V30 3 C 40.138155 29.658643 51.134504 0
M  V30 4 C 40.998236 30.295094 50.097168 0
M  V30 5 C 38.829247 29.138031 53.208245 0
M  V30 6 C 38.188458 29.173258 54.556104 0
M  V30 7 S 39.867365 30.421429 52.668196 0
M  V30 8 H 38.127870 27.262781 52.344110 0
M  V30 9 H 39.480550 27.798833 50.206960 0
M  V30 10 H 41.031970 29.696238 49.187466 0
M  V30 11 H 40.606525 31.277133 49.834401 0
M  V30 12 H 42.018108 30.420763 50.460931 0
M  V30 13 H 37.571935 28.289962 54.727407 0
M  V30 14 H 38.944690 29.209597 55.340803 0
M  V30 15 H 37.548993 30.051499 54.659530 0
M  V30 END ATOM
M  V30 BEGIN BOND
M  V30 1 1 2 1
M  V30 2 2 3 2
M  V30 3 1 4 3
M  V30 4 2 5 1
M  V30 5 1 6 5
M  V30 6 1 7 3
M  V30 7 1 7 5
M  V30 8 1 8 1
M  V30 9 1 9 2
M  V30 10 1 10 4
M  V30 11 1 11 4
M  V30 12 1 12 4
M  V30 13 1 13 6
M  V30 14 1 14 6
M  V30 15 1 15 6
M  V30 END BOND
M  V30 END CTAB
M  END
>  <i_epik_Tot_Q>  (1) 
0

>  <i_epik_Tot_abs_Q>  (1) 
0

>  <i_i_glide_confnum>  (1) 
1

>  <i_i_glide_lignum>  (1) 
44

>  <i_i_glide_posenum>  (1) 
102

>  <i_i_glide_rotatable_bonds>  (1) 
0

>  <i_lp_mmshare_version>  (1) 
72125

>  <i_m_source_file_index>  (1) 
42

>  <i_f3d_flags>  (1) 
0

>  <num_sample>  (1) 
100

>  <b_lp_Chiralities_Consistent>  (1) 
1

>  <r_epik_Charging_Adjusted_Penalty>  (1) 
0

>  <r_epik_Ionization_Penalty>  (1) 
0

>  <r_epik_Ionization_Penalty_Charging>  (1) 
0

>  <r_epik_Ionization_Penalty_Neutral>  (1) 
0

>  <r_epik_State_Penalty>  (1) 
-0

>  <r_glide_ring_energy>  (1) 
0

>  <r_i_docking_score>  (1) 
-5.824992549208698

>  <r_i_glide_ecoul>  (1) 
-0.74695336573855164

>  <r_i_glide_eff_state_penalty>  (1) 
-0

>  <r_i_glide_einternal>  (1) 
0

>  <r_i_glide_emodel>  (1) 
-25.684755637426015

>  <r_i_glide_emodel_strain>  (1) 
0

>  <r_i_glide_energy>  (1) 
-18.89044229927902

>  <r_i_glide_erotb>  (1) 
0

>  <r_i_glide_esite>  (1) 
0

>  <r_i_glide_evdw>  (1) 
-18.143488933540468

>  <r_i_glide_gscore>  (1) 
-5.824992549208698

>  <r_i_glide_gscore_strain>  (1) 
0

>  <r_i_glide_hbond>  (1) 
0

>  <r_i_glide_ligand_efficiency>  (1) 
-0.83214179274409972

>  <r_i_glide_ligand_efficiency_ln>  (1) 
-1.9773150756402535

>  <r_i_glide_ligand_efficiency_sa>  (1) 
-1.591829983828307

>  <r_i_glide_lipo>  (1) 
-2.1463566631285169

>  <r_i_glide_metal>  (1) 
-0

>  <r_i_glide_rewards>  (1) 
-2.6594184345423746

>  <r_lp_Energy>  (1) 
3.6641779999999997

>  <r_lp_tautomer_probability>  (1) 
1

>  <s_epik_cmdline>  (1) 
J2VwaWtfcHl0aG9uJywgJy1waHQnLCAnMS4wJywgJy1waCcsICc3LjQnLCAnLXRuJywgJzgnLCAnLW1hJywgJzUwMCcsICctaW1hZScsICc8aW5maWxlLm1hZT4nLCAnLW9tYWUnLCAnPG91dGZpbGUubWFlPic=

>  <s_epik_input>  (1) 
W0NIM11jKHMxKVtjSF1bY0hdYzFbQ0gzXQ==

>  <s_glide_docking_method>  (1) 
confgen

>  <s_i_glide_gridfile>  (1) 
gpcr_5ht2c_6bqh_protein_autoprepared_prepared

>  <s_lp_Force_Field>  (1) 
S-OPLS

>  <s_lp_Variant>  (1) 
Pocket2Mol_41_num_sample_100-1

>  <s_m_source_file>  (1) 
generated__ligand_Pocket2Mol_2026-05-06_prepared.sdf

>  <GenAI_Model>  (1) 
Pocket2Mol

>  <Protein>  (1) 
GPCR_5HT2C

$$$$
Pocket2Mol_84_num_sample_100
     RDKit          3D

  0  0  0  0  0  0  0  0  0  0999 V3000
M  V30 BEGIN CTAB
M  V30 COUNTS 19 19 0 0 1
M  V30 BEGIN ATOM
M  V30 1 C 38.115664 29.989819 54.253502 0
M  V30 2 C 39.464980 30.311371 53.614539 0
M  V30 3 O 37.548790 28.787062 53.752534 0
M  V30 4 C 38.327651 27.630236 53.668239 0 CFG=1
M  V30 5 C 39.031708 27.327260 55.010729 0
M  V30 6 O 39.467403 30.021430 52.226260 0
M  V30 7 C 39.770727 28.735057 51.853501 0
M  V30 8 O 37.467402 26.544755 53.453501 0
M  V30 9 C 39.296752 27.633583 52.484272 0
M  V30 10 H 37.412386 30.794396 54.042811 0
M  V30 11 H 38.206773 29.947267 55.339267 0
M  V30 12 H 39.679828 31.371997 53.744829 0
M  V30 13 H 40.267564 29.792281 54.122706 0
M  V30 14 H 38.295863 27.297515 55.815267 0
M  V30 15 H 39.522716 26.354395 54.958758 0
M  V30 16 H 39.790088 28.063034 55.263267 0
M  V30 17 H 40.445366 28.705334 51.010758 0
M  V30 18 H 37.079805 26.636472 52.591168 0
M  V30 19 H 39.601590 26.661142 52.125013 0
M  V30 END ATOM
M  V30 BEGIN BOND
M  V30 1 1 2 1
M  V30 2 1 3 1
M  V30 3 1 4 3
M  V30 4 1 5 4
M  V30 5 1 6 2
M  V30 6 1 7 6
M  V30 7 1 4 8 CFG=3
M  V30 8 1 9 4
M  V30 9 2 9 7
M  V30 10 1 10 1
M  V30 11 1 11 1
M  V30 12 1 12 2
M  V30 13 1 13 2
M  V30 14 1 14 5
M  V30 15 1 15 5
M  V30 16 1 16 5
M  V30 17 1 17 7
M  V30 18 1 18 8
M  V30 19 1 19 9
M  V30 END BOND
M  V30 END CTAB
M  END
>  <i_epik_Tot_Q>  (1) 
0

>  <i_epik_Tot_abs_Q>  (1) 
0

>  <i_i_glide_confnum>  (1) 
4

>  <i_i_glide_lignum>  (1) 
89

>  <i_i_glide_posenum>  (1) 
218

>  <i_i_glide_rotatable_bonds>  (1) 
1

>  <i_lp_mmshare_version>  (1) 
72125

>  <i_m_source_file_index>  (1) 
85

>  <i_f3d_flags>  (1) 
0

>  <num_sample>  (1) 
100

>  <b_lp_Chiralities_Consistent>  (1) 
1

>  <r_epik_Charging_Adjusted_Penalty>  (1) 
0

>  <r_epik_Ionization_Penalty>  (1) 
7.9405632778621754e-05

>  <r_epik_Ionization_Penalty_Charging>  (1) 
0

>  <r_epik_Ionization_Penalty_Neutral>  (1) 
7.9405632778621754e-05

>  <r_epik_State_Penalty>  (1) 
-0

>  <r_glide_ring_energy>  (1) 
2.1674625479299614

>  <r_i_docking_score>  (1) 
-5.8191853396202484

>  <r_i_glide_ecoul>  (1) 
-2.8811063071088143

>  <r_i_glide_eff_state_penalty>  (1) 
-0

>  <r_i_glide_einternal>  (1) 
0.050313633657629975

>  <r_i_glide_emodel>  (1) 
-27.376053923578421

>  <r_i_glide_emodel_strain>  (1) 
0

>  <r_i_glide_energy>  (1) 
-19.392960652435534

>  <r_i_glide_erotb>  (1) 
0

>  <r_i_glide_esite>  (1) 
0

>  <r_i_glide_evdw>  (1) 
-16.511854345326718

>  <r_i_glide_gscore>  (1) 
-5.8191853396202484

>  <r_i_glide_gscore_strain>  (1) 
0

>  <r_i_glide_hbond>  (1) 
-0.32000000000000001

>  <r_i_glide_ligand_efficiency>  (1) 
-0.64657614884669423

>  <r_i_glide_ligand_efficiency_ln>  (1) 
-1.8200740044568673

>  <r_i_glide_ligand_efficiency_sa>  (1) 
-1.3449325875872091

>  <r_i_glide_lipo>  (1) 
-1.2431499748080515

>  <r_i_glide_metal>  (1) 
-0

>  <r_i_glide_rewards>  (1) 
-2.9982767014795391

>  <r_lp_Energy>  (1) 
3.4776590000000001

>  <r_lp_tautomer_probability>  (1) 
1

>  <s_epik_cmdline>  (1) 
J2VwaWtfcHl0aG9uJywgJy1waHQnLCAnMS4wJywgJy1waCcsICc3LjQnLCAnLXRuJywgJzgnLCAnLW1hJywgJzUwMCcsICctaW1hZScsICc8aW5maWxlLm1hZT4nLCAnLW9tYWUnLCAnPG91dGZpbGUubWFlPic=

>  <s_epik_input>  (1) 
W0NIM11bQ0BAXTEoW09IXSlPW0NIMl1bQ0gyXU9bQ0hdPVtDSF0x

>  <s_glide_docking_method>  (1) 
confgen

>  <s_i_glide_gridfile>  (1) 
gpcr_5ht2c_6bqh_protein_autoprepared_prepared

>  <s_lp_Force_Field>  (1) 
S-OPLS

>  <s_lp_Variant>  (1) 
Pocket2Mol_84_num_sample_100-1

>  <s_m_source_file>  (1) 
generated__ligand_Pocket2Mol_2026-05-06_prepared.sdf

>  <GenAI_Model>  (1) 
Pocket2Mol

>  <Protein>  (1) 
GPCR_5HT2C

$$$$
Pocket2Mol_1_num_sample_100
     RDKit          3D

  0  0  0  0  0  0  0  0  0  0999 V3000
M  V30 BEGIN CTAB
M  V30 COUNTS 19 20 0 0 1
M  V30 BEGIN ATOM
M  V30 1 C 38.667405 27.867790 52.176189 0
M  V30 2 C 38.476438 28.786034 53.272946 0
M  V30 3 C 39.280799 29.995664 53.422532 0 CFG=1
M  V30 4 C 37.570498 28.660318 54.170029 0
M  V30 5 C 39.867405 30.430498 52.086518 0
M  V30 6 C 39.945780 29.598666 51.021328 0
M  V30 7 C 37.467407 29.792994 55.117208 0
M  V30 8 O 40.510708 30.021428 49.884420 0
M  V30 9 N 38.338403 30.758773 54.314889 0
M  V30 10 C 39.385501 28.247957 51.103907 0
M  V30 11 H 38.211253 26.888318 52.201979 0
M  V30 12 H 40.132151 29.737747 54.052688 0
M  V30 13 H 36.870713 27.838315 54.210839 0
M  V30 14 H 40.268017 31.432096 52.026044 0
M  V30 15 H 36.450054 30.169266 55.233551 0
M  V30 16 H 37.900011 29.539270 56.085384 0
M  V30 17 H 40.347803 29.363058 49.227284 0
M  V30 18 H 38.805330 31.431223 54.907366 0
M  V30 19 H 39.507934 27.564682 50.275563 0
M  V30 END ATOM
M  V30 BEGIN BOND
M  V30 1 1 2 1
M  V30 2 1 3 2
M  V30 3 2 4 2
M  V30 4 1 5 3
M  V30 5 2 6 5
M  V30 6 1 7 4
M  V30 7 1 8 6
M  V30 8 1 9 3
M  V30 9 1 9 7
M  V30 10 2 10 1
M  V30 11 1 10 6
M  V30 12 1 11 1
M  V30 13 1 3 12 CFG=1
M  V30 14 1 13 4
M  V30 15 1 14 5
M  V30 16 1 15 7
M  V30 17 1 16 7
M  V30 18 1 17 8
M  V30 19 1 18 9
M  V30 20 1 19 10
M  V30 END BOND
M  V30 END CTAB
M  END
>  <i_epik_Tot_Q>  (1) 
0

>  <i_epik_Tot_abs_Q>  (1) 
0

>  <i_i_glide_confnum>  (1) 
1

>  <i_i_glide_lignum>  (1) 
4

>  <i_i_glide_posenum>  (1) 
308

>  <i_i_glide_rotatable_bonds>  (1) 
1

>  <i_lp_mmshare_version>  (1) 
72125

>  <i_m_source_file_index>  (1) 
2

>  <i_f3d_flags>  (1) 
0

>  <num_sample>  (1) 
100

>  <b_lp_Chiralities_Consistent>  (1) 
1

>  <r_epik_Charging_Adjusted_Penalty>  (1) 
0.0032380173127296522

>  <r_epik_Ionization_Penalty>  (1) 
0.0032399356015129686

>  <r_epik_Ionization_Penalty_Charging>  (1) 
0

>  <r_epik_Ionization_Penalty_Neutral>  (1) 
0.0032399356015129686

>  <r_epik_State_Penalty>  (1) 
0.0032380173127296522

>  <r_glide_ring_energy>  (1) 
0

>  <r_i_docking_score>  (1) 
-5.8167257660077887

>  <r_i_glide_ecoul>  (1) 
-0.85745709640640633

>  <r_i_glide_eff_state_penalty>  (1) 
0.0032380173127296522

>  <r_i_glide_einternal>  (1) 
0.05185862537718755

>  <r_i_glide_emodel>  (1) 
-32.834919498240154

>  <r_i_glide_emodel_strain>  (1) 
6.5552993078199506e-07

>  <r_i_glide_energy>  (1) 
-24.024963194737701

>  <r_i_glide_erotb>  (1) 
0

>  <r_i_glide_esite>  (1) 
0

>  <r_i_glide_evdw>  (1) 
-23.167506098331295

>  <r_i_glide_gscore>  (1) 
-5.8199637833205182

>  <r_i_glide_gscore_strain>  (1) 
0

>  <r_i_glide_hbond>  (1) 
0

>  <r_i_glide_ligand_efficiency>  (1) 
-0.58167257660077887

>  <r_i_glide_ligand_efficiency_ln>  (1) 
-1.7612644647210232

>  <r_i_glide_ligand_efficiency_sa>  (1) 
-1.2531755772689464

>  <r_i_glide_lipo>  (1) 
-2.0749666640051623

>  <r_i_glide_metal>  (1) 
-0

>  <r_i_glide_rewards>  (1) 
-2.4580032499378301

>  <r_lp_Energy>  (1) 
5.6363089999999998

>  <s_epik_cmdline>  (1) 
J2VwaWtfcHl0aG9uJywgJy1waHQnLCAnMS4wJywgJy1waCcsICc3LjQnLCAnLXRuJywgJzgnLCAnLW1hJywgJzUwMCcsICctaW1hZScsICc8aW5maWxlLm1hZT4nLCAnLW9tYWUnLCAnPG91dGZpbGUubWFlPic=

>  <s_epik_input>  (1) 
W0NIXTE9W0NIXUMoW09IXSk9W0NIXVtDQEhdKEMxPTIpW05IXVtDSDJdW0NIXTI=

>  <s_glide_docking_method>  (1) 
confgen

>  <s_i_glide_gridfile>  (1) 
gpcr_5ht2c_6bqh_protein_autoprepared_prepared

>  <s_lp_Force_Field>  (1) 
S-OPLS

>  <s_lp_Variant>  (1) 
Pocket2Mol_1_num_sample_100-2

>  <s_m_source_file>  (1) 
generated__ligand_Pocket2Mol_2026-05-06_prepared.sdf

>  <GenAI_Model>  (1) 
Pocket2Mol

>  <Protein>  (1) 
GPCR_5HT2C

$$$$
Pocket2Mol_71_num_sample_100
     RDKit          3D

  0  0  0  0  0  0  0  0  0  0999 V3000
M  V30 BEGIN CTAB
M  V30 COUNTS 17 17 0 0 1
M  V30 BEGIN ATOM
M  V30 1 C 39.570069 28.508843 50.839728 0
M  V30 2 C 38.769893 27.832035 51.779393 0
M  V30 3 C 38.514157 28.410952 53.039025 0
M  V30 4 C 37.646706 27.670288 54.042979 0
M  V30 5 C 39.067404 29.676606 53.356517 0
M  V30 6 O 38.829035 30.253045 54.571481 0
M  V30 7 C 40.117932 29.766710 51.153959 0
M  V30 8 O 40.890350 30.421430 50.238504 0
M  V30 9 C 39.867403 30.349575 52.411805 0
M  V30 10 H 39.761225 28.063669 49.875563 0
M  V30 11 H 38.349456 26.867727 51.532667 0
M  V30 12 H 37.497549 28.201493 54.981165 0
M  V30 13 H 36.667400 27.485499 53.604848 0
M  V30 14 H 38.094270 26.703644 54.274408 0
M  V30 15 H 38.180215 29.805688 55.092210 0
M  V30 16 H 41.123099 31.303375 50.492421 0
M  V30 17 H 40.286848 31.314420 52.653136 0
M  V30 END ATOM
M  V30 BEGIN BOND
M  V30 1 2 2 1
M  V30 2 1 3 2
M  V30 3 1 4 3
M  V30 4 2 5 3
M  V30 5 1 6 5
M  V30 6 1 7 1
M  V30 7 1 8 7
M  V30 8 1 9 5
M  V30 9 2 9 7
M  V30 10 1 10 1
M  V30 11 1 11 2
M  V30 12 1 12 4
M  V30 13 1 13 4
M  V30 14 1 14 4
M  V30 15 1 15 6
M  V30 16 1 16 8
M  V30 17 1 17 9
M  V30 END BOND
M  V30 END CTAB
M  END
>  <i_epik_Tot_Q>  (1) 
0

>  <i_epik_Tot_abs_Q>  (1) 
0

>  <i_i_glide_confnum>  (1) 
1

>  <i_i_glide_lignum>  (1) 
76

>  <i_i_glide_posenum>  (1) 
330

>  <i_i_glide_rotatable_bonds>  (1) 
2

>  <i_lp_mmshare_version>  (1) 
72125

>  <i_m_source_file_index>  (1) 
72

>  <i_f3d_flags>  (1) 
0

>  <num_sample>  (1) 
100

>  <b_lp_Chiralities_Consistent>  (1) 
1

>  <r_epik_Charging_Adjusted_Penalty>  (1) 
0.00325898940304725

>  <r_epik_Ionization_Penalty>  (1) 
0.005516606254364515

>  <r_epik_Ionization_Penalty_Charging>  (1) 
0

>  <r_epik_Ionization_Penalty_Neutral>  (1) 
0.005516606254364515

>  <r_epik_State_Penalty>  (1) 
0.00325898940304725

>  <r_glide_ring_energy>  (1) 
0

>  <r_i_docking_score>  (1) 
-5.8156277174465059

>  <r_i_glide_ecoul>  (1) 
-1.8317126916841719

>  <r_i_glide_eff_state_penalty>  (1) 
0.00325898940304725

>  <r_i_glide_einternal>  (1) 
0.041453310969445489

>  <r_i_glide_emodel>  (1) 
-30.954128266561082

>  <r_i_glide_emodel_strain>  (1) 
0

>  <r_i_glide_energy>  (1) 
-22.399097151062506

>  <r_i_glide_erotb>  (1) 
0

>  <r_i_glide_esite>  (1) 
0

>  <r_i_glide_evdw>  (1) 
-20.567384459378335

>  <r_i_glide_gscore>  (1) 
-5.8188867068495531

>  <r_i_glide_gscore_strain>  (1) 
0

>  <r_i_glide_hbond>  (1) 
0

>  <r_i_glide_ligand_efficiency>  (1) 
-0.64618085749405618

>  <r_i_glide_ligand_efficiency_ln>  (1) 
-1.8189612824419794

>  <r_i_glide_ligand_efficiency_sa>  (1) 
-1.3441103484391943

>  <r_i_glide_lipo>  (1) 
-2.1500003615005125

>  <r_i_glide_metal>  (1) 
-0

>  <r_i_glide_rewards>  (1) 
-2.3657602186274977

>  <r_lp_Energy>  (1) 
3.8278699999999999

>  <r_lp_tautomer_probability>  (1) 
0.99999999989799981

>  <s_epik_cmdline>  (1) 
J2VwaWtfcHl0aG9uJywgJy1waHQnLCAnMS4wJywgJy1waCcsICc3LjQnLCAnLXRuJywgJzgnLCAnLW1hJywgJzUwMCcsICctaW1hZScsICc8aW5maWxlLm1hZT4nLCAnLW9tYWUnLCAnPG91dGZpbGUubWFlPic=

>  <s_epik_input>  (1) 
W0NIM11jMVtjSF1bY0hdYyhbT0hdKVtjSF1jMVtPSF0=

>  <s_glide_docking_method>  (1) 
confgen

>  <s_i_glide_gridfile>  (1) 
gpcr_5ht2c_6bqh_protein_autoprepared_prepared

>  <s_lp_Force_Field>  (1) 
S-OPLS

>  <s_lp_Variant>  (1) 
Pocket2Mol_71_num_sample_100-1

>  <s_m_source_file>  (1) 
generated__ligand_Pocket2Mol_2026-05-06_prepared.sdf

>  <GenAI_Model>  (1) 
Pocket2Mol

>  <Protein>  (1) 
GPCR_5HT2C

$$$$
Pocket2Mol_78_num_sample_100
     RDKit          3D

  0  0  0  0  0  0  0  0  0  0999 V3000
M  V30 BEGIN CTAB
M  V30 COUNTS 14 14 0 0 1
M  V30 BEGIN ATOM
M  V30 1 C 39.867403 30.377924 52.319083 0
M  V30 2 C 39.208896 29.694514 53.360175 0
M  V30 3 C 38.678105 28.403879 53.135150 0
M  V30 4 C 37.983973 27.668593 54.248769 0
M  V30 5 O 37.520571 26.531090 54.011439 0
M  V30 6 O 37.903899 28.225800 55.365100 0 CHG=-1
M  V30 7 C 39.997502 29.777214 51.052644 0
M  V30 8 C 38.807851 27.806416 51.861227 0
M  V30 9 C 39.467403 28.493065 50.824199 0
M  V30 10 H 40.272528 31.363657 52.492607 0
M  V30 11 H 39.112612 30.158104 54.331616 0
M  V30 12 H 40.502668 30.302556 50.255711 0
M  V30 13 H 38.402848 26.821437 51.681028 0
M  V30 14 H 39.565186 28.035114 49.853501 0
M  V30 END ATOM
M  V30 BEGIN BOND
M  V30 1 1 2 1
M  V30 2 2 3 2
M  V30 3 1 4 3
M  V30 4 2 5 4
M  V30 5 1 6 4
M  V30 6 2 7 1
M  V30 7 1 8 3
M  V30 8 1 9 7
M  V30 9 2 9 8
M  V30 10 1 10 1
M  V30 11 1 11 2
M  V30 12 1 12 7
M  V30 13 1 13 8
M  V30 14 1 14 9
M  V30 END BOND
M  V30 END CTAB
M  END
>  <i_epik_Tot_Q>  (1) 
-1

>  <i_epik_Tot_abs_Q>  (1) 
1

>  <i_i_glide_confnum>  (1) 
1

>  <i_i_glide_lignum>  (1) 
83

>  <i_i_glide_posenum>  (1) 
282

>  <i_i_glide_rotatable_bonds>  (1) 
1

>  <i_lp_mmshare_version>  (1) 
72125

>  <i_m_source_file_index>  (1) 
79

>  <i_f3d_flags>  (1) 
0

>  <num_sample>  (1) 
100

>  <b_lp_Chiralities_Consistent>  (1) 
1

>  <r_epik_Charging_Adjusted_Penalty>  (1) 
0.00033308558627939336

>  <r_epik_Ionization_Penalty>  (1) 
0.00033308558627939336

>  <r_epik_Ionization_Penalty_Charging>  (1) 
0.00033308558627939336

>  <r_epik_Ionization_Penalty_Neutral>  (1) 
0

>  <r_epik_State_Penalty>  (1) 
-0

>  <r_glide_ring_energy>  (1) 
0

>  <r_i_docking_score>  (1) 
-5.8101664494170615

>  <r_i_glide_ecoul>  (1) 
-0.27785507646666241

>  <r_i_glide_eff_state_penalty>  (1) 
-0

>  <r_i_glide_einternal>  (1) 
0.0029036675903415521

>  <r_i_glide_emodel>  (1) 
-23.736943689852538

>  <r_i_glide_emodel_strain>  (1) 
6.9972090344094795e-08

>  <r_i_glide_energy>  (1) 
-17.106599975577883

>  <r_i_glide_erotb>  (1) 
0

>  <r_i_glide_esite>  (1) 
0

>  <r_i_glide_evdw>  (1) 
-16.828744899111221

>  <r_i_glide_gscore>  (1) 
-5.8101664494170615

>  <r_i_glide_gscore_strain>  (1) 
0

>  <r_i_glide_hbond>  (1) 
0

>  <r_i_glide_ligand_efficiency>  (1) 
-0.64557404993522904

>  <r_i_glide_ligand_efficiency_ln>  (1) 
-1.8172531546901296

>  <r_i_glide_ligand_efficiency_sa>  (1) 
-1.3428481378523722

>  <r_i_glide_lipo>  (1) 
-1.8399025177551525

>  <r_i_glide_metal>  (1) 
-0

>  <r_i_glide_rewards>  (1) 
-3.0871484252363479

>  <r_lp_Energy>  (1) 
17.740625999999999

>  <r_lp_tautomer_probability>  (1) 
1

>  <s_epik_cmdline>  (1) 
J2VwaWtfcHl0aG9uJywgJy1waHQnLCAnMS4wJywgJy1waCcsICc3LjQnLCAnLXRuJywgJzgnLCAnLW1hJywgJzUwMCcsICctaW1hZScsICc8aW5maWxlLm1hZT4nLCAnLW9tYWUnLCAnPG91dGZpbGUubWFlPic=

>  <s_epik_input>  (1) 
W2NIXTFbY0hdW2NIXVtjSF1bY0hdYzFDKD1PKVtPSF0=

>  <s_glide_docking_method>  (1) 
confgen

>  <s_i_glide_gridfile>  (1) 
gpcr_5ht2c_6bqh_protein_autoprepared_prepared

>  <s_lp_Force_Field>  (1) 
S-OPLS

>  <s_lp_Variant>  (1) 
Pocket2Mol_78_num_sample_100-1

>  <s_m_source_file>  (1) 
generated__ligand_Pocket2Mol_2026-05-06_prepared.sdf

>  <GenAI_Model>  (1) 
Pocket2Mol

>  <Protein>  (1) 
GPCR_5HT2C

$$$$
Pocket2Mol_58_num_sample_100
     RDKit          3D

  0  0  0  0  0  0  0  0  0  0999 V3000
M  V30 BEGIN CTAB
M  V30 COUNTS 17 17 0 0 1
M  V30 BEGIN ATOM
M  V30 1 C 39.874859 28.727023 50.597974 0
M  V30 2 C 39.352838 29.150987 51.954466 0
M  V30 3 C 38.346639 28.394166 52.588630 0
M  V30 4 C 37.852880 28.791261 53.846833 0
M  V30 5 C 38.363239 29.946484 54.473510 0
M  V30 6 C 39.867401 30.305087 52.583534 0
M  V30 7 N 37.867427 30.344890 55.713378 0
M  V30 8 C 39.372707 30.701198 53.842565 0
M  V30 9 H 40.667410 29.389446 50.249436 0
M  V30 10 H 40.267400 27.711249 50.642753 0
M  V30 11 H 39.068620 28.749475 49.864415 0
M  V30 12 H 37.950617 27.510105 52.108227 0
M  V30 13 H 37.080126 28.211254 54.328757 0
M  V30 14 H 40.637670 30.888766 52.099879 0
M  V30 15 H 38.067485 31.273814 56.056807 0
M  V30 16 H 37.004283 29.943917 56.055318 0
M  V30 17 H 39.765007 31.586726 54.320892 0
M  V30 END ATOM
M  V30 BEGIN BOND
M  V30 1 1 2 1
M  V30 2 1 3 2
M  V30 3 2 4 3
M  V30 4 1 5 4
M  V30 5 2 6 2
M  V30 6 1 7 5
M  V30 7 2 8 5
M  V30 8 1 8 6
M  V30 9 1 9 1
M  V30 10 1 10 1
M  V30 11 1 11 1
M  V30 12 1 12 3
M  V30 13 1 13 4
M  V30 14 1 14 6
M  V30 15 1 15 7
M  V30 16 1 16 7
M  V30 17 1 17 8
M  V30 END BOND
M  V30 END CTAB
M  END
>  <i_epik_Tot_Q>  (1) 
0

>  <i_epik_Tot_abs_Q>  (1) 
0

>  <i_i_glide_confnum>  (1) 
1

>  <i_i_glide_lignum>  (1) 
62

>  <i_i_glide_posenum>  (1) 
32

>  <i_i_glide_rotatable_bonds>  (1) 
0

>  <i_lp_mmshare_version>  (1) 
72125

>  <i_m_source_file_index>  (1) 
59

>  <i_f3d_flags>  (1) 
0

>  <num_sample>  (1) 
100

>  <b_lp_Chiralities_Consistent>  (1) 
1

>  <r_epik_Charging_Adjusted_Penalty>  (1) 
0

>  <r_epik_Ionization_Penalty>  (1) 
0.002249743429862997

>  <r_epik_Ionization_Penalty_Charging>  (1) 
0

>  <r_epik_Ionization_Penalty_Neutral>  (1) 
0.002249743429862997

>  <r_epik_State_Penalty>  (1) 
-0

>  <r_glide_ring_energy>  (1) 
0

>  <r_i_docking_score>  (1) 
-5.7984268560014369

>  <r_i_glide_ecoul>  (1) 
-1.4940256726491845

>  <r_i_glide_eff_state_penalty>  (1) 
-0

>  <r_i_glide_einternal>  (1) 
0

>  <r_i_glide_emodel>  (1) 
-26.137551323283297

>  <r_i_glide_emodel_strain>  (1) 
0

>  <r_i_glide_energy>  (1) 
-18.881293785777913

>  <r_i_glide_erotb>  (1) 
0

>  <r_i_glide_esite>  (1) 
-0.059698699713345862

>  <r_i_glide_evdw>  (1) 
-17.38726811312873

>  <r_i_glide_gscore>  (1) 
-5.7984268560014369

>  <r_i_glide_gscore_strain>  (1) 
0

>  <r_i_glide_hbond>  (1) 
0

>  <r_i_glide_ligand_efficiency>  (1) 
-0.72480335700017962

>  <r_i_glide_ligand_efficiency_ln>  (1) 
-1.8829475336746917

>  <r_i_glide_ligand_efficiency_sa>  (1) 
-1.4496067140003595

>  <r_i_glide_lipo>  (1) 
-2.1113517872339962

>  <r_i_glide_metal>  (1) 
-0

>  <r_i_glide_rewards>  (1) 
-2.5339091125002811

>  <r_lp_Energy>  (1) 
4.6440260000000002

>  <r_lp_tautomer_probability>  (1) 
1

>  <s_epik_cmdline>  (1) 
J2VwaWtfcHl0aG9uJywgJy1waHQnLCAnMS4wJywgJy1waCcsICc3LjQnLCAnLXRuJywgJzgnLCAnLW1hJywgJzUwMCcsICctaW1hZScsICc8aW5maWxlLm1hZT4nLCAnLW9tYWUnLCAnPG91dGZpbGUubWFlPic=

>  <s_epik_input>  (1) 
W0NIM11jMVtjSF1bY0hdYyhbTkgyXSlbY0hdW2NIXTE=

>  <s_glide_docking_method>  (1) 
confgen

>  <s_i_glide_gridfile>  (1) 
gpcr_5ht2c_6bqh_protein_autoprepared_prepared

>  <s_lp_Force_Field>  (1) 
S-OPLS

>  <s_lp_Variant>  (1) 
Pocket2Mol_58_num_sample_100-1

>  <s_m_source_file>  (1) 
generated__ligand_Pocket2Mol_2026-05-06_prepared.sdf

>  <GenAI_Model>  (1) 
Pocket2Mol

>  <Protein>  (1) 
GPCR_5HT2C

$$$$
Pocket2Mol_34_num_sample_100
     RDKit          3D

  0  0  0  0  0  0  0  0  0  0999 V3000
M  V30 BEGIN CTAB
M  V30 COUNTS 12 12 0 0 1
M  V30 BEGIN ATOM
M  V30 1 C 39.340619 28.316285 51.140598 0
M  V30 2 C 38.611379 27.853390 52.253796 0
M  V30 3 C 38.510205 28.651151 53.410736 0
M  V30 4 C 39.138275 29.911627 53.454261 0
M  V30 5 C 39.968595 29.576520 51.184055 0
M  V30 6 F 40.669273 30.021112 50.114253 0
M  V30 7 C 39.867403 30.374088 52.340809 0
M  V30 8 H 39.418913 27.705715 50.253180 0
M  V30 9 H 38.130082 26.887018 52.219916 0
M  V30 10 H 37.951133 28.296412 54.264334 0
M  V30 11 H 39.061022 30.523592 54.340943 0
M  V30 12 H 40.349294 31.340103 52.372932 0
M  V30 END ATOM
M  V30 BEGIN BOND
M  V30 1 1 2 1
M  V30 2 2 3 2
M  V30 3 1 4 3
M  V30 4 2 5 1
M  V30 5 1 6 5
M  V30 6 2 7 4
M  V30 7 1 7 5
M  V30 8 1 8 1
M  V30 9 1 9 2
M  V30 10 1 10 3
M  V30 11 1 11 4
M  V30 12 1 12 7
M  V30 END BOND
M  V30 END CTAB
M  END
>  <i_epik_Tot_Q>  (1) 
0

>  <i_epik_Tot_abs_Q>  (1) 
0

>  <i_i_glide_confnum>  (1) 
1

>  <i_i_glide_lignum>  (1) 
37

>  <i_i_glide_posenum>  (1) 
23

>  <i_i_glide_rotatable_bonds>  (1) 
0

>  <i_lp_mmshare_version>  (1) 
72125

>  <i_m_source_file_index>  (1) 
35

>  <i_f3d_flags>  (1) 
0

>  <num_sample>  (1) 
100

>  <b_lp_Chiralities_Consistent>  (1) 
1

>  <r_epik_Charging_Adjusted_Penalty>  (1) 
0

>  <r_epik_Ionization_Penalty>  (1) 
0

>  <r_epik_Ionization_Penalty_Charging>  (1) 
0

>  <r_epik_Ionization_Penalty_Neutral>  (1) 
0

>  <r_epik_State_Penalty>  (1) 
-0

>  <r_glide_ring_energy>  (1) 
0

>  <r_i_docking_score>  (1) 
-5.7980544582961802

>  <r_i_glide_ecoul>  (1) 
-0.81675330678192315

>  <r_i_glide_eff_state_penalty>  (1) 
-0

>  <r_i_glide_einternal>  (1) 
0

>  <r_i_glide_emodel>  (1) 
-21.830642551981011

>  <r_i_glide_emodel_strain>  (1) 
0

>  <r_i_glide_energy>  (1) 
-16.144498739712692

>  <r_i_glide_erotb>  (1) 
0

>  <r_i_glide_esite>  (1) 
0

>  <r_i_glide_evdw>  (1) 
-15.327745432930769

>  <r_i_glide_gscore>  (1) 
-5.7980544582961802

>  <r_i_glide_gscore_strain>  (1) 
0

>  <r_i_glide_hbond>  (1) 
0

>  <r_i_glide_ligand_efficiency>  (1) 
-0.82829349404231145

>  <r_i_glide_ligand_efficiency_ln>  (1) 
-1.9681708419231607

>  <r_i_glide_ligand_efficiency_sa>  (1) 
-1.5844684532410338

>  <r_i_glide_lipo>  (1) 
-1.8246612601336722

>  <r_i_glide_metal>  (1) 
-0

>  <r_i_glide_rewards>  (1) 
-3.0844929304986808

>  <r_lp_Energy>  (1) 
8.194445

>  <r_lp_tautomer_probability>  (1) 
1

>  <s_epik_cmdline>  (1) 
J2VwaWtfcHl0aG9uJywgJy1waHQnLCAnMS4wJywgJy1waCcsICc3LjQnLCAnLXRuJywgJzgnLCAnLW1hJywgJzUwMCcsICctaW1hZScsICc8aW5maWxlLm1hZT4nLCAnLW9tYWUnLCAnPG91dGZpbGUubWFlPic=

>  <s_epik_input>  (1) 
RmMxW2NIXVtjSF1bY0hdW2NIXVtjSF0x

>  <s_glide_docking_method>  (1) 
confgen

>  <s_i_glide_gridfile>  (1) 
gpcr_5ht2c_6bqh_protein_autoprepared_prepared

>  <s_lp_Force_Field>  (1) 
S-OPLS

>  <s_lp_Variant>  (1) 
Pocket2Mol_34_num_sample_100-1

>  <s_m_source_file>  (1) 
generated__ligand_Pocket2Mol_2026-05-06_prepared.sdf

>  <GenAI_Model>  (1) 
Pocket2Mol

>  <Protein>  (1) 
GPCR_5HT2C

$$$$
Pocket2Mol_90_num_sample_100
     RDKit          3D

  0  0  0  0  0  0  0  0  0  0999 V3000
M  V30 BEGIN CTAB
M  V30 COUNTS 14 14 0 0 1
M  V30 BEGIN ATOM
M  V30 1 C 40.473697 30.421429 51.052304 0
M  V30 2 C 39.867404 30.205981 52.339545 0
M  V30 3 C 39.252842 29.014126 52.360209 0
M  V30 4 C 39.465049 28.404756 51.033994 0
M  V30 5 C 40.248025 29.369972 50.257931 0
M  V30 6 C 38.533727 28.507659 53.528791 0
M  V30 7 O 39.067406 27.305438 50.653512 0
M  V30 8 N 37.983048 27.311862 53.305429 0
M  V30 9 O 38.428389 29.091610 54.603649 0
M  V30 10 H 41.027678 31.300867 50.768403 0
M  V30 11 H 39.898041 30.904513 53.164405 0
M  V30 12 H 40.567035 29.225282 49.236572 0
M  V30 13 H 38.087262 26.868753 52.398824 0
M  V30 14 H 37.459154 26.855936 54.036408 0
M  V30 END ATOM
M  V30 BEGIN BOND
M  V30 1 1 2 1
M  V30 2 2 3 2
M  V30 3 1 4 3
M  V30 4 2 5 1
M  V30 5 1 5 4
M  V30 6 1 6 3
M  V30 7 2 7 4
M  V30 8 1 8 6
M  V30 9 2 9 6
M  V30 10 1 10 1
M  V30 11 1 11 2
M  V30 12 1 12 5
M  V30 13 1 13 8
M  V30 14 1 14 8
M  V30 END BOND
M  V30 END CTAB
M  END
>  <i_epik_Tot_Q>  (1) 
0

>  <i_epik_Tot_abs_Q>  (1) 
0

>  <i_i_glide_confnum>  (1) 
1

>  <i_i_glide_lignum>  (1) 
95

>  <i_i_glide_posenum>  (1) 
317

>  <i_i_glide_rotatable_bonds>  (1) 
1

>  <i_lp_mmshare_version>  (1) 
72125

>  <i_m_source_file_index>  (1) 
91

>  <i_f3d_flags>  (1) 
0

>  <num_sample>  (1) 
100

>  <b_lp_Chiralities_Consistent>  (1) 
1

>  <r_epik_Charging_Adjusted_Penalty>  (1) 
0.0065050288304222097

>  <r_epik_Ionization_Penalty>  (1) 
0.0032614418865694397

>  <r_epik_Ionization_Penalty_Charging>  (1) 
0

>  <r_epik_Ionization_Penalty_Neutral>  (1) 
0.0032614418865694397

>  <r_epik_State_Penalty>  (1) 
0.0065050288304222097

>  <r_glide_ring_energy>  (1) 
0

>  <r_i_docking_score>  (1) 
-5.7975810950891464

>  <r_i_glide_ecoul>  (1) 
0.033317954084781887

>  <r_i_glide_eff_state_penalty>  (1) 
0.0065050288304222097

>  <r_i_glide_einternal>  (1) 
0.023804996848374227

>  <r_i_glide_emodel>  (1) 
-30.021826327350091

>  <r_i_glide_emodel_strain>  (1) 
0

>  <r_i_glide_energy>  (1) 
-21.526708444050207

>  <r_i_glide_erotb>  (1) 
0

>  <r_i_glide_esite>  (1) 
0

>  <r_i_glide_evdw>  (1) 
-21.56002639813499

>  <r_i_glide_gscore>  (1) 
-5.8040861239195687

>  <r_i_glide_gscore_strain>  (1) 
0

>  <r_i_glide_hbond>  (1) 
0

>  <r_i_glide_ligand_efficiency>  (1) 
-0.64417567723212743

>  <r_i_glide_ligand_efficiency_ln>  (1) 
-1.8133168174002416

>  <r_i_glide_ligand_efficiency_sa>  (1) 
-1.3399394054140532

>  <r_i_glide_lipo>  (1) 
-1.3195470902800273

>  <r_i_glide_metal>  (1) 
-0

>  <r_i_glide_rewards>  (1) 
-3.4115354068455099

>  <r_lp_Energy>  (1) 
1.7710899999999998

>  <s_epik_cmdline>  (1) 
J2VwaWtfcHl0aG9uJywgJy1waHQnLCAnMS4wJywgJy1waCcsICc3LjQnLCAnLXRuJywgJzgnLCAnLW1hJywgJzUwMCcsICctaW1hZScsICc8aW5maWxlLm1hZT4nLCAnLW9tYWUnLCAnPG91dGZpbGUubWFlPic=

>  <s_epik_input>  (1) 
Tz1DMVtDSF09W0NIXVtDSF09QzFDKD1PKVtOSDJd

>  <s_glide_docking_method>  (1) 
confgen

>  <s_i_glide_gridfile>  (1) 
gpcr_5ht2c_6bqh_protein_autoprepared_prepared

>  <s_lp_Force_Field>  (1) 
S-OPLS

>  <s_lp_Variant>  (1) 
Pocket2Mol_90_num_sample_100-1

>  <s_m_source_file>  (1) 
generated__ligand_Pocket2Mol_2026-05-06_prepared.sdf

>  <GenAI_Model>  (1) 
Pocket2Mol

>  <Protein>  (1) 
GPCR_5HT2C

$$$$
Pocket2Mol_65_num_sample_100
     RDKit          3D

  0  0  0  0  0  0  0  0  0  0999 V3000
M  V30 BEGIN CTAB
M  V30 COUNTS 20 20 0 0 1
M  V30 BEGIN ATOM
M  V30 1 C 39.527023 29.221423 51.938673 0
M  V30 2 C 39.302613 29.975787 53.259239 0
M  V30 3 C 38.719064 27.937776 52.070072 0
M  V30 4 C 37.721134 28.257633 53.175882 0
M  V30 5 N 38.500389 29.081449 54.088193 0
M  V30 6 N 37.699754 29.761664 55.062042 0 CHG=1
M  V30 7 C 37.801217 29.422640 56.356763 0
M  V30 8 N 37.067648 30.021429 57.306019 0
M  V30 9 H 39.169244 29.815762 51.097217 0
M  V30 10 H 40.582123 29.009438 51.762210 0
M  V30 11 H 38.772746 30.909624 53.071283 0
M  V30 12 H 40.241544 30.224260 53.755793 0
M  V30 13 H 38.235608 27.645639 51.136941 0
M  V30 14 H 39.367391 27.116534 52.380139 0
M  V30 15 H 37.333710 27.360074 53.659716 0
M  V30 16 H 36.880663 28.821421 52.771211 0
M  V30 17 H 38.495811 28.640886 56.643603 0
M  V30 18 H 36.383175 30.765557 57.053499 0
M  V30 19 H 37.171781 29.748922 58.271419 0
M  V30 20 H 37.083949 30.485439 54.715517 0
M  V30 END ATOM
M  V30 BEGIN BOND
M  V30 1 1 2 1
M  V30 2 1 3 1
M  V30 3 1 4 3
M  V30 4 1 5 2
M  V30 5 1 5 4
M  V30 6 1 6 5
M  V30 7 2 7 6
M  V30 8 1 8 7
M  V30 9 1 9 1
M  V30 10 1 10 1
M  V30 11 1 11 2
M  V30 12 1 12 2
M  V30 13 1 13 3
M  V30 14 1 14 3
M  V30 15 1 15 4
M  V30 16 1 16 4
M  V30 17 1 17 7
M  V30 18 1 18 8
M  V30 19 1 19 8
M  V30 20 1 20 6
M  V30 END BOND
M  V30 END CTAB
M  END
>  <i_epik_Tot_Q>  (1) 
1

>  <i_epik_Tot_abs_Q>  (1) 
1

>  <i_i_glide_confnum>  (1) 
1

>  <i_i_glide_lignum>  (1) 
69

>  <i_i_glide_posenum>  (1) 
119

>  <i_i_glide_rotatable_bonds>  (1) 
1

>  <i_lp_mmshare_version>  (1) 
72125

>  <i_m_source_file_index>  (1) 
66

>  <i_f3d_flags>  (1) 
0

>  <num_sample>  (1) 
100

>  <b_lp_Chiralities_Consistent>  (1) 
1

>  <r_epik_Charging_Adjusted_Penalty>  (1) 
1.6312684749255997e-05

>  <r_epik_Ionization_Penalty>  (1) 
1.6401951855999153e-05

>  <r_epik_Ionization_Penalty_Charging>  (1) 
1.6312684749255997e-05

>  <r_epik_Ionization_Penalty_Neutral>  (1) 
8.9267106743156534e-08

>  <r_epik_State_Penalty>  (1) 
-0

>  <r_glide_ring_energy>  (1) 
0

>  <r_i_docking_score>  (1) 
-5.7955466682211236

>  <r_i_glide_ecoul>  (1) 
-7.2252546974656306

>  <r_i_glide_eff_state_penalty>  (1) 
-0

>  <r_i_glide_einternal>  (1) 
3.8254801033421604e-05

>  <r_i_glide_emodel>  (1) 
-32.194554032576804

>  <r_i_glide_emodel_strain>  (1) 
0.12516608081267933

>  <r_i_glide_energy>  (1) 
-19.840753310123166

>  <r_i_glide_erotb>  (1) 
0

>  <r_i_glide_esite>  (1) 
-0.14090521907596837

>  <r_i_glide_evdw>  (1) 
-12.615498612657534

>  <r_i_glide_gscore>  (1) 
-5.7955466682211236

>  <r_i_glide_gscore_strain>  (1) 
0

>  <r_i_glide_hbond>  (1) 
-0.17943011518411928

>  <r_i_glide_ligand_efficiency>  (1) 
-0.72444333352764045

>  <r_i_glide_ligand_efficiency_ln>  (1) 
-1.8820122381864253

>  <r_i_glide_ligand_efficiency_sa>  (1) 
-1.4488866670552811

>  <r_i_glide_lipo>  (1) 
-1.1798882549220377

>  <r_i_glide_metal>  (1) 
-0

>  <r_i_glide_rewards>  (1) 
-2.5807599437862772

>  <r_lp_Energy>  (1) 
12.792574

>  <r_lp_tautomer_probability>  (1) 
1

>  <s_epik_Chemistry_Notes>  (1) 
This compound has an imine and may undergo hydrolysis.

>  <s_epik_cmdline>  (1) 
J2VwaWtfcHl0aG9uJywgJy1waHQnLCAnMS4wJywgJy1waCcsICc3LjQnLCAnLXRuJywgJzgnLCAnLW1hJywgJzUwMCcsICctaW1hZScsICc8aW5maWxlLm1hZT4nLCAnLW9tYWUnLCAnPG91dGZpbGUubWFlPic=

>  <s_epik_input>  (1) 
W0NIMl0xW0NIMl1bQ0gyXVtDSDJdTjEvTj1bQ0hdL1tOSDJd

>  <s_glide_docking_method>  (1) 
confgen

>  <s_i_glide_gridfile>  (1) 
gpcr_5ht2c_6bqh_protein_autoprepared_prepared

>  <s_lp_Force_Field>  (1) 
S-OPLS

>  <s_lp_Variant>  (1) 
Pocket2Mol_65_num_sample_100-1

>  <s_m_source_file>  (1) 
generated__ligand_Pocket2Mol_2026-05-06_prepared.sdf

>  <GenAI_Model>  (1) 
Pocket2Mol

>  <Protein>  (1) 
GPCR_5HT2C

$$$$
Pocket2Mol_56_num_sample_100
     RDKit          3D

  0  0  0  0  0  0  0  0  0  0999 V3000
M  V30 BEGIN CTAB
M  V30 COUNTS 17 17 0 0 1
M  V30 BEGIN ATOM
M  V30 1 C 38.667406 27.776002 51.750627 0
M  V30 2 C 39.487572 28.437768 50.827411 0
M  V30 3 C 40.060804 29.671343 51.193417 0
M  V30 4 C 40.945179 30.423543 50.223265 0
M  V30 5 C 38.448237 28.374524 53.001241 0
M  V30 6 C 37.559079 27.708415 54.030538 0
M  V30 7 C 39.067433 29.609925 53.280104 0
M  V30 8 N 39.867392 30.257877 52.399297 0
M  V30 9 H 38.210400 26.830200 51.501916 0
M  V30 10 H 39.671667 28.012983 49.853504 0
M  V30 11 H 41.060441 29.884396 49.283746 0
M  V30 12 H 40.506166 31.395177 49.999282 0
M  V30 13 H 41.935338 30.580687 50.650698 0
M  V30 14 H 37.176551 26.753529 53.668271 0
M  V30 15 H 38.107572 27.529693 54.955623 0
M  V30 16 H 36.705869 28.348632 54.253350 0
M  V30 17 H 38.915821 30.093465 54.233899 0
M  V30 END ATOM
M  V30 BEGIN BOND
M  V30 1 2 2 1
M  V30 2 1 3 2
M  V30 3 1 4 3
M  V30 4 1 5 1
M  V30 5 1 6 5
M  V30 6 2 7 5
M  V30 7 2 8 3
M  V30 8 1 8 7
M  V30 9 1 9 1
M  V30 10 1 10 2
M  V30 11 1 11 4
M  V30 12 1 12 4
M  V30 13 1 13 4
M  V30 14 1 14 6
M  V30 15 1 15 6
M  V30 16 1 16 6
M  V30 17 1 17 7
M  V30 END BOND
M  V30 END CTAB
M  END
>  <i_epik_Tot_Q>  (1) 
0

>  <i_epik_Tot_abs_Q>  (1) 
0

>  <i_i_glide_confnum>  (1) 
1

>  <i_i_glide_lignum>  (1) 
60

>  <i_i_glide_posenum>  (1) 
64

>  <i_i_glide_rotatable_bonds>  (1) 
0

>  <i_lp_mmshare_version>  (1) 
72125

>  <i_m_source_file_index>  (1) 
57

>  <i_f3d_flags>  (1) 
0

>  <num_sample>  (1) 
100

>  <b_lp_Chiralities_Consistent>  (1) 
1

>  <r_epik_Charging_Adjusted_Penalty>  (1) 
0.022258434784609007

>  <r_epik_Ionization_Penalty>  (1) 
0.022258434785048374

>  <r_epik_Ionization_Penalty_Charging>  (1) 
0

>  <r_epik_Ionization_Penalty_Neutral>  (1) 
0.022258434785048374

>  <r_epik_State_Penalty>  (1) 
0.022258434784609007

>  <r_glide_ring_energy>  (1) 
0

>  <r_i_docking_score>  (1) 
-5.7945603441592164

>  <r_i_glide_ecoul>  (1) 
-0.52193706720271493

>  <r_i_glide_eff_state_penalty>  (1) 
0.022258434784609007

>  <r_i_glide_einternal>  (1) 
0

>  <r_i_glide_emodel>  (1) 
-27.029019308305642

>  <r_i_glide_emodel_strain>  (1) 
0

>  <r_i_glide_energy>  (1) 
-20.077023912128709

>  <r_i_glide_erotb>  (1) 
0

>  <r_i_glide_esite>  (1) 
0

>  <r_i_glide_evdw>  (1) 
-19.555086844925995

>  <r_i_glide_gscore>  (1) 
-5.8168187789438255

>  <r_i_glide_gscore_strain>  (1) 
0

>  <r_i_glide_hbond>  (1) 
0

>  <r_i_glide_ligand_efficiency>  (1) 
-0.72432004301990205

>  <r_i_glide_ligand_efficiency_ln>  (1) 
-1.8816919450265917

>  <r_i_glide_ligand_efficiency_sa>  (1) 
-1.4486400860398043

>  <r_i_glide_lipo>  (1) 
-2.1431899803662779

>  <r_i_glide_metal>  (1) 
-0

>  <r_i_glide_rewards>  (1) 
-2.6175838962508404

>  <r_lp_Energy>  (1) 
7.9607329999999994

>  <s_epik_cmdline>  (1) 
J2VwaWtfcHl0aG9uJywgJy1waHQnLCAnMS4wJywgJy1waCcsICc3LjQnLCAnLXRuJywgJzgnLCAnLW1hJywgJzUwMCcsICctaW1hZScsICc8aW5maWxlLm1hZT4nLCAnLW9tYWUnLCAnPG91dGZpbGUubWFlPic=

>  <s_epik_input>  (1) 
bjFbY0hdYyhbQ0gzXSlbY0hdW2NIXWMxW0NIM10=

>  <s_glide_docking_method>  (1) 
confgen

>  <s_i_glide_gridfile>  (1) 
gpcr_5ht2c_6bqh_protein_autoprepared_prepared

>  <s_lp_Force_Field>  (1) 
S-OPLS

>  <s_lp_Variant>  (1) 
Pocket2Mol_56_num_sample_100-1

>  <s_m_source_file>  (1) 
generated__ligand_Pocket2Mol_2026-05-06_prepared.sdf

>  <GenAI_Model>  (1) 
Pocket2Mol

>  <Protein>  (1) 
GPCR_5HT2C

$$$$
Pocket2Mol_34_num_sample_100
     RDKit          3D

  0  0  0  0  0  0  0  0  0  0999 V3000
M  V30 BEGIN CTAB
M  V30 COUNTS 12 12 0 0 1
M  V30 BEGIN ATOM
M  V30 1 C 39.067403 29.474419 53.313697 0
M  V30 2 C 39.867406 30.419094 52.640715 0
M  V30 3 C 40.267388 30.183213 51.310477 0
M  V30 4 C 39.867386 29.002740 50.653504 0
M  V30 5 C 38.667418 28.294150 52.656880 0
M  V30 6 F 37.898711 27.386554 53.303759 0
M  V30 7 C 39.067403 28.058367 51.326903 0
M  V30 8 H 38.760119 29.654074 54.333372 0
M  V30 9 H 40.173777 31.323894 53.144818 0
M  V30 10 H 40.880759 30.907388 50.794338 0
M  V30 11 H 40.173766 28.821434 49.633729 0
M  V30 12 H 38.760109 27.153110 50.824389 0
M  V30 END ATOM
M  V30 BEGIN BOND
M  V30 1 1 2 1
M  V30 2 2 3 2
M  V30 3 1 4 3
M  V30 4 2 5 1
M  V30 5 1 6 5
M  V30 6 2 7 4
M  V30 7 1 7 5
M  V30 8 1 8 1
M  V30 9 1 9 2
M  V30 10 1 10 3
M  V30 11 1 11 4
M  V30 12 1 12 7
M  V30 END BOND
M  V30 END CTAB
M  END
>  <i_epik_Tot_Q>  (1) 
0

>  <i_epik_Tot_abs_Q>  (1) 
0

>  <i_i_glide_confnum>  (1) 
1

>  <i_i_glide_lignum>  (1) 
37

>  <i_i_glide_posenum>  (1) 
360

>  <i_i_glide_rotatable_bonds>  (1) 
0

>  <i_lp_mmshare_version>  (1) 
72125

>  <i_m_source_file_index>  (1) 
35

>  <i_f3d_flags>  (1) 
0

>  <num_sample>  (1) 
100

>  <b_lp_Chiralities_Consistent>  (1) 
1

>  <r_epik_Charging_Adjusted_Penalty>  (1) 
0

>  <r_epik_Ionization_Penalty>  (1) 
0

>  <r_epik_Ionization_Penalty_Charging>  (1) 
0

>  <r_epik_Ionization_Penalty_Neutral>  (1) 
0

>  <r_epik_State_Penalty>  (1) 
-0

>  <r_glide_ring_energy>  (1) 
0

>  <r_i_docking_score>  (1) 
-5.7923656541768489

>  <r_i_glide_ecoul>  (1) 
-0.49497277933729761

>  <r_i_glide_eff_state_penalty>  (1) 
-0

>  <r_i_glide_einternal>  (1) 
0

>  <r_i_glide_emodel>  (1) 
-21.839633103465836

>  <r_i_glide_emodel_strain>  (1) 
0

>  <r_i_glide_energy>  (1) 
-16.159068293356775

>  <r_i_glide_erotb>  (1) 
0

>  <r_i_glide_esite>  (1) 
0

>  <r_i_glide_evdw>  (1) 
-15.664095514019476

>  <r_i_glide_gscore>  (1) 
-5.7923656541768489

>  <r_i_glide_gscore_strain>  (1) 
0

>  <r_i_glide_hbond>  (1) 
0

>  <r_i_glide_ligand_efficiency>  (1) 
-0.8274808077395498

>  <r_i_glide_ligand_efficiency_ln>  (1) 
-1.9662397565093181

>  <r_i_glide_ligand_efficiency_sa>  (1) 
-1.5829138402706691

>  <r_i_glide_lipo>  (1) 
-1.855100960566421

>  <r_i_glide_metal>  (1) 
-0

>  <r_i_glide_rewards>  (1) 
-3.0798140010088595

>  <r_lp_Energy>  (1) 
8.194445

>  <r_lp_tautomer_probability>  (1) 
1

>  <s_epik_cmdline>  (1) 
J2VwaWtfcHl0aG9uJywgJy1waHQnLCAnMS4wJywgJy1waCcsICc3LjQnLCAnLXRuJywgJzgnLCAnLW1hJywgJzUwMCcsICctaW1hZScsICc8aW5maWxlLm1hZT4nLCAnLW9tYWUnLCAnPG91dGZpbGUubWFlPic=

>  <s_epik_input>  (1) 
RmMxW2NIXVtjSF1bY0hdW2NIXVtjSF0x

>  <s_glide_docking_method>  (1) 
confgen

>  <s_i_glide_gridfile>  (1) 
gpcr_5ht2c_6bqh_protein_autoprepared_prepared

>  <s_lp_Force_Field>  (1) 
S-OPLS

>  <s_lp_Variant>  (1) 
Pocket2Mol_34_num_sample_100-1

>  <s_m_source_file>  (1) 
generated__ligand_Pocket2Mol_2026-05-06_prepared.sdf

>  <GenAI_Model>  (1) 
Pocket2Mol

>  <Protein>  (1) 
GPCR_5HT2C

$$$$
Pocket2Mol_30_num_sample_100
     RDKit          3D

  0  0  0  0  0  0  0  0  0  0999 V3000
M  V30 BEGIN CTAB
M  V30 COUNTS 14 14 0 0 1
M  V30 BEGIN ATOM
M  V30 1 C 39.867403 30.404909 52.659626 0
M  V30 2 C 39.067403 29.402649 53.243391 0
M  V30 3 C 38.664917 28.287762 52.479812 0
M  V30 4 N 37.867403 27.300123 53.053499 0
M  V30 5 C 40.267399 30.292430 51.313415 0
M  V30 6 C 39.067406 28.175010 51.134422 0
M  V30 7 C 39.867411 29.177649 50.551665 0
M  V30 8 H 40.173896 31.259167 53.244242 0
M  V30 9 H 38.761065 29.491334 54.275697 0
M  V30 10 H 37.404087 26.621662 52.458650 0
M  V30 11 H 37.434773 27.457892 53.951936 0
M  V30 12 H 40.879827 31.062209 50.865299 0
M  V30 13 H 38.760399 27.321217 50.547786 0
M  V30 14 H 40.171978 29.092544 49.519031 0
M  V30 END ATOM
M  V30 BEGIN BOND
M  V30 1 1 2 1
M  V30 2 2 3 2
M  V30 3 1 4 3
M  V30 4 2 5 1
M  V30 5 1 6 3
M  V30 6 1 7 5
M  V30 7 2 7 6
M  V30 8 1 8 1
M  V30 9 1 9 2
M  V30 10 1 10 4
M  V30 11 1 11 4
M  V30 12 1 12 5
M  V30 13 1 13 6
M  V30 14 1 14 7
M  V30 END BOND
M  V30 END CTAB
M  END
>  <i_epik_Tot_Q>  (1) 
0

>  <i_epik_Tot_abs_Q>  (1) 
0

>  <i_i_glide_confnum>  (1) 
1

>  <i_i_glide_lignum>  (1) 
33

>  <i_i_glide_posenum>  (1) 
368

>  <i_i_glide_rotatable_bonds>  (1) 
0

>  <i_lp_mmshare_version>  (1) 
72125

>  <i_m_source_file_index>  (1) 
31

>  <i_f3d_flags>  (1) 
0

>  <num_sample>  (1) 
100

>  <b_lp_Chiralities_Consistent>  (1) 
1

>  <r_epik_Charging_Adjusted_Penalty>  (1) 
0

>  <r_epik_Ionization_Penalty>  (1) 
0.00088153335660618348

>  <r_epik_Ionization_Penalty_Charging>  (1) 
0

>  <r_epik_Ionization_Penalty_Neutral>  (1) 
0.00088153335660618348

>  <r_epik_State_Penalty>  (1) 
-0

>  <r_glide_ring_energy>  (1) 
0

>  <r_i_docking_score>  (1) 
-5.7903722179765751

>  <r_i_glide_ecoul>  (1) 
-2.0784174105317734

>  <r_i_glide_eff_state_penalty>  (1) 
-0

>  <r_i_glide_einternal>  (1) 
0

>  <r_i_glide_emodel>  (1) 
-25.327444182583051

>  <r_i_glide_emodel_strain>  (1) 
0

>  <r_i_glide_energy>  (1) 
-18.893791778953343

>  <r_i_glide_erotb>  (1) 
0

>  <r_i_glide_esite>  (1) 
0

>  <r_i_glide_evdw>  (1) 
-16.815374368421569

>  <r_i_glide_gscore>  (1) 
-5.7903722179765751

>  <r_i_glide_gscore_strain>  (1) 
0

>  <r_i_glide_hbond>  (1) 
-0.22708368825652397

>  <r_i_glide_ligand_efficiency>  (1) 
-0.82719603113951068

>  <r_i_glide_ligand_efficiency_ln>  (1) 
-1.9655630772830652

>  <r_i_glide_ligand_efficiency_sa>  (1) 
-1.5823690822323304

>  <r_i_glide_lipo>  (1) 
-1.8612462325091879

>  <r_i_glide_metal>  (1) 
-0

>  <r_i_glide_rewards>  (1) 
-2.5495109672100185

>  <r_lp_Energy>  (1) 
7.0325409999999993

>  <r_lp_tautomer_probability>  (1) 
1

>  <s_epik_cmdline>  (1) 
J2VwaWtfcHl0aG9uJywgJy1waHQnLCAnMS4wJywgJy1waCcsICc3LjQnLCAnLXRuJywgJzgnLCAnLW1hJywgJzUwMCcsICctaW1hZScsICc8aW5maWxlLm1hZT4nLCAnLW9tYWUnLCAnPG91dGZpbGUubWFlPic=

>  <s_epik_input>  (1) 
W2NIXTFbY0hdW2NIXVtjSF1bY0hdYzFbTkgyXQ==

>  <s_glide_docking_method>  (1) 
confgen

>  <s_i_glide_gridfile>  (1) 
gpcr_5ht2c_6bqh_protein_autoprepared_prepared

>  <s_lp_Force_Field>  (1) 
S-OPLS

>  <s_lp_Variant>  (1) 
Pocket2Mol_30_num_sample_100-1

>  <s_m_source_file>  (1) 
generated__ligand_Pocket2Mol_2026-05-06_prepared.sdf

>  <GenAI_Model>  (1) 
Pocket2Mol

>  <Protein>  (1) 
GPCR_5HT2C

$$$$
Pocket2Mol_73_num_sample_100
     RDKit          3D

  0  0  0  0  0  0  0  0  0  0999 V3000
M  V30 BEGIN CTAB
M  V30 COUNTS 15 16 0 0 1
M  V30 BEGIN ATOM
M  V30 1 C 38.203556 29.024861 54.613821 0
M  V30 2 C 38.669651 28.595395 53.299132 0
M  V30 3 C 38.687221 30.269100 54.782828 0
M  V30 4 C 39.457904 30.671874 53.618785 0
M  V30 5 C 39.445640 29.667766 52.732092 0
M  V30 6 C 40.038014 29.506507 51.410278 0
M  V30 7 N 38.472937 27.497916 52.693736 0
M  V30 8 N 39.867404 28.421483 50.764366 0
M  V30 9 C 39.067405 27.316786 51.349440 0
M  V30 10 H 37.596080 28.414637 55.265761 0
M  V30 11 H 38.525431 30.880370 55.658516 0
M  V30 12 H 39.956565 31.621430 53.490728 0
M  V30 13 H 40.618092 30.347793 51.022518 0
M  V30 14 H 38.262822 27.076556 50.653553 0
M  V30 15 H 39.691844 26.423017 51.373547 0
M  V30 END ATOM
M  V30 BEGIN BOND
M  V30 1 1 2 1
M  V30 2 2 3 1
M  V30 3 1 4 3
M  V30 4 1 5 2
M  V30 5 2 5 4
M  V30 6 1 6 5
M  V30 7 2 7 2
M  V30 8 2 8 6
M  V30 9 1 9 7
M  V30 10 1 9 8
M  V30 11 1 10 1
M  V30 12 1 11 3
M  V30 13 1 12 4
M  V30 14 1 13 6
M  V30 15 1 14 9
M  V30 16 1 15 9
M  V30 END BOND
M  V30 END CTAB
M  END
>  <i_epik_Tot_Q>  (1) 
0

>  <i_epik_Tot_abs_Q>  (1) 
0

>  <i_i_glide_confnum>  (1) 
1

>  <i_i_glide_lignum>  (1) 
78

>  <i_i_glide_posenum>  (1) 
214

>  <i_i_glide_rotatable_bonds>  (1) 
0

>  <i_lp_mmshare_version>  (1) 
72125

>  <i_m_source_file_index>  (1) 
74

>  <i_f3d_flags>  (1) 
0

>  <num_sample>  (1) 
100

>  <b_lp_Chiralities_Consistent>  (1) 
1

>  <r_epik_Charging_Adjusted_Penalty>  (1) 
0

>  <r_epik_Ionization_Penalty>  (1) 
1.1225786931258508e-06

>  <r_epik_Ionization_Penalty_Charging>  (1) 
0

>  <r_epik_Ionization_Penalty_Neutral>  (1) 
1.1225786931258508e-06

>  <r_epik_State_Penalty>  (1) 
-0

>  <r_glide_ring_energy>  (1) 
0

>  <r_i_docking_score>  (1) 
-5.7869101990240859

>  <r_i_glide_ecoul>  (1) 
-0.17529450717513423

>  <r_i_glide_eff_state_penalty>  (1) 
-0

>  <r_i_glide_einternal>  (1) 
0

>  <r_i_glide_emodel>  (1) 
-29.78232862833044

>  <r_i_glide_emodel_strain>  (1) 
6.9970511162864568e-07

>  <r_i_glide_energy>  (1) 
-21.881038754844351

>  <r_i_glide_erotb>  (1) 
0

>  <r_i_glide_esite>  (1) 
0

>  <r_i_glide_evdw>  (1) 
-21.705744247669216

>  <r_i_glide_gscore>  (1) 
-5.7869101990240859

>  <r_i_glide_gscore_strain>  (1) 
0

>  <r_i_glide_hbond>  (1) 
0

>  <r_i_glide_ligand_efficiency>  (1) 
-0.64299002211378731

>  <r_i_glide_ligand_efficiency_ln>  (1) 
-1.8099792676576612

>  <r_i_glide_ligand_efficiency_sa>  (1) 
-1.3374731433826752

>  <r_i_glide_lipo>  (1) 
-0.82871564150276367

>  <r_i_glide_metal>  (1) 
-0

>  <r_i_glide_rewards>  (1) 
-3.846613169061591

>  <r_lp_Energy>  (1) 
3.4627279999999998

>  <r_lp_tautomer_probability>  (1) 
1

>  <s_epik_Chemistry_Notes>  (1) 
This compound has an imine and may undergo hydrolysis. This compound contains an acetal/aminal-like group ( X-CH(R)-Y where X, Y are N, S, or O) that may be acid/base labile, releasing an aldehyde.

>  <s_epik_cmdline>  (1) 
J2VwaWtfcHl0aG9uJywgJy1waHQnLCAnMS4wJywgJy1waCcsICc3LjQnLCAnLXRuJywgJzgnLCAnLW1hJywgJzUwMCcsICctaW1hZScsICc8aW5maWxlLm1hZT4nLCAnLW9tYWUnLCAnPG91dGZpbGUubWFlPic=

>  <s_epik_input>  (1) 
W0NIXTE9W0NIXVtDSF09QyhDMT0yKVtDSF09TltDSDJdTjI=

>  <s_glide_docking_method>  (1) 
confgen

>  <s_i_glide_gridfile>  (1) 
gpcr_5ht2c_6bqh_protein_autoprepared_prepared

>  <s_lp_Force_Field>  (1) 
S-OPLS

>  <s_lp_Variant>  (1) 
Pocket2Mol_73_num_sample_100-1

>  <s_m_source_file>  (1) 
generated__ligand_Pocket2Mol_2026-05-06_prepared.sdf

>  <GenAI_Model>  (1) 
Pocket2Mol

>  <Protein>  (1) 
GPCR_5HT2C

$$$$
Pocket2Mol_95_num_sample_100
     RDKit          3D

  0  0  0  0  0  0  0  0  0  0999 V3000
M  V30 BEGIN CTAB
M  V30 COUNTS 14 15 0 0 1
M  V30 BEGIN ATOM
M  V30 1 C 38.850076 31.285987 54.673067 0
M  V30 2 C 39.513347 30.821410 53.453502 0
M  V30 3 C 39.065076 29.595586 53.174818 0
M  V30 4 C 38.129253 29.227968 54.167705 0
M  V30 5 C 38.006347 30.325310 55.114492 0
M  V30 6 C 39.426450 28.738624 52.063632 0
M  V30 7 O 40.230051 29.052073 51.186429 0
M  V30 8 N 37.521979 28.118313 54.186337 0
M  V30 9 C 37.887886 27.238041 53.081000 0
M  V30 10 N 38.738172 27.501854 52.119407 0
M  V30 11 H 39.006212 32.245709 55.144041 0
M  V30 12 H 40.237586 31.376752 52.875585 0
M  V30 13 H 37.350498 30.310990 55.974087 0
M  V30 14 H 37.402843 26.259830 53.053576 0
M  V30 END ATOM
M  V30 BEGIN BOND
M  V30 1 1 2 1
M  V30 2 2 3 2
M  V30 3 1 4 3
M  V30 4 2 5 1
M  V30 5 1 5 4
M  V30 6 1 6 3
M  V30 7 2 7 6
M  V30 8 2 8 4
M  V30 9 1 9 8
M  V30 10 1 10 6
M  V30 11 2 10 9
M  V30 12 1 11 1
M  V30 13 1 12 2
M  V30 14 1 13 5
M  V30 15 1 14 9
M  V30 END BOND
M  V30 END CTAB
M  END
>  <i_epik_Tot_Q>  (1) 
0

>  <i_epik_Tot_abs_Q>  (1) 
0

>  <i_i_glide_confnum>  (1) 
1

>  <i_i_glide_lignum>  (1) 
100

>  <i_i_glide_posenum>  (1) 
246

>  <i_i_glide_rotatable_bonds>  (1) 
0

>  <i_lp_mmshare_version>  (1) 
72125

>  <i_m_source_file_index>  (1) 
96

>  <i_f3d_flags>  (1) 
0

>  <num_sample>  (1) 
100

>  <b_lp_Chiralities_Consistent>  (1) 
1

>  <r_epik_Charging_Adjusted_Penalty>  (1) 
0

>  <r_epik_Ionization_Penalty>  (1) 
0.00072225958823983786

>  <r_epik_Ionization_Penalty_Charging>  (1) 
0

>  <r_epik_Ionization_Penalty_Neutral>  (1) 
0.00072225958823983786

>  <r_epik_State_Penalty>  (1) 
-0

>  <r_glide_ring_energy>  (1) 
0

>  <r_i_docking_score>  (1) 
-5.7846716794028623

>  <r_i_glide_ecoul>  (1) 
-1.3659780113248812

>  <r_i_glide_eff_state_penalty>  (1) 
-0

>  <r_i_glide_einternal>  (1) 
0

>  <r_i_glide_emodel>  (1) 
-32.535827735619947

>  <r_i_glide_emodel_strain>  (1) 
0

>  <r_i_glide_energy>  (1) 
-23.989700152742664

>  <r_i_glide_erotb>  (1) 
0

>  <r_i_glide_esite>  (1) 
0

>  <r_i_glide_evdw>  (1) 
-22.623722141417783

>  <r_i_glide_gscore>  (1) 
-5.7846716794028623

>  <r_i_glide_gscore_strain>  (1) 
0

>  <r_i_glide_hbond>  (1) 
0

>  <r_i_glide_ligand_efficiency>  (1) 
-0.57846716794028619

>  <r_i_glide_ligand_efficiency_ln>  (1) 
-1.7515587082598423

>  <r_i_glide_ligand_efficiency_sa>  (1) 
-1.2462697336550523

>  <r_i_glide_lipo>  (1) 
-0.65909334178946133

>  <r_i_glide_metal>  (1) 
-0

>  <r_i_glide_rewards>  (1) 
-3.7894955288437808

>  <r_lp_Energy>  (1) 
19.123919000000001

>  <r_lp_tautomer_probability>  (1) 
1

>  <s_epik_Chemistry_Notes>  (1) 
This compound has an imine and may undergo hydrolysis.

>  <s_epik_cmdline>  (1) 
J2VwaWtfcHl0aG9uJywgJy1waHQnLCAnMS4wJywgJy1waCcsICc3LjQnLCAnLXRuJywgJzgnLCAnLW1hJywgJzUwMCcsICctaW1hZScsICc8aW5maWxlLm1hZT4nLCAnLW9tYWUnLCAnPG91dGZpbGUubWFlPic=

>  <s_epik_input>  (1) 
W0NIXT0xW0NIXT1bQ0hdQyhDMTIpPU5bQ0hdPU5DMj1P

>  <s_glide_docking_method>  (1) 
confgen

>  <s_i_glide_gridfile>  (1) 
gpcr_5ht2c_6bqh_protein_autoprepared_prepared

>  <s_lp_Force_Field>  (1) 
S-OPLS

>  <s_lp_Variant>  (1) 
Pocket2Mol_95_num_sample_100-1

>  <s_m_source_file>  (1) 
generated__ligand_Pocket2Mol_2026-05-06_prepared.sdf

>  <GenAI_Model>  (1) 
Pocket2Mol

>  <Protein>  (1) 
GPCR_5HT2C

$$$$
Pocket2Mol_58_num_sample_100
     RDKit          3D

  0  0  0  0  0  0  0  0  0  0999 V3000
M  V30 BEGIN CTAB
M  V30 COUNTS 17 17 0 0 1
M  V30 BEGIN ATOM
M  V30 1 C 37.634563 27.616788 54.078122 0
M  V30 2 C 38.481493 28.359856 53.067915 0
M  V30 3 C 38.679674 27.819245 51.781447 0
M  V30 4 C 39.467407 28.509139 50.840504 0
M  V30 5 C 40.062112 29.739259 51.184632 0
M  V30 6 C 39.074067 29.591863 53.412441 0
M  V30 7 N 40.840130 30.421573 50.253154 0
M  V30 8 C 39.867264 30.279381 52.471567 0
M  V30 9 H 37.467650 28.217010 54.972864 0
M  V30 10 H 36.667321 27.365684 53.644233 0
M  V30 11 H 38.129669 26.692631 54.376012 0
M  V30 12 H 38.226037 26.875612 51.515601 0
M  V30 13 H 39.614533 28.094683 49.853525 0
M  V30 14 H 38.924119 30.008484 54.397840 0
M  V30 15 H 41.124379 31.377531 50.425170 0
M  V30 16 H 40.842650 30.130579 49.287625 0
M  V30 17 H 40.321892 31.221413 52.737378 0
M  V30 END ATOM
M  V30 BEGIN BOND
M  V30 1 1 2 1
M  V30 2 1 3 2
M  V30 3 2 4 3
M  V30 4 1 5 4
M  V30 5 2 6 2
M  V30 6 1 7 5
M  V30 7 2 8 5
M  V30 8 1 8 6
M  V30 9 1 9 1
M  V30 10 1 10 1
M  V30 11 1 11 1
M  V30 12 1 12 3
M  V30 13 1 13 4
M  V30 14 1 14 6
M  V30 15 1 15 7
M  V30 16 1 16 7
M  V30 17 1 17 8
M  V30 END BOND
M  V30 END CTAB
M  END
>  <i_epik_Tot_Q>  (1) 
0

>  <i_epik_Tot_abs_Q>  (1) 
0

>  <i_i_glide_confnum>  (1) 
1

>  <i_i_glide_lignum>  (1) 
62

>  <i_i_glide_posenum>  (1) 
293

>  <i_i_glide_rotatable_bonds>  (1) 
0

>  <i_lp_mmshare_version>  (1) 
72125

>  <i_m_source_file_index>  (1) 
59

>  <i_f3d_flags>  (1) 
0

>  <num_sample>  (1) 
100

>  <b_lp_Chiralities_Consistent>  (1) 
1

>  <r_epik_Charging_Adjusted_Penalty>  (1) 
0

>  <r_epik_Ionization_Penalty>  (1) 
0.002249743429862997

>  <r_epik_Ionization_Penalty_Charging>  (1) 
0

>  <r_epik_Ionization_Penalty_Neutral>  (1) 
0.002249743429862997

>  <r_epik_State_Penalty>  (1) 
-0

>  <r_glide_ring_energy>  (1) 
0

>  <r_i_docking_score>  (1) 
-5.7835486047939417

>  <r_i_glide_ecoul>  (1) 
-1.2135280638147876

>  <r_i_glide_eff_state_penalty>  (1) 
-0

>  <r_i_glide_einternal>  (1) 
0

>  <r_i_glide_emodel>  (1) 
-27.694252354650512

>  <r_i_glide_emodel_strain>  (1) 
0.0029529060915223226

>  <r_i_glide_energy>  (1) 
-20.459566639220309

>  <r_i_glide_erotb>  (1) 
0

>  <r_i_glide_esite>  (1) 
0

>  <r_i_glide_evdw>  (1) 
-19.246038575405521

>  <r_i_glide_gscore>  (1) 
-5.7835486047939417

>  <r_i_glide_gscore_strain>  (1) 
0

>  <r_i_glide_hbond>  (1) 
0

>  <r_i_glide_ligand_efficiency>  (1) 
-0.72294357559924272

>  <r_i_glide_ligand_efficiency_ln>  (1) 
-1.8781160566012938

>  <r_i_glide_ligand_efficiency_sa>  (1) 
-1.4458871511984857

>  <r_i_glide_lipo>  (1) 
-2.1500180839020864

>  <r_i_glide_metal>  (1) 
-0

>  <r_i_glide_rewards>  (1) 
-2.4891993825493612

>  <r_lp_Energy>  (1) 
4.6440260000000002

>  <r_lp_tautomer_probability>  (1) 
1

>  <s_epik_cmdline>  (1) 
J2VwaWtfcHl0aG9uJywgJy1waHQnLCAnMS4wJywgJy1waCcsICc3LjQnLCAnLXRuJywgJzgnLCAnLW1hJywgJzUwMCcsICctaW1hZScsICc8aW5maWxlLm1hZT4nLCAnLW9tYWUnLCAnPG91dGZpbGUubWFlPic=

>  <s_epik_input>  (1) 
W0NIM11jMVtjSF1bY0hdYyhbTkgyXSlbY0hdW2NIXTE=

>  <s_glide_docking_method>  (1) 
confgen

>  <s_i_glide_gridfile>  (1) 
gpcr_5ht2c_6bqh_protein_autoprepared_prepared

>  <s_lp_Force_Field>  (1) 
S-OPLS

>  <s_lp_Variant>  (1) 
Pocket2Mol_58_num_sample_100-1

>  <s_m_source_file>  (1) 
generated__ligand_Pocket2Mol_2026-05-06_prepared.sdf

>  <GenAI_Model>  (1) 
Pocket2Mol

>  <Protein>  (1) 
GPCR_5HT2C

$$$$
Pocket2Mol_65_num_sample_100
     RDKit          3D

  0  0  0  0  0  0  0  0  0  0999 V3000
M  V30 BEGIN CTAB
M  V30 COUNTS 20 20 0 0 1
M  V30 BEGIN ATOM
M  V30 1 C 39.467399 29.126974 52.124359 0
M  V30 2 C 39.395694 30.065531 53.338511 0
M  V30 3 C 38.659489 27.902325 52.529376 0
M  V30 4 C 37.737523 28.434405 53.620362 0
M  V30 5 N 38.581446 29.379564 54.339582 0
M  V30 6 N 37.847483 30.279875 55.186226 0 CHG=1
M  V30 7 C 38.509496 31.099225 56.019783 0
M  V30 8 N 37.867403 31.955361 56.828246 0
M  V30 9 H 39.019969 29.609294 51.254672 0
M  V30 10 H 40.491271 28.866605 51.853392 0
M  V30 11 H 38.944128 31.016159 53.053507 0
M  V30 12 H 40.383979 30.282851 53.742616 0
M  V30 13 H 38.112286 27.461446 51.694660 0
M  V30 14 H 39.318900 27.135545 52.939452 0
M  V30 15 H 37.360665 27.644422 54.271062 0
M  V30 16 H 36.885849 28.941532 53.169047 0
M  V30 17 H 39.593078 31.068251 56.040426 0
M  V30 18 H 36.827840 32.000532 56.823694 0
M  V30 19 H 38.390475 32.561428 57.441797 0
M  V30 20 H 36.839337 30.249185 55.112253 0
M  V30 END ATOM
M  V30 BEGIN BOND
M  V30 1 1 2 1
M  V30 2 1 3 1
M  V30 3 1 4 3
M  V30 4 1 5 2
M  V30 5 1 5 4
M  V30 6 1 6 5
M  V30 7 2 7 6
M  V30 8 1 8 7
M  V30 9 1 9 1
M  V30 10 1 10 1
M  V30 11 1 11 2
M  V30 12 1 12 2
M  V30 13 1 13 3
M  V30 14 1 14 3
M  V30 15 1 15 4
M  V30 16 1 16 4
M  V30 17 1 17 7
M  V30 18 1 18 8
M  V30 19 1 19 8
M  V30 20 1 20 6
M  V30 END BOND
M  V30 END CTAB
M  END
>  <i_epik_Tot_Q>  (1) 
1

>  <i_epik_Tot_abs_Q>  (1) 
1

>  <i_i_glide_confnum>  (1) 
1

>  <i_i_glide_lignum>  (1) 
69

>  <i_i_glide_posenum>  (1) 
173

>  <i_i_glide_rotatable_bonds>  (1) 
1

>  <i_lp_mmshare_version>  (1) 
72125

>  <i_m_source_file_index>  (1) 
66

>  <i_f3d_flags>  (1) 
0

>  <num_sample>  (1) 
100

>  <b_lp_Chiralities_Consistent>  (1) 
1

>  <r_epik_Charging_Adjusted_Penalty>  (1) 
1.6312684749255997e-05

>  <r_epik_Ionization_Penalty>  (1) 
1.6401951855999153e-05

>  <r_epik_Ionization_Penalty_Charging>  (1) 
1.6312684749255997e-05

>  <r_epik_Ionization_Penalty_Neutral>  (1) 
8.9267106743156534e-08

>  <r_epik_State_Penalty>  (1) 
-0

>  <r_glide_ring_energy>  (1) 
0

>  <r_i_docking_score>  (1) 
-5.77613689891378

>  <r_i_glide_ecoul>  (1) 
-7.1063671172666822

>  <r_i_glide_eff_state_penalty>  (1) 
-0

>  <r_i_glide_einternal>  (1) 
0.098715127094124278

>  <r_i_glide_emodel>  (1) 
-31.614002783673939

>  <r_i_glide_emodel_strain>  (1) 
0.23273407591332784

>  <r_i_glide_energy>  (1) 
-19.458901657456053

>  <r_i_glide_erotb>  (1) 
0

>  <r_i_glide_esite>  (1) 
-0.17826074692445376

>  <r_i_glide_evdw>  (1) 
-12.352534540189371

>  <r_i_glide_gscore>  (1) 
-5.77613689891378

>  <r_i_glide_gscore_strain>  (1) 
0

>  <r_i_glide_hbond>  (1) 
-0.17948139079219766

>  <r_i_glide_ligand_efficiency>  (1) 
-0.7220171123642225

>  <r_i_glide_ligand_efficiency_ln>  (1) 
-1.8757092221867269

>  <r_i_glide_ligand_efficiency_sa>  (1) 
-1.4440342247284452

>  <r_i_glide_lipo>  (1) 
-1.2052252141307032

>  <r_i_glide_metal>  (1) 
-0

>  <r_i_glide_rewards>  (1) 
-2.5295877524669543

>  <r_lp_Energy>  (1) 
12.792574

>  <r_lp_tautomer_probability>  (1) 
1

>  <s_epik_Chemistry_Notes>  (1) 
This compound has an imine and may undergo hydrolysis.

>  <s_epik_cmdline>  (1) 
J2VwaWtfcHl0aG9uJywgJy1waHQnLCAnMS4wJywgJy1waCcsICc3LjQnLCAnLXRuJywgJzgnLCAnLW1hJywgJzUwMCcsICctaW1hZScsICc8aW5maWxlLm1hZT4nLCAnLW9tYWUnLCAnPG91dGZpbGUubWFlPic=

>  <s_epik_input>  (1) 
W0NIMl0xW0NIMl1bQ0gyXVtDSDJdTjEvTj1bQ0hdL1tOSDJd

>  <s_glide_docking_method>  (1) 
confgen

>  <s_i_glide_gridfile>  (1) 
gpcr_5ht2c_6bqh_protein_autoprepared_prepared

>  <s_lp_Force_Field>  (1) 
S-OPLS

>  <s_lp_Variant>  (1) 
Pocket2Mol_65_num_sample_100-1

>  <s_m_source_file>  (1) 
generated__ligand_Pocket2Mol_2026-05-06_prepared.sdf

>  <GenAI_Model>  (1) 
Pocket2Mol

>  <Protein>  (1) 
GPCR_5HT2C

$$$$
Pocket2Mol_96_num_sample_100
     RDKit          3D

  0  0  0  0  0  0  0  0  0  0999 V3000
M  V30 BEGIN CTAB
M  V30 COUNTS 18 19 0 0 1
M  V30 BEGIN ATOM
M  V30 1 C 38.936780 30.259833 54.774182 0
M  V30 2 C 39.467356 30.714236 53.566246 0
M  V30 3 C 38.675960 28.912110 54.615290 0
M  V30 4 C 39.467403 29.662157 52.653936 0
M  V30 5 N 38.989613 28.547894 53.326843 0
M  V30 6 C 39.981788 29.576206 51.296092 0
M  V30 7 O 40.667575 30.406322 50.704033 0
M  V30 8 C 39.031324 27.208663 52.760357 0
M  V30 9 N 39.616233 28.425430 50.670941 0
M  V30 10 C 38.753025 27.372550 51.246699 0
M  V30 11 H 38.797435 30.840668 55.674088 0
M  V30 12 H 39.815249 31.718171 53.370312 0
M  V30 13 H 38.310446 28.174475 55.314615 0
M  V30 14 H 40.037795 26.820377 52.924340 0
M  V30 15 H 38.299469 26.563382 53.247600 0
M  V30 16 H 40.033818 28.246513 49.769207 0
M  V30 17 H 38.912613 26.432736 50.717481 0
M  V30 18 H 37.721262 27.672460 51.053851 0
M  V30 END ATOM
M  V30 BEGIN BOND
M  V30 1 1 2 1
M  V30 2 2 3 1
M  V30 3 2 4 2
M  V30 4 1 5 3
M  V30 5 1 5 4
M  V30 6 1 6 4
M  V30 7 2 7 6
M  V30 8 1 8 5
M  V30 9 1 9 6
M  V30 10 1 10 8
M  V30 11 1 10 9
M  V30 12 1 11 1
M  V30 13 1 12 2
M  V30 14 1 13 3
M  V30 15 1 14 8
M  V30 16 1 15 8
M  V30 17 1 16 9
M  V30 18 1 17 10
M  V30 19 1 18 10
M  V30 END BOND
M  V30 END CTAB
M  END
>  <i_epik_Tot_Q>  (1) 
0

>  <i_epik_Tot_abs_Q>  (1) 
0

>  <i_i_glide_confnum>  (1) 
1

>  <i_i_glide_lignum>  (1) 
101

>  <i_i_glide_posenum>  (1) 
3

>  <i_i_glide_rotatable_bonds>  (1) 
0

>  <i_lp_mmshare_version>  (1) 
72125

>  <i_m_source_file_index>  (1) 
97

>  <i_f3d_flags>  (1) 
0

>  <num_sample>  (1) 
100

>  <b_lp_Chiralities_Consistent>  (1) 
1

>  <r_epik_Charging_Adjusted_Penalty>  (1) 
0

>  <r_epik_Ionization_Penalty>  (1) 
5.1203149696400337e-08

>  <r_epik_Ionization_Penalty_Charging>  (1) 
0

>  <r_epik_Ionization_Penalty_Neutral>  (1) 
5.1203149696400337e-08

>  <r_epik_State_Penalty>  (1) 
-0

>  <r_glide_ring_energy>  (1) 
0

>  <r_i_docking_score>  (1) 
-5.757948882378205

>  <r_i_glide_ecoul>  (1) 
-0.3086514903319536

>  <r_i_glide_eff_state_penalty>  (1) 
-0

>  <r_i_glide_einternal>  (1) 
0

>  <r_i_glide_emodel>  (1) 
-31.788604477359115

>  <r_i_glide_emodel_strain>  (1) 
0.060355855092872446

>  <r_i_glide_energy>  (1) 
-22.9134414510544

>  <r_i_glide_erotb>  (1) 
0

>  <r_i_glide_esite>  (1) 
0

>  <r_i_glide_evdw>  (1) 
-22.604789960722446

>  <r_i_glide_gscore>  (1) 
-5.757948882378205

>  <r_i_glide_gscore_strain>  (1) 
0

>  <r_i_glide_hbond>  (1) 
0

>  <r_i_glide_ligand_efficiency>  (1) 
-0.57579488823782055

>  <r_i_glide_ligand_efficiency_ln>  (1) 
-1.7434672295326641

>  <r_i_glide_ligand_efficiency_sa>  (1) 
-1.2405124815625921

>  <r_i_glide_lipo>  (1) 
-1.5170917451833914

>  <r_i_glide_metal>  (1) 
-0

>  <r_i_glide_rewards>  (1) 
-3.0643199156088987

>  <r_lp_Energy>  (1) 
15.907292999999999

>  <r_lp_tautomer_probability>  (1) 
1

>  <s_epik_cmdline>  (1) 
J2VwaWtfcHl0aG9uJywgJy1waHQnLCAnMS4wJywgJy1waCcsICc3LjQnLCAnLXRuJywgJzgnLCAnLW1hJywgJzUwMCcsICctaW1hZScsICc8aW5maWxlLm1hZT4nLCAnLW9tYWUnLCAnPG91dGZpbGUubWFlPic=

>  <s_epik_input>  (1) 
W2NIXTFbY0hdW2NIXW4oYzEyKVtDSDJdW0NIMl1bTkhdQzI9Tw==

>  <s_glide_docking_method>  (1) 
confgen

>  <s_i_glide_gridfile>  (1) 
gpcr_5ht2c_6bqh_protein_autoprepared_prepared

>  <s_lp_Force_Field>  (1) 
S-OPLS

>  <s_lp_Variant>  (1) 
Pocket2Mol_96_num_sample_100-1

>  <s_m_source_file>  (1) 
generated__ligand_Pocket2Mol_2026-05-06_prepared.sdf

>  <GenAI_Model>  (1) 
Pocket2Mol

>  <Protein>  (1) 
GPCR_5HT2C

$$$$
Pocket2Mol_81_num_sample_100
     RDKit          3D

  0  0  0  0  0  0  0  0  0  0999 V3000
M  V30 BEGIN CTAB
M  V30 COUNTS 15 16 0 0 1
M  V30 BEGIN ATOM
M  V30 1 C 38.298426 27.940507 52.990048 0
M  V30 2 C 39.070417 28.712342 52.084543 0
M  V30 3 C 39.572875 29.947207 52.548155 0
M  V30 4 C 39.515300 28.587894 50.743430 0
M  V30 5 C 39.336296 30.421426 53.845114 0
M  V30 6 N 40.232751 29.621429 50.363230 0
M  V30 7 N 40.267403 30.452091 51.453502 0
M  V30 8 C 38.052999 28.405549 54.304697 0
M  V30 9 C 38.571275 29.646929 54.730538 0
M  V30 10 H 37.894905 26.989076 52.673515 0
M  V30 11 H 39.335002 27.782133 50.048723 0
M  V30 12 H 39.737397 31.373598 54.159985 0
M  V30 13 H 40.759780 31.334410 51.410511 0
M  V30 14 H 37.466744 27.807163 54.985251 0
M  V30 15 H 38.379718 29.999684 55.734118 0
M  V30 END ATOM
M  V30 BEGIN BOND
M  V30 1 1 2 1
M  V30 2 2 3 2
M  V30 3 1 4 2
M  V30 4 1 5 3
M  V30 5 2 6 4
M  V30 6 1 7 3
M  V30 7 1 7 6
M  V30 8 2 8 1
M  V30 9 2 9 5
M  V30 10 1 9 8
M  V30 11 1 10 1
M  V30 12 1 11 4
M  V30 13 1 12 5
M  V30 14 1 13 7
M  V30 15 1 14 8
M  V30 16 1 15 9
M  V30 END BOND
M  V30 END CTAB
M  END
>  <i_epik_Tot_Q>  (1) 
0

>  <i_epik_Tot_abs_Q>  (1) 
0

>  <i_i_glide_confnum>  (1) 
1

>  <i_i_glide_lignum>  (1) 
86

>  <i_i_glide_posenum>  (1) 
330

>  <i_i_glide_rotatable_bonds>  (1) 
0

>  <i_lp_mmshare_version>  (1) 
72125

>  <i_m_source_file_index>  (1) 
82

>  <i_f3d_flags>  (1) 
0

>  <num_sample>  (1) 
100

>  <b_lp_Chiralities_Consistent>  (1) 
1

>  <r_epik_Charging_Adjusted_Penalty>  (1) 
0

>  <r_epik_Ionization_Penalty>  (1) 
2.5998422111611493e-06

>  <r_epik_Ionization_Penalty_Charging>  (1) 
0

>  <r_epik_Ionization_Penalty_Neutral>  (1) 
2.5998422111611493e-06

>  <r_epik_State_Penalty>  (1) 
-0

>  <r_glide_ring_energy>  (1) 
0

>  <r_i_docking_score>  (1) 
-5.7554773376003041

>  <r_i_glide_ecoul>  (1) 
-1.5852796641019882

>  <r_i_glide_eff_state_penalty>  (1) 
-0

>  <r_i_glide_einternal>  (1) 
0

>  <r_i_glide_emodel>  (1) 
-30.18529369972611

>  <r_i_glide_emodel_strain>  (1) 
0

>  <r_i_glide_energy>  (1) 
-22.106645078394017

>  <r_i_glide_erotb>  (1) 
0

>  <r_i_glide_esite>  (1) 
0

>  <r_i_glide_evdw>  (1) 
-20.521365414292028

>  <r_i_glide_gscore>  (1) 
-5.7554773376003041

>  <r_i_glide_gscore_strain>  (1) 
0

>  <r_i_glide_hbond>  (1) 
0

>  <r_i_glide_ligand_efficiency>  (1) 
-0.63949748195558931

>  <r_i_glide_ligand_efficiency_ln>  (1) 
-1.8001479715871267

>  <r_i_glide_ligand_efficiency_sa>  (1) 
-1.3302083670982485

>  <r_i_glide_lipo>  (1) 
-1.9691083681698318

>  <r_i_glide_metal>  (1) 
-0

>  <r_i_glide_rewards>  (1) 
-2.5225087491005724

>  <r_lp_Energy>  (1) 
10.425352

>  <r_lp_tautomer_probability>  (1) 
1

>  <s_epik_cmdline>  (1) 
J2VwaWtfcHl0aG9uJywgJy1waHQnLCAnMS4wJywgJy1waCcsICc3LjQnLCAnLXRuJywgJzgnLCAnLW1hJywgJzUwMCcsICctaW1hZScsICc8aW5maWxlLm1hZT4nLCAnLW9tYWUnLCAnPG91dGZpbGUubWFlPic=

>  <s_epik_input>  (1) 
W2NIXTFbY0hdW2NIXVtjSF1jKGMxMiluW25IXVtjSF0y

>  <s_glide_docking_method>  (1) 
confgen

>  <s_i_glide_gridfile>  (1) 
gpcr_5ht2c_6bqh_protein_autoprepared_prepared

>  <s_lp_Force_Field>  (1) 
S-OPLS

>  <s_lp_Variant>  (1) 
Pocket2Mol_81_num_sample_100-1

>  <s_m_source_file>  (1) 
generated__ligand_Pocket2Mol_2026-05-06_prepared.sdf

>  <GenAI_Model>  (1) 
Pocket2Mol

>  <Protein>  (1) 
GPCR_5HT2C

$$$$
Pocket2Mol_87_num_sample_100
     RDKit          3D

  0  0  0  0  0  0  0  0  0  0999 V3000
M  V30 BEGIN CTAB
M  V30 COUNTS 18 18 0 0 1
M  V30 BEGIN ATOM
M  V30 1 C 39.113623 30.809128 54.467824 0
M  V30 2 C 39.467403 30.421430 53.161103 0
M  V30 3 C 39.093862 29.142859 52.665165 0
M  V30 4 C 39.461147 28.718082 51.272919 0
M  V30 5 N 39.067404 27.442441 50.916534 0
M  V30 6 C 40.130202 29.517978 50.418904 0
M  V30 7 C 38.390889 29.932754 55.293521 0
M  V30 8 C 38.365308 28.267144 53.513005 0
M  V30 9 C 38.019883 28.664111 54.818000 0
M  V30 10 H 39.398427 31.783969 54.836163 0
M  V30 11 H 40.021116 31.107360 52.543867 0
M  V30 12 H 38.492929 26.876525 51.523758 0
M  V30 13 H 38.120056 30.234544 56.295227 0
M  V30 14 H 38.070305 27.290499 53.163266 0
M  V30 15 H 37.467410 27.991314 55.455362 0
M  V30 16 H 40.375472 29.178583 49.423965 0
M  V30 17 H 40.438784 30.511399 50.693582 0
M  V30 18 H 39.214631 27.080960 49.983909 0
M  V30 END ATOM
M  V30 BEGIN BOND
M  V30 1 1 2 1
M  V30 2 2 3 2
M  V30 3 1 4 3
M  V30 4 1 5 4
M  V30 5 2 6 4
M  V30 6 2 7 1
M  V30 7 1 8 3
M  V30 8 1 9 7
M  V30 9 2 9 8
M  V30 10 1 10 1
M  V30 11 1 11 2
M  V30 12 1 12 5
M  V30 13 1 13 7
M  V30 14 1 14 8
M  V30 15 1 15 9
M  V30 16 1 16 6
M  V30 17 1 17 6
M  V30 18 1 18 5
M  V30 END BOND
M  V30 END CTAB
M  END
>  <i_epik_Tot_Q>  (1) 
0

>  <i_epik_Tot_abs_Q>  (1) 
0

>  <i_i_glide_confnum>  (1) 
1

>  <i_i_glide_lignum>  (1) 
92

>  <i_i_glide_posenum>  (1) 
367

>  <i_i_glide_rotatable_bonds>  (1) 
1

>  <i_lp_mmshare_version>  (1) 
72125

>  <i_m_source_file_index>  (1) 
88

>  <i_f3d_flags>  (1) 
0

>  <num_sample>  (1) 
100

>  <b_lp_Chiralities_Consistent>  (1) 
1

>  <r_epik_Charging_Adjusted_Penalty>  (1) 
0.00088152279553634463

>  <r_epik_Ionization_Penalty>  (1) 
0.001176351566598113

>  <r_epik_Ionization_Penalty_Charging>  (1) 
0.00088152279553634463

>  <r_epik_Ionization_Penalty_Neutral>  (1) 
0.00029482877106176849

>  <r_epik_State_Penalty>  (1) 
-0

>  <r_glide_ring_energy>  (1) 
0

>  <r_i_docking_score>  (1) 
-5.7525016136590708

>  <r_i_glide_ecoul>  (1) 
-1.8040221593188783

>  <r_i_glide_eff_state_penalty>  (1) 
-0

>  <r_i_glide_einternal>  (1) 
0.021135888457985308

>  <r_i_glide_emodel>  (1) 
-27.661540641870115

>  <r_i_glide_emodel_strain>  (1) 
0

>  <r_i_glide_energy>  (1) 
-20.372025073009514

>  <r_i_glide_erotb>  (1) 
0

>  <r_i_glide_esite>  (1) 
0

>  <r_i_glide_evdw>  (1) 
-18.568002913690634

>  <r_i_glide_gscore>  (1) 
-5.7525016136590708

>  <r_i_glide_gscore_strain>  (1) 
0

>  <r_i_glide_hbond>  (1) 
0

>  <r_i_glide_ligand_efficiency>  (1) 
-0.63916684596211892

>  <r_i_glide_ligand_efficiency_ln>  (1) 
-1.7992172506229733

>  <r_i_glide_ligand_efficiency_sa>  (1) 
-1.3295206165169122

>  <r_i_glide_lipo>  (1) 
-2.0090301564628792

>  <r_i_glide_metal>  (1) 
-0

>  <r_i_glide_rewards>  (1) 
-2.5444679876138276

>  <r_lp_Energy>  (1) 
13.175675

>  <r_lp_tautomer_probability>  (1) 
1

>  <s_epik_Chemistry_Notes>  (1) 
This compound has an imine and may undergo hydrolysis.

>  <s_epik_cmdline>  (1) 
J2VwaWtfcHl0aG9uJywgJy1waHQnLCAnMS4wJywgJy1waCcsICc3LjQnLCAnLXRuJywgJzgnLCAnLW1hJywgJzUwMCcsICctaW1hZScsICc8aW5maWxlLm1hZT4nLCAnLW9tYWUnLCAnPG91dGZpbGUubWFlPic=

>  <s_epik_input>  (1) 
W2NIXTFbY0hdW2NIXVtjSF1bY0hdYzEvQyg9Ti9bSF0pW0NIM10=

>  <s_glide_docking_method>  (1) 
confgen

>  <s_i_glide_gridfile>  (1) 
gpcr_5ht2c_6bqh_protein_autoprepared_prepared

>  <s_lp_Force_Field>  (1) 
S-OPLS

>  <s_lp_Variant>  (1) 
Pocket2Mol_87_num_sample_100-1

>  <s_m_source_file>  (1) 
generated__ligand_Pocket2Mol_2026-05-06_prepared.sdf

>  <GenAI_Model>  (1) 
Pocket2Mol

>  <Protein>  (1) 
GPCR_5HT2C

$$$$
Pocket2Mol_54_num_sample_100
     RDKit          3D

  0  0  0  0  0  0  0  0  0  0999 V3000
M  V30 BEGIN CTAB
M  V30 COUNTS 17 17 0 0 1
M  V30 BEGIN ATOM
M  V30 1 C 38.672539 27.858015 51.853513 0
M  V30 2 C 39.467404 28.523007 50.899816 0
M  V30 3 C 40.063474 29.760253 51.215842 0
M  V30 4 N 40.842716 30.421430 50.268319 0
M  V30 5 C 38.470539 28.428719 53.125003 0
M  V30 6 C 39.067414 29.666156 53.445246 0
M  V30 7 C 38.849893 30.284817 54.811276 0
M  V30 8 C 39.867403 30.330028 52.490027 0
M  V30 9 H 38.215081 26.910823 51.607989 0
M  V30 10 H 39.615976 28.085024 49.924723 0
M  V30 11 H 41.126611 31.381025 50.419214 0
M  V30 12 H 40.842232 30.110327 49.309191 0
M  V30 13 H 37.857738 27.917874 53.853799 0
M  V30 14 H 38.216345 29.657782 55.439502 0
M  V30 15 H 39.803609 30.425824 55.320406 0
M  V30 16 H 38.366934 31.257626 54.711148 0
M  V30 17 H 40.323307 31.277769 52.733967 0
M  V30 END ATOM
M  V30 BEGIN BOND
M  V30 1 1 2 1
M  V30 2 2 3 2
M  V30 3 1 4 3
M  V30 4 2 5 1
M  V30 5 1 6 5
M  V30 6 1 7 6
M  V30 7 1 8 3
M  V30 8 2 8 6
M  V30 9 1 9 1
M  V30 10 1 10 2
M  V30 11 1 11 4
M  V30 12 1 12 4
M  V30 13 1 13 5
M  V30 14 1 14 7
M  V30 15 1 15 7
M  V30 16 1 16 7
M  V30 17 1 17 8
M  V30 END BOND
M  V30 END CTAB
M  END
>  <i_epik_Tot_Q>  (1) 
0

>  <i_epik_Tot_abs_Q>  (1) 
0

>  <i_i_glide_confnum>  (1) 
1

>  <i_i_glide_lignum>  (1) 
58

>  <i_i_glide_posenum>  (1) 
348

>  <i_i_glide_rotatable_bonds>  (1) 
0

>  <i_lp_mmshare_version>  (1) 
72125

>  <i_m_source_file_index>  (1) 
55

>  <i_f3d_flags>  (1) 
0

>  <num_sample>  (1) 
100

>  <b_lp_Chiralities_Consistent>  (1) 
1

>  <r_epik_Charging_Adjusted_Penalty>  (1) 
0

>  <r_epik_Ionization_Penalty>  (1) 
0.0013172751215551738

>  <r_epik_Ionization_Penalty_Charging>  (1) 
0

>  <r_epik_Ionization_Penalty_Neutral>  (1) 
0.0013172751215551738

>  <r_epik_State_Penalty>  (1) 
-0

>  <r_glide_ring_energy>  (1) 
0

>  <r_i_docking_score>  (1) 
-5.747571604057284

>  <r_i_glide_ecoul>  (1) 
-1.3827870304361127

>  <r_i_glide_eff_state_penalty>  (1) 
-0

>  <r_i_glide_einternal>  (1) 
0

>  <r_i_glide_emodel>  (1) 
-27.32991487320627

>  <r_i_glide_emodel_strain>  (1) 
0

>  <r_i_glide_energy>  (1) 
-20.228135088343919

>  <r_i_glide_erotb>  (1) 
0

>  <r_i_glide_esite>  (1) 
0

>  <r_i_glide_evdw>  (1) 
-18.845348057907806

>  <r_i_glide_gscore>  (1) 
-5.747571604057284

>  <r_i_glide_gscore_strain>  (1) 
0

>  <r_i_glide_hbond>  (1) 
0

>  <r_i_glide_ligand_efficiency>  (1) 
-0.71844645050716049

>  <r_i_glide_ligand_efficiency_ln>  (1) 
-1.8664330938790878

>  <r_i_glide_ligand_efficiency_sa>  (1) 
-1.4368929010143212

>  <r_i_glide_lipo>  (1) 
-2.0092736129293063

>  <r_i_glide_metal>  (1) 
-0

>  <r_i_glide_rewards>  (1) 
-2.5886125336671708

>  <r_lp_Energy>  (1) 
5.5447359999999994

>  <r_lp_tautomer_probability>  (1) 
1

>  <s_epik_cmdline>  (1) 
J2VwaWtfcHl0aG9uJywgJy1waHQnLCAnMS4wJywgJy1waCcsICc3LjQnLCAnLXRuJywgJzgnLCAnLW1hJywgJzUwMCcsICctaW1hZScsICc8aW5maWxlLm1hZT4nLCAnLW9tYWUnLCAnPG91dGZpbGUubWFlPic=

>  <s_epik_input>  (1) 
W0NIM11jKFtjSF0xKVtjSF1bY0hdW2NIXWMxW05IMl0=

>  <s_glide_docking_method>  (1) 
confgen

>  <s_i_glide_gridfile>  (1) 
gpcr_5ht2c_6bqh_protein_autoprepared_prepared

>  <s_lp_Force_Field>  (1) 
S-OPLS

>  <s_lp_Variant>  (1) 
Pocket2Mol_54_num_sample_100-1

>  <s_m_source_file>  (1) 
generated__ligand_Pocket2Mol_2026-05-06_prepared.sdf

>  <GenAI_Model>  (1) 
Pocket2Mol

>  <Protein>  (1) 
GPCR_5HT2C

$$$$
Pocket2Mol_84_num_sample_100
     RDKit          3D

  0  0  0  0  0  0  0  0  0  0999 V3000
M  V30 BEGIN CTAB
M  V30 COUNTS 19 19 0 0 1
M  V30 BEGIN ATOM
M  V30 1 C 37.554981 29.338609 54.543250 0
M  V30 2 C 38.797790 30.183664 54.817124 0
M  V30 3 O 37.506014 28.821436 53.217128 0
M  V30 4 C 38.637971 28.227643 52.657875 0 CFG=1
M  V30 5 C 39.148267 27.089458 53.565628 0
M  V30 6 O 39.058347 31.018461 53.706530 0
M  V30 7 C 39.867409 30.480561 52.739272 0
M  V30 8 O 38.267403 27.620955 51.453500 0
M  V30 9 C 39.726319 29.225381 52.253446 0
M  V30 10 H 36.667401 29.956635 54.677260 0
M  V30 11 H 37.478211 28.530170 55.269976 0
M  V30 12 H 38.619687 30.812443 55.689897 0
M  V30 13 H 39.670629 29.578810 55.064542 0
M  V30 14 H 38.336913 26.392896 53.780243 0
M  V30 15 H 39.948088 26.543683 53.063121 0
M  V30 16 H 39.541080 27.462967 54.508466 0
M  V30 17 H 40.637978 31.169483 52.424407 0
M  V30 18 H 37.517304 27.062649 51.614998 0
M  V30 19 H 40.419538 28.882811 51.498267 0
M  V30 END ATOM
M  V30 BEGIN BOND
M  V30 1 1 2 1
M  V30 2 1 3 1
M  V30 3 1 4 3
M  V30 4 1 5 4
M  V30 5 1 6 2
M  V30 6 1 7 6
M  V30 7 1 4 8 CFG=3
M  V30 8 1 9 4
M  V30 9 2 9 7
M  V30 10 1 10 1
M  V30 11 1 11 1
M  V30 12 1 12 2
M  V30 13 1 13 2
M  V30 14 1 14 5
M  V30 15 1 15 5
M  V30 16 1 16 5
M  V30 17 1 17 7
M  V30 18 1 18 8
M  V30 19 1 19 9
M  V30 END BOND
M  V30 END CTAB
M  END
>  <i_epik_Tot_Q>  (1) 
0

>  <i_epik_Tot_abs_Q>  (1) 
0

>  <i_i_glide_confnum>  (1) 
4

>  <i_i_glide_lignum>  (1) 
89

>  <i_i_glide_posenum>  (1) 
260

>  <i_i_glide_rotatable_bonds>  (1) 
1

>  <i_lp_mmshare_version>  (1) 
72125

>  <i_m_source_file_index>  (1) 
85

>  <i_f3d_flags>  (1) 
0

>  <num_sample>  (1) 
100

>  <b_lp_Chiralities_Consistent>  (1) 
1

>  <r_epik_Charging_Adjusted_Penalty>  (1) 
0

>  <r_epik_Ionization_Penalty>  (1) 
7.9405632778621754e-05

>  <r_epik_Ionization_Penalty_Charging>  (1) 
0

>  <r_epik_Ionization_Penalty_Neutral>  (1) 
7.9405632778621754e-05

>  <r_epik_State_Penalty>  (1) 
-0

>  <r_glide_ring_energy>  (1) 
2.1674625479299614

>  <r_i_docking_score>  (1) 
-5.7364428815327155

>  <r_i_glide_ecoul>  (1) 
-3.0819315706126416

>  <r_i_glide_eff_state_penalty>  (1) 
-0

>  <r_i_glide_einternal>  (1) 
0.40950694586784753

>  <r_i_glide_emodel>  (1) 
-27.696105227028006

>  <r_i_glide_emodel_strain>  (1) 
0.012531494185077818

>  <r_i_glide_energy>  (1) 
-20.01900867343797

>  <r_i_glide_erotb>  (1) 
0

>  <r_i_glide_esite>  (1) 
0

>  <r_i_glide_evdw>  (1) 
-16.937077102825327

>  <r_i_glide_gscore>  (1) 
-5.7364428815327155

>  <r_i_glide_gscore_strain>  (1) 
0

>  <r_i_glide_hbond>  (1) 
-0.32000000000000001

>  <r_i_glide_ligand_efficiency>  (1) 
-0.6373825423925239

>  <r_i_glide_ligand_efficiency_ln>  (1) 
-1.7941945405386743

>  <r_i_glide_ligand_efficiency_sa>  (1) 
-1.3258091155263838

>  <r_i_glide_lipo>  (1) 
-1.141981454000373

>  <r_i_glide_metal>  (1) 
-0

>  <r_i_glide_rewards>  (1) 
-2.9653178367991795

>  <r_lp_Energy>  (1) 
3.4776590000000001

>  <r_lp_tautomer_probability>  (1) 
1

>  <s_epik_cmdline>  (1) 
J2VwaWtfcHl0aG9uJywgJy1waHQnLCAnMS4wJywgJy1waCcsICc3LjQnLCAnLXRuJywgJzgnLCAnLW1hJywgJzUwMCcsICctaW1hZScsICc8aW5maWxlLm1hZT4nLCAnLW9tYWUnLCAnPG91dGZpbGUubWFlPic=

>  <s_epik_input>  (1) 
W0NIM11bQ0BAXTEoW09IXSlPW0NIMl1bQ0gyXU9bQ0hdPVtDSF0x

>  <s_glide_docking_method>  (1) 
confgen

>  <s_i_glide_gridfile>  (1) 
gpcr_5ht2c_6bqh_protein_autoprepared_prepared

>  <s_lp_Force_Field>  (1) 
S-OPLS

>  <s_lp_Variant>  (1) 
Pocket2Mol_84_num_sample_100-1

>  <s_m_source_file>  (1) 
generated__ligand_Pocket2Mol_2026-05-06_prepared.sdf

>  <GenAI_Model>  (1) 
Pocket2Mol

>  <Protein>  (1) 
GPCR_5HT2C

$$$$
Pocket2Mol_27_num_sample_100
     RDKit          3D

  0  0  0  0  0  0  0  0  0  0999 V3000
M  V30 BEGIN CTAB
M  V30 COUNTS 15 15 0 0 1
M  V30 BEGIN ATOM
M  V30 1 C 39.867402 30.331300 52.519525 0
M  V30 2 C 40.267387 30.132875 51.183336 0
M  V30 3 C 39.867406 28.972512 50.494079 0
M  V30 4 C 39.067403 29.368276 53.167240 0
M  V30 5 C 39.067758 28.008576 51.139676 0
M  V30 6 C 38.638721 29.584255 54.604560 0
M  V30 7 C 38.667119 28.205687 52.475394 0
M  V30 8 H 40.174886 31.221437 53.047580 0
M  V30 9 H 40.880622 30.872111 50.687317 0
M  V30 10 H 40.172451 28.821898 49.469442 0
M  V30 11 H 38.761154 27.117981 50.609442 0
M  V30 12 H 38.025969 28.760728 54.971412 0
M  V30 13 H 39.513927 29.670659 55.249035 0
M  V30 14 H 38.059778 30.504218 54.692257 0
M  V30 15 H 38.053030 27.465759 52.968090 0
M  V30 END ATOM
M  V30 BEGIN BOND
M  V30 1 1 2 1
M  V30 2 2 3 2
M  V30 3 2 4 1
M  V30 4 1 5 3
M  V30 5 1 6 4
M  V30 6 1 7 4
M  V30 7 2 7 5
M  V30 8 1 8 1
M  V30 9 1 9 2
M  V30 10 1 10 3
M  V30 11 1 11 5
M  V30 12 1 12 6
M  V30 13 1 13 6
M  V30 14 1 14 6
M  V30 15 1 15 7
M  V30 END BOND
M  V30 END CTAB
M  END
>  <i_epik_Tot_Q>  (1) 
0

>  <i_epik_Tot_abs_Q>  (1) 
0

>  <i_i_glide_confnum>  (1) 
1

>  <i_i_glide_lignum>  (1) 
30

>  <i_i_glide_posenum>  (1) 
137

>  <i_i_glide_rotatable_bonds>  (1) 
0

>  <i_lp_mmshare_version>  (1) 
72125

>  <i_m_source_file_index>  (1) 
28

>  <i_f3d_flags>  (1) 
0

>  <num_sample>  (1) 
100

>  <b_lp_Chiralities_Consistent>  (1) 
1

>  <r_epik_Charging_Adjusted_Penalty>  (1) 
0

>  <r_epik_Ionization_Penalty>  (1) 
0

>  <r_epik_Ionization_Penalty_Charging>  (1) 
0

>  <r_epik_Ionization_Penalty_Neutral>  (1) 
0

>  <r_epik_State_Penalty>  (1) 
-0

>  <r_glide_ring_energy>  (1) 
0

>  <r_i_docking_score>  (1) 
-5.7358417455261117

>  <r_i_glide_ecoul>  (1) 
-0.91958138392097499

>  <r_i_glide_eff_state_penalty>  (1) 
-0

>  <r_i_glide_einternal>  (1) 
0

>  <r_i_glide_emodel>  (1) 
-23.426680232581386

>  <r_i_glide_emodel_strain>  (1) 
0

>  <r_i_glide_energy>  (1) 
-17.089789344008338

>  <r_i_glide_erotb>  (1) 
0

>  <r_i_glide_esite>  (1) 
0

>  <r_i_glide_evdw>  (1) 
-16.170207960087364

>  <r_i_glide_gscore>  (1) 
-5.7358417455261117

>  <r_i_glide_gscore_strain>  (1) 
0

>  <r_i_glide_hbond>  (1) 
0

>  <r_i_glide_ligand_efficiency>  (1) 
-0.81940596364658735

>  <r_i_glide_ligand_efficiency_ln>  (1) 
-1.9470525084974049

>  <r_i_glide_ligand_efficiency_sa>  (1) 
-1.5674672192092158

>  <r_i_glide_lipo>  (1) 
-2.0409605212294175

>  <r_i_glide_metal>  (1) 
-0

>  <r_i_glide_rewards>  (1) 
-2.7484336187041798

>  <r_lp_Energy>  (1) 
6.403492

>  <r_lp_tautomer_probability>  (1) 
1

>  <s_epik_cmdline>  (1) 
J2VwaWtfcHl0aG9uJywgJy1waHQnLCAnMS4wJywgJy1waCcsICc3LjQnLCAnLXRuJywgJzgnLCAnLW1hJywgJzUwMCcsICctaW1hZScsICc8aW5maWxlLm1hZT4nLCAnLW9tYWUnLCAnPG91dGZpbGUubWFlPic=

>  <s_epik_input>  (1) 
W0NIM11jMVtjSF1bY0hdW2NIXVtjSF1bY0hdMQ==

>  <s_glide_docking_method>  (1) 
confgen

>  <s_i_glide_gridfile>  (1) 
gpcr_5ht2c_6bqh_protein_autoprepared_prepared

>  <s_lp_Force_Field>  (1) 
S-OPLS

>  <s_lp_Variant>  (1) 
Pocket2Mol_27_num_sample_100-1

>  <s_m_source_file>  (1) 
generated__ligand_Pocket2Mol_2026-05-06_prepared.sdf

>  <GenAI_Model>  (1) 
Pocket2Mol

>  <Protein>  (1) 
GPCR_5HT2C

$$$$
Pocket2Mol_34_num_sample_100
     RDKit          3D

  0  0  0  0  0  0  0  0  0  0999 V3000
M  V30 BEGIN CTAB
M  V30 COUNTS 12 12 0 0 1
M  V30 BEGIN ATOM
M  V30 1 C 39.867403 30.330974 52.507418 0
M  V30 2 C 40.267401 30.134975 51.170728 0
M  V30 3 C 39.867412 28.975090 50.479620 0
M  V30 4 C 39.067581 28.010933 51.124201 0
M  V30 5 C 39.067405 29.366990 53.151788 0
M  V30 6 F 38.683001 29.555315 54.435185 0
M  V30 7 C 38.667338 28.207025 52.459847 0
M  V30 8 H 40.174086 31.220668 53.038229 0
M  V30 9 H 40.881184 30.874613 50.676138 0
M  V30 10 H 40.173088 28.825186 49.454172 0
M  V30 11 H 38.760346 27.120723 50.593050 0
M  V30 12 H 38.052981 27.468574 52.953358 0
M  V30 END ATOM
M  V30 BEGIN BOND
M  V30 1 1 2 1
M  V30 2 2 3 2
M  V30 3 1 4 3
M  V30 4 2 5 1
M  V30 5 1 6 5
M  V30 6 2 7 4
M  V30 7 1 7 5
M  V30 8 1 8 1
M  V30 9 1 9 2
M  V30 10 1 10 3
M  V30 11 1 11 4
M  V30 12 1 12 7
M  V30 END BOND
M  V30 END CTAB
M  END
>  <i_epik_Tot_Q>  (1) 
0

>  <i_epik_Tot_abs_Q>  (1) 
0

>  <i_i_glide_confnum>  (1) 
1

>  <i_i_glide_lignum>  (1) 
37

>  <i_i_glide_posenum>  (1) 
154

>  <i_i_glide_rotatable_bonds>  (1) 
0

>  <i_lp_mmshare_version>  (1) 
72125

>  <i_m_source_file_index>  (1) 
35

>  <i_f3d_flags>  (1) 
0

>  <num_sample>  (1) 
100

>  <b_lp_Chiralities_Consistent>  (1) 
1

>  <r_epik_Charging_Adjusted_Penalty>  (1) 
0

>  <r_epik_Ionization_Penalty>  (1) 
0

>  <r_epik_Ionization_Penalty_Charging>  (1) 
0

>  <r_epik_Ionization_Penalty_Neutral>  (1) 
0

>  <r_epik_State_Penalty>  (1) 
-0

>  <r_glide_ring_energy>  (1) 
0

>  <r_i_docking_score>  (1) 
-5.7311047850896299

>  <r_i_glide_ecoul>  (1) 
-0.6106856204575013

>  <r_i_glide_eff_state_penalty>  (1) 
-0

>  <r_i_glide_einternal>  (1) 
0

>  <r_i_glide_emodel>  (1) 
-21.67291263750235

>  <r_i_glide_emodel_strain>  (1) 
0

>  <r_i_glide_energy>  (1) 
-16.052426275120879

>  <r_i_glide_erotb>  (1) 
0

>  <r_i_glide_esite>  (1) 
0

>  <r_i_glide_evdw>  (1) 
-15.441740654663377

>  <r_i_glide_gscore>  (1) 
-5.7311047850896299

>  <r_i_glide_gscore_strain>  (1) 
0

>  <r_i_glide_hbond>  (1) 
0

>  <r_i_glide_ligand_efficiency>  (1) 
-0.81872925501280425

>  <r_i_glide_ligand_efficiency_ln>  (1) 
-1.945444529911228

>  <r_i_glide_ligand_efficiency_sa>  (1) 
-1.5661727221620008

>  <r_i_glide_lipo>  (1) 
-1.8655153789697607

>  <r_i_glide_metal>  (1) 
-0

>  <r_i_glide_rewards>  (1) 
-3.0018995303180747

>  <r_lp_Energy>  (1) 
8.194445

>  <r_lp_tautomer_probability>  (1) 
1

>  <s_epik_cmdline>  (1) 
J2VwaWtfcHl0aG9uJywgJy1waHQnLCAnMS4wJywgJy1waCcsICc3LjQnLCAnLXRuJywgJzgnLCAnLW1hJywgJzUwMCcsICctaW1hZScsICc8aW5maWxlLm1hZT4nLCAnLW9tYWUnLCAnPG91dGZpbGUubWFlPic=

>  <s_epik_input>  (1) 
RmMxW2NIXVtjSF1bY0hdW2NIXVtjSF0x

>  <s_glide_docking_method>  (1) 
confgen

>  <s_i_glide_gridfile>  (1) 
gpcr_5ht2c_6bqh_protein_autoprepared_prepared

>  <s_lp_Force_Field>  (1) 
S-OPLS

>  <s_lp_Variant>  (1) 
Pocket2Mol_34_num_sample_100-1

>  <s_m_source_file>  (1) 
generated__ligand_Pocket2Mol_2026-05-06_prepared.sdf

>  <GenAI_Model>  (1) 
Pocket2Mol

>  <Protein>  (1) 
GPCR_5HT2C

$$$$
Pocket2Mol_1_num_sample_100
     RDKit          3D

  0  0  0  0  0  0  0  0  0  0999 V3000
M  V30 BEGIN CTAB
M  V30 COUNTS 19 20 0 0 1
M  V30 BEGIN ATOM
M  V30 1 C 38.586613 27.785224 52.288863 0
M  V30 2 C 38.667367 28.497802 53.540350 0
M  V30 3 C 39.067315 29.897923 53.610531 0 CFG=2
M  V30 4 C 38.446258 27.972041 54.687373 0
M  V30 5 C 39.867410 30.310973 52.381789 0
M  V30 6 C 39.867402 29.583204 51.239570 0
M  V30 7 C 38.714343 28.857891 55.842260 0
M  V30 8 O 40.537645 30.021382 50.167629 0
M  V30 9 N 39.467874 29.937936 55.062471 0
M  V30 10 C 39.144629 28.309765 51.182613 0
M  V30 11 H 38.099860 26.821455 52.243617 0
M  V30 12 H 38.147139 30.480426 53.556635 0
M  V30 13 H 38.153878 26.942526 54.834384 0
M  V30 14 H 40.403041 31.247224 52.432000 0
M  V30 15 H 37.784439 29.227405 56.276672 0
M  V30 16 H 39.342344 28.392317 56.602249 0
M  V30 17 H 40.344233 29.434285 49.453579 0
M  V30 18 H 39.308155 30.853475 55.460656 0
M  V30 19 H 39.095227 27.763284 50.252717 0
M  V30 END ATOM
M  V30 BEGIN BOND
M  V30 1 1 2 1
M  V30 2 1 3 2
M  V30 3 2 4 2
M  V30 4 1 5 3
M  V30 5 2 6 5
M  V30 6 1 7 4
M  V30 7 1 8 6
M  V30 8 1 9 3
M  V30 9 1 9 7
M  V30 10 2 10 1
M  V30 11 1 10 6
M  V30 12 1 11 1
M  V30 13 1 3 12 CFG=1
M  V30 14 1 13 4
M  V30 15 1 14 5
M  V30 16 1 15 7
M  V30 17 1 16 7
M  V30 18 1 17 8
M  V30 19 1 18 9
M  V30 20 1 19 10
M  V30 END BOND
M  V30 END CTAB
M  END
>  <i_epik_Tot_Q>  (1) 
0

>  <i_epik_Tot_abs_Q>  (1) 
0

>  <i_i_glide_confnum>  (1) 
1

>  <i_i_glide_lignum>  (1) 
3

>  <i_i_glide_posenum>  (1) 
222

>  <i_i_glide_rotatable_bonds>  (1) 
1

>  <i_lp_mmshare_version>  (1) 
72125

>  <i_m_source_file_index>  (1) 
2

>  <i_f3d_flags>  (1) 
0

>  <num_sample>  (1) 
100

>  <b_lp_Chiralities_Consistent>  (1) 
1

>  <r_epik_Charging_Adjusted_Penalty>  (1) 
0.0032380173127296522

>  <r_epik_Ionization_Penalty>  (1) 
0.0032399356015129686

>  <r_epik_Ionization_Penalty_Charging>  (1) 
0

>  <r_epik_Ionization_Penalty_Neutral>  (1) 
0.0032399356015129686

>  <r_epik_State_Penalty>  (1) 
0.0032380173127296522

>  <r_glide_ring_energy>  (1) 
0

>  <r_i_docking_score>  (1) 
-5.7304136851542156

>  <r_i_glide_ecoul>  (1) 
-0.76013148165356981

>  <r_i_glide_eff_state_penalty>  (1) 
0.0032380173127296522

>  <r_i_glide_einternal>  (1) 
0.064187948709004239

>  <r_i_glide_emodel>  (1) 
-31.519385911300034

>  <r_i_glide_emodel_strain>  (1) 
0

>  <r_i_glide_energy>  (1) 
-22.970437770307235

>  <r_i_glide_erotb>  (1) 
0

>  <r_i_glide_esite>  (1) 
0

>  <r_i_glide_evdw>  (1) 
-22.210306288653666

>  <r_i_glide_gscore>  (1) 
-5.7336517024669451

>  <r_i_glide_gscore_strain>  (1) 
0

>  <r_i_glide_hbond>  (1) 
0

>  <r_i_glide_ligand_efficiency>  (1) 
-0.57304136851542153

>  <r_i_glide_ligand_efficiency_ln>  (1) 
-1.7351297616253567

>  <r_i_glide_ligand_efficiency_sa>  (1) 
-1.2345802031529689

>  <r_i_glide_lipo>  (1) 
-2.1415350862820537

>  <r_i_glide_metal>  (1) 
-0

>  <r_i_glide_rewards>  (1) 
-2.3675815795041726

>  <r_lp_Energy>  (1) 
5.6201189999999999

>  <s_epik_cmdline>  (1) 
J2VwaWtfcHl0aG9uJywgJy1waHQnLCAnMS4wJywgJy1waCcsICc3LjQnLCAnLXRuJywgJzgnLCAnLW1hJywgJzUwMCcsICctaW1hZScsICc8aW5maWxlLm1hZT4nLCAnLW9tYWUnLCAnPG91dGZpbGUubWFlPic=

>  <s_epik_input>  (1) 
W0NIXTE9W0NIXUMoW09IXSk9W0NIXVtDQEBIXShDMT0yKVtOSF1bQ0gyXVtDSF0y

>  <s_glide_docking_method>  (1) 
confgen

>  <s_i_glide_gridfile>  (1) 
gpcr_5ht2c_6bqh_protein_autoprepared_prepared

>  <s_lp_Force_Field>  (1) 
S-OPLS

>  <s_lp_Variant>  (1) 
Pocket2Mol_1_num_sample_100-1

>  <s_m_source_file>  (1) 
generated__ligand_Pocket2Mol_2026-05-06_prepared.sdf

>  <GenAI_Model>  (1) 
Pocket2Mol

>  <Protein>  (1) 
GPCR_5HT2C

$$$$
Pocket2Mol_1_num_sample_100
     RDKit          3D

  0  0  0  0  0  0  0  0  0  0999 V3000
M  V30 BEGIN CTAB
M  V30 COUNTS 19 20 0 0 1
M  V30 BEGIN ATOM
M  V30 1 C 39.868838 30.387361 52.258720 0
M  V30 2 C 39.139874 30.234460 53.491141 0
M  V30 3 C 38.661482 28.937643 53.953843 0 CFG=2
M  V30 4 C 38.803310 31.205961 54.253503 0
M  V30 5 C 38.541580 27.947137 52.803443 0
M  V30 6 C 39.153926 28.145699 51.612039 0
M  V30 7 C 37.938251 30.836642 55.388004 0
M  V30 8 O 39.067431 27.221430 50.653501 0
M  V30 9 N 37.587249 29.435599 54.882901 0
M  V30 10 C 39.892564 29.382801 51.365582 0
M  V30 11 H 40.375654 31.316257 52.040121 0
M  V30 12 H 39.442396 28.534511 54.600264 0
M  V30 13 H 39.053029 32.238100 54.062705 0
M  V30 14 H 37.985511 27.039378 52.988689 0
M  V30 15 H 38.493640 30.827410 56.326073 0
M  V30 16 H 37.067402 31.484498 55.454027 0
M  V30 17 H 38.466025 26.553445 50.947010 0
M  V30 18 H 37.421598 28.802197 55.651813 0
M  V30 19 H 40.426039 29.509585 50.434802 0
M  V30 END ATOM
M  V30 BEGIN BOND
M  V30 1 1 2 1
M  V30 2 1 3 2
M  V30 3 2 4 2
M  V30 4 1 5 3
M  V30 5 2 6 5
M  V30 6 1 7 4
M  V30 7 1 8 6
M  V30 8 1 9 3
M  V30 9 1 9 7
M  V30 10 2 10 1
M  V30 11 1 10 6
M  V30 12 1 11 1
M  V30 13 1 3 12 CFG=1
M  V30 14 1 13 4
M  V30 15 1 14 5
M  V30 16 1 15 7
M  V30 17 1 16 7
M  V30 18 1 17 8
M  V30 19 1 18 9
M  V30 20 1 19 10
M  V30 END BOND
M  V30 END CTAB
M  END
>  <i_epik_Tot_Q>  (1) 
0

>  <i_epik_Tot_abs_Q>  (1) 
0

>  <i_i_glide_confnum>  (1) 
1

>  <i_i_glide_lignum>  (1) 
3

>  <i_i_glide_posenum>  (1) 
338

>  <i_i_glide_rotatable_bonds>  (1) 
1

>  <i_lp_mmshare_version>  (1) 
72125

>  <i_m_source_file_index>  (1) 
2

>  <i_f3d_flags>  (1) 
0

>  <num_sample>  (1) 
100

>  <b_lp_Chiralities_Consistent>  (1) 
1

>  <r_epik_Charging_Adjusted_Penalty>  (1) 
0.0032380173127296522

>  <r_epik_Ionization_Penalty>  (1) 
0.0032399356015129686

>  <r_epik_Ionization_Penalty_Charging>  (1) 
0

>  <r_epik_Ionization_Penalty_Neutral>  (1) 
0.0032399356015129686

>  <r_epik_State_Penalty>  (1) 
0.0032380173127296522

>  <r_glide_ring_energy>  (1) 
0

>  <r_i_docking_score>  (1) 
-5.7301427548293775

>  <r_i_glide_ecoul>  (1) 
-1.896187768485208

>  <r_i_glide_eff_state_penalty>  (1) 
0.0032380173127296522

>  <r_i_glide_einternal>  (1) 
0.035435254297318863

>  <r_i_glide_emodel>  (1) 
-31.793348104629274

>  <r_i_glide_emodel_strain>  (1) 
0

>  <r_i_glide_energy>  (1) 
-23.230429093541627

>  <r_i_glide_erotb>  (1) 
0

>  <r_i_glide_esite>  (1) 
0

>  <r_i_glide_evdw>  (1) 
-21.334241325056418

>  <r_i_glide_gscore>  (1) 
-5.7333807721421071

>  <r_i_glide_gscore_strain>  (1) 
0

>  <r_i_glide_hbond>  (1) 
0

>  <r_i_glide_ligand_efficiency>  (1) 
-0.57301427548293771

>  <r_i_glide_ligand_efficiency_ln>  (1) 
-1.7350477257906367

>  <r_i_glide_ligand_efficiency_sa>  (1) 
-1.2345218329839276

>  <r_i_glide_lipo>  (1) 
-1.9759265507676576

>  <r_i_glide_metal>  (1) 
-0

>  <r_i_glide_rewards>  (1) 
-2.4063139898488473

>  <r_lp_Energy>  (1) 
5.6201189999999999

>  <s_epik_cmdline>  (1) 
J2VwaWtfcHl0aG9uJywgJy1waHQnLCAnMS4wJywgJy1waCcsICc3LjQnLCAnLXRuJywgJzgnLCAnLW1hJywgJzUwMCcsICctaW1hZScsICc8aW5maWxlLm1hZT4nLCAnLW9tYWUnLCAnPG91dGZpbGUubWFlPic=

>  <s_epik_input>  (1) 
W0NIXTE9W0NIXUMoW09IXSk9W0NIXVtDQEBIXShDMT0yKVtOSF1bQ0gyXVtDSF0y

>  <s_glide_docking_method>  (1) 
confgen

>  <s_i_glide_gridfile>  (1) 
gpcr_5ht2c_6bqh_protein_autoprepared_prepared

>  <s_lp_Force_Field>  (1) 
S-OPLS

>  <s_lp_Variant>  (1) 
Pocket2Mol_1_num_sample_100-1

>  <s_m_source_file>  (1) 
generated__ligand_Pocket2Mol_2026-05-06_prepared.sdf

>  <GenAI_Model>  (1) 
Pocket2Mol

>  <Protein>  (1) 
GPCR_5HT2C

$$$$
Pocket2Mol_73_num_sample_100
     RDKit          3D

  0  0  0  0  0  0  0  0  0  0999 V3000
M  V30 BEGIN CTAB
M  V30 COUNTS 15 16 0 0 1
M  V30 BEGIN ATOM
M  V30 1 C 38.703136 30.233175 54.641028 0
M  V30 2 C 39.124210 29.785562 53.324942 0
M  V30 3 C 37.927036 29.246079 55.129977 0
M  V30 4 C 37.845202 28.171218 54.144369 0
M  V30 5 C 38.570346 28.520047 53.073357 0
M  V30 6 C 38.801872 27.809480 51.853808 0
M  V30 7 N 39.867403 30.400162 52.501448 0
M  V30 8 N 39.531390 28.321670 50.943584 0
M  V30 9 C 40.117345 29.692550 51.192329 0
M  V30 10 H 38.990545 31.178787 55.077057 0
M  V30 11 H 37.443247 29.250634 56.095820 0
M  V30 12 H 37.292092 27.250208 54.259935 0
M  V30 13 H 38.327329 26.829059 51.757420 0
M  V30 14 H 41.196658 29.622465 51.053448 0
M  V30 15 H 39.780419 30.349172 50.388875 0
M  V30 END ATOM
M  V30 BEGIN BOND
M  V30 1 1 2 1
M  V30 2 2 3 1
M  V30 3 1 4 3
M  V30 4 1 5 2
M  V30 5 2 5 4
M  V30 6 1 6 5
M  V30 7 2 7 2
M  V30 8 2 8 6
M  V30 9 1 9 7
M  V30 10 1 9 8
M  V30 11 1 10 1
M  V30 12 1 11 3
M  V30 13 1 12 4
M  V30 14 1 13 6
M  V30 15 1 14 9
M  V30 16 1 15 9
M  V30 END BOND
M  V30 END CTAB
M  END
>  <i_epik_Tot_Q>  (1) 
0

>  <i_epik_Tot_abs_Q>  (1) 
0

>  <i_i_glide_confnum>  (1) 
1

>  <i_i_glide_lignum>  (1) 
78

>  <i_i_glide_posenum>  (1) 
348

>  <i_i_glide_rotatable_bonds>  (1) 
0

>  <i_lp_mmshare_version>  (1) 
72125

>  <i_m_source_file_index>  (1) 
74

>  <i_f3d_flags>  (1) 
0

>  <num_sample>  (1) 
100

>  <b_lp_Chiralities_Consistent>  (1) 
1

>  <r_epik_Charging_Adjusted_Penalty>  (1) 
0

>  <r_epik_Ionization_Penalty>  (1) 
1.1225786931258508e-06

>  <r_epik_Ionization_Penalty_Charging>  (1) 
0

>  <r_epik_Ionization_Penalty_Neutral>  (1) 
1.1225786931258508e-06

>  <r_epik_State_Penalty>  (1) 
-0

>  <r_glide_ring_energy>  (1) 
0

>  <r_i_docking_score>  (1) 
-5.7285908314809637

>  <r_i_glide_ecoul>  (1) 
-0.22866549018345167

>  <r_i_glide_eff_state_penalty>  (1) 
-0

>  <r_i_glide_einternal>  (1) 
0

>  <r_i_glide_emodel>  (1) 
-30.195247656499561

>  <r_i_glide_emodel_strain>  (1) 
0

>  <r_i_glide_energy>  (1) 
-22.37358476944053

>  <r_i_glide_erotb>  (1) 
0

>  <r_i_glide_esite>  (1) 
0

>  <r_i_glide_evdw>  (1) 
-22.144919279257078

>  <r_i_glide_gscore>  (1) 
-5.7285908314809637

>  <r_i_glide_gscore_strain>  (1) 
0

>  <r_i_glide_hbond>  (1) 
0

>  <r_i_glide_ligand_efficiency>  (1) 
-0.6365100923867737

>  <r_i_glide_ligand_efficiency_ln>  (1) 
-1.7917386448510795

>  <r_i_glide_ligand_efficiency_sa>  (1) 
-1.3239943463830013

>  <r_i_glide_lipo>  (1) 
-0.90968696542144312

>  <r_i_glide_metal>  (1) 
-0

>  <r_i_glide_rewards>  (1) 
-3.6773580785691484

>  <r_lp_Energy>  (1) 
3.4627279999999998

>  <r_lp_tautomer_probability>  (1) 
1

>  <s_epik_Chemistry_Notes>  (1) 
This compound has an imine and may undergo hydrolysis. This compound contains an acetal/aminal-like group ( X-CH(R)-Y where X, Y are N, S, or O) that may be acid/base labile, releasing an aldehyde.

>  <s_epik_cmdline>  (1) 
J2VwaWtfcHl0aG9uJywgJy1waHQnLCAnMS4wJywgJy1waCcsICc3LjQnLCAnLXRuJywgJzgnLCAnLW1hJywgJzUwMCcsICctaW1hZScsICc8aW5maWxlLm1hZT4nLCAnLW9tYWUnLCAnPG91dGZpbGUubWFlPic=

>  <s_epik_input>  (1) 
W0NIXTE9W0NIXVtDSF09QyhDMT0yKVtDSF09TltDSDJdTjI=

>  <s_glide_docking_method>  (1) 
confgen

>  <s_i_glide_gridfile>  (1) 
gpcr_5ht2c_6bqh_protein_autoprepared_prepared

>  <s_lp_Force_Field>  (1) 
S-OPLS

>  <s_lp_Variant>  (1) 
Pocket2Mol_73_num_sample_100-1

>  <s_m_source_file>  (1) 
generated__ligand_Pocket2Mol_2026-05-06_prepared.sdf

>  <GenAI_Model>  (1) 
Pocket2Mol

>  <Protein>  (1) 
GPCR_5HT2C

$$$$
Pocket2Mol_78_num_sample_100
     RDKit          3D

  0  0  0  0  0  0  0  0  0  0999 V3000
M  V30 BEGIN CTAB
M  V30 COUNTS 14 14 0 0 1
M  V30 BEGIN ATOM
M  V30 1 C 39.069345 27.942998 51.053500 0
M  V30 2 C 38.667432 28.085842 52.393679 0
M  V30 3 C 39.066892 29.220807 53.134822 0
M  V30 4 C 38.648163 29.369569 54.571425 0
M  V30 5 O 39.045400 30.373689 55.203274 0
M  V30 6 O 37.924885 28.479474 55.072091 0 CHG=-1
M  V30 7 C 39.867397 28.932343 50.446362 0
M  V30 8 C 39.867417 30.212357 52.521474 0
M  V30 9 C 40.265859 30.065963 51.178689 0
M  V30 10 H 38.765216 27.073198 50.489567 0
M  V30 11 H 38.055509 27.324025 52.855617 0
M  V30 12 H 40.173057 28.821450 49.417975 0
M  V30 13 H 40.176261 31.083300 53.082414 0
M  V30 14 H 40.877566 30.824160 50.711244 0
M  V30 END ATOM
M  V30 BEGIN BOND
M  V30 1 1 2 1
M  V30 2 2 3 2
M  V30 3 1 4 3
M  V30 4 2 5 4
M  V30 5 1 6 4
M  V30 6 2 7 1
M  V30 7 1 8 3
M  V30 8 1 9 7
M  V30 9 2 9 8
M  V30 10 1 10 1
M  V30 11 1 11 2
M  V30 12 1 12 7
M  V30 13 1 13 8
M  V30 14 1 14 9
M  V30 END BOND
M  V30 END CTAB
M  END
>  <i_epik_Tot_Q>  (1) 
-1

>  <i_epik_Tot_abs_Q>  (1) 
1

>  <i_i_glide_confnum>  (1) 
1

>  <i_i_glide_lignum>  (1) 
83

>  <i_i_glide_posenum>  (1) 
73

>  <i_i_glide_rotatable_bonds>  (1) 
1

>  <i_lp_mmshare_version>  (1) 
72125

>  <i_m_source_file_index>  (1) 
79

>  <i_f3d_flags>  (1) 
0

>  <num_sample>  (1) 
100

>  <b_lp_Chiralities_Consistent>  (1) 
1

>  <r_epik_Charging_Adjusted_Penalty>  (1) 
0.00033308558627939336

>  <r_epik_Ionization_Penalty>  (1) 
0.00033308558627939336

>  <r_epik_Ionization_Penalty_Charging>  (1) 
0.00033308558627939336

>  <r_epik_Ionization_Penalty_Neutral>  (1) 
0

>  <r_epik_State_Penalty>  (1) 
-0

>  <r_glide_ring_energy>  (1) 
0

>  <r_i_docking_score>  (1) 
-5.7275698850546783

>  <r_i_glide_ecoul>  (1) 
-0.17311168034969926

>  <r_i_glide_eff_state_penalty>  (1) 
-0

>  <r_i_glide_einternal>  (1) 
0.016223845813877258

>  <r_i_glide_emodel>  (1) 
-24.2590047922187

>  <r_i_glide_emodel_strain>  (1) 
0

>  <r_i_glide_energy>  (1) 
-17.729597833967695

>  <r_i_glide_erotb>  (1) 
0

>  <r_i_glide_esite>  (1) 
0

>  <r_i_glide_evdw>  (1) 
-17.556486153617996

>  <r_i_glide_gscore>  (1) 
-5.7275698850546783

>  <r_i_glide_gscore_strain>  (1) 
0

>  <r_i_glide_hbond>  (1) 
0

>  <r_i_glide_ligand_efficiency>  (1) 
-0.63639665389496425

>  <r_i_glide_ligand_efficiency_ln>  (1) 
-1.7914193221380232

>  <r_i_glide_ligand_efficiency_sa>  (1) 
-1.3237583848112768

>  <r_i_glide_lipo>  (1) 
-1.8866980299895735

>  <r_i_glide_metal>  (1) 
-0

>  <r_i_glide_rewards>  (1) 
-2.9370807953317501

>  <r_lp_Energy>  (1) 
17.740625999999999

>  <r_lp_tautomer_probability>  (1) 
1

>  <s_epik_cmdline>  (1) 
J2VwaWtfcHl0aG9uJywgJy1waHQnLCAnMS4wJywgJy1waCcsICc3LjQnLCAnLXRuJywgJzgnLCAnLW1hJywgJzUwMCcsICctaW1hZScsICc8aW5maWxlLm1hZT4nLCAnLW9tYWUnLCAnPG91dGZpbGUubWFlPic=

>  <s_epik_input>  (1) 
W2NIXTFbY0hdW2NIXVtjSF1bY0hdYzFDKD1PKVtPSF0=

>  <s_glide_docking_method>  (1) 
confgen

>  <s_i_glide_gridfile>  (1) 
gpcr_5ht2c_6bqh_protein_autoprepared_prepared

>  <s_lp_Force_Field>  (1) 
S-OPLS

>  <s_lp_Variant>  (1) 
Pocket2Mol_78_num_sample_100-1

>  <s_m_source_file>  (1) 
generated__ligand_Pocket2Mol_2026-05-06_prepared.sdf

>  <GenAI_Model>  (1) 
Pocket2Mol

>  <Protein>  (1) 
GPCR_5HT2C

$$$$
Pocket2Mol_34_num_sample_100
     RDKit          3D

  0  0  0  0  0  0  0  0  0  0999 V3000
M  V30 BEGIN CTAB
M  V30 COUNTS 12 12 0 0 1
M  V30 BEGIN ATOM
M  V30 1 C 38.731447 28.777000 53.301399 0
M  V30 2 C 38.566669 27.766957 52.333118 0
M  V30 3 C 39.135534 27.918412 51.053499 0
M  V30 4 C 39.867403 29.080943 50.740520 0
M  V30 5 C 39.467403 29.937494 52.990209 0
M  V30 6 F 39.629334 30.905680 53.921590 0
M  V30 7 C 40.033648 30.090073 51.708770 0
M  V30 8 H 38.295560 28.661424 54.282886 0
M  V30 9 H 38.003002 26.876390 52.571504 0
M  V30 10 H 39.009356 27.143302 50.310704 0
M  V30 11 H 40.300040 29.198722 49.757908 0
M  V30 12 H 40.595537 30.981637 51.469603 0
M  V30 END ATOM
M  V30 BEGIN BOND
M  V30 1 1 2 1
M  V30 2 2 3 2
M  V30 3 1 4 3
M  V30 4 2 5 1
M  V30 5 1 6 5
M  V30 6 2 7 4
M  V30 7 1 7 5
M  V30 8 1 8 1
M  V30 9 1 9 2
M  V30 10 1 10 3
M  V30 11 1 11 4
M  V30 12 1 12 7
M  V30 END BOND
M  V30 END CTAB
M  END
>  <i_epik_Tot_Q>  (1) 
0

>  <i_epik_Tot_abs_Q>  (1) 
0

>  <i_i_glide_confnum>  (1) 
1

>  <i_i_glide_lignum>  (1) 
37

>  <i_i_glide_posenum>  (1) 
78

>  <i_i_glide_rotatable_bonds>  (1) 
0

>  <i_lp_mmshare_version>  (1) 
72125

>  <i_m_source_file_index>  (1) 
35

>  <i_f3d_flags>  (1) 
0

>  <num_sample>  (1) 
100

>  <b_lp_Chiralities_Consistent>  (1) 
1

>  <r_epik_Charging_Adjusted_Penalty>  (1) 
0

>  <r_epik_Ionization_Penalty>  (1) 
0

>  <r_epik_Ionization_Penalty_Charging>  (1) 
0

>  <r_epik_Ionization_Penalty_Neutral>  (1) 
0

>  <r_epik_State_Penalty>  (1) 
-0

>  <r_glide_ring_energy>  (1) 
0

>  <r_i_docking_score>  (1) 
-5.7252613838679061

>  <r_i_glide_ecoul>  (1) 
-0.44556938370404164

>  <r_i_glide_eff_state_penalty>  (1) 
-0

>  <r_i_glide_einternal>  (1) 
0

>  <r_i_glide_emodel>  (1) 
-21.349795784609228

>  <r_i_glide_emodel_strain>  (1) 
0

>  <r_i_glide_energy>  (1) 
-15.735040037546826

>  <r_i_glide_erotb>  (1) 
0

>  <r_i_glide_esite>  (1) 
0

>  <r_i_glide_evdw>  (1) 
-15.289470653842784

>  <r_i_glide_gscore>  (1) 
-5.7252613838679061

>  <r_i_glide_gscore_strain>  (1) 
0

>  <r_i_glide_hbond>  (1) 
0

>  <r_i_glide_ligand_efficiency>  (1) 
-0.81789448340970083

>  <r_i_glide_ligand_efficiency_ln>  (1) 
-1.943460965944215

>  <r_i_glide_ligand_efficiency_sa>  (1) 
-1.5645758615319314

>  <r_i_glide_lipo>  (1) 
-1.840453492827099

>  <r_i_glide_metal>  (1) 
-0

>  <r_i_glide_rewards>  (1) 
-3.0534989507930614

>  <r_lp_Energy>  (1) 
8.194445

>  <r_lp_tautomer_probability>  (1) 
1

>  <s_epik_cmdline>  (1) 
J2VwaWtfcHl0aG9uJywgJy1waHQnLCAnMS4wJywgJy1waCcsICc3LjQnLCAnLXRuJywgJzgnLCAnLW1hJywgJzUwMCcsICctaW1hZScsICc8aW5maWxlLm1hZT4nLCAnLW9tYWUnLCAnPG91dGZpbGUubWFlPic=

>  <s_epik_input>  (1) 
RmMxW2NIXVtjSF1bY0hdW2NIXVtjSF0x

>  <s_glide_docking_method>  (1) 
confgen

>  <s_i_glide_gridfile>  (1) 
gpcr_5ht2c_6bqh_protein_autoprepared_prepared

>  <s_lp_Force_Field>  (1) 
S-OPLS

>  <s_lp_Variant>  (1) 
Pocket2Mol_34_num_sample_100-1

>  <s_m_source_file>  (1) 
generated__ligand_Pocket2Mol_2026-05-06_prepared.sdf

>  <GenAI_Model>  (1) 
Pocket2Mol

>  <Protein>  (1) 
GPCR_5HT2C

$$$$
Pocket2Mol_57_num_sample_100
     RDKit          3D

  0  0  0  0  0  0  0  0  0  0999 V3000
M  V30 BEGIN CTAB
M  V30 COUNTS 16 16 0 0 1
M  V30 BEGIN ATOM
M  V30 1 C 39.867401 30.421430 52.713624 0
M  V30 2 C 39.042713 30.320761 53.853501 0
M  V30 3 C 39.870267 29.391202 51.752978 0
M  V30 4 C 39.054833 28.258047 51.931362 0
M  V30 5 O 39.067282 27.259603 51.004181 0
M  V30 6 C 39.036371 31.431222 54.884452 0
M  V30 7 C 38.228055 28.156093 53.068147 0
M  V30 8 C 38.221362 29.186930 54.029130 0
M  V30 9 H 40.495398 31.288361 52.575248 0
M  V30 10 H 40.502424 29.469209 50.880494 0
M  V30 11 H 38.376748 26.624513 51.125250 0
M  V30 12 H 38.413113 31.177955 55.742979 0
M  V30 13 H 40.048236 31.621437 55.243045 0
M  V30 14 H 38.646386 32.350097 54.445458 0
M  V30 15 H 37.600027 27.287675 53.204792 0
M  V30 16 H 37.586913 29.107774 54.900265 0
M  V30 END ATOM
M  V30 BEGIN BOND
M  V30 1 1 2 1
M  V30 2 2 3 1
M  V30 3 1 4 3
M  V30 4 1 5 4
M  V30 5 1 6 2
M  V30 6 2 7 4
M  V30 7 2 8 2
M  V30 8 1 8 7
M  V30 9 1 9 1
M  V30 10 1 10 3
M  V30 11 1 11 5
M  V30 12 1 12 6
M  V30 13 1 13 6
M  V30 14 1 14 6
M  V30 15 1 15 7
M  V30 16 1 16 8
M  V30 END BOND
M  V30 END CTAB
M  END
>  <i_epik_Tot_Q>  (1) 
0

>  <i_epik_Tot_abs_Q>  (1) 
0

>  <i_i_glide_confnum>  (1) 
1

>  <i_i_glide_lignum>  (1) 
61

>  <i_i_glide_posenum>  (1) 
323

>  <i_i_glide_rotatable_bonds>  (1) 
1

>  <i_lp_mmshare_version>  (1) 
72125

>  <i_m_source_file_index>  (1) 
58

>  <i_f3d_flags>  (1) 
0

>  <num_sample>  (1) 
100

>  <b_lp_Chiralities_Consistent>  (1) 
1

>  <r_epik_Charging_Adjusted_Penalty>  (1) 
0

>  <r_epik_Ionization_Penalty>  (1) 
0.0011734046256504545

>  <r_epik_Ionization_Penalty_Charging>  (1) 
0

>  <r_epik_Ionization_Penalty_Neutral>  (1) 
0.0011734046256504545

>  <r_epik_State_Penalty>  (1) 
-0

>  <r_glide_ring_energy>  (1) 
0

>  <r_i_docking_score>  (1) 
-5.7182872493212447

>  <r_i_glide_ecoul>  (1) 
-1.6826745152971809

>  <r_i_glide_eff_state_penalty>  (1) 
-0

>  <r_i_glide_einternal>  (1) 
0.03029299596686845

>  <r_i_glide_emodel>  (1) 
-27.457483289901418

>  <r_i_glide_emodel_strain>  (1) 
0.004903090715702163

>  <r_i_glide_energy>  (1) 
-19.73760778638577

>  <r_i_glide_erotb>  (1) 
0

>  <r_i_glide_esite>  (1) 
0

>  <r_i_glide_evdw>  (1) 
-18.05493327108859

>  <r_i_glide_gscore>  (1) 
-5.7182872493212447

>  <r_i_glide_gscore_strain>  (1) 
0

>  <r_i_glide_hbond>  (1) 
0

>  <r_i_glide_ligand_efficiency>  (1) 
-0.71478590616515558

>  <r_i_glide_ligand_efficiency_ln>  (1) 
-1.8569234622333237

>  <r_i_glide_ligand_efficiency_sa>  (1) 
-1.4295718123303114

>  <r_i_glide_lipo>  (1) 
-2.0400594930878815

>  <r_i_glide_metal>  (1) 
-0

>  <r_i_glide_rewards>  (1) 
-2.5230799153843559

>  <r_lp_Energy>  (1) 
4.2645419999999996

>  <r_lp_tautomer_probability>  (1) 
1

>  <s_epik_cmdline>  (1) 
J2VwaWtfcHl0aG9uJywgJy1waHQnLCAnMS4wJywgJy1waCcsICc3LjQnLCAnLXRuJywgJzgnLCAnLW1hJywgJzUwMCcsICctaW1hZScsICc8aW5maWxlLm1hZT4nLCAnLW9tYWUnLCAnPG91dGZpbGUubWFlPic=

>  <s_epik_input>  (1) 
W0NIM11jMVtjSF1bY0hdYyhbT0hdKVtjSF1bY0hdMQ==

>  <s_glide_docking_method>  (1) 
confgen

>  <s_i_glide_gridfile>  (1) 
gpcr_5ht2c_6bqh_protein_autoprepared_prepared

>  <s_lp_Force_Field>  (1) 
S-OPLS

>  <s_lp_Variant>  (1) 
Pocket2Mol_57_num_sample_100-1

>  <s_m_source_file>  (1) 
generated__ligand_Pocket2Mol_2026-05-06_prepared.sdf

>  <GenAI_Model>  (1) 
Pocket2Mol

>  <Protein>  (1) 
GPCR_5HT2C

$$$$
Pocket2Mol_80_num_sample_100
     RDKit          3D

  0  0  0  0  0  0  0  0  0  0999 V3000
M  V30 BEGIN CTAB
M  V30 COUNTS 17 17 0 0 1
M  V30 BEGIN ATOM
M  V30 1 C 39.669603 30.428023 53.326696 0
M  V30 2 C 39.854709 29.660562 52.160242 0
M  V30 3 C 39.033626 28.541445 51.915158 0
M  V30 4 C 39.226338 27.726679 50.656820 0
M  V30 5 C 38.028455 28.188218 52.840006 0
M  V30 6 C 38.659677 30.078969 54.248919 0
M  V30 7 C 38.455371 30.891908 55.471514 0
M  V30 8 O 39.134286 31.879025 55.754572 0
M  V30 9 C 37.841031 28.956894 54.005594 0
M  V30 10 H 40.298675 31.285592 53.510884 0
M  V30 11 H 40.624753 29.932048 51.452513 0
M  V30 12 H 38.618112 26.821663 50.653564 0
M  V30 13 H 38.948441 28.340619 49.803337 0
M  V30 14 H 40.267403 27.439379 50.536055 0
M  V30 15 H 37.398725 27.330355 52.653584 0
M  V30 16 H 37.645147 30.542494 56.112057 0
M  V30 17 H 37.067611 28.687347 54.709281 0
M  V30 END ATOM
M  V30 BEGIN BOND
M  V30 1 2 2 1
M  V30 2 1 3 2
M  V30 3 1 4 3
M  V30 4 2 5 3
M  V30 5 1 6 1
M  V30 6 1 7 6
M  V30 7 2 8 7
M  V30 8 1 9 5
M  V30 9 2 9 6
M  V30 10 1 10 1
M  V30 11 1 11 2
M  V30 12 1 12 4
M  V30 13 1 13 4
M  V30 14 1 14 4
M  V30 15 1 15 5
M  V30 16 1 16 7
M  V30 17 1 17 9
M  V30 END BOND
M  V30 END CTAB
M  END
>  <i_epik_Tot_Q>  (1) 
0

>  <i_epik_Tot_abs_Q>  (1) 
0

>  <i_i_glide_confnum>  (1) 
1

>  <i_i_glide_lignum>  (1) 
85

>  <i_i_glide_posenum>  (1) 
218

>  <i_i_glide_rotatable_bonds>  (1) 
1

>  <i_lp_mmshare_version>  (1) 
72125

>  <i_m_source_file_index>  (1) 
81

>  <i_f3d_flags>  (1) 
0

>  <num_sample>  (1) 
100

>  <b_lp_Chiralities_Consistent>  (1) 
1

>  <r_epik_Charging_Adjusted_Penalty>  (1) 
0

>  <r_epik_Ionization_Penalty>  (1) 
0

>  <r_epik_Ionization_Penalty_Charging>  (1) 
0

>  <r_epik_Ionization_Penalty_Neutral>  (1) 
0

>  <r_epik_State_Penalty>  (1) 
-0

>  <r_glide_ring_energy>  (1) 
0

>  <r_i_docking_score>  (1) 
-5.715196486999778

>  <r_i_glide_ecoul>  (1) 
-1.3173718337012208

>  <r_i_glide_eff_state_penalty>  (1) 
-0

>  <r_i_glide_einternal>  (1) 
0.08040181582817052

>  <r_i_glide_emodel>  (1) 
-29.029333451916024

>  <r_i_glide_emodel_strain>  (1) 
0.0034633694388022107

>  <r_i_glide_energy>  (1) 
-21.378089582852553

>  <r_i_glide_erotb>  (1) 
0

>  <r_i_glide_esite>  (1) 
-0.029509540918905924

>  <r_i_glide_evdw>  (1) 
-20.060717749151333

>  <r_i_glide_gscore>  (1) 
-5.715196486999778

>  <r_i_glide_gscore_strain>  (1) 
0

>  <r_i_glide_hbond>  (1) 
0

>  <r_i_glide_ligand_efficiency>  (1) 
-0.63502183188886419

>  <r_i_glide_ligand_efficiency_ln>  (1) 
-1.787549278681392

>  <r_i_glide_ligand_efficiency_sa>  (1) 
-1.3208986397968125

>  <r_i_glide_lipo>  (1) 
-2.0896220203320834

>  <r_i_glide_metal>  (1) 
-0

>  <r_i_glide_rewards>  (1) 
-2.3954232632360384

>  <r_lp_Energy>  (1) 
4.8020719999999999

>  <r_lp_tautomer_probability>  (1) 
1

>  <s_epik_cmdline>  (1) 
J2VwaWtfcHl0aG9uJywgJy1waHQnLCAnMS4wJywgJy1waCcsICc3LjQnLCAnLXRuJywgJzgnLCAnLW1hJywgJzUwMCcsICctaW1hZScsICc8aW5maWxlLm1hZT4nLCAnLW9tYWUnLCAnPG91dGZpbGUubWFlPic=

>  <s_epik_input>  (1) 
W2NIXTFbY0hdYyhbQ0hdPU8pW2NIXVtjSF1jMVtDSDNd

>  <s_glide_docking_method>  (1) 
confgen

>  <s_i_glide_gridfile>  (1) 
gpcr_5ht2c_6bqh_protein_autoprepared_prepared

>  <s_lp_Force_Field>  (1) 
S-OPLS

>  <s_lp_Variant>  (1) 
Pocket2Mol_80_num_sample_100-1

>  <s_m_source_file>  (1) 
generated__ligand_Pocket2Mol_2026-05-06_prepared.sdf

>  <GenAI_Model>  (1) 
Pocket2Mol

>  <Protein>  (1) 
GPCR_5HT2C

$$$$
Pocket2Mol_49_num_sample_100
     RDKit          3D

  0  0  0  0  0  0  0  0  0  0999 V3000
M  V30 BEGIN CTAB
M  V30 COUNTS 16 16 0 0 1
M  V30 BEGIN ATOM
M  V30 1 C 38.648749 29.761380 54.175049 0
M  V30 2 C 39.467405 30.330215 53.180593 0
M  V30 3 C 39.730420 29.619370 51.989859 0
M  V30 4 C 40.607000 30.236493 50.916761 0
M  V30 5 C 39.173431 28.334230 51.800099 0
M  V30 6 O 39.429471 27.638666 50.653512 0
M  V30 7 C 38.091202 28.482645 53.983031 0
M  V30 8 C 38.353010 27.769336 52.796949 0
M  V30 9 H 38.446795 30.307372 55.085451 0
M  V30 10 H 39.891142 31.312580 53.329516 0
M  V30 11 H 40.957260 31.221428 51.213640 0
M  V30 12 H 41.484275 29.621409 50.734906 0
M  V30 13 H 40.054662 30.335900 49.981691 0
M  V30 14 H 38.980756 26.807969 50.596912 0
M  V30 15 H 37.463272 28.048340 54.746374 0
M  V30 16 H 37.923973 26.789321 52.653266 0
M  V30 END ATOM
M  V30 BEGIN BOND
M  V30 1 1 2 1
M  V30 2 2 3 2
M  V30 3 1 4 3
M  V30 4 1 5 3
M  V30 5 1 6 5
M  V30 6 2 7 1
M  V30 7 2 8 5
M  V30 8 1 8 7
M  V30 9 1 9 1
M  V30 10 1 10 2
M  V30 11 1 11 4
M  V30 12 1 12 4
M  V30 13 1 13 4
M  V30 14 1 14 6
M  V30 15 1 15 7
M  V30 16 1 16 8
M  V30 END BOND
M  V30 END CTAB
M  END
>  <i_epik_Tot_Q>  (1) 
0

>  <i_epik_Tot_abs_Q>  (1) 
0

>  <i_i_glide_confnum>  (1) 
1

>  <i_i_glide_lignum>  (1) 
52

>  <i_i_glide_posenum>  (1) 
309

>  <i_i_glide_rotatable_bonds>  (1) 
1

>  <i_lp_mmshare_version>  (1) 
72125

>  <i_m_source_file_index>  (1) 
50

>  <i_f3d_flags>  (1) 
0

>  <num_sample>  (1) 
100

>  <b_lp_Chiralities_Consistent>  (1) 
1

>  <r_epik_Charging_Adjusted_Penalty>  (1) 
0

>  <r_epik_Ionization_Penalty>  (1) 
0.00081241911792291806

>  <r_epik_Ionization_Penalty_Charging>  (1) 
0

>  <r_epik_Ionization_Penalty_Neutral>  (1) 
0.00081241911792291806

>  <r_epik_State_Penalty>  (1) 
-0

>  <r_glide_ring_energy>  (1) 
0

>  <r_i_docking_score>  (1) 
-5.7149464006388913

>  <r_i_glide_ecoul>  (1) 
-1.9264381169918579

>  <r_i_glide_eff_state_penalty>  (1) 
-0

>  <r_i_glide_einternal>  (1) 
0.0074870271524986598

>  <r_i_glide_emodel>  (1) 
-27.543162247606521

>  <r_i_glide_emodel_strain>  (1) 
0

>  <r_i_glide_energy>  (1) 
-20.358669978963391

>  <r_i_glide_erotb>  (1) 
0

>  <r_i_glide_esite>  (1) 
0

>  <r_i_glide_evdw>  (1) 
-18.432231861971534

>  <r_i_glide_gscore>  (1) 
-5.7149464006388913

>  <r_i_glide_gscore_strain>  (1) 
0

>  <r_i_glide_hbond>  (1) 
0

>  <r_i_glide_ligand_efficiency>  (1) 
-0.71436830007986141

>  <r_i_glide_ligand_efficiency_ln>  (1) 
-1.8558385743933905

>  <r_i_glide_ligand_efficiency_sa>  (1) 
-1.428736600159723

>  <r_i_glide_lipo>  (1) 
-2.0667085545676156

>  <r_i_glide_metal>  (1) 
-0

>  <r_i_glide_rewards>  (1) 
-2.4376605354239205

>  <r_lp_Energy>  (1) 
7.6312429999999996

>  <r_lp_tautomer_probability>  (1) 
1

>  <s_epik_cmdline>  (1) 
J2VwaWtfcHl0aG9uJywgJy1waHQnLCAnMS4wJywgJy1waCcsICc3LjQnLCAnLXRuJywgJzgnLCAnLW1hJywgJzUwMCcsICctaW1hZScsICc8aW5maWxlLm1hZT4nLCAnLW9tYWUnLCAnPG91dGZpbGUubWFlPic=

>  <s_epik_input>  (1) 
W0NIM11jMVtjSF1bY0hdW2NIXVtjSF1jMVtPSF0=

>  <s_glide_docking_method>  (1) 
confgen

>  <s_i_glide_gridfile>  (1) 
gpcr_5ht2c_6bqh_protein_autoprepared_prepared

>  <s_lp_Force_Field>  (1) 
S-OPLS

>  <s_lp_Variant>  (1) 
Pocket2Mol_49_num_sample_100-1

>  <s_m_source_file>  (1) 
generated__ligand_Pocket2Mol_2026-05-06_prepared.sdf

>  <GenAI_Model>  (1) 
Pocket2Mol

>  <Protein>  (1) 
GPCR_5HT2C

$$$$
Pocket2Mol_75_num_sample_100
     RDKit          3D

  0  0  0  0  0  0  0  0  0  0999 V3000
M  V30 BEGIN CTAB
M  V30 COUNTS 21 22 0 0 1
M  V30 BEGIN ATOM
M  V30 1 C 37.713195 27.232164 53.758205 0
M  V30 2 C 38.567510 26.444750 54.763137 0 CFG=1
M  V30 3 C 38.261476 28.667299 53.848307 0
M  V30 4 C 38.719405 28.813765 55.306567 0
M  V30 5 N 38.970155 27.452906 55.750995 0
M  V30 6 N 38.799774 27.225088 57.096744 0
M  V30 7 C 38.667308 26.029793 57.568387 0
M  V30 8 C 38.564593 24.821564 56.673950 0
M  V30 9 C 37.870933 25.214540 55.365080 0
M  V30 10 H 37.761113 26.821418 52.749151 0
M  V30 11 H 36.667428 27.236618 54.066862 0
M  V30 12 H 39.484003 26.117968 54.269879 0
M  V30 13 H 39.121073 28.768337 53.184760 0
M  V30 14 H 37.527910 29.420760 53.561367 0
M  V30 15 H 39.621388 29.419350 55.399135 0
M  V30 16 H 37.932654 29.258822 55.918366 0
M  V30 17 H 38.628903 25.874232 58.646721 0
M  V30 18 H 39.560837 24.421693 56.484193 0
M  V30 19 H 37.994023 24.037204 57.171960 0
M  V30 20 H 36.825899 25.446388 55.578179 0
M  V30 21 H 37.867820 24.387715 54.653650 0
M  V30 END ATOM
M  V30 BEGIN BOND
M  V30 1 1 2 1
M  V30 2 1 3 1
M  V30 3 1 4 3
M  V30 4 1 5 2
M  V30 5 1 5 4
M  V30 6 1 6 5
M  V30 7 2 7 6
M  V30 8 1 8 7
M  V30 9 1 9 2
M  V30 10 1 9 8
M  V30 11 1 10 1
M  V30 12 1 11 1
M  V30 13 1 2 12 CFG=3
M  V30 14 1 13 3
M  V30 15 1 14 3
M  V30 16 1 15 4
M  V30 17 1 16 4
M  V30 18 1 17 7
M  V30 19 1 18 8
M  V30 20 1 19 8
M  V30 21 1 20 9
M  V30 22 1 21 9
M  V30 END BOND
M  V30 END CTAB
M  END
>  <i_epik_Tot_Q>  (1) 
0

>  <i_epik_Tot_abs_Q>  (1) 
0

>  <i_i_glide_confnum>  (1) 
1

>  <i_i_glide_lignum>  (1) 
80

>  <i_i_glide_posenum>  (1) 
185

>  <i_i_glide_rotatable_bonds>  (1) 
0

>  <i_lp_mmshare_version>  (1) 
72125

>  <i_m_source_file_index>  (1) 
76

>  <i_f3d_flags>  (1) 
0

>  <num_sample>  (1) 
100

>  <b_lp_Chiralities_Consistent>  (1) 
1

>  <r_epik_Charging_Adjusted_Penalty>  (1) 
0

>  <r_epik_Ionization_Penalty>  (1) 
0.0031146778150898829

>  <r_epik_Ionization_Penalty_Charging>  (1) 
0

>  <r_epik_Ionization_Penalty_Neutral>  (1) 
0.0031146778150898829

>  <r_epik_State_Penalty>  (1) 
-0

>  <r_glide_ring_energy>  (1) 
0

>  <r_i_docking_score>  (1) 
-5.7100501970404149

>  <r_i_glide_ecoul>  (1) 
0.29442659375508529

>  <r_i_glide_eff_state_penalty>  (1) 
-0

>  <r_i_glide_einternal>  (1) 
0

>  <r_i_glide_emodel>  (1) 
-27.764971027577932

>  <r_i_glide_emodel_strain>  (1) 
0

>  <r_i_glide_energy>  (1) 
-20.103721718660186

>  <r_i_glide_erotb>  (1) 
0

>  <r_i_glide_esite>  (1) 
0

>  <r_i_glide_evdw>  (1) 
-20.39814831241527

>  <r_i_glide_gscore>  (1) 
-5.7100501970404149

>  <r_i_glide_gscore_strain>  (1) 
0

>  <r_i_glide_hbond>  (1) 
0

>  <r_i_glide_ligand_efficiency>  (1) 
-0.6344500218933794

>  <r_i_glide_ligand_efficiency_ln>  (1) 
-1.7859396670213783

>  <r_i_glide_ligand_efficiency_sa>  (1) 
-1.3197092270753452

>  <r_i_glide_lipo>  (1) 
-1.7003115134479667

>  <r_i_glide_metal>  (1) 
-0

>  <r_i_glide_rewards>  (1) 
-3.0339952570349471

>  <r_lp_Energy>  (1) 
16.062878999999999

>  <r_lp_tautomer_probability>  (1) 
1

>  <s_epik_Chemistry_Notes>  (1) 
This compound has an imine and may undergo hydrolysis.

>  <s_epik_cmdline>  (1) 
J2VwaWtfcHl0aG9uJywgJy1waHQnLCAnMS4wJywgJy1waCcsICc3LjQnLCAnLXRuJywgJzgnLCAnLW1hJywgJzUwMCcsICctaW1hZScsICc8aW5maWxlLm1hZT4nLCAnLW9tYWUnLCAnPG91dGZpbGUubWFlPic=

>  <s_epik_input>  (1) 
W0NIMl0xW0NIMl1bQ0gyXU4oW0NASF0xMilOPVtDSF1bQ0gyXVtDSDJdMg==

>  <s_glide_docking_method>  (1) 
confgen

>  <s_i_glide_gridfile>  (1) 
gpcr_5ht2c_6bqh_protein_autoprepared_prepared

>  <s_lp_Force_Field>  (1) 
S-OPLS

>  <s_lp_Variant>  (1) 
Pocket2Mol_75_num_sample_100-1

>  <s_m_source_file>  (1) 
generated__ligand_Pocket2Mol_2026-05-06_prepared.sdf

>  <GenAI_Model>  (1) 
Pocket2Mol

>  <Protein>  (1) 
GPCR_5HT2C

$$$$
Pocket2Mol_69_num_sample_100
     RDKit          3D

  0  0  0  0  0  0  0  0  0  0999 V3000
M  V30 BEGIN CTAB
M  V30 COUNTS 15 16 0 0 1
M  V30 BEGIN ATOM
M  V30 1 C 39.525321 28.306387 50.653501 0
M  V30 2 O 40.170539 29.449602 51.292124 0
M  V30 3 O 38.498415 27.698254 51.491357 0
M  V30 4 C 39.467849 29.488911 52.428045 0
M  V30 5 C 38.549862 28.526499 52.537288 0
M  V30 6 C 37.719668 28.421420 53.665021 0
M  V30 7 C 37.866428 29.367955 54.707327 0
M  V30 8 C 39.654405 30.449835 53.435032 0
M  V30 9 C 38.842331 30.390861 54.590745 0
M  V30 10 H 40.267273 27.550303 50.402793 0
M  V30 11 H 39.067354 28.652065 49.728843 0
M  V30 12 H 36.981720 27.635271 53.734091 0
M  V30 13 H 37.239868 29.314263 55.585290 0
M  V30 14 H 40.402314 31.221063 53.327323 0
M  V30 15 H 38.962630 31.119382 55.379043 0
M  V30 END ATOM
M  V30 BEGIN BOND
M  V30 1 1 2 1
M  V30 2 1 3 1
M  V30 3 1 4 2
M  V30 4 1 5 3
M  V30 5 1 5 4
M  V30 6 2 6 5
M  V30 7 1 7 6
M  V30 8 2 8 4
M  V30 9 2 9 7
M  V30 10 1 9 8
M  V30 11 1 10 1
M  V30 12 1 11 1
M  V30 13 1 12 6
M  V30 14 1 13 7
M  V30 15 1 14 8
M  V30 16 1 15 9
M  V30 END BOND
M  V30 END CTAB
M  END
>  <i_epik_Tot_Q>  (1) 
0

>  <i_epik_Tot_abs_Q>  (1) 
0

>  <i_i_glide_confnum>  (1) 
1

>  <i_i_glide_lignum>  (1) 
74

>  <i_i_glide_posenum>  (1) 
20

>  <i_i_glide_rotatable_bonds>  (1) 
0

>  <i_lp_mmshare_version>  (1) 
72125

>  <i_m_source_file_index>  (1) 
70

>  <i_f3d_flags>  (1) 
0

>  <num_sample>  (1) 
100

>  <b_lp_Chiralities_Consistent>  (1) 
1

>  <r_epik_Charging_Adjusted_Penalty>  (1) 
0

>  <r_epik_Ionization_Penalty>  (1) 
0

>  <r_epik_Ionization_Penalty_Charging>  (1) 
0

>  <r_epik_Ionization_Penalty_Neutral>  (1) 
0

>  <r_epik_State_Penalty>  (1) 
-0

>  <r_glide_ring_energy>  (1) 
0

>  <r_i_docking_score>  (1) 
-5.7072788986909568

>  <r_i_glide_ecoul>  (1) 
-0.2854266133469075

>  <r_i_glide_eff_state_penalty>  (1) 
-0

>  <r_i_glide_einternal>  (1) 
0

>  <r_i_glide_emodel>  (1) 
-27.074321448481022

>  <r_i_glide_emodel_strain>  (1) 
0

>  <r_i_glide_energy>  (1) 
-19.76321066709259

>  <r_i_glide_erotb>  (1) 
0

>  <r_i_glide_esite>  (1) 
0

>  <r_i_glide_evdw>  (1) 
-19.477784053745683

>  <r_i_glide_gscore>  (1) 
-5.7072788986909568

>  <r_i_glide_gscore_strain>  (1) 
0

>  <r_i_glide_hbond>  (1) 
0

>  <r_i_glide_ligand_efficiency>  (1) 
-0.63414209985455072

>  <r_i_glide_ligand_efficiency_ln>  (1) 
-1.7850728845097266

>  <r_i_glide_ligand_efficiency_sa>  (1) 
-1.3190687234236165

>  <r_i_glide_lipo>  (1) 
-1.5573820452247258

>  <r_i_glide_metal>  (1) 
-0

>  <r_i_glide_rewards>  (1) 
-3.1331936587769107

>  <r_lp_Energy>  (1) 
19.342499999999998

>  <r_lp_tautomer_probability>  (1) 
1

>  <s_epik_Chemistry_Notes>  (1) 
This compound contains an acetal/aminal-like group ( X-CH(R)-Y where X, Y are N, S, or O) that may be acid/base labile, releasing an aldehyde.

>  <s_epik_cmdline>  (1) 
J2VwaWtfcHl0aG9uJywgJy1waHQnLCAnMS4wJywgJy1waCcsICc3LjQnLCAnLXRuJywgJzgnLCAnLW1hJywgJzUwMCcsICctaW1hZScsICc8aW5maWxlLm1hZT4nLCAnLW9tYWUnLCAnPG91dGZpbGUubWFlPic=

>  <s_epik_input>  (1) 
TzFbQ0gyXU9jKGMxMilbY0hdW2NIXVtjSF1bY0hdMg==

>  <s_glide_docking_method>  (1) 
confgen

>  <s_i_glide_gridfile>  (1) 
gpcr_5ht2c_6bqh_protein_autoprepared_prepared

>  <s_lp_Force_Field>  (1) 
S-OPLS

>  <s_lp_Variant>  (1) 
Pocket2Mol_69_num_sample_100-1

>  <s_m_source_file>  (1) 
generated__ligand_Pocket2Mol_2026-05-06_prepared.sdf

>  <GenAI_Model>  (1) 
Pocket2Mol

>  <Protein>  (1) 
GPCR_5HT2C

$$$$
Pocket2Mol_75_num_sample_100
     RDKit          3D

  0  0  0  0  0  0  0  0  0  0999 V3000
M  V30 BEGIN CTAB
M  V30 COUNTS 21 22 0 0 1
M  V30 BEGIN ATOM
M  V30 1 C 38.822966 28.502093 55.218757 0
M  V30 2 C 38.454469 28.534236 53.728894 0 CFG=1
M  V30 3 C 38.951302 29.990987 55.594415 0
M  V30 4 C 39.467386 30.669994 54.317036 0
M  V30 5 N 39.069161 29.774853 53.245292 0
M  V30 6 N 39.867405 29.780676 52.123976 0
M  V30 7 C 39.785641 28.841030 51.241738 0
M  V30 8 C 38.924714 27.621431 51.447651 0
M  V30 9 C 38.858764 27.281100 52.939007 0
M  V30 10 H 38.087021 27.972747 55.824431 0
M  V30 11 H 39.788336 28.014639 55.362059 0
M  V30 12 H 37.376299 28.670999 53.633961 0
M  V30 13 H 37.964889 30.387680 55.841319 0
M  V30 14 H 39.600933 30.159719 56.453446 0
M  V30 15 H 39.033559 31.659511 54.169254 0
M  V30 16 H 40.554694 30.760524 54.332884 0
M  V30 17 H 40.349068 28.919837 50.312466 0
M  V30 18 H 37.925191 27.804377 51.053505 0
M  V30 19 H 39.336770 26.778498 50.893430 0
M  V30 20 H 39.839420 26.930096 53.264087 0
M  V30 21 H 38.158672 26.466034 53.124740 0
M  V30 END ATOM
M  V30 BEGIN BOND
M  V30 1 1 2 1
M  V30 2 1 3 1
M  V30 3 1 4 3
M  V30 4 1 5 2
M  V30 5 1 5 4
M  V30 6 1 6 5
M  V30 7 2 7 6
M  V30 8 1 8 7
M  V30 9 1 9 2
M  V30 10 1 9 8
M  V30 11 1 10 1
M  V30 12 1 11 1
M  V30 13 1 2 12 CFG=1
M  V30 14 1 13 3
M  V30 15 1 14 3
M  V30 16 1 15 4
M  V30 17 1 16 4
M  V30 18 1 17 7
M  V30 19 1 18 8
M  V30 20 1 19 8
M  V30 21 1 20 9
M  V30 22 1 21 9
M  V30 END BOND
M  V30 END CTAB
M  END
>  <i_epik_Tot_Q>  (1) 
0

>  <i_epik_Tot_abs_Q>  (1) 
0

>  <i_i_glide_confnum>  (1) 
1

>  <i_i_glide_lignum>  (1) 
80

>  <i_i_glide_posenum>  (1) 
229

>  <i_i_glide_rotatable_bonds>  (1) 
0

>  <i_lp_mmshare_version>  (1) 
72125

>  <i_m_source_file_index>  (1) 
76

>  <i_f3d_flags>  (1) 
0

>  <num_sample>  (1) 
100

>  <b_lp_Chiralities_Consistent>  (1) 
1

>  <r_epik_Charging_Adjusted_Penalty>  (1) 
0

>  <r_epik_Ionization_Penalty>  (1) 
0.0031146778150898829

>  <r_epik_Ionization_Penalty_Charging>  (1) 
0

>  <r_epik_Ionization_Penalty_Neutral>  (1) 
0.0031146778150898829

>  <r_epik_State_Penalty>  (1) 
-0

>  <r_glide_ring_energy>  (1) 
0

>  <r_i_docking_score>  (1) 
-5.7067464115209594

>  <r_i_glide_ecoul>  (1) 
-0.57238186781041067

>  <r_i_glide_eff_state_penalty>  (1) 
-0

>  <r_i_glide_einternal>  (1) 
0

>  <r_i_glide_emodel>  (1) 
-30.207513373776653

>  <r_i_glide_emodel_strain>  (1) 
0

>  <r_i_glide_energy>  (1) 
-22.550696797261306

>  <r_i_glide_erotb>  (1) 
0

>  <r_i_glide_esite>  (1) 
0

>  <r_i_glide_evdw>  (1) 
-21.978314929450896

>  <r_i_glide_gscore>  (1) 
-5.7067464115209594

>  <r_i_glide_gscore_strain>  (1) 
0

>  <r_i_glide_hbond>  (1) 
0

>  <r_i_glide_ligand_efficiency>  (1) 
-0.6340829346134399

>  <r_i_glide_ligand_efficiency_ln>  (1) 
-1.7849063378198968

>  <r_i_glide_ligand_efficiency_sa>  (1) 
-1.318945654762695

>  <r_i_glide_lipo>  (1) 
-1.4907784209643

>  <r_i_glide_metal>  (1) 
-0

>  <r_i_glide_rewards>  (1) 
-3.0311949639125539

>  <r_lp_Energy>  (1) 
16.062878999999999

>  <r_lp_tautomer_probability>  (1) 
1

>  <s_epik_Chemistry_Notes>  (1) 
This compound has an imine and may undergo hydrolysis.

>  <s_epik_cmdline>  (1) 
J2VwaWtfcHl0aG9uJywgJy1waHQnLCAnMS4wJywgJy1waCcsICc3LjQnLCAnLXRuJywgJzgnLCAnLW1hJywgJzUwMCcsICctaW1hZScsICc8aW5maWxlLm1hZT4nLCAnLW9tYWUnLCAnPG91dGZpbGUubWFlPic=

>  <s_epik_input>  (1) 
W0NIMl0xW0NIMl1bQ0gyXU4oW0NASF0xMilOPVtDSF1bQ0gyXVtDSDJdMg==

>  <s_glide_docking_method>  (1) 
confgen

>  <s_i_glide_gridfile>  (1) 
gpcr_5ht2c_6bqh_protein_autoprepared_prepared

>  <s_lp_Force_Field>  (1) 
S-OPLS

>  <s_lp_Variant>  (1) 
Pocket2Mol_75_num_sample_100-1

>  <s_m_source_file>  (1) 
generated__ligand_Pocket2Mol_2026-05-06_prepared.sdf

>  <GenAI_Model>  (1) 
Pocket2Mol

>  <Protein>  (1) 
GPCR_5HT2C

$$$$
Pocket2Mol_58_num_sample_100
     RDKit          3D

  0  0  0  0  0  0  0  0  0  0999 V3000
M  V30 BEGIN CTAB
M  V30 COUNTS 17 17 0 0 1
M  V30 BEGIN ATOM
M  V30 1 C 39.025702 31.478543 54.875297 0
M  V30 2 C 39.035142 30.350422 53.864339 0
M  V30 3 C 39.867403 30.428178 52.728935 0
M  V30 4 C 39.872181 29.383287 51.786583 0
M  V30 5 C 39.052784 28.256080 51.979962 0
M  V30 6 C 38.209619 29.222788 54.055121 0
M  V30 7 N 39.067401 27.221431 51.053501 0
M  V30 8 C 38.219451 28.176039 53.113337 0
M  V30 9 H 38.343326 31.271835 55.700618 0
M  V30 10 H 40.023365 31.625131 55.288798 0
M  V30 11 H 38.705569 32.407029 54.401015 0
M  V30 12 H 40.499602 31.290456 52.579704 0
M  V30 13 H 40.510246 29.445377 50.917072 0
M  V30 14 H 37.569921 29.160922 54.923418 0
M  V30 15 H 38.358957 26.500536 51.085342 0
M  V30 16 H 39.519978 27.349364 50.160392 0
M  V30 17 H 37.588186 27.311654 53.261454 0
M  V30 END ATOM
M  V30 BEGIN BOND
M  V30 1 1 2 1
M  V30 2 1 3 2
M  V30 3 2 4 3
M  V30 4 1 5 4
M  V30 5 2 6 2
M  V30 6 1 7 5
M  V30 7 2 8 5
M  V30 8 1 8 6
M  V30 9 1 9 1
M  V30 10 1 10 1
M  V30 11 1 11 1
M  V30 12 1 12 3
M  V30 13 1 13 4
M  V30 14 1 14 6
M  V30 15 1 15 7
M  V30 16 1 16 7
M  V30 17 1 17 8
M  V30 END BOND
M  V30 END CTAB
M  END
>  <i_epik_Tot_Q>  (1) 
0

>  <i_epik_Tot_abs_Q>  (1) 
0

>  <i_i_glide_confnum>  (1) 
1

>  <i_i_glide_lignum>  (1) 
62

>  <i_i_glide_posenum>  (1) 
294

>  <i_i_glide_rotatable_bonds>  (1) 
0

>  <i_lp_mmshare_version>  (1) 
72125

>  <i_m_source_file_index>  (1) 
59

>  <i_f3d_flags>  (1) 
0

>  <num_sample>  (1) 
100

>  <b_lp_Chiralities_Consistent>  (1) 
1

>  <r_epik_Charging_Adjusted_Penalty>  (1) 
0

>  <r_epik_Ionization_Penalty>  (1) 
0.002249743429862997

>  <r_epik_Ionization_Penalty_Charging>  (1) 
0

>  <r_epik_Ionization_Penalty_Neutral>  (1) 
0.002249743429862997

>  <r_epik_State_Penalty>  (1) 
-0

>  <r_glide_ring_energy>  (1) 
0

>  <r_i_docking_score>  (1) 
-5.7064922886900717

>  <r_i_glide_ecoul>  (1) 
-1.6379766891154737

>  <r_i_glide_eff_state_penalty>  (1) 
-0

>  <r_i_glide_einternal>  (1) 
0

>  <r_i_glide_emodel>  (1) 
-26.813683370868425

>  <r_i_glide_emodel_strain>  (1) 
0

>  <r_i_glide_energy>  (1) 
-19.67247443422966

>  <r_i_glide_erotb>  (1) 
0

>  <r_i_glide_esite>  (1) 
0

>  <r_i_glide_evdw>  (1) 
-18.034497745114187

>  <r_i_glide_gscore>  (1) 
-5.7064922886900717

>  <r_i_glide_gscore_strain>  (1) 
0

>  <r_i_glide_hbond>  (1) 
0

>  <r_i_glide_ligand_efficiency>  (1) 
-0.71331153608625897

>  <r_i_glide_ligand_efficiency_ln>  (1) 
-1.8530932350731293

>  <r_i_glide_ligand_efficiency_sa>  (1) 
-1.4266230721725182

>  <r_i_glide_lipo>  (1) 
-2.0371426466318558

>  <r_i_glide_metal>  (1) 
-0

>  <r_i_glide_rewards>  (1) 
-2.5219282514351855

>  <r_lp_Energy>  (1) 
4.6440260000000002

>  <r_lp_tautomer_probability>  (1) 
1

>  <s_epik_cmdline>  (1) 
J2VwaWtfcHl0aG9uJywgJy1waHQnLCAnMS4wJywgJy1waCcsICc3LjQnLCAnLXRuJywgJzgnLCAnLW1hJywgJzUwMCcsICctaW1hZScsICc8aW5maWxlLm1hZT4nLCAnLW9tYWUnLCAnPG91dGZpbGUubWFlPic=

>  <s_epik_input>  (1) 
W0NIM11jMVtjSF1bY0hdYyhbTkgyXSlbY0hdW2NIXTE=

>  <s_glide_docking_method>  (1) 
confgen

>  <s_i_glide_gridfile>  (1) 
gpcr_5ht2c_6bqh_protein_autoprepared_prepared

>  <s_lp_Force_Field>  (1) 
S-OPLS

>  <s_lp_Variant>  (1) 
Pocket2Mol_58_num_sample_100-1

>  <s_m_source_file>  (1) 
generated__ligand_Pocket2Mol_2026-05-06_prepared.sdf

>  <GenAI_Model>  (1) 
Pocket2Mol

>  <Protein>  (1) 
GPCR_5HT2C

$$$$
Pocket2Mol_27_num_sample_100
     RDKit          3D

  0  0  0  0  0  0  0  0  0  0999 V3000
M  V30 BEGIN CTAB
M  V30 COUNTS 15 15 0 0 1
M  V30 BEGIN ATOM
M  V30 1 C 39.980743 30.103632 51.792209 0
M  V30 2 C 39.867404 29.116469 50.793727 0
M  V30 3 C 39.154274 27.930081 51.053503 0
M  V30 4 C 39.381254 29.907324 53.053499 0
M  V30 5 C 38.554472 27.731170 52.312198 0
M  V30 6 C 39.507791 30.973764 54.121803 0
M  V30 7 C 38.667406 28.717953 53.311211 0
M  V30 8 H 40.528914 31.011785 51.587571 0
M  V30 9 H 40.327583 29.269533 49.828626 0
M  V30 10 H 39.067399 27.173186 50.287862 0
M  V30 11 H 38.007503 26.821430 52.511729 0
M  V30 12 H 38.995314 30.682322 55.039067 0
M  V30 13 H 40.557560 31.147815 54.359171 0
M  V30 14 H 39.074027 31.911175 53.772861 0
M  V30 15 H 38.204185 28.557033 54.273779 0
M  V30 END ATOM
M  V30 BEGIN BOND
M  V30 1 1 2 1
M  V30 2 2 3 2
M  V30 3 2 4 1
M  V30 4 1 5 3
M  V30 5 1 6 4
M  V30 6 1 7 4
M  V30 7 2 7 5
M  V30 8 1 8 1
M  V30 9 1 9 2
M  V30 10 1 10 3
M  V30 11 1 11 5
M  V30 12 1 12 6
M  V30 13 1 13 6
M  V30 14 1 14 6
M  V30 15 1 15 7
M  V30 END BOND
M  V30 END CTAB
M  END
>  <i_epik_Tot_Q>  (1) 
0

>  <i_epik_Tot_abs_Q>  (1) 
0

>  <i_i_glide_confnum>  (1) 
1

>  <i_i_glide_lignum>  (1) 
30

>  <i_i_glide_posenum>  (1) 
254

>  <i_i_glide_rotatable_bonds>  (1) 
0

>  <i_lp_mmshare_version>  (1) 
72125

>  <i_m_source_file_index>  (1) 
28

>  <i_f3d_flags>  (1) 
0

>  <num_sample>  (1) 
100

>  <b_lp_Chiralities_Consistent>  (1) 
1

>  <r_epik_Charging_Adjusted_Penalty>  (1) 
0

>  <r_epik_Ionization_Penalty>  (1) 
0

>  <r_epik_Ionization_Penalty_Charging>  (1) 
0

>  <r_epik_Ionization_Penalty_Neutral>  (1) 
0

>  <r_epik_State_Penalty>  (1) 
-0

>  <r_glide_ring_energy>  (1) 
0

>  <r_i_docking_score>  (1) 
-5.7031076037030513

>  <r_i_glide_ecoul>  (1) 
-1.0447990779969887

>  <r_i_glide_eff_state_penalty>  (1) 
-0

>  <r_i_glide_einternal>  (1) 
0

>  <r_i_glide_emodel>  (1) 
-23.634838097510773

>  <r_i_glide_emodel_strain>  (1) 
0

>  <r_i_glide_energy>  (1) 
-17.334111506048188

>  <r_i_glide_erotb>  (1) 
0

>  <r_i_glide_esite>  (1) 
0

>  <r_i_glide_evdw>  (1) 
-16.2893124280512

>  <r_i_glide_gscore>  (1) 
-5.7031076037030513

>  <r_i_glide_gscore_strain>  (1) 
0

>  <r_i_glide_hbond>  (1) 
0

>  <r_i_glide_ligand_efficiency>  (1) 
-0.81472965767186445

>  <r_i_glide_ligand_efficiency_ln>  (1) 
-1.9359407840500187

>  <r_i_glide_ligand_efficiency_sa>  (1) 
-1.5585217676899834

>  <r_i_glide_lipo>  (1) 
-2.1416829075619526

>  <r_i_glide_metal>  (1) 
-0

>  <r_i_glide_rewards>  (1) 
-2.59023921303899

>  <r_lp_Energy>  (1) 
6.403492

>  <r_lp_tautomer_probability>  (1) 
1

>  <s_epik_cmdline>  (1) 
J2VwaWtfcHl0aG9uJywgJy1waHQnLCAnMS4wJywgJy1waCcsICc3LjQnLCAnLXRuJywgJzgnLCAnLW1hJywgJzUwMCcsICctaW1hZScsICc8aW5maWxlLm1hZT4nLCAnLW9tYWUnLCAnPG91dGZpbGUubWFlPic=

>  <s_epik_input>  (1) 
W0NIM11jMVtjSF1bY0hdW2NIXVtjSF1bY0hdMQ==

>  <s_glide_docking_method>  (1) 
confgen

>  <s_i_glide_gridfile>  (1) 
gpcr_5ht2c_6bqh_protein_autoprepared_prepared

>  <s_lp_Force_Field>  (1) 
S-OPLS

>  <s_lp_Variant>  (1) 
Pocket2Mol_27_num_sample_100-1

>  <s_m_source_file>  (1) 
generated__ligand_Pocket2Mol_2026-05-06_prepared.sdf

>  <GenAI_Model>  (1) 
Pocket2Mol

>  <Protein>  (1) 
GPCR_5HT2C

$$$$
Pocket2Mol_59_num_sample_100
     RDKit          3D

  0  0  0  0  0  0  0  0  0  0999 V3000
M  V30 BEGIN CTAB
M  V30 COUNTS 16 16 0 0 1
M  V30 BEGIN ATOM
M  V30 1 C 39.076107 30.517112 53.853506 0
M  V30 2 C 38.277291 29.386874 54.107052 0
M  V30 3 C 38.266905 28.311296 53.197058 0
M  V30 4 N 37.467406 27.196160 53.453505 0
M  V30 5 C 39.867404 30.574836 52.690568 0
M  V30 6 C 39.066614 28.368566 52.027125 0
M  V30 7 N 39.067394 27.308145 51.119331 0
M  V30 8 C 39.865154 29.502291 51.779432 0
M  V30 9 H 39.080783 31.342236 54.550936 0
M  V30 10 H 37.669832 29.346846 54.999864 0
M  V30 11 H 36.778596 27.225576 54.190037 0
M  V30 12 H 37.296639 26.519999 52.722093 0
M  V30 13 H 40.478295 31.443356 52.497127 0
M  V30 14 H 38.367568 26.585762 51.190623 0
M  V30 15 H 39.490324 27.416812 50.209931 0
M  V30 16 H 40.475265 29.550737 50.889489 0
M  V30 END ATOM
M  V30 BEGIN BOND
M  V30 1 1 2 1
M  V30 2 2 3 2
M  V30 3 1 4 3
M  V30 4 2 5 1
M  V30 5 1 6 3
M  V30 6 1 7 6
M  V30 7 1 8 5
M  V30 8 2 8 6
M  V30 9 1 9 1
M  V30 10 1 10 2
M  V30 11 1 11 4
M  V30 12 1 12 4
M  V30 13 1 13 5
M  V30 14 1 14 7
M  V30 15 1 15 7
M  V30 16 1 16 8
M  V30 END BOND
M  V30 END CTAB
M  END
>  <i_epik_Tot_Q>  (1) 
0

>  <i_epik_Tot_abs_Q>  (1) 
0

>  <i_i_glide_confnum>  (1) 
1

>  <i_i_glide_lignum>  (1) 
63

>  <i_i_glide_posenum>  (1) 
308

>  <i_i_glide_rotatable_bonds>  (1) 
0

>  <i_lp_mmshare_version>  (1) 
72125

>  <i_m_source_file_index>  (1) 
60

>  <i_f3d_flags>  (1) 
0

>  <num_sample>  (1) 
100

>  <b_lp_Chiralities_Consistent>  (1) 
1

>  <r_epik_Charging_Adjusted_Penalty>  (1) 
0.0055702355519192566

>  <r_epik_Ionization_Penalty>  (1) 
0.0049730634188153225

>  <r_epik_Ionization_Penalty_Charging>  (1) 
0

>  <r_epik_Ionization_Penalty_Neutral>  (1) 
0.0049730634188153225

>  <r_epik_State_Penalty>  (1) 
0.0055702355519192566

>  <r_glide_ring_energy>  (1) 
0

>  <r_i_docking_score>  (1) 
-5.6955156642666456

>  <r_i_glide_ecoul>  (1) 
-2.3912954138253513

>  <r_i_glide_eff_state_penalty>  (1) 
0.0055702355519192566

>  <r_i_glide_einternal>  (1) 
0

>  <r_i_glide_emodel>  (1) 
-27.399086415077896

>  <r_i_glide_emodel_strain>  (1) 
0

>  <r_i_glide_energy>  (1) 
-20.35521354441488

>  <r_i_glide_erotb>  (1) 
0

>  <r_i_glide_esite>  (1) 
0

>  <r_i_glide_evdw>  (1) 
-17.96391813058953

>  <r_i_glide_gscore>  (1) 
-5.7010858998185645

>  <r_i_glide_gscore_strain>  (1) 
0

>  <r_i_glide_hbond>  (1) 
-0.12881871293278402

>  <r_i_glide_ligand_efficiency>  (1) 
-0.7119394580333307

>  <r_i_glide_ligand_efficiency_ln>  (1) 
-1.8495287496705461

>  <r_i_glide_ligand_efficiency_sa>  (1) 
-1.4238789160666616

>  <r_i_glide_lipo>  (1) 
-1.8316823420436501

>  <r_i_glide_metal>  (1) 
-0

>  <r_i_glide_rewards>  (1) 
-2.4836946262388508

>  <r_lp_Energy>  (1) 
13.721331999999999

>  <s_epik_cmdline>  (1) 
J2VwaWtfcHl0aG9uJywgJy1waHQnLCAnMS4wJywgJy1waCcsICc3LjQnLCAnLXRuJywgJzgnLCAnLW1hJywgJzUwMCcsICctaW1hZScsICc8aW5maWxlLm1hZT4nLCAnLW9tYWUnLCAnPG91dGZpbGUubWFlPic=

>  <s_epik_input>  (1) 
W05IMl1jMVtjSF1bY0hdW2NIXVtjSF1jMVtOSDJd

>  <s_glide_docking_method>  (1) 
confgen

>  <s_i_glide_gridfile>  (1) 
gpcr_5ht2c_6bqh_protein_autoprepared_prepared

>  <s_lp_Force_Field>  (1) 
S-OPLS

>  <s_lp_Variant>  (1) 
Pocket2Mol_59_num_sample_100-1

>  <s_m_source_file>  (1) 
generated__ligand_Pocket2Mol_2026-05-06_prepared.sdf

>  <GenAI_Model>  (1) 
Pocket2Mol

>  <Protein>  (1) 
GPCR_5HT2C

$$$$
Pocket2Mol_75_num_sample_100
     RDKit          3D

  0  0  0  0  0  0  0  0  0  0999 V3000
M  V30 BEGIN CTAB
M  V30 COUNTS 21 22 0 0 1
M  V30 BEGIN ATOM
M  V30 1 C 38.922242 31.310140 54.110371 0
M  V30 2 C 39.700646 30.243745 53.327836 0 CFG=1
M  V30 3 C 38.067853 30.498673 55.101300 0
M  V30 4 C 37.790900 29.169560 54.386854 0
M  V30 5 N 38.842453 29.053870 53.393579 0
M  V30 6 N 38.499980 28.368108 52.253502 0
M  V30 7 C 39.221861 28.431904 51.185453 0
M  V30 8 C 40.406554 29.352349 51.073666 0
M  V30 9 C 40.172627 30.615845 51.907200 0
M  V30 10 H 39.576118 32.021450 54.613896 0
M  V30 11 H 38.267404 31.878836 53.453490 0
M  V30 12 H 40.589721 30.021424 53.915920 0
M  V30 13 H 38.646253 30.307414 56.005859 0
M  V30 14 H 37.153092 31.015369 55.395340 0
M  V30 15 H 37.812999 28.319308 55.069116 0
M  V30 16 H 36.821891 29.193458 53.888824 0
M  V30 17 H 38.978668 27.803633 50.328679 0
M  V30 18 H 41.298755 28.829986 51.419925 0
M  V30 19 H 40.573819 29.623518 50.031043 0
M  V30 20 H 39.467403 31.256485 51.391759 0
M  V30 21 H 41.067412 31.221422 51.952934 0
M  V30 END ATOM
M  V30 BEGIN BOND
M  V30 1 1 2 1
M  V30 2 1 3 1
M  V30 3 1 4 3
M  V30 4 1 5 2
M  V30 5 1 5 4
M  V30 6 1 6 5
M  V30 7 2 7 6
M  V30 8 1 8 7
M  V30 9 1 9 2
M  V30 10 1 9 8
M  V30 11 1 10 1
M  V30 12 1 11 1
M  V30 13 1 2 12 CFG=1
M  V30 14 1 13 3
M  V30 15 1 14 3
M  V30 16 1 15 4
M  V30 17 1 16 4
M  V30 18 1 17 7
M  V30 19 1 18 8
M  V30 20 1 19 8
M  V30 21 1 20 9
M  V30 22 1 21 9
M  V30 END BOND
M  V30 END CTAB
M  END
>  <i_epik_Tot_Q>  (1) 
0

>  <i_epik_Tot_abs_Q>  (1) 
0

>  <i_i_glide_confnum>  (1) 
1

>  <i_i_glide_lignum>  (1) 
80

>  <i_i_glide_posenum>  (1) 
292

>  <i_i_glide_rotatable_bonds>  (1) 
0

>  <i_lp_mmshare_version>  (1) 
72125

>  <i_m_source_file_index>  (1) 
76

>  <i_f3d_flags>  (1) 
0

>  <num_sample>  (1) 
100

>  <b_lp_Chiralities_Consistent>  (1) 
1

>  <r_epik_Charging_Adjusted_Penalty>  (1) 
0

>  <r_epik_Ionization_Penalty>  (1) 
0.0031146778150898829

>  <r_epik_Ionization_Penalty_Charging>  (1) 
0

>  <r_epik_Ionization_Penalty_Neutral>  (1) 
0.0031146778150898829

>  <r_epik_State_Penalty>  (1) 
-0

>  <r_glide_ring_energy>  (1) 
0

>  <r_i_docking_score>  (1) 
-5.682126628124033

>  <r_i_glide_ecoul>  (1) 
-0.50271158843608776

>  <r_i_glide_eff_state_penalty>  (1) 
-0

>  <r_i_glide_einternal>  (1) 
0

>  <r_i_glide_emodel>  (1) 
-27.778230540445456

>  <r_i_glide_emodel_strain>  (1) 
0

>  <r_i_glide_energy>  (1) 
-20.154446650513698

>  <r_i_glide_erotb>  (1) 
0

>  <r_i_glide_esite>  (1) 
0

>  <r_i_glide_evdw>  (1) 
-19.651735062077609

>  <r_i_glide_gscore>  (1) 
-5.682126628124033

>  <r_i_glide_gscore_strain>  (1) 
0

>  <r_i_glide_hbond>  (1) 
0

>  <r_i_glide_ligand_efficiency>  (1) 
-0.63134740312489257

>  <r_i_glide_ligand_efficiency_ln>  (1) 
-1.777205976834483

>  <r_i_glide_ligand_efficiency_sa>  (1) 
-1.3132555199659184

>  <r_i_glide_lipo>  (1) 
-1.2805689274305903

>  <r_i_glide_metal>  (1) 
-0

>  <r_i_glide_rewards>  (1) 
-3.3435642093241489

>  <r_lp_Energy>  (1) 
16.062878999999999

>  <r_lp_tautomer_probability>  (1) 
1

>  <s_epik_Chemistry_Notes>  (1) 
This compound has an imine and may undergo hydrolysis.

>  <s_epik_cmdline>  (1) 
J2VwaWtfcHl0aG9uJywgJy1waHQnLCAnMS4wJywgJy1waCcsICc3LjQnLCAnLXRuJywgJzgnLCAnLW1hJywgJzUwMCcsICctaW1hZScsICc8aW5maWxlLm1hZT4nLCAnLW9tYWUnLCAnPG91dGZpbGUubWFlPic=

>  <s_epik_input>  (1) 
W0NIMl0xW0NIMl1bQ0gyXU4oW0NASF0xMilOPVtDSF1bQ0gyXVtDSDJdMg==

>  <s_glide_docking_method>  (1) 
confgen

>  <s_i_glide_gridfile>  (1) 
gpcr_5ht2c_6bqh_protein_autoprepared_prepared

>  <s_lp_Force_Field>  (1) 
S-OPLS

>  <s_lp_Variant>  (1) 
Pocket2Mol_75_num_sample_100-1

>  <s_m_source_file>  (1) 
generated__ligand_Pocket2Mol_2026-05-06_prepared.sdf

>  <GenAI_Model>  (1) 
Pocket2Mol

>  <Protein>  (1) 
GPCR_5HT2C

$$$$
Pocket2Mol_51_num_sample_100
     RDKit          3D

  0  0  0  0  0  0  0  0  0  0999 V3000
M  V30 BEGIN CTAB
M  V30 COUNTS 18 18 0 0 1
M  V30 BEGIN ATOM
M  V30 1 C 39.864310 29.800393 52.253230 0
M  V30 2 C 39.647333 30.507060 53.452840 0
M  V30 3 C 38.635227 30.094619 54.342327 0
M  V30 4 C 38.397405 30.861914 55.627945 0
M  V30 5 C 39.068801 28.677912 51.943385 0
M  V30 6 C 39.296594 27.922908 50.653507 0
M  V30 7 C 38.059859 28.262591 52.835556 0
M  V30 8 C 37.843072 28.970340 54.033092 0
M  V30 9 H 40.638421 30.120370 51.570714 0
M  V30 10 H 40.255695 31.366672 53.688685 0
M  V30 11 H 37.699367 30.339748 56.283300 0
M  V30 12 H 39.333452 31.002066 56.169261 0
M  V30 13 H 37.976552 31.843758 55.407486 0
M  V30 14 H 38.674905 27.028425 50.596840 0
M  V30 15 H 39.067405 28.564884 49.805496 0
M  V30 16 H 40.336433 27.621434 50.570630 0
M  V30 17 H 37.450553 27.402293 52.600230 0
M  V30 18 H 37.067405 28.652582 54.712488 0
M  V30 END ATOM
M  V30 BEGIN BOND
M  V30 1 2 2 1
M  V30 2 1 3 2
M  V30 3 1 4 3
M  V30 4 1 5 1
M  V30 5 1 6 5
M  V30 6 2 7 5
M  V30 7 2 8 3
M  V30 8 1 8 7
M  V30 9 1 9 1
M  V30 10 1 10 2
M  V30 11 1 11 4
M  V30 12 1 12 4
M  V30 13 1 13 4
M  V30 14 1 14 6
M  V30 15 1 15 6
M  V30 16 1 16 6
M  V30 17 1 17 7
M  V30 18 1 18 8
M  V30 END BOND
M  V30 END CTAB
M  END
>  <i_epik_Tot_Q>  (1) 
0

>  <i_epik_Tot_abs_Q>  (1) 
0

>  <i_i_glide_confnum>  (1) 
1

>  <i_i_glide_lignum>  (1) 
54

>  <i_i_glide_posenum>  (1) 
359

>  <i_i_glide_rotatable_bonds>  (1) 
0

>  <i_lp_mmshare_version>  (1) 
72125

>  <i_m_source_file_index>  (1) 
52

>  <i_f3d_flags>  (1) 
0

>  <num_sample>  (1) 
100

>  <b_lp_Chiralities_Consistent>  (1) 
1

>  <r_epik_Charging_Adjusted_Penalty>  (1) 
0

>  <r_epik_Ionization_Penalty>  (1) 
0

>  <r_epik_Ionization_Penalty_Charging>  (1) 
0

>  <r_epik_Ionization_Penalty_Neutral>  (1) 
0

>  <r_epik_State_Penalty>  (1) 
-0

>  <r_glide_ring_energy>  (1) 
0

>  <r_i_docking_score>  (1) 
-5.673173303769917

>  <r_i_glide_ecoul>  (1) 
-1.3382994515152804

>  <r_i_glide_eff_state_penalty>  (1) 
-0

>  <r_i_glide_einternal>  (1) 
0

>  <r_i_glide_emodel>  (1) 
-25.226922882641649

>  <r_i_glide_emodel_strain>  (1) 
0.010046768247563342

>  <r_i_glide_energy>  (1) 
-18.407647249106322

>  <r_i_glide_erotb>  (1) 
0

>  <r_i_glide_esite>  (1) 
0

>  <r_i_glide_evdw>  (1) 
-17.069347797591043

>  <r_i_glide_gscore>  (1) 
-5.673173303769917

>  <r_i_glide_gscore_strain>  (1) 
0

>  <r_i_glide_hbond>  (1) 
0

>  <r_i_glide_ligand_efficiency>  (1) 
-0.70914666297123963

>  <r_i_glide_ligand_efficiency_ln>  (1) 
-1.8422734210032123

>  <r_i_glide_ligand_efficiency_sa>  (1) 
-1.4182933259424795

>  <r_i_glide_lipo>  (1) 
-2.0766504577558234

>  <r_i_glide_metal>  (1) 
-0

>  <r_i_glide_rewards>  (1) 
-2.5423105384072486

>  <r_lp_Energy>  (1) 
3.9239269999999999

>  <r_lp_tautomer_probability>  (1) 
1

>  <s_epik_cmdline>  (1) 
J2VwaWtfcHl0aG9uJywgJy1waHQnLCAnMS4wJywgJy1waCcsICc3LjQnLCAnLXRuJywgJzgnLCAnLW1hJywgJzUwMCcsICctaW1hZScsICc8aW5maWxlLm1hZT4nLCAnLW9tYWUnLCAnPG91dGZpbGUubWFlPic=

>  <s_epik_input>  (1) 
W2NIXTFbY0hdYyhbQ0gzXSlbY0hdW2NIXWMxW0NIM10=

>  <s_glide_docking_method>  (1) 
confgen

>  <s_i_glide_gridfile>  (1) 
gpcr_5ht2c_6bqh_protein_autoprepared_prepared

>  <s_lp_Force_Field>  (1) 
S-OPLS

>  <s_lp_Variant>  (1) 
Pocket2Mol_51_num_sample_100-1

>  <s_m_source_file>  (1) 
generated__ligand_Pocket2Mol_2026-05-06_prepared.sdf

>  <GenAI_Model>  (1) 
Pocket2Mol

>  <Protein>  (1) 
GPCR_5HT2C

$$$$
Pocket2Mol_52_num_sample_100
     RDKit          3D

  0  0  0  0  0  0  0  0  0  0999 V3000
M  V30 BEGIN CTAB
M  V30 COUNTS 16 16 0 0 1
M  V30 BEGIN ATOM
M  V30 1 C 39.468347 28.599303 50.880419 0
M  V30 2 C 38.668487 27.621327 51.496340 0
M  V30 3 C 39.867049 29.740590 51.602220 0
M  V30 4 C 40.711518 30.800433 50.935165 0
M  V30 5 C 38.265574 27.779485 52.835533 0
M  V30 6 C 38.663812 28.917856 53.560360 0
M  V30 7 O 38.269253 29.071475 54.856924 0
M  V30 8 C 39.467052 29.899131 52.944981 0
M  V30 9 H 39.771492 28.476298 49.853183 0
M  V30 10 H 38.360331 26.751383 50.940017 0
M  V30 11 H 40.890828 31.621428 51.626390 0
M  V30 12 H 41.672546 30.396021 50.620839 0
M  V30 13 H 40.195873 31.204609 50.063980 0
M  V30 14 H 37.648944 27.028291 53.305972 0
M  V30 15 H 38.496666 29.911316 55.226311 0
M  V30 16 H 39.770987 30.775292 53.498875 0
M  V30 END ATOM
M  V30 BEGIN BOND
M  V30 1 2 2 1
M  V30 2 1 3 1
M  V30 3 1 4 3
M  V30 4 1 5 2
M  V30 5 2 6 5
M  V30 6 1 7 6
M  V30 7 2 8 3
M  V30 8 1 8 6
M  V30 9 1 9 1
M  V30 10 1 10 2
M  V30 11 1 11 4
M  V30 12 1 12 4
M  V30 13 1 13 4
M  V30 14 1 14 5
M  V30 15 1 15 7
M  V30 16 1 16 8
M  V30 END BOND
M  V30 END CTAB
M  END
>  <i_epik_Tot_Q>  (1) 
0

>  <i_epik_Tot_abs_Q>  (1) 
0

>  <i_i_glide_confnum>  (1) 
1

>  <i_i_glide_lignum>  (1) 
55

>  <i_i_glide_posenum>  (1) 
374

>  <i_i_glide_rotatable_bonds>  (1) 
1

>  <i_lp_mmshare_version>  (1) 
72125

>  <i_m_source_file_index>  (1) 
53

>  <i_f3d_flags>  (1) 
0

>  <num_sample>  (1) 
100

>  <b_lp_Chiralities_Consistent>  (1) 
1

>  <r_epik_Charging_Adjusted_Penalty>  (1) 
0

>  <r_epik_Ionization_Penalty>  (1) 
0.0017015869167085525

>  <r_epik_Ionization_Penalty_Charging>  (1) 
0

>  <r_epik_Ionization_Penalty_Neutral>  (1) 
0.0017015869167085525

>  <r_epik_State_Penalty>  (1) 
-0

>  <r_glide_ring_energy>  (1) 
0

>  <r_i_docking_score>  (1) 
-5.6705734237293646

>  <r_i_glide_ecoul>  (1) 
-1.3132252765427901

>  <r_i_glide_eff_state_penalty>  (1) 
-0

>  <r_i_glide_einternal>  (1) 
0.033068036680870064

>  <r_i_glide_emodel>  (1) 
-26.203360911278494

>  <r_i_glide_emodel_strain>  (1) 
0

>  <r_i_glide_energy>  (1) 
-18.94670591504774

>  <r_i_glide_erotb>  (1) 
0

>  <r_i_glide_esite>  (1) 
0

>  <r_i_glide_evdw>  (1) 
-17.633480638504949

>  <r_i_glide_gscore>  (1) 
-5.6705734237293646

>  <r_i_glide_gscore_strain>  (1) 
0

>  <r_i_glide_hbond>  (1) 
0

>  <r_i_glide_ligand_efficiency>  (1) 
-0.70882167796617057

>  <r_i_glide_ligand_efficiency_ln>  (1) 
-1.8414291510258922

>  <r_i_glide_ligand_efficiency_sa>  (1) 
-1.4176433559323414

>  <r_i_glide_lipo>  (1) 
-2.1319791388779517

>  <r_i_glide_metal>  (1) 
-0

>  <r_i_glide_rewards>  (1) 
-2.4599364614447476

>  <r_lp_Energy>  (1) 
5.2727110000000001

>  <r_lp_tautomer_probability>  (1) 
1

>  <s_epik_cmdline>  (1) 
J2VwaWtfcHl0aG9uJywgJy1waHQnLCAnMS4wJywgJy1waCcsICc3LjQnLCAnLXRuJywgJzgnLCAnLW1hJywgJzUwMCcsICctaW1hZScsICc8aW5maWxlLm1hZT4nLCAnLW9tYWUnLCAnPG91dGZpbGUubWFlPic=

>  <s_epik_input>  (1) 
W0NIM11jMVtjSF1bY0hdW2NIXWMoW09IXSlbY0hdMQ==

>  <s_glide_docking_method>  (1) 
confgen

>  <s_i_glide_gridfile>  (1) 
gpcr_5ht2c_6bqh_protein_autoprepared_prepared

>  <s_lp_Force_Field>  (1) 
S-OPLS

>  <s_lp_Variant>  (1) 
Pocket2Mol_52_num_sample_100-1

>  <s_m_source_file>  (1) 
generated__ligand_Pocket2Mol_2026-05-06_prepared.sdf

>  <GenAI_Model>  (1) 
Pocket2Mol

>  <Protein>  (1) 
GPCR_5HT2C

$$$$
Pocket2Mol_52_num_sample_100
     RDKit          3D

  0  0  0  0  0  0  0  0  0  0999 V3000
M  V30 BEGIN CTAB
M  V30 COUNTS 16 16 0 0 1
M  V30 BEGIN ATOM
M  V30 1 C 38.634405 28.581628 53.498779 0
M  V30 2 C 38.555628 27.775009 52.346652 0
M  V30 3 C 39.290741 29.827956 53.443723 0
M  V30 4 C 39.374499 30.694740 54.683299 0
M  V30 5 C 39.130095 28.213179 51.137924 0
M  V30 6 C 39.783544 29.460097 51.079882 0
M  V30 7 O 40.327288 29.890760 49.906654 0
M  V30 8 C 39.867403 30.265949 52.232572 0
M  V30 9 H 38.191195 28.244441 54.424597 0
M  V30 10 H 38.051281 26.821429 52.389404 0
M  V30 11 H 39.913300 31.621428 54.487379 0
M  V30 12 H 38.373811 30.951553 55.033295 0
M  V30 13 H 39.892516 30.163375 55.481917 0
M  V30 14 H 39.066109 27.593553 50.254986 0
M  V30 15 H 40.012664 29.402038 49.161880 0
M  V30 16 H 40.368579 31.221879 52.186253 0
M  V30 END ATOM
M  V30 BEGIN BOND
M  V30 1 2 2 1
M  V30 2 1 3 1
M  V30 3 1 4 3
M  V30 4 1 5 2
M  V30 5 2 6 5
M  V30 6 1 7 6
M  V30 7 2 8 3
M  V30 8 1 8 6
M  V30 9 1 9 1
M  V30 10 1 10 2
M  V30 11 1 11 4
M  V30 12 1 12 4
M  V30 13 1 13 4
M  V30 14 1 14 5
M  V30 15 1 15 7
M  V30 16 1 16 8
M  V30 END BOND
M  V30 END CTAB
M  END
>  <i_epik_Tot_Q>  (1) 
0

>  <i_epik_Tot_abs_Q>  (1) 
0

>  <i_i_glide_confnum>  (1) 
1

>  <i_i_glide_lignum>  (1) 
55

>  <i_i_glide_posenum>  (1) 
285

>  <i_i_glide_rotatable_bonds>  (1) 
1

>  <i_lp_mmshare_version>  (1) 
72125

>  <i_m_source_file_index>  (1) 
53

>  <i_f3d_flags>  (1) 
0

>  <num_sample>  (1) 
100

>  <b_lp_Chiralities_Consistent>  (1) 
1

>  <r_epik_Charging_Adjusted_Penalty>  (1) 
0

>  <r_epik_Ionization_Penalty>  (1) 
0.0017015869167085525

>  <r_epik_Ionization_Penalty_Charging>  (1) 
0

>  <r_epik_Ionization_Penalty_Neutral>  (1) 
0.0017015869167085525

>  <r_epik_State_Penalty>  (1) 
-0

>  <r_glide_ring_energy>  (1) 
0

>  <r_i_docking_score>  (1) 
-5.6671175053608893

>  <r_i_glide_ecoul>  (1) 
-1.046295271429424

>  <r_i_glide_eff_state_penalty>  (1) 
-0

>  <r_i_glide_einternal>  (1) 
0.15652850102592517

>  <r_i_glide_emodel>  (1) 
-26.418146147099684

>  <r_i_glide_emodel_strain>  (1) 
0.00090013423409907034

>  <r_i_glide_energy>  (1) 
-19.228554146153556

>  <r_i_glide_erotb>  (1) 
0

>  <r_i_glide_esite>  (1) 
0

>  <r_i_glide_evdw>  (1) 
-18.18225887472413

>  <r_i_glide_gscore>  (1) 
-5.6671175053608893

>  <r_i_glide_gscore_strain>  (1) 
0

>  <r_i_glide_hbond>  (1) 
0

>  <r_i_glide_ligand_efficiency>  (1) 
-0.70838968817011116

>  <r_i_glide_ligand_efficiency_ln>  (1) 
-1.8403068961229496

>  <r_i_glide_ligand_efficiency_sa>  (1) 
-1.4167793763402226

>  <r_i_glide_lipo>  (1) 
-2.0737356890911518

>  <r_i_glide_metal>  (1) 
-0

>  <r_i_glide_rewards>  (1) 
-2.5273245818191175

>  <r_lp_Energy>  (1) 
5.2727110000000001

>  <r_lp_tautomer_probability>  (1) 
1

>  <s_epik_cmdline>  (1) 
J2VwaWtfcHl0aG9uJywgJy1waHQnLCAnMS4wJywgJy1waCcsICc3LjQnLCAnLXRuJywgJzgnLCAnLW1hJywgJzUwMCcsICctaW1hZScsICc8aW5maWxlLm1hZT4nLCAnLW9tYWUnLCAnPG91dGZpbGUubWFlPic=

>  <s_epik_input>  (1) 
W0NIM11jMVtjSF1bY0hdW2NIXWMoW09IXSlbY0hdMQ==

>  <s_glide_docking_method>  (1) 
confgen

>  <s_i_glide_gridfile>  (1) 
gpcr_5ht2c_6bqh_protein_autoprepared_prepared

>  <s_lp_Force_Field>  (1) 
S-OPLS

>  <s_lp_Variant>  (1) 
Pocket2Mol_52_num_sample_100-1

>  <s_m_source_file>  (1) 
generated__ligand_Pocket2Mol_2026-05-06_prepared.sdf

>  <GenAI_Model>  (1) 
Pocket2Mol

>  <Protein>  (1) 
GPCR_5HT2C

$$$$
Pocket2Mol_69_num_sample_100
     RDKit          3D

  0  0  0  0  0  0  0  0  0  0999 V3000
M  V30 BEGIN CTAB
M  V30 COUNTS 15 16 0 0 1
M  V30 BEGIN ATOM
M  V30 1 C 38.005931 30.183592 55.143635 0
M  V30 2 O 37.597815 28.868228 54.653501 0
M  V30 3 O 38.980550 30.828286 54.265458 0
M  V30 4 C 38.308444 28.821428 53.523208 0
M  V30 5 C 39.067347 29.897908 53.309533 0
M  V30 6 C 39.867404 30.021427 52.162422 0
M  V30 7 C 39.867768 28.969484 51.216217 0
M  V30 8 C 38.274710 27.748548 52.617087 0
M  V30 9 C 39.066537 27.821390 51.446910 0
M  V30 10 H 38.441452 30.073423 56.137322 0
M  V30 11 H 37.123178 30.821633 55.227042 0
M  V30 12 H 40.469860 30.904536 52.004641 0
M  V30 13 H 40.473206 29.040277 50.325149 0
M  V30 14 H 37.653351 26.885683 52.808173 0
M  V30 15 H 39.057503 27.010629 50.732122 0
M  V30 END ATOM
M  V30 BEGIN BOND
M  V30 1 1 2 1
M  V30 2 1 3 1
M  V30 3 1 4 2
M  V30 4 1 5 3
M  V30 5 1 5 4
M  V30 6 2 6 5
M  V30 7 1 7 6
M  V30 8 2 8 4
M  V30 9 2 9 7
M  V30 10 1 9 8
M  V30 11 1 10 1
M  V30 12 1 11 1
M  V30 13 1 12 6
M  V30 14 1 13 7
M  V30 15 1 14 8
M  V30 16 1 15 9
M  V30 END BOND
M  V30 END CTAB
M  END
>  <i_epik_Tot_Q>  (1) 
0

>  <i_epik_Tot_abs_Q>  (1) 
0

>  <i_i_glide_confnum>  (1) 
1

>  <i_i_glide_lignum>  (1) 
74

>  <i_i_glide_posenum>  (1) 
17

>  <i_i_glide_rotatable_bonds>  (1) 
0

>  <i_lp_mmshare_version>  (1) 
72125

>  <i_m_source_file_index>  (1) 
70

>  <i_f3d_flags>  (1) 
0

>  <num_sample>  (1) 
100

>  <b_lp_Chiralities_Consistent>  (1) 
1

>  <r_epik_Charging_Adjusted_Penalty>  (1) 
0

>  <r_epik_Ionization_Penalty>  (1) 
0

>  <r_epik_Ionization_Penalty_Charging>  (1) 
0

>  <r_epik_Ionization_Penalty_Neutral>  (1) 
0

>  <r_epik_State_Penalty>  (1) 
-0

>  <r_glide_ring_energy>  (1) 
0

>  <r_i_docking_score>  (1) 
-5.6619862893329751

>  <r_i_glide_ecoul>  (1) 
-1.3013752694518166

>  <r_i_glide_eff_state_penalty>  (1) 
-0

>  <r_i_glide_einternal>  (1) 
0

>  <r_i_glide_emodel>  (1) 
-27.646143022957276

>  <r_i_glide_emodel_strain>  (1) 
0

>  <r_i_glide_energy>  (1) 
-20.393052760711566

>  <r_i_glide_erotb>  (1) 
0

>  <r_i_glide_esite>  (1) 
0

>  <r_i_glide_evdw>  (1) 
-19.091677491259748

>  <r_i_glide_gscore>  (1) 
-5.6619862893329751

>  <r_i_glide_gscore_strain>  (1) 
0

>  <r_i_glide_hbond>  (1) 
0

>  <r_i_glide_ligand_efficiency>  (1) 
-0.62910958770366388

>  <r_i_glide_ligand_efficiency_ln>  (1) 
-1.7709066574392098

>  <r_i_glide_ligand_efficiency_sa>  (1) 
-1.3086006763092446

>  <r_i_glide_lipo>  (1) 
-1.7952302206343513

>  <r_i_glide_metal>  (1) 
-0

>  <r_i_glide_rewards>  (1) 
-2.7169659037178637

>  <r_lp_Energy>  (1) 
19.342499999999998

>  <r_lp_tautomer_probability>  (1) 
1

>  <s_epik_Chemistry_Notes>  (1) 
This compound contains an acetal/aminal-like group ( X-CH(R)-Y where X, Y are N, S, or O) that may be acid/base labile, releasing an aldehyde.

>  <s_epik_cmdline>  (1) 
J2VwaWtfcHl0aG9uJywgJy1waHQnLCAnMS4wJywgJy1waCcsICc3LjQnLCAnLXRuJywgJzgnLCAnLW1hJywgJzUwMCcsICctaW1hZScsICc8aW5maWxlLm1hZT4nLCAnLW9tYWUnLCAnPG91dGZpbGUubWFlPic=

>  <s_epik_input>  (1) 
TzFbQ0gyXU9jKGMxMilbY0hdW2NIXVtjSF1bY0hdMg==

>  <s_glide_docking_method>  (1) 
confgen

>  <s_i_glide_gridfile>  (1) 
gpcr_5ht2c_6bqh_protein_autoprepared_prepared

>  <s_lp_Force_Field>  (1) 
S-OPLS

>  <s_lp_Variant>  (1) 
Pocket2Mol_69_num_sample_100-1

>  <s_m_source_file>  (1) 
generated__ligand_Pocket2Mol_2026-05-06_prepared.sdf

>  <GenAI_Model>  (1) 
Pocket2Mol

>  <Protein>  (1) 
GPCR_5HT2C

$$$$
Pocket2Mol_85_num_sample_100
     RDKit          3D

  0  0  0  0  0  0  0  0  0  0999 V3000
M  V30 BEGIN CTAB
M  V30 COUNTS 14 14 0 0 1
M  V30 BEGIN ATOM
M  V30 1 C 38.647130 28.841316 53.951429 0
M  V30 2 C 39.467231 29.700014 53.138196 0
M  V30 3 C 38.213174 27.858859 53.159525 0
M  V30 4 C 39.509524 29.219892 51.882528 0
M  V30 5 O 37.422869 26.820915 53.456143 0
M  V30 6 C 38.690467 27.945375 51.729790 0
M  V30 7 C 40.269205 29.811499 50.657452 0
M  V30 8 O 40.104600 29.221423 49.567012 0
M  V30 9 O 40.972371 30.821431 50.880704 0 CHG=-1
M  V30 10 H 38.426374 28.968916 55.000650 0
M  V30 11 H 39.972186 30.592127 53.478539 0
M  V30 12 H 37.220236 26.386401 52.642013 0
M  V30 13 H 39.313717 27.096262 51.447262 0
M  V30 14 H 37.869130 28.075306 51.024255 0
M  V30 END ATOM
M  V30 BEGIN BOND
M  V30 1 1 2 1
M  V30 2 2 3 1
M  V30 3 2 4 2
M  V30 4 1 5 3
M  V30 5 1 6 3
M  V30 6 1 6 4
M  V30 7 1 7 4
M  V30 8 2 8 7
M  V30 9 1 9 7
M  V30 10 1 10 1
M  V30 11 1 11 2
M  V30 12 1 12 5
M  V30 13 1 13 6
M  V30 14 1 14 6
M  V30 END BOND
M  V30 END CTAB
M  END
>  <i_epik_Tot_Q>  (1) 
-1

>  <i_epik_Tot_abs_Q>  (1) 
1

>  <i_i_glide_confnum>  (1) 
1

>  <i_i_glide_lignum>  (1) 
90

>  <i_i_glide_posenum>  (1) 
394

>  <i_i_glide_rotatable_bonds>  (1) 
2

>  <i_lp_mmshare_version>  (1) 
72125

>  <i_m_source_file_index>  (1) 
86

>  <i_f3d_flags>  (1) 
0

>  <num_sample>  (1) 
100

>  <b_lp_Chiralities_Consistent>  (1) 
1

>  <r_epik_Charging_Adjusted_Penalty>  (1) 
0.00019237637697373591

>  <r_epik_Ionization_Penalty>  (1) 
0.0032632994418700166

>  <r_epik_Ionization_Penalty_Charging>  (1) 
0.00019237637697373591

>  <r_epik_Ionization_Penalty_Neutral>  (1) 
0.0030709230648962808

>  <r_epik_State_Penalty>  (1) 
-0

>  <r_glide_ring_energy>  (1) 
0

>  <r_i_docking_score>  (1) 
-5.6608588531004198

>  <r_i_glide_ecoul>  (1) 
-1.5300680925840697

>  <r_i_glide_eff_state_penalty>  (1) 
-0

>  <r_i_glide_einternal>  (1) 
2.2575838952746152

>  <r_i_glide_emodel>  (1) 
-25.524284076556373

>  <r_i_glide_emodel_strain>  (1) 
0

>  <r_i_glide_energy>  (1) 
-18.494016188057337

>  <r_i_glide_erotb>  (1) 
0

>  <r_i_glide_esite>  (1) 
0

>  <r_i_glide_evdw>  (1) 
-16.963948095473267

>  <r_i_glide_gscore>  (1) 
-5.6608588531004198

>  <r_i_glide_gscore_strain>  (1) 
0

>  <r_i_glide_hbond>  (1) 
-0.24131893055692188

>  <r_i_glide_ligand_efficiency>  (1) 
-0.62898431701115776

>  <r_i_glide_ligand_efficiency_ln>  (1) 
-1.7705540277739222

>  <r_i_glide_ligand_efficiency_sa>  (1) 
-1.30834010276826

>  <r_i_glide_lipo>  (1) 
-1.4341895825539177

>  <r_i_glide_metal>  (1) 
-0

>  <r_i_glide_rewards>  (1) 
-2.9076427213283065

>  <r_lp_Energy>  (1) 
1.821912

>  <r_lp_tautomer_probability>  (1) 
1

>  <s_epik_cmdline>  (1) 
J2VwaWtfcHl0aG9uJywgJy1waHQnLCAnMS4wJywgJy1waCcsICc3LjQnLCAnLXRuJywgJzgnLCAnLW1hJywgJzUwMCcsICctaW1hZScsICc8aW5maWxlLm1hZT4nLCAnLW9tYWUnLCAnPG91dGZpbGUubWFlPic=

>  <s_epik_input>  (1) 
W09IXUMxPVtDSF1bQ0hdPUMoW0NIMl0xKUMoPU8pW09IXQ==

>  <s_glide_docking_method>  (1) 
confgen

>  <s_i_glide_gridfile>  (1) 
gpcr_5ht2c_6bqh_protein_autoprepared_prepared

>  <s_lp_Force_Field>  (1) 
S-OPLS

>  <s_lp_Variant>  (1) 
Pocket2Mol_85_num_sample_100-1

>  <s_m_source_file>  (1) 
generated__ligand_Pocket2Mol_2026-05-06_prepared.sdf

>  <GenAI_Model>  (1) 
Pocket2Mol

>  <Protein>  (1) 
GPCR_5HT2C

$$$$
Pocket2Mol_67_num_sample_100
     RDKit          3D

  0  0  0  0  0  0  0  0  0  0999 V3000
M  V30 BEGIN CTAB
M  V30 COUNTS 12 12 0 0 1
M  V30 BEGIN ATOM
M  V30 1 C 40.260056 29.797253 51.453488 0
M  V30 2 O 39.764803 30.049460 52.714165 0
M  V30 3 C 38.808891 29.230174 53.352578 0
M  V30 4 O 38.369241 29.464154 54.476351 0
M  V30 5 C 38.382738 28.046533 52.520612 0
M  V30 6 C 39.864216 28.741809 50.751570 0
M  V30 7 O 37.468539 27.222647 53.053501 0
M  V30 8 C 38.903595 27.844424 51.297621 0
M  V30 9 H 40.978859 30.535033 51.126350 0
M  V30 10 H 40.267403 28.567390 49.766328 0
M  V30 11 H 37.201358 26.609083 52.380781 0
M  V30 12 H 38.585343 26.990612 50.716266 0
M  V30 END ATOM
M  V30 BEGIN BOND
M  V30 1 1 2 1
M  V30 2 1 3 2
M  V30 3 2 4 3
M  V30 4 1 5 3
M  V30 5 2 6 1
M  V30 6 1 7 5
M  V30 7 2 8 5
M  V30 8 1 8 6
M  V30 9 1 9 1
M  V30 10 1 10 6
M  V30 11 1 11 7
M  V30 12 1 12 8
M  V30 END BOND
M  V30 END CTAB
M  END
>  <i_epik_Tot_Q>  (1) 
0

>  <i_epik_Tot_abs_Q>  (1) 
0

>  <i_i_glide_confnum>  (1) 
1

>  <i_i_glide_lignum>  (1) 
72

>  <i_i_glide_posenum>  (1) 
184

>  <i_i_glide_rotatable_bonds>  (1) 
1

>  <i_lp_mmshare_version>  (1) 
72125

>  <i_m_source_file_index>  (1) 
68

>  <i_f3d_flags>  (1) 
0

>  <num_sample>  (1) 
100

>  <b_lp_Chiralities_Consistent>  (1) 
1

>  <r_epik_Charging_Adjusted_Penalty>  (1) 
0

>  <r_epik_Ionization_Penalty>  (1) 
0.00075652206847014289

>  <r_epik_Ionization_Penalty_Charging>  (1) 
0

>  <r_epik_Ionization_Penalty_Neutral>  (1) 
0.00075652206847014289

>  <r_epik_State_Penalty>  (1) 
-0

>  <r_glide_ring_energy>  (1) 
0

>  <r_i_docking_score>  (1) 
-5.6479272658787281

>  <r_i_glide_ecoul>  (1) 
-2.8114233454317681

>  <r_i_glide_eff_state_penalty>  (1) 
-0

>  <r_i_glide_einternal>  (1) 
0.15373502939268024

>  <r_i_glide_emodel>  (1) 
-28.652378503863076

>  <r_i_glide_emodel_strain>  (1) 
0

>  <r_i_glide_energy>  (1) 
-20.865192495504644

>  <r_i_glide_erotb>  (1) 
0

>  <r_i_glide_esite>  (1) 
0

>  <r_i_glide_evdw>  (1) 
-18.053769150072874

>  <r_i_glide_gscore>  (1) 
-5.6479272658787281

>  <r_i_glide_gscore_strain>  (1) 
0

>  <r_i_glide_hbond>  (1) 
-0.27298032228676078

>  <r_i_glide_ligand_efficiency>  (1) 
-0.70599090823484101

>  <r_i_glide_ligand_efficiency_ln>  (1) 
-1.834075168966443

>  <r_i_glide_ligand_efficiency_sa>  (1) 
-1.4119818164696822

>  <r_i_glide_lipo>  (1) 
-1.5876133248974273

>  <r_i_glide_metal>  (1) 
-0

>  <r_i_glide_rewards>  (1) 
-2.4629316593761312

>  <r_lp_Energy>  (1) 
14.218883999999999

>  <r_lp_tautomer_probability>  (1) 
1

>  <s_epik_cmdline>  (1) 
J2VwaWtfcHl0aG9uJywgJy1waHQnLCAnMS4wJywgJy1waCcsICc3LjQnLCAnLXRuJywgJzgnLCAnLW1hJywgJzUwMCcsICctaW1hZScsICc8aW5maWxlLm1hZT4nLCAnLW9tYWUnLCAnPG91dGZpbGUubWFlPic=

>  <s_epik_input>  (1) 
Tz1jMW9bY0hdW2NIXVtjSF1jMVtPSF0=

>  <s_glide_docking_method>  (1) 
confgen

>  <s_i_glide_gridfile>  (1) 
gpcr_5ht2c_6bqh_protein_autoprepared_prepared

>  <s_lp_Force_Field>  (1) 
S-OPLS

>  <s_lp_Variant>  (1) 
Pocket2Mol_67_num_sample_100-1

>  <s_m_source_file>  (1) 
generated__ligand_Pocket2Mol_2026-05-06_prepared.sdf

>  <GenAI_Model>  (1) 
Pocket2Mol

>  <Protein>  (1) 
GPCR_5HT2C

$$$$
Pocket2Mol_70_num_sample_100
     RDKit          3D

  0  0  0  0  0  0  0  0  0  0999 V3000
M  V30 BEGIN CTAB
M  V30 COUNTS 17 18 0 0 1
M  V30 BEGIN ATOM
M  V30 1 C 38.366450 27.791205 53.172470 0
M  V30 2 C 39.088056 28.551050 52.184395 0
M  V30 3 C 39.682304 29.883025 52.463745 0 CFG=2
M  V30 4 C 39.264244 28.202136 50.975890 0
M  V30 5 C 39.075139 30.495491 53.724190 0
M  V30 6 N 39.867413 29.144960 50.253496 0
M  V30 7 N 40.018959 30.411370 51.024824 0
M  V30 8 C 38.015646 28.369548 54.334061 0
M  V30 9 C 38.329665 29.774036 54.593281 0
M  V30 10 H 38.091840 26.765444 52.973822 0
M  V30 11 H 40.667399 29.635299 52.839217 0
M  V30 12 H 38.925073 27.306855 50.474113 0
M  V30 13 H 39.294147 31.534161 53.925026 0
M  V30 14 H 39.732077 29.193998 49.252550 0
M  V30 15 H 39.293332 31.053499 50.711500 0
M  V30 16 H 37.466157 27.801092 55.067624 0
M  V30 17 H 37.947789 30.248189 55.487245 0
M  V30 END ATOM
M  V30 BEGIN BOND
M  V30 1 1 2 1
M  V30 2 1 3 2
M  V30 3 2 4 2
M  V30 4 1 5 3
M  V30 5 1 6 4
M  V30 6 1 7 3
M  V30 7 1 7 6
M  V30 8 2 8 1
M  V30 9 2 9 5
M  V30 10 1 9 8
M  V30 11 1 10 1
M  V30 12 1 3 11 CFG=1
M  V30 13 1 12 4
M  V30 14 1 13 5
M  V30 15 1 14 6
M  V30 16 1 15 7
M  V30 17 1 16 8
M  V30 18 1 17 9
M  V30 END BOND
M  V30 END CTAB
M  END
>  <i_epik_Tot_Q>  (1) 
0

>  <i_epik_Tot_abs_Q>  (1) 
0

>  <i_i_glide_confnum>  (1) 
1

>  <i_i_glide_lignum>  (1) 
75

>  <i_i_glide_posenum>  (1) 
200

>  <i_i_glide_rotatable_bonds>  (1) 
0

>  <i_lp_mmshare_version>  (1) 
72125

>  <i_m_source_file_index>  (1) 
71

>  <i_f3d_flags>  (1) 
0

>  <num_sample>  (1) 
100

>  <b_lp_Chiralities_Consistent>  (1) 
1

>  <r_epik_Charging_Adjusted_Penalty>  (1) 
0

>  <r_epik_Ionization_Penalty>  (1) 
4.3565390981668577e-05

>  <r_epik_Ionization_Penalty_Charging>  (1) 
0

>  <r_epik_Ionization_Penalty_Neutral>  (1) 
4.3565390981668577e-05

>  <r_epik_State_Penalty>  (1) 
-0

>  <r_glide_ring_energy>  (1) 
0

>  <r_i_docking_score>  (1) 
-5.6405911351995721

>  <r_i_glide_ecoul>  (1) 
-0.94053344978353781

>  <r_i_glide_eff_state_penalty>  (1) 
-0

>  <r_i_glide_einternal>  (1) 
0

>  <r_i_glide_emodel>  (1) 
-28.96833791893928

>  <r_i_glide_emodel_strain>  (1) 
0

>  <r_i_glide_energy>  (1) 
-20.824146310444839

>  <r_i_glide_erotb>  (1) 
0

>  <r_i_glide_esite>  (1) 
0

>  <r_i_glide_evdw>  (1) 
-19.883612860661302

>  <r_i_glide_gscore>  (1) 
-5.6405911351995721

>  <r_i_glide_gscore_strain>  (1) 
0

>  <r_i_glide_hbond>  (1) 
0

>  <r_i_glide_ligand_efficiency>  (1) 
-0.62673234835550806

>  <r_i_glide_ligand_efficiency_ln>  (1) 
-1.7642148678523712

>  <r_i_glide_ligand_efficiency_sa>  (1) 
-1.3036558191976231

>  <r_i_glide_lipo>  (1) 
-1.9878421848629888

>  <r_i_glide_metal>  (1) 
-0

>  <r_i_glide_rewards>  (1) 
-2.5174882898359874

>  <r_lp_Energy>  (1) 
4.0619379999999996

>  <r_lp_tautomer_probability>  (1) 
1

>  <s_epik_cmdline>  (1) 
J2VwaWtfcHl0aG9uJywgJy1waHQnLCAnMS4wJywgJy1waCcsICc3LjQnLCAnLXRuJywgJzgnLCAnLW1hJywgJzUwMCcsICctaW1hZScsICc8aW5maWxlLm1hZT4nLCAnLW9tYWUnLCAnPG91dGZpbGUubWFlPic=

>  <s_epik_input>  (1) 
W0NIXTE9W0NIXVtDSF09W0NIXVtDQEBIXShDMT0yKVtOSF1bTkhdW0NIXTI=

>  <s_glide_docking_method>  (1) 
confgen

>  <s_i_glide_gridfile>  (1) 
gpcr_5ht2c_6bqh_protein_autoprepared_prepared

>  <s_lp_Force_Field>  (1) 
S-OPLS

>  <s_lp_Variant>  (1) 
Pocket2Mol_70_num_sample_100-1

>  <s_m_source_file>  (1) 
generated__ligand_Pocket2Mol_2026-05-06_prepared.sdf

>  <GenAI_Model>  (1) 
Pocket2Mol

>  <Protein>  (1) 
GPCR_5HT2C

$$$$
Pocket2Mol_41_num_sample_100
     RDKit          3D

  0  0  0  0  0  0  0  0  0  0999 V3000
M  V30 BEGIN CTAB
M  V30 COUNTS 15 15 0 0 1
M  V30 BEGIN ATOM
M  V30 1 C 38.648696 29.253401 53.850181 0
M  V30 2 C 39.467400 30.131108 53.065537 0
M  V30 3 C 39.777980 29.613877 51.831141 0
M  V30 4 C 40.598872 30.240004 50.758023 0
M  V30 5 C 38.348060 28.079972 53.202613 0
M  V30 6 C 37.527839 26.942694 53.704850 0
M  V30 7 S 39.067409 28.044875 51.624105 0
M  V30 8 H 38.315313 29.511871 54.844942 0
M  V30 9 H 39.792780 31.095417 53.429458 0
M  V30 10 H 40.959065 31.221430 51.061996 0
M  V30 11 H 41.467404 29.624441 50.536255 0
M  V30 12 H 40.018578 30.360043 49.843493 0
M  V30 13 H 37.153958 27.137508 54.709537 0
M  V30 14 H 36.671710 26.779590 53.053536 0
M  V30 15 H 38.111939 26.023006 53.734769 0
M  V30 END ATOM
M  V30 BEGIN BOND
M  V30 1 1 2 1
M  V30 2 2 3 2
M  V30 3 1 4 3
M  V30 4 2 5 1
M  V30 5 1 6 5
M  V30 6 1 7 3
M  V30 7 1 7 5
M  V30 8 1 8 1
M  V30 9 1 9 2
M  V30 10 1 10 4
M  V30 11 1 11 4
M  V30 12 1 12 4
M  V30 13 1 13 6
M  V30 14 1 14 6
M  V30 15 1 15 6
M  V30 END BOND
M  V30 END CTAB
M  END
>  <i_epik_Tot_Q>  (1) 
0

>  <i_epik_Tot_abs_Q>  (1) 
0

>  <i_i_glide_confnum>  (1) 
1

>  <i_i_glide_lignum>  (1) 
44

>  <i_i_glide_posenum>  (1) 
277

>  <i_i_glide_rotatable_bonds>  (1) 
0

>  <i_lp_mmshare_version>  (1) 
72125

>  <i_m_source_file_index>  (1) 
42

>  <i_f3d_flags>  (1) 
0

>  <num_sample>  (1) 
100

>  <b_lp_Chiralities_Consistent>  (1) 
1

>  <r_epik_Charging_Adjusted_Penalty>  (1) 
0

>  <r_epik_Ionization_Penalty>  (1) 
0

>  <r_epik_Ionization_Penalty_Charging>  (1) 
0

>  <r_epik_Ionization_Penalty_Neutral>  (1) 
0

>  <r_epik_State_Penalty>  (1) 
-0

>  <r_glide_ring_energy>  (1) 
0

>  <r_i_docking_score>  (1) 
-5.6349172134555285

>  <r_i_glide_ecoul>  (1) 
-0.78763991184291826

>  <r_i_glide_eff_state_penalty>  (1) 
-0

>  <r_i_glide_einternal>  (1) 
0

>  <r_i_glide_emodel>  (1) 
-25.8467419425982

>  <r_i_glide_emodel_strain>  (1) 
0

>  <r_i_glide_energy>  (1) 
-19.27413384751387

>  <r_i_glide_erotb>  (1) 
0

>  <r_i_glide_esite>  (1) 
0

>  <r_i_glide_evdw>  (1) 
-18.48649393567095

>  <r_i_glide_gscore>  (1) 
-5.6349172134555285

>  <r_i_glide_gscore_strain>  (1) 
0

>  <r_i_glide_hbond>  (1) 
0

>  <r_i_glide_ligand_efficiency>  (1) 
-0.80498817335078976

>  <r_i_glide_ligand_efficiency_ln>  (1) 
-1.9127933060899764

>  <r_i_glide_ligand_efficiency_sa>  (1) 
-1.5398869785657114

>  <r_i_glide_lipo>  (1) 
-2.0014619660111479

>  <r_i_glide_metal>  (1) 
-0

>  <r_i_glide_rewards>  (1) 
-2.5909845638843958

>  <r_lp_Energy>  (1) 
3.6641779999999997

>  <r_lp_tautomer_probability>  (1) 
1

>  <s_epik_cmdline>  (1) 
J2VwaWtfcHl0aG9uJywgJy1waHQnLCAnMS4wJywgJy1waCcsICc3LjQnLCAnLXRuJywgJzgnLCAnLW1hJywgJzUwMCcsICctaW1hZScsICc8aW5maWxlLm1hZT4nLCAnLW9tYWUnLCAnPG91dGZpbGUubWFlPic=

>  <s_epik_input>  (1) 
W0NIM11jKHMxKVtjSF1bY0hdYzFbQ0gzXQ==

>  <s_glide_docking_method>  (1) 
confgen

>  <s_i_glide_gridfile>  (1) 
gpcr_5ht2c_6bqh_protein_autoprepared_prepared

>  <s_lp_Force_Field>  (1) 
S-OPLS

>  <s_lp_Variant>  (1) 
Pocket2Mol_41_num_sample_100-1

>  <s_m_source_file>  (1) 
generated__ligand_Pocket2Mol_2026-05-06_prepared.sdf

>  <GenAI_Model>  (1) 
Pocket2Mol

>  <Protein>  (1) 
GPCR_5HT2C

$$$$
Pocket2Mol_65_num_sample_100
     RDKit          3D

  0  0  0  0  0  0  0  0  0  0999 V3000
M  V30 BEGIN CTAB
M  V30 COUNTS 20 20 0 0 1
M  V30 BEGIN ATOM
M  V30 1 C 39.771401 29.445253 51.634414 0
M  V30 2 C 39.467431 29.935226 53.058952 0
M  V30 3 C 39.012179 28.133277 51.502552 0
M  V30 4 C 38.830347 27.686337 52.945588 0
M  V30 5 N 38.578059 28.936266 53.649809 0
M  V30 6 N 38.734390 28.808603 55.077720 0 CHG=1
M  V30 7 C 37.975454 29.548170 55.910344 0
M  V30 8 N 37.067405 30.421507 55.454058 0
M  V30 9 H 39.467480 30.165472 50.873772 0
M  V30 10 H 40.842584 29.277260 51.515520 0
M  V30 11 H 39.013346 30.925269 53.058929 0
M  V30 12 H 40.394089 30.021032 53.627159 0
M  V30 13 H 38.034685 28.309529 51.053494 0
M  V30 14 H 39.534180 27.396273 50.890868 0
M  V30 15 H 39.746152 27.217032 53.308345 0
M  V30 16 H 38.008413 26.978341 53.061447 0
M  V30 17 H 38.102842 29.433074 56.980728 0
M  V30 18 H 36.945470 30.546234 54.461816 0
M  V30 19 H 36.483172 30.967935 56.115408 0
M  V30 20 H 39.424167 28.141160 55.395424 0
M  V30 END ATOM
M  V30 BEGIN BOND
M  V30 1 1 2 1
M  V30 2 1 3 1
M  V30 3 1 4 3
M  V30 4 1 5 2
M  V30 5 1 5 4
M  V30 6 1 6 5
M  V30 7 2 7 6
M  V30 8 1 8 7
M  V30 9 1 9 1
M  V30 10 1 10 1
M  V30 11 1 11 2
M  V30 12 1 12 2
M  V30 13 1 13 3
M  V30 14 1 14 3
M  V30 15 1 15 4
M  V30 16 1 16 4
M  V30 17 1 17 7
M  V30 18 1 18 8
M  V30 19 1 19 8
M  V30 20 1 20 6
M  V30 END BOND
M  V30 END CTAB
M  END
>  <i_epik_Tot_Q>  (1) 
1

>  <i_epik_Tot_abs_Q>  (1) 
1

>  <i_i_glide_confnum>  (1) 
2

>  <i_i_glide_lignum>  (1) 
70

>  <i_i_glide_posenum>  (1) 
44

>  <i_i_glide_rotatable_bonds>  (1) 
1

>  <i_lp_mmshare_version>  (1) 
72125

>  <i_m_source_file_index>  (1) 
66

>  <i_f3d_flags>  (1) 
0

>  <num_sample>  (1) 
100

>  <b_lp_Chiralities_Consistent>  (1) 
1

>  <r_epik_Charging_Adjusted_Penalty>  (1) 
1.6312684749255997e-05

>  <r_epik_Ionization_Penalty>  (1) 
1.6401951855999153e-05

>  <r_epik_Ionization_Penalty_Charging>  (1) 
1.6312684749255997e-05

>  <r_epik_Ionization_Penalty_Neutral>  (1) 
8.9267106743156534e-08

>  <r_epik_State_Penalty>  (1) 
-0

>  <r_glide_ring_energy>  (1) 
0.002520034235707866

>  <r_i_docking_score>  (1) 
-5.6242980700079181

>  <r_i_glide_ecoul>  (1) 
-5.2056729191154059

>  <r_i_glide_eff_state_penalty>  (1) 
-0

>  <r_i_glide_einternal>  (1) 
3.5449244450647122e-05

>  <r_i_glide_emodel>  (1) 
-29.66428276688875

>  <r_i_glide_emodel_strain>  (1) 
0.21829058208868801

>  <r_i_glide_energy>  (1) 
-18.723221797333526

>  <r_i_glide_erotb>  (1) 
0

>  <r_i_glide_esite>  (1) 
-0.13174405143500925

>  <r_i_glide_evdw>  (1) 
-13.51754887821812

>  <r_i_glide_gscore>  (1) 
-5.6242980700079181

>  <r_i_glide_gscore_strain>  (1) 
0

>  <r_i_glide_hbond>  (1) 
-0.20000000000000001

>  <r_i_glide_ligand_efficiency>  (1) 
-0.70303725875098977

>  <r_i_glide_ligand_efficiency_ln>  (1) 
-1.8264019608373092

>  <r_i_glide_ligand_efficiency_sa>  (1) 
-1.4060745175019798

>  <r_i_glide_lipo>  (1) 
-1.1993402190391198

>  <r_i_glide_metal>  (1) 
-0

>  <r_i_glide_rewards>  (1) 
-2.6364854177555719

>  <r_lp_Energy>  (1) 
13.886725999999999

>  <r_lp_tautomer_probability>  (1) 
1

>  <s_epik_Chemistry_Notes>  (1) 
This compound has an imine and may undergo hydrolysis.

>  <s_epik_cmdline>  (1) 
J2VwaWtfcHl0aG9uJywgJy1waHQnLCAnMS4wJywgJy1waCcsICc3LjQnLCAnLXRuJywgJzgnLCAnLW1hJywgJzUwMCcsICctaW1hZScsICc8aW5maWxlLm1hZT4nLCAnLW9tYWUnLCAnPG91dGZpbGUubWFlPic=

>  <s_epik_input>  (1) 
W0NIMl0xW0NIMl1bQ0gyXVtDSDJdTjEvTj1bQ0hdXFtOSDJd

>  <s_glide_docking_method>  (1) 
confgen

>  <s_i_glide_gridfile>  (1) 
gpcr_5ht2c_6bqh_protein_autoprepared_prepared

>  <s_lp_Force_Field>  (1) 
S-OPLS

>  <s_lp_Variant>  (1) 
Pocket2Mol_65_num_sample_100-2

>  <s_m_source_file>  (1) 
generated__ligand_Pocket2Mol_2026-05-06_prepared.sdf

>  <GenAI_Model>  (1) 
Pocket2Mol

>  <Protein>  (1) 
GPCR_5HT2C

$$$$
Pocket2Mol_36_num_sample_100
     RDKit          3D

  0  0  0  0  0  0  0  0  0  0999 V3000
M  V30 BEGIN CTAB
M  V30 COUNTS 19 19 0 0 1
M  V30 BEGIN ATOM
M  V30 1 C 39.132088 27.655493 51.486193 0
M  V30 2 C 38.862693 27.711896 52.998408 0
M  V30 3 C 40.199418 28.676309 51.055568 0
M  V30 4 O 37.822155 26.821432 53.327215 0
M  V30 5 C 39.868426 30.093771 51.514085 0
M  V30 6 C 39.507216 30.170168 53.015384 0
M  V30 7 C 38.459480 29.126095 53.437883 0
M  V30 8 H 39.443411 26.651753 51.193831 0
M  V30 9 H 38.209899 27.863597 50.945061 0
M  V30 10 H 39.750988 27.394128 53.544779 0
M  V30 11 H 41.178864 28.421311 51.453502 0
M  V30 12 H 40.278030 28.661116 49.968381 0
M  V30 13 H 37.185873 26.821407 52.623411 0
M  V30 14 H 40.710235 30.756023 51.307992 0
M  V30 15 H 39.067404 30.446374 50.876522 0
M  V30 16 H 40.408116 30.021497 53.609007 0
M  V30 17 H 39.152795 31.172265 53.260013 0
M  V30 18 H 37.489847 29.374799 53.011162 0
M  V30 19 H 38.328435 29.156745 54.520344 0
M  V30 END ATOM
M  V30 BEGIN BOND
M  V30 1 1 2 1
M  V30 2 1 3 1
M  V30 3 1 4 2
M  V30 4 1 5 3
M  V30 5 1 6 5
M  V30 6 1 7 2
M  V30 7 1 7 6
M  V30 8 1 8 1
M  V30 9 1 9 1
M  V30 10 1 10 2
M  V30 11 1 11 3
M  V30 12 1 12 3
M  V30 13 1 13 4
M  V30 14 1 14 5
M  V30 15 1 15 5
M  V30 16 1 16 6
M  V30 17 1 17 6
M  V30 18 1 18 7
M  V30 19 1 19 7
M  V30 END BOND
M  V30 END CTAB
M  END
>  <i_epik_Tot_Q>  (1) 
0

>  <i_epik_Tot_abs_Q>  (1) 
0

>  <i_i_glide_confnum>  (1) 
1

>  <i_i_glide_lignum>  (1) 
39

>  <i_i_glide_posenum>  (1) 
247

>  <i_i_glide_rotatable_bonds>  (1) 
1

>  <i_lp_mmshare_version>  (1) 
72125

>  <i_m_source_file_index>  (1) 
37

>  <i_f3d_flags>  (1) 
0

>  <num_sample>  (1) 
100

>  <b_lp_Chiralities_Consistent>  (1) 
1

>  <r_epik_Charging_Adjusted_Penalty>  (1) 
0

>  <r_epik_Ionization_Penalty>  (1) 
4.7751045033339745e-07

>  <r_epik_Ionization_Penalty_Charging>  (1) 
0

>  <r_epik_Ionization_Penalty_Neutral>  (1) 
4.7751045033339745e-07

>  <r_epik_State_Penalty>  (1) 
-0

>  <r_glide_ring_energy>  (1) 
0

>  <r_i_docking_score>  (1) 
-5.623009369538237

>  <r_i_glide_ecoul>  (1) 
-1.4694575411908488

>  <r_i_glide_eff_state_penalty>  (1) 
-0

>  <r_i_glide_einternal>  (1) 
0.0010566870597331635

>  <r_i_glide_emodel>  (1) 
-22.863274919841757

>  <r_i_glide_emodel_strain>  (1) 
0.08912339093611088

>  <r_i_glide_energy>  (1) 
-16.816654132445976

>  <r_i_glide_erotb>  (1) 
0

>  <r_i_glide_esite>  (1) 
0

>  <r_i_glide_evdw>  (1) 
-15.347196591255129

>  <r_i_glide_gscore>  (1) 
-5.623009369538237

>  <r_i_glide_gscore_strain>  (1) 
0

>  <r_i_glide_hbond>  (1) 
-0.24223797754144849

>  <r_i_glide_ligand_efficiency>  (1) 
-0.80328705279117674

>  <r_i_glide_ligand_efficiency_ln>  (1) 
-1.9087511448173016

>  <r_i_glide_ligand_efficiency_sa>  (1) 
-1.5366328520015724

>  <r_i_glide_lipo>  (1) 
-1.8330390625182629

>  <r_i_glide_metal>  (1) 
-0

>  <r_i_glide_rewards>  (1) 
-2.5599538687371419

>  <r_lp_Energy>  (1) 
3.8568439999999997

>  <r_lp_tautomer_probability>  (1) 
1

>  <s_epik_cmdline>  (1) 
J2VwaWtfcHl0aG9uJywgJy1waHQnLCAnMS4wJywgJy1waCcsICc3LjQnLCAnLXRuJywgJzgnLCAnLW1hJywgJzUwMCcsICctaW1hZScsICc8aW5maWxlLm1hZT4nLCAnLW9tYWUnLCAnPG91dGZpbGUubWFlPic=

>  <s_epik_input>  (1) 
W09IXVtDSF0xW0NIMl1bQ0gyXVtDSDJdW0NIMl1bQ0gyXTE=

>  <s_glide_docking_method>  (1) 
confgen

>  <s_i_glide_gridfile>  (1) 
gpcr_5ht2c_6bqh_protein_autoprepared_prepared

>  <s_lp_Force_Field>  (1) 
S-OPLS

>  <s_lp_Variant>  (1) 
Pocket2Mol_36_num_sample_100-1

>  <s_m_source_file>  (1) 
generated__ligand_Pocket2Mol_2026-05-06_prepared.sdf

>  <GenAI_Model>  (1) 
Pocket2Mol

>  <Protein>  (1) 
GPCR_5HT2C

$$$$
Pocket2Mol_58_num_sample_100
     RDKit          3D

  0  0  0  0  0  0  0  0  0  0999 V3000
M  V30 BEGIN CTAB
M  V30 COUNTS 17 17 0 0 1
M  V30 BEGIN ATOM
M  V30 1 C 38.053923 28.506628 55.127020 0
M  V30 2 C 38.644309 28.801972 53.764848 0
M  V30 3 C 38.520158 27.861480 52.720228 0
M  V30 4 C 39.067401 28.140301 51.453166 0
M  V30 5 C 39.738944 29.359066 51.227747 0
M  V30 6 C 39.319525 30.019231 53.539201 0
M  V30 7 N 40.267404 29.641474 49.972411 0
M  V30 8 C 39.867433 30.295723 52.272307 0
M  V30 9 H 38.825650 28.572706 55.894189 0
M  V30 10 H 37.272952 29.230418 55.362265 0
M  V30 11 H 37.618849 27.507616 55.164921 0
M  V30 12 H 38.003274 26.927383 52.889576 0
M  V30 13 H 38.967903 27.420095 50.653503 0
M  V30 14 H 39.415657 30.741112 54.337557 0
M  V30 15 H 40.585549 30.576677 49.757760 0
M  V30 16 H 39.998212 29.080085 49.177928 0
M  V30 17 H 40.381525 31.229594 52.100802 0
M  V30 END ATOM
M  V30 BEGIN BOND
M  V30 1 1 2 1
M  V30 2 1 3 2
M  V30 3 2 4 3
M  V30 4 1 5 4
M  V30 5 2 6 2
M  V30 6 1 7 5
M  V30 7 2 8 5
M  V30 8 1 8 6
M  V30 9 1 9 1
M  V30 10 1 10 1
M  V30 11 1 11 1
M  V30 12 1 12 3
M  V30 13 1 13 4
M  V30 14 1 14 6
M  V30 15 1 15 7
M  V30 16 1 16 7
M  V30 17 1 17 8
M  V30 END BOND
M  V30 END CTAB
M  END
>  <i_epik_Tot_Q>  (1) 
0

>  <i_epik_Tot_abs_Q>  (1) 
0

>  <i_i_glide_confnum>  (1) 
1

>  <i_i_glide_lignum>  (1) 
62

>  <i_i_glide_posenum>  (1) 
387

>  <i_i_glide_rotatable_bonds>  (1) 
0

>  <i_lp_mmshare_version>  (1) 
72125

>  <i_m_source_file_index>  (1) 
59

>  <i_f3d_flags>  (1) 
0

>  <num_sample>  (1) 
100

>  <b_lp_Chiralities_Consistent>  (1) 
1

>  <r_epik_Charging_Adjusted_Penalty>  (1) 
0

>  <r_epik_Ionization_Penalty>  (1) 
0.002249743429862997

>  <r_epik_Ionization_Penalty_Charging>  (1) 
0

>  <r_epik_Ionization_Penalty_Neutral>  (1) 
0.002249743429862997

>  <r_epik_State_Penalty>  (1) 
-0

>  <r_glide_ring_energy>  (1) 
0

>  <r_i_docking_score>  (1) 
-5.61075523938716

>  <r_i_glide_ecoul>  (1) 
-1.144168550505924

>  <r_i_glide_eff_state_penalty>  (1) 
-0

>  <r_i_glide_einternal>  (1) 
0

>  <r_i_glide_emodel>  (1) 
-26.099822489034789

>  <r_i_glide_emodel_strain>  (1) 
0.0059319498435890239

>  <r_i_glide_energy>  (1) 
-19.084352598694363

>  <r_i_glide_erotb>  (1) 
0

>  <r_i_glide_esite>  (1) 
0

>  <r_i_glide_evdw>  (1) 
-17.940184048188438

>  <r_i_glide_gscore>  (1) 
-5.61075523938716

>  <r_i_glide_gscore_strain>  (1) 
0

>  <r_i_glide_hbond>  (1) 
0

>  <r_i_glide_ligand_efficiency>  (1) 
-0.701344404923395

>  <r_i_glide_ligand_efficiency_ln>  (1) 
-1.8220041405061036

>  <r_i_glide_ligand_efficiency_sa>  (1) 
-1.4026888098467902

>  <r_i_glide_lipo>  (1) 
-1.9599070763231636

>  <r_i_glide_metal>  (1) 
-0

>  <r_i_glide_rewards>  (1) 
-2.582213678078686

>  <r_lp_Energy>  (1) 
4.6440260000000002

>  <r_lp_tautomer_probability>  (1) 
1

>  <s_epik_cmdline>  (1) 
J2VwaWtfcHl0aG9uJywgJy1waHQnLCAnMS4wJywgJy1waCcsICc3LjQnLCAnLXRuJywgJzgnLCAnLW1hJywgJzUwMCcsICctaW1hZScsICc8aW5maWxlLm1hZT4nLCAnLW9tYWUnLCAnPG91dGZpbGUubWFlPic=

>  <s_epik_input>  (1) 
W0NIM11jMVtjSF1bY0hdYyhbTkgyXSlbY0hdW2NIXTE=

>  <s_glide_docking_method>  (1) 
confgen

>  <s_i_glide_gridfile>  (1) 
gpcr_5ht2c_6bqh_protein_autoprepared_prepared

>  <s_lp_Force_Field>  (1) 
S-OPLS

>  <s_lp_Variant>  (1) 
Pocket2Mol_58_num_sample_100-1

>  <s_m_source_file>  (1) 
generated__ligand_Pocket2Mol_2026-05-06_prepared.sdf

>  <GenAI_Model>  (1) 
Pocket2Mol

>  <Protein>  (1) 
GPCR_5HT2C

$$$$
Pocket2Mol_54_num_sample_100
     RDKit          3D

  0  0  0  0  0  0  0  0  0  0999 V3000
M  V30 BEGIN CTAB
M  V30 COUNTS 17 17 0 0 1
M  V30 BEGIN ATOM
M  V30 1 C 39.067401 27.443968 51.621773 0
M  V30 2 C 38.622499 27.745015 52.923689 0
M  V30 3 C 38.821440 29.035024 53.455351 0
M  V30 4 N 38.379808 29.335351 54.742045 0
M  V30 5 C 39.706593 28.429969 50.850051 0
M  V30 6 C 39.905981 29.719740 51.377192 0
M  V30 7 C 40.587005 30.783391 50.541055 0
M  V30 8 C 39.467404 30.021427 52.682910 0
M  V30 9 H 38.916544 26.456178 51.213294 0
M  V30 10 H 38.128670 26.986332 53.513139 0
M  V30 11 H 38.366225 30.291469 55.070026 0
M  V30 12 H 37.783572 28.690391 55.239681 0
M  V30 13 H 40.042760 28.197124 49.853505 0
M  V30 14 H 40.905262 30.391450 49.574749 0
M  V30 15 H 39.903898 31.614269 50.361023 0
M  V30 16 H 41.467399 31.165403 51.053499 0
M  V30 17 H 39.620631 31.011766 53.088069 0
M  V30 END ATOM
M  V30 BEGIN BOND
M  V30 1 1 2 1
M  V30 2 2 3 2
M  V30 3 1 4 3
M  V30 4 2 5 1
M  V30 5 1 6 5
M  V30 6 1 7 6
M  V30 7 1 8 3
M  V30 8 2 8 6
M  V30 9 1 9 1
M  V30 10 1 10 2
M  V30 11 1 11 4
M  V30 12 1 12 4
M  V30 13 1 13 5
M  V30 14 1 14 7
M  V30 15 1 15 7
M  V30 16 1 16 7
M  V30 17 1 17 8
M  V30 END BOND
M  V30 END CTAB
M  END
>  <i_epik_Tot_Q>  (1) 
0

>  <i_epik_Tot_abs_Q>  (1) 
0

>  <i_i_glide_confnum>  (1) 
1

>  <i_i_glide_lignum>  (1) 
58

>  <i_i_glide_posenum>  (1) 
373

>  <i_i_glide_rotatable_bonds>  (1) 
0

>  <i_lp_mmshare_version>  (1) 
72125

>  <i_m_source_file_index>  (1) 
55

>  <i_f3d_flags>  (1) 
0

>  <num_sample>  (1) 
100

>  <b_lp_Chiralities_Consistent>  (1) 
1

>  <r_epik_Charging_Adjusted_Penalty>  (1) 
0

>  <r_epik_Ionization_Penalty>  (1) 
0.0013172751215551738

>  <r_epik_Ionization_Penalty_Charging>  (1) 
0

>  <r_epik_Ionization_Penalty_Neutral>  (1) 
0.0013172751215551738

>  <r_epik_State_Penalty>  (1) 
-0

>  <r_glide_ring_energy>  (1) 
0

>  <r_i_docking_score>  (1) 
-5.6004890711489415

>  <r_i_glide_ecoul>  (1) 
-0.91188737033740075

>  <r_i_glide_eff_state_penalty>  (1) 
-0

>  <r_i_glide_einternal>  (1) 
0

>  <r_i_glide_emodel>  (1) 
-25.933186501890475

>  <r_i_glide_emodel_strain>  (1) 
0.0067386192175522552

>  <r_i_glide_energy>  (1) 
-19.019882569093276

>  <r_i_glide_erotb>  (1) 
0

>  <r_i_glide_esite>  (1) 
0

>  <r_i_glide_evdw>  (1) 
-18.107995198755876

>  <r_i_glide_gscore>  (1) 
-5.6004890711489415

>  <r_i_glide_gscore_strain>  (1) 
0

>  <r_i_glide_hbond>  (1) 
0

>  <r_i_glide_ligand_efficiency>  (1) 
-0.70006113389361768

>  <r_i_glide_ligand_efficiency_ln>  (1) 
-1.8186703645278079

>  <r_i_glide_ligand_efficiency_sa>  (1) 
-1.4001222677872356

>  <r_i_glide_lipo>  (1) 
-2.1609109679842877

>  <r_i_glide_metal>  (1) 
-0

>  <r_i_glide_rewards>  (1) 
-2.3973952376762497

>  <r_lp_Energy>  (1) 
5.5447359999999994

>  <r_lp_tautomer_probability>  (1) 
1

>  <s_epik_cmdline>  (1) 
J2VwaWtfcHl0aG9uJywgJy1waHQnLCAnMS4wJywgJy1waCcsICc3LjQnLCAnLXRuJywgJzgnLCAnLW1hJywgJzUwMCcsICctaW1hZScsICc8aW5maWxlLm1hZT4nLCAnLW9tYWUnLCAnPG91dGZpbGUubWFlPic=

>  <s_epik_input>  (1) 
W0NIM11jKFtjSF0xKVtjSF1bY0hdW2NIXWMxW05IMl0=

>  <s_glide_docking_method>  (1) 
confgen

>  <s_i_glide_gridfile>  (1) 
gpcr_5ht2c_6bqh_protein_autoprepared_prepared

>  <s_lp_Force_Field>  (1) 
S-OPLS

>  <s_lp_Variant>  (1) 
Pocket2Mol_54_num_sample_100-1

>  <s_m_source_file>  (1) 
generated__ligand_Pocket2Mol_2026-05-06_prepared.sdf

>  <GenAI_Model>  (1) 
Pocket2Mol

>  <Protein>  (1) 
GPCR_5HT2C

$$$$
Pocket2Mol_34_num_sample_100
     RDKit          3D

  0  0  0  0  0  0  0  0  0  0999 V3000
M  V30 BEGIN CTAB
M  V30 COUNTS 12 12 0 0 1
M  V30 BEGIN ATOM
M  V30 1 C 39.204486 29.818713 53.284866 0
M  V30 2 C 39.867408 30.021482 52.057414 0
M  V30 3 C 39.807684 29.035096 51.053489 0
M  V30 4 C 39.084178 27.846724 51.275639 0
M  V30 5 C 38.481011 28.630614 53.505961 0
M  V30 6 F 37.843680 28.435299 54.683557 0
M  V30 7 C 38.420679 27.645519 52.501657 0
M  V30 8 H 39.249948 30.574922 54.054965 0
M  V30 9 H 40.421086 30.933940 51.886410 0
M  V30 10 H 40.315214 29.190887 50.113094 0
M  V30 11 H 39.037715 27.089694 50.505393 0
M  V30 12 H 37.864749 26.735890 52.671736 0
M  V30 END ATOM
M  V30 BEGIN BOND
M  V30 1 1 2 1
M  V30 2 2 3 2
M  V30 3 1 4 3
M  V30 4 2 5 1
M  V30 5 1 6 5
M  V30 6 2 7 4
M  V30 7 1 7 5
M  V30 8 1 8 1
M  V30 9 1 9 2
M  V30 10 1 10 3
M  V30 11 1 11 4
M  V30 12 1 12 7
M  V30 END BOND
M  V30 END CTAB
M  END
>  <i_epik_Tot_Q>  (1) 
0

>  <i_epik_Tot_abs_Q>  (1) 
0

>  <i_i_glide_confnum>  (1) 
1

>  <i_i_glide_lignum>  (1) 
37

>  <i_i_glide_posenum>  (1) 
210

>  <i_i_glide_rotatable_bonds>  (1) 
0

>  <i_lp_mmshare_version>  (1) 
72125

>  <i_m_source_file_index>  (1) 
35

>  <i_f3d_flags>  (1) 
0

>  <num_sample>  (1) 
100

>  <b_lp_Chiralities_Consistent>  (1) 
1

>  <r_epik_Charging_Adjusted_Penalty>  (1) 
0

>  <r_epik_Ionization_Penalty>  (1) 
0

>  <r_epik_Ionization_Penalty_Charging>  (1) 
0

>  <r_epik_Ionization_Penalty_Neutral>  (1) 
0

>  <r_epik_State_Penalty>  (1) 
-0

>  <r_glide_ring_energy>  (1) 
0

>  <r_i_docking_score>  (1) 
-5.5822440568756839

>  <r_i_glide_ecoul>  (1) 
-0.8306355662476147

>  <r_i_glide_eff_state_penalty>  (1) 
-0

>  <r_i_glide_einternal>  (1) 
0

>  <r_i_glide_emodel>  (1) 
-21.25629214171208

>  <r_i_glide_emodel_strain>  (1) 
0

>  <r_i_glide_energy>  (1) 
-15.781793285089952

>  <r_i_glide_erotb>  (1) 
0

>  <r_i_glide_esite>  (1) 
0

>  <r_i_glide_evdw>  (1) 
-14.951157718842337

>  <r_i_glide_gscore>  (1) 
-5.5822440568756839

>  <r_i_glide_gscore_strain>  (1) 
0

>  <r_i_glide_hbond>  (1) 
0

>  <r_i_glide_ligand_efficiency>  (1) 
-0.79746343669652631

>  <r_i_glide_ligand_efficiency_ln>  (1) 
-1.8949132099856416

>  <r_i_glide_ligand_efficiency_sa>  (1) 
-1.5254926751776203

>  <r_i_glide_lipo>  (1) 
-1.8092346261477867

>  <r_i_glide_metal>  (1) 
-0

>  <r_i_glide_rewards>  (1) 
-2.9008562098486381

>  <r_lp_Energy>  (1) 
8.194445

>  <r_lp_tautomer_probability>  (1) 
1

>  <s_epik_cmdline>  (1) 
J2VwaWtfcHl0aG9uJywgJy1waHQnLCAnMS4wJywgJy1waCcsICc3LjQnLCAnLXRuJywgJzgnLCAnLW1hJywgJzUwMCcsICctaW1hZScsICc8aW5maWxlLm1hZT4nLCAnLW9tYWUnLCAnPG91dGZpbGUubWFlPic=

>  <s_epik_input>  (1) 
RmMxW2NIXVtjSF1bY0hdW2NIXVtjSF0x

>  <s_glide_docking_method>  (1) 
confgen

>  <s_i_glide_gridfile>  (1) 
gpcr_5ht2c_6bqh_protein_autoprepared_prepared

>  <s_lp_Force_Field>  (1) 
S-OPLS

>  <s_lp_Variant>  (1) 
Pocket2Mol_34_num_sample_100-1

>  <s_m_source_file>  (1) 
generated__ligand_Pocket2Mol_2026-05-06_prepared.sdf

>  <GenAI_Model>  (1) 
Pocket2Mol

>  <Protein>  (1) 
GPCR_5HT2C

$$$$
Pocket2Mol_27_num_sample_100
     RDKit          3D

  0  0  0  0  0  0  0  0  0  0999 V3000
M  V30 BEGIN CTAB
M  V30 COUNTS 15 15 0 0 1
M  V30 BEGIN ATOM
M  V30 1 C 39.467403 30.038249 53.022507 0
M  V30 2 C 38.743770 29.646656 54.165438 0
M  V30 3 C 38.021085 28.438376 54.161420 0
M  V30 4 C 39.467404 29.221428 51.872181 0
M  V30 5 C 38.020622 27.621409 53.014619 0
M  V30 6 C 40.243568 29.646111 50.642238 0
M  V30 7 C 38.742575 28.011781 51.869503 0
M  V30 8 H 40.021256 30.966334 53.026610 0
M  V30 9 H 38.742847 30.273696 55.045390 0
M  V30 10 H 37.467403 28.138264 55.038269 0
M  V30 11 H 37.465962 26.694643 53.012282 0
M  V30 12 H 40.145276 28.917733 49.837011 0
M  V30 13 H 39.876876 30.605813 50.276657 0
M  V30 14 H 41.301715 29.751575 50.881818 0
M  V30 15 H 38.739288 27.383314 50.990186 0
M  V30 END ATOM
M  V30 BEGIN BOND
M  V30 1 1 2 1
M  V30 2 2 3 2
M  V30 3 2 4 1
M  V30 4 1 5 3
M  V30 5 1 6 4
M  V30 6 1 7 4
M  V30 7 2 7 5
M  V30 8 1 8 1
M  V30 9 1 9 2
M  V30 10 1 10 3
M  V30 11 1 11 5
M  V30 12 1 12 6
M  V30 13 1 13 6
M  V30 14 1 14 6
M  V30 15 1 15 7
M  V30 END BOND
M  V30 END CTAB
M  END
>  <i_epik_Tot_Q>  (1) 
0

>  <i_epik_Tot_abs_Q>  (1) 
0

>  <i_i_glide_confnum>  (1) 
1

>  <i_i_glide_lignum>  (1) 
30

>  <i_i_glide_posenum>  (1) 
299

>  <i_i_glide_rotatable_bonds>  (1) 
0

>  <i_lp_mmshare_version>  (1) 
72125

>  <i_m_source_file_index>  (1) 
28

>  <i_f3d_flags>  (1) 
0

>  <num_sample>  (1) 
100

>  <b_lp_Chiralities_Consistent>  (1) 
1

>  <r_epik_Charging_Adjusted_Penalty>  (1) 
0

>  <r_epik_Ionization_Penalty>  (1) 
0

>  <r_epik_Ionization_Penalty_Charging>  (1) 
0

>  <r_epik_Ionization_Penalty_Neutral>  (1) 
0

>  <r_epik_State_Penalty>  (1) 
-0

>  <r_glide_ring_energy>  (1) 
0

>  <r_i_docking_score>  (1) 
-5.5793117651327888

>  <r_i_glide_ecoul>  (1) 
-1.0230744215788743

>  <r_i_glide_eff_state_penalty>  (1) 
-0

>  <r_i_glide_einternal>  (1) 
0

>  <r_i_glide_emodel>  (1) 
-23.490399051246939

>  <r_i_glide_emodel_strain>  (1) 
0

>  <r_i_glide_energy>  (1) 
-17.326440654634055

>  <r_i_glide_erotb>  (1) 
0

>  <r_i_glide_esite>  (1) 
0

>  <r_i_glide_evdw>  (1) 
-16.303366233055179

>  <r_i_glide_gscore>  (1) 
-5.5793117651327888

>  <r_i_glide_gscore_strain>  (1) 
0

>  <r_i_glide_hbond>  (1) 
0

>  <r_i_glide_ligand_efficiency>  (1) 
-0.79704453787611274

>  <r_i_glide_ligand_efficiency_ln>  (1) 
-1.8939178328035386

>  <r_i_glide_ligand_efficiency_sa>  (1) 
-1.5246913505616246

>  <r_i_glide_lipo>  (1) 
-2.045637758290527

>  <r_i_glide_metal>  (1) 
-0

>  <r_i_glide_rewards>  (1) 
-2.565044531952672

>  <r_lp_Energy>  (1) 
6.403492

>  <r_lp_tautomer_probability>  (1) 
1

>  <s_epik_cmdline>  (1) 
J2VwaWtfcHl0aG9uJywgJy1waHQnLCAnMS4wJywgJy1waCcsICc3LjQnLCAnLXRuJywgJzgnLCAnLW1hJywgJzUwMCcsICctaW1hZScsICc8aW5maWxlLm1hZT4nLCAnLW9tYWUnLCAnPG91dGZpbGUubWFlPic=

>  <s_epik_input>  (1) 
W0NIM11jMVtjSF1bY0hdW2NIXVtjSF1bY0hdMQ==

>  <s_glide_docking_method>  (1) 
confgen

>  <s_i_glide_gridfile>  (1) 
gpcr_5ht2c_6bqh_protein_autoprepared_prepared

>  <s_lp_Force_Field>  (1) 
S-OPLS

>  <s_lp_Variant>  (1) 
Pocket2Mol_27_num_sample_100-1

>  <s_m_source_file>  (1) 
generated__ligand_Pocket2Mol_2026-05-06_prepared.sdf

>  <GenAI_Model>  (1) 
Pocket2Mol

>  <Protein>  (1) 
GPCR_5HT2C

$$$$
Pocket2Mol_41_num_sample_100
     RDKit          3D

  0  0  0  0  0  0  0  0  0  0999 V3000
M  V30 BEGIN CTAB
M  V30 COUNTS 15 15 0 0 1
M  V30 BEGIN ATOM
M  V30 1 C 39.755557 28.407336 50.831545 0
M  V30 2 C 39.012171 27.398059 51.521699 0
M  V30 3 C 38.566748 27.808785 52.754226 0
M  V30 4 C 37.762052 27.035561 53.743619 0
M  V30 5 C 39.867399 29.571172 51.543462 0
M  V30 6 C 40.559641 30.821435 51.139350 0
M  V30 7 S 39.067403 29.435597 53.076283 0
M  V30 8 H 40.172883 28.244838 49.853504 0
M  V30 9 H 38.832185 26.424415 51.092888 0
M  V30 10 H 37.350162 26.129707 53.299186 0
M  V30 11 H 38.374982 26.744815 54.596627 0
M  V30 12 H 36.928562 27.632904 54.113830 0
M  V30 13 H 41.303839 30.632354 50.364987 0
M  V30 14 H 39.849982 31.555197 50.757536 0
M  V30 15 H 41.067402 31.251832 51.996944 0
M  V30 END ATOM
M  V30 BEGIN BOND
M  V30 1 1 2 1
M  V30 2 2 3 2
M  V30 3 1 4 3
M  V30 4 2 5 1
M  V30 5 1 6 5
M  V30 6 1 7 3
M  V30 7 1 7 5
M  V30 8 1 8 1
M  V30 9 1 9 2
M  V30 10 1 10 4
M  V30 11 1 11 4
M  V30 12 1 12 4
M  V30 13 1 13 6
M  V30 14 1 14 6
M  V30 15 1 15 6
M  V30 END BOND
M  V30 END CTAB
M  END
>  <i_epik_Tot_Q>  (1) 
0

>  <i_epik_Tot_abs_Q>  (1) 
0

>  <i_i_glide_confnum>  (1) 
1

>  <i_i_glide_lignum>  (1) 
44

>  <i_i_glide_posenum>  (1) 
269

>  <i_i_glide_rotatable_bonds>  (1) 
0

>  <i_lp_mmshare_version>  (1) 
72125

>  <i_m_source_file_index>  (1) 
42

>  <i_f3d_flags>  (1) 
0

>  <num_sample>  (1) 
100

>  <b_lp_Chiralities_Consistent>  (1) 
1

>  <r_epik_Charging_Adjusted_Penalty>  (1) 
0

>  <r_epik_Ionization_Penalty>  (1) 
0

>  <r_epik_Ionization_Penalty_Charging>  (1) 
0

>  <r_epik_Ionization_Penalty_Neutral>  (1) 
0

>  <r_epik_State_Penalty>  (1) 
-0

>  <r_glide_ring_energy>  (1) 
0

>  <r_i_docking_score>  (1) 
-5.5701314908742852

>  <r_i_glide_ecoul>  (1) 
-0.57708921932463741

>  <r_i_glide_eff_state_penalty>  (1) 
-0

>  <r_i_glide_einternal>  (1) 
0

>  <r_i_glide_emodel>  (1) 
-25.048855935156745

>  <r_i_glide_emodel_strain>  (1) 
0.0023231346137277953

>  <r_i_glide_energy>  (1) 
-18.554137508949786

>  <r_i_glide_erotb>  (1) 
0

>  <r_i_glide_esite>  (1) 
0

>  <r_i_glide_evdw>  (1) 
-17.977048289625149

>  <r_i_glide_gscore>  (1) 
-5.5701314908742852

>  <r_i_glide_gscore_strain>  (1) 
0

>  <r_i_glide_hbond>  (1) 
0

>  <r_i_glide_ligand_efficiency>  (1) 
-0.79573307012489791

>  <r_i_glide_ligand_efficiency_ln>  (1) 
-1.8908015550509916

>  <r_i_glide_ligand_efficiency_sa>  (1) 
-1.5221826030051253

>  <r_i_glide_lipo>  (1) 
-2.1153672214264305

>  <r_i_glide_metal>  (1) 
-0

>  <r_i_glide_rewards>  (1) 
-2.4693484720679009

>  <r_lp_Energy>  (1) 
3.6641779999999997

>  <r_lp_tautomer_probability>  (1) 
1

>  <s_epik_cmdline>  (1) 
J2VwaWtfcHl0aG9uJywgJy1waHQnLCAnMS4wJywgJy1waCcsICc3LjQnLCAnLXRuJywgJzgnLCAnLW1hJywgJzUwMCcsICctaW1hZScsICc8aW5maWxlLm1hZT4nLCAnLW9tYWUnLCAnPG91dGZpbGUubWFlPic=

>  <s_epik_input>  (1) 
W0NIM11jKHMxKVtjSF1bY0hdYzFbQ0gzXQ==

>  <s_glide_docking_method>  (1) 
confgen

>  <s_i_glide_gridfile>  (1) 
gpcr_5ht2c_6bqh_protein_autoprepared_prepared

>  <s_lp_Force_Field>  (1) 
S-OPLS

>  <s_lp_Variant>  (1) 
Pocket2Mol_41_num_sample_100-1

>  <s_m_source_file>  (1) 
generated__ligand_Pocket2Mol_2026-05-06_prepared.sdf

>  <GenAI_Model>  (1) 
Pocket2Mol

>  <Protein>  (1) 
GPCR_5HT2C

$$$$
Pocket2Mol_90_num_sample_100
     RDKit          3D

  0  0  0  0  0  0  0  0  0  0999 V3000
M  V30 BEGIN CTAB
M  V30 COUNTS 14 14 0 0 1
M  V30 BEGIN ATOM
M  V30 1 C 39.195640 27.621459 50.972136 0
M  V30 2 C 38.655365 27.733152 52.299188 0
M  V30 3 C 38.982477 28.920696 52.825292 0
M  V30 4 C 39.779643 29.632817 51.803829 0
M  V30 5 C 39.867383 28.735216 50.653528 0
M  V30 6 C 38.568181 29.338212 54.163780 0
M  V30 7 O 40.267411 30.758017 51.897198 0
M  V30 8 N 38.993600 30.567220 54.465594 0
M  V30 9 O 37.902475 28.660315 54.942105 0
M  V30 10 H 39.072381 26.767666 50.323897 0
M  V30 11 H 38.066939 26.973625 52.795132 0
M  V30 12 H 40.379691 28.963918 49.731900 0
M  V30 13 H 39.538457 31.092615 53.791874 0
M  V30 14 H 38.763798 30.972079 55.361837 0
M  V30 END ATOM
M  V30 BEGIN BOND
M  V30 1 1 2 1
M  V30 2 2 3 2
M  V30 3 1 4 3
M  V30 4 2 5 1
M  V30 5 1 5 4
M  V30 6 1 6 3
M  V30 7 2 7 4
M  V30 8 1 8 6
M  V30 9 2 9 6
M  V30 10 1 10 1
M  V30 11 1 11 2
M  V30 12 1 12 5
M  V30 13 1 13 8
M  V30 14 1 14 8
M  V30 END BOND
M  V30 END CTAB
M  END
>  <i_epik_Tot_Q>  (1) 
0

>  <i_epik_Tot_abs_Q>  (1) 
0

>  <i_i_glide_confnum>  (1) 
1

>  <i_i_glide_lignum>  (1) 
95

>  <i_i_glide_posenum>  (1) 
333

>  <i_i_glide_rotatable_bonds>  (1) 
1

>  <i_lp_mmshare_version>  (1) 
72125

>  <i_m_source_file_index>  (1) 
91

>  <i_f3d_flags>  (1) 
0

>  <num_sample>  (1) 
100

>  <b_lp_Chiralities_Consistent>  (1) 
1

>  <r_epik_Charging_Adjusted_Penalty>  (1) 
0.0065050288304222097

>  <r_epik_Ionization_Penalty>  (1) 
0.0032614418865694397

>  <r_epik_Ionization_Penalty_Charging>  (1) 
0

>  <r_epik_Ionization_Penalty_Neutral>  (1) 
0.0032614418865694397

>  <r_epik_State_Penalty>  (1) 
0.0065050288304222097

>  <r_glide_ring_energy>  (1) 
0

>  <r_i_docking_score>  (1) 
-5.5481485619024582

>  <r_i_glide_ecoul>  (1) 
-0.29490163917569778

>  <r_i_glide_eff_state_penalty>  (1) 
0.0065050288304222097

>  <r_i_glide_einternal>  (1) 
0.0009816722213888962

>  <r_i_glide_emodel>  (1) 
-29.603522596583701

>  <r_i_glide_emodel_strain>  (1) 
0

>  <r_i_glide_energy>  (1) 
-21.462585083614261

>  <r_i_glide_erotb>  (1) 
0

>  <r_i_glide_esite>  (1) 
0

>  <r_i_glide_evdw>  (1) 
-21.167683444438563

>  <r_i_glide_gscore>  (1) 
-5.5546535907328805

>  <r_i_glide_gscore_strain>  (1) 
0

>  <r_i_glide_hbond>  (1) 
0

>  <r_i_glide_ligand_efficiency>  (1) 
-0.61646095132249534

>  <r_i_glide_ligand_efficiency_ln>  (1) 
-1.7353014865552299

>  <r_i_glide_ligand_efficiency_sa>  (1) 
-1.2822904523891101

>  <r_i_glide_lipo>  (1) 
-1.3157714741811988

>  <r_i_glide_metal>  (1) 
-0

>  <r_i_glide_rewards>  (1) 
-3.1362626984533977

>  <r_lp_Energy>  (1) 
1.7710899999999998

>  <s_epik_cmdline>  (1) 
J2VwaWtfcHl0aG9uJywgJy1waHQnLCAnMS4wJywgJy1waCcsICc3LjQnLCAnLXRuJywgJzgnLCAnLW1hJywgJzUwMCcsICctaW1hZScsICc8aW5maWxlLm1hZT4nLCAnLW9tYWUnLCAnPG91dGZpbGUubWFlPic=

>  <s_epik_input>  (1) 
Tz1DMVtDSF09W0NIXVtDSF09QzFDKD1PKVtOSDJd

>  <s_glide_docking_method>  (1) 
confgen

>  <s_i_glide_gridfile>  (1) 
gpcr_5ht2c_6bqh_protein_autoprepared_prepared

>  <s_lp_Force_Field>  (1) 
S-OPLS

>  <s_lp_Variant>  (1) 
Pocket2Mol_90_num_sample_100-1

>  <s_m_source_file>  (1) 
generated__ligand_Pocket2Mol_2026-05-06_prepared.sdf

>  <GenAI_Model>  (1) 
Pocket2Mol

>  <Protein>  (1) 
GPCR_5HT2C

$$$$
Pocket2Mol_56_num_sample_100
     RDKit          3D

  0  0  0  0  0  0  0  0  0  0999 V3000
M  V30 BEGIN CTAB
M  V30 COUNTS 17 17 0 0 1
M  V30 BEGIN ATOM
M  V30 1 C 38.783552 29.054667 53.512315 0
M  V30 2 C 39.468129 29.992969 52.729767 0
M  V30 3 C 39.882994 29.621090 51.433679 0
M  V30 4 C 40.611810 30.607325 50.550799 0
M  V30 5 C 38.543011 27.782374 52.971365 0
M  V30 6 C 37.810216 26.727950 53.775616 0
M  V30 7 C 38.998046 27.502808 51.666084 0
M  V30 8 N 39.662092 28.398385 50.899789 0
M  V30 9 H 38.449545 29.306325 54.507681 0
M  V30 10 H 39.668906 30.983694 53.111382 0
M  V30 11 H 40.328585 31.620902 50.821888 0
M  V30 12 H 41.692958 30.497702 50.653500 0
M  V30 13 H 40.342148 30.459146 49.503909 0
M  V30 14 H 37.098332 27.184913 54.464070 0
M  V30 15 H 37.259542 26.050577 53.121839 0
M  V30 16 H 38.519531 26.140166 54.359527 0
M  V30 17 H 38.828667 26.533646 51.224625 0
M  V30 END ATOM
M  V30 BEGIN BOND
M  V30 1 2 2 1
M  V30 2 1 3 2
M  V30 3 1 4 3
M  V30 4 1 5 1
M  V30 5 1 6 5
M  V30 6 2 7 5
M  V30 7 2 8 3
M  V30 8 1 8 7
M  V30 9 1 9 1
M  V30 10 1 10 2
M  V30 11 1 11 4
M  V30 12 1 12 4
M  V30 13 1 13 4
M  V30 14 1 14 6
M  V30 15 1 15 6
M  V30 16 1 16 6
M  V30 17 1 17 7
M  V30 END BOND
M  V30 END CTAB
M  END
>  <i_epik_Tot_Q>  (1) 
0

>  <i_epik_Tot_abs_Q>  (1) 
0

>  <i_i_glide_confnum>  (1) 
1

>  <i_i_glide_lignum>  (1) 
60

>  <i_i_glide_posenum>  (1) 
189

>  <i_i_glide_rotatable_bonds>  (1) 
0

>  <i_lp_mmshare_version>  (1) 
72125

>  <i_m_source_file_index>  (1) 
57

>  <i_f3d_flags>  (1) 
0

>  <num_sample>  (1) 
100

>  <b_lp_Chiralities_Consistent>  (1) 
1

>  <r_epik_Charging_Adjusted_Penalty>  (1) 
0.022258434784609007

>  <r_epik_Ionization_Penalty>  (1) 
0.022258434785048374

>  <r_epik_Ionization_Penalty_Charging>  (1) 
0

>  <r_epik_Ionization_Penalty_Neutral>  (1) 
0.022258434785048374

>  <r_epik_State_Penalty>  (1) 
0.022258434784609007

>  <r_glide_ring_energy>  (1) 
0

>  <r_i_docking_score>  (1) 
-5.537511348839967

>  <r_i_glide_ecoul>  (1) 
-0.91486610767971877

>  <r_i_glide_eff_state_penalty>  (1) 
0.022258434784609007

>  <r_i_glide_einternal>  (1) 
0

>  <r_i_glide_emodel>  (1) 
-26.484699210042056

>  <r_i_glide_emodel_strain>  (1) 
0

>  <r_i_glide_energy>  (1) 
-19.839917000309928

>  <r_i_glide_erotb>  (1) 
0

>  <r_i_glide_esite>  (1) 
0

>  <r_i_glide_evdw>  (1) 
-18.92505089263021

>  <r_i_glide_gscore>  (1) 
-5.5597697836245761

>  <r_i_glide_gscore_strain>  (1) 
0

>  <r_i_glide_hbond>  (1) 
0

>  <r_i_glide_ligand_efficiency>  (1) 
-0.69218891860499587

>  <r_i_glide_ligand_efficiency_ln>  (1) 
-1.7982193439591172

>  <r_i_glide_ligand_efficiency_sa>  (1) 
-1.384377837209992

>  <r_i_glide_lipo>  (1) 
-2.102678570333973

>  <r_i_glide_metal>  (1) 
-0

>  <r_i_glide_rewards>  (1) 
-2.3736087525071352

>  <r_lp_Energy>  (1) 
7.9607329999999994

>  <s_epik_cmdline>  (1) 
J2VwaWtfcHl0aG9uJywgJy1waHQnLCAnMS4wJywgJy1waCcsICc3LjQnLCAnLXRuJywgJzgnLCAnLW1hJywgJzUwMCcsICctaW1hZScsICc8aW5maWxlLm1hZT4nLCAnLW9tYWUnLCAnPG91dGZpbGUubWFlPic=

>  <s_epik_input>  (1) 
bjFbY0hdYyhbQ0gzXSlbY0hdW2NIXWMxW0NIM10=

>  <s_glide_docking_method>  (1) 
confgen

>  <s_i_glide_gridfile>  (1) 
gpcr_5ht2c_6bqh_protein_autoprepared_prepared

>  <s_lp_Force_Field>  (1) 
S-OPLS

>  <s_lp_Variant>  (1) 
Pocket2Mol_56_num_sample_100-1

>  <s_m_source_file>  (1) 
generated__ligand_Pocket2Mol_2026-05-06_prepared.sdf

>  <GenAI_Model>  (1) 
Pocket2Mol

>  <Protein>  (1) 
GPCR_5HT2C

$$$$
Pocket2Mol_30_num_sample_100
     RDKit          3D

  0  0  0  0  0  0  0  0  0  0999 V3000
M  V30 BEGIN CTAB
M  V30 COUNTS 14 14 0 0 1
M  V30 BEGIN ATOM
M  V30 1 C 40.267403 30.133152 51.175871 0
M  V30 2 C 39.867403 30.332616 52.511749 0
M  V30 3 C 39.066935 29.370392 53.159613 0
M  V30 4 N 38.668022 29.570020 54.479552 0
M  V30 5 C 39.867404 28.972123 50.487867 0
M  V30 6 C 38.668241 28.207186 52.469906 0
M  V30 7 C 39.069206 28.008281 51.134863 0
M  V30 8 H 40.879880 30.872061 50.679183 0
M  V30 9 H 40.174549 31.223574 53.038179 0
M  V30 10 H 37.965449 28.974524 54.893700 0
M  V30 11 H 38.801621 30.467550 54.924605 0
M  V30 12 H 40.172125 28.821427 49.462895 0
M  V30 13 H 38.054453 27.467729 52.963634 0
M  V30 14 H 38.763112 27.116746 50.606643 0
M  V30 END ATOM
M  V30 BEGIN BOND
M  V30 1 1 2 1
M  V30 2 2 3 2
M  V30 3 1 4 3
M  V30 4 2 5 1
M  V30 5 1 6 3
M  V30 6 1 7 5
M  V30 7 2 7 6
M  V30 8 1 8 1
M  V30 9 1 9 2
M  V30 10 1 10 4
M  V30 11 1 11 4
M  V30 12 1 12 5
M  V30 13 1 13 6
M  V30 14 1 14 7
M  V30 END BOND
M  V30 END CTAB
M  END
>  <i_epik_Tot_Q>  (1) 
0

>  <i_epik_Tot_abs_Q>  (1) 
0

>  <i_i_glide_confnum>  (1) 
1

>  <i_i_glide_lignum>  (1) 
33

>  <i_i_glide_posenum>  (1) 
120

>  <i_i_glide_rotatable_bonds>  (1) 
0

>  <i_lp_mmshare_version>  (1) 
72125

>  <i_m_source_file_index>  (1) 
31

>  <i_f3d_flags>  (1) 
0

>  <num_sample>  (1) 
100

>  <b_lp_Chiralities_Consistent>  (1) 
1

>  <r_epik_Charging_Adjusted_Penalty>  (1) 
0

>  <r_epik_Ionization_Penalty>  (1) 
0.00088153335660618348

>  <r_epik_Ionization_Penalty_Charging>  (1) 
0

>  <r_epik_Ionization_Penalty_Neutral>  (1) 
0.00088153335660618348

>  <r_epik_State_Penalty>  (1) 
-0

>  <r_glide_ring_energy>  (1) 
0

>  <r_i_docking_score>  (1) 
-5.5358884952670513

>  <r_i_glide_ecoul>  (1) 
-1.0250388869011902

>  <r_i_glide_eff_state_penalty>  (1) 
-0

>  <r_i_glide_einternal>  (1) 
0

>  <r_i_glide_emodel>  (1) 
-23.866820253541562

>  <r_i_glide_emodel_strain>  (1) 
0

>  <r_i_glide_energy>  (1) 
-17.715923388357517

>  <r_i_glide_erotb>  (1) 
0

>  <r_i_glide_esite>  (1) 
0

>  <r_i_glide_evdw>  (1) 
-16.690884501456328

>  <r_i_glide_gscore>  (1) 
-5.5358884952670513

>  <r_i_glide_gscore_strain>  (1) 
0

>  <r_i_glide_hbond>  (1) 
0

>  <r_i_glide_ligand_efficiency>  (1) 
-0.79084121360957871

>  <r_i_glide_ligand_efficiency_ln>  (1) 
-1.8791776446550092

>  <r_i_glide_ligand_efficiency_sa>  (1) 
-1.5128248181353232

>  <r_i_glide_lipo>  (1) 
-1.8650915327687092

>  <r_i_glide_metal>  (1) 
-0

>  <r_i_glide_rewards>  (1) 
-2.682496904390347

>  <r_lp_Energy>  (1) 
7.0325409999999993

>  <r_lp_tautomer_probability>  (1) 
1

>  <s_epik_cmdline>  (1) 
J2VwaWtfcHl0aG9uJywgJy1waHQnLCAnMS4wJywgJy1waCcsICc3LjQnLCAnLXRuJywgJzgnLCAnLW1hJywgJzUwMCcsICctaW1hZScsICc8aW5maWxlLm1hZT4nLCAnLW9tYWUnLCAnPG91dGZpbGUubWFlPic=

>  <s_epik_input>  (1) 
W2NIXTFbY0hdW2NIXVtjSF1bY0hdYzFbTkgyXQ==

>  <s_glide_docking_method>  (1) 
confgen

>  <s_i_glide_gridfile>  (1) 
gpcr_5ht2c_6bqh_protein_autoprepared_prepared

>  <s_lp_Force_Field>  (1) 
S-OPLS

>  <s_lp_Variant>  (1) 
Pocket2Mol_30_num_sample_100-1

>  <s_m_source_file>  (1) 
generated__ligand_Pocket2Mol_2026-05-06_prepared.sdf

>  <GenAI_Model>  (1) 
Pocket2Mol

>  <Protein>  (1) 
GPCR_5HT2C

$$$$
Pocket2Mol_10_num_sample_100
     RDKit          3D

  0  0  0  0  0  0  0  0  0  0999 V3000
M  V30 BEGIN CTAB
M  V30 COUNTS 12 12 0 0 1
M  V30 BEGIN ATOM
M  V30 1 C 38.734459 28.134220 52.333128 0
M  V30 2 C 39.400342 28.423628 51.096159 0
M  V30 3 C 40.054238 29.633936 51.110147 0
M  V30 4 C 40.835789 30.263839 50.009419 0
M  V30 5 C 38.895276 29.126595 53.266994 0
M  V30 6 S 39.867403 30.421429 52.649215 0
M  V30 7 H 38.170367 27.225120 52.487178 0
M  V30 8 H 39.371479 27.747372 50.254021 0
M  V30 9 H 40.831990 29.635607 49.118195 0
M  V30 10 H 40.408665 31.230309 49.742000 0
M  V30 11 H 41.871279 30.422782 50.310178 0
M  V30 12 H 38.504028 29.170899 54.273239 0
M  V30 END ATOM
M  V30 BEGIN BOND
M  V30 1 1 2 1
M  V30 2 2 3 2
M  V30 3 1 4 3
M  V30 4 2 5 1
M  V30 5 1 6 3
M  V30 6 1 6 5
M  V30 7 1 7 1
M  V30 8 1 8 2
M  V30 9 1 9 4
M  V30 10 1 10 4
M  V30 11 1 11 4
M  V30 12 1 12 5
M  V30 END BOND
M  V30 END CTAB
M  END
>  <i_epik_Tot_Q>  (1) 
0

>  <i_epik_Tot_abs_Q>  (1) 
0

>  <i_i_glide_confnum>  (1) 
1

>  <i_i_glide_lignum>  (1) 
13

>  <i_i_glide_posenum>  (1) 
362

>  <i_i_glide_rotatable_bonds>  (1) 
0

>  <i_lp_mmshare_version>  (1) 
72125

>  <i_m_source_file_index>  (1) 
11

>  <i_f3d_flags>  (1) 
0

>  <num_sample>  (1) 
100

>  <b_lp_Chiralities_Consistent>  (1) 
1

>  <r_epik_Charging_Adjusted_Penalty>  (1) 
0

>  <r_epik_Ionization_Penalty>  (1) 
0

>  <r_epik_Ionization_Penalty_Charging>  (1) 
0

>  <r_epik_Ionization_Penalty_Neutral>  (1) 
0

>  <r_epik_State_Penalty>  (1) 
-0

>  <r_glide_ring_energy>  (1) 
0

>  <r_i_docking_score>  (1) 
-5.5302521306329435

>  <r_i_glide_ecoul>  (1) 
-0.70545338388287293

>  <r_i_glide_eff_state_penalty>  (1) 
-0

>  <r_i_glide_einternal>  (1) 
0

>  <r_i_glide_emodel>  (1) 
-23.478017149530746

>  <r_i_glide_emodel_strain>  (1) 
0

>  <r_i_glide_energy>  (1) 
-17.419310144999184

>  <r_i_glide_erotb>  (1) 
0

>  <r_i_glide_esite>  (1) 
0

>  <r_i_glide_evdw>  (1) 
-16.713856761116311

>  <r_i_glide_gscore>  (1) 
-5.5302521306329435

>  <r_i_glide_gscore_strain>  (1) 
0

>  <r_i_glide_hbond>  (1) 
0

>  <r_i_glide_ligand_efficiency>  (1) 
-0.92170868843882392

>  <r_i_glide_ligand_efficiency_ln>  (1) 
-1.9809199866928739

>  <r_i_glide_ligand_efficiency_sa>  (1) 
-1.6748558383544898

>  <r_i_glide_lipo>  (1) 
-1.9357599143356174

>  <r_i_glide_metal>  (1) 
-0

>  <r_i_glide_rewards>  (1) 
-2.6529813706590795

>  <r_lp_Energy>  (1) 
3.145988

>  <r_lp_tautomer_probability>  (1) 
1

>  <s_epik_cmdline>  (1) 
J2VwaWtfcHl0aG9uJywgJy1waHQnLCAnMS4wJywgJy1waCcsICc3LjQnLCAnLXRuJywgJzgnLCAnLW1hJywgJzUwMCcsICctaW1hZScsICc8aW5maWxlLm1hZT4nLCAnLW9tYWUnLCAnPG91dGZpbGUubWFlPic=

>  <s_epik_input>  (1) 
czFbY0hdW2NIXVtjSF1jMVtDSDNd

>  <s_glide_docking_method>  (1) 
confgen

>  <s_i_glide_gridfile>  (1) 
gpcr_5ht2c_6bqh_protein_autoprepared_prepared

>  <s_lp_Force_Field>  (1) 
S-OPLS

>  <s_lp_Variant>  (1) 
Pocket2Mol_10_num_sample_100-1

>  <s_m_source_file>  (1) 
generated__ligand_Pocket2Mol_2026-05-06_prepared.sdf

>  <GenAI_Model>  (1) 
Pocket2Mol

>  <Protein>  (1) 
GPCR_5HT2C

$$$$
Pocket2Mol_56_num_sample_100
     RDKit          3D

  0  0  0  0  0  0  0  0  0  0999 V3000
M  V30 BEGIN CTAB
M  V30 COUNTS 17 17 0 0 1
M  V30 BEGIN ATOM
M  V30 1 C 39.467622 30.021524 52.852003 0
M  V30 2 C 38.784622 29.095265 53.653322 0
M  V30 3 C 38.528581 27.810484 53.132301 0
M  V30 4 C 37.795550 26.778005 53.961728 0
M  V30 5 C 39.861345 29.628786 51.561478 0
M  V30 6 C 40.589828 30.593165 50.649152 0
M  V30 7 C 39.559654 28.323326 51.128682 0
M  V30 8 N 38.910131 27.416239 51.893903 0
M  V30 9 H 39.679936 31.016308 53.217073 0
M  V30 10 H 38.461850 29.362369 54.649085 0
M  V30 11 H 37.249602 27.243111 54.782651 0
M  V30 12 H 37.080231 26.230067 53.348673 0
M  V30 13 H 38.506242 26.064317 54.378024 0
M  V30 14 H 40.418328 31.621429 50.965612 0
M  V30 15 H 41.663181 30.401246 50.653502 0
M  V30 16 H 40.227255 30.495763 49.625606 0
M  V30 17 H 39.849013 27.996016 50.142403 0
M  V30 END ATOM
M  V30 BEGIN BOND
M  V30 1 2 2 1
M  V30 2 1 3 2
M  V30 3 1 4 3
M  V30 4 1 5 1
M  V30 5 1 6 5
M  V30 6 2 7 5
M  V30 7 2 8 3
M  V30 8 1 8 7
M  V30 9 1 9 1
M  V30 10 1 10 2
M  V30 11 1 11 4
M  V30 12 1 12 4
M  V30 13 1 13 4
M  V30 14 1 14 6
M  V30 15 1 15 6
M  V30 16 1 16 6
M  V30 17 1 17 7
M  V30 END BOND
M  V30 END CTAB
M  END
>  <i_epik_Tot_Q>  (1) 
0

>  <i_epik_Tot_abs_Q>  (1) 
0

>  <i_i_glide_confnum>  (1) 
1

>  <i_i_glide_lignum>  (1) 
60

>  <i_i_glide_posenum>  (1) 
211

>  <i_i_glide_rotatable_bonds>  (1) 
0

>  <i_lp_mmshare_version>  (1) 
72125

>  <i_m_source_file_index>  (1) 
57

>  <i_f3d_flags>  (1) 
0

>  <num_sample>  (1) 
100

>  <b_lp_Chiralities_Consistent>  (1) 
1

>  <r_epik_Charging_Adjusted_Penalty>  (1) 
0.022258434784609007

>  <r_epik_Ionization_Penalty>  (1) 
0.022258434785048374

>  <r_epik_Ionization_Penalty_Charging>  (1) 
0

>  <r_epik_Ionization_Penalty_Neutral>  (1) 
0.022258434785048374

>  <r_epik_State_Penalty>  (1) 
0.022258434784609007

>  <r_glide_ring_energy>  (1) 
0

>  <r_i_docking_score>  (1) 
-5.5282703050871751

>  <r_i_glide_ecoul>  (1) 
-0.26660396729951785

>  <r_i_glide_eff_state_penalty>  (1) 
0.022258434784609007

>  <r_i_glide_einternal>  (1) 
0

>  <r_i_glide_emodel>  (1) 
-25.722942262978457

>  <r_i_glide_emodel_strain>  (1) 
0

>  <r_i_glide_energy>  (1) 
-19.089204525502854

>  <r_i_glide_erotb>  (1) 
0

>  <r_i_glide_esite>  (1) 
0

>  <r_i_glide_evdw>  (1) 
-18.822600558203337

>  <r_i_glide_gscore>  (1) 
-5.5505287398717842

>  <r_i_glide_gscore_strain>  (1) 
0

>  <r_i_glide_hbond>  (1) 
0

>  <r_i_glide_ligand_efficiency>  (1) 
-0.69103378813589689

>  <r_i_glide_ligand_efficiency_ln>  (1) 
-1.795218460965329

>  <r_i_glide_ligand_efficiency_sa>  (1) 
-1.382067576271794

>  <r_i_glide_lipo>  (1) 
-2.0907736735058364

>  <r_i_glide_metal>  (1) 
-0

>  <r_i_glide_rewards>  (1) 
-2.4786344433608534

>  <r_lp_Energy>  (1) 
7.9607329999999994

>  <s_epik_cmdline>  (1) 
J2VwaWtfcHl0aG9uJywgJy1waHQnLCAnMS4wJywgJy1waCcsICc3LjQnLCAnLXRuJywgJzgnLCAnLW1hJywgJzUwMCcsICctaW1hZScsICc8aW5maWxlLm1hZT4nLCAnLW9tYWUnLCAnPG91dGZpbGUubWFlPic=

>  <s_epik_input>  (1) 
bjFbY0hdYyhbQ0gzXSlbY0hdW2NIXWMxW0NIM10=

>  <s_glide_docking_method>  (1) 
confgen

>  <s_i_glide_gridfile>  (1) 
gpcr_5ht2c_6bqh_protein_autoprepared_prepared

>  <s_lp_Force_Field>  (1) 
S-OPLS

>  <s_lp_Variant>  (1) 
Pocket2Mol_56_num_sample_100-1

>  <s_m_source_file>  (1) 
generated__ligand_Pocket2Mol_2026-05-06_prepared.sdf

>  <GenAI_Model>  (1) 
Pocket2Mol

>  <Protein>  (1) 
GPCR_5HT2C

$$$$
Pocket2Mol_41_num_sample_100
     RDKit          3D

  0  0  0  0  0  0  0  0  0  0999 V3000
M  V30 BEGIN CTAB
M  V30 COUNTS 15 15 0 0 1
M  V30 BEGIN ATOM
M  V30 1 C 39.920717 29.620548 51.687049 0
M  V30 2 C 39.867403 30.640285 52.693535 0
M  V30 3 C 39.081599 30.294144 53.766898 0
M  V30 4 C 38.790290 31.100553 54.987732 0
M  V30 5 C 39.182692 28.509489 52.011224 0
M  V30 6 C 39.019068 27.260597 51.221487 0
M  V30 7 S 38.404335 28.712893 53.547749 0
M  V30 8 H 40.494667 29.736284 50.779248 0
M  V30 9 H 40.394720 31.576314 52.592539 0
M  V30 10 H 39.276975 32.074909 54.941109 0
M  V30 11 H 37.717483 31.267241 55.096840 0
M  V30 12 H 39.145350 30.590065 55.882935 0
M  V30 13 H 39.508997 27.340918 50.253545 0
M  V30 14 H 39.466240 26.421391 51.750612 0
M  V30 15 H 37.965367 27.043961 51.054057 0
M  V30 END ATOM
M  V30 BEGIN BOND
M  V30 1 1 2 1
M  V30 2 2 3 2
M  V30 3 1 4 3
M  V30 4 2 5 1
M  V30 5 1 6 5
M  V30 6 1 7 3
M  V30 7 1 7 5
M  V30 8 1 8 1
M  V30 9 1 9 2
M  V30 10 1 10 4
M  V30 11 1 11 4
M  V30 12 1 12 4
M  V30 13 1 13 6
M  V30 14 1 14 6
M  V30 15 1 15 6
M  V30 END BOND
M  V30 END CTAB
M  END
>  <i_epik_Tot_Q>  (1) 
0

>  <i_epik_Tot_abs_Q>  (1) 
0

>  <i_i_glide_confnum>  (1) 
1

>  <i_i_glide_lignum>  (1) 
44

>  <i_i_glide_posenum>  (1) 
124

>  <i_i_glide_rotatable_bonds>  (1) 
0

>  <i_lp_mmshare_version>  (1) 
72125

>  <i_m_source_file_index>  (1) 
42

>  <i_f3d_flags>  (1) 
0

>  <num_sample>  (1) 
100

>  <b_lp_Chiralities_Consistent>  (1) 
1

>  <r_epik_Charging_Adjusted_Penalty>  (1) 
0

>  <r_epik_Ionization_Penalty>  (1) 
0

>  <r_epik_Ionization_Penalty_Charging>  (1) 
0

>  <r_epik_Ionization_Penalty_Neutral>  (1) 
0

>  <r_epik_State_Penalty>  (1) 
-0

>  <r_glide_ring_energy>  (1) 
0

>  <r_i_docking_score>  (1) 
-5.5282440190831457

>  <r_i_glide_ecoul>  (1) 
-1.2258687700812734

>  <r_i_glide_eff_state_penalty>  (1) 
-0

>  <r_i_glide_einternal>  (1) 
0

>  <r_i_glide_emodel>  (1) 
-24.516055189503042

>  <r_i_glide_emodel_strain>  (1) 
0

>  <r_i_glide_energy>  (1) 
-18.067871478007923

>  <r_i_glide_erotb>  (1) 
0

>  <r_i_glide_esite>  (1) 
0

>  <r_i_glide_evdw>  (1) 
-16.84200270792665

>  <r_i_glide_gscore>  (1) 
-5.5282440190831457

>  <r_i_glide_gscore_strain>  (1) 
0

>  <r_i_glide_hbond>  (1) 
0

>  <r_i_glide_ligand_efficiency>  (1) 
-0.78974914558330656

>  <r_i_glide_ligand_efficiency_ln>  (1) 
-1.8765826991892227

>  <r_i_glide_ligand_efficiency_sa>  (1) 
-1.5107357671541584

>  <r_i_glide_lipo>  (1) 
-1.9985229946293974

>  <r_i_glide_metal>  (1) 
-0

>  <r_i_glide_rewards>  (1) 
-2.5037405735452252

>  <r_lp_Energy>  (1) 
3.6641779999999997

>  <r_lp_tautomer_probability>  (1) 
1

>  <s_epik_cmdline>  (1) 
J2VwaWtfcHl0aG9uJywgJy1waHQnLCAnMS4wJywgJy1waCcsICc3LjQnLCAnLXRuJywgJzgnLCAnLW1hJywgJzUwMCcsICctaW1hZScsICc8aW5maWxlLm1hZT4nLCAnLW9tYWUnLCAnPG91dGZpbGUubWFlPic=

>  <s_epik_input>  (1) 
W0NIM11jKHMxKVtjSF1bY0hdYzFbQ0gzXQ==

>  <s_glide_docking_method>  (1) 
confgen

>  <s_i_glide_gridfile>  (1) 
gpcr_5ht2c_6bqh_protein_autoprepared_prepared

>  <s_lp_Force_Field>  (1) 
S-OPLS

>  <s_lp_Variant>  (1) 
Pocket2Mol_41_num_sample_100-1

>  <s_m_source_file>  (1) 
generated__ligand_Pocket2Mol_2026-05-06_prepared.sdf

>  <GenAI_Model>  (1) 
Pocket2Mol

>  <Protein>  (1) 
GPCR_5HT2C

$$$$
Pocket2Mol_65_num_sample_100
     RDKit          3D

  0  0  0  0  0  0  0  0  0  0999 V3000
M  V30 BEGIN CTAB
M  V30 COUNTS 20 20 0 0 1
M  V30 BEGIN ATOM
M  V30 1 C 38.869998 27.348592 52.256846 0
M  V30 2 C 38.667414 28.108872 53.569748 0
M  V30 3 C 39.458609 28.366417 51.284357 0
M  V30 4 C 39.673039 29.621611 52.125394 0
M  V30 5 N 38.667410 29.506293 53.168765 0
M  V30 6 N 38.842282 30.421381 54.254275 0 CHG=1
M  V30 7 C 37.767154 30.857236 54.931325 0
M  V30 8 N 37.867403 31.716763 55.955244 0
M  V30 9 H 39.525002 26.487903 52.395431 0
M  V30 10 H 37.916248 26.980833 51.877189 0
M  V30 11 H 39.493966 27.911986 54.252249 0
M  V30 12 H 37.739297 27.832205 54.071600 0
M  V30 13 H 40.383179 28.021450 50.822755 0
M  V30 14 H 38.746026 28.566219 50.482841 0
M  V30 15 H 39.559353 30.536640 51.543153 0
M  V30 16 H 40.667399 29.621466 52.564238 0
M  V30 17 H 36.783621 30.503326 54.641365 0
M  V30 18 H 38.764251 32.067975 56.252189 0
M  V30 19 H 37.002473 32.021428 56.436564 0
M  V30 20 H 39.790415 30.705575 54.455015 0
M  V30 END ATOM
M  V30 BEGIN BOND
M  V30 1 1 2 1
M  V30 2 1 3 1
M  V30 3 1 4 3
M  V30 4 1 5 2
M  V30 5 1 5 4
M  V30 6 1 6 5
M  V30 7 2 7 6
M  V30 8 1 8 7
M  V30 9 1 9 1
M  V30 10 1 10 1
M  V30 11 1 11 2
M  V30 12 1 12 2
M  V30 13 1 13 3
M  V30 14 1 14 3
M  V30 15 1 15 4
M  V30 16 1 16 4
M  V30 17 1 17 7
M  V30 18 1 18 8
M  V30 19 1 19 8
M  V30 20 1 20 6
M  V30 END BOND
M  V30 END CTAB
M  END
>  <i_epik_Tot_Q>  (1) 
1

>  <i_epik_Tot_abs_Q>  (1) 
1

>  <i_i_glide_confnum>  (1) 
1

>  <i_i_glide_lignum>  (1) 
69

>  <i_i_glide_posenum>  (1) 
249

>  <i_i_glide_rotatable_bonds>  (1) 
1

>  <i_lp_mmshare_version>  (1) 
72125

>  <i_m_source_file_index>  (1) 
66

>  <i_f3d_flags>  (1) 
0

>  <num_sample>  (1) 
100

>  <b_lp_Chiralities_Consistent>  (1) 
1

>  <r_epik_Charging_Adjusted_Penalty>  (1) 
1.6312684749255997e-05

>  <r_epik_Ionization_Penalty>  (1) 
1.6401951855999153e-05

>  <r_epik_Ionization_Penalty_Charging>  (1) 
1.6312684749255997e-05

>  <r_epik_Ionization_Penalty_Neutral>  (1) 
8.9267106743156534e-08

>  <r_epik_State_Penalty>  (1) 
-0

>  <r_glide_ring_energy>  (1) 
0

>  <r_i_docking_score>  (1) 
-5.5188670287218518

>  <r_i_glide_ecoul>  (1) 
-4.6938349129564463

>  <r_i_glide_eff_state_penalty>  (1) 
-0

>  <r_i_glide_einternal>  (1) 
0.093828532504888429

>  <r_i_glide_emodel>  (1) 
-29.342619320676334

>  <r_i_glide_emodel_strain>  (1) 
0

>  <r_i_glide_energy>  (1) 
-17.50629496471614

>  <r_i_glide_erotb>  (1) 
0

>  <r_i_glide_esite>  (1) 
-0.15659913022675434

>  <r_i_glide_evdw>  (1) 
-12.812460051759695

>  <r_i_glide_gscore>  (1) 
-5.5188670287218518

>  <r_i_glide_gscore_strain>  (1) 
0

>  <r_i_glide_hbond>  (1) 
-0.20000000000000001

>  <r_i_glide_ligand_efficiency>  (1) 
-0.68985837859023147

>  <r_i_glide_ligand_efficiency_ln>  (1) 
-1.792164895493132

>  <r_i_glide_ligand_efficiency_sa>  (1) 
-1.3797167571804632

>  <r_i_glide_lipo>  (1) 
-1.2894165142313927

>  <r_i_glide_metal>  (1) 
-0

>  <r_i_glide_rewards>  (1) 
-2.5281531447322529

>  <r_lp_Energy>  (1) 
12.792574

>  <r_lp_tautomer_probability>  (1) 
1

>  <s_epik_Chemistry_Notes>  (1) 
This compound has an imine and may undergo hydrolysis.

>  <s_epik_cmdline>  (1) 
J2VwaWtfcHl0aG9uJywgJy1waHQnLCAnMS4wJywgJy1waCcsICc3LjQnLCAnLXRuJywgJzgnLCAnLW1hJywgJzUwMCcsICctaW1hZScsICc8aW5maWxlLm1hZT4nLCAnLW9tYWUnLCAnPG91dGZpbGUubWFlPic=

>  <s_epik_input>  (1) 
W0NIMl0xW0NIMl1bQ0gyXVtDSDJdTjEvTj1bQ0hdL1tOSDJd

>  <s_glide_docking_method>  (1) 
confgen

>  <s_i_glide_gridfile>  (1) 
gpcr_5ht2c_6bqh_protein_autoprepared_prepared

>  <s_lp_Force_Field>  (1) 
S-OPLS

>  <s_lp_Variant>  (1) 
Pocket2Mol_65_num_sample_100-1

>  <s_m_source_file>  (1) 
generated__ligand_Pocket2Mol_2026-05-06_prepared.sdf

>  <GenAI_Model>  (1) 
Pocket2Mol

>  <Protein>  (1) 
GPCR_5HT2C

$$$$
Pocket2Mol_50_num_sample_100
     RDKit          3D

  0  0  0  0  0  0  0  0  0  0999 V3000
M  V30 BEGIN CTAB
M  V30 COUNTS 14 14 0 0 1
M  V30 BEGIN ATOM
M  V30 1 C 38.467344 28.547063 53.153258 0
M  V30 2 C 38.668591 27.932764 51.901087 0
M  V30 3 C 39.467403 28.562930 50.926458 0
M  V30 4 C 40.065432 29.808160 51.201960 0
M  V30 5 C 39.067404 29.792006 53.431215 0
M  V30 6 O 40.833696 30.421430 50.253504 0
M  V30 7 O 38.873701 30.390900 54.641668 0
M  V30 8 C 39.867403 30.421429 52.455697 0
M  V30 9 H 37.853154 28.063035 53.898572 0
M  V30 10 H 38.208442 26.979144 51.687152 0
M  V30 11 H 39.617636 28.092933 49.966344 0
M  V30 12 H 41.100511 31.299427 50.486644 0
M  V30 13 H 38.220865 29.972902 55.182890 0
M  V30 14 H 40.323961 31.375944 52.668618 0
M  V30 END ATOM
M  V30 BEGIN BOND
M  V30 1 1 2 1
M  V30 2 2 3 2
M  V30 3 1 4 3
M  V30 4 2 5 1
M  V30 5 1 6 4
M  V30 6 1 7 5
M  V30 7 2 8 4
M  V30 8 1 8 5
M  V30 9 1 9 1
M  V30 10 1 10 2
M  V30 11 1 11 3
M  V30 12 1 12 6
M  V30 13 1 13 7
M  V30 14 1 14 8
M  V30 END BOND
M  V30 END CTAB
M  END
>  <i_epik_Tot_Q>  (1) 
0

>  <i_epik_Tot_abs_Q>  (1) 
0

>  <i_i_glide_confnum>  (1) 
1

>  <i_i_glide_lignum>  (1) 
53

>  <i_i_glide_posenum>  (1) 
372

>  <i_i_glide_rotatable_bonds>  (1) 
2

>  <i_lp_mmshare_version>  (1) 
72125

>  <i_m_source_file_index>  (1) 
51

>  <i_f3d_flags>  (1) 
0

>  <num_sample>  (1) 
100

>  <b_lp_Chiralities_Consistent>  (1) 
1

>  <r_epik_Charging_Adjusted_Penalty>  (1) 
0.012403777776626769

>  <r_epik_Ionization_Penalty>  (1) 
0.012403777776626781

>  <r_epik_Ionization_Penalty_Charging>  (1) 
0

>  <r_epik_Ionization_Penalty_Neutral>  (1) 
0.012403777776626781

>  <r_epik_State_Penalty>  (1) 
0.012403777776626769

>  <r_glide_ring_energy>  (1) 
0

>  <r_i_docking_score>  (1) 
-5.5166522232129553

>  <r_i_glide_ecoul>  (1) 
-1.9308223934839155

>  <r_i_glide_eff_state_penalty>  (1) 
0.012403777776626769

>  <r_i_glide_einternal>  (1) 
0.077942902636326666

>  <r_i_glide_emodel>  (1) 
-28.119208483000676

>  <r_i_glide_emodel_strain>  (1) 
0

>  <r_i_glide_energy>  (1) 
-20.564567388739359

>  <r_i_glide_erotb>  (1) 
0

>  <r_i_glide_esite>  (1) 
0

>  <r_i_glide_evdw>  (1) 
-18.633744995255444

>  <r_i_glide_gscore>  (1) 
-5.5290560009895824

>  <r_i_glide_gscore_strain>  (1) 
0

>  <r_i_glide_hbond>  (1) 
0

>  <r_i_glide_ligand_efficiency>  (1) 
-0.68958152790161942

>  <r_i_glide_ligand_efficiency_ln>  (1) 
-1.7914456723876047

>  <r_i_glide_ligand_efficiency_sa>  (1) 
-1.3791630558032391

>  <r_i_glide_lipo>  (1) 
-1.8394644047692088

>  <r_i_glide_metal>  (1) 
-0

>  <r_i_glide_rewards>  (1) 
-2.4682809874350142

>  <r_lp_Energy>  (1) 
4.2546869999999997

>  <r_lp_tautomer_probability>  (1) 
0.99999999989799981

>  <s_epik_cmdline>  (1) 
J2VwaWtfcHl0aG9uJywgJy1waHQnLCAnMS4wJywgJy1waCcsICc3LjQnLCAnLXRuJywgJzgnLCAnLW1hJywgJzUwMCcsICctaW1hZScsICc8aW5maWxlLm1hZT4nLCAnLW9tYWUnLCAnPG91dGZpbGUubWFlPic=

>  <s_epik_input>  (1) 
W09IXWMoW2NIXTEpW2NIXVtjSF1bY0hdYzFbT0hd

>  <s_glide_docking_method>  (1) 
confgen

>  <s_i_glide_gridfile>  (1) 
gpcr_5ht2c_6bqh_protein_autoprepared_prepared

>  <s_lp_Force_Field>  (1) 
S-OPLS

>  <s_lp_Variant>  (1) 
Pocket2Mol_50_num_sample_100-1

>  <s_m_source_file>  (1) 
generated__ligand_Pocket2Mol_2026-05-06_prepared.sdf

>  <GenAI_Model>  (1) 
Pocket2Mol

>  <Protein>  (1) 
GPCR_5HT2C

$$$$
Pocket2Mol_29_num_sample_100
     RDKit          3D

  0  0  0  0  0  0  0  0  0  0999 V3000
M  V30 BEGIN CTAB
M  V30 COUNTS 13 13 0 0 1
M  V30 BEGIN ATOM
M  V30 1 C 39.467422 28.531248 50.845688 0
M  V30 2 C 38.675239 27.853740 51.793321 0
M  V30 3 C 40.062938 29.764338 51.175737 0
M  V30 4 C 38.476085 28.409236 53.071961 0
M  V30 5 O 40.826346 30.421430 50.253762 0
M  V30 6 C 39.071371 29.641876 53.404655 0
M  V30 7 C 39.867405 30.319316 52.457096 0
M  V30 8 H 39.615379 28.106723 49.864651 0
M  V30 9 H 38.218328 26.909091 51.537546 0
M  V30 10 H 37.866599 27.889977 53.797448 0
M  V30 11 H 41.085865 31.291262 50.521885 0
M  V30 12 H 38.918529 30.068419 54.385449 0
M  V30 13 H 40.322463 31.264136 52.713261 0
M  V30 END ATOM
M  V30 BEGIN BOND
M  V30 1 1 2 1
M  V30 2 2 3 1
M  V30 3 2 4 2
M  V30 4 1 5 3
M  V30 5 1 6 4
M  V30 6 1 7 3
M  V30 7 2 7 6
M  V30 8 1 8 1
M  V30 9 1 9 2
M  V30 10 1 10 4
M  V30 11 1 11 5
M  V30 12 1 12 6
M  V30 13 1 13 7
M  V30 END BOND
M  V30 END CTAB
M  END
>  <i_epik_Tot_Q>  (1) 
0

>  <i_epik_Tot_abs_Q>  (1) 
0

>  <i_i_glide_confnum>  (1) 
1

>  <i_i_glide_lignum>  (1) 
32

>  <i_i_glide_posenum>  (1) 
173

>  <i_i_glide_rotatable_bonds>  (1) 
1

>  <i_lp_mmshare_version>  (1) 
72125

>  <i_m_source_file_index>  (1) 
30

>  <i_f3d_flags>  (1) 
0

>  <num_sample>  (1) 
100

>  <b_lp_Chiralities_Consistent>  (1) 
1

>  <r_epik_Charging_Adjusted_Penalty>  (1) 
0

>  <r_epik_Ionization_Penalty>  (1) 
0.0022482968708945868

>  <r_epik_Ionization_Penalty_Charging>  (1) 
0

>  <r_epik_Ionization_Penalty_Neutral>  (1) 
0.0022482968708945868

>  <r_epik_State_Penalty>  (1) 
-0

>  <r_glide_ring_energy>  (1) 
0

>  <r_i_docking_score>  (1) 
-5.5117281534986837

>  <r_i_glide_ecoul>  (1) 
-1.9396006418421932

>  <r_i_glide_eff_state_penalty>  (1) 
-0

>  <r_i_glide_einternal>  (1) 
0.069994336989082792

>  <r_i_glide_emodel>  (1) 
-25.479809057857317

>  <r_i_glide_emodel_strain>  (1) 
0

>  <r_i_glide_energy>  (1) 
-19.053952012256982

>  <r_i_glide_erotb>  (1) 
0

>  <r_i_glide_esite>  (1) 
0

>  <r_i_glide_evdw>  (1) 
-17.114351370414788

>  <r_i_glide_gscore>  (1) 
-5.5117281534986837

>  <r_i_glide_gscore_strain>  (1) 
0

>  <r_i_glide_hbond>  (1) 
0

>  <r_i_glide_ligand_efficiency>  (1) 
-0.78738973621409769

>  <r_i_glide_ligand_efficiency_ln>  (1) 
-1.8709763280683118

>  <r_i_glide_ligand_efficiency_sa>  (1) 
-1.5062223793988734

>  <r_i_glide_lipo>  (1) 
-1.8463014269504254

>  <r_i_glide_metal>  (1) 
-0

>  <r_i_glide_rewards>  (1) 
-2.5187690617511898

>  <r_lp_Energy>  (1) 
6.6738649999999993

>  <r_lp_tautomer_probability>  (1) 
1

>  <s_epik_cmdline>  (1) 
J2VwaWtfcHl0aG9uJywgJy1waHQnLCAnMS4wJywgJy1waCcsICc3LjQnLCAnLXRuJywgJzgnLCAnLW1hJywgJzUwMCcsICctaW1hZScsICc8aW5maWxlLm1hZT4nLCAnLW9tYWUnLCAnPG91dGZpbGUubWFlPic=

>  <s_epik_input>  (1) 
W09IXWMxW2NIXVtjSF1bY0hdW2NIXVtjSF0x

>  <s_glide_docking_method>  (1) 
confgen

>  <s_i_glide_gridfile>  (1) 
gpcr_5ht2c_6bqh_protein_autoprepared_prepared

>  <s_lp_Force_Field>  (1) 
S-OPLS

>  <s_lp_Variant>  (1) 
Pocket2Mol_29_num_sample_100-1

>  <s_m_source_file>  (1) 
generated__ligand_Pocket2Mol_2026-05-06_prepared.sdf

>  <GenAI_Model>  (1) 
Pocket2Mol

>  <Protein>  (1) 
GPCR_5HT2C

$$$$
Pocket2Mol_69_num_sample_100
     RDKit          3D

  0  0  0  0  0  0  0  0  0  0999 V3000
M  V30 BEGIN CTAB
M  V30 COUNTS 15 16 0 0 1
M  V30 BEGIN ATOM
M  V30 1 C 39.067662 27.361820 51.566036 0
M  V30 2 O 39.864035 28.585503 51.493181 0
M  V30 3 O 38.146070 27.355635 52.693883 0
M  V30 4 C 39.385995 29.218402 52.569873 0
M  V30 5 C 38.441866 28.542307 53.226495 0
M  V30 6 C 37.829442 29.058160 54.378856 0
M  V30 7 C 38.228405 30.328181 54.851806 0
M  V30 8 C 39.821872 30.482680 52.999147 0
M  V30 9 C 39.234327 31.046559 54.157429 0
M  V30 10 H 39.734957 26.504943 51.654867 0
M  V30 11 H 38.487849 27.251215 50.653495 0
M  V30 12 H 37.067404 28.494959 54.892782 0
M  V30 13 H 37.769951 30.749415 55.737099 0
M  V30 14 H 40.588199 31.015723 52.455238 0
M  V30 15 H 39.547851 32.019017 54.508882 0
M  V30 END ATOM
M  V30 BEGIN BOND
M  V30 1 1 2 1
M  V30 2 1 3 1
M  V30 3 1 4 2
M  V30 4 1 5 3
M  V30 5 1 5 4
M  V30 6 2 6 5
M  V30 7 1 7 6
M  V30 8 2 8 4
M  V30 9 2 9 7
M  V30 10 1 9 8
M  V30 11 1 10 1
M  V30 12 1 11 1
M  V30 13 1 12 6
M  V30 14 1 13 7
M  V30 15 1 14 8
M  V30 16 1 15 9
M  V30 END BOND
M  V30 END CTAB
M  END
>  <i_epik_Tot_Q>  (1) 
0

>  <i_epik_Tot_abs_Q>  (1) 
0

>  <i_i_glide_confnum>  (1) 
1

>  <i_i_glide_lignum>  (1) 
74

>  <i_i_glide_posenum>  (1) 
267

>  <i_i_glide_rotatable_bonds>  (1) 
0

>  <i_lp_mmshare_version>  (1) 
72125

>  <i_m_source_file_index>  (1) 
70

>  <i_f3d_flags>  (1) 
0

>  <num_sample>  (1) 
100

>  <b_lp_Chiralities_Consistent>  (1) 
1

>  <r_epik_Charging_Adjusted_Penalty>  (1) 
0

>  <r_epik_Ionization_Penalty>  (1) 
0

>  <r_epik_Ionization_Penalty_Charging>  (1) 
0

>  <r_epik_Ionization_Penalty_Neutral>  (1) 
0

>  <r_epik_State_Penalty>  (1) 
-0

>  <r_glide_ring_energy>  (1) 
0

>  <r_i_docking_score>  (1) 
-5.5106067012894755

>  <r_i_glide_ecoul>  (1) 
-0.50271353281824582

>  <r_i_glide_eff_state_penalty>  (1) 
-0

>  <r_i_glide_einternal>  (1) 
0

>  <r_i_glide_emodel>  (1) 
-25.156789140438711

>  <r_i_glide_emodel_strain>  (1) 
0

>  <r_i_glide_energy>  (1) 
-18.09761842512119

>  <r_i_glide_erotb>  (1) 
0

>  <r_i_glide_esite>  (1) 
0

>  <r_i_glide_evdw>  (1) 
-17.594904892302946

>  <r_i_glide_gscore>  (1) 
-5.5106067012894755

>  <r_i_glide_gscore_strain>  (1) 
0

>  <r_i_glide_hbond>  (1) 
0

>  <r_i_glide_ligand_efficiency>  (1) 
-0.61228963347660836

>  <r_i_glide_ligand_efficiency_ln>  (1) 
-1.7235594710336737

>  <r_i_glide_ligand_efficiency_sa>  (1) 
-1.2736137616170728

>  <r_i_glide_lipo>  (1) 
-1.4914852459210846

>  <r_i_glide_metal>  (1) 
-0

>  <r_i_glide_rewards>  (1) 
-3.0639691808305063

>  <r_lp_Energy>  (1) 
19.342499999999998

>  <r_lp_tautomer_probability>  (1) 
1

>  <s_epik_Chemistry_Notes>  (1) 
This compound contains an acetal/aminal-like group ( X-CH(R)-Y where X, Y are N, S, or O) that may be acid/base labile, releasing an aldehyde.

>  <s_epik_cmdline>  (1) 
J2VwaWtfcHl0aG9uJywgJy1waHQnLCAnMS4wJywgJy1waCcsICc3LjQnLCAnLXRuJywgJzgnLCAnLW1hJywgJzUwMCcsICctaW1hZScsICc8aW5maWxlLm1hZT4nLCAnLW9tYWUnLCAnPG91dGZpbGUubWFlPic=

>  <s_epik_input>  (1) 
TzFbQ0gyXU9jKGMxMilbY0hdW2NIXVtjSF1bY0hdMg==

>  <s_glide_docking_method>  (1) 
confgen

>  <s_i_glide_gridfile>  (1) 
gpcr_5ht2c_6bqh_protein_autoprepared_prepared

>  <s_lp_Force_Field>  (1) 
S-OPLS

>  <s_lp_Variant>  (1) 
Pocket2Mol_69_num_sample_100-1

>  <s_m_source_file>  (1) 
generated__ligand_Pocket2Mol_2026-05-06_prepared.sdf

>  <GenAI_Model>  (1) 
Pocket2Mol

>  <Protein>  (1) 
GPCR_5HT2C

$$$$
Pocket2Mol_29_num_sample_100
     RDKit          3D

  0  0  0  0  0  0  0  0  0  0999 V3000
M  V30 BEGIN CTAB
M  V30 COUNTS 13 13 0 0 1
M  V30 BEGIN ATOM
M  V30 1 C 39.867403 30.315588 52.414547 0
M  V30 2 C 39.067403 29.621430 53.344988 0
M  V30 3 C 40.130559 29.749435 51.150945 0
M  V30 4 C 38.532537 28.361169 53.011970 0
M  V30 5 O 40.901429 30.421429 50.247081 0
M  V30 6 C 38.798002 27.795075 51.750073 0
M  V30 7 C 39.596090 28.489099 50.820414 0
M  V30 8 H 40.275099 31.281353 52.670357 0
M  V30 9 H 38.863886 30.056075 54.312674 0
M  V30 10 H 37.919190 27.828669 53.724273 0
M  V30 11 H 41.121334 31.303385 50.511270 0
M  V30 12 H 38.387716 26.828843 51.493846 0
M  V30 13 H 39.796263 28.055761 49.853504 0
M  V30 END ATOM
M  V30 BEGIN BOND
M  V30 1 1 2 1
M  V30 2 2 3 1
M  V30 3 2 4 2
M  V30 4 1 5 3
M  V30 5 1 6 4
M  V30 6 1 7 3
M  V30 7 2 7 6
M  V30 8 1 8 1
M  V30 9 1 9 2
M  V30 10 1 10 4
M  V30 11 1 11 5
M  V30 12 1 12 6
M  V30 13 1 13 7
M  V30 END BOND
M  V30 END CTAB
M  END
>  <i_epik_Tot_Q>  (1) 
0

>  <i_epik_Tot_abs_Q>  (1) 
0

>  <i_i_glide_confnum>  (1) 
1

>  <i_i_glide_lignum>  (1) 
32

>  <i_i_glide_posenum>  (1) 
285

>  <i_i_glide_rotatable_bonds>  (1) 
1

>  <i_lp_mmshare_version>  (1) 
72125

>  <i_m_source_file_index>  (1) 
30

>  <i_f3d_flags>  (1) 
0

>  <num_sample>  (1) 
100

>  <b_lp_Chiralities_Consistent>  (1) 
1

>  <r_epik_Charging_Adjusted_Penalty>  (1) 
0

>  <r_epik_Ionization_Penalty>  (1) 
0.0022482968708945868

>  <r_epik_Ionization_Penalty_Charging>  (1) 
0

>  <r_epik_Ionization_Penalty_Neutral>  (1) 
0.0022482968708945868

>  <r_epik_State_Penalty>  (1) 
-0

>  <r_glide_ring_energy>  (1) 
0

>  <r_i_docking_score>  (1) 
-5.4995121973680963

>  <r_i_glide_ecoul>  (1) 
-1.9004636514736808

>  <r_i_glide_eff_state_penalty>  (1) 
-0

>  <r_i_glide_einternal>  (1) 
0.029912637444045223

>  <r_i_glide_emodel>  (1) 
-25.4074872028668

>  <r_i_glide_emodel_strain>  (1) 
0

>  <r_i_glide_energy>  (1) 
-18.975908865615729

>  <r_i_glide_erotb>  (1) 
0

>  <r_i_glide_esite>  (1) 
0

>  <r_i_glide_evdw>  (1) 
-17.075445214142047

>  <r_i_glide_gscore>  (1) 
-5.4995121973680963

>  <r_i_glide_gscore_strain>  (1) 
0

>  <r_i_glide_hbond>  (1) 
0

>  <r_i_glide_ligand_efficiency>  (1) 
-0.78564459962401378

>  <r_i_glide_ligand_efficiency_ln>  (1) 
-1.8668295769752736

>  <r_i_glide_ligand_efficiency_sa>  (1) 
-1.5028840531975047

>  <r_i_glide_lipo>  (1) 
-1.8436133587807397

>  <r_i_glide_metal>  (1) 
-0

>  <r_i_glide_rewards>  (1) 
-2.517057030159203

>  <r_lp_Energy>  (1) 
6.6738649999999993

>  <r_lp_tautomer_probability>  (1) 
1

>  <s_epik_cmdline>  (1) 
J2VwaWtfcHl0aG9uJywgJy1waHQnLCAnMS4wJywgJy1waCcsICc3LjQnLCAnLXRuJywgJzgnLCAnLW1hJywgJzUwMCcsICctaW1hZScsICc8aW5maWxlLm1hZT4nLCAnLW9tYWUnLCAnPG91dGZpbGUubWFlPic=

>  <s_epik_input>  (1) 
W09IXWMxW2NIXVtjSF1bY0hdW2NIXVtjSF0x

>  <s_glide_docking_method>  (1) 
confgen

>  <s_i_glide_gridfile>  (1) 
gpcr_5ht2c_6bqh_protein_autoprepared_prepared

>  <s_lp_Force_Field>  (1) 
S-OPLS

>  <s_lp_Variant>  (1) 
Pocket2Mol_29_num_sample_100-1

>  <s_m_source_file>  (1) 
generated__ligand_Pocket2Mol_2026-05-06_prepared.sdf

>  <GenAI_Model>  (1) 
Pocket2Mol

>  <Protein>  (1) 
GPCR_5HT2C

$$$$
Pocket2Mol_90_num_sample_100
     RDKit          3D

  0  0  0  0  0  0  0  0  0  0999 V3000
M  V30 BEGIN CTAB
M  V30 COUNTS 14 14 0 0 1
M  V30 BEGIN ATOM
M  V30 1 C 38.813810 30.732687 54.665117 0
M  V30 2 C 39.467403 30.354202 53.438976 0
M  V30 3 C 38.926748 29.221428 52.963601 0
M  V30 4 C 37.867403 28.823667 53.914083 0
M  V30 5 C 37.859762 29.842384 54.970313 0
M  V30 6 C 39.370749 28.586083 51.723471 0
M  V30 7 O 37.134499 27.837227 53.836381 0
M  V30 8 N 38.683387 27.476045 51.449620 0
M  V30 9 O 40.267403 29.002298 50.996126 0
M  V30 10 H 39.054356 31.607805 55.251337 0
M  V30 11 H 40.270097 30.904799 52.968931 0
M  V30 12 H 37.192372 29.845146 55.820633 0
M  V30 13 H 37.944897 27.170939 52.074395 0
M  V30 14 H 38.895068 26.945833 50.616760 0
M  V30 END ATOM
M  V30 BEGIN BOND
M  V30 1 1 2 1
M  V30 2 2 3 2
M  V30 3 1 4 3
M  V30 4 2 5 1
M  V30 5 1 5 4
M  V30 6 1 6 3
M  V30 7 2 7 4
M  V30 8 1 8 6
M  V30 9 2 9 6
M  V30 10 1 10 1
M  V30 11 1 11 2
M  V30 12 1 12 5
M  V30 13 1 13 8
M  V30 14 1 14 8
M  V30 END BOND
M  V30 END CTAB
M  END
>  <i_epik_Tot_Q>  (1) 
0

>  <i_epik_Tot_abs_Q>  (1) 
0

>  <i_i_glide_confnum>  (1) 
1

>  <i_i_glide_lignum>  (1) 
95

>  <i_i_glide_posenum>  (1) 
307

>  <i_i_glide_rotatable_bonds>  (1) 
1

>  <i_lp_mmshare_version>  (1) 
72125

>  <i_m_source_file_index>  (1) 
91

>  <i_f3d_flags>  (1) 
0

>  <num_sample>  (1) 
100

>  <b_lp_Chiralities_Consistent>  (1) 
1

>  <r_epik_Charging_Adjusted_Penalty>  (1) 
0.0065050288304222097

>  <r_epik_Ionization_Penalty>  (1) 
0.0032614418865694397

>  <r_epik_Ionization_Penalty_Charging>  (1) 
0

>  <r_epik_Ionization_Penalty_Neutral>  (1) 
0.0032614418865694397

>  <r_epik_State_Penalty>  (1) 
0.0065050288304222097

>  <r_glide_ring_energy>  (1) 
0

>  <r_i_docking_score>  (1) 
-5.4865206926032029

>  <r_i_glide_ecoul>  (1) 
-1.6074861138804073

>  <r_i_glide_eff_state_penalty>  (1) 
0.0065050288304222097

>  <r_i_glide_einternal>  (1) 
0.00010281526727640156

>  <r_i_glide_emodel>  (1) 
-31.70020400026549

>  <r_i_glide_emodel_strain>  (1) 
0

>  <r_i_glide_energy>  (1) 
-23.649154722643686

>  <r_i_glide_erotb>  (1) 
0

>  <r_i_glide_esite>  (1) 
0

>  <r_i_glide_evdw>  (1) 
-22.041668608763278

>  <r_i_glide_gscore>  (1) 
-5.4930257214336251

>  <r_i_glide_gscore_strain>  (1) 
0

>  <r_i_glide_hbond>  (1) 
0

>  <r_i_glide_ligand_efficiency>  (1) 
-0.60961341028924476

>  <r_i_glide_ligand_efficiency_ln>  (1) 
-1.716026059443819

>  <r_i_glide_ligand_efficiency_sa>  (1) 
-1.2680469930581615

>  <r_i_glide_lipo>  (1) 
-0.80062552335553738

>  <r_i_glide_metal>  (1) 
-0

>  <r_i_glide_rewards>  (1) 
-3.3491938505578625

>  <r_lp_Energy>  (1) 
1.7710899999999998

>  <s_epik_cmdline>  (1) 
J2VwaWtfcHl0aG9uJywgJy1waHQnLCAnMS4wJywgJy1waCcsICc3LjQnLCAnLXRuJywgJzgnLCAnLW1hJywgJzUwMCcsICctaW1hZScsICc8aW5maWxlLm1hZT4nLCAnLW9tYWUnLCAnPG91dGZpbGUubWFlPic=

>  <s_epik_input>  (1) 
Tz1DMVtDSF09W0NIXVtDSF09QzFDKD1PKVtOSDJd

>  <s_glide_docking_method>  (1) 
confgen

>  <s_i_glide_gridfile>  (1) 
gpcr_5ht2c_6bqh_protein_autoprepared_prepared

>  <s_lp_Force_Field>  (1) 
S-OPLS

>  <s_lp_Variant>  (1) 
Pocket2Mol_90_num_sample_100-1

>  <s_m_source_file>  (1) 
generated__ligand_Pocket2Mol_2026-05-06_prepared.sdf

>  <GenAI_Model>  (1) 
Pocket2Mol

>  <Protein>  (1) 
GPCR_5HT2C

$$$$
Pocket2Mol_0_num_sample_100
     RDKit          3D

  0  0  0  0  0  0  0  0  0  0999 V3000
M  V30 BEGIN CTAB
M  V30 COUNTS 19 19 0 0 1
M  V30 BEGIN ATOM
M  V30 1 C 38.489676 30.111277 54.603840 0
M  V30 2 C 38.968768 29.605000 53.300427 0
M  V30 3 C 38.518157 28.350287 52.833045 0
M  V30 4 C 39.867404 30.359431 52.502708 0
M  V30 5 C 40.295023 29.861810 51.257906 0
M  V30 6 C 39.842024 28.611469 50.804534 0
M  V30 7 C 38.955749 27.855978 51.590248 0
M  V30 8 C 38.855814 31.290151 55.143322 0
M  V30 9 C 38.333037 31.730982 56.439915 0
M  V30 10 N 38.667407 32.821430 56.974224 0
M  V30 11 H 37.798074 29.477525 55.141982 0
M  V30 12 H 37.832871 27.766646 53.430563 0
M  V30 13 H 40.222866 31.318694 52.838571 0
M  V30 14 H 40.976098 30.441321 50.651428 0
M  V30 15 H 40.174323 28.231743 49.853501 0
M  V30 16 H 38.606985 26.895619 51.238190 0
M  V30 17 H 39.541806 31.961830 54.654812 0
M  V30 18 H 37.625657 31.047492 56.918253 0
M  V30 19 H 38.186853 32.976161 57.849379 0
M  V30 END ATOM
M  V30 BEGIN BOND
M  V30 1 1 2 1
M  V30 2 1 3 2
M  V30 3 2 4 2
M  V30 4 1 5 4
M  V30 5 2 6 5
M  V30 6 2 7 3
M  V30 7 1 7 6
M  V30 8 2 8 1
M  V30 9 1 9 8
M  V30 10 2 10 9
M  V30 11 1 11 1
M  V30 12 1 12 3
M  V30 13 1 13 4
M  V30 14 1 14 5
M  V30 15 1 15 6
M  V30 16 1 16 7
M  V30 17 1 17 8
M  V30 18 1 18 9
M  V30 19 1 19 10
M  V30 END BOND
M  V30 END CTAB
M  END
>  <i_epik_Tot_Q>  (1) 
0

>  <i_epik_Tot_abs_Q>  (1) 
0

>  <i_i_glide_confnum>  (1) 
1

>  <i_i_glide_lignum>  (1) 
1

>  <i_i_glide_posenum>  (1) 
111

>  <i_i_glide_rotatable_bonds>  (1) 
2

>  <i_lp_mmshare_version>  (1) 
72125

>  <i_m_source_file_index>  (1) 
1

>  <i_f3d_flags>  (1) 
0

>  <num_sample>  (1) 
100

>  <b_lp_Chiralities_Consistent>  (1) 
1

>  <r_epik_Charging_Adjusted_Penalty>  (1) 
0

>  <r_epik_Ionization_Penalty>  (1) 
0

>  <r_epik_Ionization_Penalty_Charging>  (1) 
0

>  <r_epik_Ionization_Penalty_Neutral>  (1) 
0

>  <r_epik_State_Penalty>  (1) 
-0

>  <r_glide_ring_energy>  (1) 
0

>  <r_i_docking_score>  (1) 
-5.4824570763542013

>  <r_i_glide_ecoul>  (1) 
-1.3082688140297198

>  <r_i_glide_eff_state_penalty>  (1) 
-0

>  <r_i_glide_einternal>  (1) 
0.042662020520097599

>  <r_i_glide_emodel>  (1) 
-29.628439594393377

>  <r_i_glide_emodel_strain>  (1) 
1.7020463481287607e-05

>  <r_i_glide_energy>  (1) 
-22.018060372697828

>  <r_i_glide_erotb>  (1) 
0.80789427267668723

>  <r_i_glide_esite>  (1) 
-0.096635990956349199

>  <r_i_glide_evdw>  (1) 
-20.709791558668108

>  <r_i_glide_gscore>  (1) 
-5.4824570763542013

>  <r_i_glide_gscore_strain>  (1) 
0

>  <r_i_glide_hbond>  (1) 
0

>  <r_i_glide_ligand_efficiency>  (1) 
-0.54824570763542013

>  <r_i_glide_ligand_efficiency_ln>  (1) 
-1.6600502097536978

>  <r_i_glide_ligand_efficiency_sa>  (1) 
-1.1811595711908272

>  <r_i_glide_lipo>  (1) 
-2.0956537645567388

>  <r_i_glide_metal>  (1) 
-0

>  <r_i_glide_rewards>  (1) 
-2.8663316934799381

>  <r_lp_Energy>  (1) 
9.4498509999999989

>  <r_lp_tautomer_probability>  (1) 
1

>  <s_epik_Chemistry_Notes>  (1) 
This compound has an imine and may undergo hydrolysis.

>  <s_epik_cmdline>  (1) 
J2VwaWtfcHl0aG9uJywgJy1waHQnLCAnMS4wJywgJy1waCcsICc3LjQnLCAnLXRuJywgJzgnLCAnLW1hJywgJzUwMCcsICctaW1hZScsICc8aW5maWxlLm1hZT4nLCAnLW9tYWUnLCAnPG91dGZpbGUubWFlPic=

>  <s_epik_input>  (1) 
W0hdXE49W0NIXVxbQ0hdPVtDSF1cYzFbY0hdW2NIXVtjSF1bY0hdW2NIXTE=

>  <s_glide_docking_method>  (1) 
confgen

>  <s_i_glide_gridfile>  (1) 
gpcr_5ht2c_6bqh_protein_autoprepared_prepared

>  <s_lp_Force_Field>  (1) 
S-OPLS

>  <s_lp_Variant>  (1) 
Pocket2Mol_0_num_sample_100-1

>  <s_m_source_file>  (1) 
generated__ligand_Pocket2Mol_2026-05-06_prepared.sdf

>  <GenAI_Model>  (1) 
Pocket2Mol

>  <Protein>  (1) 
GPCR_5HT2C

$$$$
Pocket2Mol_64_num_sample_100
     RDKit          3D

  0  0  0  0  0  0  0  0  0  0999 V3000
M  V30 BEGIN CTAB
M  V30 COUNTS 15 15 0 0 1
M  V30 BEGIN ATOM
M  V30 1 C 39.645583 28.484347 50.810118 0
M  V30 2 C 38.842061 27.797258 51.740156 0
M  V30 3 C 38.553229 28.381454 52.989183 0
M  V30 4 C 39.067107 29.655424 53.308137 0
M  V30 5 C 40.157595 29.757072 51.125516 0
M  V30 6 N 38.779085 30.234874 54.542748 0
M  V30 7 O 40.934172 30.421559 50.221927 0
M  V30 8 C 39.867404 30.344102 52.374297 0
M  V30 9 H 39.867249 28.036450 49.853543 0
M  V30 10 H 38.445976 26.821605 51.494818 0
M  V30 11 H 37.935701 27.853563 53.700530 0
M  V30 12 H 38.984965 31.210294 54.710312 0
M  V30 13 H 38.066749 29.832005 55.133672 0
M  V30 14 H 41.133805 31.312991 50.472682 0
M  V30 15 H 40.259476 31.321393 52.614352 0
M  V30 END ATOM
M  V30 BEGIN BOND
M  V30 1 1 2 1
M  V30 2 2 3 2
M  V30 3 1 4 3
M  V30 4 2 5 1
M  V30 5 1 6 4
M  V30 6 1 7 5
M  V30 7 2 8 4
M  V30 8 1 8 5
M  V30 9 1 9 1
M  V30 10 1 10 2
M  V30 11 1 11 3
M  V30 12 1 12 6
M  V30 13 1 13 6
M  V30 14 1 14 7
M  V30 15 1 15 8
M  V30 END BOND
M  V30 END CTAB
M  END
>  <i_epik_Tot_Q>  (1) 
0

>  <i_epik_Tot_abs_Q>  (1) 
0

>  <i_i_glide_confnum>  (1) 
1

>  <i_i_glide_lignum>  (1) 
68

>  <i_i_glide_posenum>  (1) 
245

>  <i_i_glide_rotatable_bonds>  (1) 
1

>  <i_lp_mmshare_version>  (1) 
72125

>  <i_m_source_file_index>  (1) 
65

>  <i_f3d_flags>  (1) 
0

>  <num_sample>  (1) 
100

>  <b_lp_Chiralities_Consistent>  (1) 
1

>  <r_epik_Charging_Adjusted_Penalty>  (1) 
0

>  <r_epik_Ionization_Penalty>  (1) 
0.0026005809723615375

>  <r_epik_Ionization_Penalty_Charging>  (1) 
0

>  <r_epik_Ionization_Penalty_Neutral>  (1) 
0.0026005809723615375

>  <r_epik_State_Penalty>  (1) 
-0

>  <r_glide_ring_energy>  (1) 
0

>  <r_i_docking_score>  (1) 
-5.4711782365139641

>  <r_i_glide_ecoul>  (1) 
-2.1440286505987176

>  <r_i_glide_eff_state_penalty>  (1) 
-0

>  <r_i_glide_einternal>  (1) 
0.051855729607254569

>  <r_i_glide_emodel>  (1) 
-28.830806037483249

>  <r_i_glide_emodel_strain>  (1) 
0

>  <r_i_glide_energy>  (1) 
-21.120687259233915

>  <r_i_glide_erotb>  (1) 
0

>  <r_i_glide_esite>  (1) 
0

>  <r_i_glide_evdw>  (1) 
-18.976658608635198

>  <r_i_glide_gscore>  (1) 
-5.4711782365139641

>  <r_i_glide_gscore_strain>  (1) 
0

>  <r_i_glide_hbond>  (1) 
0

>  <r_i_glide_ligand_efficiency>  (1) 
-0.68389727956424551

>  <r_i_glide_ligand_efficiency_ln>  (1) 
-1.7766787134817423

>  <r_i_glide_ligand_efficiency_sa>  (1) 
-1.3677945591284912

>  <r_i_glide_lipo>  (1) 
-1.8378299431356597

>  <r_i_glide_metal>  (1) 
-0

>  <r_i_glide_rewards>  (1) 
-2.3629110653567378

>  <r_lp_Energy>  (1) 
4.3794230000000001

>  <r_lp_tautomer_probability>  (1) 
1

>  <s_epik_cmdline>  (1) 
J2VwaWtfcHl0aG9uJywgJy1waHQnLCAnMS4wJywgJy1waCcsICc3LjQnLCAnLXRuJywgJzgnLCAnLW1hJywgJzUwMCcsICctaW1hZScsICc8aW5maWxlLm1hZT4nLCAnLW9tYWUnLCAnPG91dGZpbGUubWFlPic=

>  <s_epik_input>  (1) 
W09IXWMoW2NIXTEpW2NIXVtjSF1bY0hdYzFbTkgyXQ==

>  <s_glide_docking_method>  (1) 
confgen

>  <s_i_glide_gridfile>  (1) 
gpcr_5ht2c_6bqh_protein_autoprepared_prepared

>  <s_lp_Force_Field>  (1) 
S-OPLS

>  <s_lp_Variant>  (1) 
Pocket2Mol_64_num_sample_100-1

>  <s_m_source_file>  (1) 
generated__ligand_Pocket2Mol_2026-05-06_prepared.sdf

>  <GenAI_Model>  (1) 
Pocket2Mol

>  <Protein>  (1) 
GPCR_5HT2C

$$$$
Pocket2Mol_65_num_sample_100
     RDKit          3D

  0  0  0  0  0  0  0  0  0  0999 V3000
M  V30 BEGIN CTAB
M  V30 COUNTS 20 20 0 0 1
M  V30 BEGIN ATOM
M  V30 1 C 39.375836 28.462238 51.535451 0
M  V30 2 C 38.776569 28.269792 52.931133 0
M  V30 3 C 40.017492 29.846884 51.568543 0
M  V30 4 C 39.834613 30.327603 53.010425 0
M  V30 5 N 38.638928 29.624636 53.444959 0
M  V30 6 N 38.396216 29.688010 54.861118 0 CHG=1
M  V30 7 C 37.808086 30.777172 55.397251 0
M  V30 8 N 37.467402 31.841266 54.653505 0
M  V30 9 H 40.099734 27.681506 51.304821 0
M  V30 10 H 38.599377 28.424458 50.770831 0
M  V30 11 H 39.466967 27.700747 53.556633 0
M  V30 12 H 37.820481 27.744367 52.904932 0
M  V30 13 H 41.066932 29.827784 51.273791 0
M  V30 14 H 39.496854 30.511739 50.877997 0
M  V30 15 H 39.735484 31.410982 53.078596 0
M  V30 16 H 40.667406 30.021687 53.638019 0
M  V30 17 H 37.601455 30.793957 56.461639 0
M  V30 18 H 37.676524 31.856861 53.664940 0
M  V30 19 H 36.933194 32.607001 55.074397 0
M  V30 20 H 38.665698 28.875711 55.400307 0
M  V30 END ATOM
M  V30 BEGIN BOND
M  V30 1 1 2 1
M  V30 2 1 3 1
M  V30 3 1 4 3
M  V30 4 1 5 2
M  V30 5 1 5 4
M  V30 6 1 6 5
M  V30 7 2 7 6
M  V30 8 1 8 7
M  V30 9 1 9 1
M  V30 10 1 10 1
M  V30 11 1 11 2
M  V30 12 1 12 2
M  V30 13 1 13 3
M  V30 14 1 14 3
M  V30 15 1 15 4
M  V30 16 1 16 4
M  V30 17 1 17 7
M  V30 18 1 18 8
M  V30 19 1 19 8
M  V30 20 1 20 6
M  V30 END BOND
M  V30 END CTAB
M  END
>  <i_epik_Tot_Q>  (1) 
1

>  <i_epik_Tot_abs_Q>  (1) 
1

>  <i_i_glide_confnum>  (1) 
1

>  <i_i_glide_lignum>  (1) 
70

>  <i_i_glide_posenum>  (1) 
309

>  <i_i_glide_rotatable_bonds>  (1) 
1

>  <i_lp_mmshare_version>  (1) 
72125

>  <i_m_source_file_index>  (1) 
66

>  <i_f3d_flags>  (1) 
0

>  <num_sample>  (1) 
100

>  <b_lp_Chiralities_Consistent>  (1) 
1

>  <r_epik_Charging_Adjusted_Penalty>  (1) 
1.6312684749255997e-05

>  <r_epik_Ionization_Penalty>  (1) 
1.6401951855999153e-05

>  <r_epik_Ionization_Penalty_Charging>  (1) 
1.6312684749255997e-05

>  <r_epik_Ionization_Penalty_Neutral>  (1) 
8.9267106743156534e-08

>  <r_epik_State_Penalty>  (1) 
-0

>  <r_glide_ring_energy>  (1) 
0

>  <r_i_docking_score>  (1) 
-5.4710496718239563

>  <r_i_glide_ecoul>  (1) 
-4.3134146866019023

>  <r_i_glide_eff_state_penalty>  (1) 
-0

>  <r_i_glide_einternal>  (1) 
0.71027765418438071

>  <r_i_glide_emodel>  (1) 
-27.564402061217464

>  <r_i_glide_emodel_strain>  (1) 
0.036935789510447847

>  <r_i_glide_energy>  (1) 
-17.101172983613115

>  <r_i_glide_erotb>  (1) 
0

>  <r_i_glide_esite>  (1) 
-0.1511584619496662

>  <r_i_glide_evdw>  (1) 
-12.787758297011212

>  <r_i_glide_gscore>  (1) 
-5.4710496718239563

>  <r_i_glide_gscore_strain>  (1) 
0

>  <r_i_glide_hbond>  (1) 
-0.1934287271497831

>  <r_i_glide_ligand_efficiency>  (1) 
-0.68388120897799454

>  <r_i_glide_ligand_efficiency_ln>  (1) 
-1.7766369641293784

>  <r_i_glide_ligand_efficiency_sa>  (1) 
-1.3677624179559893

>  <r_i_glide_lipo>  (1) 
-1.3152025815209549

>  <r_i_glide_metal>  (1) 
-0

>  <r_i_glide_rewards>  (1) 
-2.524859783362706

>  <r_lp_Energy>  (1) 
13.886725999999999

>  <r_lp_tautomer_probability>  (1) 
1

>  <s_epik_Chemistry_Notes>  (1) 
This compound has an imine and may undergo hydrolysis.

>  <s_epik_cmdline>  (1) 
J2VwaWtfcHl0aG9uJywgJy1waHQnLCAnMS4wJywgJy1waCcsICc3LjQnLCAnLXRuJywgJzgnLCAnLW1hJywgJzUwMCcsICctaW1hZScsICc8aW5maWxlLm1hZT4nLCAnLW9tYWUnLCAnPG91dGZpbGUubWFlPic=

>  <s_epik_input>  (1) 
W0NIMl0xW0NIMl1bQ0gyXVtDSDJdTjEvTj1bQ0hdXFtOSDJd

>  <s_glide_docking_method>  (1) 
confgen

>  <s_i_glide_gridfile>  (1) 
gpcr_5ht2c_6bqh_protein_autoprepared_prepared

>  <s_lp_Force_Field>  (1) 
S-OPLS

>  <s_lp_Variant>  (1) 
Pocket2Mol_65_num_sample_100-2

>  <s_m_source_file>  (1) 
generated__ligand_Pocket2Mol_2026-05-06_prepared.sdf

>  <GenAI_Model>  (1) 
Pocket2Mol

>  <Protein>  (1) 
GPCR_5HT2C

$$$$
Pocket2Mol_85_num_sample_100
     RDKit          3D

  0  0  0  0  0  0  0  0  0  0999 V3000
M  V30 BEGIN CTAB
M  V30 COUNTS 14 14 0 0 1
M  V30 BEGIN ATOM
M  V30 1 C 39.467495 28.442412 50.838737 0
M  V30 2 C 38.789954 27.893088 51.877153 0
M  V30 3 C 39.991712 29.572368 51.243404 0
M  V30 4 C 38.894832 28.688269 52.940577 0
M  V30 5 O 40.730846 30.421413 50.519873 0
M  V30 6 C 39.754567 30.021434 52.723780 0
M  V30 7 C 38.267407 28.431267 54.341411 0
M  V30 8 O 38.501354 29.295989 55.212487 0
M  V30 9 O 37.594362 27.382722 54.455300 0 CHG=-1
M  V30 10 H 39.554817 28.022872 49.853499 0
M  V30 11 H 38.249250 26.957726 51.846816 0
M  V30 12 H 40.917716 31.170798 51.065215 0
M  V30 13 H 40.666893 30.049437 53.320266 0
M  V30 14 H 39.166852 30.932965 52.829675 0
M  V30 END ATOM
M  V30 BEGIN BOND
M  V30 1 1 2 1
M  V30 2 2 3 1
M  V30 3 2 4 2
M  V30 4 1 5 3
M  V30 5 1 6 3
M  V30 6 1 6 4
M  V30 7 1 7 4
M  V30 8 2 8 7
M  V30 9 1 9 7
M  V30 10 1 10 1
M  V30 11 1 11 2
M  V30 12 1 12 5
M  V30 13 1 13 6
M  V30 14 1 14 6
M  V30 END BOND
M  V30 END CTAB
M  END
>  <i_epik_Tot_Q>  (1) 
-1

>  <i_epik_Tot_abs_Q>  (1) 
1

>  <i_i_glide_confnum>  (1) 
1

>  <i_i_glide_lignum>  (1) 
90

>  <i_i_glide_posenum>  (1) 
117

>  <i_i_glide_rotatable_bonds>  (1) 
2

>  <i_lp_mmshare_version>  (1) 
72125

>  <i_m_source_file_index>  (1) 
86

>  <i_f3d_flags>  (1) 
0

>  <num_sample>  (1) 
100

>  <b_lp_Chiralities_Consistent>  (1) 
1

>  <r_epik_Charging_Adjusted_Penalty>  (1) 
0.00019237637697373591

>  <r_epik_Ionization_Penalty>  (1) 
0.0032632994418700166

>  <r_epik_Ionization_Penalty_Charging>  (1) 
0.00019237637697373591

>  <r_epik_Ionization_Penalty_Neutral>  (1) 
0.0030709230648962808

>  <r_epik_State_Penalty>  (1) 
-0

>  <r_glide_ring_energy>  (1) 
0

>  <r_i_docking_score>  (1) 
-5.4586725817870931

>  <r_i_glide_ecoul>  (1) 
-0.42710870640027399

>  <r_i_glide_eff_state_penalty>  (1) 
-0

>  <r_i_glide_einternal>  (1) 
2.0746679741380065

>  <r_i_glide_emodel>  (1) 
-24.887121103505205

>  <r_i_glide_emodel_strain>  (1) 
0

>  <r_i_glide_energy>  (1) 
-18.056808612110125

>  <r_i_glide_erotb>  (1) 
0

>  <r_i_glide_esite>  (1) 
0

>  <r_i_glide_evdw>  (1) 
-17.629699905709849

>  <r_i_glide_gscore>  (1) 
-5.4586725817870931

>  <r_i_glide_gscore_strain>  (1) 
0

>  <r_i_glide_hbond>  (1) 
0

>  <r_i_glide_ligand_efficiency>  (1) 
-0.60651917575412151

>  <r_i_glide_ligand_efficiency_ln>  (1) 
-1.7073159703829777

>  <r_i_glide_ligand_efficiency_sa>  (1) 
-1.2616107258569229

>  <r_i_glide_lipo>  (1) 
-1.6419752393699711

>  <r_i_glide_metal>  (1) 
-0

>  <r_i_glide_rewards>  (1) 
-2.8711460411715874

>  <r_lp_Energy>  (1) 
1.821912

>  <r_lp_tautomer_probability>  (1) 
1

>  <s_epik_cmdline>  (1) 
J2VwaWtfcHl0aG9uJywgJy1waHQnLCAnMS4wJywgJy1waCcsICc3LjQnLCAnLXRuJywgJzgnLCAnLW1hJywgJzUwMCcsICctaW1hZScsICc8aW5maWxlLm1hZT4nLCAnLW9tYWUnLCAnPG91dGZpbGUubWFlPic=

>  <s_epik_input>  (1) 
W09IXUMxPVtDSF1bQ0hdPUMoW0NIMl0xKUMoPU8pW09IXQ==

>  <s_glide_docking_method>  (1) 
confgen

>  <s_i_glide_gridfile>  (1) 
gpcr_5ht2c_6bqh_protein_autoprepared_prepared

>  <s_lp_Force_Field>  (1) 
S-OPLS

>  <s_lp_Variant>  (1) 
Pocket2Mol_85_num_sample_100-1

>  <s_m_source_file>  (1) 
generated__ligand_Pocket2Mol_2026-05-06_prepared.sdf

>  <GenAI_Model>  (1) 
Pocket2Mol

>  <Protein>  (1) 
GPCR_5HT2C

$$$$
Pocket2Mol_0_num_sample_100
     RDKit          3D

  0  0  0  0  0  0  0  0  0  0999 V3000
M  V30 BEGIN CTAB
M  V30 COUNTS 19 19 0 0 1
M  V30 BEGIN ATOM
M  V30 1 C 37.739602 26.995350 53.740375 0
M  V30 2 C 37.796794 26.194322 55.020673 0
M  V30 3 C 37.107104 24.959328 55.066275 0
M  V30 4 C 38.532444 26.606208 56.169472 0
M  V30 5 C 38.542888 25.806608 57.330403 0
M  V30 6 C 37.832127 24.596308 57.362308 0
M  V30 7 C 37.118245 24.172437 56.231097 0
M  V30 8 C 37.977497 28.329781 53.549414 0
M  V30 9 C 38.267280 29.320467 54.608860 0
M  V30 10 N 38.624512 30.500910 54.346388 0
M  V30 11 H 37.480452 26.421526 52.864012 0
M  V30 12 H 36.555842 24.621569 54.200782 0
M  V30 13 H 39.114497 27.501317 56.161633 0
M  V30 14 H 39.106574 26.122395 58.196156 0
M  V30 15 H 37.843231 23.985958 58.253502 0
M  V30 16 H 36.578932 23.236759 56.253539 0
M  V30 17 H 37.939295 28.740252 52.550524 0
M  V30 18 H 38.129798 28.990414 55.628161 0
M  V30 19 H 38.754908 31.068123 55.172773 0
M  V30 END ATOM
M  V30 BEGIN BOND
M  V30 1 1 2 1
M  V30 2 1 3 2
M  V30 3 2 4 2
M  V30 4 1 5 4
M  V30 5 2 6 5
M  V30 6 2 7 3
M  V30 7 1 7 6
M  V30 8 2 8 1
M  V30 9 1 9 8
M  V30 10 2 10 9
M  V30 11 1 11 1
M  V30 12 1 12 3
M  V30 13 1 13 4
M  V30 14 1 14 5
M  V30 15 1 15 6
M  V30 16 1 16 7
M  V30 17 1 17 8
M  V30 18 1 18 9
M  V30 19 1 19 10
M  V30 END BOND
M  V30 END CTAB
M  END
>  <i_epik_Tot_Q>  (1) 
0

>  <i_epik_Tot_abs_Q>  (1) 
0

>  <i_i_glide_confnum>  (1) 
1

>  <i_i_glide_lignum>  (1) 
2

>  <i_i_glide_posenum>  (1) 
293

>  <i_i_glide_rotatable_bonds>  (1) 
2

>  <i_lp_mmshare_version>  (1) 
72125

>  <i_m_source_file_index>  (1) 
1

>  <i_f3d_flags>  (1) 
0

>  <num_sample>  (1) 
100

>  <b_lp_Chiralities_Consistent>  (1) 
1

>  <r_epik_Charging_Adjusted_Penalty>  (1) 
0

>  <r_epik_Ionization_Penalty>  (1) 
0

>  <r_epik_Ionization_Penalty_Charging>  (1) 
0

>  <r_epik_Ionization_Penalty_Neutral>  (1) 
0

>  <r_epik_State_Penalty>  (1) 
-0

>  <r_glide_ring_energy>  (1) 
0

>  <r_i_docking_score>  (1) 
-5.454719775377499

>  <r_i_glide_ecoul>  (1) 
-0.63859651104681059

>  <r_i_glide_eff_state_penalty>  (1) 
-0

>  <r_i_glide_einternal>  (1) 
0.014895346676896182

>  <r_i_glide_emodel>  (1) 
-28.662111629745379

>  <r_i_glide_emodel_strain>  (1) 
0

>  <r_i_glide_energy>  (1) 
-20.770717376921162

>  <r_i_glide_erotb>  (1) 
0.80789427267668723

>  <r_i_glide_esite>  (1) 
0

>  <r_i_glide_evdw>  (1) 
-20.132120865874352

>  <r_i_glide_gscore>  (1) 
-5.454719775377499

>  <r_i_glide_gscore_strain>  (1) 
0

>  <r_i_glide_hbond>  (1) 
0

>  <r_i_glide_ligand_efficiency>  (1) 
-0.5454719775377499

>  <r_i_glide_ligand_efficiency_ln>  (1) 
-1.6516515462232582

>  <r_i_glide_ligand_efficiency_sa>  (1) 
-1.1751837508476211

>  <r_i_glide_lipo>  (1) 
-2.4779136373322612

>  <r_i_glide_metal>  (1) 
-0

>  <r_i_glide_rewards>  (1) 
-2.6823048907711855

>  <r_lp_Energy>  (1) 
13.405619999999999

>  <r_lp_tautomer_probability>  (1) 
1

>  <s_epik_Chemistry_Notes>  (1) 
This compound has an imine and may undergo hydrolysis.

>  <s_epik_cmdline>  (1) 
J2VwaWtfcHl0aG9uJywgJy1waHQnLCAnMS4wJywgJy1waCcsICc3LjQnLCAnLXRuJywgJzgnLCAnLW1hJywgJzUwMCcsICctaW1hZScsICc8aW5maWxlLm1hZT4nLCAnLW9tYWUnLCAnPG91dGZpbGUubWFlPic=

>  <s_epik_input>  (1) 
W0hdL049W0NIXS9bQ0hdPVtDSF1cYzFbY0hdW2NIXVtjSF1bY0hdW2NIXTE=

>  <s_glide_docking_method>  (1) 
confgen

>  <s_i_glide_gridfile>  (1) 
gpcr_5ht2c_6bqh_protein_autoprepared_prepared

>  <s_lp_Force_Field>  (1) 
S-OPLS

>  <s_lp_Variant>  (1) 
Pocket2Mol_0_num_sample_100-2

>  <s_m_source_file>  (1) 
generated__ligand_Pocket2Mol_2026-05-06_prepared.sdf

>  <GenAI_Model>  (1) 
Pocket2Mol

>  <Protein>  (1) 
GPCR_5HT2C

$$$$
Pocket2Mol_65_num_sample_100
     RDKit          3D

  0  0  0  0  0  0  0  0  0  0999 V3000
M  V30 BEGIN CTAB
M  V30 COUNTS 20 20 0 0 1
M  V30 BEGIN ATOM
M  V30 1 C 39.782546 30.071578 52.656580 0
M  V30 2 C 38.706236 29.220423 53.334276 0
M  V30 3 C 40.089923 29.341927 51.352249 0
M  V30 4 C 39.199784 28.098466 51.384114 0
M  V30 5 N 38.945335 27.886993 52.801567 0
M  V30 6 N 37.867452 26.969067 53.053578 0 CHG=1
M  V30 7 C 37.883868 26.193780 54.156720 0
M  V30 8 N 38.882093 26.250562 55.056369 0
M  V30 9 H 39.468669 31.102014 52.492076 0
M  V30 10 H 40.667235 30.116668 53.287651 0
M  V30 11 H 37.712445 29.567777 53.055572 0
M  V30 12 H 38.779613 29.248475 54.422063 0
M  V30 13 H 39.882140 29.955803 50.474215 0
M  V30 14 H 41.142935 29.061933 51.320182 0
M  V30 15 H 39.670387 27.231842 50.917578 0
M  V30 16 H 38.266973 28.303289 50.858867 0
M  V30 17 H 37.067208 25.501768 54.322691 0
M  V30 18 H 39.652614 26.889619 54.913545 0
M  V30 19 H 38.863432 25.656592 55.874173 0
M  V30 20 H 37.141406 26.919235 52.344141 0
M  V30 END ATOM
M  V30 BEGIN BOND
M  V30 1 1 2 1
M  V30 2 1 3 1
M  V30 3 1 4 3
M  V30 4 1 5 2
M  V30 5 1 5 4
M  V30 6 1 6 5
M  V30 7 2 7 6
M  V30 8 1 8 7
M  V30 9 1 9 1
M  V30 10 1 10 1
M  V30 11 1 11 2
M  V30 12 1 12 2
M  V30 13 1 13 3
M  V30 14 1 14 3
M  V30 15 1 15 4
M  V30 16 1 16 4
M  V30 17 1 17 7
M  V30 18 1 18 8
M  V30 19 1 19 8
M  V30 20 1 20 6
M  V30 END BOND
M  V30 END CTAB
M  END
>  <i_epik_Tot_Q>  (1) 
1

>  <i_epik_Tot_abs_Q>  (1) 
1

>  <i_i_glide_confnum>  (1) 
1

>  <i_i_glide_lignum>  (1) 
70

>  <i_i_glide_posenum>  (1) 
349

>  <i_i_glide_rotatable_bonds>  (1) 
1

>  <i_lp_mmshare_version>  (1) 
72125

>  <i_m_source_file_index>  (1) 
66

>  <i_f3d_flags>  (1) 
0

>  <num_sample>  (1) 
100

>  <b_lp_Chiralities_Consistent>  (1) 
1

>  <r_epik_Charging_Adjusted_Penalty>  (1) 
1.6312684749255997e-05

>  <r_epik_Ionization_Penalty>  (1) 
1.6401951855999153e-05

>  <r_epik_Ionization_Penalty_Charging>  (1) 
1.6312684749255997e-05

>  <r_epik_Ionization_Penalty_Neutral>  (1) 
8.9267106743156534e-08

>  <r_epik_State_Penalty>  (1) 
-0

>  <r_glide_ring_energy>  (1) 
0

>  <r_i_docking_score>  (1) 
-5.4500370151917297

>  <r_i_glide_ecoul>  (1) 
-2.8756589510372681

>  <r_i_glide_eff_state_penalty>  (1) 
-0

>  <r_i_glide_einternal>  (1) 
0.62484257512995067

>  <r_i_glide_emodel>  (1) 
-27.322054922077452

>  <r_i_glide_emodel_strain>  (1) 
0.0067681033914155364

>  <r_i_glide_energy>  (1) 
-16.827632576101458

>  <r_i_glide_erotb>  (1) 
0

>  <r_i_glide_esite>  (1) 
0

>  <r_i_glide_evdw>  (1) 
-13.951973625064189

>  <r_i_glide_gscore>  (1) 
-5.4500370151917297

>  <r_i_glide_gscore_strain>  (1) 
0

>  <r_i_glide_hbond>  (1) 
0

>  <r_i_glide_ligand_efficiency>  (1) 
-0.68125462689896621

>  <r_i_glide_ligand_efficiency_ln>  (1) 
-1.7698134357889885

>  <r_i_glide_ligand_efficiency_sa>  (1) 
-1.3625092537979326

>  <r_i_glide_lipo>  (1) 
-1.260154413584609

>  <r_i_glide_metal>  (1) 
-0

>  <r_i_glide_rewards>  (1) 
-3.0609350776983204

>  <r_lp_Energy>  (1) 
13.886725999999999

>  <r_lp_tautomer_probability>  (1) 
1

>  <s_epik_Chemistry_Notes>  (1) 
This compound has an imine and may undergo hydrolysis.

>  <s_epik_cmdline>  (1) 
J2VwaWtfcHl0aG9uJywgJy1waHQnLCAnMS4wJywgJy1waCcsICc3LjQnLCAnLXRuJywgJzgnLCAnLW1hJywgJzUwMCcsICctaW1hZScsICc8aW5maWxlLm1hZT4nLCAnLW9tYWUnLCAnPG91dGZpbGUubWFlPic=

>  <s_epik_input>  (1) 
W0NIMl0xW0NIMl1bQ0gyXVtDSDJdTjEvTj1bQ0hdXFtOSDJd

>  <s_glide_docking_method>  (1) 
confgen

>  <s_i_glide_gridfile>  (1) 
gpcr_5ht2c_6bqh_protein_autoprepared_prepared

>  <s_lp_Force_Field>  (1) 
S-OPLS

>  <s_lp_Variant>  (1) 
Pocket2Mol_65_num_sample_100-2

>  <s_m_source_file>  (1) 
generated__ligand_Pocket2Mol_2026-05-06_prepared.sdf

>  <GenAI_Model>  (1) 
Pocket2Mol

>  <Protein>  (1) 
GPCR_5HT2C

$$$$
Pocket2Mol_64_num_sample_100
     RDKit          3D

  0  0  0  0  0  0  0  0  0  0999 V3000
M  V30 BEGIN CTAB
M  V30 COUNTS 15 15 0 0 1
M  V30 BEGIN ATOM
M  V30 1 C 38.469310 28.549706 53.187687 0
M  V30 2 C 38.670995 27.926627 51.940531 0
M  V30 3 C 39.467406 28.551136 50.960657 0
M  V30 4 C 40.064189 29.799807 51.226462 0
M  V30 5 C 39.067476 29.797541 53.456028 0
M  V30 6 N 40.844955 30.421427 50.253502 0
M  V30 7 O 38.873301 30.404627 54.662347 0
M  V30 8 C 39.867399 30.420819 52.476185 0
M  V30 9 H 37.856608 28.069879 53.936962 0
M  V30 10 H 38.212767 26.970431 51.734041 0
M  V30 11 H 39.616521 28.073293 50.004230 0
M  V30 12 H 41.131113 31.385926 50.366067 0
M  V30 13 H 40.846735 30.071193 49.307990 0
M  V30 14 H 38.215333 29.994032 55.203050 0
M  V30 15 H 40.323296 31.377228 52.682066 0
M  V30 END ATOM
M  V30 BEGIN BOND
M  V30 1 1 2 1
M  V30 2 2 3 2
M  V30 3 1 4 3
M  V30 4 2 5 1
M  V30 5 1 6 4
M  V30 6 1 7 5
M  V30 7 2 8 4
M  V30 8 1 8 5
M  V30 9 1 9 1
M  V30 10 1 10 2
M  V30 11 1 11 3
M  V30 12 1 12 6
M  V30 13 1 13 6
M  V30 14 1 14 7
M  V30 15 1 15 8
M  V30 END BOND
M  V30 END CTAB
M  END
>  <i_epik_Tot_Q>  (1) 
0

>  <i_epik_Tot_abs_Q>  (1) 
0

>  <i_i_glide_confnum>  (1) 
1

>  <i_i_glide_lignum>  (1) 
68

>  <i_i_glide_posenum>  (1) 
265

>  <i_i_glide_rotatable_bonds>  (1) 
1

>  <i_lp_mmshare_version>  (1) 
72125

>  <i_m_source_file_index>  (1) 
65

>  <i_f3d_flags>  (1) 
0

>  <num_sample>  (1) 
100

>  <b_lp_Chiralities_Consistent>  (1) 
1

>  <r_epik_Charging_Adjusted_Penalty>  (1) 
0

>  <r_epik_Ionization_Penalty>  (1) 
0.0026005809723615375

>  <r_epik_Ionization_Penalty_Charging>  (1) 
0

>  <r_epik_Ionization_Penalty_Neutral>  (1) 
0.0026005809723615375

>  <r_epik_State_Penalty>  (1) 
-0

>  <r_glide_ring_energy>  (1) 
0

>  <r_i_docking_score>  (1) 
-5.4429117813724686

>  <r_i_glide_ecoul>  (1) 
-1.2291527484655784

>  <r_i_glide_eff_state_penalty>  (1) 
-0

>  <r_i_glide_einternal>  (1) 
0.046968591790166409

>  <r_i_glide_emodel>  (1) 
-27.807595000140804

>  <r_i_glide_emodel_strain>  (1) 
0

>  <r_i_glide_energy>  (1) 
-20.135000390452888

>  <r_i_glide_erotb>  (1) 
0

>  <r_i_glide_esite>  (1) 
0

>  <r_i_glide_evdw>  (1) 
-18.905847641987307

>  <r_i_glide_gscore>  (1) 
-5.4429117813724686

>  <r_i_glide_gscore_strain>  (1) 
0

>  <r_i_glide_hbond>  (1) 
0

>  <r_i_glide_ligand_efficiency>  (1) 
-0.68036397267155857

>  <r_i_glide_ligand_efficiency_ln>  (1) 
-1.767499628651291

>  <r_i_glide_ligand_efficiency_sa>  (1) 
-1.3607279453431174

>  <r_i_glide_lipo>  (1) 
-1.8421091643361134

>  <r_i_glide_metal>  (1) 
-0

>  <r_i_glide_rewards>  (1) 
-2.4711373226671531

>  <r_lp_Energy>  (1) 
4.3794230000000001

>  <r_lp_tautomer_probability>  (1) 
1

>  <s_epik_cmdline>  (1) 
J2VwaWtfcHl0aG9uJywgJy1waHQnLCAnMS4wJywgJy1waCcsICc3LjQnLCAnLXRuJywgJzgnLCAnLW1hJywgJzUwMCcsICctaW1hZScsICc8aW5maWxlLm1hZT4nLCAnLW9tYWUnLCAnPG91dGZpbGUubWFlPic=

>  <s_epik_input>  (1) 
W09IXWMoW2NIXTEpW2NIXVtjSF1bY0hdYzFbTkgyXQ==

>  <s_glide_docking_method>  (1) 
confgen

>  <s_i_glide_gridfile>  (1) 
gpcr_5ht2c_6bqh_protein_autoprepared_prepared

>  <s_lp_Force_Field>  (1) 
S-OPLS

>  <s_lp_Variant>  (1) 
Pocket2Mol_64_num_sample_100-1

>  <s_m_source_file>  (1) 
generated__ligand_Pocket2Mol_2026-05-06_prepared.sdf

>  <GenAI_Model>  (1) 
Pocket2Mol

>  <Protein>  (1) 
GPCR_5HT2C

$$$$
Pocket2Mol_8_num_sample_100
     RDKit          3D

  0  0  0  0  0  0  0  0  0  0999 V3000
M  V30 BEGIN CTAB
M  V30 COUNTS 12 12 0 0 1
M  V30 BEGIN ATOM
M  V30 1 C 39.867403 28.972904 50.537486 0
M  V30 2 C 40.267403 30.133824 51.228240 0
M  V30 3 C 39.067404 28.009538 51.183087 0
M  V30 4 C 38.667404 28.207091 52.519443 0
M  V30 5 C 39.067403 29.368011 53.210197 0
M  V30 6 C 39.867403 30.331377 52.564596 0
M  V30 7 H 40.174077 28.821442 49.512924 0
M  V30 8 H 40.880749 30.872420 50.733268 0
M  V30 9 H 38.760730 27.119481 50.653498 0
M  V30 10 H 38.054057 27.468494 53.014414 0
M  V30 11 H 38.760732 29.519471 54.234759 0
M  V30 12 H 40.174076 31.221434 53.094187 0
M  V30 END ATOM
M  V30 BEGIN BOND
M  V30 1 1 2 1
M  V30 2 2 3 1
M  V30 3 1 4 3
M  V30 4 2 5 4
M  V30 5 2 6 2
M  V30 6 1 6 5
M  V30 7 1 7 1
M  V30 8 1 8 2
M  V30 9 1 9 3
M  V30 10 1 10 4
M  V30 11 1 11 5
M  V30 12 1 12 6
M  V30 END BOND
M  V30 END CTAB
M  END
>  <i_epik_Tot_Q>  (1) 
0

>  <i_epik_Tot_abs_Q>  (1) 
0

>  <i_i_glide_confnum>  (1) 
1

>  <i_i_glide_lignum>  (1) 
11

>  <i_i_glide_posenum>  (1) 
383

>  <i_i_glide_rotatable_bonds>  (1) 
0

>  <i_lp_mmshare_version>  (1) 
72125

>  <i_m_source_file_index>  (1) 
9

>  <i_f3d_flags>  (1) 
0

>  <num_sample>  (1) 
100

>  <b_lp_Chiralities_Consistent>  (1) 
1

>  <r_epik_Charging_Adjusted_Penalty>  (1) 
0

>  <r_epik_Ionization_Penalty>  (1) 
0

>  <r_epik_Ionization_Penalty_Charging>  (1) 
0

>  <r_epik_Ionization_Penalty_Neutral>  (1) 
0

>  <r_epik_State_Penalty>  (1) 
-0

>  <r_glide_ring_energy>  (1) 
0

>  <r_i_docking_score>  (1) 
-5.4383678603866645

>  <r_i_glide_ecoul>  (1) 
-0.81886327902229539

>  <r_i_glide_eff_state_penalty>  (1) 
-0

>  <r_i_glide_einternal>  (1) 
0

>  <r_i_glide_emodel>  (1) 
-20.764411712195272

>  <r_i_glide_emodel_strain>  (1) 
0

>  <r_i_glide_energy>  (1) 
-15.642713411359834

>  <r_i_glide_erotb>  (1) 
0

>  <r_i_glide_esite>  (1) 
0

>  <r_i_glide_evdw>  (1) 
-14.823850132337538

>  <r_i_glide_gscore>  (1) 
-5.4383678603866645

>  <r_i_glide_gscore_strain>  (1) 
0

>  <r_i_glide_hbond>  (1) 
0

>  <r_i_glide_ligand_efficiency>  (1) 
-0.90639464339777742

>  <r_i_glide_ligand_efficiency_ln>  (1) 
-1.9480073123528865

>  <r_i_glide_ligand_efficiency_sa>  (1) 
-1.6470283717508454

>  <r_i_glide_lipo>  (1) 
-1.865236936293746

>  <r_i_glide_metal>  (1) 
-0

>  <r_i_glide_rewards>  (1) 
-2.7091089256226972

>  <r_lp_Energy>  (1) 
6.1542199999999996

>  <r_lp_tautomer_probability>  (1) 
1

>  <s_epik_cmdline>  (1) 
J2VwaWtfcHl0aG9uJywgJy1waHQnLCAnMS4wJywgJy1waCcsICc3LjQnLCAnLXRuJywgJzgnLCAnLW1hJywgJzUwMCcsICctaW1hZScsICc8aW5maWxlLm1hZT4nLCAnLW9tYWUnLCAnPG91dGZpbGUubWFlPic=

>  <s_epik_input>  (1) 
W2NIXTFbY0hdW2NIXVtjSF1bY0hdW2NIXTE=

>  <s_glide_docking_method>  (1) 
confgen

>  <s_i_glide_gridfile>  (1) 
gpcr_5ht2c_6bqh_protein_autoprepared_prepared

>  <s_lp_Force_Field>  (1) 
S-OPLS

>  <s_lp_Variant>  (1) 
Pocket2Mol_8_num_sample_100-1

>  <s_m_source_file>  (1) 
generated__ligand_Pocket2Mol_2026-05-06_prepared.sdf

>  <GenAI_Model>  (1) 
Pocket2Mol

>  <Protein>  (1) 
GPCR_5HT2C

$$$$
Pocket2Mol_78_num_sample_100
     RDKit          3D

  0  0  0  0  0  0  0  0  0  0999 V3000
M  V30 BEGIN CTAB
M  V30 COUNTS 14 14 0 0 1
M  V30 BEGIN ATOM
M  V30 1 C 39.125195 30.648803 54.384788 0
M  V30 2 C 39.785439 30.507665 53.148979 0
M  V30 3 C 39.467434 29.427948 52.295136 0
M  V30 4 C 40.168304 29.278228 50.973593 0
M  V30 5 O 39.866957 28.303250 50.253510 0
M  V30 6 O 41.022208 30.134741 50.651893 0 CHG=-1
M  V30 7 C 38.147587 29.712472 54.773308 0
M  V30 8 C 38.487828 28.487992 52.689535 0
M  V30 9 C 37.830519 28.631958 53.926578 0
M  V30 10 H 39.368742 31.476652 55.034154 0
M  V30 11 H 40.534866 31.226363 52.855189 0
M  V30 12 H 37.640527 29.823517 55.721163 0
M  V30 13 H 38.240158 27.657998 52.042243 0
M  V30 14 H 37.082274 27.914512 54.225266 0
M  V30 END ATOM
M  V30 BEGIN BOND
M  V30 1 1 2 1
M  V30 2 2 3 2
M  V30 3 1 4 3
M  V30 4 2 5 4
M  V30 5 1 6 4
M  V30 6 2 7 1
M  V30 7 1 8 3
M  V30 8 1 9 7
M  V30 9 2 9 8
M  V30 10 1 10 1
M  V30 11 1 11 2
M  V30 12 1 12 7
M  V30 13 1 13 8
M  V30 14 1 14 9
M  V30 END BOND
M  V30 END CTAB
M  END
>  <i_epik_Tot_Q>  (1) 
-1

>  <i_epik_Tot_abs_Q>  (1) 
1

>  <i_i_glide_confnum>  (1) 
1

>  <i_i_glide_lignum>  (1) 
83

>  <i_i_glide_posenum>  (1) 
127

>  <i_i_glide_rotatable_bonds>  (1) 
1

>  <i_lp_mmshare_version>  (1) 
72125

>  <i_m_source_file_index>  (1) 
79

>  <i_f3d_flags>  (1) 
0

>  <num_sample>  (1) 
100

>  <b_lp_Chiralities_Consistent>  (1) 
1

>  <r_epik_Charging_Adjusted_Penalty>  (1) 
0.00033308558627939336

>  <r_epik_Ionization_Penalty>  (1) 
0.00033308558627939336

>  <r_epik_Ionization_Penalty_Charging>  (1) 
0.00033308558627939336

>  <r_epik_Ionization_Penalty_Neutral>  (1) 
0

>  <r_epik_State_Penalty>  (1) 
-0

>  <r_glide_ring_energy>  (1) 
0

>  <r_i_docking_score>  (1) 
-5.4364349794557363

>  <r_i_glide_ecoul>  (1) 
0.13274706108146167

>  <r_i_glide_eff_state_penalty>  (1) 
-0

>  <r_i_glide_einternal>  (1) 
0.003151429417281193

>  <r_i_glide_emodel>  (1) 
-22.332696925355211

>  <r_i_glide_emodel_strain>  (1) 
0

>  <r_i_glide_energy>  (1) 
-16.129058729515453

>  <r_i_glide_erotb>  (1) 
0

>  <r_i_glide_esite>  (1) 
0

>  <r_i_glide_evdw>  (1) 
-16.261805790596913

>  <r_i_glide_gscore>  (1) 
-5.4364349794557363

>  <r_i_glide_gscore_strain>  (1) 
0

>  <r_i_glide_hbond>  (1) 
0

>  <r_i_glide_ligand_efficiency>  (1) 
-0.60404833105063738

>  <r_i_glide_ligand_efficiency_ln>  (1) 
-1.7003606872011237

>  <r_i_glide_ligand_efficiency_sa>  (1) 
-1.2564711617599322

>  <r_i_glide_lipo>  (1) 
-1.6392121267503459

>  <r_i_glide_metal>  (1) 
-0

>  <r_i_glide_rewards>  (1) 
-3.0040446223377639

>  <r_lp_Energy>  (1) 
17.740625999999999

>  <r_lp_tautomer_probability>  (1) 
1

>  <s_epik_cmdline>  (1) 
J2VwaWtfcHl0aG9uJywgJy1waHQnLCAnMS4wJywgJy1waCcsICc3LjQnLCAnLXRuJywgJzgnLCAnLW1hJywgJzUwMCcsICctaW1hZScsICc8aW5maWxlLm1hZT4nLCAnLW9tYWUnLCAnPG91dGZpbGUubWFlPic=

>  <s_epik_input>  (1) 
W2NIXTFbY0hdW2NIXVtjSF1bY0hdYzFDKD1PKVtPSF0=

>  <s_glide_docking_method>  (1) 
confgen

>  <s_i_glide_gridfile>  (1) 
gpcr_5ht2c_6bqh_protein_autoprepared_prepared

>  <s_lp_Force_Field>  (1) 
S-OPLS

>  <s_lp_Variant>  (1) 
Pocket2Mol_78_num_sample_100-1

>  <s_m_source_file>  (1) 
generated__ligand_Pocket2Mol_2026-05-06_prepared.sdf

>  <GenAI_Model>  (1) 
Pocket2Mol

>  <Protein>  (1) 
GPCR_5HT2C

$$$$
Pocket2Mol_65_num_sample_100
     RDKit          3D

  0  0  0  0  0  0  0  0  0  0999 V3000
M  V30 BEGIN CTAB
M  V30 COUNTS 20 20 0 0 1
M  V30 BEGIN ATOM
M  V30 1 C 39.067423 27.784434 51.723708 0
M  V30 2 C 39.467399 29.221422 52.039854 0
M  V30 3 C 38.868844 27.145049 53.094655 0
M  V30 4 C 38.904298 28.305064 54.092594 0
M  V30 5 N 38.729960 29.491742 53.265431 0
M  V30 6 N 39.122440 30.715122 53.914745 0 CHG=1
M  V30 7 C 38.279212 31.323940 54.772209 0
M  V30 8 N 37.067403 30.821429 55.053501 0
M  V30 9 H 38.128386 27.772178 51.168065 0
M  V30 10 H 39.814284 27.267994 51.120103 0
M  V30 11 H 39.206356 29.909674 51.235200 0
M  V30 12 H 40.541525 29.288364 52.215662 0
M  V30 13 H 37.914319 26.618155 53.133423 0
M  V30 14 H 39.654143 26.421527 53.317284 0
M  V30 15 H 39.867303 28.335119 54.605656 0
M  V30 16 H 38.125683 28.217854 54.850825 0
M  V30 17 H 38.589062 32.246882 55.249334 0
M  V30 18 H 36.764026 29.964777 54.618049 0
M  V30 19 H 36.446418 31.305456 55.722740 0
M  V30 20 H 40.037398 31.075711 53.678899 0
M  V30 END ATOM
M  V30 BEGIN BOND
M  V30 1 1 2 1
M  V30 2 1 3 1
M  V30 3 1 4 3
M  V30 4 1 5 2
M  V30 5 1 5 4
M  V30 6 1 6 5
M  V30 7 2 7 6
M  V30 8 1 8 7
M  V30 9 1 9 1
M  V30 10 1 10 1
M  V30 11 1 11 2
M  V30 12 1 12 2
M  V30 13 1 13 3
M  V30 14 1 14 3
M  V30 15 1 15 4
M  V30 16 1 16 4
M  V30 17 1 17 7
M  V30 18 1 18 8
M  V30 19 1 19 8
M  V30 20 1 20 6
M  V30 END BOND
M  V30 END CTAB
M  END
>  <i_epik_Tot_Q>  (1) 
1

>  <i_epik_Tot_abs_Q>  (1) 
1

>  <i_i_glide_confnum>  (1) 
1

>  <i_i_glide_lignum>  (1) 
70

>  <i_i_glide_posenum>  (1) 
100

>  <i_i_glide_rotatable_bonds>  (1) 
1

>  <i_lp_mmshare_version>  (1) 
72125

>  <i_m_source_file_index>  (1) 
66

>  <i_f3d_flags>  (1) 
0

>  <num_sample>  (1) 
100

>  <b_lp_Chiralities_Consistent>  (1) 
1

>  <r_epik_Charging_Adjusted_Penalty>  (1) 
1.6312684749255997e-05

>  <r_epik_Ionization_Penalty>  (1) 
1.6401951855999153e-05

>  <r_epik_Ionization_Penalty_Charging>  (1) 
1.6312684749255997e-05

>  <r_epik_Ionization_Penalty_Neutral>  (1) 
8.9267106743156534e-08

>  <r_epik_State_Penalty>  (1) 
-0

>  <r_glide_ring_energy>  (1) 
0

>  <r_i_docking_score>  (1) 
-5.4323661529472762

>  <r_i_glide_ecoul>  (1) 
-4.8326174297010889

>  <r_i_glide_eff_state_penalty>  (1) 
-0

>  <r_i_glide_einternal>  (1) 
1.3920652913879881

>  <r_i_glide_emodel>  (1) 
-27.522964025961883

>  <r_i_glide_emodel_strain>  (1) 
0.035010094468400865

>  <r_i_glide_energy>  (1) 
-17.475456413699131

>  <r_i_glide_erotb>  (1) 
0

>  <r_i_glide_esite>  (1) 
-0.11361666266636039

>  <r_i_glide_evdw>  (1) 
-12.642838983998043

>  <r_i_glide_gscore>  (1) 
-5.4323661529472762

>  <r_i_glide_gscore_strain>  (1) 
0

>  <r_i_glide_hbond>  (1) 
-0.20159387642516091

>  <r_i_glide_ligand_efficiency>  (1) 
-0.67904576911840953

>  <r_i_glide_ligand_efficiency_ln>  (1) 
-1.764075102391429

>  <r_i_glide_ligand_efficiency_sa>  (1) 
-1.3580915382368193

>  <r_i_glide_lipo>  (1) 
-1.2177932471324051

>  <r_i_glide_metal>  (1) 
-0

>  <r_i_glide_rewards>  (1) 
-2.5423278030682841

>  <r_lp_Energy>  (1) 
13.886725999999999

>  <r_lp_tautomer_probability>  (1) 
1

>  <s_epik_Chemistry_Notes>  (1) 
This compound has an imine and may undergo hydrolysis.

>  <s_epik_cmdline>  (1) 
J2VwaWtfcHl0aG9uJywgJy1waHQnLCAnMS4wJywgJy1waCcsICc3LjQnLCAnLXRuJywgJzgnLCAnLW1hJywgJzUwMCcsICctaW1hZScsICc8aW5maWxlLm1hZT4nLCAnLW9tYWUnLCAnPG91dGZpbGUubWFlPic=

>  <s_epik_input>  (1) 
W0NIMl0xW0NIMl1bQ0gyXVtDSDJdTjEvTj1bQ0hdXFtOSDJd

>  <s_glide_docking_method>  (1) 
confgen

>  <s_i_glide_gridfile>  (1) 
gpcr_5ht2c_6bqh_protein_autoprepared_prepared

>  <s_lp_Force_Field>  (1) 
S-OPLS

>  <s_lp_Variant>  (1) 
Pocket2Mol_65_num_sample_100-2

>  <s_m_source_file>  (1) 
generated__ligand_Pocket2Mol_2026-05-06_prepared.sdf

>  <GenAI_Model>  (1) 
Pocket2Mol

>  <Protein>  (1) 
GPCR_5HT2C

$$$$
Pocket2Mol_0_num_sample_100
     RDKit          3D

  0  0  0  0  0  0  0  0  0  0999 V3000
M  V30 BEGIN CTAB
M  V30 COUNTS 19 19 0 0 1
M  V30 BEGIN ATOM
M  V30 1 C 38.586770 29.459415 54.534282 0
M  V30 2 C 39.046492 29.293829 53.138139 0
M  V30 3 C 39.867395 30.267338 52.510541 0
M  V30 4 C 38.654643 28.148700 52.409641 0
M  V30 5 C 39.067430 27.978784 51.075826 0
M  V30 6 C 39.867404 28.952829 50.456694 0
M  V30 7 C 40.269148 30.094248 51.172058 0
M  V30 8 C 38.893686 30.511384 55.318925 0
M  V30 9 C 38.389510 30.611091 56.694294 0
M  V30 10 N 38.667384 31.577276 57.454380 0
M  V30 11 H 37.959871 28.671943 54.930480 0
M  V30 12 H 40.180547 31.147371 53.048394 0
M  V30 13 H 38.032141 27.399535 52.876489 0
M  V30 14 H 38.763343 27.099652 50.525575 0
M  V30 15 H 40.178949 28.822618 49.431860 0
M  V30 16 H 40.889537 30.839508 50.694483 0
M  V30 17 H 39.515000 31.324678 54.979940 0
M  V30 18 H 37.749022 29.787018 57.020098 0
M  V30 19 H 38.209143 31.501381 58.351675 0
M  V30 END ATOM
M  V30 BEGIN BOND
M  V30 1 1 2 1
M  V30 2 1 3 2
M  V30 3 2 4 2
M  V30 4 1 5 4
M  V30 5 2 6 5
M  V30 6 2 7 3
M  V30 7 1 7 6
M  V30 8 2 8 1
M  V30 9 1 9 8
M  V30 10 2 10 9
M  V30 11 1 11 1
M  V30 12 1 12 3
M  V30 13 1 13 4
M  V30 14 1 14 5
M  V30 15 1 15 6
M  V30 16 1 16 7
M  V30 17 1 17 8
M  V30 18 1 18 9
M  V30 19 1 19 10
M  V30 END BOND
M  V30 END CTAB
M  END
>  <i_epik_Tot_Q>  (1) 
0

>  <i_epik_Tot_abs_Q>  (1) 
0

>  <i_i_glide_confnum>  (1) 
1

>  <i_i_glide_lignum>  (1) 
1

>  <i_i_glide_posenum>  (1) 
16

>  <i_i_glide_rotatable_bonds>  (1) 
2

>  <i_lp_mmshare_version>  (1) 
72125

>  <i_m_source_file_index>  (1) 
1

>  <i_f3d_flags>  (1) 
0

>  <num_sample>  (1) 
100

>  <b_lp_Chiralities_Consistent>  (1) 
1

>  <r_epik_Charging_Adjusted_Penalty>  (1) 
0

>  <r_epik_Ionization_Penalty>  (1) 
0

>  <r_epik_Ionization_Penalty_Charging>  (1) 
0

>  <r_epik_Ionization_Penalty_Neutral>  (1) 
0

>  <r_epik_State_Penalty>  (1) 
-0

>  <r_glide_ring_energy>  (1) 
0

>  <r_i_docking_score>  (1) 
-5.4227142877592422

>  <r_i_glide_ecoul>  (1) 
-0.95371741448343905

>  <r_i_glide_eff_state_penalty>  (1) 
-0

>  <r_i_glide_einternal>  (1) 
0.69744896507883047

>  <r_i_glide_emodel>  (1) 
-28.668909211388975

>  <r_i_glide_emodel_strain>  (1) 
0

>  <r_i_glide_energy>  (1) 
-21.469070005127914

>  <r_i_glide_erotb>  (1) 
0.80789427267668723

>  <r_i_glide_esite>  (1) 
-0.065443446290866333

>  <r_i_glide_evdw>  (1) 
-20.515352590644476

>  <r_i_glide_gscore>  (1) 
-5.4227142877592422

>  <r_i_glide_gscore_strain>  (1) 
0

>  <r_i_glide_hbond>  (1) 
0

>  <r_i_glide_ligand_efficiency>  (1) 
-0.54227142877592427

>  <r_i_glide_ligand_efficiency_ln>  (1) 
-1.6419605052002271

>  <r_i_glide_ligand_efficiency_sa>  (1) 
-1.1682883775680051

>  <r_i_glide_lipo>  (1) 
-2.1471607936286152

>  <r_i_glide_metal>  (1) 
-0

>  <r_i_glide_rewards>  (1) 
-2.8491790788117091

>  <r_lp_Energy>  (1) 
9.4498509999999989

>  <r_lp_tautomer_probability>  (1) 
1

>  <s_epik_Chemistry_Notes>  (1) 
This compound has an imine and may undergo hydrolysis.

>  <s_epik_cmdline>  (1) 
J2VwaWtfcHl0aG9uJywgJy1waHQnLCAnMS4wJywgJy1waCcsICc3LjQnLCAnLXRuJywgJzgnLCAnLW1hJywgJzUwMCcsICctaW1hZScsICc8aW5maWxlLm1hZT4nLCAnLW9tYWUnLCAnPG91dGZpbGUubWFlPic=

>  <s_epik_input>  (1) 
W0hdXE49W0NIXVxbQ0hdPVtDSF1cYzFbY0hdW2NIXVtjSF1bY0hdW2NIXTE=

>  <s_glide_docking_method>  (1) 
confgen

>  <s_i_glide_gridfile>  (1) 
gpcr_5ht2c_6bqh_protein_autoprepared_prepared

>  <s_lp_Force_Field>  (1) 
S-OPLS

>  <s_lp_Variant>  (1) 
Pocket2Mol_0_num_sample_100-1

>  <s_m_source_file>  (1) 
generated__ligand_Pocket2Mol_2026-05-06_prepared.sdf

>  <GenAI_Model>  (1) 
Pocket2Mol

>  <Protein>  (1) 
GPCR_5HT2C

$$$$
Pocket2Mol_59_num_sample_100
     RDKit          3D

  0  0  0  0  0  0  0  0  0  0999 V3000
M  V30 BEGIN CTAB
M  V30 COUNTS 16 16 0 0 1
M  V30 BEGIN ATOM
M  V30 1 C 39.127903 30.031307 54.136099 0
M  V30 2 C 39.859482 30.421437 52.997152 0
M  V30 3 C 39.841703 29.622441 51.837429 0
M  V30 4 N 40.561234 30.021490 50.707908 0
M  V30 5 C 38.378142 28.839616 54.118774 0
M  V30 6 C 39.089796 28.422190 51.821668 0
M  V30 7 N 39.067404 27.621393 50.682064 0
M  V30 8 C 38.359798 28.035132 52.963336 0
M  V30 9 H 39.141265 30.647736 55.023289 0
M  V30 10 H 40.430717 31.335690 53.012662 0
M  V30 11 H 40.941698 30.956262 50.653598 0
M  V30 12 H 40.397206 29.566836 49.824566 0
M  V30 13 H 37.817018 28.542331 54.992587 0
M  V30 14 H 39.465633 27.948250 49.817061 0
M  V30 15 H 38.433576 26.837022 50.614018 0
M  V30 16 H 37.784089 27.120658 52.952562 0
M  V30 END ATOM
M  V30 BEGIN BOND
M  V30 1 1 2 1
M  V30 2 2 3 2
M  V30 3 1 4 3
M  V30 4 2 5 1
M  V30 5 1 6 3
M  V30 6 1 7 6
M  V30 7 1 8 5
M  V30 8 2 8 6
M  V30 9 1 9 1
M  V30 10 1 10 2
M  V30 11 1 11 4
M  V30 12 1 12 4
M  V30 13 1 13 5
M  V30 14 1 14 7
M  V30 15 1 15 7
M  V30 16 1 16 8
M  V30 END BOND
M  V30 END CTAB
M  END
>  <i_epik_Tot_Q>  (1) 
0

>  <i_epik_Tot_abs_Q>  (1) 
0

>  <i_i_glide_confnum>  (1) 
1

>  <i_i_glide_lignum>  (1) 
63

>  <i_i_glide_posenum>  (1) 
358

>  <i_i_glide_rotatable_bonds>  (1) 
0

>  <i_lp_mmshare_version>  (1) 
72125

>  <i_m_source_file_index>  (1) 
60

>  <i_f3d_flags>  (1) 
0

>  <num_sample>  (1) 
100

>  <b_lp_Chiralities_Consistent>  (1) 
1

>  <r_epik_Charging_Adjusted_Penalty>  (1) 
0.0055702355519192566

>  <r_epik_Ionization_Penalty>  (1) 
0.0049730634188153225

>  <r_epik_Ionization_Penalty_Charging>  (1) 
0

>  <r_epik_Ionization_Penalty_Neutral>  (1) 
0.0049730634188153225

>  <r_epik_State_Penalty>  (1) 
0.0055702355519192566

>  <r_glide_ring_energy>  (1) 
0

>  <r_i_docking_score>  (1) 
-5.4157931888703894

>  <r_i_glide_ecoul>  (1) 
-1.5229307901499041

>  <r_i_glide_eff_state_penalty>  (1) 
0.0055702355519192566

>  <r_i_glide_einternal>  (1) 
0

>  <r_i_glide_emodel>  (1) 
-26.825452092168081

>  <r_i_glide_emodel_strain>  (1) 
2.4920865371313994e-10

>  <r_i_glide_energy>  (1) 
-20.127185232675998

>  <r_i_glide_erotb>  (1) 
0

>  <r_i_glide_esite>  (1) 
0

>  <r_i_glide_evdw>  (1) 
-18.604254442526095

>  <r_i_glide_gscore>  (1) 
-5.4213634244223083

>  <r_i_glide_gscore_strain>  (1) 
0

>  <r_i_glide_hbond>  (1) 
0

>  <r_i_glide_ligand_efficiency>  (1) 
-0.67697414860879868

>  <r_i_glide_ligand_efficiency_ln>  (1) 
-1.7586932940821709

>  <r_i_glide_ligand_efficiency_sa>  (1) 
-1.3539482972175976

>  <r_i_glide_lipo>  (1) 
-1.8077480639745702

>  <r_i_glide_metal>  (1) 
-0

>  <r_i_glide_rewards>  (1) 
-2.4549630197989472

>  <r_lp_Energy>  (1) 
13.721331999999999

>  <s_epik_cmdline>  (1) 
J2VwaWtfcHl0aG9uJywgJy1waHQnLCAnMS4wJywgJy1waCcsICc3LjQnLCAnLXRuJywgJzgnLCAnLW1hJywgJzUwMCcsICctaW1hZScsICc8aW5maWxlLm1hZT4nLCAnLW9tYWUnLCAnPG91dGZpbGUubWFlPic=

>  <s_epik_input>  (1) 
W05IMl1jMVtjSF1bY0hdW2NIXVtjSF1jMVtOSDJd

>  <s_glide_docking_method>  (1) 
confgen

>  <s_i_glide_gridfile>  (1) 
gpcr_5ht2c_6bqh_protein_autoprepared_prepared

>  <s_lp_Force_Field>  (1) 
S-OPLS

>  <s_lp_Variant>  (1) 
Pocket2Mol_59_num_sample_100-1

>  <s_m_source_file>  (1) 
generated__ligand_Pocket2Mol_2026-05-06_prepared.sdf

>  <GenAI_Model>  (1) 
Pocket2Mol

>  <Protein>  (1) 
GPCR_5HT2C

$$$$
Pocket2Mol_30_num_sample_100
     RDKit          3D

  0  0  0  0  0  0  0  0  0  0999 V3000
M  V30 BEGIN CTAB
M  V30 COUNTS 14 14 0 0 1
M  V30 BEGIN ATOM
M  V30 1 C 39.075337 29.626782 53.452141 0
M  V30 2 C 39.867403 30.303608 52.501170 0
M  V30 3 C 40.059760 29.747754 51.220174 0
M  V30 4 N 40.831534 30.421428 50.275177 0
M  V30 5 C 38.481361 28.392638 53.123479 0
M  V30 6 C 39.467403 28.511499 50.894788 0
M  V30 7 C 38.678917 27.834732 51.845802 0
M  V30 8 H 38.924044 30.055127 54.432185 0
M  V30 9 H 40.320748 31.249767 52.753661 0
M  V30 10 H 40.828354 30.118121 49.312989 0
M  V30 11 H 41.112471 31.380355 50.433419 0
M  V30 12 H 37.874303 27.874026 53.851348 0
M  V30 13 H 39.612461 28.084006 49.914339 0
M  V30 14 H 38.223291 26.888857 51.593221 0
M  V30 END ATOM
M  V30 BEGIN BOND
M  V30 1 1 2 1
M  V30 2 2 3 2
M  V30 3 1 4 3
M  V30 4 2 5 1
M  V30 5 1 6 3
M  V30 6 1 7 5
M  V30 7 2 7 6
M  V30 8 1 8 1
M  V30 9 1 9 2
M  V30 10 1 10 4
M  V30 11 1 11 4
M  V30 12 1 12 5
M  V30 13 1 13 6
M  V30 14 1 14 7
M  V30 END BOND
M  V30 END CTAB
M  END
>  <i_epik_Tot_Q>  (1) 
0

>  <i_epik_Tot_abs_Q>  (1) 
0

>  <i_i_glide_confnum>  (1) 
1

>  <i_i_glide_lignum>  (1) 
33

>  <i_i_glide_posenum>  (1) 
243

>  <i_i_glide_rotatable_bonds>  (1) 
0

>  <i_lp_mmshare_version>  (1) 
72125

>  <i_m_source_file_index>  (1) 
31

>  <i_f3d_flags>  (1) 
0

>  <num_sample>  (1) 
100

>  <b_lp_Chiralities_Consistent>  (1) 
1

>  <r_epik_Charging_Adjusted_Penalty>  (1) 
0

>  <r_epik_Ionization_Penalty>  (1) 
0.00088153335660618348

>  <r_epik_Ionization_Penalty_Charging>  (1) 
0

>  <r_epik_Ionization_Penalty_Neutral>  (1) 
0.00088153335660618348

>  <r_epik_State_Penalty>  (1) 
-0

>  <r_glide_ring_energy>  (1) 
0

>  <r_i_docking_score>  (1) 
-5.4114273697806485

>  <r_i_glide_ecoul>  (1) 
-1.2517893855329429

>  <r_i_glide_eff_state_penalty>  (1) 
-0

>  <r_i_glide_einternal>  (1) 
0

>  <r_i_glide_emodel>  (1) 
-24.664301418521895

>  <r_i_glide_emodel_strain>  (1) 
0

>  <r_i_glide_energy>  (1) 
-18.651692661424946

>  <r_i_glide_erotb>  (1) 
0

>  <r_i_glide_esite>  (1) 
0

>  <r_i_glide_evdw>  (1) 
-17.399903275892004

>  <r_i_glide_gscore>  (1) 
-5.4114273697806485

>  <r_i_glide_gscore_strain>  (1) 
0

>  <r_i_glide_hbond>  (1) 
0

>  <r_i_glide_ligand_efficiency>  (1) 
-0.77306105282580695

>  <r_i_glide_ligand_efficiency_ln>  (1) 
-1.836928859325859

>  <r_i_glide_ligand_efficiency_sa>  (1) 
-1.4788125941373393

>  <r_i_glide_lipo>  (1) 
-1.8504781815665758

>  <r_i_glide_metal>  (1) 
-0

>  <r_i_glide_rewards>  (1) 
-2.5031856165895308

>  <r_lp_Energy>  (1) 
7.0325409999999993

>  <r_lp_tautomer_probability>  (1) 
1

>  <s_epik_cmdline>  (1) 
J2VwaWtfcHl0aG9uJywgJy1waHQnLCAnMS4wJywgJy1waCcsICc3LjQnLCAnLXRuJywgJzgnLCAnLW1hJywgJzUwMCcsICctaW1hZScsICc8aW5maWxlLm1hZT4nLCAnLW9tYWUnLCAnPG91dGZpbGUubWFlPic=

>  <s_epik_input>  (1) 
W2NIXTFbY0hdW2NIXVtjSF1bY0hdYzFbTkgyXQ==

>  <s_glide_docking_method>  (1) 
confgen

>  <s_i_glide_gridfile>  (1) 
gpcr_5ht2c_6bqh_protein_autoprepared_prepared

>  <s_lp_Force_Field>  (1) 
S-OPLS

>  <s_lp_Variant>  (1) 
Pocket2Mol_30_num_sample_100-1

>  <s_m_source_file>  (1) 
generated__ligand_Pocket2Mol_2026-05-06_prepared.sdf

>  <GenAI_Model>  (1) 
Pocket2Mol

>  <Protein>  (1) 
GPCR_5HT2C

$$$$
Pocket2Mol_85_num_sample_100
     RDKit          3D

  0  0  0  0  0  0  0  0  0  0999 V3000
M  V30 BEGIN CTAB
M  V30 COUNTS 14 14 0 0 1
M  V30 BEGIN ATOM
M  V30 1 C 39.867403 30.421431 52.212506 0
M  V30 2 C 39.312346 29.902590 53.338131 0
M  V30 3 C 39.819663 29.508161 51.273929 0
M  V30 4 C 38.912650 28.653812 53.096886 0
M  V30 5 O 40.267401 29.621429 50.017263 0
M  V30 6 C 39.174326 28.120373 51.609953 0
M  V30 7 C 38.236953 27.693685 54.122533 0
M  V30 8 O 37.931345 26.560703 53.694772 0
M  V30 9 O 38.071691 28.152425 55.273312 0 CHG=-1
M  V30 10 H 40.281067 31.414017 52.111310 0
M  V30 11 H 39.215746 30.417788 54.283077 0
M  V30 12 H 40.608242 30.497170 49.918915 0
M  V30 13 H 38.253274 27.924040 51.060484 0
M  V30 14 H 39.867403 27.281681 51.572253 0
M  V30 END ATOM
M  V30 BEGIN BOND
M  V30 1 1 2 1
M  V30 2 2 3 1
M  V30 3 2 4 2
M  V30 4 1 5 3
M  V30 5 1 6 3
M  V30 6 1 6 4
M  V30 7 1 7 4
M  V30 8 2 8 7
M  V30 9 1 9 7
M  V30 10 1 10 1
M  V30 11 1 11 2
M  V30 12 1 12 5
M  V30 13 1 13 6
M  V30 14 1 14 6
M  V30 END BOND
M  V30 END CTAB
M  END
>  <i_epik_Tot_Q>  (1) 
-1

>  <i_epik_Tot_abs_Q>  (1) 
1

>  <i_i_glide_confnum>  (1) 
1

>  <i_i_glide_lignum>  (1) 
90

>  <i_i_glide_posenum>  (1) 
19

>  <i_i_glide_rotatable_bonds>  (1) 
2

>  <i_lp_mmshare_version>  (1) 
72125

>  <i_m_source_file_index>  (1) 
86

>  <i_f3d_flags>  (1) 
0

>  <num_sample>  (1) 
100

>  <b_lp_Chiralities_Consistent>  (1) 
1

>  <r_epik_Charging_Adjusted_Penalty>  (1) 
0.00019237637697373591

>  <r_epik_Ionization_Penalty>  (1) 
0.0032632994418700166

>  <r_epik_Ionization_Penalty_Charging>  (1) 
0.00019237637697373591

>  <r_epik_Ionization_Penalty_Neutral>  (1) 
0.0030709230648962808

>  <r_epik_State_Penalty>  (1) 
-0

>  <r_glide_ring_energy>  (1) 
0

>  <r_i_docking_score>  (1) 
-5.4036408808390846

>  <r_i_glide_ecoul>  (1) 
-0.20174093278392347

>  <r_i_glide_eff_state_penalty>  (1) 
-0

>  <r_i_glide_einternal>  (1) 
0.0054396402957781476

>  <r_i_glide_emodel>  (1) 
-25.035143474292195

>  <r_i_glide_emodel_strain>  (1) 
0

>  <r_i_glide_energy>  (1) 
-17.249534628444195

>  <r_i_glide_erotb>  (1) 
0

>  <r_i_glide_esite>  (1) 
0

>  <r_i_glide_evdw>  (1) 
-17.047793695660271

>  <r_i_glide_gscore>  (1) 
-5.4036408808390846

>  <r_i_glide_gscore_strain>  (1) 
0

>  <r_i_glide_hbond>  (1) 
0

>  <r_i_glide_ligand_efficiency>  (1) 
-0.60040454231545382

>  <r_i_glide_ligand_efficiency_ln>  (1) 
-1.6901036352413972

>  <r_i_glide_ligand_efficiency_sa>  (1) 
-1.2488917757572582

>  <r_i_glide_lipo>  (1) 
-1.5014593474458071

>  <r_i_glide_metal>  (1) 
-0

>  <r_i_glide_rewards>  (1) 
-3.0195307086926757

>  <r_lp_Energy>  (1) 
1.821912

>  <r_lp_tautomer_probability>  (1) 
1

>  <s_epik_cmdline>  (1) 
J2VwaWtfcHl0aG9uJywgJy1waHQnLCAnMS4wJywgJy1waCcsICc3LjQnLCAnLXRuJywgJzgnLCAnLW1hJywgJzUwMCcsICctaW1hZScsICc8aW5maWxlLm1hZT4nLCAnLW9tYWUnLCAnPG91dGZpbGUubWFlPic=

>  <s_epik_input>  (1) 
W09IXUMxPVtDSF1bQ0hdPUMoW0NIMl0xKUMoPU8pW09IXQ==

>  <s_glide_docking_method>  (1) 
confgen

>  <s_i_glide_gridfile>  (1) 
gpcr_5ht2c_6bqh_protein_autoprepared_prepared

>  <s_lp_Force_Field>  (1) 
S-OPLS

>  <s_lp_Variant>  (1) 
Pocket2Mol_85_num_sample_100-1

>  <s_m_source_file>  (1) 
generated__ligand_Pocket2Mol_2026-05-06_prepared.sdf

>  <GenAI_Model>  (1) 
Pocket2Mol

>  <Protein>  (1) 
GPCR_5HT2C

$$$$
Pocket2Mol_47_num_sample_100
     RDKit          3D

  0  0  0  0  0  0  0  0  0  0999 V3000
M  V30 BEGIN CTAB
M  V30 COUNTS 20 20 0 0 1
M  V30 BEGIN ATOM
M  V30 1 C 38.667403 28.769409 53.908006 0
M  V30 2 O 37.895593 28.278555 52.829345 0
M  V30 3 C 38.635155 27.544345 51.862189 0
M  V30 4 C 39.128077 30.204239 53.606820 0
M  V30 5 O 40.078310 30.319849 52.546790 0
M  V30 6 C 39.741942 29.782349 51.266024 0 CFG=1
M  V30 7 C 40.695151 30.421396 50.253501 0
M  V30 8 C 39.867121 28.263701 51.289375 0
M  V30 9 H 38.017116 28.794283 54.782753 0
M  V30 10 H 39.487993 28.101205 54.162690 0
M  V30 11 H 38.934877 26.584416 52.283036 0
M  V30 12 H 37.941983 27.319438 51.053522 0
M  V30 13 H 38.267491 30.853399 53.453500 0
M  V30 14 H 39.618482 30.598243 54.497164 0
M  V30 15 H 38.729170 30.021429 50.959100 0
M  V30 16 H 40.546734 30.006472 49.256971 0
M  V30 17 H 40.524570 31.495301 50.189918 0
M  V30 18 H 41.737276 30.264010 50.533011 0
M  V30 19 H 40.760795 28.021430 51.853498 0
M  V30 20 H 40.040117 27.879276 50.283462 0
M  V30 END ATOM
M  V30 BEGIN BOND
M  V30 1 1 2 1
M  V30 2 1 3 2
M  V30 3 1 4 1
M  V30 4 1 5 4
M  V30 5 1 6 5
M  V30 6 1 7 6
M  V30 7 1 8 3
M  V30 8 1 8 6
M  V30 9 1 9 1
M  V30 10 1 10 1
M  V30 11 1 11 3
M  V30 12 1 12 3
M  V30 13 1 13 4
M  V30 14 1 14 4
M  V30 15 1 6 15 CFG=3
M  V30 16 1 16 7
M  V30 17 1 17 7
M  V30 18 1 18 7
M  V30 19 1 19 8
M  V30 20 1 20 8
M  V30 END BOND
M  V30 END CTAB
M  END
>  <i_epik_Tot_Q>  (1) 
0

>  <i_epik_Tot_abs_Q>  (1) 
0

>  <i_i_glide_confnum>  (1) 
3

>  <i_i_glide_lignum>  (1) 
50

>  <i_i_glide_posenum>  (1) 
125

>  <i_i_glide_rotatable_bonds>  (1) 
0

>  <i_lp_mmshare_version>  (1) 
72125

>  <i_m_source_file_index>  (1) 
48

>  <i_f3d_flags>  (1) 
0

>  <num_sample>  (1) 
100

>  <b_lp_Chiralities_Consistent>  (1) 
1

>  <r_epik_Charging_Adjusted_Penalty>  (1) 
0

>  <r_epik_Ionization_Penalty>  (1) 
4.0259461194199272e-12

>  <r_epik_Ionization_Penalty_Charging>  (1) 
0

>  <r_epik_Ionization_Penalty_Neutral>  (1) 
4.0259461194199272e-12

>  <r_epik_State_Penalty>  (1) 
-0

>  <r_glide_ring_energy>  (1) 
0.19121708349067734

>  <r_i_docking_score>  (1) 
-5.403471762992762

>  <r_i_glide_ecoul>  (1) 
-0.2873334633808533

>  <r_i_glide_eff_state_penalty>  (1) 
-0

>  <r_i_glide_einternal>  (1) 
0

>  <r_i_glide_emodel>  (1) 
-23.60580090798631

>  <r_i_glide_emodel_strain>  (1) 
0

>  <r_i_glide_energy>  (1) 
-17.564530265071937

>  <r_i_glide_erotb>  (1) 
0

>  <r_i_glide_esite>  (1) 
0

>  <r_i_glide_evdw>  (1) 
-17.277196801691083

>  <r_i_glide_gscore>  (1) 
-5.403471762992762

>  <r_i_glide_gscore_strain>  (1) 
0

>  <r_i_glide_hbond>  (1) 
0

>  <r_i_glide_ligand_efficiency>  (1) 
-0.67543397037409525

>  <r_i_glide_ligand_efficiency_ln>  (1) 
-1.7546921056488598

>  <r_i_glide_ligand_efficiency_sa>  (1) 
-1.3508679407481907

>  <r_i_glide_lipo>  (1) 
-1.7980549755734851

>  <r_i_glide_metal>  (1) 
-0

>  <r_i_glide_rewards>  (1) 
-2.6984569278275941

>  <r_lp_Energy>  (1) 
6.6371139999999995

>  <r_lp_tautomer_probability>  (1) 
1

>  <s_epik_cmdline>  (1) 
J2VwaWtfcHl0aG9uJywgJy1waHQnLCAnMS4wJywgJy1waCcsICc3LjQnLCAnLXRuJywgJzgnLCAnLW1hJywgJzUwMCcsICctaW1hZScsICc8aW5maWxlLm1hZT4nLCAnLW9tYWUnLCAnPG91dGZpbGUubWFlPic=

>  <s_epik_input>  (1) 
W0NIMl0xW0NIMl1PW0NIMl1bQ0gyXU9bQ0BIXTFbQ0gzXQ==

>  <s_glide_docking_method>  (1) 
confgen

>  <s_i_glide_gridfile>  (1) 
gpcr_5ht2c_6bqh_protein_autoprepared_prepared

>  <s_lp_Force_Field>  (1) 
S-OPLS

>  <s_lp_Variant>  (1) 
Pocket2Mol_47_num_sample_100-1

>  <s_m_source_file>  (1) 
generated__ligand_Pocket2Mol_2026-05-06_prepared.sdf

>  <GenAI_Model>  (1) 
Pocket2Mol

>  <Protein>  (1) 
GPCR_5HT2C

$$$$
Pocket2Mol_56_num_sample_100
     RDKit          3D

  0  0  0  0  0  0  0  0  0  0999 V3000
M  V30 BEGIN CTAB
M  V30 COUNTS 17 17 0 0 1
M  V30 BEGIN ATOM
M  V30 1 C 39.867141 30.143804 52.591457 0
M  V30 2 C 39.313040 30.472697 53.838906 0
M  V30 3 C 38.253758 29.684062 54.339185 0
M  V30 4 C 37.611949 30.012249 55.671361 0
M  V30 5 C 39.339412 29.040464 51.897023 0
M  V30 6 C 39.879727 28.648806 50.541162 0
M  V30 7 C 38.286410 28.308927 52.481911 0
M  V30 8 N 37.743851 28.613356 53.683630 0
M  V30 9 H 40.667412 30.732219 52.171963 0
M  V30 10 H 39.684462 31.317960 54.398962 0
M  V30 11 H 37.920075 30.990919 56.041847 0
M  V30 12 H 36.525784 30.021439 55.567344 0
M  V30 13 H 37.872938 29.258488 56.415145 0
M  V30 14 H 40.667483 29.323904 50.207378 0
M  V30 15 H 40.267155 27.629667 50.562657 0
M  V30 16 H 39.068243 28.688484 49.815555 0
M  V30 17 H 37.861986 27.459502 51.967574 0
M  V30 END ATOM
M  V30 BEGIN BOND
M  V30 1 2 2 1
M  V30 2 1 3 2
M  V30 3 1 4 3
M  V30 4 1 5 1
M  V30 5 1 6 5
M  V30 6 2 7 5
M  V30 7 2 8 3
M  V30 8 1 8 7
M  V30 9 1 9 1
M  V30 10 1 10 2
M  V30 11 1 11 4
M  V30 12 1 12 4
M  V30 13 1 13 4
M  V30 14 1 14 6
M  V30 15 1 15 6
M  V30 16 1 16 6
M  V30 17 1 17 7
M  V30 END BOND
M  V30 END CTAB
M  END
>  <i_epik_Tot_Q>  (1) 
0

>  <i_epik_Tot_abs_Q>  (1) 
0

>  <i_i_glide_confnum>  (1) 
1

>  <i_i_glide_lignum>  (1) 
60

>  <i_i_glide_posenum>  (1) 
59

>  <i_i_glide_rotatable_bonds>  (1) 
0

>  <i_lp_mmshare_version>  (1) 
72125

>  <i_m_source_file_index>  (1) 
57

>  <i_f3d_flags>  (1) 
0

>  <num_sample>  (1) 
100

>  <b_lp_Chiralities_Consistent>  (1) 
1

>  <r_epik_Charging_Adjusted_Penalty>  (1) 
0.022258434784609007

>  <r_epik_Ionization_Penalty>  (1) 
0.022258434785048374

>  <r_epik_Ionization_Penalty_Charging>  (1) 
0

>  <r_epik_Ionization_Penalty_Neutral>  (1) 
0.022258434785048374

>  <r_epik_State_Penalty>  (1) 
0.022258434784609007

>  <r_glide_ring_energy>  (1) 
0

>  <r_i_docking_score>  (1) 
-5.3924054760539404

>  <r_i_glide_ecoul>  (1) 
-1.4207202120896896

>  <r_i_glide_eff_state_penalty>  (1) 
0.022258434784609007

>  <r_i_glide_einternal>  (1) 
0

>  <r_i_glide_emodel>  (1) 
-25.400343463252398

>  <r_i_glide_emodel_strain>  (1) 
0

>  <r_i_glide_energy>  (1) 
-18.928985146872137

>  <r_i_glide_erotb>  (1) 
0

>  <r_i_glide_esite>  (1) 
0

>  <r_i_glide_evdw>  (1) 
-17.508264934782446

>  <r_i_glide_gscore>  (1) 
-5.4146639108385495

>  <r_i_glide_gscore_strain>  (1) 
0

>  <r_i_glide_hbond>  (1) 
0

>  <r_i_glide_ligand_efficiency>  (1) 
-0.67405068450674255

>  <r_i_glide_ligand_efficiency_ln>  (1) 
-1.751098503760647

>  <r_i_glide_ligand_efficiency_sa>  (1) 
-1.3481013690134853

>  <r_i_glide_lipo>  (1) 
-1.7870601434923885

>  <r_i_glide_metal>  (1) 
-0

>  <r_i_glide_rewards>  (1) 
-2.5390824887935848

>  <r_lp_Energy>  (1) 
7.9607329999999994

>  <s_epik_cmdline>  (1) 
J2VwaWtfcHl0aG9uJywgJy1waHQnLCAnMS4wJywgJy1waCcsICc3LjQnLCAnLXRuJywgJzgnLCAnLW1hJywgJzUwMCcsICctaW1hZScsICc8aW5maWxlLm1hZT4nLCAnLW9tYWUnLCAnPG91dGZpbGUubWFlPic=

>  <s_epik_input>  (1) 
bjFbY0hdYyhbQ0gzXSlbY0hdW2NIXWMxW0NIM10=

>  <s_glide_docking_method>  (1) 
confgen

>  <s_i_glide_gridfile>  (1) 
gpcr_5ht2c_6bqh_protein_autoprepared_prepared

>  <s_lp_Force_Field>  (1) 
S-OPLS

>  <s_lp_Variant>  (1) 
Pocket2Mol_56_num_sample_100-1

>  <s_m_source_file>  (1) 
generated__ligand_Pocket2Mol_2026-05-06_prepared.sdf

>  <GenAI_Model>  (1) 
Pocket2Mol

>  <Protein>  (1) 
GPCR_5HT2C

$$$$
Pocket2Mol_90_num_sample_100
     RDKit          3D

  0  0  0  0  0  0  0  0  0  0999 V3000
M  V30 BEGIN CTAB
M  V30 COUNTS 14 14 0 0 1
M  V30 BEGIN ATOM
M  V30 1 C 39.584117 28.721436 51.768786 0
M  V30 2 C 39.467404 29.819191 52.693430 0
M  V30 3 C 38.508214 29.559137 53.593834 0
M  V30 4 C 37.962486 28.226181 53.259775 0
M  V30 5 C 38.702055 27.763415 52.080968 0
M  V30 6 C 38.136384 30.498375 54.653506 0
M  V30 7 O 37.067404 27.623204 53.849674 0
M  V30 8 N 37.124703 30.046349 55.399929 0
M  V30 9 O 38.667409 31.588756 54.850489 0
M  V30 10 H 40.278788 28.678551 50.942601 0
M  V30 11 H 40.058614 30.724105 52.659638 0
M  V30 12 H 38.537778 26.821429 51.581706 0
M  V30 13 H 36.717534 29.142063 55.202343 0
M  V30 14 H 36.750376 30.624970 56.151482 0
M  V30 END ATOM
M  V30 BEGIN BOND
M  V30 1 1 2 1
M  V30 2 2 3 2
M  V30 3 1 4 3
M  V30 4 2 5 1
M  V30 5 1 5 4
M  V30 6 1 6 3
M  V30 7 2 7 4
M  V30 8 1 8 6
M  V30 9 2 9 6
M  V30 10 1 10 1
M  V30 11 1 11 2
M  V30 12 1 12 5
M  V30 13 1 13 8
M  V30 14 1 14 8
M  V30 END BOND
M  V30 END CTAB
M  END
>  <i_epik_Tot_Q>  (1) 
0

>  <i_epik_Tot_abs_Q>  (1) 
0

>  <i_i_glide_confnum>  (1) 
1

>  <i_i_glide_lignum>  (1) 
95

>  <i_i_glide_posenum>  (1) 
372

>  <i_i_glide_rotatable_bonds>  (1) 
1

>  <i_lp_mmshare_version>  (1) 
72125

>  <i_m_source_file_index>  (1) 
91

>  <i_f3d_flags>  (1) 
0

>  <num_sample>  (1) 
100

>  <b_lp_Chiralities_Consistent>  (1) 
1

>  <r_epik_Charging_Adjusted_Penalty>  (1) 
0.0065050288304222097

>  <r_epik_Ionization_Penalty>  (1) 
0.0032614418865694397

>  <r_epik_Ionization_Penalty_Charging>  (1) 
0

>  <r_epik_Ionization_Penalty_Neutral>  (1) 
0.0032614418865694397

>  <r_epik_State_Penalty>  (1) 
0.0065050288304222097

>  <r_glide_ring_energy>  (1) 
0

>  <r_i_docking_score>  (1) 
-5.3849860017920346

>  <r_i_glide_ecoul>  (1) 
-1.9922502425818511

>  <r_i_glide_eff_state_penalty>  (1) 
0.0065050288304222097

>  <r_i_glide_einternal>  (1) 
0.020636841673599582

>  <r_i_glide_emodel>  (1) 
-29.900998724637688

>  <r_i_glide_emodel_strain>  (1) 
5.1370776077419578e-08

>  <r_i_glide_energy>  (1) 
-22.009035406716652

>  <r_i_glide_erotb>  (1) 
0

>  <r_i_glide_esite>  (1) 
-0.083407469322567929

>  <r_i_glide_evdw>  (1) 
-20.016785164134802

>  <r_i_glide_gscore>  (1) 
-5.3914910306224568

>  <r_i_glide_gscore_strain>  (1) 
0

>  <r_i_glide_hbond>  (1) 
-0.15965348715737665

>  <r_i_glide_ligand_efficiency>  (1) 
-0.59833177797689274

>  <r_i_glide_ligand_efficiency_ln>  (1) 
-1.6842689249807272

>  <r_i_glide_ligand_efficiency_sa>  (1) 
-1.2445802521876184

>  <r_i_glide_lipo>  (1) 
-1.0950583103350409

>  <r_i_glide_metal>  (1) 
-0

>  <r_i_glide_rewards>  (1) 
-2.7536949692134529

>  <r_lp_Energy>  (1) 
1.7710899999999998

>  <s_epik_cmdline>  (1) 
J2VwaWtfcHl0aG9uJywgJy1waHQnLCAnMS4wJywgJy1waCcsICc3LjQnLCAnLXRuJywgJzgnLCAnLW1hJywgJzUwMCcsICctaW1hZScsICc8aW5maWxlLm1hZT4nLCAnLW9tYWUnLCAnPG91dGZpbGUubWFlPic=

>  <s_epik_input>  (1) 
Tz1DMVtDSF09W0NIXVtDSF09QzFDKD1PKVtOSDJd

>  <s_glide_docking_method>  (1) 
confgen

>  <s_i_glide_gridfile>  (1) 
gpcr_5ht2c_6bqh_protein_autoprepared_prepared

>  <s_lp_Force_Field>  (1) 
S-OPLS

>  <s_lp_Variant>  (1) 
Pocket2Mol_90_num_sample_100-1

>  <s_m_source_file>  (1) 
generated__ligand_Pocket2Mol_2026-05-06_prepared.sdf

>  <GenAI_Model>  (1) 
Pocket2Mol

>  <Protein>  (1) 
GPCR_5HT2C

$$$$
Pocket2Mol_10_num_sample_100
     RDKit          3D

  0  0  0  0  0  0  0  0  0  0999 V3000
M  V30 BEGIN CTAB
M  V30 COUNTS 12 12 0 0 1
M  V30 BEGIN ATOM
M  V30 1 C 38.661508 28.825186 53.356941 0
M  V30 2 C 39.467403 29.818900 52.707021 0
M  V30 3 C 39.867369 29.442957 51.445684 0
M  V30 4 C 40.697746 30.217338 50.478525 0
M  V30 5 C 38.463972 27.712943 52.580174 0
M  V30 6 S 39.262814 27.864163 51.053501 0
M  V30 7 H 38.262464 28.963750 54.351367 0
M  V30 8 H 39.716933 30.758589 53.178663 0
M  V30 9 H 40.496406 31.283887 50.564645 0
M  V30 10 H 41.761468 30.058829 50.653506 0
M  V30 11 H 40.477431 29.920834 49.453287 0
M  V30 12 H 37.899269 26.821473 52.813715 0
M  V30 END ATOM
M  V30 BEGIN BOND
M  V30 1 1 2 1
M  V30 2 2 3 2
M  V30 3 1 4 3
M  V30 4 2 5 1
M  V30 5 1 6 3
M  V30 6 1 6 5
M  V30 7 1 7 1
M  V30 8 1 8 2
M  V30 9 1 9 4
M  V30 10 1 10 4
M  V30 11 1 11 4
M  V30 12 1 12 5
M  V30 END BOND
M  V30 END CTAB
M  END
>  <i_epik_Tot_Q>  (1) 
0

>  <i_epik_Tot_abs_Q>  (1) 
0

>  <i_i_glide_confnum>  (1) 
1

>  <i_i_glide_lignum>  (1) 
13

>  <i_i_glide_posenum>  (1) 
317

>  <i_i_glide_rotatable_bonds>  (1) 
0

>  <i_lp_mmshare_version>  (1) 
72125

>  <i_m_source_file_index>  (1) 
11

>  <i_f3d_flags>  (1) 
0

>  <num_sample>  (1) 
100

>  <b_lp_Chiralities_Consistent>  (1) 
1

>  <r_epik_Charging_Adjusted_Penalty>  (1) 
0

>  <r_epik_Ionization_Penalty>  (1) 
0

>  <r_epik_Ionization_Penalty_Charging>  (1) 
0

>  <r_epik_Ionization_Penalty_Neutral>  (1) 
0

>  <r_epik_State_Penalty>  (1) 
-0

>  <r_glide_ring_energy>  (1) 
0

>  <r_i_docking_score>  (1) 
-5.3802491446651315

>  <r_i_glide_ecoul>  (1) 
-0.86256312399524915

>  <r_i_glide_eff_state_penalty>  (1) 
-0

>  <r_i_glide_einternal>  (1) 
0

>  <r_i_glide_emodel>  (1) 
-24.5757170520336

>  <r_i_glide_emodel_strain>  (1) 
0.0093107230487539105

>  <r_i_glide_energy>  (1) 
-18.690657607337979

>  <r_i_glide_erotb>  (1) 
0

>  <r_i_glide_esite>  (1) 
0

>  <r_i_glide_evdw>  (1) 
-17.828094483342731

>  <r_i_glide_gscore>  (1) 
-5.3802491446651315

>  <r_i_glide_gscore_strain>  (1) 
0

>  <r_i_glide_hbond>  (1) 
0

>  <r_i_glide_ligand_efficiency>  (1) 
-0.89670819077752195

>  <r_i_glide_ligand_efficiency_ln>  (1) 
-1.9271893599604466

>  <r_i_glide_ligand_efficiency_sa>  (1) 
-1.6294269192230861

>  <r_i_glide_lipo>  (1) 
-1.841724058838532

>  <r_i_glide_metal>  (1) 
-0

>  <r_i_glide_rewards>  (1) 
-2.5177358930601756

>  <r_lp_Energy>  (1) 
3.145988

>  <r_lp_tautomer_probability>  (1) 
1

>  <s_epik_cmdline>  (1) 
J2VwaWtfcHl0aG9uJywgJy1waHQnLCAnMS4wJywgJy1waCcsICc3LjQnLCAnLXRuJywgJzgnLCAnLW1hJywgJzUwMCcsICctaW1hZScsICc8aW5maWxlLm1hZT4nLCAnLW9tYWUnLCAnPG91dGZpbGUubWFlPic=

>  <s_epik_input>  (1) 
czFbY0hdW2NIXVtjSF1jMVtDSDNd

>  <s_glide_docking_method>  (1) 
confgen

>  <s_i_glide_gridfile>  (1) 
gpcr_5ht2c_6bqh_protein_autoprepared_prepared

>  <s_lp_Force_Field>  (1) 
S-OPLS

>  <s_lp_Variant>  (1) 
Pocket2Mol_10_num_sample_100-1

>  <s_m_source_file>  (1) 
generated__ligand_Pocket2Mol_2026-05-06_prepared.sdf

>  <GenAI_Model>  (1) 
Pocket2Mol

>  <Protein>  (1) 
GPCR_5HT2C

$$$$
Pocket2Mol_10_num_sample_100
     RDKit          3D

  0  0  0  0  0  0  0  0  0  0999 V3000
M  V30 BEGIN CTAB
M  V30 COUNTS 12 12 0 0 1
M  V30 BEGIN ATOM
M  V30 1 C 39.867405 28.791267 50.528492 0
M  V30 2 C 40.057312 29.862137 51.458793 0
M  V30 3 C 39.467398 29.622330 52.677170 0
M  V30 4 C 39.457516 30.505296 53.878262 0
M  V30 5 C 39.137946 27.754252 51.053501 0
M  V30 6 S 38.667403 28.079411 52.684703 0
M  V30 7 H 40.266145 28.821360 49.525072 0
M  V30 8 H 40.610499 30.755356 51.205898 0
M  V30 9 H 39.999525 31.430399 53.687394 0
M  V30 10 H 38.436886 30.768832 54.157363 0
M  V30 11 H 39.926371 30.010576 54.728990 0
M  V30 12 H 38.848624 26.827862 50.576425 0
M  V30 END ATOM
M  V30 BEGIN BOND
M  V30 1 1 2 1
M  V30 2 2 3 2
M  V30 3 1 4 3
M  V30 4 2 5 1
M  V30 5 1 6 3
M  V30 6 1 6 5
M  V30 7 1 7 1
M  V30 8 1 8 2
M  V30 9 1 9 4
M  V30 10 1 10 4
M  V30 11 1 11 4
M  V30 12 1 12 5
M  V30 END BOND
M  V30 END CTAB
M  END
>  <i_epik_Tot_Q>  (1) 
0

>  <i_epik_Tot_abs_Q>  (1) 
0

>  <i_i_glide_confnum>  (1) 
1

>  <i_i_glide_lignum>  (1) 
13

>  <i_i_glide_posenum>  (1) 
162

>  <i_i_glide_rotatable_bonds>  (1) 
0

>  <i_lp_mmshare_version>  (1) 
72125

>  <i_m_source_file_index>  (1) 
11

>  <i_f3d_flags>  (1) 
0

>  <num_sample>  (1) 
100

>  <b_lp_Chiralities_Consistent>  (1) 
1

>  <r_epik_Charging_Adjusted_Penalty>  (1) 
0

>  <r_epik_Ionization_Penalty>  (1) 
0

>  <r_epik_Ionization_Penalty_Charging>  (1) 
0

>  <r_epik_Ionization_Penalty_Neutral>  (1) 
0

>  <r_epik_State_Penalty>  (1) 
-0

>  <r_glide_ring_energy>  (1) 
0

>  <r_i_docking_score>  (1) 
-5.3752054538575962

>  <r_i_glide_ecoul>  (1) 
-1.0375869096344346

>  <r_i_glide_eff_state_penalty>  (1) 
-0

>  <r_i_glide_einternal>  (1) 
0

>  <r_i_glide_emodel>  (1) 
-23.923936857527085

>  <r_i_glide_emodel_strain>  (1) 
0

>  <r_i_glide_energy>  (1) 
-18.03509234107355

>  <r_i_glide_erotb>  (1) 
0

>  <r_i_glide_esite>  (1) 
0

>  <r_i_glide_evdw>  (1) 
-16.997505431439116

>  <r_i_glide_gscore>  (1) 
-5.3752054538575962

>  <r_i_glide_gscore_strain>  (1) 
0

>  <r_i_glide_hbond>  (1) 
0

>  <r_i_glide_ligand_efficiency>  (1) 
-0.89586757564293273

>  <r_i_glide_ligand_efficiency_ln>  (1) 
-1.9253827248032531

>  <r_i_glide_ligand_efficiency_sa>  (1) 
-1.6278994201513777

>  <r_i_glide_lipo>  (1) 
-1.8171218152854465

>  <r_i_glide_metal>  (1) 
-0

>  <r_i_glide_rewards>  (1) 
-2.5525703305550285

>  <r_lp_Energy>  (1) 
3.145988

>  <r_lp_tautomer_probability>  (1) 
1

>  <s_epik_cmdline>  (1) 
J2VwaWtfcHl0aG9uJywgJy1waHQnLCAnMS4wJywgJy1waCcsICc3LjQnLCAnLXRuJywgJzgnLCAnLW1hJywgJzUwMCcsICctaW1hZScsICc8aW5maWxlLm1hZT4nLCAnLW9tYWUnLCAnPG91dGZpbGUubWFlPic=

>  <s_epik_input>  (1) 
czFbY0hdW2NIXVtjSF1jMVtDSDNd

>  <s_glide_docking_method>  (1) 
confgen

>  <s_i_glide_gridfile>  (1) 
gpcr_5ht2c_6bqh_protein_autoprepared_prepared

>  <s_lp_Force_Field>  (1) 
S-OPLS

>  <s_lp_Variant>  (1) 
Pocket2Mol_10_num_sample_100-1

>  <s_m_source_file>  (1) 
generated__ligand_Pocket2Mol_2026-05-06_prepared.sdf

>  <GenAI_Model>  (1) 
Pocket2Mol

>  <Protein>  (1) 
GPCR_5HT2C

$$$$
Pocket2Mol_0_num_sample_100
     RDKit          3D

  0  0  0  0  0  0  0  0  0  0999 V3000
M  V30 BEGIN CTAB
M  V30 COUNTS 19 19 0 0 1
M  V30 BEGIN ATOM
M  V30 1 C 38.779763 28.266947 54.776407 0
M  V30 2 C 38.314609 26.964901 55.389660 0
M  V30 3 C 38.534419 26.763317 56.773793 0
M  V30 4 C 37.638056 25.949467 54.653501 0
M  V30 5 C 37.224557 24.763176 55.293705 0
M  V30 6 C 37.469792 24.574796 56.663193 0
M  V30 7 C 38.119643 25.573936 57.402910 0
M  V30 8 C 39.024842 28.562670 53.460892 0
M  V30 9 C 38.963174 27.610896 52.329695 0
M  V30 10 N 39.067385 27.982778 51.129146 0
M  V30 11 H 38.928177 29.067365 55.487125 0
M  V30 12 H 39.031985 27.526875 57.353386 0
M  V30 13 H 37.397364 26.080559 53.622259 0
M  V30 14 H 36.708007 24.000247 54.730757 0
M  V30 15 H 37.148107 23.665281 57.149792 0
M  V30 16 H 38.299858 25.431584 58.457738 0
M  V30 17 H 39.311802 29.567881 53.185126 0
M  V30 18 H 38.852325 26.567913 52.583379 0
M  V30 19 H 39.018615 27.213553 50.475098 0
M  V30 END ATOM
M  V30 BEGIN BOND
M  V30 1 1 2 1
M  V30 2 1 3 2
M  V30 3 2 4 2
M  V30 4 1 5 4
M  V30 5 2 6 5
M  V30 6 2 7 3
M  V30 7 1 7 6
M  V30 8 2 8 1
M  V30 9 1 9 8
M  V30 10 2 10 9
M  V30 11 1 11 1
M  V30 12 1 12 3
M  V30 13 1 13 4
M  V30 14 1 14 5
M  V30 15 1 15 6
M  V30 16 1 16 7
M  V30 17 1 17 8
M  V30 18 1 18 9
M  V30 19 1 19 10
M  V30 END BOND
M  V30 END CTAB
M  END
>  <i_epik_Tot_Q>  (1) 
0

>  <i_epik_Tot_abs_Q>  (1) 
0

>  <i_i_glide_confnum>  (1) 
1

>  <i_i_glide_lignum>  (1) 
2

>  <i_i_glide_posenum>  (1) 
21

>  <i_i_glide_rotatable_bonds>  (1) 
2

>  <i_lp_mmshare_version>  (1) 
72125

>  <i_m_source_file_index>  (1) 
1

>  <i_f3d_flags>  (1) 
0

>  <num_sample>  (1) 
100

>  <b_lp_Chiralities_Consistent>  (1) 
1

>  <r_epik_Charging_Adjusted_Penalty>  (1) 
0

>  <r_epik_Ionization_Penalty>  (1) 
0

>  <r_epik_Ionization_Penalty_Charging>  (1) 
0

>  <r_epik_Ionization_Penalty_Neutral>  (1) 
0

>  <r_epik_State_Penalty>  (1) 
-0

>  <r_glide_ring_energy>  (1) 
0

>  <r_i_docking_score>  (1) 
-5.3667781190440014

>  <r_i_glide_ecoul>  (1) 
-0.35398146103960576

>  <r_i_glide_eff_state_penalty>  (1) 
-0

>  <r_i_glide_einternal>  (1) 
0.0099573097402432253

>  <r_i_glide_emodel>  (1) 
-29.584812868366516

>  <r_i_glide_emodel_strain>  (1) 
0

>  <r_i_glide_energy>  (1) 
-21.818295688295525

>  <r_i_glide_erotb>  (1) 
0.80789427267668723

>  <r_i_glide_esite>  (1) 
0

>  <r_i_glide_evdw>  (1) 
-21.464314227255919

>  <r_i_glide_gscore>  (1) 
-5.3667781190440014

>  <r_i_glide_gscore_strain>  (1) 
0

>  <r_i_glide_hbond>  (1) 
0

>  <r_i_glide_ligand_efficiency>  (1) 
-0.53667781190440011

>  <r_i_glide_ligand_efficiency_ln>  (1) 
-1.6250234189056447

>  <r_i_glide_ligand_efficiency_sa>  (1) 
-1.156237295337246

>  <r_i_glide_lipo>  (1) 
-2.1465322209983757

>  <r_i_glide_metal>  (1) 
-0

>  <r_i_glide_rewards>  (1) 
-2.901827240203577

>  <r_lp_Energy>  (1) 
13.405619999999999

>  <r_lp_tautomer_probability>  (1) 
1

>  <s_epik_Chemistry_Notes>  (1) 
This compound has an imine and may undergo hydrolysis.

>  <s_epik_cmdline>  (1) 
J2VwaWtfcHl0aG9uJywgJy1waHQnLCAnMS4wJywgJy1waCcsICc3LjQnLCAnLXRuJywgJzgnLCAnLW1hJywgJzUwMCcsICctaW1hZScsICc8aW5maWxlLm1hZT4nLCAnLW9tYWUnLCAnPG91dGZpbGUubWFlPic=

>  <s_epik_input>  (1) 
W0hdL049W0NIXS9bQ0hdPVtDSF1cYzFbY0hdW2NIXVtjSF1bY0hdW2NIXTE=

>  <s_glide_docking_method>  (1) 
confgen

>  <s_i_glide_gridfile>  (1) 
gpcr_5ht2c_6bqh_protein_autoprepared_prepared

>  <s_lp_Force_Field>  (1) 
S-OPLS

>  <s_lp_Variant>  (1) 
Pocket2Mol_0_num_sample_100-2

>  <s_m_source_file>  (1) 
generated__ligand_Pocket2Mol_2026-05-06_prepared.sdf

>  <GenAI_Model>  (1) 
Pocket2Mol

>  <Protein>  (1) 
GPCR_5HT2C

$$$$
Pocket2Mol_17_num_sample_100
     RDKit          3D

  0  0  0  0  0  0  0  0  0  0999 V3000
M  V30 BEGIN CTAB
M  V30 COUNTS 16 16 0 0 1
M  V30 BEGIN ATOM
M  V30 1 C 39.354346 27.787435 51.938919 0
M  V30 2 C 39.711008 29.239080 51.606722 0
M  V30 3 C 38.397233 27.863271 53.127873 0
M  V30 4 C 39.582527 30.020435 52.925624 0
M  V30 5 C 38.831488 29.109635 53.912743 0
M  V30 6 O 37.079291 28.021439 52.653967 0
M  V30 7 H 40.250087 27.254232 52.253721 0
M  V30 8 H 38.941043 27.249613 51.084466 0
M  V30 9 H 40.706643 29.324860 51.167823 0
M  V30 10 H 39.002704 29.629390 50.875525 0
M  V30 11 H 38.440672 26.962498 53.741447 0
M  V30 12 H 40.565563 30.275590 53.322424 0
M  V30 13 H 39.068284 30.965290 52.769855 0
M  V30 14 H 37.996085 29.622330 54.393068 0
M  V30 15 H 39.519945 28.810103 54.704959 0
M  V30 16 H 36.889316 27.314172 52.046413 0
M  V30 END ATOM
M  V30 BEGIN BOND
M  V30 1 1 2 1
M  V30 2 1 3 1
M  V30 3 1 4 2
M  V30 4 1 5 3
M  V30 5 1 5 4
M  V30 6 1 6 3
M  V30 7 1 7 1
M  V30 8 1 8 1
M  V30 9 1 9 2
M  V30 10 1 10 2
M  V30 11 1 11 3
M  V30 12 1 12 4
M  V30 13 1 13 4
M  V30 14 1 14 5
M  V30 15 1 15 5
M  V30 16 1 16 6
M  V30 END BOND
M  V30 END CTAB
M  END
>  <i_epik_Tot_Q>  (1) 
0

>  <i_epik_Tot_abs_Q>  (1) 
0

>  <i_i_glide_confnum>  (1) 
4

>  <i_i_glide_lignum>  (1) 
20

>  <i_i_glide_posenum>  (1) 
106

>  <i_i_glide_rotatable_bonds>  (1) 
1

>  <i_lp_mmshare_version>  (1) 
72125

>  <i_m_source_file_index>  (1) 
18

>  <i_f3d_flags>  (1) 
0

>  <num_sample>  (1) 
100

>  <b_lp_Chiralities_Consistent>  (1) 
1

>  <r_epik_Charging_Adjusted_Penalty>  (1) 
0

>  <r_epik_Ionization_Penalty>  (1) 
4.538991431931509e-07

>  <r_epik_Ionization_Penalty_Charging>  (1) 
0

>  <r_epik_Ionization_Penalty_Neutral>  (1) 
4.538991431931509e-07

>  <r_epik_State_Penalty>  (1) 
-0

>  <r_glide_ring_energy>  (1) 
0.38828123220255384

>  <r_i_docking_score>  (1) 
-5.3641820293458631

>  <r_i_glide_ecoul>  (1) 
-3.4993453351909194

>  <r_i_glide_eff_state_penalty>  (1) 
-0

>  <r_i_glide_einternal>  (1) 
0.33058377316873

>  <r_i_glide_emodel>  (1) 
-20.874372406114965

>  <r_i_glide_emodel_strain>  (1) 
0.0010585847558424177

>  <r_i_glide_energy>  (1) 
-15.818336375551766

>  <r_i_glide_erotb>  (1) 
0

>  <r_i_glide_esite>  (1) 
0

>  <r_i_glide_evdw>  (1) 
-12.318991040360846

>  <r_i_glide_gscore>  (1) 
-5.3641820293458631

>  <r_i_glide_gscore_strain>  (1) 
0

>  <r_i_glide_hbond>  (1) 
-0.32000000000000001

>  <r_i_glide_ligand_efficiency>  (1) 
-0.89403033822431055

>  <r_i_glide_ligand_efficiency_ln>  (1) 
-1.9214341666866825

>  <r_i_glide_ligand_efficiency_sa>  (1) 
-1.6245609382040775

>  <r_i_glide_lipo>  (1) 
-1.4783306770491835

>  <r_i_glide_metal>  (1) 
-0

>  <r_i_glide_rewards>  (1) 
-2.4249999999999998

>  <r_lp_Energy>  (1) 
8.9029089999999993

>  <r_lp_tautomer_probability>  (1) 
1

>  <s_epik_cmdline>  (1) 
J2VwaWtfcHl0aG9uJywgJy1waHQnLCAnMS4wJywgJy1waCcsICc3LjQnLCAnLXRuJywgJzgnLCAnLW1hJywgJzUwMCcsICctaW1hZScsICc8aW5maWxlLm1hZT4nLCAnLW9tYWUnLCAnPG91dGZpbGUubWFlPic=

>  <s_epik_input>  (1) 
W09IXVtDSF0xW0NIMl1bQ0gyXVtDSDJdW0NIMl0x

>  <s_glide_docking_method>  (1) 
confgen

>  <s_i_glide_gridfile>  (1) 
gpcr_5ht2c_6bqh_protein_autoprepared_prepared

>  <s_lp_Force_Field>  (1) 
S-OPLS

>  <s_lp_Variant>  (1) 
Pocket2Mol_17_num_sample_100-1

>  <s_m_source_file>  (1) 
generated__ligand_Pocket2Mol_2026-05-06_prepared.sdf

>  <GenAI_Model>  (1) 
Pocket2Mol

>  <Protein>  (1) 
GPCR_5HT2C

$$$$
Pocket2Mol_48_num_sample_100
     RDKit          3D

  0  0  0  0  0  0  0  0  0  0999 V3000
M  V30 BEGIN CTAB
M  V30 COUNTS 13 13 0 0 1
M  V30 BEGIN ATOM
M  V30 1 C 40.267374 30.076932 51.278249 0
M  V30 2 C 39.782798 30.021431 52.550474 0
M  V30 3 C 39.868278 29.010019 50.612918 0
M  V30 4 C 38.975636 27.991522 51.422856 0
M  V30 5 C 39.067126 28.915781 52.702571 0
M  V30 6 C 38.327716 28.461994 53.998784 0
M  V30 7 O 37.688212 27.389916 53.918284 0
M  V30 8 O 38.448646 29.214764 54.989016 0 CHG=-1
M  V30 9 H 40.880257 30.871333 50.876977 0
M  V30 10 H 39.951386 30.765543 53.315876 0
M  V30 11 H 40.118609 28.821447 49.579892 0
M  V30 12 H 37.954656 27.903724 51.053524 0
M  V30 13 H 39.448178 27.018861 51.561664 0
M  V30 END ATOM
M  V30 BEGIN BOND
M  V30 1 1 2 1
M  V30 2 2 3 1
M  V30 3 1 4 3
M  V30 4 2 5 2
M  V30 5 1 5 4
M  V30 6 1 6 5
M  V30 7 2 7 6
M  V30 8 1 8 6
M  V30 9 1 9 1
M  V30 10 1 10 2
M  V30 11 1 11 3
M  V30 12 1 12 4
M  V30 13 1 13 4
M  V30 END BOND
M  V30 END CTAB
M  END
>  <i_epik_Tot_Q>  (1) 
-1

>  <i_epik_Tot_abs_Q>  (1) 
1

>  <i_i_glide_confnum>  (1) 
1

>  <i_i_glide_lignum>  (1) 
51

>  <i_i_glide_posenum>  (1) 
336

>  <i_i_glide_rotatable_bonds>  (1) 
1

>  <i_lp_mmshare_version>  (1) 
72125

>  <i_m_source_file_index>  (1) 
49

>  <i_f3d_flags>  (1) 
0

>  <num_sample>  (1) 
100

>  <b_lp_Chiralities_Consistent>  (1) 
1

>  <r_epik_Charging_Adjusted_Penalty>  (1) 
0.00046806641816521339

>  <r_epik_Ionization_Penalty>  (1) 
0.00046806641816521339

>  <r_epik_Ionization_Penalty_Charging>  (1) 
0.00046806641816521339

>  <r_epik_Ionization_Penalty_Neutral>  (1) 
0

>  <r_epik_State_Penalty>  (1) 
-0

>  <r_glide_ring_energy>  (1) 
0

>  <r_i_docking_score>  (1) 
-5.3636771009383972

>  <r_i_glide_ecoul>  (1) 
0.21851350279342596

>  <r_i_glide_eff_state_penalty>  (1) 
-0

>  <r_i_glide_einternal>  (1) 
0.0089090735525798603

>  <r_i_glide_emodel>  (1) 
-21.570773523440234

>  <r_i_glide_emodel_strain>  (1) 
0

>  <r_i_glide_energy>  (1) 
-15.929804534617693

>  <r_i_glide_erotb>  (1) 
0

>  <r_i_glide_esite>  (1) 
0

>  <r_i_glide_evdw>  (1) 
-16.148318037411119

>  <r_i_glide_gscore>  (1) 
-5.3636771009383972

>  <r_i_glide_gscore_strain>  (1) 
0

>  <r_i_glide_hbond>  (1) 
0

>  <r_i_glide_ligand_efficiency>  (1) 
-0.67045963761729965

>  <r_i_glide_ligand_efficiency_ln>  (1) 
-1.7417694177147818

>  <r_i_glide_ligand_efficiency_sa>  (1) 
-1.3409192752345995

>  <r_i_glide_lipo>  (1) 
-1.6338142029609157

>  <r_i_glide_metal>  (1) 
-0

>  <r_i_glide_rewards>  (1) 
-2.9552240215259395

>  <r_lp_Energy>  (1) 
4.7151909999999999

>  <r_lp_tautomer_probability>  (1) 
1

>  <s_epik_cmdline>  (1) 
J2VwaWtfcHl0aG9uJywgJy1waHQnLCAnMS4wJywgJy1waCcsICc3LjQnLCAnLXRuJywgJzgnLCAnLW1hJywgJzUwMCcsICctaW1hZScsICc8aW5maWxlLm1hZT4nLCAnLW9tYWUnLCAnPG91dGZpbGUubWFlPic=

>  <s_epik_input>  (1) 
W0NIMl0xW0NIXT1bQ0hdW0NIXT1DMUMoPU8pW09IXQ==

>  <s_glide_docking_method>  (1) 
confgen

>  <s_i_glide_gridfile>  (1) 
gpcr_5ht2c_6bqh_protein_autoprepared_prepared

>  <s_lp_Force_Field>  (1) 
S-OPLS

>  <s_lp_Variant>  (1) 
Pocket2Mol_48_num_sample_100-1

>  <s_m_source_file>  (1) 
generated__ligand_Pocket2Mol_2026-05-06_prepared.sdf

>  <GenAI_Model>  (1) 
Pocket2Mol

>  <Protein>  (1) 
GPCR_5HT2C

$$$$
Pocket2Mol_64_num_sample_100
     RDKit          3D

  0  0  0  0  0  0  0  0  0  0999 V3000
M  V30 BEGIN CTAB
M  V30 COUNTS 15 15 0 0 1
M  V30 BEGIN ATOM
M  V30 1 C 38.496010 28.383536 53.117199 0
M  V30 2 C 38.688968 27.825586 51.839160 0
M  V30 3 C 39.467414 28.505950 50.882798 0
M  V30 4 C 40.055597 29.745616 51.203336 0
M  V30 5 C 39.084116 29.621663 53.441438 0
M  V30 6 N 40.819792 30.421421 50.253504 0
M  V30 7 O 38.896321 30.160588 54.680360 0
M  V30 8 C 39.867387 30.302451 52.484912 0
M  V30 9 H 37.896735 27.861605 53.849118 0
M  V30 10 H 38.237631 26.876284 51.590597 0
M  V30 11 H 39.609533 28.077752 49.902459 0
M  V30 12 H 41.100544 31.381144 50.409949 0
M  V30 13 H 40.815436 30.116912 49.291996 0
M  V30 14 H 39.253465 31.029700 54.781468 0
M  V30 15 H 40.318533 31.251221 52.732671 0
M  V30 END ATOM
M  V30 BEGIN BOND
M  V30 1 1 2 1
M  V30 2 2 3 2
M  V30 3 1 4 3
M  V30 4 2 5 1
M  V30 5 1 6 4
M  V30 6 1 7 5
M  V30 7 2 8 4
M  V30 8 1 8 5
M  V30 9 1 9 1
M  V30 10 1 10 2
M  V30 11 1 11 3
M  V30 12 1 12 6
M  V30 13 1 13 6
M  V30 14 1 14 7
M  V30 15 1 15 8
M  V30 END BOND
M  V30 END CTAB
M  END
>  <i_epik_Tot_Q>  (1) 
0

>  <i_epik_Tot_abs_Q>  (1) 
0

>  <i_i_glide_confnum>  (1) 
1

>  <i_i_glide_lignum>  (1) 
68

>  <i_i_glide_posenum>  (1) 
40

>  <i_i_glide_rotatable_bonds>  (1) 
1

>  <i_lp_mmshare_version>  (1) 
72125

>  <i_m_source_file_index>  (1) 
65

>  <i_f3d_flags>  (1) 
0

>  <num_sample>  (1) 
100

>  <b_lp_Chiralities_Consistent>  (1) 
1

>  <r_epik_Charging_Adjusted_Penalty>  (1) 
0

>  <r_epik_Ionization_Penalty>  (1) 
0.0026005809723615375

>  <r_epik_Ionization_Penalty_Charging>  (1) 
0

>  <r_epik_Ionization_Penalty_Neutral>  (1) 
0.0026005809723615375

>  <r_epik_State_Penalty>  (1) 
-0

>  <r_glide_ring_energy>  (1) 
0

>  <r_i_docking_score>  (1) 
-5.3606498832024672

>  <r_i_glide_ecoul>  (1) 
-1.2442275543994907

>  <r_i_glide_eff_state_penalty>  (1) 
-0

>  <r_i_glide_einternal>  (1) 
0.037276762342562941

>  <r_i_glide_emodel>  (1) 
-27.810758774525116

>  <r_i_glide_emodel_strain>  (1) 
0

>  <r_i_glide_energy>  (1) 
-20.249633576297086

>  <r_i_glide_erotb>  (1) 
0

>  <r_i_glide_esite>  (1) 
0

>  <r_i_glide_evdw>  (1) 
-19.005406021897596

>  <r_i_glide_gscore>  (1) 
-5.3606498832024672

>  <r_i_glide_gscore_strain>  (1) 
0

>  <r_i_glide_hbond>  (1) 
0

>  <r_i_glide_ligand_efficiency>  (1) 
-0.67008123540030839

>  <r_i_glide_ligand_efficiency_ln>  (1) 
-1.7407863765708089

>  <r_i_glide_ligand_efficiency_sa>  (1) 
-1.340162470800617

>  <r_i_glide_lipo>  (1) 
-1.8496491891772786

>  <r_i_glide_metal>  (1) 
-0

>  <r_i_glide_rewards>  (1) 
-2.3740962597703859

>  <r_lp_Energy>  (1) 
4.3794230000000001

>  <r_lp_tautomer_probability>  (1) 
1

>  <s_epik_cmdline>  (1) 
J2VwaWtfcHl0aG9uJywgJy1waHQnLCAnMS4wJywgJy1waCcsICc3LjQnLCAnLXRuJywgJzgnLCAnLW1hJywgJzUwMCcsICctaW1hZScsICc8aW5maWxlLm1hZT4nLCAnLW9tYWUnLCAnPG91dGZpbGUubWFlPic=

>  <s_epik_input>  (1) 
W09IXWMoW2NIXTEpW2NIXVtjSF1bY0hdYzFbTkgyXQ==

>  <s_glide_docking_method>  (1) 
confgen

>  <s_i_glide_gridfile>  (1) 
gpcr_5ht2c_6bqh_protein_autoprepared_prepared

>  <s_lp_Force_Field>  (1) 
S-OPLS

>  <s_lp_Variant>  (1) 
Pocket2Mol_64_num_sample_100-1

>  <s_m_source_file>  (1) 
generated__ligand_Pocket2Mol_2026-05-06_prepared.sdf

>  <GenAI_Model>  (1) 
Pocket2Mol

>  <Protein>  (1) 
GPCR_5HT2C

$$$$
Pocket2Mol_78_num_sample_100
     RDKit          3D

  0  0  0  0  0  0  0  0  0  0999 V3000
M  V30 BEGIN CTAB
M  V30 COUNTS 14 14 0 0 1
M  V30 BEGIN ATOM
M  V30 1 C 39.867404 29.666694 51.244874 0
M  V30 2 C 39.867403 30.266650 52.519301 0
M  V30 3 C 39.240088 29.617570 53.607544 0
M  V30 4 C 39.254748 30.246493 54.974436 0
M  V30 5 O 38.703552 29.632454 55.915295 0
M  V30 6 O 39.824126 31.351418 55.111393 0 CHG=-1
M  V30 7 C 39.239514 28.421429 51.052412 0
M  V30 8 C 38.608601 28.368936 53.407603 0
M  V30 9 C 38.609474 27.774598 52.131513 0
M  V30 10 H 40.348764 30.162892 50.415069 0
M  V30 11 H 40.352025 31.221430 52.664129 0
M  V30 12 H 39.238196 27.963676 50.075005 0
M  V30 13 H 38.126855 27.867009 54.234516 0
M  V30 14 H 38.126000 26.821430 51.980723 0
M  V30 END ATOM
M  V30 BEGIN BOND
M  V30 1 1 2 1
M  V30 2 2 3 2
M  V30 3 1 4 3
M  V30 4 2 5 4
M  V30 5 1 6 4
M  V30 6 2 7 1
M  V30 7 1 8 3
M  V30 8 1 9 7
M  V30 9 2 9 8
M  V30 10 1 10 1
M  V30 11 1 11 2
M  V30 12 1 12 7
M  V30 13 1 13 8
M  V30 14 1 14 9
M  V30 END BOND
M  V30 END CTAB
M  END
>  <i_epik_Tot_Q>  (1) 
-1

>  <i_epik_Tot_abs_Q>  (1) 
1

>  <i_i_glide_confnum>  (1) 
1

>  <i_i_glide_lignum>  (1) 
83

>  <i_i_glide_posenum>  (1) 
287

>  <i_i_glide_rotatable_bonds>  (1) 
1

>  <i_lp_mmshare_version>  (1) 
72125

>  <i_m_source_file_index>  (1) 
79

>  <i_f3d_flags>  (1) 
0

>  <num_sample>  (1) 
100

>  <b_lp_Chiralities_Consistent>  (1) 
1

>  <r_epik_Charging_Adjusted_Penalty>  (1) 
0.00033308558627939336

>  <r_epik_Ionization_Penalty>  (1) 
0.00033308558627939336

>  <r_epik_Ionization_Penalty_Charging>  (1) 
0.00033308558627939336

>  <r_epik_Ionization_Penalty_Neutral>  (1) 
0

>  <r_epik_State_Penalty>  (1) 
-0

>  <r_glide_ring_energy>  (1) 
0

>  <r_i_docking_score>  (1) 
-5.3459126974513724

>  <r_i_glide_ecoul>  (1) 
-0.23040505231567576

>  <r_i_glide_eff_state_penalty>  (1) 
-0

>  <r_i_glide_einternal>  (1) 
0.0042068032177020598

>  <r_i_glide_emodel>  (1) 
-22.693661622144042

>  <r_i_glide_emodel_strain>  (1) 
0

>  <r_i_glide_energy>  (1) 
-16.593874361920015

>  <r_i_glide_erotb>  (1) 
0

>  <r_i_glide_esite>  (1) 
0

>  <r_i_glide_evdw>  (1) 
-16.363469309604341

>  <r_i_glide_gscore>  (1) 
-5.3459126974513724

>  <r_i_glide_gscore_strain>  (1) 
0

>  <r_i_glide_hbond>  (1) 
0

>  <r_i_glide_ligand_efficiency>  (1) 
-0.59399029971681916

>  <r_i_glide_ligand_efficiency_ln>  (1) 
-1.6720479178554735

>  <r_i_glide_ligand_efficiency_sa>  (1) 
-1.2355496134907078

>  <r_i_glide_lipo>  (1) 
-1.8329549010530022

>  <r_i_glide_metal>  (1) 
-0

>  <r_i_glide_rewards>  (1) 
-2.6602235730708008

>  <r_lp_Energy>  (1) 
17.740625999999999

>  <r_lp_tautomer_probability>  (1) 
1

>  <s_epik_cmdline>  (1) 
J2VwaWtfcHl0aG9uJywgJy1waHQnLCAnMS4wJywgJy1waCcsICc3LjQnLCAnLXRuJywgJzgnLCAnLW1hJywgJzUwMCcsICctaW1hZScsICc8aW5maWxlLm1hZT4nLCAnLW9tYWUnLCAnPG91dGZpbGUubWFlPic=

>  <s_epik_input>  (1) 
W2NIXTFbY0hdW2NIXVtjSF1bY0hdYzFDKD1PKVtPSF0=

>  <s_glide_docking_method>  (1) 
confgen

>  <s_i_glide_gridfile>  (1) 
gpcr_5ht2c_6bqh_protein_autoprepared_prepared

>  <s_lp_Force_Field>  (1) 
S-OPLS

>  <s_lp_Variant>  (1) 
Pocket2Mol_78_num_sample_100-1

>  <s_m_source_file>  (1) 
generated__ligand_Pocket2Mol_2026-05-06_prepared.sdf

>  <GenAI_Model>  (1) 
Pocket2Mol

>  <Protein>  (1) 
GPCR_5HT2C

$$$$
Pocket2Mol_54_num_sample_100
     RDKit          3D

  0  0  0  0  0  0  0  0  0  0999 V3000
M  V30 BEGIN CTAB
M  V30 COUNTS 17 17 0 0 1
M  V30 BEGIN ATOM
M  V30 1 C 38.022753 27.629296 53.049075 0
M  V30 2 C 38.744311 28.012253 51.900933 0
M  V30 3 C 39.467304 29.222142 51.893699 0
M  V30 4 N 40.177146 29.604586 50.756998 0
M  V30 5 C 38.021585 28.455503 54.189510 0
M  V30 6 C 38.742662 29.666322 54.184449 0
M  V30 7 C 38.736654 30.556658 55.411083 0
M  V30 8 C 39.467413 30.048398 53.036738 0
M  V30 9 H 37.468298 26.701988 53.053498 0
M  V30 10 H 38.741279 27.377417 51.026460 0
M  V30 11 H 40.541458 30.543962 50.679032 0
M  V30 12 H 40.017924 29.125092 49.882732 0
M  V30 13 H 37.467418 28.161029 55.067895 0
M  V30 14 H 37.712166 30.793870 55.702929 0
M  V30 15 H 39.224559 30.054007 56.246317 0
M  V30 16 H 39.259283 31.495736 55.226225 0
M  V30 17 H 40.020247 30.977159 53.031487 0
M  V30 END ATOM
M  V30 BEGIN BOND
M  V30 1 1 2 1
M  V30 2 2 3 2
M  V30 3 1 4 3
M  V30 4 2 5 1
M  V30 5 1 6 5
M  V30 6 1 7 6
M  V30 7 1 8 3
M  V30 8 2 8 6
M  V30 9 1 9 1
M  V30 10 1 10 2
M  V30 11 1 11 4
M  V30 12 1 12 4
M  V30 13 1 13 5
M  V30 14 1 14 7
M  V30 15 1 15 7
M  V30 16 1 16 7
M  V30 17 1 17 8
M  V30 END BOND
M  V30 END CTAB
M  END
>  <i_epik_Tot_Q>  (1) 
0

>  <i_epik_Tot_abs_Q>  (1) 
0

>  <i_i_glide_confnum>  (1) 
1

>  <i_i_glide_lignum>  (1) 
58

>  <i_i_glide_posenum>  (1) 
397

>  <i_i_glide_rotatable_bonds>  (1) 
0

>  <i_lp_mmshare_version>  (1) 
72125

>  <i_m_source_file_index>  (1) 
55

>  <i_f3d_flags>  (1) 
0

>  <num_sample>  (1) 
100

>  <b_lp_Chiralities_Consistent>  (1) 
1

>  <r_epik_Charging_Adjusted_Penalty>  (1) 
0

>  <r_epik_Ionization_Penalty>  (1) 
0.0013172751215551738

>  <r_epik_Ionization_Penalty_Charging>  (1) 
0

>  <r_epik_Ionization_Penalty_Neutral>  (1) 
0.0013172751215551738

>  <r_epik_State_Penalty>  (1) 
-0

>  <r_glide_ring_energy>  (1) 
0

>  <r_i_docking_score>  (1) 
-5.3411741759006413

>  <r_i_glide_ecoul>  (1) 
-1.285966330159666

>  <r_i_glide_eff_state_penalty>  (1) 
-0

>  <r_i_glide_einternal>  (1) 
0

>  <r_i_glide_emodel>  (1) 
-25.98187995523503

>  <r_i_glide_emodel_strain>  (1) 
0.0052222239503105783

>  <r_i_glide_energy>  (1) 
-19.387472735149636

>  <r_i_glide_erotb>  (1) 
0

>  <r_i_glide_esite>  (1) 
0

>  <r_i_glide_evdw>  (1) 
-18.101506404989969

>  <r_i_glide_gscore>  (1) 
-5.3411741759006413

>  <r_i_glide_gscore_strain>  (1) 
0

>  <r_i_glide_hbond>  (1) 
0

>  <r_i_glide_ligand_efficiency>  (1) 
-0.66764677198758016

>  <r_i_glide_ligand_efficiency_ln>  (1) 
-1.7344619482489121

>  <r_i_glide_ligand_efficiency_sa>  (1) 
-1.3352935439751605

>  <r_i_glide_lipo>  (1) 
-1.7382866564556942

>  <r_i_glide_metal>  (1) 
-0

>  <r_i_glide_rewards>  (1) 
-2.5049172496714984

>  <r_lp_Energy>  (1) 
5.5447359999999994

>  <r_lp_tautomer_probability>  (1) 
1

>  <s_epik_cmdline>  (1) 
J2VwaWtfcHl0aG9uJywgJy1waHQnLCAnMS4wJywgJy1waCcsICc3LjQnLCAnLXRuJywgJzgnLCAnLW1hJywgJzUwMCcsICctaW1hZScsICc8aW5maWxlLm1hZT4nLCAnLW9tYWUnLCAnPG91dGZpbGUubWFlPic=

>  <s_epik_input>  (1) 
W0NIM11jKFtjSF0xKVtjSF1bY0hdW2NIXWMxW05IMl0=

>  <s_glide_docking_method>  (1) 
confgen

>  <s_i_glide_gridfile>  (1) 
gpcr_5ht2c_6bqh_protein_autoprepared_prepared

>  <s_lp_Force_Field>  (1) 
S-OPLS

>  <s_lp_Variant>  (1) 
Pocket2Mol_54_num_sample_100-1

>  <s_m_source_file>  (1) 
generated__ligand_Pocket2Mol_2026-05-06_prepared.sdf

>  <GenAI_Model>  (1) 
Pocket2Mol

>  <Protein>  (1) 
GPCR_5HT2C

$$$$
Pocket2Mol_76_num_sample_100
     RDKit          3D

  0  0  0  0  0  0  0  0  0  0999 V3000
M  V30 BEGIN CTAB
M  V30 COUNTS 12 12 0 0 1
M  V30 BEGIN ATOM
M  V30 1 C 40.324940 30.421428 50.869384 0
M  V30 2 C 39.867403 30.372806 52.228975 0
M  V30 3 C 39.304103 29.180149 52.493719 0
M  V30 4 C 39.410595 28.400112 51.239699 0
M  V30 5 C 40.063184 29.266670 50.259532 0
M  V30 6 C 38.667404 28.712242 53.844064 0
M  V30 7 O 39.030331 27.246563 51.053439 0
M  V30 8 O 38.703167 29.542277 54.778078 0 CHG=-1
M  V30 9 O 38.187595 27.557750 53.858962 0
M  V30 10 H 40.806820 31.268938 50.407573 0
M  V30 11 H 39.954502 31.183750 52.938210 0
M  V30 12 H 40.277774 28.989105 49.239870 0
M  V30 END ATOM
M  V30 BEGIN BOND
M  V30 1 1 2 1
M  V30 2 2 3 2
M  V30 3 1 4 3
M  V30 4 2 5 1
M  V30 5 1 5 4
M  V30 6 1 6 3
M  V30 7 2 7 4
M  V30 8 1 8 6
M  V30 9 2 9 6
M  V30 10 1 10 1
M  V30 11 1 11 2
M  V30 12 1 12 5
M  V30 END BOND
M  V30 END CTAB
M  END
>  <i_epik_Tot_Q>  (1) 
-1

>  <i_epik_Tot_abs_Q>  (1) 
1

>  <i_i_glide_confnum>  (1) 
1

>  <i_i_glide_lignum>  (1) 
81

>  <i_i_glide_posenum>  (1) 
92

>  <i_i_glide_rotatable_bonds>  (1) 
1

>  <i_lp_mmshare_version>  (1) 
72125

>  <i_m_source_file_index>  (1) 
77

>  <i_f3d_flags>  (1) 
0

>  <num_sample>  (1) 
100

>  <b_lp_Chiralities_Consistent>  (1) 
1

>  <r_epik_Charging_Adjusted_Penalty>  (1) 
1.3987331750313068e-05

>  <r_epik_Ionization_Penalty>  (1) 
1.3987331750313068e-05

>  <r_epik_Ionization_Penalty_Charging>  (1) 
1.3987331750313068e-05

>  <r_epik_Ionization_Penalty_Neutral>  (1) 
0

>  <r_epik_State_Penalty>  (1) 
-0

>  <r_glide_ring_energy>  (1) 
0

>  <r_i_docking_score>  (1) 
-5.3411132251150333

>  <r_i_glide_ecoul>  (1) 
1.0762415735795325

>  <r_i_glide_eff_state_penalty>  (1) 
-0

>  <r_i_glide_einternal>  (1) 
0.010724201456385918

>  <r_i_glide_emodel>  (1) 
-23.950689573572248

>  <r_i_glide_emodel_strain>  (1) 
0

>  <r_i_glide_energy>  (1) 
-17.453804575924206

>  <r_i_glide_erotb>  (1) 
0

>  <r_i_glide_esite>  (1) 
0

>  <r_i_glide_evdw>  (1) 
-18.53004614950374

>  <r_i_glide_gscore>  (1) 
-5.3411132251150333

>  <r_i_glide_gscore_strain>  (1) 
0

>  <r_i_glide_hbond>  (1) 
0

>  <r_i_glide_ligand_efficiency>  (1) 
-0.59345702501278152

>  <r_i_glide_ligand_efficiency_ln>  (1) 
-1.6705467807847902

>  <r_i_glide_ligand_efficiency_sa>  (1) 
-1.2344403574055962

>  <r_i_glide_lipo>  (1) 
-1.2601560069908542

>  <r_i_glide_metal>  (1) 
-0

>  <r_i_glide_rewards>  (1) 
-3.3158911466859218

>  <r_lp_Energy>  (1) 
9.1486529999999995

>  <r_lp_tautomer_probability>  (1) 
1

>  <s_epik_cmdline>  (1) 
J2VwaWtfcHl0aG9uJywgJy1waHQnLCAnMS4wJywgJy1waCcsICc3LjQnLCAnLXRuJywgJzgnLCAnLW1hJywgJzUwMCcsICctaW1hZScsICc8aW5maWxlLm1hZT4nLCAnLW9tYWUnLCAnPG91dGZpbGUubWFlPic=

>  <s_epik_input>  (1) 
Tz1DMVtDSF09W0NIXVtDSF09QzFDKD1PKVtPSF0=

>  <s_glide_docking_method>  (1) 
confgen

>  <s_i_glide_gridfile>  (1) 
gpcr_5ht2c_6bqh_protein_autoprepared_prepared

>  <s_lp_Force_Field>  (1) 
S-OPLS

>  <s_lp_Variant>  (1) 
Pocket2Mol_76_num_sample_100-1

>  <s_m_source_file>  (1) 
generated__ligand_Pocket2Mol_2026-05-06_prepared.sdf

>  <GenAI_Model>  (1) 
Pocket2Mol

>  <Protein>  (1) 
GPCR_5HT2C

$$$$
Pocket2Mol_30_num_sample_100
     RDKit          3D

  0  0  0  0  0  0  0  0  0  0999 V3000
M  V30 BEGIN CTAB
M  V30 COUNTS 14 14 0 0 1
M  V30 BEGIN ATOM
M  V30 1 C 39.867399 30.445090 52.701590 0
M  V30 2 C 39.867396 29.396029 51.762511 0
M  V30 3 C 39.062595 28.260804 51.975946 0
M  V30 4 N 39.067412 27.221444 51.053499 0
M  V30 5 C 39.060816 30.361307 53.853606 0
M  V30 6 C 38.252985 28.177575 53.126172 0
M  V30 7 C 38.252364 29.227644 54.065000 0
M  V30 8 H 40.485865 31.314664 52.537917 0
M  V30 9 H 40.488161 29.462526 50.880817 0
M  V30 10 H 38.361145 26.498973 51.105669 0
M  V30 11 H 39.499625 27.344667 50.149459 0
M  V30 12 H 39.060592 31.167538 54.573274 0
M  V30 13 H 37.633529 27.307863 53.289207 0
M  V30 14 H 37.632947 29.163332 54.946827 0
M  V30 END ATOM
M  V30 BEGIN BOND
M  V30 1 1 2 1
M  V30 2 2 3 2
M  V30 3 1 4 3
M  V30 4 2 5 1
M  V30 5 1 6 3
M  V30 6 1 7 5
M  V30 7 2 7 6
M  V30 8 1 8 1
M  V30 9 1 9 2
M  V30 10 1 10 4
M  V30 11 1 11 4
M  V30 12 1 12 5
M  V30 13 1 13 6
M  V30 14 1 14 7
M  V30 END BOND
M  V30 END CTAB
M  END
>  <i_epik_Tot_Q>  (1) 
0

>  <i_epik_Tot_abs_Q>  (1) 
0

>  <i_i_glide_confnum>  (1) 
1

>  <i_i_glide_lignum>  (1) 
33

>  <i_i_glide_posenum>  (1) 
69

>  <i_i_glide_rotatable_bonds>  (1) 
0

>  <i_lp_mmshare_version>  (1) 
72125

>  <i_m_source_file_index>  (1) 
31

>  <i_f3d_flags>  (1) 
0

>  <num_sample>  (1) 
100

>  <b_lp_Chiralities_Consistent>  (1) 
1

>  <r_epik_Charging_Adjusted_Penalty>  (1) 
0

>  <r_epik_Ionization_Penalty>  (1) 
0.00088153335660618348

>  <r_epik_Ionization_Penalty_Charging>  (1) 
0

>  <r_epik_Ionization_Penalty_Neutral>  (1) 
0.00088153335660618348

>  <r_epik_State_Penalty>  (1) 
-0

>  <r_glide_ring_energy>  (1) 
0

>  <r_i_docking_score>  (1) 
-5.3370920424301236

>  <r_i_glide_ecoul>  (1) 
-1.5314553640630906

>  <r_i_glide_eff_state_penalty>  (1) 
-0

>  <r_i_glide_einternal>  (1) 
0

>  <r_i_glide_emodel>  (1) 
-23.589603578740515

>  <r_i_glide_emodel_strain>  (1) 
0

>  <r_i_glide_energy>  (1) 
-17.659588416576643

>  <r_i_glide_erotb>  (1) 
0

>  <r_i_glide_esite>  (1) 
0

>  <r_i_glide_evdw>  (1) 
-16.128133052513551

>  <r_i_glide_gscore>  (1) 
-5.3370920424301236

>  <r_i_glide_gscore_strain>  (1) 
0

>  <r_i_glide_hbond>  (1) 
0

>  <r_i_glide_ligand_efficiency>  (1) 
-0.76244172034716051

>  <r_i_glide_ligand_efficiency_ln>  (1) 
-1.8116954599384534

>  <r_i_glide_ligand_efficiency_sa>  (1) 
-1.4584985418987089

>  <r_i_glide_lipo>  (1) 
-1.8399132037732266

>  <r_i_glide_metal>  (1) 
-0

>  <r_i_glide_rewards>  (1) 
-2.4610538814217553

>  <r_lp_Energy>  (1) 
7.0325409999999993

>  <r_lp_tautomer_probability>  (1) 
1

>  <s_epik_cmdline>  (1) 
J2VwaWtfcHl0aG9uJywgJy1waHQnLCAnMS4wJywgJy1waCcsICc3LjQnLCAnLXRuJywgJzgnLCAnLW1hJywgJzUwMCcsICctaW1hZScsICc8aW5maWxlLm1hZT4nLCAnLW9tYWUnLCAnPG91dGZpbGUubWFlPic=

>  <s_epik_input>  (1) 
W2NIXTFbY0hdW2NIXVtjSF1bY0hdYzFbTkgyXQ==

>  <s_glide_docking_method>  (1) 
confgen

>  <s_i_glide_gridfile>  (1) 
gpcr_5ht2c_6bqh_protein_autoprepared_prepared

>  <s_lp_Force_Field>  (1) 
S-OPLS

>  <s_lp_Variant>  (1) 
Pocket2Mol_30_num_sample_100-1

>  <s_m_source_file>  (1) 
generated__ligand_Pocket2Mol_2026-05-06_prepared.sdf

>  <GenAI_Model>  (1) 
Pocket2Mol

>  <Protein>  (1) 
GPCR_5HT2C

$$$$
Pocket2Mol_59_num_sample_100
     RDKit          3D

  0  0  0  0  0  0  0  0  0  0999 V3000
M  V30 BEGIN CTAB
M  V30 COUNTS 16 16 0 0 1
M  V30 BEGIN ATOM
M  V30 1 C 38.546738 27.366895 52.703742 0
M  V30 2 C 38.680249 28.537442 53.473174 0
M  V30 3 C 39.336622 29.663083 52.936339 0
M  V30 4 N 39.467403 30.821432 53.704547 0
M  V30 5 C 39.067403 27.319233 51.396507 0
M  V30 6 C 39.856733 29.614282 51.618265 0
M  V30 7 N 40.499644 30.724283 51.069667 0
M  V30 8 C 39.719674 28.441020 50.855590 0
M  V30 9 H 38.043327 26.504457 53.115803 0
M  V30 10 H 38.280184 28.571521 54.476063 0
M  V30 11 H 38.960220 30.920855 54.572638 0
M  V30 12 H 39.791080 31.678543 53.282275 0
M  V30 13 H 38.963267 26.421431 50.805941 0
M  V30 14 H 40.493043 31.612173 51.548706 0
M  V30 15 H 40.748615 30.747538 50.091957 0
M  V30 16 H 40.113927 28.401613 49.853476 0
M  V30 END ATOM
M  V30 BEGIN BOND
M  V30 1 1 2 1
M  V30 2 2 3 2
M  V30 3 1 4 3
M  V30 4 2 5 1
M  V30 5 1 6 3
M  V30 6 1 7 6
M  V30 7 1 8 5
M  V30 8 2 8 6
M  V30 9 1 9 1
M  V30 10 1 10 2
M  V30 11 1 11 4
M  V30 12 1 12 4
M  V30 13 1 13 5
M  V30 14 1 14 7
M  V30 15 1 15 7
M  V30 16 1 16 8
M  V30 END BOND
M  V30 END CTAB
M  END
>  <i_epik_Tot_Q>  (1) 
0

>  <i_epik_Tot_abs_Q>  (1) 
0

>  <i_i_glide_confnum>  (1) 
1

>  <i_i_glide_lignum>  (1) 
63

>  <i_i_glide_posenum>  (1) 
265

>  <i_i_glide_rotatable_bonds>  (1) 
0

>  <i_lp_mmshare_version>  (1) 
72125

>  <i_m_source_file_index>  (1) 
60

>  <i_f3d_flags>  (1) 
0

>  <num_sample>  (1) 
100

>  <b_lp_Chiralities_Consistent>  (1) 
1

>  <r_epik_Charging_Adjusted_Penalty>  (1) 
0.0055702355519192566

>  <r_epik_Ionization_Penalty>  (1) 
0.0049730634188153225

>  <r_epik_Ionization_Penalty_Charging>  (1) 
0

>  <r_epik_Ionization_Penalty_Neutral>  (1) 
0.0049730634188153225

>  <r_epik_State_Penalty>  (1) 
0.0055702355519192566

>  <r_glide_ring_energy>  (1) 
0

>  <r_i_docking_score>  (1) 
-5.332010386375158

>  <r_i_glide_ecoul>  (1) 
-1.7291911953574701

>  <r_i_glide_eff_state_penalty>  (1) 
0.0055702355519192566

>  <r_i_glide_einternal>  (1) 
0

>  <r_i_glide_emodel>  (1) 
-26.121981218607019

>  <r_i_glide_emodel_strain>  (1) 
0

>  <r_i_glide_energy>  (1) 
-19.527230674861432

>  <r_i_glide_erotb>  (1) 
0

>  <r_i_glide_esite>  (1) 
0

>  <r_i_glide_evdw>  (1) 
-17.798039479503963

>  <r_i_glide_gscore>  (1) 
-5.3375806219270769

>  <r_i_glide_gscore_strain>  (1) 
0

>  <r_i_glide_hbond>  (1) 
0

>  <r_i_glide_ligand_efficiency>  (1) 
-0.66650129829689475

>  <r_i_glide_ligand_efficiency_ln>  (1) 
-1.7314861523451897

>  <r_i_glide_ligand_efficiency_sa>  (1) 
-1.3330025965937897

>  <r_i_glide_lipo>  (1) 
-1.7951876870575543

>  <r_i_glide_metal>  (1) 
-0

>  <r_i_glide_rewards>  (1) 
-2.3931122815907044

>  <r_lp_Energy>  (1) 
13.721331999999999

>  <s_epik_cmdline>  (1) 
J2VwaWtfcHl0aG9uJywgJy1waHQnLCAnMS4wJywgJy1waCcsICc3LjQnLCAnLXRuJywgJzgnLCAnLW1hJywgJzUwMCcsICctaW1hZScsICc8aW5maWxlLm1hZT4nLCAnLW9tYWUnLCAnPG91dGZpbGUubWFlPic=

>  <s_epik_input>  (1) 
W05IMl1jMVtjSF1bY0hdW2NIXVtjSF1jMVtOSDJd

>  <s_glide_docking_method>  (1) 
confgen

>  <s_i_glide_gridfile>  (1) 
gpcr_5ht2c_6bqh_protein_autoprepared_prepared

>  <s_lp_Force_Field>  (1) 
S-OPLS

>  <s_lp_Variant>  (1) 
Pocket2Mol_59_num_sample_100-1

>  <s_m_source_file>  (1) 
generated__ligand_Pocket2Mol_2026-05-06_prepared.sdf

>  <GenAI_Model>  (1) 
Pocket2Mol

>  <Protein>  (1) 
GPCR_5HT2C

$$$$
Pocket2Mol_36_num_sample_100
     RDKit          3D

  0  0  0  0  0  0  0  0  0  0999 V3000
M  V30 BEGIN CTAB
M  V30 COUNTS 19 19 0 0 1
M  V30 BEGIN ATOM
M  V30 1 C 40.114761 30.596157 52.085640 0
M  V30 2 C 40.564206 29.521187 51.084032 0
M  V30 3 C 39.467352 30.021433 53.366939 0
M  V30 4 O 40.843446 30.153525 49.853502 0
M  V30 5 C 38.476524 28.863328 53.113574 0
M  V30 6 C 39.061920 27.791534 52.190769 0
M  V30 7 C 39.523819 28.411469 50.867765 0
M  V30 8 H 40.961649 31.221423 52.365612 0
M  V30 9 H 39.467402 31.302023 51.583663 0
M  V30 10 H 41.474896 29.055801 51.453496 0
M  V30 11 H 40.254430 29.668730 54.032436 0
M  V30 12 H 38.966049 30.822355 53.911667 0
M  V30 13 H 41.396972 30.904624 50.013294 0
M  V30 14 H 38.186504 28.414860 54.064368 0
M  V30 15 H 37.553751 29.224039 52.664648 0
M  V30 16 H 39.893783 27.286982 52.680539 0
M  V30 17 H 38.311684 27.024518 51.994676 0
M  V30 18 H 38.667410 28.805568 50.323528 0
M  V30 19 H 39.952183 27.622276 50.253382 0
M  V30 END ATOM
M  V30 BEGIN BOND
M  V30 1 1 2 1
M  V30 2 1 3 1
M  V30 3 1 4 2
M  V30 4 1 5 3
M  V30 5 1 6 5
M  V30 6 1 7 2
M  V30 7 1 7 6
M  V30 8 1 8 1
M  V30 9 1 9 1
M  V30 10 1 10 2
M  V30 11 1 11 3
M  V30 12 1 12 3
M  V30 13 1 13 4
M  V30 14 1 14 5
M  V30 15 1 15 5
M  V30 16 1 16 6
M  V30 17 1 17 6
M  V30 18 1 18 7
M  V30 19 1 19 7
M  V30 END BOND
M  V30 END CTAB
M  END
>  <i_epik_Tot_Q>  (1) 
0

>  <i_epik_Tot_abs_Q>  (1) 
0

>  <i_i_glide_confnum>  (1) 
1

>  <i_i_glide_lignum>  (1) 
39

>  <i_i_glide_posenum>  (1) 
251

>  <i_i_glide_rotatable_bonds>  (1) 
1

>  <i_lp_mmshare_version>  (1) 
72125

>  <i_m_source_file_index>  (1) 
37

>  <i_f3d_flags>  (1) 
0

>  <num_sample>  (1) 
100

>  <b_lp_Chiralities_Consistent>  (1) 
1

>  <r_epik_Charging_Adjusted_Penalty>  (1) 
0

>  <r_epik_Ionization_Penalty>  (1) 
4.7751045033339745e-07

>  <r_epik_Ionization_Penalty_Charging>  (1) 
0

>  <r_epik_Ionization_Penalty_Neutral>  (1) 
4.7751045033339745e-07

>  <r_epik_State_Penalty>  (1) 
-0

>  <r_glide_ring_energy>  (1) 
0

>  <r_i_docking_score>  (1) 
-5.3234034523488676

>  <r_i_glide_ecoul>  (1) 
-0.93080161260655869

>  <r_i_glide_eff_state_penalty>  (1) 
-0

>  <r_i_glide_einternal>  (1) 
0.47835739401123412

>  <r_i_glide_emodel>  (1) 
-21.863256814918113

>  <r_i_glide_emodel_strain>  (1) 
0.0060600213904420386

>  <r_i_glide_energy>  (1) 
-16.299176682736675

>  <r_i_glide_erotb>  (1) 
0

>  <r_i_glide_esite>  (1) 
0

>  <r_i_glide_evdw>  (1) 
-15.368375070130115

>  <r_i_glide_gscore>  (1) 
-5.3234034523488676

>  <r_i_glide_gscore_strain>  (1) 
0

>  <r_i_glide_hbond>  (1) 
0

>  <r_i_glide_ligand_efficiency>  (1) 
-0.76048620747840967

>  <r_i_glide_ligand_efficiency_ln>  (1) 
-1.8070488178520863

>  <r_i_glide_ligand_efficiency_sa>  (1) 
-1.4547577803537628

>  <r_i_glide_lipo>  (1) 
-1.8200852309725848

>  <r_i_glide_metal>  (1) 
-0

>  <r_i_glide_rewards>  (1) 
-2.5952792259787931

>  <r_lp_Energy>  (1) 
3.8568439999999997

>  <r_lp_tautomer_probability>  (1) 
1

>  <s_epik_cmdline>  (1) 
J2VwaWtfcHl0aG9uJywgJy1waHQnLCAnMS4wJywgJy1waCcsICc3LjQnLCAnLXRuJywgJzgnLCAnLW1hJywgJzUwMCcsICctaW1hZScsICc8aW5maWxlLm1hZT4nLCAnLW9tYWUnLCAnPG91dGZpbGUubWFlPic=

>  <s_epik_input>  (1) 
W09IXVtDSF0xW0NIMl1bQ0gyXVtDSDJdW0NIMl1bQ0gyXTE=

>  <s_glide_docking_method>  (1) 
confgen

>  <s_i_glide_gridfile>  (1) 
gpcr_5ht2c_6bqh_protein_autoprepared_prepared

>  <s_lp_Force_Field>  (1) 
S-OPLS

>  <s_lp_Variant>  (1) 
Pocket2Mol_36_num_sample_100-1

>  <s_m_source_file>  (1) 
generated__ligand_Pocket2Mol_2026-05-06_prepared.sdf

>  <GenAI_Model>  (1) 
Pocket2Mol

>  <Protein>  (1) 
GPCR_5HT2C

$$$$
Pocket2Mol_59_num_sample_100
     RDKit          3D

  0  0  0  0  0  0  0  0  0  0999 V3000
M  V30 BEGIN CTAB
M  V30 COUNTS 16 16 0 0 1
M  V30 BEGIN ATOM
M  V30 1 C 39.835201 28.795244 50.681088 0
M  V30 2 C 40.036668 29.846524 51.594398 0
M  V30 3 C 39.467403 29.780653 52.882863 0
M  V30 4 N 39.672952 30.821434 53.786792 0
M  V30 5 C 39.067403 27.676139 51.053500 0
M  V30 6 C 38.687599 28.659062 53.252801 0
M  V30 7 N 38.112579 28.586979 54.523341 0
M  V30 8 C 38.491797 27.610442 52.336169 0
M  V30 9 H 40.267423 28.847236 49.693849 0
M  V30 10 H 40.628625 30.703854 51.307351 0
M  V30 11 H 40.076627 31.694655 53.476167 0
M  V30 12 H 39.134424 30.865558 54.637789 0
M  V30 13 H 38.914551 26.868570 50.351689 0
M  V30 14 H 38.118805 29.388942 55.134735 0
M  V30 15 H 37.446123 27.863097 54.746561 0
M  V30 16 H 37.898005 26.753344 52.616124 0
M  V30 END ATOM
M  V30 BEGIN BOND
M  V30 1 1 2 1
M  V30 2 2 3 2
M  V30 3 1 4 3
M  V30 4 2 5 1
M  V30 5 1 6 3
M  V30 6 1 7 6
M  V30 7 1 8 5
M  V30 8 2 8 6
M  V30 9 1 9 1
M  V30 10 1 10 2
M  V30 11 1 11 4
M  V30 12 1 12 4
M  V30 13 1 13 5
M  V30 14 1 14 7
M  V30 15 1 15 7
M  V30 16 1 16 8
M  V30 END BOND
M  V30 END CTAB
M  END
>  <i_epik_Tot_Q>  (1) 
0

>  <i_epik_Tot_abs_Q>  (1) 
0

>  <i_i_glide_confnum>  (1) 
1

>  <i_i_glide_lignum>  (1) 
63

>  <i_i_glide_posenum>  (1) 
314

>  <i_i_glide_rotatable_bonds>  (1) 
0

>  <i_lp_mmshare_version>  (1) 
72125

>  <i_m_source_file_index>  (1) 
60

>  <i_f3d_flags>  (1) 
0

>  <num_sample>  (1) 
100

>  <b_lp_Chiralities_Consistent>  (1) 
1

>  <r_epik_Charging_Adjusted_Penalty>  (1) 
0.0055702355519192566

>  <r_epik_Ionization_Penalty>  (1) 
0.0049730634188153225

>  <r_epik_Ionization_Penalty_Charging>  (1) 
0

>  <r_epik_Ionization_Penalty_Neutral>  (1) 
0.0049730634188153225

>  <r_epik_State_Penalty>  (1) 
0.0055702355519192566

>  <r_glide_ring_energy>  (1) 
0

>  <r_i_docking_score>  (1) 
-5.3167496498417721

>  <r_i_glide_ecoul>  (1) 
-1.434743447366932

>  <r_i_glide_eff_state_penalty>  (1) 
0.0055702355519192566

>  <r_i_glide_einternal>  (1) 
0

>  <r_i_glide_emodel>  (1) 
-26.468854828705403

>  <r_i_glide_emodel_strain>  (1) 
0

>  <r_i_glide_energy>  (1) 
-19.892959410096111

>  <r_i_glide_erotb>  (1) 
0

>  <r_i_glide_esite>  (1) 
0

>  <r_i_glide_evdw>  (1) 
-18.458215962729177

>  <r_i_glide_gscore>  (1) 
-5.3223198853936911

>  <r_i_glide_gscore_strain>  (1) 
0

>  <r_i_glide_hbond>  (1) 
0

>  <r_i_glide_ligand_efficiency>  (1) 
-0.66459370623022151

>  <r_i_glide_ligand_efficiency_ln>  (1) 
-1.726530469203674

>  <r_i_glide_ligand_efficiency_sa>  (1) 
-1.3291874124604433

>  <r_i_glide_lipo>  (1) 
-1.8341975701521924

>  <r_i_glide_metal>  (1) 
-0

>  <r_i_glide_rewards>  (1) 
-2.3500000000000001

>  <r_lp_Energy>  (1) 
13.721331999999999

>  <s_epik_cmdline>  (1) 
J2VwaWtfcHl0aG9uJywgJy1waHQnLCAnMS4wJywgJy1waCcsICc3LjQnLCAnLXRuJywgJzgnLCAnLW1hJywgJzUwMCcsICctaW1hZScsICc8aW5maWxlLm1hZT4nLCAnLW9tYWUnLCAnPG91dGZpbGUubWFlPic=

>  <s_epik_input>  (1) 
W05IMl1jMVtjSF1bY0hdW2NIXVtjSF1jMVtOSDJd

>  <s_glide_docking_method>  (1) 
confgen

>  <s_i_glide_gridfile>  (1) 
gpcr_5ht2c_6bqh_protein_autoprepared_prepared

>  <s_lp_Force_Field>  (1) 
S-OPLS

>  <s_lp_Variant>  (1) 
Pocket2Mol_59_num_sample_100-1

>  <s_m_source_file>  (1) 
generated__ligand_Pocket2Mol_2026-05-06_prepared.sdf

>  <GenAI_Model>  (1) 
Pocket2Mol

>  <Protein>  (1) 
GPCR_5HT2C

$$$$
Pocket2Mol_48_num_sample_100
     RDKit          3D

  0  0  0  0  0  0  0  0  0  0999 V3000
M  V30 BEGIN CTAB
M  V30 COUNTS 13 13 0 0 1
M  V30 BEGIN ATOM
M  V30 1 C 39.867667 29.144806 50.628112 0
M  V30 2 C 39.119540 28.330987 51.425502 0
M  V30 3 C 40.267403 30.192996 51.323452 0
M  V30 4 C 39.797366 30.234651 52.830250 0
M  V30 5 C 39.035850 28.856191 52.637587 0
M  V30 6 C 38.270100 28.251747 53.856170 0
M  V30 7 O 38.334858 28.903119 54.920345 0
M  V30 8 O 37.668765 27.175214 53.646921 0 CHG=-1
M  V30 9 H 40.095680 28.962076 49.588599 0
M  V30 10 H 38.663128 27.400951 51.116135 0
M  V30 11 H 40.874290 30.987053 50.913457 0
M  V30 12 H 40.616476 30.183154 53.546285 0
M  V30 13 H 39.122384 31.061030 53.053324 0
M  V30 END ATOM
M  V30 BEGIN BOND
M  V30 1 1 2 1
M  V30 2 2 3 1
M  V30 3 1 4 3
M  V30 4 2 5 2
M  V30 5 1 5 4
M  V30 6 1 6 5
M  V30 7 2 7 6
M  V30 8 1 8 6
M  V30 9 1 9 1
M  V30 10 1 10 2
M  V30 11 1 11 3
M  V30 12 1 12 4
M  V30 13 1 13 4
M  V30 END BOND
M  V30 END CTAB
M  END
>  <i_epik_Tot_Q>  (1) 
-1

>  <i_epik_Tot_abs_Q>  (1) 
1

>  <i_i_glide_confnum>  (1) 
1

>  <i_i_glide_lignum>  (1) 
51

>  <i_i_glide_posenum>  (1) 
184

>  <i_i_glide_rotatable_bonds>  (1) 
1

>  <i_lp_mmshare_version>  (1) 
72125

>  <i_m_source_file_index>  (1) 
49

>  <i_f3d_flags>  (1) 
0

>  <num_sample>  (1) 
100

>  <b_lp_Chiralities_Consistent>  (1) 
1

>  <r_epik_Charging_Adjusted_Penalty>  (1) 
0.00046806641816521339

>  <r_epik_Ionization_Penalty>  (1) 
0.00046806641816521339

>  <r_epik_Ionization_Penalty_Charging>  (1) 
0.00046806641816521339

>  <r_epik_Ionization_Penalty_Neutral>  (1) 
0

>  <r_epik_State_Penalty>  (1) 
-0

>  <r_glide_ring_energy>  (1) 
0

>  <r_i_docking_score>  (1) 
-5.3153408955271129

>  <r_i_glide_ecoul>  (1) 
0.27959146224025733

>  <r_i_glide_eff_state_penalty>  (1) 
-0

>  <r_i_glide_einternal>  (1) 
0.0047372904832956308

>  <r_i_glide_emodel>  (1) 
-21.239021041681891

>  <r_i_glide_emodel_strain>  (1) 
0

>  <r_i_glide_energy>  (1) 
-15.646841399716539

>  <r_i_glide_erotb>  (1) 
0

>  <r_i_glide_esite>  (1) 
0

>  <r_i_glide_evdw>  (1) 
-15.926432861956796

>  <r_i_glide_gscore>  (1) 
-5.3153408955271129

>  <r_i_glide_gscore_strain>  (1) 
0

>  <r_i_glide_hbond>  (1) 
0

>  <r_i_glide_ligand_efficiency>  (1) 
-0.66441761194088911

>  <r_i_glide_ligand_efficiency_ln>  (1) 
-1.7260729984916661

>  <r_i_glide_ligand_efficiency_sa>  (1) 
-1.3288352238817784

>  <r_i_glide_lipo>  (1) 
-1.6449599413352249

>  <r_i_glide_metal>  (1) 
-0

>  <r_i_glide_rewards>  (1) 
-2.9159980304300874

>  <r_lp_Energy>  (1) 
4.7151909999999999

>  <r_lp_tautomer_probability>  (1) 
1

>  <s_epik_cmdline>  (1) 
J2VwaWtfcHl0aG9uJywgJy1waHQnLCAnMS4wJywgJy1waCcsICc3LjQnLCAnLXRuJywgJzgnLCAnLW1hJywgJzUwMCcsICctaW1hZScsICc8aW5maWxlLm1hZT4nLCAnLW9tYWUnLCAnPG91dGZpbGUubWFlPic=

>  <s_epik_input>  (1) 
W0NIMl0xW0NIXT1bQ0hdW0NIXT1DMUMoPU8pW09IXQ==

>  <s_glide_docking_method>  (1) 
confgen

>  <s_i_glide_gridfile>  (1) 
gpcr_5ht2c_6bqh_protein_autoprepared_prepared

>  <s_lp_Force_Field>  (1) 
S-OPLS

>  <s_lp_Variant>  (1) 
Pocket2Mol_48_num_sample_100-1

>  <s_m_source_file>  (1) 
generated__ligand_Pocket2Mol_2026-05-06_prepared.sdf

>  <GenAI_Model>  (1) 
Pocket2Mol

>  <Protein>  (1) 
GPCR_5HT2C

$$$$
Pocket2Mol_16_num_sample_100
     RDKit          3D

  0  0  0  0  0  0  0  0  0  0999 V3000
M  V30 BEGIN CTAB
M  V30 COUNTS 18 18 0 0 1
M  V30 BEGIN ATOM
M  V30 1 C 39.834904 29.986154 52.617036 0
M  V30 2 C 38.731722 29.145833 53.277894 0
M  V30 3 C 40.279083 29.218406 51.362784 0
M  V30 4 C 38.760883 27.788945 52.572247 0
M  V30 5 C 39.240982 28.113358 51.159937 0
M  V30 6 C 40.267443 30.157308 50.159870 0
M  V30 7 H 40.667383 30.130390 53.305712 0
M  V30 8 H 39.467207 30.976058 52.346872 0
M  V30 9 H 38.868058 29.052790 54.355324 0
M  V30 10 H 37.764683 29.621440 53.114392 0
M  V30 11 H 41.290352 28.821916 51.453499 0
M  V30 12 H 39.399935 27.065555 53.078623 0
M  V30 13 H 37.755130 27.370626 52.532635 0
M  V30 14 H 38.409149 28.491475 50.565646 0
M  V30 15 H 39.647951 27.244119 50.643313 0
M  V30 16 H 39.285807 30.609927 50.016407 0
M  V30 17 H 40.524553 29.622553 49.245210 0
M  V30 18 H 40.990481 30.963330 50.287210 0
M  V30 END ATOM
M  V30 BEGIN BOND
M  V30 1 1 2 1
M  V30 2 1 3 1
M  V30 3 1 4 2
M  V30 4 1 5 3
M  V30 5 1 5 4
M  V30 6 1 6 3
M  V30 7 1 7 1
M  V30 8 1 8 1
M  V30 9 1 9 2
M  V30 10 1 10 2
M  V30 11 1 11 3
M  V30 12 1 12 4
M  V30 13 1 13 4
M  V30 14 1 14 5
M  V30 15 1 15 5
M  V30 16 1 16 6
M  V30 17 1 17 6
M  V30 18 1 18 6
M  V30 END BOND
M  V30 END CTAB
M  END
>  <i_epik_Tot_Q>  (1) 
0

>  <i_epik_Tot_abs_Q>  (1) 
0

>  <i_i_glide_confnum>  (1) 
2

>  <i_i_glide_lignum>  (1) 
19

>  <i_i_glide_posenum>  (1) 
263

>  <i_i_glide_rotatable_bonds>  (1) 
0

>  <i_lp_mmshare_version>  (1) 
72125

>  <i_m_source_file_index>  (1) 
17

>  <i_f3d_flags>  (1) 
0

>  <num_sample>  (1) 
100

>  <b_lp_Chiralities_Consistent>  (1) 
1

>  <r_epik_Charging_Adjusted_Penalty>  (1) 
0

>  <r_epik_Ionization_Penalty>  (1) 
0

>  <r_epik_Ionization_Penalty_Charging>  (1) 
0

>  <r_epik_Ionization_Penalty_Neutral>  (1) 
0

>  <r_epik_State_Penalty>  (1) 
-0

>  <r_glide_ring_energy>  (1) 
0.2204327727677606

>  <r_i_docking_score>  (1) 
-5.3129868327532606

>  <r_i_glide_ecoul>  (1) 
-0.22854869251875795

>  <r_i_glide_eff_state_penalty>  (1) 
-0

>  <r_i_glide_einternal>  (1) 
0

>  <r_i_glide_emodel>  (1) 
-21.186679364402178

>  <r_i_glide_emodel_strain>  (1) 
0.18035776517398006

>  <r_i_glide_energy>  (1) 
-16.188255622262602

>  <r_i_glide_erotb>  (1) 
0

>  <r_i_glide_esite>  (1) 
0

>  <r_i_glide_evdw>  (1) 
-15.959706929743845

>  <r_i_glide_gscore>  (1) 
-5.3129868327532606

>  <r_i_glide_gscore_strain>  (1) 
0

>  <r_i_glide_hbond>  (1) 
0

>  <r_i_glide_ligand_efficiency>  (1) 
-0.8854978054588768

>  <r_i_glide_ligand_efficiency_ln>  (1) 
-1.9030961984065002

>  <r_i_glide_ligand_efficiency_sa>  (1) 
-1.6090562972069931

>  <r_i_glide_lipo>  (1) 
-1.9294406532564834

>  <r_i_glide_metal>  (1) 
-0

>  <r_i_glide_rewards>  (1) 
-2.5512785291317708

>  <r_lp_Energy>  (1) 
6.4120089999999994

>  <r_lp_tautomer_probability>  (1) 
1

>  <s_epik_cmdline>  (1) 
J2VwaWtfcHl0aG9uJywgJy1waHQnLCAnMS4wJywgJy1waCcsICc3LjQnLCAnLXRuJywgJzgnLCAnLW1hJywgJzUwMCcsICctaW1hZScsICc8aW5maWxlLm1hZT4nLCAnLW9tYWUnLCAnPG91dGZpbGUubWFlPic=

>  <s_epik_input>  (1) 
W0NIM11bQ0hdMVtDSDJdW0NIMl1bQ0gyXVtDSDJdMQ==

>  <s_glide_docking_method>  (1) 
confgen

>  <s_i_glide_gridfile>  (1) 
gpcr_5ht2c_6bqh_protein_autoprepared_prepared

>  <s_lp_Force_Field>  (1) 
S-OPLS

>  <s_lp_Variant>  (1) 
Pocket2Mol_16_num_sample_100-1

>  <s_m_source_file>  (1) 
generated__ligand_Pocket2Mol_2026-05-06_prepared.sdf

>  <GenAI_Model>  (1) 
Pocket2Mol

>  <Protein>  (1) 
GPCR_5HT2C

$$$$
Pocket2Mol_76_num_sample_100
     RDKit          3D

  0  0  0  0  0  0  0  0  0  0999 V3000
M  V30 BEGIN CTAB
M  V30 COUNTS 12 12 0 0 1
M  V30 BEGIN ATOM
M  V30 1 C 39.835383 28.699213 50.664582 0
M  V30 2 C 39.067404 27.800836 51.481456 0
M  V30 3 C 38.822649 28.350480 52.684449 0
M  V30 4 C 39.467403 29.684241 52.653501 0
M  V30 5 C 40.086160 29.823266 51.334325 0
M  V30 6 C 38.025186 27.717414 53.873739 0
M  V30 7 O 39.484760 30.517668 53.557099 0
M  V30 8 O 37.577375 26.566795 53.680135 0 CHG=-1
M  V30 9 O 37.915191 28.420384 54.900242 0
M  V30 10 H 40.160322 28.495138 49.657360 0
M  V30 11 H 38.732109 26.821430 51.172767 0
M  V30 12 H 40.636285 30.690612 51.000119 0
M  V30 END ATOM
M  V30 BEGIN BOND
M  V30 1 1 2 1
M  V30 2 2 3 2
M  V30 3 1 4 3
M  V30 4 2 5 1
M  V30 5 1 5 4
M  V30 6 1 6 3
M  V30 7 2 7 4
M  V30 8 1 8 6
M  V30 9 2 9 6
M  V30 10 1 10 1
M  V30 11 1 11 2
M  V30 12 1 12 5
M  V30 END BOND
M  V30 END CTAB
M  END
>  <i_epik_Tot_Q>  (1) 
-1

>  <i_epik_Tot_abs_Q>  (1) 
1

>  <i_i_glide_confnum>  (1) 
1

>  <i_i_glide_lignum>  (1) 
81

>  <i_i_glide_posenum>  (1) 
182

>  <i_i_glide_rotatable_bonds>  (1) 
1

>  <i_lp_mmshare_version>  (1) 
72125

>  <i_m_source_file_index>  (1) 
77

>  <i_f3d_flags>  (1) 
0

>  <num_sample>  (1) 
100

>  <b_lp_Chiralities_Consistent>  (1) 
1

>  <r_epik_Charging_Adjusted_Penalty>  (1) 
1.3987331750313068e-05

>  <r_epik_Ionization_Penalty>  (1) 
1.3987331750313068e-05

>  <r_epik_Ionization_Penalty_Charging>  (1) 
1.3987331750313068e-05

>  <r_epik_Ionization_Penalty_Neutral>  (1) 
0

>  <r_epik_State_Penalty>  (1) 
-0

>  <r_glide_ring_energy>  (1) 
0

>  <r_i_docking_score>  (1) 
-5.3108134385982266

>  <r_i_glide_ecoul>  (1) 
0.88955175763077587

>  <r_i_glide_eff_state_penalty>  (1) 
-0

>  <r_i_glide_einternal>  (1) 
0.0066050271067842753

>  <r_i_glide_emodel>  (1) 
-23.689040765245316

>  <r_i_glide_emodel_strain>  (1) 
0

>  <r_i_glide_energy>  (1) 
-17.226983003572734

>  <r_i_glide_erotb>  (1) 
0

>  <r_i_glide_esite>  (1) 
0

>  <r_i_glide_evdw>  (1) 
-18.116534761203511

>  <r_i_glide_gscore>  (1) 
-5.3108134385982266

>  <r_i_glide_gscore_strain>  (1) 
0

>  <r_i_glide_hbond>  (1) 
0

>  <r_i_glide_ligand_efficiency>  (1) 
-0.59009038206646958

>  <r_i_glide_ligand_efficiency_ln>  (1) 
-1.6610698779949178

>  <r_i_glide_ligand_efficiency_sa>  (1) 
-1.2274374578749812

>  <r_i_glide_lipo>  (1) 
-1.3200000000000001

>  <r_i_glide_metal>  (1) 
-0

>  <r_i_glide_rewards>  (1) 
-3.2184194641826664

>  <r_lp_Energy>  (1) 
9.1486529999999995

>  <r_lp_tautomer_probability>  (1) 
1

>  <s_epik_cmdline>  (1) 
J2VwaWtfcHl0aG9uJywgJy1waHQnLCAnMS4wJywgJy1waCcsICc3LjQnLCAnLXRuJywgJzgnLCAnLW1hJywgJzUwMCcsICctaW1hZScsICc8aW5maWxlLm1hZT4nLCAnLW9tYWUnLCAnPG91dGZpbGUubWFlPic=

>  <s_epik_input>  (1) 
Tz1DMVtDSF09W0NIXVtDSF09QzFDKD1PKVtPSF0=

>  <s_glide_docking_method>  (1) 
confgen

>  <s_i_glide_gridfile>  (1) 
gpcr_5ht2c_6bqh_protein_autoprepared_prepared

>  <s_lp_Force_Field>  (1) 
S-OPLS

>  <s_lp_Variant>  (1) 
Pocket2Mol_76_num_sample_100-1

>  <s_m_source_file>  (1) 
generated__ligand_Pocket2Mol_2026-05-06_prepared.sdf

>  <GenAI_Model>  (1) 
Pocket2Mol

>  <Protein>  (1) 
GPCR_5HT2C

$$$$
Pocket2Mol_0_num_sample_100
     RDKit          3D

  0  0  0  0  0  0  0  0  0  0999 V3000
M  V30 BEGIN CTAB
M  V30 COUNTS 19 19 0 0 1
M  V30 BEGIN ATOM
M  V30 1 C 40.045877 30.817360 54.001681 0
M  V30 2 C 39.480764 29.707370 53.151770 0
M  V30 3 C 39.867335 29.663880 51.790949 0
M  V30 4 C 38.640908 28.674631 53.655833 0
M  V30 5 C 38.204066 27.641779 52.803434 0
M  V30 6 C 38.598849 27.621430 51.455282 0
M  V30 7 C 39.427428 28.629912 50.951320 0
M  V30 8 C 39.641094 31.271855 55.225421 0
M  V30 9 C 38.460270 30.817282 55.976941 0
M  V30 10 N 38.267373 31.143753 57.178374 0
M  V30 11 H 40.904529 31.302066 53.571835 0
M  V30 12 H 40.515469 30.432344 51.393705 0
M  V30 13 H 38.367013 28.634392 54.684706 0
M  V30 14 H 37.574787 26.853536 53.190798 0
M  V30 15 H 38.267390 26.822760 50.807940 0
M  V30 16 H 39.731489 28.610278 49.915055 0
M  V30 17 H 40.206069 32.051483 55.714680 0
M  V30 18 H 37.747362 30.211430 55.437385 0
M  V30 19 H 37.367331 30.824682 57.517125 0
M  V30 END ATOM
M  V30 BEGIN BOND
M  V30 1 1 2 1
M  V30 2 1 3 2
M  V30 3 2 4 2
M  V30 4 1 5 4
M  V30 5 2 6 5
M  V30 6 2 7 3
M  V30 7 1 7 6
M  V30 8 2 8 1
M  V30 9 1 9 8
M  V30 10 2 10 9
M  V30 11 1 11 1
M  V30 12 1 12 3
M  V30 13 1 13 4
M  V30 14 1 14 5
M  V30 15 1 15 6
M  V30 16 1 16 7
M  V30 17 1 17 8
M  V30 18 1 18 9
M  V30 19 1 19 10
M  V30 END BOND
M  V30 END CTAB
M  END
>  <i_epik_Tot_Q>  (1) 
0

>  <i_epik_Tot_abs_Q>  (1) 
0

>  <i_i_glide_confnum>  (1) 
1

>  <i_i_glide_lignum>  (1) 
2

>  <i_i_glide_posenum>  (1) 
361

>  <i_i_glide_rotatable_bonds>  (1) 
2

>  <i_lp_mmshare_version>  (1) 
72125

>  <i_m_source_file_index>  (1) 
1

>  <i_f3d_flags>  (1) 
0

>  <num_sample>  (1) 
100

>  <b_lp_Chiralities_Consistent>  (1) 
1

>  <r_epik_Charging_Adjusted_Penalty>  (1) 
0

>  <r_epik_Ionization_Penalty>  (1) 
0

>  <r_epik_Ionization_Penalty_Charging>  (1) 
0

>  <r_epik_Ionization_Penalty_Neutral>  (1) 
0

>  <r_epik_State_Penalty>  (1) 
-0

>  <r_glide_ring_energy>  (1) 
0

>  <r_i_docking_score>  (1) 
-5.3066361635175356

>  <r_i_glide_ecoul>  (1) 
-1.5672109163352879

>  <r_i_glide_eff_state_penalty>  (1) 
-0

>  <r_i_glide_einternal>  (1) 
0.047974528351702794

>  <r_i_glide_emodel>  (1) 
-29.000405411737709

>  <r_i_glide_emodel_strain>  (1) 
0

>  <r_i_glide_energy>  (1) 
-21.33998688764693

>  <r_i_glide_erotb>  (1) 
0.80789427267668723

>  <r_i_glide_esite>  (1) 
-0.053602923262722313

>  <r_i_glide_evdw>  (1) 
-19.772775971311642

>  <r_i_glide_gscore>  (1) 
-5.3066361635175356

>  <r_i_glide_gscore_strain>  (1) 
0

>  <r_i_glide_hbond>  (1) 
-0.016004205718478885

>  <r_i_glide_ligand_efficiency>  (1) 
-0.53066361635175352

>  <r_i_glide_ligand_efficiency_ln>  (1) 
-1.6068128493569456

>  <r_i_glide_ligand_efficiency_sa>  (1) 
-1.1432801038059888

>  <r_i_glide_lipo>  (1) 
-2.2348508236321334

>  <r_i_glide_metal>  (1) 
-0

>  <r_i_glide_rewards>  (1) 
-2.5863520475650135

>  <r_lp_Energy>  (1) 
13.405619999999999

>  <r_lp_tautomer_probability>  (1) 
1

>  <s_epik_Chemistry_Notes>  (1) 
This compound has an imine and may undergo hydrolysis.

>  <s_epik_cmdline>  (1) 
J2VwaWtfcHl0aG9uJywgJy1waHQnLCAnMS4wJywgJy1waCcsICc3LjQnLCAnLXRuJywgJzgnLCAnLW1hJywgJzUwMCcsICctaW1hZScsICc8aW5maWxlLm1hZT4nLCAnLW9tYWUnLCAnPG91dGZpbGUubWFlPic=

>  <s_epik_input>  (1) 
W0hdL049W0NIXS9bQ0hdPVtDSF1cYzFbY0hdW2NIXVtjSF1bY0hdW2NIXTE=

>  <s_glide_docking_method>  (1) 
confgen

>  <s_i_glide_gridfile>  (1) 
gpcr_5ht2c_6bqh_protein_autoprepared_prepared

>  <s_lp_Force_Field>  (1) 
S-OPLS

>  <s_lp_Variant>  (1) 
Pocket2Mol_0_num_sample_100-2

>  <s_m_source_file>  (1) 
generated__ligand_Pocket2Mol_2026-05-06_prepared.sdf

>  <GenAI_Model>  (1) 
Pocket2Mol

>  <Protein>  (1) 
GPCR_5HT2C

$$$$
Pocket2Mol_29_num_sample_100
     RDKit          3D

  0  0  0  0  0  0  0  0  0  0999 V3000
M  V30 BEGIN CTAB
M  V30 COUNTS 13 13 0 0 1
M  V30 BEGIN ATOM
M  V30 1 C 38.699565 28.687713 53.237568 0
M  V30 2 C 38.499989 27.621450 52.341338 0
M  V30 3 C 39.467404 29.801307 52.846977 0
M  V30 4 C 39.067403 27.667904 51.053505 0
M  V30 5 O 39.663575 30.829546 53.718424 0
M  V30 6 C 39.832631 28.784302 50.659982 0
M  V30 7 C 40.032283 29.851370 51.555910 0
M  V30 8 H 38.265278 28.650954 54.225916 0
M  V30 9 H 37.911203 26.767889 52.641714 0
M  V30 10 H 38.914630 26.848017 50.365981 0
M  V30 11 H 40.115916 31.568740 53.339581 0
M  V30 12 H 40.265128 28.821395 49.671239 0
M  V30 13 H 40.619923 30.706737 51.253936 0
M  V30 END ATOM
M  V30 BEGIN BOND
M  V30 1 1 2 1
M  V30 2 2 3 1
M  V30 3 2 4 2
M  V30 4 1 5 3
M  V30 5 1 6 4
M  V30 6 1 7 3
M  V30 7 2 7 6
M  V30 8 1 8 1
M  V30 9 1 9 2
M  V30 10 1 10 4
M  V30 11 1 11 5
M  V30 12 1 12 6
M  V30 13 1 13 7
M  V30 END BOND
M  V30 END CTAB
M  END
>  <i_epik_Tot_Q>  (1) 
0

>  <i_epik_Tot_abs_Q>  (1) 
0

>  <i_i_glide_confnum>  (1) 
1

>  <i_i_glide_lignum>  (1) 
32

>  <i_i_glide_posenum>  (1) 
303

>  <i_i_glide_rotatable_bonds>  (1) 
1

>  <i_lp_mmshare_version>  (1) 
72125

>  <i_m_source_file_index>  (1) 
30

>  <i_f3d_flags>  (1) 
0

>  <num_sample>  (1) 
100

>  <b_lp_Chiralities_Consistent>  (1) 
1

>  <r_epik_Charging_Adjusted_Penalty>  (1) 
0

>  <r_epik_Ionization_Penalty>  (1) 
0.0022482968708945868

>  <r_epik_Ionization_Penalty_Charging>  (1) 
0

>  <r_epik_Ionization_Penalty_Neutral>  (1) 
0.0022482968708945868

>  <r_epik_State_Penalty>  (1) 
-0

>  <r_glide_ring_energy>  (1) 
0

>  <r_i_docking_score>  (1) 
-5.2828798916894559

>  <r_i_glide_ecoul>  (1) 
-1.373732168892378

>  <r_i_glide_eff_state_penalty>  (1) 
-0

>  <r_i_glide_einternal>  (1) 
0.029431874969310809

>  <r_i_glide_emodel>  (1) 
-24.019364913707054

>  <r_i_glide_emodel_strain>  (1) 
2.4767032869021932e-10

>  <r_i_glide_energy>  (1) 
-17.841482838579662

>  <r_i_glide_erotb>  (1) 
0

>  <r_i_glide_esite>  (1) 
0

>  <r_i_glide_evdw>  (1) 
-16.467750669687284

>  <r_i_glide_gscore>  (1) 
-5.2828798916894559

>  <r_i_glide_gscore_strain>  (1) 
0

>  <r_i_glide_hbond>  (1) 
0

>  <r_i_glide_ligand_efficiency>  (1) 
-0.75469712738420802

>  <r_i_glide_ligand_efficiency_ln>  (1) 
-1.7932929466241716

>  <r_i_glide_ligand_efficiency_sa>  (1) 
-1.4436836685219974

>  <r_i_glide_lipo>  (1) 
-1.8367658662045683

>  <r_i_glide_metal>  (1) 
-0

>  <r_i_glide_rewards>  (1) 
-2.4166666666666665

>  <r_lp_Energy>  (1) 
6.6738649999999993

>  <r_lp_tautomer_probability>  (1) 
1

>  <s_epik_cmdline>  (1) 
J2VwaWtfcHl0aG9uJywgJy1waHQnLCAnMS4wJywgJy1waCcsICc3LjQnLCAnLXRuJywgJzgnLCAnLW1hJywgJzUwMCcsICctaW1hZScsICc8aW5maWxlLm1hZT4nLCAnLW9tYWUnLCAnPG91dGZpbGUubWFlPic=

>  <s_epik_input>  (1) 
W09IXWMxW2NIXVtjSF1bY0hdW2NIXVtjSF0x

>  <s_glide_docking_method>  (1) 
confgen

>  <s_i_glide_gridfile>  (1) 
gpcr_5ht2c_6bqh_protein_autoprepared_prepared

>  <s_lp_Force_Field>  (1) 
S-OPLS

>  <s_lp_Variant>  (1) 
Pocket2Mol_29_num_sample_100-1

>  <s_m_source_file>  (1) 
generated__ligand_Pocket2Mol_2026-05-06_prepared.sdf

>  <GenAI_Model>  (1) 
Pocket2Mol

>  <Protein>  (1) 
GPCR_5HT2C

$$$$
Pocket2Mol_30_num_sample_100
     RDKit          3D

  0  0  0  0  0  0  0  0  0  0999 V3000
M  V30 BEGIN CTAB
M  V30 COUNTS 14 14 0 0 1
M  V30 BEGIN ATOM
M  V30 1 C 38.498632 27.621441 52.338815 0
M  V30 2 C 38.697769 28.666562 53.260032 0
M  V30 3 C 39.467398 29.789508 52.896532 0
M  V30 4 N 39.665636 30.821430 53.809495 0
M  V30 5 C 39.067405 27.697189 51.053495 0
M  V30 6 C 40.033860 29.867379 51.607507 0
M  V30 7 C 39.834267 28.821025 50.686937 0
M  V30 8 H 37.908337 26.761811 52.617995 0
M  V30 9 H 38.261225 28.606023 54.246185 0
M  V30 10 H 40.065471 31.698622 53.503976 0
M  V30 11 H 39.127742 30.857672 54.664381 0
M  V30 12 H 38.914218 26.893714 50.347076 0
M  V30 13 H 40.621457 30.728955 51.325316 0
M  V30 14 H 40.267360 28.880393 49.699336 0
M  V30 END ATOM
M  V30 BEGIN BOND
M  V30 1 1 2 1
M  V30 2 2 3 2
M  V30 3 1 4 3
M  V30 4 2 5 1
M  V30 5 1 6 3
M  V30 6 1 7 5
M  V30 7 2 7 6
M  V30 8 1 8 1
M  V30 9 1 9 2
M  V30 10 1 10 4
M  V30 11 1 11 4
M  V30 12 1 12 5
M  V30 13 1 13 6
M  V30 14 1 14 7
M  V30 END BOND
M  V30 END CTAB
M  END
>  <i_epik_Tot_Q>  (1) 
0

>  <i_epik_Tot_abs_Q>  (1) 
0

>  <i_i_glide_confnum>  (1) 
1

>  <i_i_glide_lignum>  (1) 
33

>  <i_i_glide_posenum>  (1) 
269

>  <i_i_glide_rotatable_bonds>  (1) 
0

>  <i_lp_mmshare_version>  (1) 
72125

>  <i_m_source_file_index>  (1) 
31

>  <i_f3d_flags>  (1) 
0

>  <num_sample>  (1) 
100

>  <b_lp_Chiralities_Consistent>  (1) 
1

>  <r_epik_Charging_Adjusted_Penalty>  (1) 
0

>  <r_epik_Ionization_Penalty>  (1) 
0.00088153335660618348

>  <r_epik_Ionization_Penalty_Charging>  (1) 
0

>  <r_epik_Ionization_Penalty_Neutral>  (1) 
0.00088153335660618348

>  <r_epik_State_Penalty>  (1) 
-0

>  <r_glide_ring_energy>  (1) 
0

>  <r_i_docking_score>  (1) 
-5.2711979210115274

>  <r_i_glide_ecoul>  (1) 
-1.2800755426209103

>  <r_i_glide_eff_state_penalty>  (1) 
-0

>  <r_i_glide_einternal>  (1) 
0

>  <r_i_glide_emodel>  (1) 
-23.709711738472002

>  <r_i_glide_emodel_strain>  (1) 
0

>  <r_i_glide_energy>  (1) 
-17.852911191308817

>  <r_i_glide_erotb>  (1) 
0

>  <r_i_glide_esite>  (1) 
0

>  <r_i_glide_evdw>  (1) 
-16.572835648687906

>  <r_i_glide_gscore>  (1) 
-5.2711979210115274

>  <r_i_glide_gscore_strain>  (1) 
0

>  <r_i_glide_hbond>  (1) 
0

>  <r_i_glide_ligand_efficiency>  (1) 
-0.75302827443021825

>  <r_i_glide_ligand_efficiency_ln>  (1) 
-1.7893274588506649

>  <r_i_glide_ligand_efficiency_sa>  (1) 
-1.4404912676668487

>  <r_i_glide_lipo>  (1) 
-1.8338781405173288

>  <r_i_glide_metal>  (1) 
-0

>  <r_i_glide_rewards>  (1) 
-2.4166666666666665

>  <r_lp_Energy>  (1) 
7.0325409999999993

>  <r_lp_tautomer_probability>  (1) 
1

>  <s_epik_cmdline>  (1) 
J2VwaWtfcHl0aG9uJywgJy1waHQnLCAnMS4wJywgJy1waCcsICc3LjQnLCAnLXRuJywgJzgnLCAnLW1hJywgJzUwMCcsICctaW1hZScsICc8aW5maWxlLm1hZT4nLCAnLW9tYWUnLCAnPG91dGZpbGUubWFlPic=

>  <s_epik_input>  (1) 
W2NIXTFbY0hdW2NIXVtjSF1bY0hdYzFbTkgyXQ==

>  <s_glide_docking_method>  (1) 
confgen

>  <s_i_glide_gridfile>  (1) 
gpcr_5ht2c_6bqh_protein_autoprepared_prepared

>  <s_lp_Force_Field>  (1) 
S-OPLS

>  <s_lp_Variant>  (1) 
Pocket2Mol_30_num_sample_100-1

>  <s_m_source_file>  (1) 
generated__ligand_Pocket2Mol_2026-05-06_prepared.sdf

>  <GenAI_Model>  (1) 
Pocket2Mol

>  <Protein>  (1) 
GPCR_5HT2C

$$$$
Pocket2Mol_38_num_sample_100
     RDKit          3D

  0  0  0  0  0  0  0  0  0  0999 V3000
M  V30 BEGIN CTAB
M  V30 COUNTS 17 17 0 0 1
M  V30 BEGIN ATOM
M  V30 1 C 39.911611 30.037996 51.382953 0
M  V30 2 C 39.699494 30.261948 52.894703 0
M  V30 3 C 38.659674 29.301999 53.486482 0
M  V30 4 O 37.796255 29.695485 54.265402 0
M  V30 5 C 40.109953 28.562910 51.031852 0
M  V30 6 C 38.955618 27.693934 51.554074 0
M  V30 7 C 38.744356 27.833761 53.068861 0
M  V30 8 H 39.067413 30.419527 50.808852 0
M  V30 9 H 40.779768 30.611750 51.056754 0
M  V30 10 H 39.388942 31.291141 53.080468 0
M  V30 11 H 39.562200 27.363501 53.613258 0
M  V30 12 H 40.641298 30.120911 53.424367 0
M  V30 13 H 41.053930 28.232025 51.460622 0
M  V30 14 H 40.196301 28.450105 49.950228 0
M  V30 15 H 39.137891 26.649749 51.301840 0
M  V30 16 H 38.029392 27.972523 51.053035 0
M  V30 17 H 37.828035 27.321744 53.367823 0
M  V30 END ATOM
M  V30 BEGIN BOND
M  V30 1 1 2 1
M  V30 2 1 3 2
M  V30 3 2 4 3
M  V30 4 1 5 1
M  V30 5 1 6 5
M  V30 6 1 7 3
M  V30 7 1 7 6
M  V30 8 1 8 1
M  V30 9 1 9 1
M  V30 10 1 10 2
M  V30 11 1 11 7
M  V30 12 1 12 2
M  V30 13 1 13 5
M  V30 14 1 14 5
M  V30 15 1 15 6
M  V30 16 1 16 6
M  V30 17 1 17 7
M  V30 END BOND
M  V30 END CTAB
M  END
>  <i_epik_Tot_Q>  (1) 
0

>  <i_epik_Tot_abs_Q>  (1) 
0

>  <i_i_glide_confnum>  (1) 
1

>  <i_i_glide_lignum>  (1) 
41

>  <i_i_glide_posenum>  (1) 
204

>  <i_i_glide_rotatable_bonds>  (1) 
0

>  <i_lp_mmshare_version>  (1) 
72125

>  <i_m_source_file_index>  (1) 
39

>  <i_f3d_flags>  (1) 
0

>  <num_sample>  (1) 
100

>  <b_lp_Chiralities_Consistent>  (1) 
1

>  <r_epik_Charging_Adjusted_Penalty>  (1) 
0

>  <r_epik_Ionization_Penalty>  (1) 
3.7730911281982554e-13

>  <r_epik_Ionization_Penalty_Charging>  (1) 
0

>  <r_epik_Ionization_Penalty_Neutral>  (1) 
3.7730911281982554e-13

>  <r_epik_State_Penalty>  (1) 
-0

>  <r_glide_ring_energy>  (1) 
0

>  <r_i_docking_score>  (1) 
-5.2687163750391512

>  <r_i_glide_ecoul>  (1) 
-0.069120232222478983

>  <r_i_glide_eff_state_penalty>  (1) 
-0

>  <r_i_glide_einternal>  (1) 
0

>  <r_i_glide_emodel>  (1) 
-21.360718268200557

>  <r_i_glide_emodel_strain>  (1) 
0

>  <r_i_glide_energy>  (1) 
-15.770853071309482

>  <r_i_glide_erotb>  (1) 
0

>  <r_i_glide_esite>  (1) 
0

>  <r_i_glide_evdw>  (1) 
-15.701732839087002

>  <r_i_glide_gscore>  (1) 
-5.2687163750391512

>  <r_i_glide_gscore_strain>  (1) 
0

>  <r_i_glide_hbond>  (1) 
0

>  <r_i_glide_ligand_efficiency>  (1) 
-0.75267376786273588

>  <r_i_glide_ligand_efficiency_ln>  (1) 
-1.7884850889728288

>  <r_i_glide_ligand_efficiency_sa>  (1) 
-1.4398131209994141

>  <r_i_glide_lipo>  (1) 
-1.6080034699802919

>  <r_i_glide_metal>  (1) 
-0

>  <r_i_glide_rewards>  (1) 
-2.8652582282711374

>  <r_lp_Energy>  (1) 
-0.38638499999999998

>  <r_lp_tautomer_probability>  (1) 
1

>  <s_epik_cmdline>  (1) 
J2VwaWtfcHl0aG9uJywgJy1waHQnLCAnMS4wJywgJy1waCcsICc3LjQnLCAnLXRuJywgJzgnLCAnLW1hJywgJzUwMCcsICctaW1hZScsICc8aW5maWxlLm1hZT4nLCAnLW9tYWUnLCAnPG91dGZpbGUubWFlPic=

>  <s_epik_input>  (1) 
W0NIMl0xW0NIMl1bQ0gyXVtDSDJdW0NIXT1DMVtPSF0=

>  <s_glide_docking_method>  (1) 
confgen

>  <s_i_glide_gridfile>  (1) 
gpcr_5ht2c_6bqh_protein_autoprepared_prepared

>  <s_lp_Force_Field>  (1) 
S-OPLS

>  <s_lp_Variant>  (1) 
Pocket2Mol_38_num_sample_100-1

>  <s_m_source_file>  (1) 
generated__ligand_Pocket2Mol_2026-05-06_prepared.sdf

>  <GenAI_Model>  (1) 
Pocket2Mol

>  <Protein>  (1) 
GPCR_5HT2C

$$$$
Pocket2Mol_31_num_sample_100
     RDKit          3D

  0  0  0  0  0  0  0  0  0  0999 V3000
M  V30 BEGIN CTAB
M  V30 COUNTS 17 17 0 0 1
M  V30 BEGIN ATOM
M  V30 1 C 39.467405 30.104263 53.049260 0
M  V30 2 C 38.489004 28.997108 53.453731 0
M  V30 3 C 38.778516 27.591421 52.935820 0
M  V30 4 O 37.515487 29.229024 54.166260 0
M  V30 5 C 39.867416 30.033934 51.555177 0
M  V30 6 C 39.067396 27.621570 51.429366 0
M  V30 7 C 40.170389 28.623192 51.054574 0
M  V30 8 H 39.031830 31.078380 53.271887 0
M  V30 9 H 40.353534 30.021365 53.676804 0
M  V30 10 H 39.632966 27.187280 53.478085 0
M  V30 11 H 37.927177 26.942710 53.145212 0
M  V30 12 H 39.068738 30.421678 50.927665 0
M  V30 13 H 40.723167 30.685379 51.374948 0
M  V30 14 H 39.343511 26.624216 51.086244 0
M  V30 15 H 38.152353 27.882878 50.900310 0
M  V30 16 H 41.131826 28.316600 51.455727 0
M  V30 17 H 40.267054 28.642982 49.968884 0
M  V30 END ATOM
M  V30 BEGIN BOND
M  V30 1 1 2 1
M  V30 2 1 3 2
M  V30 3 2 4 2
M  V30 4 1 5 1
M  V30 5 1 6 3
M  V30 6 1 7 5
M  V30 7 1 7 6
M  V30 8 1 8 1
M  V30 9 1 9 1
M  V30 10 1 10 3
M  V30 11 1 11 3
M  V30 12 1 12 5
M  V30 13 1 13 5
M  V30 14 1 14 6
M  V30 15 1 15 6
M  V30 16 1 16 7
M  V30 17 1 17 7
M  V30 END BOND
M  V30 END CTAB
M  END
>  <i_epik_Tot_Q>  (1) 
0

>  <i_epik_Tot_abs_Q>  (1) 
0

>  <i_i_glide_confnum>  (1) 
1

>  <i_i_glide_lignum>  (1) 
34

>  <i_i_glide_posenum>  (1) 
380

>  <i_i_glide_rotatable_bonds>  (1) 
0

>  <i_lp_mmshare_version>  (1) 
72125

>  <i_m_source_file_index>  (1) 
32

>  <i_f3d_flags>  (1) 
0

>  <num_sample>  (1) 
100

>  <b_lp_Chiralities_Consistent>  (1) 
1

>  <r_epik_Charging_Adjusted_Penalty>  (1) 
0

>  <r_epik_Ionization_Penalty>  (1) 
3.7730911281982554e-13

>  <r_epik_Ionization_Penalty_Charging>  (1) 
0

>  <r_epik_Ionization_Penalty_Neutral>  (1) 
3.7730911281982554e-13

>  <r_epik_State_Penalty>  (1) 
-0

>  <r_glide_ring_energy>  (1) 
0

>  <r_i_docking_score>  (1) 
-5.2684233552114366

>  <r_i_glide_ecoul>  (1) 
-0.29391361604766952

>  <r_i_glide_eff_state_penalty>  (1) 
-0

>  <r_i_glide_einternal>  (1) 
0

>  <r_i_glide_emodel>  (1) 
-22.162864715584895

>  <r_i_glide_emodel_strain>  (1) 
0

>  <r_i_glide_energy>  (1) 
-16.573328293549416

>  <r_i_glide_erotb>  (1) 
0

>  <r_i_glide_esite>  (1) 
0

>  <r_i_glide_evdw>  (1) 
-16.279414677501748

>  <r_i_glide_gscore>  (1) 
-5.2684233552114366

>  <r_i_glide_gscore_strain>  (1) 
0

>  <r_i_glide_hbond>  (1) 
0

>  <r_i_glide_ligand_efficiency>  (1) 
-0.75263190788734813

>  <r_i_glide_ligand_efficiency_ln>  (1) 
-1.7883856223180807

>  <r_i_glide_ligand_efficiency_sa>  (1) 
-1.4397330457471846

>  <r_i_glide_lipo>  (1) 
-1.5371069217908764

>  <r_i_glide_metal>  (1) 
-0

>  <r_i_glide_rewards>  (1) 
-2.8732586571383223

>  <r_lp_Energy>  (1) 
-0.38655299999999998

>  <r_lp_tautomer_probability>  (1) 
1

>  <s_epik_cmdline>  (1) 
J2VwaWtfcHl0aG9uJywgJy1waHQnLCAnMS4wJywgJy1waCcsICc3LjQnLCAnLXRuJywgJzgnLCAnLW1hJywgJzUwMCcsICctaW1hZScsICc8aW5maWxlLm1hZT4nLCAnLW9tYWUnLCAnPG91dGZpbGUubWFlPic=

>  <s_epik_input>  (1) 
Tz1DMVtDSDJdW0NIMl1bQ0gyXVtDSDJdW0NIMl0x

>  <s_glide_docking_method>  (1) 
confgen

>  <s_i_glide_gridfile>  (1) 
gpcr_5ht2c_6bqh_protein_autoprepared_prepared

>  <s_lp_Force_Field>  (1) 
S-OPLS

>  <s_lp_Variant>  (1) 
Pocket2Mol_31_num_sample_100-1

>  <s_m_source_file>  (1) 
generated__ligand_Pocket2Mol_2026-05-06_prepared.sdf

>  <GenAI_Model>  (1) 
Pocket2Mol

>  <Protein>  (1) 
GPCR_5HT2C

$$$$
Pocket2Mol_36_num_sample_100
     RDKit          3D

  0  0  0  0  0  0  0  0  0  0999 V3000
M  V30 BEGIN CTAB
M  V30 COUNTS 19 19 0 0 1
M  V30 BEGIN ATOM
M  V30 1 C 39.992256 28.415720 50.927193 0
M  V30 2 C 39.870899 29.910035 51.198774 0
M  V30 3 C 38.863032 27.596097 51.556674 0
M  V30 4 O 41.018206 30.527838 50.656324 0
M  V30 5 C 38.779177 27.829917 53.070453 0
M  V30 6 C 38.635963 29.324941 53.386706 0
M  V30 7 C 39.723270 30.195052 52.710930 0
M  V30 8 H 40.034179 28.234424 49.853502 0
M  V30 9 H 40.936641 28.071004 51.339651 0
M  V30 10 H 39.023185 30.301228 50.649813 0
M  V30 11 H 37.912173 27.846343 51.086219 0
M  V30 12 H 39.042872 26.539788 51.356852 0
M  V30 13 H 40.909636 31.468006 50.687214 0
M  V30 14 H 37.926510 27.285396 53.479069 0
M  V30 15 H 39.665684 27.424846 53.557605 0
M  V30 16 H 37.646545 29.623716 53.053491 0
M  V30 17 H 38.646259 29.486271 54.465349 0
M  V30 18 H 40.666735 30.023334 53.218888 0
M  V30 19 H 39.500120 31.250576 52.868750 0
M  V30 END ATOM
M  V30 BEGIN BOND
M  V30 1 1 2 1
M  V30 2 1 3 1
M  V30 3 1 4 2
M  V30 4 1 5 3
M  V30 5 1 6 5
M  V30 6 1 7 2
M  V30 7 1 7 6
M  V30 8 1 8 1
M  V30 9 1 9 1
M  V30 10 1 10 2
M  V30 11 1 11 3
M  V30 12 1 12 3
M  V30 13 1 13 4
M  V30 14 1 14 5
M  V30 15 1 15 5
M  V30 16 1 16 6
M  V30 17 1 17 6
M  V30 18 1 18 7
M  V30 19 1 19 7
M  V30 END BOND
M  V30 END CTAB
M  END
>  <i_epik_Tot_Q>  (1) 
0

>  <i_epik_Tot_abs_Q>  (1) 
0

>  <i_i_glide_confnum>  (1) 
1

>  <i_i_glide_lignum>  (1) 
39

>  <i_i_glide_posenum>  (1) 
42

>  <i_i_glide_rotatable_bonds>  (1) 
1

>  <i_lp_mmshare_version>  (1) 
72125

>  <i_m_source_file_index>  (1) 
37

>  <i_f3d_flags>  (1) 
0

>  <num_sample>  (1) 
100

>  <b_lp_Chiralities_Consistent>  (1) 
1

>  <r_epik_Charging_Adjusted_Penalty>  (1) 
0

>  <r_epik_Ionization_Penalty>  (1) 
4.7751045033339745e-07

>  <r_epik_Ionization_Penalty_Charging>  (1) 
0

>  <r_epik_Ionization_Penalty_Neutral>  (1) 
4.7751045033339745e-07

>  <r_epik_State_Penalty>  (1) 
-0

>  <r_glide_ring_energy>  (1) 
0

>  <r_i_docking_score>  (1) 
-5.2644674978364332

>  <r_i_glide_ecoul>  (1) 
-0.8529793282097049

>  <r_i_glide_eff_state_penalty>  (1) 
-0

>  <r_i_glide_einternal>  (1) 
0.3217058719592647

>  <r_i_glide_emodel>  (1) 
-21.382195585174522

>  <r_i_glide_emodel_strain>  (1) 
0

>  <r_i_glide_energy>  (1) 
-15.798045245112867

>  <r_i_glide_erotb>  (1) 
0

>  <r_i_glide_esite>  (1) 
0

>  <r_i_glide_evdw>  (1) 
-14.945065916903163

>  <r_i_glide_gscore>  (1) 
-5.2644674978364332

>  <r_i_glide_gscore_strain>  (1) 
0

>  <r_i_glide_hbond>  (1) 
0

>  <r_i_glide_ligand_efficiency>  (1) 
-0.75206678540520477

>  <r_i_glide_ligand_efficiency_ln>  (1) 
-1.7870427920296987

>  <r_i_glide_ligand_efficiency_sa>  (1) 
-1.4386520053290068

>  <r_i_glide_lipo>  (1) 
-1.8774994424082156

>  <r_i_glide_metal>  (1) 
-0

>  <r_i_glide_rewards>  (1) 
-2.5117678603516045

>  <r_lp_Energy>  (1) 
3.8568439999999997

>  <r_lp_tautomer_probability>  (1) 
1

>  <s_epik_cmdline>  (1) 
J2VwaWtfcHl0aG9uJywgJy1waHQnLCAnMS4wJywgJy1waCcsICc3LjQnLCAnLXRuJywgJzgnLCAnLW1hJywgJzUwMCcsICctaW1hZScsICc8aW5maWxlLm1hZT4nLCAnLW9tYWUnLCAnPG91dGZpbGUubWFlPic=

>  <s_epik_input>  (1) 
W09IXVtDSF0xW0NIMl1bQ0gyXVtDSDJdW0NIMl1bQ0gyXTE=

>  <s_glide_docking_method>  (1) 
confgen

>  <s_i_glide_gridfile>  (1) 
gpcr_5ht2c_6bqh_protein_autoprepared_prepared

>  <s_lp_Force_Field>  (1) 
S-OPLS

>  <s_lp_Variant>  (1) 
Pocket2Mol_36_num_sample_100-1

>  <s_m_source_file>  (1) 
generated__ligand_Pocket2Mol_2026-05-06_prepared.sdf

>  <GenAI_Model>  (1) 
Pocket2Mol

>  <Protein>  (1) 
GPCR_5HT2C

$$$$
Pocket2Mol_32_num_sample_100
     RDKit          3D

  0  0  0  0  0  0  0  0  0  0999 V3000
M  V30 BEGIN CTAB
M  V30 COUNTS 15 15 0 0 1
M  V30 BEGIN ATOM
M  V30 1 C 38.433964 27.097433 53.462703 0
M  V30 2 C 37.957941 28.535924 53.651951 0
M  V30 3 O 38.767256 29.221543 52.725558 0
M  V30 4 O 38.952484 27.074968 52.146282 0
M  V30 5 C 38.823507 28.358858 51.648602 0
M  V30 6 C 40.062445 28.664673 50.801501 0
M  V30 7 O 39.867390 29.724787 49.886047 0
M  V30 8 H 37.630887 26.371785 53.595070 0
M  V30 9 H 39.238688 26.856528 54.157518 0
M  V30 10 H 36.908209 28.640495 53.372558 0
M  V30 11 H 38.087562 28.902570 54.670340 0
M  V30 12 H 37.898132 28.405488 51.071948 0
M  V30 13 H 40.267403 27.767914 50.219679 0
M  V30 14 H 40.921891 28.847686 51.448386 0
M  V30 15 H 39.023395 29.622521 49.457037 0
M  V30 END ATOM
M  V30 BEGIN BOND
M  V30 1 1 2 1
M  V30 2 1 3 2
M  V30 3 1 4 1
M  V30 4 1 5 3
M  V30 5 1 5 4
M  V30 6 1 6 5
M  V30 7 1 7 6
M  V30 8 1 8 1
M  V30 9 1 9 1
M  V30 10 1 10 2
M  V30 11 1 11 2
M  V30 12 1 12 5
M  V30 13 1 13 6
M  V30 14 1 14 6
M  V30 15 1 15 7
M  V30 END BOND
M  V30 END CTAB
M  END
>  <i_epik_Tot_Q>  (1) 
0

>  <i_epik_Tot_abs_Q>  (1) 
0

>  <i_i_glide_confnum>  (1) 
1

>  <i_i_glide_lignum>  (1) 
35

>  <i_i_glide_posenum>  (1) 
207

>  <i_i_glide_rotatable_bonds>  (1) 
2

>  <i_lp_mmshare_version>  (1) 
72125

>  <i_m_source_file_index>  (1) 
33

>  <i_f3d_flags>  (1) 
0

>  <num_sample>  (1) 
100

>  <b_lp_Chiralities_Consistent>  (1) 
1

>  <r_epik_Charging_Adjusted_Penalty>  (1) 
0

>  <r_epik_Ionization_Penalty>  (1) 
3.4422651255072934e-07

>  <r_epik_Ionization_Penalty_Charging>  (1) 
0

>  <r_epik_Ionization_Penalty_Neutral>  (1) 
3.4422651255072934e-07

>  <r_epik_State_Penalty>  (1) 
-0

>  <r_glide_ring_energy>  (1) 
0

>  <r_i_docking_score>  (1) 
-5.255962959365851

>  <r_i_glide_ecoul>  (1) 
-2.7772132197550019

>  <r_i_glide_eff_state_penalty>  (1) 
-0

>  <r_i_glide_einternal>  (1) 
0.54195384905233479

>  <r_i_glide_emodel>  (1) 
-22.21259623230705

>  <r_i_glide_emodel_strain>  (1) 
0.027804602023822511

>  <r_i_glide_energy>  (1) 
-16.653912360335852

>  <r_i_glide_erotb>  (1) 
0

>  <r_i_glide_esite>  (1) 
0

>  <r_i_glide_evdw>  (1) 
-13.87669914058085

>  <r_i_glide_gscore>  (1) 
-5.255962959365851

>  <r_i_glide_gscore_strain>  (1) 
0

>  <r_i_glide_hbond>  (1) 
-0.32000000000000001

>  <r_i_glide_ligand_efficiency>  (1) 
-0.75085185133797872

>  <r_i_glide_ligand_efficiency_ln>  (1) 
-1.7841558952676542

>  <r_i_glide_ligand_efficiency_sa>  (1) 
-1.4363279200667978

>  <r_i_glide_lipo>  (1) 
-0.98115552886319235

>  <r_i_glide_metal>  (1) 
-0

>  <r_i_glide_rewards>  (1) 
-2.8443904905103654

>  <r_lp_Energy>  (1) 
-10.260740999999999

>  <r_lp_tautomer_probability>  (1) 
1

>  <s_epik_Chemistry_Notes>  (1) 
This compound contains an acetal/aminal-like group ( X-CH(R)-Y where X, Y are N, S, or O) that may be acid/base labile, releasing an aldehyde.

>  <s_epik_cmdline>  (1) 
J2VwaWtfcHl0aG9uJywgJy1waHQnLCAnMS4wJywgJy1waCcsICc3LjQnLCAnLXRuJywgJzgnLCAnLW1hJywgJzUwMCcsICctaW1hZScsICc8aW5maWxlLm1hZT4nLCAnLW9tYWUnLCAnPG91dGZpbGUubWFlPic=

>  <s_epik_input>  (1) 
TzFbQ0gyXVtDSDJdT1tDSF0xW0NIMl1bT0hd

>  <s_glide_docking_method>  (1) 
confgen

>  <s_i_glide_gridfile>  (1) 
gpcr_5ht2c_6bqh_protein_autoprepared_prepared

>  <s_lp_Force_Field>  (1) 
S-OPLS

>  <s_lp_Variant>  (1) 
Pocket2Mol_32_num_sample_100-1

>  <s_m_source_file>  (1) 
generated__ligand_Pocket2Mol_2026-05-06_prepared.sdf

>  <GenAI_Model>  (1) 
Pocket2Mol

>  <Protein>  (1) 
GPCR_5HT2C

$$$$
Pocket2Mol_53_num_sample_100
     RDKit          3D

  0  0  0  0  0  0  0  0  0  0999 V3000
M  V30 BEGIN CTAB
M  V30 COUNTS 16 16 0 0 1
M  V30 BEGIN ATOM
M  V30 1 C 41.005366 30.421412 50.199721 0
M  V30 2 C 40.107787 29.693100 51.178637 0
M  V30 3 C 39.496339 28.481289 50.824713 0
M  V30 4 C 38.667412 27.850479 51.761460 0
M  V30 5 C 38.480119 28.455828 53.017996 0
M  V30 6 C 39.867403 30.222209 52.461177 0
M  V30 7 N 37.656356 27.853133 53.958861 0
M  V30 8 N 39.067494 29.621430 53.375647 0
M  V30 9 H 41.072634 29.887458 49.251888 0
M  V30 10 H 40.605315 31.413549 49.993257 0
M  V30 11 H 42.010310 30.530218 50.607715 0
M  V30 12 H 39.656850 28.045282 49.853501 0
M  V30 13 H 38.177807 26.918542 51.519942 0
M  V30 14 H 40.322422 31.154380 52.762045 0
M  V30 15 H 37.179226 26.985925 53.763799 0
M  V30 16 H 37.501326 28.270572 54.864799 0
M  V30 END ATOM
M  V30 BEGIN BOND
M  V30 1 1 2 1
M  V30 2 1 3 2
M  V30 3 2 4 3
M  V30 4 1 5 4
M  V30 5 2 6 2
M  V30 6 1 7 5
M  V30 7 2 8 5
M  V30 8 1 8 6
M  V30 9 1 9 1
M  V30 10 1 10 1
M  V30 11 1 11 1
M  V30 12 1 12 3
M  V30 13 1 13 4
M  V30 14 1 14 6
M  V30 15 1 15 7
M  V30 16 1 16 7
M  V30 END BOND
M  V30 END CTAB
M  END
>  <i_epik_Tot_Q>  (1) 
0

>  <i_epik_Tot_abs_Q>  (1) 
0

>  <i_i_glide_confnum>  (1) 
1

>  <i_i_glide_lignum>  (1) 
56

>  <i_i_glide_posenum>  (1) 
278

>  <i_i_glide_rotatable_bonds>  (1) 
0

>  <i_lp_mmshare_version>  (1) 
72125

>  <i_m_source_file_index>  (1) 
54

>  <i_f3d_flags>  (1) 
0

>  <num_sample>  (1) 
100

>  <b_lp_Chiralities_Consistent>  (1) 
1

>  <r_epik_Charging_Adjusted_Penalty>  (1) 
0.35861937746939487

>  <r_epik_Ionization_Penalty>  (1) 
0.35867228033349524

>  <r_epik_Ionization_Penalty_Charging>  (1) 
0

>  <r_epik_Ionization_Penalty_Neutral>  (1) 
0.35867228033349524

>  <r_epik_State_Penalty>  (1) 
0.35861937746939487

>  <r_glide_ring_energy>  (1) 
0

>  <r_i_docking_score>  (1) 
-5.2558135865715858

>  <r_i_glide_ecoul>  (1) 
-1.1191590523078487

>  <r_i_glide_eff_state_penalty>  (1) 
0.35861937746939487

>  <r_i_glide_einternal>  (1) 
0

>  <r_i_glide_emodel>  (1) 
-28.214065449581327

>  <r_i_glide_emodel_strain>  (1) 
0

>  <r_i_glide_energy>  (1) 
-21.029319824207402

>  <r_i_glide_erotb>  (1) 
0

>  <r_i_glide_esite>  (1) 
0

>  <r_i_glide_evdw>  (1) 
-19.910160771899552

>  <r_i_glide_gscore>  (1) 
-5.6144329640409802

>  <r_i_glide_gscore_strain>  (1) 
0

>  <r_i_glide_hbond>  (1) 
0

>  <r_i_glide_ligand_efficiency>  (1) 
-0.65697669832144823

>  <r_i_glide_ligand_efficiency_ln>  (1) 
-1.706742445159241

>  <r_i_glide_ligand_efficiency_sa>  (1) 
-1.3139533966428967

>  <r_i_glide_lipo>  (1) 
-1.98

>  <r_i_glide_metal>  (1) 
-0

>  <r_i_glide_rewards>  (1) 
-2.4710510675998254

>  <r_lp_Energy>  (1) 
5.8194469999999994

>  <r_lp_tautomer_probability>  (1) 
0.99999977220005165

>  <s_epik_cmdline>  (1) 
J2VwaWtfcHl0aG9uJywgJy1waHQnLCAnMS4wJywgJy1waCcsICc3LjQnLCAnLXRuJywgJzgnLCAnLW1hJywgJzUwMCcsICctaW1hZScsICc8aW5maWxlLm1hZT4nLCAnLW9tYWUnLCAnPG91dGZpbGUubWFlPic=

>  <s_epik_input>  (1) 
W0NIM11jMVtjSF1bY0hdYyhbTkgyXSluW2NIXTE=

>  <s_glide_docking_method>  (1) 
confgen

>  <s_i_glide_gridfile>  (1) 
gpcr_5ht2c_6bqh_protein_autoprepared_prepared

>  <s_lp_Force_Field>  (1) 
S-OPLS

>  <s_lp_Variant>  (1) 
Pocket2Mol_53_num_sample_100-1

>  <s_m_source_file>  (1) 
generated__ligand_Pocket2Mol_2026-05-06_prepared.sdf

>  <GenAI_Model>  (1) 
Pocket2Mol

>  <Protein>  (1) 
GPCR_5HT2C

$$$$
Pocket2Mol_43_num_sample_100
     RDKit          3D

  0  0  0  0  0  0  0  0  0  0999 V3000
M  V30 BEGIN CTAB
M  V30 COUNTS 15 15 0 0 1
M  V30 BEGIN ATOM
M  V30 1 C 39.104073 27.609197 51.570854 0
M  V30 2 O 40.230109 28.421201 51.276235 0
M  V30 3 C 39.957273 29.800467 51.115754 0
M  V30 4 C 38.165241 28.240601 52.601994 0
M  V30 5 O 38.901938 28.740443 53.707568 0
M  V30 6 C 39.867437 30.543017 52.441322 0
M  V30 7 C 39.392715 30.021429 53.595534 0
M  V30 8 H 38.556566 27.400662 50.653497 0
M  V30 9 H 39.469456 26.650336 51.937926 0
M  V30 10 H 39.074317 29.978900 50.501292 0
M  V30 11 H 40.802571 30.223649 50.572441 0
M  V30 12 H 37.544449 29.017557 52.155708 0
M  V30 13 H 37.468649 27.483821 52.963622 0
M  V30 14 H 40.221287 31.563523 52.435286 0
M  V30 15 H 39.340555 30.561546 54.529714 0
M  V30 END ATOM
M  V30 BEGIN BOND
M  V30 1 1 2 1
M  V30 2 1 3 2
M  V30 3 1 4 1
M  V30 4 1 5 4
M  V30 5 1 6 3
M  V30 6 1 7 5
M  V30 7 2 7 6
M  V30 8 1 8 1
M  V30 9 1 9 1
M  V30 10 1 10 3
M  V30 11 1 11 3
M  V30 12 1 12 4
M  V30 13 1 13 4
M  V30 14 1 14 6
M  V30 15 1 15 7
M  V30 END BOND
M  V30 END CTAB
M  END
>  <i_epik_Tot_Q>  (1) 
0

>  <i_epik_Tot_abs_Q>  (1) 
0

>  <i_i_glide_confnum>  (1) 
4

>  <i_i_glide_lignum>  (1) 
46

>  <i_i_glide_posenum>  (1) 
149

>  <i_i_glide_rotatable_bonds>  (1) 
0

>  <i_lp_mmshare_version>  (1) 
72125

>  <i_m_source_file_index>  (1) 
44

>  <i_f3d_flags>  (1) 
0

>  <num_sample>  (1) 
100

>  <b_lp_Chiralities_Consistent>  (1) 
1

>  <r_epik_Charging_Adjusted_Penalty>  (1) 
0

>  <r_epik_Ionization_Penalty>  (1) 
5.6701613537443791e-14

>  <r_epik_Ionization_Penalty_Charging>  (1) 
0

>  <r_epik_Ionization_Penalty_Neutral>  (1) 
5.6701613537443791e-14

>  <r_epik_State_Penalty>  (1) 
-0

>  <r_glide_ring_energy>  (1) 
0.98544188256928789

>  <r_i_docking_score>  (1) 
-5.2466163173922116

>  <r_i_glide_ecoul>  (1) 
-1.2380477119736462

>  <r_i_glide_eff_state_penalty>  (1) 
-0

>  <r_i_glide_einternal>  (1) 
0

>  <r_i_glide_emodel>  (1) 
-22.907273632445015

>  <r_i_glide_emodel_strain>  (1) 
0

>  <r_i_glide_energy>  (1) 
-17.302734488221805

>  <r_i_glide_erotb>  (1) 
0

>  <r_i_glide_esite>  (1) 
0

>  <r_i_glide_evdw>  (1) 
-16.064686776248159

>  <r_i_glide_gscore>  (1) 
-5.2466163173922116

>  <r_i_glide_gscore_strain>  (1) 
0

>  <r_i_glide_hbond>  (1) 
0

>  <r_i_glide_ligand_efficiency>  (1) 
-0.74951661677031589

>  <r_i_glide_ligand_efficiency_ln>  (1) 
-1.7809831433842891

>  <r_i_glide_ligand_efficiency_sa>  (1) 
-1.433773708226

>  <r_i_glide_lipo>  (1) 
-1.5486451462024391

>  <r_i_glide_metal>  (1) 
-0

>  <r_i_glide_rewards>  (1) 
-2.7090296755813186

>  <r_lp_Energy>  (1) 
7.3473649999999999

>  <r_lp_tautomer_probability>  (1) 
1

>  <s_epik_cmdline>  (1) 
J2VwaWtfcHl0aG9uJywgJy1waHQnLCAnMS4wJywgJy1waCcsICc3LjQnLCAnLXRuJywgJzgnLCAnLW1hJywgJzUwMCcsICctaW1hZScsICc8aW5maWxlLm1hZT4nLCAnLW9tYWUnLCAnPG91dGZpbGUubWFlPic=

>  <s_epik_input>  (1) 
W0NIMl0xT1tDSDJdW0NIXT1bQ0hdT1tDSDJdMQ==

>  <s_glide_docking_method>  (1) 
confgen

>  <s_i_glide_gridfile>  (1) 
gpcr_5ht2c_6bqh_protein_autoprepared_prepared

>  <s_lp_Force_Field>  (1) 
S-OPLS

>  <s_lp_Variant>  (1) 
Pocket2Mol_43_num_sample_100-1

>  <s_m_source_file>  (1) 
generated__ligand_Pocket2Mol_2026-05-06_prepared.sdf

>  <GenAI_Model>  (1) 
Pocket2Mol

>  <Protein>  (1) 
GPCR_5HT2C

$$$$
Pocket2Mol_10_num_sample_100
     RDKit          3D

  0  0  0  0  0  0  0  0  0  0999 V3000
M  V30 BEGIN CTAB
M  V30 COUNTS 12 12 0 0 1
M  V30 BEGIN ATOM
M  V30 1 C 39.067732 27.621410 51.379865 0
M  V30 2 C 39.757851 28.876753 51.426292 0
M  V30 3 C 39.467616 29.604211 52.556740 0
M  V30 4 C 39.994461 30.939946 52.944245 0
M  V30 5 C 38.267583 27.417132 52.473423 0
M  V30 6 S 38.341874 28.753147 53.567330 0
M  V30 7 H 39.182549 26.927240 50.559384 0
M  V30 8 H 40.430544 29.195097 50.643355 0
M  V30 9 H 40.545504 31.394901 52.121151 0
M  V30 10 H 39.184175 31.615719 53.220512 0
M  V30 11 H 40.667398 30.854950 53.798132 0
M  V30 12 H 37.638003 26.566914 52.693419 0
M  V30 END ATOM
M  V30 BEGIN BOND
M  V30 1 1 2 1
M  V30 2 2 3 2
M  V30 3 1 4 3
M  V30 4 2 5 1
M  V30 5 1 6 3
M  V30 6 1 6 5
M  V30 7 1 7 1
M  V30 8 1 8 2
M  V30 9 1 9 4
M  V30 10 1 10 4
M  V30 11 1 11 4
M  V30 12 1 12 5
M  V30 END BOND
M  V30 END CTAB
M  END
>  <i_epik_Tot_Q>  (1) 
0

>  <i_epik_Tot_abs_Q>  (1) 
0

>  <i_i_glide_confnum>  (1) 
1

>  <i_i_glide_lignum>  (1) 
13

>  <i_i_glide_posenum>  (1) 
257

>  <i_i_glide_rotatable_bonds>  (1) 
0

>  <i_lp_mmshare_version>  (1) 
72125

>  <i_m_source_file_index>  (1) 
11

>  <i_f3d_flags>  (1) 
0

>  <num_sample>  (1) 
100

>  <b_lp_Chiralities_Consistent>  (1) 
1

>  <r_epik_Charging_Adjusted_Penalty>  (1) 
0

>  <r_epik_Ionization_Penalty>  (1) 
0

>  <r_epik_Ionization_Penalty_Charging>  (1) 
0

>  <r_epik_Ionization_Penalty_Neutral>  (1) 
0

>  <r_epik_State_Penalty>  (1) 
-0

>  <r_glide_ring_energy>  (1) 
0

>  <r_i_docking_score>  (1) 
-5.2464995557193284

>  <r_i_glide_ecoul>  (1) 
-1.4071237423771357

>  <r_i_glide_eff_state_penalty>  (1) 
-0

>  <r_i_glide_einternal>  (1) 
0

>  <r_i_glide_emodel>  (1) 
-23.060372930512973

>  <r_i_glide_emodel_strain>  (1) 
6.2003513434660817e-10

>  <r_i_glide_energy>  (1) 
-17.312533075616262

>  <r_i_glide_erotb>  (1) 
0

>  <r_i_glide_esite>  (1) 
0

>  <r_i_glide_evdw>  (1) 
-15.905409333239126

>  <r_i_glide_gscore>  (1) 
-5.2464995557193284

>  <r_i_glide_gscore_strain>  (1) 
0

>  <r_i_glide_hbond>  (1) 
0

>  <r_i_glide_ligand_efficiency>  (1) 
-0.87441659261988802

>  <r_i_glide_ligand_efficiency_ln>  (1) 
-1.8792806520577612

>  <r_i_glide_ligand_efficiency_sa>  (1) 
-1.5889203971637107

>  <r_i_glide_lipo>  (1) 
-1.7704206978601473

>  <r_i_glide_metal>  (1) 
-0

>  <r_i_glide_rewards>  (1) 
-2.4697398298406541

>  <r_lp_Energy>  (1) 
3.145988

>  <r_lp_tautomer_probability>  (1) 
1

>  <s_epik_cmdline>  (1) 
J2VwaWtfcHl0aG9uJywgJy1waHQnLCAnMS4wJywgJy1waCcsICc3LjQnLCAnLXRuJywgJzgnLCAnLW1hJywgJzUwMCcsICctaW1hZScsICc8aW5maWxlLm1hZT4nLCAnLW9tYWUnLCAnPG91dGZpbGUubWFlPic=

>  <s_epik_input>  (1) 
czFbY0hdW2NIXVtjSF1jMVtDSDNd

>  <s_glide_docking_method>  (1) 
confgen

>  <s_i_glide_gridfile>  (1) 
gpcr_5ht2c_6bqh_protein_autoprepared_prepared

>  <s_lp_Force_Field>  (1) 
S-OPLS

>  <s_lp_Variant>  (1) 
Pocket2Mol_10_num_sample_100-1

>  <s_m_source_file>  (1) 
generated__ligand_Pocket2Mol_2026-05-06_prepared.sdf

>  <GenAI_Model>  (1) 
Pocket2Mol

>  <Protein>  (1) 
GPCR_5HT2C

$$$$
Pocket2Mol_40_num_sample_100
     RDKit          3D

  0  0  0  0  0  0  0  0  0  0999 V3000
M  V30 BEGIN CTAB
M  V30 COUNTS 12 12 0 0 1
M  V30 BEGIN ATOM
M  V30 1 C 39.067905 27.396739 51.292683 0
M  V30 2 C 39.700965 28.469470 50.653502 0
M  V30 3 C 39.709555 29.435831 51.476047 0
M  V30 4 C 40.267528 30.821391 51.269634 0
M  V30 5 N 38.659468 27.620374 52.508202 0
M  V30 6 C 39.066911 29.000512 52.688622 0
M  V30 7 O 38.897292 29.684806 53.695973 0
M  V30 8 H 38.952005 26.453216 50.753064 0
M  V30 9 H 40.083686 28.421513 49.647267 0
M  V30 10 H 40.667408 31.221427 52.201233 0
M  V30 11 H 41.068544 30.812464 50.529209 0
M  V30 12 H 39.488389 31.497916 50.918014 0
M  V30 END ATOM
M  V30 BEGIN BOND
M  V30 1 1 2 1
M  V30 2 2 3 2
M  V30 3 1 4 3
M  V30 4 2 5 1
M  V30 5 1 6 3
M  V30 6 1 6 5
M  V30 7 2 7 6
M  V30 8 1 8 1
M  V30 9 1 9 2
M  V30 10 1 10 4
M  V30 11 1 11 4
M  V30 12 1 12 4
M  V30 END BOND
M  V30 END CTAB
M  END
>  <i_epik_Tot_Q>  (1) 
0

>  <i_epik_Tot_abs_Q>  (1) 
0

>  <i_i_glide_confnum>  (1) 
1

>  <i_i_glide_lignum>  (1) 
43

>  <i_i_glide_posenum>  (1) 
343

>  <i_i_glide_rotatable_bonds>  (1) 
0

>  <i_lp_mmshare_version>  (1) 
72125

>  <i_m_source_file_index>  (1) 
41

>  <i_f3d_flags>  (1) 
0

>  <num_sample>  (1) 
100

>  <b_lp_Chiralities_Consistent>  (1) 
1

>  <r_epik_Charging_Adjusted_Penalty>  (1) 
0

>  <r_epik_Ionization_Penalty>  (1) 
0

>  <r_epik_Ionization_Penalty_Charging>  (1) 
0

>  <r_epik_Ionization_Penalty_Neutral>  (1) 
0

>  <r_epik_State_Penalty>  (1) 
-0

>  <r_glide_ring_energy>  (1) 
0

>  <r_i_docking_score>  (1) 
-5.238467182683455

>  <r_i_glide_ecoul>  (1) 
-0.20861742340742456

>  <r_i_glide_eff_state_penalty>  (1) 
-0

>  <r_i_glide_einternal>  (1) 
0

>  <r_i_glide_emodel>  (1) 
-24.057029465146837

>  <r_i_glide_emodel_strain>  (1) 
0.093903934788336585

>  <r_i_glide_energy>  (1) 
-18.015496420797465

>  <r_i_glide_erotb>  (1) 
0

>  <r_i_glide_esite>  (1) 
0

>  <r_i_glide_evdw>  (1) 
-17.80687899739004

>  <r_i_glide_gscore>  (1) 
-5.238467182683455

>  <r_i_glide_gscore_strain>  (1) 
0

>  <r_i_glide_hbond>  (1) 
0

>  <r_i_glide_ligand_efficiency>  (1) 
-0.74835245466906497

>  <r_i_glide_ligand_efficiency_ln>  (1) 
-1.77821688973213

>  <r_i_glide_ligand_efficiency_sa>  (1) 
-1.4315467462407152

>  <r_i_glide_lipo>  (1) 
-0.98409956293750367

>  <r_i_glide_metal>  (1) 
-0

>  <r_i_glide_rewards>  (1) 
-3.3327310563653354

>  <r_lp_Energy>  (1) 
0.58044799999999996

>  <r_lp_tautomer_probability>  (1) 
1

>  <s_epik_Chemistry_Notes>  (1) 
This compound has an imine and may undergo hydrolysis.

>  <s_epik_cmdline>  (1) 
J2VwaWtfcHl0aG9uJywgJy1waHQnLCAnMS4wJywgJy1waCcsICc3LjQnLCAnLXRuJywgJzgnLCAnLW1hJywgJzUwMCcsICctaW1hZScsICc8aW5maWxlLm1hZT4nLCAnLW9tYWUnLCAnPG91dGZpbGUubWFlPic=

>  <s_epik_input>  (1) 
Tz1DMU49W0NIXVtDSF09QzFbQ0gzXQ==

>  <s_glide_docking_method>  (1) 
confgen

>  <s_i_glide_gridfile>  (1) 
gpcr_5ht2c_6bqh_protein_autoprepared_prepared

>  <s_lp_Force_Field>  (1) 
S-OPLS

>  <s_lp_Variant>  (1) 
Pocket2Mol_40_num_sample_100-1

>  <s_m_source_file>  (1) 
generated__ligand_Pocket2Mol_2026-05-06_prepared.sdf

>  <GenAI_Model>  (1) 
Pocket2Mol

>  <Protein>  (1) 
GPCR_5HT2C

$$$$
Pocket2Mol_24_num_sample_100
     RDKit          3D

  0  0  0  0  0  0  0  0  0  0999 V3000
M  V30 BEGIN CTAB
M  V30 COUNTS 11 11 0 0 1
M  V30 BEGIN ATOM
M  V30 1 C 38.779146 28.235889 52.279603 0
M  V30 2 C 39.467425 28.503852 51.053499 0
M  V30 3 C 40.122735 29.700793 51.105296 0
M  V30 4 C 40.945951 30.361626 50.052284 0
M  V30 5 N 38.899126 29.162618 53.211773 0
M  V30 6 S 39.867404 30.421420 52.653525 0
M  V30 7 H 38.184396 27.359776 52.494333 0
M  V30 8 H 39.450210 27.830869 50.210263 0
M  V30 9 H 40.985768 29.757792 49.145774 0
M  V30 10 H 40.524443 31.331704 49.790433 0
M  V30 11 H 41.966589 30.520579 50.399630 0
M  V30 END ATOM
M  V30 BEGIN BOND
M  V30 1 1 2 1
M  V30 2 2 3 2
M  V30 3 1 4 3
M  V30 4 2 5 1
M  V30 5 1 6 3
M  V30 6 1 6 5
M  V30 7 1 7 1
M  V30 8 1 8 2
M  V30 9 1 9 4
M  V30 10 1 10 4
M  V30 11 1 11 4
M  V30 END BOND
M  V30 END CTAB
M  END
>  <i_epik_Tot_Q>  (1) 
0

>  <i_epik_Tot_abs_Q>  (1) 
0

>  <i_i_glide_confnum>  (1) 
1

>  <i_i_glide_lignum>  (1) 
27

>  <i_i_glide_posenum>  (1) 
3

>  <i_i_glide_rotatable_bonds>  (1) 
0

>  <i_lp_mmshare_version>  (1) 
72125

>  <i_m_source_file_index>  (1) 
25

>  <i_f3d_flags>  (1) 
0

>  <num_sample>  (1) 
100

>  <b_lp_Chiralities_Consistent>  (1) 
1

>  <r_epik_Charging_Adjusted_Penalty>  (1) 
0

>  <r_epik_Ionization_Penalty>  (1) 
2.7081824038816109e-08

>  <r_epik_Ionization_Penalty_Charging>  (1) 
0

>  <r_epik_Ionization_Penalty_Neutral>  (1) 
2.7081824038816109e-08

>  <r_epik_State_Penalty>  (1) 
-0

>  <r_glide_ring_energy>  (1) 
0

>  <r_i_docking_score>  (1) 
-5.2342431448242923

>  <r_i_glide_ecoul>  (1) 
-0.86945142454666091

>  <r_i_glide_eff_state_penalty>  (1) 
-0

>  <r_i_glide_einternal>  (1) 
0

>  <r_i_glide_emodel>  (1) 
-23.760902539949377

>  <r_i_glide_emodel_strain>  (1) 
0

>  <r_i_glide_energy>  (1) 
-17.915317475125441

>  <r_i_glide_erotb>  (1) 
0

>  <r_i_glide_esite>  (1) 
0

>  <r_i_glide_evdw>  (1) 
-17.04586605057878

>  <r_i_glide_gscore>  (1) 
-5.2342431448242923

>  <r_i_glide_gscore_strain>  (1) 
0

>  <r_i_glide_hbond>  (1) 
0

>  <r_i_glide_ligand_efficiency>  (1) 
-0.87237385747071539

>  <r_i_glide_ligand_efficiency_ln>  (1) 
-1.8748904418587338

>  <r_i_glide_ligand_efficiency_sa>  (1) 
-1.5852085010584471

>  <r_i_glide_lipo>  (1) 
-1.6500000000000001

>  <r_i_glide_metal>  (1) 
-0

>  <r_i_glide_rewards>  (1) 
-2.601532128613353

>  <r_lp_Energy>  (1) 
1.924183

>  <r_lp_tautomer_probability>  (1) 
1

>  <s_epik_cmdline>  (1) 
J2VwaWtfcHl0aG9uJywgJy1waHQnLCAnMS4wJywgJy1waCcsICc3LjQnLCAnLXRuJywgJzgnLCAnLW1hJywgJzUwMCcsICctaW1hZScsICc8aW5maWxlLm1hZT4nLCAnLW9tYWUnLCAnPG91dGZpbGUubWFlPic=

>  <s_epik_input>  (1) 
czFuW2NIXVtjSF1jMVtDSDNd

>  <s_glide_docking_method>  (1) 
confgen

>  <s_i_glide_gridfile>  (1) 
gpcr_5ht2c_6bqh_protein_autoprepared_prepared

>  <s_lp_Force_Field>  (1) 
S-OPLS

>  <s_lp_Variant>  (1) 
Pocket2Mol_24_num_sample_100-1

>  <s_m_source_file>  (1) 
generated__ligand_Pocket2Mol_2026-05-06_prepared.sdf

>  <GenAI_Model>  (1) 
Pocket2Mol

>  <Protein>  (1) 
GPCR_5HT2C

$$$$
Pocket2Mol_21_num_sample_100
     RDKit          3D

  0  0  0  0  0  0  0  0  0  0999 V3000
M  V30 BEGIN CTAB
M  V30 COUNTS 13 13 0 0 1
M  V30 BEGIN ATOM
M  V30 1 C 38.815206 28.175794 51.979644 0
M  V30 2 C 39.067403 29.215005 52.916900 0
M  V30 3 C 39.467893 28.495049 50.823061 0
M  V30 4 C 39.867403 30.139117 52.305175 0
M  V30 5 N 40.117990 29.702135 51.017606 0
M  V30 6 C 40.925571 30.395946 50.035932 0
M  V30 7 H 38.217035 27.288588 52.134909 0
M  V30 8 H 38.701198 29.281028 53.930594 0
M  V30 9 H 39.530945 27.979500 49.877244 0
M  V30 10 H 40.282955 31.070644 52.663820 0
M  V30 11 H 40.959128 29.833229 49.102625 0
M  V30 12 H 40.500348 31.380435 49.841744 0
M  V30 13 H 41.940709 30.515373 50.414549 0
M  V30 END ATOM
M  V30 BEGIN BOND
M  V30 1 1 2 1
M  V30 2 2 3 1
M  V30 3 2 4 2
M  V30 4 1 5 3
M  V30 5 1 5 4
M  V30 6 1 6 5
M  V30 7 1 7 1
M  V30 8 1 8 2
M  V30 9 1 9 3
M  V30 10 1 10 4
M  V30 11 1 11 6
M  V30 12 1 12 6
M  V30 13 1 13 6
M  V30 END BOND
M  V30 END CTAB
M  END
>  <i_epik_Tot_Q>  (1) 
0

>  <i_epik_Tot_abs_Q>  (1) 
0

>  <i_i_glide_confnum>  (1) 
1

>  <i_i_glide_lignum>  (1) 
24

>  <i_i_glide_posenum>  (1) 
258

>  <i_i_glide_rotatable_bonds>  (1) 
0

>  <i_lp_mmshare_version>  (1) 
72125

>  <i_m_source_file_index>  (1) 
22

>  <i_f3d_flags>  (1) 
0

>  <num_sample>  (1) 
100

>  <b_lp_Chiralities_Consistent>  (1) 
1

>  <r_epik_Charging_Adjusted_Penalty>  (1) 
0

>  <r_epik_Ionization_Penalty>  (1) 
5.9248581604286784e-11

>  <r_epik_Ionization_Penalty_Charging>  (1) 
0

>  <r_epik_Ionization_Penalty_Neutral>  (1) 
5.9248581604286784e-11

>  <r_epik_State_Penalty>  (1) 
-0

>  <r_glide_ring_energy>  (1) 
0

>  <r_i_docking_score>  (1) 
-5.2206917072435335

>  <r_i_glide_ecoul>  (1) 
-0.97847682799366742

>  <r_i_glide_eff_state_penalty>  (1) 
-0

>  <r_i_glide_einternal>  (1) 
0

>  <r_i_glide_emodel>  (1) 
-22.445694979304861

>  <r_i_glide_emodel_strain>  (1) 
0

>  <r_i_glide_energy>  (1) 
-17.108634590286652

>  <r_i_glide_erotb>  (1) 
0

>  <r_i_glide_esite>  (1) 
0

>  <r_i_glide_evdw>  (1) 
-16.130157762292985

>  <r_i_glide_gscore>  (1) 
-5.2206917072435335

>  <r_i_glide_gscore_strain>  (1) 
0

>  <r_i_glide_hbond>  (1) 
0

>  <r_i_glide_ligand_efficiency>  (1) 
-0.87011528454058895

>  <r_i_glide_ligand_efficiency_ln>  (1) 
-1.8700363569240794

>  <r_i_glide_ligand_efficiency_sa>  (1) 
-1.5811044016767011

>  <r_i_glide_lipo>  (1) 
-1.5674122949298341

>  <r_i_glide_metal>  (1) 
-0

>  <r_i_glide_rewards>  (1) 
-2.7000000000000002

>  <r_lp_Energy>  (1) 
0.62146699999999999

>  <r_lp_tautomer_probability>  (1) 
1

>  <s_epik_cmdline>  (1) 
J2VwaWtfcHl0aG9uJywgJy1waHQnLCAnMS4wJywgJy1waCcsICc3LjQnLCAnLXRuJywgJzgnLCAnLW1hJywgJzUwMCcsICctaW1hZScsICc8aW5maWxlLm1hZT4nLCAnLW9tYWUnLCAnPG91dGZpbGUubWFlPic=

>  <s_epik_input>  (1) 
W2NIXTFbY0hdW2NIXVtjSF1uMVtDSDNd

>  <s_glide_docking_method>  (1) 
confgen

>  <s_i_glide_gridfile>  (1) 
gpcr_5ht2c_6bqh_protein_autoprepared_prepared

>  <s_lp_Force_Field>  (1) 
S-OPLS

>  <s_lp_Variant>  (1) 
Pocket2Mol_21_num_sample_100-1

>  <s_m_source_file>  (1) 
generated__ligand_Pocket2Mol_2026-05-06_prepared.sdf

>  <GenAI_Model>  (1) 
Pocket2Mol

>  <Protein>  (1) 
GPCR_5HT2C

$$$$
Pocket2Mol_47_num_sample_100
     RDKit          3D

  0  0  0  0  0  0  0  0  0  0999 V3000
M  V30 BEGIN CTAB
M  V30 COUNTS 20 20 0 0 1
M  V30 BEGIN ATOM
M  V30 1 C 38.090985 29.420885 54.697450 0
M  V30 2 O 39.467402 29.749687 54.549129 0
M  V30 3 C 39.731455 30.564548 53.413857 0
M  V30 4 C 37.714823 28.188244 53.866069 0
M  V30 5 O 37.870718 28.421431 52.474449 0
M  V30 6 C 39.228515 28.387186 52.059615 0 CFG=1
M  V30 7 C 39.251137 27.796820 50.653502 0
M  V30 8 C 39.867403 29.785703 52.088850 0
M  V30 9 H 37.924173 29.187180 55.749076 0
M  V30 10 H 37.438142 30.265940 54.472448 0
M  V30 11 H 38.983806 31.353518 53.323621 0
M  V30 12 H 40.667400 31.089310 53.602907 0
M  V30 13 H 38.271138 27.307726 54.191218 0
M  V30 14 H 36.667403 27.954097 54.040828 0
M  V30 15 H 39.811664 27.712619 52.688501 0
M  V30 16 H 40.267403 27.704344 50.273330 0
M  V30 17 H 38.801007 26.804438 50.644499 0
M  V30 18 H 38.691296 28.421427 49.958205 0
M  V30 19 H 39.467517 30.398821 51.280756 0
M  V30 20 H 40.923620 29.662516 51.853468 0
M  V30 END ATOM
M  V30 BEGIN BOND
M  V30 1 1 2 1
M  V30 2 1 3 2
M  V30 3 1 4 1
M  V30 4 1 5 4
M  V30 5 1 6 5
M  V30 6 1 7 6
M  V30 7 1 8 3
M  V30 8 1 8 6
M  V30 9 1 9 1
M  V30 10 1 10 1
M  V30 11 1 11 3
M  V30 12 1 12 3
M  V30 13 1 13 4
M  V30 14 1 14 4
M  V30 15 1 6 15 CFG=1
M  V30 16 1 16 7
M  V30 17 1 17 7
M  V30 18 1 18 7
M  V30 19 1 19 8
M  V30 20 1 20 8
M  V30 END BOND
M  V30 END CTAB
M  END
>  <i_epik_Tot_Q>  (1) 
0

>  <i_epik_Tot_abs_Q>  (1) 
0

>  <i_i_glide_confnum>  (1) 
6

>  <i_i_glide_lignum>  (1) 
50

>  <i_i_glide_posenum>  (1) 
400

>  <i_i_glide_rotatable_bonds>  (1) 
0

>  <i_lp_mmshare_version>  (1) 
72125

>  <i_m_source_file_index>  (1) 
48

>  <i_f3d_flags>  (1) 
0

>  <num_sample>  (1) 
100

>  <b_lp_Chiralities_Consistent>  (1) 
1

>  <r_epik_Charging_Adjusted_Penalty>  (1) 
0

>  <r_epik_Ionization_Penalty>  (1) 
4.0259461194199272e-12

>  <r_epik_Ionization_Penalty_Charging>  (1) 
0

>  <r_epik_Ionization_Penalty_Neutral>  (1) 
4.0259461194199272e-12

>  <r_epik_State_Penalty>  (1) 
-0

>  <r_glide_ring_energy>  (1) 
0.28092827696695249

>  <r_i_docking_score>  (1) 
-5.2146329475971385

>  <r_i_glide_ecoul>  (1) 
-0.24425777787392694

>  <r_i_glide_eff_state_penalty>  (1) 
-0

>  <r_i_glide_einternal>  (1) 
0

>  <r_i_glide_emodel>  (1) 
-24.092613582135577

>  <r_i_glide_emodel_strain>  (1) 
0

>  <r_i_glide_energy>  (1) 
-18.262471347350509

>  <r_i_glide_erotb>  (1) 
0

>  <r_i_glide_esite>  (1) 
0

>  <r_i_glide_evdw>  (1) 
-18.018213569476583

>  <r_i_glide_gscore>  (1) 
-5.2146329475971385

>  <r_i_glide_gscore_strain>  (1) 
0

>  <r_i_glide_hbond>  (1) 
0

>  <r_i_glide_ligand_efficiency>  (1) 
-0.65182911844964231

>  <r_i_glide_ligand_efficiency_ln>  (1) 
-1.6933696831122682

>  <r_i_glide_ligand_efficiency_sa>  (1) 
-1.3036582368992848

>  <r_i_glide_lipo>  (1) 
-1.7905351938305061

>  <r_i_glide_metal>  (1) 
-0

>  <r_i_glide_rewards>  (1) 
-2.4865484086117138

>  <r_lp_Energy>  (1) 
6.6371139999999995

>  <r_lp_tautomer_probability>  (1) 
1

>  <s_epik_cmdline>  (1) 
J2VwaWtfcHl0aG9uJywgJy1waHQnLCAnMS4wJywgJy1waCcsICc3LjQnLCAnLXRuJywgJzgnLCAnLW1hJywgJzUwMCcsICctaW1hZScsICc8aW5maWxlLm1hZT4nLCAnLW9tYWUnLCAnPG91dGZpbGUubWFlPic=

>  <s_epik_input>  (1) 
W0NIMl0xW0NIMl1PW0NIMl1bQ0gyXU9bQ0BIXTFbQ0gzXQ==

>  <s_glide_docking_method>  (1) 
confgen

>  <s_i_glide_gridfile>  (1) 
gpcr_5ht2c_6bqh_protein_autoprepared_prepared

>  <s_lp_Force_Field>  (1) 
S-OPLS

>  <s_lp_Variant>  (1) 
Pocket2Mol_47_num_sample_100-1

>  <s_m_source_file>  (1) 
generated__ligand_Pocket2Mol_2026-05-06_prepared.sdf

>  <GenAI_Model>  (1) 
Pocket2Mol

>  <Protein>  (1) 
GPCR_5HT2C

$$$$
Pocket2Mol_40_num_sample_100
     RDKit          3D

  0  0  0  0  0  0  0  0  0  0999 V3000
M  V30 BEGIN CTAB
M  V30 COUNTS 12 12 0 0 1
M  V30 BEGIN ATOM
M  V30 1 C 38.666786 27.663241 52.444441 0
M  V30 2 C 39.138017 28.051284 51.132156 0
M  V30 3 C 39.634758 29.271719 51.299215 0
M  V30 4 C 40.267274 30.166671 50.252596 0
M  V30 5 N 38.853007 28.551088 53.329324 0
M  V30 6 C 39.467403 29.621762 52.697452 0
M  V30 7 O 39.809435 30.678356 53.225709 0
M  V30 8 H 38.203019 26.685191 52.596818 0
M  V30 9 H 39.067775 27.430234 50.251596 0
M  V30 10 H 40.586638 31.118204 50.678898 0
M  V30 11 H 41.139531 29.678558 49.817593 0
M  V30 12 H 39.554705 30.373389 49.453958 0
M  V30 END ATOM
M  V30 BEGIN BOND
M  V30 1 1 2 1
M  V30 2 2 3 2
M  V30 3 1 4 3
M  V30 4 2 5 1
M  V30 5 1 6 3
M  V30 6 1 6 5
M  V30 7 2 7 6
M  V30 8 1 8 1
M  V30 9 1 9 2
M  V30 10 1 10 4
M  V30 11 1 11 4
M  V30 12 1 12 4
M  V30 END BOND
M  V30 END CTAB
M  END
>  <i_epik_Tot_Q>  (1) 
0

>  <i_epik_Tot_abs_Q>  (1) 
0

>  <i_i_glide_confnum>  (1) 
1

>  <i_i_glide_lignum>  (1) 
43

>  <i_i_glide_posenum>  (1) 
321

>  <i_i_glide_rotatable_bonds>  (1) 
0

>  <i_lp_mmshare_version>  (1) 
72125

>  <i_m_source_file_index>  (1) 
41

>  <i_f3d_flags>  (1) 
0

>  <num_sample>  (1) 
100

>  <b_lp_Chiralities_Consistent>  (1) 
1

>  <r_epik_Charging_Adjusted_Penalty>  (1) 
0

>  <r_epik_Ionization_Penalty>  (1) 
0

>  <r_epik_Ionization_Penalty_Charging>  (1) 
0

>  <r_epik_Ionization_Penalty_Neutral>  (1) 
0

>  <r_epik_State_Penalty>  (1) 
-0

>  <r_glide_ring_energy>  (1) 
0

>  <r_i_docking_score>  (1) 
-5.2111096413994664

>  <r_i_glide_ecoul>  (1) 
-0.62247843186095597

>  <r_i_glide_eff_state_penalty>  (1) 
-0

>  <r_i_glide_einternal>  (1) 
0

>  <r_i_glide_emodel>  (1) 
-25.244245511683211

>  <r_i_glide_emodel_strain>  (1) 
0

>  <r_i_glide_energy>  (1) 
-19.140850438049259

>  <r_i_glide_erotb>  (1) 
0

>  <r_i_glide_esite>  (1) 
0

>  <r_i_glide_evdw>  (1) 
-18.518372006188304

>  <r_i_glide_gscore>  (1) 
-5.2111096413994664

>  <r_i_glide_gscore_strain>  (1) 
0

>  <r_i_glide_hbond>  (1) 
0

>  <r_i_glide_ligand_efficiency>  (1) 
-0.74444423448563801

>  <r_i_glide_ligand_efficiency_ln>  (1) 
-1.7689302720487083

>  <r_i_glide_ligand_efficiency_sa>  (1) 
-1.4240705899826975

>  <r_i_glide_lipo>  (1) 
-0.98999999999999999

>  <r_i_glide_metal>  (1) 
-0

>  <r_i_glide_rewards>  (1) 
-3.2018192763109079

>  <r_lp_Energy>  (1) 
0.58044799999999996

>  <r_lp_tautomer_probability>  (1) 
1

>  <s_epik_Chemistry_Notes>  (1) 
This compound has an imine and may undergo hydrolysis.

>  <s_epik_cmdline>  (1) 
J2VwaWtfcHl0aG9uJywgJy1waHQnLCAnMS4wJywgJy1waCcsICc3LjQnLCAnLXRuJywgJzgnLCAnLW1hJywgJzUwMCcsICctaW1hZScsICc8aW5maWxlLm1hZT4nLCAnLW9tYWUnLCAnPG91dGZpbGUubWFlPic=

>  <s_epik_input>  (1) 
Tz1DMU49W0NIXVtDSF09QzFbQ0gzXQ==

>  <s_glide_docking_method>  (1) 
confgen

>  <s_i_glide_gridfile>  (1) 
gpcr_5ht2c_6bqh_protein_autoprepared_prepared

>  <s_lp_Force_Field>  (1) 
S-OPLS

>  <s_lp_Variant>  (1) 
Pocket2Mol_40_num_sample_100-1

>  <s_m_source_file>  (1) 
generated__ligand_Pocket2Mol_2026-05-06_prepared.sdf

>  <GenAI_Model>  (1) 
Pocket2Mol

>  <Protein>  (1) 
GPCR_5HT2C

$$$$
Pocket2Mol_85_num_sample_100
     RDKit          3D

  0  0  0  0  0  0  0  0  0  0999 V3000
M  V30 BEGIN CTAB
M  V30 COUNTS 14 14 0 0 1
M  V30 BEGIN ATOM
M  V30 1 C 39.577316 28.635522 50.882695 0
M  V30 2 C 38.950460 27.819161 51.768681 0
M  V30 3 C 39.867769 29.756574 51.495075 0
M  V30 4 C 38.850594 28.439963 52.944669 0
M  V30 5 O 40.484788 30.821419 50.973182 0
M  V30 6 C 39.467489 29.916520 53.000196 0
M  V30 7 C 38.200081 27.862457 54.237306 0
M  V30 8 O 38.227224 28.605505 55.241651 0
M  V30 9 O 37.716867 26.712602 54.141493 0 CHG=-1
M  V30 10 H 39.796175 28.401489 49.853311 0
M  V30 11 H 38.589003 26.823388 51.554428 0
M  V30 12 H 40.659747 30.633224 50.064837 0
M  V30 13 H 40.314220 30.020940 53.676831 0
M  V30 14 H 38.712791 30.681067 53.179605 0
M  V30 END ATOM
M  V30 BEGIN BOND
M  V30 1 1 2 1
M  V30 2 2 3 1
M  V30 3 2 4 2
M  V30 4 1 5 3
M  V30 5 1 6 3
M  V30 6 1 6 4
M  V30 7 1 7 4
M  V30 8 2 8 7
M  V30 9 1 9 7
M  V30 10 1 10 1
M  V30 11 1 11 2
M  V30 12 1 12 5
M  V30 13 1 13 6
M  V30 14 1 14 6
M  V30 END BOND
M  V30 END CTAB
M  END
>  <i_epik_Tot_Q>  (1) 
-1

>  <i_epik_Tot_abs_Q>  (1) 
1

>  <i_i_glide_confnum>  (1) 
1

>  <i_i_glide_lignum>  (1) 
90

>  <i_i_glide_posenum>  (1) 
125

>  <i_i_glide_rotatable_bonds>  (1) 
2

>  <i_lp_mmshare_version>  (1) 
72125

>  <i_m_source_file_index>  (1) 
86

>  <i_f3d_flags>  (1) 
0

>  <num_sample>  (1) 
100

>  <b_lp_Chiralities_Consistent>  (1) 
1

>  <r_epik_Charging_Adjusted_Penalty>  (1) 
0.00019237637697373591

>  <r_epik_Ionization_Penalty>  (1) 
0.0032632994418700166

>  <r_epik_Ionization_Penalty_Charging>  (1) 
0.00019237637697373591

>  <r_epik_Ionization_Penalty_Neutral>  (1) 
0.0030709230648962808

>  <r_epik_State_Penalty>  (1) 
-0

>  <r_glide_ring_energy>  (1) 
0

>  <r_i_docking_score>  (1) 
-5.2099021749145349

>  <r_i_glide_ecoul>  (1) 
0.33284665838178862

>  <r_i_glide_eff_state_penalty>  (1) 
-0

>  <r_i_glide_einternal>  (1) 
0.012696305186771006

>  <r_i_glide_emodel>  (1) 
-24.861892469134826

>  <r_i_glide_emodel_strain>  (1) 
0

>  <r_i_glide_energy>  (1) 
-17.359149741947093

>  <r_i_glide_erotb>  (1) 
0

>  <r_i_glide_esite>  (1) 
0

>  <r_i_glide_evdw>  (1) 
-17.691996400328883

>  <r_i_glide_gscore>  (1) 
-5.2099021749145349

>  <r_i_glide_gscore_strain>  (1) 
0

>  <r_i_glide_hbond>  (1) 
0

>  <r_i_glide_ligand_efficiency>  (1) 
-0.57887801943494832

>  <r_i_glide_ligand_efficiency_ln>  (1) 
-1.6295077336278909

>  <r_i_glide_ligand_efficiency_sa>  (1) 
-1.204114803746962

>  <r_i_glide_lipo>  (1) 
-1.5264428729284298

>  <r_i_glide_metal>  (1) 
-0

>  <r_i_glide_rewards>  (1) 
-2.848786480726929

>  <r_lp_Energy>  (1) 
1.821912

>  <r_lp_tautomer_probability>  (1) 
1

>  <s_epik_cmdline>  (1) 
J2VwaWtfcHl0aG9uJywgJy1waHQnLCAnMS4wJywgJy1waCcsICc3LjQnLCAnLXRuJywgJzgnLCAnLW1hJywgJzUwMCcsICctaW1hZScsICc8aW5maWxlLm1hZT4nLCAnLW9tYWUnLCAnPG91dGZpbGUubWFlPic=

>  <s_epik_input>  (1) 
W09IXUMxPVtDSF1bQ0hdPUMoW0NIMl0xKUMoPU8pW09IXQ==

>  <s_glide_docking_method>  (1) 
confgen

>  <s_i_glide_gridfile>  (1) 
gpcr_5ht2c_6bqh_protein_autoprepared_prepared

>  <s_lp_Force_Field>  (1) 
S-OPLS

>  <s_lp_Variant>  (1) 
Pocket2Mol_85_num_sample_100-1

>  <s_m_source_file>  (1) 
generated__ligand_Pocket2Mol_2026-05-06_prepared.sdf

>  <GenAI_Model>  (1) 
Pocket2Mol

>  <Protein>  (1) 
GPCR_5HT2C

$$$$
Pocket2Mol_31_num_sample_100
     RDKit          3D

  0  0  0  0  0  0  0  0  0  0999 V3000
M  V30 BEGIN CTAB
M  V30 COUNTS 17 17 0 0 1
M  V30 BEGIN ATOM
M  V30 1 C 38.198638 24.717629 57.453476 0
M  V30 2 C 39.179323 25.890067 57.497418 0
M  V30 3 C 39.791117 26.335302 56.168673 0
M  V30 4 O 39.467385 26.445339 58.554887 0
M  V30 5 C 37.165403 24.885181 56.325900 0
M  V30 6 C 38.715641 26.467607 55.076061 0
M  V30 7 C 37.827629 25.216375 54.979905 0
M  V30 8 H 38.774133 23.804216 57.304547 0
M  V30 9 H 37.696723 24.622726 58.416410 0
M  V30 10 H 40.315592 27.281360 56.304298 0
M  V30 11 H 40.537651 25.597547 55.873355 0
M  V30 12 H 36.581048 23.969150 56.229884 0
M  V30 13 H 36.458669 25.672271 56.590845 0
M  V30 14 H 38.094837 27.342058 55.279246 0
M  V30 15 H 39.194854 26.649723 54.113435 0
M  V30 16 H 37.067482 25.361435 54.212076 0
M  V30 17 H 38.429552 24.368064 54.653504 0
M  V30 END ATOM
M  V30 BEGIN BOND
M  V30 1 1 2 1
M  V30 2 1 3 2
M  V30 3 2 4 2
M  V30 4 1 5 1
M  V30 5 1 6 3
M  V30 6 1 7 5
M  V30 7 1 7 6
M  V30 8 1 8 1
M  V30 9 1 9 1
M  V30 10 1 10 3
M  V30 11 1 11 3
M  V30 12 1 12 5
M  V30 13 1 13 5
M  V30 14 1 14 6
M  V30 15 1 15 6
M  V30 16 1 16 7
M  V30 17 1 17 7
M  V30 END BOND
M  V30 END CTAB
M  END
>  <i_epik_Tot_Q>  (1) 
0

>  <i_epik_Tot_abs_Q>  (1) 
0

>  <i_i_glide_confnum>  (1) 
2

>  <i_i_glide_lignum>  (1) 
34

>  <i_i_glide_posenum>  (1) 
379

>  <i_i_glide_rotatable_bonds>  (1) 
0

>  <i_lp_mmshare_version>  (1) 
72125

>  <i_m_source_file_index>  (1) 
32

>  <i_f3d_flags>  (1) 
0

>  <num_sample>  (1) 
100

>  <b_lp_Chiralities_Consistent>  (1) 
1

>  <r_epik_Charging_Adjusted_Penalty>  (1) 
0

>  <r_epik_Ionization_Penalty>  (1) 
3.7730911281982554e-13

>  <r_epik_Ionization_Penalty_Charging>  (1) 
0

>  <r_epik_Ionization_Penalty_Neutral>  (1) 
3.7730911281982554e-13

>  <r_epik_State_Penalty>  (1) 
-0

>  <r_glide_ring_energy>  (1) 
4.2281688740393558e-05

>  <r_i_docking_score>  (1) 
-5.2052682695071448

>  <r_i_glide_ecoul>  (1) 
-0.16445286222563091

>  <r_i_glide_eff_state_penalty>  (1) 
-0

>  <r_i_glide_einternal>  (1) 
0

>  <r_i_glide_emodel>  (1) 
-22.457425118250509

>  <r_i_glide_emodel_strain>  (1) 
0

>  <r_i_glide_energy>  (1) 
-16.934893116319522

>  <r_i_glide_erotb>  (1) 
0

>  <r_i_glide_esite>  (1) 
0

>  <r_i_glide_evdw>  (1) 
-16.770440254093891

>  <r_i_glide_gscore>  (1) 
-5.2052682695071448

>  <r_i_glide_gscore_strain>  (1) 
0

>  <r_i_glide_hbond>  (1) 
0

>  <r_i_glide_ligand_efficiency>  (1) 
-0.74360975278673502

>  <r_i_glide_ligand_efficiency_ln>  (1) 
-1.7669473969450007

>  <r_i_glide_ligand_efficiency_sa>  (1) 
-1.4224742839194129

>  <r_i_glide_lipo>  (1) 
-1.5807235070789905

>  <r_i_glide_metal>  (1) 
-0

>  <r_i_glide_rewards>  (1) 
-2.7613548203896165

>  <r_lp_Energy>  (1) 
-0.38655299999999998

>  <r_lp_tautomer_probability>  (1) 
1

>  <s_epik_cmdline>  (1) 
J2VwaWtfcHl0aG9uJywgJy1waHQnLCAnMS4wJywgJy1waCcsICc3LjQnLCAnLXRuJywgJzgnLCAnLW1hJywgJzUwMCcsICctaW1hZScsICc8aW5maWxlLm1hZT4nLCAnLW9tYWUnLCAnPG91dGZpbGUubWFlPic=

>  <s_epik_input>  (1) 
Tz1DMVtDSDJdW0NIMl1bQ0gyXVtDSDJdW0NIMl0x

>  <s_glide_docking_method>  (1) 
confgen

>  <s_i_glide_gridfile>  (1) 
gpcr_5ht2c_6bqh_protein_autoprepared_prepared

>  <s_lp_Force_Field>  (1) 
S-OPLS

>  <s_lp_Variant>  (1) 
Pocket2Mol_31_num_sample_100-1

>  <s_m_source_file>  (1) 
generated__ligand_Pocket2Mol_2026-05-06_prepared.sdf

>  <GenAI_Model>  (1) 
Pocket2Mol

>  <Protein>  (1) 
GPCR_5HT2C

$$$$
Pocket2Mol_37_num_sample_100
     RDKit          3D

  0  0  0  0  0  0  0  0  0  0999 V3000
M  V30 BEGIN CTAB
M  V30 COUNTS 11 11 0 0 1
M  V30 BEGIN ATOM
M  V30 1 C 39.867405 30.370483 52.480421 0
M  V30 2 O 39.090446 29.452610 53.150958 0
M  V30 3 C 38.652543 28.241400 52.579992 0
M  V30 4 O 37.961854 27.425742 53.186025 0
M  V30 5 C 39.111588 28.045992 51.159538 0
M  V30 6 C 40.255705 30.166130 51.226710 0
M  V30 7 C 39.867401 28.977526 50.550848 0
M  V30 8 H 40.107804 31.236469 53.078004 0
M  V30 9 H 38.818293 27.143182 50.642921 0
M  V30 10 H 40.864425 30.902543 50.721515 0
M  V30 11 H 40.183979 28.821428 49.530489 0
M  V30 END ATOM
M  V30 BEGIN BOND
M  V30 1 1 2 1
M  V30 2 1 3 2
M  V30 3 2 4 3
M  V30 4 1 5 3
M  V30 5 2 6 1
M  V30 6 2 7 5
M  V30 7 1 7 6
M  V30 8 1 8 1
M  V30 9 1 9 5
M  V30 10 1 10 6
M  V30 11 1 11 7
M  V30 END BOND
M  V30 END CTAB
M  END
>  <i_epik_Tot_Q>  (1) 
0

>  <i_epik_Tot_abs_Q>  (1) 
0

>  <i_i_glide_confnum>  (1) 
1

>  <i_i_glide_lignum>  (1) 
40

>  <i_i_glide_posenum>  (1) 
158

>  <i_i_glide_rotatable_bonds>  (1) 
0

>  <i_lp_mmshare_version>  (1) 
72125

>  <i_m_source_file_index>  (1) 
38

>  <i_f3d_flags>  (1) 
0

>  <num_sample>  (1) 
100

>  <b_lp_Chiralities_Consistent>  (1) 
1

>  <r_epik_Charging_Adjusted_Penalty>  (1) 
0

>  <r_epik_Ionization_Penalty>  (1) 
2.4984917370333966e-09

>  <r_epik_Ionization_Penalty_Charging>  (1) 
0

>  <r_epik_Ionization_Penalty_Neutral>  (1) 
2.4984917370333966e-09

>  <r_epik_State_Penalty>  (1) 
-0

>  <r_glide_ring_energy>  (1) 
0

>  <r_i_docking_score>  (1) 
-5.2021413881270417

>  <r_i_glide_ecoul>  (1) 
-0.32350918366054693

>  <r_i_glide_eff_state_penalty>  (1) 
-0

>  <r_i_glide_einternal>  (1) 
0

>  <r_i_glide_emodel>  (1) 
-23.772809628846073

>  <r_i_glide_emodel_strain>  (1) 
0

>  <r_i_glide_energy>  (1) 
-18.160560033731819

>  <r_i_glide_erotb>  (1) 
0

>  <r_i_glide_esite>  (1) 
0

>  <r_i_glide_evdw>  (1) 
-17.837050850071272

>  <r_i_glide_gscore>  (1) 
-5.2021413881270417

>  <r_i_glide_gscore_strain>  (1) 
0

>  <r_i_glide_hbond>  (1) 
0

>  <r_i_glide_ligand_efficiency>  (1) 
-0.74316305544672023

>  <r_i_glide_ligand_efficiency_ln>  (1) 
-1.7658859655971688

>  <r_i_glide_ligand_efficiency_sa>  (1) 
-1.4216197826484371

>  <r_i_glide_lipo>  (1) 
-1.6500000000000001

>  <r_i_glide_metal>  (1) 
-0

>  <r_i_glide_rewards>  (1) 
-2.6117624680743958

>  <r_lp_Energy>  (1) 
11.255118999999999

>  <r_lp_tautomer_probability>  (1) 
1

>  <s_epik_cmdline>  (1) 
J2VwaWtfcHl0aG9uJywgJy1waHQnLCAnMS4wJywgJy1waCcsICc3LjQnLCAnLXRuJywgJzgnLCAnLW1hJywgJzUwMCcsICctaW1hZScsICc8aW5maWxlLm1hZT4nLCAnLW9tYWUnLCAnPG91dGZpbGUubWFlPic=

>  <s_epik_input>  (1) 
W2NIXTFbY0hdW2NIXVtjSF1vYzE9Tw==

>  <s_glide_docking_method>  (1) 
confgen

>  <s_i_glide_gridfile>  (1) 
gpcr_5ht2c_6bqh_protein_autoprepared_prepared

>  <s_lp_Force_Field>  (1) 
S-OPLS

>  <s_lp_Variant>  (1) 
Pocket2Mol_37_num_sample_100-1

>  <s_m_source_file>  (1) 
generated__ligand_Pocket2Mol_2026-05-06_prepared.sdf

>  <GenAI_Model>  (1) 
Pocket2Mol

>  <Protein>  (1) 
GPCR_5HT2C

$$$$
Pocket2Mol_10_num_sample_100
     RDKit          3D

  0  0  0  0  0  0  0  0  0  0999 V3000
M  V30 BEGIN CTAB
M  V30 COUNTS 12 12 0 0 1
M  V30 BEGIN ATOM
M  V30 1 C 38.346756 27.508240 52.433074 0
M  V30 2 C 38.450023 28.608766 53.343913 0
M  V30 3 C 39.248170 29.621429 52.870914 0
M  V30 4 C 39.586146 30.905986 53.543425 0
M  V30 5 C 39.067200 27.701119 51.281876 0
M  V30 6 S 39.867514 29.234855 51.292787 0
M  V30 7 H 37.757701 26.629976 52.653901 0
M  V30 8 H 37.945380 28.616850 54.298597 0
M  V30 9 H 39.137749 30.959567 54.535702 0
M  V30 10 H 40.665369 31.016237 53.651755 0
M  V30 11 H 39.210592 31.749275 52.966957 0
M  V30 12 H 39.166036 27.038260 50.432858 0
M  V30 END ATOM
M  V30 BEGIN BOND
M  V30 1 1 2 1
M  V30 2 2 3 2
M  V30 3 1 4 3
M  V30 4 2 5 1
M  V30 5 1 6 3
M  V30 6 1 6 5
M  V30 7 1 7 1
M  V30 8 1 8 2
M  V30 9 1 9 4
M  V30 10 1 10 4
M  V30 11 1 11 4
M  V30 12 1 12 5
M  V30 END BOND
M  V30 END CTAB
M  END
>  <i_epik_Tot_Q>  (1) 
0

>  <i_epik_Tot_abs_Q>  (1) 
0

>  <i_i_glide_confnum>  (1) 
1

>  <i_i_glide_lignum>  (1) 
13

>  <i_i_glide_posenum>  (1) 
369

>  <i_i_glide_rotatable_bonds>  (1) 
0

>  <i_lp_mmshare_version>  (1) 
72125

>  <i_m_source_file_index>  (1) 
11

>  <i_f3d_flags>  (1) 
0

>  <num_sample>  (1) 
100

>  <b_lp_Chiralities_Consistent>  (1) 
1

>  <r_epik_Charging_Adjusted_Penalty>  (1) 
0

>  <r_epik_Ionization_Penalty>  (1) 
0

>  <r_epik_Ionization_Penalty_Charging>  (1) 
0

>  <r_epik_Ionization_Penalty_Neutral>  (1) 
0

>  <r_epik_State_Penalty>  (1) 
-0

>  <r_glide_ring_energy>  (1) 
0

>  <r_i_docking_score>  (1) 
-5.2019060958748007

>  <r_i_glide_ecoul>  (1) 
-1.2401810637772541

>  <r_i_glide_eff_state_penalty>  (1) 
-0

>  <r_i_glide_einternal>  (1) 
0

>  <r_i_glide_emodel>  (1) 
-23.297508241097734

>  <r_i_glide_emodel_strain>  (1) 
0

>  <r_i_glide_energy>  (1) 
-17.598523067272584

>  <r_i_glide_erotb>  (1) 
0

>  <r_i_glide_esite>  (1) 
0

>  <r_i_glide_evdw>  (1) 
-16.358342003495331

>  <r_i_glide_gscore>  (1) 
-5.2019060958748007

>  <r_i_glide_gscore_strain>  (1) 
0

>  <r_i_glide_hbond>  (1) 
0

>  <r_i_glide_ligand_efficiency>  (1) 
-0.86698434931246682

>  <r_i_glide_ligand_efficiency_ln>  (1) 
-1.8633074063909854

>  <r_i_glide_ligand_efficiency_sa>  (1) 
-1.5754151147988567

>  <r_i_glide_lipo>  (1) 
-1.7565657817670335

>  <r_i_glide_metal>  (1) 
-0

>  <r_i_glide_rewards>  (1) 
-2.4413960543664128

>  <r_lp_Energy>  (1) 
3.145988

>  <r_lp_tautomer_probability>  (1) 
1

>  <s_epik_cmdline>  (1) 
J2VwaWtfcHl0aG9uJywgJy1waHQnLCAnMS4wJywgJy1waCcsICc3LjQnLCAnLXRuJywgJzgnLCAnLW1hJywgJzUwMCcsICctaW1hZScsICc8aW5maWxlLm1hZT4nLCAnLW9tYWUnLCAnPG91dGZpbGUubWFlPic=

>  <s_epik_input>  (1) 
czFbY0hdW2NIXVtjSF1jMVtDSDNd

>  <s_glide_docking_method>  (1) 
confgen

>  <s_i_glide_gridfile>  (1) 
gpcr_5ht2c_6bqh_protein_autoprepared_prepared

>  <s_lp_Force_Field>  (1) 
S-OPLS

>  <s_lp_Variant>  (1) 
Pocket2Mol_10_num_sample_100-1

>  <s_m_source_file>  (1) 
generated__ligand_Pocket2Mol_2026-05-06_prepared.sdf

>  <GenAI_Model>  (1) 
Pocket2Mol

>  <Protein>  (1) 
GPCR_5HT2C

$$$$
Pocket2Mol_63_num_sample_100
     RDKit          3D

  0  0  0  0  0  0  0  0  0  0999 V3000
M  V30 BEGIN CTAB
M  V30 COUNTS 14 14 0 0 1
M  V30 BEGIN ATOM
M  V30 1 C 39.902108 29.736905 51.271179 0
M  V30 2 C 39.717599 30.021432 52.694667 0
M  V30 3 C 39.467403 28.602432 50.871514 0
M  V30 4 C 38.849134 27.761021 51.893816 0
M  V30 5 N 39.166832 28.647814 53.099953 0
M  V30 6 N 37.867396 28.864732 53.856146 0 CHG=1
M  V30 7 O 37.067385 27.938269 53.853493 0 CHG=-1
M  V30 8 O 37.727147 29.938014 54.433452 0
M  V30 9 H 40.378058 30.458551 50.622602 0
M  V30 10 H 40.667371 30.226076 53.186541 0
M  V30 11 H 39.067402 30.884353 52.810919 0
M  V30 12 H 39.535192 28.263514 49.853503 0
M  V30 13 H 37.793104 27.641032 51.651986 0
M  V30 14 H 39.335907 26.788626 51.967824 0
M  V30 END ATOM
M  V30 BEGIN BOND
M  V30 1 1 2 1
M  V30 2 2 3 1
M  V30 3 1 4 3
M  V30 4 1 5 2
M  V30 5 1 5 4
M  V30 6 1 6 5
M  V30 7 1 7 6
M  V30 8 2 8 6
M  V30 9 1 9 1
M  V30 10 1 10 2
M  V30 11 1 11 2
M  V30 12 1 12 3
M  V30 13 1 13 4
M  V30 14 1 14 4
M  V30 END BOND
M  V30 END CTAB
M  END
>  <i_epik_Tot_Q>  (1) 
0

>  <i_epik_Tot_abs_Q>  (1) 
2

>  <i_i_glide_confnum>  (1) 
1

>  <i_i_glide_lignum>  (1) 
67

>  <i_i_glide_posenum>  (1) 
197

>  <i_i_glide_rotatable_bonds>  (1) 
1

>  <i_lp_mmshare_version>  (1) 
72125

>  <i_m_source_file_index>  (1) 
64

>  <i_f3d_flags>  (1) 
0

>  <num_sample>  (1) 
100

>  <b_lp_Chiralities_Consistent>  (1) 
1

>  <r_epik_Charging_Adjusted_Penalty>  (1) 
0.01004869924428556

>  <r_epik_Ionization_Penalty>  (1) 
0.010048699244285546

>  <r_epik_Ionization_Penalty_Charging>  (1) 
0

>  <r_epik_Ionization_Penalty_Neutral>  (1) 
0.010048699244285546

>  <r_epik_State_Penalty>  (1) 
0.01004869924428556

>  <r_glide_ring_energy>  (1) 
0

>  <r_i_docking_score>  (1) 
-5.2017496749694612

>  <r_i_glide_ecoul>  (1) 
-0.38820858577617579

>  <r_i_glide_eff_state_penalty>  (1) 
0.01004869924428556

>  <r_i_glide_einternal>  (1) 
0.0055475476172091864

>  <r_i_glide_emodel>  (1) 
-23.351583935335057

>  <r_i_glide_emodel_strain>  (1) 
0

>  <r_i_glide_energy>  (1) 
-17.281791465725551

>  <r_i_glide_erotb>  (1) 
0

>  <r_i_glide_esite>  (1) 
0

>  <r_i_glide_evdw>  (1) 
-16.893582879949374

>  <r_i_glide_gscore>  (1) 
-5.211798374213747

>  <r_i_glide_gscore_strain>  (1) 
0

>  <r_i_glide_hbond>  (1) 
0

>  <r_i_glide_ligand_efficiency>  (1) 
-0.65021870937118265

>  <r_i_glide_ligand_efficiency_ln>  (1) 
-1.6891860438214086

>  <r_i_glide_ligand_efficiency_sa>  (1) 
-1.3004374187423655

>  <r_i_glide_lipo>  (1) 
-1.3011994481600613

>  <r_i_glide_metal>  (1) 
-0

>  <r_i_glide_rewards>  (1) 
-3.0076884941897903

>  <r_lp_Energy>  (1) 
16.803152000000001

>  <s_epik_cmdline>  (1) 
J2VwaWtfcHl0aG9uJywgJy1waHQnLCAnMS4wJywgJy1waCcsICc3LjQnLCAnLXRuJywgJzgnLCAnLW1hJywgJzUwMCcsICctaW1hZScsICc8aW5maWxlLm1hZT4nLCAnLW9tYWUnLCAnPG91dGZpbGUubWFlPic=

>  <s_epik_input>  (1) 
W0NIMl0xW0NIXT1bQ0hdW0NIMl1OMVtOK10oW08tXSk9Tw==

>  <s_glide_docking_method>  (1) 
confgen

>  <s_i_glide_gridfile>  (1) 
gpcr_5ht2c_6bqh_protein_autoprepared_prepared

>  <s_lp_Force_Field>  (1) 
S-OPLS

>  <s_lp_Variant>  (1) 
Pocket2Mol_63_num_sample_100-1

>  <s_m_source_file>  (1) 
generated__ligand_Pocket2Mol_2026-05-06_prepared.sdf

>  <GenAI_Model>  (1) 
Pocket2Mol

>  <Protein>  (1) 
GPCR_5HT2C

$$$$
Pocket2Mol_21_num_sample_100
     RDKit          3D

  0  0  0  0  0  0  0  0  0  0999 V3000
M  V30 BEGIN CTAB
M  V30 COUNTS 13 13 0 0 1
M  V30 BEGIN ATOM
M  V30 1 C 40.267350 30.426525 50.991409 0
M  V30 2 C 39.867374 30.421518 52.355779 0
M  V30 3 C 39.931527 29.217284 50.457473 0
M  V30 4 C 39.300912 29.206991 52.615708 0
M  V30 5 N 39.342575 28.459585 51.452792 0
M  V30 6 C 38.852283 27.110048 51.304845 0
M  V30 7 H 40.748385 31.231308 50.456592 0
M  V30 8 H 39.982868 31.222217 53.071054 0
M  V30 9 H 40.058537 28.821294 49.461249 0
M  V30 10 H 38.873690 28.799470 53.520782 0
M  V30 11 H 38.789332 26.828466 50.253502 0
M  V30 12 H 39.525090 26.421403 51.813380 0
M  V30 13 H 37.867989 27.031980 51.759266 0
M  V30 END ATOM
M  V30 BEGIN BOND
M  V30 1 1 2 1
M  V30 2 2 3 1
M  V30 3 2 4 2
M  V30 4 1 5 3
M  V30 5 1 5 4
M  V30 6 1 6 5
M  V30 7 1 7 1
M  V30 8 1 8 2
M  V30 9 1 9 3
M  V30 10 1 10 4
M  V30 11 1 11 6
M  V30 12 1 12 6
M  V30 13 1 13 6
M  V30 END BOND
M  V30 END CTAB
M  END
>  <i_epik_Tot_Q>  (1) 
0

>  <i_epik_Tot_abs_Q>  (1) 
0

>  <i_i_glide_confnum>  (1) 
1

>  <i_i_glide_lignum>  (1) 
24

>  <i_i_glide_posenum>  (1) 
308

>  <i_i_glide_rotatable_bonds>  (1) 
0

>  <i_lp_mmshare_version>  (1) 
72125

>  <i_m_source_file_index>  (1) 
22

>  <i_f3d_flags>  (1) 
0

>  <num_sample>  (1) 
100

>  <b_lp_Chiralities_Consistent>  (1) 
1

>  <r_epik_Charging_Adjusted_Penalty>  (1) 
0

>  <r_epik_Ionization_Penalty>  (1) 
5.9248581604286784e-11

>  <r_epik_Ionization_Penalty_Charging>  (1) 
0

>  <r_epik_Ionization_Penalty_Neutral>  (1) 
5.9248581604286784e-11

>  <r_epik_State_Penalty>  (1) 
-0

>  <r_glide_ring_energy>  (1) 
0

>  <r_i_docking_score>  (1) 
-5.1884069148685814

>  <r_i_glide_ecoul>  (1) 
-1.135506982371808

>  <r_i_glide_eff_state_penalty>  (1) 
-0

>  <r_i_glide_einternal>  (1) 
0

>  <r_i_glide_emodel>  (1) 
-21.528482106830641

>  <r_i_glide_emodel_strain>  (1) 
0.00013912658633774555

>  <r_i_glide_energy>  (1) 
-16.224565261478784

>  <r_i_glide_erotb>  (1) 
0

>  <r_i_glide_esite>  (1) 
0

>  <r_i_glide_evdw>  (1) 
-15.089058279106977

>  <r_i_glide_gscore>  (1) 
-5.1884069148685814

>  <r_i_glide_gscore_strain>  (1) 
0

>  <r_i_glide_hbond>  (1) 
0

>  <r_i_glide_ligand_efficiency>  (1) 
-0.8647344858114302

>  <r_i_glide_ligand_efficiency_ln>  (1) 
-1.8584720396070582

>  <r_i_glide_ligand_efficiency_sa>  (1) 
-1.5713268415000619

>  <r_i_glide_lipo>  (1) 
-1.5636279535574611

>  <r_i_glide_metal>  (1) 
-0

>  <r_i_glide_rewards>  (1) 
-2.7000000000000002

>  <r_lp_Energy>  (1) 
0.62146699999999999

>  <r_lp_tautomer_probability>  (1) 
1

>  <s_epik_cmdline>  (1) 
J2VwaWtfcHl0aG9uJywgJy1waHQnLCAnMS4wJywgJy1waCcsICc3LjQnLCAnLXRuJywgJzgnLCAnLW1hJywgJzUwMCcsICctaW1hZScsICc8aW5maWxlLm1hZT4nLCAnLW9tYWUnLCAnPG91dGZpbGUubWFlPic=

>  <s_epik_input>  (1) 
W2NIXTFbY0hdW2NIXVtjSF1uMVtDSDNd

>  <s_glide_docking_method>  (1) 
confgen

>  <s_i_glide_gridfile>  (1) 
gpcr_5ht2c_6bqh_protein_autoprepared_prepared

>  <s_lp_Force_Field>  (1) 
S-OPLS

>  <s_lp_Variant>  (1) 
Pocket2Mol_21_num_sample_100-1

>  <s_m_source_file>  (1) 
generated__ligand_Pocket2Mol_2026-05-06_prepared.sdf

>  <GenAI_Model>  (1) 
Pocket2Mol

>  <Protein>  (1) 
GPCR_5HT2C

$$$$
Pocket2Mol_63_num_sample_100
     RDKit          3D

  0  0  0  0  0  0  0  0  0  0999 V3000
M  V30 BEGIN CTAB
M  V30 COUNTS 14 14 0 0 1
M  V30 BEGIN ATOM
M  V30 1 C 38.645850 28.072206 54.392658 0
M  V30 2 C 38.744663 29.357860 53.700955 0
M  V30 3 C 38.671977 27.036997 53.642632 0
M  V30 4 C 38.800375 27.297340 52.206237 0
M  V30 5 N 38.665827 28.821424 52.266930 0
M  V30 6 N 39.845210 29.414157 51.483818 0 CHG=1
M  V30 7 O 40.264353 30.508267 51.848012 0 CHG=-1
M  V30 8 O 40.267392 28.760898 50.537777 0
M  V30 9 H 38.557797 28.031008 55.469213 0
M  V30 10 H 37.901356 30.007167 53.934870 0
M  V30 11 H 39.683621 29.831292 53.987748 0
M  V30 12 H 38.608228 26.025290 54.015730 0
M  V30 13 H 39.764116 26.915656 51.870021 0
M  V30 14 H 37.990260 26.847413 51.630568 0
M  V30 END ATOM
M  V30 BEGIN BOND
M  V30 1 1 2 1
M  V30 2 2 3 1
M  V30 3 1 4 3
M  V30 4 1 5 2
M  V30 5 1 5 4
M  V30 6 1 6 5
M  V30 7 1 7 6
M  V30 8 2 8 6
M  V30 9 1 9 1
M  V30 10 1 10 2
M  V30 11 1 11 2
M  V30 12 1 12 3
M  V30 13 1 13 4
M  V30 14 1 14 4
M  V30 END BOND
M  V30 END CTAB
M  END
>  <i_epik_Tot_Q>  (1) 
0

>  <i_epik_Tot_abs_Q>  (1) 
2

>  <i_i_glide_confnum>  (1) 
1

>  <i_i_glide_lignum>  (1) 
67

>  <i_i_glide_posenum>  (1) 
396

>  <i_i_glide_rotatable_bonds>  (1) 
1

>  <i_lp_mmshare_version>  (1) 
72125

>  <i_m_source_file_index>  (1) 
64

>  <i_f3d_flags>  (1) 
0

>  <num_sample>  (1) 
100

>  <b_lp_Chiralities_Consistent>  (1) 
1

>  <r_epik_Charging_Adjusted_Penalty>  (1) 
0.01004869924428556

>  <r_epik_Ionization_Penalty>  (1) 
0.010048699244285546

>  <r_epik_Ionization_Penalty_Charging>  (1) 
0

>  <r_epik_Ionization_Penalty_Neutral>  (1) 
0.010048699244285546

>  <r_epik_State_Penalty>  (1) 
0.01004869924428556

>  <r_glide_ring_energy>  (1) 
0

>  <r_i_docking_score>  (1) 
-5.1852612709133785

>  <r_i_glide_ecoul>  (1) 
-0.15915517733482687

>  <r_i_glide_eff_state_penalty>  (1) 
0.01004869924428556

>  <r_i_glide_einternal>  (1) 
0.022144943250917426

>  <r_i_glide_emodel>  (1) 
-23.83770188503517

>  <r_i_glide_emodel_strain>  (1) 
6.8780963147219154e-09

>  <r_i_glide_energy>  (1) 
-17.795419708652929

>  <r_i_glide_erotb>  (1) 
0

>  <r_i_glide_esite>  (1) 
0

>  <r_i_glide_evdw>  (1) 
-17.636264531318101

>  <r_i_glide_gscore>  (1) 
-5.1953099701576644

>  <r_i_glide_gscore_strain>  (1) 
0

>  <r_i_glide_hbond>  (1) 
0

>  <r_i_glide_ligand_efficiency>  (1) 
-0.64815765886417231

>  <r_i_glide_ligand_efficiency_ln>  (1) 
-1.683831695043257

>  <r_i_glide_ligand_efficiency_sa>  (1) 
-1.2963153177283449

>  <r_i_glide_lipo>  (1) 
-1.1396234669915346

>  <r_i_glide_metal>  (1) 
-0

>  <r_i_glide_rewards>  (1) 
-3.1499999999999999

>  <r_lp_Energy>  (1) 
16.803152000000001

>  <s_epik_cmdline>  (1) 
J2VwaWtfcHl0aG9uJywgJy1waHQnLCAnMS4wJywgJy1waCcsICc3LjQnLCAnLXRuJywgJzgnLCAnLW1hJywgJzUwMCcsICctaW1hZScsICc8aW5maWxlLm1hZT4nLCAnLW9tYWUnLCAnPG91dGZpbGUubWFlPic=

>  <s_epik_input>  (1) 
W0NIMl0xW0NIXT1bQ0hdW0NIMl1OMVtOK10oW08tXSk9Tw==

>  <s_glide_docking_method>  (1) 
confgen

>  <s_i_glide_gridfile>  (1) 
gpcr_5ht2c_6bqh_protein_autoprepared_prepared

>  <s_lp_Force_Field>  (1) 
S-OPLS

>  <s_lp_Variant>  (1) 
Pocket2Mol_63_num_sample_100-1

>  <s_m_source_file>  (1) 
generated__ligand_Pocket2Mol_2026-05-06_prepared.sdf

>  <GenAI_Model>  (1) 
Pocket2Mol

>  <Protein>  (1) 
GPCR_5HT2C

$$$$
Pocket2Mol_38_num_sample_100
     RDKit          3D

  0  0  0  0  0  0  0  0  0  0999 V3000
M  V30 BEGIN CTAB
M  V30 COUNTS 17 17 0 0 1
M  V30 BEGIN ATOM
M  V30 1 C 37.183696 24.855663 56.334805 0
M  V30 2 C 38.228968 24.705915 57.453467 0
M  V30 3 C 39.177048 25.905046 57.511187 0
M  V30 4 O 39.467397 26.441678 58.577727 0
M  V30 5 C 37.831727 25.221440 54.991979 0
M  V30 6 C 38.662902 26.509169 55.105293 0
M  V30 7 C 39.754590 26.400166 56.184694 0
M  V30 8 H 36.624548 23.925300 56.230777 0
M  V30 9 H 36.455653 25.619866 56.611642 0
M  V30 10 H 38.829529 23.811327 57.289206 0
M  V30 11 H 40.241398 27.364296 56.334280 0
M  V30 12 H 37.735366 24.584272 58.417450 0
M  V30 13 H 37.067374 25.341285 54.224243 0
M  V30 14 H 38.471869 24.404083 54.659240 0
M  V30 15 H 38.005660 27.349604 55.334006 0
M  V30 16 H 39.122685 26.734531 54.142698 0
M  V30 17 H 40.525869 25.697945 55.867115 0
M  V30 END ATOM
M  V30 BEGIN BOND
M  V30 1 1 2 1
M  V30 2 1 3 2
M  V30 3 2 4 3
M  V30 4 1 5 1
M  V30 5 1 6 5
M  V30 6 1 7 3
M  V30 7 1 7 6
M  V30 8 1 8 1
M  V30 9 1 9 1
M  V30 10 1 10 2
M  V30 11 1 11 7
M  V30 12 1 12 2
M  V30 13 1 13 5
M  V30 14 1 14 5
M  V30 15 1 15 6
M  V30 16 1 16 6
M  V30 17 1 17 7
M  V30 END BOND
M  V30 END CTAB
M  END
>  <i_epik_Tot_Q>  (1) 
0

>  <i_epik_Tot_abs_Q>  (1) 
0

>  <i_i_glide_confnum>  (1) 
2

>  <i_i_glide_lignum>  (1) 
41

>  <i_i_glide_posenum>  (1) 
380

>  <i_i_glide_rotatable_bonds>  (1) 
0

>  <i_lp_mmshare_version>  (1) 
72125

>  <i_m_source_file_index>  (1) 
39

>  <i_f3d_flags>  (1) 
0

>  <num_sample>  (1) 
100

>  <b_lp_Chiralities_Consistent>  (1) 
1

>  <r_epik_Charging_Adjusted_Penalty>  (1) 
0

>  <r_epik_Ionization_Penalty>  (1) 
3.7730911281982554e-13

>  <r_epik_Ionization_Penalty_Charging>  (1) 
0

>  <r_epik_Ionization_Penalty_Neutral>  (1) 
3.7730911281982554e-13

>  <r_epik_State_Penalty>  (1) 
-0

>  <r_glide_ring_energy>  (1) 
4.2281688740393558e-05

>  <r_i_docking_score>  (1) 
-5.1852508392794894

>  <r_i_glide_ecoul>  (1) 
-0.16475843710762919

>  <r_i_glide_eff_state_penalty>  (1) 
-0

>  <r_i_glide_einternal>  (1) 
0

>  <r_i_glide_emodel>  (1) 
-22.440409581250243

>  <r_i_glide_emodel_strain>  (1) 
0

>  <r_i_glide_energy>  (1) 
-16.939097470210054

>  <r_i_glide_erotb>  (1) 
0

>  <r_i_glide_esite>  (1) 
0

>  <r_i_glide_evdw>  (1) 
-16.774339033102425

>  <r_i_glide_gscore>  (1) 
-5.1852508392794894

>  <r_i_glide_gscore_strain>  (1) 
0

>  <r_i_glide_hbond>  (1) 
0

>  <r_i_glide_ligand_efficiency>  (1) 
-0.74075011989706996

>  <r_i_glide_ligand_efficiency_ln>  (1) 
-1.760152406868988

>  <r_i_glide_ligand_efficiency_sa>  (1) 
-1.4170040029934912

>  <r_i_glide_lipo>  (1) 
-1.5696896585378934

>  <r_i_glide_metal>  (1) 
-0

>  <r_i_glide_rewards>  (1) 
-2.7521304635203307

>  <r_lp_Energy>  (1) 
-0.38638499999999998

>  <r_lp_tautomer_probability>  (1) 
1

>  <s_epik_cmdline>  (1) 
J2VwaWtfcHl0aG9uJywgJy1waHQnLCAnMS4wJywgJy1waCcsICc3LjQnLCAnLXRuJywgJzgnLCAnLW1hJywgJzUwMCcsICctaW1hZScsICc8aW5maWxlLm1hZT4nLCAnLW9tYWUnLCAnPG91dGZpbGUubWFlPic=

>  <s_epik_input>  (1) 
W0NIMl0xW0NIMl1bQ0gyXVtDSDJdW0NIXT1DMVtPSF0=

>  <s_glide_docking_method>  (1) 
confgen

>  <s_i_glide_gridfile>  (1) 
gpcr_5ht2c_6bqh_protein_autoprepared_prepared

>  <s_lp_Force_Field>  (1) 
S-OPLS

>  <s_lp_Variant>  (1) 
Pocket2Mol_38_num_sample_100-1

>  <s_m_source_file>  (1) 
generated__ligand_Pocket2Mol_2026-05-06_prepared.sdf

>  <GenAI_Model>  (1) 
Pocket2Mol

>  <Protein>  (1) 
GPCR_5HT2C

$$$$
Pocket2Mol_76_num_sample_100
     RDKit          3D

  0  0  0  0  0  0  0  0  0  0999 V3000
M  V30 BEGIN CTAB
M  V30 COUNTS 12 12 0 0 1
M  V30 BEGIN ATOM
M  V30 1 C 39.067618 27.597038 51.053548 0
M  V30 2 C 38.670426 27.767733 52.420671 0
M  V30 3 C 39.066268 28.967604 52.878837 0
M  V30 4 C 39.759969 29.621429 51.742937 0
M  V30 5 C 39.717399 28.680176 50.628201 0
M  V30 6 C 38.842232 29.551518 54.310594 0
M  V30 7 O 40.267438 30.739843 51.732392 0
M  V30 8 O 38.216266 28.815864 55.105709 0 CHG=-1
M  V30 9 O 39.312372 30.690054 54.522751 0
M  V30 10 H 38.868704 26.720021 50.456045 0
M  V30 11 H 38.130157 27.033974 53.001896 0
M  V30 12 H 40.139444 28.863330 49.651879 0
M  V30 END ATOM
M  V30 BEGIN BOND
M  V30 1 1 2 1
M  V30 2 2 3 2
M  V30 3 1 4 3
M  V30 4 2 5 1
M  V30 5 1 5 4
M  V30 6 1 6 3
M  V30 7 2 7 4
M  V30 8 1 8 6
M  V30 9 2 9 6
M  V30 10 1 10 1
M  V30 11 1 11 2
M  V30 12 1 12 5
M  V30 END BOND
M  V30 END CTAB
M  END
>  <i_epik_Tot_Q>  (1) 
-1

>  <i_epik_Tot_abs_Q>  (1) 
1

>  <i_i_glide_confnum>  (1) 
1

>  <i_i_glide_lignum>  (1) 
81

>  <i_i_glide_posenum>  (1) 
193

>  <i_i_glide_rotatable_bonds>  (1) 
1

>  <i_lp_mmshare_version>  (1) 
72125

>  <i_m_source_file_index>  (1) 
77

>  <i_f3d_flags>  (1) 
0

>  <num_sample>  (1) 
100

>  <b_lp_Chiralities_Consistent>  (1) 
1

>  <r_epik_Charging_Adjusted_Penalty>  (1) 
1.3987331750313068e-05

>  <r_epik_Ionization_Penalty>  (1) 
1.3987331750313068e-05

>  <r_epik_Ionization_Penalty_Charging>  (1) 
1.3987331750313068e-05

>  <r_epik_Ionization_Penalty_Neutral>  (1) 
0

>  <r_epik_State_Penalty>  (1) 
-0

>  <r_glide_ring_energy>  (1) 
0

>  <r_i_docking_score>  (1) 
-5.1850317342772501

>  <r_i_glide_ecoul>  (1) 
0.85344111265864653

>  <r_i_glide_eff_state_penalty>  (1) 
-0

>  <r_i_glide_einternal>  (1) 
0.0041563313286195058

>  <r_i_glide_emodel>  (1) 
-23.787800458758817

>  <r_i_glide_emodel_strain>  (1) 
0

>  <r_i_glide_energy>  (1) 
-17.477644427503098

>  <r_i_glide_erotb>  (1) 
0

>  <r_i_glide_esite>  (1) 
0

>  <r_i_glide_evdw>  (1) 
-18.331085540161745

>  <r_i_glide_gscore>  (1) 
-5.1850317342772501

>  <r_i_glide_gscore_strain>  (1) 
0

>  <r_i_glide_hbond>  (1) 
0

>  <r_i_glide_ligand_efficiency>  (1) 
-0.57611463714191669

>  <r_i_glide_ligand_efficiency_ln>  (1) 
-1.6217289742584113

>  <r_i_glide_ligand_efficiency_sa>  (1) 
-1.1983667369423188

>  <r_i_glide_lipo>  (1) 
-1.2803983285530209

>  <r_i_glide_metal>  (1) 
-0

>  <r_i_glide_rewards>  (1) 
-3.1160952956149397

>  <r_lp_Energy>  (1) 
9.1486529999999995

>  <r_lp_tautomer_probability>  (1) 
1

>  <s_epik_cmdline>  (1) 
J2VwaWtfcHl0aG9uJywgJy1waHQnLCAnMS4wJywgJy1waCcsICc3LjQnLCAnLXRuJywgJzgnLCAnLW1hJywgJzUwMCcsICctaW1hZScsICc8aW5maWxlLm1hZT4nLCAnLW9tYWUnLCAnPG91dGZpbGUubWFlPic=

>  <s_epik_input>  (1) 
Tz1DMVtDSF09W0NIXVtDSF09QzFDKD1PKVtPSF0=

>  <s_glide_docking_method>  (1) 
confgen

>  <s_i_glide_gridfile>  (1) 
gpcr_5ht2c_6bqh_protein_autoprepared_prepared

>  <s_lp_Force_Field>  (1) 
S-OPLS

>  <s_lp_Variant>  (1) 
Pocket2Mol_76_num_sample_100-1

>  <s_m_source_file>  (1) 
generated__ligand_Pocket2Mol_2026-05-06_prepared.sdf

>  <GenAI_Model>  (1) 
Pocket2Mol

>  <Protein>  (1) 
GPCR_5HT2C

$$$$
Pocket2Mol_17_num_sample_100
     RDKit          3D

  0  0  0  0  0  0  0  0  0  0999 V3000
M  V30 BEGIN CTAB
M  V30 COUNTS 16 16 0 0 1
M  V30 BEGIN ATOM
M  V30 1 C 40.129655 30.680734 51.781369 0
M  V30 2 C 39.502171 30.262258 53.120161 0
M  V30 3 C 40.299648 29.385762 50.995088 0
M  V30 4 C 38.898594 28.861988 52.910548 0
M  V30 5 C 39.154294 28.484796 51.447836 0
M  V30 6 O 40.267404 29.621425 49.603453 0
M  V30 7 H 41.067398 31.220689 51.903599 0
M  V30 8 H 39.467474 31.361026 51.249275 0
M  V30 9 H 40.267385 30.223076 53.896140 0
M  V30 10 H 38.753110 30.981967 53.453532 0
M  V30 11 H 41.248336 28.925137 51.270723 0
M  V30 12 H 39.387963 28.147621 53.573204 0
M  V30 13 H 37.833109 28.840222 53.142307 0
M  V30 14 H 38.267345 28.700385 50.858669 0
M  V30 15 H 39.376945 27.424930 51.317445 0
M  V30 16 H 39.390434 29.895567 49.364772 0
M  V30 END ATOM
M  V30 BEGIN BOND
M  V30 1 1 2 1
M  V30 2 1 3 1
M  V30 3 1 4 2
M  V30 4 1 5 3
M  V30 5 1 5 4
M  V30 6 1 6 3
M  V30 7 1 7 1
M  V30 8 1 8 1
M  V30 9 1 9 2
M  V30 10 1 10 2
M  V30 11 1 11 3
M  V30 12 1 12 4
M  V30 13 1 13 4
M  V30 14 1 14 5
M  V30 15 1 15 5
M  V30 16 1 16 6
M  V30 END BOND
M  V30 END CTAB
M  END
>  <i_epik_Tot_Q>  (1) 
0

>  <i_epik_Tot_abs_Q>  (1) 
0

>  <i_i_glide_confnum>  (1) 
1

>  <i_i_glide_lignum>  (1) 
20

>  <i_i_glide_posenum>  (1) 
58

>  <i_i_glide_rotatable_bonds>  (1) 
1

>  <i_lp_mmshare_version>  (1) 
72125

>  <i_m_source_file_index>  (1) 
18

>  <i_f3d_flags>  (1) 
0

>  <num_sample>  (1) 
100

>  <b_lp_Chiralities_Consistent>  (1) 
1

>  <r_epik_Charging_Adjusted_Penalty>  (1) 
0

>  <r_epik_Ionization_Penalty>  (1) 
4.538991431931509e-07

>  <r_epik_Ionization_Penalty_Charging>  (1) 
0

>  <r_epik_Ionization_Penalty_Neutral>  (1) 
4.538991431931509e-07

>  <r_epik_State_Penalty>  (1) 
-0

>  <r_glide_ring_energy>  (1) 
0

>  <r_i_docking_score>  (1) 
-5.1759536317410939

>  <r_i_glide_ecoul>  (1) 
-2.0235813996749932

>  <r_i_glide_eff_state_penalty>  (1) 
-0

>  <r_i_glide_einternal>  (1) 
0.054226319497499814

>  <r_i_glide_emodel>  (1) 
-20.904459850150349

>  <r_i_glide_emodel_strain>  (1) 
0

>  <r_i_glide_energy>  (1) 
-15.892439320362675

>  <r_i_glide_erotb>  (1) 
0

>  <r_i_glide_esite>  (1) 
0

>  <r_i_glide_evdw>  (1) 
-13.868857920687681

>  <r_i_glide_gscore>  (1) 
-5.1759536317410939

>  <r_i_glide_gscore_strain>  (1) 
0

>  <r_i_glide_hbond>  (1) 
-0.2733851410979718

>  <r_i_glide_ligand_efficiency>  (1) 
-0.86265893862351561

>  <r_i_glide_ligand_efficiency_ln>  (1) 
-1.8540113103555762

>  <r_i_glide_ligand_efficiency_sa>  (1) 
-1.5675553219635072

>  <r_i_glide_lipo>  (1) 
-1.4987426673264468

>  <r_i_glide_metal>  (1) 
-0

>  <r_i_glide_rewards>  (1) 
-2.4068457173310422

>  <r_lp_Energy>  (1) 
8.9029089999999993

>  <r_lp_tautomer_probability>  (1) 
1

>  <s_epik_cmdline>  (1) 
J2VwaWtfcHl0aG9uJywgJy1waHQnLCAnMS4wJywgJy1waCcsICc3LjQnLCAnLXRuJywgJzgnLCAnLW1hJywgJzUwMCcsICctaW1hZScsICc8aW5maWxlLm1hZT4nLCAnLW9tYWUnLCAnPG91dGZpbGUubWFlPic=

>  <s_epik_input>  (1) 
W09IXVtDSF0xW0NIMl1bQ0gyXVtDSDJdW0NIMl0x

>  <s_glide_docking_method>  (1) 
confgen

>  <s_i_glide_gridfile>  (1) 
gpcr_5ht2c_6bqh_protein_autoprepared_prepared

>  <s_lp_Force_Field>  (1) 
S-OPLS

>  <s_lp_Variant>  (1) 
Pocket2Mol_17_num_sample_100-1

>  <s_m_source_file>  (1) 
generated__ligand_Pocket2Mol_2026-05-06_prepared.sdf

>  <GenAI_Model>  (1) 
Pocket2Mol

>  <Protein>  (1) 
GPCR_5HT2C

$$$$
Pocket2Mol_61_num_sample_100
     RDKit          3D

  0  0  0  0  0  0  0  0  0  0999 V3000
M  V30 BEGIN CTAB
M  V30 COUNTS 16 16 0 0 1
M  V30 BEGIN ATOM
M  V30 1 C 37.867407 27.550578 54.217727 0
M  V30 2 C 38.546969 27.443550 52.852223 0
M  V30 3 C 38.183793 28.965346 54.721377 0
M  V30 4 C 38.931267 29.656116 53.575943 0
M  V30 5 N 38.551945 28.833406 52.431637 0
M  V30 6 N 39.659495 28.984326 51.385900 0 CHG=1
M  V30 7 O 40.246654 30.062901 51.345464 0 CHG=-1
M  V30 8 O 39.867402 28.021440 50.653846 0
M  V30 9 H 36.788790 27.433903 54.104633 0
M  V30 10 H 38.212231 26.776479 54.903928 0
M  V30 11 H 37.996906 26.821414 52.148435 0
M  V30 12 H 39.561293 27.058090 52.971131 0
M  V30 13 H 38.788682 28.948298 55.628544 0
M  V30 14 H 37.260128 29.497958 54.954067 0
M  V30 15 H 40.003376 29.621426 53.768943 0
M  V30 16 H 38.639329 30.699619 53.453511 0
M  V30 END ATOM
M  V30 BEGIN BOND
M  V30 1 1 2 1
M  V30 2 1 3 1
M  V30 3 1 4 3
M  V30 4 1 5 2
M  V30 5 1 5 4
M  V30 6 1 6 5
M  V30 7 1 7 6
M  V30 8 2 8 6
M  V30 9 1 9 1
M  V30 10 1 10 1
M  V30 11 1 11 2
M  V30 12 1 12 2
M  V30 13 1 13 3
M  V30 14 1 14 3
M  V30 15 1 15 4
M  V30 16 1 16 4
M  V30 END BOND
M  V30 END CTAB
M  END
>  <i_epik_Tot_Q>  (1) 
0

>  <i_epik_Tot_abs_Q>  (1) 
2

>  <i_i_glide_confnum>  (1) 
2

>  <i_i_glide_lignum>  (1) 
65

>  <i_i_glide_posenum>  (1) 
197

>  <i_i_glide_rotatable_bonds>  (1) 
1

>  <i_lp_mmshare_version>  (1) 
72125

>  <i_m_source_file_index>  (1) 
62

>  <i_f3d_flags>  (1) 
0

>  <num_sample>  (1) 
100

>  <b_lp_Chiralities_Consistent>  (1) 
1

>  <r_epik_Charging_Adjusted_Penalty>  (1) 
0

>  <r_epik_Ionization_Penalty>  (1) 
5.9201220630741648e-14

>  <r_epik_Ionization_Penalty_Charging>  (1) 
0

>  <r_epik_Ionization_Penalty_Neutral>  (1) 
5.9201220630741648e-14

>  <r_epik_State_Penalty>  (1) 
-0

>  <r_glide_ring_energy>  (1) 
0.002520034235707866

>  <r_i_docking_score>  (1) 
-5.1673250851977759

>  <r_i_glide_ecoul>  (1) 
0.014703707293327761

>  <r_i_glide_eff_state_penalty>  (1) 
-0

>  <r_i_glide_einternal>  (1) 
0.041624887460240456

>  <r_i_glide_emodel>  (1) 
-25.134309503414375

>  <r_i_glide_emodel_strain>  (1) 
0

>  <r_i_glide_energy>  (1) 
-19.054951310545501

>  <r_i_glide_erotb>  (1) 
0

>  <r_i_glide_esite>  (1) 
0

>  <r_i_glide_evdw>  (1) 
-19.06965501783883

>  <r_i_glide_gscore>  (1) 
-5.1673250851977759

>  <r_i_glide_gscore_strain>  (1) 
0

>  <r_i_glide_hbond>  (1) 
0

>  <r_i_glide_ligand_efficiency>  (1) 
-0.64591563564972199

>  <r_i_glide_ligand_efficiency_ln>  (1) 
-1.678007202039302

>  <r_i_glide_ligand_efficiency_sa>  (1) 
-1.2918312712994442

>  <r_i_glide_lipo>  (1) 
-1.0660478903998327

>  <r_i_glide_metal>  (1) 
-0

>  <r_i_glide_rewards>  (1) 
-3.1499999999999999

>  <r_lp_Energy>  (1) 
26.171151999999999

>  <r_lp_tautomer_probability>  (1) 
1

>  <s_epik_cmdline>  (1) 
J2VwaWtfcHl0aG9uJywgJy1waHQnLCAnMS4wJywgJy1waCcsICc3LjQnLCAnLXRuJywgJzgnLCAnLW1hJywgJzUwMCcsICctaW1hZScsICc8aW5maWxlLm1hZT4nLCAnLW9tYWUnLCAnPG91dGZpbGUubWFlPic=

>  <s_epik_input>  (1) 
W0NIMl0xW0NIMl1bQ0gyXVtDSDJdTjFbTitdKFtPLV0pPU8=

>  <s_glide_docking_method>  (1) 
confgen

>  <s_i_glide_gridfile>  (1) 
gpcr_5ht2c_6bqh_protein_autoprepared_prepared

>  <s_lp_Force_Field>  (1) 
S-OPLS

>  <s_lp_Variant>  (1) 
Pocket2Mol_61_num_sample_100-1

>  <s_m_source_file>  (1) 
generated__ligand_Pocket2Mol_2026-05-06_prepared.sdf

>  <GenAI_Model>  (1) 
Pocket2Mol

>  <Protein>  (1) 
GPCR_5HT2C

$$$$
Pocket2Mol_47_num_sample_100
     RDKit          3D

  0  0  0  0  0  0  0  0  0  0999 V3000
M  V30 BEGIN CTAB
M  V30 COUNTS 20 20 0 0 1
M  V30 BEGIN ATOM
M  V30 1 C 38.683280 29.749199 55.172165 0
M  V30 2 O 37.867332 28.613964 54.904002 0
M  V30 3 C 38.610631 27.482479 54.472253 0
M  V30 4 C 39.067348 30.516684 53.898344 0
M  V30 5 O 39.746348 29.707858 52.945440 0
M  V30 6 C 38.897503 28.803825 52.248976 0 CFG=1
M  V30 7 C 39.467423 28.655257 50.836437 0
M  V30 8 C 38.794279 27.437539 52.948984 0
M  V30 9 H 38.105967 30.416929 55.812469 0
M  V30 10 H 39.570745 29.479389 55.746867 0
M  V30 11 H 39.577314 27.425017 54.975429 0
M  V30 12 H 38.070348 26.587815 54.782887 0
M  V30 13 H 38.197391 30.996816 53.453592 0
M  V30 14 H 39.739492 31.329011 54.174953 0
M  V30 15 H 37.894269 29.221422 52.152983 0
M  V30 16 H 38.876455 27.951389 50.252006 0
M  V30 17 H 39.467403 29.610258 50.310243 0
M  V30 18 H 40.494458 28.292286 50.862848 0
M  V30 19 H 39.675465 26.833269 52.730227 0
M  V30 20 H 37.952731 26.899775 52.509783 0
M  V30 END ATOM
M  V30 BEGIN BOND
M  V30 1 1 2 1
M  V30 2 1 3 2
M  V30 3 1 4 1
M  V30 4 1 5 4
M  V30 5 1 6 5
M  V30 6 1 7 6
M  V30 7 1 8 3
M  V30 8 1 8 6
M  V30 9 1 9 1
M  V30 10 1 10 1
M  V30 11 1 11 3
M  V30 12 1 12 3
M  V30 13 1 13 4
M  V30 14 1 14 4
M  V30 15 1 6 15 CFG=3
M  V30 16 1 16 7
M  V30 17 1 17 7
M  V30 18 1 18 7
M  V30 19 1 19 8
M  V30 20 1 20 8
M  V30 END BOND
M  V30 END CTAB
M  END
>  <i_epik_Tot_Q>  (1) 
0

>  <i_epik_Tot_abs_Q>  (1) 
0

>  <i_i_glide_confnum>  (1) 
6

>  <i_i_glide_lignum>  (1) 
50

>  <i_i_glide_posenum>  (1) 
20

>  <i_i_glide_rotatable_bonds>  (1) 
0

>  <i_lp_mmshare_version>  (1) 
72125

>  <i_m_source_file_index>  (1) 
48

>  <i_f3d_flags>  (1) 
0

>  <num_sample>  (1) 
100

>  <b_lp_Chiralities_Consistent>  (1) 
1

>  <r_epik_Charging_Adjusted_Penalty>  (1) 
0

>  <r_epik_Ionization_Penalty>  (1) 
4.0259461194199272e-12

>  <r_epik_Ionization_Penalty_Charging>  (1) 
0

>  <r_epik_Ionization_Penalty_Neutral>  (1) 
4.0259461194199272e-12

>  <r_epik_State_Penalty>  (1) 
-0

>  <r_glide_ring_energy>  (1) 
0.28092827696695249

>  <r_i_docking_score>  (1) 
-5.1550837066416682

>  <r_i_glide_ecoul>  (1) 
-0.60049571259907408

>  <r_i_glide_eff_state_penalty>  (1) 
-0

>  <r_i_glide_einternal>  (1) 
0

>  <r_i_glide_emodel>  (1) 
-23.324910906292221

>  <r_i_glide_emodel_strain>  (1) 
0

>  <r_i_glide_energy>  (1) 
-17.561346808114802

>  <r_i_glide_erotb>  (1) 
0

>  <r_i_glide_esite>  (1) 
0

>  <r_i_glide_evdw>  (1) 
-16.960851095515729

>  <r_i_glide_gscore>  (1) 
-5.1550837066416682

>  <r_i_glide_gscore_strain>  (1) 
0

>  <r_i_glide_hbond>  (1) 
0

>  <r_i_glide_ligand_efficiency>  (1) 
-0.64438546333020852

>  <r_i_glide_ligand_efficiency_ln>  (1) 
-1.6740320077092841

>  <r_i_glide_ligand_efficiency_sa>  (1) 
-1.2887709266604173

>  <r_i_glide_lipo>  (1) 
-1.6462343905447605

>  <r_i_glide_metal>  (1) 
-0

>  <r_i_glide_rewards>  (1) 
-2.5707324044312601

>  <r_lp_Energy>  (1) 
6.6371139999999995

>  <r_lp_tautomer_probability>  (1) 
1

>  <s_epik_cmdline>  (1) 
J2VwaWtfcHl0aG9uJywgJy1waHQnLCAnMS4wJywgJy1waCcsICc3LjQnLCAnLXRuJywgJzgnLCAnLW1hJywgJzUwMCcsICctaW1hZScsICc8aW5maWxlLm1hZT4nLCAnLW9tYWUnLCAnPG91dGZpbGUubWFlPic=

>  <s_epik_input>  (1) 
W0NIMl0xW0NIMl1PW0NIMl1bQ0gyXU9bQ0BIXTFbQ0gzXQ==

>  <s_glide_docking_method>  (1) 
confgen

>  <s_i_glide_gridfile>  (1) 
gpcr_5ht2c_6bqh_protein_autoprepared_prepared

>  <s_lp_Force_Field>  (1) 
S-OPLS

>  <s_lp_Variant>  (1) 
Pocket2Mol_47_num_sample_100-1

>  <s_m_source_file>  (1) 
generated__ligand_Pocket2Mol_2026-05-06_prepared.sdf

>  <GenAI_Model>  (1) 
Pocket2Mol

>  <Protein>  (1) 
GPCR_5HT2C

$$$$
Pocket2Mol_67_num_sample_100
     RDKit          3D

  0  0  0  0  0  0  0  0  0  0999 V3000
M  V30 BEGIN CTAB
M  V30 COUNTS 12 12 0 0 1
M  V30 BEGIN ATOM
M  V30 1 C 40.379427 30.406466 50.838481 0
M  V30 2 O 40.198289 30.783625 52.150712 0
M  V30 3 C 39.467403 30.021394 53.083627 0
M  V30 4 O 39.312972 30.363520 54.254426 0
M  V30 5 C 38.897238 28.746415 52.502224 0
M  V30 6 C 39.867403 29.276051 50.363188 0
M  V30 7 O 38.180943 27.965454 53.322858 0
M  V30 8 C 39.108234 28.425566 51.214460 0
M  V30 9 H 40.964881 31.116805 50.272150 0
M  V30 10 H 40.024124 29.005847 49.330243 0
M  V30 11 H 37.872311 27.227098 52.820015 0
M  V30 12 H 38.692497 27.510602 50.816539 0
M  V30 END ATOM
M  V30 BEGIN BOND
M  V30 1 1 2 1
M  V30 2 1 3 2
M  V30 3 2 4 3
M  V30 4 1 5 3
M  V30 5 2 6 1
M  V30 6 1 7 5
M  V30 7 2 8 5
M  V30 8 1 8 6
M  V30 9 1 9 1
M  V30 10 1 10 6
M  V30 11 1 11 7
M  V30 12 1 12 8
M  V30 END BOND
M  V30 END CTAB
M  END
>  <i_epik_Tot_Q>  (1) 
0

>  <i_epik_Tot_abs_Q>  (1) 
0

>  <i_i_glide_confnum>  (1) 
1

>  <i_i_glide_lignum>  (1) 
72

>  <i_i_glide_posenum>  (1) 
369

>  <i_i_glide_rotatable_bonds>  (1) 
1

>  <i_lp_mmshare_version>  (1) 
72125

>  <i_m_source_file_index>  (1) 
68

>  <i_f3d_flags>  (1) 
0

>  <num_sample>  (1) 
100

>  <b_lp_Chiralities_Consistent>  (1) 
1

>  <r_epik_Charging_Adjusted_Penalty>  (1) 
0

>  <r_epik_Ionization_Penalty>  (1) 
0.00075652206847014289

>  <r_epik_Ionization_Penalty_Charging>  (1) 
0

>  <r_epik_Ionization_Penalty_Neutral>  (1) 
0.00075652206847014289

>  <r_epik_State_Penalty>  (1) 
-0

>  <r_glide_ring_energy>  (1) 
0

>  <r_i_docking_score>  (1) 
-5.1542234657283341

>  <r_i_glide_ecoul>  (1) 
-0.79625231889028081

>  <r_i_glide_eff_state_penalty>  (1) 
-0

>  <r_i_glide_einternal>  (1) 
0.006744644388025911

>  <r_i_glide_emodel>  (1) 
-26.605934965475932

>  <r_i_glide_emodel_strain>  (1) 
0

>  <r_i_glide_energy>  (1) 
-19.432676411215809

>  <r_i_glide_erotb>  (1) 
0

>  <r_i_glide_esite>  (1) 
0

>  <r_i_glide_evdw>  (1) 
-18.636424092325527

>  <r_i_glide_gscore>  (1) 
-5.1542234657283341

>  <r_i_glide_gscore_strain>  (1) 
0

>  <r_i_glide_hbond>  (1) 
0

>  <r_i_glide_ligand_efficiency>  (1) 
-0.64427793321604176

>  <r_i_glide_ligand_efficiency_ln>  (1) 
-1.6737526580604303

>  <r_i_glide_ligand_efficiency_sa>  (1) 
-1.2885558664320838

>  <r_i_glide_lipo>  (1) 
-1.5370174598401882

>  <r_i_glide_metal>  (1) 
-0

>  <r_i_glide_rewards>  (1) 
-2.5659469534383272

>  <r_lp_Energy>  (1) 
14.218883999999999

>  <r_lp_tautomer_probability>  (1) 
1

>  <s_epik_cmdline>  (1) 
J2VwaWtfcHl0aG9uJywgJy1waHQnLCAnMS4wJywgJy1waCcsICc3LjQnLCAnLXRuJywgJzgnLCAnLW1hJywgJzUwMCcsICctaW1hZScsICc8aW5maWxlLm1hZT4nLCAnLW9tYWUnLCAnPG91dGZpbGUubWFlPic=

>  <s_epik_input>  (1) 
Tz1jMW9bY0hdW2NIXVtjSF1jMVtPSF0=

>  <s_glide_docking_method>  (1) 
confgen

>  <s_i_glide_gridfile>  (1) 
gpcr_5ht2c_6bqh_protein_autoprepared_prepared

>  <s_lp_Force_Field>  (1) 
S-OPLS

>  <s_lp_Variant>  (1) 
Pocket2Mol_67_num_sample_100-1

>  <s_m_source_file>  (1) 
generated__ligand_Pocket2Mol_2026-05-06_prepared.sdf

>  <GenAI_Model>  (1) 
Pocket2Mol

>  <Protein>  (1) 
GPCR_5HT2C

$$$$
Pocket2Mol_21_num_sample_100
     RDKit          3D

  0  0  0  0  0  0  0  0  0  0999 V3000
M  V30 BEGIN CTAB
M  V30 COUNTS 13 13 0 0 1
M  V30 BEGIN ATOM
M  V30 1 C 38.651869 27.928254 52.518047 0
M  V30 2 C 39.067816 27.528364 51.219564 0
M  V30 3 C 39.067279 29.215661 52.706443 0
M  V30 4 C 39.727268 28.581188 50.653914 0
M  V30 5 N 39.729973 29.621430 51.560998 0
M  V30 6 C 40.321950 30.923007 51.344376 0
M  V30 7 H 38.104039 27.337136 53.237072 0
M  V30 8 H 38.901400 26.571063 50.747552 0
M  V30 9 H 38.953635 29.884691 53.547300 0
M  V30 10 H 40.193532 28.692123 49.686619 0
M  V30 11 H 40.266780 31.520826 52.253917 0
M  V30 12 H 41.366626 30.818683 51.051118 0
M  V30 13 H 39.785348 31.440435 50.548803 0
M  V30 END ATOM
M  V30 BEGIN BOND
M  V30 1 1 2 1
M  V30 2 2 3 1
M  V30 3 2 4 2
M  V30 4 1 5 3
M  V30 5 1 5 4
M  V30 6 1 6 5
M  V30 7 1 7 1
M  V30 8 1 8 2
M  V30 9 1 9 3
M  V30 10 1 10 4
M  V30 11 1 11 6
M  V30 12 1 12 6
M  V30 13 1 13 6
M  V30 END BOND
M  V30 END CTAB
M  END
>  <i_epik_Tot_Q>  (1) 
0

>  <i_epik_Tot_abs_Q>  (1) 
0

>  <i_i_glide_confnum>  (1) 
1

>  <i_i_glide_lignum>  (1) 
24

>  <i_i_glide_posenum>  (1) 
125

>  <i_i_glide_rotatable_bonds>  (1) 
0

>  <i_lp_mmshare_version>  (1) 
72125

>  <i_m_source_file_index>  (1) 
22

>  <i_f3d_flags>  (1) 
0

>  <num_sample>  (1) 
100

>  <b_lp_Chiralities_Consistent>  (1) 
1

>  <r_epik_Charging_Adjusted_Penalty>  (1) 
0

>  <r_epik_Ionization_Penalty>  (1) 
5.9248581604286784e-11

>  <r_epik_Ionization_Penalty_Charging>  (1) 
0

>  <r_epik_Ionization_Penalty_Neutral>  (1) 
5.9248581604286784e-11

>  <r_epik_State_Penalty>  (1) 
-0

>  <r_glide_ring_energy>  (1) 
0

>  <r_i_docking_score>  (1) 
-5.152221989098603

>  <r_i_glide_ecoul>  (1) 
-0.82845276700152659

>  <r_i_glide_eff_state_penalty>  (1) 
-0

>  <r_i_glide_einternal>  (1) 
0

>  <r_i_glide_emodel>  (1) 
-21.879544270887315

>  <r_i_glide_emodel_strain>  (1) 
0.003126896113819555

>  <r_i_glide_energy>  (1) 
-16.615606679110652

>  <r_i_glide_erotb>  (1) 
0

>  <r_i_glide_esite>  (1) 
0

>  <r_i_glide_evdw>  (1) 
-15.787153912109126

>  <r_i_glide_gscore>  (1) 
-5.152221989098603

>  <r_i_glide_gscore_strain>  (1) 
0

>  <r_i_glide_hbond>  (1) 
0

>  <r_i_glide_ligand_efficiency>  (1) 
-0.85870366484976712

>  <r_i_glide_ligand_efficiency_ln>  (1) 
-1.8455107060219753

>  <r_i_glide_ligand_efficiency_sa>  (1) 
-1.5603681125389401

>  <r_i_glide_lipo>  (1) 
-1.5385963784429173

>  <r_i_glide_metal>  (1) 
-0

>  <r_i_glide_rewards>  (1) 
-2.7000000000000002

>  <r_lp_Energy>  (1) 
0.62146699999999999

>  <r_lp_tautomer_probability>  (1) 
1

>  <s_epik_cmdline>  (1) 
J2VwaWtfcHl0aG9uJywgJy1waHQnLCAnMS4wJywgJy1waCcsICc3LjQnLCAnLXRuJywgJzgnLCAnLW1hJywgJzUwMCcsICctaW1hZScsICc8aW5maWxlLm1hZT4nLCAnLW9tYWUnLCAnPG91dGZpbGUubWFlPic=

>  <s_epik_input>  (1) 
W2NIXTFbY0hdW2NIXVtjSF1uMVtDSDNd

>  <s_glide_docking_method>  (1) 
confgen

>  <s_i_glide_gridfile>  (1) 
gpcr_5ht2c_6bqh_protein_autoprepared_prepared

>  <s_lp_Force_Field>  (1) 
S-OPLS

>  <s_lp_Variant>  (1) 
Pocket2Mol_21_num_sample_100-1

>  <s_m_source_file>  (1) 
generated__ligand_Pocket2Mol_2026-05-06_prepared.sdf

>  <GenAI_Model>  (1) 
Pocket2Mol

>  <Protein>  (1) 
GPCR_5HT2C

$$$$
Pocket2Mol_38_num_sample_100
     RDKit          3D

  0  0  0  0  0  0  0  0  0  0999 V3000
M  V30 BEGIN CTAB
M  V30 COUNTS 17 17 0 0 1
M  V30 BEGIN ATOM
M  V30 1 C 38.849589 27.571437 52.747838 0
M  V30 2 C 38.468329 28.912482 53.401856 0
M  V30 3 C 39.467403 30.021427 53.056868 0
M  V30 4 O 39.888336 30.794290 53.913892 0
M  V30 5 C 39.164450 27.719437 51.251308 0
M  V30 6 C 40.267307 28.761111 51.016511 0
M  V30 7 C 39.910271 30.130020 51.595528 0
M  V30 8 H 39.711973 27.145309 53.261874 0
M  V30 9 H 38.035001 26.858053 52.879173 0
M  V30 10 H 38.404344 28.803307 54.484707 0
M  V30 11 H 39.104200 30.547324 50.996630 0
M  V30 12 H 37.482443 29.221427 53.055323 0
M  V30 13 H 38.267478 28.020590 50.712426 0
M  V30 14 H 39.467462 26.759209 50.834274 0
M  V30 15 H 40.433402 28.866745 49.944880 0
M  V30 16 H 41.205756 28.421459 51.453486 0
M  V30 17 H 40.754397 30.815067 51.513990 0
M  V30 END ATOM
M  V30 BEGIN BOND
M  V30 1 1 2 1
M  V30 2 1 3 2
M  V30 3 2 4 3
M  V30 4 1 5 1
M  V30 5 1 6 5
M  V30 6 1 7 3
M  V30 7 1 7 6
M  V30 8 1 8 1
M  V30 9 1 9 1
M  V30 10 1 10 2
M  V30 11 1 11 7
M  V30 12 1 12 2
M  V30 13 1 13 5
M  V30 14 1 14 5
M  V30 15 1 15 6
M  V30 16 1 16 6
M  V30 17 1 17 7
M  V30 END BOND
M  V30 END CTAB
M  END
>  <i_epik_Tot_Q>  (1) 
0

>  <i_epik_Tot_abs_Q>  (1) 
0

>  <i_i_glide_confnum>  (1) 
1

>  <i_i_glide_lignum>  (1) 
41

>  <i_i_glide_posenum>  (1) 
149

>  <i_i_glide_rotatable_bonds>  (1) 
0

>  <i_lp_mmshare_version>  (1) 
72125

>  <i_m_source_file_index>  (1) 
39

>  <i_f3d_flags>  (1) 
0

>  <num_sample>  (1) 
100

>  <b_lp_Chiralities_Consistent>  (1) 
1

>  <r_epik_Charging_Adjusted_Penalty>  (1) 
0

>  <r_epik_Ionization_Penalty>  (1) 
3.7730911281982554e-13

>  <r_epik_Ionization_Penalty_Charging>  (1) 
0

>  <r_epik_Ionization_Penalty_Neutral>  (1) 
3.7730911281982554e-13

>  <r_epik_State_Penalty>  (1) 
-0

>  <r_glide_ring_energy>  (1) 
0

>  <r_i_docking_score>  (1) 
-5.152091838814477

>  <r_i_glide_ecoul>  (1) 
0.55166272009320561

>  <r_i_glide_eff_state_penalty>  (1) 
-0

>  <r_i_glide_einternal>  (1) 
0

>  <r_i_glide_emodel>  (1) 
-20.892153374921303

>  <r_i_glide_emodel_strain>  (1) 
0

>  <r_i_glide_energy>  (1) 
-15.426021434812535

>  <r_i_glide_erotb>  (1) 
0

>  <r_i_glide_esite>  (1) 
0

>  <r_i_glide_evdw>  (1) 
-15.97768415490574

>  <r_i_glide_gscore>  (1) 
-5.152091838814477

>  <r_i_glide_gscore_strain>  (1) 
0

>  <r_i_glide_hbond>  (1) 
0

>  <r_i_glide_ligand_efficiency>  (1) 
-0.73601311983063955

>  <r_i_glide_ligand_efficiency_ln>  (1) 
-1.7488964625980314

>  <r_i_glide_ligand_efficiency_sa>  (1) 
-1.4079424478536215

>  <r_i_glide_lipo>  (1) 
-1.629245026395896

>  <r_i_glide_metal>  (1) 
-0

>  <r_i_glide_rewards>  (1) 
-2.8067120126872753

>  <r_lp_Energy>  (1) 
-0.38638499999999998

>  <r_lp_tautomer_probability>  (1) 
1

>  <s_epik_cmdline>  (1) 
J2VwaWtfcHl0aG9uJywgJy1waHQnLCAnMS4wJywgJy1waCcsICc3LjQnLCAnLXRuJywgJzgnLCAnLW1hJywgJzUwMCcsICctaW1hZScsICc8aW5maWxlLm1hZT4nLCAnLW9tYWUnLCAnPG91dGZpbGUubWFlPic=

>  <s_epik_input>  (1) 
W0NIMl0xW0NIMl1bQ0gyXVtDSDJdW0NIXT1DMVtPSF0=

>  <s_glide_docking_method>  (1) 
confgen

>  <s_i_glide_gridfile>  (1) 
gpcr_5ht2c_6bqh_protein_autoprepared_prepared

>  <s_lp_Force_Field>  (1) 
S-OPLS

>  <s_lp_Variant>  (1) 
Pocket2Mol_38_num_sample_100-1

>  <s_m_source_file>  (1) 
generated__ligand_Pocket2Mol_2026-05-06_prepared.sdf

>  <GenAI_Model>  (1) 
Pocket2Mol

>  <Protein>  (1) 
GPCR_5HT2C

$$$$
Pocket2Mol_63_num_sample_100
     RDKit          3D

  0  0  0  0  0  0  0  0  0  0999 V3000
M  V30 BEGIN CTAB
M  V30 COUNTS 14 14 0 0 1
M  V30 BEGIN ATOM
M  V30 1 C 40.049414 29.896684 51.604474 0
M  V30 2 C 39.467416 30.017594 52.945394 0
M  V30 3 C 39.717509 28.849404 50.948728 0
M  V30 4 C 38.805824 27.932727 51.636244 0
M  V30 5 N 38.508758 28.821513 52.848032 0
M  V30 6 N 38.706818 27.963141 54.101297 0 CHG=1
M  V30 7 O 38.470450 26.762838 53.998073 0 CHG=-1
M  V30 8 O 39.067407 28.541572 55.121996 0
M  V30 9 H 40.714651 30.657628 51.221876 0
M  V30 10 H 40.266750 29.936946 53.681398 0
M  V30 11 H 38.936689 30.959660 53.080350 0
M  V30 12 H 40.070882 28.629659 49.952075 0
M  V30 13 H 37.906997 27.730992 51.053511 0
M  V30 14 H 39.342321 27.006561 51.843700 0
M  V30 END ATOM
M  V30 BEGIN BOND
M  V30 1 1 2 1
M  V30 2 2 3 1
M  V30 3 1 4 3
M  V30 4 1 5 2
M  V30 5 1 5 4
M  V30 6 1 6 5
M  V30 7 1 7 6
M  V30 8 2 8 6
M  V30 9 1 9 1
M  V30 10 1 10 2
M  V30 11 1 11 2
M  V30 12 1 12 3
M  V30 13 1 13 4
M  V30 14 1 14 4
M  V30 END BOND
M  V30 END CTAB
M  END
>  <i_epik_Tot_Q>  (1) 
0

>  <i_epik_Tot_abs_Q>  (1) 
2

>  <i_i_glide_confnum>  (1) 
1

>  <i_i_glide_lignum>  (1) 
67

>  <i_i_glide_posenum>  (1) 
83

>  <i_i_glide_rotatable_bonds>  (1) 
1

>  <i_lp_mmshare_version>  (1) 
72125

>  <i_m_source_file_index>  (1) 
64

>  <i_f3d_flags>  (1) 
0

>  <num_sample>  (1) 
100

>  <b_lp_Chiralities_Consistent>  (1) 
1

>  <r_epik_Charging_Adjusted_Penalty>  (1) 
0.01004869924428556

>  <r_epik_Ionization_Penalty>  (1) 
0.010048699244285546

>  <r_epik_Ionization_Penalty_Charging>  (1) 
0

>  <r_epik_Ionization_Penalty_Neutral>  (1) 
0.010048699244285546

>  <r_epik_State_Penalty>  (1) 
0.01004869924428556

>  <r_glide_ring_energy>  (1) 
0

>  <r_i_docking_score>  (1) 
-5.1500239851907503

>  <r_i_glide_ecoul>  (1) 
-0.23764729853591826

>  <r_i_glide_eff_state_penalty>  (1) 
0.01004869924428556

>  <r_i_glide_einternal>  (1) 
0.00092312569125707622

>  <r_i_glide_emodel>  (1) 
-23.617149991692202

>  <r_i_glide_emodel_strain>  (1) 
1.7646243577473797e-08

>  <r_i_glide_energy>  (1) 
-17.605313906925431

>  <r_i_glide_erotb>  (1) 
0

>  <r_i_glide_esite>  (1) 
0

>  <r_i_glide_evdw>  (1) 
-17.367666608389513

>  <r_i_glide_gscore>  (1) 
-5.1600726844350362

>  <r_i_glide_gscore_strain>  (1) 
0

>  <r_i_glide_hbond>  (1) 
0

>  <r_i_glide_ligand_efficiency>  (1) 
-0.64375299814884379

>  <r_i_glide_ligand_efficiency_ln>  (1) 
-1.6723889430878469

>  <r_i_glide_ligand_efficiency_sa>  (1) 
-1.2875059962976878

>  <r_i_glide_lipo>  (1) 
-1.2022080757700122

>  <r_i_glide_metal>  (1) 
-0

>  <r_i_glide_rewards>  (1) 
-3.0538341834651606

>  <r_lp_Energy>  (1) 
16.803152000000001

>  <s_epik_cmdline>  (1) 
J2VwaWtfcHl0aG9uJywgJy1waHQnLCAnMS4wJywgJy1waCcsICc3LjQnLCAnLXRuJywgJzgnLCAnLW1hJywgJzUwMCcsICctaW1hZScsICc8aW5maWxlLm1hZT4nLCAnLW9tYWUnLCAnPG91dGZpbGUubWFlPic=

>  <s_epik_input>  (1) 
W0NIMl0xW0NIXT1bQ0hdW0NIMl1OMVtOK10oW08tXSk9Tw==

>  <s_glide_docking_method>  (1) 
confgen

>  <s_i_glide_gridfile>  (1) 
gpcr_5ht2c_6bqh_protein_autoprepared_prepared

>  <s_lp_Force_Field>  (1) 
S-OPLS

>  <s_lp_Variant>  (1) 
Pocket2Mol_63_num_sample_100-1

>  <s_m_source_file>  (1) 
generated__ligand_Pocket2Mol_2026-05-06_prepared.sdf

>  <GenAI_Model>  (1) 
Pocket2Mol

>  <Protein>  (1) 
GPCR_5HT2C

$$$$
Pocket2Mol_21_num_sample_100
     RDKit          3D

  0  0  0  0  0  0  0  0  0  0999 V3000
M  V30 BEGIN CTAB
M  V30 COUNTS 13 13 0 0 1
M  V30 BEGIN ATOM
M  V30 1 C 39.069526 27.698690 51.075351 0
M  V30 2 C 38.376400 27.621927 52.314202 0
M  V30 3 C 39.756551 28.879643 51.058372 0
M  V30 4 C 38.660033 28.756962 53.019239 0
M  V30 5 N 39.508914 29.534798 52.253336 0
M  V30 6 C 40.050369 30.821408 52.639811 0
M  V30 7 H 39.065806 26.966634 50.280253 0
M  V30 8 H 37.736973 26.820797 52.653324 0
M  V30 9 H 40.399760 29.318125 50.309272 0
M  V30 10 H 38.338294 29.087066 53.996460 0
M  V30 11 H 40.663997 31.228937 51.836302 0
M  V30 12 H 39.241945 31.518072 52.862774 0
M  V30 13 H 40.667350 30.707344 53.531439 0
M  V30 END ATOM
M  V30 BEGIN BOND
M  V30 1 1 2 1
M  V30 2 2 3 1
M  V30 3 2 4 2
M  V30 4 1 5 3
M  V30 5 1 5 4
M  V30 6 1 6 5
M  V30 7 1 7 1
M  V30 8 1 8 2
M  V30 9 1 9 3
M  V30 10 1 10 4
M  V30 11 1 11 6
M  V30 12 1 12 6
M  V30 13 1 13 6
M  V30 END BOND
M  V30 END CTAB
M  END
>  <i_epik_Tot_Q>  (1) 
0

>  <i_epik_Tot_abs_Q>  (1) 
0

>  <i_i_glide_confnum>  (1) 
1

>  <i_i_glide_lignum>  (1) 
24

>  <i_i_glide_posenum>  (1) 
116

>  <i_i_glide_rotatable_bonds>  (1) 
0

>  <i_lp_mmshare_version>  (1) 
72125

>  <i_m_source_file_index>  (1) 
22

>  <i_f3d_flags>  (1) 
0

>  <num_sample>  (1) 
100

>  <b_lp_Chiralities_Consistent>  (1) 
1

>  <r_epik_Charging_Adjusted_Penalty>  (1) 
0

>  <r_epik_Ionization_Penalty>  (1) 
5.9248581604286784e-11

>  <r_epik_Ionization_Penalty_Charging>  (1) 
0

>  <r_epik_Ionization_Penalty_Neutral>  (1) 
5.9248581604286784e-11

>  <r_epik_State_Penalty>  (1) 
-0

>  <r_glide_ring_energy>  (1) 
0

>  <r_i_docking_score>  (1) 
-5.1479684815959761

>  <r_i_glide_ecoul>  (1) 
-0.95019732533050771

>  <r_i_glide_eff_state_penalty>  (1) 
-0

>  <r_i_glide_einternal>  (1) 
0

>  <r_i_glide_emodel>  (1) 
-21.691105028805161

>  <r_i_glide_emodel_strain>  (1) 
0

>  <r_i_glide_energy>  (1) 
-16.42838885866253

>  <r_i_glide_erotb>  (1) 
0

>  <r_i_glide_esite>  (1) 
0

>  <r_i_glide_evdw>  (1) 
-15.478191533332021

>  <r_i_glide_gscore>  (1) 
-5.1479684815959761

>  <r_i_glide_gscore_strain>  (1) 
0

>  <r_i_glide_hbond>  (1) 
0

>  <r_i_glide_ligand_efficiency>  (1) 
-0.85799474693266264

>  <r_i_glide_ligand_efficiency_ln>  (1) 
-1.8439871121918081

>  <r_i_glide_ligand_efficiency_sa>  (1) 
-1.5590799231931418

>  <r_i_glide_lipo>  (1) 
-1.5883817676974736

>  <r_i_glide_metal>  (1) 
-0

>  <r_i_glide_rewards>  (1) 
-2.6431475384323253

>  <r_lp_Energy>  (1) 
0.62146699999999999

>  <r_lp_tautomer_probability>  (1) 
1

>  <s_epik_cmdline>  (1) 
J2VwaWtfcHl0aG9uJywgJy1waHQnLCAnMS4wJywgJy1waCcsICc3LjQnLCAnLXRuJywgJzgnLCAnLW1hJywgJzUwMCcsICctaW1hZScsICc8aW5maWxlLm1hZT4nLCAnLW9tYWUnLCAnPG91dGZpbGUubWFlPic=

>  <s_epik_input>  (1) 
W2NIXTFbY0hdW2NIXVtjSF1uMVtDSDNd

>  <s_glide_docking_method>  (1) 
confgen

>  <s_i_glide_gridfile>  (1) 
gpcr_5ht2c_6bqh_protein_autoprepared_prepared

>  <s_lp_Force_Field>  (1) 
S-OPLS

>  <s_lp_Variant>  (1) 
Pocket2Mol_21_num_sample_100-1

>  <s_m_source_file>  (1) 
generated__ligand_Pocket2Mol_2026-05-06_prepared.sdf

>  <GenAI_Model>  (1) 
Pocket2Mol

>  <Protein>  (1) 
GPCR_5HT2C

$$$$
Pocket2Mol_45_num_sample_100
     RDKit          3D

  0  0  0  0  0  0  0  0  0  0999 V3000
M  V30 BEGIN CTAB
M  V30 COUNTS 15 15 0 0 1
M  V30 BEGIN ATOM
M  V30 1 C 39.760012 30.314714 52.778742 0
M  V30 2 O 38.666490 29.685734 53.450313 0
M  V30 3 C 38.208775 28.420965 53.198860 0
M  V30 4 O 37.521184 27.764365 53.976613 0
M  V30 5 C 38.603606 27.870742 51.816082 0
M  V30 6 C 39.895327 29.936310 51.302703 0
M  V30 7 C 39.894401 28.422038 51.217951 0
M  V30 8 H 39.654455 31.395567 52.875047 0
M  V30 9 H 40.667384 30.046176 53.313949 0
M  V30 10 H 38.665976 26.786571 51.882172 0
M  V30 11 H 37.781411 28.082227 51.135174 0
M  V30 12 H 39.078744 30.341535 50.703709 0
M  V30 13 H 40.819663 30.346055 50.894590 0
M  V30 14 H 40.745360 28.021432 51.764215 0
M  V30 15 H 39.999851 28.095997 50.184136 0
M  V30 END ATOM
M  V30 BEGIN BOND
M  V30 1 1 2 1
M  V30 2 1 3 2
M  V30 3 2 4 3
M  V30 4 1 5 3
M  V30 5 1 6 1
M  V30 6 1 7 5
M  V30 7 1 7 6
M  V30 8 1 8 1
M  V30 9 1 9 1
M  V30 10 1 10 5
M  V30 11 1 11 5
M  V30 12 1 12 6
M  V30 13 1 13 6
M  V30 14 1 14 7
M  V30 15 1 15 7
M  V30 END BOND
M  V30 END CTAB
M  END
>  <i_epik_Tot_Q>  (1) 
0

>  <i_epik_Tot_abs_Q>  (1) 
0

>  <i_i_glide_confnum>  (1) 
2

>  <i_i_glide_lignum>  (1) 
48

>  <i_i_glide_posenum>  (1) 
290

>  <i_i_glide_rotatable_bonds>  (1) 
0

>  <i_lp_mmshare_version>  (1) 
72125

>  <i_m_source_file_index>  (1) 
46

>  <i_f3d_flags>  (1) 
0

>  <num_sample>  (1) 
100

>  <b_lp_Chiralities_Consistent>  (1) 
1

>  <r_epik_Charging_Adjusted_Penalty>  (1) 
0

>  <r_epik_Ionization_Penalty>  (1) 
4.2138389519661579e-10

>  <r_epik_Ionization_Penalty_Charging>  (1) 
0

>  <r_epik_Ionization_Penalty_Neutral>  (1) 
4.2138389519661579e-10

>  <r_epik_State_Penalty>  (1) 
-0

>  <r_glide_ring_energy>  (1) 
0.00094626647336522524

>  <r_i_docking_score>  (1) 
-5.1377519684133732

>  <r_i_glide_ecoul>  (1) 
-0.30033129635620409

>  <r_i_glide_eff_state_penalty>  (1) 
-0

>  <r_i_glide_einternal>  (1) 
0

>  <r_i_glide_emodel>  (1) 
-22.378379776202053

>  <r_i_glide_emodel_strain>  (1) 
0

>  <r_i_glide_energy>  (1) 
-16.612088002643102

>  <r_i_glide_erotb>  (1) 
0

>  <r_i_glide_esite>  (1) 
0

>  <r_i_glide_evdw>  (1) 
-16.311756706286896

>  <r_i_glide_gscore>  (1) 
-5.1377519684133732

>  <r_i_glide_gscore_strain>  (1) 
0

>  <r_i_glide_hbond>  (1) 
0

>  <r_i_glide_ligand_efficiency>  (1) 
-0.73396456691619616

>  <r_i_glide_ligand_efficiency_ln>  (1) 
-1.744028741019455

>  <r_i_glide_ligand_efficiency_sa>  (1) 
-1.4040237071040236

>  <r_i_glide_lipo>  (1) 
-1.3042690157543906

>  <r_i_glide_metal>  (1) 
-0

>  <r_i_glide_rewards>  (1) 
-2.9728454228912065

>  <r_lp_Energy>  (1) 
8.5246700000000004

>  <r_lp_tautomer_probability>  (1) 
1

>  <s_epik_Chemistry_Notes>  (1) 
This compound has an ester and may undergo hydrolysis at high or low pH.

>  <s_epik_cmdline>  (1) 
J2VwaWtfcHl0aG9uJywgJy1waHQnLCAnMS4wJywgJy1waCcsICc3LjQnLCAnLXRuJywgJzgnLCAnLW1hJywgJzUwMCcsICctaW1hZScsICc8aW5maWxlLm1hZT4nLCAnLW9tYWUnLCAnPG91dGZpbGUubWFlPic=

>  <s_epik_input>  (1) 
W0NIMl0xW0NIMl1bQ0gyXVtDSDJdT0MxPU8=

>  <s_glide_docking_method>  (1) 
confgen

>  <s_i_glide_gridfile>  (1) 
gpcr_5ht2c_6bqh_protein_autoprepared_prepared

>  <s_lp_Force_Field>  (1) 
S-OPLS

>  <s_lp_Variant>  (1) 
Pocket2Mol_45_num_sample_100-1

>  <s_m_source_file>  (1) 
generated__ligand_Pocket2Mol_2026-05-06_prepared.sdf

>  <GenAI_Model>  (1) 
Pocket2Mol

>  <Protein>  (1) 
GPCR_5HT2C

$$$$
Pocket2Mol_76_num_sample_100
     RDKit          3D

  0  0  0  0  0  0  0  0  0  0999 V3000
M  V30 BEGIN CTAB
M  V30 COUNTS 12 12 0 0 1
M  V30 BEGIN ATOM
M  V30 1 C 39.777267 28.759279 50.682738 0
M  V30 2 C 39.867403 29.690365 51.771237 0
M  V30 3 C 39.211414 29.221429 52.848038 0
M  V30 4 C 38.660165 27.908482 52.442023 0
M  V30 5 C 39.067408 27.692421 51.053500 0
M  V30 6 C 39.067403 29.912693 54.243758 0
M  V30 7 O 37.990496 27.143605 53.133399 0
M  V30 8 O 39.629615 31.023274 54.361811 0 CHG=-1
M  V30 9 O 38.411293 29.287258 55.104311 0
M  V30 10 H 40.218313 28.901865 49.707483 0
M  V30 11 H 40.390662 30.635471 51.733001 0
M  V30 12 H 38.819517 26.819671 50.467715 0
M  V30 END ATOM
M  V30 BEGIN BOND
M  V30 1 1 2 1
M  V30 2 2 3 2
M  V30 3 1 4 3
M  V30 4 2 5 1
M  V30 5 1 5 4
M  V30 6 1 6 3
M  V30 7 2 7 4
M  V30 8 1 8 6
M  V30 9 2 9 6
M  V30 10 1 10 1
M  V30 11 1 11 2
M  V30 12 1 12 5
M  V30 END BOND
M  V30 END CTAB
M  END
>  <i_epik_Tot_Q>  (1) 
-1

>  <i_epik_Tot_abs_Q>  (1) 
1

>  <i_i_glide_confnum>  (1) 
1

>  <i_i_glide_lignum>  (1) 
81

>  <i_i_glide_posenum>  (1) 
142

>  <i_i_glide_rotatable_bonds>  (1) 
1

>  <i_lp_mmshare_version>  (1) 
72125

>  <i_m_source_file_index>  (1) 
77

>  <i_f3d_flags>  (1) 
0

>  <num_sample>  (1) 
100

>  <b_lp_Chiralities_Consistent>  (1) 
1

>  <r_epik_Charging_Adjusted_Penalty>  (1) 
1.3987331750313068e-05

>  <r_epik_Ionization_Penalty>  (1) 
1.3987331750313068e-05

>  <r_epik_Ionization_Penalty_Charging>  (1) 
1.3987331750313068e-05

>  <r_epik_Ionization_Penalty_Neutral>  (1) 
0

>  <r_epik_State_Penalty>  (1) 
-0

>  <r_glide_ring_energy>  (1) 
0

>  <r_i_docking_score>  (1) 
-5.1296891912600859

>  <r_i_glide_ecoul>  (1) 
0.72006155237838665

>  <r_i_glide_eff_state_penalty>  (1) 
-0

>  <r_i_glide_einternal>  (1) 
0.00031888609966945758

>  <r_i_glide_emodel>  (1) 
-24.109919137833007

>  <r_i_glide_emodel_strain>  (1) 
0

>  <r_i_glide_energy>  (1) 
-17.865218145683126

>  <r_i_glide_erotb>  (1) 
0

>  <r_i_glide_esite>  (1) 
0

>  <r_i_glide_evdw>  (1) 
-18.585279698061512

>  <r_i_glide_gscore>  (1) 
-5.1296891912600859

>  <r_i_glide_gscore_strain>  (1) 
0

>  <r_i_glide_hbond>  (1) 
0

>  <r_i_glide_ligand_efficiency>  (1) 
-0.56996546569556505

>  <r_i_glide_ligand_efficiency_ln>  (1) 
-1.6044194166472683

>  <r_i_glide_ligand_efficiency_sa>  (1) 
-1.1855759448915901

>  <r_i_glide_lipo>  (1) 
-1.2075443511807367

>  <r_i_glide_metal>  (1) 
-0

>  <r_i_glide_rewards>  (1) 
-3.1008900880330321

>  <r_lp_Energy>  (1) 
9.1486529999999995

>  <r_lp_tautomer_probability>  (1) 
1

>  <s_epik_cmdline>  (1) 
J2VwaWtfcHl0aG9uJywgJy1waHQnLCAnMS4wJywgJy1waCcsICc3LjQnLCAnLXRuJywgJzgnLCAnLW1hJywgJzUwMCcsICctaW1hZScsICc8aW5maWxlLm1hZT4nLCAnLW9tYWUnLCAnPG91dGZpbGUubWFlPic=

>  <s_epik_input>  (1) 
Tz1DMVtDSF09W0NIXVtDSF09QzFDKD1PKVtPSF0=

>  <s_glide_docking_method>  (1) 
confgen

>  <s_i_glide_gridfile>  (1) 
gpcr_5ht2c_6bqh_protein_autoprepared_prepared

>  <s_lp_Force_Field>  (1) 
S-OPLS

>  <s_lp_Variant>  (1) 
Pocket2Mol_76_num_sample_100-1

>  <s_m_source_file>  (1) 
generated__ligand_Pocket2Mol_2026-05-06_prepared.sdf

>  <GenAI_Model>  (1) 
Pocket2Mol

>  <Protein>  (1) 
GPCR_5HT2C

$$$$
Pocket2Mol_35_num_sample_100
     RDKit          3D

  0  0  0  0  0  0  0  0  0  0999 V3000
M  V30 BEGIN CTAB
M  V30 COUNTS 17 17 0 0 1
M  V30 BEGIN ATOM
M  V30 1 C 39.030638 30.593309 53.870820 0
M  V30 2 O 40.267401 30.421432 53.196380 0
M  V30 3 C 40.170734 30.421410 51.777434 0
M  V30 4 C 38.206887 29.298015 53.917712 0
M  V30 5 O 37.867408 28.821396 52.621005 0
M  V30 6 C 39.867384 29.036351 51.180673 0
M  V30 7 C 38.927722 28.123288 51.985073 0
M  V30 8 H 39.262129 30.887586 54.894665 0
M  V30 9 H 38.457921 31.421275 53.453501 0
M  V30 10 H 39.467480 31.172519 51.429022 0
M  V30 11 H 41.123720 30.760328 51.376174 0
M  V30 12 H 38.713363 28.532032 54.506814 0
M  V30 13 H 37.272321 29.505440 54.439919 0
M  V30 14 H 39.467380 29.177724 50.175958 0
M  V30 15 H 40.806562 28.499331 51.053500 0
M  V30 16 H 38.483651 27.398637 51.301501 0
M  V30 17 H 39.494561 27.530582 52.704588 0
M  V30 END ATOM
M  V30 BEGIN BOND
M  V30 1 1 2 1
M  V30 2 1 3 2
M  V30 3 1 4 1
M  V30 4 1 5 4
M  V30 5 1 6 3
M  V30 6 1 7 5
M  V30 7 1 7 6
M  V30 8 1 8 1
M  V30 9 1 9 1
M  V30 10 1 10 3
M  V30 11 1 11 3
M  V30 12 1 12 4
M  V30 13 1 13 4
M  V30 14 1 14 6
M  V30 15 1 15 6
M  V30 16 1 16 7
M  V30 17 1 17 7
M  V30 END BOND
M  V30 END CTAB
M  END
>  <i_epik_Tot_Q>  (1) 
0

>  <i_epik_Tot_abs_Q>  (1) 
0

>  <i_i_glide_confnum>  (1) 
11

>  <i_i_glide_lignum>  (1) 
38

>  <i_i_glide_posenum>  (1) 
126

>  <i_i_glide_rotatable_bonds>  (1) 
0

>  <i_lp_mmshare_version>  (1) 
72125

>  <i_m_source_file_index>  (1) 
36

>  <i_f3d_flags>  (1) 
0

>  <num_sample>  (1) 
100

>  <b_lp_Chiralities_Consistent>  (1) 
1

>  <r_epik_Charging_Adjusted_Penalty>  (1) 
0

>  <r_epik_Ionization_Penalty>  (1) 
3.933197540425548e-12

>  <r_epik_Ionization_Penalty_Charging>  (1) 
0

>  <r_epik_Ionization_Penalty_Neutral>  (1) 
3.933197540425548e-12

>  <r_epik_State_Penalty>  (1) 
-0

>  <r_glide_ring_energy>  (1) 
0.00070385905571176553

>  <r_i_docking_score>  (1) 
-5.1252218087045804

>  <r_i_glide_ecoul>  (1) 
-0.84807225434618738

>  <r_i_glide_eff_state_penalty>  (1) 
-0

>  <r_i_glide_einternal>  (1) 
0

>  <r_i_glide_emodel>  (1) 
-21.424256907663533

>  <r_i_glide_emodel_strain>  (1) 
0

>  <r_i_glide_energy>  (1) 
-16.112082605816607

>  <r_i_glide_erotb>  (1) 
0

>  <r_i_glide_esite>  (1) 
0

>  <r_i_glide_evdw>  (1) 
-15.264010351470418

>  <r_i_glide_gscore>  (1) 
-5.1252218087045804

>  <r_i_glide_gscore_strain>  (1) 
0

>  <r_i_glide_hbond>  (1) 
0

>  <r_i_glide_ligand_efficiency>  (1) 
-0.7321745441006543

>  <r_i_glide_ligand_efficiency_ln>  (1) 
-1.7397753323699037

>  <r_i_glide_ligand_efficiency_sa>  (1) 
-1.4005995166422995

>  <r_i_glide_lipo>  (1) 
-1.49153730538902

>  <r_i_glide_metal>  (1) 
-0

>  <r_i_glide_rewards>  (1) 
-2.7432731475901111

>  <r_lp_Energy>  (1) 
9.6410049999999998

>  <r_lp_tautomer_probability>  (1) 
1

>  <s_epik_cmdline>  (1) 
J2VwaWtfcHl0aG9uJywgJy1waHQnLCAnMS4wJywgJy1waCcsICc3LjQnLCAnLXRuJywgJzgnLCAnLW1hJywgJzUwMCcsICctaW1hZScsICc8aW5maWxlLm1hZT4nLCAnLW9tYWUnLCAnPG91dGZpbGUubWFlPic=

>  <s_epik_input>  (1) 
W0NIMl0xT1tDSDJdW0NIMl1bQ0gyXU9bQ0gyXTE=

>  <s_glide_docking_method>  (1) 
confgen

>  <s_i_glide_gridfile>  (1) 
gpcr_5ht2c_6bqh_protein_autoprepared_prepared

>  <s_lp_Force_Field>  (1) 
S-OPLS

>  <s_lp_Variant>  (1) 
Pocket2Mol_35_num_sample_100-1

>  <s_m_source_file>  (1) 
generated__ligand_Pocket2Mol_2026-05-06_prepared.sdf

>  <GenAI_Model>  (1) 
Pocket2Mol

>  <Protein>  (1) 
GPCR_5HT2C

$$$$
Pocket2Mol_35_num_sample_100
     RDKit          3D

  0  0  0  0  0  0  0  0  0  0999 V3000
M  V30 BEGIN CTAB
M  V30 COUNTS 17 17 0 0 1
M  V30 BEGIN ATOM
M  V30 1 C 38.649929 27.671253 52.275265 0
M  V30 2 O 38.020087 28.821429 52.824283 0
M  V30 3 C 38.875597 29.560284 53.685778 0
M  V30 4 C 39.468213 28.021423 51.032244 0
M  V30 5 O 40.576319 28.851796 51.352453 0
M  V30 6 C 39.790469 30.563764 52.959947 0
M  V30 7 C 40.221419 30.215751 51.520627 0
M  V30 8 H 39.254570 27.137580 53.010082 0
M  V30 9 H 37.867403 26.976757 51.979202 0
M  V30 10 H 38.242889 30.113357 54.380791 0
M  V30 11 H 39.467391 28.891156 54.312039 0
M  V30 12 H 39.867401 27.098086 50.612556 0
M  V30 13 H 38.841152 28.456873 50.253482 0
M  V30 14 H 39.295769 31.535058 52.931384 0
M  V30 15 H 40.667412 30.721645 53.583686 0
M  V30 16 H 39.463078 30.513461 50.797804 0
M  V30 17 H 41.090266 30.821400 51.267395 0
M  V30 END ATOM
M  V30 BEGIN BOND
M  V30 1 1 2 1
M  V30 2 1 3 2
M  V30 3 1 4 1
M  V30 4 1 5 4
M  V30 5 1 6 3
M  V30 6 1 7 5
M  V30 7 1 7 6
M  V30 8 1 8 1
M  V30 9 1 9 1
M  V30 10 1 10 3
M  V30 11 1 11 3
M  V30 12 1 12 4
M  V30 13 1 13 4
M  V30 14 1 14 6
M  V30 15 1 15 6
M  V30 16 1 16 7
M  V30 17 1 17 7
M  V30 END BOND
M  V30 END CTAB
M  END
>  <i_epik_Tot_Q>  (1) 
0

>  <i_epik_Tot_abs_Q>  (1) 
0

>  <i_i_glide_confnum>  (1) 
8

>  <i_i_glide_lignum>  (1) 
38

>  <i_i_glide_posenum>  (1) 
142

>  <i_i_glide_rotatable_bonds>  (1) 
0

>  <i_lp_mmshare_version>  (1) 
72125

>  <i_m_source_file_index>  (1) 
36

>  <i_f3d_flags>  (1) 
0

>  <num_sample>  (1) 
100

>  <b_lp_Chiralities_Consistent>  (1) 
1

>  <r_epik_Charging_Adjusted_Penalty>  (1) 
0

>  <r_epik_Ionization_Penalty>  (1) 
3.933197540425548e-12

>  <r_epik_Ionization_Penalty_Charging>  (1) 
0

>  <r_epik_Ionization_Penalty_Neutral>  (1) 
3.933197540425548e-12

>  <r_epik_State_Penalty>  (1) 
-0

>  <r_glide_ring_energy>  (1) 
0.00055159938950669681

>  <r_i_docking_score>  (1) 
-5.1251184075254548

>  <r_i_glide_ecoul>  (1) 
-1.3341875902772016

>  <r_i_glide_eff_state_penalty>  (1) 
-0

>  <r_i_glide_einternal>  (1) 
0

>  <r_i_glide_emodel>  (1) 
-23.305188362110552

>  <r_i_glide_emodel_strain>  (1) 
0

>  <r_i_glide_energy>  (1) 
-17.993121233203066

>  <r_i_glide_erotb>  (1) 
0

>  <r_i_glide_esite>  (1) 
0

>  <r_i_glide_evdw>  (1) 
-16.658933642925863

>  <r_i_glide_gscore>  (1) 
-5.1251184075254548

>  <r_i_glide_gscore_strain>  (1) 
0

>  <r_i_glide_hbond>  (1) 
0

>  <r_i_glide_ligand_efficiency>  (1) 
-0.7321597725036364

>  <r_i_glide_ligand_efficiency_ln>  (1) 
-1.7397402324605737

>  <r_i_glide_ligand_efficiency_sa>  (1) 
-1.4005712595937445

>  <r_i_glide_lipo>  (1) 
-1.542562394938541

>  <r_i_glide_metal>  (1) 
-0

>  <r_i_glide_rewards>  (1) 
-2.5494811918990399

>  <r_lp_Energy>  (1) 
9.6410049999999998

>  <r_lp_tautomer_probability>  (1) 
1

>  <s_epik_cmdline>  (1) 
J2VwaWtfcHl0aG9uJywgJy1waHQnLCAnMS4wJywgJy1waCcsICc3LjQnLCAnLXRuJywgJzgnLCAnLW1hJywgJzUwMCcsICctaW1hZScsICc8aW5maWxlLm1hZT4nLCAnLW9tYWUnLCAnPG91dGZpbGUubWFlPic=

>  <s_epik_input>  (1) 
W0NIMl0xT1tDSDJdW0NIMl1bQ0gyXU9bQ0gyXTE=

>  <s_glide_docking_method>  (1) 
confgen

>  <s_i_glide_gridfile>  (1) 
gpcr_5ht2c_6bqh_protein_autoprepared_prepared

>  <s_lp_Force_Field>  (1) 
S-OPLS

>  <s_lp_Variant>  (1) 
Pocket2Mol_35_num_sample_100-1

>  <s_m_source_file>  (1) 
generated__ligand_Pocket2Mol_2026-05-06_prepared.sdf

>  <GenAI_Model>  (1) 
Pocket2Mol

>  <Protein>  (1) 
GPCR_5HT2C

$$$$
Pocket2Mol_67_num_sample_100
     RDKit          3D

  0  0  0  0  0  0  0  0  0  0999 V3000
M  V30 BEGIN CTAB
M  V30 COUNTS 12 12 0 0 1
M  V30 BEGIN ATOM
M  V30 1 C 39.467335 30.421357 53.463929 0
M  V30 2 O 40.019809 30.603549 52.215559 0
M  V30 3 C 39.933868 29.651345 51.181702 0
M  V30 4 O 40.421593 29.827199 50.066533 0
M  V30 5 C 39.186269 28.401044 51.578721 0
M  V30 6 C 38.809095 29.309365 53.776767 0
M  V30 7 O 39.067393 27.441449 50.653518 0
M  V30 8 C 38.666771 28.273826 52.811717 0
M  V30 9 H 39.629665 31.260709 54.123723 0
M  V30 10 H 38.384530 29.191141 54.763346 0
M  V30 11 H 38.534499 26.750718 51.016783 0
M  V30 12 H 38.133502 27.372219 53.075627 0
M  V30 END ATOM
M  V30 BEGIN BOND
M  V30 1 1 2 1
M  V30 2 1 3 2
M  V30 3 2 4 3
M  V30 4 1 5 3
M  V30 5 2 6 1
M  V30 6 1 7 5
M  V30 7 2 8 5
M  V30 8 1 8 6
M  V30 9 1 9 1
M  V30 10 1 10 6
M  V30 11 1 11 7
M  V30 12 1 12 8
M  V30 END BOND
M  V30 END CTAB
M  END
>  <i_epik_Tot_Q>  (1) 
0

>  <i_epik_Tot_abs_Q>  (1) 
0

>  <i_i_glide_confnum>  (1) 
1

>  <i_i_glide_lignum>  (1) 
72

>  <i_i_glide_posenum>  (1) 
273

>  <i_i_glide_rotatable_bonds>  (1) 
1

>  <i_lp_mmshare_version>  (1) 
72125

>  <i_m_source_file_index>  (1) 
68

>  <i_f3d_flags>  (1) 
0

>  <num_sample>  (1) 
100

>  <b_lp_Chiralities_Consistent>  (1) 
1

>  <r_epik_Charging_Adjusted_Penalty>  (1) 
0

>  <r_epik_Ionization_Penalty>  (1) 
0.00075652206847014289

>  <r_epik_Ionization_Penalty_Charging>  (1) 
0

>  <r_epik_Ionization_Penalty_Neutral>  (1) 
0.00075652206847014289

>  <r_epik_State_Penalty>  (1) 
-0

>  <r_glide_ring_energy>  (1) 
0

>  <r_i_docking_score>  (1) 
-5.1250891001206131

>  <r_i_glide_ecoul>  (1) 
-0.6639039562065977

>  <r_i_glide_eff_state_penalty>  (1) 
-0

>  <r_i_glide_einternal>  (1) 
0.064013388870443055

>  <r_i_glide_emodel>  (1) 
-27.530322770626285

>  <r_i_glide_emodel_strain>  (1) 
9.0668716978825614e-09

>  <r_i_glide_energy>  (1) 
-20.42626466726291

>  <r_i_glide_erotb>  (1) 
0

>  <r_i_glide_esite>  (1) 
0

>  <r_i_glide_evdw>  (1) 
-19.762360711056314

>  <r_i_glide_gscore>  (1) 
-5.1250891001206131

>  <r_i_glide_gscore_strain>  (1) 
0

>  <r_i_glide_hbond>  (1) 
0

>  <r_i_glide_ligand_efficiency>  (1) 
-0.64063613751507664

>  <r_i_glide_ligand_efficiency_ln>  (1) 
-1.6642917330149662

>  <r_i_glide_ligand_efficiency_sa>  (1) 
-1.2812722750301535

>  <r_i_glide_lipo>  (1) 
-1.4895900400691675

>  <r_i_glide_metal>  (1) 
-0

>  <r_i_glide_rewards>  (1) 
-2.5477954310676401

>  <r_lp_Energy>  (1) 
14.218883999999999

>  <r_lp_tautomer_probability>  (1) 
1

>  <s_epik_cmdline>  (1) 
J2VwaWtfcHl0aG9uJywgJy1waHQnLCAnMS4wJywgJy1waCcsICc3LjQnLCAnLXRuJywgJzgnLCAnLW1hJywgJzUwMCcsICctaW1hZScsICc8aW5maWxlLm1hZT4nLCAnLW9tYWUnLCAnPG91dGZpbGUubWFlPic=

>  <s_epik_input>  (1) 
Tz1jMW9bY0hdW2NIXVtjSF1jMVtPSF0=

>  <s_glide_docking_method>  (1) 
confgen

>  <s_i_glide_gridfile>  (1) 
gpcr_5ht2c_6bqh_protein_autoprepared_prepared

>  <s_lp_Force_Field>  (1) 
S-OPLS

>  <s_lp_Variant>  (1) 
Pocket2Mol_67_num_sample_100-1

>  <s_m_source_file>  (1) 
generated__ligand_Pocket2Mol_2026-05-06_prepared.sdf

>  <GenAI_Model>  (1) 
Pocket2Mol

>  <Protein>  (1) 
GPCR_5HT2C

$$$$
Pocket2Mol_41_num_sample_100
     RDKit          3D

  0  0  0  0  0  0  0  0  0  0999 V3000
M  V30 BEGIN CTAB
M  V30 COUNTS 15 15 0 0 1
M  V30 BEGIN ATOM
M  V30 1 C 39.067404 30.312630 53.554378 0
M  V30 2 C 39.528182 29.602717 52.395841 0
M  V30 3 C 38.943720 28.367393 52.256352 0
M  V30 4 C 39.185246 27.353873 51.190149 0
M  V30 5 C 38.131905 29.611460 54.275092 0
M  V30 6 C 37.432047 30.033580 55.524094 0
M  V30 7 S 37.814664 28.073391 53.538309 0
M  V30 8 H 39.431705 31.297264 53.809714 0
M  V30 9 H 40.263977 30.016372 51.722011 0
M  V30 10 H 39.922582 27.703027 50.467302 0
M  V30 11 H 39.544221 26.421507 51.623999 0
M  V30 12 H 38.267401 27.125568 50.653563 0
M  V30 13 H 37.743443 31.031541 55.835534 0
M  V30 14 H 36.352074 30.058485 55.375543 0
M  V30 15 H 37.642178 29.345611 56.343191 0
M  V30 END ATOM
M  V30 BEGIN BOND
M  V30 1 1 2 1
M  V30 2 2 3 2
M  V30 3 1 4 3
M  V30 4 2 5 1
M  V30 5 1 6 5
M  V30 6 1 7 3
M  V30 7 1 7 5
M  V30 8 1 8 1
M  V30 9 1 9 2
M  V30 10 1 10 4
M  V30 11 1 11 4
M  V30 12 1 12 4
M  V30 13 1 13 6
M  V30 14 1 14 6
M  V30 15 1 15 6
M  V30 END BOND
M  V30 END CTAB
M  END
>  <i_epik_Tot_Q>  (1) 
0

>  <i_epik_Tot_abs_Q>  (1) 
0

>  <i_i_glide_confnum>  (1) 
1

>  <i_i_glide_lignum>  (1) 
44

>  <i_i_glide_posenum>  (1) 
61

>  <i_i_glide_rotatable_bonds>  (1) 
0

>  <i_lp_mmshare_version>  (1) 
72125

>  <i_m_source_file_index>  (1) 
42

>  <i_f3d_flags>  (1) 
0

>  <num_sample>  (1) 
100

>  <b_lp_Chiralities_Consistent>  (1) 
1

>  <r_epik_Charging_Adjusted_Penalty>  (1) 
0

>  <r_epik_Ionization_Penalty>  (1) 
0

>  <r_epik_Ionization_Penalty_Charging>  (1) 
0

>  <r_epik_Ionization_Penalty_Neutral>  (1) 
0

>  <r_epik_State_Penalty>  (1) 
-0

>  <r_glide_ring_energy>  (1) 
0

>  <r_i_docking_score>  (1) 
-5.1239154424197046

>  <r_i_glide_ecoul>  (1) 
-0.9704037374757859

>  <r_i_glide_eff_state_penalty>  (1) 
-0

>  <r_i_glide_einternal>  (1) 
0

>  <r_i_glide_emodel>  (1) 
-24.41678813283395

>  <r_i_glide_emodel_strain>  (1) 
0

>  <r_i_glide_energy>  (1) 
-18.440216190488922

>  <r_i_glide_erotb>  (1) 
0

>  <r_i_glide_esite>  (1) 
0

>  <r_i_glide_evdw>  (1) 
-17.469812453013137

>  <r_i_glide_gscore>  (1) 
-5.1239154424197046

>  <r_i_glide_gscore_strain>  (1) 
0

>  <r_i_glide_hbond>  (1) 
0

>  <r_i_glide_ligand_efficiency>  (1) 
-0.73198792034567206

>  <r_i_glide_ligand_efficiency_ln>  (1) 
-1.7393318815452765

>  <r_i_glide_ligand_efficiency_sa>  (1) 
-1.400242518241948

>  <r_i_glide_lipo>  (1) 
-1.6586013501662269

>  <r_i_glide_metal>  (1) 
-0

>  <r_i_glide_rewards>  (1) 
-2.4462629089814523

>  <r_lp_Energy>  (1) 
3.6641779999999997

>  <r_lp_tautomer_probability>  (1) 
1

>  <s_epik_cmdline>  (1) 
J2VwaWtfcHl0aG9uJywgJy1waHQnLCAnMS4wJywgJy1waCcsICc3LjQnLCAnLXRuJywgJzgnLCAnLW1hJywgJzUwMCcsICctaW1hZScsICc8aW5maWxlLm1hZT4nLCAnLW9tYWUnLCAnPG91dGZpbGUubWFlPic=

>  <s_epik_input>  (1) 
W0NIM11jKHMxKVtjSF1bY0hdYzFbQ0gzXQ==

>  <s_glide_docking_method>  (1) 
confgen

>  <s_i_glide_gridfile>  (1) 
gpcr_5ht2c_6bqh_protein_autoprepared_prepared

>  <s_lp_Force_Field>  (1) 
S-OPLS

>  <s_lp_Variant>  (1) 
Pocket2Mol_41_num_sample_100-1

>  <s_m_source_file>  (1) 
generated__ligand_Pocket2Mol_2026-05-06_prepared.sdf

>  <GenAI_Model>  (1) 
Pocket2Mol

>  <Protein>  (1) 
GPCR_5HT2C

$$$$
Pocket2Mol_61_num_sample_100
     RDKit          3D

  0  0  0  0  0  0  0  0  0  0999 V3000
M  V30 BEGIN CTAB
M  V30 COUNTS 16 16 0 0 1
M  V30 BEGIN ATOM
M  V30 1 C 39.645232 29.639726 51.376754 0
M  V30 2 C 39.066302 29.480170 52.782837 0
M  V30 3 C 39.867498 28.220660 50.914416 0
M  V30 4 C 38.954984 27.345580 51.782713 0
M  V30 5 N 38.205129 28.330063 52.557889 0
M  V30 6 N 37.920246 27.704213 53.926125 0 CHG=1
M  V30 7 O 37.749019 26.488774 53.960118 0 CHG=-1
M  V30 8 O 37.867304 28.467457 54.885797 0
M  V30 9 H 38.932122 30.062838 50.673842 0
M  V30 10 H 40.549035 30.246077 51.355517 0
M  V30 11 H 38.520124 30.353540 53.136717 0
M  V30 12 H 39.867112 29.248016 53.487178 0
M  V30 13 H 40.919836 28.021329 51.082920 0
M  V30 14 H 39.653880 28.101847 49.853503 0
M  V30 15 H 39.567112 26.676320 52.390057 0
M  V30 16 H 38.266476 26.765439 51.171939 0
M  V30 END ATOM
M  V30 BEGIN BOND
M  V30 1 1 2 1
M  V30 2 1 3 1
M  V30 3 1 4 3
M  V30 4 1 5 2
M  V30 5 1 5 4
M  V30 6 1 6 5
M  V30 7 1 7 6
M  V30 8 2 8 6
M  V30 9 1 9 1
M  V30 10 1 10 1
M  V30 11 1 11 2
M  V30 12 1 12 2
M  V30 13 1 13 3
M  V30 14 1 14 3
M  V30 15 1 15 4
M  V30 16 1 16 4
M  V30 END BOND
M  V30 END CTAB
M  END
>  <i_epik_Tot_Q>  (1) 
0

>  <i_epik_Tot_abs_Q>  (1) 
2

>  <i_i_glide_confnum>  (1) 
1

>  <i_i_glide_lignum>  (1) 
65

>  <i_i_glide_posenum>  (1) 
269

>  <i_i_glide_rotatable_bonds>  (1) 
1

>  <i_lp_mmshare_version>  (1) 
72125

>  <i_m_source_file_index>  (1) 
62

>  <i_f3d_flags>  (1) 
0

>  <num_sample>  (1) 
100

>  <b_lp_Chiralities_Consistent>  (1) 
1

>  <r_epik_Charging_Adjusted_Penalty>  (1) 
0

>  <r_epik_Ionization_Penalty>  (1) 
5.9201220630741648e-14

>  <r_epik_Ionization_Penalty_Charging>  (1) 
0

>  <r_epik_Ionization_Penalty_Neutral>  (1) 
5.9201220630741648e-14

>  <r_epik_State_Penalty>  (1) 
-0

>  <r_glide_ring_energy>  (1) 
0

>  <r_i_docking_score>  (1) 
-5.1190712324008034

>  <r_i_glide_ecoul>  (1) 
0.14389394946643586

>  <r_i_glide_eff_state_penalty>  (1) 
-0

>  <r_i_glide_einternal>  (1) 
0.021027804299413089

>  <r_i_glide_emodel>  (1) 
-21.778388757654259

>  <r_i_glide_emodel_strain>  (1) 
0.17906886980112802

>  <r_i_glide_energy>  (1) 
-15.924765905092931

>  <r_i_glide_erotb>  (1) 
0

>  <r_i_glide_esite>  (1) 
0

>  <r_i_glide_evdw>  (1) 
-16.068659854559368

>  <r_i_glide_gscore>  (1) 
-5.1190712324008034

>  <r_i_glide_gscore_strain>  (1) 
0

>  <r_i_glide_hbond>  (1) 
0

>  <r_i_glide_ligand_efficiency>  (1) 
-0.63988390405010043

>  <r_i_glide_ligand_efficiency_ln>  (1) 
-1.6623375255269011

>  <r_i_glide_ligand_efficiency_sa>  (1) 
-1.2797678081002011

>  <r_i_glide_lipo>  (1) 
-1.1872223320927999

>  <r_i_glide_metal>  (1) 
-0

>  <r_i_glide_rewards>  (1) 
-3.1499999999999999

>  <r_lp_Energy>  (1) 
26.171151999999999

>  <r_lp_tautomer_probability>  (1) 
1

>  <s_epik_cmdline>  (1) 
J2VwaWtfcHl0aG9uJywgJy1waHQnLCAnMS4wJywgJy1waCcsICc3LjQnLCAnLXRuJywgJzgnLCAnLW1hJywgJzUwMCcsICctaW1hZScsICc8aW5maWxlLm1hZT4nLCAnLW9tYWUnLCAnPG91dGZpbGUubWFlPic=

>  <s_epik_input>  (1) 
W0NIMl0xW0NIMl1bQ0gyXVtDSDJdTjFbTitdKFtPLV0pPU8=

>  <s_glide_docking_method>  (1) 
confgen

>  <s_i_glide_gridfile>  (1) 
gpcr_5ht2c_6bqh_protein_autoprepared_prepared

>  <s_lp_Force_Field>  (1) 
S-OPLS

>  <s_lp_Variant>  (1) 
Pocket2Mol_61_num_sample_100-1

>  <s_m_source_file>  (1) 
generated__ligand_Pocket2Mol_2026-05-06_prepared.sdf

>  <GenAI_Model>  (1) 
Pocket2Mol

>  <Protein>  (1) 
GPCR_5HT2C

$$$$
Pocket2Mol_35_num_sample_100
     RDKit          3D

  0  0  0  0  0  0  0  0  0  0999 V3000
M  V30 BEGIN CTAB
M  V30 COUNTS 17 17 0 0 1
M  V30 BEGIN ATOM
M  V30 1 C 40.031668 30.515309 51.471809 0
M  V30 2 O 39.467635 29.419609 50.764992 0
M  V30 3 C 39.625705 28.138962 51.343617 0
M  V30 4 C 39.851250 30.525016 53.007460 0
M  V30 5 O 38.599792 30.022413 53.453627 0
M  V30 6 C 38.464965 27.864435 52.305131 0
M  V30 7 C 38.568805 28.615258 53.637938 0
M  V30 8 H 41.087999 30.600878 51.222811 0
M  V30 9 H 39.566564 31.408732 51.057292 0
M  V30 10 H 39.587383 27.412293 50.533122 0
M  V30 11 H 40.599089 28.021429 51.819996 0
M  V30 12 H 40.667454 30.021401 53.516323 0
M  V30 13 H 39.905693 31.561421 53.339426 0
M  V30 14 H 37.519356 28.108279 51.820112 0
M  V30 15 H 38.426482 26.795458 52.512593 0
M  V30 16 H 37.688147 28.379660 54.237761 0
M  V30 17 H 39.427572 28.278265 54.221477 0
M  V30 END ATOM
M  V30 BEGIN BOND
M  V30 1 1 2 1
M  V30 2 1 3 2
M  V30 3 1 4 1
M  V30 4 1 5 4
M  V30 5 1 6 3
M  V30 6 1 7 5
M  V30 7 1 7 6
M  V30 8 1 8 1
M  V30 9 1 9 1
M  V30 10 1 10 3
M  V30 11 1 11 3
M  V30 12 1 12 4
M  V30 13 1 13 4
M  V30 14 1 14 6
M  V30 15 1 15 6
M  V30 16 1 16 7
M  V30 17 1 17 7
M  V30 END BOND
M  V30 END CTAB
M  END
>  <i_epik_Tot_Q>  (1) 
0

>  <i_epik_Tot_abs_Q>  (1) 
0

>  <i_i_glide_confnum>  (1) 
9

>  <i_i_glide_lignum>  (1) 
38

>  <i_i_glide_posenum>  (1) 
301

>  <i_i_glide_rotatable_bonds>  (1) 
0

>  <i_lp_mmshare_version>  (1) 
72125

>  <i_m_source_file_index>  (1) 
36

>  <i_f3d_flags>  (1) 
0

>  <num_sample>  (1) 
100

>  <b_lp_Chiralities_Consistent>  (1) 
1

>  <r_epik_Charging_Adjusted_Penalty>  (1) 
0

>  <r_epik_Ionization_Penalty>  (1) 
3.933197540425548e-12

>  <r_epik_Ionization_Penalty_Charging>  (1) 
0

>  <r_epik_Ionization_Penalty_Neutral>  (1) 
3.933197540425548e-12

>  <r_epik_State_Penalty>  (1) 
-0

>  <r_glide_ring_energy>  (1) 
0.00061177386835536518

>  <r_i_docking_score>  (1) 
-5.116513921263075

>  <r_i_glide_ecoul>  (1) 
-0.29618512984473411

>  <r_i_glide_eff_state_penalty>  (1) 
-0

>  <r_i_glide_einternal>  (1) 
0

>  <r_i_glide_emodel>  (1) 
-20.576124284201953

>  <r_i_glide_emodel_strain>  (1) 
0

>  <r_i_glide_energy>  (1) 
-15.272975507028235

>  <r_i_glide_erotb>  (1) 
0

>  <r_i_glide_esite>  (1) 
0

>  <r_i_glide_evdw>  (1) 
-14.976790377183502

>  <r_i_glide_gscore>  (1) 
-5.116513921263075

>  <r_i_glide_gscore_strain>  (1) 
0

>  <r_i_glide_hbond>  (1) 
0

>  <r_i_glide_ligand_efficiency>  (1) 
-0.73093056018043934

>  <r_i_glide_ligand_efficiency_ln>  (1) 
-1.7368194080541883

>  <r_i_glide_ligand_efficiency_sa>  (1) 
-1.3982198610104528

>  <r_i_glide_lipo>  (1) 
-1.612224401717592

>  <r_i_glide_metal>  (1) 
-0

>  <r_i_glide_rewards>  (1) 
-2.711022231209598

>  <r_lp_Energy>  (1) 
9.6410049999999998

>  <r_lp_tautomer_probability>  (1) 
1

>  <s_epik_cmdline>  (1) 
J2VwaWtfcHl0aG9uJywgJy1waHQnLCAnMS4wJywgJy1waCcsICc3LjQnLCAnLXRuJywgJzgnLCAnLW1hJywgJzUwMCcsICctaW1hZScsICc8aW5maWxlLm1hZT4nLCAnLW9tYWUnLCAnPG91dGZpbGUubWFlPic=

>  <s_epik_input>  (1) 
W0NIMl0xT1tDSDJdW0NIMl1bQ0gyXU9bQ0gyXTE=

>  <s_glide_docking_method>  (1) 
confgen

>  <s_i_glide_gridfile>  (1) 
gpcr_5ht2c_6bqh_protein_autoprepared_prepared

>  <s_lp_Force_Field>  (1) 
S-OPLS

>  <s_lp_Variant>  (1) 
Pocket2Mol_35_num_sample_100-1

>  <s_m_source_file>  (1) 
generated__ligand_Pocket2Mol_2026-05-06_prepared.sdf

>  <GenAI_Model>  (1) 
Pocket2Mol

>  <Protein>  (1) 
GPCR_5HT2C

$$$$
Pocket2Mol_37_num_sample_100
     RDKit          3D

  0  0  0  0  0  0  0  0  0  0999 V3000
M  V30 BEGIN CTAB
M  V30 COUNTS 11 11 0 0 1
M  V30 BEGIN ATOM
M  V30 1 C 40.243146 30.073085 51.279514 0
M  V30 2 O 39.867360 30.286401 52.586813 0
M  V30 3 C 39.067398 29.387840 53.319937 0
M  V30 4 O 38.731336 29.586102 54.484146 0
M  V30 5 C 38.666329 28.164065 52.538788 0
M  V30 6 C 39.867433 28.983560 50.620006 0
M  V30 7 C 39.063730 28.005694 51.264937 0
M  V30 8 H 40.852679 30.870718 50.879566 0
M  V30 9 H 38.052948 27.419829 53.024885 0
M  V30 10 H 40.172094 28.840955 49.593428 0
M  V30 11 H 38.764471 27.121143 50.721050 0
M  V30 END ATOM
M  V30 BEGIN BOND
M  V30 1 1 2 1
M  V30 2 1 3 2
M  V30 3 2 4 3
M  V30 4 1 5 3
M  V30 5 2 6 1
M  V30 6 2 7 5
M  V30 7 1 7 6
M  V30 8 1 8 1
M  V30 9 1 9 5
M  V30 10 1 10 6
M  V30 11 1 11 7
M  V30 END BOND
M  V30 END CTAB
M  END
>  <i_epik_Tot_Q>  (1) 
0

>  <i_epik_Tot_abs_Q>  (1) 
0

>  <i_i_glide_confnum>  (1) 
1

>  <i_i_glide_lignum>  (1) 
40

>  <i_i_glide_posenum>  (1) 
316

>  <i_i_glide_rotatable_bonds>  (1) 
0

>  <i_lp_mmshare_version>  (1) 
72125

>  <i_m_source_file_index>  (1) 
38

>  <i_f3d_flags>  (1) 
0

>  <num_sample>  (1) 
100

>  <b_lp_Chiralities_Consistent>  (1) 
1

>  <r_epik_Charging_Adjusted_Penalty>  (1) 
0

>  <r_epik_Ionization_Penalty>  (1) 
2.4984917370333966e-09

>  <r_epik_Ionization_Penalty_Charging>  (1) 
0

>  <r_epik_Ionization_Penalty_Neutral>  (1) 
2.4984917370333966e-09

>  <r_epik_State_Penalty>  (1) 
-0

>  <r_glide_ring_energy>  (1) 
0

>  <r_i_docking_score>  (1) 
-5.1139881531780569

>  <r_i_glide_ecoul>  (1) 
-0.23928719891265793

>  <r_i_glide_eff_state_penalty>  (1) 
-0

>  <r_i_glide_einternal>  (1) 
0

>  <r_i_glide_emodel>  (1) 
-23.071145581867327

>  <r_i_glide_emodel_strain>  (1) 
0

>  <r_i_glide_energy>  (1) 
-17.55399873776242

>  <r_i_glide_erotb>  (1) 
0

>  <r_i_glide_esite>  (1) 
0

>  <r_i_glide_evdw>  (1) 
-17.31471153884976

>  <r_i_glide_gscore>  (1) 
-5.1139881531780569

>  <r_i_glide_gscore_strain>  (1) 
0

>  <r_i_glide_hbond>  (1) 
0

>  <r_i_glide_ligand_efficiency>  (1) 
-0.73056973616829379

>  <r_i_glide_ligand_efficiency_ln>  (1) 
-1.7359620268180944

>  <r_i_glide_ligand_efficiency_sa>  (1) 
-1.3975296295061266

>  <r_i_glide_lipo>  (1) 
-1.5331723262377883

>  <r_i_glide_metal>  (1) 
-0

>  <r_i_glide_rewards>  (1) 
-2.679187170160882

>  <r_lp_Energy>  (1) 
11.255118999999999

>  <r_lp_tautomer_probability>  (1) 
1

>  <s_epik_cmdline>  (1) 
J2VwaWtfcHl0aG9uJywgJy1waHQnLCAnMS4wJywgJy1waCcsICc3LjQnLCAnLXRuJywgJzgnLCAnLW1hJywgJzUwMCcsICctaW1hZScsICc8aW5maWxlLm1hZT4nLCAnLW9tYWUnLCAnPG91dGZpbGUubWFlPic=

>  <s_epik_input>  (1) 
W2NIXTFbY0hdW2NIXVtjSF1vYzE9Tw==

>  <s_glide_docking_method>  (1) 
confgen

>  <s_i_glide_gridfile>  (1) 
gpcr_5ht2c_6bqh_protein_autoprepared_prepared

>  <s_lp_Force_Field>  (1) 
S-OPLS

>  <s_lp_Variant>  (1) 
Pocket2Mol_37_num_sample_100-1

>  <s_m_source_file>  (1) 
generated__ligand_Pocket2Mol_2026-05-06_prepared.sdf

>  <GenAI_Model>  (1) 
Pocket2Mol

>  <Protein>  (1) 
GPCR_5HT2C

$$$$
Pocket2Mol_63_num_sample_100
     RDKit          3D

  0  0  0  0  0  0  0  0  0  0999 V3000
M  V30 BEGIN CTAB
M  V30 COUNTS 14 14 0 0 1
M  V30 BEGIN ATOM
M  V30 1 C 39.735444 28.421430 50.891795 0
M  V30 2 C 39.744826 29.637672 51.701739 0
M  V30 3 C 39.067404 27.442584 51.372380 0
M  V30 4 C 38.413128 27.693246 52.658701 0
M  V30 5 N 38.667068 29.201923 52.696627 0
M  V30 6 N 39.159786 29.550685 54.100944 0 CHG=1
M  V30 7 O 38.776280 28.833755 55.020774 0 CHG=-1
M  V30 8 O 39.886845 30.533648 54.207165 0
M  V30 9 H 40.267401 28.380102 49.954176 0
M  V30 10 H 40.734841 29.757594 52.130352 0
M  V30 11 H 39.467402 30.524119 51.132370 0
M  V30 12 H 38.975641 26.483283 50.883902 0
M  V30 13 H 37.348865 27.458746 52.645140 0
M  V30 14 H 38.926971 27.110050 53.423477 0
M  V30 END ATOM
M  V30 BEGIN BOND
M  V30 1 1 2 1
M  V30 2 2 3 1
M  V30 3 1 4 3
M  V30 4 1 5 2
M  V30 5 1 5 4
M  V30 6 1 6 5
M  V30 7 1 7 6
M  V30 8 2 8 6
M  V30 9 1 9 1
M  V30 10 1 10 2
M  V30 11 1 11 2
M  V30 12 1 12 3
M  V30 13 1 13 4
M  V30 14 1 14 4
M  V30 END BOND
M  V30 END CTAB
M  END
>  <i_epik_Tot_Q>  (1) 
0

>  <i_epik_Tot_abs_Q>  (1) 
2

>  <i_i_glide_confnum>  (1) 
1

>  <i_i_glide_lignum>  (1) 
67

>  <i_i_glide_posenum>  (1) 
131

>  <i_i_glide_rotatable_bonds>  (1) 
1

>  <i_lp_mmshare_version>  (1) 
72125

>  <i_m_source_file_index>  (1) 
64

>  <i_f3d_flags>  (1) 
0

>  <num_sample>  (1) 
100

>  <b_lp_Chiralities_Consistent>  (1) 
1

>  <r_epik_Charging_Adjusted_Penalty>  (1) 
0.01004869924428556

>  <r_epik_Ionization_Penalty>  (1) 
0.010048699244285546

>  <r_epik_Ionization_Penalty_Charging>  (1) 
0

>  <r_epik_Ionization_Penalty_Neutral>  (1) 
0.010048699244285546

>  <r_epik_State_Penalty>  (1) 
0.01004869924428556

>  <r_glide_ring_energy>  (1) 
0

>  <r_i_docking_score>  (1) 
-5.1088528259675847

>  <r_i_glide_ecoul>  (1) 
-0.14283713468742565

>  <r_i_glide_eff_state_penalty>  (1) 
0.01004869924428556

>  <r_i_glide_einternal>  (1) 
0.0072633887655371987

>  <r_i_glide_emodel>  (1) 
-23.300464105499501

>  <r_i_glide_emodel_strain>  (1) 
0

>  <r_i_glide_energy>  (1) 
-17.339769021781883

>  <r_i_glide_erotb>  (1) 
0

>  <r_i_glide_esite>  (1) 
0

>  <r_i_glide_evdw>  (1) 
-17.196931887094458

>  <r_i_glide_gscore>  (1) 
-5.1189015252118706

>  <r_i_glide_gscore_strain>  (1) 
0

>  <r_i_glide_hbond>  (1) 
0

>  <r_i_glide_ligand_efficiency>  (1) 
-0.63860660324594809

>  <r_i_glide_ligand_efficiency_ln>  (1) 
-1.6590192594403674

>  <r_i_glide_ligand_efficiency_sa>  (1) 
-1.2772132064918964

>  <r_i_glide_lipo>  (1) 
-1.3200000000000001

>  <r_i_glide_metal>  (1) 
-0

>  <r_i_glide_rewards>  (1) 
-2.9176293606540336

>  <r_lp_Energy>  (1) 
16.803152000000001

>  <s_epik_cmdline>  (1) 
J2VwaWtfcHl0aG9uJywgJy1waHQnLCAnMS4wJywgJy1waCcsICc3LjQnLCAnLXRuJywgJzgnLCAnLW1hJywgJzUwMCcsICctaW1hZScsICc8aW5maWxlLm1hZT4nLCAnLW9tYWUnLCAnPG91dGZpbGUubWFlPic=

>  <s_epik_input>  (1) 
W0NIMl0xW0NIXT1bQ0hdW0NIMl1OMVtOK10oW08tXSk9Tw==

>  <s_glide_docking_method>  (1) 
confgen

>  <s_i_glide_gridfile>  (1) 
gpcr_5ht2c_6bqh_protein_autoprepared_prepared

>  <s_lp_Force_Field>  (1) 
S-OPLS

>  <s_lp_Variant>  (1) 
Pocket2Mol_63_num_sample_100-1

>  <s_m_source_file>  (1) 
generated__ligand_Pocket2Mol_2026-05-06_prepared.sdf

>  <GenAI_Model>  (1) 
Pocket2Mol

>  <Protein>  (1) 
GPCR_5HT2C

$$$$
Pocket2Mol_53_num_sample_100
     RDKit          3D

  0  0  0  0  0  0  0  0  0  0999 V3000
M  V30 BEGIN CTAB
M  V30 COUNTS 16 16 0 0 1
M  V30 BEGIN ATOM
M  V30 1 C 40.915819 30.264157 50.160455 0
M  V30 2 C 40.069252 29.617770 51.236950 0
M  V30 3 C 39.867403 30.258672 52.468190 0
M  V30 4 C 39.067405 29.621429 53.430489 0
M  V30 5 C 38.505872 28.365921 53.122169 0
M  V30 6 C 39.467391 28.362789 51.020772 0
M  V30 7 N 37.709178 27.715583 54.055120 0
M  V30 8 N 38.700040 27.736586 51.941799 0
M  V30 9 H 41.933666 30.421665 50.517937 0
M  V30 10 H 40.956151 29.638640 49.267323 0
M  V30 11 H 40.496956 31.229791 49.878523 0
M  V30 12 H 40.312489 31.221551 52.670238 0
M  V30 13 H 38.886058 30.086588 54.388329 0
M  V30 14 H 39.603998 27.846115 50.084191 0
M  V30 15 H 37.514849 28.121191 54.958330 0
M  V30 16 H 37.295826 26.816730 53.855517 0
M  V30 END ATOM
M  V30 BEGIN BOND
M  V30 1 1 2 1
M  V30 2 1 3 2
M  V30 3 2 4 3
M  V30 4 1 5 4
M  V30 5 2 6 2
M  V30 6 1 7 5
M  V30 7 2 8 5
M  V30 8 1 8 6
M  V30 9 1 9 1
M  V30 10 1 10 1
M  V30 11 1 11 1
M  V30 12 1 12 3
M  V30 13 1 13 4
M  V30 14 1 14 6
M  V30 15 1 15 7
M  V30 16 1 16 7
M  V30 END BOND
M  V30 END CTAB
M  END
>  <i_epik_Tot_Q>  (1) 
0

>  <i_epik_Tot_abs_Q>  (1) 
0

>  <i_i_glide_confnum>  (1) 
1

>  <i_i_glide_lignum>  (1) 
56

>  <i_i_glide_posenum>  (1) 
157

>  <i_i_glide_rotatable_bonds>  (1) 
0

>  <i_lp_mmshare_version>  (1) 
72125

>  <i_m_source_file_index>  (1) 
54

>  <i_f3d_flags>  (1) 
0

>  <num_sample>  (1) 
100

>  <b_lp_Chiralities_Consistent>  (1) 
1

>  <r_epik_Charging_Adjusted_Penalty>  (1) 
0.35861937746939487

>  <r_epik_Ionization_Penalty>  (1) 
0.35867228033349524

>  <r_epik_Ionization_Penalty_Charging>  (1) 
0

>  <r_epik_Ionization_Penalty_Neutral>  (1) 
0.35867228033349524

>  <r_epik_State_Penalty>  (1) 
0.35861937746939487

>  <r_glide_ring_energy>  (1) 
0

>  <r_i_docking_score>  (1) 
-5.1043656815861613

>  <r_i_glide_ecoul>  (1) 
-0.062593827718402384

>  <r_i_glide_eff_state_penalty>  (1) 
0.35861937746939487

>  <r_i_glide_einternal>  (1) 
0

>  <r_i_glide_emodel>  (1) 
-27.157640794411765

>  <r_i_glide_emodel_strain>  (1) 
0

>  <r_i_glide_energy>  (1) 
-20.166701859719726

>  <r_i_glide_erotb>  (1) 
0

>  <r_i_glide_esite>  (1) 
0

>  <r_i_glide_evdw>  (1) 
-20.104108032001324

>  <r_i_glide_gscore>  (1) 
-5.4629850590555566

>  <r_i_glide_gscore_strain>  (1) 
0

>  <r_i_glide_hbond>  (1) 
0

>  <r_i_glide_ligand_efficiency>  (1) 
-0.63804571019827017

>  <r_i_glide_ligand_efficiency_ln>  (1) 
-1.65756213017823

>  <r_i_glide_ligand_efficiency_sa>  (1) 
-1.2760914203965406

>  <r_i_glide_lipo>  (1) 
-1.8495741567554449

>  <r_i_glide_metal>  (1) 
-0

>  <r_i_glide_rewards>  (1) 
-2.5988164265422853

>  <r_lp_Energy>  (1) 
5.8194469999999994

>  <r_lp_tautomer_probability>  (1) 
0.99999977220005165

>  <s_epik_cmdline>  (1) 
J2VwaWtfcHl0aG9uJywgJy1waHQnLCAnMS4wJywgJy1waCcsICc3LjQnLCAnLXRuJywgJzgnLCAnLW1hJywgJzUwMCcsICctaW1hZScsICc8aW5maWxlLm1hZT4nLCAnLW9tYWUnLCAnPG91dGZpbGUubWFlPic=

>  <s_epik_input>  (1) 
W0NIM11jMVtjSF1bY0hdYyhbTkgyXSluW2NIXTE=

>  <s_glide_docking_method>  (1) 
confgen

>  <s_i_glide_gridfile>  (1) 
gpcr_5ht2c_6bqh_protein_autoprepared_prepared

>  <s_lp_Force_Field>  (1) 
S-OPLS

>  <s_lp_Variant>  (1) 
Pocket2Mol_53_num_sample_100-1

>  <s_m_source_file>  (1) 
generated__ligand_Pocket2Mol_2026-05-06_prepared.sdf

>  <GenAI_Model>  (1) 
Pocket2Mol

>  <Protein>  (1) 
GPCR_5HT2C

$$$$
Pocket2Mol_40_num_sample_100
     RDKit          3D

  0  0  0  0  0  0  0  0  0  0999 V3000
M  V30 BEGIN CTAB
M  V30 COUNTS 12 12 0 0 1
M  V30 BEGIN ATOM
M  V30 1 C 39.467392 30.421429 53.602408 0
M  V30 2 C 39.867403 29.937908 52.347046 0
M  V30 3 C 39.189913 28.880530 52.125751 0
M  V30 4 C 39.244284 27.978802 50.911938 0
M  V30 5 N 38.550617 29.725694 54.212771 0
M  V30 6 C 38.316892 28.661864 53.252436 0
M  V30 7 O 37.516471 27.735422 53.371735 0
M  V30 8 H 39.930303 31.331551 53.992238 0
M  V30 9 H 40.616270 30.419474 51.735821 0
M  V30 10 H 38.851588 26.983876 51.126694 0
M  V30 11 H 38.667400 28.414592 50.099106 0
M  V30 12 H 40.268500 27.868732 50.562899 0
M  V30 END ATOM
M  V30 BEGIN BOND
M  V30 1 1 2 1
M  V30 2 2 3 2
M  V30 3 1 4 3
M  V30 4 2 5 1
M  V30 5 1 6 3
M  V30 6 1 6 5
M  V30 7 2 7 6
M  V30 8 1 8 1
M  V30 9 1 9 2
M  V30 10 1 10 4
M  V30 11 1 11 4
M  V30 12 1 12 4
M  V30 END BOND
M  V30 END CTAB
M  END
>  <i_epik_Tot_Q>  (1) 
0

>  <i_epik_Tot_abs_Q>  (1) 
0

>  <i_i_glide_confnum>  (1) 
1

>  <i_i_glide_lignum>  (1) 
43

>  <i_i_glide_posenum>  (1) 
378

>  <i_i_glide_rotatable_bonds>  (1) 
0

>  <i_lp_mmshare_version>  (1) 
72125

>  <i_m_source_file_index>  (1) 
41

>  <i_f3d_flags>  (1) 
0

>  <num_sample>  (1) 
100

>  <b_lp_Chiralities_Consistent>  (1) 
1

>  <r_epik_Charging_Adjusted_Penalty>  (1) 
0

>  <r_epik_Ionization_Penalty>  (1) 
0

>  <r_epik_Ionization_Penalty_Charging>  (1) 
0

>  <r_epik_Ionization_Penalty_Neutral>  (1) 
0

>  <r_epik_State_Penalty>  (1) 
-0

>  <r_glide_ring_energy>  (1) 
0

>  <r_i_docking_score>  (1) 
-5.1035610437901662

>  <r_i_glide_ecoul>  (1) 
-0.18916257087686361

>  <r_i_glide_eff_state_penalty>  (1) 
-0

>  <r_i_glide_einternal>  (1) 
0

>  <r_i_glide_emodel>  (1) 
-23.324755245466445

>  <r_i_glide_emodel_strain>  (1) 
0.3858177247776311

>  <r_i_glide_energy>  (1) 
-17.733141774938456

>  <r_i_glide_erotb>  (1) 
0

>  <r_i_glide_esite>  (1) 
0

>  <r_i_glide_evdw>  (1) 
-17.543979204061593

>  <r_i_glide_gscore>  (1) 
-5.1035610437901662

>  <r_i_glide_gscore_strain>  (1) 
0

>  <r_i_glide_hbond>  (1) 
0

>  <r_i_glide_ligand_efficiency>  (1) 
-0.72908014911288088

>  <r_i_glide_ligand_efficiency_ln>  (1) 
-1.7324225063098964

>  <r_i_glide_ligand_efficiency_sa>  (1) 
-1.3946801519783731

>  <r_i_glide_lipo>  (1) 
-0.98999999999999999

>  <r_i_glide_metal>  (1) 
-0

>  <r_i_glide_rewards>  (1) 
-3.2079876979555566

>  <r_lp_Energy>  (1) 
0.58044799999999996

>  <r_lp_tautomer_probability>  (1) 
1

>  <s_epik_Chemistry_Notes>  (1) 
This compound has an imine and may undergo hydrolysis.

>  <s_epik_cmdline>  (1) 
J2VwaWtfcHl0aG9uJywgJy1waHQnLCAnMS4wJywgJy1waCcsICc3LjQnLCAnLXRuJywgJzgnLCAnLW1hJywgJzUwMCcsICctaW1hZScsICc8aW5maWxlLm1hZT4nLCAnLW9tYWUnLCAnPG91dGZpbGUubWFlPic=

>  <s_epik_input>  (1) 
Tz1DMU49W0NIXVtDSF09QzFbQ0gzXQ==

>  <s_glide_docking_method>  (1) 
confgen

>  <s_i_glide_gridfile>  (1) 
gpcr_5ht2c_6bqh_protein_autoprepared_prepared

>  <s_lp_Force_Field>  (1) 
S-OPLS

>  <s_lp_Variant>  (1) 
Pocket2Mol_40_num_sample_100-1

>  <s_m_source_file>  (1) 
generated__ligand_Pocket2Mol_2026-05-06_prepared.sdf

>  <GenAI_Model>  (1) 
Pocket2Mol

>  <Protein>  (1) 
GPCR_5HT2C

$$$$
Pocket2Mol_47_num_sample_100
     RDKit          3D

  0  0  0  0  0  0  0  0  0  0999 V3000
M  V30 BEGIN CTAB
M  V30 COUNTS 20 20 0 0 1
M  V30 BEGIN ATOM
M  V30 1 C 39.067381 27.635591 51.547080 0
M  V30 2 O 40.238623 28.421436 51.377134 0
M  V30 3 C 39.987822 29.818253 51.453497 0
M  V30 4 C 38.848733 27.239826 53.019253 0
M  V30 5 O 39.067399 28.268853 53.980097 0
M  V30 6 C 38.615747 29.571723 53.647257 0 CFG=1
M  V30 7 C 38.266746 30.277536 54.962868 0
M  V30 8 C 39.739018 30.310460 52.892198 0
M  V30 9 H 38.185249 28.131212 51.138878 0
M  V30 10 H 39.185109 26.727323 50.956345 0
M  V30 11 H 40.864548 30.330801 51.056361 0
M  V30 12 H 39.164153 30.090684 50.792114 0
M  V30 13 H 37.835988 26.853118 53.139184 0
M  V30 14 H 39.521015 26.421485 53.277494 0
M  V30 15 H 37.704780 29.519030 53.053498 0
M  V30 16 H 37.896346 31.287803 54.784066 0
M  V30 17 H 37.488550 29.736259 55.501764 0
M  V30 18 H 39.136110 30.350373 55.616816 0
M  V30 19 H 40.660955 30.251702 53.470081 0
M  V30 20 H 39.494582 31.372191 52.841961 0
M  V30 END ATOM
M  V30 BEGIN BOND
M  V30 1 1 2 1
M  V30 2 1 3 2
M  V30 3 1 4 1
M  V30 4 1 5 4
M  V30 5 1 6 5
M  V30 6 1 7 6
M  V30 7 1 8 3
M  V30 8 1 8 6
M  V30 9 1 9 1
M  V30 10 1 10 1
M  V30 11 1 11 3
M  V30 12 1 12 3
M  V30 13 1 13 4
M  V30 14 1 14 4
M  V30 15 1 6 15 CFG=3
M  V30 16 1 16 7
M  V30 17 1 17 7
M  V30 18 1 18 7
M  V30 19 1 19 8
M  V30 20 1 20 8
M  V30 END BOND
M  V30 END CTAB
M  END
>  <i_epik_Tot_Q>  (1) 
0

>  <i_epik_Tot_abs_Q>  (1) 
0

>  <i_i_glide_confnum>  (1) 
4

>  <i_i_glide_lignum>  (1) 
50

>  <i_i_glide_posenum>  (1) 
308

>  <i_i_glide_rotatable_bonds>  (1) 
0

>  <i_lp_mmshare_version>  (1) 
72125

>  <i_m_source_file_index>  (1) 
48

>  <i_f3d_flags>  (1) 
0

>  <num_sample>  (1) 
100

>  <b_lp_Chiralities_Consistent>  (1) 
1

>  <r_epik_Charging_Adjusted_Penalty>  (1) 
0

>  <r_epik_Ionization_Penalty>  (1) 
4.0259461194199272e-12

>  <r_epik_Ionization_Penalty_Charging>  (1) 
0

>  <r_epik_Ionization_Penalty_Neutral>  (1) 
4.0259461194199272e-12

>  <r_epik_State_Penalty>  (1) 
-0

>  <r_glide_ring_energy>  (1) 
0.19137908204174731

>  <r_i_docking_score>  (1) 
-5.1028009046795866

>  <r_i_glide_ecoul>  (1) 
-0.88620741019262139

>  <r_i_glide_eff_state_penalty>  (1) 
-0

>  <r_i_glide_einternal>  (1) 
0

>  <r_i_glide_emodel>  (1) 
-24.580980354433827

>  <r_i_glide_emodel_strain>  (1) 
0

>  <r_i_glide_energy>  (1) 
-18.875870259622548

>  <r_i_glide_erotb>  (1) 
0

>  <r_i_glide_esite>  (1) 
0

>  <r_i_glide_evdw>  (1) 
-17.989662849429926

>  <r_i_glide_gscore>  (1) 
-5.1028009046795866

>  <r_i_glide_gscore_strain>  (1) 
0

>  <r_i_glide_hbond>  (1) 
0

>  <r_i_glide_ligand_efficiency>  (1) 
-0.63785011308494832

>  <r_i_glide_ligand_efficiency_ln>  (1) 
-1.657053993593919

>  <r_i_glide_ligand_efficiency_sa>  (1) 
-1.2757002261698969

>  <r_i_glide_lipo>  (1) 
-1.5822714075725679

>  <r_i_glide_metal>  (1) 
-0

>  <r_i_glide_rewards>  (1) 
-2.4881152431066287

>  <r_lp_Energy>  (1) 
6.6371139999999995

>  <r_lp_tautomer_probability>  (1) 
1

>  <s_epik_cmdline>  (1) 
J2VwaWtfcHl0aG9uJywgJy1waHQnLCAnMS4wJywgJy1waCcsICc3LjQnLCAnLXRuJywgJzgnLCAnLW1hJywgJzUwMCcsICctaW1hZScsICc8aW5maWxlLm1hZT4nLCAnLW9tYWUnLCAnPG91dGZpbGUubWFlPic=

>  <s_epik_input>  (1) 
W0NIMl0xW0NIMl1PW0NIMl1bQ0gyXU9bQ0BIXTFbQ0gzXQ==

>  <s_glide_docking_method>  (1) 
confgen

>  <s_i_glide_gridfile>  (1) 
gpcr_5ht2c_6bqh_protein_autoprepared_prepared

>  <s_lp_Force_Field>  (1) 
S-OPLS

>  <s_lp_Variant>  (1) 
Pocket2Mol_47_num_sample_100-1

>  <s_m_source_file>  (1) 
generated__ligand_Pocket2Mol_2026-05-06_prepared.sdf

>  <GenAI_Model>  (1) 
Pocket2Mol

>  <Protein>  (1) 
GPCR_5HT2C

$$$$
Pocket2Mol_61_num_sample_100
     RDKit          3D

  0  0  0  0  0  0  0  0  0  0999 V3000
M  V30 BEGIN CTAB
M  V30 COUNTS 16 16 0 0 1
M  V30 BEGIN ATOM
M  V30 1 C 38.916886 27.353969 51.571508 0
M  V30 2 C 38.712511 27.723590 53.040631 0
M  V30 3 C 39.653300 28.539431 50.945993 0
M  V30 4 C 39.685160 29.621512 52.025808 0
M  V30 5 N 38.658456 29.177271 52.961250 0
M  V30 6 N 39.050256 29.720243 54.340294 0 CHG=1
M  V30 7 O 38.750674 29.034713 55.314559 0 CHG=-1
M  V30 8 O 39.622477 30.807270 54.369566 0
M  V30 9 H 39.467405 26.421429 51.456728 0
M  V30 10 H 37.949694 27.224333 51.085071 0
M  V30 11 H 39.572145 27.386647 53.621752 0
M  V30 12 H 37.804660 27.294624 53.466611 0
M  V30 13 H 39.129299 28.883908 50.053935 0
M  V30 14 H 40.667325 28.269628 50.653501 0
M  V30 15 H 39.487204 30.620202 51.636207 0
M  V30 16 H 40.667404 29.621642 52.491763 0
M  V30 END ATOM
M  V30 BEGIN BOND
M  V30 1 1 2 1
M  V30 2 1 3 1
M  V30 3 1 4 3
M  V30 4 1 5 2
M  V30 5 1 5 4
M  V30 6 1 6 5
M  V30 7 1 7 6
M  V30 8 2 8 6
M  V30 9 1 9 1
M  V30 10 1 10 1
M  V30 11 1 11 2
M  V30 12 1 12 2
M  V30 13 1 13 3
M  V30 14 1 14 3
M  V30 15 1 15 4
M  V30 16 1 16 4
M  V30 END BOND
M  V30 END CTAB
M  END
>  <i_epik_Tot_Q>  (1) 
0

>  <i_epik_Tot_abs_Q>  (1) 
2

>  <i_i_glide_confnum>  (1) 
2

>  <i_i_glide_lignum>  (1) 
65

>  <i_i_glide_posenum>  (1) 
399

>  <i_i_glide_rotatable_bonds>  (1) 
1

>  <i_lp_mmshare_version>  (1) 
72125

>  <i_m_source_file_index>  (1) 
62

>  <i_f3d_flags>  (1) 
0

>  <num_sample>  (1) 
100

>  <b_lp_Chiralities_Consistent>  (1) 
1

>  <r_epik_Charging_Adjusted_Penalty>  (1) 
0

>  <r_epik_Ionization_Penalty>  (1) 
5.9201220630741648e-14

>  <r_epik_Ionization_Penalty_Charging>  (1) 
0

>  <r_epik_Ionization_Penalty_Neutral>  (1) 
5.9201220630741648e-14

>  <r_epik_State_Penalty>  (1) 
-0

>  <r_glide_ring_energy>  (1) 
0.002520034235707866

>  <r_i_docking_score>  (1) 
-5.1003260398793904

>  <r_i_glide_ecoul>  (1) 
0.056502388193591102

>  <r_i_glide_eff_state_penalty>  (1) 
-0

>  <r_i_glide_einternal>  (1) 
-9.5600366658399327e-05

>  <r_i_glide_emodel>  (1) 
-23.244420423159532

>  <r_i_glide_emodel_strain>  (1) 
0

>  <r_i_glide_energy>  (1) 
-17.223296218343023

>  <r_i_glide_erotb>  (1) 
0

>  <r_i_glide_esite>  (1) 
0

>  <r_i_glide_evdw>  (1) 
-17.279798606536612

>  <r_i_glide_gscore>  (1) 
-5.1003260398793904

>  <r_i_glide_gscore_strain>  (1) 
0

>  <r_i_glide_hbond>  (1) 
0

>  <r_i_glide_ligand_efficiency>  (1) 
-0.6375407549849238

>  <r_i_glide_ligand_efficiency_ln>  (1) 
-1.6562503203412531

>  <r_i_glide_ligand_efficiency_sa>  (1) 
-1.2750815099698478

>  <r_i_glide_lipo>  (1) 
-1.3200000000000001

>  <r_i_glide_metal>  (1) 
-0

>  <r_i_glide_rewards>  (1) 
-2.9248114677815984

>  <r_lp_Energy>  (1) 
26.171151999999999

>  <r_lp_tautomer_probability>  (1) 
1

>  <s_epik_cmdline>  (1) 
J2VwaWtfcHl0aG9uJywgJy1waHQnLCAnMS4wJywgJy1waCcsICc3LjQnLCAnLXRuJywgJzgnLCAnLW1hJywgJzUwMCcsICctaW1hZScsICc8aW5maWxlLm1hZT4nLCAnLW9tYWUnLCAnPG91dGZpbGUubWFlPic=

>  <s_epik_input>  (1) 
W0NIMl0xW0NIMl1bQ0gyXVtDSDJdTjFbTitdKFtPLV0pPU8=

>  <s_glide_docking_method>  (1) 
confgen

>  <s_i_glide_gridfile>  (1) 
gpcr_5ht2c_6bqh_protein_autoprepared_prepared

>  <s_lp_Force_Field>  (1) 
S-OPLS

>  <s_lp_Variant>  (1) 
Pocket2Mol_61_num_sample_100-1

>  <s_m_source_file>  (1) 
generated__ligand_Pocket2Mol_2026-05-06_prepared.sdf

>  <GenAI_Model>  (1) 
Pocket2Mol

>  <Protein>  (1) 
GPCR_5HT2C

$$$$
Pocket2Mol_43_num_sample_100
     RDKit          3D

  0  0  0  0  0  0  0  0  0  0999 V3000
M  V30 BEGIN CTAB
M  V30 COUNTS 15 15 0 0 1
M  V30 BEGIN ATOM
M  V30 1 C 38.663140 27.541175 53.563348 0
M  V30 2 O 39.467400 27.095617 52.482719 0
M  V30 3 C 39.109665 27.619539 51.215010 0
M  V30 4 C 38.307285 29.029968 53.466650 0
M  V30 5 O 39.467437 29.811605 53.219256 0
M  V30 6 C 39.712341 28.994641 50.968025 0
M  V30 7 C 39.867419 29.954872 51.908400 0
M  V30 8 H 37.748467 26.947953 53.596962 0
M  V30 9 H 39.204599 27.340624 54.488075 0
M  V30 10 H 38.030837 27.619231 51.053523 0
M  V30 11 H 39.530343 26.946351 50.468406 0
M  V30 12 H 37.540271 29.217168 52.713939 0
M  V30 13 H 37.872503 29.355650 54.411980 0
M  V30 14 H 40.038487 29.193889 49.957700 0
M  V30 15 H 40.302219 30.926179 51.718680 0
M  V30 END ATOM
M  V30 BEGIN BOND
M  V30 1 1 2 1
M  V30 2 1 3 2
M  V30 3 1 4 1
M  V30 4 1 5 4
M  V30 5 1 6 3
M  V30 6 1 7 5
M  V30 7 2 7 6
M  V30 8 1 8 1
M  V30 9 1 9 1
M  V30 10 1 10 3
M  V30 11 1 11 3
M  V30 12 1 12 4
M  V30 13 1 13 4
M  V30 14 1 14 6
M  V30 15 1 15 7
M  V30 END BOND
M  V30 END CTAB
M  END
>  <i_epik_Tot_Q>  (1) 
0

>  <i_epik_Tot_abs_Q>  (1) 
0

>  <i_i_glide_confnum>  (1) 
4

>  <i_i_glide_lignum>  (1) 
46

>  <i_i_glide_posenum>  (1) 
123

>  <i_i_glide_rotatable_bonds>  (1) 
0

>  <i_lp_mmshare_version>  (1) 
72125

>  <i_m_source_file_index>  (1) 
44

>  <i_f3d_flags>  (1) 
0

>  <num_sample>  (1) 
100

>  <b_lp_Chiralities_Consistent>  (1) 
1

>  <r_epik_Charging_Adjusted_Penalty>  (1) 
0

>  <r_epik_Ionization_Penalty>  (1) 
5.6701613537443791e-14

>  <r_epik_Ionization_Penalty_Charging>  (1) 
0

>  <r_epik_Ionization_Penalty_Neutral>  (1) 
5.6701613537443791e-14

>  <r_epik_State_Penalty>  (1) 
-0

>  <r_glide_ring_energy>  (1) 
0.98544188256928789

>  <r_i_docking_score>  (1) 
-5.097361769824678

>  <r_i_glide_ecoul>  (1) 
-0.85835473493799608

>  <r_i_glide_eff_state_penalty>  (1) 
-0

>  <r_i_glide_einternal>  (1) 
0

>  <r_i_glide_emodel>  (1) 
-23.218288152685236

>  <r_i_glide_emodel_strain>  (1) 
0

>  <r_i_glide_energy>  (1) 
-17.773185663191782

>  <r_i_glide_erotb>  (1) 
0

>  <r_i_glide_esite>  (1) 
0

>  <r_i_glide_evdw>  (1) 
-16.914830928253785

>  <r_i_glide_gscore>  (1) 
-5.097361769824678

>  <r_i_glide_gscore_strain>  (1) 
0

>  <r_i_glide_hbond>  (1) 
0

>  <r_i_glide_ligand_efficiency>  (1) 
-0.72819453854638261

>  <r_i_glide_ligand_efficiency_ln>  (1) 
-1.7303181400353593

>  <r_i_glide_ligand_efficiency_sa>  (1) 
-1.3929860399099259

>  <r_i_glide_lipo>  (1) 
-1.6077984362671052

>  <r_i_glide_metal>  (1) 
-0

>  <r_i_glide_rewards>  (1) 
-2.5150685769041843

>  <r_lp_Energy>  (1) 
7.3473649999999999

>  <r_lp_tautomer_probability>  (1) 
1

>  <s_epik_cmdline>  (1) 
J2VwaWtfcHl0aG9uJywgJy1waHQnLCAnMS4wJywgJy1waCcsICc3LjQnLCAnLXRuJywgJzgnLCAnLW1hJywgJzUwMCcsICctaW1hZScsICc8aW5maWxlLm1hZT4nLCAnLW9tYWUnLCAnPG91dGZpbGUubWFlPic=

>  <s_epik_input>  (1) 
W0NIMl0xT1tDSDJdW0NIXT1bQ0hdT1tDSDJdMQ==

>  <s_glide_docking_method>  (1) 
confgen

>  <s_i_glide_gridfile>  (1) 
gpcr_5ht2c_6bqh_protein_autoprepared_prepared

>  <s_lp_Force_Field>  (1) 
S-OPLS

>  <s_lp_Variant>  (1) 
Pocket2Mol_43_num_sample_100-1

>  <s_m_source_file>  (1) 
generated__ligand_Pocket2Mol_2026-05-06_prepared.sdf

>  <GenAI_Model>  (1) 
Pocket2Mol

>  <Protein>  (1) 
GPCR_5HT2C

$$$$
Pocket2Mol_17_num_sample_100
     RDKit          3D

  0  0  0  0  0  0  0  0  0  0999 V3000
M  V30 BEGIN CTAB
M  V30 COUNTS 16 16 0 0 1
M  V30 BEGIN ATOM
M  V30 1 C 39.815275 29.996089 52.460564 0
M  V30 2 C 38.757985 29.187605 53.235237 0
M  V30 3 C 40.205087 29.132655 51.249310 0
M  V30 4 C 38.775024 27.781172 52.631476 0
M  V30 5 C 39.154562 28.021429 51.175317 0
M  V30 6 O 40.267403 29.865668 50.043389 0
M  V30 7 H 40.667402 30.176291 53.106831 0
M  V30 8 H 39.467404 30.985490 52.169739 0
M  V30 9 H 38.946541 29.177154 54.309364 0
M  V30 10 H 37.772230 29.621433 53.084713 0
M  V30 11 H 41.182001 28.689821 51.445806 0
M  V30 12 H 39.537575 27.171978 53.118384 0
M  V30 13 H 37.819034 27.266223 52.735072 0
M  V30 14 H 38.267656 28.368844 50.645592 0
M  V30 15 H 39.516279 27.123356 50.672703 0
M  V30 16 H 39.388569 30.117933 49.794942 0
M  V30 END ATOM
M  V30 BEGIN BOND
M  V30 1 1 2 1
M  V30 2 1 3 1
M  V30 3 1 4 2
M  V30 4 1 5 3
M  V30 5 1 5 4
M  V30 6 1 6 3
M  V30 7 1 7 1
M  V30 8 1 8 1
M  V30 9 1 9 2
M  V30 10 1 10 2
M  V30 11 1 11 3
M  V30 12 1 12 4
M  V30 13 1 13 4
M  V30 14 1 14 5
M  V30 15 1 15 5
M  V30 16 1 16 6
M  V30 END BOND
M  V30 END CTAB
M  END
>  <i_epik_Tot_Q>  (1) 
0

>  <i_epik_Tot_abs_Q>  (1) 
0

>  <i_i_glide_confnum>  (1) 
2

>  <i_i_glide_lignum>  (1) 
20

>  <i_i_glide_posenum>  (1) 
48

>  <i_i_glide_rotatable_bonds>  (1) 
1

>  <i_lp_mmshare_version>  (1) 
72125

>  <i_m_source_file_index>  (1) 
18

>  <i_f3d_flags>  (1) 
0

>  <num_sample>  (1) 
100

>  <b_lp_Chiralities_Consistent>  (1) 
1

>  <r_epik_Charging_Adjusted_Penalty>  (1) 
0

>  <r_epik_Ionization_Penalty>  (1) 
4.538991431931509e-07

>  <r_epik_Ionization_Penalty_Charging>  (1) 
0

>  <r_epik_Ionization_Penalty_Neutral>  (1) 
4.538991431931509e-07

>  <r_epik_State_Penalty>  (1) 
-0

>  <r_glide_ring_energy>  (1) 
0.076601694165865028

>  <r_i_docking_score>  (1) 
-5.0932631714305954

>  <r_i_glide_ecoul>  (1) 
-1.016036052291613

>  <r_i_glide_eff_state_penalty>  (1) 
-0

>  <r_i_glide_einternal>  (1) 
0.23485302979372444

>  <r_i_glide_emodel>  (1) 
-21.169212480608465

>  <r_i_glide_emodel_strain>  (1) 
0.2468929182266244

>  <r_i_glide_energy>  (1) 
-16.574902864306406

>  <r_i_glide_erotb>  (1) 
0

>  <r_i_glide_esite>  (1) 
0

>  <r_i_glide_evdw>  (1) 
-15.558866812014791

>  <r_i_glide_gscore>  (1) 
-5.0932631714305954

>  <r_i_glide_gscore_strain>  (1) 
0

>  <r_i_glide_hbond>  (1) 
-0.13351755040993299

>  <r_i_glide_ligand_efficiency>  (1) 
-0.84887719523843252

>  <r_i_glide_ligand_efficiency_ln>  (1) 
-1.8243918315924708

>  <r_i_glide_ligand_efficiency_sa>  (1) 
-1.5425122322533447

>  <r_i_glide_lipo>  (1) 
-1.6016473831643034

>  <r_i_glide_metal>  (1) 
-0

>  <r_i_glide_rewards>  (1) 
-2.4277494894118776

>  <r_lp_Energy>  (1) 
8.9029089999999993

>  <r_lp_tautomer_probability>  (1) 
1

>  <s_epik_cmdline>  (1) 
J2VwaWtfcHl0aG9uJywgJy1waHQnLCAnMS4wJywgJy1waCcsICc3LjQnLCAnLXRuJywgJzgnLCAnLW1hJywgJzUwMCcsICctaW1hZScsICc8aW5maWxlLm1hZT4nLCAnLW9tYWUnLCAnPG91dGZpbGUubWFlPic=

>  <s_epik_input>  (1) 
W09IXVtDSF0xW0NIMl1bQ0gyXVtDSDJdW0NIMl0x

>  <s_glide_docking_method>  (1) 
confgen

>  <s_i_glide_gridfile>  (1) 
gpcr_5ht2c_6bqh_protein_autoprepared_prepared

>  <s_lp_Force_Field>  (1) 
S-OPLS

>  <s_lp_Variant>  (1) 
Pocket2Mol_17_num_sample_100-1

>  <s_m_source_file>  (1) 
generated__ligand_Pocket2Mol_2026-05-06_prepared.sdf

>  <GenAI_Model>  (1) 
Pocket2Mol

>  <Protein>  (1) 
GPCR_5HT2C

$$$$
Pocket2Mol_53_num_sample_100
     RDKit          3D

  0  0  0  0  0  0  0  0  0  0999 V3000
M  V30 BEGIN CTAB
M  V30 COUNTS 17 17 0 0 1
M  V30 BEGIN ATOM
M  V30 1 C 40.752763 30.128293 50.091385 0
M  V30 2 C 39.979190 29.552824 51.260879 0
M  V30 3 C 39.360114 28.287772 51.162409 0
M  V30 4 C 38.642734 27.784977 52.270092 0
M  V30 5 C 38.561694 28.558809 53.445481 0
M  V30 6 C 39.867391 30.275666 52.463041 0
M  V30 7 N 37.867818 28.120118 54.570526 0
M  V30 8 N 39.169665 29.760733 53.497308 0 CHG=1
M  V30 9 H 41.824553 30.084100 50.287464 0
M  V30 10 H 40.547706 29.592614 49.164283 0
M  V30 11 H 40.481439 31.174089 49.940091 0
M  V30 12 H 39.432259 27.711870 50.253495 0
M  V30 13 H 38.161483 26.822080 52.215765 0
M  V30 14 H 40.307450 31.242762 52.626565 0
M  V30 15 H 37.402467 27.224046 54.587696 0
M  V30 16 H 37.822674 28.674895 55.413829 0
M  V30 17 H 39.099962 30.308069 54.356939 0
M  V30 END ATOM
M  V30 BEGIN BOND
M  V30 1 1 2 1
M  V30 2 1 3 2
M  V30 3 2 4 3
M  V30 4 1 5 4
M  V30 5 2 6 2
M  V30 6 1 7 5
M  V30 7 2 8 5
M  V30 8 1 8 6
M  V30 9 1 9 1
M  V30 10 1 10 1
M  V30 11 1 11 1
M  V30 12 1 12 3
M  V30 13 1 13 4
M  V30 14 1 14 6
M  V30 15 1 15 7
M  V30 16 1 16 7
M  V30 17 1 17 8
M  V30 END BOND
M  V30 END CTAB
M  END
>  <i_epik_Tot_Q>  (1) 
1

>  <i_epik_Tot_abs_Q>  (1) 
1

>  <i_i_glide_confnum>  (1) 
1

>  <i_i_glide_lignum>  (1) 
57

>  <i_i_glide_posenum>  (1) 
13

>  <i_i_glide_rotatable_bonds>  (1) 
0

>  <i_lp_mmshare_version>  (1) 
72125

>  <i_m_source_file_index>  (1) 
54

>  <i_f3d_flags>  (1) 
0

>  <num_sample>  (1) 
100

>  <b_lp_Chiralities_Consistent>  (1) 
1

>  <r_epik_Charging_Adjusted_Penalty>  (1) 
0.93551857814206563

>  <r_epik_Ionization_Penalty>  (1) 
0.46776012796604682

>  <r_epik_Ionization_Penalty_Charging>  (1) 
0.46775928907103281

>  <r_epik_Ionization_Penalty_Neutral>  (1) 
8.3889501401179816e-07

>  <r_epik_State_Penalty>  (1) 
0.46775928907103276

>  <r_glide_ring_energy>  (1) 
0

>  <r_i_docking_score>  (1) 
-5.091257447796127

>  <r_i_glide_ecoul>  (1) 
-2.3856182699750321

>  <r_i_glide_eff_state_penalty>  (1) 
0.46775928907103276

>  <r_i_glide_einternal>  (1) 
0

>  <r_i_glide_emodel>  (1) 
-28.161420840733388

>  <r_i_glide_emodel_strain>  (1) 
0.0047257732388636953

>  <r_i_glide_energy>  (1) 
-18.540192271092774

>  <r_i_glide_erotb>  (1) 
0

>  <r_i_glide_esite>  (1) 
0

>  <r_i_glide_evdw>  (1) 
-16.154574001117741

>  <r_i_glide_gscore>  (1) 
-5.5590167368671599

>  <r_i_glide_gscore_strain>  (1) 
0

>  <r_i_glide_hbond>  (1) 
0

>  <r_i_glide_ligand_efficiency>  (1) 
-0.63640718097451587

>  <r_i_glide_ligand_efficiency_ln>  (1) 
-1.6533054383032209

>  <r_i_glide_ligand_efficiency_sa>  (1) 
-1.272814361949032

>  <r_i_glide_lipo>  (1) 
-1.9597424898313602

>  <r_i_glide_metal>  (1) 
-0

>  <r_i_glide_rewards>  (1) 
-2.4337028064836579

>  <r_lp_Energy>  (1) 
10.43703

>  <r_lp_tautomer_probability>  (1) 
0.99999385203779767

>  <s_epik_cmdline>  (1) 
J2VwaWtfcHl0aG9uJywgJy1waHQnLCAnMS4wJywgJy1waCcsICc3LjQnLCAnLXRuJywgJzgnLCAnLW1hJywgJzUwMCcsICctaW1hZScsICc8aW5maWxlLm1hZT4nLCAnLW9tYWUnLCAnPG91dGZpbGUubWFlPic=

>  <s_epik_input>  (1) 
W0NIM11jMVtjSF1bY0hdYyhbTkgyXSluW2NIXTE=

>  <s_glide_docking_method>  (1) 
confgen

>  <s_i_glide_gridfile>  (1) 
gpcr_5ht2c_6bqh_protein_autoprepared_prepared

>  <s_lp_Force_Field>  (1) 
S-OPLS

>  <s_lp_Variant>  (1) 
Pocket2Mol_53_num_sample_100-2

>  <s_m_source_file>  (1) 
generated__ligand_Pocket2Mol_2026-05-06_prepared.sdf

>  <GenAI_Model>  (1) 
Pocket2Mol

>  <Protein>  (1) 
GPCR_5HT2C

$$$$
Pocket2Mol_43_num_sample_100
     RDKit          3D

  0  0  0  0  0  0  0  0  0  0999 V3000
M  V30 BEGIN CTAB
M  V30 COUNTS 15 15 0 0 1
M  V30 BEGIN ATOM
M  V30 1 C 38.637490 27.811951 52.944241 0
M  V30 2 O 38.227331 29.095779 53.378593 0
M  V30 3 C 39.292589 30.018987 53.542319 0
M  V30 4 C 38.988511 27.851406 51.458982 0
M  V30 5 O 40.267391 28.419333 51.236517 0
M  V30 6 C 39.867407 30.549342 52.237813 0
M  V30 7 C 40.304840 29.785549 51.217902 0
M  V30 8 H 39.457618 27.417344 53.545825 0
M  V30 9 H 37.790362 27.140469 53.084457 0
M  V30 10 H 40.080696 29.621531 54.180530 0
M  V30 11 H 38.884579 30.876989 54.076397 0
M  V30 12 H 39.019769 26.831230 51.074434 0
M  V30 13 H 38.223625 28.375456 50.886485 0
M  V30 14 H 39.931735 31.621443 52.151705 0
M  V30 15 H 40.720275 30.173224 50.298755 0
M  V30 END ATOM
M  V30 BEGIN BOND
M  V30 1 1 2 1
M  V30 2 1 3 2
M  V30 3 1 4 1
M  V30 4 1 5 4
M  V30 5 1 6 3
M  V30 6 1 7 5
M  V30 7 2 7 6
M  V30 8 1 8 1
M  V30 9 1 9 1
M  V30 10 1 10 3
M  V30 11 1 11 3
M  V30 12 1 12 4
M  V30 13 1 13 4
M  V30 14 1 14 6
M  V30 15 1 15 7
M  V30 END BOND
M  V30 END CTAB
M  END
>  <i_epik_Tot_Q>  (1) 
0

>  <i_epik_Tot_abs_Q>  (1) 
0

>  <i_i_glide_confnum>  (1) 
1

>  <i_i_glide_lignum>  (1) 
46

>  <i_i_glide_posenum>  (1) 
49

>  <i_i_glide_rotatable_bonds>  (1) 
0

>  <i_lp_mmshare_version>  (1) 
72125

>  <i_m_source_file_index>  (1) 
44

>  <i_f3d_flags>  (1) 
0

>  <num_sample>  (1) 
100

>  <b_lp_Chiralities_Consistent>  (1) 
1

>  <r_epik_Charging_Adjusted_Penalty>  (1) 
0

>  <r_epik_Ionization_Penalty>  (1) 
5.6701613537443791e-14

>  <r_epik_Ionization_Penalty_Charging>  (1) 
0

>  <r_epik_Ionization_Penalty_Neutral>  (1) 
5.6701613537443791e-14

>  <r_epik_State_Penalty>  (1) 
-0

>  <r_glide_ring_energy>  (1) 
0

>  <r_i_docking_score>  (1) 
-5.0876151382449617

>  <r_i_glide_ecoul>  (1) 
-1.2879612975896664

>  <r_i_glide_eff_state_penalty>  (1) 
-0

>  <r_i_glide_einternal>  (1) 
0

>  <r_i_glide_emodel>  (1) 
-22.538991538494958

>  <r_i_glide_emodel_strain>  (1) 
0

>  <r_i_glide_energy>  (1) 
-17.104300593301353

>  <r_i_glide_erotb>  (1) 
0

>  <r_i_glide_esite>  (1) 
0

>  <r_i_glide_evdw>  (1) 
-15.816339295711686

>  <r_i_glide_gscore>  (1) 
-5.0876151382449617

>  <r_i_glide_gscore_strain>  (1) 
0

>  <r_i_glide_hbond>  (1) 
0

>  <r_i_glide_ligand_efficiency>  (1) 
-0.72680216260642305

>  <r_i_glide_ligand_efficiency_ln>  (1) 
-1.7270096102138228

>  <r_i_glide_ligand_efficiency_sa>  (1) 
-1.3903225205562353

>  <r_i_glide_lipo>  (1) 
-1.536270753552508

>  <r_i_glide_metal>  (1) 
-0

>  <r_i_glide_rewards>  (1) 
-2.5673332252684196

>  <r_lp_Energy>  (1) 
7.3473649999999999

>  <r_lp_tautomer_probability>  (1) 
1

>  <s_epik_cmdline>  (1) 
J2VwaWtfcHl0aG9uJywgJy1waHQnLCAnMS4wJywgJy1waCcsICc3LjQnLCAnLXRuJywgJzgnLCAnLW1hJywgJzUwMCcsICctaW1hZScsICc8aW5maWxlLm1hZT4nLCAnLW9tYWUnLCAnPG91dGZpbGUubWFlPic=

>  <s_epik_input>  (1) 
W0NIMl0xT1tDSDJdW0NIXT1bQ0hdT1tDSDJdMQ==

>  <s_glide_docking_method>  (1) 
confgen

>  <s_i_glide_gridfile>  (1) 
gpcr_5ht2c_6bqh_protein_autoprepared_prepared

>  <s_lp_Force_Field>  (1) 
S-OPLS

>  <s_lp_Variant>  (1) 
Pocket2Mol_43_num_sample_100-1

>  <s_m_source_file>  (1) 
generated__ligand_Pocket2Mol_2026-05-06_prepared.sdf

>  <GenAI_Model>  (1) 
Pocket2Mol

>  <Protein>  (1) 
GPCR_5HT2C

$$$$
Pocket2Mol_16_num_sample_100
     RDKit          3D

  0  0  0  0  0  0  0  0  0  0999 V3000
M  V30 BEGIN CTAB
M  V30 COUNTS 18 18 0 0 1
M  V30 BEGIN ATOM
M  V30 1 C 39.047537 29.517755 53.274075 0
M  V30 2 C 39.860279 30.794894 53.016883 0
M  V30 3 C 39.034960 28.742371 51.949558 0
M  V30 4 C 40.267403 30.761274 51.536029 0
M  V30 5 C 40.216121 29.288960 51.148524 0
M  V30 6 C 39.058829 27.222473 52.110231 0
M  V30 7 H 38.031995 29.752030 53.595017 0
M  V30 8 H 39.497934 28.933329 54.075823 0
M  V30 9 H 39.270575 31.682050 53.245367 0
M  V30 10 H 40.734380 30.817693 53.665860 0
M  V30 11 H 38.120713 29.014215 51.425081 0
M  V30 12 H 39.529065 31.310283 50.947526 0
M  V30 13 H 41.237914 31.217473 51.346854 0
M  V30 14 H 41.140900 28.797273 51.453240 0
M  V30 15 H 40.091481 29.145869 50.074923 0
M  V30 16 H 39.944052 26.887613 52.650298 0
M  V30 17 H 39.051631 26.734333 51.134824 0
M  V30 18 H 38.183330 26.874914 52.659595 0
M  V30 END ATOM
M  V30 BEGIN BOND
M  V30 1 1 2 1
M  V30 2 1 3 1
M  V30 3 1 4 2
M  V30 4 1 5 3
M  V30 5 1 5 4
M  V30 6 1 6 3
M  V30 7 1 7 1
M  V30 8 1 8 1
M  V30 9 1 9 2
M  V30 10 1 10 2
M  V30 11 1 11 3
M  V30 12 1 12 4
M  V30 13 1 13 4
M  V30 14 1 14 5
M  V30 15 1 15 5
M  V30 16 1 16 6
M  V30 17 1 17 6
M  V30 18 1 18 6
M  V30 END BOND
M  V30 END CTAB
M  END
>  <i_epik_Tot_Q>  (1) 
0

>  <i_epik_Tot_abs_Q>  (1) 
0

>  <i_i_glide_confnum>  (1) 
2

>  <i_i_glide_lignum>  (1) 
19

>  <i_i_glide_posenum>  (1) 
89

>  <i_i_glide_rotatable_bonds>  (1) 
0

>  <i_lp_mmshare_version>  (1) 
72125

>  <i_m_source_file_index>  (1) 
17

>  <i_f3d_flags>  (1) 
0

>  <num_sample>  (1) 
100

>  <b_lp_Chiralities_Consistent>  (1) 
1

>  <r_epik_Charging_Adjusted_Penalty>  (1) 
0

>  <r_epik_Ionization_Penalty>  (1) 
0

>  <r_epik_Ionization_Penalty_Charging>  (1) 
0

>  <r_epik_Ionization_Penalty_Neutral>  (1) 
0

>  <r_epik_State_Penalty>  (1) 
-0

>  <r_glide_ring_energy>  (1) 
0.2204327727677606

>  <r_i_docking_score>  (1) 
-5.0845819712667142

>  <r_i_glide_ecoul>  (1) 
-0.10888362825656638

>  <r_i_glide_eff_state_penalty>  (1) 
-0

>  <r_i_glide_einternal>  (1) 
0

>  <r_i_glide_emodel>  (1) 
-19.66032756962047

>  <r_i_glide_emodel_strain>  (1) 
0.051469653687355787

>  <r_i_glide_energy>  (1) 
-14.755651101716479

>  <r_i_glide_erotb>  (1) 
0

>  <r_i_glide_esite>  (1) 
0

>  <r_i_glide_evdw>  (1) 
-14.646767473459914

>  <r_i_glide_gscore>  (1) 
-5.0845819712667142

>  <r_i_glide_gscore_strain>  (1) 
0

>  <r_i_glide_hbond>  (1) 
0

>  <r_i_glide_ligand_efficiency>  (1) 
-0.84743032854445233

>  <r_i_glide_ligand_efficiency_ln>  (1) 
-1.8212822513225482

>  <r_i_glide_ligand_efficiency_sa>  (1) 
-1.5398831009886302

>  <r_i_glide_lipo>  (1) 
-1.7938104377767083

>  <r_i_glide_metal>  (1) 
-0

>  <r_i_glide_rewards>  (1) 
-2.5421006155785251

>  <r_lp_Energy>  (1) 
6.4120089999999994

>  <r_lp_tautomer_probability>  (1) 
1

>  <s_epik_cmdline>  (1) 
J2VwaWtfcHl0aG9uJywgJy1waHQnLCAnMS4wJywgJy1waCcsICc3LjQnLCAnLXRuJywgJzgnLCAnLW1hJywgJzUwMCcsICctaW1hZScsICc8aW5maWxlLm1hZT4nLCAnLW9tYWUnLCAnPG91dGZpbGUubWFlPic=

>  <s_epik_input>  (1) 
W0NIM11bQ0hdMVtDSDJdW0NIMl1bQ0gyXVtDSDJdMQ==

>  <s_glide_docking_method>  (1) 
confgen

>  <s_i_glide_gridfile>  (1) 
gpcr_5ht2c_6bqh_protein_autoprepared_prepared

>  <s_lp_Force_Field>  (1) 
S-OPLS

>  <s_lp_Variant>  (1) 
Pocket2Mol_16_num_sample_100-1

>  <s_m_source_file>  (1) 
generated__ligand_Pocket2Mol_2026-05-06_prepared.sdf

>  <GenAI_Model>  (1) 
Pocket2Mol

>  <Protein>  (1) 
GPCR_5HT2C

$$$$
Pocket2Mol_32_num_sample_100
     RDKit          3D

  0  0  0  0  0  0  0  0  0  0999 V3000
M  V30 BEGIN CTAB
M  V30 COUNTS 15 15 0 0 1
M  V30 BEGIN ATOM
M  V30 1 C 40.261331 30.798064 49.965295 0
M  V30 2 C 40.107405 31.050255 51.462948 0
M  V30 3 O 39.571363 29.839167 51.929937 0
M  V30 4 O 40.234558 29.388620 49.838059 0
M  V30 5 C 40.152512 28.881072 51.123753 0
M  V30 6 C 39.251167 27.643305 51.127588 0
M  V30 7 O 39.467348 26.850234 52.275049 0
M  V30 8 H 41.185664 31.221093 49.570981 0
M  V30 9 H 39.424173 31.221942 49.412394 0
M  V30 10 H 41.067403 31.221429 51.936155 0
M  V30 11 H 39.467403 31.898806 51.692295 0
M  V30 12 H 41.168040 28.658796 51.453854 0
M  V30 13 H 39.483037 27.035567 50.253502 0
M  V30 14 H 38.207280 27.950091 51.053499 0
M  V30 15 H 38.764847 26.220063 52.332685 0
M  V30 END ATOM
M  V30 BEGIN BOND
M  V30 1 1 2 1
M  V30 2 1 3 2
M  V30 3 1 4 1
M  V30 4 1 5 3
M  V30 5 1 5 4
M  V30 6 1 6 5
M  V30 7 1 7 6
M  V30 8 1 8 1
M  V30 9 1 9 1
M  V30 10 1 10 2
M  V30 11 1 11 2
M  V30 12 1 12 5
M  V30 13 1 13 6
M  V30 14 1 14 6
M  V30 15 1 15 7
M  V30 END BOND
M  V30 END CTAB
M  END
>  <i_epik_Tot_Q>  (1) 
0

>  <i_epik_Tot_abs_Q>  (1) 
0

>  <i_i_glide_confnum>  (1) 
1

>  <i_i_glide_lignum>  (1) 
35

>  <i_i_glide_posenum>  (1) 
182

>  <i_i_glide_rotatable_bonds>  (1) 
2

>  <i_lp_mmshare_version>  (1) 
72125

>  <i_m_source_file_index>  (1) 
33

>  <i_f3d_flags>  (1) 
0

>  <num_sample>  (1) 
100

>  <b_lp_Chiralities_Consistent>  (1) 
1

>  <r_epik_Charging_Adjusted_Penalty>  (1) 
0

>  <r_epik_Ionization_Penalty>  (1) 
3.4422651255072934e-07

>  <r_epik_Ionization_Penalty_Charging>  (1) 
0

>  <r_epik_Ionization_Penalty_Neutral>  (1) 
3.4422651255072934e-07

>  <r_epik_State_Penalty>  (1) 
-0

>  <r_glide_ring_energy>  (1) 
0

>  <r_i_docking_score>  (1) 
-5.081428169846645

>  <r_i_glide_ecoul>  (1) 
-1.9927890794501633

>  <r_i_glide_eff_state_penalty>  (1) 
-0

>  <r_i_glide_einternal>  (1) 
0.73451261443349392

>  <r_i_glide_emodel>  (1) 
-21.740330924976821

>  <r_i_glide_emodel_strain>  (1) 
0.067337458218133861

>  <r_i_glide_energy>  (1) 
-16.511968176057056

>  <r_i_glide_erotb>  (1) 
0

>  <r_i_glide_esite>  (1) 
0

>  <r_i_glide_evdw>  (1) 
-14.519179096606894

>  <r_i_glide_gscore>  (1) 
-5.081428169846645

>  <r_i_glide_gscore_strain>  (1) 
0

>  <r_i_glide_hbond>  (1) 
0

>  <r_i_glide_ligand_efficiency>  (1) 
-0.72591830997809215

>  <r_i_glide_ligand_efficiency_ln>  (1) 
-1.7249094211091753

>  <r_i_glide_ligand_efficiency_sa>  (1) 
-1.3886317713025256

>  <r_i_glide_lipo>  (1) 
-0.95655085309877497

>  <r_i_glide_metal>  (1) 
-0

>  <r_i_glide_rewards>  (1) 
-3.1000000000000001

>  <r_lp_Energy>  (1) 
-10.260740999999999

>  <r_lp_tautomer_probability>  (1) 
1

>  <s_epik_Chemistry_Notes>  (1) 
This compound contains an acetal/aminal-like group ( X-CH(R)-Y where X, Y are N, S, or O) that may be acid/base labile, releasing an aldehyde.

>  <s_epik_cmdline>  (1) 
J2VwaWtfcHl0aG9uJywgJy1waHQnLCAnMS4wJywgJy1waCcsICc3LjQnLCAnLXRuJywgJzgnLCAnLW1hJywgJzUwMCcsICctaW1hZScsICc8aW5maWxlLm1hZT4nLCAnLW9tYWUnLCAnPG91dGZpbGUubWFlPic=

>  <s_epik_input>  (1) 
TzFbQ0gyXVtDSDJdT1tDSF0xW0NIMl1bT0hd

>  <s_glide_docking_method>  (1) 
confgen

>  <s_i_glide_gridfile>  (1) 
gpcr_5ht2c_6bqh_protein_autoprepared_prepared

>  <s_lp_Force_Field>  (1) 
S-OPLS

>  <s_lp_Variant>  (1) 
Pocket2Mol_32_num_sample_100-1

>  <s_m_source_file>  (1) 
generated__ligand_Pocket2Mol_2026-05-06_prepared.sdf

>  <GenAI_Model>  (1) 
Pocket2Mol

>  <Protein>  (1) 
GPCR_5HT2C

$$$$
Pocket2Mol_51_num_sample_100
     RDKit          3D

  0  0  0  0  0  0  0  0  0  0999 V3000
M  V30 BEGIN CTAB
M  V30 COUNTS 18 18 0 0 1
M  V30 BEGIN ATOM
M  V30 1 C 39.064062 27.013580 55.594115 0
M  V30 2 C 39.067403 26.926170 54.188331 0
M  V30 3 C 38.634379 28.019866 53.411505 0
M  V30 4 C 38.637710 27.922842 51.898758 0
M  V30 5 C 38.626245 28.195515 56.226521 0
M  V30 6 C 38.619661 28.289533 57.738472 0
M  V30 7 C 38.193950 29.290218 55.449857 0
M  V30 8 C 38.198433 29.202739 54.044351 0
M  V30 9 H 39.396767 26.173990 56.187025 0
M  V30 10 H 39.402722 26.021432 53.706334 0
M  V30 11 H 38.438506 28.888933 51.434891 0
M  V30 12 H 39.604850 27.568714 51.541263 0
M  V30 13 H 37.872705 27.221584 51.565420 0
M  V30 14 H 37.800365 28.922052 58.082333 0
M  V30 15 H 38.497070 27.305165 58.191139 0
M  V30 16 H 39.557455 28.717707 58.092752 0
M  V30 17 H 37.856965 30.197333 55.932519 0
M  V30 18 H 37.867369 30.042377 53.453496 0
M  V30 END ATOM
M  V30 BEGIN BOND
M  V30 1 2 2 1
M  V30 2 1 3 2
M  V30 3 1 4 3
M  V30 4 1 5 1
M  V30 5 1 6 5
M  V30 6 2 7 5
M  V30 7 2 8 3
M  V30 8 1 8 7
M  V30 9 1 9 1
M  V30 10 1 10 2
M  V30 11 1 11 4
M  V30 12 1 12 4
M  V30 13 1 13 4
M  V30 14 1 14 6
M  V30 15 1 15 6
M  V30 16 1 16 6
M  V30 17 1 17 7
M  V30 18 1 18 8
M  V30 END BOND
M  V30 END CTAB
M  END
>  <i_epik_Tot_Q>  (1) 
0

>  <i_epik_Tot_abs_Q>  (1) 
0

>  <i_i_glide_confnum>  (1) 
1

>  <i_i_glide_lignum>  (1) 
54

>  <i_i_glide_posenum>  (1) 
81

>  <i_i_glide_rotatable_bonds>  (1) 
0

>  <i_lp_mmshare_version>  (1) 
72125

>  <i_m_source_file_index>  (1) 
52

>  <i_f3d_flags>  (1) 
0

>  <num_sample>  (1) 
100

>  <b_lp_Chiralities_Consistent>  (1) 
1

>  <r_epik_Charging_Adjusted_Penalty>  (1) 
0

>  <r_epik_Ionization_Penalty>  (1) 
0

>  <r_epik_Ionization_Penalty_Charging>  (1) 
0

>  <r_epik_Ionization_Penalty_Neutral>  (1) 
0

>  <r_epik_State_Penalty>  (1) 
-0

>  <r_glide_ring_energy>  (1) 
0

>  <r_i_docking_score>  (1) 
-5.0793377819254557

>  <r_i_glide_ecoul>  (1) 
-0.28730309046583097

>  <r_i_glide_eff_state_penalty>  (1) 
-0

>  <r_i_glide_einternal>  (1) 
0

>  <r_i_glide_emodel>  (1) 
-20.845681806127587

>  <r_i_glide_emodel_strain>  (1) 
0.0022830929727746252

>  <r_i_glide_energy>  (1) 
-14.733497132484684

>  <r_i_glide_erotb>  (1) 
0

>  <r_i_glide_esite>  (1) 
0

>  <r_i_glide_evdw>  (1) 
-14.446194042018853

>  <r_i_glide_gscore>  (1) 
-5.0793377819254557

>  <r_i_glide_gscore_strain>  (1) 
0

>  <r_i_glide_hbond>  (1) 
0

>  <r_i_glide_ligand_efficiency>  (1) 
-0.63491722274068196

>  <r_i_glide_ligand_efficiency_ln>  (1) 
-1.6494347150862543

>  <r_i_glide_ligand_efficiency_sa>  (1) 
-1.2698344454813641

>  <r_i_glide_lipo>  (1) 
-1.6375717782034502

>  <r_i_glide_metal>  (1) 
-0

>  <r_i_glide_rewards>  (1) 
-2.6763608380511883

>  <r_lp_Energy>  (1) 
3.9239269999999999

>  <r_lp_tautomer_probability>  (1) 
1

>  <s_epik_cmdline>  (1) 
J2VwaWtfcHl0aG9uJywgJy1waHQnLCAnMS4wJywgJy1waCcsICc3LjQnLCAnLXRuJywgJzgnLCAnLW1hJywgJzUwMCcsICctaW1hZScsICc8aW5maWxlLm1hZT4nLCAnLW9tYWUnLCAnPG91dGZpbGUubWFlPic=

>  <s_epik_input>  (1) 
W2NIXTFbY0hdYyhbQ0gzXSlbY0hdW2NIXWMxW0NIM10=

>  <s_glide_docking_method>  (1) 
confgen

>  <s_i_glide_gridfile>  (1) 
gpcr_5ht2c_6bqh_protein_autoprepared_prepared

>  <s_lp_Force_Field>  (1) 
S-OPLS

>  <s_lp_Variant>  (1) 
Pocket2Mol_51_num_sample_100-1

>  <s_m_source_file>  (1) 
generated__ligand_Pocket2Mol_2026-05-06_prepared.sdf

>  <GenAI_Model>  (1) 
Pocket2Mol

>  <Protein>  (1) 
GPCR_5HT2C

$$$$
Pocket2Mol_40_num_sample_100
     RDKit          3D

  0  0  0  0  0  0  0  0  0  0999 V3000
M  V30 BEGIN CTAB
M  V30 COUNTS 12 12 0 0 1
M  V30 BEGIN ATOM
M  V30 1 C 39.067407 29.531365 53.436864 0
M  V30 2 C 39.853296 30.355576 52.613420 0
M  V30 3 C 39.942575 29.771642 51.483837 0
M  V30 4 C 40.667389 30.252695 50.243522 0
M  V30 5 N 38.643878 28.425416 52.893631 0
M  V30 6 C 39.212072 28.529722 51.560604 0
M  V30 7 O 39.096619 27.708068 50.653503 0
M  V30 8 H 38.856662 29.850778 54.460486 0
M  V30 9 H 40.263562 31.299746 52.936618 0
M  V30 10 H 40.564712 29.551035 49.415238 0
M  V30 11 H 40.255871 31.209187 49.920774 0
M  V30 12 H 41.729637 30.392902 50.447479 0
M  V30 END ATOM
M  V30 BEGIN BOND
M  V30 1 1 2 1
M  V30 2 2 3 2
M  V30 3 1 4 3
M  V30 4 2 5 1
M  V30 5 1 6 3
M  V30 6 1 6 5
M  V30 7 2 7 6
M  V30 8 1 8 1
M  V30 9 1 9 2
M  V30 10 1 10 4
M  V30 11 1 11 4
M  V30 12 1 12 4
M  V30 END BOND
M  V30 END CTAB
M  END
>  <i_epik_Tot_Q>  (1) 
0

>  <i_epik_Tot_abs_Q>  (1) 
0

>  <i_i_glide_confnum>  (1) 
1

>  <i_i_glide_lignum>  (1) 
43

>  <i_i_glide_posenum>  (1) 
377

>  <i_i_glide_rotatable_bonds>  (1) 
0

>  <i_lp_mmshare_version>  (1) 
72125

>  <i_m_source_file_index>  (1) 
41

>  <i_f3d_flags>  (1) 
0

>  <num_sample>  (1) 
100

>  <b_lp_Chiralities_Consistent>  (1) 
1

>  <r_epik_Charging_Adjusted_Penalty>  (1) 
0

>  <r_epik_Ionization_Penalty>  (1) 
0

>  <r_epik_Ionization_Penalty_Charging>  (1) 
0

>  <r_epik_Ionization_Penalty_Neutral>  (1) 
0

>  <r_epik_State_Penalty>  (1) 
-0

>  <r_glide_ring_energy>  (1) 
0

>  <r_i_docking_score>  (1) 
-5.0763239403584821

>  <r_i_glide_ecoul>  (1) 
0.14981120644776041

>  <r_i_glide_eff_state_penalty>  (1) 
-0

>  <r_i_glide_einternal>  (1) 
0

>  <r_i_glide_emodel>  (1) 
-25.104249911147672

>  <r_i_glide_emodel_strain>  (1) 
0

>  <r_i_glide_energy>  (1) 
-19.158719561217541

>  <r_i_glide_erotb>  (1) 
0

>  <r_i_glide_esite>  (1) 
0

>  <r_i_glide_evdw>  (1) 
-19.308530767665303

>  <r_i_glide_gscore>  (1) 
-5.0763239403584821

>  <r_i_glide_gscore_strain>  (1) 
0

>  <r_i_glide_hbond>  (1) 
0

>  <r_i_glide_ligand_efficiency>  (1) 
-0.725189134336926

>  <r_i_glide_ligand_efficiency_ln>  (1) 
-1.7231767716969726

>  <r_i_glide_ligand_efficiency_sa>  (1) 
-1.3872369084808209

>  <r_i_glide_lipo>  (1) 
-0.98999999999999999

>  <r_i_glide_metal>  (1) 
-0

>  <r_i_glide_rewards>  (1) 
-3.1433690829423813

>  <r_lp_Energy>  (1) 
0.58044799999999996

>  <r_lp_tautomer_probability>  (1) 
1

>  <s_epik_Chemistry_Notes>  (1) 
This compound has an imine and may undergo hydrolysis.

>  <s_epik_cmdline>  (1) 
J2VwaWtfcHl0aG9uJywgJy1waHQnLCAnMS4wJywgJy1waCcsICc3LjQnLCAnLXRuJywgJzgnLCAnLW1hJywgJzUwMCcsICctaW1hZScsICc8aW5maWxlLm1hZT4nLCAnLW9tYWUnLCAnPG91dGZpbGUubWFlPic=

>  <s_epik_input>  (1) 
Tz1DMU49W0NIXVtDSF09QzFbQ0gzXQ==

>  <s_glide_docking_method>  (1) 
confgen

>  <s_i_glide_gridfile>  (1) 
gpcr_5ht2c_6bqh_protein_autoprepared_prepared

>  <s_lp_Force_Field>  (1) 
S-OPLS

>  <s_lp_Variant>  (1) 
Pocket2Mol_40_num_sample_100-1

>  <s_m_source_file>  (1) 
generated__ligand_Pocket2Mol_2026-05-06_prepared.sdf

>  <GenAI_Model>  (1) 
Pocket2Mol

>  <Protein>  (1) 
GPCR_5HT2C

$$$$
Pocket2Mol_18_num_sample_100
     RDKit          3D

  0  0  0  0  0  0  0  0  0  0999 V3000
M  V30 BEGIN CTAB
M  V30 COUNTS 18 18 0 0 1
M  V30 BEGIN ATOM
M  V30 1 C 38.456202 28.996397 53.402841 0
M  V30 2 C 38.899098 27.611858 52.905118 0
M  V30 3 C 39.184761 27.643735 51.399096 0
M  V30 4 C 39.467403 30.105233 53.041575 0
M  V30 5 C 40.249669 28.694628 51.051317 0
M  V30 6 C 39.867994 30.086123 51.550386 0
M  V30 7 H 37.485921 29.221435 52.961264 0
M  V30 8 H 38.299947 28.974216 54.481836 0
M  V30 9 H 39.785948 27.276629 53.443386 0
M  V30 10 H 38.119458 26.878435 53.114988 0
M  V30 11 H 39.496054 26.657925 51.053680 0
M  V30 12 H 38.267358 27.876193 50.860712 0
M  V30 13 H 39.048881 31.080540 53.291561 0
M  V30 14 H 40.358646 30.021041 53.660984 0
M  V30 15 H 40.359987 28.733949 49.967865 0
M  V30 16 H 41.221824 28.421430 51.454928 0
M  V30 17 H 39.067403 30.432684 50.908220 0
M  V30 18 H 40.691793 30.781145 51.383719 0
M  V30 END ATOM
M  V30 BEGIN BOND
M  V30 1 1 2 1
M  V30 2 1 3 2
M  V30 3 1 4 1
M  V30 4 1 5 3
M  V30 5 1 6 4
M  V30 6 1 6 5
M  V30 7 1 7 1
M  V30 8 1 8 1
M  V30 9 1 9 2
M  V30 10 1 10 2
M  V30 11 1 11 3
M  V30 12 1 12 3
M  V30 13 1 13 4
M  V30 14 1 14 4
M  V30 15 1 15 5
M  V30 16 1 16 5
M  V30 17 1 17 6
M  V30 18 1 18 6
M  V30 END BOND
M  V30 END CTAB
M  END
>  <i_epik_Tot_Q>  (1) 
0

>  <i_epik_Tot_abs_Q>  (1) 
0

>  <i_i_glide_confnum>  (1) 
2

>  <i_i_glide_lignum>  (1) 
21

>  <i_i_glide_posenum>  (1) 
39

>  <i_i_glide_rotatable_bonds>  (1) 
0

>  <i_lp_mmshare_version>  (1) 
72125

>  <i_m_source_file_index>  (1) 
19

>  <i_f3d_flags>  (1) 
0

>  <num_sample>  (1) 
100

>  <b_lp_Chiralities_Consistent>  (1) 
1

>  <r_epik_Charging_Adjusted_Penalty>  (1) 
0

>  <r_epik_Ionization_Penalty>  (1) 
0

>  <r_epik_Ionization_Penalty_Charging>  (1) 
0

>  <r_epik_Ionization_Penalty_Neutral>  (1) 
0

>  <r_epik_State_Penalty>  (1) 
-0

>  <r_glide_ring_energy>  (1) 
0.00054248204421707515

>  <r_i_docking_score>  (1) 
-5.0714904279811561

>  <r_i_glide_ecoul>  (1) 
-0.05353546114752869

>  <r_i_glide_eff_state_penalty>  (1) 
-0

>  <r_i_glide_einternal>  (1) 
0

>  <r_i_glide_emodel>  (1) 
-18.248644730398507

>  <r_i_glide_emodel_strain>  (1) 
8.0334725538477869e-08

>  <r_i_glide_energy>  (1) 
-14.264509840492236

>  <r_i_glide_erotb>  (1) 
0

>  <r_i_glide_esite>  (1) 
0

>  <r_i_glide_evdw>  (1) 
-14.210974379344707

>  <r_i_glide_gscore>  (1) 
-5.0714904279811561

>  <r_i_glide_gscore_strain>  (1) 
0

>  <r_i_glide_hbond>  (1) 
0

>  <r_i_glide_ligand_efficiency>  (1) 
-0.84524840466352602

>  <r_i_glide_ligand_efficiency_ln>  (1) 
-1.8165928991667273

>  <r_i_glide_ligand_efficiency_sa>  (1) 
-1.535918282172607

>  <r_i_glide_lipo>  (1) 
-1.8440731874227054

>  <r_i_glide_metal>  (1) 
-0

>  <r_i_glide_rewards>  (1) 
-2.5088382024190858

>  <r_lp_Energy>  (1) 
5.7175969999999996

>  <r_lp_tautomer_probability>  (1) 
1

>  <s_epik_cmdline>  (1) 
J2VwaWtfcHl0aG9uJywgJy1waHQnLCAnMS4wJywgJy1waCcsICc3LjQnLCAnLXRuJywgJzgnLCAnLW1hJywgJzUwMCcsICctaW1hZScsICc8aW5maWxlLm1hZT4nLCAnLW9tYWUnLCAnPG91dGZpbGUubWFlPic=

>  <s_epik_input>  (1) 
W0NIMl0xW0NIMl1bQ0gyXVtDSDJdW0NIMl1bQ0gyXTE=

>  <s_glide_docking_method>  (1) 
confgen

>  <s_i_glide_gridfile>  (1) 
gpcr_5ht2c_6bqh_protein_autoprepared_prepared

>  <s_lp_Force_Field>  (1) 
S-OPLS

>  <s_lp_Variant>  (1) 
Pocket2Mol_18_num_sample_100-1

>  <s_m_source_file>  (1) 
generated__ligand_Pocket2Mol_2026-05-06_prepared.sdf

>  <GenAI_Model>  (1) 
Pocket2Mol

>  <Protein>  (1) 
GPCR_5HT2C

$$$$
Pocket2Mol_48_num_sample_100
     RDKit          3D

  0  0  0  0  0  0  0  0  0  0999 V3000
M  V30 BEGIN CTAB
M  V30 COUNTS 13 13 0 0 1
M  V30 BEGIN ATOM
M  V30 1 C 38.266181 29.402147 54.415906 0
M  V30 2 C 39.067387 29.939480 53.453489 0
M  V30 3 C 37.815959 28.230818 54.005220 0
M  V30 4 C 38.297500 27.775623 52.574442 0
M  V30 5 C 39.131407 29.112429 52.420333 0
M  V30 6 C 39.935938 29.337976 51.102655 0
M  V30 7 O 39.867397 28.421432 50.256205 0
M  V30 8 O 40.571779 30.411911 51.025772 0 CHG=-1
M  V30 9 H 38.034714 29.863084 55.365408 0
M  V30 10 H 39.571065 30.893485 53.520663 0
M  V30 11 H 37.158723 27.603949 54.589361 0
M  V30 12 H 38.920635 26.881206 52.591974 0
M  V30 13 H 37.484205 27.697791 51.853568 0
M  V30 END ATOM
M  V30 BEGIN BOND
M  V30 1 1 2 1
M  V30 2 2 3 1
M  V30 3 1 4 3
M  V30 4 2 5 2
M  V30 5 1 5 4
M  V30 6 1 6 5
M  V30 7 2 7 6
M  V30 8 1 8 6
M  V30 9 1 9 1
M  V30 10 1 10 2
M  V30 11 1 11 3
M  V30 12 1 12 4
M  V30 13 1 13 4
M  V30 END BOND
M  V30 END CTAB
M  END
>  <i_epik_Tot_Q>  (1) 
-1

>  <i_epik_Tot_abs_Q>  (1) 
1

>  <i_i_glide_confnum>  (1) 
1

>  <i_i_glide_lignum>  (1) 
51

>  <i_i_glide_posenum>  (1) 
230

>  <i_i_glide_rotatable_bonds>  (1) 
1

>  <i_lp_mmshare_version>  (1) 
72125

>  <i_m_source_file_index>  (1) 
49

>  <i_f3d_flags>  (1) 
0

>  <num_sample>  (1) 
100

>  <b_lp_Chiralities_Consistent>  (1) 
1

>  <r_epik_Charging_Adjusted_Penalty>  (1) 
0.00046806641816521339

>  <r_epik_Ionization_Penalty>  (1) 
0.00046806641816521339

>  <r_epik_Ionization_Penalty_Charging>  (1) 
0.00046806641816521339

>  <r_epik_Ionization_Penalty_Neutral>  (1) 
0

>  <r_epik_State_Penalty>  (1) 
-0

>  <r_glide_ring_energy>  (1) 
0

>  <r_i_docking_score>  (1) 
-5.0672170804614529

>  <r_i_glide_ecoul>  (1) 
0.2823476240920445

>  <r_i_glide_eff_state_penalty>  (1) 
-0

>  <r_i_glide_einternal>  (1) 
0.026692969342490436

>  <r_i_glide_emodel>  (1) 
-20.355602103193171

>  <r_i_glide_emodel_strain>  (1) 
0

>  <r_i_glide_energy>  (1) 
-15.035557711230833

>  <r_i_glide_erotb>  (1) 
0

>  <r_i_glide_esite>  (1) 
0

>  <r_i_glide_evdw>  (1) 
-15.317905335322878

>  <r_i_glide_gscore>  (1) 
-5.0672170804614529

>  <r_i_glide_gscore_strain>  (1) 
0

>  <r_i_glide_hbond>  (1) 
0

>  <r_i_glide_ligand_efficiency>  (1) 
-0.63340213505768161

>  <r_i_glide_ligand_efficiency_ln>  (1) 
-1.6454987087357682

>  <r_i_glide_ligand_efficiency_sa>  (1) 
-1.2668042701153635

>  <r_i_glide_lipo>  (1) 
-1.3643538309858736

>  <r_i_glide_metal>  (1) 
-0

>  <r_i_glide_rewards>  (1) 
-2.9793201263232421

>  <r_lp_Energy>  (1) 
4.7151909999999999

>  <r_lp_tautomer_probability>  (1) 
1

>  <s_epik_cmdline>  (1) 
J2VwaWtfcHl0aG9uJywgJy1waHQnLCAnMS4wJywgJy1waCcsICc3LjQnLCAnLXRuJywgJzgnLCAnLW1hJywgJzUwMCcsICctaW1hZScsICc8aW5maWxlLm1hZT4nLCAnLW9tYWUnLCAnPG91dGZpbGUubWFlPic=

>  <s_epik_input>  (1) 
W0NIMl0xW0NIXT1bQ0hdW0NIXT1DMUMoPU8pW09IXQ==

>  <s_glide_docking_method>  (1) 
confgen

>  <s_i_glide_gridfile>  (1) 
gpcr_5ht2c_6bqh_protein_autoprepared_prepared

>  <s_lp_Force_Field>  (1) 
S-OPLS

>  <s_lp_Variant>  (1) 
Pocket2Mol_48_num_sample_100-1

>  <s_m_source_file>  (1) 
generated__ligand_Pocket2Mol_2026-05-06_prepared.sdf

>  <GenAI_Model>  (1) 
Pocket2Mol

>  <Protein>  (1) 
GPCR_5HT2C

$$$$
Pocket2Mol_45_num_sample_100
     RDKit          3D

  0  0  0  0  0  0  0  0  0  0999 V3000
M  V30 BEGIN CTAB
M  V30 COUNTS 15 15 0 0 1
M  V30 BEGIN ATOM
M  V30 1 C 39.964953 28.594242 51.192670 0
M  V30 2 O 38.667024 28.157548 51.567102 0
M  V30 3 C 38.153770 28.421408 52.796939 0
M  V30 4 O 37.067457 28.020454 53.199424 0
M  V30 5 C 39.067019 29.290863 53.674777 0
M  V30 6 C 40.118382 30.095980 51.453503 0
M  V30 7 C 39.769030 30.436006 52.916299 0
M  V30 8 H 40.703512 28.029372 51.759965 0
M  V30 9 H 40.127828 28.371999 50.138215 0
M  V30 10 H 38.482785 29.701388 54.499002 0
M  V30 11 H 39.805599 28.635097 54.132476 0
M  V30 12 H 41.125380 30.428197 51.207211 0
M  V30 13 H 39.467209 30.644902 50.775390 0
M  V30 14 H 39.146062 31.330597 52.948101 0
M  V30 15 H 40.667459 30.707353 53.464770 0
M  V30 END ATOM
M  V30 BEGIN BOND
M  V30 1 1 2 1
M  V30 2 1 3 2
M  V30 3 2 4 3
M  V30 4 1 5 3
M  V30 5 1 6 1
M  V30 6 1 7 5
M  V30 7 1 7 6
M  V30 8 1 8 1
M  V30 9 1 9 1
M  V30 10 1 10 5
M  V30 11 1 11 5
M  V30 12 1 12 6
M  V30 13 1 13 6
M  V30 14 1 14 7
M  V30 15 1 15 7
M  V30 END BOND
M  V30 END CTAB
M  END
>  <i_epik_Tot_Q>  (1) 
0

>  <i_epik_Tot_abs_Q>  (1) 
0

>  <i_i_glide_confnum>  (1) 
3

>  <i_i_glide_lignum>  (1) 
48

>  <i_i_glide_posenum>  (1) 
339

>  <i_i_glide_rotatable_bonds>  (1) 
0

>  <i_lp_mmshare_version>  (1) 
72125

>  <i_m_source_file_index>  (1) 
46

>  <i_f3d_flags>  (1) 
0

>  <num_sample>  (1) 
100

>  <b_lp_Chiralities_Consistent>  (1) 
1

>  <r_epik_Charging_Adjusted_Penalty>  (1) 
0

>  <r_epik_Ionization_Penalty>  (1) 
4.2138389519661579e-10

>  <r_epik_Ionization_Penalty_Charging>  (1) 
0

>  <r_epik_Ionization_Penalty_Neutral>  (1) 
4.2138389519661579e-10

>  <r_epik_State_Penalty>  (1) 
-0

>  <r_glide_ring_energy>  (1) 
0.70452651660711352

>  <r_i_docking_score>  (1) 
-5.0624340069778677

>  <r_i_glide_ecoul>  (1) 
0.27380175631916703

>  <r_i_glide_eff_state_penalty>  (1) 
-0

>  <r_i_glide_einternal>  (1) 
0

>  <r_i_glide_emodel>  (1) 
-22.088787846929456

>  <r_i_glide_emodel_strain>  (1) 
0

>  <r_i_glide_energy>  (1) 
-16.40702824699369

>  <r_i_glide_erotb>  (1) 
0

>  <r_i_glide_esite>  (1) 
0

>  <r_i_glide_evdw>  (1) 
-16.680830003312856

>  <r_i_glide_gscore>  (1) 
-5.0624340069778677

>  <r_i_glide_gscore_strain>  (1) 
0

>  <r_i_glide_hbond>  (1) 
0

>  <r_i_glide_ligand_efficiency>  (1) 
-0.72320485813969537

>  <r_i_glide_ligand_efficiency_ln>  (1) 
-1.7184617828895004

>  <r_i_glide_ligand_efficiency_sa>  (1) 
-1.3834411246679055

>  <r_i_glide_lipo>  (1) 
-1.183762805511271

>  <r_i_glide_metal>  (1) 
-0

>  <r_i_glide_rewards>  (1) 
-3.0856999647488292

>  <r_lp_Energy>  (1) 
8.5246700000000004

>  <r_lp_tautomer_probability>  (1) 
1

>  <s_epik_Chemistry_Notes>  (1) 
This compound has an ester and may undergo hydrolysis at high or low pH.

>  <s_epik_cmdline>  (1) 
J2VwaWtfcHl0aG9uJywgJy1waHQnLCAnMS4wJywgJy1waCcsICc3LjQnLCAnLXRuJywgJzgnLCAnLW1hJywgJzUwMCcsICctaW1hZScsICc8aW5maWxlLm1hZT4nLCAnLW9tYWUnLCAnPG91dGZpbGUubWFlPic=

>  <s_epik_input>  (1) 
W0NIMl0xW0NIMl1bQ0gyXVtDSDJdT0MxPU8=

>  <s_glide_docking_method>  (1) 
confgen

>  <s_i_glide_gridfile>  (1) 
gpcr_5ht2c_6bqh_protein_autoprepared_prepared

>  <s_lp_Force_Field>  (1) 
S-OPLS

>  <s_lp_Variant>  (1) 
Pocket2Mol_45_num_sample_100-1

>  <s_m_source_file>  (1) 
generated__ligand_Pocket2Mol_2026-05-06_prepared.sdf

>  <GenAI_Model>  (1) 
Pocket2Mol

>  <Protein>  (1) 
GPCR_5HT2C

$$$$
Pocket2Mol_48_num_sample_100
     RDKit          3D

  0  0  0  0  0  0  0  0  0  0999 V3000
M  V30 BEGIN CTAB
M  V30 COUNTS 13 13 0 0 1
M  V30 BEGIN ATOM
M  V30 1 C 39.867402 29.007300 50.697083 0
M  V30 2 C 39.867404 29.808404 51.797922 0
M  V30 3 C 39.203058 27.898044 50.964995 0
M  V30 4 C 38.606675 27.790314 52.418351 0
M  V30 5 C 39.201484 29.213206 52.776084 0
M  V30 6 C 38.970941 29.771906 54.212888 0
M  V30 7 O 38.309144 29.041552 54.982831 0
M  V30 8 O 39.475579 30.890420 54.453270 0 CHG=-1
M  V30 9 H 40.336394 29.241868 49.753412 0
M  V30 10 H 40.341767 30.777573 51.865819 0
M  V30 11 H 39.060007 27.098991 50.253501 0
M  V30 12 H 37.516556 27.761484 52.434960 0
M  V30 13 H 39.049398 26.983676 53.001810 0
M  V30 END ATOM
M  V30 BEGIN BOND
M  V30 1 1 2 1
M  V30 2 2 3 1
M  V30 3 1 4 3
M  V30 4 2 5 2
M  V30 5 1 5 4
M  V30 6 1 6 5
M  V30 7 2 7 6
M  V30 8 1 8 6
M  V30 9 1 9 1
M  V30 10 1 10 2
M  V30 11 1 11 3
M  V30 12 1 12 4
M  V30 13 1 13 4
M  V30 END BOND
M  V30 END CTAB
M  END
>  <i_epik_Tot_Q>  (1) 
-1

>  <i_epik_Tot_abs_Q>  (1) 
1

>  <i_i_glide_confnum>  (1) 
1

>  <i_i_glide_lignum>  (1) 
51

>  <i_i_glide_posenum>  (1) 
277

>  <i_i_glide_rotatable_bonds>  (1) 
1

>  <i_lp_mmshare_version>  (1) 
72125

>  <i_m_source_file_index>  (1) 
49

>  <i_f3d_flags>  (1) 
0

>  <num_sample>  (1) 
100

>  <b_lp_Chiralities_Consistent>  (1) 
1

>  <r_epik_Charging_Adjusted_Penalty>  (1) 
0.00046806641816521339

>  <r_epik_Ionization_Penalty>  (1) 
0.00046806641816521339

>  <r_epik_Ionization_Penalty_Charging>  (1) 
0.00046806641816521339

>  <r_epik_Ionization_Penalty_Neutral>  (1) 
0

>  <r_epik_State_Penalty>  (1) 
-0

>  <r_glide_ring_energy>  (1) 
0

>  <r_i_docking_score>  (1) 
-5.0585462538910297

>  <r_i_glide_ecoul>  (1) 
0.1427215524263814

>  <r_i_glide_eff_state_penalty>  (1) 
-0

>  <r_i_glide_einternal>  (1) 
0.011259275071419106

>  <r_i_glide_emodel>  (1) 
-21.268711402445884

>  <r_i_glide_emodel_strain>  (1) 
0

>  <r_i_glide_energy>  (1) 
-15.950076456259731

>  <r_i_glide_erotb>  (1) 
0

>  <r_i_glide_esite>  (1) 
0

>  <r_i_glide_evdw>  (1) 
-16.092798008686113

>  <r_i_glide_gscore>  (1) 
-5.0585462538910297

>  <r_i_glide_gscore_strain>  (1) 
0

>  <r_i_glide_hbond>  (1) 
0

>  <r_i_glide_ligand_efficiency>  (1) 
-0.63231828173637872

>  <r_i_glide_ligand_efficiency_ln>  (1) 
-1.6426829947652106

>  <r_i_glide_ligand_efficiency_sa>  (1) 
-1.2646365634727577

>  <r_i_glide_lipo>  (1) 
-1.5525001517725345

>  <r_i_glide_metal>  (1) 
-0

>  <r_i_glide_rewards>  (1) 
-2.7228144345481478

>  <r_lp_Energy>  (1) 
4.7151909999999999

>  <r_lp_tautomer_probability>  (1) 
1

>  <s_epik_cmdline>  (1) 
J2VwaWtfcHl0aG9uJywgJy1waHQnLCAnMS4wJywgJy1waCcsICc3LjQnLCAnLXRuJywgJzgnLCAnLW1hJywgJzUwMCcsICctaW1hZScsICc8aW5maWxlLm1hZT4nLCAnLW9tYWUnLCAnPG91dGZpbGUubWFlPic=

>  <s_epik_input>  (1) 
W0NIMl0xW0NIXT1bQ0hdW0NIXT1DMUMoPU8pW09IXQ==

>  <s_glide_docking_method>  (1) 
confgen

>  <s_i_glide_gridfile>  (1) 
gpcr_5ht2c_6bqh_protein_autoprepared_prepared

>  <s_lp_Force_Field>  (1) 
S-OPLS

>  <s_lp_Variant>  (1) 
Pocket2Mol_48_num_sample_100-1

>  <s_m_source_file>  (1) 
generated__ligand_Pocket2Mol_2026-05-06_prepared.sdf

>  <GenAI_Model>  (1) 
Pocket2Mol

>  <Protein>  (1) 
GPCR_5HT2C

$$$$
Pocket2Mol_38_num_sample_100
     RDKit          3D

  0  0  0  0  0  0  0  0  0  0999 V3000
M  V30 BEGIN CTAB
M  V30 COUNTS 17 17 0 0 1
M  V30 BEGIN ATOM
M  V30 1 C 37.867404 27.854030 53.053081 0
M  V30 2 C 38.160381 28.746977 54.270251 0
M  V30 3 C 38.667272 30.129752 53.856603 0
M  V30 4 O 38.258247 31.150145 54.402752 0
M  V30 5 C 39.067638 27.775732 52.099800 0
M  V30 6 C 39.465784 29.176237 51.605643 0
M  V30 7 C 39.713501 30.189132 52.744102 0
M  V30 8 H 37.599751 26.851775 53.389799 0
M  V30 9 H 36.996734 28.235997 52.517877 0
M  V30 10 H 38.916467 28.281562 54.902923 0
M  V30 11 H 39.752045 31.201478 52.340244 0
M  V30 12 H 37.263163 28.862726 54.878076 0
M  V30 13 H 38.823776 27.138504 51.248153 0
M  V30 14 H 39.905885 27.301368 52.608845 0
M  V30 15 H 38.673851 29.556013 50.960236 0
M  V30 16 H 40.355394 29.105573 50.978969 0
M  V30 17 H 40.667403 30.021367 53.220518 0
M  V30 END ATOM
M  V30 BEGIN BOND
M  V30 1 1 2 1
M  V30 2 1 3 2
M  V30 3 2 4 3
M  V30 4 1 5 1
M  V30 5 1 6 5
M  V30 6 1 7 3
M  V30 7 1 7 6
M  V30 8 1 8 1
M  V30 9 1 9 1
M  V30 10 1 10 2
M  V30 11 1 11 7
M  V30 12 1 12 2
M  V30 13 1 13 5
M  V30 14 1 14 5
M  V30 15 1 15 6
M  V30 16 1 16 6
M  V30 17 1 17 7
M  V30 END BOND
M  V30 END CTAB
M  END
>  <i_epik_Tot_Q>  (1) 
0

>  <i_epik_Tot_abs_Q>  (1) 
0

>  <i_i_glide_confnum>  (1) 
2

>  <i_i_glide_lignum>  (1) 
41

>  <i_i_glide_posenum>  (1) 
374

>  <i_i_glide_rotatable_bonds>  (1) 
0

>  <i_lp_mmshare_version>  (1) 
72125

>  <i_m_source_file_index>  (1) 
39

>  <i_f3d_flags>  (1) 
0

>  <num_sample>  (1) 
100

>  <b_lp_Chiralities_Consistent>  (1) 
1

>  <r_epik_Charging_Adjusted_Penalty>  (1) 
0

>  <r_epik_Ionization_Penalty>  (1) 
3.7730911281982554e-13

>  <r_epik_Ionization_Penalty_Charging>  (1) 
0

>  <r_epik_Ionization_Penalty_Neutral>  (1) 
3.7730911281982554e-13

>  <r_epik_State_Penalty>  (1) 
-0

>  <r_glide_ring_energy>  (1) 
4.2281688740393558e-05

>  <r_i_docking_score>  (1) 
-5.0573806777055195

>  <r_i_glide_ecoul>  (1) 
0.55375432929956103

>  <r_i_glide_eff_state_penalty>  (1) 
-0

>  <r_i_glide_einternal>  (1) 
0

>  <r_i_glide_emodel>  (1) 
-20.96405816494881

>  <r_i_glide_emodel_strain>  (1) 
0

>  <r_i_glide_energy>  (1) 
-15.59841040078625

>  <r_i_glide_erotb>  (1) 
0

>  <r_i_glide_esite>  (1) 
0

>  <r_i_glide_evdw>  (1) 
-16.152164730085811

>  <r_i_glide_gscore>  (1) 
-5.0573806777055195

>  <r_i_glide_gscore_strain>  (1) 
0

>  <r_i_glide_hbond>  (1) 
0

>  <r_i_glide_ligand_efficiency>  (1) 
-0.72248295395793138

>  <r_i_glide_ligand_efficiency_ln>  (1) 
-1.7167464117421594

>  <r_i_glide_ligand_efficiency_sa>  (1) 
-1.3820601716476353

>  <r_i_glide_lipo>  (1) 
-1.5492771480513818

>  <r_i_glide_metal>  (1) 
-0

>  <r_i_glide_rewards>  (1) 
-2.7835584425447815

>  <r_lp_Energy>  (1) 
-0.38638499999999998

>  <r_lp_tautomer_probability>  (1) 
1

>  <s_epik_cmdline>  (1) 
J2VwaWtfcHl0aG9uJywgJy1waHQnLCAnMS4wJywgJy1waCcsICc3LjQnLCAnLXRuJywgJzgnLCAnLW1hJywgJzUwMCcsICctaW1hZScsICc8aW5maWxlLm1hZT4nLCAnLW9tYWUnLCAnPG91dGZpbGUubWFlPic=

>  <s_epik_input>  (1) 
W0NIMl0xW0NIMl1bQ0gyXVtDSDJdW0NIXT1DMVtPSF0=

>  <s_glide_docking_method>  (1) 
confgen

>  <s_i_glide_gridfile>  (1) 
gpcr_5ht2c_6bqh_protein_autoprepared_prepared

>  <s_lp_Force_Field>  (1) 
S-OPLS

>  <s_lp_Variant>  (1) 
Pocket2Mol_38_num_sample_100-1

>  <s_m_source_file>  (1) 
generated__ligand_Pocket2Mol_2026-05-06_prepared.sdf

>  <GenAI_Model>  (1) 
Pocket2Mol

>  <Protein>  (1) 
GPCR_5HT2C

$$$$
Pocket2Mol_20_num_sample_100
     RDKit          3D

  0  0  0  0  0  0  0  0  0  0999 V3000
M  V30 BEGIN CTAB
M  V30 COUNTS 10 10 0 0 1
M  V30 BEGIN ATOM
M  V30 1 C 40.267589 30.315086 51.079512 0
M  V30 2 C 39.867403 29.220887 50.253502 0
M  V30 3 C 39.867400 30.034370 52.357189 0
M  V30 4 C 39.234888 28.307486 51.053488 0
M  V30 5 N 39.237435 28.812149 52.329242 0
M  V30 6 O 38.693802 28.188261 53.416794 0 CHG=-1
M  V30 7 H 40.791196 31.208324 50.770920 0
M  V30 8 H 40.024267 29.117228 49.190997 0
M  V30 9 H 39.969079 30.587707 53.278861 0
M  V30 10 H 38.782388 27.351332 50.833926 0
M  V30 END ATOM
M  V30 BEGIN BOND
M  V30 1 1 2 1
M  V30 2 2 3 1
M  V30 3 2 4 2
M  V30 4 1 5 3
M  V30 5 1 5 4
M  V30 6 1 6 5
M  V30 7 1 7 1
M  V30 8 1 8 2
M  V30 9 1 9 3
M  V30 10 1 10 4
M  V30 END BOND
M  V30 END CTAB
M  END
>  <i_epik_Tot_Q>  (1) 
-1

>  <i_epik_Tot_abs_Q>  (1) 
1

>  <i_i_glide_confnum>  (1) 
1

>  <i_i_glide_lignum>  (1) 
23

>  <i_i_glide_posenum>  (1) 
243

>  <i_i_glide_rotatable_bonds>  (1) 
0

>  <i_lp_mmshare_version>  (1) 
72125

>  <i_m_source_file_index>  (1) 
21

>  <i_f3d_flags>  (1) 
0

>  <num_sample>  (1) 
100

>  <b_lp_Chiralities_Consistent>  (1) 
1

>  <r_epik_Charging_Adjusted_Penalty>  (1) 
0.038602441834166765

>  <r_epik_Ionization_Penalty>  (1) 
0.019301220976331968

>  <r_epik_Ionization_Penalty_Charging>  (1) 
0.019301220917083386

>  <r_epik_Ionization_Penalty_Neutral>  (1) 
5.9248581604286784e-11

>  <r_epik_State_Penalty>  (1) 
0.019301220917083379

>  <r_glide_ring_energy>  (1) 
0

>  <r_i_docking_score>  (1) 
-5.0459955811959958

>  <r_i_glide_ecoul>  (1) 
-0.42938608557199609

>  <r_i_glide_eff_state_penalty>  (1) 
0.019301220917083379

>  <r_i_glide_einternal>  (1) 
0

>  <r_i_glide_emodel>  (1) 
-18.603057633332234

>  <r_i_glide_emodel_strain>  (1) 
0

>  <r_i_glide_energy>  (1) 
-13.79038022821082

>  <r_i_glide_erotb>  (1) 
0

>  <r_i_glide_esite>  (1) 
0

>  <r_i_glide_evdw>  (1) 
-13.360994142638823

>  <r_i_glide_gscore>  (1) 
-5.0652968021130791

>  <r_i_glide_gscore_strain>  (1) 
0

>  <r_i_glide_hbond>  (1) 
0

>  <r_i_glide_ligand_efficiency>  (1) 
-0.84099926353266596

>  <r_i_glide_ligand_efficiency_ln>  (1) 
-1.8074607203145823

>  <r_i_glide_ligand_efficiency_sa>  (1) 
-1.528197080321871

>  <r_i_glide_lipo>  (1) 
-1.3200000000000001

>  <r_i_glide_metal>  (1) 
-0

>  <r_i_glide_rewards>  (1) 
-3.012839182145338

>  <r_lp_Energy>  (1) 
1.8910769999999999

>  <r_lp_tautomer_probability>  (1) 
1

>  <s_epik_cmdline>  (1) 
J2VwaWtfcHl0aG9uJywgJy1waHQnLCAnMS4wJywgJy1waCcsICc3LjQnLCAnLXRuJywgJzgnLCAnLW1hJywgJzUwMCcsICctaW1hZScsICc8aW5maWxlLm1hZT4nLCAnLW9tYWUnLCAnPG91dGZpbGUubWFlPic=

>  <s_epik_input>  (1) 
W2NIXTFbY0hdW2NIXVtjSF1uMVtPSF0=

>  <s_glide_docking_method>  (1) 
confgen

>  <s_i_glide_gridfile>  (1) 
gpcr_5ht2c_6bqh_protein_autoprepared_prepared

>  <s_lp_Force_Field>  (1) 
S-OPLS

>  <s_lp_Variant>  (1) 
Pocket2Mol_20_num_sample_100-1

>  <s_m_source_file>  (1) 
generated__ligand_Pocket2Mol_2026-05-06_prepared.sdf

>  <GenAI_Model>  (1) 
Pocket2Mol

>  <Protein>  (1) 
GPCR_5HT2C

$$$$
Pocket2Mol_53_num_sample_100
     RDKit          3D

  0  0  0  0  0  0  0  0  0  0999 V3000
M  V30 BEGIN CTAB
M  V30 COUNTS 16 16 0 0 1
M  V30 BEGIN ATOM
M  V30 1 C 37.582372 27.641855 53.993659 0
M  V30 2 C 38.471170 28.347441 52.989306 0
M  V30 3 C 38.715269 27.780921 51.728422 0
M  V30 4 C 39.540134 28.475584 50.831809 0
M  V30 5 C 40.088513 29.710396 51.230115 0
M  V30 6 C 39.066562 29.585680 53.302495 0
M  V30 7 N 40.899471 30.421412 50.354345 0
M  V30 8 N 39.867419 30.263945 52.445502 0
M  V30 9 H 37.205579 26.699255 53.592468 0
M  V30 10 H 38.135111 27.427977 54.908091 0
M  V30 11 H 36.728272 28.267484 54.251474 0
M  V30 12 H 38.276038 26.832420 51.451486 0
M  V30 13 H 39.747342 28.072352 49.853502 0
M  V30 14 H 38.896642 30.046541 54.265947 0
M  V30 15 H 41.069571 30.100025 49.414987 0
M  V30 16 H 41.259534 31.334501 50.597161 0
M  V30 END ATOM
M  V30 BEGIN BOND
M  V30 1 1 2 1
M  V30 2 1 3 2
M  V30 3 2 4 3
M  V30 4 1 5 4
M  V30 5 2 6 2
M  V30 6 1 7 5
M  V30 7 2 8 5
M  V30 8 1 8 6
M  V30 9 1 9 1
M  V30 10 1 10 1
M  V30 11 1 11 1
M  V30 12 1 12 3
M  V30 13 1 13 4
M  V30 14 1 14 6
M  V30 15 1 15 7
M  V30 16 1 16 7
M  V30 END BOND
M  V30 END CTAB
M  END
>  <i_epik_Tot_Q>  (1) 
0

>  <i_epik_Tot_abs_Q>  (1) 
0

>  <i_i_glide_confnum>  (1) 
1

>  <i_i_glide_lignum>  (1) 
56

>  <i_i_glide_posenum>  (1) 
240

>  <i_i_glide_rotatable_bonds>  (1) 
0

>  <i_lp_mmshare_version>  (1) 
72125

>  <i_m_source_file_index>  (1) 
54

>  <i_f3d_flags>  (1) 
0

>  <num_sample>  (1) 
100

>  <b_lp_Chiralities_Consistent>  (1) 
1

>  <r_epik_Charging_Adjusted_Penalty>  (1) 
0.35861937746939487

>  <r_epik_Ionization_Penalty>  (1) 
0.35867228033349524

>  <r_epik_Ionization_Penalty_Charging>  (1) 
0

>  <r_epik_Ionization_Penalty_Neutral>  (1) 
0.35867228033349524

>  <r_epik_State_Penalty>  (1) 
0.35861937746939487

>  <r_glide_ring_energy>  (1) 
0

>  <r_i_docking_score>  (1) 
-5.0452981403912336

>  <r_i_glide_ecoul>  (1) 
-0.60453729131109879

>  <r_i_glide_eff_state_penalty>  (1) 
0.35861937746939487

>  <r_i_glide_einternal>  (1) 
0

>  <r_i_glide_emodel>  (1) 
-27.064677638051833

>  <r_i_glide_emodel_strain>  (1) 
0

>  <r_i_glide_energy>  (1) 
-20.149326970406516

>  <r_i_glide_erotb>  (1) 
0

>  <r_i_glide_esite>  (1) 
0

>  <r_i_glide_evdw>  (1) 
-19.544789679095416

>  <r_i_glide_gscore>  (1) 
-5.4039175178606289

>  <r_i_glide_gscore_strain>  (1) 
0

>  <r_i_glide_hbond>  (1) 
0

>  <r_i_glide_ligand_efficiency>  (1) 
-0.6306622675489042

>  <r_i_glide_ligand_efficiency_ln>  (1) 
-1.6383808791638963

>  <r_i_glide_ligand_efficiency_sa>  (1) 
-1.2613245350978086

>  <r_i_glide_lipo>  (1) 
-1.8193307735425268

>  <r_i_glide_metal>  (1) 
-0

>  <r_i_glide_rewards>  (1) 
-2.5166666666666666

>  <r_lp_Energy>  (1) 
5.8194469999999994

>  <r_lp_tautomer_probability>  (1) 
0.99999977220005165

>  <s_epik_cmdline>  (1) 
J2VwaWtfcHl0aG9uJywgJy1waHQnLCAnMS4wJywgJy1waCcsICc3LjQnLCAnLXRuJywgJzgnLCAnLW1hJywgJzUwMCcsICctaW1hZScsICc8aW5maWxlLm1hZT4nLCAnLW9tYWUnLCAnPG91dGZpbGUubWFlPic=

>  <s_epik_input>  (1) 
W0NIM11jMVtjSF1bY0hdYyhbTkgyXSluW2NIXTE=

>  <s_glide_docking_method>  (1) 
confgen

>  <s_i_glide_gridfile>  (1) 
gpcr_5ht2c_6bqh_protein_autoprepared_prepared

>  <s_lp_Force_Field>  (1) 
S-OPLS

>  <s_lp_Variant>  (1) 
Pocket2Mol_53_num_sample_100-1

>  <s_m_source_file>  (1) 
generated__ligand_Pocket2Mol_2026-05-06_prepared.sdf

>  <GenAI_Model>  (1) 
Pocket2Mol

>  <Protein>  (1) 
GPCR_5HT2C

$$$$
Pocket2Mol_31_num_sample_100
     RDKit          3D

  0  0  0  0  0  0  0  0  0  0999 V3000
M  V30 BEGIN CTAB
M  V30 COUNTS 17 17 0 0 1
M  V30 BEGIN ATOM
M  V30 1 C 38.218111 28.340288 52.346225 0
M  V30 2 C 39.457742 29.216217 52.137454 0
M  V30 3 C 39.634461 30.421450 53.071395 0
M  V30 4 O 40.269219 28.970830 51.249402 0
M  V30 5 C 37.884871 28.113038 53.830537 0
M  V30 6 C 39.226282 30.130769 54.527125 0
M  V30 7 C 37.867405 29.424625 54.628583 0
M  V30 8 H 37.375163 28.821450 51.853479 0
M  V30 9 H 38.363925 27.382926 51.844682 0
M  V30 10 H 40.667404 30.748591 53.042101 0
M  V30 11 H 39.067408 31.262139 52.679959 0
M  V30 12 H 36.914937 27.621255 53.911351 0
M  V30 13 H 38.611744 27.426658 54.267075 0
M  V30 14 H 39.992005 29.518456 55.005158 0
M  V30 15 H 39.194925 31.065997 55.087262 0
M  V30 16 H 37.630382 29.223406 55.674040 0
M  V30 17 H 37.078640 30.079622 54.255352 0
M  V30 END ATOM
M  V30 BEGIN BOND
M  V30 1 1 2 1
M  V30 2 1 3 2
M  V30 3 2 4 2
M  V30 4 1 5 1
M  V30 5 1 6 3
M  V30 6 1 7 5
M  V30 7 1 7 6
M  V30 8 1 8 1
M  V30 9 1 9 1
M  V30 10 1 10 3
M  V30 11 1 11 3
M  V30 12 1 12 5
M  V30 13 1 13 5
M  V30 14 1 14 6
M  V30 15 1 15 6
M  V30 16 1 16 7
M  V30 17 1 17 7
M  V30 END BOND
M  V30 END CTAB
M  END
>  <i_epik_Tot_Q>  (1) 
0

>  <i_epik_Tot_abs_Q>  (1) 
0

>  <i_i_glide_confnum>  (1) 
2

>  <i_i_glide_lignum>  (1) 
34

>  <i_i_glide_posenum>  (1) 
181

>  <i_i_glide_rotatable_bonds>  (1) 
0

>  <i_lp_mmshare_version>  (1) 
72125

>  <i_m_source_file_index>  (1) 
32

>  <i_f3d_flags>  (1) 
0

>  <num_sample>  (1) 
100

>  <b_lp_Chiralities_Consistent>  (1) 
1

>  <r_epik_Charging_Adjusted_Penalty>  (1) 
0

>  <r_epik_Ionization_Penalty>  (1) 
3.7730911281982554e-13

>  <r_epik_Ionization_Penalty_Charging>  (1) 
0

>  <r_epik_Ionization_Penalty_Neutral>  (1) 
3.7730911281982554e-13

>  <r_epik_State_Penalty>  (1) 
-0

>  <r_glide_ring_energy>  (1) 
4.2281688740393558e-05

>  <r_i_docking_score>  (1) 
-5.0405827649941974

>  <r_i_glide_ecoul>  (1) 
0.20842381167376234

>  <r_i_glide_eff_state_penalty>  (1) 
-0

>  <r_i_glide_einternal>  (1) 
0

>  <r_i_glide_emodel>  (1) 
-21.293307549165547

>  <r_i_glide_emodel_strain>  (1) 
0

>  <r_i_glide_energy>  (1) 
-15.945498716500341

>  <r_i_glide_erotb>  (1) 
0

>  <r_i_glide_esite>  (1) 
0

>  <r_i_glide_evdw>  (1) 
-16.153922528174103

>  <r_i_glide_gscore>  (1) 
-5.0405827649941974

>  <r_i_glide_gscore_strain>  (1) 
0

>  <r_i_glide_hbond>  (1) 
0

>  <r_i_glide_ligand_efficiency>  (1) 
-0.72008325214202817

>  <r_i_glide_ligand_efficiency_ln>  (1) 
-1.7110442986900323

>  <r_i_glide_ligand_efficiency_sa>  (1) 
-1.3774697072146385

>  <r_i_glide_lipo>  (1) 
-1.3239495076896506

>  <r_i_glide_metal>  (1) 
-0

>  <r_i_glide_rewards>  (1) 
-2.9402007026469055

>  <r_lp_Energy>  (1) 
-0.38655299999999998

>  <r_lp_tautomer_probability>  (1) 
1

>  <s_epik_cmdline>  (1) 
J2VwaWtfcHl0aG9uJywgJy1waHQnLCAnMS4wJywgJy1waCcsICc3LjQnLCAnLXRuJywgJzgnLCAnLW1hJywgJzUwMCcsICctaW1hZScsICc8aW5maWxlLm1hZT4nLCAnLW9tYWUnLCAnPG91dGZpbGUubWFlPic=

>  <s_epik_input>  (1) 
Tz1DMVtDSDJdW0NIMl1bQ0gyXVtDSDJdW0NIMl0x

>  <s_glide_docking_method>  (1) 
confgen

>  <s_i_glide_gridfile>  (1) 
gpcr_5ht2c_6bqh_protein_autoprepared_prepared

>  <s_lp_Force_Field>  (1) 
S-OPLS

>  <s_lp_Variant>  (1) 
Pocket2Mol_31_num_sample_100-1

>  <s_m_source_file>  (1) 
generated__ligand_Pocket2Mol_2026-05-06_prepared.sdf

>  <GenAI_Model>  (1) 
Pocket2Mol

>  <Protein>  (1) 
GPCR_5HT2C

$$$$
Pocket2Mol_31_num_sample_100
     RDKit          3D

  0  0  0  0  0  0  0  0  0  0999 V3000
M  V30 BEGIN CTAB
M  V30 COUNTS 17 17 0 0 1
M  V30 BEGIN ATOM
M  V30 1 C 38.159766 28.742054 54.256145 0
M  V30 2 C 38.667341 30.128393 53.855966 0
M  V30 3 C 39.714474 30.197601 52.744861 0
M  V30 4 O 38.257858 31.144003 54.410397 0
M  V30 5 C 37.867507 27.860921 53.030622 0
M  V30 6 C 39.463578 29.198295 51.594951 0
M  V30 7 C 39.067400 27.792624 52.075522 0
M  V30 8 H 38.914996 28.270546 54.885019 0
M  V30 9 H 37.261690 28.852449 54.864250 0
M  V30 10 H 39.758051 31.214456 52.353043 0
M  V30 11 H 40.667999 30.017876 53.220743 0
M  V30 12 H 37.599934 26.855359 53.356774 0
M  V30 13 H 36.996736 28.248211 52.499088 0
M  V30 14 H 38.668404 29.584939 50.956342 0
M  V30 15 H 40.351765 29.135598 50.965491 0
M  V30 16 H 38.824293 27.163114 51.218066 0
M  V30 17 H 39.906773 27.314534 52.579675 0
M  V30 END ATOM
M  V30 BEGIN BOND
M  V30 1 1 2 1
M  V30 2 1 3 2
M  V30 3 2 4 2
M  V30 4 1 5 1
M  V30 5 1 6 3
M  V30 6 1 7 5
M  V30 7 1 7 6
M  V30 8 1 8 1
M  V30 9 1 9 1
M  V30 10 1 10 3
M  V30 11 1 11 3
M  V30 12 1 12 5
M  V30 13 1 13 5
M  V30 14 1 14 6
M  V30 15 1 15 6
M  V30 16 1 16 7
M  V30 17 1 17 7
M  V30 END BOND
M  V30 END CTAB
M  END
>  <i_epik_Tot_Q>  (1) 
0

>  <i_epik_Tot_abs_Q>  (1) 
0

>  <i_i_glide_confnum>  (1) 
2

>  <i_i_glide_lignum>  (1) 
34

>  <i_i_glide_posenum>  (1) 
371

>  <i_i_glide_rotatable_bonds>  (1) 
0

>  <i_lp_mmshare_version>  (1) 
72125

>  <i_m_source_file_index>  (1) 
32

>  <i_f3d_flags>  (1) 
0

>  <num_sample>  (1) 
100

>  <b_lp_Chiralities_Consistent>  (1) 
1

>  <r_epik_Charging_Adjusted_Penalty>  (1) 
0

>  <r_epik_Ionization_Penalty>  (1) 
3.7730911281982554e-13

>  <r_epik_Ionization_Penalty_Charging>  (1) 
0

>  <r_epik_Ionization_Penalty_Neutral>  (1) 
3.7730911281982554e-13

>  <r_epik_State_Penalty>  (1) 
-0

>  <r_glide_ring_energy>  (1) 
4.2281688740393558e-05

>  <r_i_docking_score>  (1) 
-5.0404655817998076

>  <r_i_glide_ecoul>  (1) 
0.55781099118418287

>  <r_i_glide_eff_state_penalty>  (1) 
-0

>  <r_i_glide_einternal>  (1) 
0

>  <r_i_glide_emodel>  (1) 
-20.908383248590596

>  <r_i_glide_emodel_strain>  (1) 
0

>  <r_i_glide_energy>  (1) 
-15.560698741494718

>  <r_i_glide_erotb>  (1) 
0

>  <r_i_glide_esite>  (1) 
0

>  <r_i_glide_evdw>  (1) 
-16.118509732678902

>  <r_i_glide_gscore>  (1) 
-5.0404655817998076

>  <r_i_glide_gscore_strain>  (1) 
0

>  <r_i_glide_hbond>  (1) 
0

>  <r_i_glide_ligand_efficiency>  (1) 
-0.72006651168568681

>  <r_i_glide_ligand_efficiency_ln>  (1) 
-1.7110045204250952

>  <r_i_glide_ligand_efficiency_sa>  (1) 
-1.3774376838736893

>  <r_i_glide_lipo>  (1) 
-1.5513023738866634

>  <r_i_glide_metal>  (1) 
-0

>  <r_i_glide_rewards>  (1) 
-2.7669093699568261

>  <r_lp_Energy>  (1) 
-0.38655299999999998

>  <r_lp_tautomer_probability>  (1) 
1

>  <s_epik_cmdline>  (1) 
J2VwaWtfcHl0aG9uJywgJy1waHQnLCAnMS4wJywgJy1waCcsICc3LjQnLCAnLXRuJywgJzgnLCAnLW1hJywgJzUwMCcsICctaW1hZScsICc8aW5maWxlLm1hZT4nLCAnLW9tYWUnLCAnPG91dGZpbGUubWFlPic=

>  <s_epik_input>  (1) 
Tz1DMVtDSDJdW0NIMl1bQ0gyXVtDSDJdW0NIMl0x

>  <s_glide_docking_method>  (1) 
confgen

>  <s_i_glide_gridfile>  (1) 
gpcr_5ht2c_6bqh_protein_autoprepared_prepared

>  <s_lp_Force_Field>  (1) 
S-OPLS

>  <s_lp_Variant>  (1) 
Pocket2Mol_31_num_sample_100-1

>  <s_m_source_file>  (1) 
generated__ligand_Pocket2Mol_2026-05-06_prepared.sdf

>  <GenAI_Model>  (1) 
Pocket2Mol

>  <Protein>  (1) 
GPCR_5HT2C

$$$$
Pocket2Mol_20_num_sample_100
     RDKit          3D

  0  0  0  0  0  0  0  0  0  0999 V3000
M  V30 BEGIN CTAB
M  V30 COUNTS 10 10 0 0 1
M  V30 BEGIN ATOM
M  V30 1 C 39.067424 29.059890 53.113092 0
M  V30 2 C 38.649290 27.874517 52.431811 0
M  V30 3 C 39.730471 29.843428 52.207159 0
M  V30 4 C 39.066848 27.976508 51.132818 0
M  V30 5 N 39.717282 29.178257 51.006131 0
M  V30 6 O 40.267409 29.646019 49.851872 0 CHG=-1
M  V30 7 H 38.901647 29.309099 54.150394 0
M  V30 8 H 38.101149 27.041956 52.847240 0
M  V30 9 H 40.202164 30.810372 52.302046 0
M  V30 10 H 38.957879 27.311931 50.288632 0
M  V30 END ATOM
M  V30 BEGIN BOND
M  V30 1 1 2 1
M  V30 2 2 3 1
M  V30 3 2 4 2
M  V30 4 1 5 3
M  V30 5 1 5 4
M  V30 6 1 6 5
M  V30 7 1 7 1
M  V30 8 1 8 2
M  V30 9 1 9 3
M  V30 10 1 10 4
M  V30 END BOND
M  V30 END CTAB
M  END
>  <i_epik_Tot_Q>  (1) 
-1

>  <i_epik_Tot_abs_Q>  (1) 
1

>  <i_i_glide_confnum>  (1) 
1

>  <i_i_glide_lignum>  (1) 
23

>  <i_i_glide_posenum>  (1) 
212

>  <i_i_glide_rotatable_bonds>  (1) 
0

>  <i_lp_mmshare_version>  (1) 
72125

>  <i_m_source_file_index>  (1) 
21

>  <i_f3d_flags>  (1) 
0

>  <num_sample>  (1) 
100

>  <b_lp_Chiralities_Consistent>  (1) 
1

>  <r_epik_Charging_Adjusted_Penalty>  (1) 
0.038602441834166765

>  <r_epik_Ionization_Penalty>  (1) 
0.019301220976331968

>  <r_epik_Ionization_Penalty_Charging>  (1) 
0.019301220917083386

>  <r_epik_Ionization_Penalty_Neutral>  (1) 
5.9248581604286784e-11

>  <r_epik_State_Penalty>  (1) 
0.019301220917083379

>  <r_glide_ring_energy>  (1) 
0

>  <r_i_docking_score>  (1) 
-5.0391082309265007

>  <r_i_glide_ecoul>  (1) 
-0.095572427350327893

>  <r_i_glide_eff_state_penalty>  (1) 
0.019301220917083379

>  <r_i_glide_einternal>  (1) 
0

>  <r_i_glide_emodel>  (1) 
-18.104695949815252

>  <r_i_glide_emodel_strain>  (1) 
0

>  <r_i_glide_energy>  (1) 
-13.298562405067296

>  <r_i_glide_erotb>  (1) 
0

>  <r_i_glide_esite>  (1) 
0

>  <r_i_glide_evdw>  (1) 
-13.202989977716967

>  <r_i_glide_gscore>  (1) 
-5.058409451843584

>  <r_i_glide_gscore_strain>  (1) 
0

>  <r_i_glide_hbond>  (1) 
0

>  <r_i_glide_ligand_efficiency>  (1) 
-0.83985137182108349

>  <r_i_glide_ligand_efficiency_ln>  (1) 
-1.8049936917809959

>  <r_i_glide_ligand_efficiency_sa>  (1) 
-1.5261112226544131

>  <r_i_glide_lipo>  (1) 
-1.2516816099827035

>  <r_i_glide_metal>  (1) 
-0

>  <r_i_glide_rewards>  (1) 
-3.1322424788724823

>  <r_lp_Energy>  (1) 
1.8910769999999999

>  <r_lp_tautomer_probability>  (1) 
1

>  <s_epik_cmdline>  (1) 
J2VwaWtfcHl0aG9uJywgJy1waHQnLCAnMS4wJywgJy1waCcsICc3LjQnLCAnLXRuJywgJzgnLCAnLW1hJywgJzUwMCcsICctaW1hZScsICc8aW5maWxlLm1hZT4nLCAnLW9tYWUnLCAnPG91dGZpbGUubWFlPic=

>  <s_epik_input>  (1) 
W2NIXTFbY0hdW2NIXVtjSF1uMVtPSF0=

>  <s_glide_docking_method>  (1) 
confgen

>  <s_i_glide_gridfile>  (1) 
gpcr_5ht2c_6bqh_protein_autoprepared_prepared

>  <s_lp_Force_Field>  (1) 
S-OPLS

>  <s_lp_Variant>  (1) 
Pocket2Mol_20_num_sample_100-1

>  <s_m_source_file>  (1) 
generated__ligand_Pocket2Mol_2026-05-06_prepared.sdf

>  <GenAI_Model>  (1) 
Pocket2Mol

>  <Protein>  (1) 
GPCR_5HT2C

$$$$
Pocket2Mol_43_num_sample_100
     RDKit          3D

  0  0  0  0  0  0  0  0  0  0999 V3000
M  V30 BEGIN CTAB
M  V30 COUNTS 15 15 0 0 1
M  V30 BEGIN ATOM
M  V30 1 C 39.828592 30.384351 52.847356 0
M  V30 2 O 38.603810 30.007963 53.453502 0
M  V30 3 C 38.530597 28.640925 53.824987 0
M  V30 4 C 39.952501 29.813365 51.427132 0
M  V30 5 O 40.231197 28.421434 51.421154 0
M  V30 6 C 38.321625 27.697155 52.653509 0
M  V30 7 C 39.131480 27.621443 51.580914 0
M  V30 8 H 39.831378 31.472339 52.785686 0
M  V30 9 H 40.667403 30.110709 53.481891 0
M  V30 10 H 37.672971 28.531992 54.489319 0
M  V30 11 H 39.406371 28.337779 54.400693 0
M  V30 12 H 39.067412 30.030378 50.827405 0
M  V30 13 H 40.786050 30.304684 50.924396 0
M  V30 14 H 37.467402 27.039166 52.715800 0
M  V30 15 H 38.990278 26.942597 50.751448 0
M  V30 END ATOM
M  V30 BEGIN BOND
M  V30 1 1 2 1
M  V30 2 1 3 2
M  V30 3 1 4 1
M  V30 4 1 5 4
M  V30 5 1 6 3
M  V30 6 1 7 5
M  V30 7 2 7 6
M  V30 8 1 8 1
M  V30 9 1 9 1
M  V30 10 1 10 3
M  V30 11 1 11 3
M  V30 12 1 12 4
M  V30 13 1 13 4
M  V30 14 1 14 6
M  V30 15 1 15 7
M  V30 END BOND
M  V30 END CTAB
M  END
>  <i_epik_Tot_Q>  (1) 
0

>  <i_epik_Tot_abs_Q>  (1) 
0

>  <i_i_glide_confnum>  (1) 
2

>  <i_i_glide_lignum>  (1) 
46

>  <i_i_glide_posenum>  (1) 
98

>  <i_i_glide_rotatable_bonds>  (1) 
0

>  <i_lp_mmshare_version>  (1) 
72125

>  <i_m_source_file_index>  (1) 
44

>  <i_f3d_flags>  (1) 
0

>  <num_sample>  (1) 
100

>  <b_lp_Chiralities_Consistent>  (1) 
1

>  <r_epik_Charging_Adjusted_Penalty>  (1) 
0

>  <r_epik_Ionization_Penalty>  (1) 
5.6701613537443791e-14

>  <r_epik_Ionization_Penalty_Charging>  (1) 
0

>  <r_epik_Ionization_Penalty_Neutral>  (1) 
5.6701613537443791e-14

>  <r_epik_State_Penalty>  (1) 
-0

>  <r_glide_ring_energy>  (1) 
0.00079047383587571227

>  <r_i_docking_score>  (1) 
-5.0380726919804353

>  <r_i_glide_ecoul>  (1) 
-1.1576239024545929

>  <r_i_glide_eff_state_penalty>  (1) 
-0

>  <r_i_glide_einternal>  (1) 
0

>  <r_i_glide_emodel>  (1) 
-22.099041855603435

>  <r_i_glide_emodel_strain>  (1) 
0

>  <r_i_glide_energy>  (1) 
-16.717273129720908

>  <r_i_glide_erotb>  (1) 
0

>  <r_i_glide_esite>  (1) 
0

>  <r_i_glide_evdw>  (1) 
-15.559649227266314

>  <r_i_glide_gscore>  (1) 
-5.0380726919804353

>  <r_i_glide_gscore_strain>  (1) 
0

>  <r_i_glide_hbond>  (1) 
0

>  <r_i_glide_ligand_efficiency>  (1) 
-0.71972467028291931

>  <r_i_glide_ligand_efficiency_ln>  (1) 
-1.7101922452034157

>  <r_i_glide_ligand_efficiency_sa>  (1) 
-1.3767837647947727

>  <r_i_glide_lipo>  (1) 
-1.5993009199058408

>  <r_i_glide_metal>  (1) 
-0

>  <r_i_glide_rewards>  (1) 
-2.4871457253430895

>  <r_lp_Energy>  (1) 
7.3473649999999999

>  <r_lp_tautomer_probability>  (1) 
1

>  <s_epik_cmdline>  (1) 
J2VwaWtfcHl0aG9uJywgJy1waHQnLCAnMS4wJywgJy1waCcsICc3LjQnLCAnLXRuJywgJzgnLCAnLW1hJywgJzUwMCcsICctaW1hZScsICc8aW5maWxlLm1hZT4nLCAnLW9tYWUnLCAnPG91dGZpbGUubWFlPic=

>  <s_epik_input>  (1) 
W0NIMl0xT1tDSDJdW0NIXT1bQ0hdT1tDSDJdMQ==

>  <s_glide_docking_method>  (1) 
confgen

>  <s_i_glide_gridfile>  (1) 
gpcr_5ht2c_6bqh_protein_autoprepared_prepared

>  <s_lp_Force_Field>  (1) 
S-OPLS

>  <s_lp_Variant>  (1) 
Pocket2Mol_43_num_sample_100-1

>  <s_m_source_file>  (1) 
generated__ligand_Pocket2Mol_2026-05-06_prepared.sdf

>  <GenAI_Model>  (1) 
Pocket2Mol

>  <Protein>  (1) 
GPCR_5HT2C

$$$$
Pocket2Mol_21_num_sample_100
     RDKit          3D

  0  0  0  0  0  0  0  0  0  0999 V3000
M  V30 BEGIN CTAB
M  V30 COUNTS 13 13 0 0 1
M  V30 BEGIN ATOM
M  V30 1 C 39.067403 28.002574 51.365939 0
M  V30 2 C 39.867395 28.928107 50.640990 0
M  V30 3 C 38.833576 28.536754 52.601205 0
M  V30 4 C 40.100549 30.000579 51.453504 0
M  V30 5 N 39.467405 29.766588 52.661467 0
M  V30 6 C 39.467404 30.662810 53.799143 0
M  V30 7 H 38.700158 27.047172 51.019035 0
M  V30 8 H 40.232193 28.821427 49.630323 0
M  V30 9 H 38.275114 28.159185 53.445515 0
M  V30 10 H 40.657251 30.912512 51.287690 0
M  V30 11 H 38.878775 30.242841 54.615384 0
M  V30 12 H 40.490130 30.821380 54.142621 0
M  V30 13 H 39.036227 31.621431 53.509574 0
M  V30 END ATOM
M  V30 BEGIN BOND
M  V30 1 1 2 1
M  V30 2 2 3 1
M  V30 3 2 4 2
M  V30 4 1 5 3
M  V30 5 1 5 4
M  V30 6 1 6 5
M  V30 7 1 7 1
M  V30 8 1 8 2
M  V30 9 1 9 3
M  V30 10 1 10 4
M  V30 11 1 11 6
M  V30 12 1 12 6
M  V30 13 1 13 6
M  V30 END BOND
M  V30 END CTAB
M  END
>  <i_epik_Tot_Q>  (1) 
0

>  <i_epik_Tot_abs_Q>  (1) 
0

>  <i_i_glide_confnum>  (1) 
1

>  <i_i_glide_lignum>  (1) 
24

>  <i_i_glide_posenum>  (1) 
378

>  <i_i_glide_rotatable_bonds>  (1) 
0

>  <i_lp_mmshare_version>  (1) 
72125

>  <i_m_source_file_index>  (1) 
22

>  <i_f3d_flags>  (1) 
0

>  <num_sample>  (1) 
100

>  <b_lp_Chiralities_Consistent>  (1) 
1

>  <r_epik_Charging_Adjusted_Penalty>  (1) 
0

>  <r_epik_Ionization_Penalty>  (1) 
5.9248581604286784e-11

>  <r_epik_Ionization_Penalty_Charging>  (1) 
0

>  <r_epik_Ionization_Penalty_Neutral>  (1) 
5.9248581604286784e-11

>  <r_epik_State_Penalty>  (1) 
-0

>  <r_glide_ring_energy>  (1) 
0

>  <r_i_docking_score>  (1) 
-5.037508426582372

>  <r_i_glide_ecoul>  (1) 
-0.72779969126669164

>  <r_i_glide_eff_state_penalty>  (1) 
-0

>  <r_i_glide_einternal>  (1) 
0

>  <r_i_glide_emodel>  (1) 
-21.210884060084929

>  <r_i_glide_emodel_strain>  (1) 
0

>  <r_i_glide_energy>  (1) 
-16.061090088233364

>  <r_i_glide_erotb>  (1) 
0

>  <r_i_glide_esite>  (1) 
0

>  <r_i_glide_evdw>  (1) 
-15.333290396966671

>  <r_i_glide_gscore>  (1) 
-5.037508426582372

>  <r_i_glide_gscore_strain>  (1) 
0

>  <r_i_glide_hbond>  (1) 
0

>  <r_i_glide_ligand_efficiency>  (1) 
-0.83958473776372866

>  <r_i_glide_ligand_efficiency_ln>  (1) 
-1.8044206465878974

>  <r_i_glide_ligand_efficiency_sa>  (1) 
-1.5256267164180433

>  <r_i_glide_lipo>  (1) 
-1.6161585222634136

>  <r_i_glide_metal>  (1) 
-0

>  <r_i_glide_rewards>  (1) 
-2.5455154307806205

>  <r_lp_Energy>  (1) 
0.62146699999999999

>  <r_lp_tautomer_probability>  (1) 
1

>  <s_epik_cmdline>  (1) 
J2VwaWtfcHl0aG9uJywgJy1waHQnLCAnMS4wJywgJy1waCcsICc3LjQnLCAnLXRuJywgJzgnLCAnLW1hJywgJzUwMCcsICctaW1hZScsICc8aW5maWxlLm1hZT4nLCAnLW9tYWUnLCAnPG91dGZpbGUubWFlPic=

>  <s_epik_input>  (1) 
W2NIXTFbY0hdW2NIXVtjSF1uMVtDSDNd

>  <s_glide_docking_method>  (1) 
confgen

>  <s_i_glide_gridfile>  (1) 
gpcr_5ht2c_6bqh_protein_autoprepared_prepared

>  <s_lp_Force_Field>  (1) 
S-OPLS

>  <s_lp_Variant>  (1) 
Pocket2Mol_21_num_sample_100-1

>  <s_m_source_file>  (1) 
generated__ligand_Pocket2Mol_2026-05-06_prepared.sdf

>  <GenAI_Model>  (1) 
Pocket2Mol

>  <Protein>  (1) 
GPCR_5HT2C

$$$$
Pocket2Mol_37_num_sample_100
     RDKit          3D

  0  0  0  0  0  0  0  0  0  0999 V3000
M  V30 BEGIN CTAB
M  V30 COUNTS 11 11 0 0 1
M  V30 BEGIN ATOM
M  V30 1 C 39.213266 28.211784 51.053500 0
M  V30 2 O 38.795468 28.222038 52.364304 0
M  V30 3 C 39.067395 29.277357 53.257126 0
M  V30 4 O 38.688276 29.281045 54.425340 0
M  V30 5 C 39.867402 30.395963 52.641516 0
M  V30 6 C 39.915579 29.216525 50.541488 0
M  V30 7 C 40.252800 30.333533 51.354436 0
M  V30 8 H 38.908257 27.323132 50.520103 0
M  V30 9 H 40.122906 31.244894 53.257078 0
M  V30 10 H 40.229806 29.185070 49.508377 0
M  V30 11 H 40.825660 31.146279 50.930723 0
M  V30 END ATOM
M  V30 BEGIN BOND
M  V30 1 1 2 1
M  V30 2 1 3 2
M  V30 3 2 4 3
M  V30 4 1 5 3
M  V30 5 2 6 1
M  V30 6 2 7 5
M  V30 7 1 7 6
M  V30 8 1 8 1
M  V30 9 1 9 5
M  V30 10 1 10 6
M  V30 11 1 11 7
M  V30 END BOND
M  V30 END CTAB
M  END
>  <i_epik_Tot_Q>  (1) 
0

>  <i_epik_Tot_abs_Q>  (1) 
0

>  <i_i_glide_confnum>  (1) 
1

>  <i_i_glide_lignum>  (1) 
40

>  <i_i_glide_posenum>  (1) 
245

>  <i_i_glide_rotatable_bonds>  (1) 
0

>  <i_lp_mmshare_version>  (1) 
72125

>  <i_m_source_file_index>  (1) 
38

>  <i_f3d_flags>  (1) 
0

>  <num_sample>  (1) 
100

>  <b_lp_Chiralities_Consistent>  (1) 
1

>  <r_epik_Charging_Adjusted_Penalty>  (1) 
0

>  <r_epik_Ionization_Penalty>  (1) 
2.4984917370333966e-09

>  <r_epik_Ionization_Penalty_Charging>  (1) 
0

>  <r_epik_Ionization_Penalty_Neutral>  (1) 
2.4984917370333966e-09

>  <r_epik_State_Penalty>  (1) 
-0

>  <r_glide_ring_energy>  (1) 
0

>  <r_i_docking_score>  (1) 
-5.0343171569905572

>  <r_i_glide_ecoul>  (1) 
-0.43165119152138298

>  <r_i_glide_eff_state_penalty>  (1) 
-0

>  <r_i_glide_einternal>  (1) 
0

>  <r_i_glide_emodel>  (1) 
-21.979902054242178

>  <r_i_glide_emodel_strain>  (1) 
0

>  <r_i_glide_energy>  (1) 
-16.548707029346978

>  <r_i_glide_erotb>  (1) 
0

>  <r_i_glide_esite>  (1) 
0

>  <r_i_glide_evdw>  (1) 
-16.117055837825596

>  <r_i_glide_gscore>  (1) 
-5.0343171569905572

>  <r_i_glide_gscore_strain>  (1) 
0

>  <r_i_glide_hbond>  (1) 
0

>  <r_i_glide_ligand_efficiency>  (1) 
-0.71918816528436535

>  <r_i_glide_ligand_efficiency_ln>  (1) 
-1.7089174150830597

>  <r_i_glide_ligand_efficiency_sa>  (1) 
-1.3757574676533255

>  <r_i_glide_lipo>  (1) 
-1.5450158905685982

>  <r_i_glide_metal>  (1) 
-0

>  <r_i_glide_rewards>  (1) 
-2.6187007958024711

>  <r_lp_Energy>  (1) 
11.255118999999999

>  <r_lp_tautomer_probability>  (1) 
1

>  <s_epik_cmdline>  (1) 
J2VwaWtfcHl0aG9uJywgJy1waHQnLCAnMS4wJywgJy1waCcsICc3LjQnLCAnLXRuJywgJzgnLCAnLW1hJywgJzUwMCcsICctaW1hZScsICc8aW5maWxlLm1hZT4nLCAnLW9tYWUnLCAnPG91dGZpbGUubWFlPic=

>  <s_epik_input>  (1) 
W2NIXTFbY0hdW2NIXVtjSF1vYzE9Tw==

>  <s_glide_docking_method>  (1) 
confgen

>  <s_i_glide_gridfile>  (1) 
gpcr_5ht2c_6bqh_protein_autoprepared_prepared

>  <s_lp_Force_Field>  (1) 
S-OPLS

>  <s_lp_Variant>  (1) 
Pocket2Mol_37_num_sample_100-1

>  <s_m_source_file>  (1) 
generated__ligand_Pocket2Mol_2026-05-06_prepared.sdf

>  <GenAI_Model>  (1) 
Pocket2Mol

>  <Protein>  (1) 
GPCR_5HT2C

$$$$
Pocket2Mol_40_num_sample_100
     RDKit          3D

  0  0  0  0  0  0  0  0  0  0999 V3000
M  V30 BEGIN CTAB
M  V30 COUNTS 12 12 0 0 1
M  V30 BEGIN ATOM
M  V30 1 C 39.840293 28.858583 50.653501 0
M  V30 2 C 40.076640 29.911079 51.547522 0
M  V30 3 C 39.467402 29.621433 52.628420 0
M  V30 4 C 39.405235 30.431730 53.908757 0
M  V30 5 N 39.101614 27.885147 51.102673 0
M  V30 6 C 38.810127 28.350412 52.445955 0
M  V30 7 O 38.124201 27.769440 53.285447 0
M  V30 8 H 40.272346 28.908055 49.651383 0
M  V30 9 H 40.673348 30.777618 51.301466 0
M  V30 10 H 38.803620 29.938878 54.673294 0
M  V30 11 H 40.408428 30.580113 54.309016 0
M  V30 12 H 38.967789 31.411486 53.713476 0
M  V30 END ATOM
M  V30 BEGIN BOND
M  V30 1 1 2 1
M  V30 2 2 3 2
M  V30 3 1 4 3
M  V30 4 2 5 1
M  V30 5 1 6 3
M  V30 6 1 6 5
M  V30 7 2 7 6
M  V30 8 1 8 1
M  V30 9 1 9 2
M  V30 10 1 10 4
M  V30 11 1 11 4
M  V30 12 1 12 4
M  V30 END BOND
M  V30 END CTAB
M  END
>  <i_epik_Tot_Q>  (1) 
0

>  <i_epik_Tot_abs_Q>  (1) 
0

>  <i_i_glide_confnum>  (1) 
1

>  <i_i_glide_lignum>  (1) 
43

>  <i_i_glide_posenum>  (1) 
309

>  <i_i_glide_rotatable_bonds>  (1) 
0

>  <i_lp_mmshare_version>  (1) 
72125

>  <i_m_source_file_index>  (1) 
41

>  <i_f3d_flags>  (1) 
0

>  <num_sample>  (1) 
100

>  <b_lp_Chiralities_Consistent>  (1) 
1

>  <r_epik_Charging_Adjusted_Penalty>  (1) 
0

>  <r_epik_Ionization_Penalty>  (1) 
0

>  <r_epik_Ionization_Penalty_Charging>  (1) 
0

>  <r_epik_Ionization_Penalty_Neutral>  (1) 
0

>  <r_epik_State_Penalty>  (1) 
-0

>  <r_glide_ring_energy>  (1) 
0

>  <r_i_docking_score>  (1) 
-5.0268212921788997

>  <r_i_glide_ecoul>  (1) 
0.27526633040386211

>  <r_i_glide_eff_state_penalty>  (1) 
-0

>  <r_i_glide_einternal>  (1) 
0

>  <r_i_glide_emodel>  (1) 
-23.722468575051078

>  <r_i_glide_emodel_strain>  (1) 
0.94552691518027387

>  <r_i_glide_energy>  (1) 
-18.780444004654946

>  <r_i_glide_erotb>  (1) 
0

>  <r_i_glide_esite>  (1) 
0

>  <r_i_glide_evdw>  (1) 
-19.055710335058809

>  <r_i_glide_gscore>  (1) 
-5.0268212921788997

>  <r_i_glide_gscore_strain>  (1) 
0

>  <r_i_glide_hbond>  (1) 
0

>  <r_i_glide_ligand_efficiency>  (1) 
-0.71811732745412848

>  <r_i_glide_ligand_efficiency_ln>  (1) 
-1.706372916292402

>  <r_i_glide_ligand_efficiency_sa>  (1) 
-1.3737090285761733

>  <r_i_glide_lipo>  (1) 
-0.82609182819955418

>  <r_i_glide_metal>  (1) 
-0

>  <r_i_glide_rewards>  (1) 
-3.2892338967869845

>  <r_lp_Energy>  (1) 
0.58044799999999996

>  <r_lp_tautomer_probability>  (1) 
1

>  <s_epik_Chemistry_Notes>  (1) 
This compound has an imine and may undergo hydrolysis.

>  <s_epik_cmdline>  (1) 
J2VwaWtfcHl0aG9uJywgJy1waHQnLCAnMS4wJywgJy1waCcsICc3LjQnLCAnLXRuJywgJzgnLCAnLW1hJywgJzUwMCcsICctaW1hZScsICc8aW5maWxlLm1hZT4nLCAnLW9tYWUnLCAnPG91dGZpbGUubWFlPic=

>  <s_epik_input>  (1) 
Tz1DMU49W0NIXVtDSF09QzFbQ0gzXQ==

>  <s_glide_docking_method>  (1) 
confgen

>  <s_i_glide_gridfile>  (1) 
gpcr_5ht2c_6bqh_protein_autoprepared_prepared

>  <s_lp_Force_Field>  (1) 
S-OPLS

>  <s_lp_Variant>  (1) 
Pocket2Mol_40_num_sample_100-1

>  <s_m_source_file>  (1) 
generated__ligand_Pocket2Mol_2026-05-06_prepared.sdf

>  <GenAI_Model>  (1) 
Pocket2Mol

>  <Protein>  (1) 
GPCR_5HT2C

$$$$
Pocket2Mol_53_num_sample_100
     RDKit          3D

  0  0  0  0  0  0  0  0  0  0999 V3000
M  V30 BEGIN CTAB
M  V30 COUNTS 17 17 0 0 1
M  V30 BEGIN ATOM
M  V30 1 C 37.789686 27.742429 54.147921 0
M  V30 2 C 38.579594 28.523407 53.117565 0
M  V30 3 C 38.731176 28.025505 51.805370 0
M  V30 4 C 39.467326 28.777927 50.863671 0
M  V30 5 C 40.030146 30.006941 51.255738 0
M  V30 6 C 39.170792 29.758759 53.453755 0
M  V30 7 N 40.751655 30.798685 50.368328 0
M  V30 8 N 39.867415 30.445585 52.522122 0 CHG=1
M  V30 9 H 37.788263 28.250419 55.113255 0
M  V30 10 H 36.755500 27.625307 53.821799 0
M  V30 11 H 38.217462 26.748939 54.286497 0
M  V30 12 H 38.285204 27.084389 51.522656 0
M  V30 13 H 39.586695 28.421350 49.853503 0
M  V30 14 H 39.105681 30.216768 54.431489 0
M  V30 15 H 40.882628 30.526168 49.406469 0
M  V30 16 H 41.133022 31.693980 50.644630 0
M  V30 17 H 40.282441 31.340714 52.787215 0
M  V30 END ATOM
M  V30 BEGIN BOND
M  V30 1 1 2 1
M  V30 2 1 3 2
M  V30 3 2 4 3
M  V30 4 1 5 4
M  V30 5 2 6 2
M  V30 6 1 7 5
M  V30 7 2 8 5
M  V30 8 1 8 6
M  V30 9 1 9 1
M  V30 10 1 10 1
M  V30 11 1 11 1
M  V30 12 1 12 3
M  V30 13 1 13 4
M  V30 14 1 14 6
M  V30 15 1 15 7
M  V30 16 1 16 7
M  V30 17 1 17 8
M  V30 END BOND
M  V30 END CTAB
M  END
>  <i_epik_Tot_Q>  (1) 
1

>  <i_epik_Tot_abs_Q>  (1) 
1

>  <i_i_glide_confnum>  (1) 
1

>  <i_i_glide_lignum>  (1) 
57

>  <i_i_glide_posenum>  (1) 
101

>  <i_i_glide_rotatable_bonds>  (1) 
0

>  <i_lp_mmshare_version>  (1) 
72125

>  <i_m_source_file_index>  (1) 
54

>  <i_f3d_flags>  (1) 
0

>  <num_sample>  (1) 
100

>  <b_lp_Chiralities_Consistent>  (1) 
1

>  <r_epik_Charging_Adjusted_Penalty>  (1) 
0.93551857814206563

>  <r_epik_Ionization_Penalty>  (1) 
0.46776012796604682

>  <r_epik_Ionization_Penalty_Charging>  (1) 
0.46775928907103281

>  <r_epik_Ionization_Penalty_Neutral>  (1) 
8.3889501401179816e-07

>  <r_epik_State_Penalty>  (1) 
0.46775928907103276

>  <r_glide_ring_energy>  (1) 
0

>  <r_i_docking_score>  (1) 
-5.0259690248263302

>  <r_i_glide_ecoul>  (1) 
-2.9540799260815724

>  <r_i_glide_eff_state_penalty>  (1) 
0.46775928907103276

>  <r_i_glide_einternal>  (1) 
0

>  <r_i_glide_emodel>  (1) 
-27.424368765695327

>  <r_i_glide_emodel_strain>  (1) 
2.2570656454945492e-07

>  <r_i_glide_energy>  (1) 
-17.911467623243272

>  <r_i_glide_erotb>  (1) 
0

>  <r_i_glide_esite>  (1) 
0

>  <r_i_glide_evdw>  (1) 
-14.9573876971617

>  <r_i_glide_gscore>  (1) 
-5.4937283138973632

>  <r_i_glide_gscore_strain>  (1) 
0

>  <r_i_glide_hbond>  (1) 
0

>  <r_i_glide_ligand_efficiency>  (1) 
-0.62824612810329128

>  <r_i_glide_ligand_efficiency_ln>  (1) 
-1.6321040541931064

>  <r_i_glide_ligand_efficiency_sa>  (1) 
-1.2564922562065828

>  <r_i_glide_lipo>  (1) 
-1.834711027259027

>  <r_i_glide_metal>  (1) 
-0

>  <r_i_glide_rewards>  (1) 
-2.4680359128680149

>  <r_lp_Energy>  (1) 
10.43703

>  <r_lp_tautomer_probability>  (1) 
0.99999385203779767

>  <s_epik_cmdline>  (1) 
J2VwaWtfcHl0aG9uJywgJy1waHQnLCAnMS4wJywgJy1waCcsICc3LjQnLCAnLXRuJywgJzgnLCAnLW1hJywgJzUwMCcsICctaW1hZScsICc8aW5maWxlLm1hZT4nLCAnLW9tYWUnLCAnPG91dGZpbGUubWFlPic=

>  <s_epik_input>  (1) 
W0NIM11jMVtjSF1bY0hdYyhbTkgyXSluW2NIXTE=

>  <s_glide_docking_method>  (1) 
confgen

>  <s_i_glide_gridfile>  (1) 
gpcr_5ht2c_6bqh_protein_autoprepared_prepared

>  <s_lp_Force_Field>  (1) 
S-OPLS

>  <s_lp_Variant>  (1) 
Pocket2Mol_53_num_sample_100-2

>  <s_m_source_file>  (1) 
generated__ligand_Pocket2Mol_2026-05-06_prepared.sdf

>  <GenAI_Model>  (1) 
Pocket2Mol

>  <Protein>  (1) 
GPCR_5HT2C

$$$$
Pocket2Mol_35_num_sample_100
     RDKit          3D

  0  0  0  0  0  0  0  0  0  0999 V3000
M  V30 BEGIN CTAB
M  V30 COUNTS 17 17 0 0 1
M  V30 BEGIN ATOM
M  V30 1 C 39.950568 29.837253 51.373223 0
M  V30 2 O 40.266097 28.458956 51.453445 0
M  V30 3 C 39.149260 27.578916 51.468714 0
M  V30 4 C 39.831935 30.421430 52.793138 0
M  V30 5 O 38.629155 30.065624 53.453502 0
M  V30 6 C 38.010431 27.973581 52.425516 0
M  V30 7 C 38.462372 28.679565 53.707357 0
M  V30 8 H 40.784973 30.326648 50.870107 0
M  V30 9 H 39.067412 30.022829 50.760432 0
M  V30 10 H 38.758741 27.482178 50.455959 0
M  V30 11 H 39.521890 26.591650 51.742238 0
M  V30 12 H 40.667413 30.137475 53.422264 0
M  V30 13 H 39.848501 31.509153 52.729323 0
M  V30 14 H 37.288448 28.603789 51.906464 0
M  V30 15 H 37.467452 27.066192 52.689401 0
M  V30 16 H 37.676077 28.587357 54.457365 0
M  V30 17 H 39.359107 28.228729 54.135066 0
M  V30 END ATOM
M  V30 BEGIN BOND
M  V30 1 1 2 1
M  V30 2 1 3 2
M  V30 3 1 4 1
M  V30 4 1 5 4
M  V30 5 1 6 3
M  V30 6 1 7 5
M  V30 7 1 7 6
M  V30 8 1 8 1
M  V30 9 1 9 1
M  V30 10 1 10 3
M  V30 11 1 11 3
M  V30 12 1 12 4
M  V30 13 1 13 4
M  V30 14 1 14 6
M  V30 15 1 15 6
M  V30 16 1 16 7
M  V30 17 1 17 7
M  V30 END BOND
M  V30 END CTAB
M  END
>  <i_epik_Tot_Q>  (1) 
0

>  <i_epik_Tot_abs_Q>  (1) 
0

>  <i_i_glide_confnum>  (1) 
12

>  <i_i_glide_lignum>  (1) 
38

>  <i_i_glide_posenum>  (1) 
149

>  <i_i_glide_rotatable_bonds>  (1) 
0

>  <i_lp_mmshare_version>  (1) 
72125

>  <i_m_source_file_index>  (1) 
36

>  <i_f3d_flags>  (1) 
0

>  <num_sample>  (1) 
100

>  <b_lp_Chiralities_Consistent>  (1) 
1

>  <r_epik_Charging_Adjusted_Penalty>  (1) 
0

>  <r_epik_Ionization_Penalty>  (1) 
3.933197540425548e-12

>  <r_epik_Ionization_Penalty_Charging>  (1) 
0

>  <r_epik_Ionization_Penalty_Neutral>  (1) 
3.933197540425548e-12

>  <r_epik_State_Penalty>  (1) 
-0

>  <r_glide_ring_energy>  (1) 
0.00083970750038192933

>  <r_i_docking_score>  (1) 
-5.0251863565239194

>  <r_i_glide_ecoul>  (1) 
-0.94862523845718372

>  <r_i_glide_eff_state_penalty>  (1) 
-0

>  <r_i_glide_einternal>  (1) 
0

>  <r_i_glide_emodel>  (1) 
-22.158430688459493

>  <r_i_glide_emodel_strain>  (1) 
0

>  <r_i_glide_energy>  (1) 
-16.949940827634261

>  <r_i_glide_erotb>  (1) 
0

>  <r_i_glide_esite>  (1) 
0

>  <r_i_glide_evdw>  (1) 
-16.001315589177079

>  <r_i_glide_gscore>  (1) 
-5.0251863565239194

>  <r_i_glide_gscore_strain>  (1) 
0

>  <r_i_glide_hbond>  (1) 
0

>  <r_i_glide_ligand_efficiency>  (1) 
-0.71788376521770281

>  <r_i_glide_ligand_efficiency_ln>  (1) 
-1.7058179313905357

>  <r_i_glide_ligand_efficiency_sa>  (1) 
-1.3732622400909964

>  <r_i_glide_lipo>  (1) 
-1.6128101804547637

>  <r_i_glide_metal>  (1) 
-0

>  <r_i_glide_rewards>  (1) 
-2.4700166108417241

>  <r_lp_Energy>  (1) 
9.6410049999999998

>  <r_lp_tautomer_probability>  (1) 
1

>  <s_epik_cmdline>  (1) 
J2VwaWtfcHl0aG9uJywgJy1waHQnLCAnMS4wJywgJy1waCcsICc3LjQnLCAnLXRuJywgJzgnLCAnLW1hJywgJzUwMCcsICctaW1hZScsICc8aW5maWxlLm1hZT4nLCAnLW9tYWUnLCAnPG91dGZpbGUubWFlPic=

>  <s_epik_input>  (1) 
W0NIMl0xT1tDSDJdW0NIMl1bQ0gyXU9bQ0gyXTE=

>  <s_glide_docking_method>  (1) 
confgen

>  <s_i_glide_gridfile>  (1) 
gpcr_5ht2c_6bqh_protein_autoprepared_prepared

>  <s_lp_Force_Field>  (1) 
S-OPLS

>  <s_lp_Variant>  (1) 
Pocket2Mol_35_num_sample_100-1

>  <s_m_source_file>  (1) 
generated__ligand_Pocket2Mol_2026-05-06_prepared.sdf

>  <GenAI_Model>  (1) 
Pocket2Mol

>  <Protein>  (1) 
GPCR_5HT2C

$$$$
Pocket2Mol_53_num_sample_100
     RDKit          3D

  0  0  0  0  0  0  0  0  0  0999 V3000
M  V30 BEGIN CTAB
M  V30 COUNTS 17 17 0 0 1
M  V30 BEGIN ATOM
M  V30 1 C 40.746822 30.821429 50.980162 0
M  V30 2 C 39.878567 29.789726 51.648226 0
M  V30 3 C 39.467400 28.647012 50.940322 0
M  V30 4 C 38.655697 27.696431 51.584188 0
M  V30 5 C 38.271907 27.911849 52.924846 0
M  V30 6 C 39.467403 29.955978 52.987754 0
M  V30 7 N 37.467403 27.009443 53.614051 0
M  V30 8 N 38.687935 29.021405 53.569566 0 CHG=1
M  V30 9 H 40.960821 31.621428 51.682692 0
M  V30 10 H 41.691409 30.385354 50.653502 0
M  V30 11 H 40.239930 31.246404 50.112799 0
M  V30 12 H 39.768443 28.503390 49.913934 0
M  V30 13 H 38.327238 26.821429 51.053502 0
M  V30 14 H 39.736073 30.802914 53.604738 0
M  V30 15 H 37.095642 26.184612 53.162683 0
M  V30 16 H 37.173639 27.181205 54.563997 0
M  V30 17 H 38.399951 29.162784 54.539454 0
M  V30 END ATOM
M  V30 BEGIN BOND
M  V30 1 1 2 1
M  V30 2 1 3 2
M  V30 3 2 4 3
M  V30 4 1 5 4
M  V30 5 2 6 2
M  V30 6 1 7 5
M  V30 7 2 8 5
M  V30 8 1 8 6
M  V30 9 1 9 1
M  V30 10 1 10 1
M  V30 11 1 11 1
M  V30 12 1 12 3
M  V30 13 1 13 4
M  V30 14 1 14 6
M  V30 15 1 15 7
M  V30 16 1 16 7
M  V30 17 1 17 8
M  V30 END BOND
M  V30 END CTAB
M  END
>  <i_epik_Tot_Q>  (1) 
1

>  <i_epik_Tot_abs_Q>  (1) 
1

>  <i_i_glide_confnum>  (1) 
1

>  <i_i_glide_lignum>  (1) 
57

>  <i_i_glide_posenum>  (1) 
266

>  <i_i_glide_rotatable_bonds>  (1) 
0

>  <i_lp_mmshare_version>  (1) 
72125

>  <i_m_source_file_index>  (1) 
54

>  <i_f3d_flags>  (1) 
0

>  <num_sample>  (1) 
100

>  <b_lp_Chiralities_Consistent>  (1) 
1

>  <r_epik_Charging_Adjusted_Penalty>  (1) 
0.93551857814206563

>  <r_epik_Ionization_Penalty>  (1) 
0.46776012796604682

>  <r_epik_Ionization_Penalty_Charging>  (1) 
0.46775928907103281

>  <r_epik_Ionization_Penalty_Neutral>  (1) 
8.3889501401179816e-07

>  <r_epik_State_Penalty>  (1) 
0.46775928907103276

>  <r_glide_ring_energy>  (1) 
0

>  <r_i_docking_score>  (1) 
-5.0251297486749493

>  <r_i_glide_ecoul>  (1) 
-3.1232442629228778

>  <r_i_glide_eff_state_penalty>  (1) 
0.46775928907103276

>  <r_i_glide_einternal>  (1) 
0

>  <r_i_glide_emodel>  (1) 
-27.645978424848302

>  <r_i_glide_emodel_strain>  (1) 
0

>  <r_i_glide_energy>  (1) 
-18.13453034137952

>  <r_i_glide_erotb>  (1) 
0

>  <r_i_glide_esite>  (1) 
0

>  <r_i_glide_evdw>  (1) 
-15.011286078456642

>  <r_i_glide_gscore>  (1) 
-5.4928890377459823

>  <r_i_glide_gscore_strain>  (1) 
0

>  <r_i_glide_hbond>  (1) 
0

>  <r_i_glide_ligand_efficiency>  (1) 
-0.62814121858436867

>  <r_i_glide_ligand_efficiency_ln>  (1) 
-1.6318315125195526

>  <r_i_glide_ligand_efficiency_sa>  (1) 
-1.2562824371687376

>  <r_i_glide_lipo>  (1) 
-1.8238380943847186

>  <r_i_glide_metal>  (1) 
-0

>  <r_i_glide_rewards>  (1) 
-2.4500000000000002

>  <r_lp_Energy>  (1) 
10.43703

>  <r_lp_tautomer_probability>  (1) 
0.99999385203779767

>  <s_epik_cmdline>  (1) 
J2VwaWtfcHl0aG9uJywgJy1waHQnLCAnMS4wJywgJy1waCcsICc3LjQnLCAnLXRuJywgJzgnLCAnLW1hJywgJzUwMCcsICctaW1hZScsICc8aW5maWxlLm1hZT4nLCAnLW9tYWUnLCAnPG91dGZpbGUubWFlPic=

>  <s_epik_input>  (1) 
W0NIM11jMVtjSF1bY0hdYyhbTkgyXSluW2NIXTE=

>  <s_glide_docking_method>  (1) 
confgen

>  <s_i_glide_gridfile>  (1) 
gpcr_5ht2c_6bqh_protein_autoprepared_prepared

>  <s_lp_Force_Field>  (1) 
S-OPLS

>  <s_lp_Variant>  (1) 
Pocket2Mol_53_num_sample_100-2

>  <s_m_source_file>  (1) 
generated__ligand_Pocket2Mol_2026-05-06_prepared.sdf

>  <GenAI_Model>  (1) 
Pocket2Mol

>  <Protein>  (1) 
GPCR_5HT2C

$$$$
Pocket2Mol_53_num_sample_100
     RDKit          3D

  0  0  0  0  0  0  0  0  0  0999 V3000
M  V30 BEGIN CTAB
M  V30 COUNTS 16 16 0 0 1
M  V30 BEGIN ATOM
M  V30 1 C 37.709212 27.365914 53.587958 0
M  V30 2 C 38.618186 28.217065 52.724875 0
M  V30 3 C 39.037031 29.483650 53.159604 0
M  V30 4 C 39.867369 30.238017 52.318175 0
M  V30 5 C 40.251686 29.692562 51.077173 0
M  V30 6 C 39.055170 27.754244 51.468074 0
M  V30 7 N 41.067403 30.421731 50.224266 0
M  V30 8 N 39.864663 28.468703 50.652985 0
M  V30 9 H 37.836010 27.604382 54.644389 0
M  V30 10 H 36.667403 27.542852 53.320052 0
M  V30 11 H 37.923120 26.305452 53.453525 0
M  V30 12 H 38.721915 29.872687 54.116941 0
M  V30 13 H 40.203979 31.220547 52.616455 0
M  V30 14 H 38.746895 26.786008 51.104997 0
M  V30 15 H 41.363507 31.361628 50.450116 0
M  V30 16 H 41.325271 30.066848 49.317387 0
M  V30 END ATOM
M  V30 BEGIN BOND
M  V30 1 1 2 1
M  V30 2 1 3 2
M  V30 3 2 4 3
M  V30 4 1 5 4
M  V30 5 2 6 2
M  V30 6 1 7 5
M  V30 7 2 8 5
M  V30 8 1 8 6
M  V30 9 1 9 1
M  V30 10 1 10 1
M  V30 11 1 11 1
M  V30 12 1 12 3
M  V30 13 1 13 4
M  V30 14 1 14 6
M  V30 15 1 15 7
M  V30 16 1 16 7
M  V30 END BOND
M  V30 END CTAB
M  END
>  <i_epik_Tot_Q>  (1) 
0

>  <i_epik_Tot_abs_Q>  (1) 
0

>  <i_i_glide_confnum>  (1) 
1

>  <i_i_glide_lignum>  (1) 
56

>  <i_i_glide_posenum>  (1) 
118

>  <i_i_glide_rotatable_bonds>  (1) 
0

>  <i_lp_mmshare_version>  (1) 
72125

>  <i_m_source_file_index>  (1) 
54

>  <i_f3d_flags>  (1) 
0

>  <num_sample>  (1) 
100

>  <b_lp_Chiralities_Consistent>  (1) 
1

>  <r_epik_Charging_Adjusted_Penalty>  (1) 
0.35861937746939487

>  <r_epik_Ionization_Penalty>  (1) 
0.35867228033349524

>  <r_epik_Ionization_Penalty_Charging>  (1) 
0

>  <r_epik_Ionization_Penalty_Neutral>  (1) 
0.35867228033349524

>  <r_epik_State_Penalty>  (1) 
0.35861937746939487

>  <r_glide_ring_energy>  (1) 
0

>  <r_i_docking_score>  (1) 
-5.0180955484131964

>  <r_i_glide_ecoul>  (1) 
-0.92071709777001898

>  <r_i_glide_eff_state_penalty>  (1) 
0.35861937746939487

>  <r_i_glide_einternal>  (1) 
0

>  <r_i_glide_emodel>  (1) 
-28.127493260288297

>  <r_i_glide_emodel_strain>  (1) 
2.9048763394712296e-10

>  <r_i_glide_energy>  (1) 
-21.246953535545984

>  <r_i_glide_erotb>  (1) 
0

>  <r_i_glide_esite>  (1) 
0

>  <r_i_glide_evdw>  (1) 
-20.326236437775965

>  <r_i_glide_gscore>  (1) 
-5.3767149258825908

>  <r_i_glide_gscore_strain>  (1) 
0

>  <r_i_glide_hbond>  (1) 
0

>  <r_i_glide_ligand_efficiency>  (1) 
-0.62726194355164955

>  <r_i_glide_ligand_efficiency_ln>  (1) 
-1.6295472670917548

>  <r_i_glide_ligand_efficiency_sa>  (1) 
-1.2545238871032993

>  <r_i_glide_lipo>  (1) 
-1.8283036193676008

>  <r_i_glide_metal>  (1) 
-0

>  <r_i_glide_rewards>  (1) 
-2.3939919199606892

>  <r_lp_Energy>  (1) 
5.8194469999999994

>  <r_lp_tautomer_probability>  (1) 
0.99999977220005165

>  <s_epik_cmdline>  (1) 
J2VwaWtfcHl0aG9uJywgJy1waHQnLCAnMS4wJywgJy1waCcsICc3LjQnLCAnLXRuJywgJzgnLCAnLW1hJywgJzUwMCcsICctaW1hZScsICc8aW5maWxlLm1hZT4nLCAnLW9tYWUnLCAnPG91dGZpbGUubWFlPic=

>  <s_epik_input>  (1) 
W0NIM11jMVtjSF1bY0hdYyhbTkgyXSluW2NIXTE=

>  <s_glide_docking_method>  (1) 
confgen

>  <s_i_glide_gridfile>  (1) 
gpcr_5ht2c_6bqh_protein_autoprepared_prepared

>  <s_lp_Force_Field>  (1) 
S-OPLS

>  <s_lp_Variant>  (1) 
Pocket2Mol_53_num_sample_100-1

>  <s_m_source_file>  (1) 
generated__ligand_Pocket2Mol_2026-05-06_prepared.sdf

>  <GenAI_Model>  (1) 
Pocket2Mol

>  <Protein>  (1) 
GPCR_5HT2C

$$$$
Pocket2Mol_61_num_sample_100
     RDKit          3D

  0  0  0  0  0  0  0  0  0  0999 V3000
M  V30 BEGIN CTAB
M  V30 COUNTS 16 16 0 0 1
M  V30 BEGIN ATOM
M  V30 1 C 39.842507 28.914484 50.653115 0
M  V30 2 C 38.805134 28.497114 51.686979 0
M  V30 3 C 40.308474 30.299251 51.108987 0
M  V30 4 C 39.867403 30.421429 52.576127 0
M  V30 5 N 39.386037 29.076751 52.888912 0
M  V30 6 N 38.255997 29.231665 53.907569 0 CHG=1
M  V30 7 O 38.355462 30.151585 54.714484 0 CHG=-1
M  V30 8 O 37.341890 28.413109 53.853483 0
M  V30 9 H 40.667403 28.206500 50.682200 0
M  V30 10 H 39.453224 28.917474 49.635482 0
M  V30 11 H 38.680103 27.415726 51.757026 0
M  V30 12 H 37.844550 28.954102 51.453500 0
M  V30 13 H 39.843555 31.084544 50.511320 0
M  V30 14 H 41.388333 30.403306 50.999138 0
M  V30 15 H 39.076772 31.167869 52.653503 0
M  V30 16 H 40.667403 30.722594 53.249622 0
M  V30 END ATOM
M  V30 BEGIN BOND
M  V30 1 1 2 1
M  V30 2 1 3 1
M  V30 3 1 4 3
M  V30 4 1 5 2
M  V30 5 1 5 4
M  V30 6 1 6 5
M  V30 7 1 7 6
M  V30 8 2 8 6
M  V30 9 1 9 1
M  V30 10 1 10 1
M  V30 11 1 11 2
M  V30 12 1 12 2
M  V30 13 1 13 3
M  V30 14 1 14 3
M  V30 15 1 15 4
M  V30 16 1 16 4
M  V30 END BOND
M  V30 END CTAB
M  END
>  <i_epik_Tot_Q>  (1) 
0

>  <i_epik_Tot_abs_Q>  (1) 
2

>  <i_i_glide_confnum>  (1) 
1

>  <i_i_glide_lignum>  (1) 
65

>  <i_i_glide_posenum>  (1) 
349

>  <i_i_glide_rotatable_bonds>  (1) 
1

>  <i_lp_mmshare_version>  (1) 
72125

>  <i_m_source_file_index>  (1) 
62

>  <i_f3d_flags>  (1) 
0

>  <num_sample>  (1) 
100

>  <b_lp_Chiralities_Consistent>  (1) 
1

>  <r_epik_Charging_Adjusted_Penalty>  (1) 
0

>  <r_epik_Ionization_Penalty>  (1) 
5.9201220630741648e-14

>  <r_epik_Ionization_Penalty_Charging>  (1) 
0

>  <r_epik_Ionization_Penalty_Neutral>  (1) 
5.9201220630741648e-14

>  <r_epik_State_Penalty>  (1) 
-0

>  <r_glide_ring_energy>  (1) 
0

>  <r_i_docking_score>  (1) 
-5.0161989577622377

>  <r_i_glide_ecoul>  (1) 
-0.0025773719359327707

>  <r_i_glide_eff_state_penalty>  (1) 
-0

>  <r_i_glide_einternal>  (1) 
0.0066437724874471304

>  <r_i_glide_emodel>  (1) 
-22.906172818925295

>  <r_i_glide_emodel_strain>  (1) 
0.025206713001878711

>  <r_i_glide_energy>  (1) 
-17.012939368182035

>  <r_i_glide_erotb>  (1) 
0

>  <r_i_glide_esite>  (1) 
0

>  <r_i_glide_evdw>  (1) 
-17.010361996246104

>  <r_i_glide_gscore>  (1) 
-5.0161989577622377

>  <r_i_glide_gscore_strain>  (1) 
0

>  <r_i_glide_hbond>  (1) 
0

>  <r_i_glide_ligand_efficiency>  (1) 
-0.62702486972027971

>  <r_i_glide_ligand_efficiency_ln>  (1) 
-1.6289313792350482

>  <r_i_glide_ligand_efficiency_sa>  (1) 
-1.2540497394405596

>  <r_i_glide_lipo>  (1) 
-1.3200000000000001

>  <r_i_glide_metal>  (1) 
-0

>  <r_i_glide_rewards>  (1) 
-2.845294252159543

>  <r_lp_Energy>  (1) 
26.171151999999999

>  <r_lp_tautomer_probability>  (1) 
1

>  <s_epik_cmdline>  (1) 
J2VwaWtfcHl0aG9uJywgJy1waHQnLCAnMS4wJywgJy1waCcsICc3LjQnLCAnLXRuJywgJzgnLCAnLW1hJywgJzUwMCcsICctaW1hZScsICc8aW5maWxlLm1hZT4nLCAnLW9tYWUnLCAnPG91dGZpbGUubWFlPic=

>  <s_epik_input>  (1) 
W0NIMl0xW0NIMl1bQ0gyXVtDSDJdTjFbTitdKFtPLV0pPU8=

>  <s_glide_docking_method>  (1) 
confgen

>  <s_i_glide_gridfile>  (1) 
gpcr_5ht2c_6bqh_protein_autoprepared_prepared

>  <s_lp_Force_Field>  (1) 
S-OPLS

>  <s_lp_Variant>  (1) 
Pocket2Mol_61_num_sample_100-1

>  <s_m_source_file>  (1) 
generated__ligand_Pocket2Mol_2026-05-06_prepared.sdf

>  <GenAI_Model>  (1) 
Pocket2Mol

>  <Protein>  (1) 
GPCR_5HT2C

$$$$
Pocket2Mol_32_num_sample_100
     RDKit          3D

  0  0  0  0  0  0  0  0  0  0999 V3000
M  V30 BEGIN CTAB
M  V30 COUNTS 15 15 0 0 1
M  V30 BEGIN ATOM
M  V30 1 C 40.292627 30.767442 49.923003 0
M  V30 2 C 40.114053 31.033553 51.415760 0
M  V30 3 O 39.579633 29.821888 51.889255 0
M  V30 4 O 40.267383 29.356981 49.810999 0
M  V30 5 C 40.186412 28.864826 51.102233 0
M  V30 6 C 39.311073 27.609663 51.113757 0
M  V30 7 O 39.467402 26.893322 52.319360 0
M  V30 8 H 41.226128 31.183604 49.543181 0
M  V30 9 H 39.467381 31.187864 49.349434 0
M  V30 10 H 41.067403 31.221429 51.897851 0
M  V30 11 H 39.467404 31.881646 51.625209 0
M  V30 12 H 41.200886 28.668122 51.453502 0
M  V30 13 H 39.615344 26.963729 50.289727 0
M  V30 14 H 38.267445 27.884477 50.956541 0
M  V30 15 H 39.135728 27.433726 53.021416 0
M  V30 END ATOM
M  V30 BEGIN BOND
M  V30 1 1 2 1
M  V30 2 1 3 2
M  V30 3 1 4 1
M  V30 4 1 5 3
M  V30 5 1 5 4
M  V30 6 1 6 5
M  V30 7 1 7 6
M  V30 8 1 8 1
M  V30 9 1 9 1
M  V30 10 1 10 2
M  V30 11 1 11 2
M  V30 12 1 12 5
M  V30 13 1 13 6
M  V30 14 1 14 6
M  V30 15 1 15 7
M  V30 END BOND
M  V30 END CTAB
M  END
>  <i_epik_Tot_Q>  (1) 
0

>  <i_epik_Tot_abs_Q>  (1) 
0

>  <i_i_glide_confnum>  (1) 
1

>  <i_i_glide_lignum>  (1) 
35

>  <i_i_glide_posenum>  (1) 
310

>  <i_i_glide_rotatable_bonds>  (1) 
2

>  <i_lp_mmshare_version>  (1) 
72125

>  <i_m_source_file_index>  (1) 
33

>  <i_f3d_flags>  (1) 
0

>  <num_sample>  (1) 
100

>  <b_lp_Chiralities_Consistent>  (1) 
1

>  <r_epik_Charging_Adjusted_Penalty>  (1) 
0

>  <r_epik_Ionization_Penalty>  (1) 
3.4422651255072934e-07

>  <r_epik_Ionization_Penalty_Charging>  (1) 
0

>  <r_epik_Ionization_Penalty_Neutral>  (1) 
3.4422651255072934e-07

>  <r_epik_State_Penalty>  (1) 
-0

>  <r_glide_ring_energy>  (1) 
0

>  <r_i_docking_score>  (1) 
-5.0124860091619503

>  <r_i_glide_ecoul>  (1) 
-1.4286722867095809

>  <r_i_glide_eff_state_penalty>  (1) 
-0

>  <r_i_glide_einternal>  (1) 
0.31651091822064759

>  <r_i_glide_emodel>  (1) 
-21.356883136406282

>  <r_i_glide_emodel_strain>  (1) 
0.093500459754523035

>  <r_i_glide_energy>  (1) 
-16.022514574138921

>  <r_i_glide_erotb>  (1) 
0

>  <r_i_glide_esite>  (1) 
0

>  <r_i_glide_evdw>  (1) 
-14.593842287429341

>  <r_i_glide_gscore>  (1) 
-5.0124860091619503

>  <r_i_glide_gscore_strain>  (1) 
0

>  <r_i_glide_hbond>  (1) 
0

>  <r_i_glide_ligand_efficiency>  (1) 
-0.71606942988027866

>  <r_i_glide_ligand_efficiency_ln>  (1) 
-1.7015067519181943

>  <r_i_glide_ligand_efficiency_sa>  (1) 
-1.3697915414480317

>  <r_i_glide_lipo>  (1) 
-0.96849305178404554

>  <r_i_glide_metal>  (1) 
-0

>  <r_i_glide_rewards>  (1) 
-3.1000000000000001

>  <r_lp_Energy>  (1) 
-10.260740999999999

>  <r_lp_tautomer_probability>  (1) 
1

>  <s_epik_Chemistry_Notes>  (1) 
This compound contains an acetal/aminal-like group ( X-CH(R)-Y where X, Y are N, S, or O) that may be acid/base labile, releasing an aldehyde.

>  <s_epik_cmdline>  (1) 
J2VwaWtfcHl0aG9uJywgJy1waHQnLCAnMS4wJywgJy1waCcsICc3LjQnLCAnLXRuJywgJzgnLCAnLW1hJywgJzUwMCcsICctaW1hZScsICc8aW5maWxlLm1hZT4nLCAnLW9tYWUnLCAnPG91dGZpbGUubWFlPic=

>  <s_epik_input>  (1) 
TzFbQ0gyXVtDSDJdT1tDSF0xW0NIMl1bT0hd

>  <s_glide_docking_method>  (1) 
confgen

>  <s_i_glide_gridfile>  (1) 
gpcr_5ht2c_6bqh_protein_autoprepared_prepared

>  <s_lp_Force_Field>  (1) 
S-OPLS

>  <s_lp_Variant>  (1) 
Pocket2Mol_32_num_sample_100-1

>  <s_m_source_file>  (1) 
generated__ligand_Pocket2Mol_2026-05-06_prepared.sdf

>  <GenAI_Model>  (1) 
Pocket2Mol

>  <Protein>  (1) 
GPCR_5HT2C

$$$$
Pocket2Mol_9_num_sample_100
     RDKit          3D

  0  0  0  0  0  0  0  0  0  0999 V3000
M  V30 BEGIN CTAB
M  V30 COUNTS 11 11 0 0 1
M  V30 BEGIN ATOM
M  V30 1 C 39.845205 29.178541 51.647395 0
M  V30 2 C 39.309377 28.047139 50.779257 0
M  V30 3 C 39.253814 29.345736 52.803244 0
M  V30 4 C 38.239926 28.392996 52.937565 0
M  V30 5 N 38.267404 27.663565 51.808309 0
M  V30 6 O 37.467401 28.232141 53.876850 0
M  V30 7 H 40.665367 29.792128 51.303380 0
M  V30 8 H 37.620955 26.901193 51.638289 0
M  V30 9 H 38.874710 28.421413 49.853469 0
M  V30 10 H 39.505943 30.097315 53.537096 0
M  V30 11 H 40.034682 27.256410 50.594625 0
M  V30 END ATOM
M  V30 BEGIN BOND
M  V30 1 1 2 1
M  V30 2 2 3 1
M  V30 3 1 4 3
M  V30 4 1 5 2
M  V30 5 1 5 4
M  V30 6 2 6 4
M  V30 7 1 7 1
M  V30 8 1 8 5
M  V30 9 1 9 2
M  V30 10 1 10 3
M  V30 11 1 11 2
M  V30 END BOND
M  V30 END CTAB
M  END
>  <i_epik_Tot_Q>  (1) 
0

>  <i_epik_Tot_abs_Q>  (1) 
0

>  <i_i_glide_confnum>  (1) 
1

>  <i_i_glide_lignum>  (1) 
12

>  <i_i_glide_posenum>  (1) 
203

>  <i_i_glide_rotatable_bonds>  (1) 
0

>  <i_lp_mmshare_version>  (1) 
72125

>  <i_m_source_file_index>  (1) 
10

>  <i_f3d_flags>  (1) 
0

>  <num_sample>  (1) 
100

>  <b_lp_Chiralities_Consistent>  (1) 
1

>  <r_epik_Charging_Adjusted_Penalty>  (1) 
0

>  <r_epik_Ionization_Penalty>  (1) 
3.8544596149973334e-06

>  <r_epik_Ionization_Penalty_Charging>  (1) 
0

>  <r_epik_Ionization_Penalty_Neutral>  (1) 
3.8544596149973334e-06

>  <r_epik_State_Penalty>  (1) 
-0

>  <r_glide_ring_energy>  (1) 
0

>  <r_i_docking_score>  (1) 
-5.0059045824287454

>  <r_i_glide_ecoul>  (1) 
-2.5056088014140561

>  <r_i_glide_eff_state_penalty>  (1) 
-0

>  <r_i_glide_einternal>  (1) 
0

>  <r_i_glide_emodel>  (1) 
-22.727949119857687

>  <r_i_glide_emodel_strain>  (1) 
0

>  <r_i_glide_energy>  (1) 
-17.431426983519973

>  <r_i_glide_erotb>  (1) 
0

>  <r_i_glide_esite>  (1) 
0

>  <r_i_glide_evdw>  (1) 
-14.925818182105916

>  <r_i_glide_gscore>  (1) 
-5.0059045824287454

>  <r_i_glide_gscore_strain>  (1) 
0

>  <r_i_glide_hbond>  (1) 
-0.32000000000000001

>  <r_i_glide_ligand_efficiency>  (1) 
-0.83431743040479089

>  <r_i_glide_ligand_efficiency_ln>  (1) 
-1.7931002429134484

>  <r_i_glide_ligand_efficiency_sa>  (1) 
-1.5160553837473412

>  <r_i_glide_lipo>  (1) 
-0.86377235311134049

>  <r_i_glide_metal>  (1) 
-0

>  <r_i_glide_rewards>  (1) 
-2.7000000000000002

>  <r_lp_Energy>  (1) 
3.2049569999999998

>  <r_lp_tautomer_probability>  (1) 
1

>  <s_epik_cmdline>  (1) 
J2VwaWtfcHl0aG9uJywgJy1waHQnLCAnMS4wJywgJy1waCcsICc3LjQnLCAnLXRuJywgJzgnLCAnLW1hJywgJzUwMCcsICctaW1hZScsICc8aW5maWxlLm1hZT4nLCAnLW9tYWUnLCAnPG91dGZpbGUubWFlPic=

>  <s_epik_input>  (1) 
TjE9W0NIXVtDSDJdW0NIMl1DMT1P

>  <s_glide_docking_method>  (1) 
confgen

>  <s_i_glide_gridfile>  (1) 
gpcr_5ht2c_6bqh_protein_autoprepared_prepared

>  <s_lp_Force_Field>  (1) 
S-OPLS

>  <s_lp_Variant>  (1) 
Pocket2Mol_9_num_sample_100-1

>  <s_m_source_file>  (1) 
generated__ligand_Pocket2Mol_2026-05-06_prepared.sdf

>  <GenAI_Model>  (1) 
Pocket2Mol

>  <Protein>  (1) 
GPCR_5HT2C

$$$$
Pocket2Mol_20_num_sample_100
     RDKit          3D

  0  0  0  0  0  0  0  0  0  0999 V3000
M  V30 BEGIN CTAB
M  V30 COUNTS 10 10 0 0 1
M  V30 BEGIN ATOM
M  V30 1 C 40.061207 29.140784 51.307185 0
M  V30 2 C 39.467404 27.865471 51.054459 0
M  V30 3 C 39.467403 29.655348 52.427052 0
M  V30 4 C 38.531041 27.647080 52.025107 0
M  V30 5 N 38.535889 28.739847 52.852564 0
M  V30 6 O 37.729075 28.894676 53.942760 0 CHG=-1
M  V30 7 H 40.837718 29.624585 50.733468 0
M  V30 8 H 39.701831 27.184356 50.253502 0
M  V30 9 H 39.617147 30.584537 52.956758 0
M  V30 10 H 37.863556 26.821430 52.202937 0
M  V30 END ATOM
M  V30 BEGIN BOND
M  V30 1 1 2 1
M  V30 2 2 3 1
M  V30 3 2 4 2
M  V30 4 1 5 3
M  V30 5 1 5 4
M  V30 6 1 6 5
M  V30 7 1 7 1
M  V30 8 1 8 2
M  V30 9 1 9 3
M  V30 10 1 10 4
M  V30 END BOND
M  V30 END CTAB
M  END
>  <i_epik_Tot_Q>  (1) 
-1

>  <i_epik_Tot_abs_Q>  (1) 
1

>  <i_i_glide_confnum>  (1) 
1

>  <i_i_glide_lignum>  (1) 
23

>  <i_i_glide_posenum>  (1) 
126

>  <i_i_glide_rotatable_bonds>  (1) 
0

>  <i_lp_mmshare_version>  (1) 
72125

>  <i_m_source_file_index>  (1) 
21

>  <i_f3d_flags>  (1) 
0

>  <num_sample>  (1) 
100

>  <b_lp_Chiralities_Consistent>  (1) 
1

>  <r_epik_Charging_Adjusted_Penalty>  (1) 
0.038602441834166765

>  <r_epik_Ionization_Penalty>  (1) 
0.019301220976331968

>  <r_epik_Ionization_Penalty_Charging>  (1) 
0.019301220917083386

>  <r_epik_Ionization_Penalty_Neutral>  (1) 
5.9248581604286784e-11

>  <r_epik_State_Penalty>  (1) 
0.019301220917083379

>  <r_glide_ring_energy>  (1) 
0

>  <r_i_docking_score>  (1) 
-5.0051589486268728

>  <r_i_glide_ecoul>  (1) 
-1.0639998046739927

>  <r_i_glide_eff_state_penalty>  (1) 
0.019301220917083379

>  <r_i_glide_einternal>  (1) 
0

>  <r_i_glide_emodel>  (1) 
-18.947871914767628

>  <r_i_glide_emodel_strain>  (1) 
0

>  <r_i_glide_energy>  (1) 
-14.173994514175995

>  <r_i_glide_erotb>  (1) 
0

>  <r_i_glide_esite>  (1) 
0

>  <r_i_glide_evdw>  (1) 
-13.109994709502002

>  <r_i_glide_gscore>  (1) 
-5.0244601695439561

>  <r_i_glide_gscore_strain>  (1) 
0

>  <r_i_glide_hbond>  (1) 
0

>  <r_i_glide_ligand_efficiency>  (1) 
-0.8341931581044788

>  <r_i_glide_ligand_efficiency_ln>  (1) 
-1.79283315908689

>  <r_i_glide_ligand_efficiency_sa>  (1) 
-1.5158295659913255

>  <r_i_glide_lipo>  (1) 
-1.2386796344722062

>  <r_i_glide_metal>  (1) 
-0

>  <r_i_glide_rewards>  (1) 
-2.9706808288955506

>  <r_lp_Energy>  (1) 
1.8910769999999999

>  <r_lp_tautomer_probability>  (1) 
1

>  <s_epik_cmdline>  (1) 
J2VwaWtfcHl0aG9uJywgJy1waHQnLCAnMS4wJywgJy1waCcsICc3LjQnLCAnLXRuJywgJzgnLCAnLW1hJywgJzUwMCcsICctaW1hZScsICc8aW5maWxlLm1hZT4nLCAnLW9tYWUnLCAnPG91dGZpbGUubWFlPic=

>  <s_epik_input>  (1) 
W2NIXTFbY0hdW2NIXVtjSF1uMVtPSF0=

>  <s_glide_docking_method>  (1) 
confgen

>  <s_i_glide_gridfile>  (1) 
gpcr_5ht2c_6bqh_protein_autoprepared_prepared

>  <s_lp_Force_Field>  (1) 
S-OPLS

>  <s_lp_Variant>  (1) 
Pocket2Mol_20_num_sample_100-1

>  <s_m_source_file>  (1) 
generated__ligand_Pocket2Mol_2026-05-06_prepared.sdf

>  <GenAI_Model>  (1) 
Pocket2Mol

>  <Protein>  (1) 
GPCR_5HT2C

$$$$
Pocket2Mol_13_num_sample_100
     RDKit          3D

  0  0  0  0  0  0  0  0  0  0999 V3000
M  V30 BEGIN CTAB
M  V30 COUNTS 11 11 0 0 1
M  V30 BEGIN ATOM
M  V30 1 C 39.254235 29.358914 52.798666 0
M  V30 2 C 39.845622 29.183887 51.643925 0
M  V30 3 C 38.240039 28.407217 52.939321 0
M  V30 4 C 39.309320 28.047031 50.782999 0
M  V30 5 N 38.267419 27.670363 51.814948 0
M  V30 6 O 37.467349 28.252675 53.879761 0
M  V30 7 H 39.506297 30.115245 53.527451 0
M  V30 8 H 38.876210 28.414917 49.853502 0
M  V30 9 H 40.666244 29.794748 51.295864 0
M  V30 10 H 40.033898 27.254346 50.604598 0
M  V30 11 H 37.621184 26.906729 51.650219 0
M  V30 END ATOM
M  V30 BEGIN BOND
M  V30 1 2 2 1
M  V30 2 1 3 1
M  V30 3 1 4 2
M  V30 4 1 5 3
M  V30 5 1 5 4
M  V30 6 2 6 3
M  V30 7 1 7 1
M  V30 8 1 8 4
M  V30 9 1 9 2
M  V30 10 1 10 4
M  V30 11 1 11 5
M  V30 END BOND
M  V30 END CTAB
M  END
>  <i_epik_Tot_Q>  (1) 
0

>  <i_epik_Tot_abs_Q>  (1) 
0

>  <i_i_glide_confnum>  (1) 
1

>  <i_i_glide_lignum>  (1) 
16

>  <i_i_glide_posenum>  (1) 
203

>  <i_i_glide_rotatable_bonds>  (1) 
0

>  <i_lp_mmshare_version>  (1) 
72125

>  <i_m_source_file_index>  (1) 
14

>  <i_f3d_flags>  (1) 
0

>  <num_sample>  (1) 
100

>  <b_lp_Chiralities_Consistent>  (1) 
1

>  <r_epik_Charging_Adjusted_Penalty>  (1) 
0

>  <r_epik_Ionization_Penalty>  (1) 
3.8544596149973334e-06

>  <r_epik_Ionization_Penalty_Charging>  (1) 
0

>  <r_epik_Ionization_Penalty_Neutral>  (1) 
3.8544596149973334e-06

>  <r_epik_State_Penalty>  (1) 
-0

>  <r_glide_ring_energy>  (1) 
0

>  <r_i_docking_score>  (1) 
-5.0036833379860797

>  <r_i_glide_ecoul>  (1) 
-2.4888380268741943

>  <r_i_glide_eff_state_penalty>  (1) 
-0

>  <r_i_glide_einternal>  (1) 
0

>  <r_i_glide_emodel>  (1) 
-22.728009821885674

>  <r_i_glide_emodel_strain>  (1) 
0

>  <r_i_glide_energy>  (1) 
-17.433447506079268

>  <r_i_glide_erotb>  (1) 
0

>  <r_i_glide_esite>  (1) 
0

>  <r_i_glide_evdw>  (1) 
-14.944609479205074

>  <r_i_glide_gscore>  (1) 
-5.0036833379860797

>  <r_i_glide_gscore_strain>  (1) 
0

>  <r_i_glide_hbond>  (1) 
-0.32000000000000001

>  <r_i_glide_ligand_efficiency>  (1) 
-0.83394722299767998

>  <r_i_glide_ligand_efficiency_ln>  (1) 
-1.7923045997116793

>  <r_i_glide_ligand_efficiency_sa>  (1) 
-1.5153826722442609

>  <r_i_glide_lipo>  (1) 
-0.86312715999469647

>  <r_i_glide_metal>  (1) 
-0

>  <r_i_glide_rewards>  (1) 
-2.7000000000000002

>  <r_lp_Energy>  (1) 
3.204942

>  <r_lp_tautomer_probability>  (1) 
1

>  <s_epik_cmdline>  (1) 
J2VwaWtfcHl0aG9uJywgJy1waHQnLCAnMS4wJywgJy1waCcsICc3LjQnLCAnLXRuJywgJzgnLCAnLW1hJywgJzUwMCcsICctaW1hZScsICc8aW5maWxlLm1hZT4nLCAnLW9tYWUnLCAnPG91dGZpbGUubWFlPic=

>  <s_epik_input>  (1) 
Tz1DMVtDSDJdW0NIXT1bQ0hdW05IXTE=

>  <s_glide_docking_method>  (1) 
confgen

>  <s_i_glide_gridfile>  (1) 
gpcr_5ht2c_6bqh_protein_autoprepared_prepared

>  <s_lp_Force_Field>  (1) 
S-OPLS

>  <s_lp_Variant>  (1) 
Pocket2Mol_13_num_sample_100-1

>  <s_m_source_file>  (1) 
generated__ligand_Pocket2Mol_2026-05-06_prepared.sdf

>  <GenAI_Model>  (1) 
Pocket2Mol

>  <Protein>  (1) 
GPCR_5HT2C

$$$$
Pocket2Mol_46_num_sample_100
     RDKit          3D

  0  0  0  0  0  0  0  0  0  0999 V3000
M  V30 BEGIN CTAB
M  V30 COUNTS 12 11 0 0 1
M  V30 BEGIN ATOM
M  V30 1 C 39.710734 29.102558 59.702078 0
M  V30 2 O 38.685985 29.911641 60.246294 0
M  V30 3 C 37.794271 30.491874 59.422509 0
M  V30 4 C 36.708214 31.246891 60.228134 0
M  V30 5 O 37.816486 30.441519 58.191233 0
M  V30 6 O 36.705460 31.288990 61.453223 0
M  V30 7 N 35.798249 31.830734 59.453500 0
M  V30 8 H 40.348464 28.721303 60.499136 0
M  V30 9 H 39.283866 28.253486 59.168689 0
M  V30 10 H 40.332521 29.667136 59.008143 0
M  V30 11 H 35.867295 31.761226 58.418948 0
M  V30 12 H 35.038904 32.342804 59.870165 0
M  V30 END ATOM
M  V30 BEGIN BOND
M  V30 1 1 2 1
M  V30 2 1 3 2
M  V30 3 1 4 3
M  V30 4 2 5 3
M  V30 5 2 6 4
M  V30 6 1 7 4
M  V30 7 1 8 1
M  V30 8 1 9 1
M  V30 9 1 10 1
M  V30 10 1 11 7
M  V30 11 1 12 7
M  V30 END BOND
M  V30 END CTAB
M  END
>  <i_epik_Tot_Q>  (1) 
0

>  <i_epik_Tot_abs_Q>  (1) 
0

>  <i_i_glide_confnum>  (1) 
1

>  <i_i_glide_lignum>  (1) 
49

>  <i_i_glide_posenum>  (1) 
255

>  <i_i_glide_rotatable_bonds>  (1) 
2

>  <i_lp_mmshare_version>  (1) 
72125

>  <i_m_source_file_index>  (1) 
47

>  <i_f3d_flags>  (1) 
0

>  <num_sample>  (1) 
100

>  <b_lp_Chiralities_Consistent>  (1) 
1

>  <r_epik_Charging_Adjusted_Penalty>  (1) 
0

>  <r_epik_Ionization_Penalty>  (1) 
3.9236796398539443e-05

>  <r_epik_Ionization_Penalty_Charging>  (1) 
0

>  <r_epik_Ionization_Penalty_Neutral>  (1) 
3.9236796398539443e-05

>  <r_epik_State_Penalty>  (1) 
-0

>  <r_glide_ring_energy>  (1) 
0

>  <r_i_docking_score>  (1) 
-4.993560951766729

>  <r_i_glide_ecoul>  (1) 
-9.6955737648797289

>  <r_i_glide_eff_state_penalty>  (1) 
-0

>  <r_i_glide_einternal>  (1) 
0.049653827025929242

>  <r_i_glide_emodel>  (1) 
-25.380634475907168

>  <r_i_glide_emodel_strain>  (1) 
0

>  <r_i_glide_energy>  (1) 
-18.662698002075665

>  <r_i_glide_erotb>  (1) 
0

>  <r_i_glide_esite>  (1) 
-0.18051888306321021

>  <r_i_glide_evdw>  (1) 
-8.9671242371959359

>  <r_i_glide_gscore>  (1) 
-4.993560951766729

>  <r_i_glide_gscore_strain>  (1) 
0

>  <r_i_glide_hbond>  (1) 
-0.45599999999999996

>  <r_i_glide_ligand_efficiency>  (1) 
-0.71336585025238985

>  <r_i_glide_ligand_efficiency_ln>  (1) 
-1.6950825718048632

>  <r_i_glide_ligand_efficiency_sa>  (1) 
-1.3646197796727353

>  <r_i_glide_lipo>  (1) 
-0.20443728869125508

>  <r_i_glide_metal>  (1) 
-0

>  <r_i_glide_rewards>  (1) 
-2.2499125034205076

>  <r_lp_Energy>  (1) 
8.3220650000000003

>  <r_lp_tautomer_probability>  (1) 
1

>  <s_epik_Chemistry_Notes>  (1) 
This compound has an ester and may undergo hydrolysis at high or low pH.

>  <s_epik_cmdline>  (1) 
J2VwaWtfcHl0aG9uJywgJy1waHQnLCAnMS4wJywgJy1waCcsICc3LjQnLCAnLXRuJywgJzgnLCAnLW1hJywgJzUwMCcsICctaW1hZScsICc8aW5maWxlLm1hZT4nLCAnLW9tYWUnLCAnPG91dGZpbGUubWFlPic=

>  <s_epik_input>  (1) 
W0NIM11PQyg9TylDKD1PKVtOSDJd

>  <s_glide_docking_method>  (1) 
confgen

>  <s_i_glide_gridfile>  (1) 
gpcr_5ht2c_6bqh_protein_autoprepared_prepared

>  <s_lp_Force_Field>  (1) 
S-OPLS

>  <s_lp_Variant>  (1) 
Pocket2Mol_46_num_sample_100-1

>  <s_m_source_file>  (1) 
generated__ligand_Pocket2Mol_2026-05-06_prepared.sdf

>  <GenAI_Model>  (1) 
Pocket2Mol

>  <Protein>  (1) 
GPCR_5HT2C

$$$$
Pocket2Mol_4_num_sample_100
     RDKit          3D

  0  0  0  0  0  0  0  0  0  0999 V3000
M  V30 BEGIN CTAB
M  V30 COUNTS 9 9 0 0 1
M  V30 BEGIN ATOM
M  V30 1 C 38.680534 28.044995 52.220880 0
M  V30 2 C 39.467390 28.183049 51.050479 0
M  V30 3 C 38.928002 29.071311 52.932439 0
M  V30 4 C 39.866788 29.839604 52.197276 0
M  V30 5 C 40.223965 29.305935 51.005661 0
M  V30 6 H 38.007341 27.234082 52.459945 0
M  V30 7 H 39.454638 27.444940 50.260996 0
M  V30 8 H 38.507620 29.309376 53.899155 0
M  V30 9 H 40.257263 30.776336 52.568034 0
M  V30 END ATOM
M  V30 BEGIN BOND
M  V30 1 1 2 1
M  V30 2 2 3 1
M  V30 3 1 4 3
M  V30 4 2 5 2
M  V30 5 2 5 4
M  V30 6 1 6 1
M  V30 7 1 7 2
M  V30 8 1 8 3
M  V30 9 1 9 4
M  V30 END BOND
M  V30 END CTAB
M  END
>  <i_epik_Tot_Q>  (1) 
0

>  <i_epik_Tot_abs_Q>  (1) 
0

>  <i_i_glide_confnum>  (1) 
1

>  <i_i_glide_lignum>  (1) 
7

>  <i_i_glide_posenum>  (1) 
59

>  <i_i_glide_rotatable_bonds>  (1) 
0

>  <i_lp_mmshare_version>  (1) 
72125

>  <i_m_source_file_index>  (1) 
5

>  <i_f3d_flags>  (1) 
0

>  <num_sample>  (1) 
100

>  <b_lp_Chiralities_Consistent>  (1) 
1

>  <r_epik_Charging_Adjusted_Penalty>  (1) 
0

>  <r_epik_Ionization_Penalty>  (1) 
0

>  <r_epik_Ionization_Penalty_Charging>  (1) 
0

>  <r_epik_Ionization_Penalty_Neutral>  (1) 
0

>  <r_epik_State_Penalty>  (1) 
-0

>  <r_glide_ring_energy>  (1) 
0

>  <r_i_docking_score>  (1) 
-4.9899118995832792

>  <r_i_glide_ecoul>  (1) 
-0.64999004760933854

>  <r_i_glide_eff_state_penalty>  (1) 
-0

>  <r_i_glide_einternal>  (1) 
0

>  <r_i_glide_emodel>  (1) 
-18.428453724924815

>  <r_i_glide_emodel_strain>  (1) 
0

>  <r_i_glide_energy>  (1) 
-14.137711184181533

>  <r_i_glide_erotb>  (1) 
0

>  <r_i_glide_esite>  (1) 
0

>  <r_i_glide_evdw>  (1) 
-13.487721136572194

>  <r_i_glide_gscore>  (1) 
-4.9899118995832792

>  <r_i_glide_gscore_strain>  (1) 
0

>  <r_i_glide_hbond>  (1) 
0

>  <r_i_glide_ligand_efficiency>  (1) 
-0.99798237991665584

>  <r_i_glide_ligand_efficiency_ln>  (1) 
-1.9122554615329619

>  <r_i_glide_ligand_efficiency_sa>  (1) 
-1.7065258648646466

>  <r_i_glide_lipo>  (1) 
-1.6407143771625994

>  <r_i_glide_metal>  (1) 
-0

>  <r_i_glide_rewards>  (1) 
-2.5773129584506691

>  <r_lp_Energy>  (1) 
-2.6088139999999997

>  <r_lp_tautomer_probability>  (1) 
1

>  <s_epik_cmdline>  (1) 
J2VwaWtfcHl0aG9uJywgJy1waHQnLCAnMS4wJywgJy1waCcsICc3LjQnLCAnLXRuJywgJzgnLCAnLW1hJywgJzUwMCcsICctaW1hZScsICc8aW5maWxlLm1hZT4nLCAnLW9tYWUnLCAnPG91dGZpbGUubWFlPic=

>  <s_epik_input>  (1) 
W0NIXTE9W0NIXVtDSF09Qz1bQ0hdMQ==

>  <s_glide_docking_method>  (1) 
confgen

>  <s_i_glide_gridfile>  (1) 
gpcr_5ht2c_6bqh_protein_autoprepared_prepared

>  <s_lp_Force_Field>  (1) 
S-OPLS

>  <s_lp_Variant>  (1) 
Pocket2Mol_4_num_sample_100-1

>  <s_m_source_file>  (1) 
generated__ligand_Pocket2Mol_2026-05-06_prepared.sdf

>  <GenAI_Model>  (1) 
Pocket2Mol

>  <Protein>  (1) 
GPCR_5HT2C

$$$$
Pocket2Mol_24_num_sample_100
     RDKit          3D

  0  0  0  0  0  0  0  0  0  0999 V3000
M  V30 BEGIN CTAB
M  V30 COUNTS 11 11 0 0 1
M  V30 BEGIN ATOM
M  V30 1 C 38.778432 28.852066 53.265842 0
M  V30 2 C 39.467422 29.948974 52.653535 0
M  V30 3 C 39.902316 29.621445 51.401401 0
M  V30 4 C 40.647687 30.462016 50.421231 0
M  V30 5 N 38.695215 27.756097 52.535621 0
M  V30 6 S 39.453526 27.994982 51.053502 0
M  V30 7 H 38.335387 28.852019 54.250914 0
M  V30 8 H 39.607175 30.903947 53.139352 0
M  V30 9 H 40.267403 31.483350 50.418291 0
M  V30 10 H 41.711998 30.492888 50.653522 0
M  V30 11 H 40.538825 30.064176 49.413186 0
M  V30 END ATOM
M  V30 BEGIN BOND
M  V30 1 1 2 1
M  V30 2 2 3 2
M  V30 3 1 4 3
M  V30 4 2 5 1
M  V30 5 1 6 3
M  V30 6 1 6 5
M  V30 7 1 7 1
M  V30 8 1 8 2
M  V30 9 1 9 4
M  V30 10 1 10 4
M  V30 11 1 11 4
M  V30 END BOND
M  V30 END CTAB
M  END
>  <i_epik_Tot_Q>  (1) 
0

>  <i_epik_Tot_abs_Q>  (1) 
0

>  <i_i_glide_confnum>  (1) 
1

>  <i_i_glide_lignum>  (1) 
27

>  <i_i_glide_posenum>  (1) 
52

>  <i_i_glide_rotatable_bonds>  (1) 
0

>  <i_lp_mmshare_version>  (1) 
72125

>  <i_m_source_file_index>  (1) 
25

>  <i_f3d_flags>  (1) 
0

>  <num_sample>  (1) 
100

>  <b_lp_Chiralities_Consistent>  (1) 
1

>  <r_epik_Charging_Adjusted_Penalty>  (1) 
0

>  <r_epik_Ionization_Penalty>  (1) 
2.7081824038816109e-08

>  <r_epik_Ionization_Penalty_Charging>  (1) 
0

>  <r_epik_Ionization_Penalty_Neutral>  (1) 
2.7081824038816109e-08

>  <r_epik_State_Penalty>  (1) 
-0

>  <r_glide_ring_energy>  (1) 
0

>  <r_i_docking_score>  (1) 
-4.983551212816554

>  <r_i_glide_ecoul>  (1) 
-0.16186489082890207

>  <r_i_glide_eff_state_penalty>  (1) 
-0

>  <r_i_glide_einternal>  (1) 
0

>  <r_i_glide_emodel>  (1) 
-23.885878001638851

>  <r_i_glide_emodel_strain>  (1) 
0.016230525208130508

>  <r_i_glide_energy>  (1) 
-18.336495364945694

>  <r_i_glide_erotb>  (1) 
0

>  <r_i_glide_esite>  (1) 
0

>  <r_i_glide_evdw>  (1) 
-18.174630474116793

>  <r_i_glide_gscore>  (1) 
-4.983551212816554

>  <r_i_glide_gscore_strain>  (1) 
0

>  <r_i_glide_hbond>  (1) 
0

>  <r_i_glide_ligand_efficiency>  (1) 
-0.83059186880275904

>  <r_i_glide_ligand_efficiency_ln>  (1) 
-1.785093331910341

>  <r_i_glide_ligand_efficiency_sa>  (1) 
-1.5092855890404244

>  <r_i_glide_lipo>  (1) 
-1.5262046266523541

>  <r_i_glide_metal>  (1) 
-0

>  <r_i_glide_rewards>  (1) 
-2.5243353288340251

>  <r_lp_Energy>  (1) 
1.924183

>  <r_lp_tautomer_probability>  (1) 
1

>  <s_epik_cmdline>  (1) 
J2VwaWtfcHl0aG9uJywgJy1waHQnLCAnMS4wJywgJy1waCcsICc3LjQnLCAnLXRuJywgJzgnLCAnLW1hJywgJzUwMCcsICctaW1hZScsICc8aW5maWxlLm1hZT4nLCAnLW9tYWUnLCAnPG91dGZpbGUubWFlPic=

>  <s_epik_input>  (1) 
czFuW2NIXVtjSF1jMVtDSDNd

>  <s_glide_docking_method>  (1) 
confgen

>  <s_i_glide_gridfile>  (1) 
gpcr_5ht2c_6bqh_protein_autoprepared_prepared

>  <s_lp_Force_Field>  (1) 
S-OPLS

>  <s_lp_Variant>  (1) 
Pocket2Mol_24_num_sample_100-1

>  <s_m_source_file>  (1) 
generated__ligand_Pocket2Mol_2026-05-06_prepared.sdf

>  <GenAI_Model>  (1) 
Pocket2Mol

>  <Protein>  (1) 
GPCR_5HT2C

$$$$
Pocket2Mol_48_num_sample_100
     RDKit          3D

  0  0  0  0  0  0  0  0  0  0999 V3000
M  V30 BEGIN CTAB
M  V30 COUNTS 13 13 0 0 1
M  V30 BEGIN ATOM
M  V30 1 C 37.964713 27.285863 53.314844 0
M  V30 2 C 38.569115 27.629978 52.142549 0
M  V30 3 C 38.095737 28.273549 54.180518 0
M  V30 4 C 38.881581 29.538764 53.661788 0
M  V30 5 C 39.089627 28.841621 52.253769 0
M  V30 6 C 39.867404 29.619062 51.148378 0
M  V30 7 O 40.267403 30.760012 51.461325 0
M  V30 8 O 40.011515 29.024323 50.059488 0 CHG=-1
M  V30 9 H 37.456996 26.351725 53.504331 0
M  V30 10 H 38.614057 27.010897 51.257550 0
M  V30 11 H 37.701118 28.245060 55.185195 0
M  V30 12 H 38.266289 30.436823 53.608423 0
M  V30 13 H 39.815770 29.712184 54.196341 0
M  V30 END ATOM
M  V30 BEGIN BOND
M  V30 1 1 2 1
M  V30 2 2 3 1
M  V30 3 1 4 3
M  V30 4 2 5 2
M  V30 5 1 5 4
M  V30 6 1 6 5
M  V30 7 2 7 6
M  V30 8 1 8 6
M  V30 9 1 9 1
M  V30 10 1 10 2
M  V30 11 1 11 3
M  V30 12 1 12 4
M  V30 13 1 13 4
M  V30 END BOND
M  V30 END CTAB
M  END
>  <i_epik_Tot_Q>  (1) 
-1

>  <i_epik_Tot_abs_Q>  (1) 
1

>  <i_i_glide_confnum>  (1) 
1

>  <i_i_glide_lignum>  (1) 
51

>  <i_i_glide_posenum>  (1) 
127

>  <i_i_glide_rotatable_bonds>  (1) 
1

>  <i_lp_mmshare_version>  (1) 
72125

>  <i_m_source_file_index>  (1) 
49

>  <i_f3d_flags>  (1) 
0

>  <num_sample>  (1) 
100

>  <b_lp_Chiralities_Consistent>  (1) 
1

>  <r_epik_Charging_Adjusted_Penalty>  (1) 
0.00046806641816521339

>  <r_epik_Ionization_Penalty>  (1) 
0.00046806641816521339

>  <r_epik_Ionization_Penalty_Charging>  (1) 
0.00046806641816521339

>  <r_epik_Ionization_Penalty_Neutral>  (1) 
0

>  <r_epik_State_Penalty>  (1) 
-0

>  <r_glide_ring_energy>  (1) 
0

>  <r_i_docking_score>  (1) 
-4.9749151661333615

>  <r_i_glide_ecoul>  (1) 
0.57130936578299674

>  <r_i_glide_eff_state_penalty>  (1) 
-0

>  <r_i_glide_einternal>  (1) 
0.0094134481007039916

>  <r_i_glide_emodel>  (1) 
-20.470017383068708

>  <r_i_glide_emodel_strain>  (1) 
0

>  <r_i_glide_energy>  (1) 
-15.238483634732303

>  <r_i_glide_erotb>  (1) 
0

>  <r_i_glide_esite>  (1) 
0

>  <r_i_glide_evdw>  (1) 
-15.809793000515299

>  <r_i_glide_gscore>  (1) 
-4.9749151661333615

>  <r_i_glide_gscore_strain>  (1) 
0

>  <r_i_glide_hbond>  (1) 
0

>  <r_i_glide_ligand_efficiency>  (1) 
-0.62186439576667019

>  <r_i_glide_ligand_efficiency_ln>  (1) 
-1.6155251199928753

>  <r_i_glide_ligand_efficiency_sa>  (1) 
-1.2437287915333406

>  <r_i_glide_lipo>  (1) 
-1.5026428646522783

>  <r_i_glide_metal>  (1) 
-0

>  <r_i_glide_rewards>  (1) 
-2.7674790563227676

>  <r_lp_Energy>  (1) 
4.7151909999999999

>  <r_lp_tautomer_probability>  (1) 
1

>  <s_epik_cmdline>  (1) 
J2VwaWtfcHl0aG9uJywgJy1waHQnLCAnMS4wJywgJy1waCcsICc3LjQnLCAnLXRuJywgJzgnLCAnLW1hJywgJzUwMCcsICctaW1hZScsICc8aW5maWxlLm1hZT4nLCAnLW9tYWUnLCAnPG91dGZpbGUubWFlPic=

>  <s_epik_input>  (1) 
W0NIMl0xW0NIXT1bQ0hdW0NIXT1DMUMoPU8pW09IXQ==

>  <s_glide_docking_method>  (1) 
confgen

>  <s_i_glide_gridfile>  (1) 
gpcr_5ht2c_6bqh_protein_autoprepared_prepared

>  <s_lp_Force_Field>  (1) 
S-OPLS

>  <s_lp_Variant>  (1) 
Pocket2Mol_48_num_sample_100-1

>  <s_m_source_file>  (1) 
generated__ligand_Pocket2Mol_2026-05-06_prepared.sdf

>  <GenAI_Model>  (1) 
Pocket2Mol

>  <Protein>  (1) 
GPCR_5HT2C

$$$$
Pocket2Mol_0_num_sample_100
     RDKit          3D

  0  0  0  0  0  0  0  0  0  0999 V3000
M  V30 BEGIN CTAB
M  V30 COUNTS 19 19 0 0 1
M  V30 BEGIN ATOM
M  V30 1 C 37.863592 29.401277 54.595647 0
M  V30 2 C 38.612813 29.151693 53.301183 0
M  V30 3 C 38.408913 27.908477 52.656460 0
M  V30 4 C 39.467403 30.108571 52.674025 0
M  V30 5 C 40.086071 29.809078 51.444623 0
M  V30 6 C 39.867402 28.569889 50.826576 0
M  V30 7 C 39.035405 27.621421 51.431577 0
M  V30 8 C 38.036945 30.380305 55.539473 0
M  V30 9 C 39.091101 31.412864 55.551981 0
M  V30 10 N 39.067397 32.387478 56.351276 0
M  V30 11 H 37.067404 28.699270 54.781914 0
M  V30 12 H 37.758325 27.171994 53.105990 0
M  V30 13 H 39.613252 31.076336 53.082975 0
M  V30 14 H 40.717835 30.544490 50.967225 0
M  V30 15 H 40.329185 28.350565 49.879352 0
M  V30 16 H 38.865437 26.670172 50.949316 0
M  V30 17 H 37.361862 30.425578 56.383637 0
M  V30 18 H 39.905493 31.279903 54.863433 0
M  V30 19 H 39.861424 33.002665 56.254140 0
M  V30 END ATOM
M  V30 BEGIN BOND
M  V30 1 1 2 1
M  V30 2 1 3 2
M  V30 3 2 4 2
M  V30 4 1 5 4
M  V30 5 2 6 5
M  V30 6 2 7 3
M  V30 7 1 7 6
M  V30 8 2 8 1
M  V30 9 1 9 8
M  V30 10 2 10 9
M  V30 11 1 11 1
M  V30 12 1 12 3
M  V30 13 1 13 4
M  V30 14 1 14 5
M  V30 15 1 15 6
M  V30 16 1 16 7
M  V30 17 1 17 8
M  V30 18 1 18 9
M  V30 19 1 19 10
M  V30 END BOND
M  V30 END CTAB
M  END
>  <i_epik_Tot_Q>  (1) 
0

>  <i_epik_Tot_abs_Q>  (1) 
0

>  <i_i_glide_confnum>  (1) 
1

>  <i_i_glide_lignum>  (1) 
2

>  <i_i_glide_posenum>  (1) 
187

>  <i_i_glide_rotatable_bonds>  (1) 
2

>  <i_lp_mmshare_version>  (1) 
72125

>  <i_m_source_file_index>  (1) 
1

>  <i_f3d_flags>  (1) 
0

>  <num_sample>  (1) 
100

>  <b_lp_Chiralities_Consistent>  (1) 
1

>  <r_epik_Charging_Adjusted_Penalty>  (1) 
0

>  <r_epik_Ionization_Penalty>  (1) 
0

>  <r_epik_Ionization_Penalty_Charging>  (1) 
0

>  <r_epik_Ionization_Penalty_Neutral>  (1) 
0

>  <r_epik_State_Penalty>  (1) 
-0

>  <r_glide_ring_energy>  (1) 
0

>  <r_i_docking_score>  (1) 
-4.971539736553118

>  <r_i_glide_ecoul>  (1) 
-0.45766251330096597

>  <r_i_glide_eff_state_penalty>  (1) 
-0

>  <r_i_glide_einternal>  (1) 
0.019334794109270526

>  <r_i_glide_emodel>  (1) 
-28.770984385442709

>  <r_i_glide_emodel_strain>  (1) 
0

>  <r_i_glide_energy>  (1) 
-21.581490665929852

>  <r_i_glide_erotb>  (1) 
0.80789427267668723

>  <r_i_glide_esite>  (1) 
0

>  <r_i_glide_evdw>  (1) 
-21.123828152628885

>  <r_i_glide_gscore>  (1) 
-4.971539736553118

>  <r_i_glide_gscore_strain>  (1) 
0

>  <r_i_glide_hbond>  (1) 
0

>  <r_i_glide_ligand_efficiency>  (1) 
-0.49715397365531178

>  <r_i_glide_ligand_efficiency_ln>  (1) 
-1.5053479612378549

>  <r_i_glide_ligand_efficiency_sa>  (1) 
-1.071085767130201

>  <r_i_glide_lipo>  (1) 
-2.0088668702689576

>  <r_i_glide_metal>  (1) 
-0

>  <r_i_glide_rewards>  (1) 
-2.6457263543342582

>  <r_lp_Energy>  (1) 
13.405619999999999

>  <r_lp_tautomer_probability>  (1) 
1

>  <s_epik_Chemistry_Notes>  (1) 
This compound has an imine and may undergo hydrolysis.

>  <s_epik_cmdline>  (1) 
J2VwaWtfcHl0aG9uJywgJy1waHQnLCAnMS4wJywgJy1waCcsICc3LjQnLCAnLXRuJywgJzgnLCAnLW1hJywgJzUwMCcsICctaW1hZScsICc8aW5maWxlLm1hZT4nLCAnLW9tYWUnLCAnPG91dGZpbGUubWFlPic=

>  <s_epik_input>  (1) 
W0hdL049W0NIXS9bQ0hdPVtDSF1cYzFbY0hdW2NIXVtjSF1bY0hdW2NIXTE=

>  <s_glide_docking_method>  (1) 
confgen

>  <s_i_glide_gridfile>  (1) 
gpcr_5ht2c_6bqh_protein_autoprepared_prepared

>  <s_lp_Force_Field>  (1) 
S-OPLS

>  <s_lp_Variant>  (1) 
Pocket2Mol_0_num_sample_100-2

>  <s_m_source_file>  (1) 
generated__ligand_Pocket2Mol_2026-05-06_prepared.sdf

>  <GenAI_Model>  (1) 
Pocket2Mol

>  <Protein>  (1) 
GPCR_5HT2C

$$$$
Pocket2Mol_53_num_sample_100
     RDKit          3D

  0  0  0  0  0  0  0  0  0  0999 V3000
M  V30 BEGIN CTAB
M  V30 COUNTS 17 17 0 0 1
M  V30 BEGIN ATOM
M  V30 1 C 40.825274 30.224744 50.200478 0
M  V30 2 C 39.980156 29.631655 51.308687 0
M  V30 3 C 39.867401 30.290582 52.551734 0
M  V30 4 C 39.065253 29.718297 53.563443 0
M  V30 5 C 38.395958 28.502891 53.303361 0
M  V30 6 C 39.292115 28.417571 51.112920 0
M  V30 7 N 37.585745 27.889953 54.253492 0
M  V30 8 N 38.534286 27.906303 52.102942 0 CHG=1
M  V30 9 H 40.773648 29.621455 49.293730 0
M  V30 10 H 40.473369 31.226063 49.953708 0
M  V30 11 H 41.867607 30.297102 50.510723 0
M  V30 12 H 40.382481 31.221443 52.725595 0
M  V30 13 H 38.962530 30.208596 54.521247 0
M  V30 14 H 39.320720 27.847026 50.201376 0
M  V30 15 H 37.447451 28.294505 55.168849 0
M  V30 16 H 37.109053 27.021136 54.060734 0
M  V30 17 H 38.039757 27.027850 51.932287 0
M  V30 END ATOM
M  V30 BEGIN BOND
M  V30 1 1 2 1
M  V30 2 1 3 2
M  V30 3 2 4 3
M  V30 4 1 5 4
M  V30 5 2 6 2
M  V30 6 1 7 5
M  V30 7 2 8 5
M  V30 8 1 8 6
M  V30 9 1 9 1
M  V30 10 1 10 1
M  V30 11 1 11 1
M  V30 12 1 12 3
M  V30 13 1 13 4
M  V30 14 1 14 6
M  V30 15 1 15 7
M  V30 16 1 16 7
M  V30 17 1 17 8
M  V30 END BOND
M  V30 END CTAB
M  END
>  <i_epik_Tot_Q>  (1) 
1

>  <i_epik_Tot_abs_Q>  (1) 
1

>  <i_i_glide_confnum>  (1) 
1

>  <i_i_glide_lignum>  (1) 
57

>  <i_i_glide_posenum>  (1) 
158

>  <i_i_glide_rotatable_bonds>  (1) 
0

>  <i_lp_mmshare_version>  (1) 
72125

>  <i_m_source_file_index>  (1) 
54

>  <i_f3d_flags>  (1) 
0

>  <num_sample>  (1) 
100

>  <b_lp_Chiralities_Consistent>  (1) 
1

>  <r_epik_Charging_Adjusted_Penalty>  (1) 
0.93551857814206563

>  <r_epik_Ionization_Penalty>  (1) 
0.46776012796604682

>  <r_epik_Ionization_Penalty_Charging>  (1) 
0.46775928907103281

>  <r_epik_Ionization_Penalty_Neutral>  (1) 
8.3889501401179816e-07

>  <r_epik_State_Penalty>  (1) 
0.46775928907103276

>  <r_glide_ring_energy>  (1) 
0

>  <r_i_docking_score>  (1) 
-4.9684889627394844

>  <r_i_glide_ecoul>  (1) 
-1.9608958758095505

>  <r_i_glide_eff_state_penalty>  (1) 
0.46775928907103276

>  <r_i_glide_einternal>  (1) 
0

>  <r_i_glide_emodel>  (1) 
-27.13952456193114

>  <r_i_glide_emodel_strain>  (1) 
0

>  <r_i_glide_energy>  (1) 
-17.726155265623355

>  <r_i_glide_erotb>  (1) 
0

>  <r_i_glide_esite>  (1) 
0

>  <r_i_glide_evdw>  (1) 
-15.765259389813803

>  <r_i_glide_gscore>  (1) 
-5.4362482518105173

>  <r_i_glide_gscore_strain>  (1) 
0

>  <r_i_glide_hbond>  (1) 
0

>  <r_i_glide_ligand_efficiency>  (1) 
-0.62106112034243555

>  <r_i_glide_ligand_efficiency_ln>  (1) 
-1.6134383119444355

>  <r_i_glide_ligand_efficiency_sa>  (1) 
-1.2421222406848713

>  <r_i_glide_lipo>  (1) 
-1.8567734646075524

>  <r_i_glide_metal>  (1) 
-0

>  <r_i_glide_rewards>  (1) 
-2.4970774363408421

>  <r_lp_Energy>  (1) 
10.43703

>  <r_lp_tautomer_probability>  (1) 
0.99999385203779767

>  <s_epik_cmdline>  (1) 
J2VwaWtfcHl0aG9uJywgJy1waHQnLCAnMS4wJywgJy1waCcsICc3LjQnLCAnLXRuJywgJzgnLCAnLW1hJywgJzUwMCcsICctaW1hZScsICc8aW5maWxlLm1hZT4nLCAnLW9tYWUnLCAnPG91dGZpbGUubWFlPic=

>  <s_epik_input>  (1) 
W0NIM11jMVtjSF1bY0hdYyhbTkgyXSluW2NIXTE=

>  <s_glide_docking_method>  (1) 
confgen

>  <s_i_glide_gridfile>  (1) 
gpcr_5ht2c_6bqh_protein_autoprepared_prepared

>  <s_lp_Force_Field>  (1) 
S-OPLS

>  <s_lp_Variant>  (1) 
Pocket2Mol_53_num_sample_100-2

>  <s_m_source_file>  (1) 
generated__ligand_Pocket2Mol_2026-05-06_prepared.sdf

>  <GenAI_Model>  (1) 
Pocket2Mol

>  <Protein>  (1) 
GPCR_5HT2C

$$$$
Pocket2Mol_37_num_sample_100
     RDKit          3D

  0  0  0  0  0  0  0  0  0  0999 V3000
M  V30 BEGIN CTAB
M  V30 COUNTS 11 11 0 0 1
M  V30 BEGIN ATOM
M  V30 1 C 39.383213 28.021964 51.056916 0
M  V30 2 O 38.553378 27.605446 52.071735 0
M  V30 3 C 38.313508 28.356334 53.236185 0
M  V30 4 O 37.560676 27.981686 54.131918 0
M  V30 5 C 39.067006 29.661189 53.276425 0
M  V30 6 C 40.026809 29.182783 51.118548 0
M  V30 7 C 39.867402 30.021224 52.256296 0
M  V30 8 H 39.438954 27.315978 50.244465 0
M  V30 9 H 38.945756 30.299687 54.139364 0
M  V30 10 H 40.671221 29.488112 50.307987 0
M  V30 11 H 40.396371 30.962540 52.301888 0
M  V30 END ATOM
M  V30 BEGIN BOND
M  V30 1 1 2 1
M  V30 2 1 3 2
M  V30 3 2 4 3
M  V30 4 1 5 3
M  V30 5 2 6 1
M  V30 6 2 7 5
M  V30 7 1 7 6
M  V30 8 1 8 1
M  V30 9 1 9 5
M  V30 10 1 10 6
M  V30 11 1 11 7
M  V30 END BOND
M  V30 END CTAB
M  END
>  <i_epik_Tot_Q>  (1) 
0

>  <i_epik_Tot_abs_Q>  (1) 
0

>  <i_i_glide_confnum>  (1) 
1

>  <i_i_glide_lignum>  (1) 
40

>  <i_i_glide_posenum>  (1) 
324

>  <i_i_glide_rotatable_bonds>  (1) 
0

>  <i_lp_mmshare_version>  (1) 
72125

>  <i_m_source_file_index>  (1) 
38

>  <i_f3d_flags>  (1) 
0

>  <num_sample>  (1) 
100

>  <b_lp_Chiralities_Consistent>  (1) 
1

>  <r_epik_Charging_Adjusted_Penalty>  (1) 
0

>  <r_epik_Ionization_Penalty>  (1) 
2.4984917370333966e-09

>  <r_epik_Ionization_Penalty_Charging>  (1) 
0

>  <r_epik_Ionization_Penalty_Neutral>  (1) 
2.4984917370333966e-09

>  <r_epik_State_Penalty>  (1) 
-0

>  <r_glide_ring_energy>  (1) 
0

>  <r_i_docking_score>  (1) 
-4.9654866352488316

>  <r_i_glide_ecoul>  (1) 
-0.36534240930861472

>  <r_i_glide_eff_state_penalty>  (1) 
-0

>  <r_i_glide_einternal>  (1) 
0

>  <r_i_glide_emodel>  (1) 
-22.841747167655011

>  <r_i_glide_emodel_strain>  (1) 
0

>  <r_i_glide_energy>  (1) 
-17.484808884158298

>  <r_i_glide_erotb>  (1) 
0

>  <r_i_glide_esite>  (1) 
0

>  <r_i_glide_evdw>  (1) 
-17.119466474849684

>  <r_i_glide_gscore>  (1) 
-4.9654866352488316

>  <r_i_glide_gscore_strain>  (1) 
0

>  <r_i_glide_hbond>  (1) 
0

>  <r_i_glide_ligand_efficiency>  (1) 
-0.70935523360697594

>  <r_i_glide_ligand_efficiency_ln>  (1) 
-1.6855526421405453

>  <r_i_glide_ligand_efficiency_sa>  (1) 
-1.3569477460295769

>  <r_i_glide_lipo>  (1) 
-1.5047119501100554

>  <r_i_glide_metal>  (1) 
-0

>  <r_i_glide_rewards>  (1) 
-2.5499999999999998

>  <r_lp_Energy>  (1) 
11.255118999999999

>  <r_lp_tautomer_probability>  (1) 
1

>  <s_epik_cmdline>  (1) 
J2VwaWtfcHl0aG9uJywgJy1waHQnLCAnMS4wJywgJy1waCcsICc3LjQnLCAnLXRuJywgJzgnLCAnLW1hJywgJzUwMCcsICctaW1hZScsICc8aW5maWxlLm1hZT4nLCAnLW9tYWUnLCAnPG91dGZpbGUubWFlPic=

>  <s_epik_input>  (1) 
W2NIXTFbY0hdW2NIXVtjSF1vYzE9Tw==

>  <s_glide_docking_method>  (1) 
confgen

>  <s_i_glide_gridfile>  (1) 
gpcr_5ht2c_6bqh_protein_autoprepared_prepared

>  <s_lp_Force_Field>  (1) 
S-OPLS

>  <s_lp_Variant>  (1) 
Pocket2Mol_37_num_sample_100-1

>  <s_m_source_file>  (1) 
generated__ligand_Pocket2Mol_2026-05-06_prepared.sdf

>  <GenAI_Model>  (1) 
Pocket2Mol

>  <Protein>  (1) 
GPCR_5HT2C

$$$$
Pocket2Mol_4_num_sample_100
     RDKit          3D

  0  0  0  0  0  0  0  0  0  0999 V3000
M  V30 BEGIN CTAB
M  V30 COUNTS 9 9 0 0 1
M  V30 BEGIN ATOM
M  V30 1 C 39.864454 30.197452 52.530573 0
M  V30 2 C 40.287893 29.955411 51.200931 0
M  V30 3 C 39.103992 29.221444 52.839856 0
M  V30 4 C 39.067401 28.379897 51.700570 0
M  V30 5 C 39.807450 28.814881 50.653502 0
M  V30 6 H 40.128482 31.039793 53.153951 0
M  V30 7 H 40.946587 30.632975 50.676436 0
M  V30 8 H 38.593191 29.067131 53.779227 0
M  V30 9 H 38.492127 27.465031 51.680362 0
M  V30 END ATOM
M  V30 BEGIN BOND
M  V30 1 1 2 1
M  V30 2 2 3 1
M  V30 3 1 4 3
M  V30 4 2 5 2
M  V30 5 2 5 4
M  V30 6 1 6 1
M  V30 7 1 7 2
M  V30 8 1 8 3
M  V30 9 1 9 4
M  V30 END BOND
M  V30 END CTAB
M  END
>  <i_epik_Tot_Q>  (1) 
0

>  <i_epik_Tot_abs_Q>  (1) 
0

>  <i_i_glide_confnum>  (1) 
1

>  <i_i_glide_lignum>  (1) 
7

>  <i_i_glide_posenum>  (1) 
226

>  <i_i_glide_rotatable_bonds>  (1) 
0

>  <i_lp_mmshare_version>  (1) 
72125

>  <i_m_source_file_index>  (1) 
5

>  <i_f3d_flags>  (1) 
0

>  <num_sample>  (1) 
100

>  <b_lp_Chiralities_Consistent>  (1) 
1

>  <r_epik_Charging_Adjusted_Penalty>  (1) 
0

>  <r_epik_Ionization_Penalty>  (1) 
0

>  <r_epik_Ionization_Penalty_Charging>  (1) 
0

>  <r_epik_Ionization_Penalty_Neutral>  (1) 
0

>  <r_epik_State_Penalty>  (1) 
-0

>  <r_glide_ring_energy>  (1) 
0

>  <r_i_docking_score>  (1) 
-4.9592058821858283

>  <r_i_glide_ecoul>  (1) 
-0.62729499096828634

>  <r_i_glide_eff_state_penalty>  (1) 
-0

>  <r_i_glide_einternal>  (1) 
0

>  <r_i_glide_emodel>  (1) 
-17.843605757094661

>  <r_i_glide_emodel_strain>  (1) 
0

>  <r_i_glide_energy>  (1) 
-13.57926681179663

>  <r_i_glide_erotb>  (1) 
0

>  <r_i_glide_esite>  (1) 
0

>  <r_i_glide_evdw>  (1) 
-12.951971820828344

>  <r_i_glide_gscore>  (1) 
-4.9592058821858283

>  <r_i_glide_gscore_strain>  (1) 
0

>  <r_i_glide_hbond>  (1) 
0

>  <r_i_glide_ligand_efficiency>  (1) 
-0.99184117643716563

>  <r_i_glide_ligand_efficiency_ln>  (1) 
-1.9004881697146221

>  <r_i_glide_ligand_efficiency_sa>  (1) 
-1.6960245546310713

>  <r_i_glide_lipo>  (1) 
-1.5624805023132862

>  <r_i_glide_metal>  (1) 
-0

>  <r_i_glide_rewards>  (1) 
-2.6550325401858825

>  <r_lp_Energy>  (1) 
-2.6088139999999997

>  <r_lp_tautomer_probability>  (1) 
1

>  <s_epik_cmdline>  (1) 
J2VwaWtfcHl0aG9uJywgJy1waHQnLCAnMS4wJywgJy1waCcsICc3LjQnLCAnLXRuJywgJzgnLCAnLW1hJywgJzUwMCcsICctaW1hZScsICc8aW5maWxlLm1hZT4nLCAnLW9tYWUnLCAnPG91dGZpbGUubWFlPic=

>  <s_epik_input>  (1) 
W0NIXTE9W0NIXVtDSF09Qz1bQ0hdMQ==

>  <s_glide_docking_method>  (1) 
confgen

>  <s_i_glide_gridfile>  (1) 
gpcr_5ht2c_6bqh_protein_autoprepared_prepared

>  <s_lp_Force_Field>  (1) 
S-OPLS

>  <s_lp_Variant>  (1) 
Pocket2Mol_4_num_sample_100-1

>  <s_m_source_file>  (1) 
generated__ligand_Pocket2Mol_2026-05-06_prepared.sdf

>  <GenAI_Model>  (1) 
Pocket2Mol

>  <Protein>  (1) 
GPCR_5HT2C

$$$$
Pocket2Mol_85_num_sample_100
     RDKit          3D

  0  0  0  0  0  0  0  0  0  0999 V3000
M  V30 BEGIN CTAB
M  V30 COUNTS 14 14 0 0 1
M  V30 BEGIN ATOM
M  V30 1 C 37.847255 30.580298 59.059061 0
M  V30 2 C 38.968294 30.226033 59.764137 0
M  V30 3 C 37.206106 31.490742 59.755061 0
M  V30 4 C 39.005711 30.934701 60.902360 0
M  V30 5 O 36.064100 32.109848 59.438479 0
M  V30 6 C 37.799615 31.940917 61.112121 0
M  V30 7 C 40.097791 30.877892 62.028093 0
M  V30 8 O 39.897945 31.622633 63.013264 0
M  V30 9 O 41.061997 30.101729 61.831809 0 CHG=-1
M  V30 10 H 37.536224 30.181768 58.094862 0
M  V30 11 H 39.705005 29.491880 59.450340 0
M  V30 12 H 35.867324 32.008355 58.496699 0
M  V30 13 H 38.146560 32.979356 61.090996 0
M  V30 14 H 37.180475 31.646177 61.961562 0
M  V30 END ATOM
M  V30 BEGIN BOND
M  V30 1 1 2 1
M  V30 2 2 3 1
M  V30 3 2 4 2
M  V30 4 1 5 3
M  V30 5 1 6 3
M  V30 6 1 6 4
M  V30 7 1 7 4
M  V30 8 2 8 7
M  V30 9 1 9 7
M  V30 10 1 10 1
M  V30 11 1 11 2
M  V30 12 1 12 5
M  V30 13 1 13 6
M  V30 14 1 14 6
M  V30 END BOND
M  V30 END CTAB
M  END
>  <i_epik_Tot_Q>  (1) 
-1

>  <i_epik_Tot_abs_Q>  (1) 
1

>  <i_i_glide_confnum>  (1) 
1

>  <i_i_glide_lignum>  (1) 
90

>  <i_i_glide_posenum>  (1) 
188

>  <i_i_glide_rotatable_bonds>  (1) 
2

>  <i_lp_mmshare_version>  (1) 
72125

>  <i_m_source_file_index>  (1) 
86

>  <i_f3d_flags>  (1) 
0

>  <num_sample>  (1) 
100

>  <b_lp_Chiralities_Consistent>  (1) 
1

>  <r_epik_Charging_Adjusted_Penalty>  (1) 
0.00019237637697373591

>  <r_epik_Ionization_Penalty>  (1) 
0.0032632994418700166

>  <r_epik_Ionization_Penalty_Charging>  (1) 
0.00019237637697373591

>  <r_epik_Ionization_Penalty_Neutral>  (1) 
0.0030709230648962808

>  <r_epik_State_Penalty>  (1) 
-0

>  <r_glide_ring_energy>  (1) 
0

>  <r_i_docking_score>  (1) 
-4.9540914927431077

>  <r_i_glide_ecoul>  (1) 
-8.5838744144326196

>  <r_i_glide_eff_state_penalty>  (1) 
-0

>  <r_i_glide_einternal>  (1) 
0.68312127235870346

>  <r_i_glide_emodel>  (1) 
-25.49935976256948

>  <r_i_glide_emodel_strain>  (1) 
0.0089319677076247217

>  <r_i_glide_energy>  (1) 
-18.709464313705972

>  <r_i_glide_erotb>  (1) 
0

>  <r_i_glide_esite>  (1) 
0

>  <r_i_glide_evdw>  (1) 
-10.125589899273352

>  <r_i_glide_gscore>  (1) 
-4.9540914927431077

>  <r_i_glide_gscore_strain>  (1) 
0

>  <r_i_glide_hbond>  (1) 
-0.32000000000000001

>  <r_i_glide_ligand_efficiency>  (1) 
-0.5504546103047897

>  <r_i_glide_ligand_efficiency_ln>  (1) 
-1.5494975010077736

>  <r_i_glide_ligand_efficiency_sa>  (1) 
-1.1449917302193333

>  <r_i_glide_lipo>  (1) 
-0.34584266890211723

>  <r_i_glide_metal>  (1) 
-0

>  <r_i_glide_rewards>  (1) 
-2.4943881667124295

>  <r_lp_Energy>  (1) 
1.821912

>  <r_lp_tautomer_probability>  (1) 
1

>  <s_epik_cmdline>  (1) 
J2VwaWtfcHl0aG9uJywgJy1waHQnLCAnMS4wJywgJy1waCcsICc3LjQnLCAnLXRuJywgJzgnLCAnLW1hJywgJzUwMCcsICctaW1hZScsICc8aW5maWxlLm1hZT4nLCAnLW9tYWUnLCAnPG91dGZpbGUubWFlPic=

>  <s_epik_input>  (1) 
W09IXUMxPVtDSF1bQ0hdPUMoW0NIMl0xKUMoPU8pW09IXQ==

>  <s_glide_docking_method>  (1) 
confgen

>  <s_i_glide_gridfile>  (1) 
gpcr_5ht2c_6bqh_protein_autoprepared_prepared

>  <s_lp_Force_Field>  (1) 
S-OPLS

>  <s_lp_Variant>  (1) 
Pocket2Mol_85_num_sample_100-1

>  <s_m_source_file>  (1) 
generated__ligand_Pocket2Mol_2026-05-06_prepared.sdf

>  <GenAI_Model>  (1) 
Pocket2Mol

>  <Protein>  (1) 
GPCR_5HT2C

$$$$
Pocket2Mol_16_num_sample_100
     RDKit          3D

  0  0  0  0  0  0  0  0  0  0999 V3000
M  V30 BEGIN CTAB
M  V30 COUNTS 18 18 0 0 1
M  V30 BEGIN ATOM
M  V30 1 C 38.926207 28.431441 51.846652 0
M  V30 2 C 39.867409 29.638727 51.765135 0
M  V30 3 C 38.716694 28.191427 53.341588 0
M  V30 4 C 39.708796 30.402919 53.092890 0
M  V30 5 C 38.710114 29.601735 53.938305 0
M  V30 6 C 37.467402 27.373386 53.667583 0
M  V30 7 H 39.322942 27.556536 51.329822 0
M  V30 8 H 37.972664 28.681898 51.381546 0
M  V30 9 H 40.897358 29.299183 51.650484 0
M  V30 10 H 39.636984 30.265133 50.902180 0
M  V30 11 H 39.581105 27.652227 53.727588 0
M  V30 12 H 40.667425 30.462616 53.607425 0
M  V30 13 H 39.368108 31.427454 52.939319 0
M  V30 14 H 37.716947 30.044413 53.848490 0
M  V30 15 H 38.969021 29.604812 54.997616 0
M  V30 16 H 36.566635 27.869082 53.307081 0
M  V30 17 H 37.363651 27.226471 54.742541 0
M  V30 18 H 37.509190 26.390731 53.198738 0
M  V30 END ATOM
M  V30 BEGIN BOND
M  V30 1 1 2 1
M  V30 2 1 3 1
M  V30 3 1 4 2
M  V30 4 1 5 3
M  V30 5 1 5 4
M  V30 6 1 6 3
M  V30 7 1 7 1
M  V30 8 1 8 1
M  V30 9 1 9 2
M  V30 10 1 10 2
M  V30 11 1 11 3
M  V30 12 1 12 4
M  V30 13 1 13 4
M  V30 14 1 14 5
M  V30 15 1 15 5
M  V30 16 1 16 6
M  V30 17 1 17 6
M  V30 18 1 18 6
M  V30 END BOND
M  V30 END CTAB
M  END
>  <i_epik_Tot_Q>  (1) 
0

>  <i_epik_Tot_abs_Q>  (1) 
0

>  <i_i_glide_confnum>  (1) 
1

>  <i_i_glide_lignum>  (1) 
19

>  <i_i_glide_posenum>  (1) 
17

>  <i_i_glide_rotatable_bonds>  (1) 
0

>  <i_lp_mmshare_version>  (1) 
72125

>  <i_m_source_file_index>  (1) 
17

>  <i_f3d_flags>  (1) 
0

>  <num_sample>  (1) 
100

>  <b_lp_Chiralities_Consistent>  (1) 
1

>  <r_epik_Charging_Adjusted_Penalty>  (1) 
0

>  <r_epik_Ionization_Penalty>  (1) 
0

>  <r_epik_Ionization_Penalty_Charging>  (1) 
0

>  <r_epik_Ionization_Penalty_Neutral>  (1) 
0

>  <r_epik_State_Penalty>  (1) 
-0

>  <r_glide_ring_energy>  (1) 
0

>  <r_i_docking_score>  (1) 
-4.9530558364807007

>  <r_i_glide_ecoul>  (1) 
-0.069245817390975489

>  <r_i_glide_eff_state_penalty>  (1) 
-0

>  <r_i_glide_einternal>  (1) 
0

>  <r_i_glide_emodel>  (1) 
-19.677343650544643

>  <r_i_glide_emodel_strain>  (1) 
0

>  <r_i_glide_energy>  (1) 
-14.849401331447055

>  <r_i_glide_erotb>  (1) 
0

>  <r_i_glide_esite>  (1) 
0

>  <r_i_glide_evdw>  (1) 
-14.78015551405608

>  <r_i_glide_gscore>  (1) 
-4.9530558364807007

>  <r_i_glide_gscore_strain>  (1) 
0

>  <r_i_glide_hbond>  (1) 
0

>  <r_i_glide_ligand_efficiency>  (1) 
-0.82550930608011674

>  <r_i_glide_ligand_efficiency_ln>  (1) 
-1.774169978135782

>  <r_i_glide_ligand_efficiency_sa>  (1) 
-1.5000499596527501

>  <r_i_glide_lipo>  (1) 
-1.7591984993798007

>  <r_i_glide_metal>  (1) 
-0

>  <r_i_glide_rewards>  (1) 
-2.4444626887894501

>  <r_lp_Energy>  (1) 
6.4120089999999994

>  <r_lp_tautomer_probability>  (1) 
1

>  <s_epik_cmdline>  (1) 
J2VwaWtfcHl0aG9uJywgJy1waHQnLCAnMS4wJywgJy1waCcsICc3LjQnLCAnLXRuJywgJzgnLCAnLW1hJywgJzUwMCcsICctaW1hZScsICc8aW5maWxlLm1hZT4nLCAnLW9tYWUnLCAnPG91dGZpbGUubWFlPic=

>  <s_epik_input>  (1) 
W0NIM11bQ0hdMVtDSDJdW0NIMl1bQ0gyXVtDSDJdMQ==

>  <s_glide_docking_method>  (1) 
confgen

>  <s_i_glide_gridfile>  (1) 
gpcr_5ht2c_6bqh_protein_autoprepared_prepared

>  <s_lp_Force_Field>  (1) 
S-OPLS

>  <s_lp_Variant>  (1) 
Pocket2Mol_16_num_sample_100-1

>  <s_m_source_file>  (1) 
generated__ligand_Pocket2Mol_2026-05-06_prepared.sdf

>  <GenAI_Model>  (1) 
Pocket2Mol

>  <Protein>  (1) 
GPCR_5HT2C

$$$$
Pocket2Mol_47_num_sample_100
     RDKit          3D

  0  0  0  0  0  0  0  0  0  0999 V3000
M  V30 BEGIN CTAB
M  V30 COUNTS 20 20 0 0 1
M  V30 BEGIN ATOM
M  V30 1 C 37.668489 30.026022 54.508704 0
M  V30 2 O 38.578977 30.904617 53.853536 0
M  V30 3 C 39.867304 30.389193 53.578691 0
M  V30 4 C 37.653086 28.570973 53.994446 0
M  V30 5 O 37.795955 28.471243 52.581683 0
M  V30 6 C 39.149658 28.362093 52.156941 0 CFG=1
M  V30 7 C 39.168193 27.768682 50.748913 0
M  V30 8 C 39.867450 29.720791 52.193320 0
M  V30 9 H 37.879066 30.030016 55.578677 0
M  V30 10 H 36.674944 30.461879 54.398676 0
M  V30 11 H 40.567136 31.221369 53.561139 0
M  V30 12 H 40.211406 29.721550 54.369799 0
M  V30 13 H 38.400382 27.972243 54.517126 0
M  V30 14 H 36.695038 28.120805 54.253291 0
M  V30 15 H 39.680648 27.653141 52.793929 0
M  V30 16 H 40.188821 27.621466 50.396504 0
M  V30 17 H 38.667146 26.801977 50.723914 0
M  V30 18 H 38.667369 28.421444 50.037362 0
M  V30 19 H 39.467390 30.409359 51.451868 0
M  V30 20 H 40.895904 29.557444 51.871306 0
M  V30 END ATOM
M  V30 BEGIN BOND
M  V30 1 1 2 1
M  V30 2 1 3 2
M  V30 3 1 4 1
M  V30 4 1 5 4
M  V30 5 1 6 5
M  V30 6 1 7 6
M  V30 7 1 8 3
M  V30 8 1 8 6
M  V30 9 1 9 1
M  V30 10 1 10 1
M  V30 11 1 11 3
M  V30 12 1 12 3
M  V30 13 1 13 4
M  V30 14 1 14 4
M  V30 15 1 6 15 CFG=1
M  V30 16 1 16 7
M  V30 17 1 17 7
M  V30 18 1 18 7
M  V30 19 1 19 8
M  V30 20 1 20 8
M  V30 END BOND
M  V30 END CTAB
M  END
>  <i_epik_Tot_Q>  (1) 
0

>  <i_epik_Tot_abs_Q>  (1) 
0

>  <i_i_glide_confnum>  (1) 
2

>  <i_i_glide_lignum>  (1) 
50

>  <i_i_glide_posenum>  (1) 
345

>  <i_i_glide_rotatable_bonds>  (1) 
0

>  <i_lp_mmshare_version>  (1) 
72125

>  <i_m_source_file_index>  (1) 
48

>  <i_f3d_flags>  (1) 
0

>  <num_sample>  (1) 
100

>  <b_lp_Chiralities_Consistent>  (1) 
1

>  <r_epik_Charging_Adjusted_Penalty>  (1) 
0

>  <r_epik_Ionization_Penalty>  (1) 
4.0259461194199272e-12

>  <r_epik_Ionization_Penalty_Charging>  (1) 
0

>  <r_epik_Ionization_Penalty_Neutral>  (1) 
4.0259461194199272e-12

>  <r_epik_State_Penalty>  (1) 
-0

>  <r_glide_ring_energy>  (1) 
0.00017015776906804109

>  <r_i_docking_score>  (1) 
-4.9431448359866472

>  <r_i_glide_ecoul>  (1) 
-0.075953743932766535

>  <r_i_glide_eff_state_penalty>  (1) 
-0

>  <r_i_glide_einternal>  (1) 
0

>  <r_i_glide_emodel>  (1) 
-22.867419443191473

>  <r_i_glide_emodel_strain>  (1) 
5.1662851774381124e-10

>  <r_i_glide_energy>  (1) 
-17.340810424328293

>  <r_i_glide_erotb>  (1) 
0

>  <r_i_glide_esite>  (1) 
0

>  <r_i_glide_evdw>  (1) 
-17.264856680395525

>  <r_i_glide_gscore>  (1) 
-4.9431448359866472

>  <r_i_glide_gscore_strain>  (1) 
0

>  <r_i_glide_hbond>  (1) 
0

>  <r_i_glide_ligand_efficiency>  (1) 
-0.6178931044983309

>  <r_i_glide_ligand_efficiency_ln>  (1) 
-1.6052082070991875

>  <r_i_glide_ligand_efficiency_sa>  (1) 
-1.235786208996662

>  <r_i_glide_lipo>  (1) 
-1.6380696906960284

>  <r_i_glide_metal>  (1) 
-0

>  <r_i_glide_rewards>  (1) 
-2.4304392496809277

>  <r_lp_Energy>  (1) 
6.6371139999999995

>  <r_lp_tautomer_probability>  (1) 
1

>  <s_epik_cmdline>  (1) 
J2VwaWtfcHl0aG9uJywgJy1waHQnLCAnMS4wJywgJy1waCcsICc3LjQnLCAnLXRuJywgJzgnLCAnLW1hJywgJzUwMCcsICctaW1hZScsICc8aW5maWxlLm1hZT4nLCAnLW9tYWUnLCAnPG91dGZpbGUubWFlPic=

>  <s_epik_input>  (1) 
W0NIMl0xW0NIMl1PW0NIMl1bQ0gyXU9bQ0BIXTFbQ0gzXQ==

>  <s_glide_docking_method>  (1) 
confgen

>  <s_i_glide_gridfile>  (1) 
gpcr_5ht2c_6bqh_protein_autoprepared_prepared

>  <s_lp_Force_Field>  (1) 
S-OPLS

>  <s_lp_Variant>  (1) 
Pocket2Mol_47_num_sample_100-1

>  <s_m_source_file>  (1) 
generated__ligand_Pocket2Mol_2026-05-06_prepared.sdf

>  <GenAI_Model>  (1) 
Pocket2Mol

>  <Protein>  (1) 
GPCR_5HT2C

$$$$
Pocket2Mol_7_num_sample_100
     RDKit          3D

  0  0  0  0  0  0  0  0  0  0999 V3000
M  V30 BEGIN CTAB
M  V30 COUNTS 13 13 0 0 1
M  V30 BEGIN ATOM
M  V30 1 C 39.067416 28.271335 51.506896 0
M  V30 2 C 39.889548 29.268310 50.789034 0
M  V30 3 C 39.018604 29.043597 52.907065 0
M  V30 4 C 39.833801 30.421425 52.865694 0
M  V30 5 C 40.267400 30.319791 51.453518 0
M  V30 6 H 38.083381 28.153801 51.053521 0
M  V30 7 H 39.571845 27.306700 51.568100 0
M  V30 8 H 40.150860 29.104019 49.753743 0
M  V30 9 H 39.416483 28.401626 53.693733 0
M  V30 10 H 37.980654 29.239571 53.178635 0
M  V30 11 H 40.667388 30.436066 53.563692 0
M  V30 12 H 39.200497 31.293195 53.035078 0
M  V30 13 H 40.869497 31.104407 51.017638 0
M  V30 END ATOM
M  V30 BEGIN BOND
M  V30 1 1 2 1
M  V30 2 1 3 1
M  V30 3 1 4 3
M  V30 4 2 5 2
M  V30 5 1 5 4
M  V30 6 1 6 1
M  V30 7 1 7 1
M  V30 8 1 8 2
M  V30 9 1 9 3
M  V30 10 1 10 3
M  V30 11 1 11 4
M  V30 12 1 12 4
M  V30 13 1 13 5
M  V30 END BOND
M  V30 END CTAB
M  END
>  <i_epik_Tot_Q>  (1) 
0

>  <i_epik_Tot_abs_Q>  (1) 
0

>  <i_i_glide_confnum>  (1) 
1

>  <i_i_glide_lignum>  (1) 
10

>  <i_i_glide_posenum>  (1) 
7

>  <i_i_glide_rotatable_bonds>  (1) 
0

>  <i_lp_mmshare_version>  (1) 
72125

>  <i_m_source_file_index>  (1) 
8

>  <i_f3d_flags>  (1) 
0

>  <num_sample>  (1) 
100

>  <b_lp_Chiralities_Consistent>  (1) 
1

>  <r_epik_Charging_Adjusted_Penalty>  (1) 
0

>  <r_epik_Ionization_Penalty>  (1) 
0

>  <r_epik_Ionization_Penalty_Charging>  (1) 
0

>  <r_epik_Ionization_Penalty_Neutral>  (1) 
0

>  <r_epik_State_Penalty>  (1) 
-0

>  <r_glide_ring_energy>  (1) 
0

>  <r_i_docking_score>  (1) 
-4.9425705191417215

>  <r_i_glide_ecoul>  (1) 
-0.29536099885845041

>  <r_i_glide_eff_state_penalty>  (1) 
-0

>  <r_i_glide_einternal>  (1) 
0

>  <r_i_glide_emodel>  (1) 
-17.78019102677019

>  <r_i_glide_emodel_strain>  (1) 
0

>  <r_i_glide_energy>  (1) 
-13.558910315312609

>  <r_i_glide_erotb>  (1) 
0

>  <r_i_glide_esite>  (1) 
0

>  <r_i_glide_evdw>  (1) 
-13.263549316454158

>  <r_i_glide_gscore>  (1) 
-4.9425705191417215

>  <r_i_glide_gscore_strain>  (1) 
0

>  <r_i_glide_hbond>  (1) 
0

>  <r_i_glide_ligand_efficiency>  (1) 
-0.98851410382834426

>  <r_i_glide_ligand_efficiency_ln>  (1) 
-1.8941130944676356

>  <r_i_glide_ligand_efficiency_sa>  (1) 
-1.6903353404971397

>  <r_i_glide_lipo>  (1) 
-1.6204558322654663

>  <r_i_glide_metal>  (1) 
-0

>  <r_i_glide_rewards>  (1) 
-2.6146330712247798

>  <r_lp_Energy>  (1) 
-2.1713199999999997

>  <r_lp_tautomer_probability>  (1) 
1

>  <s_epik_cmdline>  (1) 
J2VwaWtfcHl0aG9uJywgJy1waHQnLCAnMS4wJywgJy1waCcsICc3LjQnLCAnLXRuJywgJzgnLCAnLW1hJywgJzUwMCcsICctaW1hZScsICc8aW5maWxlLm1hZT4nLCAnLW9tYWUnLCAnPG91dGZpbGUubWFlPic=

>  <s_epik_input>  (1) 
W0NIMl0xW0NIXT1bQ0hdW0NIMl1bQ0gyXTE=

>  <s_glide_docking_method>  (1) 
confgen

>  <s_i_glide_gridfile>  (1) 
gpcr_5ht2c_6bqh_protein_autoprepared_prepared

>  <s_lp_Force_Field>  (1) 
S-OPLS

>  <s_lp_Variant>  (1) 
Pocket2Mol_7_num_sample_100-1

>  <s_m_source_file>  (1) 
generated__ligand_Pocket2Mol_2026-05-06_prepared.sdf

>  <GenAI_Model>  (1) 
Pocket2Mol

>  <Protein>  (1) 
GPCR_5HT2C

$$$$
Pocket2Mol_17_num_sample_100
     RDKit          3D

  0  0  0  0  0  0  0  0  0  0999 V3000
M  V30 BEGIN CTAB
M  V30 COUNTS 16 16 0 0 1
M  V30 BEGIN ATOM
M  V30 1 C 38.997671 29.306299 53.118772 0
M  V30 2 C 39.818819 30.565956 52.797728 0
M  V30 3 C 39.000368 28.467198 51.835624 0
M  V30 4 C 40.267385 30.430180 51.333623 0
M  V30 5 C 40.222039 28.934284 51.053528 0
M  V30 6 O 39.067460 27.090876 52.112054 0
M  V30 7 H 37.982121 29.548831 53.434300 0
M  V30 8 H 39.467400 28.766009 53.942074 0
M  V30 9 H 39.242642 31.478352 52.955417 0
M  V30 10 H 40.667461 30.622458 53.473108 0
M  V30 11 H 38.101612 28.674612 51.254592 0
M  V30 12 H 39.557622 30.941953 50.681943 0
M  V30 13 H 41.249351 30.861658 51.140390 0
M  V30 14 H 41.121660 28.464432 51.453325 0
M  V30 15 H 40.159000 28.702030 49.989940 0
M  V30 16 H 38.211029 26.800996 52.392016 0
M  V30 END ATOM
M  V30 BEGIN BOND
M  V30 1 1 2 1
M  V30 2 1 3 1
M  V30 3 1 4 2
M  V30 4 1 5 3
M  V30 5 1 5 4
M  V30 6 1 6 3
M  V30 7 1 7 1
M  V30 8 1 8 1
M  V30 9 1 9 2
M  V30 10 1 10 2
M  V30 11 1 11 3
M  V30 12 1 12 4
M  V30 13 1 13 4
M  V30 14 1 14 5
M  V30 15 1 15 5
M  V30 16 1 16 6
M  V30 END BOND
M  V30 END CTAB
M  END
>  <i_epik_Tot_Q>  (1) 
0

>  <i_epik_Tot_abs_Q>  (1) 
0

>  <i_i_glide_confnum>  (1) 
2

>  <i_i_glide_lignum>  (1) 
20

>  <i_i_glide_posenum>  (1) 
377

>  <i_i_glide_rotatable_bonds>  (1) 
1

>  <i_lp_mmshare_version>  (1) 
72125

>  <i_m_source_file_index>  (1) 
18

>  <i_f3d_flags>  (1) 
0

>  <num_sample>  (1) 
100

>  <b_lp_Chiralities_Consistent>  (1) 
1

>  <r_epik_Charging_Adjusted_Penalty>  (1) 
0

>  <r_epik_Ionization_Penalty>  (1) 
4.538991431931509e-07

>  <r_epik_Ionization_Penalty_Charging>  (1) 
0

>  <r_epik_Ionization_Penalty_Neutral>  (1) 
4.538991431931509e-07

>  <r_epik_State_Penalty>  (1) 
-0

>  <r_glide_ring_energy>  (1) 
0.076601694165865028

>  <r_i_docking_score>  (1) 
-4.9275563890067122

>  <r_i_glide_ecoul>  (1) 
-0.76359474142914185

>  <r_i_glide_eff_state_penalty>  (1) 
-0

>  <r_i_glide_einternal>  (1) 
0.37146265575895415

>  <r_i_glide_emodel>  (1) 
-19.943842459103685

>  <r_i_glide_emodel_strain>  (1) 
0.062125906066114567

>  <r_i_glide_energy>  (1) 
-15.394397171894035

>  <r_i_glide_erotb>  (1) 
0

>  <r_i_glide_esite>  (1) 
0

>  <r_i_glide_evdw>  (1) 
-14.630802430464893

>  <r_i_glide_gscore>  (1) 
-4.9275563890067122

>  <r_i_glide_gscore_strain>  (1) 
0

>  <r_i_glide_hbond>  (1) 
0

>  <r_i_glide_ligand_efficiency>  (1) 
-0.82125939816778537

>  <r_i_glide_ligand_efficiency_ln>  (1) 
-1.7650361513304809

>  <r_i_glide_ligand_efficiency_sa>  (1) 
-1.4923273644676125

>  <r_i_glide_lipo>  (1) 
-1.5562943420337283

>  <r_i_glide_metal>  (1) 
-0

>  <r_i_glide_rewards>  (1) 
-2.5251827142353678

>  <r_lp_Energy>  (1) 
8.9029089999999993

>  <r_lp_tautomer_probability>  (1) 
1

>  <s_epik_cmdline>  (1) 
J2VwaWtfcHl0aG9uJywgJy1waHQnLCAnMS4wJywgJy1waCcsICc3LjQnLCAnLXRuJywgJzgnLCAnLW1hJywgJzUwMCcsICctaW1hZScsICc8aW5maWxlLm1hZT4nLCAnLW9tYWUnLCAnPG91dGZpbGUubWFlPic=

>  <s_epik_input>  (1) 
W09IXVtDSF0xW0NIMl1bQ0gyXVtDSDJdW0NIMl0x

>  <s_glide_docking_method>  (1) 
confgen

>  <s_i_glide_gridfile>  (1) 
gpcr_5ht2c_6bqh_protein_autoprepared_prepared

>  <s_lp_Force_Field>  (1) 
S-OPLS

>  <s_lp_Variant>  (1) 
Pocket2Mol_17_num_sample_100-1

>  <s_m_source_file>  (1) 
generated__ligand_Pocket2Mol_2026-05-06_prepared.sdf

>  <GenAI_Model>  (1) 
Pocket2Mol

>  <Protein>  (1) 
GPCR_5HT2C

$$$$
Pocket2Mol_43_num_sample_100
     RDKit          3D

  0  0  0  0  0  0  0  0  0  0999 V3000
M  V30 BEGIN CTAB
M  V30 COUNTS 15 15 0 0 1
M  V30 BEGIN ATOM
M  V30 1 C 38.951873 27.683041 51.426210 0
M  V30 2 O 38.950970 27.498997 52.829372 0
M  V30 3 C 38.382098 28.589610 53.535163 0
M  V30 4 C 40.038108 28.676932 51.013365 0
M  V30 5 O 39.687543 30.021421 51.291985 0
M  V30 6 C 39.301481 29.794158 53.640218 0
M  V30 7 C 39.867402 30.421433 52.589991 0
M  V30 8 H 39.173519 26.715987 50.975293 0
M  V30 9 H 37.970550 27.980610 51.054086 0
M  V30 10 H 38.181355 28.244595 54.549505 0
M  V30 11 H 37.418142 28.882231 53.116734 0
M  V30 12 H 41.002958 28.421428 51.453526 0
M  V30 13 H 40.173333 28.611965 49.933528 0
M  V30 14 H 39.488859 30.164932 54.637435 0
M  V30 15 H 40.512696 31.282560 52.668128 0
M  V30 END ATOM
M  V30 BEGIN BOND
M  V30 1 1 2 1
M  V30 2 1 3 2
M  V30 3 1 4 1
M  V30 4 1 5 4
M  V30 5 1 6 3
M  V30 6 1 7 5
M  V30 7 2 7 6
M  V30 8 1 8 1
M  V30 9 1 9 1
M  V30 10 1 10 3
M  V30 11 1 11 3
M  V30 12 1 12 4
M  V30 13 1 13 4
M  V30 14 1 14 6
M  V30 15 1 15 7
M  V30 END BOND
M  V30 END CTAB
M  END
>  <i_epik_Tot_Q>  (1) 
0

>  <i_epik_Tot_abs_Q>  (1) 
0

>  <i_i_glide_confnum>  (1) 
2

>  <i_i_glide_lignum>  (1) 
46

>  <i_i_glide_posenum>  (1) 
303

>  <i_i_glide_rotatable_bonds>  (1) 
0

>  <i_lp_mmshare_version>  (1) 
72125

>  <i_m_source_file_index>  (1) 
44

>  <i_f3d_flags>  (1) 
0

>  <num_sample>  (1) 
100

>  <b_lp_Chiralities_Consistent>  (1) 
1

>  <r_epik_Charging_Adjusted_Penalty>  (1) 
0

>  <r_epik_Ionization_Penalty>  (1) 
5.6701613537443791e-14

>  <r_epik_Ionization_Penalty_Charging>  (1) 
0

>  <r_epik_Ionization_Penalty_Neutral>  (1) 
5.6701613537443791e-14

>  <r_epik_State_Penalty>  (1) 
-0

>  <r_glide_ring_energy>  (1) 
0.00079047383587571227

>  <r_i_docking_score>  (1) 
-4.9273049695976052

>  <r_i_glide_ecoul>  (1) 
-0.42206238885293929

>  <r_i_glide_eff_state_penalty>  (1) 
-0

>  <r_i_glide_einternal>  (1) 
0

>  <r_i_glide_emodel>  (1) 
-21.560664121442137

>  <r_i_glide_emodel_strain>  (1) 
0

>  <r_i_glide_energy>  (1) 
-16.297219663708038

>  <r_i_glide_erotb>  (1) 
0

>  <r_i_glide_esite>  (1) 
0

>  <r_i_glide_evdw>  (1) 
-15.875157274855098

>  <r_i_glide_gscore>  (1) 
-4.9273049695976052

>  <r_i_glide_gscore_strain>  (1) 
0

>  <r_i_glide_hbond>  (1) 
0

>  <r_i_glide_ligand_efficiency>  (1) 
-0.70390070994251508

>  <r_i_glide_ligand_efficiency_ln>  (1) 
-1.6725917357587026

>  <r_i_glide_ligand_efficiency_sa>  (1) 
-1.3465136176246597

>  <r_i_glide_lipo>  (1) 
-1.5127373453329216

>  <r_i_glide_metal>  (1) 
-0

>  <r_i_glide_rewards>  (1) 
-2.5575004021939876

>  <r_lp_Energy>  (1) 
7.3473649999999999

>  <r_lp_tautomer_probability>  (1) 
1

>  <s_epik_cmdline>  (1) 
J2VwaWtfcHl0aG9uJywgJy1waHQnLCAnMS4wJywgJy1waCcsICc3LjQnLCAnLXRuJywgJzgnLCAnLW1hJywgJzUwMCcsICctaW1hZScsICc8aW5maWxlLm1hZT4nLCAnLW9tYWUnLCAnPG91dGZpbGUubWFlPic=

>  <s_epik_input>  (1) 
W0NIMl0xT1tDSDJdW0NIXT1bQ0hdT1tDSDJdMQ==

>  <s_glide_docking_method>  (1) 
confgen

>  <s_i_glide_gridfile>  (1) 
gpcr_5ht2c_6bqh_protein_autoprepared_prepared

>  <s_lp_Force_Field>  (1) 
S-OPLS

>  <s_lp_Variant>  (1) 
Pocket2Mol_43_num_sample_100-1

>  <s_m_source_file>  (1) 
generated__ligand_Pocket2Mol_2026-05-06_prepared.sdf

>  <GenAI_Model>  (1) 
Pocket2Mol

>  <Protein>  (1) 
GPCR_5HT2C

$$$$
Pocket2Mol_67_num_sample_100
     RDKit          3D

  0  0  0  0  0  0  0  0  0  0999 V3000
M  V30 BEGIN CTAB
M  V30 COUNTS 12 12 0 0 1
M  V30 BEGIN ATOM
M  V30 1 C 38.524862 28.965040 53.839182 0
M  V30 2 O 38.602696 28.096602 52.773054 0
M  V30 3 C 39.317571 28.378900 51.592187 0
M  V30 4 O 39.395183 27.592405 50.653501 0
M  V30 5 C 39.976516 29.736463 51.599004 0
M  V30 6 C 39.125192 30.150462 53.814344 0
M  V30 7 O 40.667386 30.087953 50.504850 0
M  V30 8 C 39.867401 30.546013 52.665818 0
M  V30 9 H 37.939656 28.575437 54.659308 0
M  V30 10 H 39.048252 30.813846 54.663886 0
M  V30 11 H 40.999213 30.962267 50.643025 0
M  V30 12 H 40.345803 31.513359 52.651688 0
M  V30 END ATOM
M  V30 BEGIN BOND
M  V30 1 1 2 1
M  V30 2 1 3 2
M  V30 3 2 4 3
M  V30 4 1 5 3
M  V30 5 2 6 1
M  V30 6 1 7 5
M  V30 7 2 8 5
M  V30 8 1 8 6
M  V30 9 1 9 1
M  V30 10 1 10 6
M  V30 11 1 11 7
M  V30 12 1 12 8
M  V30 END BOND
M  V30 END CTAB
M  END
>  <i_epik_Tot_Q>  (1) 
0

>  <i_epik_Tot_abs_Q>  (1) 
0

>  <i_i_glide_confnum>  (1) 
1

>  <i_i_glide_lignum>  (1) 
72

>  <i_i_glide_posenum>  (1) 
374

>  <i_i_glide_rotatable_bonds>  (1) 
1

>  <i_lp_mmshare_version>  (1) 
72125

>  <i_m_source_file_index>  (1) 
68

>  <i_f3d_flags>  (1) 
0

>  <num_sample>  (1) 
100

>  <b_lp_Chiralities_Consistent>  (1) 
1

>  <r_epik_Charging_Adjusted_Penalty>  (1) 
0

>  <r_epik_Ionization_Penalty>  (1) 
0.00075652206847014289

>  <r_epik_Ionization_Penalty_Charging>  (1) 
0

>  <r_epik_Ionization_Penalty_Neutral>  (1) 
0.00075652206847014289

>  <r_epik_State_Penalty>  (1) 
-0

>  <r_glide_ring_energy>  (1) 
0

>  <r_i_docking_score>  (1) 
-4.9221064514149511

>  <r_i_glide_ecoul>  (1) 
-0.4628132259313219

>  <r_i_glide_eff_state_penalty>  (1) 
-0

>  <r_i_glide_einternal>  (1) 
0.0046608125344274054

>  <r_i_glide_emodel>  (1) 
-26.284187488218244

>  <r_i_glide_emodel_strain>  (1) 
1.2092566947785599e-09

>  <r_i_glide_energy>  (1) 
-19.433081801722981

>  <r_i_glide_erotb>  (1) 
0

>  <r_i_glide_esite>  (1) 
0

>  <r_i_glide_evdw>  (1) 
-18.97026857579166

>  <r_i_glide_gscore>  (1) 
-4.9221064514149511

>  <r_i_glide_gscore_strain>  (1) 
0

>  <r_i_glide_hbond>  (1) 
0

>  <r_i_glide_ligand_efficiency>  (1) 
-0.61526330642686888

>  <r_i_glide_ligand_efficiency_ln>  (1) 
-1.5983763240168349

>  <r_i_glide_ligand_efficiency_sa>  (1) 
-1.230526612853738

>  <r_i_glide_lipo>  (1) 
-1.5132192441361738

>  <r_i_glide_metal>  (1) 
-0

>  <r_i_glide_rewards>  (1) 
-2.3909517945994962

>  <r_lp_Energy>  (1) 
14.218883999999999

>  <r_lp_tautomer_probability>  (1) 
1

>  <s_epik_cmdline>  (1) 
J2VwaWtfcHl0aG9uJywgJy1waHQnLCAnMS4wJywgJy1waCcsICc3LjQnLCAnLXRuJywgJzgnLCAnLW1hJywgJzUwMCcsICctaW1hZScsICc8aW5maWxlLm1hZT4nLCAnLW9tYWUnLCAnPG91dGZpbGUubWFlPic=

>  <s_epik_input>  (1) 
Tz1jMW9bY0hdW2NIXVtjSF1jMVtPSF0=

>  <s_glide_docking_method>  (1) 
confgen

>  <s_i_glide_gridfile>  (1) 
gpcr_5ht2c_6bqh_protein_autoprepared_prepared

>  <s_lp_Force_Field>  (1) 
S-OPLS

>  <s_lp_Variant>  (1) 
Pocket2Mol_67_num_sample_100-1

>  <s_m_source_file>  (1) 
generated__ligand_Pocket2Mol_2026-05-06_prepared.sdf

>  <GenAI_Model>  (1) 
Pocket2Mol

>  <Protein>  (1) 
GPCR_5HT2C

$$$$
Pocket2Mol_4_num_sample_100
     RDKit          3D

  0  0  0  0  0  0  0  0  0  0999 V3000
M  V30 BEGIN CTAB
M  V30 COUNTS 9 9 0 0 1
M  V30 BEGIN ATOM
M  V30 1 C 40.250623 30.335126 51.029955 0
M  V30 2 C 39.952762 29.142504 50.324230 0
M  V30 3 C 39.867404 30.139920 52.228054 0
M  V30 4 C 39.339024 28.825609 52.257694 0
M  V30 5 C 39.381727 28.169016 51.072732 0
M  V30 6 H 40.710133 31.227910 50.632489 0
M  V30 7 H 40.172624 29.028514 49.272821 0
M  V30 8 H 39.938873 30.835568 53.056016 0
M  V30 9 H 38.940358 28.391599 53.163263 0
M  V30 END ATOM
M  V30 BEGIN BOND
M  V30 1 1 2 1
M  V30 2 2 3 1
M  V30 3 1 4 3
M  V30 4 2 5 2
M  V30 5 2 5 4
M  V30 6 1 6 1
M  V30 7 1 7 2
M  V30 8 1 8 3
M  V30 9 1 9 4
M  V30 END BOND
M  V30 END CTAB
M  END
>  <i_epik_Tot_Q>  (1) 
0

>  <i_epik_Tot_abs_Q>  (1) 
0

>  <i_i_glide_confnum>  (1) 
1

>  <i_i_glide_lignum>  (1) 
7

>  <i_i_glide_posenum>  (1) 
69

>  <i_i_glide_rotatable_bonds>  (1) 
0

>  <i_lp_mmshare_version>  (1) 
72125

>  <i_m_source_file_index>  (1) 
5

>  <i_f3d_flags>  (1) 
0

>  <num_sample>  (1) 
100

>  <b_lp_Chiralities_Consistent>  (1) 
1

>  <r_epik_Charging_Adjusted_Penalty>  (1) 
0

>  <r_epik_Ionization_Penalty>  (1) 
0

>  <r_epik_Ionization_Penalty_Charging>  (1) 
0

>  <r_epik_Ionization_Penalty_Neutral>  (1) 
0

>  <r_epik_State_Penalty>  (1) 
-0

>  <r_glide_ring_energy>  (1) 
0

>  <r_i_docking_score>  (1) 
-4.9175488146237107

>  <r_i_glide_ecoul>  (1) 
-0.34478722268487327

>  <r_i_glide_eff_state_penalty>  (1) 
-0

>  <r_i_glide_einternal>  (1) 
0

>  <r_i_glide_emodel>  (1) 
-17.889920570420959

>  <r_i_glide_emodel_strain>  (1) 
0

>  <r_i_glide_energy>  (1) 
-13.661401847104466

>  <r_i_glide_erotb>  (1) 
0

>  <r_i_glide_esite>  (1) 
0

>  <r_i_glide_evdw>  (1) 
-13.316614624419593

>  <r_i_glide_gscore>  (1) 
-4.9175488146237107

>  <r_i_glide_gscore_strain>  (1) 
0

>  <r_i_glide_hbond>  (1) 
0

>  <r_i_glide_ligand_efficiency>  (1) 
-0.98350976292474213

>  <r_i_glide_ligand_efficiency_ln>  (1) 
-1.8845241694356274

>  <r_i_glide_ligand_efficiency_sa>  (1) 
-1.6817780379230098

>  <r_i_glide_lipo>  (1) 
-1.6500000000000001

>  <r_i_glide_metal>  (1) 
-0

>  <r_i_glide_rewards>  (1) 
-2.5499999999999998

>  <r_lp_Energy>  (1) 
-2.6088139999999997

>  <r_lp_tautomer_probability>  (1) 
1

>  <s_epik_cmdline>  (1) 
J2VwaWtfcHl0aG9uJywgJy1waHQnLCAnMS4wJywgJy1waCcsICc3LjQnLCAnLXRuJywgJzgnLCAnLW1hJywgJzUwMCcsICctaW1hZScsICc8aW5maWxlLm1hZT4nLCAnLW9tYWUnLCAnPG91dGZpbGUubWFlPic=

>  <s_epik_input>  (1) 
W0NIXTE9W0NIXVtDSF09Qz1bQ0hdMQ==

>  <s_glide_docking_method>  (1) 
confgen

>  <s_i_glide_gridfile>  (1) 
gpcr_5ht2c_6bqh_protein_autoprepared_prepared

>  <s_lp_Force_Field>  (1) 
S-OPLS

>  <s_lp_Variant>  (1) 
Pocket2Mol_4_num_sample_100-1

>  <s_m_source_file>  (1) 
generated__ligand_Pocket2Mol_2026-05-06_prepared.sdf

>  <GenAI_Model>  (1) 
Pocket2Mol

>  <Protein>  (1) 
GPCR_5HT2C

$$$$
Pocket2Mol_67_num_sample_100
     RDKit          3D

  0  0  0  0  0  0  0  0  0  0999 V3000
M  V30 BEGIN CTAB
M  V30 COUNTS 12 12 0 0 1
M  V30 BEGIN ATOM
M  V30 1 C 39.127012 27.695684 51.053511 0
M  V30 2 O 38.564024 27.605437 52.305946 0
M  V30 3 C 38.667404 28.617777 53.277401 0
M  V30 4 O 38.153609 28.532208 54.391263 0
M  V30 5 C 39.467412 29.813423 52.815930 0
M  V30 6 C 39.821901 28.765820 50.678520 0
M  V30 7 O 39.617591 30.821430 53.686517 0
M  V30 8 C 39.996767 29.849635 51.580859 0
M  V30 9 H 38.938513 26.824217 50.442415 0
M  V30 10 H 40.251989 28.812035 49.689013 0
M  V30 11 H 40.113465 31.504217 53.260781 0
M  V30 12 H 40.564564 30.714290 51.267970 0
M  V30 END ATOM
M  V30 BEGIN BOND
M  V30 1 1 2 1
M  V30 2 1 3 2
M  V30 3 2 4 3
M  V30 4 1 5 3
M  V30 5 2 6 1
M  V30 6 1 7 5
M  V30 7 2 8 5
M  V30 8 1 8 6
M  V30 9 1 9 1
M  V30 10 1 10 6
M  V30 11 1 11 7
M  V30 12 1 12 8
M  V30 END BOND
M  V30 END CTAB
M  END
>  <i_epik_Tot_Q>  (1) 
0

>  <i_epik_Tot_abs_Q>  (1) 
0

>  <i_i_glide_confnum>  (1) 
1

>  <i_i_glide_lignum>  (1) 
72

>  <i_i_glide_posenum>  (1) 
378

>  <i_i_glide_rotatable_bonds>  (1) 
1

>  <i_lp_mmshare_version>  (1) 
72125

>  <i_m_source_file_index>  (1) 
68

>  <i_f3d_flags>  (1) 
0

>  <num_sample>  (1) 
100

>  <b_lp_Chiralities_Consistent>  (1) 
1

>  <r_epik_Charging_Adjusted_Penalty>  (1) 
0

>  <r_epik_Ionization_Penalty>  (1) 
0.00075652206847014289

>  <r_epik_Ionization_Penalty_Charging>  (1) 
0

>  <r_epik_Ionization_Penalty_Neutral>  (1) 
0.00075652206847014289

>  <r_epik_State_Penalty>  (1) 
-0

>  <r_glide_ring_energy>  (1) 
0

>  <r_i_docking_score>  (1) 
-4.9167946900077624

>  <r_i_glide_ecoul>  (1) 
-0.85674334217878556

>  <r_i_glide_eff_state_penalty>  (1) 
-0

>  <r_i_glide_einternal>  (1) 
0.0080242890024446734

>  <r_i_glide_emodel>  (1) 
-26.288705108054049

>  <r_i_glide_emodel_strain>  (1) 
0

>  <r_i_glide_energy>  (1) 
-19.446677141931303

>  <r_i_glide_erotb>  (1) 
0

>  <r_i_glide_esite>  (1) 
0

>  <r_i_glide_evdw>  (1) 
-18.589933799752519

>  <r_i_glide_gscore>  (1) 
-4.9167946900077624

>  <r_i_glide_gscore_strain>  (1) 
0

>  <r_i_glide_hbond>  (1) 
0

>  <r_i_glide_ligand_efficiency>  (1) 
-0.6145993362509703

>  <r_i_glide_ligand_efficiency_ln>  (1) 
-1.5966514134006422

>  <r_i_glide_ligand_efficiency_sa>  (1) 
-1.2291986725019408

>  <r_i_glide_lipo>  (1) 
-1.5087864986933188

>  <r_i_glide_metal>  (1) 
-0

>  <r_i_glide_rewards>  (1) 
-2.3500000000000001

>  <r_lp_Energy>  (1) 
14.218883999999999

>  <r_lp_tautomer_probability>  (1) 
1

>  <s_epik_cmdline>  (1) 
J2VwaWtfcHl0aG9uJywgJy1waHQnLCAnMS4wJywgJy1waCcsICc3LjQnLCAnLXRuJywgJzgnLCAnLW1hJywgJzUwMCcsICctaW1hZScsICc8aW5maWxlLm1hZT4nLCAnLW9tYWUnLCAnPG91dGZpbGUubWFlPic=

>  <s_epik_input>  (1) 
Tz1jMW9bY0hdW2NIXVtjSF1jMVtPSF0=

>  <s_glide_docking_method>  (1) 
confgen

>  <s_i_glide_gridfile>  (1) 
gpcr_5ht2c_6bqh_protein_autoprepared_prepared

>  <s_lp_Force_Field>  (1) 
S-OPLS

>  <s_lp_Variant>  (1) 
Pocket2Mol_67_num_sample_100-1

>  <s_m_source_file>  (1) 
generated__ligand_Pocket2Mol_2026-05-06_prepared.sdf

>  <GenAI_Model>  (1) 
Pocket2Mol

>  <Protein>  (1) 
GPCR_5HT2C

$$$$
Pocket2Mol_32_num_sample_100
     RDKit          3D

  0  0  0  0  0  0  0  0  0  0999 V3000
M  V30 BEGIN CTAB
M  V30 COUNTS 15 15 0 0 1
M  V30 BEGIN ATOM
M  V30 1 C 40.843281 30.487450 50.526652 0
M  V30 2 C 40.301054 29.528606 49.466815 0
M  V30 3 O 39.854474 28.444743 50.253562 0
M  V30 4 O 40.197101 30.090157 51.722179 0
M  V30 5 C 39.330203 29.073149 51.362276 0
M  V30 6 C 39.194317 28.073763 52.517405 0
M  V30 7 O 37.867382 27.621398 52.672435 0
M  V30 8 H 40.616902 31.523312 50.279161 0
M  V30 9 H 41.921964 30.384116 50.649741 0
M  V30 10 H 39.467408 29.984073 48.940854 0
M  V30 11 H 41.036147 29.238799 48.715313 0
M  V30 12 H 38.371156 29.516580 51.099466 0
M  V30 13 H 39.467404 28.580070 53.443842 0
M  V30 14 H 39.880884 27.238514 52.380000 0
M  V30 15 H 37.616721 27.113402 51.911585 0
M  V30 END ATOM
M  V30 BEGIN BOND
M  V30 1 1 2 1
M  V30 2 1 3 2
M  V30 3 1 4 1
M  V30 4 1 5 3
M  V30 5 1 5 4
M  V30 6 1 6 5
M  V30 7 1 7 6
M  V30 8 1 8 1
M  V30 9 1 9 1
M  V30 10 1 10 2
M  V30 11 1 11 2
M  V30 12 1 12 5
M  V30 13 1 13 6
M  V30 14 1 14 6
M  V30 15 1 15 7
M  V30 END BOND
M  V30 END CTAB
M  END
>  <i_epik_Tot_Q>  (1) 
0

>  <i_epik_Tot_abs_Q>  (1) 
0

>  <i_i_glide_confnum>  (1) 
1

>  <i_i_glide_lignum>  (1) 
35

>  <i_i_glide_posenum>  (1) 
257

>  <i_i_glide_rotatable_bonds>  (1) 
2

>  <i_lp_mmshare_version>  (1) 
72125

>  <i_m_source_file_index>  (1) 
33

>  <i_f3d_flags>  (1) 
0

>  <num_sample>  (1) 
100

>  <b_lp_Chiralities_Consistent>  (1) 
1

>  <r_epik_Charging_Adjusted_Penalty>  (1) 
0

>  <r_epik_Ionization_Penalty>  (1) 
3.4422651255072934e-07

>  <r_epik_Ionization_Penalty_Charging>  (1) 
0

>  <r_epik_Ionization_Penalty_Neutral>  (1) 
3.4422651255072934e-07

>  <r_epik_State_Penalty>  (1) 
-0

>  <r_glide_ring_energy>  (1) 
0

>  <r_i_docking_score>  (1) 
-4.9167660318165929

>  <r_i_glide_ecoul>  (1) 
-1.6193709516555965

>  <r_i_glide_eff_state_penalty>  (1) 
-0

>  <r_i_glide_einternal>  (1) 
0.2304024326145927

>  <r_i_glide_emodel>  (1) 
-20.423094123665425

>  <r_i_glide_emodel_strain>  (1) 
0.10826647751033036

>  <r_i_glide_energy>  (1) 
-15.167111690714121

>  <r_i_glide_erotb>  (1) 
0

>  <r_i_glide_esite>  (1) 
0

>  <r_i_glide_evdw>  (1) 
-13.547740739058524

>  <r_i_glide_gscore>  (1) 
-4.9167660318165929

>  <r_i_glide_gscore_strain>  (1) 
0

>  <r_i_glide_hbond>  (1) 
-0.14954055661214352

>  <r_i_glide_ligand_efficiency>  (1) 
-0.70239514740237041

>  <r_i_glide_ligand_efficiency_ln>  (1) 
-1.6690142546924889

>  <r_i_glide_ligand_efficiency_sa>  (1) 
-1.3436335800940031

>  <r_i_glide_lipo>  (1) 
-0.83997820188432759

>  <r_i_glide_metal>  (1) 
-0

>  <r_i_glide_rewards>  (1) 
-3.0069545936188553

>  <r_lp_Energy>  (1) 
-10.260740999999999

>  <r_lp_tautomer_probability>  (1) 
1

>  <s_epik_Chemistry_Notes>  (1) 
This compound contains an acetal/aminal-like group ( X-CH(R)-Y where X, Y are N, S, or O) that may be acid/base labile, releasing an aldehyde.

>  <s_epik_cmdline>  (1) 
J2VwaWtfcHl0aG9uJywgJy1waHQnLCAnMS4wJywgJy1waCcsICc3LjQnLCAnLXRuJywgJzgnLCAnLW1hJywgJzUwMCcsICctaW1hZScsICc8aW5maWxlLm1hZT4nLCAnLW9tYWUnLCAnPG91dGZpbGUubWFlPic=

>  <s_epik_input>  (1) 
TzFbQ0gyXVtDSDJdT1tDSF0xW0NIMl1bT0hd

>  <s_glide_docking_method>  (1) 
confgen

>  <s_i_glide_gridfile>  (1) 
gpcr_5ht2c_6bqh_protein_autoprepared_prepared

>  <s_lp_Force_Field>  (1) 
S-OPLS

>  <s_lp_Variant>  (1) 
Pocket2Mol_32_num_sample_100-1

>  <s_m_source_file>  (1) 
generated__ligand_Pocket2Mol_2026-05-06_prepared.sdf

>  <GenAI_Model>  (1) 
Pocket2Mol

>  <Protein>  (1) 
GPCR_5HT2C

$$$$
Pocket2Mol_53_num_sample_100
     RDKit          3D

  0  0  0  0  0  0  0  0  0  0999 V3000
M  V30 BEGIN CTAB
M  V30 COUNTS 16 16 0 0 1
M  V30 BEGIN ATOM
M  V30 1 C 39.048981 31.508213 54.935186 0
M  V30 2 C 39.016641 30.384613 53.919532 0
M  V30 3 C 38.136520 29.302403 54.077154 0
M  V30 4 C 38.145041 28.287017 53.108585 0
M  V30 5 C 39.033230 28.395507 52.019837 0
M  V30 6 C 39.867363 30.407626 52.796721 0
M  V30 7 N 39.067230 27.400569 51.053452 0
M  V30 8 N 39.879655 29.436497 51.853494 0
M  V30 9 H 38.433353 31.276982 55.805530 0
M  V30 10 H 40.069109 31.684688 55.277159 0
M  V30 11 H 38.667970 32.426411 54.488140 0
M  V30 12 H 37.468449 29.250977 54.924717 0
M  V30 13 H 37.483968 27.437129 53.198031 0
M  V30 14 H 40.555686 31.224578 52.648962 0
M  V30 15 H 38.428559 26.618574 51.079734 0
M  V30 16 H 39.663741 27.476604 50.244012 0
M  V30 END ATOM
M  V30 BEGIN BOND
M  V30 1 1 2 1
M  V30 2 1 3 2
M  V30 3 2 4 3
M  V30 4 1 5 4
M  V30 5 2 6 2
M  V30 6 1 7 5
M  V30 7 2 8 5
M  V30 8 1 8 6
M  V30 9 1 9 1
M  V30 10 1 10 1
M  V30 11 1 11 1
M  V30 12 1 12 3
M  V30 13 1 13 4
M  V30 14 1 14 6
M  V30 15 1 15 7
M  V30 16 1 16 7
M  V30 END BOND
M  V30 END CTAB
M  END
>  <i_epik_Tot_Q>  (1) 
0

>  <i_epik_Tot_abs_Q>  (1) 
0

>  <i_i_glide_confnum>  (1) 
1

>  <i_i_glide_lignum>  (1) 
56

>  <i_i_glide_posenum>  (1) 
260

>  <i_i_glide_rotatable_bonds>  (1) 
0

>  <i_lp_mmshare_version>  (1) 
72125

>  <i_m_source_file_index>  (1) 
54

>  <i_f3d_flags>  (1) 
0

>  <num_sample>  (1) 
100

>  <b_lp_Chiralities_Consistent>  (1) 
1

>  <r_epik_Charging_Adjusted_Penalty>  (1) 
0.35861937746939487

>  <r_epik_Ionization_Penalty>  (1) 
0.35867228033349524

>  <r_epik_Ionization_Penalty_Charging>  (1) 
0

>  <r_epik_Ionization_Penalty_Neutral>  (1) 
0.35867228033349524

>  <r_epik_State_Penalty>  (1) 
0.35861937746939487

>  <r_glide_ring_energy>  (1) 
0

>  <r_i_docking_score>  (1) 
-4.9118885228862244

>  <r_i_glide_ecoul>  (1) 
-1.242292727976841

>  <r_i_glide_eff_state_penalty>  (1) 
0.35861937746939487

>  <r_i_glide_einternal>  (1) 
0

>  <r_i_glide_emodel>  (1) 
-26.541970112976216

>  <r_i_glide_emodel_strain>  (1) 
0.0025529613795995942

>  <r_i_glide_energy>  (1) 
-19.799895643035693

>  <r_i_glide_erotb>  (1) 
0

>  <r_i_glide_esite>  (1) 
0

>  <r_i_glide_evdw>  (1) 
-18.557602915058851

>  <r_i_glide_gscore>  (1) 
-5.2705079003556197

>  <r_i_glide_gscore_strain>  (1) 
0

>  <r_i_glide_hbond>  (1) 
0

>  <r_i_glide_ligand_efficiency>  (1) 
-0.61398606536077804

>  <r_i_glide_ligand_efficiency_ln>  (1) 
-1.5950582131222366

>  <r_i_glide_ligand_efficiency_sa>  (1) 
-1.2279721307215563

>  <r_i_glide_lipo>  (1) 
-1.6775153831240501

>  <r_i_glide_metal>  (1) 
-0

>  <r_i_glide_rewards>  (1) 
-2.4787684622821011

>  <r_lp_Energy>  (1) 
5.8194469999999994

>  <r_lp_tautomer_probability>  (1) 
0.99999977220005165

>  <s_epik_cmdline>  (1) 
J2VwaWtfcHl0aG9uJywgJy1waHQnLCAnMS4wJywgJy1waCcsICc3LjQnLCAnLXRuJywgJzgnLCAnLW1hJywgJzUwMCcsICctaW1hZScsICc8aW5maWxlLm1hZT4nLCAnLW9tYWUnLCAnPG91dGZpbGUubWFlPic=

>  <s_epik_input>  (1) 
W0NIM11jMVtjSF1bY0hdYyhbTkgyXSluW2NIXTE=

>  <s_glide_docking_method>  (1) 
confgen

>  <s_i_glide_gridfile>  (1) 
gpcr_5ht2c_6bqh_protein_autoprepared_prepared

>  <s_lp_Force_Field>  (1) 
S-OPLS

>  <s_lp_Variant>  (1) 
Pocket2Mol_53_num_sample_100-1

>  <s_m_source_file>  (1) 
generated__ligand_Pocket2Mol_2026-05-06_prepared.sdf

>  <GenAI_Model>  (1) 
Pocket2Mol

>  <Protein>  (1) 
GPCR_5HT2C

$$$$
Pocket2Mol_24_num_sample_100
     RDKit          3D

  0  0  0  0  0  0  0  0  0  0999 V3000
M  V30 BEGIN CTAB
M  V30 COUNTS 11 11 0 0 1
M  V30 BEGIN ATOM
M  V30 1 C 38.785860 27.748428 51.583281 0
M  V30 2 C 38.687392 28.537957 52.772005 0
M  V30 3 C 39.467404 29.655086 52.687038 0
M  V30 4 C 39.655412 30.737893 53.692697 0
M  V30 5 N 39.589366 28.223866 50.653528 0
M  V30 6 S 40.267401 29.676428 51.155557 0
M  V30 7 H 38.267942 26.821438 51.392986 0
M  V30 8 H 38.067861 28.264225 53.613826 0
M  V30 9 H 39.092617 30.533001 54.603136 0
M  V30 10 H 40.705442 30.834359 53.963926 0
M  V30 11 H 39.312507 31.690756 53.293688 0
M  V30 END ATOM
M  V30 BEGIN BOND
M  V30 1 1 2 1
M  V30 2 2 3 2
M  V30 3 1 4 3
M  V30 4 2 5 1
M  V30 5 1 6 3
M  V30 6 1 6 5
M  V30 7 1 7 1
M  V30 8 1 8 2
M  V30 9 1 9 4
M  V30 10 1 10 4
M  V30 11 1 11 4
M  V30 END BOND
M  V30 END CTAB
M  END
>  <i_epik_Tot_Q>  (1) 
0

>  <i_epik_Tot_abs_Q>  (1) 
0

>  <i_i_glide_confnum>  (1) 
1

>  <i_i_glide_lignum>  (1) 
27

>  <i_i_glide_posenum>  (1) 
331

>  <i_i_glide_rotatable_bonds>  (1) 
0

>  <i_lp_mmshare_version>  (1) 
72125

>  <i_m_source_file_index>  (1) 
25

>  <i_f3d_flags>  (1) 
0

>  <num_sample>  (1) 
100

>  <b_lp_Chiralities_Consistent>  (1) 
1

>  <r_epik_Charging_Adjusted_Penalty>  (1) 
0

>  <r_epik_Ionization_Penalty>  (1) 
2.7081824038816109e-08

>  <r_epik_Ionization_Penalty_Charging>  (1) 
0

>  <r_epik_Ionization_Penalty_Neutral>  (1) 
2.7081824038816109e-08

>  <r_epik_State_Penalty>  (1) 
-0

>  <r_glide_ring_energy>  (1) 
0

>  <r_i_docking_score>  (1) 
-4.9101165259762301

>  <r_i_glide_ecoul>  (1) 
-0.65041463129957977

>  <r_i_glide_eff_state_penalty>  (1) 
-0

>  <r_i_glide_einternal>  (1) 
0

>  <r_i_glide_emodel>  (1) 
-23.908969432449886

>  <r_i_glide_emodel_strain>  (1) 
0

>  <r_i_glide_energy>  (1) 
-18.425367880776967

>  <r_i_glide_erotb>  (1) 
0

>  <r_i_glide_esite>  (1) 
0

>  <r_i_glide_evdw>  (1) 
-17.774953249477388

>  <r_i_glide_gscore>  (1) 
-4.9101165259762301

>  <r_i_glide_gscore_strain>  (1) 
0

>  <r_i_glide_hbond>  (1) 
0

>  <r_i_glide_ligand_efficiency>  (1) 
-0.81835275432937171

>  <r_i_glide_ligand_efficiency_ln>  (1) 
-1.7587892438792081

>  <r_i_glide_ligand_efficiency_sa>  (1) 
-1.4870456420928024

>  <r_i_glide_lipo>  (1) 
-1.5076017704470388

>  <r_i_glide_metal>  (1) 
-0

>  <r_i_glide_rewards>  (1) 
-2.4162048983603848

>  <r_lp_Energy>  (1) 
1.924183

>  <r_lp_tautomer_probability>  (1) 
1

>  <s_epik_cmdline>  (1) 
J2VwaWtfcHl0aG9uJywgJy1waHQnLCAnMS4wJywgJy1waCcsICc3LjQnLCAnLXRuJywgJzgnLCAnLW1hJywgJzUwMCcsICctaW1hZScsICc8aW5maWxlLm1hZT4nLCAnLW9tYWUnLCAnPG91dGZpbGUubWFlPic=

>  <s_epik_input>  (1) 
czFuW2NIXVtjSF1jMVtDSDNd

>  <s_glide_docking_method>  (1) 
confgen

>  <s_i_glide_gridfile>  (1) 
gpcr_5ht2c_6bqh_protein_autoprepared_prepared

>  <s_lp_Force_Field>  (1) 
S-OPLS

>  <s_lp_Variant>  (1) 
Pocket2Mol_24_num_sample_100-1

>  <s_m_source_file>  (1) 
generated__ligand_Pocket2Mol_2026-05-06_prepared.sdf

>  <GenAI_Model>  (1) 
Pocket2Mol

>  <Protein>  (1) 
GPCR_5HT2C

$$$$
Pocket2Mol_84_num_sample_100
     RDKit          3D

  0  0  0  0  0  0  0  0  0  0999 V3000
M  V30 BEGIN CTAB
M  V30 COUNTS 19 19 0 0 1
M  V30 BEGIN ATOM
M  V30 1 C 39.521630 30.592089 53.401707 0
M  V30 2 C 39.467380 29.610889 52.219867 0
M  V30 3 O 39.601729 29.920928 54.782130 0
M  V30 4 C 38.314094 29.194588 55.202884 0 CFG=1
M  V30 5 C 38.382245 28.889621 56.696547 0
M  V30 6 O 38.152389 28.821436 52.118991 0
M  V30 7 C 38.028048 27.717713 53.150418 0
M  V30 8 O 37.186333 30.021430 55.022366 0
M  V30 9 C 38.097873 27.878843 54.482069 0
M  V30 10 H 38.669415 31.270639 53.364285 0
M  V30 11 H 40.403139 31.221428 53.279338 0
M  V30 12 H 39.587600 30.185358 51.301372 0
M  V30 13 H 40.316770 28.928616 52.253624 0
M  V30 14 H 38.509742 29.812277 57.264081 0
M  V30 15 H 37.467508 28.397057 57.029351 0
M  V30 16 H 39.229376 28.234554 56.904095 0
M  V30 17 H 37.852436 26.726612 52.758907 0
M  V30 18 H 37.163895 30.638468 55.737498 0
M  V30 19 H 37.975925 27.011584 55.114043 0
M  V30 END ATOM
M  V30 BEGIN BOND
M  V30 1 1 2 1
M  V30 2 1 3 1
M  V30 3 1 4 3
M  V30 4 1 5 4
M  V30 5 1 6 2
M  V30 6 1 7 6
M  V30 7 1 4 8 CFG=1
M  V30 8 1 9 4
M  V30 9 2 9 7
M  V30 10 1 10 1
M  V30 11 1 11 1
M  V30 12 1 12 2
M  V30 13 1 13 2
M  V30 14 1 14 5
M  V30 15 1 15 5
M  V30 16 1 16 5
M  V30 17 1 17 7
M  V30 18 1 18 8
M  V30 19 1 19 9
M  V30 END BOND
M  V30 END CTAB
M  END
>  <i_epik_Tot_Q>  (1) 
0

>  <i_epik_Tot_abs_Q>  (1) 
0

>  <i_i_glide_confnum>  (1) 
1

>  <i_i_glide_lignum>  (1) 
89

>  <i_i_glide_posenum>  (1) 
233

>  <i_i_glide_rotatable_bonds>  (1) 
1

>  <i_lp_mmshare_version>  (1) 
72125

>  <i_m_source_file_index>  (1) 
85

>  <i_f3d_flags>  (1) 
0

>  <num_sample>  (1) 
100

>  <b_lp_Chiralities_Consistent>  (1) 
1

>  <r_epik_Charging_Adjusted_Penalty>  (1) 
0

>  <r_epik_Ionization_Penalty>  (1) 
7.9405632778621754e-05

>  <r_epik_Ionization_Penalty_Charging>  (1) 
0

>  <r_epik_Ionization_Penalty_Neutral>  (1) 
7.9405632778621754e-05

>  <r_epik_State_Penalty>  (1) 
-0

>  <r_glide_ring_energy>  (1) 
0

>  <r_i_docking_score>  (1) 
-4.9061420224114043

>  <r_i_glide_ecoul>  (1) 
-2.3317997198518121

>  <r_i_glide_eff_state_penalty>  (1) 
-0

>  <r_i_glide_einternal>  (1) 
0.1385624276484112

>  <r_i_glide_emodel>  (1) 
-25.702357736485666

>  <r_i_glide_emodel_strain>  (1) 
0

>  <r_i_glide_energy>  (1) 
-19.019901380607067

>  <r_i_glide_erotb>  (1) 
0

>  <r_i_glide_esite>  (1) 
0

>  <r_i_glide_evdw>  (1) 
-16.688101660755255

>  <r_i_glide_gscore>  (1) 
-4.9061420224114043

>  <r_i_glide_gscore_strain>  (1) 
0

>  <r_i_glide_hbond>  (1) 
0

>  <r_i_glide_ligand_efficiency>  (1) 
-0.54512689137904491

>  <r_i_glide_ligand_efficiency_ln>  (1) 
-1.534500284149253

>  <r_i_glide_ligand_efficiency_sa>  (1) 
-1.133909628268124

>  <r_i_glide_lipo>  (1) 
-1.1636607692084033

>  <r_i_glide_metal>  (1) 
-0

>  <r_i_glide_rewards>  (1) 
-2.5583062121874662

>  <r_lp_Energy>  (1) 
3.4776590000000001

>  <r_lp_tautomer_probability>  (1) 
1

>  <s_epik_cmdline>  (1) 
J2VwaWtfcHl0aG9uJywgJy1waHQnLCAnMS4wJywgJy1waCcsICc3LjQnLCAnLXRuJywgJzgnLCAnLW1hJywgJzUwMCcsICctaW1hZScsICc8aW5maWxlLm1hZT4nLCAnLW9tYWUnLCAnPG91dGZpbGUubWFlPic=

>  <s_epik_input>  (1) 
W0NIM11bQ0BAXTEoW09IXSlPW0NIMl1bQ0gyXU9bQ0hdPVtDSF0x

>  <s_glide_docking_method>  (1) 
confgen

>  <s_i_glide_gridfile>  (1) 
gpcr_5ht2c_6bqh_protein_autoprepared_prepared

>  <s_lp_Force_Field>  (1) 
S-OPLS

>  <s_lp_Variant>  (1) 
Pocket2Mol_84_num_sample_100-1

>  <s_m_source_file>  (1) 
generated__ligand_Pocket2Mol_2026-05-06_prepared.sdf

>  <GenAI_Model>  (1) 
Pocket2Mol

>  <Protein>  (1) 
GPCR_5HT2C

$$$$
Pocket2Mol_4_num_sample_100
     RDKit          3D

  0  0  0  0  0  0  0  0  0  0999 V3000
M  V30 BEGIN CTAB
M  V30 COUNTS 9 9 0 0 1
M  V30 BEGIN ATOM
M  V30 1 C 39.378637 28.542790 52.049694 0
M  V30 2 C 39.866809 29.873134 52.156358 0
M  V30 3 C 39.465945 28.237078 50.815579 0
M  V30 4 C 40.001417 29.375984 50.168156 0
M  V30 5 C 40.267173 30.421428 50.986311 0
M  V30 6 H 39.009072 27.918545 52.848882 0
M  V30 7 H 39.907408 30.398763 53.097028 0
M  V30 8 H 39.184317 27.300957 50.353964 0
M  V30 9 H 40.174135 29.398025 49.105557 0
M  V30 END ATOM
M  V30 BEGIN BOND
M  V30 1 1 2 1
M  V30 2 2 3 1
M  V30 3 1 4 3
M  V30 4 2 5 2
M  V30 5 2 5 4
M  V30 6 1 6 1
M  V30 7 1 7 2
M  V30 8 1 8 3
M  V30 9 1 9 4
M  V30 END BOND
M  V30 END CTAB
M  END
>  <i_epik_Tot_Q>  (1) 
0

>  <i_epik_Tot_abs_Q>  (1) 
0

>  <i_i_glide_confnum>  (1) 
1

>  <i_i_glide_lignum>  (1) 
7

>  <i_i_glide_posenum>  (1) 
257

>  <i_i_glide_rotatable_bonds>  (1) 
0

>  <i_lp_mmshare_version>  (1) 
72125

>  <i_m_source_file_index>  (1) 
5

>  <i_f3d_flags>  (1) 
0

>  <num_sample>  (1) 
100

>  <b_lp_Chiralities_Consistent>  (1) 
1

>  <r_epik_Charging_Adjusted_Penalty>  (1) 
0

>  <r_epik_Ionization_Penalty>  (1) 
0

>  <r_epik_Ionization_Penalty_Charging>  (1) 
0

>  <r_epik_Ionization_Penalty_Neutral>  (1) 
0

>  <r_epik_State_Penalty>  (1) 
-0

>  <r_glide_ring_energy>  (1) 
0

>  <r_i_docking_score>  (1) 
-4.9011448944032141

>  <r_i_glide_ecoul>  (1) 
-0.21341185037478175

>  <r_i_glide_eff_state_penalty>  (1) 
-0

>  <r_i_glide_einternal>  (1) 
0

>  <r_i_glide_emodel>  (1) 
-17.810487451508585

>  <r_i_glide_emodel_strain>  (1) 
0

>  <r_i_glide_energy>  (1) 
-13.596074187314713

>  <r_i_glide_erotb>  (1) 
0

>  <r_i_glide_esite>  (1) 
0

>  <r_i_glide_evdw>  (1) 
-13.382662336939932

>  <r_i_glide_gscore>  (1) 
-4.9011448944032141

>  <r_i_glide_gscore_strain>  (1) 
0

>  <r_i_glide_hbond>  (1) 
0

>  <r_i_glide_ligand_efficiency>  (1) 
-0.98022897888064286

>  <r_i_glide_ligand_efficiency_ln>  (1) 
-1.878237788701167

>  <r_i_glide_ligand_efficiency_sa>  (1) 
-1.6761679761213593

>  <r_i_glide_lipo>  (1) 
-1.6500000000000001

>  <r_i_glide_metal>  (1) 
-0

>  <r_i_glide_rewards>  (1) 
-2.5499999999999998

>  <r_lp_Energy>  (1) 
-2.6088139999999997

>  <r_lp_tautomer_probability>  (1) 
1

>  <s_epik_cmdline>  (1) 
J2VwaWtfcHl0aG9uJywgJy1waHQnLCAnMS4wJywgJy1waCcsICc3LjQnLCAnLXRuJywgJzgnLCAnLW1hJywgJzUwMCcsICctaW1hZScsICc8aW5maWxlLm1hZT4nLCAnLW9tYWUnLCAnPG91dGZpbGUubWFlPic=

>  <s_epik_input>  (1) 
W0NIXTE9W0NIXVtDSF09Qz1bQ0hdMQ==

>  <s_glide_docking_method>  (1) 
confgen

>  <s_i_glide_gridfile>  (1) 
gpcr_5ht2c_6bqh_protein_autoprepared_prepared

>  <s_lp_Force_Field>  (1) 
S-OPLS

>  <s_lp_Variant>  (1) 
Pocket2Mol_4_num_sample_100-1

>  <s_m_source_file>  (1) 
generated__ligand_Pocket2Mol_2026-05-06_prepared.sdf

>  <GenAI_Model>  (1) 
Pocket2Mol

>  <Protein>  (1) 
GPCR_5HT2C

$$$$
Pocket2Mol_16_num_sample_100
     RDKit          3D

  0  0  0  0  0  0  0  0  0  0999 V3000
M  V30 BEGIN CTAB
M  V30 COUNTS 18 18 0 0 1
M  V30 BEGIN ATOM
M  V30 1 C 38.267406 28.027952 52.146253 0
M  V30 2 C 39.377504 28.356541 51.149097 0
M  V30 3 C 38.738446 28.660546 53.453885 0
M  V30 4 C 39.898833 29.735088 51.566850 0
M  V30 5 C 39.467407 29.944044 53.029617 0
M  V30 6 C 37.607790 28.895224 54.458519 0
M  V30 7 H 38.091417 26.955642 52.238079 0
M  V30 8 H 37.331487 28.488501 51.832021 0
M  V30 9 H 40.176132 27.621451 51.241051 0
M  V30 10 H 39.033627 28.336948 50.114704 0
M  V30 11 H 39.467397 27.984747 53.903302 0
M  V30 12 H 40.981346 29.793671 51.450953 0
M  V30 13 H 39.467401 30.511142 50.933504 0
M  V30 14 H 38.806284 30.807145 53.099422 0
M  V30 15 H 40.314969 30.152547 53.681876 0
M  V30 16 H 36.885022 29.621274 54.087197 0
M  V30 17 H 37.993837 29.269266 55.407171 0
M  V30 18 H 37.072518 27.965985 54.653495 0
M  V30 END ATOM
M  V30 BEGIN BOND
M  V30 1 1 2 1
M  V30 2 1 3 1
M  V30 3 1 4 2
M  V30 4 1 5 3
M  V30 5 1 5 4
M  V30 6 1 6 3
M  V30 7 1 7 1
M  V30 8 1 8 1
M  V30 9 1 9 2
M  V30 10 1 10 2
M  V30 11 1 11 3
M  V30 12 1 12 4
M  V30 13 1 13 4
M  V30 14 1 14 5
M  V30 15 1 15 5
M  V30 16 1 16 6
M  V30 17 1 17 6
M  V30 18 1 18 6
M  V30 END BOND
M  V30 END CTAB
M  END
>  <i_epik_Tot_Q>  (1) 
0

>  <i_epik_Tot_abs_Q>  (1) 
0

>  <i_i_glide_confnum>  (1) 
1

>  <i_i_glide_lignum>  (1) 
19

>  <i_i_glide_posenum>  (1) 
18

>  <i_i_glide_rotatable_bonds>  (1) 
0

>  <i_lp_mmshare_version>  (1) 
72125

>  <i_m_source_file_index>  (1) 
17

>  <i_f3d_flags>  (1) 
0

>  <num_sample>  (1) 
100

>  <b_lp_Chiralities_Consistent>  (1) 
1

>  <r_epik_Charging_Adjusted_Penalty>  (1) 
0

>  <r_epik_Ionization_Penalty>  (1) 
0

>  <r_epik_Ionization_Penalty_Charging>  (1) 
0

>  <r_epik_Ionization_Penalty_Neutral>  (1) 
0

>  <r_epik_State_Penalty>  (1) 
-0

>  <r_glide_ring_energy>  (1) 
0

>  <r_i_docking_score>  (1) 
-4.8947449230320705

>  <r_i_glide_ecoul>  (1) 
-0.052097778471205586

>  <r_i_glide_eff_state_penalty>  (1) 
-0

>  <r_i_glide_einternal>  (1) 
0

>  <r_i_glide_emodel>  (1) 
-19.619217677718808

>  <r_i_glide_emodel_strain>  (1) 
0.027570222318544779

>  <r_i_glide_energy>  (1) 
-14.875683568638264

>  <r_i_glide_erotb>  (1) 
0

>  <r_i_glide_esite>  (1) 
0

>  <r_i_glide_evdw>  (1) 
-14.823585790167058

>  <r_i_glide_gscore>  (1) 
-4.8947449230320705

>  <r_i_glide_gscore_strain>  (1) 
0

>  <r_i_glide_hbond>  (1) 
0

>  <r_i_glide_ligand_efficiency>  (1) 
-0.81579082050534513

>  <r_i_glide_ligand_efficiency_ln>  (1) 
-1.7532831810849052

>  <r_i_glide_ligand_efficiency_sa>  (1) 
-1.4823902993836904

>  <r_i_glide_lipo>  (1) 
-1.6779682258593442

>  <r_i_glide_metal>  (1) 
-0

>  <r_i_glide_rewards>  (1) 
-2.4677827408936923

>  <r_lp_Energy>  (1) 
6.4120089999999994

>  <r_lp_tautomer_probability>  (1) 
1

>  <s_epik_cmdline>  (1) 
J2VwaWtfcHl0aG9uJywgJy1waHQnLCAnMS4wJywgJy1waCcsICc3LjQnLCAnLXRuJywgJzgnLCAnLW1hJywgJzUwMCcsICctaW1hZScsICc8aW5maWxlLm1hZT4nLCAnLW9tYWUnLCAnPG91dGZpbGUubWFlPic=

>  <s_epik_input>  (1) 
W0NIM11bQ0hdMVtDSDJdW0NIMl1bQ0gyXVtDSDJdMQ==

>  <s_glide_docking_method>  (1) 
confgen

>  <s_i_glide_gridfile>  (1) 
gpcr_5ht2c_6bqh_protein_autoprepared_prepared

>  <s_lp_Force_Field>  (1) 
S-OPLS

>  <s_lp_Variant>  (1) 
Pocket2Mol_16_num_sample_100-1

>  <s_m_source_file>  (1) 
generated__ligand_Pocket2Mol_2026-05-06_prepared.sdf

>  <GenAI_Model>  (1) 
Pocket2Mol

>  <Protein>  (1) 
GPCR_5HT2C

$$$$
Pocket2Mol_28_num_sample_100
     RDKit          3D

  0  0  0  0  0  0  0  0  0  0999 V3000
M  V30 BEGIN CTAB
M  V30 COUNTS 13 13 0 0 1
M  V30 BEGIN ATOM
M  V30 1 C 39.823845 30.368273 52.758446 0
M  V30 2 O 38.562215 29.591435 53.182005 0
M  V30 3 C 38.634595 28.124708 52.756309 0
M  V30 4 O 38.331398 27.220369 53.516994 0
M  V30 5 C 39.076451 27.851519 51.318296 0
M  V30 6 C 40.161896 30.167021 51.271064 0
M  V30 7 O 40.324926 28.672867 50.942416 0
M  V30 8 H 40.667405 30.050574 53.371287 0
M  V30 9 H 39.683850 31.429618 52.963504 0
M  V30 10 H 38.248534 28.106443 50.656731 0
M  V30 11 H 39.269511 26.786308 51.191198 0
M  V30 12 H 41.076751 30.704553 51.021665 0
M  V30 13 H 39.375259 30.597950 50.651708 0
M  V30 END ATOM
M  V30 BEGIN BOND
M  V30 1 1 2 1
M  V30 2 1 3 2
M  V30 3 2 4 3
M  V30 4 1 5 3
M  V30 5 1 6 1
M  V30 6 1 7 5
M  V30 7 1 7 6
M  V30 8 1 8 1
M  V30 9 1 9 1
M  V30 10 1 10 5
M  V30 11 1 11 5
M  V30 12 1 12 6
M  V30 13 1 13 6
M  V30 END BOND
M  V30 END CTAB
M  END
>  <i_epik_Tot_Q>  (1) 
0

>  <i_epik_Tot_abs_Q>  (1) 
0

>  <i_i_glide_confnum>  (1) 
2

>  <i_i_glide_lignum>  (1) 
31

>  <i_i_glide_posenum>  (1) 
147

>  <i_i_glide_rotatable_bonds>  (1) 
0

>  <i_lp_mmshare_version>  (1) 
72125

>  <i_m_source_file_index>  (1) 
29

>  <i_f3d_flags>  (1) 
0

>  <num_sample>  (1) 
100

>  <b_lp_Chiralities_Consistent>  (1) 
1

>  <r_epik_Charging_Adjusted_Penalty>  (1) 
0

>  <r_epik_Ionization_Penalty>  (1) 
1.0677269036415479e-12

>  <r_epik_Ionization_Penalty_Charging>  (1) 
0

>  <r_epik_Ionization_Penalty_Neutral>  (1) 
1.0677269036415479e-12

>  <r_epik_State_Penalty>  (1) 
-0

>  <r_glide_ring_energy>  (1) 
4.2281688740393558e-05

>  <r_i_docking_score>  (1) 
-4.890322991422245

>  <r_i_glide_ecoul>  (1) 
-0.81043328408426873

>  <r_i_glide_eff_state_penalty>  (1) 
-0

>  <r_i_glide_einternal>  (1) 
0

>  <r_i_glide_emodel>  (1) 
-21.414403141464955

>  <r_i_glide_emodel_strain>  (1) 
0.25892315469085148

>  <r_i_glide_energy>  (1) 
-16.654022053047512

>  <r_i_glide_erotb>  (1) 
0

>  <r_i_glide_esite>  (1) 
0

>  <r_i_glide_evdw>  (1) 
-15.843588768963246

>  <r_i_glide_gscore>  (1) 
-4.890322991422245

>  <r_i_glide_gscore_strain>  (1) 
0

>  <r_i_glide_hbond>  (1) 
0

>  <r_i_glide_ligand_efficiency>  (1) 
-0.69861757020317783

>  <r_i_glide_ligand_efficiency_ln>  (1) 
-1.660038067688677

>  <r_i_glide_ligand_efficiency_sa>  (1) 
-1.3364073348743377

>  <r_i_glide_lipo>  (1) 
-0.98999999999999999

>  <r_i_glide_metal>  (1) 
-0

>  <r_i_glide_rewards>  (1) 
-2.9865785603614419

>  <r_lp_Energy>  (1) 
12.58291

>  <r_lp_tautomer_probability>  (1) 
1

>  <s_epik_Chemistry_Notes>  (1) 
This compound has an ester and may undergo hydrolysis at high or low pH.

>  <s_epik_cmdline>  (1) 
J2VwaWtfcHl0aG9uJywgJy1waHQnLCAnMS4wJywgJy1waCcsICc3LjQnLCAnLXRuJywgJzgnLCAnLW1hJywgJzUwMCcsICctaW1hZScsICc8aW5maWxlLm1hZT4nLCAnLW9tYWUnLCAnPG91dGZpbGUubWFlPic=

>  <s_epik_input>  (1) 
W0NIMl0xT1tDSDJdW0NIMl1PQzE9Tw==

>  <s_glide_docking_method>  (1) 
confgen

>  <s_i_glide_gridfile>  (1) 
gpcr_5ht2c_6bqh_protein_autoprepared_prepared

>  <s_lp_Force_Field>  (1) 
S-OPLS

>  <s_lp_Variant>  (1) 
Pocket2Mol_28_num_sample_100-1

>  <s_m_source_file>  (1) 
generated__ligand_Pocket2Mol_2026-05-06_prepared.sdf

>  <GenAI_Model>  (1) 
Pocket2Mol

>  <Protein>  (1) 
GPCR_5HT2C

$$$$
Pocket2Mol_63_num_sample_100
     RDKit          3D

  0  0  0  0  0  0  0  0  0  0999 V3000
M  V30 BEGIN CTAB
M  V30 COUNTS 14 14 0 0 1
M  V30 BEGIN ATOM
M  V30 1 C 38.731220 28.192947 51.853754 0
M  V30 2 C 37.952709 27.980961 53.075309 0
M  V30 3 C 39.491647 29.221430 51.852703 0
M  V30 4 C 39.467403 30.031348 53.074944 0
M  V30 5 N 38.350732 29.271077 53.803389 0
M  V30 6 N 38.895396 28.873552 55.183480 0 CHG=1
M  V30 7 O 38.436007 27.854696 55.691981 0 CHG=-1
M  V30 8 O 39.735004 29.614521 55.687001 0
M  V30 9 H 38.648928 27.507183 51.022508 0
M  V30 10 H 36.882622 27.950393 52.869483 0
M  V30 11 H 38.277059 27.045806 53.531753 0
M  V30 12 H 40.121898 29.499449 51.020151 0
M  V30 13 H 40.453044 30.021431 53.536703 0
M  V30 14 H 39.176279 31.061882 52.873644 0
M  V30 END ATOM
M  V30 BEGIN BOND
M  V30 1 1 2 1
M  V30 2 2 3 1
M  V30 3 1 4 3
M  V30 4 1 5 2
M  V30 5 1 5 4
M  V30 6 1 6 5
M  V30 7 1 7 6
M  V30 8 2 8 6
M  V30 9 1 9 1
M  V30 10 1 10 2
M  V30 11 1 11 2
M  V30 12 1 12 3
M  V30 13 1 13 4
M  V30 14 1 14 4
M  V30 END BOND
M  V30 END CTAB
M  END
>  <i_epik_Tot_Q>  (1) 
0

>  <i_epik_Tot_abs_Q>  (1) 
2

>  <i_i_glide_confnum>  (1) 
1

>  <i_i_glide_lignum>  (1) 
67

>  <i_i_glide_posenum>  (1) 
59

>  <i_i_glide_rotatable_bonds>  (1) 
1

>  <i_lp_mmshare_version>  (1) 
72125

>  <i_m_source_file_index>  (1) 
64

>  <i_f3d_flags>  (1) 
0

>  <num_sample>  (1) 
100

>  <b_lp_Chiralities_Consistent>  (1) 
1

>  <r_epik_Charging_Adjusted_Penalty>  (1) 
0.01004869924428556

>  <r_epik_Ionization_Penalty>  (1) 
0.010048699244285546

>  <r_epik_Ionization_Penalty_Charging>  (1) 
0

>  <r_epik_Ionization_Penalty_Neutral>  (1) 
0.010048699244285546

>  <r_epik_State_Penalty>  (1) 
0.01004869924428556

>  <r_glide_ring_energy>  (1) 
0

>  <r_i_docking_score>  (1) 
-4.8900913663651835

>  <r_i_glide_ecoul>  (1) 
-0.56417079167385897

>  <r_i_glide_eff_state_penalty>  (1) 
0.01004869924428556

>  <r_i_glide_einternal>  (1) 
0.020458869408211344

>  <r_i_glide_emodel>  (1) 
-22.39963540525423

>  <r_i_glide_emodel_strain>  (1) 
0

>  <r_i_glide_energy>  (1) 
-16.700429628944487

>  <r_i_glide_erotb>  (1) 
0

>  <r_i_glide_esite>  (1) 
0

>  <r_i_glide_evdw>  (1) 
-16.136258837270628

>  <r_i_glide_gscore>  (1) 
-4.9001400656094694

>  <r_i_glide_gscore_strain>  (1) 
0

>  <r_i_glide_hbond>  (1) 
0

>  <r_i_glide_ligand_efficiency>  (1) 
-0.61126142079564794

>  <r_i_glide_ligand_efficiency_ln>  (1) 
-1.5879799308343545

>  <r_i_glide_ligand_efficiency_sa>  (1) 
-1.2225228415912961

>  <r_i_glide_lipo>  (1) 
-1.2069048812320999

>  <r_i_glide_metal>  (1) 
-0

>  <r_i_glide_rewards>  (1) 
-2.8017966237627592

>  <r_lp_Energy>  (1) 
16.803152000000001

>  <s_epik_cmdline>  (1) 
J2VwaWtfcHl0aG9uJywgJy1waHQnLCAnMS4wJywgJy1waCcsICc3LjQnLCAnLXRuJywgJzgnLCAnLW1hJywgJzUwMCcsICctaW1hZScsICc8aW5maWxlLm1hZT4nLCAnLW9tYWUnLCAnPG91dGZpbGUubWFlPic=

>  <s_epik_input>  (1) 
W0NIMl0xW0NIXT1bQ0hdW0NIMl1OMVtOK10oW08tXSk9Tw==

>  <s_glide_docking_method>  (1) 
confgen

>  <s_i_glide_gridfile>  (1) 
gpcr_5ht2c_6bqh_protein_autoprepared_prepared

>  <s_lp_Force_Field>  (1) 
S-OPLS

>  <s_lp_Variant>  (1) 
Pocket2Mol_63_num_sample_100-1

>  <s_m_source_file>  (1) 
generated__ligand_Pocket2Mol_2026-05-06_prepared.sdf

>  <GenAI_Model>  (1) 
Pocket2Mol

>  <Protein>  (1) 
GPCR_5HT2C

$$$$
Pocket2Mol_7_num_sample_100
     RDKit          3D

  0  0  0  0  0  0  0  0  0  0999 V3000
M  V30 BEGIN CTAB
M  V30 COUNTS 13 13 0 0 1
M  V30 BEGIN ATOM
M  V30 1 C 38.652400 28.042070 52.035692 0
M  V30 2 C 39.072022 29.221018 52.822165 0
M  V30 3 C 39.485661 28.396388 50.717724 0
M  V30 4 C 40.267407 29.784980 50.851579 0
M  V30 5 C 39.867421 30.071997 52.242792 0
M  V30 6 H 38.969719 27.109936 52.504154 0
M  V30 7 H 37.575040 28.035394 51.865384 0
M  V30 8 H 38.719531 29.344733 53.836054 0
M  V30 9 H 38.823466 28.421616 49.853510 0
M  V30 10 H 40.203605 27.601268 50.518802 0
M  V30 11 H 39.895817 30.550679 50.169457 0
M  V30 12 H 41.348407 29.682069 50.757609 0
M  V30 13 H 40.230390 30.963939 52.733510 0
M  V30 END ATOM
M  V30 BEGIN BOND
M  V30 1 1 2 1
M  V30 2 1 3 1
M  V30 3 1 4 3
M  V30 4 2 5 2
M  V30 5 1 5 4
M  V30 6 1 6 1
M  V30 7 1 7 1
M  V30 8 1 8 2
M  V30 9 1 9 3
M  V30 10 1 10 3
M  V30 11 1 11 4
M  V30 12 1 12 4
M  V30 13 1 13 5
M  V30 END BOND
M  V30 END CTAB
M  END
>  <i_epik_Tot_Q>  (1) 
0

>  <i_epik_Tot_abs_Q>  (1) 
0

>  <i_i_glide_confnum>  (1) 
1

>  <i_i_glide_lignum>  (1) 
10

>  <i_i_glide_posenum>  (1) 
198

>  <i_i_glide_rotatable_bonds>  (1) 
0

>  <i_lp_mmshare_version>  (1) 
72125

>  <i_m_source_file_index>  (1) 
8

>  <i_f3d_flags>  (1) 
0

>  <num_sample>  (1) 
100

>  <b_lp_Chiralities_Consistent>  (1) 
1

>  <r_epik_Charging_Adjusted_Penalty>  (1) 
0

>  <r_epik_Ionization_Penalty>  (1) 
0

>  <r_epik_Ionization_Penalty_Charging>  (1) 
0

>  <r_epik_Ionization_Penalty_Neutral>  (1) 
0

>  <r_epik_State_Penalty>  (1) 
-0

>  <r_glide_ring_energy>  (1) 
0

>  <r_i_docking_score>  (1) 
-4.8900470563673242

>  <r_i_glide_ecoul>  (1) 
-0.42788632822918282

>  <r_i_glide_eff_state_penalty>  (1) 
-0

>  <r_i_glide_einternal>  (1) 
0

>  <r_i_glide_emodel>  (1) 
-18.479085218455236

>  <r_i_glide_emodel_strain>  (1) 
0

>  <r_i_glide_energy>  (1) 
-14.302663003087869

>  <r_i_glide_erotb>  (1) 
0

>  <r_i_glide_esite>  (1) 
0

>  <r_i_glide_evdw>  (1) 
-13.874776674858685

>  <r_i_glide_gscore>  (1) 
-4.8900470563673242

>  <r_i_glide_gscore_strain>  (1) 
0

>  <r_i_glide_hbond>  (1) 
0

>  <r_i_glide_ligand_efficiency>  (1) 
-0.97800941127346486

>  <r_i_glide_ligand_efficiency_ln>  (1) 
-1.8739848275622917

>  <r_i_glide_ligand_efficiency_sa>  (1) 
-1.6723725689010622

>  <r_i_glide_lipo>  (1) 
-1.5717485347441231

>  <r_i_glide_metal>  (1) 
-0

>  <r_i_glide_rewards>  (1) 
-2.5603767386458887

>  <r_lp_Energy>  (1) 
-2.1713199999999997

>  <r_lp_tautomer_probability>  (1) 
1

>  <s_epik_cmdline>  (1) 
J2VwaWtfcHl0aG9uJywgJy1waHQnLCAnMS4wJywgJy1waCcsICc3LjQnLCAnLXRuJywgJzgnLCAnLW1hJywgJzUwMCcsICctaW1hZScsICc8aW5maWxlLm1hZT4nLCAnLW9tYWUnLCAnPG91dGZpbGUubWFlPic=

>  <s_epik_input>  (1) 
W0NIMl0xW0NIXT1bQ0hdW0NIMl1bQ0gyXTE=

>  <s_glide_docking_method>  (1) 
confgen

>  <s_i_glide_gridfile>  (1) 
gpcr_5ht2c_6bqh_protein_autoprepared_prepared

>  <s_lp_Force_Field>  (1) 
S-OPLS

>  <s_lp_Variant>  (1) 
Pocket2Mol_7_num_sample_100-1

>  <s_m_source_file>  (1) 
generated__ligand_Pocket2Mol_2026-05-06_prepared.sdf

>  <GenAI_Model>  (1) 
Pocket2Mol

>  <Protein>  (1) 
GPCR_5HT2C

$$$$
Pocket2Mol_7_num_sample_100
     RDKit          3D

  0  0  0  0  0  0  0  0  0  0999 V3000
M  V30 BEGIN CTAB
M  V30 COUNTS 13 13 0 0 1
M  V30 BEGIN ATOM
M  V30 1 C 39.467406 28.290758 50.690550 0
M  V30 2 C 40.110229 29.566069 51.070921 0
M  V30 3 C 38.707797 28.040252 52.076167 0
M  V30 4 C 38.969513 29.221365 53.123946 0
M  V30 5 C 39.867426 30.021538 52.262392 0
M  V30 6 H 38.784254 28.421406 49.853253 0
M  V30 7 H 40.205728 27.523241 50.458861 0
M  V30 8 H 40.750653 30.077952 50.367285 0
M  V30 9 H 39.038801 27.092565 52.501324 0
M  V30 10 H 37.635978 27.932430 51.900832 0
M  V30 11 H 39.467531 28.887291 54.033638 0
M  V30 12 H 38.062614 29.770834 53.377449 0
M  V30 13 H 40.287172 30.945556 52.634588 0
M  V30 END ATOM
M  V30 BEGIN BOND
M  V30 1 1 2 1
M  V30 2 1 3 1
M  V30 3 1 4 3
M  V30 4 2 5 2
M  V30 5 1 5 4
M  V30 6 1 6 1
M  V30 7 1 7 1
M  V30 8 1 8 2
M  V30 9 1 9 3
M  V30 10 1 10 3
M  V30 11 1 11 4
M  V30 12 1 12 4
M  V30 13 1 13 5
M  V30 END BOND
M  V30 END CTAB
M  END
>  <i_epik_Tot_Q>  (1) 
0

>  <i_epik_Tot_abs_Q>  (1) 
0

>  <i_i_glide_confnum>  (1) 
1

>  <i_i_glide_lignum>  (1) 
10

>  <i_i_glide_posenum>  (1) 
208

>  <i_i_glide_rotatable_bonds>  (1) 
0

>  <i_lp_mmshare_version>  (1) 
72125

>  <i_m_source_file_index>  (1) 
8

>  <i_f3d_flags>  (1) 
0

>  <num_sample>  (1) 
100

>  <b_lp_Chiralities_Consistent>  (1) 
1

>  <r_epik_Charging_Adjusted_Penalty>  (1) 
0

>  <r_epik_Ionization_Penalty>  (1) 
0

>  <r_epik_Ionization_Penalty_Charging>  (1) 
0

>  <r_epik_Ionization_Penalty_Neutral>  (1) 
0

>  <r_epik_State_Penalty>  (1) 
-0

>  <r_glide_ring_energy>  (1) 
0

>  <r_i_docking_score>  (1) 
-4.8838555198085096

>  <r_i_glide_ecoul>  (1) 
-0.36719825216744112

>  <r_i_glide_eff_state_penalty>  (1) 
-0

>  <r_i_glide_einternal>  (1) 
0

>  <r_i_glide_emodel>  (1) 
-18.000790848090219

>  <r_i_glide_emodel_strain>  (1) 
0

>  <r_i_glide_energy>  (1) 
-13.829656612681616

>  <r_i_glide_erotb>  (1) 
0

>  <r_i_glide_esite>  (1) 
0

>  <r_i_glide_evdw>  (1) 
-13.462458360514175

>  <r_i_glide_gscore>  (1) 
-4.8838555198085096

>  <r_i_glide_gscore_strain>  (1) 
0

>  <r_i_glide_hbond>  (1) 
0

>  <r_i_glide_ligand_efficiency>  (1) 
-0.97677110396170197

>  <r_i_glide_ligand_efficiency_ln>  (1) 
-1.8716120803398681

>  <r_i_glide_ligand_efficiency_sa>  (1) 
-1.6702550931833537

>  <r_i_glide_lipo>  (1) 
-1.5782223371875921

>  <r_i_glide_metal>  (1) 
-0

>  <r_i_glide_rewards>  (1) 
-2.5774305267700921

>  <r_lp_Energy>  (1) 
-2.1713199999999997

>  <r_lp_tautomer_probability>  (1) 
1

>  <s_epik_cmdline>  (1) 
J2VwaWtfcHl0aG9uJywgJy1waHQnLCAnMS4wJywgJy1waCcsICc3LjQnLCAnLXRuJywgJzgnLCAnLW1hJywgJzUwMCcsICctaW1hZScsICc8aW5maWxlLm1hZT4nLCAnLW9tYWUnLCAnPG91dGZpbGUubWFlPic=

>  <s_epik_input>  (1) 
W0NIMl0xW0NIXT1bQ0hdW0NIMl1bQ0gyXTE=

>  <s_glide_docking_method>  (1) 
confgen

>  <s_i_glide_gridfile>  (1) 
gpcr_5ht2c_6bqh_protein_autoprepared_prepared

>  <s_lp_Force_Field>  (1) 
S-OPLS

>  <s_lp_Variant>  (1) 
Pocket2Mol_7_num_sample_100-1

>  <s_m_source_file>  (1) 
generated__ligand_Pocket2Mol_2026-05-06_prepared.sdf

>  <GenAI_Model>  (1) 
Pocket2Mol

>  <Protein>  (1) 
GPCR_5HT2C

$$$$
Pocket2Mol_53_num_sample_100
     RDKit          3D

  0  0  0  0  0  0  0  0  0  0999 V3000
M  V30 BEGIN CTAB
M  V30 COUNTS 17 17 0 0 1
M  V30 BEGIN ATOM
M  V30 1 C 38.862959 27.639518 51.639939 0
M  V30 2 C 38.634919 28.668710 52.729553 0
M  V30 3 C 39.467729 29.804019 52.827212 0
M  V30 4 C 39.231821 30.747781 53.852536 0
M  V30 5 C 38.163211 30.538748 54.745599 0
M  V30 6 C 37.587468 28.508641 53.657574 0
M  V30 7 N 37.867068 31.442672 55.763930 0
M  V30 8 N 37.391477 29.440412 54.617836 0 CHG=1
M  V30 9 H 38.145363 26.821431 51.708538 0
M  V30 10 H 38.759691 28.098791 50.656233 0
M  V30 11 H 39.863464 27.216135 51.717894 0
M  V30 12 H 40.274024 29.951128 52.125765 0
M  V30 13 H 39.856334 31.621115 53.941912 0
M  V30 14 H 36.901387 27.672789 53.657617 0
M  V30 15 H 38.345239 32.328891 55.824123 0
M  V30 16 H 36.994410 31.369464 56.289600 0
M  V30 17 H 36.621548 29.307996 55.274952 0
M  V30 END ATOM
M  V30 BEGIN BOND
M  V30 1 1 2 1
M  V30 2 1 3 2
M  V30 3 2 4 3
M  V30 4 1 5 4
M  V30 5 2 6 2
M  V30 6 1 7 5
M  V30 7 2 8 5
M  V30 8 1 8 6
M  V30 9 1 9 1
M  V30 10 1 10 1
M  V30 11 1 11 1
M  V30 12 1 12 3
M  V30 13 1 13 4
M  V30 14 1 14 6
M  V30 15 1 15 7
M  V30 16 1 16 7
M  V30 17 1 17 8
M  V30 END BOND
M  V30 END CTAB
M  END
>  <i_epik_Tot_Q>  (1) 
1

>  <i_epik_Tot_abs_Q>  (1) 
1

>  <i_i_glide_confnum>  (1) 
1

>  <i_i_glide_lignum>  (1) 
57

>  <i_i_glide_posenum>  (1) 
292

>  <i_i_glide_rotatable_bonds>  (1) 
0

>  <i_lp_mmshare_version>  (1) 
72125

>  <i_m_source_file_index>  (1) 
54

>  <i_f3d_flags>  (1) 
0

>  <num_sample>  (1) 
100

>  <b_lp_Chiralities_Consistent>  (1) 
1

>  <r_epik_Charging_Adjusted_Penalty>  (1) 
0.93551857814206563

>  <r_epik_Ionization_Penalty>  (1) 
0.46776012796604682

>  <r_epik_Ionization_Penalty_Charging>  (1) 
0.46775928907103281

>  <r_epik_Ionization_Penalty_Neutral>  (1) 
8.3889501401179816e-07

>  <r_epik_State_Penalty>  (1) 
0.46775928907103276

>  <r_glide_ring_energy>  (1) 
0

>  <r_i_docking_score>  (1) 
-4.8790831925558775

>  <r_i_glide_ecoul>  (1) 
-3.9002598698023982

>  <r_i_glide_eff_state_penalty>  (1) 
0.46775928907103276

>  <r_i_glide_einternal>  (1) 
0

>  <r_i_glide_emodel>  (1) 
-26.613456564229672

>  <r_i_glide_emodel_strain>  (1) 
0.0073722423657898162

>  <r_i_glide_energy>  (1) 
-17.362273914077793

>  <r_i_glide_erotb>  (1) 
0

>  <r_i_glide_esite>  (1) 
-0.10000000000000001

>  <r_i_glide_evdw>  (1) 
-13.462014044275394

>  <r_i_glide_gscore>  (1) 
-5.3468424816269104

>  <r_i_glide_gscore_strain>  (1) 
0

>  <r_i_glide_hbond>  (1) 
-0.20000000000000001

>  <r_i_glide_ligand_efficiency>  (1) 
-0.60988539906948469

>  <r_i_glide_ligand_efficiency_ln>  (1) 
-1.5844052002670383

>  <r_i_glide_ligand_efficiency_sa>  (1) 
-1.2197707981389696

>  <r_i_glide_lipo>  (1) 
-1.4935619966949145

>  <r_i_glide_metal>  (1) 
-0

>  <r_i_glide_rewards>  (1) 
-2.2951408022478663

>  <r_lp_Energy>  (1) 
10.43703

>  <r_lp_tautomer_probability>  (1) 
0.99999385203779767

>  <s_epik_cmdline>  (1) 
J2VwaWtfcHl0aG9uJywgJy1waHQnLCAnMS4wJywgJy1waCcsICc3LjQnLCAnLXRuJywgJzgnLCAnLW1hJywgJzUwMCcsICctaW1hZScsICc8aW5maWxlLm1hZT4nLCAnLW9tYWUnLCAnPG91dGZpbGUubWFlPic=

>  <s_epik_input>  (1) 
W0NIM11jMVtjSF1bY0hdYyhbTkgyXSluW2NIXTE=

>  <s_glide_docking_method>  (1) 
confgen

>  <s_i_glide_gridfile>  (1) 
gpcr_5ht2c_6bqh_protein_autoprepared_prepared

>  <s_lp_Force_Field>  (1) 
S-OPLS

>  <s_lp_Variant>  (1) 
Pocket2Mol_53_num_sample_100-2

>  <s_m_source_file>  (1) 
generated__ligand_Pocket2Mol_2026-05-06_prepared.sdf

>  <GenAI_Model>  (1) 
Pocket2Mol

>  <Protein>  (1) 
GPCR_5HT2C

$$$$
Pocket2Mol_23_num_sample_100
     RDKit          3D

  0  0  0  0  0  0  0  0  0  0999 V3000
M  V30 BEGIN CTAB
M  V30 COUNTS 14 14 0 0 1
M  V30 BEGIN ATOM
M  V30 1 C 40.255605 30.473413 49.944836 0
M  V30 2 C 40.105017 30.821408 51.425034 0
M  V30 3 O 39.947305 29.097422 49.879972 0
M  V30 4 C 39.991780 28.650837 51.184824 0
M  V30 5 O 39.542068 29.663602 51.998659 0
M  V30 6 C 39.067266 27.447329 51.334537 0
M  V30 7 H 41.265229 30.673517 49.582422 0
M  V30 8 H 39.544465 31.031994 49.335093 0
M  V30 9 H 41.067399 31.039981 51.871754 0
M  V30 10 H 39.467467 31.687048 51.590583 0
M  V30 11 H 41.025277 28.421280 51.453273 0
M  V30 12 H 38.043118 27.734382 51.093533 0
M  V30 13 H 39.100930 27.076006 52.358805 0
M  V30 14 H 39.379829 26.655532 50.655278 0
M  V30 END ATOM
M  V30 BEGIN BOND
M  V30 1 1 2 1
M  V30 2 1 3 1
M  V30 3 1 4 3
M  V30 4 1 5 2
M  V30 5 1 5 4
M  V30 6 1 6 4
M  V30 7 1 7 1
M  V30 8 1 8 1
M  V30 9 1 9 2
M  V30 10 1 10 2
M  V30 11 1 11 4
M  V30 12 1 12 6
M  V30 13 1 13 6
M  V30 14 1 14 6
M  V30 END BOND
M  V30 END CTAB
M  END
>  <i_epik_Tot_Q>  (1) 
0

>  <i_epik_Tot_abs_Q>  (1) 
0

>  <i_i_glide_confnum>  (1) 
1

>  <i_i_glide_lignum>  (1) 
26

>  <i_i_glide_posenum>  (1) 
68

>  <i_i_glide_rotatable_bonds>  (1) 
0

>  <i_lp_mmshare_version>  (1) 
72125

>  <i_m_source_file_index>  (1) 
24

>  <i_f3d_flags>  (1) 
0

>  <num_sample>  (1) 
100

>  <b_lp_Chiralities_Consistent>  (1) 
1

>  <r_epik_Charging_Adjusted_Penalty>  (1) 
0

>  <r_epik_Ionization_Penalty>  (1) 
7.9724310449397378e-14

>  <r_epik_Ionization_Penalty_Charging>  (1) 
0

>  <r_epik_Ionization_Penalty_Neutral>  (1) 
7.9724310449397378e-14

>  <r_epik_State_Penalty>  (1) 
-0

>  <r_glide_ring_energy>  (1) 
0

>  <r_i_docking_score>  (1) 
-4.878448105282188

>  <r_i_glide_ecoul>  (1) 
-0.50478134510974604

>  <r_i_glide_eff_state_penalty>  (1) 
-0

>  <r_i_glide_einternal>  (1) 
0

>  <r_i_glide_emodel>  (1) 
-19.119803047363597

>  <r_i_glide_emodel_strain>  (1) 
0.27084391676084429

>  <r_i_glide_energy>  (1) 
-14.759399415424252

>  <r_i_glide_erotb>  (1) 
0

>  <r_i_glide_esite>  (1) 
0

>  <r_i_glide_evdw>  (1) 
-14.254618070314505

>  <r_i_glide_gscore>  (1) 
-4.878448105282188

>  <r_i_glide_gscore_strain>  (1) 
0

>  <r_i_glide_hbond>  (1) 
0

>  <r_i_glide_ligand_efficiency>  (1) 
-0.813074684213698

>  <r_i_glide_ligand_efficiency_ln>  (1) 
-1.7474457090786264

>  <r_i_glide_ligand_efficiency_sa>  (1) 
-1.4774547521951997

>  <r_i_glide_lipo>  (1) 
-0.98999999999999999

>  <r_i_glide_metal>  (1) 
-0

>  <r_i_glide_rewards>  (1) 
-3.1000000000000001

>  <r_lp_Energy>  (1) 
-12.129052

>  <r_lp_tautomer_probability>  (1) 
1

>  <s_epik_Chemistry_Notes>  (1) 
This compound contains an acetal/aminal-like group ( X-CH(R)-Y where X, Y are N, S, or O) that may be acid/base labile, releasing an aldehyde.

>  <s_epik_cmdline>  (1) 
J2VwaWtfcHl0aG9uJywgJy1waHQnLCAnMS4wJywgJy1waCcsICc3LjQnLCAnLXRuJywgJzgnLCAnLW1hJywgJzUwMCcsICctaW1hZScsICc8aW5maWxlLm1hZT4nLCAnLW9tYWUnLCAnPG91dGZpbGUubWFlPic=

>  <s_epik_input>  (1) 
TzFbQ0gyXVtDSDJdT1tDSF0xW0NIM10=

>  <s_glide_docking_method>  (1) 
confgen

>  <s_i_glide_gridfile>  (1) 
gpcr_5ht2c_6bqh_protein_autoprepared_prepared

>  <s_lp_Force_Field>  (1) 
S-OPLS

>  <s_lp_Variant>  (1) 
Pocket2Mol_23_num_sample_100-1

>  <s_m_source_file>  (1) 
generated__ligand_Pocket2Mol_2026-05-06_prepared.sdf

>  <GenAI_Model>  (1) 
Pocket2Mol

>  <Protein>  (1) 
GPCR_5HT2C

$$$$
Pocket2Mol_65_num_sample_100
     RDKit          3D

  0  0  0  0  0  0  0  0  0  0999 V3000
M  V30 BEGIN CTAB
M  V30 COUNTS 20 20 0 0 1
M  V30 BEGIN ATOM
M  V30 1 C 39.468737 30.307617 53.920148 0
M  V30 2 C 38.810662 31.478506 54.639240 0
M  V30 3 C 39.038156 29.086135 54.727665 0
M  V30 4 C 38.293827 29.663788 55.931006 0
M  V30 5 N 38.761227 31.040435 56.023537 0
M  V30 6 N 37.867405 31.840482 56.774252 0 CHG=1
M  V30 7 C 38.333682 32.835314 57.541595 0
M  V30 8 N 37.504837 33.619899 58.249751 0
M  V30 9 H 39.171724 30.247420 52.873247 0
M  V30 10 H 40.553419 30.421429 53.952994 0
M  V30 11 H 37.800900 31.633998 54.253393 0
M  V30 12 H 39.366178 32.409332 54.530910 0
M  V30 13 H 38.393694 28.420822 54.150881 0
M  V30 14 H 39.903320 28.510548 55.055239 0
M  V30 15 H 38.482924 29.106644 56.849511 0
M  V30 16 H 37.219215 29.645559 55.737653 0
M  V30 17 H 39.402677 33.012259 57.589994 0
M  V30 18 H 36.503387 33.465843 58.201011 0
M  V30 19 H 37.873301 34.367494 58.818797 0
M  V30 20 H 36.862915 31.630652 56.664731 0
M  V30 END ATOM
M  V30 BEGIN BOND
M  V30 1 1 2 1
M  V30 2 1 3 1
M  V30 3 1 4 3
M  V30 4 1 5 2
M  V30 5 1 5 4
M  V30 6 1 6 5
M  V30 7 2 7 6
M  V30 8 1 8 7
M  V30 9 1 9 1
M  V30 10 1 10 1
M  V30 11 1 11 2
M  V30 12 1 12 2
M  V30 13 1 13 3
M  V30 14 1 14 3
M  V30 15 1 15 4
M  V30 16 1 16 4
M  V30 17 1 17 7
M  V30 18 1 18 8
M  V30 19 1 19 8
M  V30 20 1 20 6
M  V30 END BOND
M  V30 END CTAB
M  END
>  <i_epik_Tot_Q>  (1) 
1

>  <i_epik_Tot_abs_Q>  (1) 
1

>  <i_i_glide_confnum>  (1) 
2

>  <i_i_glide_lignum>  (1) 
69

>  <i_i_glide_posenum>  (1) 
356

>  <i_i_glide_rotatable_bonds>  (1) 
1

>  <i_lp_mmshare_version>  (1) 
72125

>  <i_m_source_file_index>  (1) 
66

>  <i_f3d_flags>  (1) 
0

>  <num_sample>  (1) 
100

>  <b_lp_Chiralities_Consistent>  (1) 
1

>  <r_epik_Charging_Adjusted_Penalty>  (1) 
1.6312684749255997e-05

>  <r_epik_Ionization_Penalty>  (1) 
1.6401951855999153e-05

>  <r_epik_Ionization_Penalty_Charging>  (1) 
1.6312684749255997e-05

>  <r_epik_Ionization_Penalty_Neutral>  (1) 
8.9267106743156534e-08

>  <r_epik_State_Penalty>  (1) 
-0

>  <r_glide_ring_energy>  (1) 
0.002520034235707866

>  <r_i_docking_score>  (1) 
-4.8633525175004904

>  <r_i_glide_ecoul>  (1) 
-6.6682775197116957

>  <r_i_glide_eff_state_penalty>  (1) 
-0

>  <r_i_glide_einternal>  (1) 
0.0012224472673937337

>  <r_i_glide_emodel>  (1) 
-27.815198836702059

>  <r_i_glide_emodel_strain>  (1) 
0.0043178290343028891

>  <r_i_glide_energy>  (1) 
-17.348344791747323

>  <r_i_glide_erotb>  (1) 
0

>  <r_i_glide_esite>  (1) 
-0.27271713418145976

>  <r_i_glide_evdw>  (1) 
-10.680067272035629

>  <r_i_glide_gscore>  (1) 
-4.8633525175004904

>  <r_i_glide_gscore_strain>  (1) 
0

>  <r_i_glide_hbond>  (1) 
-0.22312282875827735

>  <r_i_glide_ligand_efficiency>  (1) 
-0.60791906468756129

>  <r_i_glide_ligand_efficiency_ln>  (1) 
-1.5792969120133162

>  <r_i_glide_ligand_efficiency_sa>  (1) 
-1.2158381293751228

>  <r_i_glide_lipo>  (1) 
-0.5832675630022176

>  <r_i_glide_metal>  (1) 
-0

>  <r_i_glide_rewards>  (1) 
-2.25

>  <r_lp_Energy>  (1) 
12.792574

>  <r_lp_tautomer_probability>  (1) 
1

>  <s_epik_Chemistry_Notes>  (1) 
This compound has an imine and may undergo hydrolysis.

>  <s_epik_cmdline>  (1) 
J2VwaWtfcHl0aG9uJywgJy1waHQnLCAnMS4wJywgJy1waCcsICc3LjQnLCAnLXRuJywgJzgnLCAnLW1hJywgJzUwMCcsICctaW1hZScsICc8aW5maWxlLm1hZT4nLCAnLW9tYWUnLCAnPG91dGZpbGUubWFlPic=

>  <s_epik_input>  (1) 
W0NIMl0xW0NIMl1bQ0gyXVtDSDJdTjEvTj1bQ0hdL1tOSDJd

>  <s_glide_docking_method>  (1) 
confgen

>  <s_i_glide_gridfile>  (1) 
gpcr_5ht2c_6bqh_protein_autoprepared_prepared

>  <s_lp_Force_Field>  (1) 
S-OPLS

>  <s_lp_Variant>  (1) 
Pocket2Mol_65_num_sample_100-1

>  <s_m_source_file>  (1) 
generated__ligand_Pocket2Mol_2026-05-06_prepared.sdf

>  <GenAI_Model>  (1) 
Pocket2Mol

>  <Protein>  (1) 
GPCR_5HT2C

$$$$
Pocket2Mol_24_num_sample_100
     RDKit          3D

  0  0  0  0  0  0  0  0  0  0999 V3000
M  V30 BEGIN CTAB
M  V30 COUNTS 11 11 0 0 1
M  V30 BEGIN ATOM
M  V30 1 C 39.867410 29.907829 51.913551 0
M  V30 2 C 39.067893 29.568464 53.053248 0
M  V30 3 C 38.544788 28.313377 52.932612 0
M  V30 4 C 37.658002 27.577167 53.877065 0
M  V30 5 N 39.953938 28.975644 50.983710 0
M  V30 6 S 39.067490 27.621447 51.441421 0
M  V30 7 H 40.389281 30.841572 51.760169 0
M  V30 8 H 38.911699 30.239314 53.885564 0
M  V30 9 H 37.563570 28.108712 54.824059 0
M  V30 10 H 36.660999 27.465128 53.452698 0
M  V30 11 H 38.051722 26.581940 54.085267 0
M  V30 END ATOM
M  V30 BEGIN BOND
M  V30 1 1 2 1
M  V30 2 2 3 2
M  V30 3 1 4 3
M  V30 4 2 5 1
M  V30 5 1 6 3
M  V30 6 1 6 5
M  V30 7 1 7 1
M  V30 8 1 8 2
M  V30 9 1 9 4
M  V30 10 1 10 4
M  V30 11 1 11 4
M  V30 END BOND
M  V30 END CTAB
M  END
>  <i_epik_Tot_Q>  (1) 
0

>  <i_epik_Tot_abs_Q>  (1) 
0

>  <i_i_glide_confnum>  (1) 
1

>  <i_i_glide_lignum>  (1) 
27

>  <i_i_glide_posenum>  (1) 
7

>  <i_i_glide_rotatable_bonds>  (1) 
0

>  <i_lp_mmshare_version>  (1) 
72125

>  <i_m_source_file_index>  (1) 
25

>  <i_f3d_flags>  (1) 
0

>  <num_sample>  (1) 
100

>  <b_lp_Chiralities_Consistent>  (1) 
1

>  <r_epik_Charging_Adjusted_Penalty>  (1) 
0

>  <r_epik_Ionization_Penalty>  (1) 
2.7081824038816109e-08

>  <r_epik_Ionization_Penalty_Charging>  (1) 
0

>  <r_epik_Ionization_Penalty_Neutral>  (1) 
2.7081824038816109e-08

>  <r_epik_State_Penalty>  (1) 
-0

>  <r_glide_ring_energy>  (1) 
0

>  <r_i_docking_score>  (1) 
-4.8597759961938314

>  <r_i_glide_ecoul>  (1) 
-0.36803356707969875

>  <r_i_glide_eff_state_penalty>  (1) 
-0

>  <r_i_glide_einternal>  (1) 
0

>  <r_i_glide_emodel>  (1) 
-23.59975730090455

>  <r_i_glide_emodel_strain>  (1) 
0

>  <r_i_glide_energy>  (1) 
-18.172375882861129

>  <r_i_glide_erotb>  (1) 
0

>  <r_i_glide_esite>  (1) 
0

>  <r_i_glide_evdw>  (1) 
-17.80434231578143

>  <r_i_glide_gscore>  (1) 
-4.8597759961938314

>  <r_i_glide_gscore_strain>  (1) 
0

>  <r_i_glide_hbond>  (1) 
0

>  <r_i_glide_ligand_efficiency>  (1) 
-0.80996266603230527

>  <r_i_glide_ligand_efficiency_ln>  (1) 
-1.7407574147272797

>  <r_i_glide_ligand_efficiency_sa>  (1) 
-1.4717998398725229

>  <r_i_glide_lipo>  (1) 
-1.4976871786761379

>  <r_i_glide_metal>  (1) 
-0

>  <r_i_glide_rewards>  (1) 
-2.4166666666666665

>  <r_lp_Energy>  (1) 
1.924183

>  <r_lp_tautomer_probability>  (1) 
1

>  <s_epik_cmdline>  (1) 
J2VwaWtfcHl0aG9uJywgJy1waHQnLCAnMS4wJywgJy1waCcsICc3LjQnLCAnLXRuJywgJzgnLCAnLW1hJywgJzUwMCcsICctaW1hZScsICc8aW5maWxlLm1hZT4nLCAnLW9tYWUnLCAnPG91dGZpbGUubWFlPic=

>  <s_epik_input>  (1) 
czFuW2NIXVtjSF1jMVtDSDNd

>  <s_glide_docking_method>  (1) 
confgen

>  <s_i_glide_gridfile>  (1) 
gpcr_5ht2c_6bqh_protein_autoprepared_prepared

>  <s_lp_Force_Field>  (1) 
S-OPLS

>  <s_lp_Variant>  (1) 
Pocket2Mol_24_num_sample_100-1

>  <s_m_source_file>  (1) 
generated__ligand_Pocket2Mol_2026-05-06_prepared.sdf

>  <GenAI_Model>  (1) 
Pocket2Mol

>  <Protein>  (1) 
GPCR_5HT2C

$$$$
Pocket2Mol_24_num_sample_100
     RDKit          3D

  0  0  0  0  0  0  0  0  0  0999 V3000
M  V30 BEGIN CTAB
M  V30 COUNTS 11 11 0 0 1
M  V30 BEGIN ATOM
M  V30 1 C 39.767336 26.024178 56.448770 0
M  V30 2 C 38.982721 25.599663 55.327855 0
M  V30 3 C 37.883268 24.898461 55.732029 0
M  V30 4 C 36.815780 24.273478 54.900103 0
M  V30 5 N 39.301704 25.673344 57.632986 0
M  V30 6 S 37.869927 24.809085 57.453510 0
M  V30 7 H 40.685762 26.591098 56.401475 0
M  V30 8 H 39.250362 25.816482 54.304836 0
M  V30 9 H 36.667403 24.821444 53.968692 0
M  V30 10 H 37.076254 23.244372 54.653539 0
M  V30 11 H 35.867415 24.254585 55.435446 0
M  V30 END ATOM
M  V30 BEGIN BOND
M  V30 1 1 2 1
M  V30 2 2 3 2
M  V30 3 1 4 3
M  V30 4 2 5 1
M  V30 5 1 6 3
M  V30 6 1 6 5
M  V30 7 1 7 1
M  V30 8 1 8 2
M  V30 9 1 9 4
M  V30 10 1 10 4
M  V30 11 1 11 4
M  V30 END BOND
M  V30 END CTAB
M  END
>  <i_epik_Tot_Q>  (1) 
0

>  <i_epik_Tot_abs_Q>  (1) 
0

>  <i_i_glide_confnum>  (1) 
1

>  <i_i_glide_lignum>  (1) 
27

>  <i_i_glide_posenum>  (1) 
396

>  <i_i_glide_rotatable_bonds>  (1) 
0

>  <i_lp_mmshare_version>  (1) 
72125

>  <i_m_source_file_index>  (1) 
25

>  <i_f3d_flags>  (1) 
0

>  <num_sample>  (1) 
100

>  <b_lp_Chiralities_Consistent>  (1) 
1

>  <r_epik_Charging_Adjusted_Penalty>  (1) 
0

>  <r_epik_Ionization_Penalty>  (1) 
2.7081824038816109e-08

>  <r_epik_Ionization_Penalty_Charging>  (1) 
0

>  <r_epik_Ionization_Penalty_Neutral>  (1) 
2.7081824038816109e-08

>  <r_epik_State_Penalty>  (1) 
-0

>  <r_glide_ring_energy>  (1) 
0

>  <r_i_docking_score>  (1) 
-4.8528014522184613

>  <r_i_glide_ecoul>  (1) 
-0.36806927512227017

>  <r_i_glide_eff_state_penalty>  (1) 
-0

>  <r_i_glide_einternal>  (1) 
0

>  <r_i_glide_emodel>  (1) 
-22.851844484621484

>  <r_i_glide_emodel_strain>  (1) 
0.0063905722412882504

>  <r_i_glide_energy>  (1) 
-17.438642785973641

>  <r_i_glide_erotb>  (1) 
0

>  <r_i_glide_esite>  (1) 
0

>  <r_i_glide_evdw>  (1) 
-17.070573510851371

>  <r_i_glide_gscore>  (1) 
-4.8528014522184613

>  <r_i_glide_gscore_strain>  (1) 
0

>  <r_i_glide_hbond>  (1) 
0

>  <r_i_glide_ligand_efficiency>  (1) 
-0.80880024203641021

>  <r_i_glide_ligand_efficiency_ln>  (1) 
-1.7382591536656637

>  <r_i_glide_ligand_efficiency_sa>  (1) 
-1.46968757529198

>  <r_i_glide_lipo>  (1) 
-1.6221639183480294

>  <r_i_glide_metal>  (1) 
-0

>  <r_i_glide_rewards>  (1) 
-2.3218984670595231

>  <r_lp_Energy>  (1) 
1.924183

>  <r_lp_tautomer_probability>  (1) 
1

>  <s_epik_cmdline>  (1) 
J2VwaWtfcHl0aG9uJywgJy1waHQnLCAnMS4wJywgJy1waCcsICc3LjQnLCAnLXRuJywgJzgnLCAnLW1hJywgJzUwMCcsICctaW1hZScsICc8aW5maWxlLm1hZT4nLCAnLW9tYWUnLCAnPG91dGZpbGUubWFlPic=

>  <s_epik_input>  (1) 
czFuW2NIXVtjSF1jMVtDSDNd

>  <s_glide_docking_method>  (1) 
confgen

>  <s_i_glide_gridfile>  (1) 
gpcr_5ht2c_6bqh_protein_autoprepared_prepared

>  <s_lp_Force_Field>  (1) 
S-OPLS

>  <s_lp_Variant>  (1) 
Pocket2Mol_24_num_sample_100-1

>  <s_m_source_file>  (1) 
generated__ligand_Pocket2Mol_2026-05-06_prepared.sdf

>  <GenAI_Model>  (1) 
Pocket2Mol

>  <Protein>  (1) 
GPCR_5HT2C

$$$$
Pocket2Mol_17_num_sample_100
     RDKit          3D

  0  0  0  0  0  0  0  0  0  0999 V3000
M  V30 BEGIN CTAB
M  V30 COUNTS 16 16 0 0 1
M  V30 BEGIN ATOM
M  V30 1 C 38.399714 26.748374 54.123014 0
M  V30 2 C 38.535351 27.402973 55.505319 0
M  V30 3 C 37.881366 27.847366 53.194413 0
M  V30 4 C 38.426418 28.919768 55.282378 0
M  V30 5 C 38.486499 29.126304 53.767728 0
M  V30 6 O 38.267438 27.624421 51.853946 0
M  V30 7 H 37.747722 25.874219 54.134885 0
M  V30 8 H 39.385381 26.418012 53.791009 0
M  V30 9 H 37.750409 27.060527 56.180577 0
M  V30 10 H 39.491382 27.139185 55.959508 0
M  V30 11 H 36.792993 27.903019 53.254481 0
M  V30 12 H 37.467406 29.277622 55.660770 0
M  V30 13 H 39.208192 29.474151 55.802643 0
M  V30 14 H 39.525008 29.223362 53.450872 0
M  V30 15 H 37.956482 30.024760 53.453558 0
M  V30 16 H 37.680989 26.975980 51.482044 0
M  V30 END ATOM
M  V30 BEGIN BOND
M  V30 1 1 2 1
M  V30 2 1 3 1
M  V30 3 1 4 2
M  V30 4 1 5 3
M  V30 5 1 5 4
M  V30 6 1 6 3
M  V30 7 1 7 1
M  V30 8 1 8 1
M  V30 9 1 9 2
M  V30 10 1 10 2
M  V30 11 1 11 3
M  V30 12 1 12 4
M  V30 13 1 13 4
M  V30 14 1 14 5
M  V30 15 1 15 5
M  V30 16 1 16 6
M  V30 END BOND
M  V30 END CTAB
M  END
>  <i_epik_Tot_Q>  (1) 
0

>  <i_epik_Tot_abs_Q>  (1) 
0

>  <i_i_glide_confnum>  (1) 
4

>  <i_i_glide_lignum>  (1) 
20

>  <i_i_glide_posenum>  (1) 
103

>  <i_i_glide_rotatable_bonds>  (1) 
1

>  <i_lp_mmshare_version>  (1) 
72125

>  <i_m_source_file_index>  (1) 
18

>  <i_f3d_flags>  (1) 
0

>  <num_sample>  (1) 
100

>  <b_lp_Chiralities_Consistent>  (1) 
1

>  <r_epik_Charging_Adjusted_Penalty>  (1) 
0

>  <r_epik_Ionization_Penalty>  (1) 
4.538991431931509e-07

>  <r_epik_Ionization_Penalty_Charging>  (1) 
0

>  <r_epik_Ionization_Penalty_Neutral>  (1) 
4.538991431931509e-07

>  <r_epik_State_Penalty>  (1) 
-0

>  <r_glide_ring_energy>  (1) 
0.38828123220255384

>  <r_i_docking_score>  (1) 
-4.8527334310539878

>  <r_i_glide_ecoul>  (1) 
-2.1822399421151615

>  <r_i_glide_eff_state_penalty>  (1) 
-0

>  <r_i_glide_einternal>  (1) 
0.32059669266487167

>  <r_i_glide_emodel>  (1) 
-19.942954188280432

>  <r_i_glide_emodel_strain>  (1) 
0.0047592719078473067

>  <r_i_glide_energy>  (1) 
-15.383554390827422

>  <r_i_glide_erotb>  (1) 
0

>  <r_i_glide_esite>  (1) 
0

>  <r_i_glide_evdw>  (1) 
-13.20131444871226

>  <r_i_glide_gscore>  (1) 
-4.8527334310539878

>  <r_i_glide_gscore_strain>  (1) 
0

>  <r_i_glide_hbond>  (1) 
-0.29432430232332052

>  <r_i_glide_ligand_efficiency>  (1) 
-0.8087889051756646

>  <r_i_glide_ligand_efficiency_ln>  (1) 
-1.7382347886853624

>  <r_i_glide_ligand_efficiency_sa>  (1) 
-1.4696669748488611

>  <r_i_glide_lipo>  (1) 
-1.1836201932916528

>  <r_i_glide_metal>  (1) 
-0

>  <r_i_glide_rewards>  (1) 
-2.3873872216861276

>  <r_lp_Energy>  (1) 
8.9029089999999993

>  <r_lp_tautomer_probability>  (1) 
1

>  <s_epik_cmdline>  (1) 
J2VwaWtfcHl0aG9uJywgJy1waHQnLCAnMS4wJywgJy1waCcsICc3LjQnLCAnLXRuJywgJzgnLCAnLW1hJywgJzUwMCcsICctaW1hZScsICc8aW5maWxlLm1hZT4nLCAnLW9tYWUnLCAnPG91dGZpbGUubWFlPic=

>  <s_epik_input>  (1) 
W09IXVtDSF0xW0NIMl1bQ0gyXVtDSDJdW0NIMl0x

>  <s_glide_docking_method>  (1) 
confgen

>  <s_i_glide_gridfile>  (1) 
gpcr_5ht2c_6bqh_protein_autoprepared_prepared

>  <s_lp_Force_Field>  (1) 
S-OPLS

>  <s_lp_Variant>  (1) 
Pocket2Mol_17_num_sample_100-1

>  <s_m_source_file>  (1) 
generated__ligand_Pocket2Mol_2026-05-06_prepared.sdf

>  <GenAI_Model>  (1) 
Pocket2Mol

>  <Protein>  (1) 
GPCR_5HT2C

$$$$
Pocket2Mol_20_num_sample_100
     RDKit          3D

  0  0  0  0  0  0  0  0  0  0999 V3000
M  V30 BEGIN CTAB
M  V30 COUNTS 10 10 0 0 1
M  V30 BEGIN ATOM
M  V30 1 C 39.858426 28.818657 50.653506 0
M  V30 2 C 39.067406 27.695810 51.053508 0
M  V30 3 C 39.867400 29.707453 51.692710 0
M  V30 4 C 38.616759 27.938612 52.321102 0
M  V30 5 N 39.107611 29.163553 52.701246 0
M  V30 6 O 38.876007 29.755353 53.908357 0 CHG=-1
M  V30 7 H 40.360965 28.958062 49.709056 0
M  V30 8 H 38.851719 26.811525 50.473300 0
M  V30 9 H 40.337432 30.672975 51.808300 0
M  V30 10 H 37.994754 27.357290 52.984945 0
M  V30 END ATOM
M  V30 BEGIN BOND
M  V30 1 1 2 1
M  V30 2 2 3 1
M  V30 3 2 4 2
M  V30 4 1 5 3
M  V30 5 1 5 4
M  V30 6 1 6 5
M  V30 7 1 7 1
M  V30 8 1 8 2
M  V30 9 1 9 3
M  V30 10 1 10 4
M  V30 END BOND
M  V30 END CTAB
M  END
>  <i_epik_Tot_Q>  (1) 
-1

>  <i_epik_Tot_abs_Q>  (1) 
1

>  <i_i_glide_confnum>  (1) 
1

>  <i_i_glide_lignum>  (1) 
23

>  <i_i_glide_posenum>  (1) 
222

>  <i_i_glide_rotatable_bonds>  (1) 
0

>  <i_lp_mmshare_version>  (1) 
72125

>  <i_m_source_file_index>  (1) 
21

>  <i_f3d_flags>  (1) 
0

>  <num_sample>  (1) 
100

>  <b_lp_Chiralities_Consistent>  (1) 
1

>  <r_epik_Charging_Adjusted_Penalty>  (1) 
0.038602441834166765

>  <r_epik_Ionization_Penalty>  (1) 
0.019301220976331968

>  <r_epik_Ionization_Penalty_Charging>  (1) 
0.019301220917083386

>  <r_epik_Ionization_Penalty_Neutral>  (1) 
5.9248581604286784e-11

>  <r_epik_State_Penalty>  (1) 
0.019301220917083379

>  <r_glide_ring_energy>  (1) 
0

>  <r_i_docking_score>  (1) 
-4.8500187663225214

>  <r_i_glide_ecoul>  (1) 
-0.2695632950304836

>  <r_i_glide_eff_state_penalty>  (1) 
0.019301220917083379

>  <r_i_glide_einternal>  (1) 
0

>  <r_i_glide_emodel>  (1) 
-18.901427974436363

>  <r_i_glide_emodel_strain>  (1) 
0

>  <r_i_glide_energy>  (1) 
-14.274953515700199

>  <r_i_glide_erotb>  (1) 
0

>  <r_i_glide_esite>  (1) 
0

>  <r_i_glide_evdw>  (1) 
-14.005390220669716

>  <r_i_glide_gscore>  (1) 
-4.8693199872396047

>  <r_i_glide_gscore_strain>  (1) 
0

>  <r_i_glide_hbond>  (1) 
0

>  <r_i_glide_ligand_efficiency>  (1) 
-0.80833646105375356

>  <r_i_glide_ligand_efficiency_ln>  (1) 
-1.7372624037928284

>  <r_i_glide_ligand_efficiency_sa>  (1) 
-1.4688448293178307

>  <r_i_glide_lipo>  (1) 
-1.3200000000000001

>  <r_i_glide_metal>  (1) 
-0

>  <r_i_glide_rewards>  (1) 
-2.8086159819515464

>  <r_lp_Energy>  (1) 
1.8910769999999999

>  <r_lp_tautomer_probability>  (1) 
1

>  <s_epik_cmdline>  (1) 
J2VwaWtfcHl0aG9uJywgJy1waHQnLCAnMS4wJywgJy1waCcsICc3LjQnLCAnLXRuJywgJzgnLCAnLW1hJywgJzUwMCcsICctaW1hZScsICc8aW5maWxlLm1hZT4nLCAnLW9tYWUnLCAnPG91dGZpbGUubWFlPic=

>  <s_epik_input>  (1) 
W2NIXTFbY0hdW2NIXVtjSF1uMVtPSF0=

>  <s_glide_docking_method>  (1) 
confgen

>  <s_i_glide_gridfile>  (1) 
gpcr_5ht2c_6bqh_protein_autoprepared_prepared

>  <s_lp_Force_Field>  (1) 
S-OPLS

>  <s_lp_Variant>  (1) 
Pocket2Mol_20_num_sample_100-1

>  <s_m_source_file>  (1) 
generated__ligand_Pocket2Mol_2026-05-06_prepared.sdf

>  <GenAI_Model>  (1) 
Pocket2Mol

>  <Protein>  (1) 
GPCR_5HT2C

$$$$
Pocket2Mol_35_num_sample_100
     RDKit          3D

  0  0  0  0  0  0  0  0  0  0999 V3000
M  V30 BEGIN CTAB
M  V30 COUNTS 17 17 0 0 1
M  V30 BEGIN ATOM
M  V30 1 C 39.741438 30.450009 53.261047 0
M  V30 2 O 39.859696 30.447543 51.841232 0
M  V30 3 C 40.317150 29.231211 51.275415 0
M  V30 4 C 38.601002 29.587885 53.811501 0
M  V30 5 O 38.778874 28.216086 53.488974 0
M  V30 6 C 39.242135 28.159592 51.051430 0
M  V30 7 C 38.267404 27.885912 52.207697 0
M  V30 8 H 40.669127 30.156444 53.734503 0
M  V30 9 H 39.567653 31.482476 53.564747 0
M  V30 10 H 40.745650 29.482008 50.305242 0
M  V30 11 H 41.138932 28.821383 51.853500 0
M  V30 12 H 38.609942 29.665706 54.898901 0
M  V30 13 H 37.628025 29.965432 53.499497 0
M  V30 14 H 38.667403 28.421430 50.165262 0
M  V30 15 H 39.749682 27.229536 50.792909 0
M  V30 16 H 37.313974 28.384497 52.025681 0
M  V30 17 H 38.032035 26.821667 52.216037 0
M  V30 END ATOM
M  V30 BEGIN BOND
M  V30 1 1 2 1
M  V30 2 1 3 2
M  V30 3 1 4 1
M  V30 4 1 5 4
M  V30 5 1 6 3
M  V30 6 1 7 5
M  V30 7 1 7 6
M  V30 8 1 8 1
M  V30 9 1 9 1
M  V30 10 1 10 3
M  V30 11 1 11 3
M  V30 12 1 12 4
M  V30 13 1 13 4
M  V30 14 1 14 6
M  V30 15 1 15 6
M  V30 16 1 16 7
M  V30 17 1 17 7
M  V30 END BOND
M  V30 END CTAB
M  END
>  <i_epik_Tot_Q>  (1) 
0

>  <i_epik_Tot_abs_Q>  (1) 
0

>  <i_i_glide_confnum>  (1) 
8

>  <i_i_glide_lignum>  (1) 
38

>  <i_i_glide_posenum>  (1) 
224

>  <i_i_glide_rotatable_bonds>  (1) 
0

>  <i_lp_mmshare_version>  (1) 
72125

>  <i_m_source_file_index>  (1) 
36

>  <i_f3d_flags>  (1) 
0

>  <num_sample>  (1) 
100

>  <b_lp_Chiralities_Consistent>  (1) 
1

>  <r_epik_Charging_Adjusted_Penalty>  (1) 
0

>  <r_epik_Ionization_Penalty>  (1) 
3.933197540425548e-12

>  <r_epik_Ionization_Penalty_Charging>  (1) 
0

>  <r_epik_Ionization_Penalty_Neutral>  (1) 
3.933197540425548e-12

>  <r_epik_State_Penalty>  (1) 
-0

>  <r_glide_ring_energy>  (1) 
0.00055159938950669681

>  <r_i_docking_score>  (1) 
-4.8489594832306588

>  <r_i_glide_ecoul>  (1) 
-0.34197594931957487

>  <r_i_glide_eff_state_penalty>  (1) 
-0

>  <r_i_glide_einternal>  (1) 
0

>  <r_i_glide_emodel>  (1) 
-20.961581926441706

>  <r_i_glide_emodel_strain>  (1) 
0

>  <r_i_glide_energy>  (1) 
-15.935747158906947

>  <r_i_glide_erotb>  (1) 
0

>  <r_i_glide_esite>  (1) 
0

>  <r_i_glide_evdw>  (1) 
-15.593771209587372

>  <r_i_glide_gscore>  (1) 
-4.8489594832306588

>  <r_i_glide_gscore_strain>  (1) 
0

>  <r_i_glide_hbond>  (1) 
0

>  <r_i_glide_ligand_efficiency>  (1) 
-0.6927084976043798

>  <r_i_glide_ligand_efficiency_ln>  (1) 
-1.645997073191662

>  <r_i_glide_ligand_efficiency_sa>  (1) 
-1.325103685638831

>  <r_i_glide_lipo>  (1) 
-1.5142044402941224

>  <r_i_glide_metal>  (1) 
-0

>  <r_i_glide_rewards>  (1) 
-2.5037700900592315

>  <r_lp_Energy>  (1) 
9.6410049999999998

>  <r_lp_tautomer_probability>  (1) 
1

>  <s_epik_cmdline>  (1) 
J2VwaWtfcHl0aG9uJywgJy1waHQnLCAnMS4wJywgJy1waCcsICc3LjQnLCAnLXRuJywgJzgnLCAnLW1hJywgJzUwMCcsICctaW1hZScsICc8aW5maWxlLm1hZT4nLCAnLW9tYWUnLCAnPG91dGZpbGUubWFlPic=

>  <s_epik_input>  (1) 
W0NIMl0xT1tDSDJdW0NIMl1bQ0gyXU9bQ0gyXTE=

>  <s_glide_docking_method>  (1) 
confgen

>  <s_i_glide_gridfile>  (1) 
gpcr_5ht2c_6bqh_protein_autoprepared_prepared

>  <s_lp_Force_Field>  (1) 
S-OPLS

>  <s_lp_Variant>  (1) 
Pocket2Mol_35_num_sample_100-1

>  <s_m_source_file>  (1) 
generated__ligand_Pocket2Mol_2026-05-06_prepared.sdf

>  <GenAI_Model>  (1) 
Pocket2Mol

>  <Protein>  (1) 
GPCR_5HT2C

$$$$
Pocket2Mol_76_num_sample_100
     RDKit          3D

  0  0  0  0  0  0  0  0  0  0999 V3000
M  V30 BEGIN CTAB
M  V30 COUNTS 12 12 0 0 1
M  V30 BEGIN ATOM
M  V30 1 C 36.497104 34.155970 59.354797 0
M  V30 2 C 37.757856 33.674013 59.845914 0
M  V30 3 C 37.571766 32.656063 60.703665 0
M  V30 4 C 36.103424 32.457653 60.778026 0
M  V30 5 C 35.499195 33.452106 59.890708 0
M  V30 6 C 38.673264 31.849561 61.465067 0
M  V30 7 O 35.503837 31.621430 61.453294 0
M  V30 8 O 38.267403 30.951831 62.234589 0 CHG=-1
M  V30 9 O 39.856472 32.185068 61.229420 0
M  V30 10 H 36.375039 34.967724 58.653501 0
M  V30 11 H 38.721670 34.073265 59.566565 0
M  V30 12 H 34.438481 33.565988 59.723916 0
M  V30 END ATOM
M  V30 BEGIN BOND
M  V30 1 1 2 1
M  V30 2 2 3 2
M  V30 3 1 4 3
M  V30 4 2 5 1
M  V30 5 1 5 4
M  V30 6 1 6 3
M  V30 7 2 7 4
M  V30 8 1 8 6
M  V30 9 2 9 6
M  V30 10 1 10 1
M  V30 11 1 11 2
M  V30 12 1 12 5
M  V30 END BOND
M  V30 END CTAB
M  END
>  <i_epik_Tot_Q>  (1) 
-1

>  <i_epik_Tot_abs_Q>  (1) 
1

>  <i_i_glide_confnum>  (1) 
1

>  <i_i_glide_lignum>  (1) 
81

>  <i_i_glide_posenum>  (1) 
39

>  <i_i_glide_rotatable_bonds>  (1) 
1

>  <i_lp_mmshare_version>  (1) 
72125

>  <i_m_source_file_index>  (1) 
77

>  <i_f3d_flags>  (1) 
0

>  <num_sample>  (1) 
100

>  <b_lp_Chiralities_Consistent>  (1) 
1

>  <r_epik_Charging_Adjusted_Penalty>  (1) 
1.3987331750313068e-05

>  <r_epik_Ionization_Penalty>  (1) 
1.3987331750313068e-05

>  <r_epik_Ionization_Penalty_Charging>  (1) 
1.3987331750313068e-05

>  <r_epik_Ionization_Penalty_Neutral>  (1) 
0

>  <r_epik_State_Penalty>  (1) 
-0

>  <r_glide_ring_energy>  (1) 
0

>  <r_i_docking_score>  (1) 
-4.8475014084120822

>  <r_i_glide_ecoul>  (1) 
-4.0863695186723392

>  <r_i_glide_eff_state_penalty>  (1) 
-0

>  <r_i_glide_einternal>  (1) 
0.019725482978099632

>  <r_i_glide_emodel>  (1) 
-24.172326488985227

>  <r_i_glide_emodel_strain>  (1) 
0

>  <r_i_glide_energy>  (1) 
-18.280862926622461

>  <r_i_glide_erotb>  (1) 
0

>  <r_i_glide_esite>  (1) 
-0.013923788676118732

>  <r_i_glide_evdw>  (1) 
-14.194493407950123

>  <r_i_glide_gscore>  (1) 
-4.8475014084120822

>  <r_i_glide_gscore_strain>  (1) 
0

>  <r_i_glide_hbond>  (1) 
-0.33413371934627728

>  <r_i_glide_ligand_efficiency>  (1) 
-0.53861126760134248

>  <r_i_glide_ligand_efficiency_ln>  (1) 
-1.5161591846797315

>  <r_i_glide_ligand_efficiency_sa>  (1) 
-1.1203565846510328

>  <r_i_glide_lipo>  (1) 
-0.048176987277773212

>  <r_i_glide_metal>  (1) 
-0

>  <r_i_glide_rewards>  (1) 
-3.1285868149135565

>  <r_lp_Energy>  (1) 
9.1486529999999995

>  <r_lp_tautomer_probability>  (1) 
1

>  <s_epik_cmdline>  (1) 
J2VwaWtfcHl0aG9uJywgJy1waHQnLCAnMS4wJywgJy1waCcsICc3LjQnLCAnLXRuJywgJzgnLCAnLW1hJywgJzUwMCcsICctaW1hZScsICc8aW5maWxlLm1hZT4nLCAnLW9tYWUnLCAnPG91dGZpbGUubWFlPic=

>  <s_epik_input>  (1) 
Tz1DMVtDSF09W0NIXVtDSF09QzFDKD1PKVtPSF0=

>  <s_glide_docking_method>  (1) 
confgen

>  <s_i_glide_gridfile>  (1) 
gpcr_5ht2c_6bqh_protein_autoprepared_prepared

>  <s_lp_Force_Field>  (1) 
S-OPLS

>  <s_lp_Variant>  (1) 
Pocket2Mol_76_num_sample_100-1

>  <s_m_source_file>  (1) 
generated__ligand_Pocket2Mol_2026-05-06_prepared.sdf

>  <GenAI_Model>  (1) 
Pocket2Mol

>  <Protein>  (1) 
GPCR_5HT2C

$$$$
Pocket2Mol_65_num_sample_100
     RDKit          3D

  0  0  0  0  0  0  0  0  0  0999 V3000
M  V30 BEGIN CTAB
M  V30 COUNTS 20 20 0 0 1
M  V30 BEGIN ATOM
M  V30 1 C 38.700998 29.198785 53.444926 0
M  V30 2 C 37.685136 29.202779 54.589146 0
M  V30 3 C 39.492724 30.492242 53.639056 0
M  V30 4 C 38.843754 31.169471 54.844647 0
M  V30 5 N 38.329095 30.037681 55.595292 0
M  V30 6 N 37.467404 30.421372 56.677602 0 CHG=1
M  V30 7 C 37.735614 30.013421 57.931101 0
M  V30 8 N 38.799246 29.243807 58.220822 0
M  V30 9 H 39.358593 28.329754 53.520664 0
M  V30 10 H 38.212280 29.158334 52.469738 0
M  V30 11 H 37.467674 28.197933 54.961748 0
M  V30 12 H 36.749909 29.661042 54.251090 0
M  V30 13 H 40.534284 30.261683 53.865919 0
M  V30 14 H 39.469985 31.138618 52.760581 0
M  V30 15 H 38.019129 31.814556 54.526441 0
M  V30 16 H 39.553720 31.763706 55.425892 0
M  V30 17 H 37.070781 30.314856 58.732209 0
M  V30 18 H 39.423630 28.952189 57.482368 0
M  V30 19 H 38.971455 28.952155 59.172879 0
M  V30 20 H 36.647932 31.002794 56.439198 0
M  V30 END ATOM
M  V30 BEGIN BOND
M  V30 1 1 2 1
M  V30 2 1 3 1
M  V30 3 1 4 3
M  V30 4 1 5 2
M  V30 5 1 5 4
M  V30 6 1 6 5
M  V30 7 2 7 6
M  V30 8 1 8 7
M  V30 9 1 9 1
M  V30 10 1 10 1
M  V30 11 1 11 2
M  V30 12 1 12 2
M  V30 13 1 13 3
M  V30 14 1 14 3
M  V30 15 1 15 4
M  V30 16 1 16 4
M  V30 17 1 17 7
M  V30 18 1 18 8
M  V30 19 1 19 8
M  V30 20 1 20 6
M  V30 END BOND
M  V30 END CTAB
M  END
>  <i_epik_Tot_Q>  (1) 
1

>  <i_epik_Tot_abs_Q>  (1) 
1

>  <i_i_glide_confnum>  (1) 
2

>  <i_i_glide_lignum>  (1) 
70

>  <i_i_glide_posenum>  (1) 
288

>  <i_i_glide_rotatable_bonds>  (1) 
1

>  <i_lp_mmshare_version>  (1) 
72125

>  <i_m_source_file_index>  (1) 
66

>  <i_f3d_flags>  (1) 
0

>  <num_sample>  (1) 
100

>  <b_lp_Chiralities_Consistent>  (1) 
1

>  <r_epik_Charging_Adjusted_Penalty>  (1) 
1.6312684749255997e-05

>  <r_epik_Ionization_Penalty>  (1) 
1.6401951855999153e-05

>  <r_epik_Ionization_Penalty_Charging>  (1) 
1.6312684749255997e-05

>  <r_epik_Ionization_Penalty_Neutral>  (1) 
8.9267106743156534e-08

>  <r_epik_State_Penalty>  (1) 
-0

>  <r_glide_ring_energy>  (1) 
0.002520034235707866

>  <r_i_docking_score>  (1) 
-4.8459289175233407

>  <r_i_glide_ecoul>  (1) 
-5.2186517545781239

>  <r_i_glide_eff_state_penalty>  (1) 
-0

>  <r_i_glide_einternal>  (1) 
0.14435530296013033

>  <r_i_glide_emodel>  (1) 
-26.059460791137173

>  <r_i_glide_emodel_strain>  (1) 
1.4253508595629683e-08

>  <r_i_glide_energy>  (1) 
-16.516659022271995

>  <r_i_glide_erotb>  (1) 
0

>  <r_i_glide_esite>  (1) 
-0.1680852186397287

>  <r_i_glide_evdw>  (1) 
-11.298007267693873

>  <r_i_glide_gscore>  (1) 
-4.8459289175233407

>  <r_i_glide_gscore_strain>  (1) 
0

>  <r_i_glide_hbond>  (1) 
-0.20000000000000001

>  <r_i_glide_ligand_efficiency>  (1) 
-0.60574111469041758

>  <r_i_glide_ligand_efficiency_ln>  (1) 
-1.5736388731314854

>  <r_i_glide_ligand_efficiency_sa>  (1) 
-1.2114822293808354

>  <r_i_glide_lipo>  (1) 
-0.88014557231219959

>  <r_i_glide_metal>  (1) 
-0

>  <r_i_glide_rewards>  (1) 
-2.25

>  <r_lp_Energy>  (1) 
13.886725999999999

>  <r_lp_tautomer_probability>  (1) 
1

>  <s_epik_Chemistry_Notes>  (1) 
This compound has an imine and may undergo hydrolysis.

>  <s_epik_cmdline>  (1) 
J2VwaWtfcHl0aG9uJywgJy1waHQnLCAnMS4wJywgJy1waCcsICc3LjQnLCAnLXRuJywgJzgnLCAnLW1hJywgJzUwMCcsICctaW1hZScsICc8aW5maWxlLm1hZT4nLCAnLW9tYWUnLCAnPG91dGZpbGUubWFlPic=

>  <s_epik_input>  (1) 
W0NIMl0xW0NIMl1bQ0gyXVtDSDJdTjEvTj1bQ0hdXFtOSDJd

>  <s_glide_docking_method>  (1) 
confgen

>  <s_i_glide_gridfile>  (1) 
gpcr_5ht2c_6bqh_protein_autoprepared_prepared

>  <s_lp_Force_Field>  (1) 
S-OPLS

>  <s_lp_Variant>  (1) 
Pocket2Mol_65_num_sample_100-2

>  <s_m_source_file>  (1) 
generated__ligand_Pocket2Mol_2026-05-06_prepared.sdf

>  <GenAI_Model>  (1) 
Pocket2Mol

>  <Protein>  (1) 
GPCR_5HT2C

$$$$
Pocket2Mol_20_num_sample_100
     RDKit          3D

  0  0  0  0  0  0  0  0  0  0999 V3000
M  V30 BEGIN CTAB
M  V30 COUNTS 10 10 0 0 1
M  V30 BEGIN ATOM
M  V30 1 C 38.306873 24.836592 57.202736 0
M  V30 2 C 37.261432 24.740348 56.232436 0
M  V30 3 C 39.395524 25.388729 56.582775 0
M  V30 4 C 37.745440 25.237418 55.053505 0
M  V30 5 N 39.043831 25.628064 55.276128 0
M  V30 6 O 39.867403 26.176840 54.332393 0 CHG=-1
M  V30 7 H 38.264447 24.534985 58.237895 0
M  V30 8 H 36.267401 24.350785 56.382566 0
M  V30 9 H 40.382286 25.632556 56.946421 0
M  V30 10 H 37.290086 25.348894 54.080463 0
M  V30 END ATOM
M  V30 BEGIN BOND
M  V30 1 1 2 1
M  V30 2 2 3 1
M  V30 3 2 4 2
M  V30 4 1 5 3
M  V30 5 1 5 4
M  V30 6 1 6 5
M  V30 7 1 7 1
M  V30 8 1 8 2
M  V30 9 1 9 3
M  V30 10 1 10 4
M  V30 END BOND
M  V30 END CTAB
M  END
>  <i_epik_Tot_Q>  (1) 
-1

>  <i_epik_Tot_abs_Q>  (1) 
1

>  <i_i_glide_confnum>  (1) 
1

>  <i_i_glide_lignum>  (1) 
23

>  <i_i_glide_posenum>  (1) 
295

>  <i_i_glide_rotatable_bonds>  (1) 
0

>  <i_lp_mmshare_version>  (1) 
72125

>  <i_m_source_file_index>  (1) 
21

>  <i_f3d_flags>  (1) 
0

>  <num_sample>  (1) 
100

>  <b_lp_Chiralities_Consistent>  (1) 
1

>  <r_epik_Charging_Adjusted_Penalty>  (1) 
0.038602441834166765

>  <r_epik_Ionization_Penalty>  (1) 
0.019301220976331968

>  <r_epik_Ionization_Penalty_Charging>  (1) 
0.019301220917083386

>  <r_epik_Ionization_Penalty_Neutral>  (1) 
5.9248581604286784e-11

>  <r_epik_State_Penalty>  (1) 
0.019301220917083379

>  <r_glide_ring_energy>  (1) 
0

>  <r_i_docking_score>  (1) 
-4.8426123096655349

>  <r_i_glide_ecoul>  (1) 
-0.43343835675243397

>  <r_i_glide_eff_state_penalty>  (1) 
0.019301220917083379

>  <r_i_glide_einternal>  (1) 
0

>  <r_i_glide_emodel>  (1) 
-17.704035380064219

>  <r_i_glide_emodel_strain>  (1) 
0

>  <r_i_glide_energy>  (1) 
-13.084597998916523

>  <r_i_glide_erotb>  (1) 
0

>  <r_i_glide_esite>  (1) 
0

>  <r_i_glide_evdw>  (1) 
-12.651159642164089

>  <r_i_glide_gscore>  (1) 
-4.8619135305826182

>  <r_i_glide_gscore_strain>  (1) 
0

>  <r_i_glide_hbond>  (1) 
0

>  <r_i_glide_ligand_efficiency>  (1) 
-0.80710205161092252

>  <r_i_glide_ligand_efficiency_ln>  (1) 
-1.7346094328837569

>  <r_i_glide_ligand_efficiency_sa>  (1) 
-1.4666017584992759

>  <r_i_glide_lipo>  (1) 
-1.3200000000000001

>  <r_i_glide_metal>  (1) 
-0

>  <r_i_glide_rewards>  (1) 
-2.8443397949615483

>  <r_lp_Energy>  (1) 
1.8910769999999999

>  <r_lp_tautomer_probability>  (1) 
1

>  <s_epik_cmdline>  (1) 
J2VwaWtfcHl0aG9uJywgJy1waHQnLCAnMS4wJywgJy1waCcsICc3LjQnLCAnLXRuJywgJzgnLCAnLW1hJywgJzUwMCcsICctaW1hZScsICc8aW5maWxlLm1hZT4nLCAnLW9tYWUnLCAnPG91dGZpbGUubWFlPic=

>  <s_epik_input>  (1) 
W2NIXTFbY0hdW2NIXVtjSF1uMVtPSF0=

>  <s_glide_docking_method>  (1) 
confgen

>  <s_i_glide_gridfile>  (1) 
gpcr_5ht2c_6bqh_protein_autoprepared_prepared

>  <s_lp_Force_Field>  (1) 
S-OPLS

>  <s_lp_Variant>  (1) 
Pocket2Mol_20_num_sample_100-1

>  <s_m_source_file>  (1) 
generated__ligand_Pocket2Mol_2026-05-06_prepared.sdf

>  <GenAI_Model>  (1) 
Pocket2Mol

>  <Protein>  (1) 
GPCR_5HT2C

$$$$
Pocket2Mol_60_num_sample_100
     RDKit          3D

  0  0  0  0  0  0  0  0  0  0999 V3000
M  V30 BEGIN CTAB
M  V30 COUNTS 12 12 0 0 1
M  V30 BEGIN ATOM
M  V30 1 C 39.962242 29.255934 51.144603 0
M  V30 2 C 39.467469 29.578448 52.452279 0
M  V30 3 C 39.447531 28.031266 50.799331 0
M  V30 4 C 38.673403 28.539599 52.852190 0
M  V30 5 N 38.667080 27.614408 51.847259 0
M  V30 6 C 37.906112 28.296055 54.082211 0
M  V30 7 O 37.921205 29.171627 54.972572 0
M  V30 8 O 37.273893 27.221430 54.183900 0 CHG=-1
M  V30 9 H 40.619811 29.853998 50.530583 0
M  V30 10 H 39.672738 30.467762 53.030820 0
M  V30 11 H 39.561371 27.427353 49.915537 0
M  V30 12 H 38.149551 26.744665 51.877396 0
M  V30 END ATOM
M  V30 BEGIN BOND
M  V30 1 1 2 1
M  V30 2 2 3 1
M  V30 3 2 4 2
M  V30 4 1 5 3
M  V30 5 1 5 4
M  V30 6 1 6 4
M  V30 7 2 7 6
M  V30 8 1 8 6
M  V30 9 1 9 1
M  V30 10 1 10 2
M  V30 11 1 11 3
M  V30 12 1 12 5
M  V30 END BOND
M  V30 END CTAB
M  END
>  <i_epik_Tot_Q>  (1) 
-1

>  <i_epik_Tot_abs_Q>  (1) 
1

>  <i_i_glide_confnum>  (1) 
1

>  <i_i_glide_lignum>  (1) 
64

>  <i_i_glide_posenum>  (1) 
195

>  <i_i_glide_rotatable_bonds>  (1) 
1

>  <i_lp_mmshare_version>  (1) 
72125

>  <i_m_source_file_index>  (1) 
61

>  <i_f3d_flags>  (1) 
0

>  <num_sample>  (1) 
100

>  <b_lp_Chiralities_Consistent>  (1) 
1

>  <r_epik_Charging_Adjusted_Penalty>  (1) 
0.00021018459712964226

>  <r_epik_Ionization_Penalty>  (1) 
0.00021021235475979092

>  <r_epik_Ionization_Penalty_Charging>  (1) 
0.00021018459712964226

>  <r_epik_Ionization_Penalty_Neutral>  (1) 
2.7757630148672405e-08

>  <r_epik_State_Penalty>  (1) 
-0

>  <r_glide_ring_energy>  (1) 
0

>  <r_i_docking_score>  (1) 
-4.8373211640709215

>  <r_i_glide_ecoul>  (1) 
-0.97285604007959781

>  <r_i_glide_eff_state_penalty>  (1) 
-0

>  <r_i_glide_einternal>  (1) 
0.00057908040468102051

>  <r_i_glide_emodel>  (1) 
-21.675886483904886

>  <r_i_glide_emodel_strain>  (1) 
0

>  <r_i_glide_energy>  (1) 
-16.360734132461538

>  <r_i_glide_erotb>  (1) 
0

>  <r_i_glide_esite>  (1) 
0

>  <r_i_glide_evdw>  (1) 
-15.387878092381939

>  <r_i_glide_gscore>  (1) 
-4.8373211640709215

>  <r_i_glide_gscore_strain>  (1) 
0

>  <r_i_glide_hbond>  (1) 
0

>  <r_i_glide_ligand_efficiency>  (1) 
-0.60466514550886519

>  <r_i_glide_ligand_efficiency_ln>  (1) 
-1.5708436411597417

>  <r_i_glide_ligand_efficiency_sa>  (1) 
-1.2093302910177306

>  <r_i_glide_lipo>  (1) 
-1.2370830492355243

>  <r_i_glide_metal>  (1) 
-0

>  <r_i_glide_rewards>  (1) 
-2.6849158042043602

>  <r_lp_Energy>  (1) 
7.8081959999999997

>  <r_lp_tautomer_probability>  (1) 
1

>  <s_epik_cmdline>  (1) 
J2VwaWtfcHl0aG9uJywgJy1waHQnLCAnMS4wJywgJy1waCcsICc3LjQnLCAnLXRuJywgJzgnLCAnLW1hJywgJzUwMCcsICctaW1hZScsICc8aW5maWxlLm1hZT4nLCAnLW9tYWUnLCAnPG91dGZpbGUubWFlPic=

>  <s_epik_input>  (1) 
W25IXTFbY0hdW2NIXVtjSF1jMUMoPU8pW09IXQ==

>  <s_glide_docking_method>  (1) 
confgen

>  <s_i_glide_gridfile>  (1) 
gpcr_5ht2c_6bqh_protein_autoprepared_prepared

>  <s_lp_Force_Field>  (1) 
S-OPLS

>  <s_lp_Variant>  (1) 
Pocket2Mol_60_num_sample_100-1

>  <s_m_source_file>  (1) 
generated__ligand_Pocket2Mol_2026-05-06_prepared.sdf

>  <GenAI_Model>  (1) 
Pocket2Mol

>  <Protein>  (1) 
GPCR_5HT2C

$$$$
Pocket2Mol_37_num_sample_100
     RDKit          3D

  0  0  0  0  0  0  0  0  0  0999 V3000
M  V30 BEGIN CTAB
M  V30 COUNTS 11 11 0 0 1
M  V30 BEGIN ATOM
M  V30 1 C 38.517540 27.741248 52.180261 0
M  V30 2 O 38.422618 28.519927 53.311640 0
M  V30 3 C 39.067403 29.763477 53.453496 0
M  V30 4 O 38.984439 30.450364 54.468074 0
M  V30 5 C 39.867403 30.167856 52.241432 0
M  V30 6 C 39.234227 28.126225 51.130217 0
M  V30 7 C 39.923760 29.369417 51.160897 0
M  V30 8 H 37.957906 26.821429 52.253529 0
M  V30 9 H 40.391821 31.112410 52.261962 0
M  V30 10 H 39.291221 27.496341 50.253521 0
M  V30 11 H 40.502013 29.677835 50.302049 0
M  V30 END ATOM
M  V30 BEGIN BOND
M  V30 1 1 2 1
M  V30 2 1 3 2
M  V30 3 2 4 3
M  V30 4 1 5 3
M  V30 5 2 6 1
M  V30 6 2 7 5
M  V30 7 1 7 6
M  V30 8 1 8 1
M  V30 9 1 9 5
M  V30 10 1 10 6
M  V30 11 1 11 7
M  V30 END BOND
M  V30 END CTAB
M  END
>  <i_epik_Tot_Q>  (1) 
0

>  <i_epik_Tot_abs_Q>  (1) 
0

>  <i_i_glide_confnum>  (1) 
1

>  <i_i_glide_lignum>  (1) 
40

>  <i_i_glide_posenum>  (1) 
363

>  <i_i_glide_rotatable_bonds>  (1) 
0

>  <i_lp_mmshare_version>  (1) 
72125

>  <i_m_source_file_index>  (1) 
38

>  <i_f3d_flags>  (1) 
0

>  <num_sample>  (1) 
100

>  <b_lp_Chiralities_Consistent>  (1) 
1

>  <r_epik_Charging_Adjusted_Penalty>  (1) 
0

>  <r_epik_Ionization_Penalty>  (1) 
2.4984917370333966e-09

>  <r_epik_Ionization_Penalty_Charging>  (1) 
0

>  <r_epik_Ionization_Penalty_Neutral>  (1) 
2.4984917370333966e-09

>  <r_epik_State_Penalty>  (1) 
-0

>  <r_glide_ring_energy>  (1) 
0

>  <r_i_docking_score>  (1) 
-4.8213106875718976

>  <r_i_glide_ecoul>  (1) 
-0.5393564512979232

>  <r_i_glide_eff_state_penalty>  (1) 
-0

>  <r_i_glide_einternal>  (1) 
0

>  <r_i_glide_emodel>  (1) 
-22.068671886439709

>  <r_i_glide_emodel_strain>  (1) 
1.0526779448127854e-09

>  <r_i_glide_energy>  (1) 
-16.867275590190403

>  <r_i_glide_erotb>  (1) 
0

>  <r_i_glide_esite>  (1) 
0

>  <r_i_glide_evdw>  (1) 
-16.327919138892479

>  <r_i_glide_gscore>  (1) 
-4.8213106875718976

>  <r_i_glide_gscore_strain>  (1) 
0

>  <r_i_glide_hbond>  (1) 
0

>  <r_i_glide_ligand_efficiency>  (1) 
-0.68875866965312826

>  <r_i_glide_ligand_efficiency_ln>  (1) 
-1.6366115881429657

>  <r_i_glide_ligand_efficiency_sa>  (1) 
-1.3175479365842959

>  <r_i_glide_lipo>  (1) 
-1.5136169790884648

>  <r_i_glide_metal>  (1) 
-0

>  <r_i_glide_rewards>  (1) 
-2.4103942838441208

>  <r_lp_Energy>  (1) 
11.255118999999999

>  <r_lp_tautomer_probability>  (1) 
1

>  <s_epik_cmdline>  (1) 
J2VwaWtfcHl0aG9uJywgJy1waHQnLCAnMS4wJywgJy1waCcsICc3LjQnLCAnLXRuJywgJzgnLCAnLW1hJywgJzUwMCcsICctaW1hZScsICc8aW5maWxlLm1hZT4nLCAnLW9tYWUnLCAnPG91dGZpbGUubWFlPic=

>  <s_epik_input>  (1) 
W2NIXTFbY0hdW2NIXVtjSF1vYzE9Tw==

>  <s_glide_docking_method>  (1) 
confgen

>  <s_i_glide_gridfile>  (1) 
gpcr_5ht2c_6bqh_protein_autoprepared_prepared

>  <s_lp_Force_Field>  (1) 
S-OPLS

>  <s_lp_Variant>  (1) 
Pocket2Mol_37_num_sample_100-1

>  <s_m_source_file>  (1) 
generated__ligand_Pocket2Mol_2026-05-06_prepared.sdf

>  <GenAI_Model>  (1) 
Pocket2Mol

>  <Protein>  (1) 
GPCR_5HT2C

$$$$
Pocket2Mol_39_num_sample_100
     RDKit          3D

  0  0  0  0  0  0  0  0  0  0999 V3000
M  V30 BEGIN CTAB
M  V30 COUNTS 15 15 0 0 1
M  V30 BEGIN ATOM
M  V30 1 C 39.994590 28.946563 51.422999 0
M  V30 2 C 39.067046 27.724149 51.372147 0
M  V30 3 O 39.467580 30.018977 52.189853 0
M  V30 4 C 39.067505 29.705333 53.486615 0
M  V30 5 O 39.085322 27.115860 52.650516 0
M  V30 6 O 37.890776 28.960480 53.490567 0
M  V30 7 C 38.093986 27.579366 53.512899 0
M  V30 8 H 40.974011 28.664749 51.806755 0
M  V30 9 H 40.157487 29.320599 50.412009 0
M  V30 10 H 39.457908 27.004032 50.653076 0
M  V30 11 H 38.056062 27.981900 51.053499 0
M  V30 12 H 38.832932 30.655411 53.967172 0
M  V30 13 H 39.866982 29.240330 54.065645 0
M  V30 14 H 38.351843 27.270224 54.526715 0
M  V30 15 H 37.148756 27.102650 53.247967 0
M  V30 END ATOM
M  V30 BEGIN BOND
M  V30 1 1 2 1
M  V30 2 1 3 1
M  V30 3 1 4 3
M  V30 4 1 5 2
M  V30 5 1 6 4
M  V30 6 1 7 5
M  V30 7 1 7 6
M  V30 8 1 8 1
M  V30 9 1 9 1
M  V30 10 1 10 2
M  V30 11 1 11 2
M  V30 12 1 12 4
M  V30 13 1 13 4
M  V30 14 1 14 7
M  V30 15 1 15 7
M  V30 END BOND
M  V30 END CTAB
M  END
>  <i_epik_Tot_Q>  (1) 
0

>  <i_epik_Tot_abs_Q>  (1) 
0

>  <i_i_glide_confnum>  (1) 
6

>  <i_i_glide_lignum>  (1) 
42

>  <i_i_glide_posenum>  (1) 
379

>  <i_i_glide_rotatable_bonds>  (1) 
0

>  <i_lp_mmshare_version>  (1) 
72125

>  <i_m_source_file_index>  (1) 
40

>  <i_f3d_flags>  (1) 
0

>  <num_sample>  (1) 
100

>  <b_lp_Chiralities_Consistent>  (1) 
1

>  <r_epik_Charging_Adjusted_Penalty>  (1) 
0

>  <r_epik_Ionization_Penalty>  (1) 
4.6834743432320728e-14

>  <r_epik_Ionization_Penalty_Charging>  (1) 
0

>  <r_epik_Ionization_Penalty_Neutral>  (1) 
4.6834743432320728e-14

>  <r_epik_State_Penalty>  (1) 
-0

>  <r_glide_ring_energy>  (1) 
0.00047957236178236941

>  <r_i_docking_score>  (1) 
-4.8115414809406518

>  <r_i_glide_ecoul>  (1) 
-0.95935032819725719

>  <r_i_glide_eff_state_penalty>  (1) 
-0

>  <r_i_glide_einternal>  (1) 
0

>  <r_i_glide_emodel>  (1) 
-22.083224121156057

>  <r_i_glide_emodel_strain>  (1) 
0

>  <r_i_glide_energy>  (1) 
-16.68170870801217

>  <r_i_glide_erotb>  (1) 
0

>  <r_i_glide_esite>  (1) 
0

>  <r_i_glide_evdw>  (1) 
-15.722358379814912

>  <r_i_glide_gscore>  (1) 
-4.8115414809406518

>  <r_i_glide_gscore_strain>  (1) 
0

>  <r_i_glide_hbond>  (1) 
0

>  <r_i_glide_ligand_efficiency>  (1) 
-0.68736306870580743

>  <r_i_glide_ligand_efficiency_ln>  (1) 
-1.6332953951374261

>  <r_i_glide_ligand_efficiency_sa>  (1) 
-1.3148782480134591

>  <r_i_glide_lipo>  (1) 
-0.66000000000000003

>  <r_i_glide_metal>  (1) 
-0

>  <r_i_glide_rewards>  (1) 
-3.2215210127203173

>  <r_lp_Energy>  (1) 
1.238378

>  <r_lp_tautomer_probability>  (1) 
1

>  <s_epik_Chemistry_Notes>  (1) 
This compound contains an acetal/aminal-like group ( X-CH(R)-Y where X, Y are N, S, or O) that may be acid/base labile, releasing an aldehyde.

>  <s_epik_cmdline>  (1) 
J2VwaWtfcHl0aG9uJywgJy1waHQnLCAnMS4wJywgJy1waCcsICc3LjQnLCAnLXRuJywgJzgnLCAnLW1hJywgJzUwMCcsICctaW1hZScsICc8aW5maWxlLm1hZT4nLCAnLW9tYWUnLCAnPG91dGZpbGUubWFlPic=

>  <s_epik_input>  (1) 
W0NIMl0xW0NIMl1PW0NIMl1PW0NIMl1PMQ==

>  <s_glide_docking_method>  (1) 
confgen

>  <s_i_glide_gridfile>  (1) 
gpcr_5ht2c_6bqh_protein_autoprepared_prepared

>  <s_lp_Force_Field>  (1) 
S-OPLS

>  <s_lp_Variant>  (1) 
Pocket2Mol_39_num_sample_100-1

>  <s_m_source_file>  (1) 
generated__ligand_Pocket2Mol_2026-05-06_prepared.sdf

>  <GenAI_Model>  (1) 
Pocket2Mol

>  <Protein>  (1) 
GPCR_5HT2C

$$$$
Pocket2Mol_4_num_sample_100
     RDKit          3D

  0  0  0  0  0  0  0  0  0  0999 V3000
M  V30 BEGIN CTAB
M  V30 COUNTS 9 9 0 0 1
M  V30 BEGIN ATOM
M  V30 1 C 39.823284 28.805138 50.653502 0
M  V30 2 C 39.067404 27.740789 51.204823 0
M  V30 3 C 39.866728 29.706432 51.550036 0
M  V30 4 C 39.134340 29.196156 52.651879 0
M  V30 5 C 38.619005 27.957913 52.464029 0
M  V30 6 H 40.267414 28.844237 49.670743 0
M  V30 7 H 38.869453 26.832051 50.653662 0
M  V30 8 H 40.357615 30.667102 51.483833 0
M  V30 9 H 39.004528 29.759670 53.564498 0
M  V30 END ATOM
M  V30 BEGIN BOND
M  V30 1 1 2 1
M  V30 2 2 3 1
M  V30 3 1 4 3
M  V30 4 2 5 2
M  V30 5 2 5 4
M  V30 6 1 6 1
M  V30 7 1 7 2
M  V30 8 1 8 3
M  V30 9 1 9 4
M  V30 END BOND
M  V30 END CTAB
M  END
>  <i_epik_Tot_Q>  (1) 
0

>  <i_epik_Tot_abs_Q>  (1) 
0

>  <i_i_glide_confnum>  (1) 
1

>  <i_i_glide_lignum>  (1) 
7

>  <i_i_glide_posenum>  (1) 
178

>  <i_i_glide_rotatable_bonds>  (1) 
0

>  <i_lp_mmshare_version>  (1) 
72125

>  <i_m_source_file_index>  (1) 
5

>  <i_f3d_flags>  (1) 
0

>  <num_sample>  (1) 
100

>  <b_lp_Chiralities_Consistent>  (1) 
1

>  <r_epik_Charging_Adjusted_Penalty>  (1) 
0

>  <r_epik_Ionization_Penalty>  (1) 
0

>  <r_epik_Ionization_Penalty_Charging>  (1) 
0

>  <r_epik_Ionization_Penalty_Neutral>  (1) 
0

>  <r_epik_State_Penalty>  (1) 
-0

>  <r_glide_ring_energy>  (1) 
0

>  <r_i_docking_score>  (1) 
-4.8092586642394721

>  <r_i_glide_ecoul>  (1) 
-0.38959767894843989

>  <r_i_glide_eff_state_penalty>  (1) 
-0

>  <r_i_glide_einternal>  (1) 
0

>  <r_i_glide_emodel>  (1) 
-18.907440161728516

>  <r_i_glide_emodel_strain>  (1) 
0

>  <r_i_glide_energy>  (1) 
-14.772038343950165

>  <r_i_glide_erotb>  (1) 
0

>  <r_i_glide_esite>  (1) 
0

>  <r_i_glide_evdw>  (1) 
-14.382440665001724

>  <r_i_glide_gscore>  (1) 
-4.8092586642394721

>  <r_i_glide_gscore_strain>  (1) 
0

>  <r_i_glide_hbond>  (1) 
0

>  <r_i_glide_ligand_efficiency>  (1) 
-0.96185173284789438

>  <r_i_glide_ligand_efficiency_ln>  (1) 
-1.8430247530792425

>  <r_i_glide_ligand_efficiency_sa>  (1) 
-1.6447433274391998

>  <r_i_glide_lipo>  (1) 
-1.5874143296210836

>  <r_i_glide_metal>  (1) 
-0

>  <r_i_glide_rewards>  (1) 
-2.4442826495260355

>  <r_lp_Energy>  (1) 
-2.6088139999999997

>  <r_lp_tautomer_probability>  (1) 
1

>  <s_epik_cmdline>  (1) 
J2VwaWtfcHl0aG9uJywgJy1waHQnLCAnMS4wJywgJy1waCcsICc3LjQnLCAnLXRuJywgJzgnLCAnLW1hJywgJzUwMCcsICctaW1hZScsICc8aW5maWxlLm1hZT4nLCAnLW9tYWUnLCAnPG91dGZpbGUubWFlPic=

>  <s_epik_input>  (1) 
W0NIXTE9W0NIXVtDSF09Qz1bQ0hdMQ==

>  <s_glide_docking_method>  (1) 
confgen

>  <s_i_glide_gridfile>  (1) 
gpcr_5ht2c_6bqh_protein_autoprepared_prepared

>  <s_lp_Force_Field>  (1) 
S-OPLS

>  <s_lp_Variant>  (1) 
Pocket2Mol_4_num_sample_100-1

>  <s_m_source_file>  (1) 
generated__ligand_Pocket2Mol_2026-05-06_prepared.sdf

>  <GenAI_Model>  (1) 
Pocket2Mol

>  <Protein>  (1) 
GPCR_5HT2C

$$$$
Pocket2Mol_16_num_sample_100
     RDKit          3D

  0  0  0  0  0  0  0  0  0  0999 V3000
M  V30 BEGIN CTAB
M  V30 COUNTS 18 18 0 0 1
M  V30 BEGIN ATOM
M  V30 1 C 37.603842 26.003316 55.657699 0
M  V30 2 C 37.640761 24.515511 55.992188 0
M  V30 3 C 38.758358 26.618487 56.450707 0
M  V30 4 C 38.223682 24.421494 57.409971 0
M  V30 5 C 38.777436 25.810696 57.753857 0
M  V30 6 C 40.091645 26.531688 55.696117 0
M  V30 7 H 36.667453 26.421423 56.017774 0
M  V30 8 H 37.661764 26.195973 54.585327 0
M  V30 9 H 36.661209 24.043018 55.908368 0
M  V30 10 H 38.304442 24.021328 55.284144 0
M  V30 11 H 38.551418 27.669015 56.660324 0
M  V30 12 H 37.462150 24.126499 58.132094 0
M  V30 13 H 39.010777 23.666565 57.452589 0
M  V30 14 H 39.768690 25.759510 58.206602 0
M  V30 15 H 38.120101 26.286327 58.482165 0
M  V30 16 H 40.364071 25.500854 55.470522 0
M  V30 17 H 40.900837 26.965608 56.284701 0
M  V30 18 H 40.037395 27.074974 54.753106 0
M  V30 END ATOM
M  V30 BEGIN BOND
M  V30 1 1 2 1
M  V30 2 1 3 1
M  V30 3 1 4 2
M  V30 4 1 5 3
M  V30 5 1 5 4
M  V30 6 1 6 3
M  V30 7 1 7 1
M  V30 8 1 8 1
M  V30 9 1 9 2
M  V30 10 1 10 2
M  V30 11 1 11 3
M  V30 12 1 12 4
M  V30 13 1 13 4
M  V30 14 1 14 5
M  V30 15 1 15 5
M  V30 16 1 16 6
M  V30 17 1 17 6
M  V30 18 1 18 6
M  V30 END BOND
M  V30 END CTAB
M  END
>  <i_epik_Tot_Q>  (1) 
0

>  <i_epik_Tot_abs_Q>  (1) 
0

>  <i_i_glide_confnum>  (1) 
4

>  <i_i_glide_lignum>  (1) 
19

>  <i_i_glide_posenum>  (1) 
13

>  <i_i_glide_rotatable_bonds>  (1) 
0

>  <i_lp_mmshare_version>  (1) 
72125

>  <i_m_source_file_index>  (1) 
17

>  <i_f3d_flags>  (1) 
0

>  <num_sample>  (1) 
100

>  <b_lp_Chiralities_Consistent>  (1) 
1

>  <r_epik_Charging_Adjusted_Penalty>  (1) 
0

>  <r_epik_Ionization_Penalty>  (1) 
0

>  <r_epik_Ionization_Penalty_Charging>  (1) 
0

>  <r_epik_Ionization_Penalty_Neutral>  (1) 
0

>  <r_epik_State_Penalty>  (1) 
-0

>  <r_glide_ring_energy>  (1) 
1.1090637560940064

>  <r_i_docking_score>  (1) 
-4.8046565388331031

>  <r_i_glide_ecoul>  (1) 
0.073808703522766972

>  <r_i_glide_eff_state_penalty>  (1) 
-0

>  <r_i_glide_einternal>  (1) 
0

>  <r_i_glide_emodel>  (1) 
-18.700784160020451

>  <r_i_glide_emodel_strain>  (1) 
6.4860794051213588e-05

>  <r_i_glide_energy>  (1) 
-14.017557453271182

>  <r_i_glide_erotb>  (1) 
0

>  <r_i_glide_esite>  (1) 
0

>  <r_i_glide_evdw>  (1) 
-14.091366156793949

>  <r_i_glide_gscore>  (1) 
-4.8046565388331031

>  <r_i_glide_gscore_strain>  (1) 
0

>  <r_i_glide_hbond>  (1) 
0

>  <r_i_glide_ligand_efficiency>  (1) 
-0.80077608980551718

>  <r_i_glide_ligand_efficiency_ln>  (1) 
-1.721013787825221

>  <r_i_glide_ligand_efficiency_sa>  (1) 
-1.4551067230332042

>  <r_i_glide_lipo>  (1) 
-1.7189227098335811

>  <r_i_glide_metal>  (1) 
-0

>  <r_i_glide_rewards>  (1) 
-2.3922368266882392

>  <r_lp_Energy>  (1) 
6.4120089999999994

>  <r_lp_tautomer_probability>  (1) 
1

>  <s_epik_cmdline>  (1) 
J2VwaWtfcHl0aG9uJywgJy1waHQnLCAnMS4wJywgJy1waCcsICc3LjQnLCAnLXRuJywgJzgnLCAnLW1hJywgJzUwMCcsICctaW1hZScsICc8aW5maWxlLm1hZT4nLCAnLW9tYWUnLCAnPG91dGZpbGUubWFlPic=

>  <s_epik_input>  (1) 
W0NIM11bQ0hdMVtDSDJdW0NIMl1bQ0gyXVtDSDJdMQ==

>  <s_glide_docking_method>  (1) 
confgen

>  <s_i_glide_gridfile>  (1) 
gpcr_5ht2c_6bqh_protein_autoprepared_prepared

>  <s_lp_Force_Field>  (1) 
S-OPLS

>  <s_lp_Variant>  (1) 
Pocket2Mol_16_num_sample_100-1

>  <s_m_source_file>  (1) 
generated__ligand_Pocket2Mol_2026-05-06_prepared.sdf

>  <GenAI_Model>  (1) 
Pocket2Mol

>  <Protein>  (1) 
GPCR_5HT2C

$$$$
Pocket2Mol_28_num_sample_100
     RDKit          3D

  0  0  0  0  0  0  0  0  0  0999 V3000
M  V30 BEGIN CTAB
M  V30 COUNTS 13 13 0 0 1
M  V30 BEGIN ATOM
M  V30 1 C 39.467533 28.409617 50.825863 0
M  V30 2 O 38.987227 27.947159 52.077581 0
M  V30 3 C 38.667411 28.802450 53.080823 0
M  V30 4 O 37.842922 28.565807 53.960439 0
M  V30 5 C 39.467403 30.126448 53.053496 0
M  V30 6 C 40.490874 29.529537 50.986023 0
M  V30 7 O 39.867398 30.542019 51.747266 0
M  V30 8 H 38.622033 28.770609 50.248685 0
M  V30 9 H 39.897155 27.571234 50.276895 0
M  V30 10 H 40.352713 30.021437 53.679581 0
M  V30 11 H 38.861746 30.917141 53.497263 0
M  V30 12 H 40.764032 29.933166 50.010595 0
M  V30 13 H 41.407623 29.174052 51.453515 0
M  V30 END ATOM
M  V30 BEGIN BOND
M  V30 1 1 2 1
M  V30 2 1 3 2
M  V30 3 2 4 3
M  V30 4 1 5 3
M  V30 5 1 6 1
M  V30 6 1 7 5
M  V30 7 1 7 6
M  V30 8 1 8 1
M  V30 9 1 9 1
M  V30 10 1 10 5
M  V30 11 1 11 5
M  V30 12 1 12 6
M  V30 13 1 13 6
M  V30 END BOND
M  V30 END CTAB
M  END
>  <i_epik_Tot_Q>  (1) 
0

>  <i_epik_Tot_abs_Q>  (1) 
0

>  <i_i_glide_confnum>  (1) 
2

>  <i_i_glide_lignum>  (1) 
31

>  <i_i_glide_posenum>  (1) 
152

>  <i_i_glide_rotatable_bonds>  (1) 
0

>  <i_lp_mmshare_version>  (1) 
72125

>  <i_m_source_file_index>  (1) 
29

>  <i_f3d_flags>  (1) 
0

>  <num_sample>  (1) 
100

>  <b_lp_Chiralities_Consistent>  (1) 
1

>  <r_epik_Charging_Adjusted_Penalty>  (1) 
0

>  <r_epik_Ionization_Penalty>  (1) 
1.0677269036415479e-12

>  <r_epik_Ionization_Penalty_Charging>  (1) 
0

>  <r_epik_Ionization_Penalty_Neutral>  (1) 
1.0677269036415479e-12

>  <r_epik_State_Penalty>  (1) 
-0

>  <r_glide_ring_energy>  (1) 
4.2281688740393558e-05

>  <r_i_docking_score>  (1) 
-4.7884715428870308

>  <r_i_glide_ecoul>  (1) 
0.11097106742387053

>  <r_i_glide_eff_state_penalty>  (1) 
-0

>  <r_i_glide_einternal>  (1) 
0

>  <r_i_glide_emodel>  (1) 
-21.231467214891637

>  <r_i_glide_emodel_strain>  (1) 
0

>  <r_i_glide_energy>  (1) 
-16.316700731088041

>  <r_i_glide_erotb>  (1) 
0

>  <r_i_glide_esite>  (1) 
0

>  <r_i_glide_evdw>  (1) 
-16.427671798511913

>  <r_i_glide_gscore>  (1) 
-4.7884715428870308

>  <r_i_glide_gscore_strain>  (1) 
0

>  <r_i_glide_hbond>  (1) 
0

>  <r_i_glide_ligand_efficiency>  (1) 
-0.68406736326957585

>  <r_i_glide_ligand_efficiency_ln>  (1) 
-1.6254642200891922

>  <r_i_glide_ligand_efficiency_sa>  (1) 
-1.3085737903152592

>  <r_i_glide_lipo>  (1) 
-0.87761436415476568

>  <r_i_glide_metal>  (1) 
-0

>  <r_i_glide_rewards>  (1) 
-3.1061192489202503

>  <r_lp_Energy>  (1) 
12.58291

>  <r_lp_tautomer_probability>  (1) 
1

>  <s_epik_Chemistry_Notes>  (1) 
This compound has an ester and may undergo hydrolysis at high or low pH.

>  <s_epik_cmdline>  (1) 
J2VwaWtfcHl0aG9uJywgJy1waHQnLCAnMS4wJywgJy1waCcsICc3LjQnLCAnLXRuJywgJzgnLCAnLW1hJywgJzUwMCcsICctaW1hZScsICc8aW5maWxlLm1hZT4nLCAnLW9tYWUnLCAnPG91dGZpbGUubWFlPic=

>  <s_epik_input>  (1) 
W0NIMl0xT1tDSDJdW0NIMl1PQzE9Tw==

>  <s_glide_docking_method>  (1) 
confgen

>  <s_i_glide_gridfile>  (1) 
gpcr_5ht2c_6bqh_protein_autoprepared_prepared

>  <s_lp_Force_Field>  (1) 
S-OPLS

>  <s_lp_Variant>  (1) 
Pocket2Mol_28_num_sample_100-1

>  <s_m_source_file>  (1) 
generated__ligand_Pocket2Mol_2026-05-06_prepared.sdf

>  <GenAI_Model>  (1) 
Pocket2Mol

>  <Protein>  (1) 
GPCR_5HT2C

$$$$
Pocket2Mol_60_num_sample_100
     RDKit          3D

  0  0  0  0  0  0  0  0  0  0999 V3000
M  V30 BEGIN CTAB
M  V30 COUNTS 12 12 0 0 1
M  V30 BEGIN ATOM
M  V30 1 C 40.315319 30.302175 50.978308 0
M  V30 2 C 39.867405 30.139894 52.331597 0
M  V30 3 C 39.867407 29.221426 50.261622 0
M  V30 4 C 39.160579 28.969725 52.388502 0
M  V30 5 N 39.168499 28.422071 51.134762 0
M  V30 6 C 38.464269 28.284589 53.492389 0
M  V30 7 O 38.482176 28.814488 54.623652 0
M  V30 8 O 37.886646 27.202457 53.249694 0 CHG=-1
M  V30 9 H 40.899357 31.118596 50.578629 0
M  V30 10 H 40.041974 30.806546 53.163595 0
M  V30 11 H 39.979167 28.953302 49.222884 0
M  V30 12 H 38.716776 27.550458 50.891328 0
M  V30 END ATOM
M  V30 BEGIN BOND
M  V30 1 1 2 1
M  V30 2 2 3 1
M  V30 3 2 4 2
M  V30 4 1 5 3
M  V30 5 1 5 4
M  V30 6 1 6 4
M  V30 7 2 7 6
M  V30 8 1 8 6
M  V30 9 1 9 1
M  V30 10 1 10 2
M  V30 11 1 11 3
M  V30 12 1 12 5
M  V30 END BOND
M  V30 END CTAB
M  END
>  <i_epik_Tot_Q>  (1) 
-1

>  <i_epik_Tot_abs_Q>  (1) 
1

>  <i_i_glide_confnum>  (1) 
1

>  <i_i_glide_lignum>  (1) 
64

>  <i_i_glide_posenum>  (1) 
358

>  <i_i_glide_rotatable_bonds>  (1) 
1

>  <i_lp_mmshare_version>  (1) 
72125

>  <i_m_source_file_index>  (1) 
61

>  <i_f3d_flags>  (1) 
0

>  <num_sample>  (1) 
100

>  <b_lp_Chiralities_Consistent>  (1) 
1

>  <r_epik_Charging_Adjusted_Penalty>  (1) 
0.00021018459712964226

>  <r_epik_Ionization_Penalty>  (1) 
0.00021021235475979092

>  <r_epik_Ionization_Penalty_Charging>  (1) 
0.00021018459712964226

>  <r_epik_Ionization_Penalty_Neutral>  (1) 
2.7757630148672405e-08

>  <r_epik_State_Penalty>  (1) 
-0

>  <r_glide_ring_energy>  (1) 
0

>  <r_i_docking_score>  (1) 
-4.784301252124906

>  <r_i_glide_ecoul>  (1) 
0.055122210628636648

>  <r_i_glide_eff_state_penalty>  (1) 
-0

>  <r_i_glide_einternal>  (1) 
0.00073287786509579345

>  <r_i_glide_emodel>  (1) 
-20.942888974718645

>  <r_i_glide_emodel_strain>  (1) 
0

>  <r_i_glide_energy>  (1) 
-15.686073920992957

>  <r_i_glide_erotb>  (1) 
0

>  <r_i_glide_esite>  (1) 
0

>  <r_i_glide_evdw>  (1) 
-15.741196131621594

>  <r_i_glide_gscore>  (1) 
-4.784301252124906

>  <r_i_glide_gscore_strain>  (1) 
0

>  <r_i_glide_hbond>  (1) 
0

>  <r_i_glide_ligand_efficiency>  (1) 
-0.59803765651561325

>  <r_i_glide_ligand_efficiency_ln>  (1) 
-1.5536262622199573

>  <r_i_glide_ligand_efficiency_sa>  (1) 
-1.1960753130312267

>  <r_i_glide_lipo>  (1) 
-1.3200000000000001

>  <r_i_glide_metal>  (1) 
-0

>  <r_i_glide_rewards>  (1) 
-2.6855097771381216

>  <r_lp_Energy>  (1) 
7.8081959999999997

>  <r_lp_tautomer_probability>  (1) 
1

>  <s_epik_cmdline>  (1) 
J2VwaWtfcHl0aG9uJywgJy1waHQnLCAnMS4wJywgJy1waCcsICc3LjQnLCAnLXRuJywgJzgnLCAnLW1hJywgJzUwMCcsICctaW1hZScsICc8aW5maWxlLm1hZT4nLCAnLW9tYWUnLCAnPG91dGZpbGUubWFlPic=

>  <s_epik_input>  (1) 
W25IXTFbY0hdW2NIXVtjSF1jMUMoPU8pW09IXQ==

>  <s_glide_docking_method>  (1) 
confgen

>  <s_i_glide_gridfile>  (1) 
gpcr_5ht2c_6bqh_protein_autoprepared_prepared

>  <s_lp_Force_Field>  (1) 
S-OPLS

>  <s_lp_Variant>  (1) 
Pocket2Mol_60_num_sample_100-1

>  <s_m_source_file>  (1) 
generated__ligand_Pocket2Mol_2026-05-06_prepared.sdf

>  <GenAI_Model>  (1) 
Pocket2Mol

>  <Protein>  (1) 
GPCR_5HT2C

$$$$
Pocket2Mol_60_num_sample_100
     RDKit          3D

  0  0  0  0  0  0  0  0  0  0999 V3000
M  V30 BEGIN CTAB
M  V30 COUNTS 12 12 0 0 1
M  V30 BEGIN ATOM
M  V30 1 C 39.867405 29.284257 50.246067 0
M  V30 2 C 39.181883 28.332027 51.072193 0
M  V30 3 C 40.279352 30.314119 51.052543 0
M  V30 4 C 39.200832 28.817611 52.349206 0
M  V30 5 N 39.867400 30.013987 52.326149 0
M  V30 6 C 38.667240 28.293180 53.618329 0
M  V30 7 O 38.060714 27.200350 53.600863 0
M  V30 8 O 38.847005 28.963778 54.659211 0 CHG=-1
M  V30 9 H 40.036640 29.221083 49.181209 0
M  V30 10 H 38.728098 27.401164 50.762720 0
M  V30 11 H 40.822395 31.221498 50.837699 0
M  V30 12 H 40.026938 30.592438 53.140019 0
M  V30 END ATOM
M  V30 BEGIN BOND
M  V30 1 1 2 1
M  V30 2 2 3 1
M  V30 3 2 4 2
M  V30 4 1 5 3
M  V30 5 1 5 4
M  V30 6 1 6 4
M  V30 7 2 7 6
M  V30 8 1 8 6
M  V30 9 1 9 1
M  V30 10 1 10 2
M  V30 11 1 11 3
M  V30 12 1 12 5
M  V30 END BOND
M  V30 END CTAB
M  END
>  <i_epik_Tot_Q>  (1) 
-1

>  <i_epik_Tot_abs_Q>  (1) 
1

>  <i_i_glide_confnum>  (1) 
1

>  <i_i_glide_lignum>  (1) 
64

>  <i_i_glide_posenum>  (1) 
399

>  <i_i_glide_rotatable_bonds>  (1) 
1

>  <i_lp_mmshare_version>  (1) 
72125

>  <i_m_source_file_index>  (1) 
61

>  <i_f3d_flags>  (1) 
0

>  <num_sample>  (1) 
100

>  <b_lp_Chiralities_Consistent>  (1) 
1

>  <r_epik_Charging_Adjusted_Penalty>  (1) 
0.00021018459712964226

>  <r_epik_Ionization_Penalty>  (1) 
0.00021021235475979092

>  <r_epik_Ionization_Penalty_Charging>  (1) 
0.00021018459712964226

>  <r_epik_Ionization_Penalty_Neutral>  (1) 
2.7757630148672405e-08

>  <r_epik_State_Penalty>  (1) 
-0

>  <r_glide_ring_energy>  (1) 
0

>  <r_i_docking_score>  (1) 
-4.7679228614010558

>  <r_i_glide_ecoul>  (1) 
-0.0036391252186630529

>  <r_i_glide_eff_state_penalty>  (1) 
-0

>  <r_i_glide_einternal>  (1) 
8.9295180039639099e-05

>  <r_i_glide_emodel>  (1) 
-21.213571254044684

>  <r_i_glide_emodel_strain>  (1) 
0

>  <r_i_glide_energy>  (1) 
-15.974431639513469

>  <r_i_glide_erotb>  (1) 
0

>  <r_i_glide_esite>  (1) 
0

>  <r_i_glide_evdw>  (1) 
-15.970792514294805

>  <r_i_glide_gscore>  (1) 
-4.7679228614010558

>  <r_i_glide_gscore_strain>  (1) 
0

>  <r_i_glide_hbond>  (1) 
0

>  <r_i_glide_ligand_efficiency>  (1) 
-0.59599035767513198

>  <r_i_glide_ligand_efficiency_ln>  (1) 
-1.5483076385337562

>  <r_i_glide_ligand_efficiency_sa>  (1) 
-1.1919807153502642

>  <r_i_glide_lipo>  (1) 
-1.3200000000000001

>  <r_i_glide_metal>  (1) 
-0

>  <r_i_glide_rewards>  (1) 
-2.6488373669035159

>  <r_lp_Energy>  (1) 
7.8081959999999997

>  <r_lp_tautomer_probability>  (1) 
1

>  <s_epik_cmdline>  (1) 
J2VwaWtfcHl0aG9uJywgJy1waHQnLCAnMS4wJywgJy1waCcsICc3LjQnLCAnLXRuJywgJzgnLCAnLW1hJywgJzUwMCcsICctaW1hZScsICc8aW5maWxlLm1hZT4nLCAnLW9tYWUnLCAnPG91dGZpbGUubWFlPic=

>  <s_epik_input>  (1) 
W25IXTFbY0hdW2NIXVtjSF1jMUMoPU8pW09IXQ==

>  <s_glide_docking_method>  (1) 
confgen

>  <s_i_glide_gridfile>  (1) 
gpcr_5ht2c_6bqh_protein_autoprepared_prepared

>  <s_lp_Force_Field>  (1) 
S-OPLS

>  <s_lp_Variant>  (1) 
Pocket2Mol_60_num_sample_100-1

>  <s_m_source_file>  (1) 
generated__ligand_Pocket2Mol_2026-05-06_prepared.sdf

>  <GenAI_Model>  (1) 
Pocket2Mol

>  <Protein>  (1) 
GPCR_5HT2C

$$$$
Pocket2Mol_46_num_sample_100
     RDKit          3D

  0  0  0  0  0  0  0  0  0  0999 V3000
M  V30 BEGIN CTAB
M  V30 COUNTS 12 11 0 0 1
M  V30 BEGIN ATOM
M  V30 1 C 37.174989 35.913865 60.591840 0
M  V30 2 O 36.943916 34.546390 60.880267 0
M  V30 3 C 36.564202 33.718046 59.890274 0
M  V30 4 C 36.376538 32.277515 60.411154 0
M  V30 5 O 36.382876 34.039365 58.715840 0
M  V30 6 O 36.565089 31.964055 61.584454 0
M  V30 7 N 35.994508 31.433066 59.453501 0
M  V30 8 H 37.473499 36.436888 61.500393 0
M  V30 9 H 37.971449 36.028600 59.855661 0
M  V30 10 H 36.272301 36.389385 60.205809 0
M  V30 11 H 35.867037 31.772974 58.479571 0
M  V30 12 H 35.837193 30.463709 59.672140 0
M  V30 END ATOM
M  V30 BEGIN BOND
M  V30 1 1 2 1
M  V30 2 1 3 2
M  V30 3 1 4 3
M  V30 4 2 5 3
M  V30 5 2 6 4
M  V30 6 1 7 4
M  V30 7 1 8 1
M  V30 8 1 9 1
M  V30 9 1 10 1
M  V30 10 1 11 7
M  V30 11 1 12 7
M  V30 END BOND
M  V30 END CTAB
M  END
>  <i_epik_Tot_Q>  (1) 
0

>  <i_epik_Tot_abs_Q>  (1) 
0

>  <i_i_glide_confnum>  (1) 
1

>  <i_i_glide_lignum>  (1) 
49

>  <i_i_glide_posenum>  (1) 
157

>  <i_i_glide_rotatable_bonds>  (1) 
2

>  <i_lp_mmshare_version>  (1) 
72125

>  <i_m_source_file_index>  (1) 
47

>  <i_f3d_flags>  (1) 
0

>  <num_sample>  (1) 
100

>  <b_lp_Chiralities_Consistent>  (1) 
1

>  <r_epik_Charging_Adjusted_Penalty>  (1) 
0

>  <r_epik_Ionization_Penalty>  (1) 
3.9236796398539443e-05

>  <r_epik_Ionization_Penalty_Charging>  (1) 
0

>  <r_epik_Ionization_Penalty_Neutral>  (1) 
3.9236796398539443e-05

>  <r_epik_State_Penalty>  (1) 
-0

>  <r_glide_ring_energy>  (1) 
0

>  <r_i_docking_score>  (1) 
-4.7596732111734159

>  <r_i_glide_ecoul>  (1) 
-7.587821824820618

>  <r_i_glide_eff_state_penalty>  (1) 
-0

>  <r_i_glide_einternal>  (1) 
0.00041215651613324411

>  <r_i_glide_emodel>  (1) 
-25.241199857371779

>  <r_i_glide_emodel_strain>  (1) 
0

>  <r_i_glide_energy>  (1) 
-18.814459198818771

>  <r_i_glide_erotb>  (1) 
0

>  <r_i_glide_esite>  (1) 
-0.15963885628356875

>  <r_i_glide_evdw>  (1) 
-11.226637373998154

>  <r_i_glide_gscore>  (1) 
-4.7596732111734159

>  <r_i_glide_gscore_strain>  (1) 
0

>  <r_i_glide_hbond>  (1) 
-0.45599999999999996

>  <r_i_glide_ligand_efficiency>  (1) 
-0.67995331588191654

>  <r_i_glide_ligand_efficiency_ln>  (1) 
-1.6156885208123999

>  <r_i_glide_ligand_efficiency_sa>  (1) 
-1.3007039007800025

>  <r_i_glide_lipo>  (1) 
-0.19452922633172764

>  <r_i_glide_metal>  (1) 
-0

>  <r_i_glide_rewards>  (1) 
-2.2499999861351192

>  <r_lp_Energy>  (1) 
8.3220650000000003

>  <r_lp_tautomer_probability>  (1) 
1

>  <s_epik_Chemistry_Notes>  (1) 
This compound has an ester and may undergo hydrolysis at high or low pH.

>  <s_epik_cmdline>  (1) 
J2VwaWtfcHl0aG9uJywgJy1waHQnLCAnMS4wJywgJy1waCcsICc3LjQnLCAnLXRuJywgJzgnLCAnLW1hJywgJzUwMCcsICctaW1hZScsICc8aW5maWxlLm1hZT4nLCAnLW9tYWUnLCAnPG91dGZpbGUubWFlPic=

>  <s_epik_input>  (1) 
W0NIM11PQyg9TylDKD1PKVtOSDJd

>  <s_glide_docking_method>  (1) 
confgen

>  <s_i_glide_gridfile>  (1) 
gpcr_5ht2c_6bqh_protein_autoprepared_prepared

>  <s_lp_Force_Field>  (1) 
S-OPLS

>  <s_lp_Variant>  (1) 
Pocket2Mol_46_num_sample_100-1

>  <s_m_source_file>  (1) 
generated__ligand_Pocket2Mol_2026-05-06_prepared.sdf

>  <GenAI_Model>  (1) 
Pocket2Mol

>  <Protein>  (1) 
GPCR_5HT2C

$$$$
Pocket2Mol_36_num_sample_100
     RDKit          3D

  0  0  0  0  0  0  0  0  0  0999 V3000
M  V30 BEGIN CTAB
M  V30 COUNTS 19 19 0 0 1
M  V30 BEGIN ATOM
M  V30 1 C 39.176076 27.562058 52.353411 0
M  V30 2 C 39.233242 29.006611 51.827199 0
M  V30 3 C 38.208139 27.443390 53.541393 0
M  V30 4 O 40.211774 29.109452 50.816684 0
M  V30 5 C 38.573102 28.437774 54.656530 0
M  V30 6 C 38.580174 29.884739 54.136051 0
M  V30 7 C 39.527557 30.046554 52.933718 0
M  V30 8 H 38.859851 26.890600 51.553560 0
M  V30 9 H 40.166919 27.221554 52.654021 0
M  V30 10 H 38.266575 29.221438 51.374791 0
M  V30 11 H 37.187722 27.629333 53.202621 0
M  V30 12 H 38.221988 26.424470 53.929865 0
M  V30 13 H 40.149694 29.968080 50.425397 0
M  V30 14 H 37.867404 28.345841 55.482440 0
M  V30 15 H 39.554737 28.189475 55.062238 0
M  V30 16 H 37.566652 30.171039 53.854396 0
M  V30 17 H 38.875448 30.566405 54.934616 0
M  V30 18 H 40.557351 29.990254 53.278686 0
M  V30 19 H 39.464920 31.057377 52.530082 0
M  V30 END ATOM
M  V30 BEGIN BOND
M  V30 1 1 2 1
M  V30 2 1 3 1
M  V30 3 1 4 2
M  V30 4 1 5 3
M  V30 5 1 6 5
M  V30 6 1 7 2
M  V30 7 1 7 6
M  V30 8 1 8 1
M  V30 9 1 9 1
M  V30 10 1 10 2
M  V30 11 1 11 3
M  V30 12 1 12 3
M  V30 13 1 13 4
M  V30 14 1 14 5
M  V30 15 1 15 5
M  V30 16 1 16 6
M  V30 17 1 17 6
M  V30 18 1 18 7
M  V30 19 1 19 7
M  V30 END BOND
M  V30 END CTAB
M  END
>  <i_epik_Tot_Q>  (1) 
0

>  <i_epik_Tot_abs_Q>  (1) 
0

>  <i_i_glide_confnum>  (1) 
1

>  <i_i_glide_lignum>  (1) 
39

>  <i_i_glide_posenum>  (1) 
28

>  <i_i_glide_rotatable_bonds>  (1) 
1

>  <i_lp_mmshare_version>  (1) 
72125

>  <i_m_source_file_index>  (1) 
37

>  <i_f3d_flags>  (1) 
0

>  <num_sample>  (1) 
100

>  <b_lp_Chiralities_Consistent>  (1) 
1

>  <r_epik_Charging_Adjusted_Penalty>  (1) 
0

>  <r_epik_Ionization_Penalty>  (1) 
4.7751045033339745e-07

>  <r_epik_Ionization_Penalty_Charging>  (1) 
0

>  <r_epik_Ionization_Penalty_Neutral>  (1) 
4.7751045033339745e-07

>  <r_epik_State_Penalty>  (1) 
-0

>  <r_glide_ring_energy>  (1) 
0

>  <r_i_docking_score>  (1) 
-4.7513303757593546

>  <r_i_glide_ecoul>  (1) 
-0.16742455737366879

>  <r_i_glide_eff_state_penalty>  (1) 
-0

>  <r_i_glide_einternal>  (1) 
0.32766901970674822

>  <r_i_glide_emodel>  (1) 
-20.9439699921708

>  <r_i_glide_emodel_strain>  (1) 
1.7785123596070207e-08

>  <r_i_glide_energy>  (1) 
-15.922777053021797

>  <r_i_glide_erotb>  (1) 
0

>  <r_i_glide_esite>  (1) 
0

>  <r_i_glide_evdw>  (1) 
-15.755352495648127

>  <r_i_glide_gscore>  (1) 
-4.7513303757593546

>  <r_i_glide_gscore_strain>  (1) 
0

>  <r_i_glide_hbond>  (1) 
0

>  <r_i_glide_ligand_efficiency>  (1) 
-0.67876148225133637

>  <r_i_glide_ligand_efficiency_ln>  (1) 
-1.6128565147457055

>  <r_i_glide_ligand_efficiency_sa>  (1) 
-1.2984240050633888

>  <r_i_glide_lipo>  (1) 
-1.625820893408962

>  <r_i_glide_metal>  (1) 
-0

>  <r_i_glide_rewards>  (1) 
-2.3126281739619361

>  <r_lp_Energy>  (1) 
3.8568439999999997

>  <r_lp_tautomer_probability>  (1) 
1

>  <s_epik_cmdline>  (1) 
J2VwaWtfcHl0aG9uJywgJy1waHQnLCAnMS4wJywgJy1waCcsICc3LjQnLCAnLXRuJywgJzgnLCAnLW1hJywgJzUwMCcsICctaW1hZScsICc8aW5maWxlLm1hZT4nLCAnLW9tYWUnLCAnPG91dGZpbGUubWFlPic=

>  <s_epik_input>  (1) 
W09IXVtDSF0xW0NIMl1bQ0gyXVtDSDJdW0NIMl1bQ0gyXTE=

>  <s_glide_docking_method>  (1) 
confgen

>  <s_i_glide_gridfile>  (1) 
gpcr_5ht2c_6bqh_protein_autoprepared_prepared

>  <s_lp_Force_Field>  (1) 
S-OPLS

>  <s_lp_Variant>  (1) 
Pocket2Mol_36_num_sample_100-1

>  <s_m_source_file>  (1) 
generated__ligand_Pocket2Mol_2026-05-06_prepared.sdf

>  <GenAI_Model>  (1) 
Pocket2Mol

>  <Protein>  (1) 
GPCR_5HT2C

$$$$
Pocket2Mol_45_num_sample_100
     RDKit          3D

  0  0  0  0  0  0  0  0  0  0999 V3000
M  V30 BEGIN CTAB
M  V30 COUNTS 15 15 0 0 1
M  V30 BEGIN ATOM
M  V30 1 C 39.312076 27.392913 52.092799 0
M  V30 2 O 38.288459 27.863450 52.959246 0
M  V30 3 C 38.296835 29.124332 53.466529 0
M  V30 4 O 37.464931 29.563325 54.254752 0
M  V30 5 C 39.467393 29.987792 52.965919 0
M  V30 6 C 39.505637 28.378235 50.943387 0
M  V30 7 C 39.885434 29.758422 51.493346 0
M  V30 8 H 40.238751 27.254574 52.650908 0
M  V30 9 H 39.028590 26.421380 51.694940 0
M  V30 10 H 39.222846 31.038749 53.119973 0
M  V30 11 H 40.292763 29.777251 53.637240 0
M  V30 12 H 40.267397 28.013621 50.254548 0
M  V30 13 H 38.583531 28.444750 50.368113 0
M  V30 14 H 39.466802 30.536314 50.855253 0
M  V30 15 H 40.967203 29.877093 51.425730 0
M  V30 END ATOM
M  V30 BEGIN BOND
M  V30 1 1 2 1
M  V30 2 1 3 2
M  V30 3 2 4 3
M  V30 4 1 5 3
M  V30 5 1 6 1
M  V30 6 1 7 5
M  V30 7 1 7 6
M  V30 8 1 8 1
M  V30 9 1 9 1
M  V30 10 1 10 5
M  V30 11 1 11 5
M  V30 12 1 12 6
M  V30 13 1 13 6
M  V30 14 1 14 7
M  V30 15 1 15 7
M  V30 END BOND
M  V30 END CTAB
M  END
>  <i_epik_Tot_Q>  (1) 
0

>  <i_epik_Tot_abs_Q>  (1) 
0

>  <i_i_glide_confnum>  (1) 
3

>  <i_i_glide_lignum>  (1) 
48

>  <i_i_glide_posenum>  (1) 
129

>  <i_i_glide_rotatable_bonds>  (1) 
0

>  <i_lp_mmshare_version>  (1) 
72125

>  <i_m_source_file_index>  (1) 
46

>  <i_f3d_flags>  (1) 
0

>  <num_sample>  (1) 
100

>  <b_lp_Chiralities_Consistent>  (1) 
1

>  <r_epik_Charging_Adjusted_Penalty>  (1) 
0

>  <r_epik_Ionization_Penalty>  (1) 
4.2138389519661579e-10

>  <r_epik_Ionization_Penalty_Charging>  (1) 
0

>  <r_epik_Ionization_Penalty_Neutral>  (1) 
4.2138389519661579e-10

>  <r_epik_State_Penalty>  (1) 
-0

>  <r_glide_ring_energy>  (1) 
0.70452651660711352

>  <r_i_docking_score>  (1) 
-4.7418893247721918

>  <r_i_glide_ecoul>  (1) 
0.097155172114914312

>  <r_i_glide_eff_state_penalty>  (1) 
-0

>  <r_i_glide_einternal>  (1) 
0

>  <r_i_glide_emodel>  (1) 
-21.656328007107959

>  <r_i_glide_emodel_strain>  (1) 
0

>  <r_i_glide_energy>  (1) 
-16.334327729035966

>  <r_i_glide_erotb>  (1) 
0

>  <r_i_glide_esite>  (1) 
0

>  <r_i_glide_evdw>  (1) 
-16.431482901150879

>  <r_i_glide_gscore>  (1) 
-4.7418893247721918

>  <r_i_glide_gscore_strain>  (1) 
0

>  <r_i_glide_hbond>  (1) 
0

>  <r_i_glide_ligand_efficiency>  (1) 
-0.67741276068174172

>  <r_i_glide_ligand_efficiency_ln>  (1) 
-1.6096517153765901

>  <r_i_glide_ligand_efficiency_sa>  (1) 
-1.2958439935160335

>  <r_i_glide_lipo>  (1) 
-1.1620755419671722

>  <r_i_glide_metal>  (1) 
-0

>  <r_i_glide_rewards>  (1) 
-2.7728129135647128

>  <r_lp_Energy>  (1) 
8.5246700000000004

>  <r_lp_tautomer_probability>  (1) 
1

>  <s_epik_Chemistry_Notes>  (1) 
This compound has an ester and may undergo hydrolysis at high or low pH.

>  <s_epik_cmdline>  (1) 
J2VwaWtfcHl0aG9uJywgJy1waHQnLCAnMS4wJywgJy1waCcsICc3LjQnLCAnLXRuJywgJzgnLCAnLW1hJywgJzUwMCcsICctaW1hZScsICc8aW5maWxlLm1hZT4nLCAnLW9tYWUnLCAnPG91dGZpbGUubWFlPic=

>  <s_epik_input>  (1) 
W0NIMl0xW0NIMl1bQ0gyXVtDSDJdT0MxPU8=

>  <s_glide_docking_method>  (1) 
confgen

>  <s_i_glide_gridfile>  (1) 
gpcr_5ht2c_6bqh_protein_autoprepared_prepared

>  <s_lp_Force_Field>  (1) 
S-OPLS

>  <s_lp_Variant>  (1) 
Pocket2Mol_45_num_sample_100-1

>  <s_m_source_file>  (1) 
generated__ligand_Pocket2Mol_2026-05-06_prepared.sdf

>  <GenAI_Model>  (1) 
Pocket2Mol

>  <Protein>  (1) 
GPCR_5HT2C

$$$$
Pocket2Mol_19_num_sample_100
     RDKit          3D

  0  0  0  0  0  0  0  0  0  0999 V3000
M  V30 BEGIN CTAB
M  V30 COUNTS 10 10 0 0 1
M  V30 BEGIN ATOM
M  V30 1 C 39.987002 29.698460 51.453590 0
M  V30 2 O 39.244945 29.593895 52.754613 0
M  V30 3 C 38.464722 28.423265 52.773828 0
M  V30 4 C 39.488356 28.429868 50.836789 0
M  V30 5 C 38.667403 27.752689 51.559941 0
M  V30 6 O 37.734507 28.059186 53.692571 0
M  V30 7 H 41.067403 29.679183 51.588573 0
M  V30 8 H 39.808993 28.131074 49.853502 0
M  V30 9 H 38.192297 26.821430 51.302049 0
M  V30 10 H 39.686862 30.575051 50.878937 0
M  V30 END ATOM
M  V30 BEGIN BOND
M  V30 1 1 2 1
M  V30 2 1 3 2
M  V30 3 1 4 1
M  V30 4 1 5 3
M  V30 5 2 5 4
M  V30 6 2 6 3
M  V30 7 1 7 1
M  V30 8 1 8 4
M  V30 9 1 9 5
M  V30 10 1 10 1
M  V30 END BOND
M  V30 END CTAB
M  END
>  <i_epik_Tot_Q>  (1) 
0

>  <i_epik_Tot_abs_Q>  (1) 
0

>  <i_i_glide_confnum>  (1) 
1

>  <i_i_glide_lignum>  (1) 
22

>  <i_i_glide_posenum>  (1) 
171

>  <i_i_glide_rotatable_bonds>  (1) 
0

>  <i_lp_mmshare_version>  (1) 
72125

>  <i_m_source_file_index>  (1) 
20

>  <i_f3d_flags>  (1) 
0

>  <num_sample>  (1) 
100

>  <b_lp_Chiralities_Consistent>  (1) 
1

>  <r_epik_Charging_Adjusted_Penalty>  (1) 
0

>  <r_epik_Ionization_Penalty>  (1) 
0

>  <r_epik_Ionization_Penalty_Charging>  (1) 
0

>  <r_epik_Ionization_Penalty_Neutral>  (1) 
0

>  <r_epik_State_Penalty>  (1) 
-0

>  <r_glide_ring_energy>  (1) 
0

>  <r_i_docking_score>  (1) 
-4.7356856373218168

>  <r_i_glide_ecoul>  (1) 
-0.75958363084022862

>  <r_i_glide_eff_state_penalty>  (1) 
-0

>  <r_i_glide_einternal>  (1) 
0

>  <r_i_glide_emodel>  (1) 
-20.702921044795104

>  <r_i_glide_emodel_strain>  (1) 
0

>  <r_i_glide_energy>  (1) 
-16.039864039544611

>  <r_i_glide_erotb>  (1) 
0

>  <r_i_glide_esite>  (1) 
0

>  <r_i_glide_evdw>  (1) 
-15.280280408704382

>  <r_i_glide_gscore>  (1) 
-4.7356856373218168

>  <r_i_glide_gscore_strain>  (1) 
0

>  <r_i_glide_hbond>  (1) 
0

>  <r_i_glide_ligand_efficiency>  (1) 
-0.7892809395536361

>  <r_i_glide_ligand_efficiency_ln>  (1) 
-1.6963086145208899

>  <r_i_glide_ligand_efficiency_sa>  (1) 
-1.4342186487928117

>  <r_i_glide_lipo>  (1) 
-0.98999999999999999

>  <r_i_glide_metal>  (1) 
-0

>  <r_i_glide_rewards>  (1) 
-2.8677340722605624

>  <r_lp_Energy>  (1) 
-7.0611199999999998

>  <r_lp_tautomer_probability>  (1) 
1

>  <s_epik_Chemistry_Notes>  (1) 
This compound has an ester and may undergo hydrolysis at high or low pH.

>  <s_epik_cmdline>  (1) 
J2VwaWtfcHl0aG9uJywgJy1waHQnLCAnMS4wJywgJy1waCcsICc3LjQnLCAnLXRuJywgJzgnLCAnLW1hJywgJzUwMCcsICctaW1hZScsICc8aW5maWxlLm1hZT4nLCAnLW9tYWUnLCAnPG91dGZpbGUubWFlPic=

>  <s_epik_input>  (1) 
W0NIMl0xW0NIXT1bQ0hdT0MxPU8=

>  <s_glide_docking_method>  (1) 
confgen

>  <s_i_glide_gridfile>  (1) 
gpcr_5ht2c_6bqh_protein_autoprepared_prepared

>  <s_lp_Force_Field>  (1) 
S-OPLS

>  <s_lp_Variant>  (1) 
Pocket2Mol_19_num_sample_100-1

>  <s_m_source_file>  (1) 
generated__ligand_Pocket2Mol_2026-05-06_prepared.sdf

>  <GenAI_Model>  (1) 
Pocket2Mol

>  <Protein>  (1) 
GPCR_5HT2C

$$$$
Pocket2Mol_7_num_sample_100
     RDKit          3D

  0  0  0  0  0  0  0  0  0  0999 V3000
M  V30 BEGIN CTAB
M  V30 COUNTS 13 13 0 0 1
M  V30 BEGIN ATOM
M  V30 1 C 39.467443 30.021486 53.059354 0
M  V30 2 C 38.667347 28.793087 53.247112 0
M  V30 3 C 39.899650 29.731410 51.544277 0
M  V30 4 C 39.342296 28.328173 51.020995 0
M  V30 5 C 38.607484 27.963547 52.249330 0
M  V30 6 H 38.866007 30.922774 53.173458 0
M  V30 7 H 40.309449 30.049813 53.749407 0
M  V30 8 H 38.164030 28.617476 54.186875 0
M  V30 9 H 40.986178 29.750457 51.453369 0
M  V30 10 H 39.532679 30.530811 50.899275 0
M  V30 11 H 40.137984 27.621288 50.793276 0
M  V30 12 H 38.667511 28.421495 50.170855 0
M  V30 13 H 38.049032 27.038856 52.287423 0
M  V30 END ATOM
M  V30 BEGIN BOND
M  V30 1 1 2 1
M  V30 2 1 3 1
M  V30 3 1 4 3
M  V30 4 2 5 2
M  V30 5 1 5 4
M  V30 6 1 6 1
M  V30 7 1 7 1
M  V30 8 1 8 2
M  V30 9 1 9 3
M  V30 10 1 10 3
M  V30 11 1 11 4
M  V30 12 1 12 4
M  V30 13 1 13 5
M  V30 END BOND
M  V30 END CTAB
M  END
>  <i_epik_Tot_Q>  (1) 
0

>  <i_epik_Tot_abs_Q>  (1) 
0

>  <i_i_glide_confnum>  (1) 
1

>  <i_i_glide_lignum>  (1) 
10

>  <i_i_glide_posenum>  (1) 
152

>  <i_i_glide_rotatable_bonds>  (1) 
0

>  <i_lp_mmshare_version>  (1) 
72125

>  <i_m_source_file_index>  (1) 
8

>  <i_f3d_flags>  (1) 
0

>  <num_sample>  (1) 
100

>  <b_lp_Chiralities_Consistent>  (1) 
1

>  <r_epik_Charging_Adjusted_Penalty>  (1) 
0

>  <r_epik_Ionization_Penalty>  (1) 
0

>  <r_epik_Ionization_Penalty_Charging>  (1) 
0

>  <r_epik_Ionization_Penalty_Neutral>  (1) 
0

>  <r_epik_State_Penalty>  (1) 
-0

>  <r_glide_ring_energy>  (1) 
0

>  <r_i_docking_score>  (1) 
-4.7325812568574301

>  <r_i_glide_ecoul>  (1) 
-0.49058823520510808

>  <r_i_glide_eff_state_penalty>  (1) 
-0

>  <r_i_glide_einternal>  (1) 
0

>  <r_i_glide_emodel>  (1) 
-17.571787998811999

>  <r_i_glide_emodel_strain>  (1) 
0

>  <r_i_glide_energy>  (1) 
-13.529851945981122

>  <r_i_glide_erotb>  (1) 
0

>  <r_i_glide_esite>  (1) 
0

>  <r_i_glide_evdw>  (1) 
-13.039263710776014

>  <r_i_glide_gscore>  (1) 
-4.7325812568574301

>  <r_i_glide_gscore_strain>  (1) 
0

>  <r_i_glide_hbond>  (1) 
0

>  <r_i_glide_ligand_efficiency>  (1) 
-0.94651625137148598

>  <r_i_glide_ligand_efficiency_ln>  (1) 
-1.8136401078203266

>  <r_i_glide_ligand_efficiency_sa>  (1) 
-1.6185200229838352

>  <r_i_glide_lipo>  (1) 
-1.525889156744362

>  <r_i_glide_metal>  (1) 
-0

>  <r_i_glide_rewards>  (1) 
-2.4811406792935013

>  <r_lp_Energy>  (1) 
-2.1713199999999997

>  <r_lp_tautomer_probability>  (1) 
1

>  <s_epik_cmdline>  (1) 
J2VwaWtfcHl0aG9uJywgJy1waHQnLCAnMS4wJywgJy1waCcsICc3LjQnLCAnLXRuJywgJzgnLCAnLW1hJywgJzUwMCcsICctaW1hZScsICc8aW5maWxlLm1hZT4nLCAnLW9tYWUnLCAnPG91dGZpbGUubWFlPic=

>  <s_epik_input>  (1) 
W0NIMl0xW0NIXT1bQ0hdW0NIMl1bQ0gyXTE=

>  <s_glide_docking_method>  (1) 
confgen

>  <s_i_glide_gridfile>  (1) 
gpcr_5ht2c_6bqh_protein_autoprepared_prepared

>  <s_lp_Force_Field>  (1) 
S-OPLS

>  <s_lp_Variant>  (1) 
Pocket2Mol_7_num_sample_100-1

>  <s_m_source_file>  (1) 
generated__ligand_Pocket2Mol_2026-05-06_prepared.sdf

>  <GenAI_Model>  (1) 
Pocket2Mol

>  <Protein>  (1) 
GPCR_5HT2C

$$$$
Pocket2Mol_46_num_sample_100
     RDKit          3D

  0  0  0  0  0  0  0  0  0  0999 V3000
M  V30 BEGIN CTAB
M  V30 COUNTS 12 11 0 0 1
M  V30 BEGIN ATOM
M  V30 1 C 38.281038 29.686062 57.103221 0
M  V30 2 O 37.478503 30.367713 58.041682 0
M  V30 3 C 37.794060 30.330911 59.351399 0
M  V30 4 C 36.798307 31.163481 60.198265 0
M  V30 5 O 38.745393 29.722498 59.841379 0
M  V30 6 O 36.883321 31.253166 61.424744 0
M  V30 7 N 35.859655 31.758526 59.453502 0
M  V30 8 H 37.873503 29.824360 56.102445 0
M  V30 9 H 39.298262 30.074784 57.117938 0
M  V30 10 H 38.304935 28.619459 57.321702 0
M  V30 11 H 35.861080 31.638240 58.421849 0
M  V30 12 H 35.158958 32.328376 59.895876 0
M  V30 END ATOM
M  V30 BEGIN BOND
M  V30 1 1 2 1
M  V30 2 1 3 2
M  V30 3 1 4 3
M  V30 4 2 5 3
M  V30 5 2 6 4
M  V30 6 1 7 4
M  V30 7 1 8 1
M  V30 8 1 9 1
M  V30 9 1 10 1
M  V30 10 1 11 7
M  V30 11 1 12 7
M  V30 END BOND
M  V30 END CTAB
M  END
>  <i_epik_Tot_Q>  (1) 
0

>  <i_epik_Tot_abs_Q>  (1) 
0

>  <i_i_glide_confnum>  (1) 
1

>  <i_i_glide_lignum>  (1) 
49

>  <i_i_glide_posenum>  (1) 
351

>  <i_i_glide_rotatable_bonds>  (1) 
2

>  <i_lp_mmshare_version>  (1) 
72125

>  <i_m_source_file_index>  (1) 
47

>  <i_f3d_flags>  (1) 
0

>  <num_sample>  (1) 
100

>  <b_lp_Chiralities_Consistent>  (1) 
1

>  <r_epik_Charging_Adjusted_Penalty>  (1) 
0

>  <r_epik_Ionization_Penalty>  (1) 
3.9236796398539443e-05

>  <r_epik_Ionization_Penalty_Charging>  (1) 
0

>  <r_epik_Ionization_Penalty_Neutral>  (1) 
3.9236796398539443e-05

>  <r_epik_State_Penalty>  (1) 
-0

>  <r_glide_ring_energy>  (1) 
0

>  <r_i_docking_score>  (1) 
-4.7300671610689538

>  <r_i_glide_ecoul>  (1) 
-9.3150146316257612

>  <r_i_glide_eff_state_penalty>  (1) 
-0

>  <r_i_glide_einternal>  (1) 
1.5848754748662914

>  <r_i_glide_emodel>  (1) 
-23.935937533585793

>  <r_i_glide_emodel_strain>  (1) 
0

>  <r_i_glide_energy>  (1) 
-18.341405334855033

>  <r_i_glide_erotb>  (1) 
0

>  <r_i_glide_esite>  (1) 
-0.17549581725277835

>  <r_i_glide_evdw>  (1) 
-9.0263907032292732

>  <r_i_glide_gscore>  (1) 
-4.7300671610689538

>  <r_i_glide_gscore_strain>  (1) 
0

>  <r_i_glide_hbond>  (1) 
-0.45599999999999996

>  <r_i_glide_ligand_efficiency>  (1) 
-0.67572388015270768

>  <r_i_glide_ligand_efficiency_ln>  (1) 
-1.605638638566685

>  <r_i_glide_ligand_efficiency_sa>  (1) 
-1.2926132812880673

>  <r_i_glide_lipo>  (1) 
0

>  <r_i_glide_metal>  (1) 
-0

>  <r_i_glide_rewards>  (1) 
-2.2499996139108482

>  <r_lp_Energy>  (1) 
8.3220650000000003

>  <r_lp_tautomer_probability>  (1) 
1

>  <s_epik_Chemistry_Notes>  (1) 
This compound has an ester and may undergo hydrolysis at high or low pH.

>  <s_epik_cmdline>  (1) 
J2VwaWtfcHl0aG9uJywgJy1waHQnLCAnMS4wJywgJy1waCcsICc3LjQnLCAnLXRuJywgJzgnLCAnLW1hJywgJzUwMCcsICctaW1hZScsICc8aW5maWxlLm1hZT4nLCAnLW9tYWUnLCAnPG91dGZpbGUubWFlPic=

>  <s_epik_input>  (1) 
W0NIM11PQyg9TylDKD1PKVtOSDJd

>  <s_glide_docking_method>  (1) 
confgen

>  <s_i_glide_gridfile>  (1) 
gpcr_5ht2c_6bqh_protein_autoprepared_prepared

>  <s_lp_Force_Field>  (1) 
S-OPLS

>  <s_lp_Variant>  (1) 
Pocket2Mol_46_num_sample_100-1

>  <s_m_source_file>  (1) 
generated__ligand_Pocket2Mol_2026-05-06_prepared.sdf

>  <GenAI_Model>  (1) 
Pocket2Mol

>  <Protein>  (1) 
GPCR_5HT2C

$$$$
Pocket2Mol_19_num_sample_100
     RDKit          3D

  0  0  0  0  0  0  0  0  0  0999 V3000
M  V30 BEGIN CTAB
M  V30 COUNTS 10 10 0 0 1
M  V30 BEGIN ATOM
M  V30 1 C 40.235093 29.950010 51.003653 0
M  V30 2 O 39.867525 30.171548 52.440832 0
M  V30 3 C 39.053825 29.120764 52.901855 0
M  V30 4 C 39.500456 28.658083 50.806615 0
M  V30 5 C 38.866849 28.223065 51.840072 0
M  V30 6 O 38.590793 29.012714 54.033935 0
M  V30 7 H 41.310229 29.829855 50.869828 0
M  V30 8 H 39.516536 28.151148 49.853507 0
M  V30 9 H 38.277348 27.319725 51.910436 0
M  V30 10 H 39.850736 30.738486 50.355660 0
M  V30 END ATOM
M  V30 BEGIN BOND
M  V30 1 1 2 1
M  V30 2 1 3 2
M  V30 3 1 4 1
M  V30 4 1 5 3
M  V30 5 2 5 4
M  V30 6 2 6 3
M  V30 7 1 7 1
M  V30 8 1 8 4
M  V30 9 1 9 5
M  V30 10 1 10 1
M  V30 END BOND
M  V30 END CTAB
M  END
>  <i_epik_Tot_Q>  (1) 
0

>  <i_epik_Tot_abs_Q>  (1) 
0

>  <i_i_glide_confnum>  (1) 
1

>  <i_i_glide_lignum>  (1) 
22

>  <i_i_glide_posenum>  (1) 
162

>  <i_i_glide_rotatable_bonds>  (1) 
0

>  <i_lp_mmshare_version>  (1) 
72125

>  <i_m_source_file_index>  (1) 
20

>  <i_f3d_flags>  (1) 
0

>  <num_sample>  (1) 
100

>  <b_lp_Chiralities_Consistent>  (1) 
1

>  <r_epik_Charging_Adjusted_Penalty>  (1) 
0

>  <r_epik_Ionization_Penalty>  (1) 
0

>  <r_epik_Ionization_Penalty_Charging>  (1) 
0

>  <r_epik_Ionization_Penalty_Neutral>  (1) 
0

>  <r_epik_State_Penalty>  (1) 
-0

>  <r_glide_ring_energy>  (1) 
0

>  <r_i_docking_score>  (1) 
-4.729152677209802

>  <r_i_glide_ecoul>  (1) 
-0.43162049647619627

>  <r_i_glide_eff_state_penalty>  (1) 
-0

>  <r_i_glide_einternal>  (1) 
0

>  <r_i_glide_emodel>  (1) 
-19.966666505448824

>  <r_i_glide_emodel_strain>  (1) 
0

>  <r_i_glide_energy>  (1) 
-15.310042267858258

>  <r_i_glide_erotb>  (1) 
0

>  <r_i_glide_esite>  (1) 
0

>  <r_i_glide_evdw>  (1) 
-14.878421771382062

>  <r_i_glide_gscore>  (1) 
-4.729152677209802

>  <r_i_glide_gscore_strain>  (1) 
0

>  <r_i_glide_hbond>  (1) 
0

>  <r_i_glide_ligand_efficiency>  (1) 
-0.78819211286830038

>  <r_i_glide_ligand_efficiency_ln>  (1) 
-1.6939685274954768

>  <r_i_glide_ligand_efficiency_sa>  (1) 
-1.4322401194008627

>  <r_i_glide_lipo>  (1) 
-0.98999999999999999

>  <r_i_glide_metal>  (1) 
-0

>  <r_i_glide_rewards>  (1) 
-2.9304885141692694

>  <r_lp_Energy>  (1) 
-7.0611199999999998

>  <r_lp_tautomer_probability>  (1) 
1

>  <s_epik_Chemistry_Notes>  (1) 
This compound has an ester and may undergo hydrolysis at high or low pH.

>  <s_epik_cmdline>  (1) 
J2VwaWtfcHl0aG9uJywgJy1waHQnLCAnMS4wJywgJy1waCcsICc3LjQnLCAnLXRuJywgJzgnLCAnLW1hJywgJzUwMCcsICctaW1hZScsICc8aW5maWxlLm1hZT4nLCAnLW9tYWUnLCAnPG91dGZpbGUubWFlPic=

>  <s_epik_input>  (1) 
W0NIMl0xW0NIXT1bQ0hdT0MxPU8=

>  <s_glide_docking_method>  (1) 
confgen

>  <s_i_glide_gridfile>  (1) 
gpcr_5ht2c_6bqh_protein_autoprepared_prepared

>  <s_lp_Force_Field>  (1) 
S-OPLS

>  <s_lp_Variant>  (1) 
Pocket2Mol_19_num_sample_100-1

>  <s_m_source_file>  (1) 
generated__ligand_Pocket2Mol_2026-05-06_prepared.sdf

>  <GenAI_Model>  (1) 
Pocket2Mol

>  <Protein>  (1) 
GPCR_5HT2C

$$$$
Pocket2Mol_45_num_sample_100
     RDKit          3D

  0  0  0  0  0  0  0  0  0  0999 V3000
M  V30 BEGIN CTAB
M  V30 COUNTS 15 15 0 0 1
M  V30 BEGIN ATOM
M  V30 1 C 39.070855 28.287871 51.172940 0
M  V30 2 O 39.161528 27.249682 52.140152 0
M  V30 3 C 38.820408 27.478228 53.434276 0
M  V30 4 O 38.784782 26.617839 54.310538 0
M  V30 5 C 38.475290 28.947909 53.727050 0
M  V30 6 C 39.867383 29.517554 51.634551 0
M  V30 7 C 39.464483 29.933318 53.064314 0
M  V30 8 H 39.438338 27.928365 50.212790 0
M  V30 9 H 38.019625 28.544510 51.044542 0
M  V30 10 H 37.465312 29.130808 53.359422 0
M  V30 11 H 38.448624 29.109047 54.805308 0
M  V30 12 H 40.932171 29.283634 51.604014 0
M  V30 13 H 39.717387 30.344560 50.939451 0
M  V30 14 H 39.032499 30.933757 53.053499 0
M  V30 15 H 40.355363 30.022155 53.684590 0
M  V30 END ATOM
M  V30 BEGIN BOND
M  V30 1 1 2 1
M  V30 2 1 3 2
M  V30 3 2 4 3
M  V30 4 1 5 3
M  V30 5 1 6 1
M  V30 6 1 7 5
M  V30 7 1 7 6
M  V30 8 1 8 1
M  V30 9 1 9 1
M  V30 10 1 10 5
M  V30 11 1 11 5
M  V30 12 1 12 6
M  V30 13 1 13 6
M  V30 14 1 14 7
M  V30 15 1 15 7
M  V30 END BOND
M  V30 END CTAB
M  END
>  <i_epik_Tot_Q>  (1) 
0

>  <i_epik_Tot_abs_Q>  (1) 
0

>  <i_i_glide_confnum>  (1) 
4

>  <i_i_glide_lignum>  (1) 
48

>  <i_i_glide_posenum>  (1) 
316

>  <i_i_glide_rotatable_bonds>  (1) 
0

>  <i_lp_mmshare_version>  (1) 
72125

>  <i_m_source_file_index>  (1) 
46

>  <i_f3d_flags>  (1) 
0

>  <num_sample>  (1) 
100

>  <b_lp_Chiralities_Consistent>  (1) 
1

>  <r_epik_Charging_Adjusted_Penalty>  (1) 
0

>  <r_epik_Ionization_Penalty>  (1) 
4.2138389519661579e-10

>  <r_epik_Ionization_Penalty_Charging>  (1) 
0

>  <r_epik_Ionization_Penalty_Neutral>  (1) 
4.2138389519661579e-10

>  <r_epik_State_Penalty>  (1) 
-0

>  <r_glide_ring_energy>  (1) 
0.70488572220387524

>  <r_i_docking_score>  (1) 
-4.7250611108183493

>  <r_i_glide_ecoul>  (1) 
-0.024631484514451601

>  <r_i_glide_eff_state_penalty>  (1) 
-0

>  <r_i_glide_einternal>  (1) 
0

>  <r_i_glide_emodel>  (1) 
-21.83632458912103

>  <r_i_glide_emodel_strain>  (1) 
0

>  <r_i_glide_energy>  (1) 
-16.533211246868888

>  <r_i_glide_erotb>  (1) 
0

>  <r_i_glide_esite>  (1) 
0

>  <r_i_glide_evdw>  (1) 
-16.508579762354437

>  <r_i_glide_gscore>  (1) 
-4.7250611108183493

>  <r_i_glide_gscore_strain>  (1) 
0

>  <r_i_glide_hbond>  (1) 
0

>  <r_i_glide_ligand_efficiency>  (1) 
-0.6750087301169071

>  <r_i_glide_ligand_efficiency_ln>  (1) 
-1.6039393164566031

>  <r_i_glide_ligand_efficiency_sa>  (1) 
-1.2912452484842234

>  <r_i_glide_lipo>  (1) 
-1.1515101573534523

>  <r_i_glide_metal>  (1) 
-0

>  <r_i_glide_rewards>  (1) 
-2.7444272426700067

>  <r_lp_Energy>  (1) 
8.5246700000000004

>  <r_lp_tautomer_probability>  (1) 
1

>  <s_epik_Chemistry_Notes>  (1) 
This compound has an ester and may undergo hydrolysis at high or low pH.

>  <s_epik_cmdline>  (1) 
J2VwaWtfcHl0aG9uJywgJy1waHQnLCAnMS4wJywgJy1waCcsICc3LjQnLCAnLXRuJywgJzgnLCAnLW1hJywgJzUwMCcsICctaW1hZScsICc8aW5maWxlLm1hZT4nLCAnLW9tYWUnLCAnPG91dGZpbGUubWFlPic=

>  <s_epik_input>  (1) 
W0NIMl0xW0NIMl1bQ0gyXVtDSDJdT0MxPU8=

>  <s_glide_docking_method>  (1) 
confgen

>  <s_i_glide_gridfile>  (1) 
gpcr_5ht2c_6bqh_protein_autoprepared_prepared

>  <s_lp_Force_Field>  (1) 
S-OPLS

>  <s_lp_Variant>  (1) 
Pocket2Mol_45_num_sample_100-1

>  <s_m_source_file>  (1) 
generated__ligand_Pocket2Mol_2026-05-06_prepared.sdf

>  <GenAI_Model>  (1) 
Pocket2Mol

>  <Protein>  (1) 
GPCR_5HT2C

$$$$
Pocket2Mol_60_num_sample_100
     RDKit          3D

  0  0  0  0  0  0  0  0  0  0999 V3000
M  V30 BEGIN CTAB
M  V30 COUNTS 12 12 0 0 1
M  V30 BEGIN ATOM
M  V30 1 C 39.867403 28.824061 50.653498 0
M  V30 2 C 39.818556 29.620523 51.844969 0
M  V30 3 C 39.147540 27.678903 50.889908 0
M  V30 4 C 39.067402 28.934312 52.759041 0
M  V30 5 N 38.667390 27.765704 52.171283 0
M  V30 6 C 38.667397 29.238638 54.142351 0
M  V30 7 O 39.062368 30.309710 54.651134 0
M  V30 8 O 37.951249 28.409889 54.748432 0 CHG=-1
M  V30 9 H 40.371642 29.064732 49.730087 0
M  V30 10 H 40.277882 30.584715 52.008935 0
M  V30 11 H 38.933637 26.821434 50.267322 0
M  V30 12 H 38.094292 27.067095 52.624843 0
M  V30 END ATOM
M  V30 BEGIN BOND
M  V30 1 1 2 1
M  V30 2 2 3 1
M  V30 3 2 4 2
M  V30 4 1 5 3
M  V30 5 1 5 4
M  V30 6 1 6 4
M  V30 7 2 7 6
M  V30 8 1 8 6
M  V30 9 1 9 1
M  V30 10 1 10 2
M  V30 11 1 11 3
M  V30 12 1 12 5
M  V30 END BOND
M  V30 END CTAB
M  END
>  <i_epik_Tot_Q>  (1) 
-1

>  <i_epik_Tot_abs_Q>  (1) 
1

>  <i_i_glide_confnum>  (1) 
1

>  <i_i_glide_lignum>  (1) 
64

>  <i_i_glide_posenum>  (1) 
253

>  <i_i_glide_rotatable_bonds>  (1) 
1

>  <i_lp_mmshare_version>  (1) 
72125

>  <i_m_source_file_index>  (1) 
61

>  <i_f3d_flags>  (1) 
0

>  <num_sample>  (1) 
100

>  <b_lp_Chiralities_Consistent>  (1) 
1

>  <r_epik_Charging_Adjusted_Penalty>  (1) 
0.00021018459712964226

>  <r_epik_Ionization_Penalty>  (1) 
0.00021021235475979092

>  <r_epik_Ionization_Penalty_Charging>  (1) 
0.00021018459712964226

>  <r_epik_Ionization_Penalty_Neutral>  (1) 
2.7757630148672405e-08

>  <r_epik_State_Penalty>  (1) 
-0

>  <r_glide_ring_energy>  (1) 
0

>  <r_i_docking_score>  (1) 
-4.7249798519110939

>  <r_i_glide_ecoul>  (1) 
-0.54013287739872284

>  <r_i_glide_eff_state_penalty>  (1) 
-0

>  <r_i_glide_einternal>  (1) 
0.0075603972387257024

>  <r_i_glide_emodel>  (1) 
-21.549026802677137

>  <r_i_glide_emodel_strain>  (1) 
0

>  <r_i_glide_energy>  (1) 
-16.360810234868477

>  <r_i_glide_erotb>  (1) 
0

>  <r_i_glide_esite>  (1) 
0

>  <r_i_glide_evdw>  (1) 
-15.820677357469755

>  <r_i_glide_gscore>  (1) 
-4.7249798519110939

>  <r_i_glide_gscore_strain>  (1) 
0

>  <r_i_glide_hbond>  (1) 
0

>  <r_i_glide_ligand_efficiency>  (1) 
-0.59062248148888674

>  <r_i_glide_ligand_efficiency_ln>  (1) 
-1.5343625744990168

>  <r_i_glide_ligand_efficiency_sa>  (1) 
-1.1812449629777737

>  <r_i_glide_lipo>  (1) 
-1.295713343654725

>  <r_i_glide_metal>  (1) 
-0

>  <r_i_glide_rewards>  (1) 
-2.5572127087730729

>  <r_lp_Energy>  (1) 
7.8081959999999997

>  <r_lp_tautomer_probability>  (1) 
1

>  <s_epik_cmdline>  (1) 
J2VwaWtfcHl0aG9uJywgJy1waHQnLCAnMS4wJywgJy1waCcsICc3LjQnLCAnLXRuJywgJzgnLCAnLW1hJywgJzUwMCcsICctaW1hZScsICc8aW5maWxlLm1hZT4nLCAnLW9tYWUnLCAnPG91dGZpbGUubWFlPic=

>  <s_epik_input>  (1) 
W25IXTFbY0hdW2NIXVtjSF1jMUMoPU8pW09IXQ==

>  <s_glide_docking_method>  (1) 
confgen

>  <s_i_glide_gridfile>  (1) 
gpcr_5ht2c_6bqh_protein_autoprepared_prepared

>  <s_lp_Force_Field>  (1) 
S-OPLS

>  <s_lp_Variant>  (1) 
Pocket2Mol_60_num_sample_100-1

>  <s_m_source_file>  (1) 
generated__ligand_Pocket2Mol_2026-05-06_prepared.sdf

>  <GenAI_Model>  (1) 
Pocket2Mol

>  <Protein>  (1) 
GPCR_5HT2C

$$$$
Pocket2Mol_46_num_sample_100
     RDKit          3D

  0  0  0  0  0  0  0  0  0  0999 V3000
M  V30 BEGIN CTAB
M  V30 COUNTS 12 11 0 0 1
M  V30 BEGIN ATOM
M  V30 1 C 37.867388 34.421432 60.132556 0
M  V30 2 O 38.451542 35.498334 60.846064 0
M  V30 3 C 39.578902 35.290483 61.550274 0
M  V30 4 C 39.998494 36.563830 62.320583 0
M  V30 5 O 40.213311 34.232653 61.598055 0
M  V30 6 O 39.374390 37.620732 62.252782 0
M  V30 7 N 41.095505 36.375949 63.053605 0
M  V30 8 H 36.975472 34.764299 59.607820 0
M  V30 9 H 38.562528 34.019996 59.394056 0
M  V30 10 H 37.576245 33.618644 60.811064 0
M  V30 11 H 41.547110 35.473171 63.055256 0
M  V30 12 H 41.467355 37.136896 63.618259 0
M  V30 END ATOM
M  V30 BEGIN BOND
M  V30 1 1 2 1
M  V30 2 1 3 2
M  V30 3 1 4 3
M  V30 4 2 5 3
M  V30 5 2 6 4
M  V30 6 1 7 4
M  V30 7 1 8 1
M  V30 8 1 9 1
M  V30 9 1 10 1
M  V30 10 1 11 7
M  V30 11 1 12 7
M  V30 END BOND
M  V30 END CTAB
M  END
>  <i_epik_Tot_Q>  (1) 
0

>  <i_epik_Tot_abs_Q>  (1) 
0

>  <i_i_glide_confnum>  (1) 
1

>  <i_i_glide_lignum>  (1) 
49

>  <i_i_glide_posenum>  (1) 
194

>  <i_i_glide_rotatable_bonds>  (1) 
2

>  <i_lp_mmshare_version>  (1) 
72125

>  <i_m_source_file_index>  (1) 
47

>  <i_f3d_flags>  (1) 
0

>  <num_sample>  (1) 
100

>  <b_lp_Chiralities_Consistent>  (1) 
1

>  <r_epik_Charging_Adjusted_Penalty>  (1) 
0

>  <r_epik_Ionization_Penalty>  (1) 
3.9236796398539443e-05

>  <r_epik_Ionization_Penalty_Charging>  (1) 
0

>  <r_epik_Ionization_Penalty_Neutral>  (1) 
3.9236796398539443e-05

>  <r_epik_State_Penalty>  (1) 
-0

>  <r_glide_ring_energy>  (1) 
0

>  <r_i_docking_score>  (1) 
-4.7173887276917599

>  <r_i_glide_ecoul>  (1) 
-4.8092673343371706

>  <r_i_glide_eff_state_penalty>  (1) 
-0

>  <r_i_glide_einternal>  (1) 
0.066175743015903787

>  <r_i_glide_emodel>  (1) 
-23.841437563142119

>  <r_i_glide_emodel_strain>  (1) 
4.5353942823567195e-10

>  <r_i_glide_energy>  (1) 
-17.504675080979524

>  <r_i_glide_erotb>  (1) 
0

>  <r_i_glide_esite>  (1) 
0

>  <r_i_glide_evdw>  (1) 
-12.695407746642354

>  <r_i_glide_gscore>  (1) 
-4.7173887276917599

>  <r_i_glide_gscore_strain>  (1) 
0

>  <r_i_glide_hbond>  (1) 
-0.32000000000000001

>  <r_i_glide_ligand_efficiency>  (1) 
-0.67391267538453714

>  <r_i_glide_ligand_efficiency_ln>  (1) 
-1.6013348978768138

>  <r_i_glide_ligand_efficiency_sa>  (1) 
-1.2891485712086477

>  <r_i_glide_lipo>  (1) 
-0.089339347819789611

>  <r_i_glide_metal>  (1) 
-0

>  <r_i_glide_rewards>  (1) 
-2.9518888923892765

>  <r_lp_Energy>  (1) 
8.3220650000000003

>  <r_lp_tautomer_probability>  (1) 
1

>  <s_epik_Chemistry_Notes>  (1) 
This compound has an ester and may undergo hydrolysis at high or low pH.

>  <s_epik_cmdline>  (1) 
J2VwaWtfcHl0aG9uJywgJy1waHQnLCAnMS4wJywgJy1waCcsICc3LjQnLCAnLXRuJywgJzgnLCAnLW1hJywgJzUwMCcsICctaW1hZScsICc8aW5maWxlLm1hZT4nLCAnLW9tYWUnLCAnPG91dGZpbGUubWFlPic=

>  <s_epik_input>  (1) 
W0NIM11PQyg9TylDKD1PKVtOSDJd

>  <s_glide_docking_method>  (1) 
confgen

>  <s_i_glide_gridfile>  (1) 
gpcr_5ht2c_6bqh_protein_autoprepared_prepared

>  <s_lp_Force_Field>  (1) 
S-OPLS

>  <s_lp_Variant>  (1) 
Pocket2Mol_46_num_sample_100-1

>  <s_m_source_file>  (1) 
generated__ligand_Pocket2Mol_2026-05-06_prepared.sdf

>  <GenAI_Model>  (1) 
Pocket2Mol

>  <Protein>  (1) 
GPCR_5HT2C

$$$$
Pocket2Mol_39_num_sample_100
     RDKit          3D

  0  0  0  0  0  0  0  0  0  0999 V3000
M  V30 BEGIN CTAB
M  V30 COUNTS 15 15 0 0 1
M  V30 BEGIN ATOM
M  V30 1 C 35.416914 33.018462 60.916295 0
M  V30 2 C 36.614411 33.971610 61.053542 0
M  V30 3 O 35.867402 31.678036 61.040413 0
M  V30 4 C 36.540240 31.204710 59.917601 0
M  V30 5 O 37.337622 34.197004 59.850281 0
M  V30 6 O 37.722762 31.895651 59.638667 0
M  V30 7 C 37.502594 33.113525 58.989325 0
M  V30 8 H 34.729464 33.197755 61.743727 0
M  V30 9 H 34.849366 33.187290 59.999299 0
M  V30 10 H 37.296339 33.600921 61.819868 0
M  V30 11 H 36.267921 34.945251 61.399566 0
M  V30 12 H 35.873208 31.164097 59.053494 0
M  V30 13 H 36.826061 30.177450 60.142011 0
M  V30 14 H 38.390163 33.326722 58.393294 0
M  V30 15 H 36.667408 33.071177 58.287181 0
M  V30 END ATOM
M  V30 BEGIN BOND
M  V30 1 1 2 1
M  V30 2 1 3 1
M  V30 3 1 4 3
M  V30 4 1 5 2
M  V30 5 1 6 4
M  V30 6 1 7 5
M  V30 7 1 7 6
M  V30 8 1 8 1
M  V30 9 1 9 1
M  V30 10 1 10 2
M  V30 11 1 11 2
M  V30 12 1 12 4
M  V30 13 1 13 4
M  V30 14 1 14 7
M  V30 15 1 15 7
M  V30 END BOND
M  V30 END CTAB
M  END
>  <i_epik_Tot_Q>  (1) 
0

>  <i_epik_Tot_abs_Q>  (1) 
0

>  <i_i_glide_confnum>  (1) 
4

>  <i_i_glide_lignum>  (1) 
42

>  <i_i_glide_posenum>  (1) 
282

>  <i_i_glide_rotatable_bonds>  (1) 
0

>  <i_lp_mmshare_version>  (1) 
72125

>  <i_m_source_file_index>  (1) 
40

>  <i_f3d_flags>  (1) 
0

>  <num_sample>  (1) 
100

>  <b_lp_Chiralities_Consistent>  (1) 
1

>  <r_epik_Charging_Adjusted_Penalty>  (1) 
0

>  <r_epik_Ionization_Penalty>  (1) 
4.6834743432320728e-14

>  <r_epik_Ionization_Penalty_Charging>  (1) 
0

>  <r_epik_Ionization_Penalty_Neutral>  (1) 
4.6834743432320728e-14

>  <r_epik_State_Penalty>  (1) 
-0

>  <r_glide_ring_energy>  (1) 
0.00034554738616163878

>  <r_i_docking_score>  (1) 
-4.716997996561946

>  <r_i_glide_ecoul>  (1) 
-2.9465355574655763

>  <r_i_glide_eff_state_penalty>  (1) 
-0

>  <r_i_glide_einternal>  (1) 
0

>  <r_i_glide_emodel>  (1) 
-20.963495477166898

>  <r_i_glide_emodel_strain>  (1) 
0

>  <r_i_glide_energy>  (1) 
-15.668116130833781

>  <r_i_glide_erotb>  (1) 
0

>  <r_i_glide_esite>  (1) 
-0.13060030918055429

>  <r_i_glide_evdw>  (1) 
-12.721580573368204

>  <r_i_glide_gscore>  (1) 
-4.716997996561946

>  <r_i_glide_gscore_strain>  (1) 
0

>  <r_i_glide_hbond>  (1) 
-0.19779990097027322

>  <r_i_glide_ligand_efficiency>  (1) 
-0.67385685665170658

>  <r_i_glide_ligand_efficiency_ln>  (1) 
-1.6012022627623521

>  <r_i_glide_ligand_efficiency_sa>  (1) 
-1.2890417938140333

>  <r_i_glide_lipo>  (1) 
-0.35590633817261752

>  <r_i_glide_metal>  (1) 
-0

>  <r_i_glide_rewards>  (1) 
-2.9546320859502542

>  <r_lp_Energy>  (1) 
1.238378

>  <r_lp_tautomer_probability>  (1) 
1

>  <s_epik_Chemistry_Notes>  (1) 
This compound contains an acetal/aminal-like group ( X-CH(R)-Y where X, Y are N, S, or O) that may be acid/base labile, releasing an aldehyde.

>  <s_epik_cmdline>  (1) 
J2VwaWtfcHl0aG9uJywgJy1waHQnLCAnMS4wJywgJy1waCcsICc3LjQnLCAnLXRuJywgJzgnLCAnLW1hJywgJzUwMCcsICctaW1hZScsICc8aW5maWxlLm1hZT4nLCAnLW9tYWUnLCAnPG91dGZpbGUubWFlPic=

>  <s_epik_input>  (1) 
W0NIMl0xW0NIMl1PW0NIMl1PW0NIMl1PMQ==

>  <s_glide_docking_method>  (1) 
confgen

>  <s_i_glide_gridfile>  (1) 
gpcr_5ht2c_6bqh_protein_autoprepared_prepared

>  <s_lp_Force_Field>  (1) 
S-OPLS

>  <s_lp_Variant>  (1) 
Pocket2Mol_39_num_sample_100-1

>  <s_m_source_file>  (1) 
generated__ligand_Pocket2Mol_2026-05-06_prepared.sdf

>  <GenAI_Model>  (1) 
Pocket2Mol

>  <Protein>  (1) 
GPCR_5HT2C

$$$$
Pocket2Mol_39_num_sample_100
     RDKit          3D

  0  0  0  0  0  0  0  0  0  0999 V3000
M  V30 BEGIN CTAB
M  V30 COUNTS 15 15 0 0 1
M  V30 BEGIN ATOM
M  V30 1 C 39.242559 28.165937 51.886746 0
M  V30 2 C 39.876183 29.471761 51.376277 0
M  V30 3 O 37.924882 28.392951 52.357706 0
M  V30 4 C 37.876757 28.812812 53.682268 0
M  V30 5 O 39.867277 30.591739 52.260528 0
M  V30 6 O 38.248456 30.142020 53.853501 0
M  V30 7 C 39.595498 30.386110 53.609532 0
M  V30 8 H 39.177568 27.468806 51.051898 0
M  V30 9 H 39.863412 27.670757 52.636754 0
M  V30 10 H 39.367643 29.782453 50.463381 0
M  V30 11 H 40.911426 29.281889 51.085707 0
M  V30 12 H 38.444805 28.154586 54.342386 0
M  V30 13 H 36.835543 28.745177 53.994073 0
M  V30 14 H 39.822145 31.330911 54.103537 0
M  V30 15 H 40.246127 29.633663 54.055232 0
M  V30 END ATOM
M  V30 BEGIN BOND
M  V30 1 1 2 1
M  V30 2 1 3 1
M  V30 3 1 4 3
M  V30 4 1 5 2
M  V30 5 1 6 4
M  V30 6 1 7 5
M  V30 7 1 7 6
M  V30 8 1 8 1
M  V30 9 1 9 1
M  V30 10 1 10 2
M  V30 11 1 11 2
M  V30 12 1 12 4
M  V30 13 1 13 4
M  V30 14 1 14 7
M  V30 15 1 15 7
M  V30 END BOND
M  V30 END CTAB
M  END
>  <i_epik_Tot_Q>  (1) 
0

>  <i_epik_Tot_abs_Q>  (1) 
0

>  <i_i_glide_confnum>  (1) 
14

>  <i_i_glide_lignum>  (1) 
42

>  <i_i_glide_posenum>  (1) 
342

>  <i_i_glide_rotatable_bonds>  (1) 
0

>  <i_lp_mmshare_version>  (1) 
72125

>  <i_m_source_file_index>  (1) 
40

>  <i_f3d_flags>  (1) 
0

>  <num_sample>  (1) 
100

>  <b_lp_Chiralities_Consistent>  (1) 
1

>  <r_epik_Charging_Adjusted_Penalty>  (1) 
0

>  <r_epik_Ionization_Penalty>  (1) 
4.6834743432320728e-14

>  <r_epik_Ionization_Penalty_Charging>  (1) 
0

>  <r_epik_Ionization_Penalty_Neutral>  (1) 
4.6834743432320728e-14

>  <r_epik_State_Penalty>  (1) 
-0

>  <r_glide_ring_energy>  (1) 
0.0018681440481121299

>  <r_i_docking_score>  (1) 
-4.7061662731085727

>  <r_i_glide_ecoul>  (1) 
0.13307822174912676

>  <r_i_glide_eff_state_penalty>  (1) 
-0

>  <r_i_glide_einternal>  (1) 
0

>  <r_i_glide_emodel>  (1) 
-19.98028060203703

>  <r_i_glide_emodel_strain>  (1) 
0.87071085735282017

>  <r_i_glide_energy>  (1) 
-15.567771983529859

>  <r_i_glide_erotb>  (1) 
0

>  <r_i_glide_esite>  (1) 
0

>  <r_i_glide_evdw>  (1) 
-15.700850205278986

>  <r_i_glide_gscore>  (1) 
-4.7061662731085727

>  <r_i_glide_gscore_strain>  (1) 
0

>  <r_i_glide_hbond>  (1) 
0

>  <r_i_glide_ligand_efficiency>  (1) 
-0.67230946758693899

>  <r_i_glide_ligand_efficiency_ln>  (1) 
-1.5975253945262837

>  <r_i_glide_ligand_efficiency_sa>  (1) 
-1.2860817450201585

>  <r_i_glide_lipo>  (1) 
-0.66000000000000003

>  <r_i_glide_metal>  (1) 
-0

>  <r_i_glide_rewards>  (1) 
-3.2810854961069924

>  <r_lp_Energy>  (1) 
1.238378

>  <r_lp_tautomer_probability>  (1) 
1

>  <s_epik_Chemistry_Notes>  (1) 
This compound contains an acetal/aminal-like group ( X-CH(R)-Y where X, Y are N, S, or O) that may be acid/base labile, releasing an aldehyde.

>  <s_epik_cmdline>  (1) 
J2VwaWtfcHl0aG9uJywgJy1waHQnLCAnMS4wJywgJy1waCcsICc3LjQnLCAnLXRuJywgJzgnLCAnLW1hJywgJzUwMCcsICctaW1hZScsICc8aW5maWxlLm1hZT4nLCAnLW9tYWUnLCAnPG91dGZpbGUubWFlPic=

>  <s_epik_input>  (1) 
W0NIMl0xW0NIMl1PW0NIMl1PW0NIMl1PMQ==

>  <s_glide_docking_method>  (1) 
confgen

>  <s_i_glide_gridfile>  (1) 
gpcr_5ht2c_6bqh_protein_autoprepared_prepared

>  <s_lp_Force_Field>  (1) 
S-OPLS

>  <s_lp_Variant>  (1) 
Pocket2Mol_39_num_sample_100-1

>  <s_m_source_file>  (1) 
generated__ligand_Pocket2Mol_2026-05-06_prepared.sdf

>  <GenAI_Model>  (1) 
Pocket2Mol

>  <Protein>  (1) 
GPCR_5HT2C

$$$$
Pocket2Mol_28_num_sample_100
     RDKit          3D

  0  0  0  0  0  0  0  0  0  0999 V3000
M  V30 BEGIN CTAB
M  V30 COUNTS 13 13 0 0 1
M  V30 BEGIN ATOM
M  V30 1 C 40.113853 30.466122 51.784378 0
M  V30 2 O 40.259904 29.175149 51.210438 0
M  V30 3 C 39.386461 28.165216 51.459759 0
M  V30 4 O 39.180628 27.221564 50.703411 0
M  V30 5 C 38.673620 28.278076 52.823372 0
M  V30 6 C 39.569985 30.420879 53.218302 0
M  V30 7 O 38.404938 29.621429 53.202107 0
M  V30 8 H 39.467872 31.055243 51.141016 0
M  V30 9 H 41.067356 30.983851 51.760720 0
M  V30 10 H 39.288438 27.801448 53.588792 0
M  V30 11 H 37.731894 27.730103 52.781400 0
M  V30 12 H 39.314788 31.425264 53.557542 0
M  V30 13 H 40.300182 30.021667 53.920351 0
M  V30 END ATOM
M  V30 BEGIN BOND
M  V30 1 1 2 1
M  V30 2 1 3 2
M  V30 3 2 4 3
M  V30 4 1 5 3
M  V30 5 1 6 1
M  V30 6 1 7 5
M  V30 7 1 7 6
M  V30 8 1 8 1
M  V30 9 1 9 1
M  V30 10 1 10 5
M  V30 11 1 11 5
M  V30 12 1 12 6
M  V30 13 1 13 6
M  V30 END BOND
M  V30 END CTAB
M  END
>  <i_epik_Tot_Q>  (1) 
0

>  <i_epik_Tot_abs_Q>  (1) 
0

>  <i_i_glide_confnum>  (1) 
2

>  <i_i_glide_lignum>  (1) 
31

>  <i_i_glide_posenum>  (1) 
238

>  <i_i_glide_rotatable_bonds>  (1) 
0

>  <i_lp_mmshare_version>  (1) 
72125

>  <i_m_source_file_index>  (1) 
29

>  <i_f3d_flags>  (1) 
0

>  <num_sample>  (1) 
100

>  <b_lp_Chiralities_Consistent>  (1) 
1

>  <r_epik_Charging_Adjusted_Penalty>  (1) 
0

>  <r_epik_Ionization_Penalty>  (1) 
1.0677269036415479e-12

>  <r_epik_Ionization_Penalty_Charging>  (1) 
0

>  <r_epik_Ionization_Penalty_Neutral>  (1) 
1.0677269036415479e-12

>  <r_epik_State_Penalty>  (1) 
-0

>  <r_glide_ring_energy>  (1) 
4.2281688740393558e-05

>  <r_i_docking_score>  (1) 
-4.703171357886017

>  <r_i_glide_ecoul>  (1) 
0.07863063914681015

>  <r_i_glide_eff_state_penalty>  (1) 
-0

>  <r_i_glide_einternal>  (1) 
0

>  <r_i_glide_emodel>  (1) 
-20.558908794310739

>  <r_i_glide_emodel_strain>  (1) 
0

>  <r_i_glide_energy>  (1) 
-15.731692270144674

>  <r_i_glide_erotb>  (1) 
0

>  <r_i_glide_esite>  (1) 
0

>  <r_i_glide_evdw>  (1) 
-15.810322909291484

>  <r_i_glide_gscore>  (1) 
-4.703171357886017

>  <r_i_glide_gscore_strain>  (1) 
0

>  <r_i_glide_hbond>  (1) 
0

>  <r_i_glide_ligand_efficiency>  (1) 
-0.67188162255514527

>  <r_i_glide_ligand_efficiency_ln>  (1) 
-1.5965087595744281

>  <r_i_glide_ligand_efficiency_sa>  (1) 
-1.2852633069174459

>  <r_i_glide_lipo>  (1) 
-0.89250354310397295

>  <r_i_glide_metal>  (1) 
-0

>  <r_i_glide_rewards>  (1) 
-3.0319462651894913

>  <r_lp_Energy>  (1) 
12.58291

>  <r_lp_tautomer_probability>  (1) 
1

>  <s_epik_Chemistry_Notes>  (1) 
This compound has an ester and may undergo hydrolysis at high or low pH.

>  <s_epik_cmdline>  (1) 
J2VwaWtfcHl0aG9uJywgJy1waHQnLCAnMS4wJywgJy1waCcsICc3LjQnLCAnLXRuJywgJzgnLCAnLW1hJywgJzUwMCcsICctaW1hZScsICc8aW5maWxlLm1hZT4nLCAnLW9tYWUnLCAnPG91dGZpbGUubWFlPic=

>  <s_epik_input>  (1) 
W0NIMl0xT1tDSDJdW0NIMl1PQzE9Tw==

>  <s_glide_docking_method>  (1) 
confgen

>  <s_i_glide_gridfile>  (1) 
gpcr_5ht2c_6bqh_protein_autoprepared_prepared

>  <s_lp_Force_Field>  (1) 
S-OPLS

>  <s_lp_Variant>  (1) 
Pocket2Mol_28_num_sample_100-1

>  <s_m_source_file>  (1) 
generated__ligand_Pocket2Mol_2026-05-06_prepared.sdf

>  <GenAI_Model>  (1) 
Pocket2Mol

>  <Protein>  (1) 
GPCR_5HT2C

$$$$
Pocket2Mol_19_num_sample_100
     RDKit          3D

  0  0  0  0  0  0  0  0  0  0999 V3000
M  V30 BEGIN CTAB
M  V30 COUNTS 10 10 0 0 1
M  V30 BEGIN ATOM
M  V30 1 C 40.293708 30.525678 50.587246 0
M  V30 2 O 39.957956 29.139484 50.129659 0
M  V30 3 C 39.435276 28.390014 51.193464 0
M  V30 4 C 39.867403 30.373914 52.015551 0
M  V30 5 C 39.406505 29.214052 52.328408 0
M  V30 6 O 39.067671 27.221443 51.135980 0
M  V30 7 H 39.709096 31.283339 50.065191 0
M  V30 8 H 39.952547 31.196751 52.710413 0
M  V30 9 H 39.047519 28.895025 53.295705 0
M  V30 10 H 41.361055 30.731791 50.501082 0
M  V30 END ATOM
M  V30 BEGIN BOND
M  V30 1 1 2 1
M  V30 2 1 3 2
M  V30 3 1 4 1
M  V30 4 1 5 3
M  V30 5 2 5 4
M  V30 6 2 6 3
M  V30 7 1 7 1
M  V30 8 1 8 4
M  V30 9 1 9 5
M  V30 10 1 10 1
M  V30 END BOND
M  V30 END CTAB
M  END
>  <i_epik_Tot_Q>  (1) 
0

>  <i_epik_Tot_abs_Q>  (1) 
0

>  <i_i_glide_confnum>  (1) 
1

>  <i_i_glide_lignum>  (1) 
22

>  <i_i_glide_posenum>  (1) 
100

>  <i_i_glide_rotatable_bonds>  (1) 
0

>  <i_lp_mmshare_version>  (1) 
72125

>  <i_m_source_file_index>  (1) 
20

>  <i_f3d_flags>  (1) 
0

>  <num_sample>  (1) 
100

>  <b_lp_Chiralities_Consistent>  (1) 
1

>  <r_epik_Charging_Adjusted_Penalty>  (1) 
0

>  <r_epik_Ionization_Penalty>  (1) 
0

>  <r_epik_Ionization_Penalty_Charging>  (1) 
0

>  <r_epik_Ionization_Penalty_Neutral>  (1) 
0

>  <r_epik_State_Penalty>  (1) 
-0

>  <r_glide_ring_energy>  (1) 
0

>  <r_i_docking_score>  (1) 
-4.7007280012817541

>  <r_i_glide_ecoul>  (1) 
0.22988819052600085

>  <r_i_glide_eff_state_penalty>  (1) 
-0

>  <r_i_glide_einternal>  (1) 
0

>  <r_i_glide_emodel>  (1) 
-20.622058888057349

>  <r_i_glide_emodel_strain>  (1) 
0

>  <r_i_glide_energy>  (1) 
-15.993423392617164

>  <r_i_glide_erotb>  (1) 
0

>  <r_i_glide_esite>  (1) 
0

>  <r_i_glide_evdw>  (1) 
-16.223311583143165

>  <r_i_glide_gscore>  (1) 
-4.7007280012817541

>  <r_i_glide_gscore_strain>  (1) 
0

>  <r_i_glide_hbond>  (1) 
0

>  <r_i_glide_ligand_efficiency>  (1) 
-0.78345466688029231

>  <r_i_glide_ligand_efficiency_ln>  (1) 
-1.6837868924938384

>  <r_i_glide_ligand_efficiency_sa>  (1) 
-1.4236316087386234

>  <r_i_glide_lipo>  (1) 
-0.95125583471163988

>  <r_i_glide_metal>  (1) 
-0

>  <r_i_glide_rewards>  (1) 
-2.972789815991856

>  <r_lp_Energy>  (1) 
-7.0611199999999998

>  <r_lp_tautomer_probability>  (1) 
1

>  <s_epik_Chemistry_Notes>  (1) 
This compound has an ester and may undergo hydrolysis at high or low pH.

>  <s_epik_cmdline>  (1) 
J2VwaWtfcHl0aG9uJywgJy1waHQnLCAnMS4wJywgJy1waCcsICc3LjQnLCAnLXRuJywgJzgnLCAnLW1hJywgJzUwMCcsICctaW1hZScsICc8aW5maWxlLm1hZT4nLCAnLW9tYWUnLCAnPG91dGZpbGUubWFlPic=

>  <s_epik_input>  (1) 
W0NIMl0xW0NIXT1bQ0hdT0MxPU8=

>  <s_glide_docking_method>  (1) 
confgen

>  <s_i_glide_gridfile>  (1) 
gpcr_5ht2c_6bqh_protein_autoprepared_prepared

>  <s_lp_Force_Field>  (1) 
S-OPLS

>  <s_lp_Variant>  (1) 
Pocket2Mol_19_num_sample_100-1

>  <s_m_source_file>  (1) 
generated__ligand_Pocket2Mol_2026-05-06_prepared.sdf

>  <GenAI_Model>  (1) 
Pocket2Mol

>  <Protein>  (1) 
GPCR_5HT2C

$$$$
Pocket2Mol_23_num_sample_100
     RDKit          3D

  0  0  0  0  0  0  0  0  0  0999 V3000
M  V30 BEGIN CTAB
M  V30 COUNTS 14 14 0 0 1
M  V30 BEGIN ATOM
M  V30 1 C 39.276089 27.836535 51.053500 0
M  V30 2 C 39.844281 29.199552 51.413319 0
M  V30 3 O 39.227685 27.221435 52.318291 0
M  V30 4 C 38.892350 28.236977 53.203333 0
M  V30 5 O 39.188784 29.470708 52.634751 0
M  V30 6 C 37.390135 28.175845 53.487229 0
M  V30 7 H 39.886851 27.281355 50.341888 0
M  V30 8 H 38.267404 27.931857 50.653512 0
M  V30 9 H 40.921463 29.141250 51.573477 0
M  V30 10 H 39.640953 29.960603 50.659454 0
M  V30 11 H 39.467402 28.109607 54.120884 0
M  V30 12 H 36.821599 28.319628 52.568208 0
M  V30 13 H 37.116355 28.958138 54.195695 0
M  V30 14 H 37.132589 27.206384 53.913989 0
M  V30 END ATOM
M  V30 BEGIN BOND
M  V30 1 1 2 1
M  V30 2 1 3 1
M  V30 3 1 4 3
M  V30 4 1 5 2
M  V30 5 1 5 4
M  V30 6 1 6 4
M  V30 7 1 7 1
M  V30 8 1 8 1
M  V30 9 1 9 2
M  V30 10 1 10 2
M  V30 11 1 11 4
M  V30 12 1 12 6
M  V30 13 1 13 6
M  V30 14 1 14 6
M  V30 END BOND
M  V30 END CTAB
M  END
>  <i_epik_Tot_Q>  (1) 
0

>  <i_epik_Tot_abs_Q>  (1) 
0

>  <i_i_glide_confnum>  (1) 
3

>  <i_i_glide_lignum>  (1) 
26

>  <i_i_glide_posenum>  (1) 
309

>  <i_i_glide_rotatable_bonds>  (1) 
0

>  <i_lp_mmshare_version>  (1) 
72125

>  <i_m_source_file_index>  (1) 
24

>  <i_f3d_flags>  (1) 
0

>  <num_sample>  (1) 
100

>  <b_lp_Chiralities_Consistent>  (1) 
1

>  <r_epik_Charging_Adjusted_Penalty>  (1) 
0

>  <r_epik_Ionization_Penalty>  (1) 
7.9724310449397378e-14

>  <r_epik_Ionization_Penalty_Charging>  (1) 
0

>  <r_epik_Ionization_Penalty_Neutral>  (1) 
7.9724310449397378e-14

>  <r_epik_State_Penalty>  (1) 
-0

>  <r_glide_ring_energy>  (1) 
1.2362365743684729

>  <r_i_docking_score>  (1) 
-4.6985999206362123

>  <r_i_glide_ecoul>  (1) 
-0.30710396244007931

>  <r_i_glide_eff_state_penalty>  (1) 
-0

>  <r_i_glide_einternal>  (1) 
0

>  <r_i_glide_emodel>  (1) 
-20.083550012626784

>  <r_i_glide_emodel_strain>  (1) 
0.025278159390444976

>  <r_i_glide_energy>  (1) 
-15.648315546863321

>  <r_i_glide_erotb>  (1) 
0

>  <r_i_glide_esite>  (1) 
0

>  <r_i_glide_evdw>  (1) 
-15.341211584423242

>  <r_i_glide_gscore>  (1) 
-4.6985999206362123

>  <r_i_glide_gscore_strain>  (1) 
0

>  <r_i_glide_hbond>  (1) 
0

>  <r_i_glide_ligand_efficiency>  (1) 
-0.78309998677270209

>  <r_i_glide_ligand_efficiency_ln>  (1) 
-1.6830246202891594

>  <r_i_glide_ligand_efficiency_sa>  (1) 
-1.4229871122112532

>  <r_i_glide_lipo>  (1) 
-0.98999999999999999

>  <r_i_glide_metal>  (1) 
-0

>  <r_i_glide_rewards>  (1) 
-2.8954737470490386

>  <r_lp_Energy>  (1) 
-12.129052

>  <r_lp_tautomer_probability>  (1) 
1

>  <s_epik_Chemistry_Notes>  (1) 
This compound contains an acetal/aminal-like group ( X-CH(R)-Y where X, Y are N, S, or O) that may be acid/base labile, releasing an aldehyde.

>  <s_epik_cmdline>  (1) 
J2VwaWtfcHl0aG9uJywgJy1waHQnLCAnMS4wJywgJy1waCcsICc3LjQnLCAnLXRuJywgJzgnLCAnLW1hJywgJzUwMCcsICctaW1hZScsICc8aW5maWxlLm1hZT4nLCAnLW9tYWUnLCAnPG91dGZpbGUubWFlPic=

>  <s_epik_input>  (1) 
TzFbQ0gyXVtDSDJdT1tDSF0xW0NIM10=

>  <s_glide_docking_method>  (1) 
confgen

>  <s_i_glide_gridfile>  (1) 
gpcr_5ht2c_6bqh_protein_autoprepared_prepared

>  <s_lp_Force_Field>  (1) 
S-OPLS

>  <s_lp_Variant>  (1) 
Pocket2Mol_23_num_sample_100-1

>  <s_m_source_file>  (1) 
generated__ligand_Pocket2Mol_2026-05-06_prepared.sdf

>  <GenAI_Model>  (1) 
Pocket2Mol

>  <Protein>  (1) 
GPCR_5HT2C

$$$$
Pocket2Mol_77_num_sample_100
     RDKit          3D

  0  0  0  0  0  0  0  0  0  0999 V3000
M  V30 BEGIN CTAB
M  V30 COUNTS 15 15 0 0 1
M  V30 BEGIN ATOM
M  V30 1 C 40.014982 29.852433 51.386159 0
M  V30 2 C 39.750623 30.332543 52.823683 0
M  V30 3 C 38.788365 29.312517 53.455190 0
M  V30 4 C 39.474869 28.422937 51.315316 0
M  V30 5 C 38.322733 28.402910 52.315729 0
M  V30 6 H 39.467397 30.482104 50.683833 0
M  V30 7 H 41.068209 29.907954 51.111441 0
M  V30 8 H 40.667403 30.395121 53.406302 0
M  V30 9 H 39.324609 31.336148 52.820593 0
M  V30 10 H 39.323035 28.720807 54.199336 0
M  V30 11 H 37.951219 29.793343 53.962857 0
M  V30 12 H 39.163759 28.139310 50.308746 0
M  V30 13 H 40.247017 27.724130 51.636766 0
M  V30 14 H 38.077051 27.395063 52.653107 0
M  V30 15 H 37.429292 28.821428 51.853501 0
M  V30 END ATOM
M  V30 BEGIN BOND
M  V30 1 1 2 1
M  V30 2 1 3 2
M  V30 3 1 4 1
M  V30 4 1 5 3
M  V30 5 1 5 4
M  V30 6 1 6 1
M  V30 7 1 7 1
M  V30 8 1 8 2
M  V30 9 1 9 2
M  V30 10 1 10 3
M  V30 11 1 11 3
M  V30 12 1 12 4
M  V30 13 1 13 4
M  V30 14 1 14 5
M  V30 15 1 15 5
M  V30 END BOND
M  V30 END CTAB
M  END
>  <i_epik_Tot_Q>  (1) 
0

>  <i_epik_Tot_abs_Q>  (1) 
0

>  <i_i_glide_confnum>  (1) 
4

>  <i_i_glide_lignum>  (1) 
82

>  <i_i_glide_posenum>  (1) 
67

>  <i_i_glide_rotatable_bonds>  (1) 
0

>  <i_lp_mmshare_version>  (1) 
72125

>  <i_m_source_file_index>  (1) 
78

>  <i_f3d_flags>  (1) 
0

>  <num_sample>  (1) 
100

>  <b_lp_Chiralities_Consistent>  (1) 
1

>  <r_epik_Charging_Adjusted_Penalty>  (1) 
0

>  <r_epik_Ionization_Penalty>  (1) 
0

>  <r_epik_Ionization_Penalty_Charging>  (1) 
0

>  <r_epik_Ionization_Penalty_Neutral>  (1) 
0

>  <r_epik_State_Penalty>  (1) 
-0

>  <r_glide_ring_energy>  (1) 
0.0012162538604926188

>  <r_i_docking_score>  (1) 
-4.6938121101404731

>  <r_i_glide_ecoul>  (1) 
-0.099759684565521645

>  <r_i_glide_eff_state_penalty>  (1) 
-0

>  <r_i_glide_einternal>  (1) 
0

>  <r_i_glide_emodel>  (1) 
-16.776044114048865

>  <r_i_glide_emodel_strain>  (1) 
0

>  <r_i_glide_energy>  (1) 
-13.092305612817041

>  <r_i_glide_erotb>  (1) 
0

>  <r_i_glide_esite>  (1) 
0

>  <r_i_glide_evdw>  (1) 
-12.99254592825152

>  <r_i_glide_gscore>  (1) 
-4.6938121101404731

>  <r_i_glide_gscore_strain>  (1) 
0

>  <r_i_glide_hbond>  (1) 
0

>  <r_i_glide_ligand_efficiency>  (1) 
-0.93876242202809457

>  <r_i_glide_ligand_efficiency_ln>  (1) 
-1.7987828289664325

>  <r_i_glide_ligand_efficiency_sa>  (1) 
-1.605261161312

>  <r_i_glide_lipo>  (1) 
-1.5498674337470717

>  <r_i_glide_metal>  (1) 
-0

>  <r_i_glide_rewards>  (1) 
-2.4793534272959974

>  <r_lp_Energy>  (1) 
13.274989999999999

>  <r_lp_tautomer_probability>  (1) 
1

>  <s_epik_cmdline>  (1) 
J2VwaWtfcHl0aG9uJywgJy1waHQnLCAnMS4wJywgJy1waCcsICc3LjQnLCAnLXRuJywgJzgnLCAnLW1hJywgJzUwMCcsICctaW1hZScsICc8aW5maWxlLm1hZT4nLCAnLW9tYWUnLCAnPG91dGZpbGUubWFlPic=

>  <s_epik_input>  (1) 
W0NIMl0xW0NIMl1bQ0gyXVtDSDJdW0NIMl0x

>  <s_glide_docking_method>  (1) 
confgen

>  <s_i_glide_gridfile>  (1) 
gpcr_5ht2c_6bqh_protein_autoprepared_prepared

>  <s_lp_Force_Field>  (1) 
S-OPLS

>  <s_lp_Variant>  (1) 
Pocket2Mol_77_num_sample_100-1

>  <s_m_source_file>  (1) 
generated__ligand_Pocket2Mol_2026-05-06_prepared.sdf

>  <GenAI_Model>  (1) 
Pocket2Mol

>  <Protein>  (1) 
GPCR_5HT2C

$$$$
Pocket2Mol_84_num_sample_100
     RDKit          3D

  0  0  0  0  0  0  0  0  0  0999 V3000
M  V30 BEGIN CTAB
M  V30 COUNTS 19 19 0 0 1
M  V30 BEGIN ATOM
M  V30 1 C 35.468091 31.935569 60.854802 0
M  V30 2 C 35.726677 33.425826 60.803748 0
M  V30 3 O 36.713168 31.270559 60.830036 0
M  V30 4 C 37.386036 31.173373 59.608312 0 CFG=1
M  V30 5 C 38.638461 30.352943 59.949955 0
M  V30 6 O 35.883910 33.794364 59.453431 0
M  V30 7 C 37.140575 33.649467 58.930370 0
M  V30 8 O 36.667403 30.421431 58.653502 0
M  V30 9 C 37.852885 32.497710 58.981316 0
M  V30 10 H 34.789387 31.621429 60.061771 0
M  V30 11 H 34.996597 31.686366 61.804924 0
M  V30 12 H 34.856080 33.957137 61.186548 0
M  V30 13 H 36.575719 33.721056 61.423377 0
M  V30 14 H 38.350600 29.386442 60.364362 0
M  V30 15 H 39.237384 30.178194 59.055201 0
M  V30 16 H 39.244977 30.881986 60.686021 0
M  V30 17 H 37.494381 34.559671 58.471135 0
M  V30 18 H 36.161181 31.023819 58.096554 0
M  V30 19 H 38.837094 32.483604 58.536649 0
M  V30 END ATOM
M  V30 BEGIN BOND
M  V30 1 1 2 1
M  V30 2 1 3 1
M  V30 3 1 4 3
M  V30 4 1 5 4
M  V30 5 1 6 2
M  V30 6 1 7 6
M  V30 7 1 4 8 CFG=3
M  V30 8 1 9 4
M  V30 9 2 9 7
M  V30 10 1 10 1
M  V30 11 1 11 1
M  V30 12 1 12 2
M  V30 13 1 13 2
M  V30 14 1 14 5
M  V30 15 1 15 5
M  V30 16 1 16 5
M  V30 17 1 17 7
M  V30 18 1 18 8
M  V30 19 1 19 9
M  V30 END BOND
M  V30 END CTAB
M  END
>  <i_epik_Tot_Q>  (1) 
0

>  <i_epik_Tot_abs_Q>  (1) 
0

>  <i_i_glide_confnum>  (1) 
1

>  <i_i_glide_lignum>  (1) 
89

>  <i_i_glide_posenum>  (1) 
47

>  <i_i_glide_rotatable_bonds>  (1) 
1

>  <i_lp_mmshare_version>  (1) 
72125

>  <i_m_source_file_index>  (1) 
85

>  <i_f3d_flags>  (1) 
0

>  <num_sample>  (1) 
100

>  <b_lp_Chiralities_Consistent>  (1) 
1

>  <r_epik_Charging_Adjusted_Penalty>  (1) 
0

>  <r_epik_Ionization_Penalty>  (1) 
7.9405632778621754e-05

>  <r_epik_Ionization_Penalty_Charging>  (1) 
0

>  <r_epik_Ionization_Penalty_Neutral>  (1) 
7.9405632778621754e-05

>  <r_epik_State_Penalty>  (1) 
-0

>  <r_glide_ring_energy>  (1) 
0

>  <r_i_docking_score>  (1) 
-4.6834999567512847

>  <r_i_glide_ecoul>  (1) 
-5.5408687109404369

>  <r_i_glide_eff_state_penalty>  (1) 
-0

>  <r_i_glide_einternal>  (1) 
0.24836897822123039

>  <r_i_glide_emodel>  (1) 
-26.391009173826333

>  <r_i_glide_emodel_strain>  (1) 
0.12543205105997046

>  <r_i_glide_energy>  (1) 
-20.195283840229315

>  <r_i_glide_erotb>  (1) 
0

>  <r_i_glide_esite>  (1) 
-0.055294794931060598

>  <r_i_glide_evdw>  (1) 
-14.65441512928888

>  <r_i_glide_gscore>  (1) 
-4.6834999567512847

>  <r_i_glide_gscore_strain>  (1) 
0

>  <r_i_glide_hbond>  (1) 
-0.28953335983071038

>  <r_i_glide_ligand_efficiency>  (1) 
-0.52038888408347606

>  <r_i_glide_ligand_efficiency_ln>  (1) 
-1.4648642419274036

>  <r_i_glide_ligand_efficiency_sa>  (1) 
-1.0824524994780713

>  <r_i_glide_lipo>  (1) 
-0.26969968319722909

>  <r_i_glide_metal>  (1) 
-0

>  <r_i_glide_rewards>  (1) 
-2.5051210556867751

>  <r_lp_Energy>  (1) 
3.4776590000000001

>  <r_lp_tautomer_probability>  (1) 
1

>  <s_epik_cmdline>  (1) 
J2VwaWtfcHl0aG9uJywgJy1waHQnLCAnMS4wJywgJy1waCcsICc3LjQnLCAnLXRuJywgJzgnLCAnLW1hJywgJzUwMCcsICctaW1hZScsICc8aW5maWxlLm1hZT4nLCAnLW9tYWUnLCAnPG91dGZpbGUubWFlPic=

>  <s_epik_input>  (1) 
W0NIM11bQ0BAXTEoW09IXSlPW0NIMl1bQ0gyXU9bQ0hdPVtDSF0x

>  <s_glide_docking_method>  (1) 
confgen

>  <s_i_glide_gridfile>  (1) 
gpcr_5ht2c_6bqh_protein_autoprepared_prepared

>  <s_lp_Force_Field>  (1) 
S-OPLS

>  <s_lp_Variant>  (1) 
Pocket2Mol_84_num_sample_100-1

>  <s_m_source_file>  (1) 
generated__ligand_Pocket2Mol_2026-05-06_prepared.sdf

>  <GenAI_Model>  (1) 
Pocket2Mol

>  <Protein>  (1) 
GPCR_5HT2C

$$$$
Pocket2Mol_15_num_sample_100
     RDKit          3D

  0  0  0  0  0  0  0  0  0  0999 V3000
M  V30 BEGIN CTAB
M  V30 COUNTS 12 12 0 0 1
M  V30 BEGIN ATOM
M  V30 1 C 39.975012 29.423879 51.453502 0
M  V30 2 O 39.153954 29.540924 52.605591 0
M  V30 3 C 39.467404 28.157397 50.749015 0
M  V30 4 C 38.490552 28.421343 52.860143 0
M  V30 5 C 38.791703 27.343357 51.844517 0
M  V30 6 O 37.714322 28.249150 53.796632 0
M  V30 7 H 39.903270 30.306454 50.817226 0
M  V30 8 H 41.013242 29.303483 51.762887 0
M  V30 9 H 38.732018 28.421430 49.989405 0
M  V30 10 H 40.267399 27.608767 50.253508 0
M  V30 11 H 39.467404 26.607473 52.280203 0
M  V30 12 H 37.885972 26.846441 51.498339 0
M  V30 END ATOM
M  V30 BEGIN BOND
M  V30 1 1 2 1
M  V30 2 1 3 1
M  V30 3 1 4 2
M  V30 4 1 5 3
M  V30 5 1 5 4
M  V30 6 2 6 4
M  V30 7 1 7 1
M  V30 8 1 8 1
M  V30 9 1 9 3
M  V30 10 1 10 3
M  V30 11 1 11 5
M  V30 12 1 12 5
M  V30 END BOND
M  V30 END CTAB
M  END
>  <i_epik_Tot_Q>  (1) 
0

>  <i_epik_Tot_abs_Q>  (1) 
0

>  <i_i_glide_confnum>  (1) 
1

>  <i_i_glide_lignum>  (1) 
18

>  <i_i_glide_posenum>  (1) 
367

>  <i_i_glide_rotatable_bonds>  (1) 
0

>  <i_lp_mmshare_version>  (1) 
72125

>  <i_m_source_file_index>  (1) 
16

>  <i_f3d_flags>  (1) 
0

>  <num_sample>  (1) 
100

>  <b_lp_Chiralities_Consistent>  (1) 
1

>  <r_epik_Charging_Adjusted_Penalty>  (1) 
0

>  <r_epik_Ionization_Penalty>  (1) 
0

>  <r_epik_Ionization_Penalty_Charging>  (1) 
0

>  <r_epik_Ionization_Penalty_Neutral>  (1) 
0

>  <r_epik_State_Penalty>  (1) 
-0

>  <r_glide_ring_energy>  (1) 
0

>  <r_i_docking_score>  (1) 
-4.6802922052976665

>  <r_i_glide_ecoul>  (1) 
-0.74732927778448022

>  <r_i_glide_eff_state_penalty>  (1) 
-0

>  <r_i_glide_einternal>  (1) 
0

>  <r_i_glide_emodel>  (1) 
-20.465696742582956

>  <r_i_glide_emodel_strain>  (1) 
0

>  <r_i_glide_energy>  (1) 
-15.737186085038728

>  <r_i_glide_erotb>  (1) 
0

>  <r_i_glide_esite>  (1) 
0

>  <r_i_glide_evdw>  (1) 
-14.989856807254247

>  <r_i_glide_gscore>  (1) 
-4.6802922052976665

>  <r_i_glide_gscore_strain>  (1) 
0

>  <r_i_glide_hbond>  (1) 
0

>  <r_i_glide_ligand_efficiency>  (1) 
-0.78004870088294442

>  <r_i_glide_ligand_efficiency_ln>  (1) 
-1.6764668507032259

>  <r_i_glide_ligand_efficiency_sa>  (1) 
-1.4174425577863565

>  <r_i_glide_lipo>  (1) 
-0.98999999999999999

>  <r_i_glide_metal>  (1) 
-0

>  <r_i_glide_rewards>  (1) 
-2.8286999732672822

>  <r_lp_Energy>  (1) 
-1.1766760000000001

>  <r_lp_tautomer_probability>  (1) 
1

>  <s_epik_Chemistry_Notes>  (1) 
This compound has an ester and may undergo hydrolysis at high or low pH.

>  <s_epik_cmdline>  (1) 
J2VwaWtfcHl0aG9uJywgJy1waHQnLCAnMS4wJywgJy1waCcsICc3LjQnLCAnLXRuJywgJzgnLCAnLW1hJywgJzUwMCcsICctaW1hZScsICc8aW5maWxlLm1hZT4nLCAnLW9tYWUnLCAnPG91dGZpbGUubWFlPic=

>  <s_epik_input>  (1) 
W0NIMl0xW0NIMl1bQ0gyXU9DMT1P

>  <s_glide_docking_method>  (1) 
confgen

>  <s_i_glide_gridfile>  (1) 
gpcr_5ht2c_6bqh_protein_autoprepared_prepared

>  <s_lp_Force_Field>  (1) 
S-OPLS

>  <s_lp_Variant>  (1) 
Pocket2Mol_15_num_sample_100-1

>  <s_m_source_file>  (1) 
generated__ligand_Pocket2Mol_2026-05-06_prepared.sdf

>  <GenAI_Model>  (1) 
Pocket2Mol

>  <Protein>  (1) 
GPCR_5HT2C

$$$$
Pocket2Mol_5_num_sample_100
     RDKit          3D

  0  0  0  0  0  0  0  0  0  0999 V3000
M  V30 BEGIN CTAB
M  V30 COUNTS 12 12 0 0 1
M  V30 BEGIN ATOM
M  V30 1 C 39.467404 29.412514 52.238172 0
M  V30 2 C 39.120991 28.457634 51.453467 0
M  V30 3 C 38.810037 29.373921 53.604184 0
M  V30 4 C 37.868676 28.032688 53.357781 0
M  V30 5 N 38.267403 27.621430 51.999594 0
M  V30 6 H 39.429968 28.280020 50.432952 0
M  V30 7 H 39.546548 29.232688 54.395049 0
M  V30 8 H 38.221945 30.272142 53.794347 0
M  V30 9 H 38.081505 27.245067 54.081114 0
M  V30 10 H 36.804824 28.269281 53.388527 0
M  V30 11 H 40.154779 30.201601 51.969095 0
M  V30 12 H 37.682638 26.995790 51.453504 0
M  V30 END ATOM
M  V30 BEGIN BOND
M  V30 1 2 2 1
M  V30 2 1 3 1
M  V30 3 1 4 3
M  V30 4 1 5 2
M  V30 5 1 5 4
M  V30 6 1 6 2
M  V30 7 1 7 3
M  V30 8 1 8 3
M  V30 9 1 9 4
M  V30 10 1 10 4
M  V30 11 1 11 1
M  V30 12 1 12 5
M  V30 END BOND
M  V30 END CTAB
M  END
>  <i_epik_Tot_Q>  (1) 
0

>  <i_epik_Tot_abs_Q>  (1) 
0

>  <i_i_glide_confnum>  (1) 
1

>  <i_i_glide_lignum>  (1) 
8

>  <i_i_glide_posenum>  (1) 
281

>  <i_i_glide_rotatable_bonds>  (1) 
0

>  <i_lp_mmshare_version>  (1) 
72125

>  <i_m_source_file_index>  (1) 
6

>  <i_f3d_flags>  (1) 
0

>  <num_sample>  (1) 
100

>  <b_lp_Chiralities_Consistent>  (1) 
1

>  <r_epik_Charging_Adjusted_Penalty>  (1) 
1.6042444336516156e-06

>  <r_epik_Ionization_Penalty>  (1) 
0.0023556498582944039

>  <r_epik_Ionization_Penalty_Charging>  (1) 
1.6042444336516156e-06

>  <r_epik_Ionization_Penalty_Neutral>  (1) 
0.0023540456138607521

>  <r_epik_State_Penalty>  (1) 
-0

>  <r_glide_ring_energy>  (1) 
0

>  <r_i_docking_score>  (1) 
-4.6568393856503221

>  <r_i_glide_ecoul>  (1) 
-2.0578643246073249

>  <r_i_glide_eff_state_penalty>  (1) 
-0

>  <r_i_glide_einternal>  (1) 
0

>  <r_i_glide_emodel>  (1) 
-18.633787423407625

>  <r_i_glide_emodel_strain>  (1) 
0

>  <r_i_glide_energy>  (1) 
-14.498086888616953

>  <r_i_glide_erotb>  (1) 
0

>  <r_i_glide_esite>  (1) 
0

>  <r_i_glide_evdw>  (1) 
-12.440222564009629

>  <r_i_glide_gscore>  (1) 
-4.6568393856503221

>  <r_i_glide_gscore_strain>  (1) 
0

>  <r_i_glide_hbond>  (1) 
-0.27695684644929197

>  <r_i_glide_ligand_efficiency>  (1) 
-0.93136787713006441

>  <r_i_glide_ligand_efficiency_ln>  (1) 
-1.7846139827509413

>  <r_i_glide_ligand_efficiency_sa>  (1) 
-1.5926166673997475

>  <r_i_glide_lipo>  (1) 
-1.1991917623094501

>  <r_i_glide_metal>  (1) 
-0

>  <r_i_glide_rewards>  (1) 
-2.25

>  <r_lp_Energy>  (1) 
2.9163319999999997

>  <r_lp_tautomer_probability>  (1) 
1

>  <s_epik_Chemistry_Notes>  (1) 
This compound has an imine and may undergo hydrolysis.

>  <s_epik_cmdline>  (1) 
J2VwaWtfcHl0aG9uJywgJy1waHQnLCAnMS4wJywgJy1waCcsICc3LjQnLCAnLXRuJywgJzgnLCAnLW1hJywgJzUwMCcsICctaW1hZScsICc8aW5maWxlLm1hZT4nLCAnLW9tYWUnLCAnPG91dGZpbGUubWFlPic=

>  <s_epik_input>  (1) 
W0NIMl0xW0NIXT1OW0NIMl1bQ0gyXTE=

>  <s_glide_docking_method>  (1) 
confgen

>  <s_i_glide_gridfile>  (1) 
gpcr_5ht2c_6bqh_protein_autoprepared_prepared

>  <s_lp_Force_Field>  (1) 
S-OPLS

>  <s_lp_Variant>  (1) 
Pocket2Mol_5_num_sample_100-1

>  <s_m_source_file>  (1) 
generated__ligand_Pocket2Mol_2026-05-06_prepared.sdf

>  <GenAI_Model>  (1) 
Pocket2Mol

>  <Protein>  (1) 
GPCR_5HT2C

$$$$
Pocket2Mol_77_num_sample_100
     RDKit          3D

  0  0  0  0  0  0  0  0  0  0999 V3000
M  V30 BEGIN CTAB
M  V30 COUNTS 15 15 0 0 1
M  V30 BEGIN ATOM
M  V30 1 C 38.815103 25.606359 55.112344 0
M  V30 2 C 39.536567 26.201431 56.320121 0
M  V30 3 C 39.206270 25.235208 57.453500 0
M  V30 4 C 37.553802 24.932466 55.672572 0
M  V30 5 C 37.756995 24.819888 57.191707 0
M  V30 6 H 38.588666 26.352729 54.350181 0
M  V30 7 H 39.453712 24.850394 54.653501 0
M  V30 8 H 40.610231 26.307285 56.158621 0
M  V30 9 H 39.131761 27.189092 56.545265 0
M  V30 10 H 39.858325 24.363059 57.389294 0
M  V30 11 H 39.344558 25.680635 58.439139 0
M  V30 12 H 36.667398 25.529607 55.455970 0
M  V30 13 H 37.405480 23.953539 55.214869 0
M  V30 14 H 37.545320 23.817871 57.567271 0
M  V30 15 H 37.080892 25.507732 57.701539 0
M  V30 END ATOM
M  V30 BEGIN BOND
M  V30 1 1 2 1
M  V30 2 1 3 2
M  V30 3 1 4 1
M  V30 4 1 5 3
M  V30 5 1 5 4
M  V30 6 1 6 1
M  V30 7 1 7 1
M  V30 8 1 8 2
M  V30 9 1 9 2
M  V30 10 1 10 3
M  V30 11 1 11 3
M  V30 12 1 12 4
M  V30 13 1 13 4
M  V30 14 1 14 5
M  V30 15 1 15 5
M  V30 END BOND
M  V30 END CTAB
M  END
>  <i_epik_Tot_Q>  (1) 
0

>  <i_epik_Tot_abs_Q>  (1) 
0

>  <i_i_glide_confnum>  (1) 
3

>  <i_i_glide_lignum>  (1) 
82

>  <i_i_glide_posenum>  (1) 
229

>  <i_i_glide_rotatable_bonds>  (1) 
0

>  <i_lp_mmshare_version>  (1) 
72125

>  <i_m_source_file_index>  (1) 
78

>  <i_f3d_flags>  (1) 
0

>  <num_sample>  (1) 
100

>  <b_lp_Chiralities_Consistent>  (1) 
1

>  <r_epik_Charging_Adjusted_Penalty>  (1) 
0

>  <r_epik_Ionization_Penalty>  (1) 
0

>  <r_epik_Ionization_Penalty_Charging>  (1) 
0

>  <r_epik_Ionization_Penalty_Neutral>  (1) 
0

>  <r_epik_State_Penalty>  (1) 
-0

>  <r_glide_ring_energy>  (1) 
0.0011506089744752722

>  <r_i_docking_score>  (1) 
-4.6562820448368551

>  <r_i_glide_ecoul>  (1) 
0.0022878066233538493

>  <r_i_glide_eff_state_penalty>  (1) 
-0

>  <r_i_glide_einternal>  (1) 
0

>  <r_i_glide_emodel>  (1) 
-17.11126139179639

>  <r_i_glide_emodel_strain>  (1) 
0

>  <r_i_glide_energy>  (1) 
-13.4569767637211

>  <r_i_glide_erotb>  (1) 
0

>  <r_i_glide_esite>  (1) 
0

>  <r_i_glide_evdw>  (1) 
-13.459264570344454

>  <r_i_glide_gscore>  (1) 
-4.6562820448368551

>  <r_i_glide_gscore_strain>  (1) 
0

>  <r_i_glide_hbond>  (1) 
0

>  <r_i_glide_ligand_efficiency>  (1) 
-0.93125640896737105

>  <r_i_glide_ligand_efficiency_ln>  (1) 
-1.7844003962115524

>  <r_i_glide_ligand_efficiency_sa>  (1) 
-1.5924260595227215

>  <r_i_glide_lipo>  (1) 
-1.6070761126395539

>  <r_i_glide_metal>  (1) 
-0

>  <r_i_glide_rewards>  (1) 
-2.3765858746735824

>  <r_lp_Energy>  (1) 
13.274989999999999

>  <r_lp_tautomer_probability>  (1) 
1

>  <s_epik_cmdline>  (1) 
J2VwaWtfcHl0aG9uJywgJy1waHQnLCAnMS4wJywgJy1waCcsICc3LjQnLCAnLXRuJywgJzgnLCAnLW1hJywgJzUwMCcsICctaW1hZScsICc8aW5maWxlLm1hZT4nLCAnLW9tYWUnLCAnPG91dGZpbGUubWFlPic=

>  <s_epik_input>  (1) 
W0NIMl0xW0NIMl1bQ0gyXVtDSDJdW0NIMl0x

>  <s_glide_docking_method>  (1) 
confgen

>  <s_i_glide_gridfile>  (1) 
gpcr_5ht2c_6bqh_protein_autoprepared_prepared

>  <s_lp_Force_Field>  (1) 
S-OPLS

>  <s_lp_Variant>  (1) 
Pocket2Mol_77_num_sample_100-1

>  <s_m_source_file>  (1) 
generated__ligand_Pocket2Mol_2026-05-06_prepared.sdf

>  <GenAI_Model>  (1) 
Pocket2Mol

>  <Protein>  (1) 
GPCR_5HT2C

$$$$
Pocket2Mol_46_num_sample_100
     RDKit          3D

  0  0  0  0  0  0  0  0  0  0999 V3000
M  V30 BEGIN CTAB
M  V30 COUNTS 12 11 0 0 1
M  V30 BEGIN ATOM
M  V30 1 C 39.480410 30.821463 63.003394 0
M  V30 2 O 38.294293 31.032859 62.253507 0
M  V30 3 C 38.384279 31.508275 61.003529 0
M  V30 4 C 36.997786 31.545462 60.320420 0
M  V30 5 O 39.422959 31.868723 60.445698 0
M  V30 6 O 35.961306 31.221431 60.900358 0
M  V30 7 N 37.067404 31.959022 59.053505 0
M  V30 8 H 39.231713 30.425601 63.988252 0
M  V30 9 H 40.135196 30.101056 62.510174 0
M  V30 10 H 40.029621 31.755046 63.139579 0
M  V30 11 H 37.962459 32.207458 58.658768 0
M  V30 12 H 36.223709 32.009934 58.476873 0
M  V30 END ATOM
M  V30 BEGIN BOND
M  V30 1 1 2 1
M  V30 2 1 3 2
M  V30 3 1 4 3
M  V30 4 2 5 3
M  V30 5 2 6 4
M  V30 6 1 7 4
M  V30 7 1 8 1
M  V30 8 1 9 1
M  V30 9 1 10 1
M  V30 10 1 11 7
M  V30 11 1 12 7
M  V30 END BOND
M  V30 END CTAB
M  END
>  <i_epik_Tot_Q>  (1) 
0

>  <i_epik_Tot_abs_Q>  (1) 
0

>  <i_i_glide_confnum>  (1) 
1

>  <i_i_glide_lignum>  (1) 
49

>  <i_i_glide_posenum>  (1) 
287

>  <i_i_glide_rotatable_bonds>  (1) 
2

>  <i_lp_mmshare_version>  (1) 
72125

>  <i_m_source_file_index>  (1) 
47

>  <i_f3d_flags>  (1) 
0

>  <num_sample>  (1) 
100

>  <b_lp_Chiralities_Consistent>  (1) 
1

>  <r_epik_Charging_Adjusted_Penalty>  (1) 
0

>  <r_epik_Ionization_Penalty>  (1) 
3.9236796398539443e-05

>  <r_epik_Ionization_Penalty_Charging>  (1) 
0

>  <r_epik_Ionization_Penalty_Neutral>  (1) 
3.9236796398539443e-05

>  <r_epik_State_Penalty>  (1) 
-0

>  <r_glide_ring_energy>  (1) 
0

>  <r_i_docking_score>  (1) 
-4.6561703335195848

>  <r_i_glide_ecoul>  (1) 
-6.7447309033494829

>  <r_i_glide_eff_state_penalty>  (1) 
-0

>  <r_i_glide_einternal>  (1) 
0.15272694237278817

>  <r_i_glide_emodel>  (1) 
-23.89619954304532

>  <r_i_glide_emodel_strain>  (1) 
1.6771473099197465e-11

>  <r_i_glide_energy>  (1) 
-17.685375343296439

>  <r_i_glide_erotb>  (1) 
0

>  <r_i_glide_esite>  (1) 
-0.14551440801404608

>  <r_i_glide_evdw>  (1) 
-10.940644439946956

>  <r_i_glide_gscore>  (1) 
-4.6561703335195848

>  <r_i_glide_gscore_strain>  (1) 
0

>  <r_i_glide_hbond>  (1) 
-0.45604671739086983

>  <r_i_glide_ligand_efficiency>  (1) 
-0.66516719050279782

>  <r_i_glide_ligand_efficiency_ln>  (1) 
-1.5805540895443511

>  <r_i_glide_ligand_efficiency_sa>  (1) 
-1.2724190604699042

>  <r_i_glide_lipo>  (1) 
-0.066735110115936969

>  <r_i_glide_metal>  (1) 
-0

>  <r_i_glide_rewards>  (1) 
-2.4291322404989621

>  <r_lp_Energy>  (1) 
8.3220650000000003

>  <r_lp_tautomer_probability>  (1) 
1

>  <s_epik_Chemistry_Notes>  (1) 
This compound has an ester and may undergo hydrolysis at high or low pH.

>  <s_epik_cmdline>  (1) 
J2VwaWtfcHl0aG9uJywgJy1waHQnLCAnMS4wJywgJy1waCcsICc3LjQnLCAnLXRuJywgJzgnLCAnLW1hJywgJzUwMCcsICctaW1hZScsICc8aW5maWxlLm1hZT4nLCAnLW9tYWUnLCAnPG91dGZpbGUubWFlPic=

>  <s_epik_input>  (1) 
W0NIM11PQyg9TylDKD1PKVtOSDJd

>  <s_glide_docking_method>  (1) 
confgen

>  <s_i_glide_gridfile>  (1) 
gpcr_5ht2c_6bqh_protein_autoprepared_prepared

>  <s_lp_Force_Field>  (1) 
S-OPLS

>  <s_lp_Variant>  (1) 
Pocket2Mol_46_num_sample_100-1

>  <s_m_source_file>  (1) 
generated__ligand_Pocket2Mol_2026-05-06_prepared.sdf

>  <GenAI_Model>  (1) 
Pocket2Mol

>  <Protein>  (1) 
GPCR_5HT2C

$$$$
Pocket2Mol_3_num_sample_100
     RDKit          3D

  0  0  0  0  0  0  0  0  0  0999 V3000
M  V30 BEGIN CTAB
M  V30 COUNTS 9 9 0 0 1
M  V30 BEGIN ATOM
M  V30 1 C 40.267404 30.291905 50.765941 0
M  V30 2 O 40.030658 29.221426 49.951211 0
M  V30 3 C 39.467404 28.264125 50.750118 0
M  V30 4 C 39.867401 30.028493 52.044462 0
M  V30 5 C 39.345187 28.711055 52.033050 0
M  V30 6 H 40.718670 31.147254 50.283096 0
M  V30 7 H 39.215824 27.338317 50.253499 0
M  V30 8 H 39.941233 30.704393 52.884056 0
M  V30 9 H 38.931441 28.155592 52.861884 0
M  V30 END ATOM
M  V30 BEGIN BOND
M  V30 1 1 2 1
M  V30 2 1 3 2
M  V30 3 2 4 1
M  V30 4 2 5 3
M  V30 5 1 5 4
M  V30 6 1 6 1
M  V30 7 1 7 3
M  V30 8 1 8 4
M  V30 9 1 9 5
M  V30 END BOND
M  V30 END CTAB
M  END
>  <i_epik_Tot_Q>  (1) 
0

>  <i_epik_Tot_abs_Q>  (1) 
0

>  <i_i_glide_confnum>  (1) 
1

>  <i_i_glide_lignum>  (1) 
6

>  <i_i_glide_posenum>  (1) 
293

>  <i_i_glide_rotatable_bonds>  (1) 
0

>  <i_lp_mmshare_version>  (1) 
72125

>  <i_m_source_file_index>  (1) 
4

>  <i_f3d_flags>  (1) 
0

>  <num_sample>  (1) 
100

>  <b_lp_Chiralities_Consistent>  (1) 
1

>  <r_epik_Charging_Adjusted_Penalty>  (1) 
0

>  <r_epik_Ionization_Penalty>  (1) 
0

>  <r_epik_Ionization_Penalty_Charging>  (1) 
0

>  <r_epik_Ionization_Penalty_Neutral>  (1) 
0

>  <r_epik_State_Penalty>  (1) 
-0

>  <r_glide_ring_energy>  (1) 
0

>  <r_i_docking_score>  (1) 
-4.6347445657091395

>  <r_i_glide_ecoul>  (1) 
-0.79657394598202369

>  <r_i_glide_eff_state_penalty>  (1) 
-0

>  <r_i_glide_einternal>  (1) 
0

>  <r_i_glide_emodel>  (1) 
-17.524333064761255

>  <r_i_glide_emodel_strain>  (1) 
0

>  <r_i_glide_energy>  (1) 
-13.701743422218746

>  <r_i_glide_erotb>  (1) 
0

>  <r_i_glide_esite>  (1) 
0

>  <r_i_glide_evdw>  (1) 
-12.905169476236722

>  <r_i_glide_gscore>  (1) 
-4.6347445657091395

>  <r_i_glide_gscore_strain>  (1) 
0

>  <r_i_glide_hbond>  (1) 
0

>  <r_i_glide_ligand_efficiency>  (1) 
-0.92694891314182792

>  <r_i_glide_ligand_efficiency_ln>  (1) 
-1.7761467109925677

>  <r_i_glide_ligand_efficiency_sa>  (1) 
-1.5850603452706324

>  <r_i_glide_lipo>  (1) 
-1.3200000000000001

>  <r_i_glide_metal>  (1) 
-0

>  <r_i_glide_rewards>  (1) 
-2.5499999999999998

>  <r_lp_Energy>  (1) 
2.5980879999999997

>  <r_lp_tautomer_probability>  (1) 
1

>  <s_epik_cmdline>  (1) 
J2VwaWtfcHl0aG9uJywgJy1waHQnLCAnMS4wJywgJy1waCcsICc3LjQnLCAnLXRuJywgJzgnLCAnLW1hJywgJzUwMCcsICctaW1hZScsICc8aW5maWxlLm1hZT4nLCAnLW9tYWUnLCAnPG91dGZpbGUubWFlPic=

>  <s_epik_input>  (1) 
W2NIXTFvW2NIXVtjSF1bY0hdMQ==

>  <s_glide_docking_method>  (1) 
confgen

>  <s_i_glide_gridfile>  (1) 
gpcr_5ht2c_6bqh_protein_autoprepared_prepared

>  <s_lp_Force_Field>  (1) 
S-OPLS

>  <s_lp_Variant>  (1) 
Pocket2Mol_3_num_sample_100-1

>  <s_m_source_file>  (1) 
generated__ligand_Pocket2Mol_2026-05-06_prepared.sdf

>  <GenAI_Model>  (1) 
Pocket2Mol

>  <Protein>  (1) 
GPCR_5HT2C

$$$$
Pocket2Mol_15_num_sample_100
     RDKit          3D

  0  0  0  0  0  0  0  0  0  0999 V3000
M  V30 BEGIN CTAB
M  V30 COUNTS 12 12 0 0 1
M  V30 BEGIN ATOM
M  V30 1 C 38.844774 28.735914 53.073119 0
M  V30 2 O 39.503288 29.841687 52.479383 0
M  V30 3 C 38.666969 27.709709 51.943294 0
M  V30 4 C 39.880185 29.609962 51.229179 0
M  V30 5 C 39.467402 28.235103 50.756859 0
M  V30 6 O 40.493566 30.397103 50.512365 0
M  V30 7 H 39.463144 28.333902 53.876170 0
M  V30 8 H 37.887595 29.039758 53.497988 0
M  V30 9 H 39.009682 26.721868 52.250195 0
M  V30 10 H 37.613982 27.624028 51.675440 0
M  V30 11 H 38.863353 28.307802 49.853501 0
M  V30 12 H 40.342018 27.621430 50.551390 0
M  V30 END ATOM
M  V30 BEGIN BOND
M  V30 1 1 2 1
M  V30 2 1 3 1
M  V30 3 1 4 2
M  V30 4 1 5 3
M  V30 5 1 5 4
M  V30 6 2 6 4
M  V30 7 1 7 1
M  V30 8 1 8 1
M  V30 9 1 9 3
M  V30 10 1 10 3
M  V30 11 1 11 5
M  V30 12 1 12 5
M  V30 END BOND
M  V30 END CTAB
M  END
>  <i_epik_Tot_Q>  (1) 
0

>  <i_epik_Tot_abs_Q>  (1) 
0

>  <i_i_glide_confnum>  (1) 
2

>  <i_i_glide_lignum>  (1) 
18

>  <i_i_glide_posenum>  (1) 
232

>  <i_i_glide_rotatable_bonds>  (1) 
0

>  <i_lp_mmshare_version>  (1) 
72125

>  <i_m_source_file_index>  (1) 
16

>  <i_f3d_flags>  (1) 
0

>  <num_sample>  (1) 
100

>  <b_lp_Chiralities_Consistent>  (1) 
1

>  <r_epik_Charging_Adjusted_Penalty>  (1) 
0

>  <r_epik_Ionization_Penalty>  (1) 
0

>  <r_epik_Ionization_Penalty_Charging>  (1) 
0

>  <r_epik_Ionization_Penalty_Neutral>  (1) 
0

>  <r_epik_State_Penalty>  (1) 
-0

>  <r_glide_ring_energy>  (1) 
0.00053108536261990756

>  <r_i_docking_score>  (1) 
-4.62979601468271

>  <r_i_glide_ecoul>  (1) 
0.36184009290246483

>  <r_i_glide_eff_state_penalty>  (1) 
-0

>  <r_i_glide_einternal>  (1) 
0

>  <r_i_glide_emodel>  (1) 
-20.574833011512318

>  <r_i_glide_emodel_strain>  (1) 
0.020444765825093469

>  <r_i_glide_energy>  (1) 
-15.917783544626218

>  <r_i_glide_erotb>  (1) 
0

>  <r_i_glide_esite>  (1) 
0

>  <r_i_glide_evdw>  (1) 
-16.279623637528683

>  <r_i_glide_gscore>  (1) 
-4.62979601468271

>  <r_i_glide_gscore_strain>  (1) 
0

>  <r_i_glide_hbond>  (1) 
0

>  <r_i_glide_ligand_efficiency>  (1) 
-0.77163266911378503

>  <r_i_glide_ligand_efficiency_ln>  (1) 
-1.6583792643006197

>  <r_i_glide_ligand_efficiency_sa>  (1) 
-1.4021496131486875

>  <r_i_glide_lipo>  (1) 
-0.98999999999999999

>  <r_i_glide_metal>  (1) 
-0

>  <r_i_glide_rewards>  (1) 
-2.8800908467416457

>  <r_lp_Energy>  (1) 
-1.1766760000000001

>  <r_lp_tautomer_probability>  (1) 
1

>  <s_epik_Chemistry_Notes>  (1) 
This compound has an ester and may undergo hydrolysis at high or low pH.

>  <s_epik_cmdline>  (1) 
J2VwaWtfcHl0aG9uJywgJy1waHQnLCAnMS4wJywgJy1waCcsICc3LjQnLCAnLXRuJywgJzgnLCAnLW1hJywgJzUwMCcsICctaW1hZScsICc8aW5maWxlLm1hZT4nLCAnLW9tYWUnLCAnPG91dGZpbGUubWFlPic=

>  <s_epik_input>  (1) 
W0NIMl0xW0NIMl1bQ0gyXU9DMT1P

>  <s_glide_docking_method>  (1) 
confgen

>  <s_i_glide_gridfile>  (1) 
gpcr_5ht2c_6bqh_protein_autoprepared_prepared

>  <s_lp_Force_Field>  (1) 
S-OPLS

>  <s_lp_Variant>  (1) 
Pocket2Mol_15_num_sample_100-1

>  <s_m_source_file>  (1) 
generated__ligand_Pocket2Mol_2026-05-06_prepared.sdf

>  <GenAI_Model>  (1) 
Pocket2Mol

>  <Protein>  (1) 
GPCR_5HT2C

$$$$
Pocket2Mol_3_num_sample_100
     RDKit          3D

  0  0  0  0  0  0  0  0  0  0999 V3000
M  V30 BEGIN CTAB
M  V30 COUNTS 9 9 0 0 1
M  V30 BEGIN ATOM
M  V30 1 C 39.991792 30.021430 51.454346 0
M  V30 2 O 39.467403 29.559074 52.629062 0
M  V30 3 C 39.003652 28.301346 52.358552 0
M  V30 4 C 39.867403 29.089695 50.465582 0
M  V30 5 C 39.226367 27.970609 51.053502 0
M  V30 6 H 40.405557 31.019251 51.496325 0
M  V30 7 H 38.550774 27.788201 53.194369 0
M  V30 8 H 40.197314 29.202007 49.443384 0
M  V30 9 H 38.958359 27.036594 50.580269 0
M  V30 END ATOM
M  V30 BEGIN BOND
M  V30 1 1 2 1
M  V30 2 1 3 2
M  V30 3 2 4 1
M  V30 4 2 5 3
M  V30 5 1 5 4
M  V30 6 1 6 1
M  V30 7 1 7 3
M  V30 8 1 8 4
M  V30 9 1 9 5
M  V30 END BOND
M  V30 END CTAB
M  END
>  <i_epik_Tot_Q>  (1) 
0

>  <i_epik_Tot_abs_Q>  (1) 
0

>  <i_i_glide_confnum>  (1) 
1

>  <i_i_glide_lignum>  (1) 
6

>  <i_i_glide_posenum>  (1) 
211

>  <i_i_glide_rotatable_bonds>  (1) 
0

>  <i_lp_mmshare_version>  (1) 
72125

>  <i_m_source_file_index>  (1) 
4

>  <i_f3d_flags>  (1) 
0

>  <num_sample>  (1) 
100

>  <b_lp_Chiralities_Consistent>  (1) 
1

>  <r_epik_Charging_Adjusted_Penalty>  (1) 
0

>  <r_epik_Ionization_Penalty>  (1) 
0

>  <r_epik_Ionization_Penalty_Charging>  (1) 
0

>  <r_epik_Ionization_Penalty_Neutral>  (1) 
0

>  <r_epik_State_Penalty>  (1) 
-0

>  <r_glide_ring_energy>  (1) 
0

>  <r_i_docking_score>  (1) 
-4.6216071974218842

>  <r_i_glide_ecoul>  (1) 
-0.69566098302125867

>  <r_i_glide_eff_state_penalty>  (1) 
-0

>  <r_i_glide_einternal>  (1) 
0

>  <r_i_glide_emodel>  (1) 
-17.298184054577735

>  <r_i_glide_emodel_strain>  (1) 
0

>  <r_i_glide_energy>  (1) 
-13.486429694807159

>  <r_i_glide_erotb>  (1) 
0

>  <r_i_glide_esite>  (1) 
0

>  <r_i_glide_evdw>  (1) 
-12.790768711785899

>  <r_i_glide_gscore>  (1) 
-4.6216071974218842

>  <r_i_glide_gscore_strain>  (1) 
0

>  <r_i_glide_hbond>  (1) 
0

>  <r_i_glide_ligand_efficiency>  (1) 
-0.92432143948437684

>  <r_i_glide_ligand_efficiency_ln>  (1) 
-1.7711121523143731

>  <r_i_glide_ligand_efficiency_sa>  (1) 
-1.5805674285158646

>  <r_i_glide_lipo>  (1) 
-1.3200000000000001

>  <r_i_glide_metal>  (1) 
-0

>  <r_i_glide_rewards>  (1) 
-2.5577196143794003

>  <r_lp_Energy>  (1) 
2.5980879999999997

>  <r_lp_tautomer_probability>  (1) 
1

>  <s_epik_cmdline>  (1) 
J2VwaWtfcHl0aG9uJywgJy1waHQnLCAnMS4wJywgJy1waCcsICc3LjQnLCAnLXRuJywgJzgnLCAnLW1hJywgJzUwMCcsICctaW1hZScsICc8aW5maWxlLm1hZT4nLCAnLW9tYWUnLCAnPG91dGZpbGUubWFlPic=

>  <s_epik_input>  (1) 
W2NIXTFvW2NIXVtjSF1bY0hdMQ==

>  <s_glide_docking_method>  (1) 
confgen

>  <s_i_glide_gridfile>  (1) 
gpcr_5ht2c_6bqh_protein_autoprepared_prepared

>  <s_lp_Force_Field>  (1) 
S-OPLS

>  <s_lp_Variant>  (1) 
Pocket2Mol_3_num_sample_100-1

>  <s_m_source_file>  (1) 
generated__ligand_Pocket2Mol_2026-05-06_prepared.sdf

>  <GenAI_Model>  (1) 
Pocket2Mol

>  <Protein>  (1) 
GPCR_5HT2C

$$$$
Pocket2Mol_7_num_sample_100
     RDKit          3D

  0  0  0  0  0  0  0  0  0  0999 V3000
M  V30 BEGIN CTAB
M  V30 COUNTS 13 13 0 0 1
M  V30 BEGIN ATOM
M  V30 1 C 38.463575 28.838816 53.498865 0
M  V30 2 C 38.465159 28.015872 52.270718 0
M  V30 3 C 39.467391 29.968255 52.971150 0
M  V30 4 C 39.941841 29.689688 51.464734 0
M  V30 5 C 39.189481 28.431511 51.275831 0
M  V30 6 H 37.468008 29.223956 53.721160 0
M  V30 7 H 38.856951 28.284990 54.352122 0
M  V30 8 H 37.877108 27.109693 52.229336 0
M  V30 9 H 40.336433 30.021435 53.625199 0
M  V30 10 H 39.006952 30.952586 53.053500 0
M  V30 11 H 41.016974 29.530637 51.376385 0
M  V30 12 H 39.613114 30.457435 50.763610 0
M  V30 13 H 39.254897 27.901135 50.336160 0
M  V30 END ATOM
M  V30 BEGIN BOND
M  V30 1 1 2 1
M  V30 2 1 3 1
M  V30 3 1 4 3
M  V30 4 2 5 2
M  V30 5 1 5 4
M  V30 6 1 6 1
M  V30 7 1 7 1
M  V30 8 1 8 2
M  V30 9 1 9 3
M  V30 10 1 10 3
M  V30 11 1 11 4
M  V30 12 1 12 4
M  V30 13 1 13 5
M  V30 END BOND
M  V30 END CTAB
M  END
>  <i_epik_Tot_Q>  (1) 
0

>  <i_epik_Tot_abs_Q>  (1) 
0

>  <i_i_glide_confnum>  (1) 
1

>  <i_i_glide_lignum>  (1) 
10

>  <i_i_glide_posenum>  (1) 
276

>  <i_i_glide_rotatable_bonds>  (1) 
0

>  <i_lp_mmshare_version>  (1) 
72125

>  <i_m_source_file_index>  (1) 
8

>  <i_f3d_flags>  (1) 
0

>  <num_sample>  (1) 
100

>  <b_lp_Chiralities_Consistent>  (1) 
1

>  <r_epik_Charging_Adjusted_Penalty>  (1) 
0

>  <r_epik_Ionization_Penalty>  (1) 
0

>  <r_epik_Ionization_Penalty_Charging>  (1) 
0

>  <r_epik_Ionization_Penalty_Neutral>  (1) 
0

>  <r_epik_State_Penalty>  (1) 
-0

>  <r_glide_ring_energy>  (1) 
0

>  <r_i_docking_score>  (1) 
-4.6176852835866304

>  <r_i_glide_ecoul>  (1) 
-0.59521078894597312

>  <r_i_glide_eff_state_penalty>  (1) 
-0

>  <r_i_glide_einternal>  (1) 
0

>  <r_i_glide_emodel>  (1) 
-17.546180401320804

>  <r_i_glide_emodel_strain>  (1) 
0

>  <r_i_glide_energy>  (1) 
-13.602373076024277

>  <r_i_glide_erotb>  (1) 
0

>  <r_i_glide_esite>  (1) 
0

>  <r_i_glide_evdw>  (1) 
-13.007162287078303

>  <r_i_glide_gscore>  (1) 
-4.6176852835866304

>  <r_i_glide_gscore_strain>  (1) 
0

>  <r_i_glide_hbond>  (1) 
0

>  <r_i_glide_ligand_efficiency>  (1) 
-0.92353705671732611

>  <r_i_glide_ligand_efficiency_ln>  (1) 
-1.7696091796563282

>  <r_i_glide_ligand_efficiency_sa>  (1) 
-1.5792261528512201

>  <r_i_glide_lipo>  (1) 
-1.5034444296182106

>  <r_i_glide_metal>  (1) 
-0

>  <r_i_glide_rewards>  (1) 
-2.374601121272609

>  <r_lp_Energy>  (1) 
-2.1713199999999997

>  <r_lp_tautomer_probability>  (1) 
1

>  <s_epik_cmdline>  (1) 
J2VwaWtfcHl0aG9uJywgJy1waHQnLCAnMS4wJywgJy1waCcsICc3LjQnLCAnLXRuJywgJzgnLCAnLW1hJywgJzUwMCcsICctaW1hZScsICc8aW5maWxlLm1hZT4nLCAnLW9tYWUnLCAnPG91dGZpbGUubWFlPic=

>  <s_epik_input>  (1) 
W0NIMl0xW0NIXT1bQ0hdW0NIMl1bQ0gyXTE=

>  <s_glide_docking_method>  (1) 
confgen

>  <s_i_glide_gridfile>  (1) 
gpcr_5ht2c_6bqh_protein_autoprepared_prepared

>  <s_lp_Force_Field>  (1) 
S-OPLS

>  <s_lp_Variant>  (1) 
Pocket2Mol_7_num_sample_100-1

>  <s_m_source_file>  (1) 
generated__ligand_Pocket2Mol_2026-05-06_prepared.sdf

>  <GenAI_Model>  (1) 
Pocket2Mol

>  <Protein>  (1) 
GPCR_5HT2C

$$$$
Pocket2Mol_19_num_sample_100
     RDKit          3D

  0  0  0  0  0  0  0  0  0  0999 V3000
M  V30 BEGIN CTAB
M  V30 COUNTS 10 10 0 0 1
M  V30 BEGIN ATOM
M  V30 1 C 39.200800 27.749604 51.157202 0
M  V30 2 O 38.972389 28.307799 52.530552 0
M  V30 3 C 39.467403 29.621429 52.608635 0
M  V30 4 C 39.867405 28.951786 50.559520 0
M  V30 5 C 40.005152 29.954944 51.354945 0
M  V30 6 O 39.435364 30.344779 53.600668 0
M  V30 7 H 38.267403 27.506893 50.653568 0
M  V30 8 H 40.197167 28.948953 49.531138 0
M  V30 9 H 40.454719 30.910892 51.127251 0
M  V30 10 H 39.861824 26.883361 51.171626 0
M  V30 END ATOM
M  V30 BEGIN BOND
M  V30 1 1 2 1
M  V30 2 1 3 2
M  V30 3 1 4 1
M  V30 4 1 5 3
M  V30 5 2 5 4
M  V30 6 2 6 3
M  V30 7 1 7 1
M  V30 8 1 8 4
M  V30 9 1 9 5
M  V30 10 1 10 1
M  V30 END BOND
M  V30 END CTAB
M  END
>  <i_epik_Tot_Q>  (1) 
0

>  <i_epik_Tot_abs_Q>  (1) 
0

>  <i_i_glide_confnum>  (1) 
1

>  <i_i_glide_lignum>  (1) 
22

>  <i_i_glide_posenum>  (1) 
328

>  <i_i_glide_rotatable_bonds>  (1) 
0

>  <i_lp_mmshare_version>  (1) 
72125

>  <i_m_source_file_index>  (1) 
20

>  <i_f3d_flags>  (1) 
0

>  <num_sample>  (1) 
100

>  <b_lp_Chiralities_Consistent>  (1) 
1

>  <r_epik_Charging_Adjusted_Penalty>  (1) 
0

>  <r_epik_Ionization_Penalty>  (1) 
0

>  <r_epik_Ionization_Penalty_Charging>  (1) 
0

>  <r_epik_Ionization_Penalty_Neutral>  (1) 
0

>  <r_epik_State_Penalty>  (1) 
-0

>  <r_glide_ring_energy>  (1) 
0

>  <r_i_docking_score>  (1) 
-4.6165348748688411

>  <r_i_glide_ecoul>  (1) 
-0.1980330287812162

>  <r_i_glide_eff_state_penalty>  (1) 
-0

>  <r_i_glide_einternal>  (1) 
0

>  <r_i_glide_emodel>  (1) 
-19.280560307742739

>  <r_i_glide_emodel_strain>  (1) 
0

>  <r_i_glide_energy>  (1) 
-14.734826714578249

>  <r_i_glide_erotb>  (1) 
0

>  <r_i_glide_esite>  (1) 
0

>  <r_i_glide_evdw>  (1) 
-14.536793685797033

>  <r_i_glide_gscore>  (1) 
-4.6165348748688411

>  <r_i_glide_gscore_strain>  (1) 
0

>  <r_i_glide_hbond>  (1) 
0

>  <r_i_glide_ligand_efficiency>  (1) 
-0.76942247914480688

>  <r_i_glide_ligand_efficiency_ln>  (1) 
-1.6536291631690434

>  <r_i_glide_ligand_efficiency_sa>  (1) 
-1.3981334314419862

>  <r_i_glide_lipo>  (1) 
-0.98999999999999999

>  <r_i_glide_metal>  (1) 
-0

>  <r_i_glide_rewards>  (1) 
-2.8699902362618066

>  <r_lp_Energy>  (1) 
-7.0611199999999998

>  <r_lp_tautomer_probability>  (1) 
1

>  <s_epik_Chemistry_Notes>  (1) 
This compound has an ester and may undergo hydrolysis at high or low pH.

>  <s_epik_cmdline>  (1) 
J2VwaWtfcHl0aG9uJywgJy1waHQnLCAnMS4wJywgJy1waCcsICc3LjQnLCAnLXRuJywgJzgnLCAnLW1hJywgJzUwMCcsICctaW1hZScsICc8aW5maWxlLm1hZT4nLCAnLW9tYWUnLCAnPG91dGZpbGUubWFlPic=

>  <s_epik_input>  (1) 
W0NIMl0xW0NIXT1bQ0hdT0MxPU8=

>  <s_glide_docking_method>  (1) 
confgen

>  <s_i_glide_gridfile>  (1) 
gpcr_5ht2c_6bqh_protein_autoprepared_prepared

>  <s_lp_Force_Field>  (1) 
S-OPLS

>  <s_lp_Variant>  (1) 
Pocket2Mol_19_num_sample_100-1

>  <s_m_source_file>  (1) 
generated__ligand_Pocket2Mol_2026-05-06_prepared.sdf

>  <GenAI_Model>  (1) 
Pocket2Mol

>  <Protein>  (1) 
GPCR_5HT2C

$$$$
Pocket2Mol_26_num_sample_100
     RDKit          3D

  0  0  0  0  0  0  0  0  0  0999 V3000
M  V30 BEGIN CTAB
M  V30 COUNTS 16 16 0 0 1
M  V30 BEGIN ATOM
M  V30 1 C 38.664492 28.041588 52.096596 0
M  V30 2 C 39.342122 28.316313 50.818497 0
M  V30 3 C 38.780466 28.944698 53.010719 0
M  V30 4 C 39.581710 30.131084 52.657452 0
M  V30 5 N 39.773633 29.748987 51.176618 0 CHG=1
M  V30 6 C 41.065935 30.161132 50.602024 0
M  V30 7 H 38.106280 27.125251 52.233512 0
M  V30 8 H 40.179899 27.634042 50.669538 0
M  V30 9 H 38.667403 28.301644 49.963482 0
M  V30 10 H 38.329513 28.860706 53.990812 0
M  V30 11 H 39.067687 31.080772 52.790121 0
M  V30 12 H 40.510499 30.154070 53.224943 0
M  V30 13 H 41.890301 29.619617 51.053368 0
M  V30 14 H 41.079604 29.990577 49.526157 0
M  V30 15 H 41.227909 31.221627 50.772467 0
M  V30 16 H 39.093117 30.317452 50.691115 0
M  V30 END ATOM
M  V30 BEGIN BOND
M  V30 1 1 2 1
M  V30 2 2 3 1
M  V30 3 1 4 3
M  V30 4 1 5 2
M  V30 5 1 5 4
M  V30 6 1 6 5
M  V30 7 1 7 1
M  V30 8 1 8 2
M  V30 9 1 9 2
M  V30 10 1 10 3
M  V30 11 1 11 4
M  V30 12 1 12 4
M  V30 13 1 13 6
M  V30 14 1 14 6
M  V30 15 1 15 6
M  V30 16 1 16 5
M  V30 END BOND
M  V30 END CTAB
M  END
>  <i_epik_Tot_Q>  (1) 
1

>  <i_epik_Tot_abs_Q>  (1) 
1

>  <i_i_glide_confnum>  (1) 
1

>  <i_i_glide_lignum>  (1) 
29

>  <i_i_glide_posenum>  (1) 
12

>  <i_i_glide_rotatable_bonds>  (1) 
0

>  <i_lp_mmshare_version>  (1) 
72125

>  <i_m_source_file_index>  (1) 
27

>  <i_f3d_flags>  (1) 
0

>  <num_sample>  (1) 
100

>  <b_lp_Chiralities_Consistent>  (1) 
1

>  <r_epik_Charging_Adjusted_Penalty>  (1) 
0.0014863909170882658

>  <r_epik_Ionization_Penalty>  (1) 
0.0014863909170882658

>  <r_epik_Ionization_Penalty_Charging>  (1) 
0.0014863909170882658

>  <r_epik_Ionization_Penalty_Neutral>  (1) 
0

>  <r_epik_State_Penalty>  (1) 
-0

>  <r_glide_ring_energy>  (1) 
0

>  <r_i_docking_score>  (1) 
-4.6122027644385888

>  <r_i_glide_ecoul>  (1) 
-1.2099703116472611

>  <r_i_glide_eff_state_penalty>  (1) 
-0

>  <r_i_glide_einternal>  (1) 
0

>  <r_i_glide_emodel>  (1) 
-17.957012138620257

>  <r_i_glide_emodel_strain>  (1) 
0

>  <r_i_glide_energy>  (1) 
-13.190578514150065

>  <r_i_glide_erotb>  (1) 
0

>  <r_i_glide_esite>  (1) 
0

>  <r_i_glide_evdw>  (1) 
-11.980608202502804

>  <r_i_glide_gscore>  (1) 
-4.6122027644385888

>  <r_i_glide_gscore_strain>  (1) 
0

>  <r_i_glide_hbond>  (1) 
0

>  <r_i_glide_ligand_efficiency>  (1) 
-0.76870046073976483

>  <r_i_glide_ligand_efficiency_ln>  (1) 
-1.6520774140022534

>  <r_i_glide_ligand_efficiency_sa>  (1) 
-1.3968214369297804

>  <r_i_glide_lipo>  (1) 
-1.5816768075663592

>  <r_i_glide_metal>  (1) 
-0

>  <r_i_glide_rewards>  (1) 
-2.25

>  <r_lp_Energy>  (1) 
6.8415840000000001

>  <r_lp_tautomer_probability>  (1) 
1

>  <s_epik_cmdline>  (1) 
J2VwaWtfcHl0aG9uJywgJy1waHQnLCAnMS4wJywgJy1waCcsICc3LjQnLCAnLXRuJywgJzgnLCAnLW1hJywgJzUwMCcsICctaW1hZScsICc8aW5maWxlLm1hZT4nLCAnLW9tYWUnLCAnPG91dGZpbGUubWFlPic=

>  <s_epik_input>  (1) 
W0NIMl0xW0NIXT1bQ0hdW0NIMl1OMVtDSDNd

>  <s_glide_docking_method>  (1) 
confgen

>  <s_i_glide_gridfile>  (1) 
gpcr_5ht2c_6bqh_protein_autoprepared_prepared

>  <s_lp_Force_Field>  (1) 
S-OPLS

>  <s_lp_Variant>  (1) 
Pocket2Mol_26_num_sample_100-1

>  <s_m_source_file>  (1) 
generated__ligand_Pocket2Mol_2026-05-06_prepared.sdf

>  <GenAI_Model>  (1) 
Pocket2Mol

>  <Protein>  (1) 
GPCR_5HT2C

$$$$
Pocket2Mol_42_num_sample_100
     RDKit          3D

  0  0  0  0  0  0  0  0  0  0999 V3000
M  V30 BEGIN CTAB
M  V30 COUNTS 10 9 0 0 1
M  V30 BEGIN ATOM
M  V30 1 C 39.288154 28.625795 59.580842 0
M  V30 2 O 38.667412 29.621429 60.371915 0
M  V30 3 C 39.433131 30.499587 61.052652 0
M  V30 4 C 38.576042 31.513941 61.853438 0
M  V30 5 O 40.667396 30.514057 61.053718 0
M  V30 6 O 39.193352 32.399867 62.489154 0
M  V30 7 O 37.336468 31.351104 61.789093 0 CHG=-1
M  V30 8 H 38.529380 28.006149 59.103329 0
M  V30 9 H 39.919575 27.981098 60.193375 0
M  V30 10 H 39.901541 29.076957 58.799989 0
M  V30 END ATOM
M  V30 BEGIN BOND
M  V30 1 1 2 1
M  V30 2 1 3 2
M  V30 3 1 4 3
M  V30 4 2 5 3
M  V30 5 2 6 4
M  V30 6 1 7 4
M  V30 7 1 8 1
M  V30 8 1 9 1
M  V30 9 1 10 1
M  V30 END BOND
M  V30 END CTAB
M  END
>  <i_epik_Tot_Q>  (1) 
-1

>  <i_epik_Tot_abs_Q>  (1) 
1

>  <i_i_glide_confnum>  (1) 
1

>  <i_i_glide_lignum>  (1) 
45

>  <i_i_glide_posenum>  (1) 
289

>  <i_i_glide_rotatable_bonds>  (1) 
2

>  <i_lp_mmshare_version>  (1) 
72125

>  <i_m_source_file_index>  (1) 
43

>  <i_f3d_flags>  (1) 
0

>  <num_sample>  (1) 
100

>  <b_lp_Chiralities_Consistent>  (1) 
1

>  <r_epik_Charging_Adjusted_Penalty>  (1) 
5.6581681309968728e-06

>  <r_epik_Ionization_Penalty>  (1) 
5.6581681309968728e-06

>  <r_epik_Ionization_Penalty_Charging>  (1) 
5.6581681309968728e-06

>  <r_epik_Ionization_Penalty_Neutral>  (1) 
0

>  <r_epik_State_Penalty>  (1) 
-0

>  <r_glide_ring_energy>  (1) 
0

>  <r_i_docking_score>  (1) 
-4.610785132849978

>  <r_i_glide_ecoul>  (1) 
-4.963838895184387

>  <r_i_glide_eff_state_penalty>  (1) 
-0

>  <r_i_glide_einternal>  (1) 
0.13910737783357874

>  <r_i_glide_emodel>  (1) 
-18.374972027111262

>  <r_i_glide_emodel_strain>  (1) 
0

>  <r_i_glide_energy>  (1) 
-13.625080825339243

>  <r_i_glide_erotb>  (1) 
0

>  <r_i_glide_esite>  (1) 
0

>  <r_i_glide_evdw>  (1) 
-8.6612419301548567

>  <r_i_glide_gscore>  (1) 
-4.610785132849978

>  <r_i_glide_gscore_strain>  (1) 
0

>  <r_i_glide_hbond>  (1) 
-0.43076271436652919

>  <r_i_glide_ligand_efficiency>  (1) 
-0.65868359040713975

>  <r_i_glide_ligand_efficiency_ln>  (1) 
-1.5651479167918791

>  <r_i_glide_ligand_efficiency_sa>  (1) 
-1.2600163796702937

>  <r_i_glide_lipo>  (1) 
-0.24103475720509568

>  <r_i_glide_metal>  (1) 
-0

>  <r_i_glide_rewards>  (1) 
-2.7613497304929524

>  <r_lp_Energy>  (1) 
21.029133999999999

>  <r_lp_tautomer_probability>  (1) 
1

>  <s_epik_Chemistry_Notes>  (1) 
This compound has an ester and may undergo hydrolysis at high or low pH.

>  <s_epik_cmdline>  (1) 
J2VwaWtfcHl0aG9uJywgJy1waHQnLCAnMS4wJywgJy1waCcsICc3LjQnLCAnLXRuJywgJzgnLCAnLW1hJywgJzUwMCcsICctaW1hZScsICc8aW5maWxlLm1hZT4nLCAnLW9tYWUnLCAnPG91dGZpbGUubWFlPic=

>  <s_epik_input>  (1) 
W0NIM11PQyg9TylDKD1PKVtPSF0=

>  <s_glide_docking_method>  (1) 
confgen

>  <s_i_glide_gridfile>  (1) 
gpcr_5ht2c_6bqh_protein_autoprepared_prepared

>  <s_lp_Force_Field>  (1) 
S-OPLS

>  <s_lp_Variant>  (1) 
Pocket2Mol_42_num_sample_100-1

>  <s_m_source_file>  (1) 
generated__ligand_Pocket2Mol_2026-05-06_prepared.sdf

>  <GenAI_Model>  (1) 
Pocket2Mol

>  <Protein>  (1) 
GPCR_5HT2C

$$$$
Pocket2Mol_61_num_sample_100
     RDKit          3D

  0  0  0  0  0  0  0  0  0  0999 V3000
M  V30 BEGIN CTAB
M  V30 COUNTS 16 16 0 0 1
M  V30 BEGIN ATOM
M  V30 1 C 38.892059 30.577717 54.741027 0
M  V30 2 C 39.608154 30.546440 53.392788 0
M  V30 3 C 37.762451 29.546220 54.620177 0
M  V30 4 C 38.023825 28.805806 53.301633 0
M  V30 5 N 39.410194 29.153188 53.029977 0
M  V30 6 N 39.610106 29.040554 51.517089 0 CHG=1
M  V30 7 O 40.360456 29.857864 50.990327 0 CHG=-1
M  V30 8 O 39.022052 28.127790 50.946517 0
M  V30 9 H 39.587032 30.266750 55.523068 0
M  V30 10 H 38.526787 31.575764 54.987889 0
M  V30 11 H 40.662850 30.817826 53.447916 0
M  V30 12 H 39.107399 31.218222 52.698547 0
M  V30 13 H 36.778881 30.019942 54.611412 0
M  V30 14 H 37.786439 28.858971 55.466971 0
M  V30 15 H 37.379492 29.221430 52.530607 0
M  V30 16 H 37.860389 27.728906 53.360049 0
M  V30 END ATOM
M  V30 BEGIN BOND
M  V30 1 1 2 1
M  V30 2 1 3 1
M  V30 3 1 4 3
M  V30 4 1 5 2
M  V30 5 1 5 4
M  V30 6 1 6 5
M  V30 7 1 7 6
M  V30 8 2 8 6
M  V30 9 1 9 1
M  V30 10 1 10 1
M  V30 11 1 11 2
M  V30 12 1 12 2
M  V30 13 1 13 3
M  V30 14 1 14 3
M  V30 15 1 15 4
M  V30 16 1 16 4
M  V30 END BOND
M  V30 END CTAB
M  END
>  <i_epik_Tot_Q>  (1) 
0

>  <i_epik_Tot_abs_Q>  (1) 
2

>  <i_i_glide_confnum>  (1) 
1

>  <i_i_glide_lignum>  (1) 
65

>  <i_i_glide_posenum>  (1) 
336

>  <i_i_glide_rotatable_bonds>  (1) 
1

>  <i_lp_mmshare_version>  (1) 
72125

>  <i_m_source_file_index>  (1) 
62

>  <i_f3d_flags>  (1) 
0

>  <num_sample>  (1) 
100

>  <b_lp_Chiralities_Consistent>  (1) 
1

>  <r_epik_Charging_Adjusted_Penalty>  (1) 
0

>  <r_epik_Ionization_Penalty>  (1) 
5.9201220630741648e-14

>  <r_epik_Ionization_Penalty_Charging>  (1) 
0

>  <r_epik_Ionization_Penalty_Neutral>  (1) 
5.9201220630741648e-14

>  <r_epik_State_Penalty>  (1) 
-0

>  <r_glide_ring_energy>  (1) 
0

>  <r_i_docking_score>  (1) 
-4.5970341479633658

>  <r_i_glide_ecoul>  (1) 
0.66995045759536354

>  <r_i_glide_eff_state_penalty>  (1) 
-0

>  <r_i_glide_einternal>  (1) 
0.041894310794848455

>  <r_i_glide_emodel>  (1) 
-21.613240534501404

>  <r_i_glide_emodel_strain>  (1) 
0

>  <r_i_glide_energy>  (1) 
-16.207261328099069

>  <r_i_glide_erotb>  (1) 
0

>  <r_i_glide_esite>  (1) 
0

>  <r_i_glide_evdw>  (1) 
-16.877211785694431

>  <r_i_glide_gscore>  (1) 
-4.5970341479633658

>  <r_i_glide_gscore_strain>  (1) 
0

>  <r_i_glide_hbond>  (1) 
0

>  <r_i_glide_ligand_efficiency>  (1) 
-0.57462926849542073

>  <r_i_glide_ligand_efficiency_ln>  (1) 
-1.4928142280810055

>  <r_i_glide_ligand_efficiency_sa>  (1) 
-1.1492585369908417

>  <r_i_glide_lipo>  (1) 
-0.93124732930115184

>  <r_i_glide_metal>  (1) 
-0

>  <r_i_glide_rewards>  (1) 
-2.922418798016797

>  <r_lp_Energy>  (1) 
26.171151999999999

>  <r_lp_tautomer_probability>  (1) 
1

>  <s_epik_cmdline>  (1) 
J2VwaWtfcHl0aG9uJywgJy1waHQnLCAnMS4wJywgJy1waCcsICc3LjQnLCAnLXRuJywgJzgnLCAnLW1hJywgJzUwMCcsICctaW1hZScsICc8aW5maWxlLm1hZT4nLCAnLW9tYWUnLCAnPG91dGZpbGUubWFlPic=

>  <s_epik_input>  (1) 
W0NIMl0xW0NIMl1bQ0gyXVtDSDJdTjFbTitdKFtPLV0pPU8=

>  <s_glide_docking_method>  (1) 
confgen

>  <s_i_glide_gridfile>  (1) 
gpcr_5ht2c_6bqh_protein_autoprepared_prepared

>  <s_lp_Force_Field>  (1) 
S-OPLS

>  <s_lp_Variant>  (1) 
Pocket2Mol_61_num_sample_100-1

>  <s_m_source_file>  (1) 
generated__ligand_Pocket2Mol_2026-05-06_prepared.sdf

>  <GenAI_Model>  (1) 
Pocket2Mol

>  <Protein>  (1) 
GPCR_5HT2C

$$$$
Pocket2Mol_18_num_sample_100
     RDKit          3D

  0  0  0  0  0  0  0  0  0  0999 V3000
M  V30 BEGIN CTAB
M  V30 COUNTS 18 18 0 0 1
M  V30 BEGIN ATOM
M  V30 1 C 37.954563 27.189484 53.824441 0
M  V30 2 C 38.201235 28.577562 53.213332 0
M  V30 3 C 38.143474 29.672049 54.292562 0
M  V30 4 C 38.952085 26.893317 54.956223 0
M  V30 5 C 39.136266 29.384774 55.431322 0
M  V30 6 C 38.907720 27.988427 56.035569 0
M  V30 7 H 36.937573 27.143103 54.213738 0
M  V30 8 H 38.025089 26.421863 53.053505 0
M  V30 9 H 39.175832 28.595429 52.723796 0
M  V30 10 H 37.462666 28.778071 52.436651 0
M  V30 11 H 38.357869 30.646273 53.852061 0
M  V30 12 H 37.132006 29.735597 54.697461 0
M  V30 13 H 38.731469 25.922769 55.401738 0
M  V30 14 H 39.960457 26.821391 54.547002 0
M  V30 15 H 39.039020 30.145451 56.206867 0
M  V30 16 H 40.156727 29.459057 55.053501 0
M  V30 17 H 37.939633 27.964864 56.537940 0
M  V30 18 H 39.657840 27.786895 56.801084 0
M  V30 END ATOM
M  V30 BEGIN BOND
M  V30 1 1 2 1
M  V30 2 1 3 2
M  V30 3 1 4 1
M  V30 4 1 5 3
M  V30 5 1 6 4
M  V30 6 1 6 5
M  V30 7 1 7 1
M  V30 8 1 8 1
M  V30 9 1 9 2
M  V30 10 1 10 2
M  V30 11 1 11 3
M  V30 12 1 12 3
M  V30 13 1 13 4
M  V30 14 1 14 4
M  V30 15 1 15 5
M  V30 16 1 16 5
M  V30 17 1 17 6
M  V30 18 1 18 6
M  V30 END BOND
M  V30 END CTAB
M  END
>  <i_epik_Tot_Q>  (1) 
0

>  <i_epik_Tot_abs_Q>  (1) 
0

>  <i_i_glide_confnum>  (1) 
2

>  <i_i_glide_lignum>  (1) 
21

>  <i_i_glide_posenum>  (1) 
61

>  <i_i_glide_rotatable_bonds>  (1) 
0

>  <i_lp_mmshare_version>  (1) 
72125

>  <i_m_source_file_index>  (1) 
19

>  <i_f3d_flags>  (1) 
0

>  <num_sample>  (1) 
100

>  <b_lp_Chiralities_Consistent>  (1) 
1

>  <r_epik_Charging_Adjusted_Penalty>  (1) 
0

>  <r_epik_Ionization_Penalty>  (1) 
0

>  <r_epik_Ionization_Penalty_Charging>  (1) 
0

>  <r_epik_Ionization_Penalty_Neutral>  (1) 
0

>  <r_epik_State_Penalty>  (1) 
-0

>  <r_glide_ring_energy>  (1) 
0.00054248204421707515

>  <r_i_docking_score>  (1) 
-4.5935240490010436

>  <r_i_glide_ecoul>  (1) 
0.048794866996980296

>  <r_i_glide_eff_state_penalty>  (1) 
-0

>  <r_i_glide_einternal>  (1) 
0

>  <r_i_glide_emodel>  (1) 
-16.594573250461796

>  <r_i_glide_emodel_strain>  (1) 
0

>  <r_i_glide_energy>  (1) 
-12.985926037150705

>  <r_i_glide_erotb>  (1) 
0

>  <r_i_glide_esite>  (1) 
0

>  <r_i_glide_evdw>  (1) 
-13.034720904147685

>  <r_i_glide_gscore>  (1) 
-4.5935240490010436

>  <r_i_glide_gscore_strain>  (1) 
0

>  <r_i_glide_hbond>  (1) 
0

>  <r_i_glide_ligand_efficiency>  (1) 
-0.76558734150017393

>  <r_i_glide_ligand_efficiency_ln>  (1) 
-1.6453867532761308

>  <r_i_glide_ligand_efficiency_sa>  (1) 
-1.391164523851578

>  <r_i_glide_lipo>  (1) 
-1.3824405671765394

>  <r_i_glide_metal>  (1) 
-0

>  <r_i_glide_rewards>  (1) 
-2.5666666666666669

>  <r_lp_Energy>  (1) 
5.7175969999999996

>  <r_lp_tautomer_probability>  (1) 
1

>  <s_epik_cmdline>  (1) 
J2VwaWtfcHl0aG9uJywgJy1waHQnLCAnMS4wJywgJy1waCcsICc3LjQnLCAnLXRuJywgJzgnLCAnLW1hJywgJzUwMCcsICctaW1hZScsICc8aW5maWxlLm1hZT4nLCAnLW9tYWUnLCAnPG91dGZpbGUubWFlPic=

>  <s_epik_input>  (1) 
W0NIMl0xW0NIMl1bQ0gyXVtDSDJdW0NIMl1bQ0gyXTE=

>  <s_glide_docking_method>  (1) 
confgen

>  <s_i_glide_gridfile>  (1) 
gpcr_5ht2c_6bqh_protein_autoprepared_prepared

>  <s_lp_Force_Field>  (1) 
S-OPLS

>  <s_lp_Variant>  (1) 
Pocket2Mol_18_num_sample_100-1

>  <s_m_source_file>  (1) 
generated__ligand_Pocket2Mol_2026-05-06_prepared.sdf

>  <GenAI_Model>  (1) 
Pocket2Mol

>  <Protein>  (1) 
GPCR_5HT2C

$$$$
Pocket2Mol_5_num_sample_100
     RDKit          3D

  0  0  0  0  0  0  0  0  0  0999 V3000
M  V30 BEGIN CTAB
M  V30 COUNTS 12 12 0 0 1
M  V30 BEGIN ATOM
M  V30 1 C 39.467389 29.621402 52.653499 0
M  V30 2 C 38.554323 28.751996 52.899727 0
M  V30 3 C 40.151498 29.450072 51.310364 0
M  V30 4 C 39.277708 28.145335 50.779767 0
M  V30 5 N 38.401856 27.873926 51.932875 0
M  V30 6 H 37.918971 28.671425 53.770294 0
M  V30 7 H 40.023999 30.329275 50.678125 0
M  V30 8 H 41.209421 29.221430 51.434382 0
M  V30 9 H 38.684690 28.399298 49.901417 0
M  V30 10 H 39.904131 27.283090 50.552931 0
M  V30 11 H 39.737851 30.426049 53.322095 0
M  V30 12 H 37.595734 27.263656 51.853190 0
M  V30 END ATOM
M  V30 BEGIN BOND
M  V30 1 2 2 1
M  V30 2 1 3 1
M  V30 3 1 4 3
M  V30 4 1 5 2
M  V30 5 1 5 4
M  V30 6 1 6 2
M  V30 7 1 7 3
M  V30 8 1 8 3
M  V30 9 1 9 4
M  V30 10 1 10 4
M  V30 11 1 11 1
M  V30 12 1 12 5
M  V30 END BOND
M  V30 END CTAB
M  END
>  <i_epik_Tot_Q>  (1) 
0

>  <i_epik_Tot_abs_Q>  (1) 
0

>  <i_i_glide_confnum>  (1) 
1

>  <i_i_glide_lignum>  (1) 
8

>  <i_i_glide_posenum>  (1) 
25

>  <i_i_glide_rotatable_bonds>  (1) 
0

>  <i_lp_mmshare_version>  (1) 
72125

>  <i_m_source_file_index>  (1) 
6

>  <i_f3d_flags>  (1) 
0

>  <num_sample>  (1) 
100

>  <b_lp_Chiralities_Consistent>  (1) 
1

>  <r_epik_Charging_Adjusted_Penalty>  (1) 
1.6042444336516156e-06

>  <r_epik_Ionization_Penalty>  (1) 
0.0023556498582944039

>  <r_epik_Ionization_Penalty_Charging>  (1) 
1.6042444336516156e-06

>  <r_epik_Ionization_Penalty_Neutral>  (1) 
0.0023540456138607521

>  <r_epik_State_Penalty>  (1) 
-0

>  <r_glide_ring_energy>  (1) 
0

>  <r_i_docking_score>  (1) 
-4.5833291103712321

>  <r_i_glide_ecoul>  (1) 
-2.0710026415092337

>  <r_i_glide_eff_state_penalty>  (1) 
-0

>  <r_i_glide_einternal>  (1) 
0

>  <r_i_glide_emodel>  (1) 
-18.873428058422085

>  <r_i_glide_emodel_strain>  (1) 
0

>  <r_i_glide_energy>  (1) 
-14.803011390994573

>  <r_i_glide_erotb>  (1) 
0

>  <r_i_glide_esite>  (1) 
0

>  <r_i_glide_evdw>  (1) 
-12.73200874948534

>  <r_i_glide_gscore>  (1) 
-4.5833291103712321

>  <r_i_glide_gscore_strain>  (1) 
0

>  <r_i_glide_hbond>  (1) 
-0.18101507509653353

>  <r_i_glide_ligand_efficiency>  (1) 
-0.91666582207424641

>  <r_i_glide_ligand_efficiency_ln>  (1) 
-1.756443059454085

>  <r_i_glide_ligand_efficiency_sa>  (1) 
-1.5674765068875822

>  <r_i_glide_lipo>  (1) 
-1.2050632015740466

>  <r_i_glide_metal>  (1) 
-0

>  <r_i_glide_rewards>  (1) 
-2.25

>  <r_lp_Energy>  (1) 
2.9163319999999997

>  <r_lp_tautomer_probability>  (1) 
1

>  <s_epik_Chemistry_Notes>  (1) 
This compound has an imine and may undergo hydrolysis.

>  <s_epik_cmdline>  (1) 
J2VwaWtfcHl0aG9uJywgJy1waHQnLCAnMS4wJywgJy1waCcsICc3LjQnLCAnLXRuJywgJzgnLCAnLW1hJywgJzUwMCcsICctaW1hZScsICc8aW5maWxlLm1hZT4nLCAnLW9tYWUnLCAnPG91dGZpbGUubWFlPic=

>  <s_epik_input>  (1) 
W0NIMl0xW0NIXT1OW0NIMl1bQ0gyXTE=

>  <s_glide_docking_method>  (1) 
confgen

>  <s_i_glide_gridfile>  (1) 
gpcr_5ht2c_6bqh_protein_autoprepared_prepared

>  <s_lp_Force_Field>  (1) 
S-OPLS

>  <s_lp_Variant>  (1) 
Pocket2Mol_5_num_sample_100-1

>  <s_m_source_file>  (1) 
generated__ligand_Pocket2Mol_2026-05-06_prepared.sdf

>  <GenAI_Model>  (1) 
Pocket2Mol

>  <Protein>  (1) 
GPCR_5HT2C

$$$$
Pocket2Mol_42_num_sample_100
     RDKit          3D

  0  0  0  0  0  0  0  0  0  0999 V3000
M  V30 BEGIN CTAB
M  V30 COUNTS 10 9 0 0 1
M  V30 BEGIN ATOM
M  V30 1 C 40.151748 28.516844 60.572626 0
M  V30 2 O 39.270890 29.519238 61.044416 0
M  V30 3 C 39.773661 30.705477 61.441514 0
M  V30 4 C 38.644468 31.677740 61.893008 0
M  V30 5 O 40.970846 31.008300 61.453399 0
M  V30 6 O 37.475643 31.221451 61.853481 0
M  V30 7 O 39.024221 32.815010 62.252871 0 CHG=-1
M  V30 8 H 39.585082 27.635366 60.274526 0
M  V30 9 H 40.857523 28.222115 61.350144 0
M  V30 10 H 40.710518 28.871007 59.705426 0
M  V30 END ATOM
M  V30 BEGIN BOND
M  V30 1 1 2 1
M  V30 2 1 3 2
M  V30 3 1 4 3
M  V30 4 2 5 3
M  V30 5 2 6 4
M  V30 6 1 7 4
M  V30 7 1 8 1
M  V30 8 1 9 1
M  V30 9 1 10 1
M  V30 END BOND
M  V30 END CTAB
M  END
>  <i_epik_Tot_Q>  (1) 
-1

>  <i_epik_Tot_abs_Q>  (1) 
1

>  <i_i_glide_confnum>  (1) 
1

>  <i_i_glide_lignum>  (1) 
45

>  <i_i_glide_posenum>  (1) 
13

>  <i_i_glide_rotatable_bonds>  (1) 
2

>  <i_lp_mmshare_version>  (1) 
72125

>  <i_m_source_file_index>  (1) 
43

>  <i_f3d_flags>  (1) 
0

>  <num_sample>  (1) 
100

>  <b_lp_Chiralities_Consistent>  (1) 
1

>  <r_epik_Charging_Adjusted_Penalty>  (1) 
5.6581681309968728e-06

>  <r_epik_Ionization_Penalty>  (1) 
5.6581681309968728e-06

>  <r_epik_Ionization_Penalty_Charging>  (1) 
5.6581681309968728e-06

>  <r_epik_Ionization_Penalty_Neutral>  (1) 
0

>  <r_epik_State_Penalty>  (1) 
-0

>  <r_glide_ring_energy>  (1) 
0

>  <r_i_docking_score>  (1) 
-4.5668579673899581

>  <r_i_glide_ecoul>  (1) 
-5.0921857558063106

>  <r_i_glide_eff_state_penalty>  (1) 
-0

>  <r_i_glide_einternal>  (1) 
0.035686947499650401

>  <r_i_glide_emodel>  (1) 
-18.654631028159766

>  <r_i_glide_emodel_strain>  (1) 
0

>  <r_i_glide_energy>  (1) 
-13.898944687946091

>  <r_i_glide_erotb>  (1) 
0

>  <r_i_glide_esite>  (1) 
0

>  <r_i_glide_evdw>  (1) 
-8.8067589321397808

>  <r_i_glide_gscore>  (1) 
-4.5668579673899581

>  <r_i_glide_gscore_strain>  (1) 
0

>  <r_i_glide_hbond>  (1) 
-0.42835392684272428

>  <r_i_glide_ligand_efficiency>  (1) 
-0.65240828105570825

>  <r_i_glide_ligand_efficiency_ln>  (1) 
-1.5502366794365556

>  <r_i_glide_ligand_efficiency_sa>  (1) 
-1.2480121447303973

>  <r_i_glide_lipo>  (1) 
-0.21340034631038135

>  <r_i_glide_metal>  (1) 
-0

>  <r_i_glide_rewards>  (1) 
-2.7209378842589174

>  <r_lp_Energy>  (1) 
21.029133999999999

>  <r_lp_tautomer_probability>  (1) 
1

>  <s_epik_Chemistry_Notes>  (1) 
This compound has an ester and may undergo hydrolysis at high or low pH.

>  <s_epik_cmdline>  (1) 
J2VwaWtfcHl0aG9uJywgJy1waHQnLCAnMS4wJywgJy1waCcsICc3LjQnLCAnLXRuJywgJzgnLCAnLW1hJywgJzUwMCcsICctaW1hZScsICc8aW5maWxlLm1hZT4nLCAnLW9tYWUnLCAnPG91dGZpbGUubWFlPic=

>  <s_epik_input>  (1) 
W0NIM11PQyg9TylDKD1PKVtPSF0=

>  <s_glide_docking_method>  (1) 
confgen

>  <s_i_glide_gridfile>  (1) 
gpcr_5ht2c_6bqh_protein_autoprepared_prepared

>  <s_lp_Force_Field>  (1) 
S-OPLS

>  <s_lp_Variant>  (1) 
Pocket2Mol_42_num_sample_100-1

>  <s_m_source_file>  (1) 
generated__ligand_Pocket2Mol_2026-05-06_prepared.sdf

>  <GenAI_Model>  (1) 
Pocket2Mol

>  <Protein>  (1) 
GPCR_5HT2C

$$$$
Pocket2Mol_77_num_sample_100
     RDKit          3D

  0  0  0  0  0  0  0  0  0  0999 V3000
M  V30 BEGIN CTAB
M  V30 COUNTS 15 15 0 0 1
M  V30 BEGIN ATOM
M  V30 1 C 39.468218 30.027999 52.803654 0
M  V30 2 C 38.954768 28.713087 52.214349 0
M  V30 3 C 39.898808 28.445874 51.052270 0
M  V30 4 C 40.092395 30.802769 51.629426 0
M  V30 5 C 40.205513 29.823066 50.462021 0
M  V30 6 H 38.678105 30.588963 53.297881 0
M  V30 7 H 40.231966 29.836601 53.557025 0
M  V30 8 H 38.949444 27.898999 52.937879 0
M  V30 9 H 37.937014 28.831806 51.842388 0
M  V30 10 H 40.817696 28.021429 51.447162 0
M  V30 11 H 39.500130 27.747136 50.317966 0
M  V30 12 H 39.467483 31.643187 51.333519 0
M  V30 13 H 41.061629 31.221210 51.890716 0
M  V30 14 H 41.182802 29.872760 49.982415 0
M  V30 15 H 39.466167 30.076848 49.703150 0
M  V30 END ATOM
M  V30 BEGIN BOND
M  V30 1 1 2 1
M  V30 2 1 3 2
M  V30 3 1 4 1
M  V30 4 1 5 3
M  V30 5 1 5 4
M  V30 6 1 6 1
M  V30 7 1 7 1
M  V30 8 1 8 2
M  V30 9 1 9 2
M  V30 10 1 10 3
M  V30 11 1 11 3
M  V30 12 1 12 4
M  V30 13 1 13 4
M  V30 14 1 14 5
M  V30 15 1 15 5
M  V30 END BOND
M  V30 END CTAB
M  END
>  <i_epik_Tot_Q>  (1) 
0

>  <i_epik_Tot_abs_Q>  (1) 
0

>  <i_i_glide_confnum>  (1) 
1

>  <i_i_glide_lignum>  (1) 
82

>  <i_i_glide_posenum>  (1) 
27

>  <i_i_glide_rotatable_bonds>  (1) 
0

>  <i_lp_mmshare_version>  (1) 
72125

>  <i_m_source_file_index>  (1) 
78

>  <i_f3d_flags>  (1) 
0

>  <num_sample>  (1) 
100

>  <b_lp_Chiralities_Consistent>  (1) 
1

>  <r_epik_Charging_Adjusted_Penalty>  (1) 
0

>  <r_epik_Ionization_Penalty>  (1) 
0

>  <r_epik_Ionization_Penalty_Charging>  (1) 
0

>  <r_epik_Ionization_Penalty_Neutral>  (1) 
0

>  <r_epik_State_Penalty>  (1) 
-0

>  <r_glide_ring_energy>  (1) 
0

>  <r_i_docking_score>  (1) 
-4.5616898535868415

>  <r_i_glide_ecoul>  (1) 
-0.13282281693980919

>  <r_i_glide_eff_state_penalty>  (1) 
-0

>  <r_i_glide_einternal>  (1) 
0

>  <r_i_glide_emodel>  (1) 
-14.929153112893948

>  <r_i_glide_emodel_strain>  (1) 
0

>  <r_i_glide_energy>  (1) 
-11.349105136957068

>  <r_i_glide_erotb>  (1) 
0

>  <r_i_glide_esite>  (1) 
0

>  <r_i_glide_evdw>  (1) 
-11.216282320017259

>  <r_i_glide_gscore>  (1) 
-4.5616898535868415

>  <r_i_glide_gscore_strain>  (1) 
0

>  <r_i_glide_hbond>  (1) 
0

>  <r_i_glide_ligand_efficiency>  (1) 
-0.91233797071736833

>  <r_i_glide_ligand_efficiency_ln>  (1) 
-1.7481503705645434

>  <r_i_glide_ligand_efficiency_sa>  (1) 
-1.5600759851665285

>  <r_i_glide_lipo>  (1) 
-1.5066240411801117

>  <r_i_glide_metal>  (1) 
-0

>  <r_i_glide_rewards>  (1) 
-2.4743282738648951

>  <r_lp_Energy>  (1) 
13.274989999999999

>  <r_lp_tautomer_probability>  (1) 
1

>  <s_epik_cmdline>  (1) 
J2VwaWtfcHl0aG9uJywgJy1waHQnLCAnMS4wJywgJy1waCcsICc3LjQnLCAnLXRuJywgJzgnLCAnLW1hJywgJzUwMCcsICctaW1hZScsICc8aW5maWxlLm1hZT4nLCAnLW9tYWUnLCAnPG91dGZpbGUubWFlPic=

>  <s_epik_input>  (1) 
W0NIMl0xW0NIMl1bQ0gyXVtDSDJdW0NIMl0x

>  <s_glide_docking_method>  (1) 
confgen

>  <s_i_glide_gridfile>  (1) 
gpcr_5ht2c_6bqh_protein_autoprepared_prepared

>  <s_lp_Force_Field>  (1) 
S-OPLS

>  <s_lp_Variant>  (1) 
Pocket2Mol_77_num_sample_100-1

>  <s_m_source_file>  (1) 
generated__ligand_Pocket2Mol_2026-05-06_prepared.sdf

>  <GenAI_Model>  (1) 
Pocket2Mol

>  <Protein>  (1) 
GPCR_5HT2C

$$$$
Pocket2Mol_26_num_sample_100
     RDKit          3D

  0  0  0  0  0  0  0  0  0  0999 V3000
M  V30 BEGIN CTAB
M  V30 COUNTS 16 16 0 0 1
M  V30 BEGIN ATOM
M  V30 1 C 39.867403 30.310640 52.333240 0
M  V30 2 C 38.910344 29.291058 52.791867 0
M  V30 3 C 40.345927 30.151081 51.147516 0
M  V30 4 C 39.877085 28.971285 50.410909 0
M  V30 5 N 38.836847 28.532226 51.453834 0 CHG=1
M  V30 6 C 38.754477 27.072070 51.620647 0
M  V30 7 H 40.137123 31.136492 52.976947 0
M  V30 8 H 39.340410 28.696748 53.599237 0
M  V30 9 H 37.946547 29.700108 53.092867 0
M  V30 10 H 41.058322 30.828869 50.697699 0
M  V30 11 H 39.467403 29.221435 49.435182 0
M  V30 12 H 40.667403 28.233520 50.313274 0
M  V30 13 H 39.656098 26.677915 52.090300 0
M  V30 14 H 37.899817 26.821429 52.249969 0
M  V30 15 H 38.627477 26.583609 50.653501 0
M  V30 16 H 37.954069 28.807058 51.046540 0
M  V30 END ATOM
M  V30 BEGIN BOND
M  V30 1 1 2 1
M  V30 2 2 3 1
M  V30 3 1 4 3
M  V30 4 1 5 2
M  V30 5 1 5 4
M  V30 6 1 6 5
M  V30 7 1 7 1
M  V30 8 1 8 2
M  V30 9 1 9 2
M  V30 10 1 10 3
M  V30 11 1 11 4
M  V30 12 1 12 4
M  V30 13 1 13 6
M  V30 14 1 14 6
M  V30 15 1 15 6
M  V30 16 1 16 5
M  V30 END BOND
M  V30 END CTAB
M  END
>  <i_epik_Tot_Q>  (1) 
1

>  <i_epik_Tot_abs_Q>  (1) 
1

>  <i_i_glide_confnum>  (1) 
1

>  <i_i_glide_lignum>  (1) 
29

>  <i_i_glide_posenum>  (1) 
220

>  <i_i_glide_rotatable_bonds>  (1) 
0

>  <i_lp_mmshare_version>  (1) 
72125

>  <i_m_source_file_index>  (1) 
27

>  <i_f3d_flags>  (1) 
0

>  <num_sample>  (1) 
100

>  <b_lp_Chiralities_Consistent>  (1) 
1

>  <r_epik_Charging_Adjusted_Penalty>  (1) 
0.0014863909170882658

>  <r_epik_Ionization_Penalty>  (1) 
0.0014863909170882658

>  <r_epik_Ionization_Penalty_Charging>  (1) 
0.0014863909170882658

>  <r_epik_Ionization_Penalty_Neutral>  (1) 
0

>  <r_epik_State_Penalty>  (1) 
-0

>  <r_glide_ring_energy>  (1) 
0

>  <r_i_docking_score>  (1) 
-4.5594177492520469

>  <r_i_glide_ecoul>  (1) 
-1.0674764855373053

>  <r_i_glide_eff_state_penalty>  (1) 
-0

>  <r_i_glide_einternal>  (1) 
0

>  <r_i_glide_emodel>  (1) 
-17.071335684983993

>  <r_i_glide_emodel_strain>  (1) 
0

>  <r_i_glide_energy>  (1) 
-12.359452192869902

>  <r_i_glide_erotb>  (1) 
0

>  <r_i_glide_esite>  (1) 
0

>  <r_i_glide_evdw>  (1) 
-11.291975707332597

>  <r_i_glide_gscore>  (1) 
-4.5594177492520469

>  <r_i_glide_gscore_strain>  (1) 
0

>  <r_i_glide_hbond>  (1) 
0

>  <r_i_glide_ligand_efficiency>  (1) 
-0.75990295820867448

>  <r_i_glide_ligand_efficiency_ln>  (1) 
-1.6331699773952104

>  <r_i_glide_ligand_efficiency_sa>  (1) 
-1.3808353139150433

>  <r_i_glide_lipo>  (1) 
-1.5846974910548208

>  <r_i_glide_metal>  (1) 
-0

>  <r_i_glide_rewards>  (1) 
-2.25

>  <r_lp_Energy>  (1) 
6.8415840000000001

>  <r_lp_tautomer_probability>  (1) 
1

>  <s_epik_cmdline>  (1) 
J2VwaWtfcHl0aG9uJywgJy1waHQnLCAnMS4wJywgJy1waCcsICc3LjQnLCAnLXRuJywgJzgnLCAnLW1hJywgJzUwMCcsICctaW1hZScsICc8aW5maWxlLm1hZT4nLCAnLW9tYWUnLCAnPG91dGZpbGUubWFlPic=

>  <s_epik_input>  (1) 
W0NIMl0xW0NIXT1bQ0hdW0NIMl1OMVtDSDNd

>  <s_glide_docking_method>  (1) 
confgen

>  <s_i_glide_gridfile>  (1) 
gpcr_5ht2c_6bqh_protein_autoprepared_prepared

>  <s_lp_Force_Field>  (1) 
S-OPLS

>  <s_lp_Variant>  (1) 
Pocket2Mol_26_num_sample_100-1

>  <s_m_source_file>  (1) 
generated__ligand_Pocket2Mol_2026-05-06_prepared.sdf

>  <GenAI_Model>  (1) 
Pocket2Mol

>  <Protein>  (1) 
GPCR_5HT2C

$$$$
Pocket2Mol_13_num_sample_100
     RDKit          3D

  0  0  0  0  0  0  0  0  0  0999 V3000
M  V30 BEGIN CTAB
M  V30 COUNTS 11 11 0 0 1
M  V30 BEGIN ATOM
M  V30 1 C 39.867307 30.021098 52.110082 0
M  V30 2 C 39.085336 29.144968 52.692956 0
M  V30 3 C 40.125123 29.600223 50.802617 0
M  V30 4 C 38.675517 27.943870 51.847122 0
M  V30 5 N 39.467462 28.434741 50.653503 0
M  V30 6 O 40.804547 30.155625 49.944940 0
M  V30 7 H 40.249879 30.924643 52.562266 0
M  V30 8 H 39.042011 26.994943 52.241175 0
M  V30 9 H 38.737357 29.241347 53.711414 0
M  V30 10 H 37.602859 27.912679 51.653282 0
M  V30 11 H 39.481000 27.912245 49.789956 0
M  V30 END ATOM
M  V30 BEGIN BOND
M  V30 1 2 2 1
M  V30 2 1 3 1
M  V30 3 1 4 2
M  V30 4 1 5 3
M  V30 5 1 5 4
M  V30 6 2 6 3
M  V30 7 1 7 1
M  V30 8 1 8 4
M  V30 9 1 9 2
M  V30 10 1 10 4
M  V30 11 1 11 5
M  V30 END BOND
M  V30 END CTAB
M  END
>  <i_epik_Tot_Q>  (1) 
0

>  <i_epik_Tot_abs_Q>  (1) 
0

>  <i_i_glide_confnum>  (1) 
1

>  <i_i_glide_lignum>  (1) 
16

>  <i_i_glide_posenum>  (1) 
143

>  <i_i_glide_rotatable_bonds>  (1) 
0

>  <i_lp_mmshare_version>  (1) 
72125

>  <i_m_source_file_index>  (1) 
14

>  <i_f3d_flags>  (1) 
0

>  <num_sample>  (1) 
100

>  <b_lp_Chiralities_Consistent>  (1) 
1

>  <r_epik_Charging_Adjusted_Penalty>  (1) 
0

>  <r_epik_Ionization_Penalty>  (1) 
3.8544596149973334e-06

>  <r_epik_Ionization_Penalty_Charging>  (1) 
0

>  <r_epik_Ionization_Penalty_Neutral>  (1) 
3.8544596149973334e-06

>  <r_epik_State_Penalty>  (1) 
-0

>  <r_glide_ring_energy>  (1) 
0

>  <r_i_docking_score>  (1) 
-4.5583277205507562

>  <r_i_glide_ecoul>  (1) 
-0.40627942177840154

>  <r_i_glide_eff_state_penalty>  (1) 
-0

>  <r_i_glide_einternal>  (1) 
0

>  <r_i_glide_emodel>  (1) 
-22.32250991689607

>  <r_i_glide_emodel_strain>  (1) 
0

>  <r_i_glide_energy>  (1) 
-17.499193063668198

>  <r_i_glide_erotb>  (1) 
0

>  <r_i_glide_esite>  (1) 
0

>  <r_i_glide_evdw>  (1) 
-17.092913641889798

>  <r_i_glide_gscore>  (1) 
-4.5583277205507562

>  <r_i_glide_gscore_strain>  (1) 
0

>  <r_i_glide_hbond>  (1) 
0

>  <r_i_glide_ligand_efficiency>  (1) 
-0.7597212867584594

>  <r_i_glide_ligand_efficiency_ln>  (1) 
-1.6327795323324084

>  <r_i_glide_ligand_efficiency_sa>  (1) 
-1.3805051949817277

>  <r_i_glide_lipo>  (1) 
-0.94274012518950634

>  <r_i_glide_metal>  (1) 
-0

>  <r_i_glide_rewards>  (1) 
-2.7000000000000002

>  <r_lp_Energy>  (1) 
3.204942

>  <r_lp_tautomer_probability>  (1) 
1

>  <s_epik_cmdline>  (1) 
J2VwaWtfcHl0aG9uJywgJy1waHQnLCAnMS4wJywgJy1waCcsICc3LjQnLCAnLXRuJywgJzgnLCAnLW1hJywgJzUwMCcsICctaW1hZScsICc8aW5maWxlLm1hZT4nLCAnLW9tYWUnLCAnPG91dGZpbGUubWFlPic=

>  <s_epik_input>  (1) 
Tz1DMVtDSDJdW0NIXT1bQ0hdW05IXTE=

>  <s_glide_docking_method>  (1) 
confgen

>  <s_i_glide_gridfile>  (1) 
gpcr_5ht2c_6bqh_protein_autoprepared_prepared

>  <s_lp_Force_Field>  (1) 
S-OPLS

>  <s_lp_Variant>  (1) 
Pocket2Mol_13_num_sample_100-1

>  <s_m_source_file>  (1) 
generated__ligand_Pocket2Mol_2026-05-06_prepared.sdf

>  <GenAI_Model>  (1) 
Pocket2Mol

>  <Protein>  (1) 
GPCR_5HT2C

$$$$
Pocket2Mol_9_num_sample_100
     RDKit          3D

  0  0  0  0  0  0  0  0  0  0999 V3000
M  V30 BEGIN CTAB
M  V30 COUNTS 11 11 0 0 1
M  V30 BEGIN ATOM
M  V30 1 C 39.104744 29.164580 52.681289 0
M  V30 2 C 38.699777 27.940449 51.867712 0
M  V30 3 C 39.867398 30.036715 52.069586 0
M  V30 4 C 40.113230 29.591501 50.768907 0
M  V30 5 N 39.467401 28.416290 50.653502 0
M  V30 6 O 40.774296 30.136549 49.890507 0
M  V30 7 H 38.768553 29.279338 53.701746 0
M  V30 8 H 39.476461 27.875788 49.801442 0
M  V30 9 H 39.090442 27.008984 52.278665 0
M  V30 10 H 40.243466 30.955155 52.496679 0
M  V30 11 H 37.624334 27.888636 51.694978 0
M  V30 END ATOM
M  V30 BEGIN BOND
M  V30 1 1 2 1
M  V30 2 2 3 1
M  V30 3 1 4 3
M  V30 4 1 5 2
M  V30 5 1 5 4
M  V30 6 2 6 4
M  V30 7 1 7 1
M  V30 8 1 8 5
M  V30 9 1 9 2
M  V30 10 1 10 3
M  V30 11 1 11 2
M  V30 END BOND
M  V30 END CTAB
M  END
>  <i_epik_Tot_Q>  (1) 
0

>  <i_epik_Tot_abs_Q>  (1) 
0

>  <i_i_glide_confnum>  (1) 
1

>  <i_i_glide_lignum>  (1) 
12

>  <i_i_glide_posenum>  (1) 
143

>  <i_i_glide_rotatable_bonds>  (1) 
0

>  <i_lp_mmshare_version>  (1) 
72125

>  <i_m_source_file_index>  (1) 
10

>  <i_f3d_flags>  (1) 
0

>  <num_sample>  (1) 
100

>  <b_lp_Chiralities_Consistent>  (1) 
1

>  <r_epik_Charging_Adjusted_Penalty>  (1) 
0

>  <r_epik_Ionization_Penalty>  (1) 
3.8544596149973334e-06

>  <r_epik_Ionization_Penalty_Charging>  (1) 
0

>  <r_epik_Ionization_Penalty_Neutral>  (1) 
3.8544596149973334e-06

>  <r_epik_State_Penalty>  (1) 
-0

>  <r_glide_ring_energy>  (1) 
0

>  <r_i_docking_score>  (1) 
-4.5571545019456208

>  <r_i_glide_ecoul>  (1) 
-0.45486188571440633

>  <r_i_glide_eff_state_penalty>  (1) 
-0

>  <r_i_glide_einternal>  (1) 
0

>  <r_i_glide_emodel>  (1) 
-22.341355979419156

>  <r_i_glide_emodel_strain>  (1) 
2.2129043486529554e-08

>  <r_i_glide_energy>  (1) 
-17.519636110404104

>  <r_i_glide_erotb>  (1) 
0

>  <r_i_glide_esite>  (1) 
0

>  <r_i_glide_evdw>  (1) 
-17.064774224689696

>  <r_i_glide_gscore>  (1) 
-4.5571545019456208

>  <r_i_glide_gscore_strain>  (1) 
0

>  <r_i_glide_hbond>  (1) 
0

>  <r_i_glide_ligand_efficiency>  (1) 
-0.75952575032427017

>  <r_i_glide_ligand_efficiency_ln>  (1) 
-1.6323592888916438

>  <r_i_glide_ligand_efficiency_sa>  (1) 
-1.3801498817005136

>  <r_i_glide_lipo>  (1) 
-0.93568650785397467

>  <r_i_glide_metal>  (1) 
-0

>  <r_i_glide_rewards>  (1) 
-2.7000000000000002

>  <r_lp_Energy>  (1) 
3.2049569999999998

>  <r_lp_tautomer_probability>  (1) 
1

>  <s_epik_cmdline>  (1) 
J2VwaWtfcHl0aG9uJywgJy1waHQnLCAnMS4wJywgJy1waCcsICc3LjQnLCAnLXRuJywgJzgnLCAnLW1hJywgJzUwMCcsICctaW1hZScsICc8aW5maWxlLm1hZT4nLCAnLW9tYWUnLCAnPG91dGZpbGUubWFlPic=

>  <s_epik_input>  (1) 
TjE9W0NIXVtDSDJdW0NIMl1DMT1P

>  <s_glide_docking_method>  (1) 
confgen

>  <s_i_glide_gridfile>  (1) 
gpcr_5ht2c_6bqh_protein_autoprepared_prepared

>  <s_lp_Force_Field>  (1) 
S-OPLS

>  <s_lp_Variant>  (1) 
Pocket2Mol_9_num_sample_100-1

>  <s_m_source_file>  (1) 
generated__ligand_Pocket2Mol_2026-05-06_prepared.sdf

>  <GenAI_Model>  (1) 
Pocket2Mol

>  <Protein>  (1) 
GPCR_5HT2C

$$$$
Pocket2Mol_45_num_sample_100
     RDKit          3D

  0  0  0  0  0  0  0  0  0  0999 V3000
M  V30 BEGIN CTAB
M  V30 COUNTS 15 15 0 0 1
M  V30 BEGIN ATOM
M  V30 1 C 37.794984 34.146746 60.307304 0
M  V30 2 O 37.253201 33.062344 61.057160 0
M  V30 3 C 36.114799 32.388093 60.716896 0
M  V30 4 O 35.867309 31.232060 61.053535 0
M  V30 5 C 35.114738 33.216667 59.883917 0
M  V30 6 C 36.728393 35.140696 59.864186 0
M  V30 7 C 35.705465 34.362438 59.053500 0
M  V30 8 H 38.544831 34.652187 60.915739 0
M  V30 9 H 38.315316 33.743367 59.437479 0
M  V30 10 H 34.568439 32.539775 59.225462 0
M  V30 11 H 34.380715 33.621284 60.580220 0
M  V30 12 H 36.267409 35.611195 60.732023 0
M  V30 13 H 37.167835 35.934870 59.260190 0
M  V30 14 H 36.178958 33.959290 58.157902 0
M  V30 15 H 34.910124 35.023269 58.708343 0
M  V30 END ATOM
M  V30 BEGIN BOND
M  V30 1 1 2 1
M  V30 2 1 3 2
M  V30 3 2 4 3
M  V30 4 1 5 3
M  V30 5 1 6 1
M  V30 6 1 7 5
M  V30 7 1 7 6
M  V30 8 1 8 1
M  V30 9 1 9 1
M  V30 10 1 10 5
M  V30 11 1 11 5
M  V30 12 1 12 6
M  V30 13 1 13 6
M  V30 14 1 14 7
M  V30 15 1 15 7
M  V30 END BOND
M  V30 END CTAB
M  END
>  <i_epik_Tot_Q>  (1) 
0

>  <i_epik_Tot_abs_Q>  (1) 
0

>  <i_i_glide_confnum>  (1) 
2

>  <i_i_glide_lignum>  (1) 
48

>  <i_i_glide_posenum>  (1) 
230

>  <i_i_glide_rotatable_bonds>  (1) 
0

>  <i_lp_mmshare_version>  (1) 
72125

>  <i_m_source_file_index>  (1) 
46

>  <i_f3d_flags>  (1) 
0

>  <num_sample>  (1) 
100

>  <b_lp_Chiralities_Consistent>  (1) 
1

>  <r_epik_Charging_Adjusted_Penalty>  (1) 
0

>  <r_epik_Ionization_Penalty>  (1) 
4.2138389519661579e-10

>  <r_epik_Ionization_Penalty_Charging>  (1) 
0

>  <r_epik_Ionization_Penalty_Neutral>  (1) 
4.2138389519661579e-10

>  <r_epik_State_Penalty>  (1) 
-0

>  <r_glide_ring_energy>  (1) 
0.00094626647336522524

>  <r_i_docking_score>  (1) 
-4.5488948050615026

>  <r_i_glide_ecoul>  (1) 
-2.6008389259813463

>  <r_i_glide_eff_state_penalty>  (1) 
-0

>  <r_i_glide_einternal>  (1) 
0

>  <r_i_glide_emodel>  (1) 
-21.748035286950856

>  <r_i_glide_emodel_strain>  (1) 
0

>  <r_i_glide_energy>  (1) 
-16.642639998413493

>  <r_i_glide_erotb>  (1) 
0

>  <r_i_glide_esite>  (1) 
-0.023883509064302703

>  <r_i_glide_evdw>  (1) 
-14.041801072432147

>  <r_i_glide_gscore>  (1) 
-4.5488948050615026

>  <r_i_glide_gscore_strain>  (1) 
0

>  <r_i_glide_hbond>  (1) 
-0.32000000000000001

>  <r_i_glide_ligand_efficiency>  (1) 
-0.64984211500878608

>  <r_i_glide_ligand_efficiency_ln>  (1) 
-1.5441390181300099

>  <r_i_glide_ligand_efficiency_sa>  (1) 
-1.243103245679068

>  <r_i_glide_lipo>  (1) 
-0.23953550759718054

>  <r_i_glide_metal>  (1) 
-0

>  <r_i_glide_rewards>  (1) 
-2.8732598958812101

>  <r_lp_Energy>  (1) 
8.5246700000000004

>  <r_lp_tautomer_probability>  (1) 
1

>  <s_epik_Chemistry_Notes>  (1) 
This compound has an ester and may undergo hydrolysis at high or low pH.

>  <s_epik_cmdline>  (1) 
J2VwaWtfcHl0aG9uJywgJy1waHQnLCAnMS4wJywgJy1waCcsICc3LjQnLCAnLXRuJywgJzgnLCAnLW1hJywgJzUwMCcsICctaW1hZScsICc8aW5maWxlLm1hZT4nLCAnLW9tYWUnLCAnPG91dGZpbGUubWFlPic=

>  <s_epik_input>  (1) 
W0NIMl0xW0NIMl1bQ0gyXVtDSDJdT0MxPU8=

>  <s_glide_docking_method>  (1) 
confgen

>  <s_i_glide_gridfile>  (1) 
gpcr_5ht2c_6bqh_protein_autoprepared_prepared

>  <s_lp_Force_Field>  (1) 
S-OPLS

>  <s_lp_Variant>  (1) 
Pocket2Mol_45_num_sample_100-1

>  <s_m_source_file>  (1) 
generated__ligand_Pocket2Mol_2026-05-06_prepared.sdf

>  <GenAI_Model>  (1) 
Pocket2Mol

>  <Protein>  (1) 
GPCR_5HT2C

$$$$
Pocket2Mol_9_num_sample_100
     RDKit          3D

  0  0  0  0  0  0  0  0  0  0999 V3000
M  V30 BEGIN CTAB
M  V30 COUNTS 11 11 0 0 1
M  V30 BEGIN ATOM
M  V30 1 C 39.867403 29.060292 50.309733 0
M  V30 2 C 40.054969 30.302245 51.170092 0
M  V30 3 C 39.336394 28.021331 50.903061 0
M  V30 4 C 39.067403 28.345927 52.233795 0
M  V30 5 N 39.467404 29.621429 52.389671 0
M  V30 6 O 38.571043 27.637126 53.104486 0
M  V30 7 H 40.164473 29.065734 49.271872 0
M  V30 8 H 39.385577 30.110656 53.269286 0
M  V30 9 H 41.100003 30.575846 51.293600 0
M  V30 10 H 39.134858 27.065884 50.440241 0
M  V30 11 H 39.467404 31.148700 50.815768 0
M  V30 END ATOM
M  V30 BEGIN BOND
M  V30 1 1 2 1
M  V30 2 2 3 1
M  V30 3 1 4 3
M  V30 4 1 5 2
M  V30 5 1 5 4
M  V30 6 2 6 4
M  V30 7 1 7 1
M  V30 8 1 8 5
M  V30 9 1 9 2
M  V30 10 1 10 3
M  V30 11 1 11 2
M  V30 END BOND
M  V30 END CTAB
M  END
>  <i_epik_Tot_Q>  (1) 
0

>  <i_epik_Tot_abs_Q>  (1) 
0

>  <i_i_glide_confnum>  (1) 
1

>  <i_i_glide_lignum>  (1) 
12

>  <i_i_glide_posenum>  (1) 
321

>  <i_i_glide_rotatable_bonds>  (1) 
0

>  <i_lp_mmshare_version>  (1) 
72125

>  <i_m_source_file_index>  (1) 
10

>  <i_f3d_flags>  (1) 
0

>  <num_sample>  (1) 
100

>  <b_lp_Chiralities_Consistent>  (1) 
1

>  <r_epik_Charging_Adjusted_Penalty>  (1) 
0

>  <r_epik_Ionization_Penalty>  (1) 
3.8544596149973334e-06

>  <r_epik_Ionization_Penalty_Charging>  (1) 
0

>  <r_epik_Ionization_Penalty_Neutral>  (1) 
3.8544596149973334e-06

>  <r_epik_State_Penalty>  (1) 
-0

>  <r_glide_ring_energy>  (1) 
0

>  <r_i_docking_score>  (1) 
-4.5395330061308758

>  <r_i_glide_ecoul>  (1) 
-0.36325495677920644

>  <r_i_glide_eff_state_penalty>  (1) 
-0

>  <r_i_glide_einternal>  (1) 
0

>  <r_i_glide_emodel>  (1) 
-21.067225589281875

>  <r_i_glide_emodel_strain>  (1) 
0

>  <r_i_glide_energy>  (1) 
-16.264150209059103

>  <r_i_glide_erotb>  (1) 
0

>  <r_i_glide_esite>  (1) 
0

>  <r_i_glide_evdw>  (1) 
-15.900895252279897

>  <r_i_glide_gscore>  (1) 
-4.5395330061308758

>  <r_i_glide_gscore_strain>  (1) 
0

>  <r_i_glide_hbond>  (1) 
0

>  <r_i_glide_ligand_efficiency>  (1) 
-0.75658883435514601

>  <r_i_glide_ligand_efficiency_ln>  (1) 
-1.6260473211132673

>  <r_i_glide_ligand_efficiency_sa>  (1) 
-1.3748131512136006

>  <r_i_glide_lipo>  (1) 
-0.98999999999999999

>  <r_i_glide_metal>  (1) 
-0

>  <r_i_glide_rewards>  (1) 
-2.7000000000000002

>  <r_lp_Energy>  (1) 
3.2049569999999998

>  <r_lp_tautomer_probability>  (1) 
1

>  <s_epik_cmdline>  (1) 
J2VwaWtfcHl0aG9uJywgJy1waHQnLCAnMS4wJywgJy1waCcsICc3LjQnLCAnLXRuJywgJzgnLCAnLW1hJywgJzUwMCcsICctaW1hZScsICc8aW5maWxlLm1hZT4nLCAnLW9tYWUnLCAnPG91dGZpbGUubWFlPic=

>  <s_epik_input>  (1) 
TjE9W0NIXVtDSDJdW0NIMl1DMT1P

>  <s_glide_docking_method>  (1) 
confgen

>  <s_i_glide_gridfile>  (1) 
gpcr_5ht2c_6bqh_protein_autoprepared_prepared

>  <s_lp_Force_Field>  (1) 
S-OPLS

>  <s_lp_Variant>  (1) 
Pocket2Mol_9_num_sample_100-1

>  <s_m_source_file>  (1) 
generated__ligand_Pocket2Mol_2026-05-06_prepared.sdf

>  <GenAI_Model>  (1) 
Pocket2Mol

>  <Protein>  (1) 
GPCR_5HT2C

$$$$
Pocket2Mol_60_num_sample_100
     RDKit          3D

  0  0  0  0  0  0  0  0  0  0999 V3000
M  V30 BEGIN CTAB
M  V30 COUNTS 12 12 0 0 1
M  V30 BEGIN ATOM
M  V30 1 C 39.223443 28.021430 50.892359 0
M  V30 2 C 38.784890 28.027090 52.257522 0
M  V30 3 C 39.887098 29.201947 50.664143 0
M  V30 4 C 39.202488 29.204828 52.812531 0
M  V30 5 N 39.867403 29.905993 51.842706 0
M  V30 6 C 39.062311 29.766586 54.166799 0
M  V30 7 O 38.447046 29.097050 55.024536 0
M  V30 8 O 39.569275 30.886551 54.400256 0 CHG=-1
M  V30 9 H 39.067403 27.241299 50.162989 0
M  V30 10 H 38.231174 27.254527 52.771013 0
M  V30 11 H 40.367112 29.598668 49.781772 0
M  V30 12 H 40.281240 30.818006 51.982403 0
M  V30 END ATOM
M  V30 BEGIN BOND
M  V30 1 1 2 1
M  V30 2 2 3 1
M  V30 3 2 4 2
M  V30 4 1 5 3
M  V30 5 1 5 4
M  V30 6 1 6 4
M  V30 7 2 7 6
M  V30 8 1 8 6
M  V30 9 1 9 1
M  V30 10 1 10 2
M  V30 11 1 11 3
M  V30 12 1 12 5
M  V30 END BOND
M  V30 END CTAB
M  END
>  <i_epik_Tot_Q>  (1) 
-1

>  <i_epik_Tot_abs_Q>  (1) 
1

>  <i_i_glide_confnum>  (1) 
1

>  <i_i_glide_lignum>  (1) 
64

>  <i_i_glide_posenum>  (1) 
150

>  <i_i_glide_rotatable_bonds>  (1) 
1

>  <i_lp_mmshare_version>  (1) 
72125

>  <i_m_source_file_index>  (1) 
61

>  <i_f3d_flags>  (1) 
0

>  <num_sample>  (1) 
100

>  <b_lp_Chiralities_Consistent>  (1) 
1

>  <r_epik_Charging_Adjusted_Penalty>  (1) 
0.00021018459712964226

>  <r_epik_Ionization_Penalty>  (1) 
0.00021021235475979092

>  <r_epik_Ionization_Penalty_Charging>  (1) 
0.00021018459712964226

>  <r_epik_Ionization_Penalty_Neutral>  (1) 
2.7757630148672405e-08

>  <r_epik_State_Penalty>  (1) 
-0

>  <r_glide_ring_energy>  (1) 
0

>  <r_i_docking_score>  (1) 
-4.5329292982640759

>  <r_i_glide_ecoul>  (1) 
0.011704312159693808

>  <r_i_glide_eff_state_penalty>  (1) 
-0

>  <r_i_glide_einternal>  (1) 
0.0031083213855057634

>  <r_i_glide_emodel>  (1) 
-20.481736343364553

>  <r_i_glide_emodel_strain>  (1) 
0

>  <r_i_glide_energy>  (1) 
-15.502326564176197

>  <r_i_glide_erotb>  (1) 
0

>  <r_i_glide_esite>  (1) 
0

>  <r_i_glide_evdw>  (1) 
-15.514030876335891

>  <r_i_glide_gscore>  (1) 
-4.5329292982640759

>  <r_i_glide_gscore_strain>  (1) 
0

>  <r_i_glide_hbond>  (1) 
0

>  <r_i_glide_ligand_efficiency>  (1) 
-0.56661616228300948

>  <r_i_glide_ligand_efficiency_ln>  (1) 
-1.4719971906956097

>  <r_i_glide_ligand_efficiency_sa>  (1) 
-1.1332323245660192

>  <r_i_glide_lipo>  (1) 
-1.2174784556574805

>  <r_i_glide_metal>  (1) 
-0

>  <r_i_glide_rewards>  (1) 
-2.5415049456137546

>  <r_lp_Energy>  (1) 
7.8081959999999997

>  <r_lp_tautomer_probability>  (1) 
1

>  <s_epik_cmdline>  (1) 
J2VwaWtfcHl0aG9uJywgJy1waHQnLCAnMS4wJywgJy1waCcsICc3LjQnLCAnLXRuJywgJzgnLCAnLW1hJywgJzUwMCcsICctaW1hZScsICc8aW5maWxlLm1hZT4nLCAnLW9tYWUnLCAnPG91dGZpbGUubWFlPic=

>  <s_epik_input>  (1) 
W25IXTFbY0hdW2NIXVtjSF1jMUMoPU8pW09IXQ==

>  <s_glide_docking_method>  (1) 
confgen

>  <s_i_glide_gridfile>  (1) 
gpcr_5ht2c_6bqh_protein_autoprepared_prepared

>  <s_lp_Force_Field>  (1) 
S-OPLS

>  <s_lp_Variant>  (1) 
Pocket2Mol_60_num_sample_100-1

>  <s_m_source_file>  (1) 
generated__ligand_Pocket2Mol_2026-05-06_prepared.sdf

>  <GenAI_Model>  (1) 
Pocket2Mol

>  <Protein>  (1) 
GPCR_5HT2C

$$$$
Pocket2Mol_99_num_sample_100
     RDKit          3D

  0  0  0  0  0  0  0  0  0  0999 V3000
M  V30 BEGIN CTAB
M  V30 COUNTS 13 13 0 0 1
M  V30 BEGIN ATOM
M  V30 1 C 39.064289 28.396385 51.872230 0
M  V30 2 O 38.992981 29.288633 52.980325 0
M  V30 3 C 39.822118 30.427840 52.755709 0
M  V30 4 C 40.263153 28.857788 51.053454 0
M  V30 5 C 40.256602 30.349326 51.292243 0
M  V30 6 H 39.155602 27.359721 52.196794 0
M  V30 7 H 38.148439 28.486453 51.289466 0
M  V30 8 H 39.292306 31.352361 52.982547 0
M  V30 9 H 40.667517 30.373942 53.435544 0
M  V30 10 H 41.178240 28.421429 51.453606 0
M  V30 11 H 40.186059 28.593687 49.998549 0
M  V30 12 H 39.505003 30.820641 50.656458 0
M  V30 13 H 41.215707 30.825715 51.087967 0
M  V30 END ATOM
M  V30 BEGIN BOND
M  V30 1 1 2 1
M  V30 2 1 3 2
M  V30 3 1 4 1
M  V30 4 1 5 3
M  V30 5 1 5 4
M  V30 6 1 6 1
M  V30 7 1 7 1
M  V30 8 1 8 3
M  V30 9 1 9 3
M  V30 10 1 10 4
M  V30 11 1 11 4
M  V30 12 1 12 5
M  V30 13 1 13 5
M  V30 END BOND
M  V30 END CTAB
M  END
>  <i_epik_Tot_Q>  (1) 
0

>  <i_epik_Tot_abs_Q>  (1) 
0

>  <i_i_glide_confnum>  (1) 
4

>  <i_i_glide_lignum>  (1) 
104

>  <i_i_glide_posenum>  (1) 
10

>  <i_i_glide_rotatable_bonds>  (1) 
0

>  <i_lp_mmshare_version>  (1) 
72125

>  <i_m_source_file_index>  (1) 
100

>  <i_f3d_flags>  (1) 
0

>  <num_sample>  (1) 
100

>  <b_lp_Chiralities_Consistent>  (1) 
1

>  <r_epik_Charging_Adjusted_Penalty>  (1) 
0

>  <r_epik_Ionization_Penalty>  (1) 
1.3889264151150229e-11

>  <r_epik_Ionization_Penalty_Charging>  (1) 
0

>  <r_epik_Ionization_Penalty_Neutral>  (1) 
1.3889264151150229e-11

>  <r_epik_State_Penalty>  (1) 
-0

>  <r_glide_ring_energy>  (1) 
0.22164722245690596

>  <r_i_docking_score>  (1) 
-4.5277799214795724

>  <r_i_glide_ecoul>  (1) 
-0.53439775627018005

>  <r_i_glide_eff_state_penalty>  (1) 
-0

>  <r_i_glide_einternal>  (1) 
0

>  <r_i_glide_emodel>  (1) 
-16.790328099525762

>  <r_i_glide_emodel_strain>  (1) 
0

>  <r_i_glide_energy>  (1) 
-13.117065236498306

>  <r_i_glide_erotb>  (1) 
0

>  <r_i_glide_esite>  (1) 
0

>  <r_i_glide_evdw>  (1) 
-12.582667480228125

>  <r_i_glide_gscore>  (1) 
-4.5277799214795724

>  <r_i_glide_gscore_strain>  (1) 
0

>  <r_i_glide_hbond>  (1) 
0

>  <r_i_glide_ligand_efficiency>  (1) 
-0.90555598429591444

>  <r_i_glide_ligand_efficiency_ln>  (1) 
-1.7351552607956209

>  <r_i_glide_ligand_efficiency_sa>  (1) 
-1.5484789515151545

>  <r_i_glide_lipo>  (1) 
-1.3200000000000001

>  <r_i_glide_metal>  (1) 
-0

>  <r_i_glide_rewards>  (1) 
-2.4984868840276393

>  <r_lp_Energy>  (1) 
3.9174029999999997

>  <r_lp_tautomer_probability>  (1) 
1

>  <s_epik_cmdline>  (1) 
J2VwaWtfcHl0aG9uJywgJy1waHQnLCAnMS4wJywgJy1waCcsICc3LjQnLCAnLXRuJywgJzgnLCAnLW1hJywgJzUwMCcsICctaW1hZScsICc8aW5maWxlLm1hZT4nLCAnLW9tYWUnLCAnPG91dGZpbGUubWFlPic=

>  <s_epik_input>  (1) 
W0NIMl0xT1tDSDJdW0NIMl1bQ0gyXTE=

>  <s_glide_docking_method>  (1) 
confgen

>  <s_i_glide_gridfile>  (1) 
gpcr_5ht2c_6bqh_protein_autoprepared_prepared

>  <s_lp_Force_Field>  (1) 
S-OPLS

>  <s_lp_Variant>  (1) 
Pocket2Mol_99_num_sample_100-1

>  <s_m_source_file>  (1) 
generated__ligand_Pocket2Mol_2026-05-06_prepared.sdf

>  <GenAI_Model>  (1) 
Pocket2Mol

>  <Protein>  (1) 
GPCR_5HT2C

$$$$
Pocket2Mol_28_num_sample_100
     RDKit          3D

  0  0  0  0  0  0  0  0  0  0999 V3000
M  V30 BEGIN CTAB
M  V30 COUNTS 13 13 0 0 1
M  V30 BEGIN ATOM
M  V30 1 C 39.614778 27.451809 58.021568 0
M  V30 2 O 39.052785 26.166225 58.253510 0
M  V30 3 C 38.677349 25.337964 57.243260 0
M  V30 4 O 37.867358 24.421422 57.360211 0
M  V30 5 C 39.391527 25.621394 55.902394 0
M  V30 6 C 40.561478 27.447337 56.824305 0
M  V30 7 O 39.790786 26.978605 55.736243 0
M  V30 8 H 40.140729 27.776773 58.919402 0
M  V30 9 H 38.803486 28.160654 57.852405 0
M  V30 10 H 38.733318 25.343632 55.078947 0
M  V30 11 H 40.267413 24.976673 55.841174 0
M  V30 12 H 41.437753 26.821406 56.996107 0
M  V30 13 H 40.916401 28.455142 56.611520 0
M  V30 END ATOM
M  V30 BEGIN BOND
M  V30 1 1 2 1
M  V30 2 1 3 2
M  V30 3 2 4 3
M  V30 4 1 5 3
M  V30 5 1 6 1
M  V30 6 1 7 5
M  V30 7 1 7 6
M  V30 8 1 8 1
M  V30 9 1 9 1
M  V30 10 1 10 5
M  V30 11 1 11 5
M  V30 12 1 12 6
M  V30 13 1 13 6
M  V30 END BOND
M  V30 END CTAB
M  END
>  <i_epik_Tot_Q>  (1) 
0

>  <i_epik_Tot_abs_Q>  (1) 
0

>  <i_i_glide_confnum>  (1) 
1

>  <i_i_glide_lignum>  (1) 
31

>  <i_i_glide_posenum>  (1) 
310

>  <i_i_glide_rotatable_bonds>  (1) 
0

>  <i_lp_mmshare_version>  (1) 
72125

>  <i_m_source_file_index>  (1) 
29

>  <i_f3d_flags>  (1) 
0

>  <num_sample>  (1) 
100

>  <b_lp_Chiralities_Consistent>  (1) 
1

>  <r_epik_Charging_Adjusted_Penalty>  (1) 
0

>  <r_epik_Ionization_Penalty>  (1) 
1.0677269036415479e-12

>  <r_epik_Ionization_Penalty_Charging>  (1) 
0

>  <r_epik_Ionization_Penalty_Neutral>  (1) 
1.0677269036415479e-12

>  <r_epik_State_Penalty>  (1) 
-0

>  <r_glide_ring_energy>  (1) 
0

>  <r_i_docking_score>  (1) 
-4.522153193197382

>  <r_i_glide_ecoul>  (1) 
-0.9887108390966014

>  <r_i_glide_eff_state_penalty>  (1) 
-0

>  <r_i_glide_einternal>  (1) 
0

>  <r_i_glide_emodel>  (1) 
-20.805966926772705

>  <r_i_glide_emodel_strain>  (1) 
0

>  <r_i_glide_energy>  (1) 
-16.164542883736214

>  <r_i_glide_erotb>  (1) 
0

>  <r_i_glide_esite>  (1) 
0

>  <r_i_glide_evdw>  (1) 
-15.175832044639611

>  <r_i_glide_gscore>  (1) 
-4.522153193197382

>  <r_i_glide_gscore_strain>  (1) 
0

>  <r_i_glide_hbond>  (1) 
0

>  <r_i_glide_ligand_efficiency>  (1) 
-0.64602188474248312

>  <r_i_glide_ligand_efficiency_ln>  (1) 
-1.5350614799462006

>  <r_i_glide_ligand_efficiency_sa>  (1) 
-1.2357954080772864

>  <r_i_glide_lipo>  (1) 
-0.78095259633918657

>  <r_i_glide_metal>  (1) 
-0

>  <r_i_glide_rewards>  (1) 
-2.8341023687617248

>  <r_lp_Energy>  (1) 
12.58291

>  <r_lp_tautomer_probability>  (1) 
1

>  <s_epik_Chemistry_Notes>  (1) 
This compound has an ester and may undergo hydrolysis at high or low pH.

>  <s_epik_cmdline>  (1) 
J2VwaWtfcHl0aG9uJywgJy1waHQnLCAnMS4wJywgJy1waCcsICc3LjQnLCAnLXRuJywgJzgnLCAnLW1hJywgJzUwMCcsICctaW1hZScsICc8aW5maWxlLm1hZT4nLCAnLW9tYWUnLCAnPG91dGZpbGUubWFlPic=

>  <s_epik_input>  (1) 
W0NIMl0xT1tDSDJdW0NIMl1PQzE9Tw==

>  <s_glide_docking_method>  (1) 
confgen

>  <s_i_glide_gridfile>  (1) 
gpcr_5ht2c_6bqh_protein_autoprepared_prepared

>  <s_lp_Force_Field>  (1) 
S-OPLS

>  <s_lp_Variant>  (1) 
Pocket2Mol_28_num_sample_100-1

>  <s_m_source_file>  (1) 
generated__ligand_Pocket2Mol_2026-05-06_prepared.sdf

>  <GenAI_Model>  (1) 
Pocket2Mol

>  <Protein>  (1) 
GPCR_5HT2C

$$$$
Pocket2Mol_44_num_sample_100
     RDKit          3D

  0  0  0  0  0  0  0  0  0  0999 V3000
M  V30 BEGIN CTAB
M  V30 COUNTS 10 9 0 0 1
M  V30 BEGIN ATOM
M  V30 1 C 35.897449 31.956161 60.215620 0
M  V30 2 O 36.305681 31.615613 61.492550 0
M  V30 3 C 37.718863 31.538878 61.619487 0
M  V30 4 O 36.163828 30.927493 59.295874 0
M  V30 5 H 36.417590 32.854991 59.880656 0
M  V30 6 H 34.819839 32.140900 60.205773 0
M  V30 7 H 37.982522 31.262004 62.638891 0
M  V30 8 H 38.137801 30.787346 60.948590 0
M  V30 9 H 38.183145 32.501352 61.400550 0
M  V30 10 H 35.867170 31.221870 58.426760 0
M  V30 END ATOM
M  V30 BEGIN BOND
M  V30 1 1 2 1
M  V30 2 1 3 2
M  V30 3 1 4 1
M  V30 4 1 5 1
M  V30 5 1 6 1
M  V30 6 1 7 3
M  V30 7 1 8 3
M  V30 8 1 9 3
M  V30 9 1 10 4
M  V30 END BOND
M  V30 END CTAB
M  END
>  <i_epik_Tot_Q>  (1) 
0

>  <i_epik_Tot_abs_Q>  (1) 
0

>  <i_i_glide_confnum>  (1) 
1

>  <i_i_glide_lignum>  (1) 
47

>  <i_i_glide_posenum>  (1) 
28

>  <i_i_glide_rotatable_bonds>  (1) 
2

>  <i_lp_mmshare_version>  (1) 
72125

>  <i_m_source_file_index>  (1) 
45

>  <i_f3d_flags>  (1) 
0

>  <num_sample>  (1) 
100

>  <b_lp_Chiralities_Consistent>  (1) 
1

>  <r_epik_Charging_Adjusted_Penalty>  (1) 
0

>  <r_epik_Ionization_Penalty>  (1) 
1.028953084229311e-06

>  <r_epik_Ionization_Penalty_Charging>  (1) 
0

>  <r_epik_Ionization_Penalty_Neutral>  (1) 
1.028953084229311e-06

>  <r_epik_State_Penalty>  (1) 
-0

>  <r_glide_ring_energy>  (1) 
0

>  <r_i_docking_score>  (1) 
-4.5102335889325698

>  <r_i_glide_ecoul>  (1) 
-9.2750985290150716

>  <r_i_glide_eff_state_penalty>  (1) 
-0

>  <r_i_glide_einternal>  (1) 
1.9117960413147228

>  <r_i_glide_emodel>  (1) 
-17.446052053827177

>  <r_i_glide_emodel_strain>  (1) 
0

>  <r_i_glide_energy>  (1) 
-13.702279355916392

>  <r_i_glide_erotb>  (1) 
0

>  <r_i_glide_esite>  (1) 
-0.081503794213073189

>  <r_i_glide_evdw>  (1) 
-4.4271808269013215

>  <r_i_glide_gscore>  (1) 
-4.5102335889325698

>  <r_i_glide_gscore_strain>  (1) 
0

>  <r_i_glide_hbond>  (1) 
-0.45599999999999996

>  <r_i_glide_ligand_efficiency>  (1) 
-1.1275583972331424

>  <r_i_glide_ligand_efficiency_ln>  (1) 
-1.8900575144534606

>  <r_i_glide_ligand_efficiency_sa>  (1) 
-1.7898873859234672

>  <r_i_glide_lipo>  (1) 
-0.11010597402216929

>  <r_i_glide_metal>  (1) 
-0

>  <r_i_glide_rewards>  (1) 
-2.25

>  <r_lp_Energy>  (1) 
5.5414079999999997

>  <r_lp_tautomer_probability>  (1) 
1

>  <s_epik_Chemistry_Notes>  (1) 
This compound contains an acetal/aminal-like group ( X-CH(R)-Y where X, Y are N, S, or O) that may be acid/base labile, releasing an aldehyde.

>  <s_epik_cmdline>  (1) 
J2VwaWtfcHl0aG9uJywgJy1waHQnLCAnMS4wJywgJy1waCcsICc3LjQnLCAnLXRuJywgJzgnLCAnLW1hJywgJzUwMCcsICctaW1hZScsICc8aW5maWxlLm1hZT4nLCAnLW9tYWUnLCAnPG91dGZpbGUubWFlPic=

>  <s_epik_input>  (1) 
W09IXVtDSDJdT1tDSDNd

>  <s_glide_docking_method>  (1) 
confgen

>  <s_i_glide_gridfile>  (1) 
gpcr_5ht2c_6bqh_protein_autoprepared_prepared

>  <s_lp_Force_Field>  (1) 
S-OPLS

>  <s_lp_Variant>  (1) 
Pocket2Mol_44_num_sample_100-1

>  <s_m_source_file>  (1) 
generated__ligand_Pocket2Mol_2026-05-06_prepared.sdf

>  <GenAI_Model>  (1) 
Pocket2Mol

>  <Protein>  (1) 
GPCR_5HT2C

$$$$
Pocket2Mol_26_num_sample_100
     RDKit          3D

  0  0  0  0  0  0  0  0  0  0999 V3000
M  V30 BEGIN CTAB
M  V30 COUNTS 16 16 0 0 1
M  V30 BEGIN ATOM
M  V30 1 C 39.468706 28.703047 50.890512 0
M  V30 2 C 39.118701 28.701813 52.319726 0
M  V30 3 C 40.039297 29.769504 50.445331 0
M  V30 4 C 40.263488 30.843955 51.422094 0
M  V30 5 N 39.844663 30.020715 52.652841 0 CHG=1
M  V30 6 C 39.226608 30.800456 53.746777 0
M  V30 7 H 39.245878 27.846514 50.269402 0
M  V30 8 H 38.035854 28.765483 52.445395 0
M  V30 9 H 39.520961 27.842736 52.857095 0
M  V30 10 H 40.340630 29.897810 49.415506 0
M  V30 11 H 41.293834 31.192168 51.453501 0
M  V30 12 H 39.579594 31.665877 51.216949 0
M  V30 13 H 38.265427 31.217718 53.453503 0
M  V30 14 H 39.070711 30.164080 54.618046 0
M  V30 15 H 39.875236 31.621287 54.050902 0
M  V30 16 H 40.727273 29.704049 53.026713 0
M  V30 END ATOM
M  V30 BEGIN BOND
M  V30 1 1 2 1
M  V30 2 2 3 1
M  V30 3 1 4 3
M  V30 4 1 5 2
M  V30 5 1 5 4
M  V30 6 1 6 5
M  V30 7 1 7 1
M  V30 8 1 8 2
M  V30 9 1 9 2
M  V30 10 1 10 3
M  V30 11 1 11 4
M  V30 12 1 12 4
M  V30 13 1 13 6
M  V30 14 1 14 6
M  V30 15 1 15 6
M  V30 16 1 16 5
M  V30 END BOND
M  V30 END CTAB
M  END
>  <i_epik_Tot_Q>  (1) 
1

>  <i_epik_Tot_abs_Q>  (1) 
1

>  <i_i_glide_confnum>  (1) 
1

>  <i_i_glide_lignum>  (1) 
29

>  <i_i_glide_posenum>  (1) 
95

>  <i_i_glide_rotatable_bonds>  (1) 
0

>  <i_lp_mmshare_version>  (1) 
72125

>  <i_m_source_file_index>  (1) 
27

>  <i_f3d_flags>  (1) 
0

>  <num_sample>  (1) 
100

>  <b_lp_Chiralities_Consistent>  (1) 
1

>  <r_epik_Charging_Adjusted_Penalty>  (1) 
0.0014863909170882658

>  <r_epik_Ionization_Penalty>  (1) 
0.0014863909170882658

>  <r_epik_Ionization_Penalty_Charging>  (1) 
0.0014863909170882658

>  <r_epik_Ionization_Penalty_Neutral>  (1) 
0

>  <r_epik_State_Penalty>  (1) 
-0

>  <r_glide_ring_energy>  (1) 
0

>  <r_i_docking_score>  (1) 
-4.5022988250662781

>  <r_i_glide_ecoul>  (1) 
-0.50992125984497827

>  <r_i_glide_eff_state_penalty>  (1) 
-0

>  <r_i_glide_einternal>  (1) 
0

>  <r_i_glide_emodel>  (1) 
-17.363853648865071

>  <r_i_glide_emodel_strain>  (1) 
4.3407908378867432e-09

>  <r_i_glide_energy>  (1) 
-12.710999127236054

>  <r_i_glide_erotb>  (1) 
0

>  <r_i_glide_esite>  (1) 
0

>  <r_i_glide_evdw>  (1) 
-12.201077867391076

>  <r_i_glide_gscore>  (1) 
-4.5022988250662781

>  <r_i_glide_gscore_strain>  (1) 
0

>  <r_i_glide_hbond>  (1) 
0

>  <r_i_glide_ligand_efficiency>  (1) 
-0.75038313751104635

>  <r_i_glide_ligand_efficiency_ln>  (1) 
-1.6127101473792804

>  <r_i_glide_ligand_efficiency_sa>  (1) 
-1.3635366516853136

>  <r_i_glide_lipo>  (1) 
-1.565756742719977

>  <r_i_glide_metal>  (1) 
-0

>  <r_i_glide_rewards>  (1) 
-2.25

>  <r_lp_Energy>  (1) 
6.8415840000000001

>  <r_lp_tautomer_probability>  (1) 
1

>  <s_epik_cmdline>  (1) 
J2VwaWtfcHl0aG9uJywgJy1waHQnLCAnMS4wJywgJy1waCcsICc3LjQnLCAnLXRuJywgJzgnLCAnLW1hJywgJzUwMCcsICctaW1hZScsICc8aW5maWxlLm1hZT4nLCAnLW9tYWUnLCAnPG91dGZpbGUubWFlPic=

>  <s_epik_input>  (1) 
W0NIMl0xW0NIXT1bQ0hdW0NIMl1OMVtDSDNd

>  <s_glide_docking_method>  (1) 
confgen

>  <s_i_glide_gridfile>  (1) 
gpcr_5ht2c_6bqh_protein_autoprepared_prepared

>  <s_lp_Force_Field>  (1) 
S-OPLS

>  <s_lp_Variant>  (1) 
Pocket2Mol_26_num_sample_100-1

>  <s_m_source_file>  (1) 
generated__ligand_Pocket2Mol_2026-05-06_prepared.sdf

>  <GenAI_Model>  (1) 
Pocket2Mol

>  <Protein>  (1) 
GPCR_5HT2C

$$$$
Pocket2Mol_13_num_sample_100
     RDKit          3D

  0  0  0  0  0  0  0  0  0  0999 V3000
M  V30 BEGIN CTAB
M  V30 COUNTS 11 11 0 0 1
M  V30 BEGIN ATOM
M  V30 1 C 39.452201 28.625334 51.308190 0
M  V30 2 C 39.067410 28.757384 52.552466 0
M  V30 3 C 40.157359 29.770667 50.926527 0
M  V30 4 C 39.467381 30.059071 53.243611 0
M  V30 5 N 40.170573 30.573695 52.005402 0
M  V30 6 O 40.667315 30.021503 49.840900 0
M  V30 7 H 39.256308 27.772572 50.674722 0
M  V30 8 H 38.604474 30.666110 53.516601 0
M  V30 9 H 38.501896 28.006009 53.083963 0
M  V30 10 H 40.138203 29.913747 54.091144 0
M  V30 11 H 40.617233 31.480611 51.999565 0
M  V30 END ATOM
M  V30 BEGIN BOND
M  V30 1 2 2 1
M  V30 2 1 3 1
M  V30 3 1 4 2
M  V30 4 1 5 3
M  V30 5 1 5 4
M  V30 6 2 6 3
M  V30 7 1 7 1
M  V30 8 1 8 4
M  V30 9 1 9 2
M  V30 10 1 10 4
M  V30 11 1 11 5
M  V30 END BOND
M  V30 END CTAB
M  END
>  <i_epik_Tot_Q>  (1) 
0

>  <i_epik_Tot_abs_Q>  (1) 
0

>  <i_i_glide_confnum>  (1) 
1

>  <i_i_glide_lignum>  (1) 
16

>  <i_i_glide_posenum>  (1) 
363

>  <i_i_glide_rotatable_bonds>  (1) 
0

>  <i_lp_mmshare_version>  (1) 
72125

>  <i_m_source_file_index>  (1) 
14

>  <i_f3d_flags>  (1) 
0

>  <num_sample>  (1) 
100

>  <b_lp_Chiralities_Consistent>  (1) 
1

>  <r_epik_Charging_Adjusted_Penalty>  (1) 
0

>  <r_epik_Ionization_Penalty>  (1) 
3.8544596149973334e-06

>  <r_epik_Ionization_Penalty_Charging>  (1) 
0

>  <r_epik_Ionization_Penalty_Neutral>  (1) 
3.8544596149973334e-06

>  <r_epik_State_Penalty>  (1) 
-0

>  <r_glide_ring_energy>  (1) 
0

>  <r_i_docking_score>  (1) 
-4.4972188007453928

>  <r_i_glide_ecoul>  (1) 
-0.88045827833978718

>  <r_i_glide_eff_state_penalty>  (1) 
-0

>  <r_i_glide_einternal>  (1) 
0

>  <r_i_glide_emodel>  (1) 
-21.271454056604103

>  <r_i_glide_emodel_strain>  (1) 
0

>  <r_i_glide_energy>  (1) 
-16.512798566237642

>  <r_i_glide_erotb>  (1) 
0

>  <r_i_glide_esite>  (1) 
0

>  <r_i_glide_evdw>  (1) 
-15.632340287897854

>  <r_i_glide_gscore>  (1) 
-4.4972188007453928

>  <r_i_glide_gscore_strain>  (1) 
0

>  <r_i_glide_hbond>  (1) 
0

>  <r_i_glide_ligand_efficiency>  (1) 
-0.7495364667908988

>  <r_i_glide_ligand_efficiency_ln>  (1) 
-1.6108904976648692

>  <r_i_glide_ligand_efficiency_sa>  (1) 
-1.3619981488843855

>  <r_i_glide_lipo>  (1) 
-0.88353304459953153

>  <r_i_glide_metal>  (1) 
-0

>  <r_i_glide_rewards>  (1) 
-2.7000000000000002

>  <r_lp_Energy>  (1) 
3.204942

>  <r_lp_tautomer_probability>  (1) 
1

>  <s_epik_cmdline>  (1) 
J2VwaWtfcHl0aG9uJywgJy1waHQnLCAnMS4wJywgJy1waCcsICc3LjQnLCAnLXRuJywgJzgnLCAnLW1hJywgJzUwMCcsICctaW1hZScsICc8aW5maWxlLm1hZT4nLCAnLW9tYWUnLCAnPG91dGZpbGUubWFlPic=

>  <s_epik_input>  (1) 
Tz1DMVtDSDJdW0NIXT1bQ0hdW05IXTE=

>  <s_glide_docking_method>  (1) 
confgen

>  <s_i_glide_gridfile>  (1) 
gpcr_5ht2c_6bqh_protein_autoprepared_prepared

>  <s_lp_Force_Field>  (1) 
S-OPLS

>  <s_lp_Variant>  (1) 
Pocket2Mol_13_num_sample_100-1

>  <s_m_source_file>  (1) 
generated__ligand_Pocket2Mol_2026-05-06_prepared.sdf

>  <GenAI_Model>  (1) 
Pocket2Mol

>  <Protein>  (1) 
GPCR_5HT2C

$$$$
Pocket2Mol_14_num_sample_100
     RDKit          3D

  0  0  0  0  0  0  0  0  0  0999 V3000
M  V30 BEGIN CTAB
M  V30 COUNTS 10 10 0 0 1
M  V30 BEGIN ATOM
M  V30 1 C 40.232122 29.886293 49.853537 0
M  V30 2 C 40.267160 30.632708 51.176091 0
M  V30 3 O 39.867464 28.584022 50.253559 0
M  V30 4 O 39.701430 29.700540 52.071189 0
M  V30 5 C 39.502881 28.504823 51.524448 0
M  V30 6 O 39.066067 27.508661 52.094054 0
M  V30 7 H 41.192279 29.907165 49.339285 0
M  V30 8 H 39.467402 30.295109 49.193286 0
M  V30 9 H 41.290681 30.868757 51.457985 0
M  V30 10 H 39.691253 31.557432 51.142026 0
M  V30 END ATOM
M  V30 BEGIN BOND
M  V30 1 1 2 1
M  V30 2 1 3 1
M  V30 3 1 4 2
M  V30 4 1 5 3
M  V30 5 1 5 4
M  V30 6 2 6 5
M  V30 7 1 7 1
M  V30 8 1 8 1
M  V30 9 1 9 2
M  V30 10 1 10 2
M  V30 END BOND
M  V30 END CTAB
M  END
>  <i_epik_Tot_Q>  (1) 
0

>  <i_epik_Tot_abs_Q>  (1) 
0

>  <i_i_glide_confnum>  (1) 
2

>  <i_i_glide_lignum>  (1) 
17

>  <i_i_glide_posenum>  (1) 
386

>  <i_i_glide_rotatable_bonds>  (1) 
0

>  <i_lp_mmshare_version>  (1) 
72125

>  <i_m_source_file_index>  (1) 
15

>  <i_f3d_flags>  (1) 
0

>  <num_sample>  (1) 
100

>  <b_lp_Chiralities_Consistent>  (1) 
1

>  <r_epik_Charging_Adjusted_Penalty>  (1) 
0

>  <r_epik_Ionization_Penalty>  (1) 
0

>  <r_epik_Ionization_Penalty_Charging>  (1) 
0

>  <r_epik_Ionization_Penalty_Neutral>  (1) 
0

>  <r_epik_State_Penalty>  (1) 
-0

>  <r_glide_ring_energy>  (1) 
0.00053108536261990756

>  <r_i_docking_score>  (1) 
-4.4963694448643237

>  <r_i_glide_ecoul>  (1) 
-0.45200807421101896

>  <r_i_glide_eff_state_penalty>  (1) 
-0

>  <r_i_glide_einternal>  (1) 
0

>  <r_i_glide_emodel>  (1) 
-20.436107815120501

>  <r_i_glide_emodel_strain>  (1) 
0

>  <r_i_glide_energy>  (1) 
-15.823372748864438

>  <r_i_glide_erotb>  (1) 
0

>  <r_i_glide_esite>  (1) 
0

>  <r_i_glide_evdw>  (1) 
-15.371364674653419

>  <r_i_glide_gscore>  (1) 
-4.4963694448643237

>  <r_i_glide_gscore_strain>  (1) 
0

>  <r_i_glide_hbond>  (1) 
0

>  <r_i_glide_ligand_efficiency>  (1) 
-0.74939490747738724

>  <r_i_glide_ligand_efficiency_ln>  (1) 
-1.6105862608957524

>  <r_i_glide_ligand_efficiency_sa>  (1) 
-1.3617409185406966

>  <r_i_glide_lipo>  (1) 
-0.66000000000000003

>  <r_i_glide_metal>  (1) 
-0

>  <r_i_glide_rewards>  (1) 
-3

>  <r_lp_Energy>  (1) 
-6.8415979999999994

>  <r_lp_tautomer_probability>  (1) 
1

>  <s_epik_Chemistry_Notes>  (1) 
This compound has an ester and may undergo hydrolysis at high or low pH.

>  <s_epik_cmdline>  (1) 
J2VwaWtfcHl0aG9uJywgJy1waHQnLCAnMS4wJywgJy1waCcsICc3LjQnLCAnLXRuJywgJzgnLCAnLW1hJywgJzUwMCcsICctaW1hZScsICc8aW5maWxlLm1hZT4nLCAnLW9tYWUnLCAnPG91dGZpbGUubWFlPic=

>  <s_epik_input>  (1) 
TzFbQ0gyXVtDSDJdT0MxPU8=

>  <s_glide_docking_method>  (1) 
confgen

>  <s_i_glide_gridfile>  (1) 
gpcr_5ht2c_6bqh_protein_autoprepared_prepared

>  <s_lp_Force_Field>  (1) 
S-OPLS

>  <s_lp_Variant>  (1) 
Pocket2Mol_14_num_sample_100-1

>  <s_m_source_file>  (1) 
generated__ligand_Pocket2Mol_2026-05-06_prepared.sdf

>  <GenAI_Model>  (1) 
Pocket2Mol

>  <Protein>  (1) 
GPCR_5HT2C

$$$$
Pocket2Mol_9_num_sample_100
     RDKit          3D

  0  0  0  0  0  0  0  0  0  0999 V3000
M  V30 BEGIN CTAB
M  V30 COUNTS 11 11 0 0 1
M  V30 BEGIN ATOM
M  V30 1 C 39.067298 28.750758 52.549780 0
M  V30 2 C 39.467381 30.050748 53.243746 0
M  V30 3 C 39.449837 28.622158 51.304483 0
M  V30 4 C 40.155982 29.768260 50.925566 0
M  V30 5 N 40.168980 30.568764 52.006497 0
M  V30 6 O 40.667403 30.021433 49.840783 0
M  V30 7 H 38.501384 27.998301 53.079602 0
M  V30 8 H 40.617263 31.474865 52.003910 0
M  V30 9 H 38.604364 30.655740 53.523218 0
M  V30 10 H 39.251420 27.771361 50.668343 0
M  V30 11 H 40.142367 29.904597 54.087089 0
M  V30 END ATOM
M  V30 BEGIN BOND
M  V30 1 1 2 1
M  V30 2 2 3 1
M  V30 3 1 4 3
M  V30 4 1 5 2
M  V30 5 1 5 4
M  V30 6 2 6 4
M  V30 7 1 7 1
M  V30 8 1 8 5
M  V30 9 1 9 2
M  V30 10 1 10 3
M  V30 11 1 11 2
M  V30 END BOND
M  V30 END CTAB
M  END
>  <i_epik_Tot_Q>  (1) 
0

>  <i_epik_Tot_abs_Q>  (1) 
0

>  <i_i_glide_confnum>  (1) 
1

>  <i_i_glide_lignum>  (1) 
12

>  <i_i_glide_posenum>  (1) 
363

>  <i_i_glide_rotatable_bonds>  (1) 
0

>  <i_lp_mmshare_version>  (1) 
72125

>  <i_m_source_file_index>  (1) 
10

>  <i_f3d_flags>  (1) 
0

>  <num_sample>  (1) 
100

>  <b_lp_Chiralities_Consistent>  (1) 
1

>  <r_epik_Charging_Adjusted_Penalty>  (1) 
0

>  <r_epik_Ionization_Penalty>  (1) 
3.8544596149973334e-06

>  <r_epik_Ionization_Penalty_Charging>  (1) 
0

>  <r_epik_Ionization_Penalty_Neutral>  (1) 
3.8544596149973334e-06

>  <r_epik_State_Penalty>  (1) 
-0

>  <r_glide_ring_energy>  (1) 
0

>  <r_i_docking_score>  (1) 
-4.4961794419179766

>  <r_i_glide_ecoul>  (1) 
-0.87632802781248598

>  <r_i_glide_eff_state_penalty>  (1) 
-0

>  <r_i_glide_einternal>  (1) 
0

>  <r_i_glide_emodel>  (1) 
-21.26292980360509

>  <r_i_glide_emodel_strain>  (1) 
0

>  <r_i_glide_energy>  (1) 
-16.505724876716318

>  <r_i_glide_erotb>  (1) 
0

>  <r_i_glide_esite>  (1) 
0

>  <r_i_glide_evdw>  (1) 
-15.629396848903832

>  <r_i_glide_gscore>  (1) 
-4.4961794419179766

>  <r_i_glide_gscore_strain>  (1) 
0

>  <r_i_glide_hbond>  (1) 
0

>  <r_i_glide_ligand_efficiency>  (1) 
-0.74936324031966273

>  <r_i_glide_ligand_efficiency_ln>  (1) 
-1.6105182024013007

>  <r_i_glide_ligand_efficiency_sa>  (1) 
-1.3616833754962789

>  <r_i_glide_lipo>  (1) 
-0.88326039530091138

>  <r_i_glide_metal>  (1) 
-0

>  <r_i_glide_rewards>  (1) 
-2.7000000000000002

>  <r_lp_Energy>  (1) 
3.2049569999999998

>  <r_lp_tautomer_probability>  (1) 
1

>  <s_epik_cmdline>  (1) 
J2VwaWtfcHl0aG9uJywgJy1waHQnLCAnMS4wJywgJy1waCcsICc3LjQnLCAnLXRuJywgJzgnLCAnLW1hJywgJzUwMCcsICctaW1hZScsICc8aW5maWxlLm1hZT4nLCAnLW9tYWUnLCAnPG91dGZpbGUubWFlPic=

>  <s_epik_input>  (1) 
TjE9W0NIXVtDSDJdW0NIMl1DMT1P

>  <s_glide_docking_method>  (1) 
confgen

>  <s_i_glide_gridfile>  (1) 
gpcr_5ht2c_6bqh_protein_autoprepared_prepared

>  <s_lp_Force_Field>  (1) 
S-OPLS

>  <s_lp_Variant>  (1) 
Pocket2Mol_9_num_sample_100-1

>  <s_m_source_file>  (1) 
generated__ligand_Pocket2Mol_2026-05-06_prepared.sdf

>  <GenAI_Model>  (1) 
Pocket2Mol

>  <Protein>  (1) 
GPCR_5HT2C

$$$$
Pocket2Mol_26_num_sample_100
     RDKit          3D

  0  0  0  0  0  0  0  0  0  0999 V3000
M  V30 BEGIN CTAB
M  V30 COUNTS 16 16 0 0 1
M  V30 BEGIN ATOM
M  V30 1 C 39.845711 29.152917 51.045657 0
M  V30 2 C 39.129660 27.898284 51.322716 0
M  V30 3 C 39.867403 30.021262 51.997332 0
M  V30 4 C 39.176351 29.645276 53.240651 0
M  V30 5 N 38.767512 28.231040 52.784299 0 CHG=1
M  V30 6 C 37.375204 27.885562 53.140186 0
M  V30 7 H 40.314388 29.312881 50.085136 0
M  V30 8 H 38.267105 27.801625 50.664652 0
M  V30 9 H 39.772690 27.022350 51.239967 0
M  V30 10 H 40.357447 30.981814 51.914237 0
M  V30 11 H 39.853676 29.624467 54.095264 0
M  V30 12 H 38.328086 30.301097 53.443020 0
M  V30 13 H 36.666844 28.421099 52.507642 0
M  V30 14 H 37.204772 26.815004 53.025731 0
M  V30 15 H 37.167174 28.140539 54.180030 0
M  V30 16 H 39.345019 27.613452 53.336977 0
M  V30 END ATOM
M  V30 BEGIN BOND
M  V30 1 1 2 1
M  V30 2 2 3 1
M  V30 3 1 4 3
M  V30 4 1 5 2
M  V30 5 1 5 4
M  V30 6 1 6 5
M  V30 7 1 7 1
M  V30 8 1 8 2
M  V30 9 1 9 2
M  V30 10 1 10 3
M  V30 11 1 11 4
M  V30 12 1 12 4
M  V30 13 1 13 6
M  V30 14 1 14 6
M  V30 15 1 15 6
M  V30 16 1 16 5
M  V30 END BOND
M  V30 END CTAB
M  END
>  <i_epik_Tot_Q>  (1) 
1

>  <i_epik_Tot_abs_Q>  (1) 
1

>  <i_i_glide_confnum>  (1) 
1

>  <i_i_glide_lignum>  (1) 
29

>  <i_i_glide_posenum>  (1) 
91

>  <i_i_glide_rotatable_bonds>  (1) 
0

>  <i_lp_mmshare_version>  (1) 
72125

>  <i_m_source_file_index>  (1) 
27

>  <i_f3d_flags>  (1) 
0

>  <num_sample>  (1) 
100

>  <b_lp_Chiralities_Consistent>  (1) 
1

>  <r_epik_Charging_Adjusted_Penalty>  (1) 
0.0014863909170882658

>  <r_epik_Ionization_Penalty>  (1) 
0.0014863909170882658

>  <r_epik_Ionization_Penalty_Charging>  (1) 
0.0014863909170882658

>  <r_epik_Ionization_Penalty_Neutral>  (1) 
0

>  <r_epik_State_Penalty>  (1) 
-0

>  <r_glide_ring_energy>  (1) 
0

>  <r_i_docking_score>  (1) 
-4.4897637652214257

>  <r_i_glide_ecoul>  (1) 
-0.58904681845251106

>  <r_i_glide_eff_state_penalty>  (1) 
-0

>  <r_i_glide_einternal>  (1) 
0

>  <r_i_glide_emodel>  (1) 
-18.168938481902668

>  <r_i_glide_emodel_strain>  (1) 
0

>  <r_i_glide_energy>  (1) 
-13.529038184916443

>  <r_i_glide_erotb>  (1) 
0

>  <r_i_glide_esite>  (1) 
0

>  <r_i_glide_evdw>  (1) 
-12.939991366463932

>  <r_i_glide_gscore>  (1) 
-4.4897637652214257

>  <r_i_glide_gscore_strain>  (1) 
0

>  <r_i_glide_hbond>  (1) 
0

>  <r_i_glide_ligand_efficiency>  (1) 
-0.74829396087023758

>  <r_i_glide_ligand_efficiency_ln>  (1) 
-1.6082201259490607

>  <r_i_glide_ligand_efficiency_sa>  (1) 
-1.3597403657892362

>  <r_i_glide_lipo>  (1) 
-1.5044071741303524

>  <r_i_glide_metal>  (1) 
-0

>  <r_i_glide_rewards>  (1) 
-2.25

>  <r_lp_Energy>  (1) 
6.8415840000000001

>  <r_lp_tautomer_probability>  (1) 
1

>  <s_epik_cmdline>  (1) 
J2VwaWtfcHl0aG9uJywgJy1waHQnLCAnMS4wJywgJy1waCcsICc3LjQnLCAnLXRuJywgJzgnLCAnLW1hJywgJzUwMCcsICctaW1hZScsICc8aW5maWxlLm1hZT4nLCAnLW9tYWUnLCAnPG91dGZpbGUubWFlPic=

>  <s_epik_input>  (1) 
W0NIMl0xW0NIXT1bQ0hdW0NIMl1OMVtDSDNd

>  <s_glide_docking_method>  (1) 
confgen

>  <s_i_glide_gridfile>  (1) 
gpcr_5ht2c_6bqh_protein_autoprepared_prepared

>  <s_lp_Force_Field>  (1) 
S-OPLS

>  <s_lp_Variant>  (1) 
Pocket2Mol_26_num_sample_100-1

>  <s_m_source_file>  (1) 
generated__ligand_Pocket2Mol_2026-05-06_prepared.sdf

>  <GenAI_Model>  (1) 
Pocket2Mol

>  <Protein>  (1) 
GPCR_5HT2C

$$$$
Pocket2Mol_88_num_sample_100
     RDKit          3D

  0  0  0  0  0  0  0  0  0  0999 V3000
M  V30 BEGIN CTAB
M  V30 COUNTS 15 15 0 0 1
M  V30 BEGIN ATOM
M  V30 1 C 40.332566 30.718434 51.458874 0
M  V30 2 C 40.605736 30.701889 49.967007 0
M  V30 3 C 40.189240 29.241036 51.793006 0
M  V30 4 C 39.541617 28.625607 50.566589 0
M  V30 5 N 39.867408 29.538964 49.453544 0 CHG=1
M  V30 6 H 39.467295 31.304268 51.688470 0
M  V30 7 H 41.084164 31.221293 52.043346 0
M  V30 8 H 40.299875 31.620311 49.470153 0
M  V30 9 H 41.670303 30.558218 49.784351 0
M  V30 10 H 41.188632 28.815309 51.853545 0
M  V30 11 H 39.658512 29.042041 52.725514 0
M  V30 12 H 39.919899 27.621339 50.366282 0
M  V30 13 H 38.459881 28.562154 50.684743 0
M  V30 14 H 40.402685 29.064546 48.742690 0
M  V30 15 H 38.978946 29.843868 49.053126 0
M  V30 END ATOM
M  V30 BEGIN BOND
M  V30 1 1 2 1
M  V30 2 1 3 1
M  V30 3 1 4 3
M  V30 4 1 5 2
M  V30 5 1 5 4
M  V30 6 1 6 1
M  V30 7 1 7 1
M  V30 8 1 8 2
M  V30 9 1 9 2
M  V30 10 1 10 3
M  V30 11 1 11 3
M  V30 12 1 12 4
M  V30 13 1 13 4
M  V30 14 1 14 5
M  V30 15 1 15 5
M  V30 END BOND
M  V30 END CTAB
M  END
>  <i_epik_Tot_Q>  (1) 
1

>  <i_epik_Tot_abs_Q>  (1) 
1

>  <i_i_glide_confnum>  (1) 
3

>  <i_i_glide_lignum>  (1) 
93

>  <i_i_glide_posenum>  (1) 
21

>  <i_i_glide_rotatable_bonds>  (1) 
0

>  <i_lp_mmshare_version>  (1) 
72125

>  <i_m_source_file_index>  (1) 
89

>  <i_f3d_flags>  (1) 
0

>  <num_sample>  (1) 
100

>  <b_lp_Chiralities_Consistent>  (1) 
1

>  <r_epik_Charging_Adjusted_Penalty>  (1) 
0.00011848530527437102

>  <r_epik_Ionization_Penalty>  (1) 
0.00011848530527437102

>  <r_epik_Ionization_Penalty_Charging>  (1) 
0.00011848530527437102

>  <r_epik_Ionization_Penalty_Neutral>  (1) 
0

>  <r_epik_State_Penalty>  (1) 
-0

>  <r_glide_ring_energy>  (1) 
2.3171021879061433

>  <r_i_docking_score>  (1) 
-4.4647773098027503

>  <r_i_glide_ecoul>  (1) 
-4.1422319998344701

>  <r_i_glide_eff_state_penalty>  (1) 
-0

>  <r_i_glide_einternal>  (1) 
0

>  <r_i_glide_emodel>  (1) 
-18.705480827491971

>  <r_i_glide_emodel_strain>  (1) 
0

>  <r_i_glide_energy>  (1) 
-11.217394327228302

>  <r_i_glide_erotb>  (1) 
0

>  <r_i_glide_esite>  (1) 
0

>  <r_i_glide_evdw>  (1) 
-7.0751623273938309

>  <r_i_glide_gscore>  (1) 
-4.4647773098027503

>  <r_i_glide_gscore_strain>  (1) 
0

>  <r_i_glide_hbond>  (1) 
0

>  <r_i_glide_ligand_efficiency>  (1) 
-0.89295546196055009

>  <r_i_glide_ligand_efficiency_ln>  (1) 
-1.7110111294573693

>  <r_i_glide_ligand_efficiency_sa>  (1) 
-1.526932361406119

>  <r_i_glide_lipo>  (1) 
-1.2396843934578887

>  <r_i_glide_metal>  (1) 
-0

>  <r_i_glide_rewards>  (1) 
-2.25

>  <r_lp_Energy>  (1) 
17.726251999999999

>  <r_lp_tautomer_probability>  (1) 
1

>  <s_epik_cmdline>  (1) 
J2VwaWtfcHl0aG9uJywgJy1waHQnLCAnMS4wJywgJy1waCcsICc3LjQnLCAnLXRuJywgJzgnLCAnLW1hJywgJzUwMCcsICctaW1hZScsICc8aW5maWxlLm1hZT4nLCAnLW9tYWUnLCAnPG91dGZpbGUubWFlPic=

>  <s_epik_input>  (1) 
W0NIMl0xW0NIMl1bTkhdW0NIMl1bQ0gyXTE=

>  <s_glide_docking_method>  (1) 
confgen

>  <s_i_glide_gridfile>  (1) 
gpcr_5ht2c_6bqh_protein_autoprepared_prepared

>  <s_lp_Force_Field>  (1) 
S-OPLS

>  <s_lp_Variant>  (1) 
Pocket2Mol_88_num_sample_100-1

>  <s_m_source_file>  (1) 
generated__ligand_Pocket2Mol_2026-05-06_prepared.sdf

>  <GenAI_Model>  (1) 
Pocket2Mol

>  <Protein>  (1) 
GPCR_5HT2C

$$$$
Pocket2Mol_13_num_sample_100
     RDKit          3D

  0  0  0  0  0  0  0  0  0  0999 V3000
M  V30 BEGIN CTAB
M  V30 COUNTS 11 11 0 0 1
M  V30 BEGIN ATOM
M  V30 1 C 39.467946 29.485351 52.591718 0
M  V30 2 C 38.648998 29.363959 53.605217 0
M  V30 3 C 39.258948 28.421418 51.709044 0
M  V30 4 C 37.717080 28.157195 53.573456 0
M  V30 5 N 38.278220 27.677366 52.253210 0
M  V30 6 O 39.834592 28.187578 50.651621 0
M  V30 7 H 40.189591 30.277413 52.456046 0
M  V30 8 H 37.898891 27.460590 54.392170 0
M  V30 9 H 38.611965 30.063049 54.428403 0
M  V30 10 H 36.667388 28.437979 53.504573 0
M  V30 11 H 37.922214 26.840789 51.810065 0
M  V30 END ATOM
M  V30 BEGIN BOND
M  V30 1 2 2 1
M  V30 2 1 3 1
M  V30 3 1 4 2
M  V30 4 1 5 3
M  V30 5 1 5 4
M  V30 6 2 6 3
M  V30 7 1 7 1
M  V30 8 1 8 4
M  V30 9 1 9 2
M  V30 10 1 10 4
M  V30 11 1 11 5
M  V30 END BOND
M  V30 END CTAB
M  END
>  <i_epik_Tot_Q>  (1) 
0

>  <i_epik_Tot_abs_Q>  (1) 
0

>  <i_i_glide_confnum>  (1) 
1

>  <i_i_glide_lignum>  (1) 
16

>  <i_i_glide_posenum>  (1) 
244

>  <i_i_glide_rotatable_bonds>  (1) 
0

>  <i_lp_mmshare_version>  (1) 
72125

>  <i_m_source_file_index>  (1) 
14

>  <i_f3d_flags>  (1) 
0

>  <num_sample>  (1) 
100

>  <b_lp_Chiralities_Consistent>  (1) 
1

>  <r_epik_Charging_Adjusted_Penalty>  (1) 
0

>  <r_epik_Ionization_Penalty>  (1) 
3.8544596149973334e-06

>  <r_epik_Ionization_Penalty_Charging>  (1) 
0

>  <r_epik_Ionization_Penalty_Neutral>  (1) 
3.8544596149973334e-06

>  <r_epik_State_Penalty>  (1) 
-0

>  <r_glide_ring_energy>  (1) 
0

>  <r_i_docking_score>  (1) 
-4.461521076589066

>  <r_i_glide_ecoul>  (1) 
-0.85318331816812587

>  <r_i_glide_eff_state_penalty>  (1) 
-0

>  <r_i_glide_einternal>  (1) 
0

>  <r_i_glide_emodel>  (1) 
-21.118535947845366

>  <r_i_glide_emodel_strain>  (1) 
0

>  <r_i_glide_energy>  (1) 
-16.397653396394382

>  <r_i_glide_erotb>  (1) 
0

>  <r_i_glide_esite>  (1) 
0

>  <r_i_glide_evdw>  (1) 
-15.544470078226258

>  <r_i_glide_gscore>  (1) 
-4.461521076589066

>  <r_i_glide_gscore_strain>  (1) 
0

>  <r_i_glide_hbond>  (1) 
-0.056450921442827248

>  <r_i_glide_ligand_efficiency>  (1) 
-0.74358684609817771

>  <r_i_glide_ligand_efficiency_ln>  (1) 
-1.598103678259472

>  <r_i_glide_ligand_efficiency_sa>  (1) 
-1.3511869706041018

>  <r_i_glide_lipo>  (1) 
-0.79986915350970689

>  <r_i_glide_metal>  (1) 
-0

>  <r_i_glide_rewards>  (1) 
-2.7000000000000002

>  <r_lp_Energy>  (1) 
3.204942

>  <r_lp_tautomer_probability>  (1) 
1

>  <s_epik_cmdline>  (1) 
J2VwaWtfcHl0aG9uJywgJy1waHQnLCAnMS4wJywgJy1waCcsICc3LjQnLCAnLXRuJywgJzgnLCAnLW1hJywgJzUwMCcsICctaW1hZScsICc8aW5maWxlLm1hZT4nLCAnLW9tYWUnLCAnPG91dGZpbGUubWFlPic=

>  <s_epik_input>  (1) 
Tz1DMVtDSDJdW0NIXT1bQ0hdW05IXTE=

>  <s_glide_docking_method>  (1) 
confgen

>  <s_i_glide_gridfile>  (1) 
gpcr_5ht2c_6bqh_protein_autoprepared_prepared

>  <s_lp_Force_Field>  (1) 
S-OPLS

>  <s_lp_Variant>  (1) 
Pocket2Mol_13_num_sample_100-1

>  <s_m_source_file>  (1) 
generated__ligand_Pocket2Mol_2026-05-06_prepared.sdf

>  <GenAI_Model>  (1) 
Pocket2Mol

>  <Protein>  (1) 
GPCR_5HT2C

$$$$
Pocket2Mol_15_num_sample_100
     RDKit          3D

  0  0  0  0  0  0  0  0  0  0999 V3000
M  V30 BEGIN CTAB
M  V30 COUNTS 12 12 0 0 1
M  V30 BEGIN ATOM
M  V30 1 C 36.779893 34.683408 60.181589 0
M  V30 2 O 36.923488 33.518362 60.978564 0
M  V30 3 C 35.681521 34.317953 59.172470 0
M  V30 4 C 35.888392 32.698560 60.850660 0
M  V30 5 C 34.873838 33.217489 59.853288 0
M  V30 6 O 35.741168 31.637022 61.453485 0
M  V30 7 H 36.468105 35.514224 60.815234 0
M  V30 8 H 37.716124 34.955209 59.694461 0
M  V30 9 H 35.070760 35.177628 58.899745 0
M  V30 10 H 36.126810 33.926129 58.256456 0
M  V30 11 H 34.550309 32.444174 59.156025 0
M  V30 12 H 34.007083 33.617984 60.379168 0
M  V30 END ATOM
M  V30 BEGIN BOND
M  V30 1 1 2 1
M  V30 2 1 3 1
M  V30 3 1 4 2
M  V30 4 1 5 3
M  V30 5 1 5 4
M  V30 6 2 6 4
M  V30 7 1 7 1
M  V30 8 1 8 1
M  V30 9 1 9 3
M  V30 10 1 10 3
M  V30 11 1 11 5
M  V30 12 1 12 5
M  V30 END BOND
M  V30 END CTAB
M  END
>  <i_epik_Tot_Q>  (1) 
0

>  <i_epik_Tot_abs_Q>  (1) 
0

>  <i_i_glide_confnum>  (1) 
2

>  <i_i_glide_lignum>  (1) 
18

>  <i_i_glide_posenum>  (1) 
398

>  <i_i_glide_rotatable_bonds>  (1) 
0

>  <i_lp_mmshare_version>  (1) 
72125

>  <i_m_source_file_index>  (1) 
16

>  <i_f3d_flags>  (1) 
0

>  <num_sample>  (1) 
100

>  <b_lp_Chiralities_Consistent>  (1) 
1

>  <r_epik_Charging_Adjusted_Penalty>  (1) 
0

>  <r_epik_Ionization_Penalty>  (1) 
0

>  <r_epik_Ionization_Penalty_Charging>  (1) 
0

>  <r_epik_Ionization_Penalty_Neutral>  (1) 
0

>  <r_epik_State_Penalty>  (1) 
-0

>  <r_glide_ring_energy>  (1) 
0.00053108536261990756

>  <r_i_docking_score>  (1) 
-4.458970063747854

>  <r_i_glide_ecoul>  (1) 
-3.4775797429626119

>  <r_i_glide_eff_state_penalty>  (1) 
-0

>  <r_i_glide_einternal>  (1) 
0

>  <r_i_glide_emodel>  (1) 
-19.926239509509212

>  <r_i_glide_emodel_strain>  (1) 
0

>  <r_i_glide_energy>  (1) 
-15.421331152668394

>  <r_i_glide_erotb>  (1) 
0

>  <r_i_glide_esite>  (1) 
0

>  <r_i_glide_evdw>  (1) 
-11.943751409705783

>  <r_i_glide_gscore>  (1) 
-4.458970063747854

>  <r_i_glide_gscore_strain>  (1) 
0

>  <r_i_glide_hbond>  (1) 
-0.32000000000000001

>  <r_i_glide_ligand_efficiency>  (1) 
-0.743161677291309

>  <r_i_glide_ligand_efficiency_ln>  (1) 
-1.5971899129908913

>  <r_i_glide_ligand_efficiency_sa>  (1) 
-1.3504143876097108

>  <r_i_glide_lipo>  (1) 
-0.1034386503386911

>  <r_i_glide_metal>  (1) 
-0

>  <r_i_glide_rewards>  (1) 
-2.9167068814794823

>  <r_lp_Energy>  (1) 
-1.1766760000000001

>  <r_lp_tautomer_probability>  (1) 
1

>  <s_epik_Chemistry_Notes>  (1) 
This compound has an ester and may undergo hydrolysis at high or low pH.

>  <s_epik_cmdline>  (1) 
J2VwaWtfcHl0aG9uJywgJy1waHQnLCAnMS4wJywgJy1waCcsICc3LjQnLCAnLXRuJywgJzgnLCAnLW1hJywgJzUwMCcsICctaW1hZScsICc8aW5maWxlLm1hZT4nLCAnLW9tYWUnLCAnPG91dGZpbGUubWFlPic=

>  <s_epik_input>  (1) 
W0NIMl0xW0NIMl1bQ0gyXU9DMT1P

>  <s_glide_docking_method>  (1) 
confgen

>  <s_i_glide_gridfile>  (1) 
gpcr_5ht2c_6bqh_protein_autoprepared_prepared

>  <s_lp_Force_Field>  (1) 
S-OPLS

>  <s_lp_Variant>  (1) 
Pocket2Mol_15_num_sample_100-1

>  <s_m_source_file>  (1) 
generated__ligand_Pocket2Mol_2026-05-06_prepared.sdf

>  <GenAI_Model>  (1) 
Pocket2Mol

>  <Protein>  (1) 
GPCR_5HT2C

$$$$
Pocket2Mol_55_num_sample_100
     RDKit          3D

  0  0  0  0  0  0  0  0  0  0999 V3000
M  V30 BEGIN CTAB
M  V30 COUNTS 11 11 0 0 1
M  V30 BEGIN ATOM
M  V30 1 C 41.071348 30.421428 50.253049 0
M  V30 2 O 40.266917 29.432337 49.662561 0
M  V30 3 C 40.262537 30.776279 51.480614 0
M  V30 4 O 39.718716 29.531352 51.863395 0
M  V30 5 C 39.696081 28.742803 50.720872 0
M  V30 6 H 42.041068 30.021428 50.543240 0
M  V30 7 H 41.231308 31.255498 49.574732 0
M  V30 8 H 40.850664 31.221439 52.279545 0
M  V30 9 H 39.467668 31.470009 51.211752 0
M  V30 10 H 38.670592 28.468263 50.469853 0
M  V30 11 H 40.267403 27.834553 50.910584 0
M  V30 END ATOM
M  V30 BEGIN BOND
M  V30 1 1 2 1
M  V30 2 1 3 1
M  V30 3 1 4 3
M  V30 4 1 5 2
M  V30 5 1 5 4
M  V30 6 1 6 1
M  V30 7 1 7 1
M  V30 8 1 8 3
M  V30 9 1 9 3
M  V30 10 1 10 5
M  V30 11 1 11 5
M  V30 END BOND
M  V30 END CTAB
M  END
>  <i_epik_Tot_Q>  (1) 
0

>  <i_epik_Tot_abs_Q>  (1) 
0

>  <i_i_glide_confnum>  (1) 
3

>  <i_i_glide_lignum>  (1) 
59

>  <i_i_glide_posenum>  (1) 
389

>  <i_i_glide_rotatable_bonds>  (1) 
0

>  <i_lp_mmshare_version>  (1) 
72125

>  <i_m_source_file_index>  (1) 
56

>  <i_f3d_flags>  (1) 
0

>  <num_sample>  (1) 
100

>  <b_lp_Chiralities_Consistent>  (1) 
1

>  <r_epik_Charging_Adjusted_Penalty>  (1) 
0

>  <r_epik_Ionization_Penalty>  (1) 
7.9724310449397378e-14

>  <r_epik_Ionization_Penalty_Charging>  (1) 
0

>  <r_epik_Ionization_Penalty_Neutral>  (1) 
7.9724310449397378e-14

>  <r_epik_State_Penalty>  (1) 
-0

>  <r_glide_ring_energy>  (1) 
0.2805525668492585

>  <r_i_docking_score>  (1) 
-4.4542609509176474

>  <r_i_glide_ecoul>  (1) 
-0.93759497819189541

>  <r_i_glide_eff_state_penalty>  (1) 
-0

>  <r_i_glide_einternal>  (1) 
0

>  <r_i_glide_emodel>  (1) 
-16.446861978966758

>  <r_i_glide_emodel_strain>  (1) 
0

>  <r_i_glide_energy>  (1) 
-12.910984166760992

>  <r_i_glide_erotb>  (1) 
0

>  <r_i_glide_esite>  (1) 
0

>  <r_i_glide_evdw>  (1) 
-11.973389188569096

>  <r_i_glide_gscore>  (1) 
-4.4542609509176474

>  <r_i_glide_gscore_strain>  (1) 
0

>  <r_i_glide_hbond>  (1) 
0

>  <r_i_glide_ligand_efficiency>  (1) 
-0.89085219018352946

>  <r_i_glide_ligand_efficiency_ln>  (1) 
-1.7069810052551448

>  <r_i_glide_ligand_efficiency_sa>  (1) 
-1.5233358172580898

>  <r_i_glide_lipo>  (1) 
-0.61495224476040788

>  <r_i_glide_metal>  (1) 
-0

>  <r_i_glide_rewards>  (1) 
-3.1000000000000001

>  <r_lp_Energy>  (1) 
-12.242987999999999

>  <r_lp_tautomer_probability>  (1) 
1

>  <s_epik_Chemistry_Notes>  (1) 
This compound contains an acetal/aminal-like group ( X-CH(R)-Y where X, Y are N, S, or O) that may be acid/base labile, releasing an aldehyde.

>  <s_epik_cmdline>  (1) 
J2VwaWtfcHl0aG9uJywgJy1waHQnLCAnMS4wJywgJy1waCcsICc3LjQnLCAnLXRuJywgJzgnLCAnLW1hJywgJzUwMCcsICctaW1hZScsICc8aW5maWxlLm1hZT4nLCAnLW9tYWUnLCAnPG91dGZpbGUubWFlPic=

>  <s_epik_input>  (1) 
W0NIMl0xT1tDSDJdT1tDSDJdMQ==

>  <s_glide_docking_method>  (1) 
confgen

>  <s_i_glide_gridfile>  (1) 
gpcr_5ht2c_6bqh_protein_autoprepared_prepared

>  <s_lp_Force_Field>  (1) 
S-OPLS

>  <s_lp_Variant>  (1) 
Pocket2Mol_55_num_sample_100-1

>  <s_m_source_file>  (1) 
generated__ligand_Pocket2Mol_2026-05-06_prepared.sdf

>  <GenAI_Model>  (1) 
Pocket2Mol

>  <Protein>  (1) 
GPCR_5HT2C

$$$$
Pocket2Mol_19_num_sample_100
     RDKit          3D

  0  0  0  0  0  0  0  0  0  0999 V3000
M  V30 BEGIN CTAB
M  V30 COUNTS 10 10 0 0 1
M  V30 BEGIN ATOM
M  V30 1 C 39.467402 28.196857 50.653773 0
M  V30 2 O 38.641677 27.630200 51.768498 0
M  V30 3 C 38.657312 28.497650 52.872190 0
M  V30 4 C 39.913281 29.447813 51.345151 0
M  V30 5 C 39.467369 29.598673 52.544106 0
M  V30 6 O 38.065510 28.321006 53.934536 0
M  V30 7 H 38.857645 28.421301 49.779583 0
M  V30 8 H 40.561655 30.155400 50.849101 0
M  V30 9 H 39.663853 30.422515 53.214205 0
M  V30 10 H 40.293152 27.543338 50.382978 0
M  V30 END ATOM
M  V30 BEGIN BOND
M  V30 1 1 2 1
M  V30 2 1 3 2
M  V30 3 1 4 1
M  V30 4 1 5 3
M  V30 5 2 5 4
M  V30 6 2 6 3
M  V30 7 1 7 1
M  V30 8 1 8 4
M  V30 9 1 9 5
M  V30 10 1 10 1
M  V30 END BOND
M  V30 END CTAB
M  END
>  <i_epik_Tot_Q>  (1) 
0

>  <i_epik_Tot_abs_Q>  (1) 
0

>  <i_i_glide_confnum>  (1) 
1

>  <i_i_glide_lignum>  (1) 
22

>  <i_i_glide_posenum>  (1) 
349

>  <i_i_glide_rotatable_bonds>  (1) 
0

>  <i_lp_mmshare_version>  (1) 
72125

>  <i_m_source_file_index>  (1) 
20

>  <i_f3d_flags>  (1) 
0

>  <num_sample>  (1) 
100

>  <b_lp_Chiralities_Consistent>  (1) 
1

>  <r_epik_Charging_Adjusted_Penalty>  (1) 
0

>  <r_epik_Ionization_Penalty>  (1) 
0

>  <r_epik_Ionization_Penalty_Charging>  (1) 
0

>  <r_epik_Ionization_Penalty_Neutral>  (1) 
0

>  <r_epik_State_Penalty>  (1) 
-0

>  <r_glide_ring_energy>  (1) 
0

>  <r_i_docking_score>  (1) 
-4.4502089211183558

>  <r_i_glide_ecoul>  (1) 
-0.050817018867937658

>  <r_i_glide_eff_state_penalty>  (1) 
-0

>  <r_i_glide_einternal>  (1) 
0

>  <r_i_glide_emodel>  (1) 
-19.444892057307847

>  <r_i_glide_emodel_strain>  (1) 
0

>  <r_i_glide_energy>  (1) 
-15.062933567304512

>  <r_i_glide_erotb>  (1) 
0

>  <r_i_glide_esite>  (1) 
0

>  <r_i_glide_evdw>  (1) 
-15.012116548436575

>  <r_i_glide_gscore>  (1) 
-4.4502089211183558

>  <r_i_glide_gscore_strain>  (1) 
0

>  <r_i_glide_hbond>  (1) 
0

>  <r_i_glide_ligand_efficiency>  (1) 
-0.74170148685305926

>  <r_i_glide_ligand_efficiency_ln>  (1) 
-1.5940516975657921

>  <r_i_glide_ligand_efficiency_sa>  (1) 
-1.3477610454949107

>  <r_i_glide_lipo>  (1) 
-0.89198054086633638

>  <r_i_glide_metal>  (1) 
-0

>  <r_i_glide_rewards>  (1) 
-2.7999999999999998

>  <r_lp_Energy>  (1) 
-7.0611199999999998

>  <r_lp_tautomer_probability>  (1) 
1

>  <s_epik_Chemistry_Notes>  (1) 
This compound has an ester and may undergo hydrolysis at high or low pH.

>  <s_epik_cmdline>  (1) 
J2VwaWtfcHl0aG9uJywgJy1waHQnLCAnMS4wJywgJy1waCcsICc3LjQnLCAnLXRuJywgJzgnLCAnLW1hJywgJzUwMCcsICctaW1hZScsICc8aW5maWxlLm1hZT4nLCAnLW9tYWUnLCAnPG91dGZpbGUubWFlPic=

>  <s_epik_input>  (1) 
W0NIMl0xW0NIXT1bQ0hdT0MxPU8=

>  <s_glide_docking_method>  (1) 
confgen

>  <s_i_glide_gridfile>  (1) 
gpcr_5ht2c_6bqh_protein_autoprepared_prepared

>  <s_lp_Force_Field>  (1) 
S-OPLS

>  <s_lp_Variant>  (1) 
Pocket2Mol_19_num_sample_100-1

>  <s_m_source_file>  (1) 
generated__ligand_Pocket2Mol_2026-05-06_prepared.sdf

>  <GenAI_Model>  (1) 
Pocket2Mol

>  <Protein>  (1) 
GPCR_5HT2C

$$$$
Pocket2Mol_12_num_sample_100
     RDKit          3D

  0  0  0  0  0  0  0  0  0  0999 V3000
M  V30 BEGIN CTAB
M  V30 COUNTS 14 14 0 0 1
M  V30 BEGIN ATOM
M  V30 1 C 36.699281 33.952920 60.667952 0
M  V30 2 O 37.265371 33.398678 59.488232 0
M  V30 3 C 37.604081 32.027662 59.664314 0
M  V30 4 C 35.444272 33.152616 61.053499 0
M  V30 5 O 35.805974 31.791526 61.262993 0
M  V30 6 C 36.351100 31.230509 60.073334 0
M  V30 7 H 37.430264 33.939621 61.476971 0
M  V30 8 H 36.440922 34.995390 60.481139 0
M  V30 9 H 38.009238 31.640234 58.728914 0
M  V30 10 H 38.386683 31.931541 60.418934 0
M  V30 11 H 35.003159 33.558186 61.963591 0
M  V30 12 H 34.683509 33.227302 60.274649 0
M  V30 13 H 35.607773 31.239607 59.275321 0
M  V30 14 H 36.609129 30.187192 60.253461 0
M  V30 END ATOM
M  V30 BEGIN BOND
M  V30 1 1 2 1
M  V30 2 1 3 2
M  V30 3 1 4 1
M  V30 4 1 5 4
M  V30 5 1 6 3
M  V30 6 1 6 5
M  V30 7 1 7 1
M  V30 8 1 8 1
M  V30 9 1 9 3
M  V30 10 1 10 3
M  V30 11 1 11 4
M  V30 12 1 12 4
M  V30 13 1 13 6
M  V30 14 1 14 6
M  V30 END BOND
M  V30 END CTAB
M  END
>  <i_epik_Tot_Q>  (1) 
0

>  <i_epik_Tot_abs_Q>  (1) 
0

>  <i_i_glide_confnum>  (1) 
2

>  <i_i_glide_lignum>  (1) 
15

>  <i_i_glide_posenum>  (1) 
61

>  <i_i_glide_rotatable_bonds>  (1) 
0

>  <i_lp_mmshare_version>  (1) 
72125

>  <i_m_source_file_index>  (1) 
13

>  <i_f3d_flags>  (1) 
0

>  <num_sample>  (1) 
100

>  <b_lp_Chiralities_Consistent>  (1) 
1

>  <r_epik_Charging_Adjusted_Penalty>  (1) 
0

>  <r_epik_Ionization_Penalty>  (1) 
8.3894707547109138e-13

>  <r_epik_Ionization_Penalty_Charging>  (1) 
0

>  <r_epik_Ionization_Penalty_Neutral>  (1) 
8.3894707547109138e-13

>  <r_epik_State_Penalty>  (1) 
-0

>  <r_glide_ring_energy>  (1) 
0.00013676017923054334

>  <r_i_docking_score>  (1) 
-4.4475081845864093

>  <r_i_glide_ecoul>  (1) 
-1.7916729718852697

>  <r_i_glide_eff_state_penalty>  (1) 
-0

>  <r_i_glide_einternal>  (1) 
0

>  <r_i_glide_emodel>  (1) 
-16.821570135251914

>  <r_i_glide_emodel_strain>  (1) 
7.1385475308716195e-10

>  <r_i_glide_energy>  (1) 
-13.098018486777523

>  <r_i_glide_erotb>  (1) 
0

>  <r_i_glide_esite>  (1) 
0

>  <r_i_glide_evdw>  (1) 
-11.306345514892254

>  <r_i_glide_gscore>  (1) 
-4.4475081845864093

>  <r_i_glide_gscore_strain>  (1) 
0

>  <r_i_glide_hbond>  (1) 
-0.28897575889924176

>  <r_i_glide_ligand_efficiency>  (1) 
-0.74125136409773484

>  <r_i_glide_ligand_efficiency_ln>  (1) 
-1.593084301713207

>  <r_i_glide_ligand_efficiency_sa>  (1) 
-1.3469431181669083

>  <r_i_glide_lipo>  (1) 
-0.28777391319965945

>  <r_i_glide_metal>  (1) 
-0

>  <r_i_glide_rewards>  (1) 
-3.0366902909601046

>  <r_lp_Energy>  (1) 
4.964817

>  <r_lp_tautomer_probability>  (1) 
1

>  <s_epik_cmdline>  (1) 
J2VwaWtfcHl0aG9uJywgJy1waHQnLCAnMS4wJywgJy1waCcsICc3LjQnLCAnLXRuJywgJzgnLCAnLW1hJywgJzUwMCcsICctaW1hZScsICc8aW5maWxlLm1hZT4nLCAnLW9tYWUnLCAnPG91dGZpbGUubWFlPic=

>  <s_epik_input>  (1) 
W0NIMl0xT1tDSDJdW0NIMl1PW0NIMl0x

>  <s_glide_docking_method>  (1) 
confgen

>  <s_i_glide_gridfile>  (1) 
gpcr_5ht2c_6bqh_protein_autoprepared_prepared

>  <s_lp_Force_Field>  (1) 
S-OPLS

>  <s_lp_Variant>  (1) 
Pocket2Mol_12_num_sample_100-1

>  <s_m_source_file>  (1) 
generated__ligand_Pocket2Mol_2026-05-06_prepared.sdf

>  <GenAI_Model>  (1) 
Pocket2Mol

>  <Protein>  (1) 
GPCR_5HT2C

$$$$
Pocket2Mol_13_num_sample_100
     RDKit          3D

  0  0  0  0  0  0  0  0  0  0999 V3000
M  V30 BEGIN CTAB
M  V30 COUNTS 11 11 0 0 1
M  V30 BEGIN ATOM
M  V30 1 C 39.414344 29.182400 52.390465 0
M  V30 2 C 39.867408 30.372124 52.090104 0
M  V30 3 C 39.416196 28.391584 51.239172 0
M  V30 4 C 40.265692 30.590351 50.634293 0
M  V30 5 N 39.884613 29.176808 50.253501 0
M  V30 6 O 39.067405 27.221434 51.119856 0
M  V30 7 H 39.089786 28.860353 53.368714 0
M  V30 8 H 39.652331 31.343265 50.137940 0
M  V30 9 H 39.964638 31.172326 52.809880 0
M  V30 10 H 41.330667 30.794022 50.515975 0
M  V30 11 H 39.980138 28.851356 49.303304 0
M  V30 END ATOM
M  V30 BEGIN BOND
M  V30 1 2 2 1
M  V30 2 1 3 1
M  V30 3 1 4 2
M  V30 4 1 5 3
M  V30 5 1 5 4
M  V30 6 2 6 3
M  V30 7 1 7 1
M  V30 8 1 8 4
M  V30 9 1 9 2
M  V30 10 1 10 4
M  V30 11 1 11 5
M  V30 END BOND
M  V30 END CTAB
M  END
>  <i_epik_Tot_Q>  (1) 
0

>  <i_epik_Tot_abs_Q>  (1) 
0

>  <i_i_glide_confnum>  (1) 
1

>  <i_i_glide_lignum>  (1) 
16

>  <i_i_glide_posenum>  (1) 
56

>  <i_i_glide_rotatable_bonds>  (1) 
0

>  <i_lp_mmshare_version>  (1) 
72125

>  <i_m_source_file_index>  (1) 
14

>  <i_f3d_flags>  (1) 
0

>  <num_sample>  (1) 
100

>  <b_lp_Chiralities_Consistent>  (1) 
1

>  <r_epik_Charging_Adjusted_Penalty>  (1) 
0

>  <r_epik_Ionization_Penalty>  (1) 
3.8544596149973334e-06

>  <r_epik_Ionization_Penalty_Charging>  (1) 
0

>  <r_epik_Ionization_Penalty_Neutral>  (1) 
3.8544596149973334e-06

>  <r_epik_State_Penalty>  (1) 
-0

>  <r_glide_ring_energy>  (1) 
0

>  <r_i_docking_score>  (1) 
-4.4216238420484109

>  <r_i_glide_ecoul>  (1) 
0.44357344198403903

>  <r_i_glide_eff_state_penalty>  (1) 
-0

>  <r_i_glide_einternal>  (1) 
0

>  <r_i_glide_emodel>  (1) 
-21.220652626993378

>  <r_i_glide_emodel_strain>  (1) 
0

>  <r_i_glide_energy>  (1) 
-16.541986654857116

>  <r_i_glide_erotb>  (1) 
0

>  <r_i_glide_esite>  (1) 
0

>  <r_i_glide_evdw>  (1) 
-16.985560096841155

>  <r_i_glide_gscore>  (1) 
-4.4216238420484109

>  <r_i_glide_gscore_strain>  (1) 
0

>  <r_i_glide_hbond>  (1) 
0

>  <r_i_glide_ligand_efficiency>  (1) 
-0.73693730700806848

>  <r_i_glide_ligand_efficiency_ln>  (1) 
-1.5838126066322709

>  <r_i_glide_ligand_efficiency_sa>  (1) 
-1.3391039561906219

>  <r_i_glide_lipo>  (1) 
-0.93888185350395847

>  <r_i_glide_metal>  (1) 
-0

>  <r_i_glide_rewards>  (1) 
-2.7000000000000002

>  <r_lp_Energy>  (1) 
3.204942

>  <r_lp_tautomer_probability>  (1) 
1

>  <s_epik_cmdline>  (1) 
J2VwaWtfcHl0aG9uJywgJy1waHQnLCAnMS4wJywgJy1waCcsICc3LjQnLCAnLXRuJywgJzgnLCAnLW1hJywgJzUwMCcsICctaW1hZScsICc8aW5maWxlLm1hZT4nLCAnLW9tYWUnLCAnPG91dGZpbGUubWFlPic=

>  <s_epik_input>  (1) 
Tz1DMVtDSDJdW0NIXT1bQ0hdW05IXTE=

>  <s_glide_docking_method>  (1) 
confgen

>  <s_i_glide_gridfile>  (1) 
gpcr_5ht2c_6bqh_protein_autoprepared_prepared

>  <s_lp_Force_Field>  (1) 
S-OPLS

>  <s_lp_Variant>  (1) 
Pocket2Mol_13_num_sample_100-1

>  <s_m_source_file>  (1) 
generated__ligand_Pocket2Mol_2026-05-06_prepared.sdf

>  <GenAI_Model>  (1) 
Pocket2Mol

>  <Protein>  (1) 
GPCR_5HT2C

$$$$
Pocket2Mol_32_num_sample_100
     RDKit          3D

  0  0  0  0  0  0  0  0  0  0999 V3000
M  V30 BEGIN CTAB
M  V30 COUNTS 15 15 0 0 1
M  V30 BEGIN ATOM
M  V30 1 C 39.067735 29.590060 53.841056 0
M  V30 2 C 37.641383 29.086666 54.011565 0
M  V30 3 O 37.067409 30.021363 54.904332 0
M  V30 4 O 38.884189 30.981817 53.954466 0
M  V30 5 C 37.887958 31.145171 54.909707 0
M  V30 6 C 38.544773 31.274496 56.300047 0
M  V30 7 O 37.867280 32.185898 57.136056 0
M  V30 8 H 39.509164 29.309009 52.884692 0
M  V30 9 H 39.711791 29.232583 54.646121 0
M  V30 10 H 37.108549 29.114133 53.061394 0
M  V30 11 H 37.594646 28.069484 54.400740 0
M  V30 12 H 37.310272 32.034930 54.653465 0
M  V30 13 H 39.560875 31.650673 56.175153 0
M  V30 14 H 38.614129 30.293716 56.771488 0
M  V30 15 H 36.916750 32.021879 57.056100 0
M  V30 END ATOM
M  V30 BEGIN BOND
M  V30 1 1 2 1
M  V30 2 1 3 2
M  V30 3 1 4 1
M  V30 4 1 5 3
M  V30 5 1 5 4
M  V30 6 1 6 5
M  V30 7 1 7 6
M  V30 8 1 8 1
M  V30 9 1 9 1
M  V30 10 1 10 2
M  V30 11 1 11 2
M  V30 12 1 12 5
M  V30 13 1 13 6
M  V30 14 1 14 6
M  V30 15 1 15 7
M  V30 END BOND
M  V30 END CTAB
M  END
>  <i_epik_Tot_Q>  (1) 
0

>  <i_epik_Tot_abs_Q>  (1) 
0

>  <i_i_glide_confnum>  (1) 
3

>  <i_i_glide_lignum>  (1) 
35

>  <i_i_glide_posenum>  (1) 
327

>  <i_i_glide_rotatable_bonds>  (1) 
2

>  <i_lp_mmshare_version>  (1) 
72125

>  <i_m_source_file_index>  (1) 
33

>  <i_f3d_flags>  (1) 
0

>  <num_sample>  (1) 
100

>  <b_lp_Chiralities_Consistent>  (1) 
1

>  <r_epik_Charging_Adjusted_Penalty>  (1) 
0

>  <r_epik_Ionization_Penalty>  (1) 
3.4422651255072934e-07

>  <r_epik_Ionization_Penalty_Charging>  (1) 
0

>  <r_epik_Ionization_Penalty_Neutral>  (1) 
3.4422651255072934e-07

>  <r_epik_State_Penalty>  (1) 
-0

>  <r_glide_ring_energy>  (1) 
1.2362365743684729

>  <r_i_docking_score>  (1) 
-4.4172293462127517

>  <r_i_glide_ecoul>  (1) 
-5.2431961607762094

>  <r_i_glide_eff_state_penalty>  (1) 
-0

>  <r_i_glide_einternal>  (1) 
0.14276872219684034

>  <r_i_glide_emodel>  (1) 
-19.340266021811722

>  <r_i_glide_emodel_strain>  (1) 
0.16366421230239148

>  <r_i_glide_energy>  (1) 
-14.652569086386629

>  <r_i_glide_erotb>  (1) 
0

>  <r_i_glide_esite>  (1) 
-0.064641682941811066

>  <r_i_glide_evdw>  (1) 
-9.4093729256104197

>  <r_i_glide_gscore>  (1) 
-4.4172293462127517

>  <r_i_glide_gscore_strain>  (1) 
0

>  <r_i_glide_hbond>  (1) 
-0.16

>  <r_i_glide_ligand_efficiency>  (1) 
-0.63103276374467876

>  <r_i_glide_ligand_efficiency_ln>  (1) 
-1.4994446954294438

>  <r_i_glide_ligand_efficiency_sa>  (1) 
-1.207122251118238

>  <r_i_glide_lipo>  (1) 
-0.44426749783088215

>  <r_i_glide_metal>  (1) 
-0

>  <r_i_glide_rewards>  (1) 
-2.491372095043106

>  <r_lp_Energy>  (1) 
-10.260740999999999

>  <r_lp_tautomer_probability>  (1) 
1

>  <s_epik_Chemistry_Notes>  (1) 
This compound contains an acetal/aminal-like group ( X-CH(R)-Y where X, Y are N, S, or O) that may be acid/base labile, releasing an aldehyde.

>  <s_epik_cmdline>  (1) 
J2VwaWtfcHl0aG9uJywgJy1waHQnLCAnMS4wJywgJy1waCcsICc3LjQnLCAnLXRuJywgJzgnLCAnLW1hJywgJzUwMCcsICctaW1hZScsICc8aW5maWxlLm1hZT4nLCAnLW9tYWUnLCAnPG91dGZpbGUubWFlPic=

>  <s_epik_input>  (1) 
TzFbQ0gyXVtDSDJdT1tDSF0xW0NIMl1bT0hd

>  <s_glide_docking_method>  (1) 
confgen

>  <s_i_glide_gridfile>  (1) 
gpcr_5ht2c_6bqh_protein_autoprepared_prepared

>  <s_lp_Force_Field>  (1) 
S-OPLS

>  <s_lp_Variant>  (1) 
Pocket2Mol_32_num_sample_100-1

>  <s_m_source_file>  (1) 
generated__ligand_Pocket2Mol_2026-05-06_prepared.sdf

>  <GenAI_Model>  (1) 
Pocket2Mol

>  <Protein>  (1) 
GPCR_5HT2C

$$$$
Pocket2Mol_9_num_sample_100
     RDKit          3D

  0  0  0  0  0  0  0  0  0  0999 V3000
M  V30 BEGIN CTAB
M  V30 COUNTS 11 11 0 0 1
M  V30 BEGIN ATOM
M  V30 1 C 39.867403 30.378043 52.108624 0
M  V30 2 C 40.245299 30.587645 50.645047 0
M  V30 3 C 39.423610 29.189361 52.422636 0
M  V30 4 C 39.413677 28.391690 51.276892 0
M  V30 5 N 39.867479 29.170312 50.279821 0
M  V30 6 O 39.067455 27.221425 51.170062 0
M  V30 7 H 39.971979 31.182992 52.821491 0
M  V30 8 H 39.952364 28.837392 49.331178 0
M  V30 9 H 39.616261 31.328873 50.153030 0
M  V30 10 H 39.115004 28.871121 53.408308 0
M  V30 11 H 41.305958 30.798366 50.504137 0
M  V30 END ATOM
M  V30 BEGIN BOND
M  V30 1 1 2 1
M  V30 2 2 3 1
M  V30 3 1 4 3
M  V30 4 1 5 2
M  V30 5 1 5 4
M  V30 6 2 6 4
M  V30 7 1 7 1
M  V30 8 1 8 5
M  V30 9 1 9 2
M  V30 10 1 10 3
M  V30 11 1 11 2
M  V30 END BOND
M  V30 END CTAB
M  END
>  <i_epik_Tot_Q>  (1) 
0

>  <i_epik_Tot_abs_Q>  (1) 
0

>  <i_i_glide_confnum>  (1) 
1

>  <i_i_glide_lignum>  (1) 
12

>  <i_i_glide_posenum>  (1) 
282

>  <i_i_glide_rotatable_bonds>  (1) 
0

>  <i_lp_mmshare_version>  (1) 
72125

>  <i_m_source_file_index>  (1) 
10

>  <i_f3d_flags>  (1) 
0

>  <num_sample>  (1) 
100

>  <b_lp_Chiralities_Consistent>  (1) 
1

>  <r_epik_Charging_Adjusted_Penalty>  (1) 
0

>  <r_epik_Ionization_Penalty>  (1) 
3.8544596149973334e-06

>  <r_epik_Ionization_Penalty_Charging>  (1) 
0

>  <r_epik_Ionization_Penalty_Neutral>  (1) 
3.8544596149973334e-06

>  <r_epik_State_Penalty>  (1) 
-0

>  <r_glide_ring_energy>  (1) 
0

>  <r_i_docking_score>  (1) 
-4.4159277112525306

>  <r_i_glide_ecoul>  (1) 
0.3998658765284655

>  <r_i_glide_eff_state_penalty>  (1) 
-0

>  <r_i_glide_einternal>  (1) 
0

>  <r_i_glide_emodel>  (1) 
-21.193693273372784

>  <r_i_glide_emodel_strain>  (1) 
0

>  <r_i_glide_energy>  (1) 
-16.521399087579823

>  <r_i_glide_erotb>  (1) 
0

>  <r_i_glide_esite>  (1) 
0

>  <r_i_glide_evdw>  (1) 
-16.921264964108289

>  <r_i_glide_gscore>  (1) 
-4.4159277112525306

>  <r_i_glide_gscore_strain>  (1) 
0

>  <r_i_glide_hbond>  (1) 
0

>  <r_i_glide_ligand_efficiency>  (1) 
-0.73598795187542176

>  <r_i_glide_ligand_efficiency_ln>  (1) 
-1.5817722693973961

>  <r_i_glide_ligand_efficiency_sa>  (1) 
-1.3373788634291788

>  <r_i_glide_lipo>  (1) 
-0.92984434452638554

>  <r_i_glide_metal>  (1) 
-0

>  <r_i_glide_rewards>  (1) 
-2.7000000000000002

>  <r_lp_Energy>  (1) 
3.2049569999999998

>  <r_lp_tautomer_probability>  (1) 
1

>  <s_epik_cmdline>  (1) 
J2VwaWtfcHl0aG9uJywgJy1waHQnLCAnMS4wJywgJy1waCcsICc3LjQnLCAnLXRuJywgJzgnLCAnLW1hJywgJzUwMCcsICctaW1hZScsICc8aW5maWxlLm1hZT4nLCAnLW9tYWUnLCAnPG91dGZpbGUubWFlPic=

>  <s_epik_input>  (1) 
TjE9W0NIXVtDSDJdW0NIMl1DMT1P

>  <s_glide_docking_method>  (1) 
confgen

>  <s_i_glide_gridfile>  (1) 
gpcr_5ht2c_6bqh_protein_autoprepared_prepared

>  <s_lp_Force_Field>  (1) 
S-OPLS

>  <s_lp_Variant>  (1) 
Pocket2Mol_9_num_sample_100-1

>  <s_m_source_file>  (1) 
generated__ligand_Pocket2Mol_2026-05-06_prepared.sdf

>  <GenAI_Model>  (1) 
Pocket2Mol

>  <Protein>  (1) 
GPCR_5HT2C

$$$$
Pocket2Mol_88_num_sample_100
     RDKit          3D

  0  0  0  0  0  0  0  0  0  0999 V3000
M  V30 BEGIN CTAB
M  V30 COUNTS 15 15 0 0 1
M  V30 BEGIN ATOM
M  V30 1 C 38.865745 28.858856 52.699429 0
M  V30 2 C 39.066270 27.936327 51.498322 0
M  V30 3 C 39.814151 30.041656 52.458421 0
M  V30 4 C 40.267402 29.921503 50.995272 0
M  V30 5 N 39.479417 28.824158 50.401483 0 CHG=1
M  V30 6 H 39.055741 28.353977 53.647404 0
M  V30 7 H 37.835902 29.216590 52.720948 0
M  V30 8 H 39.867387 27.225595 51.701384 0
M  V30 9 H 38.170619 27.367497 51.245778 0
M  V30 10 H 39.312439 30.989769 52.653502 0
M  V30 11 H 40.662752 30.021430 53.137809 0
M  V30 12 H 40.132175 30.849968 50.438412 0
M  V30 13 H 41.325511 29.659405 50.955870 0
M  V30 14 H 38.652432 29.221430 49.970349 0
M  V30 15 H 40.003820 28.323501 49.698990 0
M  V30 END ATOM
M  V30 BEGIN BOND
M  V30 1 1 2 1
M  V30 2 1 3 1
M  V30 3 1 4 3
M  V30 4 1 5 2
M  V30 5 1 5 4
M  V30 6 1 6 1
M  V30 7 1 7 1
M  V30 8 1 8 2
M  V30 9 1 9 2
M  V30 10 1 10 3
M  V30 11 1 11 3
M  V30 12 1 12 4
M  V30 13 1 13 4
M  V30 14 1 14 5
M  V30 15 1 15 5
M  V30 END BOND
M  V30 END CTAB
M  END
>  <i_epik_Tot_Q>  (1) 
1

>  <i_epik_Tot_abs_Q>  (1) 
1

>  <i_i_glide_confnum>  (1) 
1

>  <i_i_glide_lignum>  (1) 
93

>  <i_i_glide_posenum>  (1) 
389

>  <i_i_glide_rotatable_bonds>  (1) 
0

>  <i_lp_mmshare_version>  (1) 
72125

>  <i_m_source_file_index>  (1) 
89

>  <i_f3d_flags>  (1) 
0

>  <num_sample>  (1) 
100

>  <b_lp_Chiralities_Consistent>  (1) 
1

>  <r_epik_Charging_Adjusted_Penalty>  (1) 
0.00011848530527437102

>  <r_epik_Ionization_Penalty>  (1) 
0.00011848530527437102

>  <r_epik_Ionization_Penalty_Charging>  (1) 
0.00011848530527437102

>  <r_epik_Ionization_Penalty_Neutral>  (1) 
0

>  <r_epik_State_Penalty>  (1) 
-0

>  <r_glide_ring_energy>  (1) 
0

>  <r_i_docking_score>  (1) 
-4.4097728887943104

>  <r_i_glide_ecoul>  (1) 
-1.8498235543635868

>  <r_i_glide_eff_state_penalty>  (1) 
-0

>  <r_i_glide_einternal>  (1) 
0

>  <r_i_glide_emodel>  (1) 
-20.084239010555336

>  <r_i_glide_emodel_strain>  (1) 
0.4074076740708783

>  <r_i_glide_energy>  (1) 
-13.095810667159036

>  <r_i_glide_erotb>  (1) 
0

>  <r_i_glide_esite>  (1) 
0

>  <r_i_glide_evdw>  (1) 
-11.245987112795449

>  <r_i_glide_gscore>  (1) 
-4.4097728887943104

>  <r_i_glide_gscore_strain>  (1) 
0

>  <r_i_glide_hbond>  (1) 
0

>  <r_i_glide_ligand_efficiency>  (1) 
-0.8819545777588621

>  <r_i_glide_ligand_efficiency_ln>  (1) 
-1.6899320990859852

>  <r_i_glide_ligand_efficiency_sa>  (1) 
-1.5081211140290567

>  <r_i_glide_lipo>  (1) 
-1.3200000000000001

>  <r_i_glide_metal>  (1) 
-0

>  <r_i_glide_rewards>  (1) 
-2.25

>  <r_lp_Energy>  (1) 
17.726251999999999

>  <r_lp_tautomer_probability>  (1) 
1

>  <s_epik_cmdline>  (1) 
J2VwaWtfcHl0aG9uJywgJy1waHQnLCAnMS4wJywgJy1waCcsICc3LjQnLCAnLXRuJywgJzgnLCAnLW1hJywgJzUwMCcsICctaW1hZScsICc8aW5maWxlLm1hZT4nLCAnLW9tYWUnLCAnPG91dGZpbGUubWFlPic=

>  <s_epik_input>  (1) 
W0NIMl0xW0NIMl1bTkhdW0NIMl1bQ0gyXTE=

>  <s_glide_docking_method>  (1) 
confgen

>  <s_i_glide_gridfile>  (1) 
gpcr_5ht2c_6bqh_protein_autoprepared_prepared

>  <s_lp_Force_Field>  (1) 
S-OPLS

>  <s_lp_Variant>  (1) 
Pocket2Mol_88_num_sample_100-1

>  <s_m_source_file>  (1) 
generated__ligand_Pocket2Mol_2026-05-06_prepared.sdf

>  <GenAI_Model>  (1) 
Pocket2Mol

>  <Protein>  (1) 
GPCR_5HT2C

$$$$
Pocket2Mol_44_num_sample_100
     RDKit          3D

  0  0  0  0  0  0  0  0  0  0999 V3000
M  V30 BEGIN CTAB
M  V30 COUNTS 10 9 0 0 1
M  V30 BEGIN ATOM
M  V30 1 C 39.149987 27.533756 51.270164 0
M  V30 2 O 40.176557 28.470227 51.273620 0
M  V30 3 C 39.964491 29.560336 50.389087 0
M  V30 4 O 37.961694 28.021371 51.853501 0
M  V30 5 H 39.467436 26.668474 51.852177 0
M  V30 6 H 38.932746 27.201829 50.253501 0
M  V30 7 H 40.812429 30.243589 50.442068 0
M  V30 8 H 39.871419 29.221575 49.356750 0
M  V30 9 H 39.067405 30.119734 50.653491 0
M  V30 10 H 37.274468 27.388889 51.677656 0
M  V30 END ATOM
M  V30 BEGIN BOND
M  V30 1 1 2 1
M  V30 2 1 3 2
M  V30 3 1 4 1
M  V30 4 1 5 1
M  V30 5 1 6 1
M  V30 6 1 7 3
M  V30 7 1 8 3
M  V30 8 1 9 3
M  V30 9 1 10 4
M  V30 END BOND
M  V30 END CTAB
M  END
>  <i_epik_Tot_Q>  (1) 
0

>  <i_epik_Tot_abs_Q>  (1) 
0

>  <i_i_glide_confnum>  (1) 
1

>  <i_i_glide_lignum>  (1) 
47

>  <i_i_glide_posenum>  (1) 
93

>  <i_i_glide_rotatable_bonds>  (1) 
2

>  <i_lp_mmshare_version>  (1) 
72125

>  <i_m_source_file_index>  (1) 
45

>  <i_f3d_flags>  (1) 
0

>  <num_sample>  (1) 
100

>  <b_lp_Chiralities_Consistent>  (1) 
1

>  <r_epik_Charging_Adjusted_Penalty>  (1) 
0

>  <r_epik_Ionization_Penalty>  (1) 
1.028953084229311e-06

>  <r_epik_Ionization_Penalty_Charging>  (1) 
0

>  <r_epik_Ionization_Penalty_Neutral>  (1) 
1.028953084229311e-06

>  <r_epik_State_Penalty>  (1) 
-0

>  <r_glide_ring_energy>  (1) 
0

>  <r_i_docking_score>  (1) 
-4.4090113711163612

>  <r_i_glide_ecoul>  (1) 
-3.6534778979170404

>  <r_i_glide_eff_state_penalty>  (1) 
-0

>  <r_i_glide_einternal>  (1) 
1.9431106795413073

>  <r_i_glide_emodel>  (1) 
-17.495913290069613

>  <r_i_glide_emodel_strain>  (1) 
0

>  <r_i_glide_energy>  (1) 
-13.873271626493141

>  <r_i_glide_erotb>  (1) 
0

>  <r_i_glide_esite>  (1) 
0

>  <r_i_glide_evdw>  (1) 
-10.2197937285761

>  <r_i_glide_gscore>  (1) 
-4.4090113711163612

>  <r_i_glide_gscore_strain>  (1) 
0

>  <r_i_glide_hbond>  (1) 
-0.32000000000000001

>  <r_i_glide_ligand_efficiency>  (1) 
-1.1022528427790903

>  <r_i_glide_ligand_efficiency_ln>  (1) 
-1.8476393536995188

>  <r_i_glide_ligand_efficiency_sa>  (1) 
-1.7497173221624662

>  <r_i_glide_lipo>  (1) 
-0.33000000000000002

>  <r_i_glide_metal>  (1) 
-0

>  <r_i_glide_rewards>  (1) 
-2.7000000000000002

>  <r_lp_Energy>  (1) 
5.5414079999999997

>  <r_lp_tautomer_probability>  (1) 
1

>  <s_epik_Chemistry_Notes>  (1) 
This compound contains an acetal/aminal-like group ( X-CH(R)-Y where X, Y are N, S, or O) that may be acid/base labile, releasing an aldehyde.

>  <s_epik_cmdline>  (1) 
J2VwaWtfcHl0aG9uJywgJy1waHQnLCAnMS4wJywgJy1waCcsICc3LjQnLCAnLXRuJywgJzgnLCAnLW1hJywgJzUwMCcsICctaW1hZScsICc8aW5maWxlLm1hZT4nLCAnLW9tYWUnLCAnPG91dGZpbGUubWFlPic=

>  <s_epik_input>  (1) 
W09IXVtDSDJdT1tDSDNd

>  <s_glide_docking_method>  (1) 
confgen

>  <s_i_glide_gridfile>  (1) 
gpcr_5ht2c_6bqh_protein_autoprepared_prepared

>  <s_lp_Force_Field>  (1) 
S-OPLS

>  <s_lp_Variant>  (1) 
Pocket2Mol_44_num_sample_100-1

>  <s_m_source_file>  (1) 
generated__ligand_Pocket2Mol_2026-05-06_prepared.sdf

>  <GenAI_Model>  (1) 
Pocket2Mol

>  <Protein>  (1) 
GPCR_5HT2C

$$$$
Pocket2Mol_88_num_sample_100
     RDKit          3D

  0  0  0  0  0  0  0  0  0  0999 V3000
M  V30 BEGIN CTAB
M  V30 COUNTS 15 15 0 0 1
M  V30 BEGIN ATOM
M  V30 1 C 39.647933 29.313524 51.877122 0
M  V30 2 C 39.502315 28.341334 50.701691 0
M  V30 3 C 38.688020 28.787462 52.947541 0
M  V30 4 C 38.621591 27.295153 52.648076 0
M  V30 5 N 38.667477 27.221457 51.179583 0 CHG=1
M  V30 6 H 39.467412 30.351389 51.598073 0
M  V30 7 H 40.667388 29.273546 52.252379 0
M  V30 8 H 39.067352 28.820663 49.827605 0
M  V30 9 H 40.477092 27.958417 50.408046 0
M  V30 10 H 39.019685 29.004423 53.963696 0
M  V30 11 H 37.697075 29.221399 52.818003 0
M  V30 12 H 39.494470 26.786124 53.059974 0
M  V30 13 H 37.725348 26.820828 53.049894 0
M  V30 14 H 39.016480 26.331588 50.849480 0
M  V30 15 H 37.720303 27.345353 50.845066 0
M  V30 END ATOM
M  V30 BEGIN BOND
M  V30 1 1 2 1
M  V30 2 1 3 1
M  V30 3 1 4 3
M  V30 4 1 5 2
M  V30 5 1 5 4
M  V30 6 1 6 1
M  V30 7 1 7 1
M  V30 8 1 8 2
M  V30 9 1 9 2
M  V30 10 1 10 3
M  V30 11 1 11 3
M  V30 12 1 12 4
M  V30 13 1 13 4
M  V30 14 1 14 5
M  V30 15 1 15 5
M  V30 END BOND
M  V30 END CTAB
M  END
>  <i_epik_Tot_Q>  (1) 
1

>  <i_epik_Tot_abs_Q>  (1) 
1

>  <i_i_glide_confnum>  (1) 
2

>  <i_i_glide_lignum>  (1) 
93

>  <i_i_glide_posenum>  (1) 
147

>  <i_i_glide_rotatable_bonds>  (1) 
0

>  <i_lp_mmshare_version>  (1) 
72125

>  <i_m_source_file_index>  (1) 
89

>  <i_f3d_flags>  (1) 
0

>  <num_sample>  (1) 
100

>  <b_lp_Chiralities_Consistent>  (1) 
1

>  <r_epik_Charging_Adjusted_Penalty>  (1) 
0.00011848530527437102

>  <r_epik_Ionization_Penalty>  (1) 
0.00011848530527437102

>  <r_epik_Ionization_Penalty_Charging>  (1) 
0.00011848530527437102

>  <r_epik_Ionization_Penalty_Neutral>  (1) 
0

>  <r_epik_State_Penalty>  (1) 
-0

>  <r_glide_ring_energy>  (1) 
1.2454512470311176

>  <r_i_docking_score>  (1) 
-4.4012465900086655

>  <r_i_glide_ecoul>  (1) 
-2.0104610858765528

>  <r_i_glide_eff_state_penalty>  (1) 
-0

>  <r_i_glide_einternal>  (1) 
0

>  <r_i_glide_emodel>  (1) 
-19.843817096717501

>  <r_i_glide_emodel_strain>  (1) 
0.14172869535772747

>  <r_i_glide_energy>  (1) 
-12.604009628420204

>  <r_i_glide_erotb>  (1) 
0

>  <r_i_glide_esite>  (1) 
0

>  <r_i_glide_evdw>  (1) 
-10.593548542543651

>  <r_i_glide_gscore>  (1) 
-4.4012465900086655

>  <r_i_glide_gscore_strain>  (1) 
0

>  <r_i_glide_hbond>  (1) 
0

>  <r_i_glide_ligand_efficiency>  (1) 
-0.88024931800173312

>  <r_i_glide_ligand_efficiency_ln>  (1) 
-1.686664614259074

>  <r_i_glide_ligand_efficiency_sa>  (1) 
-1.5052051608615304

>  <r_i_glide_lipo>  (1) 
-1.3200000000000001

>  <r_i_glide_metal>  (1) 
-0

>  <r_i_glide_rewards>  (1) 
-2.25

>  <r_lp_Energy>  (1) 
17.726251999999999

>  <r_lp_tautomer_probability>  (1) 
1

>  <s_epik_cmdline>  (1) 
J2VwaWtfcHl0aG9uJywgJy1waHQnLCAnMS4wJywgJy1waCcsICc3LjQnLCAnLXRuJywgJzgnLCAnLW1hJywgJzUwMCcsICctaW1hZScsICc8aW5maWxlLm1hZT4nLCAnLW9tYWUnLCAnPG91dGZpbGUubWFlPic=

>  <s_epik_input>  (1) 
W0NIMl0xW0NIMl1bTkhdW0NIMl1bQ0gyXTE=

>  <s_glide_docking_method>  (1) 
confgen

>  <s_i_glide_gridfile>  (1) 
gpcr_5ht2c_6bqh_protein_autoprepared_prepared

>  <s_lp_Force_Field>  (1) 
S-OPLS

>  <s_lp_Variant>  (1) 
Pocket2Mol_88_num_sample_100-1

>  <s_m_source_file>  (1) 
generated__ligand_Pocket2Mol_2026-05-06_prepared.sdf

>  <GenAI_Model>  (1) 
Pocket2Mol

>  <Protein>  (1) 
GPCR_5HT2C

$$$$
Pocket2Mol_26_num_sample_100
     RDKit          3D

  0  0  0  0  0  0  0  0  0  0999 V3000
M  V30 BEGIN CTAB
M  V30 COUNTS 16 16 0 0 1
M  V30 BEGIN ATOM
M  V30 1 C 37.233816 24.796936 55.952479 0
M  V30 2 C 37.862109 25.931795 55.259323 0
M  V30 3 C 37.788753 24.421430 57.053505 0
M  V30 4 C 38.978429 25.174805 57.474449 0
M  V30 5 N 38.934844 26.205351 56.331588 0 CHG=1
M  V30 6 C 40.267403 26.494684 55.765276 0
M  V30 7 H 36.356140 24.321803 55.537132 0
M  V30 8 H 38.277819 25.621422 54.299613 0
M  V30 9 H 37.179207 26.771762 55.128907 0
M  V30 10 H 37.423229 23.600126 57.653470 0
M  V30 11 H 38.854745 25.636388 58.454666 0
M  V30 12 H 39.867113 24.541473 57.453251 0
M  V30 13 H 40.667404 25.621430 55.250387 0
M  V30 14 H 40.208607 27.317539 55.053501 0
M  V30 15 H 40.968270 26.778993 56.551476 0
M  V30 16 H 38.633390 27.061891 56.775524 0
M  V30 END ATOM
M  V30 BEGIN BOND
M  V30 1 1 2 1
M  V30 2 2 3 1
M  V30 3 1 4 3
M  V30 4 1 5 2
M  V30 5 1 5 4
M  V30 6 1 6 5
M  V30 7 1 7 1
M  V30 8 1 8 2
M  V30 9 1 9 2
M  V30 10 1 10 3
M  V30 11 1 11 4
M  V30 12 1 12 4
M  V30 13 1 13 6
M  V30 14 1 14 6
M  V30 15 1 15 6
M  V30 16 1 16 5
M  V30 END BOND
M  V30 END CTAB
M  END
>  <i_epik_Tot_Q>  (1) 
1

>  <i_epik_Tot_abs_Q>  (1) 
1

>  <i_i_glide_confnum>  (1) 
1

>  <i_i_glide_lignum>  (1) 
29

>  <i_i_glide_posenum>  (1) 
276

>  <i_i_glide_rotatable_bonds>  (1) 
0

>  <i_lp_mmshare_version>  (1) 
72125

>  <i_m_source_file_index>  (1) 
27

>  <i_f3d_flags>  (1) 
0

>  <num_sample>  (1) 
100

>  <b_lp_Chiralities_Consistent>  (1) 
1

>  <r_epik_Charging_Adjusted_Penalty>  (1) 
0.0014863909170882658

>  <r_epik_Ionization_Penalty>  (1) 
0.0014863909170882658

>  <r_epik_Ionization_Penalty_Charging>  (1) 
0.0014863909170882658

>  <r_epik_Ionization_Penalty_Neutral>  (1) 
0

>  <r_epik_State_Penalty>  (1) 
-0

>  <r_glide_ring_energy>  (1) 
0

>  <r_i_docking_score>  (1) 
-4.3799586963807577

>  <r_i_glide_ecoul>  (1) 
-0.34068734369869735

>  <r_i_glide_eff_state_penalty>  (1) 
-0

>  <r_i_glide_einternal>  (1) 
0

>  <r_i_glide_emodel>  (1) 
-16.85209773664749

>  <r_i_glide_emodel_strain>  (1) 
1.9546320118024596e-10

>  <r_i_glide_energy>  (1) 
-12.325674361620626

>  <r_i_glide_erotb>  (1) 
0

>  <r_i_glide_esite>  (1) 
0

>  <r_i_glide_evdw>  (1) 
-11.984987017921929

>  <r_i_glide_gscore>  (1) 
-4.3799586963807577

>  <r_i_glide_gscore_strain>  (1) 
0

>  <r_i_glide_hbond>  (1) 
0

>  <r_i_glide_ligand_efficiency>  (1) 
-0.72999311606345962

>  <r_i_glide_ligand_efficiency_ln>  (1) 
-1.568888274458635

>  <r_i_glide_ligand_efficiency_sa>  (1) 
-1.3264855238246149

>  <r_i_glide_lipo>  (1) 
-1.4796062439298572

>  <r_i_glide_metal>  (1) 
-0

>  <r_i_glide_rewards>  (1) 
-2.25

>  <r_lp_Energy>  (1) 
6.8415840000000001

>  <r_lp_tautomer_probability>  (1) 
1

>  <s_epik_cmdline>  (1) 
J2VwaWtfcHl0aG9uJywgJy1waHQnLCAnMS4wJywgJy1waCcsICc3LjQnLCAnLXRuJywgJzgnLCAnLW1hJywgJzUwMCcsICctaW1hZScsICc8aW5maWxlLm1hZT4nLCAnLW9tYWUnLCAnPG91dGZpbGUubWFlPic=

>  <s_epik_input>  (1) 
W0NIMl0xW0NIXT1bQ0hdW0NIMl1OMVtDSDNd

>  <s_glide_docking_method>  (1) 
confgen

>  <s_i_glide_gridfile>  (1) 
gpcr_5ht2c_6bqh_protein_autoprepared_prepared

>  <s_lp_Force_Field>  (1) 
S-OPLS

>  <s_lp_Variant>  (1) 
Pocket2Mol_26_num_sample_100-1

>  <s_m_source_file>  (1) 
generated__ligand_Pocket2Mol_2026-05-06_prepared.sdf

>  <GenAI_Model>  (1) 
Pocket2Mol

>  <Protein>  (1) 
GPCR_5HT2C

$$$$
Pocket2Mol_15_num_sample_100
     RDKit          3D

  0  0  0  0  0  0  0  0  0  0999 V3000
M  V30 BEGIN CTAB
M  V30 COUNTS 12 12 0 0 1
M  V30 BEGIN ATOM
M  V30 1 C 35.601313 34.184586 59.295431 0
M  V30 2 O 35.180069 33.233577 60.259239 0
M  V30 3 C 37.081642 33.857402 59.053513 0
M  V30 4 C 36.018359 32.210529 60.341921 0
M  V30 5 C 37.225909 32.392095 59.448774 0
M  V30 6 O 35.867086 31.221430 61.053502 0
M  V30 7 H 35.017441 34.051051 58.384114 0
M  V30 8 H 35.464810 35.206748 59.647723 0
M  V30 9 H 37.371744 34.039375 58.018073 0
M  V30 10 H 37.712201 34.476219 59.692863 0
M  V30 11 H 38.159876 32.184466 59.970329 0
M  V30 12 H 37.135102 31.733147 58.584528 0
M  V30 END ATOM
M  V30 BEGIN BOND
M  V30 1 1 2 1
M  V30 2 1 3 1
M  V30 3 1 4 2
M  V30 4 1 5 3
M  V30 5 1 5 4
M  V30 6 2 6 4
M  V30 7 1 7 1
M  V30 8 1 8 1
M  V30 9 1 9 3
M  V30 10 1 10 3
M  V30 11 1 11 5
M  V30 12 1 12 5
M  V30 END BOND
M  V30 END CTAB
M  END
>  <i_epik_Tot_Q>  (1) 
0

>  <i_epik_Tot_abs_Q>  (1) 
0

>  <i_i_glide_confnum>  (1) 
2

>  <i_i_glide_lignum>  (1) 
18

>  <i_i_glide_posenum>  (1) 
397

>  <i_i_glide_rotatable_bonds>  (1) 
0

>  <i_lp_mmshare_version>  (1) 
72125

>  <i_m_source_file_index>  (1) 
16

>  <i_f3d_flags>  (1) 
0

>  <num_sample>  (1) 
100

>  <b_lp_Chiralities_Consistent>  (1) 
1

>  <r_epik_Charging_Adjusted_Penalty>  (1) 
0

>  <r_epik_Ionization_Penalty>  (1) 
0

>  <r_epik_Ionization_Penalty_Charging>  (1) 
0

>  <r_epik_Ionization_Penalty_Neutral>  (1) 
0

>  <r_epik_State_Penalty>  (1) 
-0

>  <r_glide_ring_energy>  (1) 
0.00053108536261990756

>  <r_i_docking_score>  (1) 
-4.3795341123509344

>  <r_i_glide_ecoul>  (1) 
-2.9831272954583645

>  <r_i_glide_eff_state_penalty>  (1) 
-0

>  <r_i_glide_einternal>  (1) 
0

>  <r_i_glide_emodel>  (1) 
-19.445091912252551

>  <r_i_glide_emodel_strain>  (1) 
0

>  <r_i_glide_energy>  (1) 
-15.020437891315661

>  <r_i_glide_erotb>  (1) 
0

>  <r_i_glide_esite>  (1) 
-0.060199488239314661

>  <r_i_glide_evdw>  (1) 
-12.037310595857296

>  <r_i_glide_gscore>  (1) 
-4.3795341123509344

>  <r_i_glide_gscore_strain>  (1) 
0

>  <r_i_glide_hbond>  (1) 
-0.32000000000000001

>  <r_i_glide_ligand_efficiency>  (1) 
-0.7299223520584891

>  <r_i_glide_ligand_efficiency_ln>  (1) 
-1.568736189712616

>  <r_i_glide_ligand_efficiency_sa>  (1) 
-1.3263569370939516

>  <r_i_glide_lipo>  (1) 
0

>  <r_i_glide_metal>  (1) 
-0

>  <r_i_glide_rewards>  (1) 
-2.9500000000000002

>  <r_lp_Energy>  (1) 
-1.1766760000000001

>  <r_lp_tautomer_probability>  (1) 
1

>  <s_epik_Chemistry_Notes>  (1) 
This compound has an ester and may undergo hydrolysis at high or low pH.

>  <s_epik_cmdline>  (1) 
J2VwaWtfcHl0aG9uJywgJy1waHQnLCAnMS4wJywgJy1waCcsICc3LjQnLCAnLXRuJywgJzgnLCAnLW1hJywgJzUwMCcsICctaW1hZScsICc8aW5maWxlLm1hZT4nLCAnLW9tYWUnLCAnPG91dGZpbGUubWFlPic=

>  <s_epik_input>  (1) 
W0NIMl0xW0NIMl1bQ0gyXU9DMT1P

>  <s_glide_docking_method>  (1) 
confgen

>  <s_i_glide_gridfile>  (1) 
gpcr_5ht2c_6bqh_protein_autoprepared_prepared

>  <s_lp_Force_Field>  (1) 
S-OPLS

>  <s_lp_Variant>  (1) 
Pocket2Mol_15_num_sample_100-1

>  <s_m_source_file>  (1) 
generated__ligand_Pocket2Mol_2026-05-06_prepared.sdf

>  <GenAI_Model>  (1) 
Pocket2Mol

>  <Protein>  (1) 
GPCR_5HT2C

$$$$
Pocket2Mol_5_num_sample_100
     RDKit          3D

  0  0  0  0  0  0  0  0  0  0999 V3000
M  V30 BEGIN CTAB
M  V30 COUNTS 12 12 0 0 1
M  V30 BEGIN ATOM
M  V30 1 C 40.129172 29.613533 51.051327 0
M  V30 2 C 39.867395 30.026659 52.236796 0
M  V30 3 C 39.467422 28.297505 50.686235 0
M  V30 4 C 38.690194 28.023054 52.126363 0
M  V30 5 N 39.067367 29.221067 52.897644 0
M  V30 6 H 40.218628 30.921467 52.731448 0
M  V30 7 H 38.776866 28.421360 49.853579 0
M  V30 8 H 40.205423 27.532294 50.448614 0
M  V30 9 H 37.609234 27.964146 51.998678 0
M  V30 10 H 39.043193 27.116608 52.619117 0
M  V30 11 H 40.767571 30.134342 50.352683 0
M  V30 12 H 38.841582 29.323656 53.877823 0
M  V30 END ATOM
M  V30 BEGIN BOND
M  V30 1 2 2 1
M  V30 2 1 3 1
M  V30 3 1 4 3
M  V30 4 1 5 2
M  V30 5 1 5 4
M  V30 6 1 6 2
M  V30 7 1 7 3
M  V30 8 1 8 3
M  V30 9 1 9 4
M  V30 10 1 10 4
M  V30 11 1 11 1
M  V30 12 1 12 5
M  V30 END BOND
M  V30 END CTAB
M  END
>  <i_epik_Tot_Q>  (1) 
0

>  <i_epik_Tot_abs_Q>  (1) 
0

>  <i_i_glide_confnum>  (1) 
1

>  <i_i_glide_lignum>  (1) 
8

>  <i_i_glide_posenum>  (1) 
308

>  <i_i_glide_rotatable_bonds>  (1) 
0

>  <i_lp_mmshare_version>  (1) 
72125

>  <i_m_source_file_index>  (1) 
6

>  <i_f3d_flags>  (1) 
0

>  <num_sample>  (1) 
100

>  <b_lp_Chiralities_Consistent>  (1) 
1

>  <r_epik_Charging_Adjusted_Penalty>  (1) 
1.6042444336516156e-06

>  <r_epik_Ionization_Penalty>  (1) 
0.0023556498582944039

>  <r_epik_Ionization_Penalty_Charging>  (1) 
1.6042444336516156e-06

>  <r_epik_Ionization_Penalty_Neutral>  (1) 
0.0023540456138607521

>  <r_epik_State_Penalty>  (1) 
-0

>  <r_glide_ring_energy>  (1) 
0

>  <r_i_docking_score>  (1) 
-4.3753539547584461

>  <r_i_glide_ecoul>  (1) 
-0.89183645921006893

>  <r_i_glide_eff_state_penalty>  (1) 
-0

>  <r_i_glide_einternal>  (1) 
0

>  <r_i_glide_emodel>  (1) 
-18.20912182894666

>  <r_i_glide_emodel_strain>  (1) 
0

>  <r_i_glide_energy>  (1) 
-14.323406176748788

>  <r_i_glide_erotb>  (1) 
0

>  <r_i_glide_esite>  (1) 
0

>  <r_i_glide_evdw>  (1) 
-13.43156971753872

>  <r_i_glide_gscore>  (1) 
-4.3753539547584461

>  <r_i_glide_gscore_strain>  (1) 
0

>  <r_i_glide_hbond>  (1) 
0

>  <r_i_glide_ligand_efficiency>  (1) 
-0.87507079095168927

>  <r_i_glide_ligand_efficiency_ln>  (1) 
-1.6767419274126694

>  <r_i_glide_ligand_efficiency_sa>  (1) 
-1.4963500041667408

>  <r_i_glide_lipo>  (1) 
-1.3200000000000001

>  <r_i_glide_metal>  (1) 
-0

>  <r_i_glide_rewards>  (1) 
-2.25

>  <r_lp_Energy>  (1) 
2.9163319999999997

>  <r_lp_tautomer_probability>  (1) 
1

>  <s_epik_Chemistry_Notes>  (1) 
This compound has an imine and may undergo hydrolysis.

>  <s_epik_cmdline>  (1) 
J2VwaWtfcHl0aG9uJywgJy1waHQnLCAnMS4wJywgJy1waCcsICc3LjQnLCAnLXRuJywgJzgnLCAnLW1hJywgJzUwMCcsICctaW1hZScsICc8aW5maWxlLm1hZT4nLCAnLW9tYWUnLCAnPG91dGZpbGUubWFlPic=

>  <s_epik_input>  (1) 
W0NIMl0xW0NIXT1OW0NIMl1bQ0gyXTE=

>  <s_glide_docking_method>  (1) 
confgen

>  <s_i_glide_gridfile>  (1) 
gpcr_5ht2c_6bqh_protein_autoprepared_prepared

>  <s_lp_Force_Field>  (1) 
S-OPLS

>  <s_lp_Variant>  (1) 
Pocket2Mol_5_num_sample_100-1

>  <s_m_source_file>  (1) 
generated__ligand_Pocket2Mol_2026-05-06_prepared.sdf

>  <GenAI_Model>  (1) 
Pocket2Mol

>  <Protein>  (1) 
GPCR_5HT2C

$$$$
Pocket2Mol_14_num_sample_100
     RDKit          3D

  0  0  0  0  0  0  0  0  0  0999 V3000
M  V30 BEGIN CTAB
M  V30 COUNTS 10 10 0 0 1
M  V30 BEGIN ATOM
M  V30 1 C 35.487349 34.231659 59.190325 0
M  V30 2 C 36.916691 33.737897 59.001084 0
M  V30 3 O 34.944785 33.248370 60.040427 0
M  V30 4 O 37.046084 32.815598 60.057622 0
M  V30 5 C 35.876055 32.480555 60.596622 0
M  V30 6 O 35.691687 31.621430 61.453501 0
M  V30 7 H 34.937817 34.307511 58.253501 0
M  V30 8 H 35.467410 35.199208 59.692218 0
M  V30 9 H 37.039421 33.221430 58.048112 0
M  V30 10 H 37.648247 34.542589 59.068396 0
M  V30 END ATOM
M  V30 BEGIN BOND
M  V30 1 1 2 1
M  V30 2 1 3 1
M  V30 3 1 4 2
M  V30 4 1 5 3
M  V30 5 1 5 4
M  V30 6 2 6 5
M  V30 7 1 7 1
M  V30 8 1 8 1
M  V30 9 1 9 2
M  V30 10 1 10 2
M  V30 END BOND
M  V30 END CTAB
M  END
>  <i_epik_Tot_Q>  (1) 
0

>  <i_epik_Tot_abs_Q>  (1) 
0

>  <i_i_glide_confnum>  (1) 
1

>  <i_i_glide_lignum>  (1) 
17

>  <i_i_glide_posenum>  (1) 
359

>  <i_i_glide_rotatable_bonds>  (1) 
0

>  <i_lp_mmshare_version>  (1) 
72125

>  <i_m_source_file_index>  (1) 
15

>  <i_f3d_flags>  (1) 
0

>  <num_sample>  (1) 
100

>  <b_lp_Chiralities_Consistent>  (1) 
1

>  <r_epik_Charging_Adjusted_Penalty>  (1) 
0

>  <r_epik_Ionization_Penalty>  (1) 
0

>  <r_epik_Ionization_Penalty_Charging>  (1) 
0

>  <r_epik_Ionization_Penalty_Neutral>  (1) 
0

>  <r_epik_State_Penalty>  (1) 
-0

>  <r_glide_ring_energy>  (1) 
0

>  <r_i_docking_score>  (1) 
-4.371510169492435

>  <r_i_glide_ecoul>  (1) 
-3.6939697432164662

>  <r_i_glide_eff_state_penalty>  (1) 
-0

>  <r_i_glide_einternal>  (1) 
0

>  <r_i_glide_emodel>  (1) 
-19.447687341961156

>  <r_i_glide_emodel_strain>  (1) 
0

>  <r_i_glide_energy>  (1) 
-14.963042897465073

>  <r_i_glide_erotb>  (1) 
0

>  <r_i_glide_esite>  (1) 
-0.025627716964201776

>  <r_i_glide_evdw>  (1) 
-11.269073154248607

>  <r_i_glide_gscore>  (1) 
-4.371510169492435

>  <r_i_glide_gscore_strain>  (1) 
0

>  <r_i_glide_hbond>  (1) 
-0.32000000000000001

>  <r_i_glide_ligand_efficiency>  (1) 
-0.72858502824873916

>  <r_i_glide_ligand_efficiency_ln>  (1) 
-1.5658620370691156

>  <r_i_glide_ligand_efficiency_sa>  (1) 
-1.3239268584599704

>  <r_i_glide_lipo>  (1) 
0

>  <r_i_glide_metal>  (1) 
-0

>  <r_i_glide_rewards>  (1) 
-2.9083333333333332

>  <r_lp_Energy>  (1) 
-6.8415979999999994

>  <r_lp_tautomer_probability>  (1) 
1

>  <s_epik_Chemistry_Notes>  (1) 
This compound has an ester and may undergo hydrolysis at high or low pH.

>  <s_epik_cmdline>  (1) 
J2VwaWtfcHl0aG9uJywgJy1waHQnLCAnMS4wJywgJy1waCcsICc3LjQnLCAnLXRuJywgJzgnLCAnLW1hJywgJzUwMCcsICctaW1hZScsICc8aW5maWxlLm1hZT4nLCAnLW9tYWUnLCAnPG91dGZpbGUubWFlPic=

>  <s_epik_input>  (1) 
TzFbQ0gyXVtDSDJdT0MxPU8=

>  <s_glide_docking_method>  (1) 
confgen

>  <s_i_glide_gridfile>  (1) 
gpcr_5ht2c_6bqh_protein_autoprepared_prepared

>  <s_lp_Force_Field>  (1) 
S-OPLS

>  <s_lp_Variant>  (1) 
Pocket2Mol_14_num_sample_100-1

>  <s_m_source_file>  (1) 
generated__ligand_Pocket2Mol_2026-05-06_prepared.sdf

>  <GenAI_Model>  (1) 
Pocket2Mol

>  <Protein>  (1) 
GPCR_5HT2C

$$$$
Pocket2Mol_42_num_sample_100
     RDKit          3D

  0  0  0  0  0  0  0  0  0  0999 V3000
M  V30 BEGIN CTAB
M  V30 COUNTS 10 9 0 0 1
M  V30 BEGIN ATOM
M  V30 1 C 39.259608 33.573858 61.748583 0
M  V30 2 O 39.812624 32.274949 61.681539 0
M  V30 3 C 39.003970 31.208565 61.492567 0
M  V30 4 C 39.828747 29.904784 61.316535 0
M  V30 5 O 37.769539 31.240400 61.453494 0
M  V30 6 O 39.168248 28.876127 61.053493 0
M  V30 7 O 41.067303 30.021515 61.453503 0 CHG=-1
M  V30 8 H 40.057973 34.315436 61.771627 0
M  V30 9 H 38.667402 33.686291 62.653623 0
M  V30 10 H 38.627354 33.779233 60.883747 0
M  V30 END ATOM
M  V30 BEGIN BOND
M  V30 1 1 2 1
M  V30 2 1 3 2
M  V30 3 1 4 3
M  V30 4 2 5 3
M  V30 5 2 6 4
M  V30 6 1 7 4
M  V30 7 1 8 1
M  V30 8 1 9 1
M  V30 9 1 10 1
M  V30 END BOND
M  V30 END CTAB
M  END
>  <i_epik_Tot_Q>  (1) 
-1

>  <i_epik_Tot_abs_Q>  (1) 
1

>  <i_i_glide_confnum>  (1) 
1

>  <i_i_glide_lignum>  (1) 
45

>  <i_i_glide_posenum>  (1) 
194

>  <i_i_glide_rotatable_bonds>  (1) 
2

>  <i_lp_mmshare_version>  (1) 
72125

>  <i_m_source_file_index>  (1) 
43

>  <i_f3d_flags>  (1) 
0

>  <num_sample>  (1) 
100

>  <b_lp_Chiralities_Consistent>  (1) 
1

>  <r_epik_Charging_Adjusted_Penalty>  (1) 
5.6581681309968728e-06

>  <r_epik_Ionization_Penalty>  (1) 
5.6581681309968728e-06

>  <r_epik_Ionization_Penalty_Charging>  (1) 
5.6581681309968728e-06

>  <r_epik_Ionization_Penalty_Neutral>  (1) 
0

>  <r_epik_State_Penalty>  (1) 
-0

>  <r_glide_ring_energy>  (1) 
0

>  <r_i_docking_score>  (1) 
-4.3556390104154392

>  <r_i_glide_ecoul>  (1) 
-5.0231183050243224

>  <r_i_glide_eff_state_penalty>  (1) 
-0

>  <r_i_glide_einternal>  (1) 
0.37958060478302036

>  <r_i_glide_emodel>  (1) 
-18.062254168925552

>  <r_i_glide_emodel_strain>  (1) 
0

>  <r_i_glide_energy>  (1) 
-13.699292267603701

>  <r_i_glide_erotb>  (1) 
0

>  <r_i_glide_esite>  (1) 
0

>  <r_i_glide_evdw>  (1) 
-8.6761739625793783

>  <r_i_glide_gscore>  (1) 
-4.3556390104154392

>  <r_i_glide_gscore_strain>  (1) 
0

>  <r_i_glide_hbond>  (1) 
-0.27678356745400762

>  <r_i_glide_ligand_efficiency>  (1) 
-0.62223414434506275

>  <r_i_glide_ligand_efficiency_ln>  (1) 
-1.4785376301487654

>  <r_i_glide_ligand_efficiency_sa>  (1) 
-1.1902910977033665

>  <r_i_glide_lipo>  (1) 
-0.18885661011332899

>  <r_i_glide_metal>  (1) 
-0

>  <r_i_glide_rewards>  (1) 
-2.7027223889654848

>  <r_lp_Energy>  (1) 
21.029133999999999

>  <r_lp_tautomer_probability>  (1) 
1

>  <s_epik_Chemistry_Notes>  (1) 
This compound has an ester and may undergo hydrolysis at high or low pH.

>  <s_epik_cmdline>  (1) 
J2VwaWtfcHl0aG9uJywgJy1waHQnLCAnMS4wJywgJy1waCcsICc3LjQnLCAnLXRuJywgJzgnLCAnLW1hJywgJzUwMCcsICctaW1hZScsICc8aW5maWxlLm1hZT4nLCAnLW9tYWUnLCAnPG91dGZpbGUubWFlPic=

>  <s_epik_input>  (1) 
W0NIM11PQyg9TylDKD1PKVtPSF0=

>  <s_glide_docking_method>  (1) 
confgen

>  <s_i_glide_gridfile>  (1) 
gpcr_5ht2c_6bqh_protein_autoprepared_prepared

>  <s_lp_Force_Field>  (1) 
S-OPLS

>  <s_lp_Variant>  (1) 
Pocket2Mol_42_num_sample_100-1

>  <s_m_source_file>  (1) 
generated__ligand_Pocket2Mol_2026-05-06_prepared.sdf

>  <GenAI_Model>  (1) 
Pocket2Mol

>  <Protein>  (1) 
GPCR_5HT2C

$$$$
Pocket2Mol_3_num_sample_100
     RDKit          3D

  0  0  0  0  0  0  0  0  0  0999 V3000
M  V30 BEGIN CTAB
M  V30 COUNTS 9 9 0 0 1
M  V30 BEGIN ATOM
M  V30 1 C 39.067403 27.635006 51.058326 0
M  V30 2 O 38.608156 27.806647 52.333858 0
M  V30 3 C 39.067406 29.030901 52.731615 0
M  V30 4 C 39.797487 28.715196 50.653502 0
M  V30 5 C 39.801327 29.621429 51.742322 0
M  V30 6 H 38.784801 26.703706 50.589435 0
M  V30 7 H 38.787152 29.324013 53.732826 0
M  V30 8 H 40.267405 28.836781 49.689959 0
M  V30 9 H 40.277699 30.589931 51.796634 0
M  V30 END ATOM
M  V30 BEGIN BOND
M  V30 1 1 2 1
M  V30 2 1 3 2
M  V30 3 2 4 1
M  V30 4 2 5 3
M  V30 5 1 5 4
M  V30 6 1 6 1
M  V30 7 1 7 3
M  V30 8 1 8 4
M  V30 9 1 9 5
M  V30 END BOND
M  V30 END CTAB
M  END
>  <i_epik_Tot_Q>  (1) 
0

>  <i_epik_Tot_abs_Q>  (1) 
0

>  <i_i_glide_confnum>  (1) 
1

>  <i_i_glide_lignum>  (1) 
6

>  <i_i_glide_posenum>  (1) 
146

>  <i_i_glide_rotatable_bonds>  (1) 
0

>  <i_lp_mmshare_version>  (1) 
72125

>  <i_m_source_file_index>  (1) 
4

>  <i_f3d_flags>  (1) 
0

>  <num_sample>  (1) 
100

>  <b_lp_Chiralities_Consistent>  (1) 
1

>  <r_epik_Charging_Adjusted_Penalty>  (1) 
0

>  <r_epik_Ionization_Penalty>  (1) 
0

>  <r_epik_Ionization_Penalty_Charging>  (1) 
0

>  <r_epik_Ionization_Penalty_Neutral>  (1) 
0

>  <r_epik_State_Penalty>  (1) 
-0

>  <r_glide_ring_energy>  (1) 
0

>  <r_i_docking_score>  (1) 
-4.3545157148444185

>  <r_i_glide_ecoul>  (1) 
-0.43334581564048658

>  <r_i_glide_eff_state_penalty>  (1) 
-0

>  <r_i_glide_einternal>  (1) 
0

>  <r_i_glide_emodel>  (1) 
-16.580554392559826

>  <r_i_glide_emodel_strain>  (1) 
0

>  <r_i_glide_energy>  (1) 
-12.989088577376112

>  <r_i_glide_erotb>  (1) 
0

>  <r_i_glide_esite>  (1) 
0

>  <r_i_glide_evdw>  (1) 
-12.555742761735626

>  <r_i_glide_gscore>  (1) 
-4.3545157148444185

>  <r_i_glide_gscore_strain>  (1) 
0

>  <r_i_glide_hbond>  (1) 
0

>  <r_i_glide_ligand_efficiency>  (1) 
-0.87090314296888371

>  <r_i_glide_ligand_efficiency_ln>  (1) 
-1.668756207647224

>  <r_i_glide_ligand_efficiency_sa>  (1) 
-1.4892234263619277

>  <r_i_glide_lipo>  (1) 
-1.299037772622645

>  <r_i_glide_metal>  (1) 
-0

>  <r_i_glide_rewards>  (1) 
-2.3626889317889188

>  <r_lp_Energy>  (1) 
2.5980879999999997

>  <r_lp_tautomer_probability>  (1) 
1

>  <s_epik_cmdline>  (1) 
J2VwaWtfcHl0aG9uJywgJy1waHQnLCAnMS4wJywgJy1waCcsICc3LjQnLCAnLXRuJywgJzgnLCAnLW1hJywgJzUwMCcsICctaW1hZScsICc8aW5maWxlLm1hZT4nLCAnLW9tYWUnLCAnPG91dGZpbGUubWFlPic=

>  <s_epik_input>  (1) 
W2NIXTFvW2NIXVtjSF1bY0hdMQ==

>  <s_glide_docking_method>  (1) 
confgen

>  <s_i_glide_gridfile>  (1) 
gpcr_5ht2c_6bqh_protein_autoprepared_prepared

>  <s_lp_Force_Field>  (1) 
S-OPLS

>  <s_lp_Variant>  (1) 
Pocket2Mol_3_num_sample_100-1

>  <s_m_source_file>  (1) 
generated__ligand_Pocket2Mol_2026-05-06_prepared.sdf

>  <GenAI_Model>  (1) 
Pocket2Mol

>  <Protein>  (1) 
GPCR_5HT2C

$$$$
Pocket2Mol_99_num_sample_100
     RDKit          3D

  0  0  0  0  0  0  0  0  0  0999 V3000
M  V30 BEGIN CTAB
M  V30 COUNTS 13 13 0 0 1
M  V30 BEGIN ATOM
M  V30 1 C 36.356470 31.300945 60.252852 0
M  V30 2 O 35.866319 31.916443 61.433899 0
M  V30 3 C 35.455423 33.221429 61.053511 0
M  V30 4 C 37.162601 32.405659 59.570966 0
M  V30 5 C 36.561046 33.695627 60.112598 0
M  V30 6 H 36.958370 30.421188 60.478127 0
M  V30 7 H 35.518160 30.992211 59.625342 0
M  V30 8 H 34.500652 33.164092 60.527614 0
M  V30 9 H 35.328299 33.874532 61.917133 0
M  V30 10 H 38.215242 32.337355 59.846616 0
M  V30 11 H 37.093794 32.338817 58.484463 0
M  V30 12 H 36.171728 34.338620 59.322016 0
M  V30 13 H 37.316255 34.255895 60.664749 0
M  V30 END ATOM
M  V30 BEGIN BOND
M  V30 1 1 2 1
M  V30 2 1 3 2
M  V30 3 1 4 1
M  V30 4 1 5 3
M  V30 5 1 5 4
M  V30 6 1 6 1
M  V30 7 1 7 1
M  V30 8 1 8 3
M  V30 9 1 9 3
M  V30 10 1 10 4
M  V30 11 1 11 4
M  V30 12 1 12 5
M  V30 13 1 13 5
M  V30 END BOND
M  V30 END CTAB
M  END
>  <i_epik_Tot_Q>  (1) 
0

>  <i_epik_Tot_abs_Q>  (1) 
0

>  <i_i_glide_confnum>  (1) 
2

>  <i_i_glide_lignum>  (1) 
104

>  <i_i_glide_posenum>  (1) 
329

>  <i_i_glide_rotatable_bonds>  (1) 
0

>  <i_lp_mmshare_version>  (1) 
72125

>  <i_m_source_file_index>  (1) 
100

>  <i_f3d_flags>  (1) 
0

>  <num_sample>  (1) 
100

>  <b_lp_Chiralities_Consistent>  (1) 
1

>  <r_epik_Charging_Adjusted_Penalty>  (1) 
0

>  <r_epik_Ionization_Penalty>  (1) 
1.3889264151150229e-11

>  <r_epik_Ionization_Penalty_Charging>  (1) 
0

>  <r_epik_Ionization_Penalty_Neutral>  (1) 
1.3889264151150229e-11

>  <r_epik_State_Penalty>  (1) 
-0

>  <r_glide_ring_energy>  (1) 
9.8467329014132268e-05

>  <r_i_docking_score>  (1) 
-4.3529794971165838

>  <r_i_glide_ecoul>  (1) 
-2.5688454414601134

>  <r_i_glide_eff_state_penalty>  (1) 
-0

>  <r_i_glide_einternal>  (1) 
0

>  <r_i_glide_emodel>  (1) 
-16.285762558488159

>  <r_i_glide_emodel_strain>  (1) 
0

>  <r_i_glide_energy>  (1) 
-12.754310454461592

>  <r_i_glide_erotb>  (1) 
0

>  <r_i_glide_esite>  (1) 
0

>  <r_i_glide_evdw>  (1) 
-10.185465013001478

>  <r_i_glide_gscore>  (1) 
-4.3529794971165838

>  <r_i_glide_gscore_strain>  (1) 
0

>  <r_i_glide_hbond>  (1) 
-0.32000000000000001

>  <r_i_glide_ligand_efficiency>  (1) 
-0.87059589942331672

>  <r_i_glide_ligand_efficiency_ln>  (1) 
-1.6681674916940623

>  <r_i_glide_ligand_efficiency_sa>  (1) 
-1.4886980472892366

>  <r_i_glide_lipo>  (1) 
-0.17230965564290213

>  <r_i_glide_metal>  (1) 
-0

>  <r_i_glide_rewards>  (1) 
-2.9660697746045912

>  <r_lp_Energy>  (1) 
3.9174029999999997

>  <r_lp_tautomer_probability>  (1) 
1

>  <s_epik_cmdline>  (1) 
J2VwaWtfcHl0aG9uJywgJy1waHQnLCAnMS4wJywgJy1waCcsICc3LjQnLCAnLXRuJywgJzgnLCAnLW1hJywgJzUwMCcsICctaW1hZScsICc8aW5maWxlLm1hZT4nLCAnLW9tYWUnLCAnPG91dGZpbGUubWFlPic=

>  <s_epik_input>  (1) 
W0NIMl0xT1tDSDJdW0NIMl1bQ0gyXTE=

>  <s_glide_docking_method>  (1) 
confgen

>  <s_i_glide_gridfile>  (1) 
gpcr_5ht2c_6bqh_protein_autoprepared_prepared

>  <s_lp_Force_Field>  (1) 
S-OPLS

>  <s_lp_Variant>  (1) 
Pocket2Mol_99_num_sample_100-1

>  <s_m_source_file>  (1) 
generated__ligand_Pocket2Mol_2026-05-06_prepared.sdf

>  <GenAI_Model>  (1) 
Pocket2Mol

>  <Protein>  (1) 
GPCR_5HT2C

$$$$
Pocket2Mol_5_num_sample_100
     RDKit          3D

  0  0  0  0  0  0  0  0  0  0999 V3000
M  V30 BEGIN CTAB
M  V30 COUNTS 12 12 0 0 1
M  V30 BEGIN ATOM
M  V30 1 C 38.823371 28.255667 52.006555 0
M  V30 2 C 39.067397 29.221400 52.815992 0
M  V30 3 C 39.492194 28.388065 50.653502 0
M  V30 4 C 40.231086 29.851002 50.907151 0
M  V30 5 N 39.867403 30.134243 52.307110 0
M  V30 6 H 38.697552 29.366634 53.821379 0
M  V30 7 H 40.201410 27.580320 50.477555 0
M  V30 8 H 38.754919 28.421429 49.853528 0
M  V30 9 H 41.313194 29.791656 50.788698 0
M  V30 10 H 39.837845 30.622695 50.244517 0
M  V30 11 H 38.186299 27.414048 52.237001 0
M  V30 12 H 39.976276 31.059031 52.702289 0
M  V30 END ATOM
M  V30 BEGIN BOND
M  V30 1 2 2 1
M  V30 2 1 3 1
M  V30 3 1 4 3
M  V30 4 1 5 2
M  V30 5 1 5 4
M  V30 6 1 6 2
M  V30 7 1 7 3
M  V30 8 1 8 3
M  V30 9 1 9 4
M  V30 10 1 10 4
M  V30 11 1 11 1
M  V30 12 1 12 5
M  V30 END BOND
M  V30 END CTAB
M  END
>  <i_epik_Tot_Q>  (1) 
0

>  <i_epik_Tot_abs_Q>  (1) 
0

>  <i_i_glide_confnum>  (1) 
1

>  <i_i_glide_lignum>  (1) 
8

>  <i_i_glide_posenum>  (1) 
151

>  <i_i_glide_rotatable_bonds>  (1) 
0

>  <i_lp_mmshare_version>  (1) 
72125

>  <i_m_source_file_index>  (1) 
6

>  <i_f3d_flags>  (1) 
0

>  <num_sample>  (1) 
100

>  <b_lp_Chiralities_Consistent>  (1) 
1

>  <r_epik_Charging_Adjusted_Penalty>  (1) 
1.6042444336516156e-06

>  <r_epik_Ionization_Penalty>  (1) 
0.0023556498582944039

>  <r_epik_Ionization_Penalty_Charging>  (1) 
1.6042444336516156e-06

>  <r_epik_Ionization_Penalty_Neutral>  (1) 
0.0023540456138607521

>  <r_epik_State_Penalty>  (1) 
-0

>  <r_glide_ring_energy>  (1) 
0

>  <r_i_docking_score>  (1) 
-4.3490575378242049

>  <r_i_glide_ecoul>  (1) 
-1.2342349154797858

>  <r_i_glide_eff_state_penalty>  (1) 
-0

>  <r_i_glide_einternal>  (1) 
0

>  <r_i_glide_emodel>  (1) 
-18.507136536689792

>  <r_i_glide_emodel_strain>  (1) 
0

>  <r_i_glide_energy>  (1) 
-14.644774514834664

>  <r_i_glide_erotb>  (1) 
0

>  <r_i_glide_esite>  (1) 
0

>  <r_i_glide_evdw>  (1) 
-13.410539599354879

>  <r_i_glide_gscore>  (1) 
-4.3490575378242049

>  <r_i_glide_gscore_strain>  (1) 
0

>  <r_i_glide_hbond>  (1) 
0

>  <r_i_glide_ligand_efficiency>  (1) 
-0.86981150756484094

>  <r_i_glide_ligand_efficiency_ln>  (1) 
-1.6666645016157431

>  <r_i_glide_ligand_efficiency_sa>  (1) 
-1.487356756078474

>  <r_i_glide_lipo>  (1) 
-1.2433953205344928

>  <r_i_glide_metal>  (1) 
-0

>  <r_i_glide_rewards>  (1) 
-2.25

>  <r_lp_Energy>  (1) 
2.9163319999999997

>  <r_lp_tautomer_probability>  (1) 
1

>  <s_epik_Chemistry_Notes>  (1) 
This compound has an imine and may undergo hydrolysis.

>  <s_epik_cmdline>  (1) 
J2VwaWtfcHl0aG9uJywgJy1waHQnLCAnMS4wJywgJy1waCcsICc3LjQnLCAnLXRuJywgJzgnLCAnLW1hJywgJzUwMCcsICctaW1hZScsICc8aW5maWxlLm1hZT4nLCAnLW9tYWUnLCAnPG91dGZpbGUubWFlPic=

>  <s_epik_input>  (1) 
W0NIMl0xW0NIXT1OW0NIMl1bQ0gyXTE=

>  <s_glide_docking_method>  (1) 
confgen

>  <s_i_glide_gridfile>  (1) 
gpcr_5ht2c_6bqh_protein_autoprepared_prepared

>  <s_lp_Force_Field>  (1) 
S-OPLS

>  <s_lp_Variant>  (1) 
Pocket2Mol_5_num_sample_100-1

>  <s_m_source_file>  (1) 
generated__ligand_Pocket2Mol_2026-05-06_prepared.sdf

>  <GenAI_Model>  (1) 
Pocket2Mol

>  <Protein>  (1) 
GPCR_5HT2C

$$$$
Pocket2Mol_14_num_sample_100
     RDKit          3D

  0  0  0  0  0  0  0  0  0  0999 V3000
M  V30 BEGIN CTAB
M  V30 COUNTS 10 10 0 0 1
M  V30 BEGIN ATOM
M  V30 1 C 39.867403 30.420725 52.403930 0
M  V30 2 C 40.390254 30.466855 50.971327 0
M  V30 3 O 39.145539 29.209311 52.404180 0
M  V30 4 O 40.245213 29.128004 50.562731 0
M  V30 5 C 39.450276 28.428905 51.367668 0
M  V30 6 O 39.067404 27.276118 51.188511 0
M  V30 7 H 39.244496 31.279401 52.653568 0
M  V30 8 H 40.667400 30.356155 53.137334 0
M  V30 9 H 39.769287 31.106636 50.343268 0
M  V30 10 H 41.424718 30.805993 50.911801 0
M  V30 END ATOM
M  V30 BEGIN BOND
M  V30 1 1 2 1
M  V30 2 1 3 1
M  V30 3 1 4 2
M  V30 4 1 5 3
M  V30 5 1 5 4
M  V30 6 2 6 5
M  V30 7 1 7 1
M  V30 8 1 8 1
M  V30 9 1 9 2
M  V30 10 1 10 2
M  V30 END BOND
M  V30 END CTAB
M  END
>  <i_epik_Tot_Q>  (1) 
0

>  <i_epik_Tot_abs_Q>  (1) 
0

>  <i_i_glide_confnum>  (1) 
1

>  <i_i_glide_lignum>  (1) 
17

>  <i_i_glide_posenum>  (1) 
262

>  <i_i_glide_rotatable_bonds>  (1) 
0

>  <i_lp_mmshare_version>  (1) 
72125

>  <i_m_source_file_index>  (1) 
15

>  <i_f3d_flags>  (1) 
0

>  <num_sample>  (1) 
100

>  <b_lp_Chiralities_Consistent>  (1) 
1

>  <r_epik_Charging_Adjusted_Penalty>  (1) 
0

>  <r_epik_Ionization_Penalty>  (1) 
0

>  <r_epik_Ionization_Penalty_Charging>  (1) 
0

>  <r_epik_Ionization_Penalty_Neutral>  (1) 
0

>  <r_epik_State_Penalty>  (1) 
-0

>  <r_glide_ring_energy>  (1) 
0

>  <r_i_docking_score>  (1) 
-4.3465734724287906

>  <r_i_glide_ecoul>  (1) 
0.076224226874582718

>  <r_i_glide_eff_state_penalty>  (1) 
-0

>  <r_i_glide_einternal>  (1) 
0

>  <r_i_glide_emodel>  (1) 
-20.358268888593937

>  <r_i_glide_emodel_strain>  (1) 
0

>  <r_i_glide_energy>  (1) 
-15.899206500553079

>  <r_i_glide_erotb>  (1) 
0

>  <r_i_glide_esite>  (1) 
0

>  <r_i_glide_evdw>  (1) 
-15.975430727427662

>  <r_i_glide_gscore>  (1) 
-4.3465734724287906

>  <r_i_glide_gscore_strain>  (1) 
0

>  <r_i_glide_hbond>  (1) 
0

>  <r_i_glide_ligand_efficiency>  (1) 
-0.72442891207146509

>  <r_i_glide_ligand_efficiency_ln>  (1) 
-1.5569297857994389

>  <r_i_glide_ligand_efficiency_sa>  (1) 
-1.3163746941680428

>  <r_i_glide_lipo>  (1) 
-0.66000000000000003

>  <r_i_glide_metal>  (1) 
-0

>  <r_i_glide_rewards>  (1) 
-2.899235570088595

>  <r_lp_Energy>  (1) 
-6.8415979999999994

>  <r_lp_tautomer_probability>  (1) 
1

>  <s_epik_Chemistry_Notes>  (1) 
This compound has an ester and may undergo hydrolysis at high or low pH.

>  <s_epik_cmdline>  (1) 
J2VwaWtfcHl0aG9uJywgJy1waHQnLCAnMS4wJywgJy1waCcsICc3LjQnLCAnLXRuJywgJzgnLCAnLW1hJywgJzUwMCcsICctaW1hZScsICc8aW5maWxlLm1hZT4nLCAnLW9tYWUnLCAnPG91dGZpbGUubWFlPic=

>  <s_epik_input>  (1) 
TzFbQ0gyXVtDSDJdT0MxPU8=

>  <s_glide_docking_method>  (1) 
confgen

>  <s_i_glide_gridfile>  (1) 
gpcr_5ht2c_6bqh_protein_autoprepared_prepared

>  <s_lp_Force_Field>  (1) 
S-OPLS

>  <s_lp_Variant>  (1) 
Pocket2Mol_14_num_sample_100-1

>  <s_m_source_file>  (1) 
generated__ligand_Pocket2Mol_2026-05-06_prepared.sdf

>  <GenAI_Model>  (1) 
Pocket2Mol

>  <Protein>  (1) 
GPCR_5HT2C

$$$$
Pocket2Mol_78_num_sample_100
     RDKit          3D

  0  0  0  0  0  0  0  0  0  0999 V3000
M  V30 BEGIN CTAB
M  V30 COUNTS 14 14 0 0 1
M  V30 BEGIN ATOM
M  V30 1 C 36.572874 32.041333 61.052486 0
M  V30 2 C 37.817463 31.992129 61.710908 0
M  V30 3 C 38.843602 31.149666 61.225252 0
M  V30 4 C 40.177383 31.101314 61.924330 0
M  V30 5 O 41.067325 30.352056 61.457533 0
M  V30 6 O 40.340415 31.815306 62.938965 0 CHG=-1
M  V30 7 C 36.348695 31.251258 59.908463 0
M  V30 8 C 38.613132 30.356758 60.078092 0
M  V30 9 C 37.367485 30.409654 59.422218 0
M  V30 10 H 35.791613 32.688317 61.423399 0
M  V30 11 H 37.987106 32.601546 62.586190 0
M  V30 12 H 35.395735 31.292721 59.400714 0
M  V30 13 H 39.392251 29.710626 59.700728 0
M  V30 14 H 37.194569 29.806044 58.543326 0
M  V30 END ATOM
M  V30 BEGIN BOND
M  V30 1 1 2 1
M  V30 2 2 3 2
M  V30 3 1 4 3
M  V30 4 2 5 4
M  V30 5 1 6 4
M  V30 6 2 7 1
M  V30 7 1 8 3
M  V30 8 1 9 7
M  V30 9 2 9 8
M  V30 10 1 10 1
M  V30 11 1 11 2
M  V30 12 1 12 7
M  V30 13 1 13 8
M  V30 14 1 14 9
M  V30 END BOND
M  V30 END CTAB
M  END
>  <i_epik_Tot_Q>  (1) 
-1

>  <i_epik_Tot_abs_Q>  (1) 
1

>  <i_i_glide_confnum>  (1) 
1

>  <i_i_glide_lignum>  (1) 
83

>  <i_i_glide_posenum>  (1) 
176

>  <i_i_glide_rotatable_bonds>  (1) 
1

>  <i_lp_mmshare_version>  (1) 
72125

>  <i_m_source_file_index>  (1) 
79

>  <i_f3d_flags>  (1) 
0

>  <num_sample>  (1) 
100

>  <b_lp_Chiralities_Consistent>  (1) 
1

>  <r_epik_Charging_Adjusted_Penalty>  (1) 
0.00033308558627939336

>  <r_epik_Ionization_Penalty>  (1) 
0.00033308558627939336

>  <r_epik_Ionization_Penalty_Charging>  (1) 
0.00033308558627939336

>  <r_epik_Ionization_Penalty_Neutral>  (1) 
0

>  <r_epik_State_Penalty>  (1) 
-0

>  <r_glide_ring_energy>  (1) 
0

>  <r_i_docking_score>  (1) 
-4.3404903567630422

>  <r_i_glide_ecoul>  (1) 
-4.1689941137527358

>  <r_i_glide_eff_state_penalty>  (1) 
-0

>  <r_i_glide_einternal>  (1) 
1.1819432874204949e-05

>  <r_i_glide_emodel>  (1) 
-21.407736041160824

>  <r_i_glide_emodel_strain>  (1) 
0

>  <r_i_glide_energy>  (1) 
-16.45345274440842

>  <r_i_glide_erotb>  (1) 
0

>  <r_i_glide_esite>  (1) 
0

>  <r_i_glide_evdw>  (1) 
-12.284458630655685

>  <r_i_glide_gscore>  (1) 
-4.3404903567630422

>  <r_i_glide_gscore_strain>  (1) 
0

>  <r_i_glide_hbond>  (1) 
-0.16

>  <r_i_glide_ligand_efficiency>  (1) 
-0.4822767063070047

>  <r_i_glide_ligand_efficiency_ln>  (1) 
-1.3575806928080538

>  <r_i_glide_ligand_efficiency_sa>  (1) 
-1.0031759750239548

>  <r_i_glide_lipo>  (1) 
-0.45646294769972479

>  <r_i_glide_metal>  (1) 
-0

>  <r_i_glide_rewards>  (1) 
-2.4844553604676238

>  <r_lp_Energy>  (1) 
17.740625999999999

>  <r_lp_tautomer_probability>  (1) 
1

>  <s_epik_cmdline>  (1) 
J2VwaWtfcHl0aG9uJywgJy1waHQnLCAnMS4wJywgJy1waCcsICc3LjQnLCAnLXRuJywgJzgnLCAnLW1hJywgJzUwMCcsICctaW1hZScsICc8aW5maWxlLm1hZT4nLCAnLW9tYWUnLCAnPG91dGZpbGUubWFlPic=

>  <s_epik_input>  (1) 
W2NIXTFbY0hdW2NIXVtjSF1bY0hdYzFDKD1PKVtPSF0=

>  <s_glide_docking_method>  (1) 
confgen

>  <s_i_glide_gridfile>  (1) 
gpcr_5ht2c_6bqh_protein_autoprepared_prepared

>  <s_lp_Force_Field>  (1) 
S-OPLS

>  <s_lp_Variant>  (1) 
Pocket2Mol_78_num_sample_100-1

>  <s_m_source_file>  (1) 
generated__ligand_Pocket2Mol_2026-05-06_prepared.sdf

>  <GenAI_Model>  (1) 
Pocket2Mol

>  <Protein>  (1) 
GPCR_5HT2C

$$$$
Pocket2Mol_23_num_sample_100
     RDKit          3D

  0  0  0  0  0  0  0  0  0  0999 V3000
M  V30 BEGIN CTAB
M  V30 COUNTS 14 14 0 0 1
M  V30 BEGIN ATOM
M  V30 1 C 38.886191 30.492655 54.507443 0
M  V30 2 C 37.445979 30.113166 54.814737 0
M  V30 3 O 39.467403 29.240840 54.209862 0
M  V30 4 C 38.432651 28.410731 53.796376 0
M  V30 5 O 37.234056 29.100985 53.857963 0
M  V30 6 C 38.678192 27.982854 52.346718 0
M  V30 7 H 39.387235 30.993149 55.336416 0
M  V30 8 H 38.939584 31.131213 53.624381 0
M  V30 9 H 37.350460 29.703983 55.822466 0
M  V30 10 H 36.746216 30.942068 54.699770 0
M  V30 11 H 38.386969 27.555935 54.472709 0
M  V30 12 H 38.721892 28.858830 51.699109 0
M  V30 13 H 37.868498 27.333800 52.012133 0
M  V30 14 H 39.620696 27.439538 52.276132 0
M  V30 END ATOM
M  V30 BEGIN BOND
M  V30 1 1 2 1
M  V30 2 1 3 1
M  V30 3 1 4 3
M  V30 4 1 5 2
M  V30 5 1 5 4
M  V30 6 1 6 4
M  V30 7 1 7 1
M  V30 8 1 8 1
M  V30 9 1 9 2
M  V30 10 1 10 2
M  V30 11 1 11 4
M  V30 12 1 12 6
M  V30 13 1 13 6
M  V30 14 1 14 6
M  V30 END BOND
M  V30 END CTAB
M  END
>  <i_epik_Tot_Q>  (1) 
0

>  <i_epik_Tot_abs_Q>  (1) 
0

>  <i_i_glide_confnum>  (1) 
3

>  <i_i_glide_lignum>  (1) 
26

>  <i_i_glide_posenum>  (1) 
383

>  <i_i_glide_rotatable_bonds>  (1) 
0

>  <i_lp_mmshare_version>  (1) 
72125

>  <i_m_source_file_index>  (1) 
24

>  <i_f3d_flags>  (1) 
0

>  <num_sample>  (1) 
100

>  <b_lp_Chiralities_Consistent>  (1) 
1

>  <r_epik_Charging_Adjusted_Penalty>  (1) 
0

>  <r_epik_Ionization_Penalty>  (1) 
7.9724310449397378e-14

>  <r_epik_Ionization_Penalty_Charging>  (1) 
0

>  <r_epik_Ionization_Penalty_Neutral>  (1) 
7.9724310449397378e-14

>  <r_epik_State_Penalty>  (1) 
-0

>  <r_glide_ring_energy>  (1) 
1.2362365743684729

>  <r_i_docking_score>  (1) 
-4.3382140230796287

>  <r_i_glide_ecoul>  (1) 
-1.3818713845088104

>  <r_i_glide_eff_state_penalty>  (1) 
-0

>  <r_i_glide_einternal>  (1) 
0

>  <r_i_glide_emodel>  (1) 
-17.617830897871606

>  <r_i_glide_emodel_strain>  (1) 
0

>  <r_i_glide_energy>  (1) 
-13.499442708322102

>  <r_i_glide_erotb>  (1) 
0

>  <r_i_glide_esite>  (1) 
0

>  <r_i_glide_evdw>  (1) 
-12.117571323813291

>  <r_i_glide_gscore>  (1) 
-4.3382140230796287

>  <r_i_glide_gscore_strain>  (1) 
0

>  <r_i_glide_hbond>  (1) 
0

>  <r_i_glide_ligand_efficiency>  (1) 
-0.72303567051327144

>  <r_i_glide_ligand_efficiency_ln>  (1) 
-1.5539354557214706

>  <r_i_glide_ligand_efficiency_sa>  (1) 
-1.3138430062418596

>  <r_i_glide_lipo>  (1) 
-0.53706047424329872

>  <r_i_glide_metal>  (1) 
-0

>  <r_i_glide_rewards>  (1) 
-2.9879942749693438

>  <r_lp_Energy>  (1) 
-12.129052

>  <r_lp_tautomer_probability>  (1) 
1

>  <s_epik_Chemistry_Notes>  (1) 
This compound contains an acetal/aminal-like group ( X-CH(R)-Y where X, Y are N, S, or O) that may be acid/base labile, releasing an aldehyde.

>  <s_epik_cmdline>  (1) 
J2VwaWtfcHl0aG9uJywgJy1waHQnLCAnMS4wJywgJy1waCcsICc3LjQnLCAnLXRuJywgJzgnLCAnLW1hJywgJzUwMCcsICctaW1hZScsICc8aW5maWxlLm1hZT4nLCAnLW9tYWUnLCAnPG91dGZpbGUubWFlPic=

>  <s_epik_input>  (1) 
TzFbQ0gyXVtDSDJdT1tDSF0xW0NIM10=

>  <s_glide_docking_method>  (1) 
confgen

>  <s_i_glide_gridfile>  (1) 
gpcr_5ht2c_6bqh_protein_autoprepared_prepared

>  <s_lp_Force_Field>  (1) 
S-OPLS

>  <s_lp_Variant>  (1) 
Pocket2Mol_23_num_sample_100-1

>  <s_m_source_file>  (1) 
generated__ligand_Pocket2Mol_2026-05-06_prepared.sdf

>  <GenAI_Model>  (1) 
Pocket2Mol

>  <Protein>  (1) 
GPCR_5HT2C

$$$$
Pocket2Mol_51_num_sample_100
     RDKit          3D

  0  0  0  0  0  0  0  0  0  0999 V3000
M  V30 BEGIN CTAB
M  V30 COUNTS 18 18 0 0 1
M  V30 BEGIN ATOM
M  V30 1 C 38.632743 29.364465 57.474089 0
M  V30 2 C 39.865041 28.756609 57.164068 0
M  V30 3 C 40.699753 28.284993 58.197935 0
M  V30 4 C 42.024722 27.632653 57.861722 0
M  V30 5 C 38.232137 29.501905 58.818250 0
M  V30 6 C 36.905029 30.155715 59.148247 0
M  V30 7 C 39.067394 29.030380 59.853486 0
M  V30 8 C 40.299670 28.422121 59.543334 0
M  V30 9 H 37.994091 29.726043 56.680471 0
M  V30 10 H 40.170383 28.652502 56.133123 0
M  V30 11 H 42.508202 27.221431 58.748327 0
M  V30 12 H 41.868315 26.821430 57.150986 0
M  V30 13 H 42.702053 28.358805 57.411855 0
M  V30 14 H 36.728291 30.190642 60.223179 0
M  V30 15 H 36.882417 31.176754 58.765138 0
M  V30 16 H 36.085727 29.604780 58.685135 0
M  V30 17 H 38.763214 29.134907 60.884428 0
M  V30 18 H 40.937735 28.061041 60.337360 0
M  V30 END ATOM
M  V30 BEGIN BOND
M  V30 1 2 2 1
M  V30 2 1 3 2
M  V30 3 1 4 3
M  V30 4 1 5 1
M  V30 5 1 6 5
M  V30 6 2 7 5
M  V30 7 2 8 3
M  V30 8 1 8 7
M  V30 9 1 9 1
M  V30 10 1 10 2
M  V30 11 1 11 4
M  V30 12 1 12 4
M  V30 13 1 13 4
M  V30 14 1 14 6
M  V30 15 1 15 6
M  V30 16 1 16 6
M  V30 17 1 17 7
M  V30 18 1 18 8
M  V30 END BOND
M  V30 END CTAB
M  END
>  <i_epik_Tot_Q>  (1) 
0

>  <i_epik_Tot_abs_Q>  (1) 
0

>  <i_i_glide_confnum>  (1) 
1

>  <i_i_glide_lignum>  (1) 
54

>  <i_i_glide_posenum>  (1) 
215

>  <i_i_glide_rotatable_bonds>  (1) 
0

>  <i_lp_mmshare_version>  (1) 
72125

>  <i_m_source_file_index>  (1) 
52

>  <i_f3d_flags>  (1) 
0

>  <num_sample>  (1) 
100

>  <b_lp_Chiralities_Consistent>  (1) 
1

>  <r_epik_Charging_Adjusted_Penalty>  (1) 
0

>  <r_epik_Ionization_Penalty>  (1) 
0

>  <r_epik_Ionization_Penalty_Charging>  (1) 
0

>  <r_epik_Ionization_Penalty_Neutral>  (1) 
0

>  <r_epik_State_Penalty>  (1) 
-0

>  <r_glide_ring_energy>  (1) 
0

>  <r_i_docking_score>  (1) 
-4.3319990252142766

>  <r_i_glide_ecoul>  (1) 
-1.1444565619205294

>  <r_i_glide_eff_state_penalty>  (1) 
-0

>  <r_i_glide_einternal>  (1) 
0

>  <r_i_glide_emodel>  (1) 
-20.025024689104235

>  <r_i_glide_emodel_strain>  (1) 
0.0045760153065268483

>  <r_i_glide_energy>  (1) 
-14.814773586801286

>  <r_i_glide_erotb>  (1) 
0

>  <r_i_glide_esite>  (1) 
0

>  <r_i_glide_evdw>  (1) 
-13.670317024880756

>  <r_i_glide_gscore>  (1) 
-4.3319990252142766

>  <r_i_glide_gscore_strain>  (1) 
0

>  <r_i_glide_hbond>  (1) 
0

>  <r_i_glide_ligand_efficiency>  (1) 
-0.54149987815178457

>  <r_i_glide_ligand_efficiency_ln>  (1) 
-1.4067482582738591

>  <r_i_glide_ligand_efficiency_sa>  (1) 
-1.0829997563035694

>  <r_i_glide_lipo>  (1) 
-1.0876580508333189

>  <r_i_glide_metal>  (1) 
-0

>  <r_i_glide_rewards>  (1) 
-2.3891566388488408

>  <r_lp_Energy>  (1) 
3.9239269999999999

>  <r_lp_tautomer_probability>  (1) 
1

>  <s_epik_cmdline>  (1) 
J2VwaWtfcHl0aG9uJywgJy1waHQnLCAnMS4wJywgJy1waCcsICc3LjQnLCAnLXRuJywgJzgnLCAnLW1hJywgJzUwMCcsICctaW1hZScsICc8aW5maWxlLm1hZT4nLCAnLW9tYWUnLCAnPG91dGZpbGUubWFlPic=

>  <s_epik_input>  (1) 
W2NIXTFbY0hdYyhbQ0gzXSlbY0hdW2NIXWMxW0NIM10=

>  <s_glide_docking_method>  (1) 
confgen

>  <s_i_glide_gridfile>  (1) 
gpcr_5ht2c_6bqh_protein_autoprepared_prepared

>  <s_lp_Force_Field>  (1) 
S-OPLS

>  <s_lp_Variant>  (1) 
Pocket2Mol_51_num_sample_100-1

>  <s_m_source_file>  (1) 
generated__ligand_Pocket2Mol_2026-05-06_prepared.sdf

>  <GenAI_Model>  (1) 
Pocket2Mol

>  <Protein>  (1) 
GPCR_5HT2C

$$$$
Pocket2Mol_5_num_sample_100
     RDKit          3D

  0  0  0  0  0  0  0  0  0  0999 V3000
M  V30 BEGIN CTAB
M  V30 COUNTS 12 12 0 0 1
M  V30 BEGIN ATOM
M  V30 1 C 39.867403 30.021423 52.213861 0
M  V30 2 C 40.105552 29.603589 51.023624 0
M  V30 3 C 38.953846 29.121941 53.024806 0
M  V30 4 C 38.667402 27.983700 51.853698 0
M  V30 5 N 39.514871 28.460929 50.745968 0
M  V30 6 H 40.702038 30.072277 50.253682 0
M  V30 7 H 39.467221 28.713708 53.895071 0
M  V30 8 H 38.047146 29.640729 53.335871 0
M  V30 9 H 38.963911 26.983540 52.170982 0
M  V30 10 H 37.619652 27.967816 51.552588 0
M  V30 11 H 40.257614 30.941669 52.624750 0
M  V30 12 H 39.363583 28.138915 49.800142 0
M  V30 END ATOM
M  V30 BEGIN BOND
M  V30 1 2 2 1
M  V30 2 1 3 1
M  V30 3 1 4 3
M  V30 4 1 5 2
M  V30 5 1 5 4
M  V30 6 1 6 2
M  V30 7 1 7 3
M  V30 8 1 8 3
M  V30 9 1 9 4
M  V30 10 1 10 4
M  V30 11 1 11 1
M  V30 12 1 12 5
M  V30 END BOND
M  V30 END CTAB
M  END
>  <i_epik_Tot_Q>  (1) 
0

>  <i_epik_Tot_abs_Q>  (1) 
0

>  <i_i_glide_confnum>  (1) 
1

>  <i_i_glide_lignum>  (1) 
8

>  <i_i_glide_posenum>  (1) 
79

>  <i_i_glide_rotatable_bonds>  (1) 
0

>  <i_lp_mmshare_version>  (1) 
72125

>  <i_m_source_file_index>  (1) 
6

>  <i_f3d_flags>  (1) 
0

>  <num_sample>  (1) 
100

>  <b_lp_Chiralities_Consistent>  (1) 
1

>  <r_epik_Charging_Adjusted_Penalty>  (1) 
1.6042444336516156e-06

>  <r_epik_Ionization_Penalty>  (1) 
0.0023556498582944039

>  <r_epik_Ionization_Penalty_Charging>  (1) 
1.6042444336516156e-06

>  <r_epik_Ionization_Penalty_Neutral>  (1) 
0.0023540456138607521

>  <r_epik_State_Penalty>  (1) 
-0

>  <r_glide_ring_energy>  (1) 
0

>  <r_i_docking_score>  (1) 
-4.311208165540064

>  <r_i_glide_ecoul>  (1) 
-0.65628696433373601

>  <r_i_glide_eff_state_penalty>  (1) 
-0

>  <r_i_glide_einternal>  (1) 
0

>  <r_i_glide_emodel>  (1) 
-18.124327648087768

>  <r_i_glide_emodel_strain>  (1) 
0

>  <r_i_glide_energy>  (1) 
-14.295579340650054

>  <r_i_glide_erotb>  (1) 
0

>  <r_i_glide_esite>  (1) 
0

>  <r_i_glide_evdw>  (1) 
-13.639292376316318

>  <r_i_glide_gscore>  (1) 
-4.311208165540064

>  <r_i_glide_gscore_strain>  (1) 
0

>  <r_i_glide_hbond>  (1) 
0

>  <r_i_glide_ligand_efficiency>  (1) 
-0.86224163310801283

>  <r_i_glide_ligand_efficiency_ln>  (1) 
-1.6521597026688943

>  <r_i_glide_ligand_efficiency_sa>  (1) 
-1.4744124528379354

>  <r_i_glide_lipo>  (1) 
-1.2808005020741882

>  <r_i_glide_metal>  (1) 
-0

>  <r_i_glide_rewards>  (1) 
-2.25

>  <r_lp_Energy>  (1) 
2.9163319999999997

>  <r_lp_tautomer_probability>  (1) 
1

>  <s_epik_Chemistry_Notes>  (1) 
This compound has an imine and may undergo hydrolysis.

>  <s_epik_cmdline>  (1) 
J2VwaWtfcHl0aG9uJywgJy1waHQnLCAnMS4wJywgJy1waCcsICc3LjQnLCAnLXRuJywgJzgnLCAnLW1hJywgJzUwMCcsICctaW1hZScsICc8aW5maWxlLm1hZT4nLCAnLW9tYWUnLCAnPG91dGZpbGUubWFlPic=

>  <s_epik_input>  (1) 
W0NIMl0xW0NIXT1OW0NIMl1bQ0gyXTE=

>  <s_glide_docking_method>  (1) 
confgen

>  <s_i_glide_gridfile>  (1) 
gpcr_5ht2c_6bqh_protein_autoprepared_prepared

>  <s_lp_Force_Field>  (1) 
S-OPLS

>  <s_lp_Variant>  (1) 
Pocket2Mol_5_num_sample_100-1

>  <s_m_source_file>  (1) 
generated__ligand_Pocket2Mol_2026-05-06_prepared.sdf

>  <GenAI_Model>  (1) 
Pocket2Mol

>  <Protein>  (1) 
GPCR_5HT2C

$$$$
Pocket2Mol_42_num_sample_100
     RDKit          3D

  0  0  0  0  0  0  0  0  0  0999 V3000
M  V30 BEGIN CTAB
M  V30 COUNTS 10 9 0 0 1
M  V30 BEGIN ATOM
M  V30 1 C 37.648330 30.288060 59.346882 0
M  V30 2 O 38.805592 30.352918 60.164258 0
M  V30 3 C 38.740087 30.975403 61.362145 0
M  V30 4 C 40.128607 30.989057 62.071206 0
M  V30 5 O 37.724821 31.479338 61.853568 0
M  V30 6 O 41.067338 30.429571 61.453414 0
M  V30 7 O 40.160946 31.561441 63.183979 0 CHG=-1
M  V30 8 H 37.879106 29.770970 58.415061 0
M  V30 9 H 37.286356 31.286895 59.098702 0
M  V30 10 H 36.847647 29.743301 59.848310 0
M  V30 END ATOM
M  V30 BEGIN BOND
M  V30 1 1 2 1
M  V30 2 1 3 2
M  V30 3 1 4 3
M  V30 4 2 5 3
M  V30 5 2 6 4
M  V30 6 1 7 4
M  V30 7 1 8 1
M  V30 8 1 9 1
M  V30 9 1 10 1
M  V30 END BOND
M  V30 END CTAB
M  END
>  <i_epik_Tot_Q>  (1) 
-1

>  <i_epik_Tot_abs_Q>  (1) 
1

>  <i_i_glide_confnum>  (1) 
1

>  <i_i_glide_lignum>  (1) 
45

>  <i_i_glide_posenum>  (1) 
20

>  <i_i_glide_rotatable_bonds>  (1) 
2

>  <i_lp_mmshare_version>  (1) 
72125

>  <i_m_source_file_index>  (1) 
43

>  <i_f3d_flags>  (1) 
0

>  <num_sample>  (1) 
100

>  <b_lp_Chiralities_Consistent>  (1) 
1

>  <r_epik_Charging_Adjusted_Penalty>  (1) 
5.6581681309968728e-06

>  <r_epik_Ionization_Penalty>  (1) 
5.6581681309968728e-06

>  <r_epik_Ionization_Penalty_Charging>  (1) 
5.6581681309968728e-06

>  <r_epik_Ionization_Penalty_Neutral>  (1) 
0

>  <r_epik_State_Penalty>  (1) 
-0

>  <r_glide_ring_energy>  (1) 
0

>  <r_i_docking_score>  (1) 
-4.3030587718940811

>  <r_i_glide_ecoul>  (1) 
-5.5791621068734143

>  <r_i_glide_eff_state_penalty>  (1) 
-0

>  <r_i_glide_einternal>  (1) 
0.01746373922779787

>  <r_i_glide_emodel>  (1) 
-19.07476634466563

>  <r_i_glide_emodel_strain>  (1) 
0

>  <r_i_glide_energy>  (1) 
-14.585705752690675

>  <r_i_glide_erotb>  (1) 
0

>  <r_i_glide_esite>  (1) 
0

>  <r_i_glide_evdw>  (1) 
-9.0065436458172599

>  <r_i_glide_gscore>  (1) 
-4.3030587718940811

>  <r_i_glide_gscore_strain>  (1) 
0

>  <r_i_glide_hbond>  (1) 
-0.40335059397425072

>  <r_i_glide_ligand_efficiency>  (1) 
-0.61472268169915445

>  <r_i_glide_ligand_efficiency_ln>  (1) 
-1.4606890754200275

>  <r_i_glide_ligand_efficiency_sa>  (1) 
-1.1759221865797784

>  <r_i_glide_lipo>  (1) 
0

>  <r_i_glide_metal>  (1) 
-0

>  <r_i_glide_rewards>  (1) 
-2.6125066795979559

>  <r_lp_Energy>  (1) 
21.029133999999999

>  <r_lp_tautomer_probability>  (1) 
1

>  <s_epik_Chemistry_Notes>  (1) 
This compound has an ester and may undergo hydrolysis at high or low pH.

>  <s_epik_cmdline>  (1) 
J2VwaWtfcHl0aG9uJywgJy1waHQnLCAnMS4wJywgJy1waCcsICc3LjQnLCAnLXRuJywgJzgnLCAnLW1hJywgJzUwMCcsICctaW1hZScsICc8aW5maWxlLm1hZT4nLCAnLW9tYWUnLCAnPG91dGZpbGUubWFlPic=

>  <s_epik_input>  (1) 
W0NIM11PQyg9TylDKD1PKVtPSF0=

>  <s_glide_docking_method>  (1) 
confgen

>  <s_i_glide_gridfile>  (1) 
gpcr_5ht2c_6bqh_protein_autoprepared_prepared

>  <s_lp_Force_Field>  (1) 
S-OPLS

>  <s_lp_Variant>  (1) 
Pocket2Mol_42_num_sample_100-1

>  <s_m_source_file>  (1) 
generated__ligand_Pocket2Mol_2026-05-06_prepared.sdf

>  <GenAI_Model>  (1) 
Pocket2Mol

>  <Protein>  (1) 
GPCR_5HT2C

$$$$
Pocket2Mol_55_num_sample_100
     RDKit          3D

  0  0  0  0  0  0  0  0  0  0999 V3000
M  V30 BEGIN CTAB
M  V30 COUNTS 11 11 0 0 1
M  V30 BEGIN ATOM
M  V30 1 C 38.490547 27.210040 53.553983 0
M  V30 2 O 39.472632 26.971809 52.573886 0
M  V30 3 C 38.148133 28.666818 53.267773 0
M  V30 4 O 38.337739 28.789008 51.870667 0
M  V30 5 C 38.988097 27.634589 51.459744 0
M  V30 6 H 37.627798 26.561898 53.386642 0
M  V30 7 H 38.864332 27.043837 54.564392 0
M  V30 8 H 37.133034 28.927760 53.569318 0
M  V30 9 H 38.847576 29.332527 53.775663 0
M  V30 10 H 39.797678 27.871902 50.768327 0
M  V30 11 H 38.267404 26.989865 50.953201 0
M  V30 END ATOM
M  V30 BEGIN BOND
M  V30 1 1 2 1
M  V30 2 1 3 1
M  V30 3 1 4 3
M  V30 4 1 5 2
M  V30 5 1 5 4
M  V30 6 1 6 1
M  V30 7 1 7 1
M  V30 8 1 8 3
M  V30 9 1 9 3
M  V30 10 1 10 5
M  V30 11 1 11 5
M  V30 END BOND
M  V30 END CTAB
M  END
>  <i_epik_Tot_Q>  (1) 
0

>  <i_epik_Tot_abs_Q>  (1) 
0

>  <i_i_glide_confnum>  (1) 
3

>  <i_i_glide_lignum>  (1) 
59

>  <i_i_glide_posenum>  (1) 
386

>  <i_i_glide_rotatable_bonds>  (1) 
0

>  <i_lp_mmshare_version>  (1) 
72125

>  <i_m_source_file_index>  (1) 
56

>  <i_f3d_flags>  (1) 
0

>  <num_sample>  (1) 
100

>  <b_lp_Chiralities_Consistent>  (1) 
1

>  <r_epik_Charging_Adjusted_Penalty>  (1) 
0

>  <r_epik_Ionization_Penalty>  (1) 
7.9724310449397378e-14

>  <r_epik_Ionization_Penalty_Charging>  (1) 
0

>  <r_epik_Ionization_Penalty_Neutral>  (1) 
7.9724310449397378e-14

>  <r_epik_State_Penalty>  (1) 
-0

>  <r_glide_ring_energy>  (1) 
0.2805525668492585

>  <r_i_docking_score>  (1) 
-4.2785284747683034

>  <r_i_glide_ecoul>  (1) 
-1.1900788733025347

>  <r_i_glide_eff_state_penalty>  (1) 
-0

>  <r_i_glide_einternal>  (1) 
0

>  <r_i_glide_emodel>  (1) 
-16.696460455547761

>  <r_i_glide_emodel_strain>  (1) 
0

>  <r_i_glide_energy>  (1) 
-13.300082454903873

>  <r_i_glide_erotb>  (1) 
0

>  <r_i_glide_esite>  (1) 
0

>  <r_i_glide_evdw>  (1) 
-12.110003581601338

>  <r_i_glide_gscore>  (1) 
-4.2785284747683034

>  <r_i_glide_gscore_strain>  (1) 
0

>  <r_i_glide_hbond>  (1) 
0

>  <r_i_glide_ligand_efficiency>  (1) 
-0.85570569495366067

>  <r_i_glide_ligand_efficiency_ln>  (1) 
-1.6396360512664065

>  <r_i_glide_ligand_efficiency_sa>  (1) 
-1.4632361558050269

>  <r_i_glide_lipo>  (1) 
-0.6528497980261897

>  <r_i_glide_metal>  (1) 
-0

>  <r_i_glide_rewards>  (1) 
-2.8416666666666668

>  <r_lp_Energy>  (1) 
-12.242987999999999

>  <r_lp_tautomer_probability>  (1) 
1

>  <s_epik_Chemistry_Notes>  (1) 
This compound contains an acetal/aminal-like group ( X-CH(R)-Y where X, Y are N, S, or O) that may be acid/base labile, releasing an aldehyde.

>  <s_epik_cmdline>  (1) 
J2VwaWtfcHl0aG9uJywgJy1waHQnLCAnMS4wJywgJy1waCcsICc3LjQnLCAnLXRuJywgJzgnLCAnLW1hJywgJzUwMCcsICctaW1hZScsICc8aW5maWxlLm1hZT4nLCAnLW9tYWUnLCAnPG91dGZpbGUubWFlPic=

>  <s_epik_input>  (1) 
W0NIMl0xT1tDSDJdT1tDSDJdMQ==

>  <s_glide_docking_method>  (1) 
confgen

>  <s_i_glide_gridfile>  (1) 
gpcr_5ht2c_6bqh_protein_autoprepared_prepared

>  <s_lp_Force_Field>  (1) 
S-OPLS

>  <s_lp_Variant>  (1) 
Pocket2Mol_55_num_sample_100-1

>  <s_m_source_file>  (1) 
generated__ligand_Pocket2Mol_2026-05-06_prepared.sdf

>  <GenAI_Model>  (1) 
Pocket2Mol

>  <Protein>  (1) 
GPCR_5HT2C

$$$$
Pocket2Mol_14_num_sample_100
     RDKit          3D

  0  0  0  0  0  0  0  0  0  0999 V3000
M  V30 BEGIN CTAB
M  V30 COUNTS 10 10 0 0 1
M  V30 BEGIN ATOM
M  V30 1 C 39.956800 29.844605 51.452893 0
M  V30 2 C 39.756654 28.565858 50.653434 0
M  V30 3 O 39.309337 29.531086 52.666001 0
M  V30 4 O 38.753634 27.899863 51.384955 0
M  V30 5 C 38.546811 28.438500 52.582084 0
M  V30 6 O 37.791268 28.010778 53.451069 0
M  V30 7 H 39.467442 30.694153 50.976846 0
M  V30 8 H 41.010965 30.082581 51.593725 0
M  V30 9 H 39.452310 28.766152 49.626366 0
M  V30 10 H 40.663694 27.963653 50.653502 0
M  V30 END ATOM
M  V30 BEGIN BOND
M  V30 1 1 2 1
M  V30 2 1 3 1
M  V30 3 1 4 2
M  V30 4 1 5 3
M  V30 5 1 5 4
M  V30 6 2 6 5
M  V30 7 1 7 1
M  V30 8 1 8 1
M  V30 9 1 9 2
M  V30 10 1 10 2
M  V30 END BOND
M  V30 END CTAB
M  END
>  <i_epik_Tot_Q>  (1) 
0

>  <i_epik_Tot_abs_Q>  (1) 
0

>  <i_i_glide_confnum>  (1) 
2

>  <i_i_glide_lignum>  (1) 
17

>  <i_i_glide_posenum>  (1) 
217

>  <i_i_glide_rotatable_bonds>  (1) 
0

>  <i_lp_mmshare_version>  (1) 
72125

>  <i_m_source_file_index>  (1) 
15

>  <i_f3d_flags>  (1) 
0

>  <num_sample>  (1) 
100

>  <b_lp_Chiralities_Consistent>  (1) 
1

>  <r_epik_Charging_Adjusted_Penalty>  (1) 
0

>  <r_epik_Ionization_Penalty>  (1) 
0

>  <r_epik_Ionization_Penalty_Charging>  (1) 
0

>  <r_epik_Ionization_Penalty_Neutral>  (1) 
0

>  <r_epik_State_Penalty>  (1) 
-0

>  <r_glide_ring_energy>  (1) 
0.00053108536261990756

>  <r_i_docking_score>  (1) 
-4.2496496197088085

>  <r_i_glide_ecoul>  (1) 
0.033248566990251249

>  <r_i_glide_eff_state_penalty>  (1) 
-0

>  <r_i_glide_einternal>  (1) 
0

>  <r_i_glide_emodel>  (1) 
-19.481662794171029

>  <r_i_glide_emodel_strain>  (1) 
0

>  <r_i_glide_energy>  (1) 
-15.122032639108436

>  <r_i_glide_erotb>  (1) 
0

>  <r_i_glide_esite>  (1) 
0

>  <r_i_glide_evdw>  (1) 
-15.155281206098687

>  <r_i_glide_gscore>  (1) 
-4.2496496197088085

>  <r_i_glide_gscore_strain>  (1) 
0

>  <r_i_glide_hbond>  (1) 
0

>  <r_i_glide_ligand_efficiency>  (1) 
-0.70827493661813479

>  <r_i_glide_ligand_efficiency_ln>  (1) 
-1.522211947895308

>  <r_i_glide_ligand_efficiency_sa>  (1) 
-1.2870209727156914

>  <r_i_glide_lipo>  (1) 
-0.66000000000000003

>  <r_i_glide_metal>  (1) 
-0

>  <r_i_glide_rewards>  (1) 
-2.8368728444524116

>  <r_lp_Energy>  (1) 
-6.8415979999999994

>  <r_lp_tautomer_probability>  (1) 
1

>  <s_epik_Chemistry_Notes>  (1) 
This compound has an ester and may undergo hydrolysis at high or low pH.

>  <s_epik_cmdline>  (1) 
J2VwaWtfcHl0aG9uJywgJy1waHQnLCAnMS4wJywgJy1waCcsICc3LjQnLCAnLXRuJywgJzgnLCAnLW1hJywgJzUwMCcsICctaW1hZScsICc8aW5maWxlLm1hZT4nLCAnLW9tYWUnLCAnPG91dGZpbGUubWFlPic=

>  <s_epik_input>  (1) 
TzFbQ0gyXVtDSDJdT0MxPU8=

>  <s_glide_docking_method>  (1) 
confgen

>  <s_i_glide_gridfile>  (1) 
gpcr_5ht2c_6bqh_protein_autoprepared_prepared

>  <s_lp_Force_Field>  (1) 
S-OPLS

>  <s_lp_Variant>  (1) 
Pocket2Mol_14_num_sample_100-1

>  <s_m_source_file>  (1) 
generated__ligand_Pocket2Mol_2026-05-06_prepared.sdf

>  <GenAI_Model>  (1) 
Pocket2Mol

>  <Protein>  (1) 
GPCR_5HT2C

$$$$
Pocket2Mol_44_num_sample_100
     RDKit          3D

  0  0  0  0  0  0  0  0  0  0999 V3000
M  V30 BEGIN CTAB
M  V30 COUNTS 10 9 0 0 1
M  V30 BEGIN ATOM
M  V30 1 C 38.907638 27.592966 52.325223 0
M  V30 2 O 39.467404 27.652244 51.056029 0
M  V30 3 C 39.779952 28.971059 50.632531 0
M  V30 4 O 37.568131 28.021430 52.339037 0
M  V30 5 H 39.467401 28.201498 53.036971 0
M  V30 6 H 38.923691 26.557690 52.666405 0
M  V30 7 H 40.156221 28.949458 49.609926 0
M  V30 8 H 38.906049 29.621430 50.653503 0
M  V30 9 H 40.553003 29.411284 51.263833 0
M  V30 10 H 37.067402 27.389256 51.835809 0
M  V30 END ATOM
M  V30 BEGIN BOND
M  V30 1 1 2 1
M  V30 2 1 3 2
M  V30 3 1 4 1
M  V30 4 1 5 1
M  V30 5 1 6 1
M  V30 6 1 7 3
M  V30 7 1 8 3
M  V30 8 1 9 3
M  V30 9 1 10 4
M  V30 END BOND
M  V30 END CTAB
M  END
>  <i_epik_Tot_Q>  (1) 
0

>  <i_epik_Tot_abs_Q>  (1) 
0

>  <i_i_glide_confnum>  (1) 
1

>  <i_i_glide_lignum>  (1) 
47

>  <i_i_glide_posenum>  (1) 
210

>  <i_i_glide_rotatable_bonds>  (1) 
2

>  <i_lp_mmshare_version>  (1) 
72125

>  <i_m_source_file_index>  (1) 
45

>  <i_f3d_flags>  (1) 
0

>  <num_sample>  (1) 
100

>  <b_lp_Chiralities_Consistent>  (1) 
1

>  <r_epik_Charging_Adjusted_Penalty>  (1) 
0

>  <r_epik_Ionization_Penalty>  (1) 
1.028953084229311e-06

>  <r_epik_Ionization_Penalty_Charging>  (1) 
0

>  <r_epik_Ionization_Penalty_Neutral>  (1) 
1.028953084229311e-06

>  <r_epik_State_Penalty>  (1) 
-0

>  <r_glide_ring_energy>  (1) 
0

>  <r_i_docking_score>  (1) 
-4.2436123807895152

>  <r_i_glide_ecoul>  (1) 
-2.7966722822905012

>  <r_i_glide_eff_state_penalty>  (1) 
-0

>  <r_i_glide_einternal>  (1) 
0.066381088755614215

>  <r_i_glide_emodel>  (1) 
-16.667563493859799

>  <r_i_glide_emodel_strain>  (1) 
0

>  <r_i_glide_energy>  (1) 
-12.278903051209292

>  <r_i_glide_erotb>  (1) 
0

>  <r_i_glide_esite>  (1) 
0

>  <r_i_glide_evdw>  (1) 
-9.4822307689187912

>  <r_i_glide_gscore>  (1) 
-4.2436123807895152

>  <r_i_glide_gscore_strain>  (1) 
0

>  <r_i_glide_hbond>  (1) 
-0.32000000000000001

>  <r_i_glide_ligand_efficiency>  (1) 
-1.0609030951973788

>  <r_i_glide_ligand_efficiency_ln>  (1) 
-1.7783272885068475

>  <r_i_glide_ligand_efficiency_sa>  (1) 
-1.684078689352638

>  <r_i_glide_lipo>  (1) 
-0.33000000000000002

>  <r_i_glide_metal>  (1) 
-0

>  <r_i_glide_rewards>  (1) 
-2.7000000000000002

>  <r_lp_Energy>  (1) 
5.5414079999999997

>  <r_lp_tautomer_probability>  (1) 
1

>  <s_epik_Chemistry_Notes>  (1) 
This compound contains an acetal/aminal-like group ( X-CH(R)-Y where X, Y are N, S, or O) that may be acid/base labile, releasing an aldehyde.

>  <s_epik_cmdline>  (1) 
J2VwaWtfcHl0aG9uJywgJy1waHQnLCAnMS4wJywgJy1waCcsICc3LjQnLCAnLXRuJywgJzgnLCAnLW1hJywgJzUwMCcsICctaW1hZScsICc8aW5maWxlLm1hZT4nLCAnLW9tYWUnLCAnPG91dGZpbGUubWFlPic=

>  <s_epik_input>  (1) 
W09IXVtDSDJdT1tDSDNd

>  <s_glide_docking_method>  (1) 
confgen

>  <s_i_glide_gridfile>  (1) 
gpcr_5ht2c_6bqh_protein_autoprepared_prepared

>  <s_lp_Force_Field>  (1) 
S-OPLS

>  <s_lp_Variant>  (1) 
Pocket2Mol_44_num_sample_100-1

>  <s_m_source_file>  (1) 
generated__ligand_Pocket2Mol_2026-05-06_prepared.sdf

>  <GenAI_Model>  (1) 
Pocket2Mol

>  <Protein>  (1) 
GPCR_5HT2C

$$$$
Pocket2Mol_23_num_sample_100
     RDKit          3D

  0  0  0  0  0  0  0  0  0  0999 V3000
M  V30 BEGIN CTAB
M  V30 COUNTS 14 14 0 0 1
M  V30 BEGIN ATOM
M  V30 1 C 37.111553 31.500523 60.994496 0
M  V30 2 C 37.789536 32.811150 61.360701 0
M  V30 3 O 35.800792 31.745933 61.453472 0
M  V30 4 C 35.566394 33.091616 61.187446 0
M  V30 5 O 36.779081 33.765399 61.106394 0
M  V30 6 C 34.847950 33.221430 59.842608 0
M  V30 7 H 37.565140 30.635440 61.477893 0
M  V30 8 H 37.112881 31.337681 59.915607 0
M  V30 9 H 38.044355 32.821429 62.421064 0
M  V30 10 H 38.691784 33.003488 60.779710 0
M  V30 11 H 34.966653 33.521821 61.990679 0
M  V30 12 H 35.472496 32.809578 59.053494 0
M  V30 13 H 34.660075 34.271701 59.620994 0
M  V30 14 H 33.898268 32.687092 59.853509 0
M  V30 END ATOM
M  V30 BEGIN BOND
M  V30 1 1 2 1
M  V30 2 1 3 1
M  V30 3 1 4 3
M  V30 4 1 5 2
M  V30 5 1 5 4
M  V30 6 1 6 4
M  V30 7 1 7 1
M  V30 8 1 8 1
M  V30 9 1 9 2
M  V30 10 1 10 2
M  V30 11 1 11 4
M  V30 12 1 12 6
M  V30 13 1 13 6
M  V30 14 1 14 6
M  V30 END BOND
M  V30 END CTAB
M  END
>  <i_epik_Tot_Q>  (1) 
0

>  <i_epik_Tot_abs_Q>  (1) 
0

>  <i_i_glide_confnum>  (1) 
3

>  <i_i_glide_lignum>  (1) 
26

>  <i_i_glide_posenum>  (1) 
270

>  <i_i_glide_rotatable_bonds>  (1) 
0

>  <i_lp_mmshare_version>  (1) 
72125

>  <i_m_source_file_index>  (1) 
24

>  <i_f3d_flags>  (1) 
0

>  <num_sample>  (1) 
100

>  <b_lp_Chiralities_Consistent>  (1) 
1

>  <r_epik_Charging_Adjusted_Penalty>  (1) 
0

>  <r_epik_Ionization_Penalty>  (1) 
7.9724310449397378e-14

>  <r_epik_Ionization_Penalty_Charging>  (1) 
0

>  <r_epik_Ionization_Penalty_Neutral>  (1) 
7.9724310449397378e-14

>  <r_epik_State_Penalty>  (1) 
-0

>  <r_glide_ring_energy>  (1) 
1.2362365743684729

>  <r_i_docking_score>  (1) 
-4.2425259600623306

>  <r_i_glide_ecoul>  (1) 
-1.8634619372686771

>  <r_i_glide_eff_state_penalty>  (1) 
-0

>  <r_i_glide_einternal>  (1) 
0

>  <r_i_glide_emodel>  (1) 
-17.368459483787102

>  <r_i_glide_emodel_strain>  (1) 
0.073881060208901062

>  <r_i_glide_energy>  (1) 
-13.414791715186832

>  <r_i_glide_erotb>  (1) 
0

>  <r_i_glide_esite>  (1) 
0

>  <r_i_glide_evdw>  (1) 
-11.551329777918154

>  <r_i_glide_gscore>  (1) 
-4.2425259600623306

>  <r_i_glide_gscore_strain>  (1) 
0

>  <r_i_glide_hbond>  (1) 
-0.32000000000000001

>  <r_i_glide_ligand_efficiency>  (1) 
-0.70708766001038847

>  <r_i_glide_ligand_efficiency_ln>  (1) 
-1.519660274040523

>  <r_i_glide_ligand_efficiency_sa>  (1) 
-1.2848635479423676

>  <r_i_glide_lipo>  (1) 
-0.12828929368234385

>  <r_i_glide_metal>  (1) 
-0

>  <r_i_glide_rewards>  (1) 
-2.9371508868937779

>  <r_lp_Energy>  (1) 
-12.129052

>  <r_lp_tautomer_probability>  (1) 
1

>  <s_epik_Chemistry_Notes>  (1) 
This compound contains an acetal/aminal-like group ( X-CH(R)-Y where X, Y are N, S, or O) that may be acid/base labile, releasing an aldehyde.

>  <s_epik_cmdline>  (1) 
J2VwaWtfcHl0aG9uJywgJy1waHQnLCAnMS4wJywgJy1waCcsICc3LjQnLCAnLXRuJywgJzgnLCAnLW1hJywgJzUwMCcsICctaW1hZScsICc8aW5maWxlLm1hZT4nLCAnLW9tYWUnLCAnPG91dGZpbGUubWFlPic=

>  <s_epik_input>  (1) 
TzFbQ0gyXVtDSDJdT1tDSF0xW0NIM10=

>  <s_glide_docking_method>  (1) 
confgen

>  <s_i_glide_gridfile>  (1) 
gpcr_5ht2c_6bqh_protein_autoprepared_prepared

>  <s_lp_Force_Field>  (1) 
S-OPLS

>  <s_lp_Variant>  (1) 
Pocket2Mol_23_num_sample_100-1

>  <s_m_source_file>  (1) 
generated__ligand_Pocket2Mol_2026-05-06_prepared.sdf

>  <GenAI_Model>  (1) 
Pocket2Mol

>  <Protein>  (1) 
GPCR_5HT2C

$$$$
Pocket2Mol_14_num_sample_100
     RDKit          3D

  0  0  0  0  0  0  0  0  0  0999 V3000
M  V30 BEGIN CTAB
M  V30 COUNTS 10 10 0 0 1
M  V30 BEGIN ATOM
M  V30 1 C 39.742413 29.025909 51.260723 0
M  V30 2 C 39.131985 27.623917 51.308687 0
M  V30 3 O 39.467740 29.598149 52.645749 0
M  V30 4 O 38.116290 27.730401 52.294819 0
M  V30 5 C 38.274588 28.779392 53.102002 0
M  V30 6 O 37.572416 29.066053 54.057606 0
M  V30 7 H 39.237812 29.627941 50.505054 0
M  V30 8 H 40.804387 29.002113 51.016296 0
M  V30 9 H 38.678212 27.362029 50.352860 0
M  V30 10 H 39.867102 26.860861 51.564517 0
M  V30 END ATOM
M  V30 BEGIN BOND
M  V30 1 1 2 1
M  V30 2 1 3 1
M  V30 3 1 4 2
M  V30 4 1 5 3
M  V30 5 1 5 4
M  V30 6 2 6 5
M  V30 7 1 7 1
M  V30 8 1 8 1
M  V30 9 1 9 2
M  V30 10 1 10 2
M  V30 END BOND
M  V30 END CTAB
M  END
>  <i_epik_Tot_Q>  (1) 
0

>  <i_epik_Tot_abs_Q>  (1) 
0

>  <i_i_glide_confnum>  (1) 
2

>  <i_i_glide_lignum>  (1) 
17

>  <i_i_glide_posenum>  (1) 
197

>  <i_i_glide_rotatable_bonds>  (1) 
0

>  <i_lp_mmshare_version>  (1) 
72125

>  <i_m_source_file_index>  (1) 
15

>  <i_f3d_flags>  (1) 
0

>  <num_sample>  (1) 
100

>  <b_lp_Chiralities_Consistent>  (1) 
1

>  <r_epik_Charging_Adjusted_Penalty>  (1) 
0

>  <r_epik_Ionization_Penalty>  (1) 
0

>  <r_epik_Ionization_Penalty_Charging>  (1) 
0

>  <r_epik_Ionization_Penalty_Neutral>  (1) 
0

>  <r_epik_State_Penalty>  (1) 
-0

>  <r_glide_ring_energy>  (1) 
0.00053108536261990756

>  <r_i_docking_score>  (1) 
-4.238980501644658

>  <r_i_glide_ecoul>  (1) 
-0.17624920098237518

>  <r_i_glide_eff_state_penalty>  (1) 
-0

>  <r_i_glide_einternal>  (1) 
0

>  <r_i_glide_emodel>  (1) 
-19.461182201395431

>  <r_i_glide_emodel_strain>  (1) 
2.16235580552393e-08

>  <r_i_glide_energy>  (1) 
-15.112497301799834

>  <r_i_glide_erotb>  (1) 
0

>  <r_i_glide_esite>  (1) 
0

>  <r_i_glide_evdw>  (1) 
-14.936248100817458

>  <r_i_glide_gscore>  (1) 
-4.238980501644658

>  <r_i_glide_gscore_strain>  (1) 
0

>  <r_i_glide_hbond>  (1) 
0

>  <r_i_glide_ligand_efficiency>  (1) 
-0.70649675027410963

>  <r_i_glide_ligand_efficiency_ln>  (1) 
-1.5183903013022721

>  <r_i_glide_ligand_efficiency_sa>  (1) 
-1.2837897936920704

>  <r_i_glide_lipo>  (1) 
-0.66000000000000003

>  <r_i_glide_metal>  (1) 
-0

>  <r_i_glide_rewards>  (1) 
-2.8057307164564285

>  <r_lp_Energy>  (1) 
-6.8415979999999994

>  <r_lp_tautomer_probability>  (1) 
1

>  <s_epik_Chemistry_Notes>  (1) 
This compound has an ester and may undergo hydrolysis at high or low pH.

>  <s_epik_cmdline>  (1) 
J2VwaWtfcHl0aG9uJywgJy1waHQnLCAnMS4wJywgJy1waCcsICc3LjQnLCAnLXRuJywgJzgnLCAnLW1hJywgJzUwMCcsICctaW1hZScsICc8aW5maWxlLm1hZT4nLCAnLW9tYWUnLCAnPG91dGZpbGUubWFlPic=

>  <s_epik_input>  (1) 
TzFbQ0gyXVtDSDJdT0MxPU8=

>  <s_glide_docking_method>  (1) 
confgen

>  <s_i_glide_gridfile>  (1) 
gpcr_5ht2c_6bqh_protein_autoprepared_prepared

>  <s_lp_Force_Field>  (1) 
S-OPLS

>  <s_lp_Variant>  (1) 
Pocket2Mol_14_num_sample_100-1

>  <s_m_source_file>  (1) 
generated__ligand_Pocket2Mol_2026-05-06_prepared.sdf

>  <GenAI_Model>  (1) 
Pocket2Mol

>  <Protein>  (1) 
GPCR_5HT2C

$$$$
Pocket2Mol_55_num_sample_100
     RDKit          3D

  0  0  0  0  0  0  0  0  0  0999 V3000
M  V30 BEGIN CTAB
M  V30 COUNTS 11 11 0 0 1
M  V30 BEGIN ATOM
M  V30 1 C 39.152256 27.661527 51.283761 0
M  V30 2 O 40.195736 28.421384 50.719736 0
M  V30 3 C 38.920860 28.366395 52.618750 0
M  V30 4 O 39.467398 29.659778 52.434837 0
M  V30 5 C 39.919836 29.709618 51.127549 0
M  V30 6 H 38.267481 27.732881 50.653505 0
M  V30 7 H 39.422437 26.610879 51.391549 0
M  V30 8 H 37.863713 28.407594 52.883716 0
M  V30 9 H 39.464082 27.868420 53.422417 0
M  V30 10 H 40.808703 30.336966 51.052451 0
M  V30 11 H 39.138155 30.126488 50.489289 0
M  V30 END ATOM
M  V30 BEGIN BOND
M  V30 1 1 2 1
M  V30 2 1 3 1
M  V30 3 1 4 3
M  V30 4 1 5 2
M  V30 5 1 5 4
M  V30 6 1 6 1
M  V30 7 1 7 1
M  V30 8 1 8 3
M  V30 9 1 9 3
M  V30 10 1 10 5
M  V30 11 1 11 5
M  V30 END BOND
M  V30 END CTAB
M  END
>  <i_epik_Tot_Q>  (1) 
0

>  <i_epik_Tot_abs_Q>  (1) 
0

>  <i_i_glide_confnum>  (1) 
3

>  <i_i_glide_lignum>  (1) 
59

>  <i_i_glide_posenum>  (1) 
264

>  <i_i_glide_rotatable_bonds>  (1) 
0

>  <i_lp_mmshare_version>  (1) 
72125

>  <i_m_source_file_index>  (1) 
56

>  <i_f3d_flags>  (1) 
0

>  <num_sample>  (1) 
100

>  <b_lp_Chiralities_Consistent>  (1) 
1

>  <r_epik_Charging_Adjusted_Penalty>  (1) 
0

>  <r_epik_Ionization_Penalty>  (1) 
7.9724310449397378e-14

>  <r_epik_Ionization_Penalty_Charging>  (1) 
0

>  <r_epik_Ionization_Penalty_Neutral>  (1) 
7.9724310449397378e-14

>  <r_epik_State_Penalty>  (1) 
-0

>  <r_glide_ring_energy>  (1) 
0.2805525668492585

>  <r_i_docking_score>  (1) 
-4.2265226819851236

>  <r_i_glide_ecoul>  (1) 
-0.89524987519819066

>  <r_i_glide_eff_state_penalty>  (1) 
-0

>  <r_i_glide_einternal>  (1) 
0

>  <r_i_glide_emodel>  (1) 
-16.975189793746026

>  <r_i_glide_emodel_strain>  (1) 
0.011329886003353273

>  <r_i_glide_energy>  (1) 
-13.631424875315698

>  <r_i_glide_erotb>  (1) 
0

>  <r_i_glide_esite>  (1) 
0

>  <r_i_glide_evdw>  (1) 
-12.736175000117507

>  <r_i_glide_gscore>  (1) 
-4.2265226819851236

>  <r_i_glide_gscore_strain>  (1) 
0

>  <r_i_glide_hbond>  (1) 
0

>  <r_i_glide_ligand_efficiency>  (1) 
-0.84530453639702474

>  <r_i_glide_ligand_efficiency_ln>  (1) 
-1.6197061680776286

>  <r_i_glide_ligand_efficiency_sa>  (1) 
-1.4454504248556088

>  <r_i_glide_lipo>  (1) 
-0.66000000000000003

>  <r_i_glide_metal>  (1) 
-0

>  <r_i_glide_rewards>  (1) 
-2.7954264506995194

>  <r_lp_Energy>  (1) 
-12.242987999999999

>  <r_lp_tautomer_probability>  (1) 
1

>  <s_epik_Chemistry_Notes>  (1) 
This compound contains an acetal/aminal-like group ( X-CH(R)-Y where X, Y are N, S, or O) that may be acid/base labile, releasing an aldehyde.

>  <s_epik_cmdline>  (1) 
J2VwaWtfcHl0aG9uJywgJy1waHQnLCAnMS4wJywgJy1waCcsICc3LjQnLCAnLXRuJywgJzgnLCAnLW1hJywgJzUwMCcsICctaW1hZScsICc8aW5maWxlLm1hZT4nLCAnLW9tYWUnLCAnPG91dGZpbGUubWFlPic=

>  <s_epik_input>  (1) 
W0NIMl0xT1tDSDJdT1tDSDJdMQ==

>  <s_glide_docking_method>  (1) 
confgen

>  <s_i_glide_gridfile>  (1) 
gpcr_5ht2c_6bqh_protein_autoprepared_prepared

>  <s_lp_Force_Field>  (1) 
S-OPLS

>  <s_lp_Variant>  (1) 
Pocket2Mol_55_num_sample_100-1

>  <s_m_source_file>  (1) 
generated__ligand_Pocket2Mol_2026-05-06_prepared.sdf

>  <GenAI_Model>  (1) 
Pocket2Mol

>  <Protein>  (1) 
GPCR_5HT2C

$$$$
Pocket2Mol_99_num_sample_100
     RDKit          3D

  0  0  0  0  0  0  0  0  0  0999 V3000
M  V30 BEGIN CTAB
M  V30 COUNTS 13 13 0 0 1
M  V30 BEGIN ATOM
M  V30 1 C 38.566864 28.835990 53.412229 0
M  V30 2 O 39.027531 27.743416 52.633693 0
M  V30 3 C 39.234837 28.243628 51.323112 0
M  V30 4 C 39.472184 29.986718 52.975061 0
M  V30 5 C 39.862861 29.621231 51.545265 0
M  V30 6 H 37.523995 29.044370 53.167188 0
M  V30 7 H 38.635584 28.627419 54.480245 0
M  V30 8 H 39.866281 27.582482 50.729428 0
M  V30 9 H 38.270775 28.333886 50.820386 0
M  V30 10 H 38.986971 30.958868 53.053496 0
M  V30 11 H 40.357820 30.021431 53.607977 0
M  V30 12 H 40.948170 29.569215 51.453473 0
M  V30 13 H 39.497631 30.342325 50.813000 0
M  V30 END ATOM
M  V30 BEGIN BOND
M  V30 1 1 2 1
M  V30 2 1 3 2
M  V30 3 1 4 1
M  V30 4 1 5 3
M  V30 5 1 5 4
M  V30 6 1 6 1
M  V30 7 1 7 1
M  V30 8 1 8 3
M  V30 9 1 9 3
M  V30 10 1 10 4
M  V30 11 1 11 4
M  V30 12 1 12 5
M  V30 13 1 13 5
M  V30 END BOND
M  V30 END CTAB
M  END
>  <i_epik_Tot_Q>  (1) 
0

>  <i_epik_Tot_abs_Q>  (1) 
0

>  <i_i_glide_confnum>  (1) 
1

>  <i_i_glide_lignum>  (1) 
104

>  <i_i_glide_posenum>  (1) 
326

>  <i_i_glide_rotatable_bonds>  (1) 
0

>  <i_lp_mmshare_version>  (1) 
72125

>  <i_m_source_file_index>  (1) 
100

>  <i_f3d_flags>  (1) 
0

>  <num_sample>  (1) 
100

>  <b_lp_Chiralities_Consistent>  (1) 
1

>  <r_epik_Charging_Adjusted_Penalty>  (1) 
0

>  <r_epik_Ionization_Penalty>  (1) 
1.3889264151150229e-11

>  <r_epik_Ionization_Penalty_Charging>  (1) 
0

>  <r_epik_Ionization_Penalty_Neutral>  (1) 
1.3889264151150229e-11

>  <r_epik_State_Penalty>  (1) 
-0

>  <r_glide_ring_energy>  (1) 
0

>  <r_i_docking_score>  (1) 
-4.2249045014476305

>  <r_i_glide_ecoul>  (1) 
-0.038754570377316028

>  <r_i_glide_eff_state_penalty>  (1) 
-0

>  <r_i_glide_einternal>  (1) 
0

>  <r_i_glide_emodel>  (1) 
-15.898831784249715

>  <r_i_glide_emodel_strain>  (1) 
0

>  <r_i_glide_energy>  (1) 
-12.471283388758398

>  <r_i_glide_erotb>  (1) 
0

>  <r_i_glide_esite>  (1) 
0

>  <r_i_glide_evdw>  (1) 
-12.432528818381082

>  <r_i_glide_gscore>  (1) 
-4.2249045014476305

>  <r_i_glide_gscore_strain>  (1) 
0

>  <r_i_glide_hbond>  (1) 
0

>  <r_i_glide_ligand_efficiency>  (1) 
-0.8449809002895261

>  <r_i_glide_ligand_efficiency_ln>  (1) 
-1.6190860419846558

>  <r_i_glide_ligand_efficiency_sa>  (1) 
-1.4448970148963101

>  <r_i_glide_lipo>  (1) 
-1.1791695441731611

>  <r_i_glide_metal>  (1) 
-0

>  <r_i_glide_rewards>  (1) 
-2.4182953307988182

>  <r_lp_Energy>  (1) 
3.9174029999999997

>  <r_lp_tautomer_probability>  (1) 
1

>  <s_epik_cmdline>  (1) 
J2VwaWtfcHl0aG9uJywgJy1waHQnLCAnMS4wJywgJy1waCcsICc3LjQnLCAnLXRuJywgJzgnLCAnLW1hJywgJzUwMCcsICctaW1hZScsICc8aW5maWxlLm1hZT4nLCAnLW9tYWUnLCAnPG91dGZpbGUubWFlPic=

>  <s_epik_input>  (1) 
W0NIMl0xT1tDSDJdW0NIMl1bQ0gyXTE=

>  <s_glide_docking_method>  (1) 
confgen

>  <s_i_glide_gridfile>  (1) 
gpcr_5ht2c_6bqh_protein_autoprepared_prepared

>  <s_lp_Force_Field>  (1) 
S-OPLS

>  <s_lp_Variant>  (1) 
Pocket2Mol_99_num_sample_100-1

>  <s_m_source_file>  (1) 
generated__ligand_Pocket2Mol_2026-05-06_prepared.sdf

>  <GenAI_Model>  (1) 
Pocket2Mol

>  <Protein>  (1) 
GPCR_5HT2C

$$$$
Pocket2Mol_42_num_sample_100
     RDKit          3D

  0  0  0  0  0  0  0  0  0  0999 V3000
M  V30 BEGIN CTAB
M  V30 COUNTS 10 9 0 0 1
M  V30 BEGIN ATOM
M  V30 1 C 34.840907 33.621430 59.453502 0
M  V30 2 O 36.118946 33.465253 60.041026 0
M  V30 3 C 36.316321 32.449979 60.903810 0
M  V30 4 C 37.770928 32.438901 61.444378 0
M  V30 5 O 35.467411 31.621431 61.241821 0
M  V30 6 O 38.523059 33.346412 61.018350 0
M  V30 7 O 38.036241 31.521540 62.253501 0 CHG=-1
M  V30 8 H 34.887646 34.346257 58.640925 0
M  V30 9 H 34.124626 33.980487 60.191580 0
M  V30 10 H 34.472445 32.676272 59.053500 0
M  V30 END ATOM
M  V30 BEGIN BOND
M  V30 1 1 2 1
M  V30 2 1 3 2
M  V30 3 1 4 3
M  V30 4 2 5 3
M  V30 5 2 6 4
M  V30 6 1 7 4
M  V30 7 1 8 1
M  V30 8 1 9 1
M  V30 9 1 10 1
M  V30 END BOND
M  V30 END CTAB
M  END
>  <i_epik_Tot_Q>  (1) 
-1

>  <i_epik_Tot_abs_Q>  (1) 
1

>  <i_i_glide_confnum>  (1) 
1

>  <i_i_glide_lignum>  (1) 
45

>  <i_i_glide_posenum>  (1) 
304

>  <i_i_glide_rotatable_bonds>  (1) 
2

>  <i_lp_mmshare_version>  (1) 
72125

>  <i_m_source_file_index>  (1) 
43

>  <i_f3d_flags>  (1) 
0

>  <num_sample>  (1) 
100

>  <b_lp_Chiralities_Consistent>  (1) 
1

>  <r_epik_Charging_Adjusted_Penalty>  (1) 
5.6581681309968728e-06

>  <r_epik_Ionization_Penalty>  (1) 
5.6581681309968728e-06

>  <r_epik_Ionization_Penalty_Charging>  (1) 
5.6581681309968728e-06

>  <r_epik_Ionization_Penalty_Neutral>  (1) 
0

>  <r_epik_State_Penalty>  (1) 
-0

>  <r_glide_ring_energy>  (1) 
0

>  <r_i_docking_score>  (1) 
-4.1883380388970188

>  <r_i_glide_ecoul>  (1) 
-2.8736661556201755

>  <r_i_glide_eff_state_penalty>  (1) 
-0

>  <r_i_glide_einternal>  (1) 
0.020660945883115733

>  <r_i_glide_emodel>  (1) 
-18.625581069710169

>  <r_i_glide_emodel_strain>  (1) 
0

>  <r_i_glide_energy>  (1) 
-14.25803146790555

>  <r_i_glide_erotb>  (1) 
0

>  <r_i_glide_esite>  (1) 
-0.010966966188314437

>  <r_i_glide_evdw>  (1) 
-11.384365312285375

>  <r_i_glide_gscore>  (1) 
-4.1883380388970188

>  <r_i_glide_gscore_strain>  (1) 
0

>  <r_i_glide_hbond>  (1) 
-0.33271620377544986

>  <r_i_glide_ligand_efficiency>  (1) 
-0.59833400555671701

>  <r_i_glide_ligand_efficiency_ln>  (1) 
-1.4217467020303127

>  <r_i_glide_ligand_efficiency_sa>  (1) 
-1.1445717769425519

>  <r_i_glide_lipo>  (1) 
0

>  <r_i_glide_metal>  (1) 
-0

>  <r_i_glide_rewards>  (1) 
-2.8443866799759587

>  <r_lp_Energy>  (1) 
21.029133999999999

>  <r_lp_tautomer_probability>  (1) 
1

>  <s_epik_Chemistry_Notes>  (1) 
This compound has an ester and may undergo hydrolysis at high or low pH.

>  <s_epik_cmdline>  (1) 
J2VwaWtfcHl0aG9uJywgJy1waHQnLCAnMS4wJywgJy1waCcsICc3LjQnLCAnLXRuJywgJzgnLCAnLW1hJywgJzUwMCcsICctaW1hZScsICc8aW5maWxlLm1hZT4nLCAnLW9tYWUnLCAnPG91dGZpbGUubWFlPic=

>  <s_epik_input>  (1) 
W0NIM11PQyg9TylDKD1PKVtPSF0=

>  <s_glide_docking_method>  (1) 
confgen

>  <s_i_glide_gridfile>  (1) 
gpcr_5ht2c_6bqh_protein_autoprepared_prepared

>  <s_lp_Force_Field>  (1) 
S-OPLS

>  <s_lp_Variant>  (1) 
Pocket2Mol_42_num_sample_100-1

>  <s_m_source_file>  (1) 
generated__ligand_Pocket2Mol_2026-05-06_prepared.sdf

>  <GenAI_Model>  (1) 
Pocket2Mol

>  <Protein>  (1) 
GPCR_5HT2C

$$$$
Pocket2Mol_55_num_sample_100
     RDKit          3D

  0  0  0  0  0  0  0  0  0  0999 V3000
M  V30 BEGIN CTAB
M  V30 COUNTS 11 11 0 0 1
M  V30 BEGIN ATOM
M  V30 1 C 39.467700 30.002406 52.845883 0
M  V30 2 O 38.484194 29.004642 53.044484 0
M  V30 3 C 39.950364 29.726644 51.424212 0
M  V30 4 O 39.867406 28.322326 51.385453 0
M  V30 5 C 38.705785 28.027741 52.080868 0
M  V30 6 H 39.067403 31.007020 52.984160 0
M  V30 7 H 40.267147 29.863843 53.571006 0
M  V30 8 H 39.278864 30.156555 50.678991 0
M  V30 9 H 40.961310 30.087751 51.234070 0
M  V30 10 H 38.784816 27.043973 52.544744 0
M  V30 11 H 37.864217 28.021443 51.386645 0
M  V30 END ATOM
M  V30 BEGIN BOND
M  V30 1 1 2 1
M  V30 2 1 3 1
M  V30 3 1 4 3
M  V30 4 1 5 2
M  V30 5 1 5 4
M  V30 6 1 6 1
M  V30 7 1 7 1
M  V30 8 1 8 3
M  V30 9 1 9 3
M  V30 10 1 10 5
M  V30 11 1 11 5
M  V30 END BOND
M  V30 END CTAB
M  END
>  <i_epik_Tot_Q>  (1) 
0

>  <i_epik_Tot_abs_Q>  (1) 
0

>  <i_i_glide_confnum>  (1) 
2

>  <i_i_glide_lignum>  (1) 
59

>  <i_i_glide_posenum>  (1) 
318

>  <i_i_glide_rotatable_bonds>  (1) 
0

>  <i_lp_mmshare_version>  (1) 
72125

>  <i_m_source_file_index>  (1) 
56

>  <i_f3d_flags>  (1) 
0

>  <num_sample>  (1) 
100

>  <b_lp_Chiralities_Consistent>  (1) 
1

>  <r_epik_Charging_Adjusted_Penalty>  (1) 
0

>  <r_epik_Ionization_Penalty>  (1) 
7.9724310449397378e-14

>  <r_epik_Ionization_Penalty_Charging>  (1) 
0

>  <r_epik_Ionization_Penalty_Neutral>  (1) 
7.9724310449397378e-14

>  <r_epik_State_Penalty>  (1) 
-0

>  <r_glide_ring_energy>  (1) 
1.1396681620093737e-05

>  <r_i_docking_score>  (1) 
-4.1764237425327799

>  <r_i_glide_ecoul>  (1) 
-0.87926435882037612

>  <r_i_glide_eff_state_penalty>  (1) 
-0

>  <r_i_glide_einternal>  (1) 
0

>  <r_i_glide_emodel>  (1) 
-15.869157292493774

>  <r_i_glide_emodel_strain>  (1) 
0

>  <r_i_glide_energy>  (1) 
-12.553831987507156

>  <r_i_glide_erotb>  (1) 
0

>  <r_i_glide_esite>  (1) 
0

>  <r_i_glide_evdw>  (1) 
-11.674567628686779

>  <r_i_glide_gscore>  (1) 
-4.1764237425327799

>  <r_i_glide_gscore_strain>  (1) 
0

>  <r_i_glide_hbond>  (1) 
0

>  <r_i_glide_ligand_efficiency>  (1) 
-0.83528474850655599

>  <r_i_glide_ligand_efficiency_ln>  (1) 
-1.6005070374090584

>  <r_i_glide_ligand_efficiency_sa>  (1) 
-1.4283168285721048

>  <r_i_glide_lipo>  (1) 
-0.53887977391589414

>  <r_i_glide_metal>  (1) 
-0

>  <r_i_glide_rewards>  (1) 
-2.92192593335949

>  <r_lp_Energy>  (1) 
-12.242987999999999

>  <r_lp_tautomer_probability>  (1) 
1

>  <s_epik_Chemistry_Notes>  (1) 
This compound contains an acetal/aminal-like group ( X-CH(R)-Y where X, Y are N, S, or O) that may be acid/base labile, releasing an aldehyde.

>  <s_epik_cmdline>  (1) 
J2VwaWtfcHl0aG9uJywgJy1waHQnLCAnMS4wJywgJy1waCcsICc3LjQnLCAnLXRuJywgJzgnLCAnLW1hJywgJzUwMCcsICctaW1hZScsICc8aW5maWxlLm1hZT4nLCAnLW9tYWUnLCAnPG91dGZpbGUubWFlPic=

>  <s_epik_input>  (1) 
W0NIMl0xT1tDSDJdT1tDSDJdMQ==

>  <s_glide_docking_method>  (1) 
confgen

>  <s_i_glide_gridfile>  (1) 
gpcr_5ht2c_6bqh_protein_autoprepared_prepared

>  <s_lp_Force_Field>  (1) 
S-OPLS

>  <s_lp_Variant>  (1) 
Pocket2Mol_55_num_sample_100-1

>  <s_m_source_file>  (1) 
generated__ligand_Pocket2Mol_2026-05-06_prepared.sdf

>  <GenAI_Model>  (1) 
Pocket2Mol

>  <Protein>  (1) 
GPCR_5HT2C

$$$$
Pocket2Mol_88_num_sample_100
     RDKit          3D

  0  0  0  0  0  0  0  0  0  0999 V3000
M  V30 BEGIN CTAB
M  V30 COUNTS 15 15 0 0 1
M  V30 BEGIN ATOM
M  V30 1 C 39.190164 29.818981 55.222261 0
M  V30 2 C 38.048712 29.971869 56.238070 0
M  V30 3 C 39.423104 31.221189 54.651771 0
M  V30 4 C 38.267404 32.070367 55.182742 0
M  V30 5 N 37.867397 31.418354 56.436332 0 CHG=1
M  V30 6 H 38.923083 29.110371 54.437442 0
M  V30 7 H 40.098784 29.449231 55.700369 0
M  V30 8 H 37.119503 29.580517 55.820432 0
M  V30 9 H 38.242867 29.454655 57.180400 0
M  V30 10 H 40.372226 31.609409 55.023974 0
M  V30 11 H 39.471371 31.230579 53.561414 0
M  V30 12 H 38.534256 33.117434 55.333262 0
M  V30 13 H 37.426797 32.038293 54.486776 0
M  V30 14 H 38.457141 31.740346 57.188838 0
M  V30 15 H 36.880706 31.621705 56.653442 0
M  V30 END ATOM
M  V30 BEGIN BOND
M  V30 1 1 2 1
M  V30 2 1 3 1
M  V30 3 1 4 3
M  V30 4 1 5 2
M  V30 5 1 5 4
M  V30 6 1 6 1
M  V30 7 1 7 1
M  V30 8 1 8 2
M  V30 9 1 9 2
M  V30 10 1 10 3
M  V30 11 1 11 3
M  V30 12 1 12 4
M  V30 13 1 13 4
M  V30 14 1 14 5
M  V30 15 1 15 5
M  V30 END BOND
M  V30 END CTAB
M  END
>  <i_epik_Tot_Q>  (1) 
1

>  <i_epik_Tot_abs_Q>  (1) 
1

>  <i_i_glide_confnum>  (1) 
1

>  <i_i_glide_lignum>  (1) 
93

>  <i_i_glide_posenum>  (1) 
77

>  <i_i_glide_rotatable_bonds>  (1) 
0

>  <i_lp_mmshare_version>  (1) 
72125

>  <i_m_source_file_index>  (1) 
89

>  <i_f3d_flags>  (1) 
0

>  <num_sample>  (1) 
100

>  <b_lp_Chiralities_Consistent>  (1) 
1

>  <r_epik_Charging_Adjusted_Penalty>  (1) 
0.00011848530527437102

>  <r_epik_Ionization_Penalty>  (1) 
0.00011848530527437102

>  <r_epik_Ionization_Penalty_Charging>  (1) 
0.00011848530527437102

>  <r_epik_Ionization_Penalty_Neutral>  (1) 
0

>  <r_epik_State_Penalty>  (1) 
-0

>  <r_glide_ring_energy>  (1) 
0

>  <r_i_docking_score>  (1) 
-4.1743362916116951

>  <r_i_glide_ecoul>  (1) 
-5.3698821789030564

>  <r_i_glide_eff_state_penalty>  (1) 
-0

>  <r_i_glide_einternal>  (1) 
0

>  <r_i_glide_emodel>  (1) 
-20.521491395513973

>  <r_i_glide_emodel_strain>  (1) 
0.49253007601404519

>  <r_i_glide_energy>  (1) 
-14.013047164444563

>  <r_i_glide_erotb>  (1) 
0

>  <r_i_glide_esite>  (1) 
-0.10000000000000001

>  <r_i_glide_evdw>  (1) 
-8.6431649855415067

>  <r_i_glide_gscore>  (1) 
-4.1743362916116951

>  <r_i_glide_gscore_strain>  (1) 
0

>  <r_i_glide_hbond>  (1) 
-0.20000000000000001

>  <r_i_glide_ligand_efficiency>  (1) 
-0.83486725832233899

>  <r_i_glide_ligand_efficiency_ln>  (1) 
-1.5997070755049494

>  <r_i_glide_ligand_efficiency_sa>  (1) 
-1.4276029303991202

>  <r_i_glide_lipo>  (1) 
-0.38669571549916154

>  <r_i_glide_metal>  (1) 
-0

>  <r_i_glide_rewards>  (1) 
-2.25

>  <r_lp_Energy>  (1) 
17.726251999999999

>  <r_lp_tautomer_probability>  (1) 
1

>  <s_epik_cmdline>  (1) 
J2VwaWtfcHl0aG9uJywgJy1waHQnLCAnMS4wJywgJy1waCcsICc3LjQnLCAnLXRuJywgJzgnLCAnLW1hJywgJzUwMCcsICctaW1hZScsICc8aW5maWxlLm1hZT4nLCAnLW9tYWUnLCAnPG91dGZpbGUubWFlPic=

>  <s_epik_input>  (1) 
W0NIMl0xW0NIMl1bTkhdW0NIMl1bQ0gyXTE=

>  <s_glide_docking_method>  (1) 
confgen

>  <s_i_glide_gridfile>  (1) 
gpcr_5ht2c_6bqh_protein_autoprepared_prepared

>  <s_lp_Force_Field>  (1) 
S-OPLS

>  <s_lp_Variant>  (1) 
Pocket2Mol_88_num_sample_100-1

>  <s_m_source_file>  (1) 
generated__ligand_Pocket2Mol_2026-05-06_prepared.sdf

>  <GenAI_Model>  (1) 
Pocket2Mol

>  <Protein>  (1) 
GPCR_5HT2C

$$$$
Pocket2Mol_77_num_sample_100
     RDKit          3D

  0  0  0  0  0  0  0  0  0  0999 V3000
M  V30 BEGIN CTAB
M  V30 COUNTS 15 15 0 0 1
M  V30 BEGIN ATOM
M  V30 1 C 37.574492 28.251145 53.340107 0
M  V30 2 C 38.665262 27.221430 53.630175 0
M  V30 3 C 39.035250 27.466937 55.090764 0
M  V30 4 C 37.872313 29.450315 54.253502 0
M  V30 5 C 38.938925 28.984859 55.255529 0
M  V30 6 H 37.534963 28.525351 52.285131 0
M  V30 7 H 36.606865 27.824044 53.600857 0
M  V30 8 H 38.328391 26.199961 53.453500 0
M  V30 9 H 39.527760 27.405801 52.989088 0
M  V30 10 H 38.305886 26.980223 55.739726 0
M  V30 11 H 40.021135 27.077411 55.347373 0
M  V30 12 H 38.242519 30.300237 53.679063 0
M  V30 13 H 36.966005 29.777566 54.765659 0
M  V30 14 H 38.699165 29.273488 56.279551 0
M  V30 15 H 39.897041 29.441962 55.005084 0
M  V30 END ATOM
M  V30 BEGIN BOND
M  V30 1 1 2 1
M  V30 2 1 3 2
M  V30 3 1 4 1
M  V30 4 1 5 3
M  V30 5 1 5 4
M  V30 6 1 6 1
M  V30 7 1 7 1
M  V30 8 1 8 2
M  V30 9 1 9 2
M  V30 10 1 10 3
M  V30 11 1 11 3
M  V30 12 1 12 4
M  V30 13 1 13 4
M  V30 14 1 14 5
M  V30 15 1 15 5
M  V30 END BOND
M  V30 END CTAB
M  END
>  <i_epik_Tot_Q>  (1) 
0

>  <i_epik_Tot_abs_Q>  (1) 
0

>  <i_i_glide_confnum>  (1) 
1

>  <i_i_glide_lignum>  (1) 
82

>  <i_i_glide_posenum>  (1) 
357

>  <i_i_glide_rotatable_bonds>  (1) 
0

>  <i_lp_mmshare_version>  (1) 
72125

>  <i_m_source_file_index>  (1) 
78

>  <i_f3d_flags>  (1) 
0

>  <num_sample>  (1) 
100

>  <b_lp_Chiralities_Consistent>  (1) 
1

>  <r_epik_Charging_Adjusted_Penalty>  (1) 
0

>  <r_epik_Ionization_Penalty>  (1) 
0

>  <r_epik_Ionization_Penalty_Charging>  (1) 
0

>  <r_epik_Ionization_Penalty_Neutral>  (1) 
0

>  <r_epik_State_Penalty>  (1) 
-0

>  <r_glide_ring_energy>  (1) 
0

>  <r_i_docking_score>  (1) 
-4.1525490781678247

>  <r_i_glide_ecoul>  (1) 
0.049142726070271342

>  <r_i_glide_eff_state_penalty>  (1) 
-0

>  <r_i_glide_einternal>  (1) 
0

>  <r_i_glide_emodel>  (1) 
-14.524071257265806

>  <r_i_glide_emodel_strain>  (1) 
2.6581414402926384e-08

>  <r_i_glide_energy>  (1) 
-11.265120018104344

>  <r_i_glide_erotb>  (1) 
0

>  <r_i_glide_esite>  (1) 
0

>  <r_i_glide_evdw>  (1) 
-11.314262744174616

>  <r_i_glide_gscore>  (1) 
-4.1525490781678247

>  <r_i_glide_gscore_strain>  (1) 
0

>  <r_i_glide_hbond>  (1) 
0

>  <r_i_glide_ligand_efficiency>  (1) 
-0.83050981563356496

>  <r_i_glide_ligand_efficiency_ln>  (1) 
-1.5913576860291343

>  <r_i_glide_ligand_efficiency_sa>  (1) 
-1.4201518082122944

>  <r_i_glide_lipo>  (1) 
-1.1990625813402576

>  <r_i_glide_metal>  (1) 
-0

>  <r_i_glide_rewards>  (1) 
-2.3951447685293772

>  <r_lp_Energy>  (1) 
13.274989999999999

>  <r_lp_tautomer_probability>  (1) 
1

>  <s_epik_cmdline>  (1) 
J2VwaWtfcHl0aG9uJywgJy1waHQnLCAnMS4wJywgJy1waCcsICc3LjQnLCAnLXRuJywgJzgnLCAnLW1hJywgJzUwMCcsICctaW1hZScsICc8aW5maWxlLm1hZT4nLCAnLW9tYWUnLCAnPG91dGZpbGUubWFlPic=

>  <s_epik_input>  (1) 
W0NIMl0xW0NIMl1bQ0gyXVtDSDJdW0NIMl0x

>  <s_glide_docking_method>  (1) 
confgen

>  <s_i_glide_gridfile>  (1) 
gpcr_5ht2c_6bqh_protein_autoprepared_prepared

>  <s_lp_Force_Field>  (1) 
S-OPLS

>  <s_lp_Variant>  (1) 
Pocket2Mol_77_num_sample_100-1

>  <s_m_source_file>  (1) 
generated__ligand_Pocket2Mol_2026-05-06_prepared.sdf

>  <GenAI_Model>  (1) 
Pocket2Mol

>  <Protein>  (1) 
GPCR_5HT2C

$$$$
Pocket2Mol_55_num_sample_100
     RDKit          3D

  0  0  0  0  0  0  0  0  0  0999 V3000
M  V30 BEGIN CTAB
M  V30 COUNTS 11 11 0 0 1
M  V30 BEGIN ATOM
M  V30 1 C 39.867403 29.549982 51.311730 0
M  V30 2 O 39.660996 28.421431 50.484878 0
M  V30 3 C 39.184541 29.180404 52.628985 0
M  V30 4 O 39.287648 27.776308 52.608239 0
M  V30 5 C 39.067403 27.456464 51.281740 0
M  V30 6 H 40.940772 29.678501 51.453501 0
M  V30 7 H 39.467408 30.460896 50.866170 0
M  V30 8 H 39.671290 29.621429 53.499326 0
M  V30 9 H 38.132944 29.467952 52.638031 0
M  V30 10 H 37.993000 27.451966 51.087571 0
M  V30 11 H 39.467403 26.468486 51.053501 0
M  V30 END ATOM
M  V30 BEGIN BOND
M  V30 1 1 2 1
M  V30 2 1 3 1
M  V30 3 1 4 3
M  V30 4 1 5 2
M  V30 5 1 5 4
M  V30 6 1 6 1
M  V30 7 1 7 1
M  V30 8 1 8 3
M  V30 9 1 9 3
M  V30 10 1 10 5
M  V30 11 1 11 5
M  V30 END BOND
M  V30 END CTAB
M  END
>  <i_epik_Tot_Q>  (1) 
0

>  <i_epik_Tot_abs_Q>  (1) 
0

>  <i_i_glide_confnum>  (1) 
3

>  <i_i_glide_lignum>  (1) 
59

>  <i_i_glide_posenum>  (1) 
359

>  <i_i_glide_rotatable_bonds>  (1) 
0

>  <i_lp_mmshare_version>  (1) 
72125

>  <i_m_source_file_index>  (1) 
56

>  <i_f3d_flags>  (1) 
0

>  <num_sample>  (1) 
100

>  <b_lp_Chiralities_Consistent>  (1) 
1

>  <r_epik_Charging_Adjusted_Penalty>  (1) 
0

>  <r_epik_Ionization_Penalty>  (1) 
7.9724310449397378e-14

>  <r_epik_Ionization_Penalty_Charging>  (1) 
0

>  <r_epik_Ionization_Penalty_Neutral>  (1) 
7.9724310449397378e-14

>  <r_epik_State_Penalty>  (1) 
-0

>  <r_glide_ring_energy>  (1) 
0.2805525668492585

>  <r_i_docking_score>  (1) 
-4.1490289027016587

>  <r_i_glide_ecoul>  (1) 
-0.58843148392754174

>  <r_i_glide_eff_state_penalty>  (1) 
-0

>  <r_i_glide_einternal>  (1) 
0

>  <r_i_glide_emodel>  (1) 
-16.448603481345586

>  <r_i_glide_emodel_strain>  (1) 
0

>  <r_i_glide_energy>  (1) 
-13.1550247258753

>  <r_i_glide_erotb>  (1) 
0

>  <r_i_glide_esite>  (1) 
0

>  <r_i_glide_evdw>  (1) 
-12.566593241947759

>  <r_i_glide_gscore>  (1) 
-4.1490289027016587

>  <r_i_glide_gscore_strain>  (1) 
0

>  <r_i_glide_hbond>  (1) 
0

>  <r_i_glide_ligand_efficiency>  (1) 
-0.82980578054033172

>  <r_i_glide_ligand_efficiency_ln>  (1) 
-1.5900086692736897

>  <r_i_glide_ligand_efficiency_sa>  (1) 
-1.4189479251372492

>  <r_i_glide_lipo>  (1) 
-0.59483691550750639

>  <r_i_glide_metal>  (1) 
-0

>  <r_i_glide_rewards>  (1) 
-2.8375976025076324

>  <r_lp_Energy>  (1) 
-12.242987999999999

>  <r_lp_tautomer_probability>  (1) 
1

>  <s_epik_Chemistry_Notes>  (1) 
This compound contains an acetal/aminal-like group ( X-CH(R)-Y where X, Y are N, S, or O) that may be acid/base labile, releasing an aldehyde.

>  <s_epik_cmdline>  (1) 
J2VwaWtfcHl0aG9uJywgJy1waHQnLCAnMS4wJywgJy1waCcsICc3LjQnLCAnLXRuJywgJzgnLCAnLW1hJywgJzUwMCcsICctaW1hZScsICc8aW5maWxlLm1hZT4nLCAnLW9tYWUnLCAnPG91dGZpbGUubWFlPic=

>  <s_epik_input>  (1) 
W0NIMl0xT1tDSDJdT1tDSDJdMQ==

>  <s_glide_docking_method>  (1) 
confgen

>  <s_i_glide_gridfile>  (1) 
gpcr_5ht2c_6bqh_protein_autoprepared_prepared

>  <s_lp_Force_Field>  (1) 
S-OPLS

>  <s_lp_Variant>  (1) 
Pocket2Mol_55_num_sample_100-1

>  <s_m_source_file>  (1) 
generated__ligand_Pocket2Mol_2026-05-06_prepared.sdf

>  <GenAI_Model>  (1) 
Pocket2Mol

>  <Protein>  (1) 
GPCR_5HT2C

$$$$
Pocket2Mol_8_num_sample_100
     RDKit          3D

  0  0  0  0  0  0  0  0  0  0999 V3000
M  V30 BEGIN CTAB
M  V30 COUNTS 12 12 0 0 1
M  V30 BEGIN ATOM
M  V30 1 C 40.875297 28.030928 58.935240 0
M  V30 2 C 39.881794 28.571483 59.776208 0
M  V30 3 C 40.687990 28.022347 57.537832 0
M  V30 4 C 39.507894 28.556394 56.981682 0
M  V30 5 C 38.515010 29.098229 57.823727 0
M  V30 6 C 38.703026 29.106419 59.220388 0
M  V30 7 H 41.780644 27.621451 59.361989 0
M  V30 8 H 40.024822 28.576553 60.847316 0
M  V30 9 H 41.449269 27.607715 56.892470 0
M  V30 10 H 39.364145 28.550413 55.911187 0
M  V30 11 H 37.610442 29.508820 57.396952 0
M  V30 12 H 37.942288 29.522635 59.864862 0
M  V30 END ATOM
M  V30 BEGIN BOND
M  V30 1 1 2 1
M  V30 2 2 3 1
M  V30 3 1 4 3
M  V30 4 2 5 4
M  V30 5 2 6 2
M  V30 6 1 6 5
M  V30 7 1 7 1
M  V30 8 1 8 2
M  V30 9 1 9 3
M  V30 10 1 10 4
M  V30 11 1 11 5
M  V30 12 1 12 6
M  V30 END BOND
M  V30 END CTAB
M  END
>  <i_epik_Tot_Q>  (1) 
0

>  <i_epik_Tot_abs_Q>  (1) 
0

>  <i_i_glide_confnum>  (1) 
1

>  <i_i_glide_lignum>  (1) 
11

>  <i_i_glide_posenum>  (1) 
274

>  <i_i_glide_rotatable_bonds>  (1) 
0

>  <i_lp_mmshare_version>  (1) 
72125

>  <i_m_source_file_index>  (1) 
9

>  <i_f3d_flags>  (1) 
0

>  <num_sample>  (1) 
100

>  <b_lp_Chiralities_Consistent>  (1) 
1

>  <r_epik_Charging_Adjusted_Penalty>  (1) 
0

>  <r_epik_Ionization_Penalty>  (1) 
0

>  <r_epik_Ionization_Penalty_Charging>  (1) 
0

>  <r_epik_Ionization_Penalty_Neutral>  (1) 
0

>  <r_epik_State_Penalty>  (1) 
-0

>  <r_glide_ring_energy>  (1) 
0

>  <r_i_docking_score>  (1) 
-4.1236084354372409

>  <r_i_glide_ecoul>  (1) 
-0.70967835630988652

>  <r_i_glide_eff_state_penalty>  (1) 
-0

>  <r_i_glide_einternal>  (1) 
0

>  <r_i_glide_emodel>  (1) 
-14.614234000828818

>  <r_i_glide_emodel_strain>  (1) 
0

>  <r_i_glide_energy>  (1) 
-10.730738279451121

>  <r_i_glide_erotb>  (1) 
0

>  <r_i_glide_esite>  (1) 
0

>  <r_i_glide_evdw>  (1) 
-10.021059923141234

>  <r_i_glide_gscore>  (1) 
-4.1236084354372409

>  <r_i_glide_gscore_strain>  (1) 
0

>  <r_i_glide_hbond>  (1) 
0

>  <r_i_glide_ligand_efficiency>  (1) 
-0.68726807257287348

>  <r_i_glide_ligand_efficiency_ln>  (1) 
-1.4770643677900566

>  <r_i_glide_ligand_efficiency_sa>  (1) 
-1.2488489674682219

>  <r_i_glide_lipo>  (1) 
-1.1127083741466861

>  <r_i_glide_metal>  (1) 
-0

>  <r_i_glide_rewards>  (1) 
-2.4033953116870097

>  <r_lp_Energy>  (1) 
6.1542199999999996

>  <r_lp_tautomer_probability>  (1) 
1

>  <s_epik_cmdline>  (1) 
J2VwaWtfcHl0aG9uJywgJy1waHQnLCAnMS4wJywgJy1waCcsICc3LjQnLCAnLXRuJywgJzgnLCAnLW1hJywgJzUwMCcsICctaW1hZScsICc8aW5maWxlLm1hZT4nLCAnLW9tYWUnLCAnPG91dGZpbGUubWFlPic=

>  <s_epik_input>  (1) 
W2NIXTFbY0hdW2NIXVtjSF1bY0hdW2NIXTE=

>  <s_glide_docking_method>  (1) 
confgen

>  <s_i_glide_gridfile>  (1) 
gpcr_5ht2c_6bqh_protein_autoprepared_prepared

>  <s_lp_Force_Field>  (1) 
S-OPLS

>  <s_lp_Variant>  (1) 
Pocket2Mol_8_num_sample_100-1

>  <s_m_source_file>  (1) 
generated__ligand_Pocket2Mol_2026-05-06_prepared.sdf

>  <GenAI_Model>  (1) 
Pocket2Mol

>  <Protein>  (1) 
GPCR_5HT2C

$$$$
Pocket2Mol_39_num_sample_100
     RDKit          3D

  0  0  0  0  0  0  0  0  0  0999 V3000
M  V30 BEGIN CTAB
M  V30 COUNTS 15 15 0 0 1
M  V30 BEGIN ATOM
M  V30 1 C 35.321146 33.388812 59.954612 0
M  V30 2 C 36.260201 34.021328 60.993742 0
M  V30 3 O 35.067408 32.021973 60.236329 0
M  V30 4 C 36.209718 31.230678 60.253533 0
M  V30 5 O 37.574605 33.546285 60.755441 0
M  V30 6 O 36.900138 31.390822 61.453322 0
M  V30 7 C 37.908132 32.357009 61.402437 0
M  V30 8 H 34.362478 33.907196 59.964086 0
M  V30 9 H 35.724346 33.503267 58.947120 0
M  V30 10 H 35.925382 33.847013 62.017422 0
M  V30 11 H 36.271228 35.100892 60.843746 0
M  V30 12 H 36.831627 31.392669 59.368714 0
M  V30 13 H 35.867463 30.197628 60.218042 0
M  V30 14 H 38.197066 32.588543 62.428104 0
M  V30 15 H 38.778979 31.936209 60.898389 0
M  V30 END ATOM
M  V30 BEGIN BOND
M  V30 1 1 2 1
M  V30 2 1 3 1
M  V30 3 1 4 3
M  V30 4 1 5 2
M  V30 5 1 6 4
M  V30 6 1 7 5
M  V30 7 1 7 6
M  V30 8 1 8 1
M  V30 9 1 9 1
M  V30 10 1 10 2
M  V30 11 1 11 2
M  V30 12 1 12 4
M  V30 13 1 13 4
M  V30 14 1 14 7
M  V30 15 1 15 7
M  V30 END BOND
M  V30 END CTAB
M  END
>  <i_epik_Tot_Q>  (1) 
0

>  <i_epik_Tot_abs_Q>  (1) 
0

>  <i_i_glide_confnum>  (1) 
7

>  <i_i_glide_lignum>  (1) 
42

>  <i_i_glide_posenum>  (1) 
21

>  <i_i_glide_rotatable_bonds>  (1) 
0

>  <i_lp_mmshare_version>  (1) 
72125

>  <i_m_source_file_index>  (1) 
40

>  <i_f3d_flags>  (1) 
0

>  <num_sample>  (1) 
100

>  <b_lp_Chiralities_Consistent>  (1) 
1

>  <r_epik_Charging_Adjusted_Penalty>  (1) 
0

>  <r_epik_Ionization_Penalty>  (1) 
4.6834743432320728e-14

>  <r_epik_Ionization_Penalty_Charging>  (1) 
0

>  <r_epik_Ionization_Penalty_Neutral>  (1) 
4.6834743432320728e-14

>  <r_epik_State_Penalty>  (1) 
-0

>  <r_glide_ring_energy>  (1) 
0.00049507184875689477

>  <r_i_docking_score>  (1) 
-4.1054575777529596

>  <r_i_glide_ecoul>  (1) 
-2.5273767390532771

>  <r_i_glide_eff_state_penalty>  (1) 
-0

>  <r_i_glide_einternal>  (1) 
0

>  <r_i_glide_emodel>  (1) 
-19.97975199008901

>  <r_i_glide_emodel_strain>  (1) 
0

>  <r_i_glide_energy>  (1) 
-15.370897951922089

>  <r_i_glide_erotb>  (1) 
0

>  <r_i_glide_esite>  (1) 
-0.0743799452725636

>  <r_i_glide_evdw>  (1) 
-12.843521212868811

>  <r_i_glide_gscore>  (1) 
-4.1054575777529596

>  <r_i_glide_gscore_strain>  (1) 
0

>  <r_i_glide_hbond>  (1) 
-0.32000000000000001

>  <r_i_glide_ligand_efficiency>  (1) 
-0.58649393967899421

>  <r_i_glide_ligand_efficiency_ln>  (1) 
-1.393612625649661

>  <r_i_glide_ligand_efficiency_sa>  (1) 
-1.1219225457189768

>  <r_i_glide_lipo>  (1) 
-0.19080852335602466

>  <r_i_glide_metal>  (1) 
-0

>  <r_i_glide_rewards>  (1) 
-2.498986537622939

>  <r_lp_Energy>  (1) 
1.238378

>  <r_lp_tautomer_probability>  (1) 
1

>  <s_epik_Chemistry_Notes>  (1) 
This compound contains an acetal/aminal-like group ( X-CH(R)-Y where X, Y are N, S, or O) that may be acid/base labile, releasing an aldehyde.

>  <s_epik_cmdline>  (1) 
J2VwaWtfcHl0aG9uJywgJy1waHQnLCAnMS4wJywgJy1waCcsICc3LjQnLCAnLXRuJywgJzgnLCAnLW1hJywgJzUwMCcsICctaW1hZScsICc8aW5maWxlLm1hZT4nLCAnLW9tYWUnLCAnPG91dGZpbGUubWFlPic=

>  <s_epik_input>  (1) 
W0NIMl0xW0NIMl1PW0NIMl1PW0NIMl1PMQ==

>  <s_glide_docking_method>  (1) 
confgen

>  <s_i_glide_gridfile>  (1) 
gpcr_5ht2c_6bqh_protein_autoprepared_prepared

>  <s_lp_Force_Field>  (1) 
S-OPLS

>  <s_lp_Variant>  (1) 
Pocket2Mol_39_num_sample_100-1

>  <s_m_source_file>  (1) 
generated__ligand_Pocket2Mol_2026-05-06_prepared.sdf

>  <GenAI_Model>  (1) 
Pocket2Mol

>  <Protein>  (1) 
GPCR_5HT2C

$$$$
Pocket2Mol_3_num_sample_100
     RDKit          3D

  0  0  0  0  0  0  0  0  0  0999 V3000
M  V30 BEGIN CTAB
M  V30 COUNTS 9 9 0 0 1
M  V30 BEGIN ATOM
M  V30 1 C 37.867323 28.937046 54.009486 0
M  V30 2 O 37.867418 28.749758 52.655005 0
M  V30 3 C 38.608788 27.622992 52.435891 0
M  V30 4 C 38.585051 27.959547 54.636169 0
M  V30 5 C 39.067403 27.105308 53.613222 0
M  V30 6 H 37.316488 29.800844 54.355053 0
M  V30 7 H 38.707378 27.331179 51.400048 0
M  V30 8 H 38.742818 27.871926 55.701319 0
M  V30 9 H 39.675471 26.219608 53.722930 0
M  V30 END ATOM
M  V30 BEGIN BOND
M  V30 1 1 2 1
M  V30 2 1 3 2
M  V30 3 2 4 1
M  V30 4 2 5 3
M  V30 5 1 5 4
M  V30 6 1 6 1
M  V30 7 1 7 3
M  V30 8 1 8 4
M  V30 9 1 9 5
M  V30 END BOND
M  V30 END CTAB
M  END
>  <i_epik_Tot_Q>  (1) 
0

>  <i_epik_Tot_abs_Q>  (1) 
0

>  <i_i_glide_confnum>  (1) 
1

>  <i_i_glide_lignum>  (1) 
6

>  <i_i_glide_posenum>  (1) 
8

>  <i_i_glide_rotatable_bonds>  (1) 
0

>  <i_lp_mmshare_version>  (1) 
72125

>  <i_m_source_file_index>  (1) 
4

>  <i_f3d_flags>  (1) 
0

>  <num_sample>  (1) 
100

>  <b_lp_Chiralities_Consistent>  (1) 
1

>  <r_epik_Charging_Adjusted_Penalty>  (1) 
0

>  <r_epik_Ionization_Penalty>  (1) 
0

>  <r_epik_Ionization_Penalty_Charging>  (1) 
0

>  <r_epik_Ionization_Penalty_Neutral>  (1) 
0

>  <r_epik_State_Penalty>  (1) 
-0

>  <r_glide_ring_energy>  (1) 
0

>  <r_i_docking_score>  (1) 
-4.079532725456037

>  <r_i_glide_ecoul>  (1) 
-0.43639944896644578

>  <r_i_glide_eff_state_penalty>  (1) 
-0

>  <r_i_glide_einternal>  (1) 
0

>  <r_i_glide_emodel>  (1) 
-14.238493065262116

>  <r_i_glide_emodel_strain>  (1) 
0

>  <r_i_glide_energy>  (1) 
-10.873824458038573

>  <r_i_glide_erotb>  (1) 
0

>  <r_i_glide_esite>  (1) 
0

>  <r_i_glide_evdw>  (1) 
-10.437425009072127

>  <r_i_glide_gscore>  (1) 
-4.079532725456037

>  <r_i_glide_gscore_strain>  (1) 
0

>  <r_i_glide_hbond>  (1) 
0

>  <r_i_glide_ligand_efficiency>  (1) 
-0.81590654509120741

>  <r_i_glide_ligand_efficiency_ln>  (1) 
-1.5633760458590955

>  <r_i_glide_ligand_efficiency_sa>  (1) 
-1.3951805668420505

>  <r_i_glide_lipo>  (1) 
-1.1255348909907974

>  <r_i_glide_metal>  (1) 
-0

>  <r_i_glide_rewards>  (1) 
-2.3666666666666667

>  <r_lp_Energy>  (1) 
2.5980879999999997

>  <r_lp_tautomer_probability>  (1) 
1

>  <s_epik_cmdline>  (1) 
J2VwaWtfcHl0aG9uJywgJy1waHQnLCAnMS4wJywgJy1waCcsICc3LjQnLCAnLXRuJywgJzgnLCAnLW1hJywgJzUwMCcsICctaW1hZScsICc8aW5maWxlLm1hZT4nLCAnLW9tYWUnLCAnPG91dGZpbGUubWFlPic=

>  <s_epik_input>  (1) 
W2NIXTFvW2NIXVtjSF1bY0hdMQ==

>  <s_glide_docking_method>  (1) 
confgen

>  <s_i_glide_gridfile>  (1) 
gpcr_5ht2c_6bqh_protein_autoprepared_prepared

>  <s_lp_Force_Field>  (1) 
S-OPLS

>  <s_lp_Variant>  (1) 
Pocket2Mol_3_num_sample_100-1

>  <s_m_source_file>  (1) 
generated__ligand_Pocket2Mol_2026-05-06_prepared.sdf

>  <GenAI_Model>  (1) 
Pocket2Mol

>  <Protein>  (1) 
GPCR_5HT2C

$$$$
Pocket2Mol_31_num_sample_100
     RDKit          3D

  0  0  0  0  0  0  0  0  0  0999 V3000
M  V30 BEGIN CTAB
M  V30 COUNTS 17 17 0 0 1
M  V30 BEGIN ATOM
M  V30 1 C 37.770176 33.464570 60.369005 0
M  V30 2 C 36.948365 32.283002 60.885724 0
M  V30 3 C 35.653618 31.956366 60.142466 0
M  V30 4 O 37.315440 31.621430 61.853500 0
M  V30 5 C 36.880462 34.690886 60.102874 0
M  V30 6 C 34.827104 33.221442 59.853501 0
M  V30 7 C 35.674224 34.338633 59.220178 0
M  V30 8 H 38.552197 33.709502 61.087992 0
M  V30 9 H 38.264785 33.157231 59.447294 0
M  V30 10 H 35.915015 31.466405 59.203722 0
M  V30 11 H 35.067469 31.243631 60.722392 0
M  V30 12 H 36.534315 35.106460 61.050264 0
M  V30 13 H 37.467430 35.473173 59.621459 0
M  V30 14 H 33.999427 32.970287 59.189141 0
M  V30 15 H 34.377261 33.583977 60.778447 0
M  V30 16 H 36.023628 34.020648 58.237861 0
M  V30 17 H 35.063963 35.225198 59.053497 0
M  V30 END ATOM
M  V30 BEGIN BOND
M  V30 1 1 2 1
M  V30 2 1 3 2
M  V30 3 2 4 2
M  V30 4 1 5 1
M  V30 5 1 6 3
M  V30 6 1 7 5
M  V30 7 1 7 6
M  V30 8 1 8 1
M  V30 9 1 9 1
M  V30 10 1 10 3
M  V30 11 1 11 3
M  V30 12 1 12 5
M  V30 13 1 13 5
M  V30 14 1 14 6
M  V30 15 1 15 6
M  V30 16 1 16 7
M  V30 17 1 17 7
M  V30 END BOND
M  V30 END CTAB
M  END
>  <i_epik_Tot_Q>  (1) 
0

>  <i_epik_Tot_abs_Q>  (1) 
0

>  <i_i_glide_confnum>  (1) 
1

>  <i_i_glide_lignum>  (1) 
34

>  <i_i_glide_posenum>  (1) 
99

>  <i_i_glide_rotatable_bonds>  (1) 
0

>  <i_lp_mmshare_version>  (1) 
72125

>  <i_m_source_file_index>  (1) 
32

>  <i_f3d_flags>  (1) 
0

>  <num_sample>  (1) 
100

>  <b_lp_Chiralities_Consistent>  (1) 
1

>  <r_epik_Charging_Adjusted_Penalty>  (1) 
0

>  <r_epik_Ionization_Penalty>  (1) 
3.7730911281982554e-13

>  <r_epik_Ionization_Penalty_Charging>  (1) 
0

>  <r_epik_Ionization_Penalty_Neutral>  (1) 
3.7730911281982554e-13

>  <r_epik_State_Penalty>  (1) 
-0

>  <r_glide_ring_energy>  (1) 
0

>  <r_i_docking_score>  (1) 
-4.0257798036784207

>  <r_i_glide_ecoul>  (1) 
-2.6549137049534939

>  <r_i_glide_eff_state_penalty>  (1) 
-0

>  <r_i_glide_einternal>  (1) 
0

>  <r_i_glide_emodel>  (1) 
-21.054515380323647

>  <r_i_glide_emodel_strain>  (1) 
0

>  <r_i_glide_energy>  (1) 
-16.783362262475489

>  <r_i_glide_erotb>  (1) 
0

>  <r_i_glide_esite>  (1) 
-0.017246494466363751

>  <r_i_glide_evdw>  (1) 
-14.128448557521994

>  <r_i_glide_gscore>  (1) 
-4.0257798036784207

>  <r_i_glide_gscore_strain>  (1) 
0

>  <r_i_glide_hbond>  (1) 
-0.32000000000000001

>  <r_i_glide_ligand_efficiency>  (1) 
-0.5751114005254887

>  <r_i_glide_ligand_efficiency_ln>  (1) 
-1.3665657131360225

>  <r_i_glide_ligand_efficiency_sa>  (1) 
-1.1001485316331083

>  <r_i_glide_lipo>  (1) 
-0.14073336869673858

>  <r_i_glide_metal>  (1) 
-0

>  <r_i_glide_rewards>  (1) 
-2.4431404568961943

>  <r_lp_Energy>  (1) 
-0.38655299999999998

>  <r_lp_tautomer_probability>  (1) 
1

>  <s_epik_cmdline>  (1) 
J2VwaWtfcHl0aG9uJywgJy1waHQnLCAnMS4wJywgJy1waCcsICc3LjQnLCAnLXRuJywgJzgnLCAnLW1hJywgJzUwMCcsICctaW1hZScsICc8aW5maWxlLm1hZT4nLCAnLW9tYWUnLCAnPG91dGZpbGUubWFlPic=

>  <s_epik_input>  (1) 
Tz1DMVtDSDJdW0NIMl1bQ0gyXVtDSDJdW0NIMl0x

>  <s_glide_docking_method>  (1) 
confgen

>  <s_i_glide_gridfile>  (1) 
gpcr_5ht2c_6bqh_protein_autoprepared_prepared

>  <s_lp_Force_Field>  (1) 
S-OPLS

>  <s_lp_Variant>  (1) 
Pocket2Mol_31_num_sample_100-1

>  <s_m_source_file>  (1) 
generated__ligand_Pocket2Mol_2026-05-06_prepared.sdf

>  <GenAI_Model>  (1) 
Pocket2Mol

>  <Protein>  (1) 
GPCR_5HT2C

$$$$
Pocket2Mol_38_num_sample_100
     RDKit          3D

  0  0  0  0  0  0  0  0  0  0999 V3000
M  V30 BEGIN CTAB
M  V30 COUNTS 17 17 0 0 1
M  V30 BEGIN ATOM
M  V30 1 C 34.827116 33.221431 59.853505 0
M  V30 2 C 35.653199 31.955872 60.142047 0
M  V30 3 C 36.948316 32.282349 60.884896 0
M  V30 4 O 37.315129 31.621430 61.853495 0
M  V30 5 C 35.674231 34.337296 59.218332 0
M  V30 6 C 36.880854 34.689471 60.100670 0
M  V30 7 C 37.770689 33.463093 60.366831 0
M  V30 8 H 33.998145 32.970593 59.190639 0
M  V30 9 H 34.379335 33.584861 60.779052 0
M  V30 10 H 35.914365 31.466243 59.203099 0
M  V30 11 H 38.553057 33.708696 61.085040 0
M  V30 12 H 35.067404 31.243029 60.722095 0
M  V30 13 H 35.064314 35.223979 59.050988 0
M  V30 14 H 36.022983 34.018290 58.236069 0
M  V30 15 H 36.534172 35.103904 61.048355 0
M  V30 16 H 37.467423 35.472730 59.620155 0
M  V30 17 H 38.265034 33.155517 59.445117 0
M  V30 END ATOM
M  V30 BEGIN BOND
M  V30 1 1 2 1
M  V30 2 1 3 2
M  V30 3 2 4 3
M  V30 4 1 5 1
M  V30 5 1 6 5
M  V30 6 1 7 3
M  V30 7 1 7 6
M  V30 8 1 8 1
M  V30 9 1 9 1
M  V30 10 1 10 2
M  V30 11 1 11 7
M  V30 12 1 12 2
M  V30 13 1 13 5
M  V30 14 1 14 5
M  V30 15 1 15 6
M  V30 16 1 16 6
M  V30 17 1 17 7
M  V30 END BOND
M  V30 END CTAB
M  END
>  <i_epik_Tot_Q>  (1) 
0

>  <i_epik_Tot_abs_Q>  (1) 
0

>  <i_i_glide_confnum>  (1) 
2

>  <i_i_glide_lignum>  (1) 
41

>  <i_i_glide_posenum>  (1) 
345

>  <i_i_glide_rotatable_bonds>  (1) 
0

>  <i_lp_mmshare_version>  (1) 
72125

>  <i_m_source_file_index>  (1) 
39

>  <i_f3d_flags>  (1) 
0

>  <num_sample>  (1) 
100

>  <b_lp_Chiralities_Consistent>  (1) 
1

>  <r_epik_Charging_Adjusted_Penalty>  (1) 
0

>  <r_epik_Ionization_Penalty>  (1) 
3.7730911281982554e-13

>  <r_epik_Ionization_Penalty_Charging>  (1) 
0

>  <r_epik_Ionization_Penalty_Neutral>  (1) 
3.7730911281982554e-13

>  <r_epik_State_Penalty>  (1) 
-0

>  <r_glide_ring_energy>  (1) 
4.2281688740393558e-05

>  <r_i_docking_score>  (1) 
-4.0250600026398704

>  <r_i_glide_ecoul>  (1) 
-2.6568909590211125

>  <r_i_glide_eff_state_penalty>  (1) 
-0

>  <r_i_glide_einternal>  (1) 
0

>  <r_i_glide_emodel>  (1) 
-21.05107824292487

>  <r_i_glide_emodel_strain>  (1) 
0

>  <r_i_glide_energy>  (1) 
-16.780675127139819

>  <r_i_glide_erotb>  (1) 
0

>  <r_i_glide_esite>  (1) 
-0.01727996023881467

>  <r_i_glide_evdw>  (1) 
-14.123784168118705

>  <r_i_glide_gscore>  (1) 
-4.0250600026398704

>  <r_i_glide_gscore_strain>  (1) 
0

>  <r_i_glide_hbond>  (1) 
-0.32000000000000001

>  <r_i_glide_ligand_efficiency>  (1) 
-0.57500857180569576

>  <r_i_glide_ligand_efficiency_ln>  (1) 
-1.366321374034648

>  <r_i_glide_ligand_efficiency_sa>  (1) 
-1.0999518273685318

>  <r_i_glide_lipo>  (1) 
-0.13992501168383473

>  <r_i_glide_metal>  (1) 
-0

>  <r_i_glide_rewards>  (1) 
-2.4431321784581193

>  <r_lp_Energy>  (1) 
-0.38638499999999998

>  <r_lp_tautomer_probability>  (1) 
1

>  <s_epik_cmdline>  (1) 
J2VwaWtfcHl0aG9uJywgJy1waHQnLCAnMS4wJywgJy1waCcsICc3LjQnLCAnLXRuJywgJzgnLCAnLW1hJywgJzUwMCcsICctaW1hZScsICc8aW5maWxlLm1hZT4nLCAnLW9tYWUnLCAnPG91dGZpbGUubWFlPic=

>  <s_epik_input>  (1) 
W0NIMl0xW0NIMl1bQ0gyXVtDSDJdW0NIXT1DMVtPSF0=

>  <s_glide_docking_method>  (1) 
confgen

>  <s_i_glide_gridfile>  (1) 
gpcr_5ht2c_6bqh_protein_autoprepared_prepared

>  <s_lp_Force_Field>  (1) 
S-OPLS

>  <s_lp_Variant>  (1) 
Pocket2Mol_38_num_sample_100-1

>  <s_m_source_file>  (1) 
generated__ligand_Pocket2Mol_2026-05-06_prepared.sdf

>  <GenAI_Model>  (1) 
Pocket2Mol

>  <Protein>  (1) 
GPCR_5HT2C

$$$$
Pocket2Mol_3_num_sample_100
     RDKit          3D

  0  0  0  0  0  0  0  0  0  0999 V3000
M  V30 BEGIN CTAB
M  V30 COUNTS 9 9 0 0 1
M  V30 BEGIN ATOM
M  V30 1 C 35.467403 33.203706 61.053661 0
M  V30 2 O 36.028068 32.021430 61.453501 0
M  V30 3 C 36.902521 31.673245 60.461810 0
M  V30 4 C 35.969569 33.598736 59.848075 0
M  V30 5 C 36.902599 32.604103 59.462943 0
M  V30 6 H 34.739884 33.621363 61.734590 0
M  V30 7 H 37.434592 30.747030 60.621527 0
M  V30 8 H 35.695557 34.493484 59.307929 0
M  V30 9 H 37.498590 32.569694 58.562337 0
M  V30 END ATOM
M  V30 BEGIN BOND
M  V30 1 1 2 1
M  V30 2 1 3 2
M  V30 3 2 4 1
M  V30 4 2 5 3
M  V30 5 1 5 4
M  V30 6 1 6 1
M  V30 7 1 7 3
M  V30 8 1 8 4
M  V30 9 1 9 5
M  V30 END BOND
M  V30 END CTAB
M  END
>  <i_epik_Tot_Q>  (1) 
0

>  <i_epik_Tot_abs_Q>  (1) 
0

>  <i_i_glide_confnum>  (1) 
1

>  <i_i_glide_lignum>  (1) 
6

>  <i_i_glide_posenum>  (1) 
357

>  <i_i_glide_rotatable_bonds>  (1) 
0

>  <i_lp_mmshare_version>  (1) 
72125

>  <i_m_source_file_index>  (1) 
4

>  <i_f3d_flags>  (1) 
0

>  <num_sample>  (1) 
100

>  <b_lp_Chiralities_Consistent>  (1) 
1

>  <r_epik_Charging_Adjusted_Penalty>  (1) 
0

>  <r_epik_Ionization_Penalty>  (1) 
0

>  <r_epik_Ionization_Penalty_Charging>  (1) 
0

>  <r_epik_Ionization_Penalty_Neutral>  (1) 
0

>  <r_epik_State_Penalty>  (1) 
-0

>  <r_glide_ring_energy>  (1) 
0

>  <r_i_docking_score>  (1) 
-4.0180465742120344

>  <r_i_glide_ecoul>  (1) 
-1.0584856085233814

>  <r_i_glide_eff_state_penalty>  (1) 
-0

>  <r_i_glide_einternal>  (1) 
0

>  <r_i_glide_emodel>  (1) 
-13.861059142301194

>  <r_i_glide_emodel_strain>  (1) 
0

>  <r_i_glide_energy>  (1) 
-10.54710235351185

>  <r_i_glide_erotb>  (1) 
0

>  <r_i_glide_esite>  (1) 
0

>  <r_i_glide_evdw>  (1) 
-9.4886167449884677

>  <r_i_glide_gscore>  (1) 
-4.0180465742120344

>  <r_i_glide_gscore_strain>  (1) 
0

>  <r_i_glide_hbond>  (1) 
-0.30126948255350505

>  <r_i_glide_ligand_efficiency>  (1) 
-0.80360931484240683

>  <r_i_glide_ligand_efficiency_ln>  (1) 
-1.539813058998585

>  <r_i_glide_ligand_efficiency_sa>  (1) 
-1.3741525989058565

>  <r_i_glide_lipo>  (1) 
-0.17204492787570883

>  <r_i_glide_metal>  (1) 
-0

>  <r_i_glide_rewards>  (1) 
-2.9115284852548893

>  <r_lp_Energy>  (1) 
2.5980879999999997

>  <r_lp_tautomer_probability>  (1) 
1

>  <s_epik_cmdline>  (1) 
J2VwaWtfcHl0aG9uJywgJy1waHQnLCAnMS4wJywgJy1waCcsICc3LjQnLCAnLXRuJywgJzgnLCAnLW1hJywgJzUwMCcsICctaW1hZScsICc8aW5maWxlLm1hZT4nLCAnLW9tYWUnLCAnPG91dGZpbGUubWFlPic=

>  <s_epik_input>  (1) 
W2NIXTFvW2NIXVtjSF1bY0hdMQ==

>  <s_glide_docking_method>  (1) 
confgen

>  <s_i_glide_gridfile>  (1) 
gpcr_5ht2c_6bqh_protein_autoprepared_prepared

>  <s_lp_Force_Field>  (1) 
S-OPLS

>  <s_lp_Variant>  (1) 
Pocket2Mol_3_num_sample_100-1

>  <s_m_source_file>  (1) 
generated__ligand_Pocket2Mol_2026-05-06_prepared.sdf

>  <GenAI_Model>  (1) 
Pocket2Mol

>  <Protein>  (1) 
GPCR_5HT2C

$$$$
Pocket2Mol_18_num_sample_100
     RDKit          3D

  0  0  0  0  0  0  0  0  0  0999 V3000
M  V30 BEGIN CTAB
M  V30 COUNTS 18 18 0 0 1
M  V30 BEGIN ATOM
M  V30 1 C 38.666607 27.891701 54.889363 0
M  V30 2 C 38.522168 28.177757 56.394132 0
M  V30 3 C 39.190981 29.505453 56.781075 0
M  V30 4 C 38.144891 29.064058 54.040784 0
M  V30 5 C 38.660875 30.672821 55.932495 0
M  V30 6 C 38.824628 30.387432 54.431107 0
M  V30 7 H 39.715099 27.707097 54.654405 0
M  V30 8 H 38.128585 26.978907 54.631251 0
M  V30 9 H 37.467404 28.217942 56.663447 0
M  V30 10 H 38.955406 27.360406 56.971400 0
M  V30 11 H 39.027725 29.711055 57.839404 0
M  V30 12 H 40.267403 29.416180 56.644515 0
M  V30 13 H 38.305989 28.859588 52.981809 0
M  V30 14 H 37.067403 29.158281 54.176361 0
M  V30 15 H 39.184086 31.592796 56.195593 0
M  V30 16 H 37.606642 30.842842 56.160000 0
M  V30 17 H 39.885143 30.344992 54.178966 0
M  V30 18 H 38.401344 31.209756 53.853499 0
M  V30 END ATOM
M  V30 BEGIN BOND
M  V30 1 1 2 1
M  V30 2 1 3 2
M  V30 3 1 4 1
M  V30 4 1 5 3
M  V30 5 1 6 4
M  V30 6 1 6 5
M  V30 7 1 7 1
M  V30 8 1 8 1
M  V30 9 1 9 2
M  V30 10 1 10 2
M  V30 11 1 11 3
M  V30 12 1 12 3
M  V30 13 1 13 4
M  V30 14 1 14 4
M  V30 15 1 15 5
M  V30 16 1 16 5
M  V30 17 1 17 6
M  V30 18 1 18 6
M  V30 END BOND
M  V30 END CTAB
M  END
>  <i_epik_Tot_Q>  (1) 
0

>  <i_epik_Tot_abs_Q>  (1) 
0

>  <i_i_glide_confnum>  (1) 
2

>  <i_i_glide_lignum>  (1) 
21

>  <i_i_glide_posenum>  (1) 
189

>  <i_i_glide_rotatable_bonds>  (1) 
0

>  <i_lp_mmshare_version>  (1) 
72125

>  <i_m_source_file_index>  (1) 
19

>  <i_f3d_flags>  (1) 
0

>  <num_sample>  (1) 
100

>  <b_lp_Chiralities_Consistent>  (1) 
1

>  <r_epik_Charging_Adjusted_Penalty>  (1) 
0

>  <r_epik_Ionization_Penalty>  (1) 
0

>  <r_epik_Ionization_Penalty_Charging>  (1) 
0

>  <r_epik_Ionization_Penalty_Neutral>  (1) 
0

>  <r_epik_State_Penalty>  (1) 
-0

>  <r_glide_ring_energy>  (1) 
0.00054248204421707515

>  <r_i_docking_score>  (1) 
-4.0100113215429385

>  <r_i_glide_ecoul>  (1) 
0.01721439896055138

>  <r_i_glide_eff_state_penalty>  (1) 
-0

>  <r_i_glide_einternal>  (1) 
0

>  <r_i_glide_emodel>  (1) 
-14.487583146336458

>  <r_i_glide_emodel_strain>  (1) 
0

>  <r_i_glide_energy>  (1) 
-11.337340320465371

>  <r_i_glide_erotb>  (1) 
0

>  <r_i_glide_esite>  (1) 
0

>  <r_i_glide_evdw>  (1) 
-11.354554719425922

>  <r_i_glide_gscore>  (1) 
-4.0100113215429385

>  <r_i_glide_gscore_strain>  (1) 
0

>  <r_i_glide_hbond>  (1) 
0

>  <r_i_glide_ligand_efficiency>  (1) 
-0.66833522025715641

>  <r_i_glide_ligand_efficiency_ln>  (1) 
-1.4363742169563556

>  <r_i_glide_ligand_efficiency_sa>  (1) 
-1.2144456916442827

>  <r_i_glide_lipo>  (1) 
-0.8115324120823918

>  <r_i_glide_metal>  (1) 
-0

>  <r_i_glide_rewards>  (1) 
-2.6333333333333333

>  <r_lp_Energy>  (1) 
5.7175969999999996

>  <r_lp_tautomer_probability>  (1) 
1

>  <s_epik_cmdline>  (1) 
J2VwaWtfcHl0aG9uJywgJy1waHQnLCAnMS4wJywgJy1waCcsICc3LjQnLCAnLXRuJywgJzgnLCAnLW1hJywgJzUwMCcsICctaW1hZScsICc8aW5maWxlLm1hZT4nLCAnLW9tYWUnLCAnPG91dGZpbGUubWFlPic=

>  <s_epik_input>  (1) 
W0NIMl0xW0NIMl1bQ0gyXVtDSDJdW0NIMl1bQ0gyXTE=

>  <s_glide_docking_method>  (1) 
confgen

>  <s_i_glide_gridfile>  (1) 
gpcr_5ht2c_6bqh_protein_autoprepared_prepared

>  <s_lp_Force_Field>  (1) 
S-OPLS

>  <s_lp_Variant>  (1) 
Pocket2Mol_18_num_sample_100-1

>  <s_m_source_file>  (1) 
generated__ligand_Pocket2Mol_2026-05-06_prepared.sdf

>  <GenAI_Model>  (1) 
Pocket2Mol

>  <Protein>  (1) 
GPCR_5HT2C

$$$$
Pocket2Mol_39_num_sample_100
     RDKit          3D

  0  0  0  0  0  0  0  0  0  0999 V3000
M  V30 BEGIN CTAB
M  V30 COUNTS 15 15 0 0 1
M  V30 BEGIN ATOM
M  V30 1 C 35.838907 33.949981 59.738720 0
M  V30 2 C 35.636372 33.208129 61.071670 0
M  V30 3 O 37.226434 34.019622 59.452383 0
M  V30 4 C 37.768339 32.836898 58.962249 0
M  V30 5 O 35.679402 31.784830 61.007157 0
M  V30 6 O 37.721067 31.778250 59.873177 0
M  V30 7 C 36.448184 31.218704 59.992248 0
M  V30 8 H 35.257629 33.521781 58.920996 0
M  V30 9 H 35.492192 34.976661 59.853496 0
M  V30 10 H 34.667403 33.475648 61.493387 0
M  V30 11 H 36.381097 33.547415 61.792572 0
M  V30 12 H 38.822010 33.039370 58.770545 0
M  V30 13 H 37.318700 32.573606 58.002139 0
M  V30 14 H 35.891634 31.228069 59.053501 0
M  V30 15 H 36.585093 30.169955 60.253513 0
M  V30 END ATOM
M  V30 BEGIN BOND
M  V30 1 1 2 1
M  V30 2 1 3 1
M  V30 3 1 4 3
M  V30 4 1 5 2
M  V30 5 1 6 4
M  V30 6 1 7 5
M  V30 7 1 7 6
M  V30 8 1 8 1
M  V30 9 1 9 1
M  V30 10 1 10 2
M  V30 11 1 11 2
M  V30 12 1 12 4
M  V30 13 1 13 4
M  V30 14 1 14 7
M  V30 15 1 15 7
M  V30 END BOND
M  V30 END CTAB
M  END
>  <i_epik_Tot_Q>  (1) 
0

>  <i_epik_Tot_abs_Q>  (1) 
0

>  <i_i_glide_confnum>  (1) 
2

>  <i_i_glide_lignum>  (1) 
42

>  <i_i_glide_posenum>  (1) 
61

>  <i_i_glide_rotatable_bonds>  (1) 
0

>  <i_lp_mmshare_version>  (1) 
72125

>  <i_m_source_file_index>  (1) 
40

>  <i_f3d_flags>  (1) 
0

>  <num_sample>  (1) 
100

>  <b_lp_Chiralities_Consistent>  (1) 
1

>  <r_epik_Charging_Adjusted_Penalty>  (1) 
0

>  <r_epik_Ionization_Penalty>  (1) 
4.6834743432320728e-14

>  <r_epik_Ionization_Penalty_Charging>  (1) 
0

>  <r_epik_Ionization_Penalty_Neutral>  (1) 
4.6834743432320728e-14

>  <r_epik_State_Penalty>  (1) 
-0

>  <r_glide_ring_energy>  (1) 
0.00017049435676393324

>  <r_i_docking_score>  (1) 
-3.9993666212603038

>  <r_i_glide_ecoul>  (1) 
-2.7782289712815307

>  <r_i_glide_eff_state_penalty>  (1) 
-0

>  <r_i_glide_einternal>  (1) 
0

>  <r_i_glide_emodel>  (1) 
-20.286818295981362

>  <r_i_glide_emodel_strain>  (1) 
0

>  <r_i_glide_energy>  (1) 
-15.797063706288533

>  <r_i_glide_erotb>  (1) 
0

>  <r_i_glide_esite>  (1) 
-0.12742149448562543

>  <r_i_glide_evdw>  (1) 
-13.018834735007003

>  <r_i_glide_gscore>  (1) 
-3.9993666212603038

>  <r_i_glide_gscore_strain>  (1) 
0

>  <r_i_glide_hbond>  (1) 
-0.10913119995698688

>  <r_i_glide_ligand_efficiency>  (1) 
-0.57133808875147196

>  <r_i_glide_ligand_efficiency_ln>  (1) 
-1.3575996615317036

>  <r_i_glide_ligand_efficiency_sa>  (1) 
-1.0929304458782696

>  <r_i_glide_lipo>  (1) 
-0.23184308816905061

>  <r_i_glide_metal>  (1) 
-0

>  <r_i_glide_rewards>  (1) 
-2.4632947562060612

>  <r_lp_Energy>  (1) 
1.238378

>  <r_lp_tautomer_probability>  (1) 
1

>  <s_epik_Chemistry_Notes>  (1) 
This compound contains an acetal/aminal-like group ( X-CH(R)-Y where X, Y are N, S, or O) that may be acid/base labile, releasing an aldehyde.

>  <s_epik_cmdline>  (1) 
J2VwaWtfcHl0aG9uJywgJy1waHQnLCAnMS4wJywgJy1waCcsICc3LjQnLCAnLXRuJywgJzgnLCAnLW1hJywgJzUwMCcsICctaW1hZScsICc8aW5maWxlLm1hZT4nLCAnLW9tYWUnLCAnPG91dGZpbGUubWFlPic=

>  <s_epik_input>  (1) 
W0NIMl0xW0NIMl1PW0NIMl1PW0NIMl1PMQ==

>  <s_glide_docking_method>  (1) 
confgen

>  <s_i_glide_gridfile>  (1) 
gpcr_5ht2c_6bqh_protein_autoprepared_prepared

>  <s_lp_Force_Field>  (1) 
S-OPLS

>  <s_lp_Variant>  (1) 
Pocket2Mol_39_num_sample_100-1

>  <s_m_source_file>  (1) 
generated__ligand_Pocket2Mol_2026-05-06_prepared.sdf

>  <GenAI_Model>  (1) 
Pocket2Mol

>  <Protein>  (1) 
GPCR_5HT2C

$$$$
Pocket2Mol_77_num_sample_100
     RDKit          3D

  0  0  0  0  0  0  0  0  0  0999 V3000
M  V30 BEGIN CTAB
M  V30 COUNTS 15 15 0 0 1
M  V30 BEGIN ATOM
M  V30 1 C 37.467508 30.205925 55.053502 0
M  V30 2 C 37.913218 28.825775 54.560196 0
M  V30 3 C 38.753087 29.104454 53.316990 0
M  V30 4 C 38.499659 31.213125 54.525166 0
M  V30 5 C 39.467247 30.420484 53.637298 0
M  V30 6 H 36.481987 30.448543 54.653465 0
M  V30 7 H 37.381580 30.239563 56.140406 0
M  V30 8 H 38.534354 28.350075 55.320257 0
M  V30 9 H 37.072392 28.161988 54.355489 0
M  V30 10 H 39.448287 28.294913 53.092877 0
M  V30 11 H 38.100233 29.221894 52.451557 0
M  V30 12 H 37.998469 31.991649 53.948396 0
M  V30 13 H 39.030035 31.708664 55.339069 0
M  V30 14 H 40.377387 30.212482 54.200702 0
M  V30 15 H 39.756948 30.969628 52.740485 0
M  V30 END ATOM
M  V30 BEGIN BOND
M  V30 1 1 2 1
M  V30 2 1 3 2
M  V30 3 1 4 1
M  V30 4 1 5 3
M  V30 5 1 5 4
M  V30 6 1 6 1
M  V30 7 1 7 1
M  V30 8 1 8 2
M  V30 9 1 9 2
M  V30 10 1 10 3
M  V30 11 1 11 3
M  V30 12 1 12 4
M  V30 13 1 13 4
M  V30 14 1 14 5
M  V30 15 1 15 5
M  V30 END BOND
M  V30 END CTAB
M  END
>  <i_epik_Tot_Q>  (1) 
0

>  <i_epik_Tot_abs_Q>  (1) 
0

>  <i_i_glide_confnum>  (1) 
2

>  <i_i_glide_lignum>  (1) 
82

>  <i_i_glide_posenum>  (1) 
242

>  <i_i_glide_rotatable_bonds>  (1) 
0

>  <i_lp_mmshare_version>  (1) 
72125

>  <i_m_source_file_index>  (1) 
78

>  <i_f3d_flags>  (1) 
0

>  <num_sample>  (1) 
100

>  <b_lp_Chiralities_Consistent>  (1) 
1

>  <r_epik_Charging_Adjusted_Penalty>  (1) 
0

>  <r_epik_Ionization_Penalty>  (1) 
0

>  <r_epik_Ionization_Penalty_Charging>  (1) 
0

>  <r_epik_Ionization_Penalty_Neutral>  (1) 
0

>  <r_epik_State_Penalty>  (1) 
-0

>  <r_glide_ring_energy>  (1) 
0.00028446117277806444

>  <r_i_docking_score>  (1) 
-3.9909404231508936

>  <r_i_glide_ecoul>  (1) 
-0.057859433018105033

>  <r_i_glide_eff_state_penalty>  (1) 
-0

>  <r_i_glide_einternal>  (1) 
0

>  <r_i_glide_emodel>  (1) 
-15.076787325508754

>  <r_i_glide_emodel_strain>  (1) 
0

>  <r_i_glide_energy>  (1) 
-11.944667728918553

>  <r_i_glide_erotb>  (1) 
0

>  <r_i_glide_esite>  (1) 
0

>  <r_i_glide_evdw>  (1) 
-11.886808295900448

>  <r_i_glide_gscore>  (1) 
-3.9909404231508936

>  <r_i_glide_gscore_strain>  (1) 
0

>  <r_i_glide_hbond>  (1) 
0

>  <r_i_glide_ligand_efficiency>  (1) 
-0.79818808463017876

>  <r_i_glide_ligand_efficiency_ln>  (1) 
-1.5294253234130866

>  <r_i_glide_ligand_efficiency_sa>  (1) 
-1.3648824256415495

>  <r_i_glide_lipo>  (1) 
-0.85907231426051012

>  <r_i_glide_metal>  (1) 
-0

>  <r_i_glide_rewards>  (1) 
-2.5288487791426451

>  <r_lp_Energy>  (1) 
13.274989999999999

>  <r_lp_tautomer_probability>  (1) 
1

>  <s_epik_cmdline>  (1) 
J2VwaWtfcHl0aG9uJywgJy1waHQnLCAnMS4wJywgJy1waCcsICc3LjQnLCAnLXRuJywgJzgnLCAnLW1hJywgJzUwMCcsICctaW1hZScsICc8aW5maWxlLm1hZT4nLCAnLW9tYWUnLCAnPG91dGZpbGUubWFlPic=

>  <s_epik_input>  (1) 
W0NIMl0xW0NIMl1bQ0gyXVtDSDJdW0NIMl0x

>  <s_glide_docking_method>  (1) 
confgen

>  <s_i_glide_gridfile>  (1) 
gpcr_5ht2c_6bqh_protein_autoprepared_prepared

>  <s_lp_Force_Field>  (1) 
S-OPLS

>  <s_lp_Variant>  (1) 
Pocket2Mol_77_num_sample_100-1

>  <s_m_source_file>  (1) 
generated__ligand_Pocket2Mol_2026-05-06_prepared.sdf

>  <GenAI_Model>  (1) 
Pocket2Mol

>  <Protein>  (1) 
GPCR_5HT2C

$$$$
Pocket2Mol_36_num_sample_100
     RDKit          3D

  0  0  0  0  0  0  0  0  0  0999 V3000
M  V30 BEGIN CTAB
M  V30 COUNTS 19 19 0 0 1
M  V30 BEGIN ATOM
M  V30 1 C 36.441781 31.686434 60.471733 0
M  V30 2 C 35.466919 32.854978 60.248922 0
M  V30 3 C 37.668640 32.141426 61.279811 0
M  V30 4 O 34.388471 32.421430 59.453501 0
M  V30 5 C 38.367527 33.336783 60.607924 0
M  V30 6 C 37.387570 34.499645 60.373386 0
M  V30 7 C 36.164656 34.041238 59.562753 0
M  V30 8 H 35.936889 30.868079 60.986210 0
M  V30 9 H 36.768554 31.290609 59.508563 0
M  V30 10 H 35.062927 33.178306 61.209578 0
M  V30 11 H 37.359152 32.421427 62.286949 0
M  V30 12 H 38.369529 31.313482 61.390331 0
M  V30 13 H 34.715900 32.196470 58.578702 0
M  V30 14 H 39.202863 33.673191 61.222877 0
M  V30 15 H 38.793433 33.022070 59.654055 0
M  V30 16 H 37.059061 34.901199 61.332960 0
M  V30 17 H 37.891124 35.314923 59.853529 0
M  V30 18 H 36.480317 33.756890 58.557210 0
M  V30 19 H 35.466547 34.870605 59.442705 0
M  V30 END ATOM
M  V30 BEGIN BOND
M  V30 1 1 2 1
M  V30 2 1 3 1
M  V30 3 1 4 2
M  V30 4 1 5 3
M  V30 5 1 6 5
M  V30 6 1 7 2
M  V30 7 1 7 6
M  V30 8 1 8 1
M  V30 9 1 9 1
M  V30 10 1 10 2
M  V30 11 1 11 3
M  V30 12 1 12 3
M  V30 13 1 13 4
M  V30 14 1 14 5
M  V30 15 1 15 5
M  V30 16 1 16 6
M  V30 17 1 17 6
M  V30 18 1 18 7
M  V30 19 1 19 7
M  V30 END BOND
M  V30 END CTAB
M  END
>  <i_epik_Tot_Q>  (1) 
0

>  <i_epik_Tot_abs_Q>  (1) 
0

>  <i_i_glide_confnum>  (1) 
1

>  <i_i_glide_lignum>  (1) 
39

>  <i_i_glide_posenum>  (1) 
140

>  <i_i_glide_rotatable_bonds>  (1) 
1

>  <i_lp_mmshare_version>  (1) 
72125

>  <i_m_source_file_index>  (1) 
37

>  <i_f3d_flags>  (1) 
0

>  <num_sample>  (1) 
100

>  <b_lp_Chiralities_Consistent>  (1) 
1

>  <r_epik_Charging_Adjusted_Penalty>  (1) 
0

>  <r_epik_Ionization_Penalty>  (1) 
4.7751045033339745e-07

>  <r_epik_Ionization_Penalty_Charging>  (1) 
0

>  <r_epik_Ionization_Penalty_Neutral>  (1) 
4.7751045033339745e-07

>  <r_epik_State_Penalty>  (1) 
-0

>  <r_glide_ring_energy>  (1) 
0

>  <r_i_docking_score>  (1) 
-3.9812703924255053

>  <r_i_glide_ecoul>  (1) 
-2.983919866618308

>  <r_i_glide_eff_state_penalty>  (1) 
-0

>  <r_i_glide_einternal>  (1) 
0.030898352136911944

>  <r_i_glide_emodel>  (1) 
-21.052565844964196

>  <r_i_glide_emodel_strain>  (1) 
0

>  <r_i_glide_energy>  (1) 
-16.723337908543929

>  <r_i_glide_erotb>  (1) 
0

>  <r_i_glide_esite>  (1) 
0

>  <r_i_glide_evdw>  (1) 
-13.739418041925621

>  <r_i_glide_gscore>  (1) 
-3.9812703924255053

>  <r_i_glide_gscore_strain>  (1) 
0

>  <r_i_glide_hbond>  (1) 
-0.16

>  <r_i_glide_ligand_efficiency>  (1) 
-0.56875291320364363

>  <r_i_glide_ligand_efficiency_ln>  (1) 
-1.3514568303117487

>  <r_i_glide_ligand_efficiency_sa>  (1) 
-1.0879851829598879

>  <r_i_glide_lipo>  (1) 
-0.2817112223675336

>  <r_i_glide_metal>  (1) 
-0

>  <r_i_glide_rewards>  (1) 
-2.4050002879689445

>  <r_lp_Energy>  (1) 
3.8568439999999997

>  <r_lp_tautomer_probability>  (1) 
1

>  <s_epik_cmdline>  (1) 
J2VwaWtfcHl0aG9uJywgJy1waHQnLCAnMS4wJywgJy1waCcsICc3LjQnLCAnLXRuJywgJzgnLCAnLW1hJywgJzUwMCcsICctaW1hZScsICc8aW5maWxlLm1hZT4nLCAnLW9tYWUnLCAnPG91dGZpbGUubWFlPic=

>  <s_epik_input>  (1) 
W09IXVtDSF0xW0NIMl1bQ0gyXVtDSDJdW0NIMl1bQ0gyXTE=

>  <s_glide_docking_method>  (1) 
confgen

>  <s_i_glide_gridfile>  (1) 
gpcr_5ht2c_6bqh_protein_autoprepared_prepared

>  <s_lp_Force_Field>  (1) 
S-OPLS

>  <s_lp_Variant>  (1) 
Pocket2Mol_36_num_sample_100-1

>  <s_m_source_file>  (1) 
generated__ligand_Pocket2Mol_2026-05-06_prepared.sdf

>  <GenAI_Model>  (1) 
Pocket2Mol

>  <Protein>  (1) 
GPCR_5HT2C

$$$$
Pocket2Mol_12_num_sample_100
     RDKit          3D

  0  0  0  0  0  0  0  0  0  0999 V3000
M  V30 BEGIN CTAB
M  V30 COUNTS 14 14 0 0 1
M  V30 BEGIN ATOM
M  V30 1 C 35.467428 33.213109 61.187080 0
M  V30 2 O 35.988203 31.903467 61.397276 0
M  V30 3 C 37.369766 31.837921 61.060628 0
M  V30 4 C 35.668871 33.621572 59.718546 0
M  V30 5 O 37.057638 33.574445 59.417895 0
M  V30 6 C 37.567466 32.259109 59.592190 0
M  V30 7 H 34.407381 33.221432 61.439734 0
M  V30 8 H 35.958685 33.923390 61.853534 0
M  V30 9 H 37.945244 32.481856 61.727434 0
M  V30 10 H 37.725114 30.818927 61.214573 0
M  V30 11 H 35.108904 32.962840 59.053506 0
M  V30 12 H 35.301415 34.633870 59.549935 0
M  V30 13 H 38.626572 32.251374 59.334137 0
M  V30 14 H 37.067403 31.565794 58.913643 0
M  V30 END ATOM
M  V30 BEGIN BOND
M  V30 1 1 2 1
M  V30 2 1 3 2
M  V30 3 1 4 1
M  V30 4 1 5 4
M  V30 5 1 6 3
M  V30 6 1 6 5
M  V30 7 1 7 1
M  V30 8 1 8 1
M  V30 9 1 9 3
M  V30 10 1 10 3
M  V30 11 1 11 4
M  V30 12 1 12 4
M  V30 13 1 13 6
M  V30 14 1 14 6
M  V30 END BOND
M  V30 END CTAB
M  END
>  <i_epik_Tot_Q>  (1) 
0

>  <i_epik_Tot_abs_Q>  (1) 
0

>  <i_i_glide_confnum>  (1) 
1

>  <i_i_glide_lignum>  (1) 
15

>  <i_i_glide_posenum>  (1) 
62

>  <i_i_glide_rotatable_bonds>  (1) 
0

>  <i_lp_mmshare_version>  (1) 
72125

>  <i_m_source_file_index>  (1) 
13

>  <i_f3d_flags>  (1) 
0

>  <num_sample>  (1) 
100

>  <b_lp_Chiralities_Consistent>  (1) 
1

>  <r_epik_Charging_Adjusted_Penalty>  (1) 
0

>  <r_epik_Ionization_Penalty>  (1) 
8.3894707547109138e-13

>  <r_epik_Ionization_Penalty_Charging>  (1) 
0

>  <r_epik_Ionization_Penalty_Neutral>  (1) 
8.3894707547109138e-13

>  <r_epik_State_Penalty>  (1) 
-0

>  <r_glide_ring_energy>  (1) 
0

>  <r_i_docking_score>  (1) 
-3.9795407498557736

>  <r_i_glide_ecoul>  (1) 
-1.7913546854752589

>  <r_i_glide_eff_state_penalty>  (1) 
-0

>  <r_i_glide_einternal>  (1) 
0

>  <r_i_glide_emodel>  (1) 
-16.508765946388721

>  <r_i_glide_emodel_strain>  (1) 
0

>  <r_i_glide_energy>  (1) 
-13.17700692377654

>  <r_i_glide_erotb>  (1) 
0

>  <r_i_glide_esite>  (1) 
0

>  <r_i_glide_evdw>  (1) 
-11.385652238301281

>  <r_i_glide_gscore>  (1) 
-3.9795407498557736

>  <r_i_glide_gscore_strain>  (1) 
0

>  <r_i_glide_hbond>  (1) 
-0.32000000000000001

>  <r_i_glide_ligand_efficiency>  (1) 
-0.66325679164262896

>  <r_i_glide_ligand_efficiency_ln>  (1) 
-1.4254597481337281

>  <r_i_glide_ligand_efficiency_sa>  (1) 
-1.205217574429597

>  <r_i_glide_lipo>  (1) 
-0.14977713423841402

>  <r_i_glide_metal>  (1) 
-0

>  <r_i_glide_rewards>  (1) 
-2.6717778008810065

>  <r_lp_Energy>  (1) 
4.964817

>  <r_lp_tautomer_probability>  (1) 
1

>  <s_epik_cmdline>  (1) 
J2VwaWtfcHl0aG9uJywgJy1waHQnLCAnMS4wJywgJy1waCcsICc3LjQnLCAnLXRuJywgJzgnLCAnLW1hJywgJzUwMCcsICctaW1hZScsICc8aW5maWxlLm1hZT4nLCAnLW9tYWUnLCAnPG91dGZpbGUubWFlPic=

>  <s_epik_input>  (1) 
W0NIMl0xT1tDSDJdW0NIMl1PW0NIMl0x

>  <s_glide_docking_method>  (1) 
confgen

>  <s_i_glide_gridfile>  (1) 
gpcr_5ht2c_6bqh_protein_autoprepared_prepared

>  <s_lp_Force_Field>  (1) 
S-OPLS

>  <s_lp_Variant>  (1) 
Pocket2Mol_12_num_sample_100-1

>  <s_m_source_file>  (1) 
generated__ligand_Pocket2Mol_2026-05-06_prepared.sdf

>  <GenAI_Model>  (1) 
Pocket2Mol

>  <Protein>  (1) 
GPCR_5HT2C

$$$$
Pocket2Mol_44_num_sample_100
     RDKit          3D

  0  0  0  0  0  0  0  0  0  0999 V3000
M  V30 BEGIN CTAB
M  V30 COUNTS 10 9 0 0 1
M  V30 BEGIN ATOM
M  V30 1 C 39.406123 27.733228 51.132998 0
M  V30 2 O 39.575558 28.793264 50.253504 0
M  V30 3 C 40.074690 29.975553 50.858997 0
M  V30 4 O 38.267275 27.872923 51.946421 0
M  V30 5 H 40.267399 27.621686 51.788864 0
M  V30 6 H 39.283492 26.821393 50.550749 0
M  V30 7 H 40.088494 30.784368 50.128109 0
M  V30 8 H 39.467404 30.295020 51.705169 0
M  V30 9 H 41.094814 29.823783 51.208500 0
M  V30 10 H 37.517485 27.567216 51.453501 0
M  V30 END ATOM
M  V30 BEGIN BOND
M  V30 1 1 2 1
M  V30 2 1 3 2
M  V30 3 1 4 1
M  V30 4 1 5 1
M  V30 5 1 6 1
M  V30 6 1 7 3
M  V30 7 1 8 3
M  V30 8 1 9 3
M  V30 9 1 10 4
M  V30 END BOND
M  V30 END CTAB
M  END
>  <i_epik_Tot_Q>  (1) 
0

>  <i_epik_Tot_abs_Q>  (1) 
0

>  <i_i_glide_confnum>  (1) 
1

>  <i_i_glide_lignum>  (1) 
47

>  <i_i_glide_posenum>  (1) 
279

>  <i_i_glide_rotatable_bonds>  (1) 
2

>  <i_lp_mmshare_version>  (1) 
72125

>  <i_m_source_file_index>  (1) 
45

>  <i_f3d_flags>  (1) 
0

>  <num_sample>  (1) 
100

>  <b_lp_Chiralities_Consistent>  (1) 
1

>  <r_epik_Charging_Adjusted_Penalty>  (1) 
0

>  <r_epik_Ionization_Penalty>  (1) 
1.028953084229311e-06

>  <r_epik_Ionization_Penalty_Charging>  (1) 
0

>  <r_epik_Ionization_Penalty_Neutral>  (1) 
1.028953084229311e-06

>  <r_epik_State_Penalty>  (1) 
-0

>  <r_glide_ring_energy>  (1) 
0

>  <r_i_docking_score>  (1) 
-3.9770772103861454

>  <r_i_glide_ecoul>  (1) 
-1.5348068252160654

>  <r_i_glide_eff_state_penalty>  (1) 
-0

>  <r_i_glide_einternal>  (1) 
0.93221736473690298

>  <r_i_glide_emodel>  (1) 
-15.937008769252969

>  <r_i_glide_emodel_strain>  (1) 
0.0042096900949046834

>  <r_i_glide_energy>  (1) 
-12.263206234763475

>  <r_i_glide_erotb>  (1) 
0

>  <r_i_glide_esite>  (1) 
0

>  <r_i_glide_evdw>  (1) 
-10.728399409547409

>  <r_i_glide_gscore>  (1) 
-3.9770772103861454

>  <r_i_glide_gscore_strain>  (1) 
0

>  <r_i_glide_hbond>  (1) 
-0.18043621612636515

>  <r_i_glide_ligand_efficiency>  (1) 
-0.99426930259653634

>  <r_i_glide_ligand_efficiency_ln>  (1) 
-1.6666331175168592

>  <r_i_glide_ligand_efficiency_sa>  (1) 
-1.5783041368814299

>  <r_i_glide_lipo>  (1) 
-0.33000000000000002

>  <r_i_glide_metal>  (1) 
-0

>  <r_i_glide_rewards>  (1) 
-2.7000000000000002

>  <r_lp_Energy>  (1) 
5.5414079999999997

>  <r_lp_tautomer_probability>  (1) 
1

>  <s_epik_Chemistry_Notes>  (1) 
This compound contains an acetal/aminal-like group ( X-CH(R)-Y where X, Y are N, S, or O) that may be acid/base labile, releasing an aldehyde.

>  <s_epik_cmdline>  (1) 
J2VwaWtfcHl0aG9uJywgJy1waHQnLCAnMS4wJywgJy1waCcsICc3LjQnLCAnLXRuJywgJzgnLCAnLW1hJywgJzUwMCcsICctaW1hZScsICc8aW5maWxlLm1hZT4nLCAnLW9tYWUnLCAnPG91dGZpbGUubWFlPic=

>  <s_epik_input>  (1) 
W09IXVtDSDJdT1tDSDNd

>  <s_glide_docking_method>  (1) 
confgen

>  <s_i_glide_gridfile>  (1) 
gpcr_5ht2c_6bqh_protein_autoprepared_prepared

>  <s_lp_Force_Field>  (1) 
S-OPLS

>  <s_lp_Variant>  (1) 
Pocket2Mol_44_num_sample_100-1

>  <s_m_source_file>  (1) 
generated__ligand_Pocket2Mol_2026-05-06_prepared.sdf

>  <GenAI_Model>  (1) 
Pocket2Mol

>  <Protein>  (1) 
GPCR_5HT2C

$$$$
Pocket2Mol_23_num_sample_100
     RDKit          3D

  0  0  0  0  0  0  0  0  0  0999 V3000
M  V30 BEGIN CTAB
M  V30 COUNTS 14 14 0 0 1
M  V30 BEGIN ATOM
M  V30 1 C 35.467404 32.576993 60.744266 0
M  V30 2 C 36.476883 33.309736 59.853762 0
M  V30 3 O 36.236994 31.621430 61.453501 0
M  V30 4 C 37.468765 31.610609 60.826271 0
M  V30 5 O 37.720520 32.889179 60.370657 0
M  V30 6 C 38.543010 31.223524 61.842961 0
M  V30 7 H 34.690837 32.092795 60.150644 0
M  V30 8 H 34.988882 33.253246 61.453407 0
M  V30 9 H 36.386339 32.988816 58.814921 0
M  V30 10 H 36.369337 34.394005 59.891045 0
M  V30 11 H 37.438578 30.918823 59.980531 0
M  V30 12 H 38.563713 31.951359 62.653501 0
M  V30 13 H 39.519392 31.204937 61.358762 0
M  V30 14 H 38.330526 30.236231 62.254049 0
M  V30 END ATOM
M  V30 BEGIN BOND
M  V30 1 1 2 1
M  V30 2 1 3 1
M  V30 3 1 4 3
M  V30 4 1 5 2
M  V30 5 1 5 4
M  V30 6 1 6 4
M  V30 7 1 7 1
M  V30 8 1 8 1
M  V30 9 1 9 2
M  V30 10 1 10 2
M  V30 11 1 11 4
M  V30 12 1 12 6
M  V30 13 1 13 6
M  V30 14 1 14 6
M  V30 END BOND
M  V30 END CTAB
M  END
>  <i_epik_Tot_Q>  (1) 
0

>  <i_epik_Tot_abs_Q>  (1) 
0

>  <i_i_glide_confnum>  (1) 
1

>  <i_i_glide_lignum>  (1) 
26

>  <i_i_glide_posenum>  (1) 
228

>  <i_i_glide_rotatable_bonds>  (1) 
0

>  <i_lp_mmshare_version>  (1) 
72125

>  <i_m_source_file_index>  (1) 
24

>  <i_f3d_flags>  (1) 
0

>  <num_sample>  (1) 
100

>  <b_lp_Chiralities_Consistent>  (1) 
1

>  <r_epik_Charging_Adjusted_Penalty>  (1) 
0

>  <r_epik_Ionization_Penalty>  (1) 
7.9724310449397378e-14

>  <r_epik_Ionization_Penalty_Charging>  (1) 
0

>  <r_epik_Ionization_Penalty_Neutral>  (1) 
7.9724310449397378e-14

>  <r_epik_State_Penalty>  (1) 
-0

>  <r_glide_ring_energy>  (1) 
0

>  <r_i_docking_score>  (1) 
-3.9673456191738481

>  <r_i_glide_ecoul>  (1) 
-3.0900755521746643

>  <r_i_glide_eff_state_penalty>  (1) 
-0

>  <r_i_glide_einternal>  (1) 
0

>  <r_i_glide_emodel>  (1) 
-17.707785912342413

>  <r_i_glide_emodel_strain>  (1) 
0.20593032495006636

>  <r_i_glide_energy>  (1) 
-14.14740382049113

>  <r_i_glide_erotb>  (1) 
0

>  <r_i_glide_esite>  (1) 
0

>  <r_i_glide_evdw>  (1) 
-11.057328268316466

>  <r_i_glide_gscore>  (1) 
-3.9673456191738481

>  <r_i_glide_gscore_strain>  (1) 
0

>  <r_i_glide_hbond>  (1) 
-0.32000000000000001

>  <r_i_glide_ligand_efficiency>  (1) 
-0.66122426986230798

>  <r_i_glide_ligand_efficiency_ln>  (1) 
-1.4210914883261245

>  <r_i_glide_ligand_efficiency_sa>  (1) 
-1.2015242372471959

>  <r_i_glide_lipo>  (1) 
-0.2351691888133304

>  <r_i_glide_metal>  (1) 
-0

>  <r_i_glide_rewards>  (1) 
-2.3957986841184948

>  <r_lp_Energy>  (1) 
-12.129052

>  <r_lp_tautomer_probability>  (1) 
1

>  <s_epik_Chemistry_Notes>  (1) 
This compound contains an acetal/aminal-like group ( X-CH(R)-Y where X, Y are N, S, or O) that may be acid/base labile, releasing an aldehyde.

>  <s_epik_cmdline>  (1) 
J2VwaWtfcHl0aG9uJywgJy1waHQnLCAnMS4wJywgJy1waCcsICc3LjQnLCAnLXRuJywgJzgnLCAnLW1hJywgJzUwMCcsICctaW1hZScsICc8aW5maWxlLm1hZT4nLCAnLW9tYWUnLCAnPG91dGZpbGUubWFlPic=

>  <s_epik_input>  (1) 
TzFbQ0gyXVtDSDJdT1tDSF0xW0NIM10=

>  <s_glide_docking_method>  (1) 
confgen

>  <s_i_glide_gridfile>  (1) 
gpcr_5ht2c_6bqh_protein_autoprepared_prepared

>  <s_lp_Force_Field>  (1) 
S-OPLS

>  <s_lp_Variant>  (1) 
Pocket2Mol_23_num_sample_100-1

>  <s_m_source_file>  (1) 
generated__ligand_Pocket2Mol_2026-05-06_prepared.sdf

>  <GenAI_Model>  (1) 
Pocket2Mol

>  <Protein>  (1) 
GPCR_5HT2C

$$$$
Pocket2Mol_15_num_sample_100
     RDKit          3D

  0  0  0  0  0  0  0  0  0  0999 V3000
M  V30 BEGIN CTAB
M  V30 COUNTS 12 12 0 0 1
M  V30 BEGIN ATOM
M  V30 1 C 36.958865 33.829363 59.053518 0
M  V30 2 O 37.125305 32.893265 60.105697 0
M  V30 3 C 35.507563 34.308155 59.209088 0
M  V30 4 C 35.960523 32.465119 60.571475 0
M  V30 5 C 34.792827 33.149716 59.892770 0
M  V30 6 O 35.811936 31.621431 61.453497 0
M  V30 7 H 37.672289 34.649819 59.128930 0
M  V30 8 H 37.104065 33.324656 58.096895 0
M  V30 9 H 35.467557 35.197093 59.839642 0
M  V30 10 H 35.053102 34.561336 58.253493 0
M  V30 11 H 34.341389 32.469826 59.168371 0
M  V30 12 H 34.039680 33.482936 60.606643 0
M  V30 END ATOM
M  V30 BEGIN BOND
M  V30 1 1 2 1
M  V30 2 1 3 1
M  V30 3 1 4 2
M  V30 4 1 5 3
M  V30 5 1 5 4
M  V30 6 2 6 4
M  V30 7 1 7 1
M  V30 8 1 8 1
M  V30 9 1 9 3
M  V30 10 1 10 3
M  V30 11 1 11 5
M  V30 12 1 12 5
M  V30 END BOND
M  V30 END CTAB
M  END
>  <i_epik_Tot_Q>  (1) 
0

>  <i_epik_Tot_abs_Q>  (1) 
0

>  <i_i_glide_confnum>  (1) 
1

>  <i_i_glide_lignum>  (1) 
18

>  <i_i_glide_posenum>  (1) 
190

>  <i_i_glide_rotatable_bonds>  (1) 
0

>  <i_lp_mmshare_version>  (1) 
72125

>  <i_m_source_file_index>  (1) 
16

>  <i_f3d_flags>  (1) 
0

>  <num_sample>  (1) 
100

>  <b_lp_Chiralities_Consistent>  (1) 
1

>  <r_epik_Charging_Adjusted_Penalty>  (1) 
0

>  <r_epik_Ionization_Penalty>  (1) 
0

>  <r_epik_Ionization_Penalty_Charging>  (1) 
0

>  <r_epik_Ionization_Penalty_Neutral>  (1) 
0

>  <r_epik_State_Penalty>  (1) 
-0

>  <r_glide_ring_energy>  (1) 
0

>  <r_i_docking_score>  (1) 
-3.9370313635240937

>  <r_i_glide_ecoul>  (1) 
-3.7831456673847388

>  <r_i_glide_eff_state_penalty>  (1) 
-0

>  <r_i_glide_einternal>  (1) 
0

>  <r_i_glide_emodel>  (1) 
-19.236277841568825

>  <r_i_glide_emodel_strain>  (1) 
0

>  <r_i_glide_energy>  (1) 
-15.258685429616937

>  <r_i_glide_erotb>  (1) 
0

>  <r_i_glide_esite>  (1) 
-0.028187103171839263

>  <r_i_glide_evdw>  (1) 
-11.475539762232199

>  <r_i_glide_gscore>  (1) 
-3.9370313635240937

>  <r_i_glide_gscore_strain>  (1) 
0

>  <r_i_glide_hbond>  (1) 
-0.32000000000000001

>  <r_i_glide_ligand_efficiency>  (1) 
-0.65617189392068231

>  <r_i_glide_ligand_efficiency_ln>  (1) 
-1.4102330114466186

>  <r_i_glide_ligand_efficiency_sa>  (1) 
-1.1923434608809382

>  <r_i_glide_lipo>  (1) 
0

>  <r_i_glide_metal>  (1) 
-0

>  <r_i_glide_rewards>  (1) 
-2.4475954221329337

>  <r_lp_Energy>  (1) 
-1.1766760000000001

>  <r_lp_tautomer_probability>  (1) 
1

>  <s_epik_Chemistry_Notes>  (1) 
This compound has an ester and may undergo hydrolysis at high or low pH.

>  <s_epik_cmdline>  (1) 
J2VwaWtfcHl0aG9uJywgJy1waHQnLCAnMS4wJywgJy1waCcsICc3LjQnLCAnLXRuJywgJzgnLCAnLW1hJywgJzUwMCcsICctaW1hZScsICc8aW5maWxlLm1hZT4nLCAnLW9tYWUnLCAnPG91dGZpbGUubWFlPic=

>  <s_epik_input>  (1) 
W0NIMl0xW0NIMl1bQ0gyXU9DMT1P

>  <s_glide_docking_method>  (1) 
confgen

>  <s_i_glide_gridfile>  (1) 
gpcr_5ht2c_6bqh_protein_autoprepared_prepared

>  <s_lp_Force_Field>  (1) 
S-OPLS

>  <s_lp_Variant>  (1) 
Pocket2Mol_15_num_sample_100-1

>  <s_m_source_file>  (1) 
generated__ligand_Pocket2Mol_2026-05-06_prepared.sdf

>  <GenAI_Model>  (1) 
Pocket2Mol

>  <Protein>  (1) 
GPCR_5HT2C

$$$$
Pocket2Mol_12_num_sample_100
     RDKit          3D

  0  0  0  0  0  0  0  0  0  0999 V3000
M  V30 BEGIN CTAB
M  V30 COUNTS 14 14 0 0 1
M  V30 BEGIN ATOM
M  V30 1 C 37.067665 30.457040 59.379718 0
M  V30 2 O 38.462613 30.705137 59.527005 0
M  V30 3 C 38.838198 30.763805 60.897373 0
M  V30 4 C 36.273185 31.574370 60.080736 0
M  V30 5 O 36.647739 31.619887 61.453503 0
M  V30 6 C 38.039136 31.880040 61.593677 0
M  V30 7 H 36.817809 30.421441 58.318952 0
M  V30 8 H 36.813570 29.482846 59.798716 0
M  V30 9 H 38.667497 29.799808 61.378155 0
M  V30 10 H 39.906857 30.966680 60.964353 0
M  V30 11 H 36.457939 32.538762 59.605296 0
M  V30 12 H 35.202825 31.384183 60.004415 0
M  V30 13 H 38.289210 31.918648 62.653501 0
M  V30 14 H 38.283257 32.855613 61.170439 0
M  V30 END ATOM
M  V30 BEGIN BOND
M  V30 1 1 2 1
M  V30 2 1 3 2
M  V30 3 1 4 1
M  V30 4 1 5 4
M  V30 5 1 6 3
M  V30 6 1 6 5
M  V30 7 1 7 1
M  V30 8 1 8 1
M  V30 9 1 9 3
M  V30 10 1 10 3
M  V30 11 1 11 4
M  V30 12 1 12 4
M  V30 13 1 13 6
M  V30 14 1 14 6
M  V30 END BOND
M  V30 END CTAB
M  END
>  <i_epik_Tot_Q>  (1) 
0

>  <i_epik_Tot_abs_Q>  (1) 
0

>  <i_i_glide_confnum>  (1) 
1

>  <i_i_glide_lignum>  (1) 
15

>  <i_i_glide_posenum>  (1) 
141

>  <i_i_glide_rotatable_bonds>  (1) 
0

>  <i_lp_mmshare_version>  (1) 
72125

>  <i_m_source_file_index>  (1) 
13

>  <i_f3d_flags>  (1) 
0

>  <num_sample>  (1) 
100

>  <b_lp_Chiralities_Consistent>  (1) 
1

>  <r_epik_Charging_Adjusted_Penalty>  (1) 
0

>  <r_epik_Ionization_Penalty>  (1) 
8.3894707547109138e-13

>  <r_epik_Ionization_Penalty_Charging>  (1) 
0

>  <r_epik_Ionization_Penalty_Neutral>  (1) 
8.3894707547109138e-13

>  <r_epik_State_Penalty>  (1) 
-0

>  <r_glide_ring_energy>  (1) 
0

>  <r_i_docking_score>  (1) 
-3.9251128473446348

>  <r_i_glide_ecoul>  (1) 
-2.7138409227996219

>  <r_i_glide_eff_state_penalty>  (1) 
-0

>  <r_i_glide_einternal>  (1) 
0

>  <r_i_glide_emodel>  (1) 
-16.310871428124482

>  <r_i_glide_emodel_strain>  (1) 
0

>  <r_i_glide_energy>  (1) 
-13.024680642319506

>  <r_i_glide_erotb>  (1) 
0

>  <r_i_glide_esite>  (1) 
0

>  <r_i_glide_evdw>  (1) 
-10.310839719519885

>  <r_i_glide_gscore>  (1) 
-3.9251128473446348

>  <r_i_glide_gscore_strain>  (1) 
0

>  <r_i_glide_hbond>  (1) 
-0.32000000000000001

>  <r_i_glide_ligand_efficiency>  (1) 
-0.65418547455743914

>  <r_i_glide_ligand_efficiency_ln>  (1) 
-1.405963834137173

>  <r_i_glide_ligand_efficiency_sa>  (1) 
-1.1887338973499886

>  <r_i_glide_lipo>  (1) 
-0.34720000755322733

>  <r_i_glide_metal>  (1) 
-0

>  <r_i_glide_rewards>  (1) 
-2.3352947153954702

>  <r_lp_Energy>  (1) 
4.964817

>  <r_lp_tautomer_probability>  (1) 
1

>  <s_epik_cmdline>  (1) 
J2VwaWtfcHl0aG9uJywgJy1waHQnLCAnMS4wJywgJy1waCcsICc3LjQnLCAnLXRuJywgJzgnLCAnLW1hJywgJzUwMCcsICctaW1hZScsICc8aW5maWxlLm1hZT4nLCAnLW9tYWUnLCAnPG91dGZpbGUubWFlPic=

>  <s_epik_input>  (1) 
W0NIMl0xT1tDSDJdW0NIMl1PW0NIMl0x

>  <s_glide_docking_method>  (1) 
confgen

>  <s_i_glide_gridfile>  (1) 
gpcr_5ht2c_6bqh_protein_autoprepared_prepared

>  <s_lp_Force_Field>  (1) 
S-OPLS

>  <s_lp_Variant>  (1) 
Pocket2Mol_12_num_sample_100-1

>  <s_m_source_file>  (1) 
generated__ligand_Pocket2Mol_2026-05-06_prepared.sdf

>  <GenAI_Model>  (1) 
Pocket2Mol

>  <Protein>  (1) 
GPCR_5HT2C

$$$$
Pocket2Mol_88_num_sample_100
     RDKit          3D

  0  0  0  0  0  0  0  0  0  0999 V3000
M  V30 BEGIN CTAB
M  V30 COUNTS 15 15 0 0 1
M  V30 BEGIN ATOM
M  V30 1 C 39.509231 31.137375 55.434817 0
M  V30 2 C 38.630449 31.302189 56.672491 0
M  V30 3 C 38.508615 30.825714 54.332739 0
M  V30 4 C 37.455660 29.983891 55.052927 0
M  V30 5 N 37.467403 30.421450 56.461693 0 CHG=1
M  V30 6 H 40.186626 30.292117 55.569134 0
M  V30 7 H 40.111921 32.021401 55.227109 0
M  V30 8 H 39.155539 31.058911 57.595765 0
M  V30 9 H 38.275646 32.331563 56.745142 0
M  V30 10 H 38.062599 31.753225 53.970222 0
M  V30 11 H 38.955542 30.311852 53.481060 0
M  V30 12 H 36.462533 30.104784 54.621163 0
M  V30 13 H 37.719721 28.927077 55.015988 0
M  V30 14 H 36.603712 30.959041 56.653687 0
M  V30 15 H 37.501786 29.620521 57.074975 0
M  V30 END ATOM
M  V30 BEGIN BOND
M  V30 1 1 2 1
M  V30 2 1 3 1
M  V30 3 1 4 3
M  V30 4 1 5 2
M  V30 5 1 5 4
M  V30 6 1 6 1
M  V30 7 1 7 1
M  V30 8 1 8 2
M  V30 9 1 9 2
M  V30 10 1 10 3
M  V30 11 1 11 3
M  V30 12 1 12 4
M  V30 13 1 13 4
M  V30 14 1 14 5
M  V30 15 1 15 5
M  V30 END BOND
M  V30 END CTAB
M  END
>  <i_epik_Tot_Q>  (1) 
1

>  <i_epik_Tot_abs_Q>  (1) 
1

>  <i_i_glide_confnum>  (1) 
3

>  <i_i_glide_lignum>  (1) 
93

>  <i_i_glide_posenum>  (1) 
2

>  <i_i_glide_rotatable_bonds>  (1) 
0

>  <i_lp_mmshare_version>  (1) 
72125

>  <i_m_source_file_index>  (1) 
89

>  <i_f3d_flags>  (1) 
0

>  <num_sample>  (1) 
100

>  <b_lp_Chiralities_Consistent>  (1) 
1

>  <r_epik_Charging_Adjusted_Penalty>  (1) 
0.00011848530527437102

>  <r_epik_Ionization_Penalty>  (1) 
0.00011848530527437102

>  <r_epik_Ionization_Penalty_Charging>  (1) 
0.00011848530527437102

>  <r_epik_Ionization_Penalty_Neutral>  (1) 
0

>  <r_epik_State_Penalty>  (1) 
-0

>  <r_glide_ring_energy>  (1) 
2.3171021879061433

>  <r_i_docking_score>  (1) 
-3.9243639928585203

>  <r_i_glide_ecoul>  (1) 
-4.8056634590598977

>  <r_i_glide_eff_state_penalty>  (1) 
-0

>  <r_i_glide_einternal>  (1) 
0

>  <r_i_glide_emodel>  (1) 
-19.730202847447408

>  <r_i_glide_emodel_strain>  (1) 
0

>  <r_i_glide_energy>  (1) 
-13.148468754567652

>  <r_i_glide_erotb>  (1) 
0

>  <r_i_glide_esite>  (1) 
-0.096698219672244554

>  <r_i_glide_evdw>  (1) 
-8.3428052955077554

>  <r_i_glide_gscore>  (1) 
-3.9243639928585203

>  <r_i_glide_gscore_strain>  (1) 
0

>  <r_i_glide_hbond>  (1) 
-0.20000000000000001

>  <r_i_glide_ligand_efficiency>  (1) 
-0.78487279857170411

>  <r_i_glide_ligand_efficiency_ln>  (1) 
-1.5039116179613747

>  <r_i_glide_ligand_efficiency_sa>  (1) 
-1.3421136067584383

>  <r_i_glide_lipo>  (1) 
-0.23967598955190342

>  <r_i_glide_metal>  (1) 
-0

>  <r_i_glide_rewards>  (1) 
-2.25

>  <r_lp_Energy>  (1) 
17.726251999999999

>  <r_lp_tautomer_probability>  (1) 
1

>  <s_epik_cmdline>  (1) 
J2VwaWtfcHl0aG9uJywgJy1waHQnLCAnMS4wJywgJy1waCcsICc3LjQnLCAnLXRuJywgJzgnLCAnLW1hJywgJzUwMCcsICctaW1hZScsICc8aW5maWxlLm1hZT4nLCAnLW9tYWUnLCAnPG91dGZpbGUubWFlPic=

>  <s_epik_input>  (1) 
W0NIMl0xW0NIMl1bTkhdW0NIMl1bQ0gyXTE=

>  <s_glide_docking_method>  (1) 
confgen

>  <s_i_glide_gridfile>  (1) 
gpcr_5ht2c_6bqh_protein_autoprepared_prepared

>  <s_lp_Force_Field>  (1) 
S-OPLS

>  <s_lp_Variant>  (1) 
Pocket2Mol_88_num_sample_100-1

>  <s_m_source_file>  (1) 
generated__ligand_Pocket2Mol_2026-05-06_prepared.sdf

>  <GenAI_Model>  (1) 
Pocket2Mol

>  <Protein>  (1) 
GPCR_5HT2C

$$$$
Pocket2Mol_28_num_sample_100
     RDKit          3D

  0  0  0  0  0  0  0  0  0  0999 V3000
M  V30 BEGIN CTAB
M  V30 COUNTS 13 13 0 0 1
M  V30 BEGIN ATOM
M  V30 1 C 34.691681 33.131061 59.852740 0
M  V30 2 O 35.468601 32.126012 60.493610 0
M  V30 3 C 36.685341 32.369082 61.052993 0
M  V30 4 O 37.243354 31.621430 61.853117 0
M  V30 5 C 37.348699 33.681792 60.574629 0
M  V30 6 C 35.563245 34.159351 59.136609 0
M  V30 7 O 36.422991 34.668656 60.134063 0
M  V30 8 H 34.075428 33.622182 60.605347 0
M  V30 9 H 34.012003 32.656084 59.144865 0
M  V30 10 H 38.039446 33.448327 59.763726 0
M  V30 11 H 37.942197 34.097708 61.388881 0
M  V30 12 H 34.951448 34.962900 58.726652 0
M  V30 13 H 36.128015 33.719601 58.312355 0
M  V30 END ATOM
M  V30 BEGIN BOND
M  V30 1 1 2 1
M  V30 2 1 3 2
M  V30 3 2 4 3
M  V30 4 1 5 3
M  V30 5 1 6 1
M  V30 6 1 7 5
M  V30 7 1 7 6
M  V30 8 1 8 1
M  V30 9 1 9 1
M  V30 10 1 10 5
M  V30 11 1 11 5
M  V30 12 1 12 6
M  V30 13 1 13 6
M  V30 END BOND
M  V30 END CTAB
M  END
>  <i_epik_Tot_Q>  (1) 
0

>  <i_epik_Tot_abs_Q>  (1) 
0

>  <i_i_glide_confnum>  (1) 
2

>  <i_i_glide_lignum>  (1) 
31

>  <i_i_glide_posenum>  (1) 
338

>  <i_i_glide_rotatable_bonds>  (1) 
0

>  <i_lp_mmshare_version>  (1) 
72125

>  <i_m_source_file_index>  (1) 
29

>  <i_f3d_flags>  (1) 
0

>  <num_sample>  (1) 
100

>  <b_lp_Chiralities_Consistent>  (1) 
1

>  <r_epik_Charging_Adjusted_Penalty>  (1) 
0

>  <r_epik_Ionization_Penalty>  (1) 
1.0677269036415479e-12

>  <r_epik_Ionization_Penalty_Charging>  (1) 
0

>  <r_epik_Ionization_Penalty_Neutral>  (1) 
1.0677269036415479e-12

>  <r_epik_State_Penalty>  (1) 
-0

>  <r_glide_ring_energy>  (1) 
4.2281688740393558e-05

>  <r_i_docking_score>  (1) 
-3.9001384908761909

>  <r_i_glide_ecoul>  (1) 
-3.1188708535017318

>  <r_i_glide_eff_state_penalty>  (1) 
-0

>  <r_i_glide_einternal>  (1) 
0

>  <r_i_glide_emodel>  (1) 
-20.36753628910926

>  <r_i_glide_emodel_strain>  (1) 
0

>  <r_i_glide_energy>  (1) 
-16.364532456785376

>  <r_i_glide_erotb>  (1) 
0

>  <r_i_glide_esite>  (1) 
-0.01836486852750183

>  <r_i_glide_evdw>  (1) 
-13.245661603283644

>  <r_i_glide_gscore>  (1) 
-3.9001384908761909

>  <r_i_glide_gscore_strain>  (1) 
0

>  <r_i_glide_hbond>  (1) 
-0.32000000000000001

>  <r_i_glide_ligand_efficiency>  (1) 
-0.55716264155374151

>  <r_i_glide_ligand_efficiency_ln>  (1) 
-1.3239163088958694

>  <r_i_glide_ligand_efficiency_sa>  (1) 
-1.0658137909039875

>  <r_i_glide_lipo>  (1) 
-0.070365620294525755

>  <r_i_glide_metal>  (1) 
-0

>  <r_i_glide_rewards>  (1) 
-2.3612942938647214

>  <r_lp_Energy>  (1) 
12.58291

>  <r_lp_tautomer_probability>  (1) 
1

>  <s_epik_Chemistry_Notes>  (1) 
This compound has an ester and may undergo hydrolysis at high or low pH.

>  <s_epik_cmdline>  (1) 
J2VwaWtfcHl0aG9uJywgJy1waHQnLCAnMS4wJywgJy1waCcsICc3LjQnLCAnLXRuJywgJzgnLCAnLW1hJywgJzUwMCcsICctaW1hZScsICc8aW5maWxlLm1hZT4nLCAnLW9tYWUnLCAnPG91dGZpbGUubWFlPic=

>  <s_epik_input>  (1) 
W0NIMl0xT1tDSDJdW0NIMl1PQzE9Tw==

>  <s_glide_docking_method>  (1) 
confgen

>  <s_i_glide_gridfile>  (1) 
gpcr_5ht2c_6bqh_protein_autoprepared_prepared

>  <s_lp_Force_Field>  (1) 
S-OPLS

>  <s_lp_Variant>  (1) 
Pocket2Mol_28_num_sample_100-1

>  <s_m_source_file>  (1) 
generated__ligand_Pocket2Mol_2026-05-06_prepared.sdf

>  <GenAI_Model>  (1) 
Pocket2Mol

>  <Protein>  (1) 
GPCR_5HT2C

$$$$
Pocket2Mol_12_num_sample_100
     RDKit          3D

  0  0  0  0  0  0  0  0  0  0999 V3000
M  V30 BEGIN CTAB
M  V30 COUNTS 14 14 0 0 1
M  V30 BEGIN ATOM
M  V30 1 C 35.756768 32.021205 60.196977 0
M  V30 2 O 36.294906 31.622014 61.453501 0
M  V30 3 C 37.717605 31.621449 61.423236 0
M  V30 4 C 36.263105 33.431363 59.842581 0
M  V30 5 O 37.686259 33.431579 59.825807 0
M  V30 6 C 38.218783 33.036304 61.082503 0
M  V30 7 H 36.037715 31.304387 59.423834 0
M  V30 8 H 34.668635 32.017239 60.253520 0
M  V30 9 H 38.094068 31.310364 62.397941 0
M  V30 10 H 38.078336 30.895075 60.693266 0
M  V30 11 H 35.894970 33.728675 58.860007 0
M  V30 12 H 35.894719 34.166603 60.559729 0
M  V30 13 H 37.926039 33.749806 61.853501 0
M  V30 14 H 39.307409 33.050407 61.027559 0
M  V30 END ATOM
M  V30 BEGIN BOND
M  V30 1 1 2 1
M  V30 2 1 3 2
M  V30 3 1 4 1
M  V30 4 1 5 4
M  V30 5 1 6 3
M  V30 6 1 6 5
M  V30 7 1 7 1
M  V30 8 1 8 1
M  V30 9 1 9 3
M  V30 10 1 10 3
M  V30 11 1 11 4
M  V30 12 1 12 4
M  V30 13 1 13 6
M  V30 14 1 14 6
M  V30 END BOND
M  V30 END CTAB
M  END
>  <i_epik_Tot_Q>  (1) 
0

>  <i_epik_Tot_abs_Q>  (1) 
0

>  <i_i_glide_confnum>  (1) 
2

>  <i_i_glide_lignum>  (1) 
15

>  <i_i_glide_posenum>  (1) 
247

>  <i_i_glide_rotatable_bonds>  (1) 
0

>  <i_lp_mmshare_version>  (1) 
72125

>  <i_m_source_file_index>  (1) 
13

>  <i_f3d_flags>  (1) 
0

>  <num_sample>  (1) 
100

>  <b_lp_Chiralities_Consistent>  (1) 
1

>  <r_epik_Charging_Adjusted_Penalty>  (1) 
0

>  <r_epik_Ionization_Penalty>  (1) 
8.3894707547109138e-13

>  <r_epik_Ionization_Penalty_Charging>  (1) 
0

>  <r_epik_Ionization_Penalty_Neutral>  (1) 
8.3894707547109138e-13

>  <r_epik_State_Penalty>  (1) 
-0

>  <r_glide_ring_energy>  (1) 
0.00013676017923054334

>  <r_i_docking_score>  (1) 
-3.8241202908436644

>  <r_i_glide_ecoul>  (1) 
-2.6332749456281044

>  <r_i_glide_eff_state_penalty>  (1) 
-0

>  <r_i_glide_einternal>  (1) 
0

>  <r_i_glide_emodel>  (1) 
-16.539913421204282

>  <r_i_glide_emodel_strain>  (1) 
0

>  <r_i_glide_energy>  (1) 
-13.338275824445297

>  <r_i_glide_erotb>  (1) 
0

>  <r_i_glide_esite>  (1) 
0

>  <r_i_glide_evdw>  (1) 
-10.705000878817193

>  <r_i_glide_gscore>  (1) 
-3.8241202908436644

>  <r_i_glide_gscore_strain>  (1) 
0

>  <r_i_glide_hbond>  (1) 
-0.32000000000000001

>  <r_i_glide_ligand_efficiency>  (1) 
-0.63735338180727741

>  <r_i_glide_ligand_efficiency_ln>  (1) 
-1.369788598550385

>  <r_i_glide_ligand_efficiency_sa>  (1) 
-1.1581479549932092

>  <r_i_glide_lipo>  (1) 
-0.21530790020400048

>  <r_i_glide_metal>  (1) 
-0

>  <r_i_glide_rewards>  (1) 
-2.3585711048545885

>  <r_lp_Energy>  (1) 
4.964817

>  <r_lp_tautomer_probability>  (1) 
1

>  <s_epik_cmdline>  (1) 
J2VwaWtfcHl0aG9uJywgJy1waHQnLCAnMS4wJywgJy1waCcsICc3LjQnLCAnLXRuJywgJzgnLCAnLW1hJywgJzUwMCcsICctaW1hZScsICc8aW5maWxlLm1hZT4nLCAnLW9tYWUnLCAnPG91dGZpbGUubWFlPic=

>  <s_epik_input>  (1) 
W0NIMl0xT1tDSDJdW0NIMl1PW0NIMl0x

>  <s_glide_docking_method>  (1) 
confgen

>  <s_i_glide_gridfile>  (1) 
gpcr_5ht2c_6bqh_protein_autoprepared_prepared

>  <s_lp_Force_Field>  (1) 
S-OPLS

>  <s_lp_Variant>  (1) 
Pocket2Mol_12_num_sample_100-1

>  <s_m_source_file>  (1) 
generated__ligand_Pocket2Mol_2026-05-06_prepared.sdf

>  <GenAI_Model>  (1) 
Pocket2Mol

>  <Protein>  (1) 
GPCR_5HT2C

$$$$
Pocket2Mol_99_num_sample_100
     RDKit          3D

  0  0  0  0  0  0  0  0  0  0999 V3000
M  V30 BEGIN CTAB
M  V30 COUNTS 13 13 0 0 1
M  V30 BEGIN ATOM
M  V30 1 C 37.630407 31.988494 61.287659 0
M  V30 2 O 36.267408 31.621430 61.453427 0
M  V30 3 C 35.467426 32.315808 60.496424 0
M  V30 4 C 37.569977 33.405315 60.732989 0
M  V30 5 C 36.389871 33.310271 59.790624 0
M  V30 6 H 38.180745 31.924031 62.226564 0
M  V30 7 H 38.097186 31.313751 60.568469 0
M  V30 8 H 35.013061 31.621430 59.788615 0
M  V30 9 H 34.667398 32.836137 61.022928 0
M  V30 10 H 37.356598 34.114897 61.533148 0
M  V30 11 H 38.491384 33.710741 60.236396 0
M  V30 12 H 36.708859 32.899534 58.830976 0
M  V30 13 H 35.912397 34.272097 59.600912 0
M  V30 END ATOM
M  V30 BEGIN BOND
M  V30 1 1 2 1
M  V30 2 1 3 2
M  V30 3 1 4 1
M  V30 4 1 5 3
M  V30 5 1 5 4
M  V30 6 1 6 1
M  V30 7 1 7 1
M  V30 8 1 8 3
M  V30 9 1 9 3
M  V30 10 1 10 4
M  V30 11 1 11 4
M  V30 12 1 12 5
M  V30 13 1 13 5
M  V30 END BOND
M  V30 END CTAB
M  END
>  <i_epik_Tot_Q>  (1) 
0

>  <i_epik_Tot_abs_Q>  (1) 
0

>  <i_i_glide_confnum>  (1) 
4

>  <i_i_glide_lignum>  (1) 
104

>  <i_i_glide_posenum>  (1) 
353

>  <i_i_glide_rotatable_bonds>  (1) 
0

>  <i_lp_mmshare_version>  (1) 
72125

>  <i_m_source_file_index>  (1) 
100

>  <i_f3d_flags>  (1) 
0

>  <num_sample>  (1) 
100

>  <b_lp_Chiralities_Consistent>  (1) 
1

>  <r_epik_Charging_Adjusted_Penalty>  (1) 
0

>  <r_epik_Ionization_Penalty>  (1) 
1.3889264151150229e-11

>  <r_epik_Ionization_Penalty_Charging>  (1) 
0

>  <r_epik_Ionization_Penalty_Neutral>  (1) 
1.3889264151150229e-11

>  <r_epik_State_Penalty>  (1) 
-0

>  <r_glide_ring_energy>  (1) 
0.22164722245690596

>  <r_i_docking_score>  (1) 
-3.7541810368782973

>  <r_i_glide_ecoul>  (1) 
-2.9844620392550185

>  <r_i_glide_eff_state_penalty>  (1) 
-0

>  <r_i_glide_einternal>  (1) 
0

>  <r_i_glide_emodel>  (1) 
-15.664256530649519

>  <r_i_glide_emodel_strain>  (1) 
0.010831348631139548

>  <r_i_glide_energy>  (1) 
-12.629424436491089

>  <r_i_glide_erotb>  (1) 
0

>  <r_i_glide_esite>  (1) 
0

>  <r_i_glide_evdw>  (1) 
-9.6449623972360712

>  <r_i_glide_gscore>  (1) 
-3.7541810368782973

>  <r_i_glide_gscore_strain>  (1) 
0

>  <r_i_glide_hbond>  (1) 
-0.32000000000000001

>  <r_i_glide_ligand_efficiency>  (1) 
-0.75083620737565948

>  <r_i_glide_ligand_efficiency_ln>  (1) 
-1.4386933749178086

>  <r_i_glide_ligand_efficiency_sa>  (1) 
-1.2839118545063342

>  <r_i_glide_lipo>  (1) 
-0.14919080418671601

>  <r_i_glide_metal>  (1) 
-0

>  <r_i_glide_rewards>  (1) 
-2.3550728069415245

>  <r_lp_Energy>  (1) 
3.9174029999999997

>  <r_lp_tautomer_probability>  (1) 
1

>  <s_epik_cmdline>  (1) 
J2VwaWtfcHl0aG9uJywgJy1waHQnLCAnMS4wJywgJy1waCcsICc3LjQnLCAnLXRuJywgJzgnLCAnLW1hJywgJzUwMCcsICctaW1hZScsICc8aW5maWxlLm1hZT4nLCAnLW9tYWUnLCAnPG91dGZpbGUubWFlPic=

>  <s_epik_input>  (1) 
W0NIMl0xT1tDSDJdW0NIMl1bQ0gyXTE=

>  <s_glide_docking_method>  (1) 
confgen

>  <s_i_glide_gridfile>  (1) 
gpcr_5ht2c_6bqh_protein_autoprepared_prepared

>  <s_lp_Force_Field>  (1) 
S-OPLS

>  <s_lp_Variant>  (1) 
Pocket2Mol_99_num_sample_100-1

>  <s_m_source_file>  (1) 
generated__ligand_Pocket2Mol_2026-05-06_prepared.sdf

>  <GenAI_Model>  (1) 
Pocket2Mol

>  <Protein>  (1) 
GPCR_5HT2C

$$$$
Pocket2Mol_18_num_sample_100
     RDKit          3D

  0  0  0  0  0  0  0  0  0  0999 V3000
M  V30 BEGIN CTAB
M  V30 COUNTS 18 18 0 0 1
M  V30 BEGIN ATOM
M  V30 1 C 38.267263 31.446507 54.653225 0
M  V30 2 C 39.008510 30.223559 54.086793 0
M  V30 3 C 38.766157 28.981667 54.959572 0
M  V30 4 C 38.667407 31.718032 56.111192 0
M  V30 5 C 39.164276 29.243155 56.421684 0
M  V30 6 C 38.437862 30.475434 56.987720 0
M  V30 7 H 38.468788 32.325126 54.040628 0
M  V30 8 H 37.189879 31.279914 54.602166 0
M  V30 9 H 38.681929 30.027976 53.064413 0
M  V30 10 H 40.077703 30.434393 54.035852 0
M  V30 11 H 37.712228 28.704105 54.912682 0
M  V30 12 H 39.327846 28.133486 54.567146 0
M  V30 13 H 39.716530 32.013257 56.155907 0
M  V30 14 H 38.089735 32.557046 56.501702 0
M  V30 15 H 40.242825 29.391790 56.483774 0
M  V30 16 H 38.938019 28.367987 57.031317 0
M  V30 17 H 38.773413 30.672375 58.006023 0
M  V30 18 H 37.367322 30.272979 57.051188 0
M  V30 END ATOM
M  V30 BEGIN BOND
M  V30 1 1 2 1
M  V30 2 1 3 2
M  V30 3 1 4 1
M  V30 4 1 5 3
M  V30 5 1 6 4
M  V30 6 1 6 5
M  V30 7 1 7 1
M  V30 8 1 8 1
M  V30 9 1 9 2
M  V30 10 1 10 2
M  V30 11 1 11 3
M  V30 12 1 12 3
M  V30 13 1 13 4
M  V30 14 1 14 4
M  V30 15 1 15 5
M  V30 16 1 16 5
M  V30 17 1 17 6
M  V30 18 1 18 6
M  V30 END BOND
M  V30 END CTAB
M  END
>  <i_epik_Tot_Q>  (1) 
0

>  <i_epik_Tot_abs_Q>  (1) 
0

>  <i_i_glide_confnum>  (1) 
1

>  <i_i_glide_lignum>  (1) 
21

>  <i_i_glide_posenum>  (1) 
180

>  <i_i_glide_rotatable_bonds>  (1) 
0

>  <i_lp_mmshare_version>  (1) 
72125

>  <i_m_source_file_index>  (1) 
19

>  <i_f3d_flags>  (1) 
0

>  <num_sample>  (1) 
100

>  <b_lp_Chiralities_Consistent>  (1) 
1

>  <r_epik_Charging_Adjusted_Penalty>  (1) 
0

>  <r_epik_Ionization_Penalty>  (1) 
0

>  <r_epik_Ionization_Penalty_Charging>  (1) 
0

>  <r_epik_Ionization_Penalty_Neutral>  (1) 
0

>  <r_epik_State_Penalty>  (1) 
-0

>  <r_glide_ring_energy>  (1) 
0

>  <r_i_docking_score>  (1) 
-3.7287197026587968

>  <r_i_glide_ecoul>  (1) 
0.044541369626714539

>  <r_i_glide_eff_state_penalty>  (1) 
-0

>  <r_i_glide_einternal>  (1) 
0

>  <r_i_glide_emodel>  (1) 
-15.430396064740508

>  <r_i_glide_emodel_strain>  (1) 
0

>  <r_i_glide_energy>  (1) 
-12.501134386629989

>  <r_i_glide_erotb>  (1) 
0

>  <r_i_glide_esite>  (1) 
0

>  <r_i_glide_evdw>  (1) 
-12.545675756256703

>  <r_i_glide_gscore>  (1) 
-3.7287197026587968

>  <r_i_glide_gscore_strain>  (1) 
0

>  <r_i_glide_hbond>  (1) 
0

>  <r_i_glide_ligand_efficiency>  (1) 
-0.62145328377646614

>  <r_i_glide_ligand_efficiency_ln>  (1) 
-1.335616389505726

>  <r_i_glide_ligand_efficiency_sa>  (1) 
-1.1292555594333722

>  <r_i_glide_lipo>  (1) 
-0.49261648407715647

>  <r_i_glide_metal>  (1) 
-0

>  <r_i_glide_rewards>  (1) 
-2.6155006362128121

>  <r_lp_Energy>  (1) 
5.7175969999999996

>  <r_lp_tautomer_probability>  (1) 
1

>  <s_epik_cmdline>  (1) 
J2VwaWtfcHl0aG9uJywgJy1waHQnLCAnMS4wJywgJy1waCcsICc3LjQnLCAnLXRuJywgJzgnLCAnLW1hJywgJzUwMCcsICctaW1hZScsICc8aW5maWxlLm1hZT4nLCAnLW9tYWUnLCAnPG91dGZpbGUubWFlPic=

>  <s_epik_input>  (1) 
W0NIMl0xW0NIMl1bQ0gyXVtDSDJdW0NIMl1bQ0gyXTE=

>  <s_glide_docking_method>  (1) 
confgen

>  <s_i_glide_gridfile>  (1) 
gpcr_5ht2c_6bqh_protein_autoprepared_prepared

>  <s_lp_Force_Field>  (1) 
S-OPLS

>  <s_lp_Variant>  (1) 
Pocket2Mol_18_num_sample_100-1

>  <s_m_source_file>  (1) 
generated__ligand_Pocket2Mol_2026-05-06_prepared.sdf

>  <GenAI_Model>  (1) 
Pocket2Mol

>  <Protein>  (1) 
GPCR_5HT2C

$$$$
Pocket2Mol_44_num_sample_100
     RDKit          3D

  0  0  0  0  0  0  0  0  0  0999 V3000
M  V30 BEGIN CTAB
M  V30 COUNTS 10 9 0 0 1
M  V30 BEGIN ATOM
M  V30 1 C 36.154792 32.484793 60.033592 0
M  V30 2 O 34.909297 32.929813 60.454159 0
M  V30 3 C 34.038114 33.223247 59.372152 0
M  V30 4 O 36.103509 31.203011 59.453231 0
M  V30 5 H 36.828611 32.428752 60.890479 0
M  V30 6 H 36.574898 33.173590 59.297942 0
M  V30 7 H 33.075232 33.558547 59.752331 0
M  V30 8 H 34.446900 34.016509 58.743163 0
M  V30 9 H 33.866912 32.343936 58.750409 0
M  V30 10 H 35.867377 31.317277 58.521351 0
M  V30 END ATOM
M  V30 BEGIN BOND
M  V30 1 1 2 1
M  V30 2 1 3 2
M  V30 3 1 4 1
M  V30 4 1 5 1
M  V30 5 1 6 1
M  V30 6 1 7 3
M  V30 7 1 8 3
M  V30 8 1 9 3
M  V30 9 1 10 4
M  V30 END BOND
M  V30 END CTAB
M  END
>  <i_epik_Tot_Q>  (1) 
0

>  <i_epik_Tot_abs_Q>  (1) 
0

>  <i_i_glide_confnum>  (1) 
1

>  <i_i_glide_lignum>  (1) 
47

>  <i_i_glide_posenum>  (1) 
321

>  <i_i_glide_rotatable_bonds>  (1) 
2

>  <i_lp_mmshare_version>  (1) 
72125

>  <i_m_source_file_index>  (1) 
45

>  <i_f3d_flags>  (1) 
0

>  <num_sample>  (1) 
100

>  <b_lp_Chiralities_Consistent>  (1) 
1

>  <r_epik_Charging_Adjusted_Penalty>  (1) 
0

>  <r_epik_Ionization_Penalty>  (1) 
1.028953084229311e-06

>  <r_epik_Ionization_Penalty_Charging>  (1) 
0

>  <r_epik_Ionization_Penalty_Neutral>  (1) 
1.028953084229311e-06

>  <r_epik_State_Penalty>  (1) 
-0

>  <r_glide_ring_energy>  (1) 
0

>  <r_i_docking_score>  (1) 
-3.7285580919433636

>  <r_i_glide_ecoul>  (1) 
-5.8062645132466271

>  <r_i_glide_eff_state_penalty>  (1) 
-0

>  <r_i_glide_einternal>  (1) 
0.32034303886631621

>  <r_i_glide_emodel>  (1) 
-16.971690728558368

>  <r_i_glide_emodel_strain>  (1) 
0.012166874289161189

>  <r_i_glide_energy>  (1) 
-13.258865540025145

>  <r_i_glide_erotb>  (1) 
0

>  <r_i_glide_esite>  (1) 
-0.061081633818881743

>  <r_i_glide_evdw>  (1) 
-7.4526010267785177

>  <r_i_glide_gscore>  (1) 
-3.7285580919433636

>  <r_i_glide_gscore_strain>  (1) 
0

>  <r_i_glide_hbond>  (1) 
-0.16

>  <r_i_glide_ligand_efficiency>  (1) 
-0.93213952298584091

>  <r_i_glide_ligand_efficiency_ln>  (1) 
-1.5624887493735462

>  <r_i_glide_ligand_efficiency_sa>  (1) 
-1.4796792593688595

>  <r_i_glide_lipo>  (1) 
-0.013906729798562291

>  <r_i_glide_metal>  (1) 
-0

>  <r_i_glide_rewards>  (1) 
-2.25

>  <r_lp_Energy>  (1) 
5.5414079999999997

>  <r_lp_tautomer_probability>  (1) 
1

>  <s_epik_Chemistry_Notes>  (1) 
This compound contains an acetal/aminal-like group ( X-CH(R)-Y where X, Y are N, S, or O) that may be acid/base labile, releasing an aldehyde.

>  <s_epik_cmdline>  (1) 
J2VwaWtfcHl0aG9uJywgJy1waHQnLCAnMS4wJywgJy1waCcsICc3LjQnLCAnLXRuJywgJzgnLCAnLW1hJywgJzUwMCcsICctaW1hZScsICc8aW5maWxlLm1hZT4nLCAnLW9tYWUnLCAnPG91dGZpbGUubWFlPic=

>  <s_epik_input>  (1) 
W09IXVtDSDJdT1tDSDNd

>  <s_glide_docking_method>  (1) 
confgen

>  <s_i_glide_gridfile>  (1) 
gpcr_5ht2c_6bqh_protein_autoprepared_prepared

>  <s_lp_Force_Field>  (1) 
S-OPLS

>  <s_lp_Variant>  (1) 
Pocket2Mol_44_num_sample_100-1

>  <s_m_source_file>  (1) 
generated__ligand_Pocket2Mol_2026-05-06_prepared.sdf

>  <GenAI_Model>  (1) 
Pocket2Mol

>  <Protein>  (1) 
GPCR_5HT2C

$$$$
Pocket2Mol_12_num_sample_100
     RDKit          3D

  0  0  0  0  0  0  0  0  0  0999 V3000
M  V30 BEGIN CTAB
M  V30 COUNTS 14 14 0 0 1
M  V30 BEGIN ATOM
M  V30 1 C 35.315064 33.328901 59.956786 0
M  V30 2 O 36.390457 34.252324 59.838729 0
M  V30 3 C 37.163777 34.297690 61.029536 0
M  V30 4 C 35.880571 31.930228 60.253503 0
M  V30 5 O 36.643594 31.972821 61.453500 0
M  V30 6 C 37.721061 32.893512 61.332347 0
M  V30 7 H 34.633436 33.640705 60.748901 0
M  V30 8 H 34.744415 33.320609 59.028624 0
M  V30 9 H 37.979070 35.009140 60.897205 0
M  V30 10 H 36.549532 34.661514 61.853501 0
M  V30 11 H 35.067403 31.221431 60.381604 0
M  V30 12 H 36.491612 31.573203 59.422815 0
M  V30 13 H 38.404858 32.570913 60.545675 0
M  V30 14 H 38.286221 32.902399 62.264028 0
M  V30 END ATOM
M  V30 BEGIN BOND
M  V30 1 1 2 1
M  V30 2 1 3 2
M  V30 3 1 4 1
M  V30 4 1 5 4
M  V30 5 1 6 3
M  V30 6 1 6 5
M  V30 7 1 7 1
M  V30 8 1 8 1
M  V30 9 1 9 3
M  V30 10 1 10 3
M  V30 11 1 11 4
M  V30 12 1 12 4
M  V30 13 1 13 6
M  V30 14 1 14 6
M  V30 END BOND
M  V30 END CTAB
M  END
>  <i_epik_Tot_Q>  (1) 
0

>  <i_epik_Tot_abs_Q>  (1) 
0

>  <i_i_glide_confnum>  (1) 
2

>  <i_i_glide_lignum>  (1) 
15

>  <i_i_glide_posenum>  (1) 
357

>  <i_i_glide_rotatable_bonds>  (1) 
0

>  <i_lp_mmshare_version>  (1) 
72125

>  <i_m_source_file_index>  (1) 
13

>  <i_f3d_flags>  (1) 
0

>  <num_sample>  (1) 
100

>  <b_lp_Chiralities_Consistent>  (1) 
1

>  <r_epik_Charging_Adjusted_Penalty>  (1) 
0

>  <r_epik_Ionization_Penalty>  (1) 
8.3894707547109138e-13

>  <r_epik_Ionization_Penalty_Charging>  (1) 
0

>  <r_epik_Ionization_Penalty_Neutral>  (1) 
8.3894707547109138e-13

>  <r_epik_State_Penalty>  (1) 
-0

>  <r_glide_ring_energy>  (1) 
0.00013676017923054334

>  <r_i_docking_score>  (1) 
-3.7239084827912619

>  <r_i_glide_ecoul>  (1) 
-1.7689807121409133

>  <r_i_glide_eff_state_penalty>  (1) 
-0

>  <r_i_glide_einternal>  (1) 
0

>  <r_i_glide_emodel>  (1) 
-16.437194725724023

>  <r_i_glide_emodel_strain>  (1) 
0

>  <r_i_glide_energy>  (1) 
-13.319456658241869

>  <r_i_glide_erotb>  (1) 
0

>  <r_i_glide_esite>  (1) 
0

>  <r_i_glide_evdw>  (1) 
-11.550475946100956

>  <r_i_glide_gscore>  (1) 
-3.7239084827912619

>  <r_i_glide_gscore_strain>  (1) 
0

>  <r_i_glide_hbond>  (1) 
-0.27579748450665714

>  <r_i_glide_ligand_efficiency>  (1) 
-0.62065141379854361

>  <r_i_glide_ligand_efficiency_ln>  (1) 
-1.3338930247529361

>  <r_i_glide_ligand_efficiency_sa>  (1) 
-1.1277984649837154

>  <r_i_glide_lipo>  (1) 
-0.2429330189886556

>  <r_i_glide_metal>  (1) 
-0

>  <r_i_glide_rewards>  (1) 
-2.3623070751697641

>  <r_lp_Energy>  (1) 
4.964817

>  <r_lp_tautomer_probability>  (1) 
1

>  <s_epik_cmdline>  (1) 
J2VwaWtfcHl0aG9uJywgJy1waHQnLCAnMS4wJywgJy1waCcsICc3LjQnLCAnLXRuJywgJzgnLCAnLW1hJywgJzUwMCcsICctaW1hZScsICc8aW5maWxlLm1hZT4nLCAnLW9tYWUnLCAnPG91dGZpbGUubWFlPic=

>  <s_epik_input>  (1) 
W0NIMl0xT1tDSDJdW0NIMl1PW0NIMl0x

>  <s_glide_docking_method>  (1) 
confgen

>  <s_i_glide_gridfile>  (1) 
gpcr_5ht2c_6bqh_protein_autoprepared_prepared

>  <s_lp_Force_Field>  (1) 
S-OPLS

>  <s_lp_Variant>  (1) 
Pocket2Mol_12_num_sample_100-1

>  <s_m_source_file>  (1) 
generated__ligand_Pocket2Mol_2026-05-06_prepared.sdf

>  <GenAI_Model>  (1) 
Pocket2Mol

>  <Protein>  (1) 
GPCR_5HT2C

$$$$
Pocket2Mol_99_num_sample_100
     RDKit          3D

  0  0  0  0  0  0  0  0  0  0999 V3000
M  V30 BEGIN CTAB
M  V30 COUNTS 13 13 0 0 1
M  V30 BEGIN ATOM
M  V30 1 C 37.535534 31.471795 60.816765 0
M  V30 2 O 36.267570 31.621406 61.453501 0
M  V30 3 C 35.467442 32.550041 60.725431 0
M  V30 4 C 37.457301 32.264398 59.513585 0
M  V30 5 C 36.441778 33.331608 59.853319 0
M  V30 6 H 38.300712 31.889214 61.472314 0
M  V30 7 H 37.772948 30.421411 60.647123 0
M  V30 8 H 34.765772 31.995416 60.100570 0
M  V30 9 H 34.891385 33.192752 61.391972 0
M  V30 10 H 38.419272 32.668927 59.197958 0
M  V30 11 H 37.072333 31.633233 58.710264 0
M  V30 12 H 35.968864 33.767115 58.971736 0
M  V30 13 H 36.908719 34.132069 60.428359 0
M  V30 END ATOM
M  V30 BEGIN BOND
M  V30 1 1 2 1
M  V30 2 1 3 2
M  V30 3 1 4 1
M  V30 4 1 5 3
M  V30 5 1 5 4
M  V30 6 1 6 1
M  V30 7 1 7 1
M  V30 8 1 8 3
M  V30 9 1 9 3
M  V30 10 1 10 4
M  V30 11 1 11 4
M  V30 12 1 12 5
M  V30 13 1 13 5
M  V30 END BOND
M  V30 END CTAB
M  END
>  <i_epik_Tot_Q>  (1) 
0

>  <i_epik_Tot_abs_Q>  (1) 
0

>  <i_i_glide_confnum>  (1) 
3

>  <i_i_glide_lignum>  (1) 
104

>  <i_i_glide_posenum>  (1) 
67

>  <i_i_glide_rotatable_bonds>  (1) 
0

>  <i_lp_mmshare_version>  (1) 
72125

>  <i_m_source_file_index>  (1) 
100

>  <i_f3d_flags>  (1) 
0

>  <num_sample>  (1) 
100

>  <b_lp_Chiralities_Consistent>  (1) 
1

>  <r_epik_Charging_Adjusted_Penalty>  (1) 
0

>  <r_epik_Ionization_Penalty>  (1) 
1.3889264151150229e-11

>  <r_epik_Ionization_Penalty_Charging>  (1) 
0

>  <r_epik_Ionization_Penalty_Neutral>  (1) 
1.3889264151150229e-11

>  <r_epik_State_Penalty>  (1) 
-0

>  <r_glide_ring_energy>  (1) 
0.22161987042107956

>  <r_i_docking_score>  (1) 
-3.7203969976356643

>  <r_i_glide_ecoul>  (1) 
-3.0195142772917309

>  <r_i_glide_eff_state_penalty>  (1) 
-0

>  <r_i_glide_einternal>  (1) 
0

>  <r_i_glide_emodel>  (1) 
-15.686148360819107

>  <r_i_glide_emodel_strain>  (1) 
0

>  <r_i_glide_energy>  (1) 
-12.66789297647432

>  <r_i_glide_erotb>  (1) 
0

>  <r_i_glide_esite>  (1) 
0

>  <r_i_glide_evdw>  (1) 
-9.6483786991825884

>  <r_i_glide_gscore>  (1) 
-3.7203969976356643

>  <r_i_glide_gscore_strain>  (1) 
0

>  <r_i_glide_hbond>  (1) 
-0.32000000000000001

>  <r_i_glide_ligand_efficiency>  (1) 
-0.74407939952713287

>  <r_i_glide_ligand_efficiency_ln>  (1) 
-1.4257465103529725

>  <r_i_glide_ligand_efficiency_sa>  (1) 
-1.2723578756090372

>  <r_i_glide_lipo>  (1) 
-0.02463825529593007

>  <r_i_glide_metal>  (1) 
-0

>  <r_i_glide_rewards>  (1) 
-2.440412665786845

>  <r_lp_Energy>  (1) 
3.9174029999999997

>  <r_lp_tautomer_probability>  (1) 
1

>  <s_epik_cmdline>  (1) 
J2VwaWtfcHl0aG9uJywgJy1waHQnLCAnMS4wJywgJy1waCcsICc3LjQnLCAnLXRuJywgJzgnLCAnLW1hJywgJzUwMCcsICctaW1hZScsICc8aW5maWxlLm1hZT4nLCAnLW9tYWUnLCAnPG91dGZpbGUubWFlPic=

>  <s_epik_input>  (1) 
W0NIMl0xT1tDSDJdW0NIMl1bQ0gyXTE=

>  <s_glide_docking_method>  (1) 
confgen

>  <s_i_glide_gridfile>  (1) 
gpcr_5ht2c_6bqh_protein_autoprepared_prepared

>  <s_lp_Force_Field>  (1) 
S-OPLS

>  <s_lp_Variant>  (1) 
Pocket2Mol_99_num_sample_100-1

>  <s_m_source_file>  (1) 
generated__ligand_Pocket2Mol_2026-05-06_prepared.sdf

>  <GenAI_Model>  (1) 
Pocket2Mol

>  <Protein>  (1) 
GPCR_5HT2C

$$$$
Pocket2Mol_22_num_sample_100
     RDKit          3D

  0  0  0  0  0  0  0  0  0  0999 V3000
M  V30 BEGIN CTAB
M  V30 COUNTS 10 9 0 0 1
M  V30 BEGIN ATOM
M  V30 1 C 41.467582 27.179278 64.741949 0
M  V30 2 C 41.097012 26.084075 65.733663 0
M  V30 3 C 41.797665 26.101003 67.087742 0
M  V30 4 O 40.267453 25.221586 65.453486 0
M  V30 5 H 42.162575 27.890740 65.186667 0
M  V30 6 H 40.572474 27.720228 64.434618 0
M  V30 7 H 41.933231 26.747915 63.855720 0
M  V30 8 H 42.471931 26.952926 67.174568 0
M  V30 9 H 41.067550 26.156457 67.895843 0
M  V30 10 H 42.381724 25.190510 67.214363 0
M  V30 END ATOM
M  V30 BEGIN BOND
M  V30 1 1 2 1
M  V30 2 1 3 2
M  V30 3 2 4 2
M  V30 4 1 5 1
M  V30 5 1 6 1
M  V30 6 1 7 1
M  V30 7 1 8 3
M  V30 8 1 9 3
M  V30 9 1 10 3
M  V30 END BOND
M  V30 END CTAB
M  END
>  <i_epik_Tot_Q>  (1) 
0

>  <i_epik_Tot_abs_Q>  (1) 
0

>  <i_i_glide_confnum>  (1) 
1

>  <i_i_glide_lignum>  (1) 
25

>  <i_i_glide_posenum>  (1) 
300

>  <i_i_glide_rotatable_bonds>  (1) 
0

>  <i_lp_mmshare_version>  (1) 
72125

>  <i_m_source_file_index>  (1) 
23

>  <i_f3d_flags>  (1) 
0

>  <num_sample>  (1) 
100

>  <b_lp_Chiralities_Consistent>  (1) 
1

>  <r_epik_Charging_Adjusted_Penalty>  (1) 
0

>  <r_epik_Ionization_Penalty>  (1) 
8.9301752364709234e-13

>  <r_epik_Ionization_Penalty_Charging>  (1) 
0

>  <r_epik_Ionization_Penalty_Neutral>  (1) 
8.9301752364709234e-13

>  <r_epik_State_Penalty>  (1) 
-0

>  <r_glide_ring_energy>  (1) 
0

>  <r_i_docking_score>  (1) 
-3.6312240904254143

>  <r_i_glide_ecoul>  (1) 
-1.7510903279477452

>  <r_i_glide_eff_state_penalty>  (1) 
-0

>  <r_i_glide_einternal>  (1) 
0

>  <r_i_glide_emodel>  (1) 
-13.439930722508441

>  <r_i_glide_emodel_strain>  (1) 
0.11312327885759466

>  <r_i_glide_energy>  (1) 
-10.625553040675328

>  <r_i_glide_erotb>  (1) 
0

>  <r_i_glide_esite>  (1) 
0

>  <r_i_glide_evdw>  (1) 
-8.874462712727583

>  <r_i_glide_gscore>  (1) 
-3.6312240904254143

>  <r_i_glide_gscore_strain>  (1) 
0

>  <r_i_glide_hbond>  (1) 
0

>  <r_i_glide_ligand_efficiency>  (1) 
-0.90780602260635357

>  <r_i_glide_ligand_efficiency_ln>  (1) 
-1.5216999837024618

>  <r_i_glide_ligand_efficiency_sa>  (1) 
-1.4410522352683928

>  <r_i_glide_lipo>  (1) 
-0.23940352422802991

>  <r_i_glide_metal>  (1) 
-0

>  <r_i_glide_rewards>  (1) 
-2.6854338813688434

>  <r_lp_Energy>  (1) 
-0.55031200000000002

>  <r_lp_tautomer_probability>  (1) 
1

>  <s_epik_cmdline>  (1) 
J2VwaWtfcHl0aG9uJywgJy1waHQnLCAnMS4wJywgJy1waCcsICc3LjQnLCAnLXRuJywgJzgnLCAnLW1hJywgJzUwMCcsICctaW1hZScsICc8aW5maWxlLm1hZT4nLCAnLW9tYWUnLCAnPG91dGZpbGUubWFlPic=

>  <s_epik_input>  (1) 
W0NIM11DKD1PKVtDSDNd

>  <s_glide_docking_method>  (1) 
confgen

>  <s_i_glide_gridfile>  (1) 
gpcr_5ht2c_6bqh_protein_autoprepared_prepared

>  <s_lp_Force_Field>  (1) 
S-OPLS

>  <s_lp_Variant>  (1) 
Pocket2Mol_22_num_sample_100-1

>  <s_m_source_file>  (1) 
generated__ligand_Pocket2Mol_2026-05-06_prepared.sdf

>  <GenAI_Model>  (1) 
Pocket2Mol

>  <Protein>  (1) 
GPCR_5HT2C

$$$$
Pocket2Mol_8_num_sample_100
     RDKit          3D

  0  0  0  0  0  0  0  0  0  0999 V3000
M  V30 BEGIN CTAB
M  V30 COUNTS 12 12 0 0 1
M  V30 BEGIN ATOM
M  V30 1 C 33.823020 16.820713 48.255637 0
M  V30 2 C 32.414167 16.820970 48.252691 0
M  V30 3 C 34.525109 17.220796 49.409708 0
M  V30 4 C 33.818345 17.621138 50.560832 0
M  V30 5 C 32.409492 17.621396 50.557884 0
M  V30 6 C 31.707403 17.221312 49.403815 0
M  V30 7 H 34.364884 16.513777 47.373090 0
M  V30 8 H 31.875887 16.514232 47.367884 0
M  V30 9 H 35.605252 17.220598 49.411967 0
M  V30 10 H 34.356626 17.927876 51.445638 0
M  V30 11 H 31.867629 17.928333 51.440431 0
M  V30 12 H 30.627260 17.221510 49.401557 0
M  V30 END ATOM
M  V30 BEGIN BOND
M  V30 1 1 2 1
M  V30 2 2 3 1
M  V30 3 1 4 3
M  V30 4 2 5 4
M  V30 5 2 6 2
M  V30 6 1 6 5
M  V30 7 1 7 1
M  V30 8 1 8 2
M  V30 9 1 9 3
M  V30 10 1 10 4
M  V30 11 1 11 5
M  V30 12 1 12 6
M  V30 END BOND
M  V30 END CTAB
M  END
>  <i_epik_Tot_Q>  (1) 
0

>  <i_epik_Tot_abs_Q>  (1) 
0

>  <i_i_glide_confnum>  (1) 
1

>  <i_i_glide_lignum>  (1) 
11

>  <i_i_glide_posenum>  (1) 
237

>  <i_i_glide_rotatable_bonds>  (1) 
0

>  <i_lp_mmshare_version>  (1) 
72125

>  <i_m_source_file_index>  (1) 
9

>  <i_f3d_flags>  (1) 
0

>  <num_sample>  (1) 
100

>  <b_lp_Chiralities_Consistent>  (1) 
1

>  <r_epik_Charging_Adjusted_Penalty>  (1) 
0

>  <r_epik_Ionization_Penalty>  (1) 
0

>  <r_epik_Ionization_Penalty_Charging>  (1) 
0

>  <r_epik_Ionization_Penalty_Neutral>  (1) 
0

>  <r_epik_State_Penalty>  (1) 
-0

>  <r_glide_ring_energy>  (1) 
0

>  <r_i_docking_score>  (1) 
-3.6234846421331341

>  <r_i_glide_ecoul>  (1) 
0.079215918532862362

>  <r_i_glide_eff_state_penalty>  (1) 
-0

>  <r_i_glide_einternal>  (1) 
0

>  <r_i_glide_emodel>  (1) 
-11.018904215641944

>  <r_i_glide_emodel_strain>  (1) 
0

>  <r_i_glide_energy>  (1) 
-7.606410686122393

>  <r_i_glide_erotb>  (1) 
0

>  <r_i_glide_esite>  (1) 
0

>  <r_i_glide_evdw>  (1) 
-7.6856266046552557

>  <r_i_glide_gscore>  (1) 
-3.6234846421331341

>  <r_i_glide_gscore_strain>  (1) 
0

>  <r_i_glide_hbond>  (1) 
0

>  <r_i_glide_ligand_efficiency>  (1) 
-0.60391410702218906

>  <r_i_glide_ligand_efficiency_ln>  (1) 
-1.2979215015020826

>  <r_i_glide_ligand_efficiency_sa>  (1) 
-1.0973847601718525

>  <r_i_glide_lipo>  (1) 
-1.0010856996803008

>  <r_i_glide_metal>  (1) 
-0

>  <r_i_glide_rewards>  (1) 
-2.25

>  <r_lp_Energy>  (1) 
6.1542199999999996

>  <r_lp_tautomer_probability>  (1) 
1

>  <s_epik_cmdline>  (1) 
J2VwaWtfcHl0aG9uJywgJy1waHQnLCAnMS4wJywgJy1waCcsICc3LjQnLCAnLXRuJywgJzgnLCAnLW1hJywgJzUwMCcsICctaW1hZScsICc8aW5maWxlLm1hZT4nLCAnLW9tYWUnLCAnPG91dGZpbGUubWFlPic=

>  <s_epik_input>  (1) 
W2NIXTFbY0hdW2NIXVtjSF1bY0hdW2NIXTE=

>  <s_glide_docking_method>  (1) 
confgen

>  <s_i_glide_gridfile>  (1) 
gpcr_5ht2c_6bqh_protein_autoprepared_prepared

>  <s_lp_Force_Field>  (1) 
S-OPLS

>  <s_lp_Variant>  (1) 
Pocket2Mol_8_num_sample_100-1

>  <s_m_source_file>  (1) 
generated__ligand_Pocket2Mol_2026-05-06_prepared.sdf

>  <GenAI_Model>  (1) 
Pocket2Mol

>  <Protein>  (1) 
GPCR_5HT2C

$$$$
Pocket2Mol_22_num_sample_100
     RDKit          3D

  0  0  0  0  0  0  0  0  0  0999 V3000
M  V30 BEGIN CTAB
M  V30 COUNTS 10 9 0 0 1
M  V30 BEGIN ATOM
M  V30 1 C 34.692760 33.071924 59.853501 0
M  V30 2 C 35.903137 32.281778 60.333661 0
M  V30 3 C 37.160778 32.343923 59.476940 0
M  V30 4 O 35.867403 31.621438 61.371681 0
M  V30 5 H 35.002748 33.912409 59.232263 0
M  V30 6 H 34.128409 33.459425 60.700711 0
M  V30 7 H 34.039627 32.431165 59.260857 0
M  V30 8 H 36.949212 32.810694 58.514302 0
M  V30 9 H 37.934235 32.922148 59.981657 0
M  V30 10 H 37.539601 31.338893 59.292767 0
M  V30 END ATOM
M  V30 BEGIN BOND
M  V30 1 1 2 1
M  V30 2 1 3 2
M  V30 3 2 4 2
M  V30 4 1 5 1
M  V30 5 1 6 1
M  V30 6 1 7 1
M  V30 7 1 8 3
M  V30 8 1 9 3
M  V30 9 1 10 3
M  V30 END BOND
M  V30 END CTAB
M  END
>  <i_epik_Tot_Q>  (1) 
0

>  <i_epik_Tot_abs_Q>  (1) 
0

>  <i_i_glide_confnum>  (1) 
1

>  <i_i_glide_lignum>  (1) 
25

>  <i_i_glide_posenum>  (1) 
391

>  <i_i_glide_rotatable_bonds>  (1) 
0

>  <i_lp_mmshare_version>  (1) 
72125

>  <i_m_source_file_index>  (1) 
23

>  <i_f3d_flags>  (1) 
0

>  <num_sample>  (1) 
100

>  <b_lp_Chiralities_Consistent>  (1) 
1

>  <r_epik_Charging_Adjusted_Penalty>  (1) 
0

>  <r_epik_Ionization_Penalty>  (1) 
8.9301752364709234e-13

>  <r_epik_Ionization_Penalty_Charging>  (1) 
0

>  <r_epik_Ionization_Penalty_Neutral>  (1) 
8.9301752364709234e-13

>  <r_epik_State_Penalty>  (1) 
-0

>  <r_glide_ring_energy>  (1) 
0

>  <r_i_docking_score>  (1) 
-3.6144372267126981

>  <r_i_glide_ecoul>  (1) 
-3.7244429513995208

>  <r_i_glide_eff_state_penalty>  (1) 
-0

>  <r_i_glide_einternal>  (1) 
0

>  <r_i_glide_emodel>  (1) 
-15.161113001523869

>  <r_i_glide_emodel_strain>  (1) 
0.024109128524966383

>  <r_i_glide_energy>  (1) 
-12.271254776324312

>  <r_i_glide_erotb>  (1) 
0

>  <r_i_glide_esite>  (1) 
-0.058430192756530365

>  <r_i_glide_evdw>  (1) 
-8.5468118249247915

>  <r_i_glide_gscore>  (1) 
-3.6144372267126981

>  <r_i_glide_gscore_strain>  (1) 
0

>  <r_i_glide_hbond>  (1) 
-0.32000000000000001

>  <r_i_glide_ligand_efficiency>  (1) 
-0.90360930667817452

>  <r_i_glide_ligand_efficiency_ln>  (1) 
-1.5146652842176764

>  <r_i_glide_ligand_efficiency_sa>  (1) 
-1.4343903639891895

>  <r_i_glide_lipo>  (1) 
0

>  <r_i_glide_metal>  (1) 
-0

>  <r_i_glide_rewards>  (1) 
-2.25

>  <r_lp_Energy>  (1) 
-0.55031200000000002

>  <r_lp_tautomer_probability>  (1) 
1

>  <s_epik_cmdline>  (1) 
J2VwaWtfcHl0aG9uJywgJy1waHQnLCAnMS4wJywgJy1waCcsICc3LjQnLCAnLXRuJywgJzgnLCAnLW1hJywgJzUwMCcsICctaW1hZScsICc8aW5maWxlLm1hZT4nLCAnLW9tYWUnLCAnPG91dGZpbGUubWFlPic=

>  <s_epik_input>  (1) 
W0NIM11DKD1PKVtDSDNd

>  <s_glide_docking_method>  (1) 
confgen

>  <s_i_glide_gridfile>  (1) 
gpcr_5ht2c_6bqh_protein_autoprepared_prepared

>  <s_lp_Force_Field>  (1) 
S-OPLS

>  <s_lp_Variant>  (1) 
Pocket2Mol_22_num_sample_100-1

>  <s_m_source_file>  (1) 
generated__ligand_Pocket2Mol_2026-05-06_prepared.sdf

>  <GenAI_Model>  (1) 
Pocket2Mol

>  <Protein>  (1) 
GPCR_5HT2C

$$$$
Pocket2Mol_22_num_sample_100
     RDKit          3D

  0  0  0  0  0  0  0  0  0  0999 V3000
M  V30 BEGIN CTAB
M  V30 COUNTS 10 9 0 0 1
M  V30 BEGIN ATOM
M  V30 1 C 34.672564 33.007961 59.848995 0
M  V30 2 C 35.913369 32.606533 60.635696 0
M  V30 3 C 37.191505 33.392986 60.372247 0
M  V30 4 O 35.884665 31.686981 61.452795 0
M  V30 5 H 34.945107 33.576680 58.959369 0
M  V30 6 H 34.014402 33.621429 60.464115 0
M  V30 7 H 34.128916 32.119773 59.526433 0
M  V30 8 H 37.076475 34.050086 59.509965 0
M  V30 9 H 37.442003 34.001964 61.240785 0
M  V30 10 H 38.019687 32.711570 60.175823 0
M  V30 END ATOM
M  V30 BEGIN BOND
M  V30 1 1 2 1
M  V30 2 1 3 2
M  V30 3 2 4 2
M  V30 4 1 5 1
M  V30 5 1 6 1
M  V30 6 1 7 1
M  V30 7 1 8 3
M  V30 8 1 9 3
M  V30 9 1 10 3
M  V30 END BOND
M  V30 END CTAB
M  END
>  <i_epik_Tot_Q>  (1) 
0

>  <i_epik_Tot_abs_Q>  (1) 
0

>  <i_i_glide_confnum>  (1) 
1

>  <i_i_glide_lignum>  (1) 
25

>  <i_i_glide_posenum>  (1) 
97

>  <i_i_glide_rotatable_bonds>  (1) 
0

>  <i_lp_mmshare_version>  (1) 
72125

>  <i_m_source_file_index>  (1) 
23

>  <i_f3d_flags>  (1) 
0

>  <num_sample>  (1) 
100

>  <b_lp_Chiralities_Consistent>  (1) 
1

>  <r_epik_Charging_Adjusted_Penalty>  (1) 
0

>  <r_epik_Ionization_Penalty>  (1) 
8.9301752364709234e-13

>  <r_epik_Ionization_Penalty_Charging>  (1) 
0

>  <r_epik_Ionization_Penalty_Neutral>  (1) 
8.9301752364709234e-13

>  <r_epik_State_Penalty>  (1) 
-0

>  <r_glide_ring_energy>  (1) 
0

>  <r_i_docking_score>  (1) 
-3.5552611562329401

>  <r_i_glide_ecoul>  (1) 
-3.5351456657912652

>  <r_i_glide_eff_state_penalty>  (1) 
-0

>  <r_i_glide_einternal>  (1) 
0

>  <r_i_glide_emodel>  (1) 
-14.949137616577218

>  <r_i_glide_emodel_strain>  (1) 
0.066730155134992364

>  <r_i_glide_energy>  (1) 
-12.14960829799327

>  <r_i_glide_erotb>  (1) 
0

>  <r_i_glide_esite>  (1) 
-0.011476290315317201

>  <r_i_glide_evdw>  (1) 
-8.6144626322020041

>  <r_i_glide_gscore>  (1) 
-3.5552611562329401

>  <r_i_glide_gscore_strain>  (1) 
0

>  <r_i_glide_hbond>  (1) 
-0.32000000000000001

>  <r_i_glide_ligand_efficiency>  (1) 
-0.88881528905823504

>  <r_i_glide_ligand_efficiency_ln>  (1) 
-1.4898669728928378

>  <r_i_glide_ligand_efficiency_sa>  (1) 
-1.4109063248564615

>  <r_i_glide_lipo>  (1) 
-0.012789884438833233

>  <r_i_glide_metal>  (1) 
-0

>  <r_i_glide_rewards>  (1) 
-2.25

>  <r_lp_Energy>  (1) 
-0.55031200000000002

>  <r_lp_tautomer_probability>  (1) 
1

>  <s_epik_cmdline>  (1) 
J2VwaWtfcHl0aG9uJywgJy1waHQnLCAnMS4wJywgJy1waCcsICc3LjQnLCAnLXRuJywgJzgnLCAnLW1hJywgJzUwMCcsICctaW1hZScsICc8aW5maWxlLm1hZT4nLCAnLW9tYWUnLCAnPG91dGZpbGUubWFlPic=

>  <s_epik_input>  (1) 
W0NIM11DKD1PKVtDSDNd

>  <s_glide_docking_method>  (1) 
confgen

>  <s_i_glide_gridfile>  (1) 
gpcr_5ht2c_6bqh_protein_autoprepared_prepared

>  <s_lp_Force_Field>  (1) 
S-OPLS

>  <s_lp_Variant>  (1) 
Pocket2Mol_22_num_sample_100-1

>  <s_m_source_file>  (1) 
generated__ligand_Pocket2Mol_2026-05-06_prepared.sdf

>  <GenAI_Model>  (1) 
Pocket2Mol

>  <Protein>  (1) 
GPCR_5HT2C

$$$$
Pocket2Mol_22_num_sample_100
     RDKit          3D

  0  0  0  0  0  0  0  0  0  0999 V3000
M  V30 BEGIN CTAB
M  V30 COUNTS 10 9 0 0 1
M  V30 BEGIN ATOM
M  V30 1 C 37.057846 30.778843 59.453498 0
M  V30 2 C 36.576633 31.684877 60.578897 0
M  V30 3 C 35.462662 32.670369 60.253500 0
M  V30 4 O 37.067397 31.622387 61.704780 0
M  V30 5 H 36.316518 30.724678 58.654929 0
M  V30 6 H 37.236656 29.770887 59.827542 0
M  V30 7 H 37.986369 31.163967 59.032691 0
M  V30 8 H 34.666857 32.174279 59.697225 0
M  V30 9 H 35.040059 33.089963 61.166405 0
M  V30 10 H 35.849218 33.485412 59.642191 0
M  V30 END ATOM
M  V30 BEGIN BOND
M  V30 1 1 2 1
M  V30 2 1 3 2
M  V30 3 2 4 2
M  V30 4 1 5 1
M  V30 5 1 6 1
M  V30 6 1 7 1
M  V30 7 1 8 3
M  V30 8 1 9 3
M  V30 9 1 10 3
M  V30 END BOND
M  V30 END CTAB
M  END
>  <i_epik_Tot_Q>  (1) 
0

>  <i_epik_Tot_abs_Q>  (1) 
0

>  <i_i_glide_confnum>  (1) 
1

>  <i_i_glide_lignum>  (1) 
25

>  <i_i_glide_posenum>  (1) 
196

>  <i_i_glide_rotatable_bonds>  (1) 
0

>  <i_lp_mmshare_version>  (1) 
72125

>  <i_m_source_file_index>  (1) 
23

>  <i_f3d_flags>  (1) 
0

>  <num_sample>  (1) 
100

>  <b_lp_Chiralities_Consistent>  (1) 
1

>  <r_epik_Charging_Adjusted_Penalty>  (1) 
0

>  <r_epik_Ionization_Penalty>  (1) 
8.9301752364709234e-13

>  <r_epik_Ionization_Penalty_Charging>  (1) 
0

>  <r_epik_Ionization_Penalty_Neutral>  (1) 
8.9301752364709234e-13

>  <r_epik_State_Penalty>  (1) 
-0

>  <r_glide_ring_energy>  (1) 
0

>  <r_i_docking_score>  (1) 
-3.4999681513179821

>  <r_i_glide_ecoul>  (1) 
-3.1190195413660948

>  <r_i_glide_eff_state_penalty>  (1) 
-0

>  <r_i_glide_einternal>  (1) 
0

>  <r_i_glide_emodel>  (1) 
-14.095663881011992

>  <r_i_glide_emodel_strain>  (1) 
0.013452763569629267

>  <r_i_glide_energy>  (1) 
-11.287434514749231

>  <r_i_glide_erotb>  (1) 
0

>  <r_i_glide_esite>  (1) 
-0.053694471443911096

>  <r_i_glide_evdw>  (1) 
-8.1684149733831362

>  <r_i_glide_gscore>  (1) 
-3.4999681513179821

>  <r_i_glide_gscore_strain>  (1) 
0

>  <r_i_glide_hbond>  (1) 
-0.32000000000000001

>  <r_i_glide_ligand_efficiency>  (1) 
-0.87499203782949553

>  <r_i_glide_ligand_efficiency_ln>  (1) 
-1.4666958981856049

>  <r_i_glide_ligand_efficiency_sa>  (1) 
-1.3889632813143398

>  <r_i_glide_lipo>  (1) 
0

>  <r_i_glide_metal>  (1) 
-0

>  <r_i_glide_rewards>  (1) 
-2.25

>  <r_lp_Energy>  (1) 
-0.55031200000000002

>  <r_lp_tautomer_probability>  (1) 
1

>  <s_epik_cmdline>  (1) 
J2VwaWtfcHl0aG9uJywgJy1waHQnLCAnMS4wJywgJy1waCcsICc3LjQnLCAnLXRuJywgJzgnLCAnLW1hJywgJzUwMCcsICctaW1hZScsICc8aW5maWxlLm1hZT4nLCAnLW9tYWUnLCAnPG91dGZpbGUubWFlPic=

>  <s_epik_input>  (1) 
W0NIM11DKD1PKVtDSDNd

>  <s_glide_docking_method>  (1) 
confgen

>  <s_i_glide_gridfile>  (1) 
gpcr_5ht2c_6bqh_protein_autoprepared_prepared

>  <s_lp_Force_Field>  (1) 
S-OPLS

>  <s_lp_Variant>  (1) 
Pocket2Mol_22_num_sample_100-1

>  <s_m_source_file>  (1) 
generated__ligand_Pocket2Mol_2026-05-06_prepared.sdf

>  <GenAI_Model>  (1) 
Pocket2Mol

>  <Protein>  (1) 
GPCR_5HT2C

$$$$
Pocket2Mol_11_num_sample_100
     RDKit          3D

  0  0  0  0  0  0  0  0  0  0999 V3000
M  V30 BEGIN CTAB
M  V30 COUNTS 7 6 0 0 1
M  V30 BEGIN ATOM
M  V30 1 C 36.769996 32.895545 59.856627 0
M  V30 2 C 37.514020 32.289190 61.039765 0
M  V30 3 O 36.838289 31.621451 61.853501 0
M  V30 4 O 38.744034 32.504300 61.110306 0 CHG=-1
M  V30 5 H 37.447522 33.456350 59.211873 0
M  V30 6 H 35.988921 33.571605 60.203001 0
M  V30 7 H 36.305780 32.111069 59.257262 0
M  V30 END ATOM
M  V30 BEGIN BOND
M  V30 1 1 2 1
M  V30 2 2 3 2
M  V30 3 1 4 2
M  V30 4 1 5 1
M  V30 5 1 6 1
M  V30 6 1 7 1
M  V30 END BOND
M  V30 END CTAB
M  END
>  <i_epik_Tot_Q>  (1) 
-1

>  <i_epik_Tot_abs_Q>  (1) 
1

>  <i_i_glide_confnum>  (1) 
1

>  <i_i_glide_lignum>  (1) 
14

>  <i_i_glide_posenum>  (1) 
211

>  <i_i_glide_rotatable_bonds>  (1) 
0

>  <i_lp_mmshare_version>  (1) 
72125

>  <i_m_source_file_index>  (1) 
12

>  <i_f3d_flags>  (1) 
0

>  <num_sample>  (1) 
100

>  <b_lp_Chiralities_Consistent>  (1) 
1

>  <r_epik_Charging_Adjusted_Penalty>  (1) 
0.001592553815962749

>  <r_epik_Ionization_Penalty>  (1) 
0.001592553815962749

>  <r_epik_Ionization_Penalty_Charging>  (1) 
0.001592553815962749

>  <r_epik_Ionization_Penalty_Neutral>  (1) 
0

>  <r_epik_State_Penalty>  (1) 
-0

>  <r_glide_ring_energy>  (1) 
0

>  <r_i_docking_score>  (1) 
-3.3493110684205938

>  <r_i_glide_ecoul>  (1) 
-4.4581047089880732

>  <r_i_glide_eff_state_penalty>  (1) 
-0

>  <r_i_glide_einternal>  (1) 
0

>  <r_i_glide_emodel>  (1) 
-11.144865561798177

>  <r_i_glide_emodel_strain>  (1) 
0

>  <r_i_glide_energy>  (1) 
-8.7740216885423337

>  <r_i_glide_erotb>  (1) 
0

>  <r_i_glide_esite>  (1) 
0

>  <r_i_glide_evdw>  (1) 
-4.3159169795542613

>  <r_i_glide_gscore>  (1) 
-3.3493110684205938

>  <r_i_glide_gscore_strain>  (1) 
0

>  <r_i_glide_hbond>  (1) 
-0.16

>  <r_i_glide_ligand_efficiency>  (1) 
-0.83732776710514845

>  <r_i_glide_ligand_efficiency_ln>  (1) 
-1.4035615735389653

>  <r_i_glide_ligand_efficiency_sa>  (1) 
-1.3291749783448961

>  <r_i_glide_lipo>  (1) 
0

>  <r_i_glide_metal>  (1) 
-0

>  <r_i_glide_rewards>  (1) 
-2.3047995130946699

>  <r_lp_Energy>  (1) 
-0.48114599999999996

>  <r_lp_tautomer_probability>  (1) 
1

>  <s_epik_cmdline>  (1) 
J2VwaWtfcHl0aG9uJywgJy1waHQnLCAnMS4wJywgJy1waCcsICc3LjQnLCAnLXRuJywgJzgnLCAnLW1hJywgJzUwMCcsICctaW1hZScsICc8aW5maWxlLm1hZT4nLCAnLW9tYWUnLCAnPG91dGZpbGUubWFlPic=

>  <s_epik_input>  (1) 
W0NIM11DKD1PKVtPSF0=

>  <s_glide_docking_method>  (1) 
confgen

>  <s_i_glide_gridfile>  (1) 
gpcr_5ht2c_6bqh_protein_autoprepared_prepared

>  <s_lp_Force_Field>  (1) 
S-OPLS

>  <s_lp_Variant>  (1) 
Pocket2Mol_11_num_sample_100-1

>  <s_m_source_file>  (1) 
generated__ligand_Pocket2Mol_2026-05-06_prepared.sdf

>  <GenAI_Model>  (1) 
Pocket2Mol

>  <Protein>  (1) 
GPCR_5HT2C

$$$$
Pocket2Mol_11_num_sample_100
     RDKit          3D

  0  0  0  0  0  0  0  0  0  0999 V3000
M  V30 BEGIN CTAB
M  V30 COUNTS 7 6 0 0 1
M  V30 BEGIN ATOM
M  V30 1 C 35.454887 33.143774 60.281180 0
M  V30 2 C 36.545087 32.414285 61.055208 0
M  V30 3 O 36.279765 31.259565 61.453497 0
M  V30 4 O 37.622457 33.022067 61.236536 0 CHG=-1
M  V30 5 H 35.786201 34.138151 59.981490 0
M  V30 6 H 34.562675 33.248805 60.898115 0
M  V30 7 H 35.192459 32.582843 59.384278 0
M  V30 END ATOM
M  V30 BEGIN BOND
M  V30 1 1 2 1
M  V30 2 2 3 2
M  V30 3 1 4 2
M  V30 4 1 5 1
M  V30 5 1 6 1
M  V30 6 1 7 1
M  V30 END BOND
M  V30 END CTAB
M  END
>  <i_epik_Tot_Q>  (1) 
-1

>  <i_epik_Tot_abs_Q>  (1) 
1

>  <i_i_glide_confnum>  (1) 
1

>  <i_i_glide_lignum>  (1) 
14

>  <i_i_glide_posenum>  (1) 
293

>  <i_i_glide_rotatable_bonds>  (1) 
0

>  <i_lp_mmshare_version>  (1) 
72125

>  <i_m_source_file_index>  (1) 
12

>  <i_f3d_flags>  (1) 
0

>  <num_sample>  (1) 
100

>  <b_lp_Chiralities_Consistent>  (1) 
1

>  <r_epik_Charging_Adjusted_Penalty>  (1) 
0.001592553815962749

>  <r_epik_Ionization_Penalty>  (1) 
0.001592553815962749

>  <r_epik_Ionization_Penalty_Charging>  (1) 
0.001592553815962749

>  <r_epik_Ionization_Penalty_Neutral>  (1) 
0

>  <r_epik_State_Penalty>  (1) 
-0

>  <r_glide_ring_energy>  (1) 
0

>  <r_i_docking_score>  (1) 
-3.3247415273478387

>  <r_i_glide_ecoul>  (1) 
-4.1383435496002736

>  <r_i_glide_eff_state_penalty>  (1) 
-0

>  <r_i_glide_einternal>  (1) 
0

>  <r_i_glide_emodel>  (1) 
-12.052484530501873

>  <r_i_glide_emodel_strain>  (1) 
0

>  <r_i_glide_energy>  (1) 
-9.699032456553736

>  <r_i_glide_erotb>  (1) 
0

>  <r_i_glide_esite>  (1) 
-0.015955549560124606

>  <r_i_glide_evdw>  (1) 
-5.5606889069534624

>  <r_i_glide_gscore>  (1) 
-3.3247415273478387

>  <r_i_glide_gscore_strain>  (1) 
0

>  <r_i_glide_hbond>  (1) 
-0.16

>  <r_i_glide_ligand_efficiency>  (1) 
-0.83118538183695967

>  <r_i_glide_ligand_efficiency_ln>  (1) 
-1.3932654669592117

>  <r_i_glide_ligand_efficiency_sa>  (1) 
-1.3194245495085792

>  <r_i_glide_lipo>  (1) 
0

>  <r_i_glide_metal>  (1) 
-0

>  <r_i_glide_rewards>  (1) 
-2.25

>  <r_lp_Energy>  (1) 
-0.48114599999999996

>  <r_lp_tautomer_probability>  (1) 
1

>  <s_epik_cmdline>  (1) 
J2VwaWtfcHl0aG9uJywgJy1waHQnLCAnMS4wJywgJy1waCcsICc3LjQnLCAnLXRuJywgJzgnLCAnLW1hJywgJzUwMCcsICctaW1hZScsICc8aW5maWxlLm1hZT4nLCAnLW9tYWUnLCAnPG91dGZpbGUubWFlPic=

>  <s_epik_input>  (1) 
W0NIM11DKD1PKVtPSF0=

>  <s_glide_docking_method>  (1) 
confgen

>  <s_i_glide_gridfile>  (1) 
gpcr_5ht2c_6bqh_protein_autoprepared_prepared

>  <s_lp_Force_Field>  (1) 
S-OPLS

>  <s_lp_Variant>  (1) 
Pocket2Mol_11_num_sample_100-1

>  <s_m_source_file>  (1) 
generated__ligand_Pocket2Mol_2026-05-06_prepared.sdf

>  <GenAI_Model>  (1) 
Pocket2Mol

>  <Protein>  (1) 
GPCR_5HT2C

$$$$
Pocket2Mol_11_num_sample_100
     RDKit          3D

  0  0  0  0  0  0  0  0  0  0999 V3000
M  V30 BEGIN CTAB
M  V30 COUNTS 7 6 0 0 1
M  V30 BEGIN ATOM
M  V30 1 C 34.768284 32.983760 59.853613 0
M  V30 2 C 35.729504 32.786809 61.017727 0
M  V30 3 O 36.307628 33.804994 61.453502 0
M  V30 4 O 35.867403 31.621429 61.453501 0 CHG=-1
M  V30 5 H 34.371847 32.029970 59.503281 0
M  V30 6 H 35.284932 33.462115 59.022081 0
M  V30 7 H 33.935781 33.620669 60.152728 0
M  V30 END ATOM
M  V30 BEGIN BOND
M  V30 1 1 2 1
M  V30 2 2 3 2
M  V30 3 1 4 2
M  V30 4 1 5 1
M  V30 5 1 6 1
M  V30 6 1 7 1
M  V30 END BOND
M  V30 END CTAB
M  END
>  <i_epik_Tot_Q>  (1) 
-1

>  <i_epik_Tot_abs_Q>  (1) 
1

>  <i_i_glide_confnum>  (1) 
1

>  <i_i_glide_lignum>  (1) 
14

>  <i_i_glide_posenum>  (1) 
110

>  <i_i_glide_rotatable_bonds>  (1) 
0

>  <i_lp_mmshare_version>  (1) 
72125

>  <i_m_source_file_index>  (1) 
12

>  <i_f3d_flags>  (1) 
0

>  <num_sample>  (1) 
100

>  <b_lp_Chiralities_Consistent>  (1) 
1

>  <r_epik_Charging_Adjusted_Penalty>  (1) 
0.001592553815962749

>  <r_epik_Ionization_Penalty>  (1) 
0.001592553815962749

>  <r_epik_Ionization_Penalty_Charging>  (1) 
0.001592553815962749

>  <r_epik_Ionization_Penalty_Neutral>  (1) 
0

>  <r_epik_State_Penalty>  (1) 
-0

>  <r_glide_ring_energy>  (1) 
0

>  <r_i_docking_score>  (1) 
-3.319434955821055

>  <r_i_glide_ecoul>  (1) 
-3.1721893726891794

>  <r_i_glide_eff_state_penalty>  (1) 
-0

>  <r_i_glide_einternal>  (1) 
0

>  <r_i_glide_emodel>  (1) 
-12.233152869049752

>  <r_i_glide_emodel_strain>  (1) 
0

>  <r_i_glide_energy>  (1) 
-9.8834571056787031

>  <r_i_glide_erotb>  (1) 
0

>  <r_i_glide_esite>  (1) 
0

>  <r_i_glide_evdw>  (1) 
-6.7112677329895236

>  <r_i_glide_gscore>  (1) 
-3.319434955821055

>  <r_i_glide_gscore_strain>  (1) 
0

>  <r_i_glide_hbond>  (1) 
-0.16

>  <r_i_glide_ligand_efficiency>  (1) 
-0.82985873895526374

>  <r_i_glide_ligand_efficiency_ln>  (1) 
-1.3910416962403751

>  <r_i_glide_ligand_efficiency_sa>  (1) 
-1.3173186352025892

>  <r_i_glide_lipo>  (1) 
0

>  <r_i_glide_metal>  (1) 
-0

>  <r_i_glide_rewards>  (1) 
-2.3480431632682017

>  <r_lp_Energy>  (1) 
-0.48114599999999996

>  <r_lp_tautomer_probability>  (1) 
1

>  <s_epik_cmdline>  (1) 
J2VwaWtfcHl0aG9uJywgJy1waHQnLCAnMS4wJywgJy1waCcsICc3LjQnLCAnLXRuJywgJzgnLCAnLW1hJywgJzUwMCcsICctaW1hZScsICc8aW5maWxlLm1hZT4nLCAnLW9tYWUnLCAnPG91dGZpbGUubWFlPic=

>  <s_epik_input>  (1) 
W0NIM11DKD1PKVtPSF0=

>  <s_glide_docking_method>  (1) 
confgen

>  <s_i_glide_gridfile>  (1) 
gpcr_5ht2c_6bqh_protein_autoprepared_prepared

>  <s_lp_Force_Field>  (1) 
S-OPLS

>  <s_lp_Variant>  (1) 
Pocket2Mol_11_num_sample_100-1

>  <s_m_source_file>  (1) 
generated__ligand_Pocket2Mol_2026-05-06_prepared.sdf

>  <GenAI_Model>  (1) 
Pocket2Mol

>  <Protein>  (1) 
GPCR_5HT2C

$$$$
Pocket2Mol_11_num_sample_100
     RDKit          3D

  0  0  0  0  0  0  0  0  0  0999 V3000
M  V30 BEGIN CTAB
M  V30 COUNTS 7 6 0 0 1
M  V30 BEGIN ATOM
M  V30 1 C 35.523059 32.827685 60.122688 0
M  V30 2 C 36.213248 31.578929 60.654688 0
M  V30 3 O 36.667419 31.634456 61.819269 0
M  V30 4 O 36.270764 30.589505 59.894331 0 CHG=-1
M  V30 5 H 35.164685 32.673052 59.104583 0
M  V30 6 H 36.217625 33.667169 60.115970 0
M  V30 7 H 34.671456 33.085526 60.751814 0
M  V30 END ATOM
M  V30 BEGIN BOND
M  V30 1 1 2 1
M  V30 2 2 3 2
M  V30 3 1 4 2
M  V30 4 1 5 1
M  V30 5 1 6 1
M  V30 6 1 7 1
M  V30 END BOND
M  V30 END CTAB
M  END
>  <i_epik_Tot_Q>  (1) 
-1

>  <i_epik_Tot_abs_Q>  (1) 
1

>  <i_i_glide_confnum>  (1) 
1

>  <i_i_glide_lignum>  (1) 
14

>  <i_i_glide_posenum>  (1) 
175

>  <i_i_glide_rotatable_bonds>  (1) 
0

>  <i_lp_mmshare_version>  (1) 
72125

>  <i_m_source_file_index>  (1) 
12

>  <i_f3d_flags>  (1) 
0

>  <num_sample>  (1) 
100

>  <b_lp_Chiralities_Consistent>  (1) 
1

>  <r_epik_Charging_Adjusted_Penalty>  (1) 
0.001592553815962749

>  <r_epik_Ionization_Penalty>  (1) 
0.001592553815962749

>  <r_epik_Ionization_Penalty_Charging>  (1) 
0.001592553815962749

>  <r_epik_Ionization_Penalty_Neutral>  (1) 
0

>  <r_epik_State_Penalty>  (1) 
-0

>  <r_glide_ring_energy>  (1) 
0

>  <r_i_docking_score>  (1) 
-3.3080725696775266

>  <r_i_glide_ecoul>  (1) 
-3.7806788888621856

>  <r_i_glide_eff_state_penalty>  (1) 
-0

>  <r_i_glide_einternal>  (1) 
0

>  <r_i_glide_emodel>  (1) 
-11.513045464563163

>  <r_i_glide_emodel_strain>  (1) 
0

>  <r_i_glide_energy>  (1) 
-9.1713926816808318

>  <r_i_glide_erotb>  (1) 
0

>  <r_i_glide_esite>  (1) 
-0.061435046707266308

>  <r_i_glide_evdw>  (1) 
-5.3907137928186453

>  <r_i_glide_gscore>  (1) 
-3.3080725696775266

>  <r_i_glide_gscore_strain>  (1) 
0

>  <r_i_glide_hbond>  (1) 
-0.16

>  <r_i_glide_ligand_efficiency>  (1) 
-0.82701814241938165

>  <r_i_glide_ligand_efficiency_ln>  (1) 
-1.3862801771551119

>  <r_i_glide_ligand_efficiency_sa>  (1) 
-1.3128094692733125

>  <r_i_glide_lipo>  (1) 
0

>  <r_i_glide_metal>  (1) 
-0

>  <r_i_glide_rewards>  (1) 
-2.25

>  <r_lp_Energy>  (1) 
-0.48114599999999996

>  <r_lp_tautomer_probability>  (1) 
1

>  <s_epik_cmdline>  (1) 
J2VwaWtfcHl0aG9uJywgJy1waHQnLCAnMS4wJywgJy1waCcsICc3LjQnLCAnLXRuJywgJzgnLCAnLW1hJywgJzUwMCcsICctaW1hZScsICc8aW5maWxlLm1hZT4nLCAnLW9tYWUnLCAnPG91dGZpbGUubWFlPic=

>  <s_epik_input>  (1) 
W0NIM11DKD1PKVtPSF0=

>  <s_glide_docking_method>  (1) 
confgen

>  <s_i_glide_gridfile>  (1) 
gpcr_5ht2c_6bqh_protein_autoprepared_prepared

>  <s_lp_Force_Field>  (1) 
S-OPLS

>  <s_lp_Variant>  (1) 
Pocket2Mol_11_num_sample_100-1

>  <s_m_source_file>  (1) 
generated__ligand_Pocket2Mol_2026-05-06_prepared.sdf

>  <GenAI_Model>  (1) 
Pocket2Mol

>  <Protein>  (1) 
GPCR_5HT2C

$$$$
Pocket2Mol_11_num_sample_100
     RDKit          3D

  0  0  0  0  0  0  0  0  0  0999 V3000
M  V30 BEGIN CTAB
M  V30 COUNTS 7 6 0 0 1
M  V30 BEGIN ATOM
M  V30 1 C 36.889153 30.834816 59.627512 0
M  V30 2 C 37.479751 31.353832 60.932141 0
M  V30 3 O 38.723003 31.469683 60.986230 0
M  V30 4 O 36.676884 31.621560 61.853501 0 CHG=-1
M  V30 5 H 35.802429 30.778200 59.679500 0
M  V30 6 H 37.274970 29.840642 59.403782 0
M  V30 7 H 37.144160 31.501190 58.803570 0
M  V30 END ATOM
M  V30 BEGIN BOND
M  V30 1 1 2 1
M  V30 2 2 3 2
M  V30 3 1 4 2
M  V30 4 1 5 1
M  V30 5 1 6 1
M  V30 6 1 7 1
M  V30 END BOND
M  V30 END CTAB
M  END
>  <i_epik_Tot_Q>  (1) 
-1

>  <i_epik_Tot_abs_Q>  (1) 
1

>  <i_i_glide_confnum>  (1) 
1

>  <i_i_glide_lignum>  (1) 
14

>  <i_i_glide_posenum>  (1) 
260

>  <i_i_glide_rotatable_bonds>  (1) 
0

>  <i_lp_mmshare_version>  (1) 
72125

>  <i_m_source_file_index>  (1) 
12

>  <i_f3d_flags>  (1) 
0

>  <num_sample>  (1) 
100

>  <b_lp_Chiralities_Consistent>  (1) 
1

>  <r_epik_Charging_Adjusted_Penalty>  (1) 
0.001592553815962749

>  <r_epik_Ionization_Penalty>  (1) 
0.001592553815962749

>  <r_epik_Ionization_Penalty_Charging>  (1) 
0.001592553815962749

>  <r_epik_Ionization_Penalty_Neutral>  (1) 
0

>  <r_epik_State_Penalty>  (1) 
-0

>  <r_glide_ring_energy>  (1) 
0

>  <r_i_docking_score>  (1) 
-3.307952245407829

>  <r_i_glide_ecoul>  (1) 
-4.4754775797393602

>  <r_i_glide_eff_state_penalty>  (1) 
-0

>  <r_i_glide_einternal>  (1) 
0

>  <r_i_glide_emodel>  (1) 
-11.068189235882436

>  <r_i_glide_emodel_strain>  (1) 
0

>  <r_i_glide_energy>  (1) 
-8.7266216257570655

>  <r_i_glide_erotb>  (1) 
0

>  <r_i_glide_esite>  (1) 
0

>  <r_i_glide_evdw>  (1) 
-4.2511440460177043

>  <r_i_glide_gscore>  (1) 
-3.307952245407829

>  <r_i_glide_gscore_strain>  (1) 
0

>  <r_i_glide_hbond>  (1) 
-0.16

>  <r_i_glide_ligand_efficiency>  (1) 
-0.82698806135195724

>  <r_i_glide_ligand_efficiency_ln>  (1) 
-1.3862297540926187

>  <r_i_glide_ligand_efficiency_sa>  (1) 
-1.3127617185552387

>  <r_i_glide_lipo>  (1) 
0

>  <r_i_glide_metal>  (1) 
-0

>  <r_i_glide_rewards>  (1) 
-2.2640734061460397

>  <r_lp_Energy>  (1) 
-0.48114599999999996

>  <r_lp_tautomer_probability>  (1) 
1

>  <s_epik_cmdline>  (1) 
J2VwaWtfcHl0aG9uJywgJy1waHQnLCAnMS4wJywgJy1waCcsICc3LjQnLCAnLXRuJywgJzgnLCAnLW1hJywgJzUwMCcsICctaW1hZScsICc8aW5maWxlLm1hZT4nLCAnLW9tYWUnLCAnPG91dGZpbGUubWFlPic=

>  <s_epik_input>  (1) 
W0NIM11DKD1PKVtPSF0=

>  <s_glide_docking_method>  (1) 
confgen

>  <s_i_glide_gridfile>  (1) 
gpcr_5ht2c_6bqh_protein_autoprepared_prepared

>  <s_lp_Force_Field>  (1) 
S-OPLS

>  <s_lp_Variant>  (1) 
Pocket2Mol_11_num_sample_100-1

>  <s_m_source_file>  (1) 
generated__ligand_Pocket2Mol_2026-05-06_prepared.sdf

>  <GenAI_Model>  (1) 
Pocket2Mol

>  <Protein>  (1) 
GPCR_5HT2C

$$$$
Pocket2Mol_18_num_sample_100
     RDKit          3D

  0  0  0  0  0  0  0  0  0  0999 V3000
M  V30 BEGIN CTAB
M  V30 COUNTS 18 18 0 0 1
M  V30 BEGIN ATOM
M  V30 1 C 37.867404 31.750049 59.258691 0
M  V30 2 C 38.098072 33.264615 59.384171 0
M  V30 3 C 36.762890 34.024293 59.453529 0
M  V30 4 C 36.985207 31.221434 60.401720 0
M  V30 5 C 35.883550 33.501470 60.602023 0
M  V30 6 C 35.654107 31.986646 60.479582 0
M  V30 7 H 37.391343 31.534587 58.300545 0
M  V30 8 H 38.822826 31.225455 59.252556 0
M  V30 9 H 38.686591 33.474184 60.278193 0
M  V30 10 H 38.683683 33.621429 58.536216 0
M  V30 11 H 36.945729 35.092030 59.577692 0
M  V30 12 H 36.231980 33.911209 58.506582 0
M  V30 13 H 36.792134 30.158490 60.253506 0
M  V30 14 H 37.518655 31.314094 61.348453 0
M  V30 15 H 34.925465 34.021413 60.599840 0
M  V30 16 H 36.356428 33.725890 61.558912 0
M  V30 17 H 35.066157 31.781158 59.583152 0
M  V30 18 H 35.067404 31.627865 61.325198 0
M  V30 END ATOM
M  V30 BEGIN BOND
M  V30 1 1 2 1
M  V30 2 1 3 2
M  V30 3 1 4 1
M  V30 4 1 5 3
M  V30 5 1 6 4
M  V30 6 1 6 5
M  V30 7 1 7 1
M  V30 8 1 8 1
M  V30 9 1 9 2
M  V30 10 1 10 2
M  V30 11 1 11 3
M  V30 12 1 12 3
M  V30 13 1 13 4
M  V30 14 1 14 4
M  V30 15 1 15 5
M  V30 16 1 16 5
M  V30 17 1 17 6
M  V30 18 1 18 6
M  V30 END BOND
M  V30 END CTAB
M  END
>  <i_epik_Tot_Q>  (1) 
0

>  <i_epik_Tot_abs_Q>  (1) 
0

>  <i_i_glide_confnum>  (1) 
2

>  <i_i_glide_lignum>  (1) 
21

>  <i_i_glide_posenum>  (1) 
25

>  <i_i_glide_rotatable_bonds>  (1) 
0

>  <i_lp_mmshare_version>  (1) 
72125

>  <i_m_source_file_index>  (1) 
19

>  <i_f3d_flags>  (1) 
0

>  <num_sample>  (1) 
100

>  <b_lp_Chiralities_Consistent>  (1) 
1

>  <r_epik_Charging_Adjusted_Penalty>  (1) 
0

>  <r_epik_Ionization_Penalty>  (1) 
0

>  <r_epik_Ionization_Penalty_Charging>  (1) 
0

>  <r_epik_Ionization_Penalty_Neutral>  (1) 
0

>  <r_epik_State_Penalty>  (1) 
-0

>  <r_glide_ring_energy>  (1) 
0.00054248204421707515

>  <r_i_docking_score>  (1) 
-3.3013345093391031

>  <r_i_glide_ecoul>  (1) 
0.078994870692862762

>  <r_i_glide_eff_state_penalty>  (1) 
-0

>  <r_i_glide_einternal>  (1) 
0

>  <r_i_glide_emodel>  (1) 
-15.225950677242572

>  <r_i_glide_emodel_strain>  (1) 
0

>  <r_i_glide_energy>  (1) 
-12.632440454971048

>  <r_i_glide_erotb>  (1) 
0

>  <r_i_glide_esite>  (1) 
0

>  <r_i_glide_evdw>  (1) 
-12.711435325663912

>  <r_i_glide_gscore>  (1) 
-3.3013345093391031

>  <r_i_glide_gscore_strain>  (1) 
0

>  <r_i_glide_hbond>  (1) 
0

>  <r_i_glide_ligand_efficiency>  (1) 
-0.55022241822318385

>  <r_i_glide_ligand_efficiency_ln>  (1) 
-1.1825282749920967

>  <r_i_glide_ligand_efficiency_sa>  (1) 
-0.99982048679124547

>  <r_i_glide_lipo>  (1) 
-0.13267726656443829

>  <r_i_glide_metal>  (1) 
-0

>  <r_i_glide_rewards>  (1) 
-2.5449347070953987

>  <r_lp_Energy>  (1) 
5.7175969999999996

>  <r_lp_tautomer_probability>  (1) 
1

>  <s_epik_cmdline>  (1) 
J2VwaWtfcHl0aG9uJywgJy1waHQnLCAnMS4wJywgJy1waCcsICc3LjQnLCAnLXRuJywgJzgnLCAnLW1hJywgJzUwMCcsICctaW1hZScsICc8aW5maWxlLm1hZT4nLCAnLW9tYWUnLCAnPG91dGZpbGUubWFlPic=

>  <s_epik_input>  (1) 
W0NIMl0xW0NIMl1bQ0gyXVtDSDJdW0NIMl1bQ0gyXTE=

>  <s_glide_docking_method>  (1) 
confgen

>  <s_i_glide_gridfile>  (1) 
gpcr_5ht2c_6bqh_protein_autoprepared_prepared

>  <s_lp_Force_Field>  (1) 
S-OPLS

>  <s_lp_Variant>  (1) 
Pocket2Mol_18_num_sample_100-1

>  <s_m_source_file>  (1) 
generated__ligand_Pocket2Mol_2026-05-06_prepared.sdf

>  <GenAI_Model>  (1) 
Pocket2Mol

>  <Protein>  (1) 
GPCR_5HT2C

$$$$
Pocket2Mol_2_num_sample_100
     RDKit          3D

  0  0  0  0  0  0  0  0  0  0999 V3000
M  V30 BEGIN CTAB
M  V30 COUNTS 15 14 0 0 1
M  V30 BEGIN ATOM
M  V30 1 C 38.640075 28.477951 51.914683 0
M  V30 2 C 40.016666 29.158118 51.813819 0
M  V30 3 C 38.588890 27.414457 53.017337 0
M  V30 4 C 40.132774 30.211730 50.705953 0
M  V30 5 O 39.867586 29.621429 49.453841 0
M  V30 6 H 37.867402 29.220753 52.103790 0
M  V30 7 H 38.388984 28.006059 50.964566 0
M  V30 8 H 40.782777 28.404563 51.642130 0
M  V30 9 H 40.256226 29.626634 52.768092 0
M  V30 10 H 37.603946 26.947270 53.055424 0
M  V30 11 H 39.322739 26.627846 52.838919 0
M  V30 12 H 38.792543 27.846888 53.997780 0
M  V30 13 H 41.146245 30.614566 50.687984 0
M  V30 14 H 39.467476 31.056256 50.873434 0
M  V30 15 H 38.926636 29.621426 49.293155 0
M  V30 END ATOM
M  V30 BEGIN BOND
M  V30 1 1 2 1
M  V30 2 1 3 1
M  V30 3 1 4 2
M  V30 4 1 5 4
M  V30 5 1 6 1
M  V30 6 1 7 1
M  V30 7 1 8 2
M  V30 8 1 9 2
M  V30 9 1 10 3
M  V30 10 1 11 3
M  V30 11 1 12 3
M  V30 12 1 13 4
M  V30 13 1 14 4
M  V30 14 1 15 5
M  V30 END BOND
M  V30 END CTAB
M  END
>  <i_epik_Tot_Q>  (1) 
0

>  <i_epik_Tot_abs_Q>  (1) 
0

>  <i_i_glide_confnum>  (1) 
2

>  <i_i_glide_lignum>  (1) 
5

>  <i_i_glide_posenum>  (1) 
91

>  <i_i_glide_rotatable_bonds>  (1) 
3

>  <i_lp_mmshare_version>  (1) 
72125

>  <i_m_source_file_index>  (1) 
3

>  <i_f3d_flags>  (1) 
0

>  <num_sample>  (1) 
100

>  <b_lp_Chiralities_Consistent>  (1) 
1

>  <r_epik_Charging_Adjusted_Penalty>  (1) 
0

>  <r_epik_Ionization_Penalty>  (1) 
2.9396235358890345e-07

>  <r_epik_Ionization_Penalty_Charging>  (1) 
0

>  <r_epik_Ionization_Penalty_Neutral>  (1) 
2.9396235358890345e-07

>  <r_epik_State_Penalty>  (1) 
-0

>  <r_glide_ring_energy>  (1) 
0

>  <r_i_docking_score>  (1) 
-3.140124946810722

>  <r_i_glide_ecoul>  (1) 
-4.0411599425090001

>  <r_i_glide_eff_state_penalty>  (1) 
-0

>  <r_i_glide_einternal>  (1) 
2.085405105127859

>  <r_i_glide_emodel>  (1) 
-15.180599240372025

>  <r_i_glide_emodel_strain>  (1) 
0.074698690045983174

>  <r_i_glide_energy>  (1) 
-13.71831124759402

>  <r_i_glide_erotb>  (1) 
1.8982399431532129

>  <r_i_glide_esite>  (1) 
0

>  <r_i_glide_evdw>  (1) 
-9.6771513050850189

>  <r_i_glide_gscore>  (1) 
-3.140124946810722

>  <r_i_glide_gscore_strain>  (1) 
0

>  <r_i_glide_hbond>  (1) 
-0.32000000000000001

>  <r_i_glide_ligand_efficiency>  (1) 
-0.62802498936214435

>  <r_i_glide_ligand_efficiency_ln>  (1) 
-1.2033721637322243

>  <r_i_glide_ligand_efficiency_sa>  (1) 
-1.0739076257211555

>  <r_i_glide_lipo>  (1) 
-1.3200000000000001

>  <r_i_glide_metal>  (1) 
-0

>  <r_i_glide_rewards>  (1) 
-2.3083333333333331

>  <r_lp_Energy>  (1) 
2.038589

>  <r_lp_tautomer_probability>  (1) 
1

>  <s_epik_cmdline>  (1) 
J2VwaWtfcHl0aG9uJywgJy1waHQnLCAnMS4wJywgJy1waCcsICc3LjQnLCAnLXRuJywgJzgnLCAnLW1hJywgJzUwMCcsICctaW1hZScsICc8aW5maWxlLm1hZT4nLCAnLW9tYWUnLCAnPG91dGZpbGUubWFlPic=

>  <s_epik_input>  (1) 
W0NIM11bQ0gyXVtDSDJdW0NIMl1bT0hd

>  <s_glide_docking_method>  (1) 
confgen

>  <s_i_glide_gridfile>  (1) 
gpcr_5ht2c_6bqh_protein_autoprepared_prepared

>  <s_lp_Force_Field>  (1) 
S-OPLS

>  <s_lp_Variant>  (1) 
Pocket2Mol_2_num_sample_100-1

>  <s_m_source_file>  (1) 
generated__ligand_Pocket2Mol_2026-05-06_prepared.sdf

>  <GenAI_Model>  (1) 
Pocket2Mol

>  <Protein>  (1) 
GPCR_5HT2C

$$$$
Pocket2Mol_2_num_sample_100
     RDKit          3D

  0  0  0  0  0  0  0  0  0  0999 V3000
M  V30 BEGIN CTAB
M  V30 COUNTS 15 14 0 0 1
M  V30 BEGIN ATOM
M  V30 1 C 39.832158 29.563038 50.409531 0
M  V30 2 C 40.263836 28.663518 51.569325 0
M  V30 3 C 40.690253 30.821429 50.294480 0
M  V30 4 C 39.433186 27.374492 51.662723 0
M  V30 5 O 38.122377 27.688770 52.079503 0
M  V30 6 H 39.857562 29.013939 49.467896 0
M  V30 7 H 38.798486 29.856107 50.578339 0
M  V30 8 H 40.183031 29.221431 52.503127 0
M  V30 9 H 41.318865 28.421430 51.453502 0
M  V30 10 H 40.318593 31.474047 49.504275 0
M  V30 11 H 40.667404 31.383449 51.228206 0
M  V30 12 H 41.729401 30.579073 50.070771 0
M  V30 13 H 39.867404 26.685108 52.386884 0
M  V30 14 H 39.404285 26.859704 50.701211 0
M  V30 15 H 37.543123 26.970889 51.853492 0
M  V30 END ATOM
M  V30 BEGIN BOND
M  V30 1 1 2 1
M  V30 2 1 3 1
M  V30 3 1 4 2
M  V30 4 1 5 4
M  V30 5 1 6 1
M  V30 6 1 7 1
M  V30 7 1 8 2
M  V30 8 1 9 2
M  V30 9 1 10 3
M  V30 10 1 11 3
M  V30 11 1 12 3
M  V30 12 1 13 4
M  V30 13 1 14 4
M  V30 14 1 15 5
M  V30 END BOND
M  V30 END CTAB
M  END
>  <i_epik_Tot_Q>  (1) 
0

>  <i_epik_Tot_abs_Q>  (1) 
0

>  <i_i_glide_confnum>  (1) 
2

>  <i_i_glide_lignum>  (1) 
5

>  <i_i_glide_posenum>  (1) 
118

>  <i_i_glide_rotatable_bonds>  (1) 
3

>  <i_lp_mmshare_version>  (1) 
72125

>  <i_m_source_file_index>  (1) 
3

>  <i_f3d_flags>  (1) 
0

>  <num_sample>  (1) 
100

>  <b_lp_Chiralities_Consistent>  (1) 
1

>  <r_epik_Charging_Adjusted_Penalty>  (1) 
0

>  <r_epik_Ionization_Penalty>  (1) 
2.9396235358890345e-07

>  <r_epik_Ionization_Penalty_Charging>  (1) 
0

>  <r_epik_Ionization_Penalty_Neutral>  (1) 
2.9396235358890345e-07

>  <r_epik_State_Penalty>  (1) 
-0

>  <r_glide_ring_energy>  (1) 
0

>  <r_i_docking_score>  (1) 
-3.0956768777254378

>  <r_i_glide_ecoul>  (1) 
-2.4886326094930937

>  <r_i_glide_eff_state_penalty>  (1) 
-0

>  <r_i_glide_einternal>  (1) 
1.7958972966706237

>  <r_i_glide_emodel>  (1) 
-15.913217001207475

>  <r_i_glide_emodel_strain>  (1) 
0.01835545298811847

>  <r_i_glide_energy>  (1) 
-14.28634704004066

>  <r_i_glide_erotb>  (1) 
1.8982399431532129

>  <r_i_glide_esite>  (1) 
0

>  <r_i_glide_evdw>  (1) 
-11.797714430547567

>  <r_i_glide_gscore>  (1) 
-3.0956768777254378

>  <r_i_glide_gscore_strain>  (1) 
0

>  <r_i_glide_hbond>  (1) 
-0.31364755154402929

>  <r_i_glide_ligand_efficiency>  (1) 
-0.61913537554508757

>  <r_i_glide_ligand_efficiency_ln>  (1) 
-1.1863385838668108

>  <r_i_glide_ligand_efficiency_sa>  (1) 
-1.0587065999187435

>  <r_i_glide_lipo>  (1) 
-1.2201826462306704

>  <r_i_glide_metal>  (1) 
-0

>  <r_i_glide_rewards>  (1) 
-2.4969060101526082

>  <r_lp_Energy>  (1) 
2.038589

>  <r_lp_tautomer_probability>  (1) 
1

>  <s_epik_cmdline>  (1) 
J2VwaWtfcHl0aG9uJywgJy1waHQnLCAnMS4wJywgJy1waCcsICc3LjQnLCAnLXRuJywgJzgnLCAnLW1hJywgJzUwMCcsICctaW1hZScsICc8aW5maWxlLm1hZT4nLCAnLW9tYWUnLCAnPG91dGZpbGUubWFlPic=

>  <s_epik_input>  (1) 
W0NIM11bQ0gyXVtDSDJdW0NIMl1bT0hd

>  <s_glide_docking_method>  (1) 
confgen

>  <s_i_glide_gridfile>  (1) 
gpcr_5ht2c_6bqh_protein_autoprepared_prepared

>  <s_lp_Force_Field>  (1) 
S-OPLS

>  <s_lp_Variant>  (1) 
Pocket2Mol_2_num_sample_100-1

>  <s_m_source_file>  (1) 
generated__ligand_Pocket2Mol_2026-05-06_prepared.sdf

>  <GenAI_Model>  (1) 
Pocket2Mol

>  <Protein>  (1) 
GPCR_5HT2C

$$$$
Pocket2Mol_92_num_sample_100
     RDKit          3D

  0  0  0  0  0  0  0  0  0  0999 V3000
M  V30 BEGIN CTAB
M  V30 COUNTS 18 19 0 0 1
M  V30 BEGIN ATOM
M  V30 1 C 49.072680 44.606249 62.707842 0
M  V30 2 C 49.933466 43.809639 63.489475 0
M  V30 3 C 51.279907 43.625984 63.092434 0
M  V30 4 C 49.457086 43.196081 64.666050 0
M  V30 5 C 50.321847 42.404575 65.447059 0
M  V30 6 C 51.755526 44.237235 61.914292 0
M  V30 7 C 52.141902 42.833437 63.876656 0
M  V30 8 C 49.551768 45.216534 61.531395 0
M  V30 9 C 51.663108 42.225391 65.053493 0
M  V30 10 C 50.891431 45.031332 61.134585 0
M  V30 11 H 48.045520 44.749294 63.009279 0
M  V30 12 H 48.429545 43.333045 64.970305 0
M  V30 13 H 49.956966 41.935708 66.349133 0
M  V30 14 H 52.782297 44.098095 61.608462 0
M  V30 15 H 53.170256 42.692552 63.577181 0
M  V30 16 H 48.891305 45.826174 60.932769 0
M  V30 17 H 52.324862 41.621412 65.654523 0
M  V30 18 H 51.256405 45.499448 60.232117 0
M  V30 END ATOM
M  V30 BEGIN BOND
M  V30 1 1 2 1
M  V30 2 1 3 2
M  V30 3 2 4 2
M  V30 4 1 5 4
M  V30 5 1 6 3
M  V30 6 2 7 3
M  V30 7 2 8 1
M  V30 8 2 9 5
M  V30 9 1 9 7
M  V30 10 2 10 6
M  V30 11 1 10 8
M  V30 12 1 11 1
M  V30 13 1 12 4
M  V30 14 1 13 5
M  V30 15 1 14 6
M  V30 16 1 15 7
M  V30 17 1 16 8
M  V30 18 1 17 9
M  V30 19 1 18 10
M  V30 END BOND
M  V30 END CTAB
M  END
>  <i_epik_Tot_Q>  (1) 
0

>  <i_epik_Tot_abs_Q>  (1) 
0

>  <i_i_glide_confnum>  (1) 
1

>  <i_i_glide_lignum>  (1) 
97

>  <i_i_glide_posenum>  (1) 
324

>  <i_i_glide_rotatable_bonds>  (1) 
0

>  <i_lp_mmshare_version>  (1) 
72125

>  <i_m_source_file_index>  (1) 
93

>  <i_f3d_flags>  (1) 
0

>  <num_sample>  (1) 
100

>  <b_lp_Chiralities_Consistent>  (1) 
1

>  <r_epik_Charging_Adjusted_Penalty>  (1) 
0

>  <r_epik_Ionization_Penalty>  (1) 
0

>  <r_epik_Ionization_Penalty_Charging>  (1) 
0

>  <r_epik_Ionization_Penalty_Neutral>  (1) 
0

>  <r_epik_State_Penalty>  (1) 
-0

>  <r_glide_ring_energy>  (1) 
0

>  <r_i_docking_score>  (1) 
-3.0922678654226052

>  <r_i_glide_ecoul>  (1) 
0.17101980077056256

>  <r_i_glide_eff_state_penalty>  (1) 
-0

>  <r_i_glide_einternal>  (1) 
0

>  <r_i_glide_emodel>  (1) 
-10.538674801721893

>  <r_i_glide_emodel_strain>  (1) 
0

>  <r_i_glide_energy>  (1) 
-6.4574437041190169

>  <r_i_glide_erotb>  (1) 
0

>  <r_i_glide_esite>  (1) 
0

>  <r_i_glide_evdw>  (1) 
-6.6284635048895799

>  <r_i_glide_gscore>  (1) 
-3.0922678654226052

>  <r_i_glide_gscore_strain>  (1) 
0

>  <r_i_glide_hbond>  (1) 
0

>  <r_i_glide_ligand_efficiency>  (1) 
-0.30922678654226055

>  <r_i_glide_ligand_efficiency_ln>  (1) 
-0.93631739329969177

>  <r_i_glide_ligand_efficiency_sa>  (1) 
-0.66620891601373056

>  <r_i_glide_lipo>  (1) 
-0.53649766029371038

>  <r_i_glide_metal>  (1) 
-0

>  <r_i_glide_rewards>  (1) 
-2.25

>  <r_lp_Energy>  (1) 
18.967330999999998

>  <r_lp_tautomer_probability>  (1) 
1

>  <s_epik_cmdline>  (1) 
J2VwaWtfcHl0aG9uJywgJy1waHQnLCAnMS4wJywgJy1waCcsICc3LjQnLCAnLXRuJywgJzgnLCAnLW1hJywgJzUwMCcsICctaW1hZScsICc8aW5maWxlLm1hZT4nLCAnLW9tYWUnLCAnPG91dGZpbGUubWFlPic=

>  <s_epik_input>  (1) 
W2NIXTFbY0hdW2NIXVtjSF1jKGMxMilbY0hdW2NIXVtjSF1bY0hdMg==

>  <s_glide_docking_method>  (1) 
confgen

>  <s_i_glide_gridfile>  (1) 
gpcr_5ht2c_6bqh_protein_autoprepared_prepared

>  <s_lp_Force_Field>  (1) 
S-OPLS

>  <s_lp_Variant>  (1) 
Pocket2Mol_92_num_sample_100-1

>  <s_m_source_file>  (1) 
generated__ligand_Pocket2Mol_2026-05-06_prepared.sdf

>  <GenAI_Model>  (1) 
Pocket2Mol

>  <Protein>  (1) 
GPCR_5HT2C

$$$$
Pocket2Mol_2_num_sample_100
     RDKit          3D

  0  0  0  0  0  0  0  0  0  0999 V3000
M  V30 BEGIN CTAB
M  V30 COUNTS 15 14 0 0 1
M  V30 BEGIN ATOM
M  V30 1 C 40.129368 29.635627 51.113884 0
M  V30 2 C 39.525925 28.262756 50.795263 0
M  V30 3 C 40.399209 30.458741 49.853501 0
M  V30 4 C 39.125242 27.478287 52.046852 0
M  V30 5 O 37.867394 27.904066 52.518414 0
M  V30 6 H 39.467405 30.194202 51.775834 0
M  V30 7 H 41.064272 29.496047 51.654975 0
M  V30 8 H 40.267403 27.678183 50.253500 0
M  V30 9 H 38.669381 28.367556 50.129380 0
M  V30 10 H 40.888484 31.397282 50.104346 0
M  V30 11 H 41.047532 29.923026 49.160311 0
M  V30 12 H 39.468889 30.698839 49.338680 0
M  V30 13 H 39.867402 27.582170 52.835861 0
M  V30 14 H 39.067403 26.421429 51.806665 0
M  V30 15 H 37.200432 27.494620 51.981712 0
M  V30 END ATOM
M  V30 BEGIN BOND
M  V30 1 1 2 1
M  V30 2 1 3 1
M  V30 3 1 4 2
M  V30 4 1 5 4
M  V30 5 1 6 1
M  V30 6 1 7 1
M  V30 7 1 8 2
M  V30 8 1 9 2
M  V30 9 1 10 3
M  V30 10 1 11 3
M  V30 11 1 12 3
M  V30 12 1 13 4
M  V30 13 1 14 4
M  V30 14 1 15 5
M  V30 END BOND
M  V30 END CTAB
M  END
>  <i_epik_Tot_Q>  (1) 
0

>  <i_epik_Tot_abs_Q>  (1) 
0

>  <i_i_glide_confnum>  (1) 
3

>  <i_i_glide_lignum>  (1) 
5

>  <i_i_glide_posenum>  (1) 
331

>  <i_i_glide_rotatable_bonds>  (1) 
3

>  <i_lp_mmshare_version>  (1) 
72125

>  <i_m_source_file_index>  (1) 
3

>  <i_f3d_flags>  (1) 
0

>  <num_sample>  (1) 
100

>  <b_lp_Chiralities_Consistent>  (1) 
1

>  <r_epik_Charging_Adjusted_Penalty>  (1) 
0

>  <r_epik_Ionization_Penalty>  (1) 
2.9396235358890345e-07

>  <r_epik_Ionization_Penalty_Charging>  (1) 
0

>  <r_epik_Ionization_Penalty_Neutral>  (1) 
2.9396235358890345e-07

>  <r_epik_State_Penalty>  (1) 
-0

>  <r_glide_ring_energy>  (1) 
0

>  <r_i_docking_score>  (1) 
-3.0484520369438943

>  <r_i_glide_ecoul>  (1) 
-1.9048188692951404

>  <r_i_glide_eff_state_penalty>  (1) 
-0

>  <r_i_glide_einternal>  (1) 
2.1274927721720074

>  <r_i_glide_emodel>  (1) 
-15.709952837020573

>  <r_i_glide_emodel_strain>  (1) 
0.020760163963101208

>  <r_i_glide_energy>  (1) 
-14.290081683154526

>  <r_i_glide_erotb>  (1) 
1.8982399431532129

>  <r_i_glide_esite>  (1) 
0

>  <r_i_glide_evdw>  (1) 
-12.385262813859386

>  <r_i_glide_gscore>  (1) 
-3.0484520369438943

>  <r_i_glide_gscore_strain>  (1) 
0

>  <r_i_glide_hbond>  (1) 
-0.2834347487378186

>  <r_i_glide_ligand_efficiency>  (1) 
-0.60969040738877889

>  <r_i_glide_ligand_efficiency_ln>  (1) 
-1.1682408776303395

>  <r_i_glide_ligand_efficiency_sa>  (1) 
-1.0425559315543282

>  <r_i_glide_lipo>  (1) 
-1.3200000000000001

>  <r_i_glide_metal>  (1) 
-0

>  <r_i_glide_rewards>  (1) 
-2.4382712602720478

>  <r_lp_Energy>  (1) 
2.038589

>  <r_lp_tautomer_probability>  (1) 
1

>  <s_epik_cmdline>  (1) 
J2VwaWtfcHl0aG9uJywgJy1waHQnLCAnMS4wJywgJy1waCcsICc3LjQnLCAnLXRuJywgJzgnLCAnLW1hJywgJzUwMCcsICctaW1hZScsICc8aW5maWxlLm1hZT4nLCAnLW9tYWUnLCAnPG91dGZpbGUubWFlPic=

>  <s_epik_input>  (1) 
W0NIM11bQ0gyXVtDSDJdW0NIMl1bT0hd

>  <s_glide_docking_method>  (1) 
confgen

>  <s_i_glide_gridfile>  (1) 
gpcr_5ht2c_6bqh_protein_autoprepared_prepared

>  <s_lp_Force_Field>  (1) 
S-OPLS

>  <s_lp_Variant>  (1) 
Pocket2Mol_2_num_sample_100-1

>  <s_m_source_file>  (1) 
generated__ligand_Pocket2Mol_2026-05-06_prepared.sdf

>  <GenAI_Model>  (1) 
Pocket2Mol

>  <Protein>  (1) 
GPCR_5HT2C

$$$$
Pocket2Mol_25_num_sample_100
     RDKit          3D

  0  0  0  0  0  0  0  0  0  0999 V3000
M  V30 BEGIN CTAB
M  V30 COUNTS 16 15 0 0 1
M  V30 BEGIN ATOM
M  V30 1 C 39.123864 27.338306 51.368998 0
M  V30 2 O 39.259777 27.221430 52.778864 0
M  V30 3 C 38.107094 27.614418 53.508116 0
M  V30 4 C 39.317081 28.780649 50.882214 0
M  V30 5 O 40.667423 29.167858 51.053502 0
M  V30 6 C 40.939463 30.453561 50.523566 0
M  V30 7 H 39.867403 26.702556 50.891576 0
M  V30 8 H 38.154289 26.955038 51.053550 0
M  V30 9 H 38.281785 27.455833 54.572153 0
M  V30 10 H 37.237204 27.021593 53.222523 0
M  V30 11 H 37.873865 28.669637 53.366817 0
M  V30 12 H 39.067450 28.821400 49.823004 0
M  V30 13 H 38.660292 29.474777 51.400646 0
M  V30 14 H 41.995106 30.690734 50.653494 0
M  V30 15 H 40.720594 30.496445 49.456278 0
M  V30 16 H 40.356100 31.221431 51.033010 0
M  V30 END ATOM
M  V30 BEGIN BOND
M  V30 1 1 2 1
M  V30 2 1 3 2
M  V30 3 1 4 1
M  V30 4 1 5 4
M  V30 5 1 6 5
M  V30 6 1 7 1
M  V30 7 1 8 1
M  V30 8 1 9 3
M  V30 9 1 10 3
M  V30 10 1 11 3
M  V30 11 1 12 4
M  V30 12 1 13 4
M  V30 13 1 14 6
M  V30 14 1 15 6
M  V30 15 1 16 6
M  V30 END BOND
M  V30 END CTAB
M  END
>  <i_epik_Tot_Q>  (1) 
0

>  <i_epik_Tot_abs_Q>  (1) 
0

>  <i_i_glide_confnum>  (1) 
3

>  <i_i_glide_lignum>  (1) 
28

>  <i_i_glide_posenum>  (1) 
213

>  <i_i_glide_rotatable_bonds>  (1) 
3

>  <i_lp_mmshare_version>  (1) 
72125

>  <i_m_source_file_index>  (1) 
26

>  <i_f3d_flags>  (1) 
0

>  <num_sample>  (1) 
100

>  <b_lp_Chiralities_Consistent>  (1) 
1

>  <r_epik_Charging_Adjusted_Penalty>  (1) 
0

>  <r_epik_Ionization_Penalty>  (1) 
3.8345288393749547e-12

>  <r_epik_Ionization_Penalty_Charging>  (1) 
0

>  <r_epik_Ionization_Penalty_Neutral>  (1) 
3.8345288393749547e-12

>  <r_epik_State_Penalty>  (1) 
-0

>  <r_glide_ring_energy>  (1) 
0

>  <r_i_docking_score>  (1) 
-3.0337878208429738

>  <r_i_glide_ecoul>  (1) 
-1.1846611939005445

>  <r_i_glide_eff_state_penalty>  (1) 
-0

>  <r_i_glide_einternal>  (1) 
1.0919757442049745

>  <r_i_glide_emodel>  (1) 
-17.689390143493938

>  <r_i_glide_emodel_strain>  (1) 
0

>  <r_i_glide_energy>  (1) 
-15.50373665016275

>  <r_i_glide_erotb>  (1) 
1.4298651310552182

>  <r_i_glide_esite>  (1) 
0

>  <r_i_glide_evdw>  (1) 
-14.319075456262206

>  <r_i_glide_gscore>  (1) 
-3.0337878208429738

>  <r_i_glide_gscore_strain>  (1) 
0

>  <r_i_glide_hbond>  (1) 
0

>  <r_i_glide_ligand_efficiency>  (1) 
-0.50563130347382901

>  <r_i_glide_ligand_efficiency_ln>  (1) 
-1.086693841028447

>  <r_i_glide_ligand_efficiency_sa>  (1) 
-0.91879305392285171

>  <r_i_glide_lipo>  (1) 
-1.3200000000000001

>  <r_i_glide_metal>  (1) 
-0

>  <r_i_glide_rewards>  (1) 
-2.25

>  <r_lp_Energy>  (1) 
5.9407059999999996

>  <r_lp_tautomer_probability>  (1) 
1

>  <s_epik_cmdline>  (1) 
J2VwaWtfcHl0aG9uJywgJy1waHQnLCAnMS4wJywgJy1waCcsICc3LjQnLCAnLXRuJywgJzgnLCAnLW1hJywgJzUwMCcsICctaW1hZScsICc8aW5maWxlLm1hZT4nLCAnLW9tYWUnLCAnPG91dGZpbGUubWFlPic=

>  <s_epik_input>  (1) 
W0NIM11PW0NIMl1bQ0gyXU9bQ0gzXQ==

>  <s_glide_docking_method>  (1) 
confgen

>  <s_i_glide_gridfile>  (1) 
gpcr_5ht2c_6bqh_protein_autoprepared_prepared

>  <s_lp_Force_Field>  (1) 
S-OPLS

>  <s_lp_Variant>  (1) 
Pocket2Mol_25_num_sample_100-1

>  <s_m_source_file>  (1) 
generated__ligand_Pocket2Mol_2026-05-06_prepared.sdf

>  <GenAI_Model>  (1) 
Pocket2Mol

>  <Protein>  (1) 
GPCR_5HT2C

$$$$
Pocket2Mol_25_num_sample_100
     RDKit          3D

  0  0  0  0  0  0  0  0  0  0999 V3000
M  V30 BEGIN CTAB
M  V30 COUNTS 16 15 0 0 1
M  V30 BEGIN ATOM
M  V30 1 C 38.990307 27.694441 51.581694 0
M  V30 2 O 38.376634 28.231192 52.741850 0
M  V30 3 C 37.881509 27.224957 53.607800 0
M  V30 4 C 39.428754 28.843382 50.668603 0
M  V30 5 O 40.667402 29.374937 51.103555 0
M  V30 6 C 41.125470 30.421430 50.264500 0
M  V30 7 H 39.837827 27.058902 51.840896 0
M  V30 8 H 38.267397 27.072231 51.053483 0
M  V30 9 H 37.431503 27.687116 54.486355 0
M  V30 10 H 38.682508 26.566026 53.945582 0
M  V30 11 H 37.116640 26.622209 53.116894 0
M  V30 12 H 39.538719 28.473688 49.650864 0
M  V30 13 H 38.667409 29.621427 50.653503 0
M  V30 14 H 42.061143 30.821434 50.653499 0
M  V30 15 H 41.312624 30.057950 49.253458 0
M  V30 16 H 40.401972 31.235550 50.216525 0
M  V30 END ATOM
M  V30 BEGIN BOND
M  V30 1 1 2 1
M  V30 2 1 3 2
M  V30 3 1 4 1
M  V30 4 1 5 4
M  V30 5 1 6 5
M  V30 6 1 7 1
M  V30 7 1 8 1
M  V30 8 1 9 3
M  V30 9 1 10 3
M  V30 10 1 11 3
M  V30 11 1 12 4
M  V30 12 1 13 4
M  V30 13 1 14 6
M  V30 14 1 15 6
M  V30 15 1 16 6
M  V30 END BOND
M  V30 END CTAB
M  END
>  <i_epik_Tot_Q>  (1) 
0

>  <i_epik_Tot_abs_Q>  (1) 
0

>  <i_i_glide_confnum>  (1) 
2

>  <i_i_glide_lignum>  (1) 
28

>  <i_i_glide_posenum>  (1) 
168

>  <i_i_glide_rotatable_bonds>  (1) 
3

>  <i_lp_mmshare_version>  (1) 
72125

>  <i_m_source_file_index>  (1) 
26

>  <i_f3d_flags>  (1) 
0

>  <num_sample>  (1) 
100

>  <b_lp_Chiralities_Consistent>  (1) 
1

>  <r_epik_Charging_Adjusted_Penalty>  (1) 
0

>  <r_epik_Ionization_Penalty>  (1) 
3.8345288393749547e-12

>  <r_epik_Ionization_Penalty_Charging>  (1) 
0

>  <r_epik_Ionization_Penalty_Neutral>  (1) 
3.8345288393749547e-12

>  <r_epik_State_Penalty>  (1) 
-0

>  <r_glide_ring_energy>  (1) 
0

>  <r_i_docking_score>  (1) 
-3.0162859081804325

>  <r_i_glide_ecoul>  (1) 
-1.0352342161887851

>  <r_i_glide_eff_state_penalty>  (1) 
-0

>  <r_i_glide_einternal>  (1) 
0.15809175704723055

>  <r_i_glide_emodel>  (1) 
-18.176954295389891

>  <r_i_glide_emodel_strain>  (1) 
0

>  <r_i_glide_energy>  (1) 
-15.54011763916494

>  <r_i_glide_erotb>  (1) 
1.4298651310552182

>  <r_i_glide_esite>  (1) 
0

>  <r_i_glide_evdw>  (1) 
-14.504883422976155

>  <r_i_glide_gscore>  (1) 
-3.0162859081804325

>  <r_i_glide_gscore_strain>  (1) 
0

>  <r_i_glide_hbond>  (1) 
0

>  <r_i_glide_ligand_efficiency>  (1) 
-0.50271431803007205

>  <r_i_glide_ligand_efficiency_ln>  (1) 
-1.0804247075821547

>  <r_i_glide_ligand_efficiency_sa>  (1) 
-0.91349253960400945

>  <r_i_glide_lipo>  (1) 
-1.3156217356585249

>  <r_i_glide_metal>  (1) 
-0

>  <r_i_glide_rewards>  (1) 
-2.25

>  <r_lp_Energy>  (1) 
5.9407059999999996

>  <r_lp_tautomer_probability>  (1) 
1

>  <s_epik_cmdline>  (1) 
J2VwaWtfcHl0aG9uJywgJy1waHQnLCAnMS4wJywgJy1waCcsICc3LjQnLCAnLXRuJywgJzgnLCAnLW1hJywgJzUwMCcsICctaW1hZScsICc8aW5maWxlLm1hZT4nLCAnLW9tYWUnLCAnPG91dGZpbGUubWFlPic=

>  <s_epik_input>  (1) 
W0NIM11PW0NIMl1bQ0gyXU9bQ0gzXQ==

>  <s_glide_docking_method>  (1) 
confgen

>  <s_i_glide_gridfile>  (1) 
gpcr_5ht2c_6bqh_protein_autoprepared_prepared

>  <s_lp_Force_Field>  (1) 
S-OPLS

>  <s_lp_Variant>  (1) 
Pocket2Mol_25_num_sample_100-1

>  <s_m_source_file>  (1) 
generated__ligand_Pocket2Mol_2026-05-06_prepared.sdf

>  <GenAI_Model>  (1) 
Pocket2Mol

>  <Protein>  (1) 
GPCR_5HT2C

$$$$
Pocket2Mol_62_num_sample_100
     RDKit          3D

  0  0  0  0  0  0  0  0  0  0999 V3000
M  V30 BEGIN CTAB
M  V30 COUNTS 20 19 0 0 1
M  V30 BEGIN ATOM
M  V30 1 C 39.659114 28.865392 50.786111 0
M  V30 2 C 40.378156 30.033705 50.104366 0
M  V30 3 O 39.566512 29.152411 52.178656 0
M  V30 4 C 38.732328 28.344500 52.958225 0
M  V30 5 O 39.467405 31.083242 49.853811 0
M  V30 6 O 37.385998 28.419135 52.545258 0
M  V30 7 C 38.825332 28.897543 54.386034 0
M  V30 8 C 39.207762 26.879259 52.915435 0
M  V30 9 H 38.669655 28.736416 50.345433 0
M  V30 10 H 40.221257 27.946437 50.618947 0
M  V30 11 H 40.819807 29.711159 49.161039 0
M  V30 12 H 41.187267 30.402800 50.735338 0
M  V30 13 H 38.742289 30.739230 49.354806 0
M  V30 14 H 37.253396 27.777489 51.864670 0
M  V30 15 H 38.493719 29.936490 54.407071 0
M  V30 16 H 38.200124 28.313983 55.062739 0
M  V30 17 H 39.857271 28.854549 54.736315 0
M  V30 18 H 39.051694 26.445791 51.927468 0
M  V30 19 H 40.267403 26.822251 53.166787 0
M  V30 20 H 38.646220 26.283473 53.635738 0
M  V30 END ATOM
M  V30 BEGIN BOND
M  V30 1 1 2 1
M  V30 2 1 3 1
M  V30 3 1 4 3
M  V30 4 1 5 2
M  V30 5 1 6 4
M  V30 6 1 7 4
M  V30 7 1 8 4
M  V30 8 1 9 1
M  V30 9 1 10 1
M  V30 10 1 11 2
M  V30 11 1 12 2
M  V30 12 1 13 5
M  V30 13 1 14 6
M  V30 14 1 15 7
M  V30 15 1 16 7
M  V30 16 1 17 7
M  V30 17 1 18 8
M  V30 18 1 19 8
M  V30 19 1 20 8
M  V30 END BOND
M  V30 END CTAB
M  END
>  <i_epik_Tot_Q>  (1) 
0

>  <i_epik_Tot_abs_Q>  (1) 
0

>  <i_i_glide_confnum>  (1) 
2

>  <i_i_glide_lignum>  (1) 
66

>  <i_i_glide_posenum>  (1) 
195

>  <i_i_glide_rotatable_bonds>  (1) 
5

>  <i_lp_mmshare_version>  (1) 
72125

>  <i_m_source_file_index>  (1) 
63

>  <i_f3d_flags>  (1) 
0

>  <num_sample>  (1) 
100

>  <b_lp_Chiralities_Consistent>  (1) 
1

>  <r_epik_Charging_Adjusted_Penalty>  (1) 
0

>  <r_epik_Ionization_Penalty>  (1) 
6.4082053832503559e-07

>  <r_epik_Ionization_Penalty_Charging>  (1) 
0

>  <r_epik_Ionization_Penalty_Neutral>  (1) 
6.4082053832503559e-07

>  <r_epik_State_Penalty>  (1) 
-0

>  <r_glide_ring_energy>  (1) 
0

>  <r_i_docking_score>  (1) 
-2.9910913754298374

>  <r_i_glide_ecoul>  (1) 
-5.2647552910794824

>  <r_i_glide_eff_state_penalty>  (1) 
-0

>  <r_i_glide_einternal>  (1) 
2.1471661318025239

>  <r_i_glide_emodel>  (1) 
-21.695706739890671

>  <r_i_glide_emodel_strain>  (1) 
0.020778574565300356

>  <r_i_glide_energy>  (1) 
-19.435362347456277

>  <r_i_glide_erotb>  (1) 
2.7787352151322811

>  <r_i_glide_esite>  (1) 
0

>  <r_i_glide_evdw>  (1) 
-14.170607056376795

>  <r_i_glide_gscore>  (1) 
-2.9910913754298374

>  <r_i_glide_gscore_strain>  (1) 
0

>  <r_i_glide_hbond>  (1) 
-0.4423852973173289

>  <r_i_glide_ligand_efficiency>  (1) 
-0.37388642192872967

>  <r_i_glide_ligand_efficiency_ln>  (1) 
-0.97130967902647591

>  <r_i_glide_ligand_efficiency_sa>  (1) 
-0.74777284385745946

>  <r_i_glide_lipo>  (1) 
-1.129197646764027

>  <r_i_glide_metal>  (1) 
-0

>  <r_i_glide_rewards>  (1) 
-2.7000000000000002

>  <r_lp_Energy>  (1) 
2.7008749999999999

>  <r_lp_tautomer_probability>  (1) 
1

>  <s_epik_cmdline>  (1) 
J2VwaWtfcHl0aG9uJywgJy1waHQnLCAnMS4wJywgJy1waCcsICc3LjQnLCAnLXRuJywgJzgnLCAnLW1hJywgJzUwMCcsICctaW1hZScsICc8aW5maWxlLm1hZT4nLCAnLW9tYWUnLCAnPG91dGZpbGUubWFlPic=

>  <s_epik_input>  (1) 
W09IXVtDSDJdW0NIMl1PQyhbT0hdKShbQ0gzXSlbQ0gzXQ==

>  <s_glide_docking_method>  (1) 
confgen

>  <s_i_glide_gridfile>  (1) 
gpcr_5ht2c_6bqh_protein_autoprepared_prepared

>  <s_lp_Force_Field>  (1) 
S-OPLS

>  <s_lp_Variant>  (1) 
Pocket2Mol_62_num_sample_100-1

>  <s_m_source_file>  (1) 
generated__ligand_Pocket2Mol_2026-05-06_prepared.sdf

>  <GenAI_Model>  (1) 
Pocket2Mol

>  <Protein>  (1) 
GPCR_5HT2C

$$$$
Pocket2Mol_2_num_sample_100
     RDKit          3D

  0  0  0  0  0  0  0  0  0  0999 V3000
M  V30 BEGIN CTAB
M  V30 COUNTS 15 14 0 0 1
M  V30 BEGIN ATOM
M  V30 1 C 39.084743 28.858648 51.823119 0
M  V30 2 C 40.168015 29.047366 50.751135 0
M  V30 3 C 38.888263 27.386604 52.189641 0
M  V30 4 C 40.539008 30.507570 50.434712 0
M  V30 5 O 39.467407 31.221430 49.853505 0
M  V30 6 H 39.331555 29.433905 52.716522 0
M  V30 7 H 38.129817 29.221429 51.453531 0
M  V30 8 H 39.865268 28.533623 49.840250 0
M  V30 9 H 41.067404 28.540464 51.095621 0
M  V30 10 H 38.098987 27.269007 52.932527 0
M  V30 11 H 38.597001 26.821430 51.305581 0
M  V30 12 H 39.799130 26.944870 52.593702 0
M  V30 13 H 41.375423 30.525088 49.735069 0
M  V30 14 H 40.867986 31.030753 51.333319 0
M  V30 15 H 38.938011 30.634407 49.323607 0
M  V30 END ATOM
M  V30 BEGIN BOND
M  V30 1 1 2 1
M  V30 2 1 3 1
M  V30 3 1 4 2
M  V30 4 1 5 4
M  V30 5 1 6 1
M  V30 6 1 7 1
M  V30 7 1 8 2
M  V30 8 1 9 2
M  V30 9 1 10 3
M  V30 10 1 11 3
M  V30 11 1 12 3
M  V30 12 1 13 4
M  V30 13 1 14 4
M  V30 14 1 15 5
M  V30 END BOND
M  V30 END CTAB
M  END
>  <i_epik_Tot_Q>  (1) 
0

>  <i_epik_Tot_abs_Q>  (1) 
0

>  <i_i_glide_confnum>  (1) 
2

>  <i_i_glide_lignum>  (1) 
5

>  <i_i_glide_posenum>  (1) 
375

>  <i_i_glide_rotatable_bonds>  (1) 
3

>  <i_lp_mmshare_version>  (1) 
72125

>  <i_m_source_file_index>  (1) 
3

>  <i_f3d_flags>  (1) 
0

>  <num_sample>  (1) 
100

>  <b_lp_Chiralities_Consistent>  (1) 
1

>  <r_epik_Charging_Adjusted_Penalty>  (1) 
0

>  <r_epik_Ionization_Penalty>  (1) 
2.9396235358890345e-07

>  <r_epik_Ionization_Penalty_Charging>  (1) 
0

>  <r_epik_Ionization_Penalty_Neutral>  (1) 
2.9396235358890345e-07

>  <r_epik_State_Penalty>  (1) 
-0

>  <r_glide_ring_energy>  (1) 
0

>  <r_i_docking_score>  (1) 
-2.9299594994117655

>  <r_i_glide_ecoul>  (1) 
-2.4916524653900805

>  <r_i_glide_eff_state_penalty>  (1) 
-0

>  <r_i_glide_einternal>  (1) 
1.851770168287564

>  <r_i_glide_emodel>  (1) 
-15.130645278103271

>  <r_i_glide_emodel_strain>  (1) 
0.1311867524233552

>  <r_i_glide_energy>  (1) 
-13.780683920519392

>  <r_i_glide_erotb>  (1) 
1.8982399431532129

>  <r_i_glide_esite>  (1) 
0

>  <r_i_glide_evdw>  (1) 
-11.289031455129312

>  <r_i_glide_gscore>  (1) 
-2.9299594994117655

>  <r_i_glide_gscore_strain>  (1) 
0

>  <r_i_glide_hbond>  (1) 
-0.32000000000000001

>  <r_i_glide_ligand_efficiency>  (1) 
-0.58599189988235312

>  <r_i_glide_ligand_efficiency_ln>  (1) 
-1.1228316586688512

>  <r_i_glide_ligand_efficiency_sa>  (1) 
-1.0020320537462031

>  <r_i_glide_lipo>  (1) 
-1.3200000000000001

>  <r_i_glide_metal>  (1) 
-0

>  <r_i_glide_rewards>  (1) 
-2.25

>  <r_lp_Energy>  (1) 
2.038589

>  <r_lp_tautomer_probability>  (1) 
1

>  <s_epik_cmdline>  (1) 
J2VwaWtfcHl0aG9uJywgJy1waHQnLCAnMS4wJywgJy1waCcsICc3LjQnLCAnLXRuJywgJzgnLCAnLW1hJywgJzUwMCcsICctaW1hZScsICc8aW5maWxlLm1hZT4nLCAnLW9tYWUnLCAnPG91dGZpbGUubWFlPic=

>  <s_epik_input>  (1) 
W0NIM11bQ0gyXVtDSDJdW0NIMl1bT0hd

>  <s_glide_docking_method>  (1) 
confgen

>  <s_i_glide_gridfile>  (1) 
gpcr_5ht2c_6bqh_protein_autoprepared_prepared

>  <s_lp_Force_Field>  (1) 
S-OPLS

>  <s_lp_Variant>  (1) 
Pocket2Mol_2_num_sample_100-1

>  <s_m_source_file>  (1) 
generated__ligand_Pocket2Mol_2026-05-06_prepared.sdf

>  <GenAI_Model>  (1) 
Pocket2Mol

>  <Protein>  (1) 
GPCR_5HT2C

$$$$
Pocket2Mol_22_num_sample_100
     RDKit          3D

  0  0  0  0  0  0  0  0  0  0999 V3000
M  V30 BEGIN CTAB
M  V30 COUNTS 10 9 0 0 1
M  V30 BEGIN ATOM
M  V30 1 C 36.202914 31.391773 59.853502 0
M  V30 2 C 35.467399 32.626190 60.358542 0
M  V30 3 C 34.394202 33.221429 59.453509 0
M  V30 4 O 35.727028 33.120548 61.452966 0
M  V30 5 H 35.607661 30.867498 59.104816 0
M  V30 6 H 36.410462 30.705912 60.674053 0
M  V30 7 H 37.147135 31.682099 59.393293 0
M  V30 8 H 33.985071 32.461825 58.787864 0
M  V30 9 H 33.576005 33.621475 60.051240 0
M  V30 10 H 34.812396 34.024820 58.847042 0
M  V30 END ATOM
M  V30 BEGIN BOND
M  V30 1 1 2 1
M  V30 2 1 3 2
M  V30 3 2 4 2
M  V30 4 1 5 1
M  V30 5 1 6 1
M  V30 6 1 7 1
M  V30 7 1 8 3
M  V30 8 1 9 3
M  V30 9 1 10 3
M  V30 END BOND
M  V30 END CTAB
M  END
>  <i_epik_Tot_Q>  (1) 
0

>  <i_epik_Tot_abs_Q>  (1) 
0

>  <i_i_glide_confnum>  (1) 
1

>  <i_i_glide_lignum>  (1) 
25

>  <i_i_glide_posenum>  (1) 
2

>  <i_i_glide_rotatable_bonds>  (1) 
0

>  <i_lp_mmshare_version>  (1) 
72125

>  <i_m_source_file_index>  (1) 
23

>  <i_f3d_flags>  (1) 
0

>  <num_sample>  (1) 
100

>  <b_lp_Chiralities_Consistent>  (1) 
1

>  <r_epik_Charging_Adjusted_Penalty>  (1) 
0

>  <r_epik_Ionization_Penalty>  (1) 
8.9301752364709234e-13

>  <r_epik_Ionization_Penalty_Charging>  (1) 
0

>  <r_epik_Ionization_Penalty_Neutral>  (1) 
8.9301752364709234e-13

>  <r_epik_State_Penalty>  (1) 
-0

>  <r_glide_ring_energy>  (1) 
0

>  <r_i_docking_score>  (1) 
-2.920718122847731

>  <r_i_glide_ecoul>  (1) 
-1.1689354078277701

>  <r_i_glide_eff_state_penalty>  (1) 
-0

>  <r_i_glide_einternal>  (1) 
0

>  <r_i_glide_emodel>  (1) 
-12.864097314365821

>  <r_i_glide_emodel_strain>  (1) 
0.030241566320274971

>  <r_i_glide_energy>  (1) 
-10.539649415750933

>  <r_i_glide_erotb>  (1) 
0

>  <r_i_glide_esite>  (1) 
-0.0268421112774073

>  <r_i_glide_evdw>  (1) 
-9.3707140079231621

>  <r_i_glide_gscore>  (1) 
-2.920718122847731

>  <r_i_glide_gscore_strain>  (1) 
0

>  <r_i_glide_hbond>  (1) 
0

>  <r_i_glide_ligand_efficiency>  (1) 
-0.73017953071193276

>  <r_i_glide_ligand_efficiency_ln>  (1) 
-1.2239555062590999

>  <r_i_glide_ligand_efficiency_sa>  (1) 
-1.1590877551777683

>  <r_i_glide_lipo>  (1) 
0

>  <r_i_glide_metal>  (1) 
-0

>  <r_i_glide_rewards>  (1) 
-2.25

>  <r_lp_Energy>  (1) 
-0.55031200000000002

>  <r_lp_tautomer_probability>  (1) 
1

>  <s_epik_cmdline>  (1) 
J2VwaWtfcHl0aG9uJywgJy1waHQnLCAnMS4wJywgJy1waCcsICc3LjQnLCAnLXRuJywgJzgnLCAnLW1hJywgJzUwMCcsICctaW1hZScsICc8aW5maWxlLm1hZT4nLCAnLW9tYWUnLCAnPG91dGZpbGUubWFlPic=

>  <s_epik_input>  (1) 
W0NIM11DKD1PKVtDSDNd

>  <s_glide_docking_method>  (1) 
confgen

>  <s_i_glide_gridfile>  (1) 
gpcr_5ht2c_6bqh_protein_autoprepared_prepared

>  <s_lp_Force_Field>  (1) 
S-OPLS

>  <s_lp_Variant>  (1) 
Pocket2Mol_22_num_sample_100-1

>  <s_m_source_file>  (1) 
generated__ligand_Pocket2Mol_2026-05-06_prepared.sdf

>  <GenAI_Model>  (1) 
Pocket2Mol

>  <Protein>  (1) 
GPCR_5HT2C

$$$$
Pocket2Mol_25_num_sample_100
     RDKit          3D

  0  0  0  0  0  0  0  0  0  0999 V3000
M  V30 BEGIN CTAB
M  V30 COUNTS 16 15 0 0 1
M  V30 BEGIN ATOM
M  V30 1 C 39.021091 28.654697 51.753890 0
M  V30 2 O 38.929149 27.492118 52.559661 0
M  V30 3 C 37.795019 27.514552 53.410329 0
M  V30 4 C 40.263476 28.550173 50.861081 0
M  V30 5 O 40.267403 29.540443 49.843627 0
M  V30 6 C 40.675018 30.821430 50.288475 0
M  V30 7 H 38.132058 28.731048 51.128848 0
M  V30 8 H 39.067414 29.546250 52.380370 0
M  V30 9 H 37.737966 26.582062 53.971812 0
M  V30 10 H 36.871169 27.621442 52.840922 0
M  V30 11 H 37.856651 28.335766 54.125513 0
M  V30 12 H 41.178188 28.584189 51.453501 0
M  V30 13 H 40.251299 27.583924 50.356632 0
M  V30 14 H 40.630670 31.519590 49.453543 0
M  V30 15 H 40.028349 31.209211 51.075597 0
M  V30 16 H 41.702461 30.802406 50.653499 0
M  V30 END ATOM
M  V30 BEGIN BOND
M  V30 1 1 2 1
M  V30 2 1 3 2
M  V30 3 1 4 1
M  V30 4 1 5 4
M  V30 5 1 6 5
M  V30 6 1 7 1
M  V30 7 1 8 1
M  V30 8 1 9 3
M  V30 9 1 10 3
M  V30 10 1 11 3
M  V30 11 1 12 4
M  V30 12 1 13 4
M  V30 13 1 14 6
M  V30 14 1 15 6
M  V30 15 1 16 6
M  V30 END BOND
M  V30 END CTAB
M  END
>  <i_epik_Tot_Q>  (1) 
0

>  <i_epik_Tot_abs_Q>  (1) 
0

>  <i_i_glide_confnum>  (1) 
3

>  <i_i_glide_lignum>  (1) 
28

>  <i_i_glide_posenum>  (1) 
258

>  <i_i_glide_rotatable_bonds>  (1) 
3

>  <i_lp_mmshare_version>  (1) 
72125

>  <i_m_source_file_index>  (1) 
26

>  <i_f3d_flags>  (1) 
0

>  <num_sample>  (1) 
100

>  <b_lp_Chiralities_Consistent>  (1) 
1

>  <r_epik_Charging_Adjusted_Penalty>  (1) 
0

>  <r_epik_Ionization_Penalty>  (1) 
3.8345288393749547e-12

>  <r_epik_Ionization_Penalty_Charging>  (1) 
0

>  <r_epik_Ionization_Penalty_Neutral>  (1) 
3.8345288393749547e-12

>  <r_epik_State_Penalty>  (1) 
-0

>  <r_glide_ring_energy>  (1) 
0

>  <r_i_docking_score>  (1) 
-2.8846775966593845

>  <r_i_glide_ecoul>  (1) 
-0.087926523539081647

>  <r_i_glide_eff_state_penalty>  (1) 
-0

>  <r_i_glide_einternal>  (1) 
1.294386174020292

>  <r_i_glide_emodel>  (1) 
-16.665190015197759

>  <r_i_glide_emodel_strain>  (1) 
0

>  <r_i_glide_energy>  (1) 
-14.715001507213877

>  <r_i_glide_erotb>  (1) 
1.4298651310552182

>  <r_i_glide_esite>  (1) 
0

>  <r_i_glide_evdw>  (1) 
-14.627074983674795

>  <r_i_glide_gscore>  (1) 
-2.8846775966593845

>  <r_i_glide_gscore_strain>  (1) 
0

>  <r_i_glide_hbond>  (1) 
0

>  <r_i_glide_ligand_efficiency>  (1) 
-0.48077959944323073

>  <r_i_glide_ligand_efficiency_ln>  (1) 
-1.0332829989315027

>  <r_i_glide_ligand_efficiency_sa>  (1) 
-0.87363451076188225

>  <r_i_glide_lipo>  (1) 
-1.3200000000000001

>  <r_i_glide_metal>  (1) 
-0

>  <r_i_glide_rewards>  (1) 
-2.25

>  <r_lp_Energy>  (1) 
5.9407059999999996

>  <r_lp_tautomer_probability>  (1) 
1

>  <s_epik_cmdline>  (1) 
J2VwaWtfcHl0aG9uJywgJy1waHQnLCAnMS4wJywgJy1waCcsICc3LjQnLCAnLXRuJywgJzgnLCAnLW1hJywgJzUwMCcsICctaW1hZScsICc8aW5maWxlLm1hZT4nLCAnLW9tYWUnLCAnPG91dGZpbGUubWFlPic=

>  <s_epik_input>  (1) 
W0NIM11PW0NIMl1bQ0gyXU9bQ0gzXQ==

>  <s_glide_docking_method>  (1) 
confgen

>  <s_i_glide_gridfile>  (1) 
gpcr_5ht2c_6bqh_protein_autoprepared_prepared

>  <s_lp_Force_Field>  (1) 
S-OPLS

>  <s_lp_Variant>  (1) 
Pocket2Mol_25_num_sample_100-1

>  <s_m_source_file>  (1) 
generated__ligand_Pocket2Mol_2026-05-06_prepared.sdf

>  <GenAI_Model>  (1) 
Pocket2Mol

>  <Protein>  (1) 
GPCR_5HT2C

$$$$
Pocket2Mol_66_num_sample_100
     RDKit          3D

  0  0  0  0  0  0  0  0  0  0999 V3000
M  V30 BEGIN CTAB
M  V30 COUNTS 13 12 0 0 1
M  V30 BEGIN ATOM
M  V30 1 C 40.094548 28.821405 51.429288 0
M  V30 2 C 39.126970 27.636465 51.345979 0
M  V30 3 O 39.934316 29.629370 50.276777 0
M  V30 4 O 37.867418 28.021404 51.853514 0
M  V30 5 C 40.696973 30.820185 50.341022 0
M  V30 6 H 39.932973 29.392020 52.345875 0
M  V30 7 H 41.120235 28.454640 51.453478 0
M  V30 8 H 39.486632 26.809981 51.959813 0
M  V30 9 H 39.043820 27.267159 50.322870 0
M  V30 10 H 37.240533 27.338000 51.644659 0
M  V30 11 H 40.508630 31.423277 49.453502 0
M  V30 12 H 40.418907 31.413278 51.213622 0
M  V30 13 H 41.766247 30.605923 50.385827 0
M  V30 END ATOM
M  V30 BEGIN BOND
M  V30 1 1 2 1
M  V30 2 1 3 1
M  V30 3 1 4 2
M  V30 4 1 5 3
M  V30 5 1 6 1
M  V30 6 1 7 1
M  V30 7 1 8 2
M  V30 8 1 9 2
M  V30 9 1 10 4
M  V30 10 1 11 5
M  V30 11 1 12 5
M  V30 12 1 13 5
M  V30 END BOND
M  V30 END CTAB
M  END
>  <i_epik_Tot_Q>  (1) 
0

>  <i_epik_Tot_abs_Q>  (1) 
0

>  <i_i_glide_confnum>  (1) 
2

>  <i_i_glide_lignum>  (1) 
71

>  <i_i_glide_posenum>  (1) 
141

>  <i_i_glide_rotatable_bonds>  (1) 
3

>  <i_lp_mmshare_version>  (1) 
72125

>  <i_m_source_file_index>  (1) 
67

>  <i_f3d_flags>  (1) 
0

>  <num_sample>  (1) 
100

>  <b_lp_Chiralities_Consistent>  (1) 
1

>  <r_epik_Charging_Adjusted_Penalty>  (1) 
0

>  <r_epik_Ionization_Penalty>  (1) 
5.5888793446441707e-08

>  <r_epik_Ionization_Penalty_Charging>  (1) 
0

>  <r_epik_Ionization_Penalty_Neutral>  (1) 
5.5888793446441707e-08

>  <r_epik_State_Penalty>  (1) 
-0

>  <r_glide_ring_energy>  (1) 
0

>  <r_i_docking_score>  (1) 
-2.8341438786235971

>  <r_i_glide_ecoul>  (1) 
-3.1029039963427025

>  <r_i_glide_eff_state_penalty>  (1) 
-0

>  <r_i_glide_einternal>  (1) 
2.1639638040229352

>  <r_i_glide_emodel>  (1) 
-17.619306011454288

>  <r_i_glide_emodel_strain>  (1) 
0

>  <r_i_glide_energy>  (1) 
-15.843677788390911

>  <r_i_glide_erotb>  (1) 
1.8283304104302178

>  <r_i_glide_esite>  (1) 
0

>  <r_i_glide_evdw>  (1) 
-12.740773792048209

>  <r_i_glide_gscore>  (1) 
-2.8341438786235971

>  <r_i_glide_gscore_strain>  (1) 
0

>  <r_i_glide_hbond>  (1) 
-0.32000000000000001

>  <r_i_glide_ligand_efficiency>  (1) 
-0.56682877572471946

>  <r_i_glide_ligand_efficiency_ln>  (1) 
-1.086112785101635

>  <r_i_glide_ligand_efficiency_sa>  (1) 
-0.96926357237347027

>  <r_i_glide_lipo>  (1) 
-0.98999999999999999

>  <r_i_glide_metal>  (1) 
-0

>  <r_i_glide_rewards>  (1) 
-2.25

>  <r_lp_Energy>  (1) 
3.7496159999999996

>  <r_lp_tautomer_probability>  (1) 
1

>  <s_epik_cmdline>  (1) 
J2VwaWtfcHl0aG9uJywgJy1waHQnLCAnMS4wJywgJy1waCcsICc3LjQnLCAnLXRuJywgJzgnLCAnLW1hJywgJzUwMCcsICctaW1hZScsICc8aW5maWxlLm1hZT4nLCAnLW9tYWUnLCAnPG91dGZpbGUubWFlPic=

>  <s_epik_input>  (1) 
W0NIM11PW0NIMl1bQ0gyXVtPSF0=

>  <s_glide_docking_method>  (1) 
confgen

>  <s_i_glide_gridfile>  (1) 
gpcr_5ht2c_6bqh_protein_autoprepared_prepared

>  <s_lp_Force_Field>  (1) 
S-OPLS

>  <s_lp_Variant>  (1) 
Pocket2Mol_66_num_sample_100-1

>  <s_m_source_file>  (1) 
generated__ligand_Pocket2Mol_2026-05-06_prepared.sdf

>  <GenAI_Model>  (1) 
Pocket2Mol

>  <Protein>  (1) 
GPCR_5HT2C

$$$$
Pocket2Mol_25_num_sample_100
     RDKit          3D

  0  0  0  0  0  0  0  0  0  0999 V3000
M  V30 BEGIN CTAB
M  V30 COUNTS 16 15 0 0 1
M  V30 BEGIN ATOM
M  V30 1 C 39.328771 28.231780 51.152874 0
M  V30 2 O 39.467533 29.641144 51.168917 0
M  V30 3 C 40.495125 30.108134 50.315428 0
M  V30 4 C 38.207690 27.837746 52.124081 0
M  V30 5 O 38.632454 27.963261 53.474164 0
M  V30 6 C 39.268546 26.802855 53.985943 0
M  V30 7 H 39.067377 27.910276 50.144570 0
M  V30 8 H 40.267391 27.746941 51.414841 0
M  V30 9 H 40.515253 31.198025 50.325605 0
M  V30 10 H 40.334239 29.781501 49.287455 0
M  V30 11 H 41.467427 29.751544 50.653391 0
M  V30 12 H 37.344779 28.484393 51.965124 0
M  V30 13 H 37.867405 26.821834 51.926562 0
M  V30 14 H 39.626949 26.999797 54.996332 0
M  V30 15 H 38.564944 25.971863 54.039310 0
M  V30 16 H 40.121799 26.497434 53.379540 0
M  V30 END ATOM
M  V30 BEGIN BOND
M  V30 1 1 2 1
M  V30 2 1 3 2
M  V30 3 1 4 1
M  V30 4 1 5 4
M  V30 5 1 6 5
M  V30 6 1 7 1
M  V30 7 1 8 1
M  V30 8 1 9 3
M  V30 9 1 10 3
M  V30 10 1 11 3
M  V30 11 1 12 4
M  V30 12 1 13 4
M  V30 13 1 14 6
M  V30 14 1 15 6
M  V30 15 1 16 6
M  V30 END BOND
M  V30 END CTAB
M  END
>  <i_epik_Tot_Q>  (1) 
0

>  <i_epik_Tot_abs_Q>  (1) 
0

>  <i_i_glide_confnum>  (1) 
1

>  <i_i_glide_lignum>  (1) 
28

>  <i_i_glide_posenum>  (1) 
365

>  <i_i_glide_rotatable_bonds>  (1) 
3

>  <i_lp_mmshare_version>  (1) 
72125

>  <i_m_source_file_index>  (1) 
26

>  <i_f3d_flags>  (1) 
0

>  <num_sample>  (1) 
100

>  <b_lp_Chiralities_Consistent>  (1) 
1

>  <r_epik_Charging_Adjusted_Penalty>  (1) 
0

>  <r_epik_Ionization_Penalty>  (1) 
3.8345288393749547e-12

>  <r_epik_Ionization_Penalty_Charging>  (1) 
0

>  <r_epik_Ionization_Penalty_Neutral>  (1) 
3.8345288393749547e-12

>  <r_epik_State_Penalty>  (1) 
-0

>  <r_glide_ring_energy>  (1) 
0

>  <r_i_docking_score>  (1) 
-2.787494104874392

>  <r_i_glide_ecoul>  (1) 
-0.71217678659669836

>  <r_i_glide_eff_state_penalty>  (1) 
-0

>  <r_i_glide_einternal>  (1) 
1.1118861834435265

>  <r_i_glide_emodel>  (1) 
-16.33720551856408

>  <r_i_glide_emodel_strain>  (1) 
0

>  <r_i_glide_energy>  (1) 
-14.383271633898731

>  <r_i_glide_erotb>  (1) 
1.4298651310552182

>  <r_i_glide_esite>  (1) 
0

>  <r_i_glide_evdw>  (1) 
-13.671094847302033

>  <r_i_glide_gscore>  (1) 
-2.787494104874392

>  <r_i_glide_gscore_strain>  (1) 
0

>  <r_i_glide_hbond>  (1) 
0

>  <r_i_glide_ligand_efficiency>  (1) 
-0.46458235081239868

>  <r_i_glide_ligand_efficiency_ln>  (1) 
-0.99847215908079556

>  <r_i_glide_ligand_efficiency_sa>  (1) 
-0.84420215672757504

>  <r_i_glide_lipo>  (1) 
-1.1769779755750041

>  <r_i_glide_metal>  (1) 
-0

>  <r_i_glide_rewards>  (1) 
-2.25

>  <r_lp_Energy>  (1) 
5.9407059999999996

>  <r_lp_tautomer_probability>  (1) 
1

>  <s_epik_cmdline>  (1) 
J2VwaWtfcHl0aG9uJywgJy1waHQnLCAnMS4wJywgJy1waCcsICc3LjQnLCAnLXRuJywgJzgnLCAnLW1hJywgJzUwMCcsICctaW1hZScsICc8aW5maWxlLm1hZT4nLCAnLW9tYWUnLCAnPG91dGZpbGUubWFlPic=

>  <s_epik_input>  (1) 
W0NIM11PW0NIMl1bQ0gyXU9bQ0gzXQ==

>  <s_glide_docking_method>  (1) 
confgen

>  <s_i_glide_gridfile>  (1) 
gpcr_5ht2c_6bqh_protein_autoprepared_prepared

>  <s_lp_Force_Field>  (1) 
S-OPLS

>  <s_lp_Variant>  (1) 
Pocket2Mol_25_num_sample_100-1

>  <s_m_source_file>  (1) 
generated__ligand_Pocket2Mol_2026-05-06_prepared.sdf

>  <GenAI_Model>  (1) 
Pocket2Mol

>  <Protein>  (1) 
GPCR_5HT2C

$$$$
Pocket2Mol_2_num_sample_100
     RDKit          3D

  0  0  0  0  0  0  0  0  0  0999 V3000
M  V30 BEGIN CTAB
M  V30 COUNTS 15 14 0 0 1
M  V30 BEGIN ATOM
M  V30 1 C 39.920814 30.153167 50.806189 0
M  V30 2 C 39.685964 28.702361 51.256390 0
M  V30 3 C 41.137736 30.297442 49.897811 0
M  V30 4 C 38.541494 28.569680 52.271482 0
M  V30 5 O 38.381588 27.221445 52.653017 0
M  V30 6 H 39.059958 30.517604 50.253501 0
M  V30 7 H 40.038544 30.805094 51.672881 0
M  V30 8 H 40.603104 28.315021 51.700909 0
M  V30 9 H 39.479092 28.080963 50.383639 0
M  V30 10 H 41.213455 31.308126 49.505577 0
M  V30 11 H 42.055413 30.082582 50.443552 0
M  V30 12 H 41.067403 29.621430 49.046533 0
M  V30 13 H 37.599676 28.921903 51.853478 0
M  V30 14 H 38.750103 29.165915 53.160570 0
M  V30 15 H 37.920481 26.765319 51.962274 0
M  V30 END ATOM
M  V30 BEGIN BOND
M  V30 1 1 2 1
M  V30 2 1 3 1
M  V30 3 1 4 2
M  V30 4 1 5 4
M  V30 5 1 6 1
M  V30 6 1 7 1
M  V30 7 1 8 2
M  V30 8 1 9 2
M  V30 9 1 10 3
M  V30 10 1 11 3
M  V30 11 1 12 3
M  V30 12 1 13 4
M  V30 13 1 14 4
M  V30 14 1 15 5
M  V30 END BOND
M  V30 END CTAB
M  END
>  <i_epik_Tot_Q>  (1) 
0

>  <i_epik_Tot_abs_Q>  (1) 
0

>  <i_i_glide_confnum>  (1) 
1

>  <i_i_glide_lignum>  (1) 
5

>  <i_i_glide_posenum>  (1) 
317

>  <i_i_glide_rotatable_bonds>  (1) 
3

>  <i_lp_mmshare_version>  (1) 
72125

>  <i_m_source_file_index>  (1) 
3

>  <i_f3d_flags>  (1) 
0

>  <num_sample>  (1) 
100

>  <b_lp_Chiralities_Consistent>  (1) 
1

>  <r_epik_Charging_Adjusted_Penalty>  (1) 
0

>  <r_epik_Ionization_Penalty>  (1) 
2.9396235358890345e-07

>  <r_epik_Ionization_Penalty_Charging>  (1) 
0

>  <r_epik_Ionization_Penalty_Neutral>  (1) 
2.9396235358890345e-07

>  <r_epik_State_Penalty>  (1) 
-0

>  <r_glide_ring_energy>  (1) 
0

>  <r_i_docking_score>  (1) 
-2.780369434687354

>  <r_i_glide_ecoul>  (1) 
-1.2086184174930041

>  <r_i_glide_eff_state_penalty>  (1) 
-0

>  <r_i_glide_einternal>  (1) 
0.35326513613748978

>  <r_i_glide_emodel>  (1) 
-15.331601111293956

>  <r_i_glide_emodel_strain>  (1) 
0.0040306278501611725

>  <r_i_glide_energy>  (1) 
-13.228122999922107

>  <r_i_glide_erotb>  (1) 
1.8982399431532129

>  <r_i_glide_esite>  (1) 
0

>  <r_i_glide_evdw>  (1) 
-12.019504582429102

>  <r_i_glide_gscore>  (1) 
-2.780369434687354

>  <r_i_glide_gscore_strain>  (1) 
0

>  <r_i_glide_hbond>  (1) 
-0.056436576755670036

>  <r_i_glide_ligand_efficiency>  (1) 
-0.55607388693747084

>  <r_i_glide_ligand_efficiency_ln>  (1) 
-1.0655051118245644

>  <r_i_glide_ligand_efficiency_sa>  (1) 
-0.95087297123809222

>  <r_i_glide_lipo>  (1) 
-1.3200000000000001

>  <r_i_glide_metal>  (1) 
-0

>  <r_i_glide_rewards>  (1) 
-2.5199048093394909

>  <r_lp_Energy>  (1) 
2.038589

>  <r_lp_tautomer_probability>  (1) 
1

>  <s_epik_cmdline>  (1) 
J2VwaWtfcHl0aG9uJywgJy1waHQnLCAnMS4wJywgJy1waCcsICc3LjQnLCAnLXRuJywgJzgnLCAnLW1hJywgJzUwMCcsICctaW1hZScsICc8aW5maWxlLm1hZT4nLCAnLW9tYWUnLCAnPG91dGZpbGUubWFlPic=

>  <s_epik_input>  (1) 
W0NIM11bQ0gyXVtDSDJdW0NIMl1bT0hd

>  <s_glide_docking_method>  (1) 
confgen

>  <s_i_glide_gridfile>  (1) 
gpcr_5ht2c_6bqh_protein_autoprepared_prepared

>  <s_lp_Force_Field>  (1) 
S-OPLS

>  <s_lp_Variant>  (1) 
Pocket2Mol_2_num_sample_100-1

>  <s_m_source_file>  (1) 
generated__ligand_Pocket2Mol_2026-05-06_prepared.sdf

>  <GenAI_Model>  (1) 
Pocket2Mol

>  <Protein>  (1) 
GPCR_5HT2C

$$$$
Pocket2Mol_62_num_sample_100
     RDKit          3D

  0  0  0  0  0  0  0  0  0  0999 V3000
M  V30 BEGIN CTAB
M  V30 COUNTS 20 19 0 0 1
M  V30 BEGIN ATOM
M  V30 1 C 39.157017 27.055147 54.341270 0
M  V30 2 C 39.345309 25.677565 54.985254 0
M  V30 3 O 39.372697 26.919164 52.935260 0
M  V30 4 C 38.857768 27.920111 52.107921 0
M  V30 5 O 39.393643 25.778373 56.393362 0
M  V30 6 O 37.467274 28.037522 52.254033 0
M  V30 7 C 39.146970 27.504720 50.660998 0
M  V30 8 C 39.517645 29.275744 52.409889 0
M  V30 9 H 38.157456 27.423958 54.578304 0
M  V30 10 H 39.867434 27.768688 54.756551 0
M  V30 11 H 40.267358 25.221430 54.634003 0
M  V30 12 H 38.530711 25.013608 54.695531 0
M  V30 13 H 40.177230 26.248851 56.637518 0
M  V30 14 H 37.068415 27.264428 51.869921 0
M  V30 15 H 38.667571 26.550054 50.441977 0
M  V30 16 H 38.764173 28.261479 49.975798 0
M  V30 17 H 40.220071 27.409162 50.498890 0
M  V30 18 H 39.311709 29.602845 53.429089 0
M  V30 19 H 40.594093 29.221312 52.253344 0
M  V30 20 H 39.121366 30.021642 51.724263 0
M  V30 END ATOM
M  V30 BEGIN BOND
M  V30 1 1 2 1
M  V30 2 1 3 1
M  V30 3 1 4 3
M  V30 4 1 5 2
M  V30 5 1 6 4
M  V30 6 1 7 4
M  V30 7 1 8 4
M  V30 8 1 9 1
M  V30 9 1 10 1
M  V30 10 1 11 2
M  V30 11 1 12 2
M  V30 12 1 13 5
M  V30 13 1 14 6
M  V30 14 1 15 7
M  V30 15 1 16 7
M  V30 16 1 17 7
M  V30 17 1 18 8
M  V30 18 1 19 8
M  V30 19 1 20 8
M  V30 END BOND
M  V30 END CTAB
M  END
>  <i_epik_Tot_Q>  (1) 
0

>  <i_epik_Tot_abs_Q>  (1) 
0

>  <i_i_glide_confnum>  (1) 
1

>  <i_i_glide_lignum>  (1) 
66

>  <i_i_glide_posenum>  (1) 
87

>  <i_i_glide_rotatable_bonds>  (1) 
5

>  <i_lp_mmshare_version>  (1) 
72125

>  <i_m_source_file_index>  (1) 
63

>  <i_f3d_flags>  (1) 
0

>  <num_sample>  (1) 
100

>  <b_lp_Chiralities_Consistent>  (1) 
1

>  <r_epik_Charging_Adjusted_Penalty>  (1) 
0

>  <r_epik_Ionization_Penalty>  (1) 
6.4082053832503559e-07

>  <r_epik_Ionization_Penalty_Charging>  (1) 
0

>  <r_epik_Ionization_Penalty_Neutral>  (1) 
6.4082053832503559e-07

>  <r_epik_State_Penalty>  (1) 
-0

>  <r_glide_ring_energy>  (1) 
0

>  <r_i_docking_score>  (1) 
-2.74335182343511

>  <r_i_glide_ecoul>  (1) 
-4.316191018190608

>  <r_i_glide_eff_state_penalty>  (1) 
-0

>  <r_i_glide_einternal>  (1) 
0.5945403260436164

>  <r_i_glide_emodel>  (1) 
-21.245642479558377

>  <r_i_glide_emodel_strain>  (1) 
2.7454154949424492e-08

>  <r_i_glide_energy>  (1) 
-18.466062865964062

>  <r_i_glide_erotb>  (1) 
2.7787352151322811

>  <r_i_glide_esite>  (1) 
0

>  <r_i_glide_evdw>  (1) 
-14.149871847773452

>  <r_i_glide_gscore>  (1) 
-2.74335182343511

>  <r_i_glide_gscore_strain>  (1) 
0

>  <r_i_glide_hbond>  (1) 
-0.32000000000000001

>  <r_i_glide_ligand_efficiency>  (1) 
-0.34291897792938875

>  <r_i_glide_ligand_efficiency_ln>  (1) 
-0.89086017263331818

>  <r_i_glide_ligand_efficiency_sa>  (1) 
-0.6858379558587776

>  <r_i_glide_lipo>  (1) 
-1.1471647934501275

>  <r_i_glide_metal>  (1) 
-0

>  <r_i_glide_rewards>  (1) 
-2.7000000000000002

>  <r_lp_Energy>  (1) 
2.7008749999999999

>  <r_lp_tautomer_probability>  (1) 
1

>  <s_epik_cmdline>  (1) 
J2VwaWtfcHl0aG9uJywgJy1waHQnLCAnMS4wJywgJy1waCcsICc3LjQnLCAnLXRuJywgJzgnLCAnLW1hJywgJzUwMCcsICctaW1hZScsICc8aW5maWxlLm1hZT4nLCAnLW9tYWUnLCAnPG91dGZpbGUubWFlPic=

>  <s_epik_input>  (1) 
W09IXVtDSDJdW0NIMl1PQyhbT0hdKShbQ0gzXSlbQ0gzXQ==

>  <s_glide_docking_method>  (1) 
confgen

>  <s_i_glide_gridfile>  (1) 
gpcr_5ht2c_6bqh_protein_autoprepared_prepared

>  <s_lp_Force_Field>  (1) 
S-OPLS

>  <s_lp_Variant>  (1) 
Pocket2Mol_62_num_sample_100-1

>  <s_m_source_file>  (1) 
generated__ligand_Pocket2Mol_2026-05-06_prepared.sdf

>  <GenAI_Model>  (1) 
Pocket2Mol

>  <Protein>  (1) 
GPCR_5HT2C

$$$$
Pocket2Mol_66_num_sample_100
     RDKit          3D

  0  0  0  0  0  0  0  0  0  0999 V3000
M  V30 BEGIN CTAB
M  V30 COUNTS 13 12 0 0 1
M  V30 BEGIN ATOM
M  V30 1 C 39.351017 28.809496 51.038803 0
M  V30 2 C 38.985558 28.204409 52.399306 0
M  V30 3 O 40.667408 29.329594 51.096547 0
M  V30 4 O 37.587848 28.021433 52.504660 0
M  V30 5 C 40.975103 30.165593 49.993630 0
M  V30 6 H 39.259555 28.072310 50.240171 0
M  V30 7 H 38.667412 29.621432 50.810576 0
M  V30 8 H 39.293215 28.880836 53.197357 0
M  V30 9 H 39.503137 27.257862 52.557043 0
M  V30 10 H 37.309724 27.349760 51.893363 0
M  V30 11 H 42.001265 30.522498 50.079067 0
M  V30 12 H 40.881943 29.621430 49.053578 0
M  V30 13 H 40.321791 31.038893 49.959836 0
M  V30 END ATOM
M  V30 BEGIN BOND
M  V30 1 1 2 1
M  V30 2 1 3 1
M  V30 3 1 4 2
M  V30 4 1 5 3
M  V30 5 1 6 1
M  V30 6 1 7 1
M  V30 7 1 8 2
M  V30 8 1 9 2
M  V30 9 1 10 4
M  V30 10 1 11 5
M  V30 11 1 12 5
M  V30 12 1 13 5
M  V30 END BOND
M  V30 END CTAB
M  END
>  <i_epik_Tot_Q>  (1) 
0

>  <i_epik_Tot_abs_Q>  (1) 
0

>  <i_i_glide_confnum>  (1) 
1

>  <i_i_glide_lignum>  (1) 
71

>  <i_i_glide_posenum>  (1) 
353

>  <i_i_glide_rotatable_bonds>  (1) 
3

>  <i_lp_mmshare_version>  (1) 
72125

>  <i_m_source_file_index>  (1) 
67

>  <i_f3d_flags>  (1) 
0

>  <num_sample>  (1) 
100

>  <b_lp_Chiralities_Consistent>  (1) 
1

>  <r_epik_Charging_Adjusted_Penalty>  (1) 
0

>  <r_epik_Ionization_Penalty>  (1) 
5.5888793446441707e-08

>  <r_epik_Ionization_Penalty_Charging>  (1) 
0

>  <r_epik_Ionization_Penalty_Neutral>  (1) 
5.5888793446441707e-08

>  <r_epik_State_Penalty>  (1) 
-0

>  <r_glide_ring_energy>  (1) 
0

>  <r_i_docking_score>  (1) 
-2.7240997320399725

>  <r_i_glide_ecoul>  (1) 
-2.7095564920312034

>  <r_i_glide_eff_state_penalty>  (1) 
-0

>  <r_i_glide_einternal>  (1) 
0.77197716422850204

>  <r_i_glide_emodel>  (1) 
-17.155576667074133

>  <r_i_glide_emodel_strain>  (1) 
0.0034625157706752452

>  <r_i_glide_energy>  (1) 
-14.798372933951821

>  <r_i_glide_erotb>  (1) 
1.8283304104302178

>  <r_i_glide_esite>  (1) 
0

>  <r_i_glide_evdw>  (1) 
-12.088816441920619

>  <r_i_glide_gscore>  (1) 
-2.7240997320399725

>  <r_i_glide_gscore_strain>  (1) 
0

>  <r_i_glide_hbond>  (1) 
-0.30155584656947887

>  <r_i_glide_ligand_efficiency>  (1) 
-0.54481994640799447

>  <r_i_glide_ligand_efficiency_ln>  (1) 
-1.043941194791224

>  <r_i_glide_ligand_efficiency_sa>  (1) 
-0.93162900362735768

>  <r_i_glide_lipo>  (1) 
-0.98999999999999999

>  <r_i_glide_metal>  (1) 
-0

>  <r_i_glide_rewards>  (1) 
-2.25

>  <r_lp_Energy>  (1) 
3.7496159999999996

>  <r_lp_tautomer_probability>  (1) 
1

>  <s_epik_cmdline>  (1) 
J2VwaWtfcHl0aG9uJywgJy1waHQnLCAnMS4wJywgJy1waCcsICc3LjQnLCAnLXRuJywgJzgnLCAnLW1hJywgJzUwMCcsICctaW1hZScsICc8aW5maWxlLm1hZT4nLCAnLW9tYWUnLCAnPG91dGZpbGUubWFlPic=

>  <s_epik_input>  (1) 
W0NIM11PW0NIMl1bQ0gyXVtPSF0=

>  <s_glide_docking_method>  (1) 
confgen

>  <s_i_glide_gridfile>  (1) 
gpcr_5ht2c_6bqh_protein_autoprepared_prepared

>  <s_lp_Force_Field>  (1) 
S-OPLS

>  <s_lp_Variant>  (1) 
Pocket2Mol_66_num_sample_100-1

>  <s_m_source_file>  (1) 
generated__ligand_Pocket2Mol_2026-05-06_prepared.sdf

>  <GenAI_Model>  (1) 
Pocket2Mol

>  <Protein>  (1) 
GPCR_5HT2C

$$$$
Pocket2Mol_66_num_sample_100
     RDKit          3D

  0  0  0  0  0  0  0  0  0  0999 V3000
M  V30 BEGIN CTAB
M  V30 COUNTS 13 12 0 0 1
M  V30 BEGIN ATOM
M  V30 1 C 40.054940 29.362612 51.257718 0
M  V30 2 C 40.557350 30.449079 50.301841 0
M  V30 3 O 39.539718 28.289227 50.491665 0
M  V30 4 O 39.467428 31.221433 49.853517 0
M  V30 5 C 38.987987 27.259452 51.292565 0
M  V30 6 H 40.888404 28.991656 51.853443 0
M  V30 7 H 39.311144 29.757603 51.951198 0
M  V30 8 H 41.097539 30.021443 49.456359 0
M  V30 9 H 41.243183 31.116368 50.823634 0
M  V30 10 H 38.846561 30.644809 49.417711 0
M  V30 11 H 38.667319 26.438007 50.653449 0
M  V30 12 H 39.718449 26.867088 52.001429 0
M  V30 13 H 38.117974 27.616191 51.846024 0
M  V30 END ATOM
M  V30 BEGIN BOND
M  V30 1 1 2 1
M  V30 2 1 3 1
M  V30 3 1 4 2
M  V30 4 1 5 3
M  V30 5 1 6 1
M  V30 6 1 7 1
M  V30 7 1 8 2
M  V30 8 1 9 2
M  V30 9 1 10 4
M  V30 10 1 11 5
M  V30 11 1 12 5
M  V30 12 1 13 5
M  V30 END BOND
M  V30 END CTAB
M  END
>  <i_epik_Tot_Q>  (1) 
0

>  <i_epik_Tot_abs_Q>  (1) 
0

>  <i_i_glide_confnum>  (1) 
3

>  <i_i_glide_lignum>  (1) 
71

>  <i_i_glide_posenum>  (1) 
400

>  <i_i_glide_rotatable_bonds>  (1) 
3

>  <i_lp_mmshare_version>  (1) 
72125

>  <i_m_source_file_index>  (1) 
67

>  <i_f3d_flags>  (1) 
0

>  <num_sample>  (1) 
100

>  <b_lp_Chiralities_Consistent>  (1) 
1

>  <r_epik_Charging_Adjusted_Penalty>  (1) 
0

>  <r_epik_Ionization_Penalty>  (1) 
5.5888793446441707e-08

>  <r_epik_Ionization_Penalty_Charging>  (1) 
0

>  <r_epik_Ionization_Penalty_Neutral>  (1) 
5.5888793446441707e-08

>  <r_epik_State_Penalty>  (1) 
-0

>  <r_glide_ring_energy>  (1) 
0

>  <r_i_docking_score>  (1) 
-2.716852755157249

>  <r_i_glide_ecoul>  (1) 
-2.6532365950420478

>  <r_i_glide_eff_state_penalty>  (1) 
-0

>  <r_i_glide_einternal>  (1) 
1.7535827391008372

>  <r_i_glide_emodel>  (1) 
-16.25974660245943

>  <r_i_glide_emodel_strain>  (1) 
0

>  <r_i_glide_energy>  (1) 
-14.397190121665256

>  <r_i_glide_erotb>  (1) 
1.8283304104302178

>  <r_i_glide_esite>  (1) 
0

>  <r_i_glide_evdw>  (1) 
-11.743953526623208

>  <r_i_glide_gscore>  (1) 
-2.716852755157249

>  <r_i_glide_gscore_strain>  (1) 
0

>  <r_i_glide_hbond>  (1) 
-0.32000000000000001

>  <r_i_glide_ligand_efficiency>  (1) 
-0.54337055103144982

>  <r_i_glide_ligand_efficiency_ln>  (1) 
-1.0411639771965109

>  <r_i_glide_ligand_efficiency_sa>  (1) 
-0.92915057239624188

>  <r_i_glide_lipo>  (1) 
-0.98999999999999999

>  <r_i_glide_metal>  (1) 
-0

>  <r_i_glide_rewards>  (1) 
-2.25

>  <r_lp_Energy>  (1) 
3.7496159999999996

>  <r_lp_tautomer_probability>  (1) 
1

>  <s_epik_cmdline>  (1) 
J2VwaWtfcHl0aG9uJywgJy1waHQnLCAnMS4wJywgJy1waCcsICc3LjQnLCAnLXRuJywgJzgnLCAnLW1hJywgJzUwMCcsICctaW1hZScsICc8aW5maWxlLm1hZT4nLCAnLW9tYWUnLCAnPG91dGZpbGUubWFlPic=

>  <s_epik_input>  (1) 
W0NIM11PW0NIMl1bQ0gyXVtPSF0=

>  <s_glide_docking_method>  (1) 
confgen

>  <s_i_glide_gridfile>  (1) 
gpcr_5ht2c_6bqh_protein_autoprepared_prepared

>  <s_lp_Force_Field>  (1) 
S-OPLS

>  <s_lp_Variant>  (1) 
Pocket2Mol_66_num_sample_100-1

>  <s_m_source_file>  (1) 
generated__ligand_Pocket2Mol_2026-05-06_prepared.sdf

>  <GenAI_Model>  (1) 
Pocket2Mol

>  <Protein>  (1) 
GPCR_5HT2C

$$$$
Pocket2Mol_62_num_sample_100
     RDKit          3D

  0  0  0  0  0  0  0  0  0  0999 V3000
M  V30 BEGIN CTAB
M  V30 COUNTS 20 19 0 0 1
M  V30 BEGIN ATOM
M  V30 1 C 39.601990 28.849861 50.858793 0
M  V30 2 C 39.989245 30.134845 50.114841 0
M  V30 3 O 39.429806 29.157094 52.239372 0
M  V30 4 C 38.669241 28.288716 53.028644 0
M  V30 5 O 41.362234 30.421429 50.253498 0
M  V30 6 O 37.312694 28.286642 52.653502 0
M  V30 7 C 38.758563 28.832572 54.459068 0
M  V30 8 C 39.217402 26.849803 52.954055 0
M  V30 9 H 38.667441 28.480315 50.437267 0
M  V30 10 H 40.346539 28.067781 50.712606 0
M  V30 11 H 39.395611 30.985171 50.447582 0
M  V30 12 H 39.797723 30.003546 49.053500 0
M  V30 13 H 41.515695 31.307435 49.953036 0
M  V30 14 H 37.215613 27.719926 51.901193 0
M  V30 15 H 38.368772 29.850977 54.495958 0
M  V30 16 H 38.175966 28.208489 55.137531 0
M  V30 17 H 39.795978 28.844690 54.794150 0
M  V30 18 H 39.115936 26.442077 51.948522 0
M  V30 19 H 40.267423 26.821429 53.237689 0
M  V30 20 H 38.660074 26.209910 53.639597 0
M  V30 END ATOM
M  V30 BEGIN BOND
M  V30 1 1 2 1
M  V30 2 1 3 1
M  V30 3 1 4 3
M  V30 4 1 5 2
M  V30 5 1 6 4
M  V30 6 1 7 4
M  V30 7 1 8 4
M  V30 8 1 9 1
M  V30 9 1 10 1
M  V30 10 1 11 2
M  V30 11 1 12 2
M  V30 12 1 13 5
M  V30 13 1 14 6
M  V30 14 1 15 7
M  V30 15 1 16 7
M  V30 16 1 17 7
M  V30 17 1 18 8
M  V30 18 1 19 8
M  V30 19 1 20 8
M  V30 END BOND
M  V30 END CTAB
M  END
>  <i_epik_Tot_Q>  (1) 
0

>  <i_epik_Tot_abs_Q>  (1) 
0

>  <i_i_glide_confnum>  (1) 
8

>  <i_i_glide_lignum>  (1) 
66

>  <i_i_glide_posenum>  (1) 
365

>  <i_i_glide_rotatable_bonds>  (1) 
5

>  <i_lp_mmshare_version>  (1) 
72125

>  <i_m_source_file_index>  (1) 
63

>  <i_f3d_flags>  (1) 
0

>  <num_sample>  (1) 
100

>  <b_lp_Chiralities_Consistent>  (1) 
1

>  <r_epik_Charging_Adjusted_Penalty>  (1) 
0

>  <r_epik_Ionization_Penalty>  (1) 
6.4082053832503559e-07

>  <r_epik_Ionization_Penalty_Charging>  (1) 
0

>  <r_epik_Ionization_Penalty_Neutral>  (1) 
6.4082053832503559e-07

>  <r_epik_State_Penalty>  (1) 
-0

>  <r_glide_ring_energy>  (1) 
0

>  <r_i_docking_score>  (1) 
-2.6248194062329784

>  <r_i_glide_ecoul>  (1) 
-4.1930363124447565

>  <r_i_glide_eff_state_penalty>  (1) 
-0

>  <r_i_glide_einternal>  (1) 
2.5407891663937616

>  <r_i_glide_emodel>  (1) 
-22.179958892600308

>  <r_i_glide_emodel_strain>  (1) 
0.01371262828416786

>  <r_i_glide_energy>  (1) 
-20.520158214908339

>  <r_i_glide_erotb>  (1) 
2.7787352151322811

>  <r_i_glide_esite>  (1) 
0

>  <r_i_glide_evdw>  (1) 
-16.327121902463581

>  <r_i_glide_gscore>  (1) 
-2.6248194062329784

>  <r_i_glide_gscore_strain>  (1) 
0

>  <r_i_glide_hbond>  (1) 
-0.14268073906583809

>  <r_i_glide_ligand_efficiency>  (1) 
-0.3281024257791223

>  <r_i_glide_ligand_efficiency_ln>  (1) 
-0.85236864240038113

>  <r_i_glide_ligand_efficiency_sa>  (1) 
-0.65620485155824471

>  <r_i_glide_lipo>  (1) 
-1.1155623403095287

>  <r_i_glide_metal>  (1) 
-0

>  <r_i_glide_rewards>  (1) 
-2.7000000000000002

>  <r_lp_Energy>  (1) 
2.7008749999999999

>  <r_lp_tautomer_probability>  (1) 
1

>  <s_epik_cmdline>  (1) 
J2VwaWtfcHl0aG9uJywgJy1waHQnLCAnMS4wJywgJy1waCcsICc3LjQnLCAnLXRuJywgJzgnLCAnLW1hJywgJzUwMCcsICctaW1hZScsICc8aW5maWxlLm1hZT4nLCAnLW9tYWUnLCAnPG91dGZpbGUubWFlPic=

>  <s_epik_input>  (1) 
W09IXVtDSDJdW0NIMl1PQyhbT0hdKShbQ0gzXSlbQ0gzXQ==

>  <s_glide_docking_method>  (1) 
confgen

>  <s_i_glide_gridfile>  (1) 
gpcr_5ht2c_6bqh_protein_autoprepared_prepared

>  <s_lp_Force_Field>  (1) 
S-OPLS

>  <s_lp_Variant>  (1) 
Pocket2Mol_62_num_sample_100-1

>  <s_m_source_file>  (1) 
generated__ligand_Pocket2Mol_2026-05-06_prepared.sdf

>  <GenAI_Model>  (1) 
Pocket2Mol

>  <Protein>  (1) 
GPCR_5HT2C

$$$$
Pocket2Mol_66_num_sample_100
     RDKit          3D

  0  0  0  0  0  0  0  0  0  0999 V3000
M  V30 BEGIN CTAB
M  V30 COUNTS 13 12 0 0 1
M  V30 BEGIN ATOM
M  V30 1 C 40.267407 28.910544 50.924919 0
M  V30 2 C 40.502457 30.422087 50.959693 0
M  V30 3 O 39.048847 28.615416 51.583133 0
M  V30 4 O 39.867404 31.011437 49.853501 0
M  V30 5 C 38.787289 27.224005 51.630275 0
M  V30 6 H 40.267390 28.529362 49.902111 0
M  V30 7 H 41.083624 28.421429 51.453502 0
M  V30 8 H 41.566050 30.643562 50.874964 0
M  V30 9 H 40.149803 30.863764 51.892545 0
M  V30 10 H 38.999164 30.639389 49.763045 0
M  V30 11 H 37.867403 27.045874 52.184365 0
M  V30 12 H 38.667412 26.813947 50.627492 0
M  V30 13 H 39.587751 26.684064 52.137181 0
M  V30 END ATOM
M  V30 BEGIN BOND
M  V30 1 1 2 1
M  V30 2 1 3 1
M  V30 3 1 4 2
M  V30 4 1 5 3
M  V30 5 1 6 1
M  V30 6 1 7 1
M  V30 7 1 8 2
M  V30 8 1 9 2
M  V30 9 1 10 4
M  V30 10 1 11 5
M  V30 11 1 12 5
M  V30 12 1 13 5
M  V30 END BOND
M  V30 END CTAB
M  END
>  <i_epik_Tot_Q>  (1) 
0

>  <i_epik_Tot_abs_Q>  (1) 
0

>  <i_i_glide_confnum>  (1) 
2

>  <i_i_glide_lignum>  (1) 
71

>  <i_i_glide_posenum>  (1) 
109

>  <i_i_glide_rotatable_bonds>  (1) 
3

>  <i_lp_mmshare_version>  (1) 
72125

>  <i_m_source_file_index>  (1) 
67

>  <i_f3d_flags>  (1) 
0

>  <num_sample>  (1) 
100

>  <b_lp_Chiralities_Consistent>  (1) 
1

>  <r_epik_Charging_Adjusted_Penalty>  (1) 
0

>  <r_epik_Ionization_Penalty>  (1) 
5.5888793446441707e-08

>  <r_epik_Ionization_Penalty_Charging>  (1) 
0

>  <r_epik_Ionization_Penalty_Neutral>  (1) 
5.5888793446441707e-08

>  <r_epik_State_Penalty>  (1) 
-0

>  <r_glide_ring_energy>  (1) 
0

>  <r_i_docking_score>  (1) 
-2.5783868909147314

>  <r_i_glide_ecoul>  (1) 
-1.2900395932036959

>  <r_i_glide_eff_state_penalty>  (1) 
-0

>  <r_i_glide_einternal>  (1) 
2.1674505209261636

>  <r_i_glide_emodel>  (1) 
-15.865967109716467

>  <r_i_glide_emodel_strain>  (1) 
0.0043099817697220821

>  <r_i_glide_energy>  (1) 
-14.354266840491588

>  <r_i_glide_erotb>  (1) 
1.8283304104302178

>  <r_i_glide_esite>  (1) 
0

>  <r_i_glide_evdw>  (1) 
-13.064227247287892

>  <r_i_glide_gscore>  (1) 
-2.5783868909147314

>  <r_i_glide_gscore_strain>  (1) 
0

>  <r_i_glide_hbond>  (1) 
-0.32000000000000001

>  <r_i_glide_ligand_efficiency>  (1) 
-0.51567737818294623

>  <r_i_glide_ligand_efficiency_ln>  (1) 
-0.9881004942208399

>  <r_i_glide_ligand_efficiency_sa>  (1) 
-0.88179591293814064

>  <r_i_glide_lipo>  (1) 
-0.98999999999999999

>  <r_i_glide_metal>  (1) 
-0

>  <r_i_glide_rewards>  (1) 
-2.25

>  <r_lp_Energy>  (1) 
3.7496159999999996

>  <r_lp_tautomer_probability>  (1) 
1

>  <s_epik_cmdline>  (1) 
J2VwaWtfcHl0aG9uJywgJy1waHQnLCAnMS4wJywgJy1waCcsICc3LjQnLCAnLXRuJywgJzgnLCAnLW1hJywgJzUwMCcsICctaW1hZScsICc8aW5maWxlLm1hZT4nLCAnLW9tYWUnLCAnPG91dGZpbGUubWFlPic=

>  <s_epik_input>  (1) 
W0NIM11PW0NIMl1bQ0gyXVtPSF0=

>  <s_glide_docking_method>  (1) 
confgen

>  <s_i_glide_gridfile>  (1) 
gpcr_5ht2c_6bqh_protein_autoprepared_prepared

>  <s_lp_Force_Field>  (1) 
S-OPLS

>  <s_lp_Variant>  (1) 
Pocket2Mol_66_num_sample_100-1

>  <s_m_source_file>  (1) 
generated__ligand_Pocket2Mol_2026-05-06_prepared.sdf

>  <GenAI_Model>  (1) 
Pocket2Mol

>  <Protein>  (1) 
GPCR_5HT2C

$$$$
Pocket2Mol_66_num_sample_100
     RDKit          3D

  0  0  0  0  0  0  0  0  0  0999 V3000
M  V30 BEGIN CTAB
M  V30 COUNTS 13 12 0 0 1
M  V30 BEGIN ATOM
M  V30 1 C 39.343306 27.923514 51.297126 0
M  V30 2 C 38.294927 28.353018 52.336587 0
M  V30 3 O 39.592498 28.937596 50.335038 0
M  V30 4 O 37.835182 27.226506 53.053498 0
M  V30 5 C 40.425024 29.992260 50.790706 0
M  V30 6 H 40.267403 27.621414 51.788191 0
M  V30 7 H 38.975861 27.054703 50.748758 0
M  V30 8 H 37.439201 28.821423 51.853503 0
M  V30 9 H 38.711797 29.078995 53.034657 0
M  V30 10 H 37.315167 26.693543 52.463801 0
M  V30 11 H 40.547891 30.727367 49.994945 0
M  V30 12 H 39.998840 30.505881 51.652593 0
M  V30 13 H 41.416041 29.621440 51.053504 0
M  V30 END ATOM
M  V30 BEGIN BOND
M  V30 1 1 2 1
M  V30 2 1 3 1
M  V30 3 1 4 2
M  V30 4 1 5 3
M  V30 5 1 6 1
M  V30 6 1 7 1
M  V30 7 1 8 2
M  V30 8 1 9 2
M  V30 9 1 10 4
M  V30 10 1 11 5
M  V30 11 1 12 5
M  V30 12 1 13 5
M  V30 END BOND
M  V30 END CTAB
M  END
>  <i_epik_Tot_Q>  (1) 
0

>  <i_epik_Tot_abs_Q>  (1) 
0

>  <i_i_glide_confnum>  (1) 
1

>  <i_i_glide_lignum>  (1) 
71

>  <i_i_glide_posenum>  (1) 
220

>  <i_i_glide_rotatable_bonds>  (1) 
3

>  <i_lp_mmshare_version>  (1) 
72125

>  <i_m_source_file_index>  (1) 
67

>  <i_f3d_flags>  (1) 
0

>  <num_sample>  (1) 
100

>  <b_lp_Chiralities_Consistent>  (1) 
1

>  <r_epik_Charging_Adjusted_Penalty>  (1) 
0

>  <r_epik_Ionization_Penalty>  (1) 
5.5888793446441707e-08

>  <r_epik_Ionization_Penalty_Charging>  (1) 
0

>  <r_epik_Ionization_Penalty_Neutral>  (1) 
5.5888793446441707e-08

>  <r_epik_State_Penalty>  (1) 
-0

>  <r_glide_ring_energy>  (1) 
0

>  <r_i_docking_score>  (1) 
-2.569471387572583

>  <r_i_glide_ecoul>  (1) 
-1.6702985124194056

>  <r_i_glide_eff_state_penalty>  (1) 
-0

>  <r_i_glide_einternal>  (1) 
1.2299068622345115

>  <r_i_glide_emodel>  (1) 
-16.174383637890895

>  <r_i_glide_emodel_strain>  (1) 
0

>  <r_i_glide_energy>  (1) 
-14.198590879797946

>  <r_i_glide_erotb>  (1) 
1.8283304104302178

>  <r_i_glide_esite>  (1) 
0

>  <r_i_glide_evdw>  (1) 
-12.52829236737854

>  <r_i_glide_gscore>  (1) 
-2.569471387572583

>  <r_i_glide_gscore_strain>  (1) 
0

>  <r_i_glide_hbond>  (1) 
-0.28084240277096245

>  <r_i_glide_ligand_efficiency>  (1) 
-0.51389427751451655

>  <r_i_glide_ligand_efficiency_ln>  (1) 
-0.98468385675279912

>  <r_i_glide_ligand_efficiency_sa>  (1) 
-0.8787468536846228

>  <r_i_glide_lipo>  (1) 
-0.98999999999999999

>  <r_i_glide_metal>  (1) 
-0

>  <r_i_glide_rewards>  (1) 
-2.25

>  <r_lp_Energy>  (1) 
3.7496159999999996

>  <r_lp_tautomer_probability>  (1) 
1

>  <s_epik_cmdline>  (1) 
J2VwaWtfcHl0aG9uJywgJy1waHQnLCAnMS4wJywgJy1waCcsICc3LjQnLCAnLXRuJywgJzgnLCAnLW1hJywgJzUwMCcsICctaW1hZScsICc8aW5maWxlLm1hZT4nLCAnLW9tYWUnLCAnPG91dGZpbGUubWFlPic=

>  <s_epik_input>  (1) 
W0NIM11PW0NIMl1bQ0gyXVtPSF0=

>  <s_glide_docking_method>  (1) 
confgen

>  <s_i_glide_gridfile>  (1) 
gpcr_5ht2c_6bqh_protein_autoprepared_prepared

>  <s_lp_Force_Field>  (1) 
S-OPLS

>  <s_lp_Variant>  (1) 
Pocket2Mol_66_num_sample_100-1

>  <s_m_source_file>  (1) 
generated__ligand_Pocket2Mol_2026-05-06_prepared.sdf

>  <GenAI_Model>  (1) 
Pocket2Mol

>  <Protein>  (1) 
GPCR_5HT2C

$$$$
Pocket2Mol_25_num_sample_100
     RDKit          3D

  0  0  0  0  0  0  0  0  0  0999 V3000
M  V30 BEGIN CTAB
M  V30 COUNTS 16 15 0 0 1
M  V30 BEGIN ATOM
M  V30 1 C 38.517701 27.897790 52.728361 0
M  V30 2 O 38.667479 28.696324 51.566688 0
M  V30 3 C 39.608909 28.167571 50.653500 0
M  V30 4 C 37.483236 28.562205 53.639775 0
M  V30 5 O 38.053472 29.716883 54.234392 0
M  V30 6 C 37.138751 30.427833 55.053438 0
M  V30 7 H 38.167561 26.905416 52.439979 0
M  V30 8 H 39.467403 27.774307 53.250015 0
M  V30 9 H 39.672367 28.821118 49.783361 0
M  V30 10 H 39.314794 27.174636 50.310541 0
M  V30 11 H 40.600616 28.109158 51.102759 0
M  V30 12 H 36.603535 28.820471 53.053482 0
M  V30 13 H 37.172590 27.865975 54.419787 0
M  V30 14 H 37.623047 31.316699 55.457327 0
M  V30 15 H 36.265538 30.757340 54.490475 0
M  V30 16 H 36.803087 29.821601 55.894781 0
M  V30 END ATOM
M  V30 BEGIN BOND
M  V30 1 1 2 1
M  V30 2 1 3 2
M  V30 3 1 4 1
M  V30 4 1 5 4
M  V30 5 1 6 5
M  V30 6 1 7 1
M  V30 7 1 8 1
M  V30 8 1 9 3
M  V30 9 1 10 3
M  V30 10 1 11 3
M  V30 11 1 12 4
M  V30 12 1 13 4
M  V30 13 1 14 6
M  V30 14 1 15 6
M  V30 15 1 16 6
M  V30 END BOND
M  V30 END CTAB
M  END
>  <i_epik_Tot_Q>  (1) 
0

>  <i_epik_Tot_abs_Q>  (1) 
0

>  <i_i_glide_confnum>  (1) 
3

>  <i_i_glide_lignum>  (1) 
28

>  <i_i_glide_posenum>  (1) 
114

>  <i_i_glide_rotatable_bonds>  (1) 
3

>  <i_lp_mmshare_version>  (1) 
72125

>  <i_m_source_file_index>  (1) 
26

>  <i_f3d_flags>  (1) 
0

>  <num_sample>  (1) 
100

>  <b_lp_Chiralities_Consistent>  (1) 
1

>  <r_epik_Charging_Adjusted_Penalty>  (1) 
0

>  <r_epik_Ionization_Penalty>  (1) 
3.8345288393749547e-12

>  <r_epik_Ionization_Penalty_Charging>  (1) 
0

>  <r_epik_Ionization_Penalty_Neutral>  (1) 
3.8345288393749547e-12

>  <r_epik_State_Penalty>  (1) 
-0

>  <r_glide_ring_energy>  (1) 
0

>  <r_i_docking_score>  (1) 
-2.5300917599861057

>  <r_i_glide_ecoul>  (1) 
-0.6728301378101772

>  <r_i_glide_eff_state_penalty>  (1) 
-0

>  <r_i_glide_einternal>  (1) 
0.0037579270590897274

>  <r_i_glide_emodel>  (1) 
-16.349830984969387

>  <r_i_glide_emodel_strain>  (1) 
0

>  <r_i_glide_energy>  (1) 
-14.073599639518738

>  <r_i_glide_erotb>  (1) 
1.4298651310552182

>  <r_i_glide_esite>  (1) 
0

>  <r_i_glide_evdw>  (1) 
-13.400769501708561

>  <r_i_glide_gscore>  (1) 
-2.5300917599861057

>  <r_i_glide_gscore_strain>  (1) 
0

>  <r_i_glide_hbond>  (1) 
0

>  <r_i_glide_ligand_efficiency>  (1) 
-0.42168195999768426

>  <r_i_glide_ligand_efficiency_ln>  (1) 
-0.90627139904918008

>  <r_i_glide_ligand_efficiency_sa>  (1) 
-0.7662469731376107

>  <r_i_glide_lipo>  (1) 
-0.93899389528436927

>  <r_i_glide_metal>  (1) 
-0

>  <r_i_glide_rewards>  (1) 
-2.25

>  <r_lp_Energy>  (1) 
5.9407059999999996

>  <r_lp_tautomer_probability>  (1) 
1

>  <s_epik_cmdline>  (1) 
J2VwaWtfcHl0aG9uJywgJy1waHQnLCAnMS4wJywgJy1waCcsICc3LjQnLCAnLXRuJywgJzgnLCAnLW1hJywgJzUwMCcsICctaW1hZScsICc8aW5maWxlLm1hZT4nLCAnLW9tYWUnLCAnPG91dGZpbGUubWFlPic=

>  <s_epik_input>  (1) 
W0NIM11PW0NIMl1bQ0gyXU9bQ0gzXQ==

>  <s_glide_docking_method>  (1) 
confgen

>  <s_i_glide_gridfile>  (1) 
gpcr_5ht2c_6bqh_protein_autoprepared_prepared

>  <s_lp_Force_Field>  (1) 
S-OPLS

>  <s_lp_Variant>  (1) 
Pocket2Mol_25_num_sample_100-1

>  <s_m_source_file>  (1) 
generated__ligand_Pocket2Mol_2026-05-06_prepared.sdf

>  <GenAI_Model>  (1) 
Pocket2Mol

>  <Protein>  (1) 
GPCR_5HT2C

$$$$
Pocket2Mol_62_num_sample_100
     RDKit          3D

  0  0  0  0  0  0  0  0  0  0999 V3000
M  V30 BEGIN CTAB
M  V30 COUNTS 20 19 0 0 1
M  V30 BEGIN ATOM
M  V30 1 C 39.512959 29.092959 51.609764 0
M  V30 2 C 40.311365 30.130115 50.799951 0
M  V30 3 O 39.067911 29.696915 52.822774 0
M  V30 4 C 38.241033 28.964026 53.683121 0
M  V30 5 O 39.473648 30.956052 50.016048 0
M  V30 6 O 37.117261 28.421426 53.026570 0
M  V30 7 C 37.731717 29.964391 54.731670 0
M  V30 8 C 39.038180 27.836341 54.363888 0
M  V30 9 H 38.688425 28.700117 51.013001 0
M  V30 10 H 40.168832 28.255578 51.846708 0
M  V30 11 H 40.995281 29.621561 50.121585 0
M  V30 12 H 40.917667 30.755013 51.453501 0
M  V30 13 H 38.872444 30.421268 49.507227 0
M  V30 14 H 37.411545 27.714855 52.471276 0
M  V30 15 H 37.162975 30.762531 54.253431 0
M  V30 16 H 37.084986 29.465851 55.454183 0
M  V30 17 H 38.570165 30.413253 55.264791 0
M  V30 18 H 39.423152 27.124417 53.634771 0
M  V30 19 H 39.866051 28.252791 54.939842 0
M  V30 20 H 38.389012 27.296464 55.054685 0
M  V30 END ATOM
M  V30 BEGIN BOND
M  V30 1 1 2 1
M  V30 2 1 3 1
M  V30 3 1 4 3
M  V30 4 1 5 2
M  V30 5 1 6 4
M  V30 6 1 7 4
M  V30 7 1 8 4
M  V30 8 1 9 1
M  V30 9 1 10 1
M  V30 10 1 11 2
M  V30 11 1 12 2
M  V30 12 1 13 5
M  V30 13 1 14 6
M  V30 14 1 15 7
M  V30 15 1 16 7
M  V30 16 1 17 7
M  V30 17 1 18 8
M  V30 18 1 19 8
M  V30 19 1 20 8
M  V30 END BOND
M  V30 END CTAB
M  END
>  <i_epik_Tot_Q>  (1) 
0

>  <i_epik_Tot_abs_Q>  (1) 
0

>  <i_i_glide_confnum>  (1) 
8

>  <i_i_glide_lignum>  (1) 
66

>  <i_i_glide_posenum>  (1) 
181

>  <i_i_glide_rotatable_bonds>  (1) 
5

>  <i_lp_mmshare_version>  (1) 
72125

>  <i_m_source_file_index>  (1) 
63

>  <i_f3d_flags>  (1) 
0

>  <num_sample>  (1) 
100

>  <b_lp_Chiralities_Consistent>  (1) 
1

>  <r_epik_Charging_Adjusted_Penalty>  (1) 
0

>  <r_epik_Ionization_Penalty>  (1) 
6.4082053832503559e-07

>  <r_epik_Ionization_Penalty_Charging>  (1) 
0

>  <r_epik_Ionization_Penalty_Neutral>  (1) 
6.4082053832503559e-07

>  <r_epik_State_Penalty>  (1) 
-0

>  <r_glide_ring_energy>  (1) 
0

>  <r_i_docking_score>  (1) 
-2.4962190396771575

>  <r_i_glide_ecoul>  (1) 
-4.6579288818653506

>  <r_i_glide_eff_state_penalty>  (1) 
-0

>  <r_i_glide_einternal>  (1) 
2.6983697179079211

>  <r_i_glide_emodel>  (1) 
-19.185096159602786

>  <r_i_glide_emodel_strain>  (1) 
0

>  <r_i_glide_energy>  (1) 
-17.734606912765251

>  <r_i_glide_erotb>  (1) 
2.7787352151322811

>  <r_i_glide_esite>  (1) 
0

>  <r_i_glide_evdw>  (1) 
-13.076678030899901

>  <r_i_glide_gscore>  (1) 
-2.4962190396771575

>  <r_i_glide_gscore_strain>  (1) 
0

>  <r_i_glide_hbond>  (1) 
-0.32000000000000001

>  <r_i_glide_ligand_efficiency>  (1) 
-0.31202737995964469

>  <r_i_glide_ligand_efficiency_ln>  (1) 
-0.8106077046409752

>  <r_i_glide_ligand_efficiency_sa>  (1) 
-0.62405475991928949

>  <r_i_glide_lipo>  (1) 
-0.94410492097150467

>  <r_i_glide_metal>  (1) 
-0

>  <r_i_glide_rewards>  (1) 
-2.6583261000131362

>  <r_lp_Energy>  (1) 
2.7008749999999999

>  <r_lp_tautomer_probability>  (1) 
1

>  <s_epik_cmdline>  (1) 
J2VwaWtfcHl0aG9uJywgJy1waHQnLCAnMS4wJywgJy1waCcsICc3LjQnLCAnLXRuJywgJzgnLCAnLW1hJywgJzUwMCcsICctaW1hZScsICc8aW5maWxlLm1hZT4nLCAnLW9tYWUnLCAnPG91dGZpbGUubWFlPic=

>  <s_epik_input>  (1) 
W09IXVtDSDJdW0NIMl1PQyhbT0hdKShbQ0gzXSlbQ0gzXQ==

>  <s_glide_docking_method>  (1) 
confgen

>  <s_i_glide_gridfile>  (1) 
gpcr_5ht2c_6bqh_protein_autoprepared_prepared

>  <s_lp_Force_Field>  (1) 
S-OPLS

>  <s_lp_Variant>  (1) 
Pocket2Mol_62_num_sample_100-1

>  <s_m_source_file>  (1) 
generated__ligand_Pocket2Mol_2026-05-06_prepared.sdf

>  <GenAI_Model>  (1) 
Pocket2Mol

>  <Protein>  (1) 
GPCR_5HT2C

$$$$
Pocket2Mol_6_num_sample_100
     RDKit          3D

  0  0  0  0  0  0  0  0  0  0999 V3000
M  V30 BEGIN CTAB
M  V30 COUNTS 11 10 0 0 1
M  V30 BEGIN ATOM
M  V30 1 C 38.138606 32.833367 61.173137 0
M  V30 2 O 36.974314 33.292101 60.509223 0
M  V30 3 C 35.823244 32.620532 60.656554 0
M  V30 4 O 35.670541 31.621433 61.360780 0
M  V30 5 C 34.678135 33.221430 59.853494 0
M  V30 6 H 38.976249 33.493149 60.947335 0
M  V30 7 H 38.399317 31.826292 60.845490 0
M  V30 8 H 37.993736 32.821745 62.253913 0
M  V30 9 H 35.010706 34.096403 59.294216 0
M  V30 10 H 34.294196 32.489425 59.142523 0
M  V30 11 H 33.867402 33.523305 60.515345 0
M  V30 END ATOM
M  V30 BEGIN BOND
M  V30 1 1 2 1
M  V30 2 1 3 2
M  V30 3 2 4 3
M  V30 4 1 5 3
M  V30 5 1 6 1
M  V30 6 1 7 1
M  V30 7 1 8 1
M  V30 8 1 9 5
M  V30 9 1 10 5
M  V30 10 1 11 5
M  V30 END BOND
M  V30 END CTAB
M  END
>  <i_epik_Tot_Q>  (1) 
0

>  <i_epik_Tot_abs_Q>  (1) 
0

>  <i_i_glide_confnum>  (1) 
1

>  <i_i_glide_lignum>  (1) 
9

>  <i_i_glide_posenum>  (1) 
374

>  <i_i_glide_rotatable_bonds>  (1) 
1

>  <i_lp_mmshare_version>  (1) 
72125

>  <i_m_source_file_index>  (1) 
7

>  <i_f3d_flags>  (1) 
0

>  <num_sample>  (1) 
100

>  <b_lp_Chiralities_Consistent>  (1) 
1

>  <r_epik_Charging_Adjusted_Penalty>  (1) 
0

>  <r_epik_Ionization_Penalty>  (1) 
0

>  <r_epik_Ionization_Penalty_Charging>  (1) 
0

>  <r_epik_Ionization_Penalty_Neutral>  (1) 
0

>  <r_epik_State_Penalty>  (1) 
-0

>  <r_glide_ring_energy>  (1) 
0

>  <r_i_docking_score>  (1) 
-2.181185201573026

>  <r_i_glide_ecoul>  (1) 
-2.4294960534174326

>  <r_i_glide_eff_state_penalty>  (1) 
-0

>  <r_i_glide_einternal>  (1) 
0.011883439870896129

>  <r_i_glide_emodel>  (1) 
-14.792502255117604

>  <r_i_glide_emodel_strain>  (1) 
0

>  <r_i_glide_energy>  (1) 
-12.781320046977255

>  <r_i_glide_erotb>  (1) 
1.8998339649575009

>  <r_i_glide_esite>  (1) 
-0.0072944820411964852

>  <r_i_glide_evdw>  (1) 
-10.351823993559822

>  <r_i_glide_gscore>  (1) 
-2.181185201573026

>  <r_i_glide_gscore_strain>  (1) 
0

>  <r_i_glide_hbond>  (1) 
-0.32000000000000001

>  <r_i_glide_ligand_efficiency>  (1) 
-0.4362370403146052

>  <r_i_glide_ligand_efficiency_ln>  (1) 
-0.83588315751050091

>  <r_i_glide_ligand_efficiency_sa>  (1) 
-0.74595484598740747

>  <r_i_glide_lipo>  (1) 
-0.12171147931597837

>  <r_i_glide_metal>  (1) 
-0

>  <r_i_glide_rewards>  (1) 
-2.7499975974827455

>  <r_lp_Energy>  (1) 
-0.092307

>  <r_lp_tautomer_probability>  (1) 
1

>  <s_epik_Chemistry_Notes>  (1) 
This compound has an ester and may undergo hydrolysis at high or low pH.

>  <s_epik_cmdline>  (1) 
J2VwaWtfcHl0aG9uJywgJy1waHQnLCAnMS4wJywgJy1waCcsICc3LjQnLCAnLXRuJywgJzgnLCAnLW1hJywgJzUwMCcsICctaW1hZScsICc8aW5maWxlLm1hZT4nLCAnLW9tYWUnLCAnPG91dGZpbGUubWFlPic=

>  <s_epik_input>  (1) 
W0NIM11PQyg9TylbQ0gzXQ==

>  <s_glide_docking_method>  (1) 
confgen

>  <s_i_glide_gridfile>  (1) 
gpcr_5ht2c_6bqh_protein_autoprepared_prepared

>  <s_lp_Force_Field>  (1) 
S-OPLS

>  <s_lp_Variant>  (1) 
Pocket2Mol_6_num_sample_100-1

>  <s_m_source_file>  (1) 
generated__ligand_Pocket2Mol_2026-05-06_prepared.sdf

>  <GenAI_Model>  (1) 
Pocket2Mol

>  <Protein>  (1) 
GPCR_5HT2C

$$$$
Pocket2Mol_6_num_sample_100
     RDKit          3D

  0  0  0  0  0  0  0  0  0  0999 V3000
M  V30 BEGIN CTAB
M  V30 COUNTS 11 10 0 0 1
M  V30 BEGIN ATOM
M  V30 1 C 34.267402 33.221430 59.453502 0
M  V30 2 O 35.602663 33.425893 59.877874 0
M  V30 3 C 36.157814 32.576164 60.752174 0
M  V30 4 O 35.584003 31.621428 61.277771 0
M  V30 5 C 37.613534 32.903616 61.054124 0
M  V30 6 H 34.017799 33.933525 58.666899 0
M  V30 7 H 33.566944 33.367237 60.274380 0
M  V30 8 H 34.134553 32.215393 59.053503 0
M  V30 9 H 37.942247 33.773576 60.485164 0
M  V30 10 H 37.740082 33.115338 62.115300 0
M  V30 11 H 38.249619 32.058713 60.791323 0
M  V30 END ATOM
M  V30 BEGIN BOND
M  V30 1 1 2 1
M  V30 2 1 3 2
M  V30 3 2 4 3
M  V30 4 1 5 3
M  V30 5 1 6 1
M  V30 6 1 7 1
M  V30 7 1 8 1
M  V30 8 1 9 5
M  V30 9 1 10 5
M  V30 10 1 11 5
M  V30 END BOND
M  V30 END CTAB
M  END
>  <i_epik_Tot_Q>  (1) 
0

>  <i_epik_Tot_abs_Q>  (1) 
0

>  <i_i_glide_confnum>  (1) 
1

>  <i_i_glide_lignum>  (1) 
9

>  <i_i_glide_posenum>  (1) 
337

>  <i_i_glide_rotatable_bonds>  (1) 
1

>  <i_lp_mmshare_version>  (1) 
72125

>  <i_m_source_file_index>  (1) 
7

>  <i_f3d_flags>  (1) 
0

>  <num_sample>  (1) 
100

>  <b_lp_Chiralities_Consistent>  (1) 
1

>  <r_epik_Charging_Adjusted_Penalty>  (1) 
0

>  <r_epik_Ionization_Penalty>  (1) 
0

>  <r_epik_Ionization_Penalty_Charging>  (1) 
0

>  <r_epik_Ionization_Penalty_Neutral>  (1) 
0

>  <r_epik_State_Penalty>  (1) 
-0

>  <r_glide_ring_energy>  (1) 
0

>  <r_i_docking_score>  (1) 
-2.1139788262224135

>  <r_i_glide_ecoul>  (1) 
-2.0404458336976261

>  <r_i_glide_eff_state_penalty>  (1) 
-0

>  <r_i_glide_einternal>  (1) 
0.0011408440056296376

>  <r_i_glide_emodel>  (1) 
-14.806636320663685

>  <r_i_glide_emodel_strain>  (1) 
0.056393076525153241

>  <r_i_glide_energy>  (1) 
-12.908627233304129

>  <r_i_glide_erotb>  (1) 
1.8998339649575009

>  <r_i_glide_esite>  (1) 
-0.0053751241504993667

>  <r_i_glide_evdw>  (1) 
-10.868181399606502

>  <r_i_glide_gscore>  (1) 
-2.1139788262224135

>  <r_i_glide_gscore_strain>  (1) 
0

>  <r_i_glide_hbond>  (1) 
-0.31697813344678744

>  <r_i_glide_ligand_efficiency>  (1) 
-0.4227957652444827

>  <r_i_glide_ligand_efficiency_ln>  (1) 
-0.81012804180900411

>  <r_i_glide_ligand_efficiency_sa>  (1) 
-0.7229705889248329

>  <r_i_glide_lipo>  (1) 
-0.092002754522636981

>  <r_i_glide_metal>  (1) 
-0

>  <r_i_glide_rewards>  (1) 
-2.7499808340250214

>  <r_lp_Energy>  (1) 
-0.092307

>  <r_lp_tautomer_probability>  (1) 
1

>  <s_epik_Chemistry_Notes>  (1) 
This compound has an ester and may undergo hydrolysis at high or low pH.

>  <s_epik_cmdline>  (1) 
J2VwaWtfcHl0aG9uJywgJy1waHQnLCAnMS4wJywgJy1waCcsICc3LjQnLCAnLXRuJywgJzgnLCAnLW1hJywgJzUwMCcsICctaW1hZScsICc8aW5maWxlLm1hZT4nLCAnLW9tYWUnLCAnPG91dGZpbGUubWFlPic=

>  <s_epik_input>  (1) 
W0NIM11PQyg9TylbQ0gzXQ==

>  <s_glide_docking_method>  (1) 
confgen

>  <s_i_glide_gridfile>  (1) 
gpcr_5ht2c_6bqh_protein_autoprepared_prepared

>  <s_lp_Force_Field>  (1) 
S-OPLS

>  <s_lp_Variant>  (1) 
Pocket2Mol_6_num_sample_100-1

>  <s_m_source_file>  (1) 
generated__ligand_Pocket2Mol_2026-05-06_prepared.sdf

>  <GenAI_Model>  (1) 
Pocket2Mol

>  <Protein>  (1) 
GPCR_5HT2C

$$$$
Pocket2Mol_62_num_sample_100
     RDKit          3D

  0  0  0  0  0  0  0  0  0  0999 V3000
M  V30 BEGIN CTAB
M  V30 COUNTS 20 19 0 0 1
M  V30 BEGIN ATOM
M  V30 1 C 39.633340 29.553880 51.967418 0
M  V30 2 C 40.280774 30.363683 50.831750 0
M  V30 3 O 39.395918 30.433928 53.062044 0
M  V30 4 C 38.702171 29.958618 54.184145 0
M  V30 5 O 40.267376 29.621434 49.631769 0
M  V30 6 O 37.544796 29.221439 53.853529 0
M  V30 7 C 38.257506 31.208459 54.955079 0
M  V30 8 C 39.630064 29.095924 55.053509 0
M  V30 9 H 38.688169 29.145769 51.606997 0
M  V30 10 H 40.265219 28.714393 52.253377 0
M  V30 11 H 41.307778 30.638958 51.068864 0
M  V30 12 H 39.732343 31.291695 50.665486 0
M  V30 13 H 39.370459 29.577982 49.321909 0
M  V30 14 H 37.819974 28.387400 53.505248 0
M  V30 15 H 37.609939 31.825007 54.330048 0
M  V30 16 H 37.704084 30.927301 55.852555 0
M  V30 17 H 39.126273 31.800017 55.246006 0
M  V30 18 H 39.867333 28.154804 54.560422 0
M  V30 19 H 40.554385 29.634929 55.261763 0
M  V30 20 H 39.141472 28.865779 56.000990 0
M  V30 END ATOM
M  V30 BEGIN BOND
M  V30 1 1 2 1
M  V30 2 1 3 1
M  V30 3 1 4 3
M  V30 4 1 5 2
M  V30 5 1 6 4
M  V30 6 1 7 4
M  V30 7 1 8 4
M  V30 8 1 9 1
M  V30 9 1 10 1
M  V30 10 1 11 2
M  V30 11 1 12 2
M  V30 12 1 13 5
M  V30 13 1 14 6
M  V30 14 1 15 7
M  V30 15 1 16 7
M  V30 16 1 17 7
M  V30 17 1 18 8
M  V30 18 1 19 8
M  V30 19 1 20 8
M  V30 END BOND
M  V30 END CTAB
M  END
>  <i_epik_Tot_Q>  (1) 
0

>  <i_epik_Tot_abs_Q>  (1) 
0

>  <i_i_glide_confnum>  (1) 
1

>  <i_i_glide_lignum>  (1) 
66

>  <i_i_glide_posenum>  (1) 
306

>  <i_i_glide_rotatable_bonds>  (1) 
5

>  <i_lp_mmshare_version>  (1) 
72125

>  <i_m_source_file_index>  (1) 
63

>  <i_f3d_flags>  (1) 
0

>  <num_sample>  (1) 
100

>  <b_lp_Chiralities_Consistent>  (1) 
1

>  <r_epik_Charging_Adjusted_Penalty>  (1) 
0

>  <r_epik_Ionization_Penalty>  (1) 
6.4082053832503559e-07

>  <r_epik_Ionization_Penalty_Charging>  (1) 
0

>  <r_epik_Ionization_Penalty_Neutral>  (1) 
6.4082053832503559e-07

>  <r_epik_State_Penalty>  (1) 
-0

>  <r_glide_ring_energy>  (1) 
0

>  <r_i_docking_score>  (1) 
-1.9362283210749949

>  <r_i_glide_ecoul>  (1) 
-2.8624345022651583

>  <r_i_glide_eff_state_penalty>  (1) 
-0

>  <r_i_glide_einternal>  (1) 
1.4513895653143067

>  <r_i_glide_emodel>  (1) 
-19.082121071794731

>  <r_i_glide_emodel_strain>  (1) 
0.0053104533225150075

>  <r_i_glide_energy>  (1) 
-17.641518685506245

>  <r_i_glide_erotb>  (1) 
2.7787352151322811

>  <r_i_glide_esite>  (1) 
0

>  <r_i_glide_evdw>  (1) 
-14.779084183241087

>  <r_i_glide_gscore>  (1) 
-1.9362283210749949

>  <r_i_glide_gscore_strain>  (1) 
0

>  <r_i_glide_hbond>  (1) 
-0.27238227113200225

>  <r_i_glide_ligand_efficiency>  (1) 
-0.24202854013437436

>  <r_i_glide_ligand_efficiency_ln>  (1) 
-0.62875956398859978

>  <r_i_glide_ligand_efficiency_sa>  (1) 
-0.48405708026874877

>  <r_i_glide_lipo>  (1) 
-0.73836060850445873

>  <r_i_glide_metal>  (1) 
-0

>  <r_i_glide_rewards>  (1) 
-2.5359012720689869

>  <r_lp_Energy>  (1) 
2.7008749999999999

>  <r_lp_tautomer_probability>  (1) 
1

>  <s_epik_cmdline>  (1) 
J2VwaWtfcHl0aG9uJywgJy1waHQnLCAnMS4wJywgJy1waCcsICc3LjQnLCAnLXRuJywgJzgnLCAnLW1hJywgJzUwMCcsICctaW1hZScsICc8aW5maWxlLm1hZT4nLCAnLW9tYWUnLCAnPG91dGZpbGUubWFlPic=

>  <s_epik_input>  (1) 
W09IXVtDSDJdW0NIMl1PQyhbT0hdKShbQ0gzXSlbQ0gzXQ==

>  <s_glide_docking_method>  (1) 
confgen

>  <s_i_glide_gridfile>  (1) 
gpcr_5ht2c_6bqh_protein_autoprepared_prepared

>  <s_lp_Force_Field>  (1) 
S-OPLS

>  <s_lp_Variant>  (1) 
Pocket2Mol_62_num_sample_100-1

>  <s_m_source_file>  (1) 
generated__ligand_Pocket2Mol_2026-05-06_prepared.sdf

>  <GenAI_Model>  (1) 
Pocket2Mol

>  <Protein>  (1) 
GPCR_5HT2C

$$$$
Pocket2Mol_33_num_sample_100
     RDKit          3D

  0  0  0  0  0  0  0  0  0  0999 V3000
M  V30 BEGIN CTAB
M  V30 COUNTS 10 9 0 0 1
M  V30 BEGIN ATOM
M  V30 1 C 38.897595 27.727477 51.285109 0
M  V30 2 O 38.922129 27.221430 52.600888 0
M  V30 3 C 39.846218 28.928631 51.176224 0
M  V30 4 O 39.867403 29.420282 49.853502 0
M  V30 5 H 39.184171 26.936380 50.590007 0
M  V30 6 H 37.873824 28.021429 51.053502 0
M  V30 7 H 38.244974 26.564787 52.677521 0
M  V30 8 H 39.536454 29.727069 51.851781 0
M  V30 9 H 40.861518 28.643593 51.453502 0
M  V30 10 H 38.980217 29.621428 49.573718 0
M  V30 END ATOM
M  V30 BEGIN BOND
M  V30 1 1 2 1
M  V30 2 1 3 1
M  V30 3 1 4 3
M  V30 4 1 5 1
M  V30 5 1 6 1
M  V30 6 1 7 2
M  V30 7 1 8 3
M  V30 8 1 9 3
M  V30 9 1 10 4
M  V30 END BOND
M  V30 END CTAB
M  END
>  <i_epik_Tot_Q>  (1) 
0

>  <i_epik_Tot_abs_Q>  (1) 
0

>  <i_i_glide_confnum>  (1) 
1

>  <i_i_glide_lignum>  (1) 
36

>  <i_i_glide_posenum>  (1) 
380

>  <i_i_glide_rotatable_bonds>  (1) 
3

>  <i_lp_mmshare_version>  (1) 
72125

>  <i_m_source_file_index>  (1) 
34

>  <i_f3d_flags>  (1) 
0

>  <num_sample>  (1) 
100

>  <b_lp_Chiralities_Consistent>  (1) 
1

>  <r_epik_Charging_Adjusted_Penalty>  (1) 
0

>  <r_epik_Ionization_Penalty>  (1) 
1.0539797431440594e-07

>  <r_epik_Ionization_Penalty_Charging>  (1) 
0

>  <r_epik_Ionization_Penalty_Neutral>  (1) 
1.0539797431440594e-07

>  <r_epik_State_Penalty>  (1) 
-0

>  <r_glide_ring_energy>  (1) 
0

>  <r_i_docking_score>  (1) 
-1.8662825219372792

>  <r_i_glide_ecoul>  (1) 
-3.6989839225111738

>  <r_i_glide_eff_state_penalty>  (1) 
-0

>  <r_i_glide_einternal>  (1) 
0.40647435358173828

>  <r_i_glide_emodel>  (1) 
-16.079035101564774

>  <r_i_glide_emodel_strain>  (1) 
0

>  <r_i_glide_energy>  (1) 
-14.038133886345829

>  <r_i_glide_erotb>  (1) 
2.43552256463113

>  <r_i_glide_esite>  (1) 
0

>  <r_i_glide_evdw>  (1) 
-10.339149963834656

>  <r_i_glide_gscore>  (1) 
-1.8662825219372792

>  <r_i_glide_gscore_strain>  (1) 
0

>  <r_i_glide_hbond>  (1) 
-0.32000000000000001

>  <r_i_glide_ligand_efficiency>  (1) 
-0.46657063048431979

>  <r_i_glide_ligand_efficiency_ln>  (1) 
-0.782083950892559

>  <r_i_glide_ligand_efficiency_sa>  (1) 
-0.74063470964827527

>  <r_i_glide_lipo>  (1) 
-0.66000000000000003

>  <r_i_glide_metal>  (1) 
-0

>  <r_i_glide_rewards>  (1) 
-2.25

>  <r_lp_Energy>  (1) 
2.5073979999999998

>  <r_lp_tautomer_probability>  (1) 
1

>  <s_epik_cmdline>  (1) 
J2VwaWtfcHl0aG9uJywgJy1waHQnLCAnMS4wJywgJy1waCcsICc3LjQnLCAnLXRuJywgJzgnLCAnLW1hJywgJzUwMCcsICctaW1hZScsICc8aW5maWxlLm1hZT4nLCAnLW9tYWUnLCAnPG91dGZpbGUubWFlPic=

>  <s_epik_input>  (1) 
W09IXVtDSDJdW0NIMl1bT0hd

>  <s_glide_docking_method>  (1) 
confgen

>  <s_i_glide_gridfile>  (1) 
gpcr_5ht2c_6bqh_protein_autoprepared_prepared

>  <s_lp_Force_Field>  (1) 
S-OPLS

>  <s_lp_Variant>  (1) 
Pocket2Mol_33_num_sample_100-1

>  <s_m_source_file>  (1) 
generated__ligand_Pocket2Mol_2026-05-06_prepared.sdf

>  <GenAI_Model>  (1) 
Pocket2Mol

>  <Protein>  (1) 
GPCR_5HT2C

$$$$
Pocket2Mol_6_num_sample_100
     RDKit          3D

  0  0  0  0  0  0  0  0  0  0999 V3000
M  V30 BEGIN CTAB
M  V30 COUNTS 11 10 0 0 1
M  V30 BEGIN ATOM
M  V30 1 C 36.030607 34.054510 60.144138 0
M  V30 2 O 36.415196 32.829070 59.552261 0
M  V30 3 C 36.350323 31.695919 60.265605 0
M  V30 4 O 36.031102 31.621427 61.453498 0
M  V30 5 C 36.721342 30.462439 59.454492 0
M  V30 6 H 36.137690 34.863055 59.420439 0
M  V30 7 H 36.651045 34.285984 61.011406 0
M  V30 8 H 34.986829 34.017802 60.459013 0
M  V30 9 H 36.961491 30.736183 58.426141 0
M  V30 10 H 37.583239 29.961906 59.893214 0
M  V30 11 H 35.884313 29.765541 59.431377 0
M  V30 END ATOM
M  V30 BEGIN BOND
M  V30 1 1 2 1
M  V30 2 1 3 2
M  V30 3 2 4 3
M  V30 4 1 5 3
M  V30 5 1 6 1
M  V30 6 1 7 1
M  V30 7 1 8 1
M  V30 8 1 9 5
M  V30 9 1 10 5
M  V30 10 1 11 5
M  V30 END BOND
M  V30 END CTAB
M  END
>  <i_epik_Tot_Q>  (1) 
0

>  <i_epik_Tot_abs_Q>  (1) 
0

>  <i_i_glide_confnum>  (1) 
1

>  <i_i_glide_lignum>  (1) 
9

>  <i_i_glide_posenum>  (1) 
226

>  <i_i_glide_rotatable_bonds>  (1) 
1

>  <i_lp_mmshare_version>  (1) 
72125

>  <i_m_source_file_index>  (1) 
7

>  <i_f3d_flags>  (1) 
0

>  <num_sample>  (1) 
100

>  <b_lp_Chiralities_Consistent>  (1) 
1

>  <r_epik_Charging_Adjusted_Penalty>  (1) 
0

>  <r_epik_Ionization_Penalty>  (1) 
0

>  <r_epik_Ionization_Penalty_Charging>  (1) 
0

>  <r_epik_Ionization_Penalty_Neutral>  (1) 
0

>  <r_epik_State_Penalty>  (1) 
-0

>  <r_glide_ring_energy>  (1) 
0

>  <r_i_docking_score>  (1) 
-1.7770307356089234

>  <r_i_glide_ecoul>  (1) 
-2.8709046328700274

>  <r_i_glide_eff_state_penalty>  (1) 
-0

>  <r_i_glide_einternal>  (1) 
0.048298464120480888

>  <r_i_glide_emodel>  (1) 
-13.997082540423726

>  <r_i_glide_emodel_strain>  (1) 
0

>  <r_i_glide_energy>  (1) 
-12.37786319693255

>  <r_i_glide_erotb>  (1) 
1.8998339649575009

>  <r_i_glide_esite>  (1) 
-0.067556636685368238

>  <r_i_glide_evdw>  (1) 
-9.506958564062522

>  <r_i_glide_gscore>  (1) 
-1.7770307356089234

>  <r_i_glide_gscore_strain>  (1) 
0

>  <r_i_glide_hbond>  (1) 
-0.32000000000000001

>  <r_i_glide_ligand_efficiency>  (1) 
-0.3554061471217847

>  <r_i_glide_ligand_efficiency_ln>  (1) 
-0.68100134789231204

>  <r_i_glide_ligand_efficiency_sa>  (1) 
-0.60773596287929121

>  <r_i_glide_lipo>  (1) 
-0.13338584341489637

>  <r_i_glide_metal>  (1) 
-0

>  <r_i_glide_rewards>  (1) 
-2.249938597332529

>  <r_lp_Energy>  (1) 
-0.092307

>  <r_lp_tautomer_probability>  (1) 
1

>  <s_epik_Chemistry_Notes>  (1) 
This compound has an ester and may undergo hydrolysis at high or low pH.

>  <s_epik_cmdline>  (1) 
J2VwaWtfcHl0aG9uJywgJy1waHQnLCAnMS4wJywgJy1waCcsICc3LjQnLCAnLXRuJywgJzgnLCAnLW1hJywgJzUwMCcsICctaW1hZScsICc8aW5maWxlLm1hZT4nLCAnLW9tYWUnLCAnPG91dGZpbGUubWFlPic=

>  <s_epik_input>  (1) 
W0NIM11PQyg9TylbQ0gzXQ==

>  <s_glide_docking_method>  (1) 
confgen

>  <s_i_glide_gridfile>  (1) 
gpcr_5ht2c_6bqh_protein_autoprepared_prepared

>  <s_lp_Force_Field>  (1) 
S-OPLS

>  <s_lp_Variant>  (1) 
Pocket2Mol_6_num_sample_100-1

>  <s_m_source_file>  (1) 
generated__ligand_Pocket2Mol_2026-05-06_prepared.sdf

>  <GenAI_Model>  (1) 
Pocket2Mol

>  <Protein>  (1) 
GPCR_5HT2C

$$$$
Pocket2Mol_6_num_sample_100
     RDKit          3D

  0  0  0  0  0  0  0  0  0  0999 V3000
M  V30 BEGIN CTAB
M  V30 COUNTS 11 10 0 0 1
M  V30 BEGIN ATOM
M  V30 1 C 37.951698 30.874485 55.053482 0
M  V30 2 O 37.623445 29.535407 54.719495 0
M  V30 3 C 38.228793 28.940581 53.680999 0
M  V30 4 O 39.083257 29.461069 52.964766 0
M  V30 5 C 37.748983 27.515199 53.453482 0
M  V30 6 H 37.467196 31.156394 55.988017 0
M  V30 7 H 37.614963 31.560493 54.275167 0
M  V30 8 H 39.027957 30.994606 55.183701 0
M  V30 9 H 36.667373 27.457406 53.571390 0
M  V30 10 H 38.002289 27.181815 52.446820 0
M  V30 11 H 38.215181 26.841541 54.171968 0
M  V30 END ATOM
M  V30 BEGIN BOND
M  V30 1 1 2 1
M  V30 2 1 3 2
M  V30 3 2 4 3
M  V30 4 1 5 3
M  V30 5 1 6 1
M  V30 6 1 7 1
M  V30 7 1 8 1
M  V30 8 1 9 5
M  V30 9 1 10 5
M  V30 10 1 11 5
M  V30 END BOND
M  V30 END CTAB
M  END
>  <i_epik_Tot_Q>  (1) 
0

>  <i_epik_Tot_abs_Q>  (1) 
0

>  <i_i_glide_confnum>  (1) 
2

>  <i_i_glide_lignum>  (1) 
9

>  <i_i_glide_posenum>  (1) 
219

>  <i_i_glide_rotatable_bonds>  (1) 
1

>  <i_lp_mmshare_version>  (1) 
72125

>  <i_m_source_file_index>  (1) 
7

>  <i_f3d_flags>  (1) 
0

>  <num_sample>  (1) 
100

>  <b_lp_Chiralities_Consistent>  (1) 
1

>  <r_epik_Charging_Adjusted_Penalty>  (1) 
0

>  <r_epik_Ionization_Penalty>  (1) 
0

>  <r_epik_Ionization_Penalty_Charging>  (1) 
0

>  <r_epik_Ionization_Penalty_Neutral>  (1) 
0

>  <r_epik_State_Penalty>  (1) 
-0

>  <r_glide_ring_energy>  (1) 
0

>  <r_i_docking_score>  (1) 
-1.759100075526187

>  <r_i_glide_ecoul>  (1) 
-0.66706884956655532

>  <r_i_glide_eff_state_penalty>  (1) 
-0

>  <r_i_glide_einternal>  (1) 
0.0044485011555608356

>  <r_i_glide_emodel>  (1) 
-13.737536475614787

>  <r_i_glide_emodel_strain>  (1) 
0.00048417654599086646

>  <r_i_glide_energy>  (1) 
-12.113458304486912

>  <r_i_glide_erotb>  (1) 
1.8998339649575009

>  <r_i_glide_esite>  (1) 
0

>  <r_i_glide_evdw>  (1) 
-11.446389454920356

>  <r_i_glide_gscore>  (1) 
-1.759100075526187

>  <r_i_glide_gscore_strain>  (1) 
0

>  <r_i_glide_hbond>  (1) 
0

>  <r_i_glide_ligand_efficiency>  (1) 
-0.35182001510523742

>  <r_i_glide_ligand_efficiency_ln>  (1) 
-0.67412988335303481

>  <r_i_glide_ligand_efficiency_sa>  (1) 
-0.60160376338938815

>  <r_i_glide_lipo>  (1) 
-0.32584837524209181

>  <r_i_glide_metal>  (1) 
-0

>  <r_i_glide_rewards>  (1) 
-2.6607058650605948

>  <r_lp_Energy>  (1) 
-0.092307

>  <r_lp_tautomer_probability>  (1) 
1

>  <s_epik_Chemistry_Notes>  (1) 
This compound has an ester and may undergo hydrolysis at high or low pH.

>  <s_epik_cmdline>  (1) 
J2VwaWtfcHl0aG9uJywgJy1waHQnLCAnMS4wJywgJy1waCcsICc3LjQnLCAnLXRuJywgJzgnLCAnLW1hJywgJzUwMCcsICctaW1hZScsICc8aW5maWxlLm1hZT4nLCAnLW9tYWUnLCAnPG91dGZpbGUubWFlPic=

>  <s_epik_input>  (1) 
W0NIM11PQyg9TylbQ0gzXQ==

>  <s_glide_docking_method>  (1) 
confgen

>  <s_i_glide_gridfile>  (1) 
gpcr_5ht2c_6bqh_protein_autoprepared_prepared

>  <s_lp_Force_Field>  (1) 
S-OPLS

>  <s_lp_Variant>  (1) 
Pocket2Mol_6_num_sample_100-1

>  <s_m_source_file>  (1) 
generated__ligand_Pocket2Mol_2026-05-06_prepared.sdf

>  <GenAI_Model>  (1) 
Pocket2Mol

>  <Protein>  (1) 
GPCR_5HT2C

$$$$
Pocket2Mol_33_num_sample_100
     RDKit          3D

  0  0  0  0  0  0  0  0  0  0999 V3000
M  V30 BEGIN CTAB
M  V30 COUNTS 10 9 0 0 1
M  V30 BEGIN ATOM
M  V30 1 C 39.778592 29.633465 51.816457 0
M  V30 2 O 39.867309 30.421429 52.984046 0
M  V30 3 C 40.421773 30.374980 50.637172 0
M  V30 4 O 40.267061 29.622313 49.454785 0
M  V30 5 H 40.281964 28.680163 51.987383 0
M  V30 6 H 38.733213 29.407002 51.613085 0
M  V30 7 H 39.467961 31.264248 52.825964 0
M  V30 8 H 39.955345 31.348777 50.494005 0
M  V30 9 H 41.483198 30.543199 50.819488 0
M  V30 10 H 39.347745 29.623343 49.214405 0
M  V30 END ATOM
M  V30 BEGIN BOND
M  V30 1 1 2 1
M  V30 2 1 3 1
M  V30 3 1 4 3
M  V30 4 1 5 1
M  V30 5 1 6 1
M  V30 6 1 7 2
M  V30 7 1 8 3
M  V30 8 1 9 3
M  V30 9 1 10 4
M  V30 END BOND
M  V30 END CTAB
M  END
>  <i_epik_Tot_Q>  (1) 
0

>  <i_epik_Tot_abs_Q>  (1) 
0

>  <i_i_glide_confnum>  (1) 
3

>  <i_i_glide_lignum>  (1) 
36

>  <i_i_glide_posenum>  (1) 
18

>  <i_i_glide_rotatable_bonds>  (1) 
3

>  <i_lp_mmshare_version>  (1) 
72125

>  <i_m_source_file_index>  (1) 
34

>  <i_f3d_flags>  (1) 
0

>  <num_sample>  (1) 
100

>  <b_lp_Chiralities_Consistent>  (1) 
1

>  <r_epik_Charging_Adjusted_Penalty>  (1) 
0

>  <r_epik_Ionization_Penalty>  (1) 
1.0539797431440594e-07

>  <r_epik_Ionization_Penalty_Charging>  (1) 
0

>  <r_epik_Ionization_Penalty_Neutral>  (1) 
1.0539797431440594e-07

>  <r_epik_State_Penalty>  (1) 
-0

>  <r_glide_ring_energy>  (1) 
0

>  <r_i_docking_score>  (1) 
-1.7267672928579918

>  <r_i_glide_ecoul>  (1) 
-3.0265107762302748

>  <r_i_glide_eff_state_penalty>  (1) 
-0

>  <r_i_glide_einternal>  (1) 
0.093129455579843423

>  <r_i_glide_emodel>  (1) 
-14.633728076915396

>  <r_i_glide_emodel_strain>  (1) 
0

>  <r_i_glide_energy>  (1) 
-12.603916516324848

>  <r_i_glide_erotb>  (1) 
2.43552256463113

>  <r_i_glide_esite>  (1) 
0

>  <r_i_glide_evdw>  (1) 
-9.5774057400945729

>  <r_i_glide_gscore>  (1) 
-1.7267672928579918

>  <r_i_glide_gscore_strain>  (1) 
0

>  <r_i_glide_hbond>  (1) 
-0.3194429540498519

>  <r_i_glide_ligand_efficiency>  (1) 
-0.43169182321449795

>  <r_i_glide_ligand_efficiency_ln>  (1) 
-0.72361872910248082

>  <r_i_glide_ligand_efficiency_sa>  (1) 
-0.68526805429676407

>  <r_i_glide_lipo>  (1) 
-0.66000000000000003

>  <r_i_glide_metal>  (1) 
-0

>  <r_i_glide_rewards>  (1) 
-2.25

>  <r_lp_Energy>  (1) 
2.5073979999999998

>  <r_lp_tautomer_probability>  (1) 
1

>  <s_epik_cmdline>  (1) 
J2VwaWtfcHl0aG9uJywgJy1waHQnLCAnMS4wJywgJy1waCcsICc3LjQnLCAnLXRuJywgJzgnLCAnLW1hJywgJzUwMCcsICctaW1hZScsICc8aW5maWxlLm1hZT4nLCAnLW9tYWUnLCAnPG91dGZpbGUubWFlPic=

>  <s_epik_input>  (1) 
W09IXVtDSDJdW0NIMl1bT0hd

>  <s_glide_docking_method>  (1) 
confgen

>  <s_i_glide_gridfile>  (1) 
gpcr_5ht2c_6bqh_protein_autoprepared_prepared

>  <s_lp_Force_Field>  (1) 
S-OPLS

>  <s_lp_Variant>  (1) 
Pocket2Mol_33_num_sample_100-1

>  <s_m_source_file>  (1) 
generated__ligand_Pocket2Mol_2026-05-06_prepared.sdf

>  <GenAI_Model>  (1) 
Pocket2Mol

>  <Protein>  (1) 
GPCR_5HT2C

$$$$
Pocket2Mol_6_num_sample_100
     RDKit          3D

  0  0  0  0  0  0  0  0  0  0999 V3000
M  V30 BEGIN CTAB
M  V30 COUNTS 11 10 0 0 1
M  V30 BEGIN ATOM
M  V30 1 C 35.067434 33.221382 60.670356 0
M  V30 2 O 35.572153 32.181908 59.853517 0
M  V30 3 C 36.534769 31.379570 60.322878 0
M  V30 4 O 37.020015 31.440383 61.453470 0
M  V30 5 C 36.994141 30.344071 59.305628 0
M  V30 6 H 34.263939 33.741210 60.148905 0
M  V30 7 H 35.847912 33.946277 60.904327 0
M  V30 8 H 34.667541 32.826541 61.605144 0
M  V30 9 H 36.416520 30.421196 58.383629 0
M  V30 10 H 38.046514 30.493385 59.065777 0
M  V30 11 H 36.867914 29.339686 59.707781 0
M  V30 END ATOM
M  V30 BEGIN BOND
M  V30 1 1 2 1
M  V30 2 1 3 2
M  V30 3 2 4 3
M  V30 4 1 5 3
M  V30 5 1 6 1
M  V30 6 1 7 1
M  V30 7 1 8 1
M  V30 8 1 9 5
M  V30 9 1 10 5
M  V30 10 1 11 5
M  V30 END BOND
M  V30 END CTAB
M  END
>  <i_epik_Tot_Q>  (1) 
0

>  <i_epik_Tot_abs_Q>  (1) 
0

>  <i_i_glide_confnum>  (1) 
1

>  <i_i_glide_lignum>  (1) 
9

>  <i_i_glide_posenum>  (1) 
296

>  <i_i_glide_rotatable_bonds>  (1) 
1

>  <i_lp_mmshare_version>  (1) 
72125

>  <i_m_source_file_index>  (1) 
7

>  <i_f3d_flags>  (1) 
0

>  <num_sample>  (1) 
100

>  <b_lp_Chiralities_Consistent>  (1) 
1

>  <r_epik_Charging_Adjusted_Penalty>  (1) 
0

>  <r_epik_Ionization_Penalty>  (1) 
0

>  <r_epik_Ionization_Penalty_Charging>  (1) 
0

>  <r_epik_Ionization_Penalty_Neutral>  (1) 
0

>  <r_epik_State_Penalty>  (1) 
-0

>  <r_glide_ring_energy>  (1) 
0

>  <r_i_docking_score>  (1) 
-1.7171540429742245

>  <r_i_glide_ecoul>  (1) 
-2.0459986680049957

>  <r_i_glide_eff_state_penalty>  (1) 
-0

>  <r_i_glide_einternal>  (1) 
0.033603616012200854

>  <r_i_glide_emodel>  (1) 
-13.810888031344923

>  <r_i_glide_emodel_strain>  (1) 
0.052921865379012445

>  <r_i_glide_energy>  (1) 
-12.292616102257837

>  <r_i_glide_erotb>  (1) 
1.8998339649575009

>  <r_i_glide_esite>  (1) 
-0.062831313920906212

>  <r_i_glide_evdw>  (1) 
-10.24661743425284

>  <r_i_glide_gscore>  (1) 
-1.7171540429742245

>  <r_i_glide_gscore_strain>  (1) 
0

>  <r_i_glide_hbond>  (1) 
-0.32000000000000001

>  <r_i_glide_ligand_efficiency>  (1) 
-0.34343080859484487

>  <r_i_glide_ligand_efficiency_ln>  (1) 
-0.65805514467000759

>  <r_i_glide_ligand_efficiency_sa>  (1) 
-0.58725842204491341

>  <r_i_glide_lipo>  (1) 
-0.16493190720261208

>  <r_i_glide_metal>  (1) 
-0

>  <r_i_glide_rewards>  (1) 
-2.249994114894815

>  <r_lp_Energy>  (1) 
-0.092307

>  <r_lp_tautomer_probability>  (1) 
1

>  <s_epik_Chemistry_Notes>  (1) 
This compound has an ester and may undergo hydrolysis at high or low pH.

>  <s_epik_cmdline>  (1) 
J2VwaWtfcHl0aG9uJywgJy1waHQnLCAnMS4wJywgJy1waCcsICc3LjQnLCAnLXRuJywgJzgnLCAnLW1hJywgJzUwMCcsICctaW1hZScsICc8aW5maWxlLm1hZT4nLCAnLW9tYWUnLCAnPG91dGZpbGUubWFlPic=

>  <s_epik_input>  (1) 
W0NIM11PQyg9TylbQ0gzXQ==

>  <s_glide_docking_method>  (1) 
confgen

>  <s_i_glide_gridfile>  (1) 
gpcr_5ht2c_6bqh_protein_autoprepared_prepared

>  <s_lp_Force_Field>  (1) 
S-OPLS

>  <s_lp_Variant>  (1) 
Pocket2Mol_6_num_sample_100-1

>  <s_m_source_file>  (1) 
generated__ligand_Pocket2Mol_2026-05-06_prepared.sdf

>  <GenAI_Model>  (1) 
Pocket2Mol

>  <Protein>  (1) 
GPCR_5HT2C

$$$$
Pocket2Mol_33_num_sample_100
     RDKit          3D

  0  0  0  0  0  0  0  0  0  0999 V3000
M  V30 BEGIN CTAB
M  V30 COUNTS 10 9 0 0 1
M  V30 BEGIN ATOM
M  V30 1 C 35.563154 34.325420 58.923241 0
M  V30 2 O 36.280578 35.428755 59.432795 0
M  V30 3 C 35.532130 33.202901 59.966990 0
M  V30 4 O 34.819000 32.097680 59.455544 0
M  V30 5 H 34.551323 34.643828 58.669543 0
M  V30 6 H 36.039718 33.983557 58.003691 0
M  V30 7 H 36.447849 36.031101 58.723823 0
M  V30 8 H 36.544075 32.887137 60.223528 0
M  V30 9 H 35.052122 33.543596 60.885179 0
M  V30 10 H 35.067417 31.972329 58.552093 0
M  V30 END ATOM
M  V30 BEGIN BOND
M  V30 1 1 2 1
M  V30 2 1 3 1
M  V30 3 1 4 3
M  V30 4 1 5 1
M  V30 5 1 6 1
M  V30 6 1 7 2
M  V30 7 1 8 3
M  V30 8 1 9 3
M  V30 9 1 10 4
M  V30 END BOND
M  V30 END CTAB
M  END
>  <i_epik_Tot_Q>  (1) 
0

>  <i_epik_Tot_abs_Q>  (1) 
0

>  <i_i_glide_confnum>  (1) 
1

>  <i_i_glide_lignum>  (1) 
36

>  <i_i_glide_posenum>  (1) 
231

>  <i_i_glide_rotatable_bonds>  (1) 
3

>  <i_lp_mmshare_version>  (1) 
72125

>  <i_m_source_file_index>  (1) 
34

>  <i_f3d_flags>  (1) 
0

>  <num_sample>  (1) 
100

>  <b_lp_Chiralities_Consistent>  (1) 
1

>  <r_epik_Charging_Adjusted_Penalty>  (1) 
0

>  <r_epik_Ionization_Penalty>  (1) 
1.0539797431440594e-07

>  <r_epik_Ionization_Penalty_Charging>  (1) 
0

>  <r_epik_Ionization_Penalty_Neutral>  (1) 
1.0539797431440594e-07

>  <r_epik_State_Penalty>  (1) 
-0

>  <r_glide_ring_energy>  (1) 
0

>  <r_i_docking_score>  (1) 
-1.527984503673764

>  <r_i_glide_ecoul>  (1) 
-8.1601632491398277

>  <r_i_glide_eff_state_penalty>  (1) 
-0

>  <r_i_glide_einternal>  (1) 
0.70040533704340269

>  <r_i_glide_emodel>  (1) 
-14.728271427077239

>  <r_i_glide_emodel_strain>  (1) 
0.012802860177960396

>  <r_i_glide_energy>  (1) 
-13.253929905271974

>  <r_i_glide_erotb>  (1) 
2.43552256463113

>  <r_i_glide_esite>  (1) 
0

>  <r_i_glide_evdw>  (1) 
-5.0937666561321455

>  <r_i_glide_gscore>  (1) 
-1.527984503673764

>  <r_i_glide_gscore_strain>  (1) 
0

>  <r_i_glide_hbond>  (1) 
-0.23479424812731275

>  <r_i_glide_ligand_efficiency>  (1) 
-0.38199612591844101

>  <r_i_glide_ligand_efficiency_ln>  (1) 
-0.64031685636497881

>  <r_i_glide_ligand_efficiency_sa>  (1) 
-0.60638105213071003

>  <r_i_glide_lipo>  (1) 
0

>  <r_i_glide_metal>  (1) 
-0

>  <r_i_glide_rewards>  (1) 
-2.25

>  <r_lp_Energy>  (1) 
2.5073979999999998

>  <r_lp_tautomer_probability>  (1) 
1

>  <s_epik_cmdline>  (1) 
J2VwaWtfcHl0aG9uJywgJy1waHQnLCAnMS4wJywgJy1waCcsICc3LjQnLCAnLXRuJywgJzgnLCAnLW1hJywgJzUwMCcsICctaW1hZScsICc8aW5maWxlLm1hZT4nLCAnLW9tYWUnLCAnPG91dGZpbGUubWFlPic=

>  <s_epik_input>  (1) 
W09IXVtDSDJdW0NIMl1bT0hd

>  <s_glide_docking_method>  (1) 
confgen

>  <s_i_glide_gridfile>  (1) 
gpcr_5ht2c_6bqh_protein_autoprepared_prepared

>  <s_lp_Force_Field>  (1) 
S-OPLS

>  <s_lp_Variant>  (1) 
Pocket2Mol_33_num_sample_100-1

>  <s_m_source_file>  (1) 
generated__ligand_Pocket2Mol_2026-05-06_prepared.sdf

>  <GenAI_Model>  (1) 
Pocket2Mol

>  <Protein>  (1) 
GPCR_5HT2C

$$$$
Pocket2Mol_33_num_sample_100
     RDKit          3D

  0  0  0  0  0  0  0  0  0  0999 V3000
M  V30 BEGIN CTAB
M  V30 COUNTS 10 9 0 0 1
M  V30 BEGIN ATOM
M  V30 1 C 35.612603 33.183681 59.995175 0
M  V30 2 O 34.892174 32.097841 59.453869 0
M  V30 3 C 35.608060 34.352523 59.003178 0
M  V30 4 O 36.309416 35.446416 59.553922 0
M  V30 5 H 35.155989 33.478931 60.940675 0
M  V30 6 H 36.633148 32.864085 60.209499 0
M  V30 7 H 35.108961 32.021336 58.534306 0
M  V30 8 H 36.080191 34.062209 58.063747 0
M  V30 9 H 34.586999 34.660923 58.775555 0
M  V30 10 H 36.424914 36.098606 58.879479 0
M  V30 END ATOM
M  V30 BEGIN BOND
M  V30 1 1 2 1
M  V30 2 1 3 1
M  V30 3 1 4 3
M  V30 4 1 5 1
M  V30 5 1 6 1
M  V30 6 1 7 2
M  V30 7 1 8 3
M  V30 8 1 9 3
M  V30 9 1 10 4
M  V30 END BOND
M  V30 END CTAB
M  END
>  <i_epik_Tot_Q>  (1) 
0

>  <i_epik_Tot_abs_Q>  (1) 
0

>  <i_i_glide_confnum>  (1) 
1

>  <i_i_glide_lignum>  (1) 
36

>  <i_i_glide_posenum>  (1) 
234

>  <i_i_glide_rotatable_bonds>  (1) 
3

>  <i_lp_mmshare_version>  (1) 
72125

>  <i_m_source_file_index>  (1) 
34

>  <i_f3d_flags>  (1) 
0

>  <num_sample>  (1) 
100

>  <b_lp_Chiralities_Consistent>  (1) 
1

>  <r_epik_Charging_Adjusted_Penalty>  (1) 
0

>  <r_epik_Ionization_Penalty>  (1) 
1.0539797431440594e-07

>  <r_epik_Ionization_Penalty_Charging>  (1) 
0

>  <r_epik_Ionization_Penalty_Neutral>  (1) 
1.0539797431440594e-07

>  <r_epik_State_Penalty>  (1) 
-0

>  <r_glide_ring_energy>  (1) 
0

>  <r_i_docking_score>  (1) 
-1.4767480965518427

>  <r_i_glide_ecoul>  (1) 
-8.3352851460714703

>  <r_i_glide_eff_state_penalty>  (1) 
-0

>  <r_i_glide_einternal>  (1) 
0.68679782848799786

>  <r_i_glide_emodel>  (1) 
-14.789656137229425

>  <r_i_glide_emodel_strain>  (1) 
0.017524972281037748

>  <r_i_glide_energy>  (1) 
-13.374842931516515

>  <r_i_glide_erotb>  (1) 
2.43552256463113

>  <r_i_glide_esite>  (1) 
0

>  <r_i_glide_evdw>  (1) 
-5.0395577854450444

>  <r_i_glide_gscore>  (1) 
-1.4767480965518427

>  <r_i_glide_gscore_strain>  (1) 
0

>  <r_i_glide_hbond>  (1) 
-0.16

>  <r_i_glide_ligand_efficiency>  (1) 
-0.36918702413796067

>  <r_i_glide_ligand_efficiency_ln>  (1) 
-0.61884573865346737

>  <r_i_glide_ligand_efficiency_sa>  (1) 
-0.58604787048960783

>  <r_i_glide_lipo>  (1) 
0

>  <r_i_glide_metal>  (1) 
-0

>  <r_i_glide_rewards>  (1) 
-2.25

>  <r_lp_Energy>  (1) 
2.5073979999999998

>  <r_lp_tautomer_probability>  (1) 
1

>  <s_epik_cmdline>  (1) 
J2VwaWtfcHl0aG9uJywgJy1waHQnLCAnMS4wJywgJy1waCcsICc3LjQnLCAnLXRuJywgJzgnLCAnLW1hJywgJzUwMCcsICctaW1hZScsICc8aW5maWxlLm1hZT4nLCAnLW9tYWUnLCAnPG91dGZpbGUubWFlPic=

>  <s_epik_input>  (1) 
W09IXVtDSDJdW0NIMl1bT0hd

>  <s_glide_docking_method>  (1) 
confgen

>  <s_i_glide_gridfile>  (1) 
gpcr_5ht2c_6bqh_protein_autoprepared_prepared

>  <s_lp_Force_Field>  (1) 
S-OPLS

>  <s_lp_Variant>  (1) 
Pocket2Mol_33_num_sample_100-1

>  <s_m_source_file>  (1) 
generated__ligand_Pocket2Mol_2026-05-06_prepared.sdf

>  <GenAI_Model>  (1) 
Pocket2Mol

>  <Protein>  (1) 
GPCR_5HT2C

$$$$
Pocket2Mol_33_num_sample_100
     RDKit          3D

  0  0  0  0  0  0  0  0  0  0999 V3000
M  V30 BEGIN CTAB
M  V30 COUNTS 10 9 0 0 1
M  V30 BEGIN ATOM
M  V30 1 C 35.364456 32.856647 60.327627 0
M  V30 2 O 34.267416 32.739084 59.453493 0
M  V30 3 C 35.945061 31.464249 60.590173 0
M  V30 4 O 37.056985 31.561300 61.453722 0
M  V30 5 H 36.108020 33.514930 59.878781 0
M  V30 6 H 35.033421 33.318150 61.258891 0
M  V30 7 H 34.588729 32.421439 58.608919 0
M  V30 8 H 35.189459 30.830413 61.053548 0
M  V30 9 H 36.253727 30.986033 59.658745 0
M  V30 10 H 37.747581 32.020216 60.998074 0
M  V30 END ATOM
M  V30 BEGIN BOND
M  V30 1 1 2 1
M  V30 2 1 3 1
M  V30 3 1 4 3
M  V30 4 1 5 1
M  V30 5 1 6 1
M  V30 6 1 7 2
M  V30 7 1 8 3
M  V30 8 1 9 3
M  V30 9 1 10 4
M  V30 END BOND
M  V30 END CTAB
M  END
>  <i_epik_Tot_Q>  (1) 
0

>  <i_epik_Tot_abs_Q>  (1) 
0

>  <i_i_glide_confnum>  (1) 
2

>  <i_i_glide_lignum>  (1) 
36

>  <i_i_glide_posenum>  (1) 
279

>  <i_i_glide_rotatable_bonds>  (1) 
3

>  <i_lp_mmshare_version>  (1) 
72125

>  <i_m_source_file_index>  (1) 
34

>  <i_f3d_flags>  (1) 
0

>  <num_sample>  (1) 
100

>  <b_lp_Chiralities_Consistent>  (1) 
1

>  <r_epik_Charging_Adjusted_Penalty>  (1) 
0

>  <r_epik_Ionization_Penalty>  (1) 
1.0539797431440594e-07

>  <r_epik_Ionization_Penalty_Charging>  (1) 
0

>  <r_epik_Ionization_Penalty_Neutral>  (1) 
1.0539797431440594e-07

>  <r_epik_State_Penalty>  (1) 
-0

>  <r_glide_ring_energy>  (1) 
0

>  <r_i_docking_score>  (1) 
-1.4027070753326987

>  <r_i_glide_ecoul>  (1) 
-4.9880894391087294

>  <r_i_glide_eff_state_penalty>  (1) 
-0

>  <r_i_glide_einternal>  (1) 
0.017871215469487889

>  <r_i_glide_emodel>  (1) 
-14.346183709477511

>  <r_i_glide_emodel_strain>  (1) 
0

>  <r_i_glide_energy>  (1) 
-12.668413921059109

>  <r_i_glide_erotb>  (1) 
2.43552256463113

>  <r_i_glide_esite>  (1) 
0

>  <r_i_glide_evdw>  (1) 
-7.6803244819503806

>  <r_i_glide_gscore>  (1) 
-1.4027070753326987

>  <r_i_glide_gscore_strain>  (1) 
0

>  <r_i_glide_hbond>  (1) 
-0.45599999999999996

>  <r_i_glide_ligand_efficiency>  (1) 
-0.35067676883317467

>  <r_i_glide_ligand_efficiency_ln>  (1) 
-0.58781812427969138

>  <r_i_glide_ligand_efficiency_sa>  (1) 
-0.55666467174659051

>  <r_i_glide_lipo>  (1) 
0

>  <r_i_glide_metal>  (1) 
-0

>  <r_i_glide_rewards>  (1) 
-2.25

>  <r_lp_Energy>  (1) 
2.5073979999999998

>  <r_lp_tautomer_probability>  (1) 
1

>  <s_epik_cmdline>  (1) 
J2VwaWtfcHl0aG9uJywgJy1waHQnLCAnMS4wJywgJy1waCcsICc3LjQnLCAnLXRuJywgJzgnLCAnLW1hJywgJzUwMCcsICctaW1hZScsICc8aW5maWxlLm1hZT4nLCAnLW9tYWUnLCAnPG91dGZpbGUubWFlPic=

>  <s_epik_input>  (1) 
W09IXVtDSDJdW0NIMl1bT0hd

>  <s_glide_docking_method>  (1) 
confgen

>  <s_i_glide_gridfile>  (1) 
gpcr_5ht2c_6bqh_protein_autoprepared_prepared

>  <s_lp_Force_Field>  (1) 
S-OPLS

>  <s_lp_Variant>  (1) 
Pocket2Mol_33_num_sample_100-1

>  <s_m_source_file>  (1) 
generated__ligand_Pocket2Mol_2026-05-06_prepared.sdf

>  <GenAI_Model>  (1) 
Pocket2Mol

>  <Protein>  (1) 
GPCR_5HT2C

$$$$
