Pocket2Mol_92
     RDKit          3D

  0  0  0  0  0  0  0  0  0  0999 V3000
M  V30 BEGIN CTAB
M  V30 COUNTS 18 19 0 0 1
M  V30 BEGIN ATOM
M  V30 1 C 38.843074 29.826241 54.289767 0
M  V30 2 C 39.245138 29.590472 52.959784 0
M  V30 3 C 38.845133 28.403551 52.300597 0
M  V30 4 C 40.045137 30.533762 52.284252 0
M  V30 5 C 40.444238 30.296700 50.954866 0
M  V30 6 C 38.047021 27.459717 52.976697 0
M  V30 7 C 39.246705 28.169153 50.970253 0
M  V30 8 C 38.045141 28.880064 54.961333 0
M  V30 9 C 40.045137 29.116957 50.298812 0
M  V30 10 C 37.648325 27.697449 54.305038 0
M  V30 11 H 39.145782 30.732003 54.795329 0
M  V30 12 H 40.352131 31.437564 52.784720 0
M  V30 13 H 41.056261 31.021474 50.437858 0
M  V30 14 H 37.739741 26.553418 52.478160 0
M  V30 15 H 38.942755 27.263731 50.463850 0
M  V30 16 H 37.736726 29.061463 55.980649 0
M  V30 17 H 40.350669 28.938303 49.279324 0
M  V30 18 H 37.037329 26.972106 54.821678 0
M  V30 END ATOM
M  V30 BEGIN BOND
M  V30 1 1 2 1
M  V30 2 1 3 2
M  V30 3 2 4 2
M  V30 4 1 5 4
M  V30 5 1 6 3
M  V30 6 2 7 3
M  V30 7 2 8 1
M  V30 8 2 9 5
M  V30 9 1 9 7
M  V30 10 2 10 6
M  V30 11 1 10 8
M  V30 12 1 11 1
M  V30 13 1 12 4
M  V30 14 1 13 5
M  V30 15 1 14 6
M  V30 16 1 15 7
M  V30 17 1 16 8
M  V30 18 1 17 9
M  V30 19 1 18 10
M  V30 END BOND
M  V30 END CTAB
M  END
>  <i_epik_Tot_Q>  (1) 
0

>  <i_epik_Tot_abs_Q>  (1) 
0

>  <i_i_glide_confnum>  (1) 
1

>  <i_i_glide_lignum>  (1) 
97

>  <i_i_glide_posenum>  (1) 
207

>  <i_i_glide_rotatable_bonds>  (1) 
0

>  <i_lp_mmshare_version>  (1) 
72125

>  <i_m_source_file_index>  (1) 
93

>  <i_f3d_flags>  (1) 
0

>  <num_sample>  (1) 
100

>  <b_lp_Chiralities_Consistent>  (1) 
1

>  <r_epik_Charging_Adjusted_Penalty>  (1) 
0

>  <r_epik_Ionization_Penalty>  (1) 
0

>  <r_epik_Ionization_Penalty_Charging>  (1) 
0

>  <r_epik_Ionization_Penalty_Neutral>  (1) 
0

>  <r_epik_State_Penalty>  (1) 
-0

>  <r_glide_ring_energy>  (1) 
0

>  <r_i_docking_score>  (1) 
-6.6651377614944511

>  <r_i_glide_ecoul>  (1) 
-1.2637977418006916

>  <r_i_glide_eff_state_penalty>  (1) 
-0

>  <r_i_glide_einternal>  (1) 
0

>  <r_i_glide_emodel>  (1) 
-31.142249906525048

>  <r_i_glide_emodel_strain>  (1) 
0

>  <r_i_glide_energy>  (1) 
-22.220577516946268

>  <r_i_glide_erotb>  (1) 
0

>  <r_i_glide_esite>  (1) 
0

>  <r_i_glide_evdw>  (1) 
-20.956779775145577

>  <r_i_glide_gscore>  (1) 
-6.6651377614944511

>  <r_i_glide_gscore_strain>  (1) 
0

>  <r_i_glide_hbond>  (1) 
0

>  <r_i_glide_ligand_efficiency>  (1) 
-0.66651377614944507

>  <r_i_glide_ligand_efficiency_ln>  (1) 
-2.0181577684806884

>  <r_i_glide_ligand_efficiency_sa>  (1) 
-1.4359604007205102

>  <r_i_glide_lipo>  (1) 
-2.6150790120891094

>  <r_i_glide_metal>  (1) 
-0

>  <r_i_glide_rewards>  (1) 
-2.8126500993779584

>  <r_lp_Energy>  (1) 
18.967330999999998

>  <r_lp_tautomer_probability>  (1) 
1

>  <s_epik_cmdline>  (1) 
J2VwaWtfcHl0aG9uJywgJy1waHQnLCAnMS4wJywgJy1waCcsICc3LjQnLCAnLXRuJywgJzgnLCAnLW1hJywgJzUwMCcsICctaW1hZScsICc8aW5maWxlLm1hZT4nLCAnLW9tYWUnLCAnPG91dGZpbGUubWFlPic=

>  <s_epik_input>  (1) 
W2NIXTFbY0hdW2NIXVtjSF1jKGMxMilbY0hdW2NIXVtjSF1bY0hdMg==

>  <s_glide_docking_method>  (1) 
confgen

>  <s_i_glide_gridfile>  (1) 
gpcr_5ht2c_6bqh_protein_autoprepared_prepared

>  <s_lp_Force_Field>  (1) 
S-OPLS

>  <s_lp_Variant>  (1) 
Pocket2Mol_92-1

>  <s_m_source_file>  (1) 
generated_GPCR_5HT2C_ligand_Pocket2Mol_2026-06-23_prepared.sdf

>  <GenAI_Model>  (1) 
Pocket2Mol

>  <Protein>  (1) 
GPCR_5HT2C

$$$$
Pocket2Mol_94
     RDKit          3D

  0  0  0  0  0  0  0  0  0  0999 V3000
M  V30 BEGIN CTAB
M  V30 COUNTS 16 17 0 0 1
M  V30 BEGIN ATOM
M  V30 1 C 38.245946 27.982519 53.186224 0
M  V30 2 C 39.010854 28.542376 52.113078 0
M  V30 3 C 39.645137 29.779686 52.205432 0
M  V30 4 C 39.245140 28.073415 50.960722 0
M  V30 5 C 39.520968 30.523050 53.445749 0
M  V30 6 C 40.045136 29.053044 50.319915 0
M  V30 7 C 38.795085 30.008923 54.479513 0
M  V30 8 C 40.315667 30.142258 51.081486 0
M  V30 9 O 38.673415 30.700187 55.619461 0
M  V30 10 C 38.134883 28.685969 54.336407 0
M  V30 11 H 37.766955 27.019784 53.079039 0
M  V30 12 H 38.904599 27.132526 50.551897 0
M  V30 13 H 39.999163 31.485508 53.548277 0
M  V30 14 H 40.402170 28.935573 49.308241 0
M  V30 15 H 37.996707 30.292325 56.139310 0
M  V30 16 H 37.563095 28.280856 55.157039 0
M  V30 END ATOM
M  V30 BEGIN BOND
M  V30 1 1 2 1
M  V30 2 1 3 2
M  V30 3 2 4 2
M  V30 4 1 5 3
M  V30 5 1 6 4
M  V30 6 2 7 5
M  V30 7 2 8 3
M  V30 8 2 8 6
M  V30 9 1 9 7
M  V30 10 2 10 1
M  V30 11 1 10 7
M  V30 12 1 11 1
M  V30 13 1 12 4
M  V30 14 1 13 5
M  V30 15 1 14 6
M  V30 16 1 15 9
M  V30 17 1 16 10
M  V30 END BOND
M  V30 END CTAB
M  END
>  <i_epik_Tot_Q>  (1) 
0

>  <i_epik_Tot_abs_Q>  (1) 
0

>  <i_i_glide_confnum>  (1) 
1

>  <i_i_glide_lignum>  (1) 
99

>  <i_i_glide_posenum>  (1) 
1

>  <i_i_glide_rotatable_bonds>  (1) 
1

>  <i_lp_mmshare_version>  (1) 
72125

>  <i_m_source_file_index>  (1) 
95

>  <i_f3d_flags>  (1) 
0

>  <num_sample>  (1) 
100

>  <b_lp_Chiralities_Consistent>  (1) 
1

>  <r_epik_Charging_Adjusted_Penalty>  (1) 
0

>  <r_epik_Ionization_Penalty>  (1) 
1.8682351542324854e-05

>  <r_epik_Ionization_Penalty_Charging>  (1) 
0

>  <r_epik_Ionization_Penalty_Neutral>  (1) 
1.8682351542324854e-05

>  <r_epik_State_Penalty>  (1) 
-0

>  <r_glide_ring_energy>  (1) 
0

>  <r_i_docking_score>  (1) 
-6.6324593913452059

>  <r_i_glide_ecoul>  (1) 
-0.83028903079740846

>  <r_i_glide_eff_state_penalty>  (1) 
-0

>  <r_i_glide_einternal>  (1) 
0.11070111800029814

>  <r_i_glide_emodel>  (1) 
-33.763629948949436

>  <r_i_glide_emodel_strain>  (1) 
7.7776007856300566e-10

>  <r_i_glide_energy>  (1) 
-23.593635428259923

>  <r_i_glide_erotb>  (1) 
0

>  <r_i_glide_esite>  (1) 
0

>  <r_i_glide_evdw>  (1) 
-22.763346397462513

>  <r_i_glide_gscore>  (1) 
-6.6324593913452059

>  <r_i_glide_gscore_strain>  (1) 
0

>  <r_i_glide_hbond>  (1) 
0

>  <r_i_glide_ligand_efficiency>  (1) 
-0.66324593913452057

>  <r_i_glide_ligand_efficiency_ln>  (1) 
-2.0082629832657468

>  <r_i_glide_ligand_efficiency_sa>  (1) 
-1.4289200592941866

>  <r_i_glide_lipo>  (1) 
-2.6980512398288448

>  <r_i_glide_metal>  (1) 
-0

>  <r_i_glide_rewards>  (1) 
-2.6716974770236246

>  <r_lp_Energy>  (1) 
8.2800809999999991

>  <r_lp_tautomer_probability>  (1) 
1

>  <s_epik_cmdline>  (1) 
J2VwaWtfcHl0aG9uJywgJy1waHQnLCAnMS4wJywgJy1waCcsICc3LjQnLCAnLXRuJywgJzgnLCAnLW1hJywgJzUwMCcsICctaW1hZScsICc8aW5maWxlLm1hZT4nLCAnLW9tYWUnLCAnPG91dGZpbGUubWFlPic=

>  <s_epik_input>  (1) 
W2NIXTFbY0hdYyhbT0hdKVtjSF1jKGMxPTIpPUM9W0NIXVtDSF0y

>  <s_glide_docking_method>  (1) 
confgen

>  <s_i_glide_gridfile>  (1) 
gpcr_5ht2c_6bqh_protein_autoprepared_prepared

>  <s_lp_Force_Field>  (1) 
S-OPLS

>  <s_lp_Variant>  (1) 
Pocket2Mol_94-1

>  <s_m_source_file>  (1) 
generated_GPCR_5HT2C_ligand_Pocket2Mol_2026-06-23_prepared.sdf

>  <GenAI_Model>  (1) 
Pocket2Mol

>  <Protein>  (1) 
GPCR_5HT2C

$$$$
Pocket2Mol_72
     RDKit          3D

  0  0  0  0  0  0  0  0  0  0999 V3000
M  V30 BEGIN CTAB
M  V30 COUNTS 15 16 0 0 1
M  V30 BEGIN ATOM
M  V30 1 C 38.268892 27.767167 53.177394 0
M  V30 2 C 39.021342 28.436646 52.156389 0
M  V30 3 C 39.645117 29.669976 52.360278 0
M  V30 4 C 39.255320 28.078544 50.966031 0
M  V30 5 C 39.519441 30.291250 53.667450 0
M  V30 6 C 40.044450 29.119344 50.414848 0
M  V30 7 C 38.805536 29.665315 54.643770 0
M  V30 8 C 40.304602 30.140198 51.270716 0
M  V30 9 C 38.158677 28.356464 54.388384 0
M  V30 10 H 37.800389 26.811313 52.982521 0
M  V30 11 H 38.924792 27.174500 50.476546 0
M  V30 12 H 39.989066 31.243392 53.865630 0
M  V30 13 H 40.402630 29.093394 49.396078 0
M  V30 14 H 38.710337 30.128272 55.615211 0
M  V30 15 H 37.599509 27.871622 55.172401 0
M  V30 END ATOM
M  V30 BEGIN BOND
M  V30 1 1 2 1
M  V30 2 1 3 2
M  V30 3 2 4 2
M  V30 4 1 5 3
M  V30 5 1 6 4
M  V30 6 2 7 5
M  V30 7 2 8 3
M  V30 8 2 8 6
M  V30 9 2 9 1
M  V30 10 1 9 7
M  V30 11 1 10 1
M  V30 12 1 11 4
M  V30 13 1 12 5
M  V30 14 1 13 6
M  V30 15 1 14 7
M  V30 16 1 15 9
M  V30 END BOND
M  V30 END CTAB
M  END
>  <i_epik_Tot_Q>  (1) 
0

>  <i_epik_Tot_abs_Q>  (1) 
0

>  <i_i_glide_confnum>  (1) 
1

>  <i_i_glide_lignum>  (1) 
77

>  <i_i_glide_posenum>  (1) 
119

>  <i_i_glide_rotatable_bonds>  (1) 
0

>  <i_lp_mmshare_version>  (1) 
72125

>  <i_m_source_file_index>  (1) 
73

>  <i_f3d_flags>  (1) 
0

>  <num_sample>  (1) 
100

>  <b_lp_Chiralities_Consistent>  (1) 
1

>  <r_epik_Charging_Adjusted_Penalty>  (1) 
0

>  <r_epik_Ionization_Penalty>  (1) 
0

>  <r_epik_Ionization_Penalty_Charging>  (1) 
0

>  <r_epik_Ionization_Penalty_Neutral>  (1) 
0

>  <r_epik_State_Penalty>  (1) 
-0

>  <r_glide_ring_energy>  (1) 
0

>  <r_i_docking_score>  (1) 
-6.5678583357095359

>  <r_i_glide_ecoul>  (1) 
-0.66239249872561667

>  <r_i_glide_eff_state_penalty>  (1) 
-0

>  <r_i_glide_einternal>  (1) 
0

>  <r_i_glide_emodel>  (1) 
-30.449949472228425

>  <r_i_glide_emodel_strain>  (1) 
0

>  <r_i_glide_energy>  (1) 
-21.712799483404414

>  <r_i_glide_erotb>  (1) 
0

>  <r_i_glide_esite>  (1) 
0

>  <r_i_glide_evdw>  (1) 
-21.050406984678798

>  <r_i_glide_gscore>  (1) 
-6.5678583357095359

>  <r_i_glide_gscore_strain>  (1) 
0

>  <r_i_glide_hbond>  (1) 
0

>  <r_i_glide_ligand_efficiency>  (1) 
-0.7297620373010596

>  <r_i_glide_ligand_efficiency_ln>  (1) 
-2.0542374102420959

>  <r_i_glide_ligand_efficiency_sa>  (1) 
-1.5179662084673344

>  <r_i_glide_lipo>  (1) 
-2.6932664469027188

>  <r_i_glide_metal>  (1) 
-0

>  <r_i_glide_rewards>  (1) 
-2.7227126647640354

>  <r_lp_Energy>  (1) 
11.424324

>  <r_lp_tautomer_probability>  (1) 
1

>  <s_epik_cmdline>  (1) 
J2VwaWtfcHl0aG9uJywgJy1waHQnLCAnMS4wJywgJy1waCcsICc3LjQnLCAnLXRuJywgJzgnLCAnLW1hJywgJzUwMCcsICctaW1hZScsICc8aW5maWxlLm1hZT4nLCAnLW9tYWUnLCAnPG91dGZpbGUubWFlPic=

>  <s_epik_input>  (1) 
W2NIXTFbY0hdW2NIXVtjSF1jKGMxPTIpPUM9W0NIXVtDSF0y

>  <s_glide_docking_method>  (1) 
confgen

>  <s_i_glide_gridfile>  (1) 
gpcr_5ht2c_6bqh_protein_autoprepared_prepared

>  <s_lp_Force_Field>  (1) 
S-OPLS

>  <s_lp_Variant>  (1) 
Pocket2Mol_72-1

>  <s_m_source_file>  (1) 
generated_GPCR_5HT2C_ligand_Pocket2Mol_2026-06-23_prepared.sdf

>  <GenAI_Model>  (1) 
Pocket2Mol

>  <Protein>  (1) 
GPCR_5HT2C

$$$$
Pocket2Mol_94
     RDKit          3D

  0  0  0  0  0  0  0  0  0  0999 V3000
M  V30 BEGIN CTAB
M  V30 COUNTS 16 17 0 0 1
M  V30 BEGIN ATOM
M  V30 1 C 38.650594 28.020683 52.167049 0
M  V30 2 C 38.626850 28.846309 53.338840 0
M  V30 3 C 39.295402 30.067341 53.413339 0
M  V30 4 C 38.046838 28.654017 54.449890 0
M  V30 5 C 40.045135 30.510777 52.251373 0
M  V30 6 C 38.365245 29.790588 55.233655 0
M  V30 7 C 40.081206 29.739032 51.126896 0
M  V30 8 C 39.152734 30.702785 54.605275 0
M  V30 9 O 40.771369 30.148631 50.055315 0
M  V30 10 C 39.352754 28.445070 51.091194 0
M  V30 11 H 38.118624 27.080235 52.142277 0
M  V30 12 H 37.442252 27.806788 54.738264 0
M  V30 13 H 40.571114 31.451918 52.278308 0
M  V30 14 H 38.007329 29.911477 56.246302 0
M  V30 15 H 41.115127 31.010311 50.243433 0
M  V30 16 H 39.381948 27.838336 50.197712 0
M  V30 END ATOM
M  V30 BEGIN BOND
M  V30 1 1 2 1
M  V30 2 1 3 2
M  V30 3 2 4 2
M  V30 4 1 5 3
M  V30 5 1 6 4
M  V30 6 2 7 5
M  V30 7 2 8 3
M  V30 8 2 8 6
M  V30 9 1 9 7
M  V30 10 2 10 1
M  V30 11 1 10 7
M  V30 12 1 11 1
M  V30 13 1 12 4
M  V30 14 1 13 5
M  V30 15 1 14 6
M  V30 16 1 15 9
M  V30 17 1 16 10
M  V30 END BOND
M  V30 END CTAB
M  END
>  <i_epik_Tot_Q>  (1) 
0

>  <i_epik_Tot_abs_Q>  (1) 
0

>  <i_i_glide_confnum>  (1) 
1

>  <i_i_glide_lignum>  (1) 
99

>  <i_i_glide_posenum>  (1) 
332

>  <i_i_glide_rotatable_bonds>  (1) 
1

>  <i_lp_mmshare_version>  (1) 
72125

>  <i_m_source_file_index>  (1) 
95

>  <i_f3d_flags>  (1) 
0

>  <num_sample>  (1) 
100

>  <b_lp_Chiralities_Consistent>  (1) 
1

>  <r_epik_Charging_Adjusted_Penalty>  (1) 
0

>  <r_epik_Ionization_Penalty>  (1) 
1.8682351542324854e-05

>  <r_epik_Ionization_Penalty_Charging>  (1) 
0

>  <r_epik_Ionization_Penalty_Neutral>  (1) 
1.8682351542324854e-05

>  <r_epik_State_Penalty>  (1) 
-0

>  <r_glide_ring_energy>  (1) 
0

>  <r_i_docking_score>  (1) 
-6.5359825383354213

>  <r_i_glide_ecoul>  (1) 
-1.8145011282858396

>  <r_i_glide_eff_state_penalty>  (1) 
-0

>  <r_i_glide_einternal>  (1) 
0.016747070878456949

>  <r_i_glide_emodel>  (1) 
-35.123022712740436

>  <r_i_glide_emodel_strain>  (1) 
0

>  <r_i_glide_energy>  (1) 
-25.054790731137221

>  <r_i_glide_erotb>  (1) 
0

>  <r_i_glide_esite>  (1) 
0

>  <r_i_glide_evdw>  (1) 
-23.24028960285138

>  <r_i_glide_gscore>  (1) 
-6.5359825383354213

>  <r_i_glide_gscore_strain>  (1) 
0

>  <r_i_glide_hbond>  (1) 
0

>  <r_i_glide_ligand_efficiency>  (1) 
-0.65359825383354209

>  <r_i_glide_ligand_efficiency_ln>  (1) 
-1.9790504572313845

>  <r_i_glide_ligand_efficiency_sa>  (1) 
-1.4081347514032478

>  <r_i_glide_lipo>  (1) 
-2.244588570892835

>  <r_i_glide_metal>  (1) 
-0

>  <r_i_glide_rewards>  (1) 
-2.8572043180571409

>  <r_lp_Energy>  (1) 
8.2800809999999991

>  <r_lp_tautomer_probability>  (1) 
1

>  <s_epik_cmdline>  (1) 
J2VwaWtfcHl0aG9uJywgJy1waHQnLCAnMS4wJywgJy1waCcsICc3LjQnLCAnLXRuJywgJzgnLCAnLW1hJywgJzUwMCcsICctaW1hZScsICc8aW5maWxlLm1hZT4nLCAnLW9tYWUnLCAnPG91dGZpbGUubWFlPic=

>  <s_epik_input>  (1) 
W2NIXTFbY0hdYyhbT0hdKVtjSF1jKGMxPTIpPUM9W0NIXVtDSF0y

>  <s_glide_docking_method>  (1) 
confgen

>  <s_i_glide_gridfile>  (1) 
gpcr_5ht2c_6bqh_protein_autoprepared_prepared

>  <s_lp_Force_Field>  (1) 
S-OPLS

>  <s_lp_Variant>  (1) 
Pocket2Mol_94-1

>  <s_m_source_file>  (1) 
generated_GPCR_5HT2C_ligand_Pocket2Mol_2026-06-23_prepared.sdf

>  <GenAI_Model>  (1) 
Pocket2Mol

>  <Protein>  (1) 
GPCR_5HT2C

$$$$
Pocket2Mol_72
     RDKit          3D

  0  0  0  0  0  0  0  0  0  0999 V3000
M  V30 BEGIN CTAB
M  V30 COUNTS 15 16 0 0 1
M  V30 BEGIN ATOM
M  V30 1 C 39.295659 30.350985 53.795707 0
M  V30 2 C 39.476347 29.721551 52.517661 0
M  V30 3 C 38.996986 28.441266 52.230947 0
M  V30 4 C 40.051971 30.159808 51.477361 0
M  V30 5 C 38.291577 27.725059 53.276920 0
M  V30 6 C 39.926897 29.122450 50.522201 0
M  V30 7 C 38.116568 28.310972 54.493509 0
M  V30 8 C 39.263705 28.022990 50.967763 0
M  V30 9 C 38.635704 29.671904 54.760938 0
M  V30 10 H 39.677381 31.344663 53.981439 0
M  V30 11 H 40.533227 31.118336 51.346850 0
M  V30 12 H 37.908423 26.731437 53.091808 0
M  V30 13 H 40.327565 29.209417 49.522938 0
M  V30 14 H 37.593992 27.777248 55.272435 0
M  V30 15 H 38.485646 30.124342 55.730824 0
M  V30 END ATOM
M  V30 BEGIN BOND
M  V30 1 1 2 1
M  V30 2 1 3 2
M  V30 3 2 4 2
M  V30 4 1 5 3
M  V30 5 1 6 4
M  V30 6 2 7 5
M  V30 7 2 8 3
M  V30 8 2 8 6
M  V30 9 2 9 1
M  V30 10 1 9 7
M  V30 11 1 10 1
M  V30 12 1 11 4
M  V30 13 1 12 5
M  V30 14 1 13 6
M  V30 15 1 14 7
M  V30 16 1 15 9
M  V30 END BOND
M  V30 END CTAB
M  END
>  <i_epik_Tot_Q>  (1) 
0

>  <i_epik_Tot_abs_Q>  (1) 
0

>  <i_i_glide_confnum>  (1) 
1

>  <i_i_glide_lignum>  (1) 
77

>  <i_i_glide_posenum>  (1) 
375

>  <i_i_glide_rotatable_bonds>  (1) 
0

>  <i_lp_mmshare_version>  (1) 
72125

>  <i_m_source_file_index>  (1) 
73

>  <i_f3d_flags>  (1) 
0

>  <num_sample>  (1) 
100

>  <b_lp_Chiralities_Consistent>  (1) 
1

>  <r_epik_Charging_Adjusted_Penalty>  (1) 
0

>  <r_epik_Ionization_Penalty>  (1) 
0

>  <r_epik_Ionization_Penalty_Charging>  (1) 
0

>  <r_epik_Ionization_Penalty_Neutral>  (1) 
0

>  <r_epik_State_Penalty>  (1) 
-0

>  <r_glide_ring_energy>  (1) 
0

>  <r_i_docking_score>  (1) 
-6.5340241346876962

>  <r_i_glide_ecoul>  (1) 
-0.66636675771726583

>  <r_i_glide_eff_state_penalty>  (1) 
-0

>  <r_i_glide_einternal>  (1) 
0

>  <r_i_glide_emodel>  (1) 
-30.291147700238135

>  <r_i_glide_emodel_strain>  (1) 
0

>  <r_i_glide_energy>  (1) 
-21.599006978357739

>  <r_i_glide_erotb>  (1) 
0

>  <r_i_glide_esite>  (1) 
0

>  <r_i_glide_evdw>  (1) 
-20.932640220640472

>  <r_i_glide_gscore>  (1) 
-6.5340241346876962

>  <r_i_glide_gscore_strain>  (1) 
0

>  <r_i_glide_hbond>  (1) 
0

>  <r_i_glide_ligand_efficiency>  (1) 
-0.72600268163196624

>  <r_i_glide_ligand_efficiency_ln>  (1) 
-2.0436550441294132

>  <r_i_glide_ligand_efficiency_sa>  (1) 
-1.510146433554955

>  <r_i_glide_lipo>  (1) 
-2.6156908131982144

>  <r_i_glide_metal>  (1) 
-0

>  <r_i_glide_rewards>  (1) 
-2.7717462967998685

>  <r_lp_Energy>  (1) 
11.424324

>  <r_lp_tautomer_probability>  (1) 
1

>  <s_epik_cmdline>  (1) 
J2VwaWtfcHl0aG9uJywgJy1waHQnLCAnMS4wJywgJy1waCcsICc3LjQnLCAnLXRuJywgJzgnLCAnLW1hJywgJzUwMCcsICctaW1hZScsICc8aW5maWxlLm1hZT4nLCAnLW9tYWUnLCAnPG91dGZpbGUubWFlPic=

>  <s_epik_input>  (1) 
W2NIXTFbY0hdW2NIXVtjSF1jKGMxPTIpPUM9W0NIXVtDSF0y

>  <s_glide_docking_method>  (1) 
confgen

>  <s_i_glide_gridfile>  (1) 
gpcr_5ht2c_6bqh_protein_autoprepared_prepared

>  <s_lp_Force_Field>  (1) 
S-OPLS

>  <s_lp_Variant>  (1) 
Pocket2Mol_72-1

>  <s_m_source_file>  (1) 
generated_GPCR_5HT2C_ligand_Pocket2Mol_2026-06-23_prepared.sdf

>  <GenAI_Model>  (1) 
Pocket2Mol

>  <Protein>  (1) 
GPCR_5HT2C

$$$$
Pocket2Mol_52
     RDKit          3D

  0  0  0  0  0  0  0  0  0  0999 V3000
M  V30 BEGIN CTAB
M  V30 COUNTS 16 16 0 0 1
M  V30 BEGIN ATOM
M  V30 1 C 40.045124 30.280112 52.098239 0
M  V30 2 C 39.809014 29.303864 51.109531 0
M  V30 3 C 39.472905 30.137571 53.380886 0
M  V30 4 C 39.726207 31.183286 54.445193 0
M  V30 5 C 39.001485 28.185967 51.401233 0
M  V30 6 C 38.429633 28.044826 52.682599 0
M  V30 7 O 37.645143 26.967092 52.967762 0
M  V30 8 C 38.666257 29.018502 53.670635 0
M  V30 9 H 40.662178 31.138534 51.872912 0
M  V30 10 H 40.245084 29.413472 50.126889 0
M  V30 11 H 39.320778 30.877337 55.410337 0
M  V30 12 H 40.798658 31.337799 54.565433 0
M  V30 13 H 39.254720 32.127188 54.167786 0
M  V30 14 H 38.821033 27.438689 50.641824 0
M  V30 15 H 37.277923 26.537857 52.202311 0
M  V30 16 H 38.227457 28.907829 54.651531 0
M  V30 END ATOM
M  V30 BEGIN BOND
M  V30 1 2 2 1
M  V30 2 1 3 1
M  V30 3 1 4 3
M  V30 4 1 5 2
M  V30 5 2 6 5
M  V30 6 1 7 6
M  V30 7 2 8 3
M  V30 8 1 8 6
M  V30 9 1 9 1
M  V30 10 1 10 2
M  V30 11 1 11 4
M  V30 12 1 12 4
M  V30 13 1 13 4
M  V30 14 1 14 5
M  V30 15 1 15 7
M  V30 16 1 16 8
M  V30 END BOND
M  V30 END CTAB
M  END
>  <i_epik_Tot_Q>  (1) 
0

>  <i_epik_Tot_abs_Q>  (1) 
0

>  <i_i_glide_confnum>  (1) 
1

>  <i_i_glide_lignum>  (1) 
55

>  <i_i_glide_posenum>  (1) 
252

>  <i_i_glide_rotatable_bonds>  (1) 
1

>  <i_lp_mmshare_version>  (1) 
72125

>  <i_m_source_file_index>  (1) 
53

>  <i_f3d_flags>  (1) 
0

>  <num_sample>  (1) 
100

>  <b_lp_Chiralities_Consistent>  (1) 
1

>  <r_epik_Charging_Adjusted_Penalty>  (1) 
0

>  <r_epik_Ionization_Penalty>  (1) 
0.0017015869167085525

>  <r_epik_Ionization_Penalty_Charging>  (1) 
0

>  <r_epik_Ionization_Penalty_Neutral>  (1) 
0.0017015869167085525

>  <r_epik_State_Penalty>  (1) 
-0

>  <r_glide_ring_energy>  (1) 
0

>  <r_i_docking_score>  (1) 
-6.5226409858701224

>  <r_i_glide_ecoul>  (1) 
-4.4004553936432478

>  <r_i_glide_eff_state_penalty>  (1) 
-0

>  <r_i_glide_einternal>  (1) 
0.44433995781746288

>  <r_i_glide_emodel>  (1) 
-28.673800894703298

>  <r_i_glide_emodel_strain>  (1) 
0.046176367745979441

>  <r_i_glide_energy>  (1) 
-20.832988809564682

>  <r_i_glide_erotb>  (1) 
0

>  <r_i_glide_esite>  (1) 
0

>  <r_i_glide_evdw>  (1) 
-16.432533415921434

>  <r_i_glide_gscore>  (1) 
-6.5226409858701224

>  <r_i_glide_gscore_strain>  (1) 
0

>  <r_i_glide_hbond>  (1) 
-0.30695243058614291

>  <r_i_glide_ligand_efficiency>  (1) 
-0.8153301232337653

>  <r_i_glide_ligand_efficiency_ln>  (1) 
-2.1181246331800865

>  <r_i_glide_ligand_efficiency_sa>  (1) 
-1.6306602464675308

>  <r_i_glide_lipo>  (1) 
-2.0946338676594189

>  <r_i_glide_metal>  (1) 
-0

>  <r_i_glide_rewards>  (1) 
-2.6393597077820021

>  <r_lp_Energy>  (1) 
5.2727110000000001

>  <r_lp_tautomer_probability>  (1) 
1

>  <s_epik_cmdline>  (1) 
J2VwaWtfcHl0aG9uJywgJy1waHQnLCAnMS4wJywgJy1waCcsICc3LjQnLCAnLXRuJywgJzgnLCAnLW1hJywgJzUwMCcsICctaW1hZScsICc8aW5maWxlLm1hZT4nLCAnLW9tYWUnLCAnPG91dGZpbGUubWFlPic=

>  <s_epik_input>  (1) 
W0NIM11jMVtjSF1bY0hdW2NIXWMoW09IXSlbY0hdMQ==

>  <s_glide_docking_method>  (1) 
confgen

>  <s_i_glide_gridfile>  (1) 
gpcr_5ht2c_6bqh_protein_autoprepared_prepared

>  <s_lp_Force_Field>  (1) 
S-OPLS

>  <s_lp_Variant>  (1) 
Pocket2Mol_52-1

>  <s_m_source_file>  (1) 
generated_GPCR_5HT2C_ligand_Pocket2Mol_2026-06-23_prepared.sdf

>  <GenAI_Model>  (1) 
Pocket2Mol

>  <Protein>  (1) 
GPCR_5HT2C

$$$$
Pocket2Mol_89
     RDKit          3D

  0  0  0  0  0  0  0  0  0  0999 V3000
M  V30 BEGIN CTAB
M  V30 COUNTS 17 18 0 0 1
M  V30 BEGIN ATOM
M  V30 1 C 39.500863 28.198441 50.788878 0
M  V30 2 C 39.246414 28.537765 52.090426 0
M  V30 3 C 38.675526 27.750083 53.095718 0
M  V30 4 C 38.509259 28.323835 54.380239 0
M  V30 5 C 38.921303 29.671590 54.614136 0
M  V30 6 C 39.644996 29.826562 52.303525 0
M  V30 7 C 40.252108 30.537101 51.036908 0
M  V30 8 C 39.497359 30.430135 53.560775 0
M  V30 9 C 40.045173 29.237930 50.167766 0
M  V30 10 H 39.278799 27.228372 50.367753 0
M  V30 11 H 38.368772 26.733022 52.899247 0
M  V30 12 H 38.071204 27.744586 55.179329 0
M  V30 13 H 38.793250 30.114767 55.590827 0
M  V30 14 H 41.297141 30.817708 51.144355 0
M  V30 15 H 39.646110 31.373642 50.686132 0
M  V30 16 H 39.810699 31.450216 53.724035 0
M  V30 17 H 40.335129 29.224436 49.128099 0
M  V30 END ATOM
M  V30 BEGIN BOND
M  V30 1 1 2 1
M  V30 2 2 3 2
M  V30 3 1 4 3
M  V30 4 2 5 4
M  V30 5 1 6 2
M  V30 6 1 7 6
M  V30 7 1 8 5
M  V30 8 2 8 6
M  V30 9 2 9 1
M  V30 10 1 9 7
M  V30 11 1 10 1
M  V30 12 1 11 3
M  V30 13 1 12 4
M  V30 14 1 13 5
M  V30 15 1 14 7
M  V30 16 1 15 7
M  V30 17 1 16 8
M  V30 18 1 17 9
M  V30 END BOND
M  V30 END CTAB
M  END
>  <i_epik_Tot_Q>  (1) 
0

>  <i_epik_Tot_abs_Q>  (1) 
0

>  <i_i_glide_confnum>  (1) 
1

>  <i_i_glide_lignum>  (1) 
94

>  <i_i_glide_posenum>  (1) 
15

>  <i_i_glide_rotatable_bonds>  (1) 
0

>  <i_lp_mmshare_version>  (1) 
72125

>  <i_m_source_file_index>  (1) 
90

>  <i_f3d_flags>  (1) 
0

>  <num_sample>  (1) 
100

>  <b_lp_Chiralities_Consistent>  (1) 
1

>  <r_epik_Charging_Adjusted_Penalty>  (1) 
0

>  <r_epik_Ionization_Penalty>  (1) 
0

>  <r_epik_Ionization_Penalty_Charging>  (1) 
0

>  <r_epik_Ionization_Penalty_Neutral>  (1) 
0

>  <r_epik_State_Penalty>  (1) 
-0

>  <r_glide_ring_energy>  (1) 
0

>  <r_i_docking_score>  (1) 
-6.5191245966346241

>  <r_i_glide_ecoul>  (1) 
-0.92808631041803347

>  <r_i_glide_eff_state_penalty>  (1) 
-0

>  <r_i_glide_einternal>  (1) 
0

>  <r_i_glide_emodel>  (1) 
-29.251647000157405

>  <r_i_glide_emodel_strain>  (1) 
0

>  <r_i_glide_energy>  (1) 
-20.744684085789928

>  <r_i_glide_erotb>  (1) 
0

>  <r_i_glide_esite>  (1) 
0

>  <r_i_glide_evdw>  (1) 
-19.816597775371893

>  <r_i_glide_gscore>  (1) 
-6.5191245966346241

>  <r_i_glide_gscore_strain>  (1) 
0

>  <r_i_glide_hbond>  (1) 
0

>  <r_i_glide_ligand_efficiency>  (1) 
-0.72434717740384713

>  <r_i_glide_ligand_efficiency_ln>  (1) 
-2.0389948966506628

>  <r_i_glide_ligand_efficiency_sa>  (1) 
-1.5067028459910503

>  <r_i_glide_lipo>  (1) 
-2.6220626863222409

>  <r_i_glide_metal>  (1) 
-0

>  <r_i_glide_rewards>  (1) 
-2.7670190749810835

>  <r_lp_Energy>  (1) 
7.8773689999999998

>  <r_lp_tautomer_probability>  (1) 
1

>  <s_epik_cmdline>  (1) 
J2VwaWtfcHl0aG9uJywgJy1waHQnLCAnMS4wJywgJy1waCcsICc3LjQnLCAnLXRuJywgJzgnLCAnLW1hJywgJzUwMCcsICctaW1hZScsICc8aW5maWxlLm1hZT4nLCAnLW9tYWUnLCAnPG91dGZpbGUubWFlPic=

>  <s_epik_input>  (1) 
W0NIXTE9W0NIXVtDSDJdYyhjMTIpW2NIXVtjSF1bY0hdW2NIXTI=

>  <s_glide_docking_method>  (1) 
confgen

>  <s_i_glide_gridfile>  (1) 
gpcr_5ht2c_6bqh_protein_autoprepared_prepared

>  <s_lp_Force_Field>  (1) 
S-OPLS

>  <s_lp_Variant>  (1) 
Pocket2Mol_89-1

>  <s_m_source_file>  (1) 
generated_GPCR_5HT2C_ligand_Pocket2Mol_2026-06-23_prepared.sdf

>  <GenAI_Model>  (1) 
Pocket2Mol

>  <Protein>  (1) 
GPCR_5HT2C

$$$$
Pocket2Mol_72
     RDKit          3D

  0  0  0  0  0  0  0  0  0  0999 V3000
M  V30 BEGIN CTAB
M  V30 COUNTS 15 16 0 0 1
M  V30 BEGIN ATOM
M  V30 1 C 39.261630 28.123629 50.935217 0
M  V30 2 C 38.871583 28.332005 52.299395 0
M  V30 3 C 39.237483 29.467451 53.023383 0
M  V30 4 C 38.177558 27.594742 53.060961 0
M  V30 5 C 40.045137 30.472065 52.357552 0
M  V30 6 C 38.113081 28.293207 54.291690 0
M  V30 7 C 40.421022 30.285522 51.062368 0
M  V30 8 C 38.772440 29.481767 54.299080 0
M  V30 9 C 40.014892 29.069776 50.327093 0
M  V30 10 H 38.960022 27.231797 50.404131 0
M  V30 11 H 37.731609 26.639659 52.823567 0
M  V30 12 H 40.347596 31.360645 52.886841 0
M  V30 13 H 37.581782 27.904191 55.146703 0
M  V30 14 H 41.023151 31.033864 50.567146 0
M  V30 15 H 40.318922 28.937755 49.300121 0
M  V30 END ATOM
M  V30 BEGIN BOND
M  V30 1 1 2 1
M  V30 2 1 3 2
M  V30 3 2 4 2
M  V30 4 1 5 3
M  V30 5 1 6 4
M  V30 6 2 7 5
M  V30 7 2 8 3
M  V30 8 2 8 6
M  V30 9 2 9 1
M  V30 10 1 9 7
M  V30 11 1 10 1
M  V30 12 1 11 4
M  V30 13 1 12 5
M  V30 14 1 13 6
M  V30 15 1 14 7
M  V30 16 1 15 9
M  V30 END BOND
M  V30 END CTAB
M  END
>  <i_epik_Tot_Q>  (1) 
0

>  <i_epik_Tot_abs_Q>  (1) 
0

>  <i_i_glide_confnum>  (1) 
1

>  <i_i_glide_lignum>  (1) 
77

>  <i_i_glide_posenum>  (1) 
128

>  <i_i_glide_rotatable_bonds>  (1) 
0

>  <i_lp_mmshare_version>  (1) 
72125

>  <i_m_source_file_index>  (1) 
73

>  <i_f3d_flags>  (1) 
0

>  <num_sample>  (1) 
100

>  <b_lp_Chiralities_Consistent>  (1) 
1

>  <r_epik_Charging_Adjusted_Penalty>  (1) 
0

>  <r_epik_Ionization_Penalty>  (1) 
0

>  <r_epik_Ionization_Penalty_Charging>  (1) 
0

>  <r_epik_Ionization_Penalty_Neutral>  (1) 
0

>  <r_epik_State_Penalty>  (1) 
-0

>  <r_glide_ring_energy>  (1) 
0

>  <r_i_docking_score>  (1) 
-6.5002952954217665

>  <r_i_glide_ecoul>  (1) 
-0.95064028593284766

>  <r_i_glide_eff_state_penalty>  (1) 
-0

>  <r_i_glide_einternal>  (1) 
0

>  <r_i_glide_emodel>  (1) 
-30.329025189820154

>  <r_i_glide_emodel_strain>  (1) 
0

>  <r_i_glide_energy>  (1) 
-21.6817535732938

>  <r_i_glide_erotb>  (1) 
0

>  <r_i_glide_esite>  (1) 
0

>  <r_i_glide_evdw>  (1) 
-20.731113287360952

>  <r_i_glide_gscore>  (1) 
-6.5002952954217665

>  <r_i_glide_gscore_strain>  (1) 
0

>  <r_i_glide_hbond>  (1) 
0

>  <r_i_glide_ligand_efficiency>  (1) 
-0.72225503282464076

>  <r_i_glide_ligand_efficiency_ln>  (1) 
-2.033105632147215

>  <r_i_glide_ligand_efficiency_sa>  (1) 
-1.5023510098963575

>  <r_i_glide_lipo>  (1) 
-2.47402138274412

>  <r_i_glide_metal>  (1) 
-0

>  <r_i_glide_rewards>  (1) 
-2.8471222054196712

>  <r_lp_Energy>  (1) 
11.424324

>  <r_lp_tautomer_probability>  (1) 
1

>  <s_epik_cmdline>  (1) 
J2VwaWtfcHl0aG9uJywgJy1waHQnLCAnMS4wJywgJy1waCcsICc3LjQnLCAnLXRuJywgJzgnLCAnLW1hJywgJzUwMCcsICctaW1hZScsICc8aW5maWxlLm1hZT4nLCAnLW9tYWUnLCAnPG91dGZpbGUubWFlPic=

>  <s_epik_input>  (1) 
W2NIXTFbY0hdW2NIXVtjSF1jKGMxPTIpPUM9W0NIXVtDSF0y

>  <s_glide_docking_method>  (1) 
confgen

>  <s_i_glide_gridfile>  (1) 
gpcr_5ht2c_6bqh_protein_autoprepared_prepared

>  <s_lp_Force_Field>  (1) 
S-OPLS

>  <s_lp_Variant>  (1) 
Pocket2Mol_72-1

>  <s_m_source_file>  (1) 
generated_GPCR_5HT2C_ligand_Pocket2Mol_2026-06-23_prepared.sdf

>  <GenAI_Model>  (1) 
Pocket2Mol

>  <Protein>  (1) 
GPCR_5HT2C

$$$$
Pocket2Mol_79
     RDKit          3D

  0  0  0  0  0  0  0  0  0  0999 V3000
M  V30 BEGIN CTAB
M  V30 COUNTS 17 18 0 0 1
M  V30 BEGIN ATOM
M  V30 1 C 40.045000 30.384586 52.208851 0
M  V30 2 C 39.243325 29.367294 52.823658 0
M  V30 3 C 39.202834 27.906320 52.254101 0 CFG=2
M  V30 4 C 38.423623 29.586291 53.840334 0
M  V30 5 C 37.654491 28.469876 54.048043 0
M  V30 6 C 39.421861 27.985120 50.756072 0
M  V30 7 C 40.045135 29.038926 50.168200 0
M  V30 8 C 37.992500 27.537791 53.174271 0
M  V30 9 C 40.450663 30.220994 50.937797 0
M  V30 10 H 40.287377 31.291025 52.745612 0
M  V30 11 H 40.045241 27.339003 52.645264 0
M  V30 12 H 38.294719 30.532217 54.346921 0
M  V30 13 H 36.862841 28.387254 54.770914 0
M  V30 14 H 39.120063 27.131244 50.167872 0
M  V30 15 H 40.224080 29.017704 49.104059 0
M  V30 16 H 37.517784 26.568860 53.109293 0
M  V30 17 H 41.030370 30.996368 50.458266 0
M  V30 END ATOM
M  V30 BEGIN BOND
M  V30 1 1 2 1
M  V30 2 1 3 2
M  V30 3 2 4 2
M  V30 4 1 5 4
M  V30 5 1 6 3
M  V30 6 2 7 6
M  V30 7 1 8 3
M  V30 8 2 8 5
M  V30 9 2 9 1
M  V30 10 1 9 7
M  V30 11 1 10 1
M  V30 12 1 3 11 CFG=1
M  V30 13 1 12 4
M  V30 14 1 13 5
M  V30 15 1 14 6
M  V30 16 1 15 7
M  V30 17 1 16 8
M  V30 18 1 17 9
M  V30 END BOND
M  V30 END CTAB
M  END
>  <i_epik_Tot_Q>  (1) 
0

>  <i_epik_Tot_abs_Q>  (1) 
0

>  <i_i_glide_confnum>  (1) 
1

>  <i_i_glide_lignum>  (1) 
84

>  <i_i_glide_posenum>  (1) 
385

>  <i_i_glide_rotatable_bonds>  (1) 
0

>  <i_lp_mmshare_version>  (1) 
72125

>  <i_m_source_file_index>  (1) 
80

>  <i_f3d_flags>  (1) 
0

>  <num_sample>  (1) 
100

>  <b_lp_Chiralities_Consistent>  (1) 
1

>  <r_epik_Charging_Adjusted_Penalty>  (1) 
0

>  <r_epik_Ionization_Penalty>  (1) 
0

>  <r_epik_Ionization_Penalty_Charging>  (1) 
0

>  <r_epik_Ionization_Penalty_Neutral>  (1) 
0

>  <r_epik_State_Penalty>  (1) 
-0

>  <r_glide_ring_energy>  (1) 
0

>  <r_i_docking_score>  (1) 
-6.484581711372285

>  <r_i_glide_ecoul>  (1) 
-0.88860977408133479

>  <r_i_glide_eff_state_penalty>  (1) 
-0

>  <r_i_glide_einternal>  (1) 
0

>  <r_i_glide_emodel>  (1) 
-28.633152142590774

>  <r_i_glide_emodel_strain>  (1) 
0

>  <r_i_glide_energy>  (1) 
-20.215530450233956

>  <r_i_glide_erotb>  (1) 
0

>  <r_i_glide_esite>  (1) 
0

>  <r_i_glide_evdw>  (1) 
-19.326920676152621

>  <r_i_glide_gscore>  (1) 
-6.484581711372285

>  <r_i_glide_gscore_strain>  (1) 
0

>  <r_i_glide_hbond>  (1) 
0

>  <r_i_glide_ligand_efficiency>  (1) 
-0.72050907904136496

>  <r_i_glide_ligand_efficiency_ln>  (1) 
-2.0281908744661723

>  <r_i_glide_ligand_efficiency_sa>  (1) 
-1.4987192796759694

>  <r_i_glide_lipo>  (1) 
-2.5201456878552388

>  <r_i_glide_metal>  (1) 
-0

>  <r_i_glide_rewards>  (1) 
-2.8647985235972144

>  <r_lp_Energy>  (1) 
11.987261999999999

>  <r_lp_tautomer_probability>  (1) 
1

>  <s_epik_cmdline>  (1) 
J2VwaWtfcHl0aG9uJywgJy1waHQnLCAnMS4wJywgJy1waCcsICc3LjQnLCAnLXRuJywgJzgnLCAnLW1hJywgJzUwMCcsICctaW1hZScsICc8aW5maWxlLm1hZT4nLCAnLW9tYWUnLCAnPG91dGZpbGUubWFlPic=

>  <s_epik_input>  (1) 
W0NIXTE9W0NIXVtDSF09W0NIXVtDQEBIXShDMT0yKVtDSF09W0NIXVtDSF0y

>  <s_glide_docking_method>  (1) 
confgen

>  <s_i_glide_gridfile>  (1) 
gpcr_5ht2c_6bqh_protein_autoprepared_prepared

>  <s_lp_Force_Field>  (1) 
S-OPLS

>  <s_lp_Variant>  (1) 
Pocket2Mol_79-1

>  <s_m_source_file>  (1) 
generated_GPCR_5HT2C_ligand_Pocket2Mol_2026-06-23_prepared.sdf

>  <GenAI_Model>  (1) 
Pocket2Mol

>  <Protein>  (1) 
GPCR_5HT2C

$$$$
Pocket2Mol_94
     RDKit          3D

  0  0  0  0  0  0  0  0  0  0999 V3000
M  V30 BEGIN CTAB
M  V30 COUNTS 16 17 0 0 1
M  V30 BEGIN ATOM
M  V30 1 C 39.124950 29.943093 53.940179 0
M  V30 2 C 39.483075 29.737733 52.567854 0
M  V30 3 C 39.234415 28.544062 51.895228 0
M  V30 4 C 40.045138 30.529835 51.754568 0
M  V30 5 C 38.588236 27.471296 52.622114 0
M  V30 6 C 40.149540 29.803617 50.544796 0
M  V30 7 C 38.240590 27.643799 53.930049 0
M  V30 8 C 39.645137 28.543308 50.601795 0
M  V30 9 O 37.645138 26.651140 54.601357 0
M  V30 10 C 38.522476 28.933350 54.608067 0
M  V30 11 H 39.330509 30.883571 54.430445 0
M  V30 12 H 40.373877 31.540708 51.943065 0
M  V30 13 H 38.382584 26.538085 52.127151 0
M  V30 14 H 40.594316 30.226567 49.656017 0
M  V30 15 H 37.538233 25.926115 54.004662 0
M  V30 16 H 38.242842 29.067149 55.643231 0
M  V30 END ATOM
M  V30 BEGIN BOND
M  V30 1 1 2 1
M  V30 2 1 3 2
M  V30 3 2 4 2
M  V30 4 1 5 3
M  V30 5 1 6 4
M  V30 6 2 7 5
M  V30 7 2 8 3
M  V30 8 2 8 6
M  V30 9 1 9 7
M  V30 10 2 10 1
M  V30 11 1 10 7
M  V30 12 1 11 1
M  V30 13 1 12 4
M  V30 14 1 13 5
M  V30 15 1 14 6
M  V30 16 1 15 9
M  V30 17 1 16 10
M  V30 END BOND
M  V30 END CTAB
M  END
>  <i_epik_Tot_Q>  (1) 
0

>  <i_epik_Tot_abs_Q>  (1) 
0

>  <i_i_glide_confnum>  (1) 
1

>  <i_i_glide_lignum>  (1) 
99

>  <i_i_glide_posenum>  (1) 
182

>  <i_i_glide_rotatable_bonds>  (1) 
1

>  <i_lp_mmshare_version>  (1) 
72125

>  <i_m_source_file_index>  (1) 
95

>  <i_f3d_flags>  (1) 
0

>  <num_sample>  (1) 
100

>  <b_lp_Chiralities_Consistent>  (1) 
1

>  <r_epik_Charging_Adjusted_Penalty>  (1) 
0

>  <r_epik_Ionization_Penalty>  (1) 
1.8682351542324854e-05

>  <r_epik_Ionization_Penalty_Charging>  (1) 
0

>  <r_epik_Ionization_Penalty_Neutral>  (1) 
1.8682351542324854e-05

>  <r_epik_State_Penalty>  (1) 
-0

>  <r_glide_ring_energy>  (1) 
0

>  <r_i_docking_score>  (1) 
-6.4764613789217051

>  <r_i_glide_ecoul>  (1) 
-1.1328796705165962

>  <r_i_glide_eff_state_penalty>  (1) 
-0

>  <r_i_glide_einternal>  (1) 
0.00094472184791971614

>  <r_i_glide_emodel>  (1) 
-33.003778443355884

>  <r_i_glide_emodel_strain>  (1) 
0

>  <r_i_glide_energy>  (1) 
-23.019409798511901

>  <r_i_glide_erotb>  (1) 
0

>  <r_i_glide_esite>  (1) 
0

>  <r_i_glide_evdw>  (1) 
-21.886530127995304

>  <r_i_glide_gscore>  (1) 
-6.4764613789217051

>  <r_i_glide_gscore_strain>  (1) 
0

>  <r_i_glide_hbond>  (1) 
0

>  <r_i_glide_ligand_efficiency>  (1) 
-0.64764613789217051

>  <r_i_glide_ligand_efficiency_ln>  (1) 
-1.9610278604662077

>  <r_i_glide_ligand_efficiency_sa>  (1) 
-1.3953113063400651

>  <r_i_glide_lipo>  (1) 
-2.527629363511759

>  <r_i_glide_metal>  (1) 
-0

>  <r_i_glide_rewards>  (1) 
-2.6845735584326915

>  <r_lp_Energy>  (1) 
8.2800809999999991

>  <r_lp_tautomer_probability>  (1) 
1

>  <s_epik_cmdline>  (1) 
J2VwaWtfcHl0aG9uJywgJy1waHQnLCAnMS4wJywgJy1waCcsICc3LjQnLCAnLXRuJywgJzgnLCAnLW1hJywgJzUwMCcsICctaW1hZScsICc8aW5maWxlLm1hZT4nLCAnLW9tYWUnLCAnPG91dGZpbGUubWFlPic=

>  <s_epik_input>  (1) 
W2NIXTFbY0hdYyhbT0hdKVtjSF1jKGMxPTIpPUM9W0NIXVtDSF0y

>  <s_glide_docking_method>  (1) 
confgen

>  <s_i_glide_gridfile>  (1) 
gpcr_5ht2c_6bqh_protein_autoprepared_prepared

>  <s_lp_Force_Field>  (1) 
S-OPLS

>  <s_lp_Variant>  (1) 
Pocket2Mol_94-1

>  <s_m_source_file>  (1) 
generated_GPCR_5HT2C_ligand_Pocket2Mol_2026-06-23_prepared.sdf

>  <GenAI_Model>  (1) 
Pocket2Mol

>  <Protein>  (1) 
GPCR_5HT2C

$$$$
Pocket2Mol_97
     RDKit          3D

  0  0  0  0  0  0  0  0  0  0999 V3000
M  V30 BEGIN CTAB
M  V30 COUNTS 17 18 0 0 1
M  V30 BEGIN ATOM
M  V30 1 C 40.045137 30.369860 52.027766 0
M  V30 2 C 39.250654 30.032059 53.140582 0
M  V30 3 C 38.576482 28.800125 53.180523 0
M  V30 4 C 39.110079 30.911905 54.222479 0
M  V30 5 C 38.296049 30.524312 55.304738 0
M  V30 6 C 38.690993 27.893075 52.108752 0
M  V30 7 C 39.484549 28.227154 50.992403 0
M  V30 8 C 37.789160 28.497899 54.306297 0
M  V30 9 N 37.645140 29.337754 55.359017 0
M  V30 10 C 40.160829 29.466560 50.951270 0
M  V30 11 H 40.559934 31.319567 51.996168 0
M  V30 12 H 39.609581 31.867601 54.226060 0
M  V30 13 H 38.163979 31.182093 56.151655 0
M  V30 14 H 38.170453 26.945678 52.139223 0
M  V30 15 H 39.573175 27.535131 50.167761 0
M  V30 16 H 37.257807 27.559204 54.367106 0
M  V30 17 H 40.766402 29.723493 50.094465 0
M  V30 END ATOM
M  V30 BEGIN BOND
M  V30 1 2 2 1
M  V30 2 1 3 2
M  V30 3 1 4 2
M  V30 4 2 5 4
M  V30 5 2 6 3
M  V30 6 1 7 6
M  V30 7 1 8 3
M  V30 8 1 9 5
M  V30 9 2 9 8
M  V30 10 1 10 1
M  V30 11 2 10 7
M  V30 12 1 11 1
M  V30 13 1 12 4
M  V30 14 1 13 5
M  V30 15 1 14 6
M  V30 16 1 15 7
M  V30 17 1 16 8
M  V30 18 1 17 10
M  V30 END BOND
M  V30 END CTAB
M  END
>  <i_epik_Tot_Q>  (1) 
0

>  <i_epik_Tot_abs_Q>  (1) 
0

>  <i_i_glide_confnum>  (1) 
1

>  <i_i_glide_lignum>  (1) 
102

>  <i_i_glide_posenum>  (1) 
335

>  <i_i_glide_rotatable_bonds>  (1) 
0

>  <i_lp_mmshare_version>  (1) 
72125

>  <i_m_source_file_index>  (1) 
98

>  <i_f3d_flags>  (1) 
0

>  <num_sample>  (1) 
100

>  <b_lp_Chiralities_Consistent>  (1) 
1

>  <r_epik_Charging_Adjusted_Penalty>  (1) 
0.015036794032578672

>  <r_epik_Ionization_Penalty>  (1) 
0.01503679403257876

>  <r_epik_Ionization_Penalty_Charging>  (1) 
0

>  <r_epik_Ionization_Penalty_Neutral>  (1) 
0.01503679403257876

>  <r_epik_State_Penalty>  (1) 
0.015036794032578672

>  <r_glide_ring_energy>  (1) 
0

>  <r_i_docking_score>  (1) 
-6.4696068687045196

>  <r_i_glide_ecoul>  (1) 
-1.0229515686171213

>  <r_i_glide_eff_state_penalty>  (1) 
0.015036794032578672

>  <r_i_glide_einternal>  (1) 
0

>  <r_i_glide_emodel>  (1) 
-31.385543880898656

>  <r_i_glide_emodel_strain>  (1) 
0

>  <r_i_glide_energy>  (1) 
-22.160808219122206

>  <r_i_glide_erotb>  (1) 
0

>  <r_i_glide_esite>  (1) 
0

>  <r_i_glide_evdw>  (1) 
-21.137856650505086

>  <r_i_glide_gscore>  (1) 
-6.4846436627370982

>  <r_i_glide_gscore_strain>  (1) 
0

>  <r_i_glide_hbond>  (1) 
0

>  <r_i_glide_ligand_efficiency>  (1) 
-0.64696068687045194

>  <r_i_glide_ligand_efficiency_ln>  (1) 
-1.9589523620235705

>  <r_i_glide_ligand_efficiency_sa>  (1) 
-1.3938345468805569

>  <r_i_glide_lipo>  (1) 
-2.3139607300011757

>  <r_i_glide_metal>  (1) 
-0

>  <r_i_glide_rewards>  (1) 
-2.9603473649181002

>  <r_lp_Energy>  (1) 
19.776892999999998

>  <s_epik_cmdline>  (1) 
J2VwaWtfcHl0aG9uJywgJy1waHQnLCAnMS4wJywgJy1waCcsICc3LjQnLCAnLXRuJywgJzgnLCAnLW1hJywgJzUwMCcsICctaW1hZScsICc8aW5maWxlLm1hZT4nLCAnLW9tYWUnLCAnPG91dGZpbGUubWFlPic=

>  <s_epik_input>  (1) 
W2NIXTFbY0hdW2NIXVtjSF1jKGMxMilbY0hdbltjSF1bY0hdMg==

>  <s_glide_docking_method>  (1) 
confgen

>  <s_i_glide_gridfile>  (1) 
gpcr_5ht2c_6bqh_protein_autoprepared_prepared

>  <s_lp_Force_Field>  (1) 
S-OPLS

>  <s_lp_Variant>  (1) 
Pocket2Mol_97-1

>  <s_m_source_file>  (1) 
generated_GPCR_5HT2C_ligand_Pocket2Mol_2026-06-23_prepared.sdf

>  <GenAI_Model>  (1) 
Pocket2Mol

>  <Protein>  (1) 
GPCR_5HT2C

$$$$
Pocket2Mol_80
     RDKit          3D

  0  0  0  0  0  0  0  0  0  0999 V3000
M  V30 BEGIN CTAB
M  V30 COUNTS 17 17 0 0 1
M  V30 BEGIN ATOM
M  V30 1 C 39.286821 29.887984 53.240390 0
M  V30 2 C 40.045137 30.457799 52.197451 0
M  V30 3 C 40.203121 29.766184 50.980242 0
M  V30 4 C 41.015239 30.381485 49.861250 0
M  V30 5 C 39.603722 28.503264 50.805711 0
M  V30 6 C 38.688456 28.623396 53.065094 0
M  V30 7 C 37.896863 28.025777 54.161926 0
M  V30 8 O 37.350748 26.926711 54.087510 0
M  V30 9 C 38.846602 27.930684 51.845480 0
M  V30 10 H 39.166592 30.421628 54.172856 0
M  V30 11 H 40.502402 31.425267 52.330801 0
M  V30 12 H 41.036506 29.737755 48.981539 0
M  V30 13 H 40.582874 31.337797 49.571587 0
M  V30 14 H 42.041919 30.550172 50.186998 0
M  V30 15 H 39.722204 27.975227 49.874554 0
M  V30 16 H 37.833695 28.644352 55.057489 0
M  V30 17 H 38.387145 26.961642 51.706707 0
M  V30 END ATOM
M  V30 BEGIN BOND
M  V30 1 2 2 1
M  V30 2 1 3 2
M  V30 3 1 4 3
M  V30 4 2 5 3
M  V30 5 1 6 1
M  V30 6 1 7 6
M  V30 7 2 8 7
M  V30 8 1 9 5
M  V30 9 2 9 6
M  V30 10 1 10 1
M  V30 11 1 11 2
M  V30 12 1 12 4
M  V30 13 1 13 4
M  V30 14 1 14 4
M  V30 15 1 15 5
M  V30 16 1 16 7
M  V30 17 1 17 9
M  V30 END BOND
M  V30 END CTAB
M  END
>  <i_epik_Tot_Q>  (1) 
0

>  <i_epik_Tot_abs_Q>  (1) 
0

>  <i_i_glide_confnum>  (1) 
1

>  <i_i_glide_lignum>  (1) 
85

>  <i_i_glide_posenum>  (1) 
209

>  <i_i_glide_rotatable_bonds>  (1) 
1

>  <i_lp_mmshare_version>  (1) 
72125

>  <i_m_source_file_index>  (1) 
81

>  <i_f3d_flags>  (1) 
0

>  <num_sample>  (1) 
100

>  <b_lp_Chiralities_Consistent>  (1) 
1

>  <r_epik_Charging_Adjusted_Penalty>  (1) 
0

>  <r_epik_Ionization_Penalty>  (1) 
0

>  <r_epik_Ionization_Penalty_Charging>  (1) 
0

>  <r_epik_Ionization_Penalty_Neutral>  (1) 
0

>  <r_epik_State_Penalty>  (1) 
-0

>  <r_glide_ring_energy>  (1) 
0

>  <r_i_docking_score>  (1) 
-6.4646401911458904

>  <r_i_glide_ecoul>  (1) 
-0.57776428023537507

>  <r_i_glide_eff_state_penalty>  (1) 
-0

>  <r_i_glide_einternal>  (1) 
0.0025882341575671486

>  <r_i_glide_emodel>  (1) 
-30.244710984804133

>  <r_i_glide_emodel_strain>  (1) 
0

>  <r_i_glide_energy>  (1) 
-21.587905028474982

>  <r_i_glide_erotb>  (1) 
0

>  <r_i_glide_esite>  (1) 
0

>  <r_i_glide_evdw>  (1) 
-21.010140748239607

>  <r_i_glide_gscore>  (1) 
-6.4646401911458904

>  <r_i_glide_gscore_strain>  (1) 
0

>  <r_i_glide_hbond>  (1) 
0

>  <r_i_glide_ligand_efficiency>  (1) 
-0.71829335457176557

>  <r_i_glide_ligand_efficiency_ln>  (1) 
-2.0219537398063951

>  <r_i_glide_ligand_efficiency_sa>  (1) 
-1.4941103870504153

>  <r_i_glide_lipo>  (1) 
-2.0528818093473591

>  <r_i_glide_metal>  (1) 
-0

>  <r_i_glide_rewards>  (1) 
-3.2745867023512445

>  <r_lp_Energy>  (1) 
4.8020719999999999

>  <r_lp_tautomer_probability>  (1) 
1

>  <s_epik_cmdline>  (1) 
J2VwaWtfcHl0aG9uJywgJy1waHQnLCAnMS4wJywgJy1waCcsICc3LjQnLCAnLXRuJywgJzgnLCAnLW1hJywgJzUwMCcsICctaW1hZScsICc8aW5maWxlLm1hZT4nLCAnLW9tYWUnLCAnPG91dGZpbGUubWFlPic=

>  <s_epik_input>  (1) 
W2NIXTFbY0hdYyhbQ0hdPU8pW2NIXVtjSF1jMVtDSDNd

>  <s_glide_docking_method>  (1) 
confgen

>  <s_i_glide_gridfile>  (1) 
gpcr_5ht2c_6bqh_protein_autoprepared_prepared

>  <s_lp_Force_Field>  (1) 
S-OPLS

>  <s_lp_Variant>  (1) 
Pocket2Mol_80-1

>  <s_m_source_file>  (1) 
generated_GPCR_5HT2C_ligand_Pocket2Mol_2026-06-23_prepared.sdf

>  <GenAI_Model>  (1) 
Pocket2Mol

>  <Protein>  (1) 
GPCR_5HT2C

$$$$
Pocket2Mol_71
     RDKit          3D

  0  0  0  0  0  0  0  0  0  0999 V3000
M  V30 BEGIN CTAB
M  V30 COUNTS 17 17 0 0 1
M  V30 BEGIN ATOM
M  V30 1 C 40.045137 30.437521 52.029103 0
M  V30 2 C 39.633049 30.257710 53.363216 0
M  V30 3 C 38.824171 29.155288 53.709446 0
M  V30 4 C 38.375878 28.966285 55.146801 0
M  V30 5 C 38.430138 28.231423 52.714549 0
M  V30 6 O 37.645131 27.164155 53.042421 0
M  V30 7 C 39.651480 29.517810 51.039086 0
M  V30 8 O 40.045139 29.700220 49.747974 0
M  V30 9 C 38.845415 28.414039 51.381286 0
M  V30 10 H 40.661754 31.284781 51.764750 0
M  V30 11 H 39.935135 30.966805 54.120204 0
M  V30 12 H 38.569826 27.946516 55.480348 0
M  V30 13 H 38.898731 29.646714 55.819159 0
M  V30 14 H 37.306521 29.160842 55.232091 0
M  V30 15 H 37.279506 26.706524 52.294279 0
M  V30 16 H 39.425782 29.338615 49.129354 0
M  V30 17 H 38.543757 27.709050 50.620548 0
M  V30 END ATOM
M  V30 BEGIN BOND
M  V30 1 2 2 1
M  V30 2 1 3 2
M  V30 3 1 4 3
M  V30 4 2 5 3
M  V30 5 1 6 5
M  V30 6 1 7 1
M  V30 7 1 8 7
M  V30 8 1 9 5
M  V30 9 2 9 7
M  V30 10 1 10 1
M  V30 11 1 11 2
M  V30 12 1 12 4
M  V30 13 1 13 4
M  V30 14 1 14 4
M  V30 15 1 15 6
M  V30 16 1 16 8
M  V30 17 1 17 9
M  V30 END BOND
M  V30 END CTAB
M  END
>  <i_epik_Tot_Q>  (1) 
0

>  <i_epik_Tot_abs_Q>  (1) 
0

>  <i_i_glide_confnum>  (1) 
1

>  <i_i_glide_lignum>  (1) 
76

>  <i_i_glide_posenum>  (1) 
302

>  <i_i_glide_rotatable_bonds>  (1) 
2

>  <i_lp_mmshare_version>  (1) 
72125

>  <i_m_source_file_index>  (1) 
72

>  <i_f3d_flags>  (1) 
0

>  <num_sample>  (1) 
100

>  <b_lp_Chiralities_Consistent>  (1) 
1

>  <r_epik_Charging_Adjusted_Penalty>  (1) 
0.00325898940304725

>  <r_epik_Ionization_Penalty>  (1) 
0.005516606254364515

>  <r_epik_Ionization_Penalty_Charging>  (1) 
0

>  <r_epik_Ionization_Penalty_Neutral>  (1) 
0.005516606254364515

>  <r_epik_State_Penalty>  (1) 
0.00325898940304725

>  <r_glide_ring_energy>  (1) 
0

>  <r_i_docking_score>  (1) 
-6.4621671498107665

>  <r_i_glide_ecoul>  (1) 
-5.1473873706914128

>  <r_i_glide_eff_state_penalty>  (1) 
0.00325898940304725

>  <r_i_glide_einternal>  (1) 
0.55463147169032978

>  <r_i_glide_emodel>  (1) 
-32.393945603471749

>  <r_i_glide_emodel_strain>  (1) 
0.19077636023521372

>  <r_i_glide_energy>  (1) 
-23.388406384240557

>  <r_i_glide_erotb>  (1) 
0

>  <r_i_glide_esite>  (1) 
0

>  <r_i_glide_evdw>  (1) 
-18.241019013549145

>  <r_i_glide_gscore>  (1) 
-6.4654261392138137

>  <r_i_glide_gscore_strain>  (1) 
0

>  <r_i_glide_hbond>  (1) 
-0.45343968156896985

>  <r_i_glide_ligand_efficiency>  (1) 
-0.71801857220119625

>  <r_i_glide_ligand_efficiency_ln>  (1) 
-2.0211802435206936

>  <r_i_glide_ligand_efficiency_sa>  (1) 
-1.4935388166865342

>  <r_i_glide_lipo>  (1) 
-1.8679174353731114

>  <r_i_glide_metal>  (1) 
-0

>  <r_i_glide_rewards>  (1) 
-2.4599099659905632

>  <r_lp_Energy>  (1) 
3.8278699999999999

>  <r_lp_tautomer_probability>  (1) 
0.99999999989799981

>  <s_epik_cmdline>  (1) 
J2VwaWtfcHl0aG9uJywgJy1waHQnLCAnMS4wJywgJy1waCcsICc3LjQnLCAnLXRuJywgJzgnLCAnLW1hJywgJzUwMCcsICctaW1hZScsICc8aW5maWxlLm1hZT4nLCAnLW9tYWUnLCAnPG91dGZpbGUubWFlPic=

>  <s_epik_input>  (1) 
W0NIM11jMVtjSF1bY0hdYyhbT0hdKVtjSF1jMVtPSF0=

>  <s_glide_docking_method>  (1) 
confgen

>  <s_i_glide_gridfile>  (1) 
gpcr_5ht2c_6bqh_protein_autoprepared_prepared

>  <s_lp_Force_Field>  (1) 
S-OPLS

>  <s_lp_Variant>  (1) 
Pocket2Mol_71-1

>  <s_m_source_file>  (1) 
generated_GPCR_5HT2C_ligand_Pocket2Mol_2026-06-23_prepared.sdf

>  <GenAI_Model>  (1) 
Pocket2Mol

>  <Protein>  (1) 
GPCR_5HT2C

$$$$
Pocket2Mol_57
     RDKit          3D

  0  0  0  0  0  0  0  0  0  0999 V3000
M  V30 BEGIN CTAB
M  V30 COUNTS 16 16 0 0 1
M  V30 BEGIN ATOM
M  V30 1 C 39.522323 28.505009 50.776935 0
M  V30 2 C 40.045197 29.631513 51.432734 0
M  V30 3 C 38.593238 27.678657 51.431004 0
M  V30 4 C 38.182402 27.977414 52.743284 0
M  V30 5 O 37.269217 27.180332 53.367869 0
M  V30 6 C 41.032476 30.521695 50.723432 0
M  V30 7 C 38.711378 29.101341 53.407269 0
M  V30 8 C 39.644969 29.929145 52.752373 0
M  V30 9 H 39.829376 28.277916 49.767760 0
M  V30 10 H 38.189611 26.817343 50.922810 0
M  V30 11 H 36.880858 26.549679 52.772739 0
M  V30 12 H 41.290936 31.337752 51.381053 0
M  V30 13 H 41.951439 29.991325 50.487737 0
M  V30 14 H 40.605078 30.928840 49.806856 0
M  V30 15 H 38.398052 29.331996 54.414909 0
M  V30 16 H 40.047599 30.794208 53.259870 0
M  V30 END ATOM
M  V30 BEGIN BOND
M  V30 1 1 2 1
M  V30 2 2 3 1
M  V30 3 1 4 3
M  V30 4 1 5 4
M  V30 5 1 6 2
M  V30 6 2 7 4
M  V30 7 2 8 2
M  V30 8 1 8 7
M  V30 9 1 9 1
M  V30 10 1 10 3
M  V30 11 1 11 5
M  V30 12 1 12 6
M  V30 13 1 13 6
M  V30 14 1 14 6
M  V30 15 1 15 7
M  V30 16 1 16 8
M  V30 END BOND
M  V30 END CTAB
M  END
>  <i_epik_Tot_Q>  (1) 
0

>  <i_epik_Tot_abs_Q>  (1) 
0

>  <i_i_glide_confnum>  (1) 
1

>  <i_i_glide_lignum>  (1) 
61

>  <i_i_glide_posenum>  (1) 
202

>  <i_i_glide_rotatable_bonds>  (1) 
1

>  <i_lp_mmshare_version>  (1) 
72125

>  <i_m_source_file_index>  (1) 
58

>  <i_f3d_flags>  (1) 
0

>  <num_sample>  (1) 
100

>  <b_lp_Chiralities_Consistent>  (1) 
1

>  <r_epik_Charging_Adjusted_Penalty>  (1) 
0

>  <r_epik_Ionization_Penalty>  (1) 
0.0011734046256504545

>  <r_epik_Ionization_Penalty_Charging>  (1) 
0

>  <r_epik_Ionization_Penalty_Neutral>  (1) 
0.0011734046256504545

>  <r_epik_State_Penalty>  (1) 
-0

>  <r_glide_ring_energy>  (1) 
0

>  <r_i_docking_score>  (1) 
-6.4307615607778246

>  <r_i_glide_ecoul>  (1) 
-3.5805083032431257

>  <r_i_glide_eff_state_penalty>  (1) 
-0

>  <r_i_glide_einternal>  (1) 
0.12912859872540028

>  <r_i_glide_emodel>  (1) 
-28.993580005735552

>  <r_i_glide_emodel_strain>  (1) 
0.0086839595348937593

>  <r_i_glide_energy>  (1) 
-20.469796466740661

>  <r_i_glide_erotb>  (1) 
0

>  <r_i_glide_esite>  (1) 
0

>  <r_i_glide_evdw>  (1) 
-16.889288163497536

>  <r_i_glide_gscore>  (1) 
-6.4307615607778246

>  <r_i_glide_gscore_strain>  (1) 
0

>  <r_i_glide_hbond>  (1) 
-0.30705291817892105

>  <r_i_glide_ligand_efficiency>  (1) 
-0.80384519509722807

>  <r_i_glide_ligand_efficiency_ln>  (1) 
-2.0882882411431791

>  <r_i_glide_ligand_efficiency_sa>  (1) 
-1.6076903901944564

>  <r_i_glide_lipo>  (1) 
-2.2323232748897279

>  <r_i_glide_metal>  (1) 
-0

>  <r_i_glide_rewards>  (1) 
-2.5098447140478295

>  <r_lp_Energy>  (1) 
4.2645419999999996

>  <r_lp_tautomer_probability>  (1) 
1

>  <s_epik_cmdline>  (1) 
J2VwaWtfcHl0aG9uJywgJy1waHQnLCAnMS4wJywgJy1waCcsICc3LjQnLCAnLXRuJywgJzgnLCAnLW1hJywgJzUwMCcsICctaW1hZScsICc8aW5maWxlLm1hZT4nLCAnLW9tYWUnLCAnPG91dGZpbGUubWFlPic=

>  <s_epik_input>  (1) 
W0NIM11jMVtjSF1bY0hdYyhbT0hdKVtjSF1bY0hdMQ==

>  <s_glide_docking_method>  (1) 
confgen

>  <s_i_glide_gridfile>  (1) 
gpcr_5ht2c_6bqh_protein_autoprepared_prepared

>  <s_lp_Force_Field>  (1) 
S-OPLS

>  <s_lp_Variant>  (1) 
Pocket2Mol_57-1

>  <s_m_source_file>  (1) 
generated_GPCR_5HT2C_ligand_Pocket2Mol_2026-06-23_prepared.sdf

>  <GenAI_Model>  (1) 
Pocket2Mol

>  <Protein>  (1) 
GPCR_5HT2C

$$$$
Pocket2Mol_93
     RDKit          3D

  0  0  0  0  0  0  0  0  0  0999 V3000
M  V30 BEGIN CTAB
M  V30 COUNTS 17 18 0 0 1
M  V30 BEGIN ATOM
M  V30 1 C 39.247072 28.176089 50.969737 0
M  V30 2 C 38.848286 28.416351 52.300137 0
M  V30 3 C 39.245135 29.610404 52.976651 0
M  V30 4 C 38.050338 27.477248 52.979087 0
M  V30 5 C 40.045137 30.537755 52.272525 0
M  V30 6 N 38.866571 29.852557 54.256620 0
M  V30 7 C 37.668585 27.745917 54.297506 0
M  V30 8 C 40.041347 29.117017 50.294101 0
M  V30 9 C 38.096976 28.942865 54.892172 0
M  V30 10 C 40.439296 30.293203 50.943151 0
M  V30 11 H 38.939990 27.269085 50.467393 0
M  V30 12 H 37.735697 26.565889 52.493616 0
M  V30 13 H 40.357644 31.446497 52.760865 0
M  V30 14 H 37.055903 27.046113 54.846795 0
M  V30 15 H 40.342699 28.937755 49.273327 0
M  V30 16 H 37.816183 29.178731 55.908550 0
M  V30 17 H 41.049699 31.015950 50.421012 0
M  V30 END ATOM
M  V30 BEGIN BOND
M  V30 1 2 2 1
M  V30 2 1 3 2
M  V30 3 1 4 2
M  V30 4 2 5 3
M  V30 5 1 6 3
M  V30 6 2 7 4
M  V30 7 1 8 1
M  V30 8 2 9 6
M  V30 9 1 9 7
M  V30 10 1 10 5
M  V30 11 2 10 8
M  V30 12 1 11 1
M  V30 13 1 12 4
M  V30 14 1 13 5
M  V30 15 1 14 7
M  V30 16 1 15 8
M  V30 17 1 16 9
M  V30 18 1 17 10
M  V30 END BOND
M  V30 END CTAB
M  END
>  <i_epik_Tot_Q>  (1) 
0

>  <i_epik_Tot_abs_Q>  (1) 
0

>  <i_i_glide_confnum>  (1) 
1

>  <i_i_glide_lignum>  (1) 
98

>  <i_i_glide_posenum>  (1) 
331

>  <i_i_glide_rotatable_bonds>  (1) 
0

>  <i_lp_mmshare_version>  (1) 
72125

>  <i_m_source_file_index>  (1) 
94

>  <i_f3d_flags>  (1) 
0

>  <num_sample>  (1) 
100

>  <b_lp_Chiralities_Consistent>  (1) 
1

>  <r_epik_Charging_Adjusted_Penalty>  (1) 
0

>  <r_epik_Ionization_Penalty>  (1) 
0.0026406434276513078

>  <r_epik_Ionization_Penalty_Charging>  (1) 
0

>  <r_epik_Ionization_Penalty_Neutral>  (1) 
0.0026406434276513078

>  <r_epik_State_Penalty>  (1) 
-0

>  <r_glide_ring_energy>  (1) 
0

>  <r_i_docking_score>  (1) 
-6.4306707171505124

>  <r_i_glide_ecoul>  (1) 
-1.1693167637863824

>  <r_i_glide_eff_state_penalty>  (1) 
-0

>  <r_i_glide_einternal>  (1) 
0

>  <r_i_glide_emodel>  (1) 
-31.391157409554395

>  <r_i_glide_emodel_strain>  (1) 
0

>  <r_i_glide_energy>  (1) 
-22.442933255117865

>  <r_i_glide_erotb>  (1) 
0

>  <r_i_glide_esite>  (1) 
0

>  <r_i_glide_evdw>  (1) 
-21.273616491331481

>  <r_i_glide_gscore>  (1) 
-6.4306707171505124

>  <r_i_glide_gscore_strain>  (1) 
0

>  <r_i_glide_hbond>  (1) 
0

>  <r_i_glide_ligand_efficiency>  (1) 
-0.64306707171505129

>  <r_i_glide_ligand_efficiency_ln>  (1) 
-1.9471627637368816

>  <r_i_glide_ligand_efficiency_sa>  (1) 
-1.3854460073201278

>  <r_i_glide_lipo>  (1) 
-2.4256972193056581

>  <r_i_glide_metal>  (1) 
-0

>  <r_i_glide_rewards>  (1) 
-2.7658951587103231

>  <r_lp_Energy>  (1) 
20.260538

>  <r_lp_tautomer_probability>  (1) 
1

>  <s_epik_cmdline>  (1) 
J2VwaWtfcHl0aG9uJywgJy1waHQnLCAnMS4wJywgJy1waCcsICc3LjQnLCAnLXRuJywgJzgnLCAnLW1hJywgJzUwMCcsICctaW1hZScsICc8aW5maWxlLm1hZT4nLCAnLW9tYWUnLCAnPG91dGZpbGUubWFlPic=

>  <s_epik_input>  (1) 
W2NIXTFbY0hdW2NIXVtjSF1jKGMxMiluW2NIXVtjSF1bY0hdMg==

>  <s_glide_docking_method>  (1) 
confgen

>  <s_i_glide_gridfile>  (1) 
gpcr_5ht2c_6bqh_protein_autoprepared_prepared

>  <s_lp_Force_Field>  (1) 
S-OPLS

>  <s_lp_Variant>  (1) 
Pocket2Mol_93-1

>  <s_m_source_file>  (1) 
generated_GPCR_5HT2C_ligand_Pocket2Mol_2026-06-23_prepared.sdf

>  <GenAI_Model>  (1) 
Pocket2Mol

>  <Protein>  (1) 
GPCR_5HT2C

$$$$
Pocket2Mol_97
     RDKit          3D

  0  0  0  0  0  0  0  0  0  0999 V3000
M  V30 BEGIN CTAB
M  V30 COUNTS 17 18 0 0 1
M  V30 BEGIN ATOM
M  V30 1 C 39.245139 28.155666 50.967761 0
M  V30 2 C 38.847342 28.387157 52.297792 0
M  V30 3 C 39.245137 29.559642 52.961231 0
M  V30 4 C 38.053257 27.461967 52.987103 0
M  V30 5 C 37.688558 27.745256 54.315982 0
M  V30 6 C 40.045137 30.511677 52.299731 0
M  V30 7 C 40.445130 30.285366 50.967324 0
M  V30 8 C 38.829392 29.758546 54.291730 0
M  V30 9 N 38.063448 28.871203 54.970702 0
M  V30 10 C 40.045106 29.108647 50.301142 0
M  V30 11 H 38.938589 27.253296 50.458020 0
M  V30 12 H 37.726066 26.550101 52.511358 0
M  V30 13 H 37.079161 27.048770 54.872610 0
M  V30 14 H 40.350987 31.410952 52.809956 0
M  V30 15 H 41.058075 31.014094 50.456031 0
M  V30 16 H 39.118775 30.650502 54.828371 0
M  V30 17 H 40.350326 28.937755 49.279871 0
M  V30 END ATOM
M  V30 BEGIN BOND
M  V30 1 2 2 1
M  V30 2 1 3 2
M  V30 3 1 4 2
M  V30 4 2 5 4
M  V30 5 2 6 3
M  V30 6 1 7 6
M  V30 7 1 8 3
M  V30 8 1 9 5
M  V30 9 2 9 8
M  V30 10 1 10 1
M  V30 11 2 10 7
M  V30 12 1 11 1
M  V30 13 1 12 4
M  V30 14 1 13 5
M  V30 15 1 14 6
M  V30 16 1 15 7
M  V30 17 1 16 8
M  V30 18 1 17 10
M  V30 END BOND
M  V30 END CTAB
M  END
>  <i_epik_Tot_Q>  (1) 
0

>  <i_epik_Tot_abs_Q>  (1) 
0

>  <i_i_glide_confnum>  (1) 
1

>  <i_i_glide_lignum>  (1) 
102

>  <i_i_glide_posenum>  (1) 
372

>  <i_i_glide_rotatable_bonds>  (1) 
0

>  <i_lp_mmshare_version>  (1) 
72125

>  <i_m_source_file_index>  (1) 
98

>  <i_f3d_flags>  (1) 
0

>  <num_sample>  (1) 
100

>  <b_lp_Chiralities_Consistent>  (1) 
1

>  <r_epik_Charging_Adjusted_Penalty>  (1) 
0.015036794032578672

>  <r_epik_Ionization_Penalty>  (1) 
0.01503679403257876

>  <r_epik_Ionization_Penalty_Charging>  (1) 
0

>  <r_epik_Ionization_Penalty_Neutral>  (1) 
0.01503679403257876

>  <r_epik_State_Penalty>  (1) 
0.015036794032578672

>  <r_glide_ring_energy>  (1) 
0

>  <r_i_docking_score>  (1) 
-6.4274668140919466

>  <r_i_glide_ecoul>  (1) 
-1.0223915046993086

>  <r_i_glide_eff_state_penalty>  (1) 
0.015036794032578672

>  <r_i_glide_einternal>  (1) 
0

>  <r_i_glide_emodel>  (1) 
-31.434125089348797

>  <r_i_glide_emodel_strain>  (1) 
0

>  <r_i_glide_energy>  (1) 
-22.269335800078146

>  <r_i_glide_erotb>  (1) 
0

>  <r_i_glide_esite>  (1) 
0

>  <r_i_glide_evdw>  (1) 
-21.246944295378839

>  <r_i_glide_gscore>  (1) 
-6.4425036081245253

>  <r_i_glide_gscore_strain>  (1) 
0

>  <r_i_glide_hbond>  (1) 
0

>  <r_i_glide_ligand_efficiency>  (1) 
-0.64274668140919466

>  <r_i_glide_ligand_efficiency_ln>  (1) 
-1.9461926439766482

>  <r_i_glide_ligand_efficiency_sa>  (1) 
-1.3847557473308403

>  <r_i_glide_lipo>  (1) 
-2.45788900444912

>  <r_i_glide_metal>  (1) 
-0

>  <r_i_glide_rewards>  (1) 
-2.7689086632015676

>  <r_lp_Energy>  (1) 
19.776892999999998

>  <s_epik_cmdline>  (1) 
J2VwaWtfcHl0aG9uJywgJy1waHQnLCAnMS4wJywgJy1waCcsICc3LjQnLCAnLXRuJywgJzgnLCAnLW1hJywgJzUwMCcsICctaW1hZScsICc8aW5maWxlLm1hZT4nLCAnLW9tYWUnLCAnPG91dGZpbGUubWFlPic=

>  <s_epik_input>  (1) 
W2NIXTFbY0hdW2NIXVtjSF1jKGMxMilbY0hdbltjSF1bY0hdMg==

>  <s_glide_docking_method>  (1) 
confgen

>  <s_i_glide_gridfile>  (1) 
gpcr_5ht2c_6bqh_protein_autoprepared_prepared

>  <s_lp_Force_Field>  (1) 
S-OPLS

>  <s_lp_Variant>  (1) 
Pocket2Mol_97-1

>  <s_m_source_file>  (1) 
generated_GPCR_5HT2C_ligand_Pocket2Mol_2026-06-23_prepared.sdf

>  <GenAI_Model>  (1) 
Pocket2Mol

>  <Protein>  (1) 
GPCR_5HT2C

$$$$
Pocket2Mol_1
     RDKit          3D

  0  0  0  0  0  0  0  0  0  0999 V3000
M  V30 BEGIN CTAB
M  V30 COUNTS 19 20 0 0 1
M  V30 BEGIN ATOM
M  V30 1 C 39.636417 30.451130 53.277194 0
M  V30 2 C 39.245363 29.352537 52.423663 0
M  V30 3 C 38.072487 28.537754 52.700444 0 CFG=2
M  V30 4 C 39.896355 28.972384 51.387845 0
M  V30 5 C 37.654073 28.626940 54.160107 0
M  V30 6 C 38.095104 29.611269 54.980378 0
M  V30 7 C 39.368244 27.756990 50.735658 0
M  V30 8 O 37.645109 29.684059 56.239222 0
M  V30 9 N 38.445135 27.337749 51.878399 0
M  V30 10 C 39.072944 30.588510 54.492657 0
M  V30 11 H 40.392435 31.150310 52.949582 0
M  V30 12 H 37.243503 28.965224 52.145263 0
M  V30 13 H 40.799316 29.446689 51.031697 0
M  V30 14 H 36.938313 27.899870 54.514054 0
M  V30 15 H 38.845139 28.034497 49.823170 0
M  V30 16 H 40.097945 26.984055 50.520856 0
M  V30 17 H 37.828563 30.551826 56.567687 0
M  V30 18 H 37.610421 26.864868 51.536984 0
M  V30 19 H 39.379028 31.403852 55.131898 0
M  V30 END ATOM
M  V30 BEGIN BOND
M  V30 1 1 2 1
M  V30 2 1 3 2
M  V30 3 2 4 2
M  V30 4 1 5 3
M  V30 5 2 6 5
M  V30 6 1 7 4
M  V30 7 1 8 6
M  V30 8 1 9 3
M  V30 9 1 9 7
M  V30 10 2 10 1
M  V30 11 1 10 6
M  V30 12 1 11 1
M  V30 13 1 3 12 CFG=3
M  V30 14 1 13 4
M  V30 15 1 14 5
M  V30 16 1 15 7
M  V30 17 1 16 7
M  V30 18 1 17 8
M  V30 19 1 18 9
M  V30 20 1 19 10
M  V30 END BOND
M  V30 END CTAB
M  END
>  <i_epik_Tot_Q>  (1) 
0

>  <i_epik_Tot_abs_Q>  (1) 
0

>  <i_i_glide_confnum>  (1) 
1

>  <i_i_glide_lignum>  (1) 
3

>  <i_i_glide_posenum>  (1) 
265

>  <i_i_glide_rotatable_bonds>  (1) 
1

>  <i_lp_mmshare_version>  (1) 
72125

>  <i_m_source_file_index>  (1) 
2

>  <i_f3d_flags>  (1) 
0

>  <num_sample>  (1) 
100

>  <b_lp_Chiralities_Consistent>  (1) 
1

>  <r_epik_Charging_Adjusted_Penalty>  (1) 
0.0032380173127296522

>  <r_epik_Ionization_Penalty>  (1) 
0.0032399356015129686

>  <r_epik_Ionization_Penalty_Charging>  (1) 
0

>  <r_epik_Ionization_Penalty_Neutral>  (1) 
0.0032399356015129686

>  <r_epik_State_Penalty>  (1) 
0.0032380173127296522

>  <r_glide_ring_energy>  (1) 
0

>  <r_i_docking_score>  (1) 
-6.4250869966442981

>  <r_i_glide_ecoul>  (1) 
-2.9592842351190973

>  <r_i_glide_eff_state_penalty>  (1) 
0.0032380173127296522

>  <r_i_glide_einternal>  (1) 
0.58182569741085599

>  <r_i_glide_emodel>  (1) 
-32.715695033014875

>  <r_i_glide_emodel_strain>  (1) 
0.01826864383033211

>  <r_i_glide_energy>  (1) 
-23.681927042480549

>  <r_i_glide_erotb>  (1) 
0

>  <r_i_glide_esite>  (1) 
0

>  <r_i_glide_evdw>  (1) 
-20.722642807361453

>  <r_i_glide_gscore>  (1) 
-6.4283250139570276

>  <r_i_glide_gscore_strain>  (1) 
0

>  <r_i_glide_hbond>  (1) 
-0.32000000000000001

>  <r_i_glide_ligand_efficiency>  (1) 
-0.64250869966442981

>  <r_i_glide_ligand_efficiency_ln>  (1) 
-1.9454720516586193

>  <r_i_glide_ligand_efficiency_sa>  (1) 
-1.3842430312043246

>  <r_i_glide_lipo>  (1) 
-2.178300238321091

>  <r_i_glide_metal>  (1) 
-0

>  <r_i_glide_rewards>  (1) 
-2.4500000000000002

>  <r_lp_Energy>  (1) 
5.6201189999999999

>  <s_epik_cmdline>  (1) 
J2VwaWtfcHl0aG9uJywgJy1waHQnLCAnMS4wJywgJy1waCcsICc3LjQnLCAnLXRuJywgJzgnLCAnLW1hJywgJzUwMCcsICctaW1hZScsICc8aW5maWxlLm1hZT4nLCAnLW9tYWUnLCAnPG91dGZpbGUubWFlPic=

>  <s_epik_input>  (1) 
W0NIXTE9W0NIXUMoW09IXSk9W0NIXVtDQEBIXShDMT0yKVtOSF1bQ0gyXVtDSF0y

>  <s_glide_docking_method>  (1) 
confgen

>  <s_i_glide_gridfile>  (1) 
gpcr_5ht2c_6bqh_protein_autoprepared_prepared

>  <s_lp_Force_Field>  (1) 
S-OPLS

>  <s_lp_Variant>  (1) 
Pocket2Mol_1-1

>  <s_m_source_file>  (1) 
generated_GPCR_5HT2C_ligand_Pocket2Mol_2026-06-23_prepared.sdf

>  <GenAI_Model>  (1) 
Pocket2Mol

>  <Protein>  (1) 
GPCR_5HT2C

$$$$
Pocket2Mol_89
     RDKit          3D

  0  0  0  0  0  0  0  0  0  0999 V3000
M  V30 BEGIN CTAB
M  V30 COUNTS 17 18 0 0 1
M  V30 BEGIN ATOM
M  V30 1 C 38.099521 27.564164 53.014448 0
M  V30 2 C 38.867349 28.362839 52.211841 0
M  V30 3 C 39.245136 28.145398 50.885635 0
M  V30 4 C 40.045137 29.126699 50.248793 0
M  V30 5 C 40.445532 30.291007 50.967760 0
M  V30 6 C 39.245131 29.472893 52.910219 0
M  V30 7 C 38.710926 29.522344 54.388114 0
M  V30 8 C 40.044013 30.462582 52.317968 0
M  V30 9 C 37.977832 28.135136 54.204198 0
M  V30 10 H 37.675854 26.623556 52.693682 0
M  V30 11 H 38.931691 27.256246 50.357519 0
M  V30 12 H 40.350433 28.993368 49.222080 0
M  V30 13 H 41.056439 31.040648 50.485657 0
M  V30 14 H 38.017771 30.345939 54.563260 0
M  V30 15 H 39.506659 29.487054 55.132468 0
M  V30 16 H 40.341212 31.337753 52.875131 0
M  V30 17 H 37.416960 27.700500 55.017141 0
M  V30 END ATOM
M  V30 BEGIN BOND
M  V30 1 1 2 1
M  V30 2 2 3 2
M  V30 3 1 4 3
M  V30 4 2 5 4
M  V30 5 1 6 2
M  V30 6 1 7 6
M  V30 7 1 8 5
M  V30 8 2 8 6
M  V30 9 2 9 1
M  V30 10 1 9 7
M  V30 11 1 10 1
M  V30 12 1 11 3
M  V30 13 1 12 4
M  V30 14 1 13 5
M  V30 15 1 14 7
M  V30 16 1 15 7
M  V30 17 1 16 8
M  V30 18 1 17 9
M  V30 END BOND
M  V30 END CTAB
M  END
>  <i_epik_Tot_Q>  (1) 
0

>  <i_epik_Tot_abs_Q>  (1) 
0

>  <i_i_glide_confnum>  (1) 
1

>  <i_i_glide_lignum>  (1) 
94

>  <i_i_glide_posenum>  (1) 
153

>  <i_i_glide_rotatable_bonds>  (1) 
0

>  <i_lp_mmshare_version>  (1) 
72125

>  <i_m_source_file_index>  (1) 
90

>  <i_f3d_flags>  (1) 
0

>  <num_sample>  (1) 
100

>  <b_lp_Chiralities_Consistent>  (1) 
1

>  <r_epik_Charging_Adjusted_Penalty>  (1) 
0

>  <r_epik_Ionization_Penalty>  (1) 
0

>  <r_epik_Ionization_Penalty_Charging>  (1) 
0

>  <r_epik_Ionization_Penalty_Neutral>  (1) 
0

>  <r_epik_State_Penalty>  (1) 
-0

>  <r_glide_ring_energy>  (1) 
0

>  <r_i_docking_score>  (1) 
-6.42478562542854

>  <r_i_glide_ecoul>  (1) 
-1.0939963150160228

>  <r_i_glide_eff_state_penalty>  (1) 
-0

>  <r_i_glide_einternal>  (1) 
0

>  <r_i_glide_emodel>  (1) 
-29.425760788586011

>  <r_i_glide_emodel_strain>  (1) 
0

>  <r_i_glide_energy>  (1) 
-21.041903073012257

>  <r_i_glide_erotb>  (1) 
0

>  <r_i_glide_esite>  (1) 
0

>  <r_i_glide_evdw>  (1) 
-19.947906757996236

>  <r_i_glide_gscore>  (1) 
-6.42478562542854

>  <r_i_glide_gscore_strain>  (1) 
0

>  <r_i_glide_hbond>  (1) 
0

>  <r_i_glide_ligand_efficiency>  (1) 
-0.71386506949205997

>  <r_i_glide_ligand_efficiency_ln>  (1) 
-2.0094883765660829

>  <r_i_glide_ligand_efficiency_sa>  (1) 
-1.4848991828922575

>  <r_i_glide_lipo>  (1) 
-2.4645825666177577

>  <r_i_glide_metal>  (1) 
-0

>  <r_i_glide_rewards>  (1) 
-2.7987082736585673

>  <r_lp_Energy>  (1) 
7.8773689999999998

>  <r_lp_tautomer_probability>  (1) 
1

>  <s_epik_cmdline>  (1) 
J2VwaWtfcHl0aG9uJywgJy1waHQnLCAnMS4wJywgJy1waCcsICc3LjQnLCAnLXRuJywgJzgnLCAnLW1hJywgJzUwMCcsICctaW1hZScsICc8aW5maWxlLm1hZT4nLCAnLW9tYWUnLCAnPG91dGZpbGUubWFlPic=

>  <s_epik_input>  (1) 
W0NIXTE9W0NIXVtDSDJdYyhjMTIpW2NIXVtjSF1bY0hdW2NIXTI=

>  <s_glide_docking_method>  (1) 
confgen

>  <s_i_glide_gridfile>  (1) 
gpcr_5ht2c_6bqh_protein_autoprepared_prepared

>  <s_lp_Force_Field>  (1) 
S-OPLS

>  <s_lp_Variant>  (1) 
Pocket2Mol_89-1

>  <s_m_source_file>  (1) 
generated_GPCR_5HT2C_ligand_Pocket2Mol_2026-06-23_prepared.sdf

>  <GenAI_Model>  (1) 
Pocket2Mol

>  <Protein>  (1) 
GPCR_5HT2C

$$$$
Pocket2Mol_97
     RDKit          3D

  0  0  0  0  0  0  0  0  0  0999 V3000
M  V30 BEGIN CTAB
M  V30 COUNTS 17 18 0 0 1
M  V30 BEGIN ATOM
M  V30 1 C 40.045146 30.535763 52.289839 0
M  V30 2 C 39.245147 29.589677 52.959438 0
M  V30 3 C 38.847290 28.411444 52.306277 0
M  V30 4 C 38.832463 29.798854 54.282347 0
M  V30 5 C 38.037084 28.816674 54.902668 0
M  V30 6 C 39.245189 28.169096 50.976457 0
M  V30 7 C 40.045137 29.116738 50.302070 0
M  V30 8 C 38.049063 27.487244 53.007331 0
M  V30 9 N 37.645137 27.673812 54.286637 0
M  V30 10 C 40.445104 30.299223 50.958321 0
M  V30 11 H 40.350209 31.439093 52.792641 0
M  V30 12 H 39.116772 30.693206 54.815998 0
M  V30 13 H 37.700798 28.950147 55.921013 0
M  V30 14 H 38.938111 27.263010 50.473749 0
M  V30 15 H 40.349221 28.937821 49.281386 0
M  V30 16 H 37.725532 26.573220 52.534136 0
M  V30 17 H 41.057452 31.024349 50.440307 0
M  V30 END ATOM
M  V30 BEGIN BOND
M  V30 1 2 2 1
M  V30 2 1 3 2
M  V30 3 1 4 2
M  V30 4 2 5 4
M  V30 5 2 6 3
M  V30 6 1 7 6
M  V30 7 1 8 3
M  V30 8 1 9 5
M  V30 9 2 9 8
M  V30 10 1 10 1
M  V30 11 2 10 7
M  V30 12 1 11 1
M  V30 13 1 12 4
M  V30 14 1 13 5
M  V30 15 1 14 6
M  V30 16 1 15 7
M  V30 17 1 16 8
M  V30 18 1 17 10
M  V30 END BOND
M  V30 END CTAB
M  END
>  <i_epik_Tot_Q>  (1) 
0

>  <i_epik_Tot_abs_Q>  (1) 
0

>  <i_i_glide_confnum>  (1) 
1

>  <i_i_glide_lignum>  (1) 
102

>  <i_i_glide_posenum>  (1) 
382

>  <i_i_glide_rotatable_bonds>  (1) 
0

>  <i_lp_mmshare_version>  (1) 
72125

>  <i_m_source_file_index>  (1) 
98

>  <i_f3d_flags>  (1) 
0

>  <num_sample>  (1) 
100

>  <b_lp_Chiralities_Consistent>  (1) 
1

>  <r_epik_Charging_Adjusted_Penalty>  (1) 
0.015036794032578672

>  <r_epik_Ionization_Penalty>  (1) 
0.01503679403257876

>  <r_epik_Ionization_Penalty_Charging>  (1) 
0

>  <r_epik_Ionization_Penalty_Neutral>  (1) 
0.01503679403257876

>  <r_epik_State_Penalty>  (1) 
0.015036794032578672

>  <r_glide_ring_energy>  (1) 
0

>  <r_i_docking_score>  (1) 
-6.4082577426195702

>  <r_i_glide_ecoul>  (1) 
-1.5938209181428513

>  <r_i_glide_eff_state_penalty>  (1) 
0.015036794032578672

>  <r_i_glide_einternal>  (1) 
0

>  <r_i_glide_emodel>  (1) 
-32.215342518200686

>  <r_i_glide_emodel_strain>  (1) 
0

>  <r_i_glide_energy>  (1) 
-23.077879110791375

>  <r_i_glide_erotb>  (1) 
0

>  <r_i_glide_esite>  (1) 
0

>  <r_i_glide_evdw>  (1) 
-21.484058192648526

>  <r_i_glide_gscore>  (1) 
-6.4232945366521488

>  <r_i_glide_gscore_strain>  (1) 
0

>  <r_i_glide_hbond>  (1) 
0

>  <r_i_glide_ligand_efficiency>  (1) 
-0.64082577426195697

>  <r_i_glide_ligand_efficiency_ln>  (1) 
-1.9403762695513151

>  <r_i_glide_ligand_efficiency_sa>  (1) 
-1.3806172783365014

>  <r_i_glide_lipo>  (1) 
-2.3146831952691564

>  <r_i_glide_metal>  (1) 
-0

>  <r_i_glide_rewards>  (1) 
-2.7953352940291389

>  <r_lp_Energy>  (1) 
19.776892999999998

>  <s_epik_cmdline>  (1) 
J2VwaWtfcHl0aG9uJywgJy1waHQnLCAnMS4wJywgJy1waCcsICc3LjQnLCAnLXRuJywgJzgnLCAnLW1hJywgJzUwMCcsICctaW1hZScsICc8aW5maWxlLm1hZT4nLCAnLW9tYWUnLCAnPG91dGZpbGUubWFlPic=

>  <s_epik_input>  (1) 
W2NIXTFbY0hdW2NIXVtjSF1jKGMxMilbY0hdbltjSF1bY0hdMg==

>  <s_glide_docking_method>  (1) 
confgen

>  <s_i_glide_gridfile>  (1) 
gpcr_5ht2c_6bqh_protein_autoprepared_prepared

>  <s_lp_Force_Field>  (1) 
S-OPLS

>  <s_lp_Variant>  (1) 
Pocket2Mol_97-1

>  <s_m_source_file>  (1) 
generated_GPCR_5HT2C_ligand_Pocket2Mol_2026-06-23_prepared.sdf

>  <GenAI_Model>  (1) 
Pocket2Mol

>  <Protein>  (1) 
GPCR_5HT2C

$$$$
Pocket2Mol_52
     RDKit          3D

  0  0  0  0  0  0  0  0  0  0999 V3000
M  V30 BEGIN CTAB
M  V30 COUNTS 16 16 0 0 1
M  V30 BEGIN ATOM
M  V30 1 C 40.045203 30.528148 52.280887 0
M  V30 2 C 39.471140 30.319977 53.549721 0
M  V30 3 C 39.815344 29.605075 51.241643 0
M  V30 4 C 40.429756 29.835822 49.878354 0
M  V30 5 C 38.664258 29.189330 53.780359 0
M  V30 6 C 38.431009 28.265956 52.742303 0
M  V30 7 O 37.645175 27.175249 52.967761 0
M  V30 8 C 39.007500 28.471921 51.472546 0
M  V30 9 H 40.661892 31.395638 52.104499 0
M  V30 10 H 39.648443 31.028768 54.345502 0
M  V30 11 H 40.385406 28.937770 49.263213 0
M  V30 12 H 39.887142 30.631119 49.367872 0
M  V30 13 H 41.473247 30.138392 49.972458 0
M  V30 14 H 38.222161 29.031341 54.753409 0
M  V30 15 H 37.334514 26.741807 52.181602 0
M  V30 16 H 38.828307 27.764342 50.675815 0
M  V30 END ATOM
M  V30 BEGIN BOND
M  V30 1 2 2 1
M  V30 2 1 3 1
M  V30 3 1 4 3
M  V30 4 1 5 2
M  V30 5 2 6 5
M  V30 6 1 7 6
M  V30 7 2 8 3
M  V30 8 1 8 6
M  V30 9 1 9 1
M  V30 10 1 10 2
M  V30 11 1 11 4
M  V30 12 1 12 4
M  V30 13 1 13 4
M  V30 14 1 14 5
M  V30 15 1 15 7
M  V30 16 1 16 8
M  V30 END BOND
M  V30 END CTAB
M  END
>  <i_epik_Tot_Q>  (1) 
0

>  <i_epik_Tot_abs_Q>  (1) 
0

>  <i_i_glide_confnum>  (1) 
1

>  <i_i_glide_lignum>  (1) 
55

>  <i_i_glide_posenum>  (1) 
39

>  <i_i_glide_rotatable_bonds>  (1) 
1

>  <i_lp_mmshare_version>  (1) 
72125

>  <i_m_source_file_index>  (1) 
53

>  <i_f3d_flags>  (1) 
0

>  <num_sample>  (1) 
100

>  <b_lp_Chiralities_Consistent>  (1) 
1

>  <r_epik_Charging_Adjusted_Penalty>  (1) 
0

>  <r_epik_Ionization_Penalty>  (1) 
0.0017015869167085525

>  <r_epik_Ionization_Penalty_Charging>  (1) 
0

>  <r_epik_Ionization_Penalty_Neutral>  (1) 
0.0017015869167085525

>  <r_epik_State_Penalty>  (1) 
-0

>  <r_glide_ring_energy>  (1) 
0

>  <r_i_docking_score>  (1) 
-6.4075751698842929

>  <r_i_glide_ecoul>  (1) 
-3.816533024980262

>  <r_i_glide_eff_state_penalty>  (1) 
-0

>  <r_i_glide_einternal>  (1) 
0.33234731635106468

>  <r_i_glide_emodel>  (1) 
-28.912018851599299

>  <r_i_glide_emodel_strain>  (1) 
0.0025904971952162015

>  <r_i_glide_energy>  (1) 
-21.114678122648368

>  <r_i_glide_erotb>  (1) 
0

>  <r_i_glide_esite>  (1) 
0

>  <r_i_glide_evdw>  (1) 
-17.298145097668105

>  <r_i_glide_gscore>  (1) 
-6.4075751698842929

>  <r_i_glide_gscore_strain>  (1) 
0

>  <r_i_glide_hbond>  (1) 
-0.29472987683728918

>  <r_i_glide_ligand_efficiency>  (1) 
-0.80094689623553661

>  <r_i_glide_ligand_efficiency_ln>  (1) 
-2.0807588269361852

>  <r_i_glide_ligand_efficiency_sa>  (1) 
-1.6018937924710734

>  <r_i_glide_lipo>  (1) 
-2.0540008914176386

>  <r_i_glide_metal>  (1) 
-0

>  <r_i_glide_rewards>  (1) 
-2.6214571929989212

>  <r_lp_Energy>  (1) 
5.2727110000000001

>  <r_lp_tautomer_probability>  (1) 
1

>  <s_epik_cmdline>  (1) 
J2VwaWtfcHl0aG9uJywgJy1waHQnLCAnMS4wJywgJy1waCcsICc3LjQnLCAnLXRuJywgJzgnLCAnLW1hJywgJzUwMCcsICctaW1hZScsICc8aW5maWxlLm1hZT4nLCAnLW9tYWUnLCAnPG91dGZpbGUubWFlPic=

>  <s_epik_input>  (1) 
W0NIM11jMVtjSF1bY0hdW2NIXWMoW09IXSlbY0hdMQ==

>  <s_glide_docking_method>  (1) 
confgen

>  <s_i_glide_gridfile>  (1) 
gpcr_5ht2c_6bqh_protein_autoprepared_prepared

>  <s_lp_Force_Field>  (1) 
S-OPLS

>  <s_lp_Variant>  (1) 
Pocket2Mol_52-1

>  <s_m_source_file>  (1) 
generated_GPCR_5HT2C_ligand_Pocket2Mol_2026-06-23_prepared.sdf

>  <GenAI_Model>  (1) 
Pocket2Mol

>  <Protein>  (1) 
GPCR_5HT2C

$$$$
Pocket2Mol_71
     RDKit          3D

  0  0  0  0  0  0  0  0  0  0999 V3000
M  V30 BEGIN CTAB
M  V30 COUNTS 17 17 0 0 1
M  V30 BEGIN ATOM
M  V30 1 C 38.796143 27.439854 51.473047 0
M  V30 2 C 39.645129 28.371644 50.854427 0
M  V30 3 C 40.009665 29.550442 51.528156 0
M  V30 4 C 40.926768 30.544139 50.848775 0
M  V30 5 C 39.516490 29.796718 52.834424 0
M  V30 6 O 39.857404 30.937754 53.501355 0
M  V30 7 C 38.304623 27.684597 52.770827 0
M  V30 8 O 37.474583 26.783065 53.367757 0
M  V30 9 C 38.666314 28.860947 53.449997 0
M  V30 10 H 38.517993 26.538101 50.949328 0
M  V30 11 H 40.018139 28.182970 49.859501 0
M  V30 12 H 41.244892 31.337753 51.513283 0
M  V30 13 H 41.831062 30.044472 50.508661 0
M  V30 14 H 40.433455 30.989220 49.984212 0
M  V30 15 H 40.342004 31.562571 52.983153 0
M  V30 16 H 37.078046 26.192840 52.738903 0
M  V30 17 H 38.288482 29.048133 54.444472 0
M  V30 END ATOM
M  V30 BEGIN BOND
M  V30 1 2 2 1
M  V30 2 1 3 2
M  V30 3 1 4 3
M  V30 4 2 5 3
M  V30 5 1 6 5
M  V30 6 1 7 1
M  V30 7 1 8 7
M  V30 8 1 9 5
M  V30 9 2 9 7
M  V30 10 1 10 1
M  V30 11 1 11 2
M  V30 12 1 12 4
M  V30 13 1 13 4
M  V30 14 1 14 4
M  V30 15 1 15 6
M  V30 16 1 16 8
M  V30 17 1 17 9
M  V30 END BOND
M  V30 END CTAB
M  END
>  <i_epik_Tot_Q>  (1) 
0

>  <i_epik_Tot_abs_Q>  (1) 
0

>  <i_i_glide_confnum>  (1) 
1

>  <i_i_glide_lignum>  (1) 
76

>  <i_i_glide_posenum>  (1) 
292

>  <i_i_glide_rotatable_bonds>  (1) 
2

>  <i_lp_mmshare_version>  (1) 
72125

>  <i_m_source_file_index>  (1) 
72

>  <i_f3d_flags>  (1) 
0

>  <num_sample>  (1) 
100

>  <b_lp_Chiralities_Consistent>  (1) 
1

>  <r_epik_Charging_Adjusted_Penalty>  (1) 
0.00325898940304725

>  <r_epik_Ionization_Penalty>  (1) 
0.005516606254364515

>  <r_epik_Ionization_Penalty_Charging>  (1) 
0

>  <r_epik_Ionization_Penalty_Neutral>  (1) 
0.005516606254364515

>  <r_epik_State_Penalty>  (1) 
0.00325898940304725

>  <r_glide_ring_energy>  (1) 
0

>  <r_i_docking_score>  (1) 
-6.3846751571033762

>  <r_i_glide_ecoul>  (1) 
-4.0116790559627775

>  <r_i_glide_eff_state_penalty>  (1) 
0.00325898940304725

>  <r_i_glide_einternal>  (1) 
0.30812605959859257

>  <r_i_glide_emodel>  (1) 
-31.008413807571799

>  <r_i_glide_emodel_strain>  (1) 
0.53337694854037299

>  <r_i_glide_energy>  (1) 
-22.335769598506285

>  <r_i_glide_erotb>  (1) 
0

>  <r_i_glide_esite>  (1) 
0

>  <r_i_glide_evdw>  (1) 
-18.324090542543509

>  <r_i_glide_gscore>  (1) 
-6.3879341465064234

>  <r_i_glide_gscore_strain>  (1) 
0

>  <r_i_glide_hbond>  (1) 
-0.24418270666784167

>  <r_i_glide_ligand_efficiency>  (1) 
-0.70940835078926401

>  <r_i_glide_ligand_efficiency_ln>  (1) 
-1.9969429743414502

>  <r_i_glide_ligand_efficiency_sa>  (1) 
-1.4756288344146788

>  <r_i_glide_lipo>  (1) 
-2.1757950543169904

>  <r_i_glide_metal>  (1) 
-0

>  <r_i_glide_rewards>  (1) 
-2.4500000000000002

>  <r_lp_Energy>  (1) 
3.8278699999999999

>  <r_lp_tautomer_probability>  (1) 
0.99999999989799981

>  <s_epik_cmdline>  (1) 
J2VwaWtfcHl0aG9uJywgJy1waHQnLCAnMS4wJywgJy1waCcsICc3LjQnLCAnLXRuJywgJzgnLCAnLW1hJywgJzUwMCcsICctaW1hZScsICc8aW5maWxlLm1hZT4nLCAnLW9tYWUnLCAnPG91dGZpbGUubWFlPic=

>  <s_epik_input>  (1) 
W0NIM11jMVtjSF1bY0hdYyhbT0hdKVtjSF1jMVtPSF0=

>  <s_glide_docking_method>  (1) 
confgen

>  <s_i_glide_gridfile>  (1) 
gpcr_5ht2c_6bqh_protein_autoprepared_prepared

>  <s_lp_Force_Field>  (1) 
S-OPLS

>  <s_lp_Variant>  (1) 
Pocket2Mol_71-1

>  <s_m_source_file>  (1) 
generated_GPCR_5HT2C_ligand_Pocket2Mol_2026-06-23_prepared.sdf

>  <GenAI_Model>  (1) 
Pocket2Mol

>  <Protein>  (1) 
GPCR_5HT2C

$$$$
Pocket2Mol_71
     RDKit          3D

  0  0  0  0  0  0  0  0  0  0999 V3000
M  V30 BEGIN CTAB
M  V30 COUNTS 17 17 0 0 1
M  V30 BEGIN ATOM
M  V30 1 C 38.922787 30.642543 54.167761 0
M  V30 2 C 39.695366 30.537950 52.995141 0
M  V30 3 C 39.540892 29.427516 52.140216 0
M  V30 4 C 40.374130 29.332317 50.872502 0
M  V30 5 C 38.606135 28.415603 52.464763 0
M  V30 6 O 38.445139 27.337756 51.641916 0
M  V30 7 C 37.993783 29.636447 54.491053 0
M  V30 8 O 37.245138 29.737755 55.626371 0
M  V30 9 C 37.835179 28.522830 53.640828 0
M  V30 10 H 39.043783 31.496474 54.818506 0
M  V30 11 H 40.406368 31.313614 52.748415 0
M  V30 12 H 40.171941 28.436564 50.286185 0
M  V30 13 H 40.175934 30.195237 50.235833 0
M  V30 14 H 41.433463 29.337775 51.124228 0
M  V30 15 H 37.612961 26.891346 51.748873 0
M  V30 16 H 37.074603 30.619851 55.937407 0
M  V30 17 H 37.120461 27.752334 53.890814 0
M  V30 END ATOM
M  V30 BEGIN BOND
M  V30 1 2 2 1
M  V30 2 1 3 2
M  V30 3 1 4 3
M  V30 4 2 5 3
M  V30 5 1 6 5
M  V30 6 1 7 1
M  V30 7 1 8 7
M  V30 8 1 9 5
M  V30 9 2 9 7
M  V30 10 1 10 1
M  V30 11 1 11 2
M  V30 12 1 12 4
M  V30 13 1 13 4
M  V30 14 1 14 4
M  V30 15 1 15 6
M  V30 16 1 16 8
M  V30 17 1 17 9
M  V30 END BOND
M  V30 END CTAB
M  END
>  <i_epik_Tot_Q>  (1) 
0

>  <i_epik_Tot_abs_Q>  (1) 
0

>  <i_i_glide_confnum>  (1) 
1

>  <i_i_glide_lignum>  (1) 
76

>  <i_i_glide_posenum>  (1) 
353

>  <i_i_glide_rotatable_bonds>  (1) 
2

>  <i_lp_mmshare_version>  (1) 
72125

>  <i_m_source_file_index>  (1) 
72

>  <i_f3d_flags>  (1) 
0

>  <num_sample>  (1) 
100

>  <b_lp_Chiralities_Consistent>  (1) 
1

>  <r_epik_Charging_Adjusted_Penalty>  (1) 
0.00325898940304725

>  <r_epik_Ionization_Penalty>  (1) 
0.005516606254364515

>  <r_epik_Ionization_Penalty_Charging>  (1) 
0

>  <r_epik_Ionization_Penalty_Neutral>  (1) 
0.005516606254364515

>  <r_epik_State_Penalty>  (1) 
0.00325898940304725

>  <r_glide_ring_energy>  (1) 
0

>  <r_i_docking_score>  (1) 
-6.3749627830996864

>  <r_i_glide_ecoul>  (1) 
-4.6089225470464799

>  <r_i_glide_eff_state_penalty>  (1) 
0.00325898940304725

>  <r_i_glide_einternal>  (1) 
0.45407105340093834

>  <r_i_glide_emodel>  (1) 
-31.004195373256451

>  <r_i_glide_emodel_strain>  (1) 
0.84934429108322007

>  <r_i_glide_energy>  (1) 
-22.734722308505852

>  <r_i_glide_erotb>  (1) 
0

>  <r_i_glide_esite>  (1) 
0

>  <r_i_glide_evdw>  (1) 
-18.125799761459373

>  <r_i_glide_gscore>  (1) 
-6.3782217725027337

>  <r_i_glide_gscore_strain>  (1) 
0

>  <r_i_glide_hbond>  (1) 
-0.35320147398038826

>  <r_i_glide_ligand_efficiency>  (1) 
-0.70832919812218742

>  <r_i_glide_ligand_efficiency_ln>  (1) 
-1.9939052227638674

>  <r_i_glide_ligand_efficiency_sa>  (1) 
-1.4733841064092894

>  <r_i_glide_lipo>  (1) 
-1.9709616592023653

>  <r_i_glide_metal>  (1) 
-0

>  <r_i_glide_rewards>  (1) 
-2.4564302691900406

>  <r_lp_Energy>  (1) 
3.8278699999999999

>  <r_lp_tautomer_probability>  (1) 
0.99999999989799981

>  <s_epik_cmdline>  (1) 
J2VwaWtfcHl0aG9uJywgJy1waHQnLCAnMS4wJywgJy1waCcsICc3LjQnLCAnLXRuJywgJzgnLCAnLW1hJywgJzUwMCcsICctaW1hZScsICc8aW5maWxlLm1hZT4nLCAnLW9tYWUnLCAnPG91dGZpbGUubWFlPic=

>  <s_epik_input>  (1) 
W0NIM11jMVtjSF1bY0hdYyhbT0hdKVtjSF1jMVtPSF0=

>  <s_glide_docking_method>  (1) 
confgen

>  <s_i_glide_gridfile>  (1) 
gpcr_5ht2c_6bqh_protein_autoprepared_prepared

>  <s_lp_Force_Field>  (1) 
S-OPLS

>  <s_lp_Variant>  (1) 
Pocket2Mol_71-1

>  <s_m_source_file>  (1) 
generated_GPCR_5HT2C_ligand_Pocket2Mol_2026-06-23_prepared.sdf

>  <GenAI_Model>  (1) 
Pocket2Mol

>  <Protein>  (1) 
GPCR_5HT2C

$$$$
Pocket2Mol_97
     RDKit          3D

  0  0  0  0  0  0  0  0  0  0999 V3000
M  V30 BEGIN CTAB
M  V30 COUNTS 17 18 0 0 1
M  V30 BEGIN ATOM
M  V30 1 C 38.844465 29.952809 54.156554 0
M  V30 2 C 39.247535 29.631182 52.847539 0
M  V30 3 C 38.855172 28.414905 52.264440 0
M  V30 4 C 40.045148 30.509721 52.098520 0
M  V30 5 C 40.415469 30.136786 50.791898 0
M  V30 6 C 38.057379 27.507542 52.986536 0
M  V30 7 C 37.653004 27.823165 54.297835 0
M  V30 8 C 39.276008 28.127098 50.953153 0
M  V30 9 N 40.045137 28.966806 50.217234 0
M  V30 10 C 38.045257 29.047146 54.883752 0
M  V30 11 H 39.144727 30.889160 54.603137 0
M  V30 12 H 40.366416 31.452926 52.511881 0
M  V30 13 H 41.026432 30.793810 50.189670 0
M  V30 14 H 37.755361 26.572059 52.539043 0
M  V30 15 H 37.042435 27.128088 54.854817 0
M  V30 16 H 38.990897 27.199194 50.478023 0
M  V30 17 H 37.732311 29.289688 55.889293 0
M  V30 END ATOM
M  V30 BEGIN BOND
M  V30 1 2 2 1
M  V30 2 1 3 2
M  V30 3 1 4 2
M  V30 4 2 5 4
M  V30 5 2 6 3
M  V30 6 1 7 6
M  V30 7 1 8 3
M  V30 8 1 9 5
M  V30 9 2 9 8
M  V30 10 1 10 1
M  V30 11 2 10 7
M  V30 12 1 11 1
M  V30 13 1 12 4
M  V30 14 1 13 5
M  V30 15 1 14 6
M  V30 16 1 15 7
M  V30 17 1 16 8
M  V30 18 1 17 10
M  V30 END BOND
M  V30 END CTAB
M  END
>  <i_epik_Tot_Q>  (1) 
0

>  <i_epik_Tot_abs_Q>  (1) 
0

>  <i_i_glide_confnum>  (1) 
1

>  <i_i_glide_lignum>  (1) 
102

>  <i_i_glide_posenum>  (1) 
94

>  <i_i_glide_rotatable_bonds>  (1) 
0

>  <i_lp_mmshare_version>  (1) 
72125

>  <i_m_source_file_index>  (1) 
98

>  <i_f3d_flags>  (1) 
0

>  <num_sample>  (1) 
100

>  <b_lp_Chiralities_Consistent>  (1) 
1

>  <r_epik_Charging_Adjusted_Penalty>  (1) 
0.015036794032578672

>  <r_epik_Ionization_Penalty>  (1) 
0.01503679403257876

>  <r_epik_Ionization_Penalty_Charging>  (1) 
0

>  <r_epik_Ionization_Penalty_Neutral>  (1) 
0.01503679403257876

>  <r_epik_State_Penalty>  (1) 
0.015036794032578672

>  <r_glide_ring_energy>  (1) 
0

>  <r_i_docking_score>  (1) 
-6.3718180852102808

>  <r_i_glide_ecoul>  (1) 
-1.5505988611863368

>  <r_i_glide_eff_state_penalty>  (1) 
0.015036794032578672

>  <r_i_glide_einternal>  (1) 
0

>  <r_i_glide_emodel>  (1) 
-32.450088873010237

>  <r_i_glide_emodel_strain>  (1) 
0

>  <r_i_glide_energy>  (1) 
-23.364462732949633

>  <r_i_glide_erotb>  (1) 
0

>  <r_i_glide_esite>  (1) 
0

>  <r_i_glide_evdw>  (1) 
-21.813863871763296

>  <r_i_glide_gscore>  (1) 
-6.3868548792428594

>  <r_i_glide_gscore_strain>  (1) 
0

>  <r_i_glide_hbond>  (1) 
0

>  <r_i_glide_ligand_efficiency>  (1) 
-0.63718180852102813

>  <r_i_glide_ligand_efficiency_ln>  (1) 
-1.9293425924822245

>  <r_i_glide_ligand_efficiency_sa>  (1) 
-1.3727665921349563

>  <r_i_glide_lipo>  (1) 
-2.3504623826367492

>  <r_i_glide_metal>  (1) 
-0

>  <r_i_glide_rewards>  (1) 
-2.713109473839995

>  <r_lp_Energy>  (1) 
19.776892999999998

>  <s_epik_cmdline>  (1) 
J2VwaWtfcHl0aG9uJywgJy1waHQnLCAnMS4wJywgJy1waCcsICc3LjQnLCAnLXRuJywgJzgnLCAnLW1hJywgJzUwMCcsICctaW1hZScsICc8aW5maWxlLm1hZT4nLCAnLW9tYWUnLCAnPG91dGZpbGUubWFlPic=

>  <s_epik_input>  (1) 
W2NIXTFbY0hdW2NIXVtjSF1jKGMxMilbY0hdbltjSF1bY0hdMg==

>  <s_glide_docking_method>  (1) 
confgen

>  <s_i_glide_gridfile>  (1) 
gpcr_5ht2c_6bqh_protein_autoprepared_prepared

>  <s_lp_Force_Field>  (1) 
S-OPLS

>  <s_lp_Variant>  (1) 
Pocket2Mol_97-1

>  <s_m_source_file>  (1) 
generated_GPCR_5HT2C_ligand_Pocket2Mol_2026-06-23_prepared.sdf

>  <GenAI_Model>  (1) 
Pocket2Mol

>  <Protein>  (1) 
GPCR_5HT2C

$$$$
Pocket2Mol_98
     RDKit          3D

  0  0  0  0  0  0  0  0  0  0999 V3000
M  V30 BEGIN CTAB
M  V30 COUNTS 18 19 0 0 1
M  V30 BEGIN ATOM
M  V30 1 C 40.427382 30.300025 50.284486 0
M  V30 2 O 40.266793 30.937403 51.586718 0
M  V30 3 O 39.918273 28.931269 50.265844 0
M  V30 4 C 39.658364 29.948495 52.246368 0
M  V30 5 C 39.466001 28.846474 51.521144 0
M  V30 6 C 38.837863 27.710779 52.055817 0
M  V30 7 C 38.399612 27.745961 53.402785 0
M  V30 8 C 37.718155 26.539845 54.016205 0
M  V30 9 C 39.245137 30.036427 53.585575 0
M  V30 10 C 38.605682 28.921097 54.174247 0
M  V30 11 H 39.882734 30.885520 49.542564 0
M  V30 12 H 41.485252 30.297643 50.018798 0
M  V30 13 H 38.690838 26.829099 51.450383 0
M  V30 14 H 37.273092 26.785045 54.980761 0
M  V30 15 H 36.924702 26.171003 53.367723 0
M  V30 16 H 38.440128 25.737755 54.167892 0
M  V30 17 H 39.410787 30.939890 54.154141 0
M  V30 18 H 38.277014 28.963817 55.202633 0
M  V30 END ATOM
M  V30 BEGIN BOND
M  V30 1 1 2 1
M  V30 2 1 3 1
M  V30 3 1 4 2
M  V30 4 1 5 3
M  V30 5 2 5 4
M  V30 6 1 6 5
M  V30 7 2 7 6
M  V30 8 1 8 7
M  V30 9 1 9 4
M  V30 10 1 10 7
M  V30 11 2 10 9
M  V30 12 1 11 1
M  V30 13 1 12 1
M  V30 14 1 13 6
M  V30 15 1 14 8
M  V30 16 1 15 8
M  V30 17 1 16 8
M  V30 18 1 17 9
M  V30 19 1 18 10
M  V30 END BOND
M  V30 END CTAB
M  END
>  <i_epik_Tot_Q>  (1) 
0

>  <i_epik_Tot_abs_Q>  (1) 
0

>  <i_i_glide_confnum>  (1) 
1

>  <i_i_glide_lignum>  (1) 
103

>  <i_i_glide_posenum>  (1) 
329

>  <i_i_glide_rotatable_bonds>  (1) 
0

>  <i_lp_mmshare_version>  (1) 
72125

>  <i_m_source_file_index>  (1) 
99

>  <i_f3d_flags>  (1) 
0

>  <num_sample>  (1) 
100

>  <b_lp_Chiralities_Consistent>  (1) 
1

>  <r_epik_Charging_Adjusted_Penalty>  (1) 
0

>  <r_epik_Ionization_Penalty>  (1) 
0

>  <r_epik_Ionization_Penalty_Charging>  (1) 
0

>  <r_epik_Ionization_Penalty_Neutral>  (1) 
0

>  <r_epik_State_Penalty>  (1) 
-0

>  <r_glide_ring_energy>  (1) 
0

>  <r_i_docking_score>  (1) 
-6.3622499769225689

>  <r_i_glide_ecoul>  (1) 
-0.45872993961232128

>  <r_i_glide_eff_state_penalty>  (1) 
-0

>  <r_i_glide_einternal>  (1) 
0

>  <r_i_glide_emodel>  (1) 
-30.4787928938769

>  <r_i_glide_emodel_strain>  (1) 
0.00094997251909489933

>  <r_i_glide_energy>  (1) 
-21.824430892261404

>  <r_i_glide_erotb>  (1) 
0

>  <r_i_glide_esite>  (1) 
0

>  <r_i_glide_evdw>  (1) 
-21.365700952649082

>  <r_i_glide_gscore>  (1) 
-6.3622499769225689

>  <r_i_glide_gscore_strain>  (1) 
0

>  <r_i_glide_hbond>  (1) 
0

>  <r_i_glide_ligand_efficiency>  (1) 
-0.63622499769225693

>  <r_i_glide_ligand_efficiency_ln>  (1) 
-1.9264454352498463

>  <r_i_glide_ligand_efficiency_sa>  (1) 
-1.3707052056936535

>  <r_i_glide_lipo>  (1) 
-2.1078987619905716

>  <r_i_glide_metal>  (1) 
-0

>  <r_i_glide_rewards>  (1) 
-3.1172566763576954

>  <r_lp_Energy>  (1) 
16.823695000000001

>  <r_lp_tautomer_probability>  (1) 
1

>  <s_epik_Chemistry_Notes>  (1) 
This compound contains an acetal/aminal-like group ( X-CH(R)-Y where X, Y are N, S, or O) that may be acid/base labile, releasing an aldehyde.

>  <s_epik_cmdline>  (1) 
J2VwaWtfcHl0aG9uJywgJy1waHQnLCAnMS4wJywgJy1waCcsICc3LjQnLCAnLXRuJywgJzgnLCAnLW1hJywgJzUwMCcsICctaW1hZScsICc8aW5maWxlLm1hZT4nLCAnLW9tYWUnLCAnPG91dGZpbGUubWFlPic=

>  <s_epik_input>  (1) 
TzFbQ0gyXU9jKGMxMilbY0hdYyhbQ0gzXSlbY0hdW2NIXTI=

>  <s_glide_docking_method>  (1) 
confgen

>  <s_i_glide_gridfile>  (1) 
gpcr_5ht2c_6bqh_protein_autoprepared_prepared

>  <s_lp_Force_Field>  (1) 
S-OPLS

>  <s_lp_Variant>  (1) 
Pocket2Mol_98-1

>  <s_m_source_file>  (1) 
generated_GPCR_5HT2C_ligand_Pocket2Mol_2026-06-23_prepared.sdf

>  <GenAI_Model>  (1) 
Pocket2Mol

>  <Protein>  (1) 
GPCR_5HT2C

$$$$
Pocket2Mol_68
     RDKit          3D

  0  0  0  0  0  0  0  0  0  0999 V3000
M  V30 BEGIN CTAB
M  V30 COUNTS 19 20 0 0 1
M  V30 BEGIN ATOM
M  V30 1 C 38.166863 27.414289 53.161295 0
M  V30 2 C 38.941363 28.373413 52.341848 0
M  V30 3 C 39.298207 28.129610 51.004610 0
M  V30 4 C 40.044124 29.105097 50.303903 0
M  V30 5 C 40.420720 30.303811 50.957491 0
M  V30 6 C 39.295679 29.525095 52.966514 0
M  V30 7 C 38.846362 29.656044 54.373246 0
M  V30 8 C 37.955972 28.338043 54.439880 0
M  V30 9 C 40.045137 30.514393 52.302858 0
M  V30 10 H 37.243260 27.115210 52.675088 0
M  V30 11 H 38.775532 26.537738 53.383645 0
M  V30 12 H 39.006593 27.208769 50.517258 0
M  V30 13 H 40.324819 28.937870 49.274409 0
M  V30 14 H 40.990545 31.053993 50.429103 0
M  V30 15 H 39.703508 29.612340 55.045384 0
M  V30 16 H 38.275567 30.569303 54.542585 0
M  V30 17 H 36.913917 28.659684 54.429485 0
M  V30 18 H 38.087137 27.793025 55.374769 0
M  V30 19 H 40.322614 31.422854 52.811568 0
M  V30 END ATOM
M  V30 BEGIN BOND
M  V30 1 1 2 1
M  V30 2 2 3 2
M  V30 3 1 4 3
M  V30 4 2 5 4
M  V30 5 1 6 2
M  V30 6 1 7 6
M  V30 7 1 8 1
M  V30 8 1 8 7
M  V30 9 1 9 5
M  V30 10 2 9 6
M  V30 11 1 10 1
M  V30 12 1 11 1
M  V30 13 1 12 3
M  V30 14 1 13 4
M  V30 15 1 14 5
M  V30 16 1 15 7
M  V30 17 1 16 7
M  V30 18 1 17 8
M  V30 19 1 18 8
M  V30 20 1 19 9
M  V30 END BOND
M  V30 END CTAB
M  END
>  <i_epik_Tot_Q>  (1) 
0

>  <i_epik_Tot_abs_Q>  (1) 
0

>  <i_i_glide_confnum>  (1) 
1

>  <i_i_glide_lignum>  (1) 
73

>  <i_i_glide_posenum>  (1) 
60

>  <i_i_glide_rotatable_bonds>  (1) 
0

>  <i_lp_mmshare_version>  (1) 
72125

>  <i_m_source_file_index>  (1) 
69

>  <i_f3d_flags>  (1) 
0

>  <num_sample>  (1) 
100

>  <b_lp_Chiralities_Consistent>  (1) 
1

>  <r_epik_Charging_Adjusted_Penalty>  (1) 
0

>  <r_epik_Ionization_Penalty>  (1) 
0

>  <r_epik_Ionization_Penalty_Charging>  (1) 
0

>  <r_epik_Ionization_Penalty_Neutral>  (1) 
0

>  <r_epik_State_Penalty>  (1) 
-0

>  <r_glide_ring_energy>  (1) 
0

>  <r_i_docking_score>  (1) 
-6.3598757224858096

>  <r_i_glide_ecoul>  (1) 
-1.0424983676712696

>  <r_i_glide_eff_state_penalty>  (1) 
-0

>  <r_i_glide_einternal>  (1) 
0

>  <r_i_glide_emodel>  (1) 
-29.25274887518448

>  <r_i_glide_emodel_strain>  (1) 
0.011727401269432391

>  <r_i_glide_energy>  (1) 
-20.811763574280789

>  <r_i_glide_erotb>  (1) 
0

>  <r_i_glide_esite>  (1) 
0

>  <r_i_glide_evdw>  (1) 
-19.769265206609518

>  <r_i_glide_gscore>  (1) 
-6.3598757224858096

>  <r_i_glide_gscore_strain>  (1) 
0

>  <r_i_glide_hbond>  (1) 
0

>  <r_i_glide_ligand_efficiency>  (1) 
-0.70665285805397882

>  <r_i_glide_ligand_efficiency_ln>  (1) 
-1.9891864236151235

>  <r_i_glide_ligand_efficiency_sa>  (1) 
-1.4698971785514752

>  <r_i_glide_lipo>  (1) 
-2.4233465140546517

>  <r_i_glide_metal>  (1) 
-0

>  <r_i_glide_rewards>  (1) 
-2.7916911929499912

>  <r_lp_Energy>  (1) 
13.687139

>  <r_lp_tautomer_probability>  (1) 
1

>  <s_epik_cmdline>  (1) 
J2VwaWtfcHl0aG9uJywgJy1waHQnLCAnMS4wJywgJy1waCcsICc3LjQnLCAnLXRuJywgJzgnLCAnLW1hJywgJzUwMCcsICctaW1hZScsICc8aW5maWxlLm1hZT4nLCAnLW9tYWUnLCAnPG91dGZpbGUubWFlPic=

>  <s_epik_input>  (1) 
W0NIMl0xW0NIMl1bQ0gyXWMoYzEyKVtjSF1bY0hdW2NIXVtjSF0y

>  <s_glide_docking_method>  (1) 
confgen

>  <s_i_glide_gridfile>  (1) 
gpcr_5ht2c_6bqh_protein_autoprepared_prepared

>  <s_lp_Force_Field>  (1) 
S-OPLS

>  <s_lp_Variant>  (1) 
Pocket2Mol_68-1

>  <s_m_source_file>  (1) 
generated_GPCR_5HT2C_ligand_Pocket2Mol_2026-06-23_prepared.sdf

>  <GenAI_Model>  (1) 
Pocket2Mol

>  <Protein>  (1) 
GPCR_5HT2C

$$$$
Pocket2Mol_86
     RDKit          3D

  0  0  0  0  0  0  0  0  0  0999 V3000
M  V30 BEGIN CTAB
M  V30 COUNTS 17 17 0 0 1
M  V30 BEGIN ATOM
M  V30 1 C 39.644915 29.963042 52.717244 0
M  V30 2 C 40.062782 29.636866 51.410021 0
M  V30 3 C 38.697713 29.157507 53.381273 0
M  V30 4 O 38.302007 29.484980 54.646845 0
M  V30 5 C 38.164992 28.020000 52.736113 0
M  V30 6 C 41.080428 30.498649 50.691161 0
M  V30 7 O 37.246565 27.230922 53.368044 0
M  V30 8 C 39.529025 28.500664 50.768842 0
M  V30 9 C 38.582616 27.694421 51.430257 0
M  V30 10 H 40.051410 30.832848 53.212254 0
M  V30 11 H 37.643367 28.904306 54.993283 0
M  V30 12 H 41.401101 31.337756 51.309264 0
M  V30 13 H 41.961049 29.909101 50.434904 0
M  V30 14 H 40.654292 30.897944 49.770452 0
M  V30 15 H 36.841420 26.598808 52.795925 0
M  V30 16 H 39.844159 28.244438 49.767761 0
M  V30 17 H 38.179566 26.825964 50.930480 0
M  V30 END ATOM
M  V30 BEGIN BOND
M  V30 1 2 2 1
M  V30 2 1 3 1
M  V30 3 1 4 3
M  V30 4 2 5 3
M  V30 5 1 6 2
M  V30 6 1 7 5
M  V30 7 1 8 2
M  V30 8 1 9 5
M  V30 9 2 9 8
M  V30 10 1 10 1
M  V30 11 1 11 4
M  V30 12 1 12 6
M  V30 13 1 13 6
M  V30 14 1 14 6
M  V30 15 1 15 7
M  V30 16 1 16 8
M  V30 17 1 17 9
M  V30 END BOND
M  V30 END CTAB
M  END
>  <i_epik_Tot_Q>  (1) 
0

>  <i_epik_Tot_abs_Q>  (1) 
0

>  <i_i_glide_confnum>  (1) 
1

>  <i_i_glide_lignum>  (1) 
91

>  <i_i_glide_posenum>  (1) 
184

>  <i_i_glide_rotatable_bonds>  (1) 
2

>  <i_lp_mmshare_version>  (1) 
72125

>  <i_m_source_file_index>  (1) 
87

>  <i_f3d_flags>  (1) 
0

>  <num_sample>  (1) 
100

>  <b_lp_Chiralities_Consistent>  (1) 
1

>  <r_epik_Charging_Adjusted_Penalty>  (1) 
0

>  <r_epik_Ionization_Penalty>  (1) 
0.0034619861512114073

>  <r_epik_Ionization_Penalty_Charging>  (1) 
0

>  <r_epik_Ionization_Penalty_Neutral>  (1) 
0.0034619861512114073

>  <r_epik_State_Penalty>  (1) 
-0

>  <r_glide_ring_energy>  (1) 
0

>  <r_i_docking_score>  (1) 
-6.3561719621911505

>  <r_i_glide_ecoul>  (1) 
-3.1599276724640362

>  <r_i_glide_eff_state_penalty>  (1) 
-0

>  <r_i_glide_einternal>  (1) 
0.12233397932816525

>  <r_i_glide_emodel>  (1) 
-31.252681812279068

>  <r_i_glide_emodel_strain>  (1) 
0

>  <r_i_glide_energy>  (1) 
-21.074571370685035

>  <r_i_glide_erotb>  (1) 
0

>  <r_i_glide_esite>  (1) 
0

>  <r_i_glide_evdw>  (1) 
-17.914643698220999

>  <r_i_glide_gscore>  (1) 
-6.3561719621911505

>  <r_i_glide_gscore_strain>  (1) 
0

>  <r_i_glide_hbond>  (1) 
-0.31261040802373374

>  <r_i_glide_ligand_efficiency>  (1) 
-0.70624132913235005

>  <r_i_glide_ligand_efficiency_ln>  (1) 
-1.9880279937941741

>  <r_i_glide_ligand_efficiency_sa>  (1) 
-1.469041163898877

>  <r_i_glide_lipo>  (1) 
-2.2238402183867616

>  <r_i_glide_metal>  (1) 
-0

>  <r_i_glide_rewards>  (1) 
-2.4500000000000002

>  <r_lp_Energy>  (1) 
6.77806

>  <r_lp_tautomer_probability>  (1) 
1

>  <s_epik_cmdline>  (1) 
J2VwaWtfcHl0aG9uJywgJy1waHQnLCAnMS4wJywgJy1waCcsICc3LjQnLCAnLXRuJywgJzgnLCAnLW1hJywgJzUwMCcsICctaW1hZScsICc8aW5maWxlLm1hZT4nLCAnLW9tYWUnLCAnPG91dGZpbGUubWFlPic=

>  <s_epik_input>  (1) 
W0NIM11jMVtjSF1jKFtPSF0pYyhbT0hdKVtjSF1bY0hdMQ==

>  <s_glide_docking_method>  (1) 
confgen

>  <s_i_glide_gridfile>  (1) 
gpcr_5ht2c_6bqh_protein_autoprepared_prepared

>  <s_lp_Force_Field>  (1) 
S-OPLS

>  <s_lp_Variant>  (1) 
Pocket2Mol_86-1

>  <s_m_source_file>  (1) 
generated_GPCR_5HT2C_ligand_Pocket2Mol_2026-06-23_prepared.sdf

>  <GenAI_Model>  (1) 
Pocket2Mol

>  <Protein>  (1) 
GPCR_5HT2C

$$$$
Pocket2Mol_80
     RDKit          3D

  0  0  0  0  0  0  0  0  0  0999 V3000
M  V30 BEGIN CTAB
M  V30 COUNTS 17 17 0 0 1
M  V30 BEGIN ATOM
M  V30 1 C 39.389652 29.819490 53.415676 0
M  V30 2 C 40.045137 30.400132 52.312665 0
M  V30 3 C 40.045137 29.743942 51.066532 0
M  V30 4 C 40.748786 30.372454 49.882766 0
M  V30 5 C 39.387410 28.504097 50.923440 0
M  V30 6 C 38.736412 28.576101 53.272410 0
M  V30 7 C 38.058830 27.956598 54.430793 0
M  V30 8 O 38.045136 28.452481 55.556026 0
M  V30 9 C 38.733559 27.920525 52.024869 0
M  V30 10 H 39.392469 30.325343 54.371168 0
M  V30 11 H 40.547036 31.347993 52.422857 0
M  V30 12 H 40.684949 29.737744 48.998612 0
M  V30 13 H 40.294580 31.335693 49.648918 0
M  V30 14 H 41.802151 30.537755 50.111147 0
M  V30 15 H 39.383190 28.001773 49.968919 0
M  V30 16 H 37.567452 27.008999 54.208905 0
M  V30 17 H 38.231387 26.969528 51.911710 0
M  V30 END ATOM
M  V30 BEGIN BOND
M  V30 1 2 2 1
M  V30 2 1 3 2
M  V30 3 1 4 3
M  V30 4 2 5 3
M  V30 5 1 6 1
M  V30 6 1 7 6
M  V30 7 2 8 7
M  V30 8 1 9 5
M  V30 9 2 9 6
M  V30 10 1 10 1
M  V30 11 1 11 2
M  V30 12 1 12 4
M  V30 13 1 13 4
M  V30 14 1 14 4
M  V30 15 1 15 5
M  V30 16 1 16 7
M  V30 17 1 17 9
M  V30 END BOND
M  V30 END CTAB
M  END
>  <i_epik_Tot_Q>  (1) 
0

>  <i_epik_Tot_abs_Q>  (1) 
0

>  <i_i_glide_confnum>  (1) 
1

>  <i_i_glide_lignum>  (1) 
85

>  <i_i_glide_posenum>  (1) 
365

>  <i_i_glide_rotatable_bonds>  (1) 
1

>  <i_lp_mmshare_version>  (1) 
72125

>  <i_m_source_file_index>  (1) 
81

>  <i_f3d_flags>  (1) 
0

>  <num_sample>  (1) 
100

>  <b_lp_Chiralities_Consistent>  (1) 
1

>  <r_epik_Charging_Adjusted_Penalty>  (1) 
0

>  <r_epik_Ionization_Penalty>  (1) 
0

>  <r_epik_Ionization_Penalty_Charging>  (1) 
0

>  <r_epik_Ionization_Penalty_Neutral>  (1) 
0

>  <r_epik_State_Penalty>  (1) 
-0

>  <r_glide_ring_energy>  (1) 
0

>  <r_i_docking_score>  (1) 
-6.3516003290526317

>  <r_i_glide_ecoul>  (1) 
-0.90742428569630862

>  <r_i_glide_eff_state_penalty>  (1) 
-0

>  <r_i_glide_einternal>  (1) 
0.086402504986852535

>  <r_i_glide_emodel>  (1) 
-29.546514154952863

>  <r_i_glide_emodel_strain>  (1) 
0

>  <r_i_glide_energy>  (1) 
-21.083009751878983

>  <r_i_glide_erotb>  (1) 
0

>  <r_i_glide_esite>  (1) 
0

>  <r_i_glide_evdw>  (1) 
-20.175585466182675

>  <r_i_glide_gscore>  (1) 
-6.3516003290526317

>  <r_i_glide_gscore_strain>  (1) 
0

>  <r_i_glide_hbond>  (1) 
0

>  <r_i_glide_ligand_efficiency>  (1) 
-0.70573336989473689

>  <r_i_glide_ligand_efficiency_ln>  (1) 
-1.9865981182793524

>  <r_i_glide_ligand_efficiency_sa>  (1) 
-1.4679845661059481

>  <r_i_glide_lipo>  (1) 
-2.0547927149676268

>  <r_i_glide_metal>  (1) 
-0

>  <r_i_glide_rewards>  (1) 
-3.1519146979214248

>  <r_lp_Energy>  (1) 
4.8020719999999999

>  <r_lp_tautomer_probability>  (1) 
1

>  <s_epik_cmdline>  (1) 
J2VwaWtfcHl0aG9uJywgJy1waHQnLCAnMS4wJywgJy1waCcsICc3LjQnLCAnLXRuJywgJzgnLCAnLW1hJywgJzUwMCcsICctaW1hZScsICc8aW5maWxlLm1hZT4nLCAnLW9tYWUnLCAnPG91dGZpbGUubWFlPic=

>  <s_epik_input>  (1) 
W2NIXTFbY0hdYyhbQ0hdPU8pW2NIXVtjSF1jMVtDSDNd

>  <s_glide_docking_method>  (1) 
confgen

>  <s_i_glide_gridfile>  (1) 
gpcr_5ht2c_6bqh_protein_autoprepared_prepared

>  <s_lp_Force_Field>  (1) 
S-OPLS

>  <s_lp_Variant>  (1) 
Pocket2Mol_80-1

>  <s_m_source_file>  (1) 
generated_GPCR_5HT2C_ligand_Pocket2Mol_2026-06-23_prepared.sdf

>  <GenAI_Model>  (1) 
Pocket2Mol

>  <Protein>  (1) 
GPCR_5HT2C

$$$$
Pocket2Mol_93
     RDKit          3D

  0  0  0  0  0  0  0  0  0  0999 V3000
M  V30 BEGIN CTAB
M  V30 COUNTS 17 18 0 0 1
M  V30 BEGIN ATOM
M  V30 1 C 38.045122 27.503291 52.985821 0
M  V30 2 C 38.847749 28.427988 52.290611 0
M  V30 3 C 39.266592 29.643624 52.912504 0
M  V30 4 C 39.247033 28.161848 50.967796 0
M  V30 5 C 38.848432 29.889876 54.239982 0
M  V30 6 N 40.045132 30.537856 52.251987 0
M  V30 7 C 40.045118 29.103955 50.301989 0
M  V30 8 C 37.645876 27.769826 54.301937 0
M  V30 9 C 40.415803 30.270938 50.981308 0
M  V30 10 C 38.045052 28.960800 54.928681 0
M  V30 11 H 37.734126 26.587422 52.506512 0
M  V30 12 H 38.942317 27.250776 50.472036 0
M  V30 13 H 39.149054 30.803023 54.732433 0
M  V30 14 H 40.363987 28.937730 49.284770 0
M  V30 15 H 37.030316 27.058815 54.833572 0
M  V30 16 H 41.027716 31.015566 50.493658 0
M  V30 17 H 37.734001 29.166381 55.943332 0
M  V30 END ATOM
M  V30 BEGIN BOND
M  V30 1 2 2 1
M  V30 2 1 3 2
M  V30 3 1 4 2
M  V30 4 2 5 3
M  V30 5 1 6 3
M  V30 6 2 7 4
M  V30 7 1 8 1
M  V30 8 2 9 6
M  V30 9 1 9 7
M  V30 10 1 10 5
M  V30 11 2 10 8
M  V30 12 1 11 1
M  V30 13 1 12 4
M  V30 14 1 13 5
M  V30 15 1 14 7
M  V30 16 1 15 8
M  V30 17 1 16 9
M  V30 18 1 17 10
M  V30 END BOND
M  V30 END CTAB
M  END
>  <i_epik_Tot_Q>  (1) 
0

>  <i_epik_Tot_abs_Q>  (1) 
0

>  <i_i_glide_confnum>  (1) 
1

>  <i_i_glide_lignum>  (1) 
98

>  <i_i_glide_posenum>  (1) 
333

>  <i_i_glide_rotatable_bonds>  (1) 
0

>  <i_lp_mmshare_version>  (1) 
72125

>  <i_m_source_file_index>  (1) 
94

>  <i_f3d_flags>  (1) 
0

>  <num_sample>  (1) 
100

>  <b_lp_Chiralities_Consistent>  (1) 
1

>  <r_epik_Charging_Adjusted_Penalty>  (1) 
0

>  <r_epik_Ionization_Penalty>  (1) 
0.0026406434276513078

>  <r_epik_Ionization_Penalty_Charging>  (1) 
0

>  <r_epik_Ionization_Penalty_Neutral>  (1) 
0.0026406434276513078

>  <r_epik_State_Penalty>  (1) 
-0

>  <r_glide_ring_energy>  (1) 
0

>  <r_i_docking_score>  (1) 
-6.3445498164853884

>  <r_i_glide_ecoul>  (1) 
-0.59113836571642642

>  <r_i_glide_eff_state_penalty>  (1) 
-0

>  <r_i_glide_einternal>  (1) 
0

>  <r_i_glide_emodel>  (1) 
-31.242614182837507

>  <r_i_glide_emodel_strain>  (1) 
0

>  <r_i_glide_energy>  (1) 
-22.414226536508636

>  <r_i_glide_erotb>  (1) 
0

>  <r_i_glide_esite>  (1) 
0

>  <r_i_glide_evdw>  (1) 
-21.823088170792211

>  <r_i_glide_gscore>  (1) 
-6.3445498164853884

>  <r_i_glide_gscore_strain>  (1) 
0

>  <r_i_glide_hbond>  (1) 
0

>  <r_i_glide_ligand_efficiency>  (1) 
-0.63445498164853886

>  <r_i_glide_ligand_efficiency_ln>  (1) 
-1.9210859486843892

>  <r_i_glide_ligand_efficiency_sa>  (1) 
-1.3668918217271544

>  <r_i_glide_lipo>  (1) 
-2.4600100070771438

>  <r_i_glide_metal>  (1) 
-0

>  <r_i_glide_rewards>  (1) 
-2.70471464601117

>  <r_lp_Energy>  (1) 
20.260538

>  <r_lp_tautomer_probability>  (1) 
1

>  <s_epik_cmdline>  (1) 
J2VwaWtfcHl0aG9uJywgJy1waHQnLCAnMS4wJywgJy1waCcsICc3LjQnLCAnLXRuJywgJzgnLCAnLW1hJywgJzUwMCcsICctaW1hZScsICc8aW5maWxlLm1hZT4nLCAnLW9tYWUnLCAnPG91dGZpbGUubWFlPic=

>  <s_epik_input>  (1) 
W2NIXTFbY0hdW2NIXVtjSF1jKGMxMiluW2NIXVtjSF1bY0hdMg==

>  <s_glide_docking_method>  (1) 
confgen

>  <s_i_glide_gridfile>  (1) 
gpcr_5ht2c_6bqh_protein_autoprepared_prepared

>  <s_lp_Force_Field>  (1) 
S-OPLS

>  <s_lp_Variant>  (1) 
Pocket2Mol_93-1

>  <s_m_source_file>  (1) 
generated_GPCR_5HT2C_ligand_Pocket2Mol_2026-06-23_prepared.sdf

>  <GenAI_Model>  (1) 
Pocket2Mol

>  <Protein>  (1) 
GPCR_5HT2C

$$$$
Pocket2Mol_72
     RDKit          3D

  0  0  0  0  0  0  0  0  0  0999 V3000
M  V30 BEGIN CTAB
M  V30 COUNTS 15 16 0 0 1
M  V30 BEGIN ATOM
M  V30 1 C 38.512007 27.845761 52.098849 0
M  V30 2 C 38.516851 28.770473 53.195862 0
M  V30 3 C 39.254294 29.955971 53.181885 0
M  V30 4 C 37.906627 28.708022 54.303770 0
M  V30 5 C 40.045112 30.256099 52.000150 0
M  V30 6 C 38.275445 29.888497 54.995773 0
M  V30 7 C 40.045141 29.386837 50.952263 0
M  V30 8 C 39.128050 30.697449 54.312618 0
M  V30 9 C 39.251495 28.137504 51.005221 0
M  V30 10 H 37.929916 26.937334 52.145127 0
M  V30 11 H 37.246990 27.924976 54.646298 0
M  V30 12 H 40.626343 31.165901 51.951423 0
M  V30 13 H 37.902087 30.117638 55.983768 0
M  V30 14 H 40.630329 29.611467 50.072675 0
M  V30 15 H 39.262706 27.456293 50.167892 0
M  V30 END ATOM
M  V30 BEGIN BOND
M  V30 1 1 2 1
M  V30 2 1 3 2
M  V30 3 2 4 2
M  V30 4 1 5 3
M  V30 5 1 6 4
M  V30 6 2 7 5
M  V30 7 2 8 3
M  V30 8 2 8 6
M  V30 9 2 9 1
M  V30 10 1 9 7
M  V30 11 1 10 1
M  V30 12 1 11 4
M  V30 13 1 12 5
M  V30 14 1 13 6
M  V30 15 1 14 7
M  V30 16 1 15 9
M  V30 END BOND
M  V30 END CTAB
M  END
>  <i_epik_Tot_Q>  (1) 
0

>  <i_epik_Tot_abs_Q>  (1) 
0

>  <i_i_glide_confnum>  (1) 
1

>  <i_i_glide_lignum>  (1) 
77

>  <i_i_glide_posenum>  (1) 
347

>  <i_i_glide_rotatable_bonds>  (1) 
0

>  <i_lp_mmshare_version>  (1) 
72125

>  <i_m_source_file_index>  (1) 
73

>  <i_f3d_flags>  (1) 
0

>  <num_sample>  (1) 
100

>  <b_lp_Chiralities_Consistent>  (1) 
1

>  <r_epik_Charging_Adjusted_Penalty>  (1) 
0

>  <r_epik_Ionization_Penalty>  (1) 
0

>  <r_epik_Ionization_Penalty_Charging>  (1) 
0

>  <r_epik_Ionization_Penalty_Neutral>  (1) 
0

>  <r_epik_State_Penalty>  (1) 
-0

>  <r_glide_ring_energy>  (1) 
0

>  <r_i_docking_score>  (1) 
-6.3367808149228591

>  <r_i_glide_ecoul>  (1) 
-1.0191407139943101

>  <r_i_glide_eff_state_penalty>  (1) 
-0

>  <r_i_glide_einternal>  (1) 
0

>  <r_i_glide_emodel>  (1) 
-30.615215296166419

>  <r_i_glide_emodel_strain>  (1) 
0

>  <r_i_glide_energy>  (1) 
-22.185465201640014

>  <r_i_glide_erotb>  (1) 
0

>  <r_i_glide_esite>  (1) 
0

>  <r_i_glide_evdw>  (1) 
-21.166324487645703

>  <r_i_glide_gscore>  (1) 
-6.3367808149228591

>  <r_i_glide_gscore_strain>  (1) 
0

>  <r_i_glide_hbond>  (1) 
0

>  <r_i_glide_ligand_efficiency>  (1) 
-0.70408675721365099

>  <r_i_glide_ligand_efficiency_ln>  (1) 
-1.9819629999849349

>  <r_i_glide_ligand_efficiency_sa>  (1) 
-1.4645594737051892

>  <r_i_glide_lipo>  (1) 
-2.3448043444927973

>  <r_i_glide_metal>  (1) 
-0

>  <r_i_glide_rewards>  (1) 
-2.7807891389486294

>  <r_lp_Energy>  (1) 
11.424324

>  <r_lp_tautomer_probability>  (1) 
1

>  <s_epik_cmdline>  (1) 
J2VwaWtfcHl0aG9uJywgJy1waHQnLCAnMS4wJywgJy1waCcsICc3LjQnLCAnLXRuJywgJzgnLCAnLW1hJywgJzUwMCcsICctaW1hZScsICc8aW5maWxlLm1hZT4nLCAnLW9tYWUnLCAnPG91dGZpbGUubWFlPic=

>  <s_epik_input>  (1) 
W2NIXTFbY0hdW2NIXVtjSF1jKGMxPTIpPUM9W0NIXVtDSF0y

>  <s_glide_docking_method>  (1) 
confgen

>  <s_i_glide_gridfile>  (1) 
gpcr_5ht2c_6bqh_protein_autoprepared_prepared

>  <s_lp_Force_Field>  (1) 
S-OPLS

>  <s_lp_Variant>  (1) 
Pocket2Mol_72-1

>  <s_m_source_file>  (1) 
generated_GPCR_5HT2C_ligand_Pocket2Mol_2026-06-23_prepared.sdf

>  <GenAI_Model>  (1) 
Pocket2Mol

>  <Protein>  (1) 
GPCR_5HT2C

$$$$
Pocket2Mol_79
     RDKit          3D

  0  0  0  0  0  0  0  0  0  0999 V3000
M  V30 BEGIN CTAB
M  V30 COUNTS 17 18 0 0 1
M  V30 BEGIN ATOM
M  V30 1 C 38.955834 30.157644 54.257974 0
M  V30 2 C 39.245138 29.745624 52.915302 0
M  V30 3 C 38.685593 28.398862 52.339305 0 CFG=2
M  V30 4 C 40.046168 30.409975 52.092164 0
M  V30 5 C 40.260459 29.660374 50.964135 0
M  V30 6 C 38.581367 27.411572 53.492887 0
M  V30 7 C 38.474006 27.815994 54.785798 0
M  V30 8 C 39.590503 28.523824 51.063153 0
M  V30 9 C 38.561905 29.237326 55.156925 0
M  V30 10 H 39.087421 31.188705 54.554835 0
M  V30 11 H 37.662304 28.559703 51.998096 0
M  V30 12 H 40.538065 31.342752 52.319752 0
M  V30 13 H 40.911993 29.934364 50.146485 0
M  V30 14 H 38.527710 26.363110 53.243551 0
M  V30 15 H 38.345876 27.075911 55.562187 0
M  V30 16 H 39.605180 27.746819 50.312540 0
M  V30 17 H 38.368883 29.536930 56.177288 0
M  V30 END ATOM
M  V30 BEGIN BOND
M  V30 1 1 2 1
M  V30 2 1 3 2
M  V30 3 2 4 2
M  V30 4 1 5 4
M  V30 5 1 6 3
M  V30 6 2 7 6
M  V30 7 1 8 3
M  V30 8 2 8 5
M  V30 9 2 9 1
M  V30 10 1 9 7
M  V30 11 1 10 1
M  V30 12 1 3 11 CFG=3
M  V30 13 1 12 4
M  V30 14 1 13 5
M  V30 15 1 14 6
M  V30 16 1 15 7
M  V30 17 1 16 8
M  V30 18 1 17 9
M  V30 END BOND
M  V30 END CTAB
M  END
>  <i_epik_Tot_Q>  (1) 
0

>  <i_epik_Tot_abs_Q>  (1) 
0

>  <i_i_glide_confnum>  (1) 
1

>  <i_i_glide_lignum>  (1) 
84

>  <i_i_glide_posenum>  (1) 
98

>  <i_i_glide_rotatable_bonds>  (1) 
0

>  <i_lp_mmshare_version>  (1) 
72125

>  <i_m_source_file_index>  (1) 
80

>  <i_f3d_flags>  (1) 
0

>  <num_sample>  (1) 
100

>  <b_lp_Chiralities_Consistent>  (1) 
1

>  <r_epik_Charging_Adjusted_Penalty>  (1) 
0

>  <r_epik_Ionization_Penalty>  (1) 
0

>  <r_epik_Ionization_Penalty_Charging>  (1) 
0

>  <r_epik_Ionization_Penalty_Neutral>  (1) 
0

>  <r_epik_State_Penalty>  (1) 
-0

>  <r_glide_ring_energy>  (1) 
0

>  <r_i_docking_score>  (1) 
-6.33352565410084

>  <r_i_glide_ecoul>  (1) 
-0.68249664796100573

>  <r_i_glide_eff_state_penalty>  (1) 
-0

>  <r_i_glide_einternal>  (1) 
0

>  <r_i_glide_emodel>  (1) 
-28.652238555372875

>  <r_i_glide_emodel_strain>  (1) 
0

>  <r_i_glide_energy>  (1) 
-20.430702408860913

>  <r_i_glide_erotb>  (1) 
0

>  <r_i_glide_esite>  (1) 
0

>  <r_i_glide_evdw>  (1) 
-19.748205760899907

>  <r_i_glide_gscore>  (1) 
-6.33352565410084

>  <r_i_glide_gscore_strain>  (1) 
0

>  <r_i_glide_hbond>  (1) 
0

>  <r_i_glide_ligand_efficiency>  (1) 
-0.7037250726778711

>  <r_i_glide_ligand_efficiency_ln>  (1) 
-1.9809448791919528

>  <r_i_glide_ligand_efficiency_sa>  (1) 
-1.4638071395532655

>  <r_i_glide_lipo>  (1) 
-2.3107970559590147

>  <r_i_glide_metal>  (1) 
-0

>  <r_i_glide_rewards>  (1) 
-2.9329438129026792

>  <r_lp_Energy>  (1) 
11.987261999999999

>  <r_lp_tautomer_probability>  (1) 
1

>  <s_epik_cmdline>  (1) 
J2VwaWtfcHl0aG9uJywgJy1waHQnLCAnMS4wJywgJy1waCcsICc3LjQnLCAnLXRuJywgJzgnLCAnLW1hJywgJzUwMCcsICctaW1hZScsICc8aW5maWxlLm1hZT4nLCAnLW9tYWUnLCAnPG91dGZpbGUubWFlPic=

>  <s_epik_input>  (1) 
W0NIXTE9W0NIXVtDSF09W0NIXVtDQEBIXShDMT0yKVtDSF09W0NIXVtDSF0y

>  <s_glide_docking_method>  (1) 
confgen

>  <s_i_glide_gridfile>  (1) 
gpcr_5ht2c_6bqh_protein_autoprepared_prepared

>  <s_lp_Force_Field>  (1) 
S-OPLS

>  <s_lp_Variant>  (1) 
Pocket2Mol_79-1

>  <s_m_source_file>  (1) 
generated_GPCR_5HT2C_ligand_Pocket2Mol_2026-06-23_prepared.sdf

>  <GenAI_Model>  (1) 
Pocket2Mol

>  <Protein>  (1) 
GPCR_5HT2C

$$$$
Pocket2Mol_92
     RDKit          3D

  0  0  0  0  0  0  0  0  0  0999 V3000
M  V30 BEGIN CTAB
M  V30 COUNTS 18 19 0 0 1
M  V30 BEGIN ATOM
M  V30 1 C 40.045137 30.114445 51.877258 0
M  V30 2 C 39.302604 29.889491 53.056049 0
M  V30 3 C 38.528221 28.712592 53.188762 0
M  V30 4 C 39.328798 30.835694 54.101504 0
M  V30 5 C 38.585234 30.609415 55.275884 0
M  V30 6 C 38.501268 27.767390 52.143856 0
M  V30 7 C 37.785658 28.489370 54.365802 0
M  V30 8 C 40.015707 29.166530 50.835385 0
M  V30 9 C 37.815087 29.438797 55.408357 0
M  V30 10 C 39.245179 27.993850 50.968451 0
M  V30 11 H 40.635373 31.013715 51.771815 0
M  V30 12 H 39.917598 31.734615 54.003131 0
M  V30 13 H 38.604376 31.335529 56.076451 0
M  V30 14 H 37.910273 26.870011 52.242474 0
M  V30 15 H 37.193484 27.591602 54.470283 0
M  V30 16 H 40.583016 29.339105 49.933090 0
M  V30 17 H 37.245248 29.270181 56.310676 0
M  V30 18 H 39.224364 27.267569 50.167963 0
M  V30 END ATOM
M  V30 BEGIN BOND
M  V30 1 1 2 1
M  V30 2 1 3 2
M  V30 3 2 4 2
M  V30 4 1 5 4
M  V30 5 1 6 3
M  V30 6 2 7 3
M  V30 7 2 8 1
M  V30 8 2 9 5
M  V30 9 1 9 7
M  V30 10 2 10 6
M  V30 11 1 10 8
M  V30 12 1 11 1
M  V30 13 1 12 4
M  V30 14 1 13 5
M  V30 15 1 14 6
M  V30 16 1 15 7
M  V30 17 1 16 8
M  V30 18 1 17 9
M  V30 19 1 18 10
M  V30 END BOND
M  V30 END CTAB
M  END
>  <i_epik_Tot_Q>  (1) 
0

>  <i_epik_Tot_abs_Q>  (1) 
0

>  <i_i_glide_confnum>  (1) 
1

>  <i_i_glide_lignum>  (1) 
97

>  <i_i_glide_posenum>  (1) 
91

>  <i_i_glide_rotatable_bonds>  (1) 
0

>  <i_lp_mmshare_version>  (1) 
72125

>  <i_m_source_file_index>  (1) 
93

>  <i_f3d_flags>  (1) 
0

>  <num_sample>  (1) 
100

>  <b_lp_Chiralities_Consistent>  (1) 
1

>  <r_epik_Charging_Adjusted_Penalty>  (1) 
0

>  <r_epik_Ionization_Penalty>  (1) 
0

>  <r_epik_Ionization_Penalty_Charging>  (1) 
0

>  <r_epik_Ionization_Penalty_Neutral>  (1) 
0

>  <r_epik_State_Penalty>  (1) 
-0

>  <r_glide_ring_energy>  (1) 
0

>  <r_i_docking_score>  (1) 
-6.3326961106256041

>  <r_i_glide_ecoul>  (1) 
-1.1630303005128553

>  <r_i_glide_eff_state_penalty>  (1) 
-0

>  <r_i_glide_einternal>  (1) 
0

>  <r_i_glide_emodel>  (1) 
-30.629066226135869

>  <r_i_glide_emodel_strain>  (1) 
0

>  <r_i_glide_energy>  (1) 
-22.152386213884572

>  <r_i_glide_erotb>  (1) 
0

>  <r_i_glide_esite>  (1) 
0

>  <r_i_glide_evdw>  (1) 
-20.989355913371718

>  <r_i_glide_gscore>  (1) 
-6.3326961106256041

>  <r_i_glide_gscore_strain>  (1) 
0

>  <r_i_glide_hbond>  (1) 
0

>  <r_i_glide_ligand_efficiency>  (1) 
-0.63326961106256041

>  <r_i_glide_ligand_efficiency_ln>  (1) 
-1.9174967282628079

>  <r_i_glide_ligand_efficiency_sa>  (1) 
-1.3643380182161791

>  <r_i_glide_lipo>  (1) 
-2.4095945379940429

>  <r_i_glide_metal>  (1) 
-0

>  <r_i_glide_rewards>  (1) 
-2.6991792318860468

>  <r_lp_Energy>  (1) 
18.967330999999998

>  <r_lp_tautomer_probability>  (1) 
1

>  <s_epik_cmdline>  (1) 
J2VwaWtfcHl0aG9uJywgJy1waHQnLCAnMS4wJywgJy1waCcsICc3LjQnLCAnLXRuJywgJzgnLCAnLW1hJywgJzUwMCcsICctaW1hZScsICc8aW5maWxlLm1hZT4nLCAnLW9tYWUnLCAnPG91dGZpbGUubWFlPic=

>  <s_epik_input>  (1) 
W2NIXTFbY0hdW2NIXVtjSF1jKGMxMilbY0hdW2NIXVtjSF1bY0hdMg==

>  <s_glide_docking_method>  (1) 
confgen

>  <s_i_glide_gridfile>  (1) 
gpcr_5ht2c_6bqh_protein_autoprepared_prepared

>  <s_lp_Force_Field>  (1) 
S-OPLS

>  <s_lp_Variant>  (1) 
Pocket2Mol_92-1

>  <s_m_source_file>  (1) 
generated_GPCR_5HT2C_ligand_Pocket2Mol_2026-06-23_prepared.sdf

>  <GenAI_Model>  (1) 
Pocket2Mol

>  <Protein>  (1) 
GPCR_5HT2C

$$$$
Pocket2Mol_94
     RDKit          3D

  0  0  0  0  0  0  0  0  0  0999 V3000
M  V30 BEGIN CTAB
M  V30 COUNTS 16 17 0 0 1
M  V30 BEGIN ATOM
M  V30 1 C 38.537099 28.108240 52.127055 0
M  V30 2 C 38.544892 28.938053 53.293700 0
M  V30 3 C 39.269796 30.126717 53.368309 0
M  V30 4 C 37.946363 28.779358 54.398842 0
M  V30 5 C 40.045137 30.530781 52.208418 0
M  V30 6 C 38.310678 29.903221 55.180464 0
M  V30 7 C 40.045974 29.757183 51.086316 0
M  V30 8 C 39.148044 30.773310 54.556721 0
M  V30 9 O 40.749589 30.137755 50.014387 0
M  V30 10 C 39.260578 28.496362 51.052950 0
M  V30 11 H 37.964338 27.192169 52.104372 0
M  V30 12 H 37.296696 27.964622 54.682833 0
M  V30 13 H 40.613640 31.446940 52.231489 0
M  V30 14 H 37.945081 30.047979 56.187074 0
M  V30 15 H 40.552798 29.530453 49.318869 0
M  V30 16 H 39.265396 27.883828 50.164791 0
M  V30 END ATOM
M  V30 BEGIN BOND
M  V30 1 1 2 1
M  V30 2 1 3 2
M  V30 3 2 4 2
M  V30 4 1 5 3
M  V30 5 1 6 4
M  V30 6 2 7 5
M  V30 7 2 8 3
M  V30 8 2 8 6
M  V30 9 1 9 7
M  V30 10 2 10 1
M  V30 11 1 10 7
M  V30 12 1 11 1
M  V30 13 1 12 4
M  V30 14 1 13 5
M  V30 15 1 14 6
M  V30 16 1 15 9
M  V30 17 1 16 10
M  V30 END BOND
M  V30 END CTAB
M  END
>  <i_epik_Tot_Q>  (1) 
0

>  <i_epik_Tot_abs_Q>  (1) 
0

>  <i_i_glide_confnum>  (1) 
1

>  <i_i_glide_lignum>  (1) 
99

>  <i_i_glide_posenum>  (1) 
241

>  <i_i_glide_rotatable_bonds>  (1) 
1

>  <i_lp_mmshare_version>  (1) 
72125

>  <i_m_source_file_index>  (1) 
95

>  <i_f3d_flags>  (1) 
0

>  <num_sample>  (1) 
100

>  <b_lp_Chiralities_Consistent>  (1) 
1

>  <r_epik_Charging_Adjusted_Penalty>  (1) 
0

>  <r_epik_Ionization_Penalty>  (1) 
1.8682351542324854e-05

>  <r_epik_Ionization_Penalty_Charging>  (1) 
0

>  <r_epik_Ionization_Penalty_Neutral>  (1) 
1.8682351542324854e-05

>  <r_epik_State_Penalty>  (1) 
-0

>  <r_glide_ring_energy>  (1) 
0

>  <r_i_docking_score>  (1) 
-6.3162119186614367

>  <r_i_glide_ecoul>  (1) 
-0.55709774284040892

>  <r_i_glide_eff_state_penalty>  (1) 
-0

>  <r_i_glide_einternal>  (1) 
0.042996666864369537

>  <r_i_glide_emodel>  (1) 
-33.594425353518794

>  <r_i_glide_emodel_strain>  (1) 
0

>  <r_i_glide_energy>  (1) 
-23.878141265854978

>  <r_i_glide_erotb>  (1) 
0

>  <r_i_glide_esite>  (1) 
0

>  <r_i_glide_evdw>  (1) 
-23.32104352301457

>  <r_i_glide_gscore>  (1) 
-6.3162119186614367

>  <r_i_glide_gscore_strain>  (1) 
0

>  <r_i_glide_hbond>  (1) 
0

>  <r_i_glide_ligand_efficiency>  (1) 
-0.63162119186614363

>  <r_i_glide_ligand_efficiency_ln>  (1) 
-1.9125054285687784

>  <r_i_glide_ligand_efficiency_sa>  (1) 
-1.3607866067157044

>  <r_i_glide_lipo>  (1) 
-2.2340561513820778

>  <r_i_glide_metal>  (1) 
-0

>  <r_i_glide_rewards>  (1) 
-2.8325389297025687

>  <r_lp_Energy>  (1) 
8.2800809999999991

>  <r_lp_tautomer_probability>  (1) 
1

>  <s_epik_cmdline>  (1) 
J2VwaWtfcHl0aG9uJywgJy1waHQnLCAnMS4wJywgJy1waCcsICc3LjQnLCAnLXRuJywgJzgnLCAnLW1hJywgJzUwMCcsICctaW1hZScsICc8aW5maWxlLm1hZT4nLCAnLW9tYWUnLCAnPG91dGZpbGUubWFlPic=

>  <s_epik_input>  (1) 
W2NIXTFbY0hdYyhbT0hdKVtjSF1jKGMxPTIpPUM9W0NIXVtDSF0y

>  <s_glide_docking_method>  (1) 
confgen

>  <s_i_glide_gridfile>  (1) 
gpcr_5ht2c_6bqh_protein_autoprepared_prepared

>  <s_lp_Force_Field>  (1) 
S-OPLS

>  <s_lp_Variant>  (1) 
Pocket2Mol_94-1

>  <s_m_source_file>  (1) 
generated_GPCR_5HT2C_ligand_Pocket2Mol_2026-06-23_prepared.sdf

>  <GenAI_Model>  (1) 
Pocket2Mol

>  <Protein>  (1) 
GPCR_5HT2C

$$$$
Pocket2Mol_89
     RDKit          3D

  0  0  0  0  0  0  0  0  0  0999 V3000
M  V30 BEGIN CTAB
M  V30 COUNTS 17 18 0 0 1
M  V30 BEGIN ATOM
M  V30 1 C 38.418946 27.498009 52.135862 0
M  V30 2 C 38.477830 28.537130 53.018027 0
M  V30 3 C 37.761990 28.703275 54.206185 0
M  V30 4 C 37.994167 29.874791 54.968660 0
M  V30 5 C 38.943176 30.838674 54.512566 0
M  V30 6 C 39.380724 29.454229 52.570243 0
M  V30 7 C 40.069257 29.077780 51.209429 0
M  V30 8 C 39.645053 30.620351 53.296522 0
M  V30 9 C 39.254553 27.729710 51.134448 0
M  V30 10 H 37.778477 26.639830 52.267917 0
M  V30 11 H 37.051444 27.959794 54.534255 0
M  V30 12 H 37.456157 30.037741 55.892596 0
M  V30 13 H 39.126406 31.732727 55.090095 0
M  V30 14 H 41.143670 28.924205 51.315837 0
M  V30 15 H 39.827098 29.765836 50.398900 0
M  V30 16 H 40.365852 31.337756 52.938132 0
M  V30 17 H 39.391520 27.051476 50.304532 0
M  V30 END ATOM
M  V30 BEGIN BOND
M  V30 1 1 2 1
M  V30 2 2 3 2
M  V30 3 1 4 3
M  V30 4 2 5 4
M  V30 5 1 6 2
M  V30 6 1 7 6
M  V30 7 1 8 5
M  V30 8 2 8 6
M  V30 9 2 9 1
M  V30 10 1 9 7
M  V30 11 1 10 1
M  V30 12 1 11 3
M  V30 13 1 12 4
M  V30 14 1 13 5
M  V30 15 1 14 7
M  V30 16 1 15 7
M  V30 17 1 16 8
M  V30 18 1 17 9
M  V30 END BOND
M  V30 END CTAB
M  END
>  <i_epik_Tot_Q>  (1) 
0

>  <i_epik_Tot_abs_Q>  (1) 
0

>  <i_i_glide_confnum>  (1) 
1

>  <i_i_glide_lignum>  (1) 
94

>  <i_i_glide_posenum>  (1) 
198

>  <i_i_glide_rotatable_bonds>  (1) 
0

>  <i_lp_mmshare_version>  (1) 
72125

>  <i_m_source_file_index>  (1) 
90

>  <i_f3d_flags>  (1) 
0

>  <num_sample>  (1) 
100

>  <b_lp_Chiralities_Consistent>  (1) 
1

>  <r_epik_Charging_Adjusted_Penalty>  (1) 
0

>  <r_epik_Ionization_Penalty>  (1) 
0

>  <r_epik_Ionization_Penalty_Charging>  (1) 
0

>  <r_epik_Ionization_Penalty_Neutral>  (1) 
0

>  <r_epik_State_Penalty>  (1) 
-0

>  <r_glide_ring_energy>  (1) 
0

>  <r_i_docking_score>  (1) 
-6.3117892137233529

>  <r_i_glide_ecoul>  (1) 
-1.478399504026823

>  <r_i_glide_eff_state_penalty>  (1) 
-0

>  <r_i_glide_einternal>  (1) 
0

>  <r_i_glide_emodel>  (1) 
-29.082277445747224

>  <r_i_glide_emodel_strain>  (1) 
0

>  <r_i_glide_energy>  (1) 
-20.84587147305454

>  <r_i_glide_erotb>  (1) 
0

>  <r_i_glide_esite>  (1) 
0

>  <r_i_glide_evdw>  (1) 
-19.367471969027719

>  <r_i_glide_gscore>  (1) 
-6.3117892137233529

>  <r_i_glide_gscore_strain>  (1) 
0

>  <r_i_glide_hbond>  (1) 
0

>  <r_i_glide_ligand_efficiency>  (1) 
-0.70130991263592812

>  <r_i_glide_ligand_efficiency_ln>  (1) 
-1.9741463450722143

>  <r_i_glide_ligand_efficiency_sa>  (1) 
-1.4587834042199384

>  <r_i_glide_lipo>  (1) 
-2.4127583564804578

>  <r_i_glide_metal>  (1) 
-0

>  <r_i_glide_rewards>  (1) 
-2.7088973331874864

>  <r_lp_Energy>  (1) 
7.8773689999999998

>  <r_lp_tautomer_probability>  (1) 
1

>  <s_epik_cmdline>  (1) 
J2VwaWtfcHl0aG9uJywgJy1waHQnLCAnMS4wJywgJy1waCcsICc3LjQnLCAnLXRuJywgJzgnLCAnLW1hJywgJzUwMCcsICctaW1hZScsICc8aW5maWxlLm1hZT4nLCAnLW9tYWUnLCAnPG91dGZpbGUubWFlPic=

>  <s_epik_input>  (1) 
W0NIXTE9W0NIXVtDSDJdYyhjMTIpW2NIXVtjSF1bY0hdW2NIXTI=

>  <s_glide_docking_method>  (1) 
confgen

>  <s_i_glide_gridfile>  (1) 
gpcr_5ht2c_6bqh_protein_autoprepared_prepared

>  <s_lp_Force_Field>  (1) 
S-OPLS

>  <s_lp_Variant>  (1) 
Pocket2Mol_89-1

>  <s_m_source_file>  (1) 
generated_GPCR_5HT2C_ligand_Pocket2Mol_2026-06-23_prepared.sdf

>  <GenAI_Model>  (1) 
Pocket2Mol

>  <Protein>  (1) 
GPCR_5HT2C

$$$$
Pocket2Mol_86
     RDKit          3D

  0  0  0  0  0  0  0  0  0  0999 V3000
M  V30 BEGIN CTAB
M  V30 COUNTS 17 17 0 0 1
M  V30 BEGIN ATOM
M  V30 1 C 38.032805 29.117070 54.245188 0
M  V30 2 C 38.839359 30.266517 54.111813 0
M  V30 3 C 38.031473 28.134152 53.234945 0
M  V30 4 O 37.245137 27.024773 53.367759 0
M  V30 5 C 38.840836 28.299872 52.088744 0
M  V30 6 C 38.837522 31.327551 55.194308 0
M  V30 7 O 38.847529 27.349789 51.107647 0
M  V30 8 C 39.645138 30.430559 52.967699 0
M  V30 9 C 39.645132 29.448018 51.957015 0
M  V30 10 H 37.413023 28.990861 55.120736 0
M  V30 11 H 36.917424 26.674831 52.546307 0
M  V30 12 H 38.154670 31.071452 56.005611 0
M  V30 13 H 39.838070 31.445843 55.611207 0
M  V30 14 H 38.523611 32.287074 54.781601 0
M  V30 15 H 38.320748 26.590748 51.301184 0
M  V30 16 H 40.262308 31.311901 52.862858 0
M  V30 17 H 40.263857 29.575620 51.080829 0
M  V30 END ATOM
M  V30 BEGIN BOND
M  V30 1 2 2 1
M  V30 2 1 3 1
M  V30 3 1 4 3
M  V30 4 2 5 3
M  V30 5 1 6 2
M  V30 6 1 7 5
M  V30 7 1 8 2
M  V30 8 1 9 5
M  V30 9 2 9 8
M  V30 10 1 10 1
M  V30 11 1 11 4
M  V30 12 1 12 6
M  V30 13 1 13 6
M  V30 14 1 14 6
M  V30 15 1 15 7
M  V30 16 1 16 8
M  V30 17 1 17 9
M  V30 END BOND
M  V30 END CTAB
M  END
>  <i_epik_Tot_Q>  (1) 
0

>  <i_epik_Tot_abs_Q>  (1) 
0

>  <i_i_glide_confnum>  (1) 
1

>  <i_i_glide_lignum>  (1) 
91

>  <i_i_glide_posenum>  (1) 
195

>  <i_i_glide_rotatable_bonds>  (1) 
2

>  <i_lp_mmshare_version>  (1) 
72125

>  <i_m_source_file_index>  (1) 
87

>  <i_f3d_flags>  (1) 
0

>  <num_sample>  (1) 
100

>  <b_lp_Chiralities_Consistent>  (1) 
1

>  <r_epik_Charging_Adjusted_Penalty>  (1) 
0

>  <r_epik_Ionization_Penalty>  (1) 
0.0034619861512114073

>  <r_epik_Ionization_Penalty_Charging>  (1) 
0

>  <r_epik_Ionization_Penalty_Neutral>  (1) 
0.0034619861512114073

>  <r_epik_State_Penalty>  (1) 
-0

>  <r_glide_ring_energy>  (1) 
0

>  <r_i_docking_score>  (1) 
-6.3105093228644078

>  <r_i_glide_ecoul>  (1) 
-4.5731358614843147

>  <r_i_glide_eff_state_penalty>  (1) 
-0

>  <r_i_glide_einternal>  (1) 
0.2825681444416499

>  <r_i_glide_emodel>  (1) 
-33.18294798888116

>  <r_i_glide_emodel_strain>  (1) 
0.28509403369907638

>  <r_i_glide_energy>  (1) 
-23.443607471437254

>  <r_i_glide_erotb>  (1) 
0

>  <r_i_glide_esite>  (1) 
0

>  <r_i_glide_evdw>  (1) 
-18.87047160995294

>  <r_i_glide_gscore>  (1) 
-6.3105093228644078

>  <r_i_glide_gscore_strain>  (1) 
0

>  <r_i_glide_hbond>  (1) 
-0.32000000000000001

>  <r_i_glide_ligand_efficiency>  (1) 
-0.70116770254048977

>  <r_i_glide_ligand_efficiency_ln>  (1) 
-1.9737460319794093

>  <r_i_glide_ligand_efficiency_sa>  (1) 
-1.4584875953009424

>  <r_i_glide_lipo>  (1) 
-1.8788978661704692

>  <r_i_glide_metal>  (1) 
-0

>  <r_i_glide_rewards>  (1) 
-2.4821174969736441

>  <r_lp_Energy>  (1) 
6.77806

>  <r_lp_tautomer_probability>  (1) 
1

>  <s_epik_cmdline>  (1) 
J2VwaWtfcHl0aG9uJywgJy1waHQnLCAnMS4wJywgJy1waCcsICc3LjQnLCAnLXRuJywgJzgnLCAnLW1hJywgJzUwMCcsICctaW1hZScsICc8aW5maWxlLm1hZT4nLCAnLW9tYWUnLCAnPG91dGZpbGUubWFlPic=

>  <s_epik_input>  (1) 
W0NIM11jMVtjSF1jKFtPSF0pYyhbT0hdKVtjSF1bY0hdMQ==

>  <s_glide_docking_method>  (1) 
confgen

>  <s_i_glide_gridfile>  (1) 
gpcr_5ht2c_6bqh_protein_autoprepared_prepared

>  <s_lp_Force_Field>  (1) 
S-OPLS

>  <s_lp_Variant>  (1) 
Pocket2Mol_86-1

>  <s_m_source_file>  (1) 
generated_GPCR_5HT2C_ligand_Pocket2Mol_2026-06-23_prepared.sdf

>  <GenAI_Model>  (1) 
Pocket2Mol

>  <Protein>  (1) 
GPCR_5HT2C

$$$$
Pocket2Mol_79
     RDKit          3D

  0  0  0  0  0  0  0  0  0  0999 V3000
M  V30 BEGIN CTAB
M  V30 COUNTS 17 18 0 0 1
M  V30 BEGIN ATOM
M  V30 1 C 38.354088 27.654267 52.946193 0
M  V30 2 C 39.132019 28.642006 52.257874 0
M  V30 3 C 39.548155 29.980836 52.959610 0 CFG=2
M  V30 4 C 39.489420 28.549704 50.984105 0
M  V30 5 C 40.043389 29.740206 50.582484 0
M  V30 6 C 38.480587 30.336887 53.981909 0
M  V30 7 C 37.645127 29.406628 54.508533 0
M  V30 8 C 40.045139 30.583099 51.601742 0
M  V30 9 C 37.654202 28.010701 54.040706 0
M  V30 10 H 38.298230 26.643411 52.569873 0
M  V30 11 H 40.444697 29.812095 53.549065 0
M  V30 12 H 39.272713 27.714443 50.333775 0
M  V30 13 H 40.371012 29.970846 49.579239 0
M  V30 14 H 38.447563 31.359540 54.329748 0
M  V30 15 H 36.939471 29.703714 55.272203 0
M  V30 16 H 40.403965 31.599774 51.544059 0
M  V30 17 H 37.044654 27.276298 54.545438 0
M  V30 END ATOM
M  V30 BEGIN BOND
M  V30 1 1 2 1
M  V30 2 1 3 2
M  V30 3 2 4 2
M  V30 4 1 5 4
M  V30 5 1 6 3
M  V30 6 2 7 6
M  V30 7 1 8 3
M  V30 8 2 8 5
M  V30 9 2 9 1
M  V30 10 1 9 7
M  V30 11 1 10 1
M  V30 12 1 3 11 CFG=1
M  V30 13 1 12 4
M  V30 14 1 13 5
M  V30 15 1 14 6
M  V30 16 1 15 7
M  V30 17 1 16 8
M  V30 18 1 17 9
M  V30 END BOND
M  V30 END CTAB
M  END
>  <i_epik_Tot_Q>  (1) 
0

>  <i_epik_Tot_abs_Q>  (1) 
0

>  <i_i_glide_confnum>  (1) 
1

>  <i_i_glide_lignum>  (1) 
84

>  <i_i_glide_posenum>  (1) 
24

>  <i_i_glide_rotatable_bonds>  (1) 
0

>  <i_lp_mmshare_version>  (1) 
72125

>  <i_m_source_file_index>  (1) 
80

>  <i_f3d_flags>  (1) 
0

>  <num_sample>  (1) 
100

>  <b_lp_Chiralities_Consistent>  (1) 
1

>  <r_epik_Charging_Adjusted_Penalty>  (1) 
0

>  <r_epik_Ionization_Penalty>  (1) 
0

>  <r_epik_Ionization_Penalty_Charging>  (1) 
0

>  <r_epik_Ionization_Penalty_Neutral>  (1) 
0

>  <r_epik_State_Penalty>  (1) 
-0

>  <r_glide_ring_energy>  (1) 
0

>  <r_i_docking_score>  (1) 
-6.309103709850362

>  <r_i_glide_ecoul>  (1) 
-1.0011669482364765

>  <r_i_glide_eff_state_penalty>  (1) 
-0

>  <r_i_glide_einternal>  (1) 
0

>  <r_i_glide_emodel>  (1) 
-28.527959270447489

>  <r_i_glide_emodel_strain>  (1) 
0

>  <r_i_glide_energy>  (1) 
-20.338125197691777

>  <r_i_glide_erotb>  (1) 
0

>  <r_i_glide_esite>  (1) 
0

>  <r_i_glide_evdw>  (1) 
-19.3369582494553

>  <r_i_glide_gscore>  (1) 
-6.309103709850362

>  <r_i_glide_gscore_strain>  (1) 
0

>  <r_i_glide_hbond>  (1) 
0

>  <r_i_glide_ligand_efficiency>  (1) 
-0.70101152331670691

>  <r_i_glide_ligand_efficiency_ln>  (1) 
-1.9733063966081534

>  <r_i_glide_ligand_efficiency_sa>  (1) 
-1.4581627294240549

>  <r_i_glide_lipo>  (1) 
-2.4498062170440384

>  <r_i_glide_metal>  (1) 
-0

>  <r_i_glide_rewards>  (1) 
-2.7422745380980871

>  <r_lp_Energy>  (1) 
11.987261999999999

>  <r_lp_tautomer_probability>  (1) 
1

>  <s_epik_cmdline>  (1) 
J2VwaWtfcHl0aG9uJywgJy1waHQnLCAnMS4wJywgJy1waCcsICc3LjQnLCAnLXRuJywgJzgnLCAnLW1hJywgJzUwMCcsICctaW1hZScsICc8aW5maWxlLm1hZT4nLCAnLW9tYWUnLCAnPG91dGZpbGUubWFlPic=

>  <s_epik_input>  (1) 
W0NIXTE9W0NIXVtDSF09W0NIXVtDQEBIXShDMT0yKVtDSF09W0NIXVtDSF0y

>  <s_glide_docking_method>  (1) 
confgen

>  <s_i_glide_gridfile>  (1) 
gpcr_5ht2c_6bqh_protein_autoprepared_prepared

>  <s_lp_Force_Field>  (1) 
S-OPLS

>  <s_lp_Variant>  (1) 
Pocket2Mol_79-1

>  <s_m_source_file>  (1) 
generated_GPCR_5HT2C_ligand_Pocket2Mol_2026-06-23_prepared.sdf

>  <GenAI_Model>  (1) 
Pocket2Mol

>  <Protein>  (1) 
GPCR_5HT2C

$$$$
Pocket2Mol_83
     RDKit          3D

  0  0  0  0  0  0  0  0  0  0999 V3000
M  V30 BEGIN CTAB
M  V30 COUNTS 16 17 0 0 1
M  V30 BEGIN ATOM
M  V30 1 C 39.645136 30.537755 53.366558 0
M  V30 2 C 39.393995 29.410441 52.539263 0
M  V30 3 C 38.907799 30.747328 54.554404 0
M  V30 4 C 37.908531 29.836866 54.940345 0
M  V30 5 C 37.645136 28.714557 54.143082 0
M  V30 6 C 39.940061 28.923416 51.309386 0
M  V30 7 C 39.269594 27.764825 51.007547 0
M  V30 8 C 38.377936 28.512149 52.965169 0
M  V30 9 N 38.333220 27.520562 52.003988 0
M  V30 10 H 40.408072 31.247212 53.081418 0
M  V30 11 H 39.111343 31.613087 55.168095 0
M  V30 12 H 37.344598 30.003179 55.848537 0
M  V30 13 H 36.879619 28.010879 54.432647 0
M  V30 14 H 40.728731 29.387612 50.736024 0
M  V30 15 H 39.378389 27.093079 50.167761 0
M  V30 16 H 37.707058 26.724354 51.992930 0
M  V30 END ATOM
M  V30 BEGIN BOND
M  V30 1 2 2 1
M  V30 2 1 3 1
M  V30 3 2 4 3
M  V30 4 1 5 4
M  V30 5 1 6 2
M  V30 6 2 7 6
M  V30 7 1 8 2
M  V30 8 2 8 5
M  V30 9 1 9 7
M  V30 10 1 9 8
M  V30 11 1 10 1
M  V30 12 1 11 3
M  V30 13 1 12 4
M  V30 14 1 13 5
M  V30 15 1 14 6
M  V30 16 1 15 7
M  V30 17 1 16 9
M  V30 END BOND
M  V30 END CTAB
M  END
>  <i_epik_Tot_Q>  (1) 
0

>  <i_epik_Tot_abs_Q>  (1) 
0

>  <i_i_glide_confnum>  (1) 
1

>  <i_i_glide_lignum>  (1) 
88

>  <i_i_glide_posenum>  (1) 
225

>  <i_i_glide_rotatable_bonds>  (1) 
0

>  <i_lp_mmshare_version>  (1) 
72125

>  <i_m_source_file_index>  (1) 
84

>  <i_f3d_flags>  (1) 
0

>  <num_sample>  (1) 
100

>  <b_lp_Chiralities_Consistent>  (1) 
1

>  <r_epik_Charging_Adjusted_Penalty>  (1) 
0

>  <r_epik_Ionization_Penalty>  (1) 
6.3316205355000374e-10

>  <r_epik_Ionization_Penalty_Charging>  (1) 
0

>  <r_epik_Ionization_Penalty_Neutral>  (1) 
6.3316205355000374e-10

>  <r_epik_State_Penalty>  (1) 
-0

>  <r_glide_ring_energy>  (1) 
0

>  <r_i_docking_score>  (1) 
-6.3008417558695307

>  <r_i_glide_ecoul>  (1) 
-2.7962235572667051

>  <r_i_glide_eff_state_penalty>  (1) 
-0

>  <r_i_glide_einternal>  (1) 
0

>  <r_i_glide_emodel>  (1) 
-31.12404921416622

>  <r_i_glide_emodel_strain>  (1) 
0

>  <r_i_glide_energy>  (1) 
-22.543759627268187

>  <r_i_glide_erotb>  (1) 
0

>  <r_i_glide_esite>  (1) 
0

>  <r_i_glide_evdw>  (1) 
-19.74753607000148

>  <r_i_glide_gscore>  (1) 
-6.3008417558695307

>  <r_i_glide_gscore_strain>  (1) 
0

>  <r_i_glide_hbond>  (1) 
-0.16015892589562897

>  <r_i_glide_ligand_efficiency>  (1) 
-0.70009352842994788

>  <r_i_glide_ligand_efficiency_ln>  (1) 
-1.9707222947469965

>  <r_i_glide_ligand_efficiency_sa>  (1) 
-1.456253223110463

>  <r_i_glide_lipo>  (1) 
-2.1125406334539085

>  <r_i_glide_metal>  (1) 
-0

>  <r_i_glide_rewards>  (1) 
-2.621331859429914

>  <r_lp_Energy>  (1) 
12.824451

>  <r_lp_tautomer_probability>  (1) 
1

>  <s_epik_cmdline>  (1) 
J2VwaWtfcHl0aG9uJywgJy1waHQnLCAnMS4wJywgJy1waCcsICc3LjQnLCAnLXRuJywgJzgnLCAnLW1hJywgJzUwMCcsICctaW1hZScsICc8aW5maWxlLm1hZT4nLCAnLW9tYWUnLCAnPG91dGZpbGUubWFlPic=

>  <s_epik_input>  (1) 
W2NIXTFbY0hdW2NIXVtjSF1jKGMxMilbbkhdW2NIXVtjSF0y

>  <s_glide_docking_method>  (1) 
confgen

>  <s_i_glide_gridfile>  (1) 
gpcr_5ht2c_6bqh_protein_autoprepared_prepared

>  <s_lp_Force_Field>  (1) 
S-OPLS

>  <s_lp_Variant>  (1) 
Pocket2Mol_83-1

>  <s_m_source_file>  (1) 
generated_GPCR_5HT2C_ligand_Pocket2Mol_2026-06-23_prepared.sdf

>  <GenAI_Model>  (1) 
Pocket2Mol

>  <Protein>  (1) 
GPCR_5HT2C

$$$$
Pocket2Mol_50
     RDKit          3D

  0  0  0  0  0  0  0  0  0  0999 V3000
M  V30 BEGIN CTAB
M  V30 COUNTS 14 14 0 0 1
M  V30 BEGIN ATOM
M  V30 1 C 40.045137 30.374270 52.063144 0
M  V30 2 C 39.632899 30.166372 53.393657 0
M  V30 3 C 38.825573 29.057543 53.715565 0
M  V30 4 C 38.430699 28.156801 52.706633 0
M  V30 5 C 39.651491 29.474260 51.055024 0
M  V30 6 O 37.645137 27.086744 53.018912 0
M  V30 7 O 40.045152 29.681824 49.767758 0
M  V30 8 C 38.845137 28.364095 51.376127 0
M  V30 9 H 40.661767 31.226964 51.815686 0
M  V30 10 H 39.934406 30.857954 54.166781 0
M  V30 11 H 38.507964 28.899081 54.736085 0
M  V30 12 H 37.268676 26.643040 52.267180 0
M  V30 13 H 39.422398 29.337743 49.142890 0
M  V30 14 H 38.542400 27.674214 50.602162 0
M  V30 END ATOM
M  V30 BEGIN BOND
M  V30 1 1 2 1
M  V30 2 2 3 2
M  V30 3 1 4 3
M  V30 4 2 5 1
M  V30 5 1 6 4
M  V30 6 1 7 5
M  V30 7 2 8 4
M  V30 8 1 8 5
M  V30 9 1 9 1
M  V30 10 1 10 2
M  V30 11 1 11 3
M  V30 12 1 12 6
M  V30 13 1 13 7
M  V30 14 1 14 8
M  V30 END BOND
M  V30 END CTAB
M  END
>  <i_epik_Tot_Q>  (1) 
0

>  <i_epik_Tot_abs_Q>  (1) 
0

>  <i_i_glide_confnum>  (1) 
1

>  <i_i_glide_lignum>  (1) 
53

>  <i_i_glide_posenum>  (1) 
251

>  <i_i_glide_rotatable_bonds>  (1) 
2

>  <i_lp_mmshare_version>  (1) 
72125

>  <i_m_source_file_index>  (1) 
51

>  <i_f3d_flags>  (1) 
0

>  <num_sample>  (1) 
100

>  <b_lp_Chiralities_Consistent>  (1) 
1

>  <r_epik_Charging_Adjusted_Penalty>  (1) 
0.012403777776626769

>  <r_epik_Ionization_Penalty>  (1) 
0.012403777776626781

>  <r_epik_Ionization_Penalty_Charging>  (1) 
0

>  <r_epik_Ionization_Penalty_Neutral>  (1) 
0.012403777776626781

>  <r_epik_State_Penalty>  (1) 
0.012403777776626769

>  <r_glide_ring_energy>  (1) 
0

>  <r_i_docking_score>  (1) 
-6.2972253137009382

>  <r_i_glide_ecoul>  (1) 
-5.3219806587000384

>  <r_i_glide_eff_state_penalty>  (1) 
0.012403777776626769

>  <r_i_glide_einternal>  (1) 
0.90857192382837593

>  <r_i_glide_emodel>  (1) 
-29.834172703469534

>  <r_i_glide_emodel_strain>  (1) 
0.20193630248608674

>  <r_i_glide_energy>  (1) 
-22.17777643170416

>  <r_i_glide_erotb>  (1) 
0

>  <r_i_glide_esite>  (1) 
0

>  <r_i_glide_evdw>  (1) 
-16.855795773004122

>  <r_i_glide_gscore>  (1) 
-6.3096290914775652

>  <r_i_glide_gscore_strain>  (1) 
0

>  <r_i_glide_hbond>  (1) 
-0.4578859274126994

>  <r_i_glide_ligand_efficiency>  (1) 
-0.78715316421261727

>  <r_i_glide_ligand_efficiency_ln>  (1) 
-2.044924454148203

>  <r_i_glide_ligand_efficiency_sa>  (1) 
-1.5743063284252348

>  <r_i_glide_lipo>  (1) 
-1.7550811399283155

>  <r_i_glide_metal>  (1) 
-0

>  <r_i_glide_rewards>  (1) 
-2.4555751366813379

>  <r_lp_Energy>  (1) 
4.2546869999999997

>  <r_lp_tautomer_probability>  (1) 
0.99999999989799981

>  <s_epik_cmdline>  (1) 
J2VwaWtfcHl0aG9uJywgJy1waHQnLCAnMS4wJywgJy1waCcsICc3LjQnLCAnLXRuJywgJzgnLCAnLW1hJywgJzUwMCcsICctaW1hZScsICc8aW5maWxlLm1hZT4nLCAnLW9tYWUnLCAnPG91dGZpbGUubWFlPic=

>  <s_epik_input>  (1) 
W09IXWMoW2NIXTEpW2NIXVtjSF1bY0hdYzFbT0hd

>  <s_glide_docking_method>  (1) 
confgen

>  <s_i_glide_gridfile>  (1) 
gpcr_5ht2c_6bqh_protein_autoprepared_prepared

>  <s_lp_Force_Field>  (1) 
S-OPLS

>  <s_lp_Variant>  (1) 
Pocket2Mol_50-1

>  <s_m_source_file>  (1) 
generated_GPCR_5HT2C_ligand_Pocket2Mol_2026-06-23_prepared.sdf

>  <GenAI_Model>  (1) 
Pocket2Mol

>  <Protein>  (1) 
GPCR_5HT2C

$$$$
Pocket2Mol_68
     RDKit          3D

  0  0  0  0  0  0  0  0  0  0999 V3000
M  V30 BEGIN CTAB
M  V30 COUNTS 19 20 0 0 1
M  V30 BEGIN ATOM
M  V30 1 C 37.914821 28.674796 54.464102 0
M  V30 2 C 38.632785 28.828424 53.176654 0
M  V30 3 C 38.609948 27.853953 52.164034 0
M  V30 4 C 39.322863 28.091225 50.967716 0
M  V30 5 C 40.045132 29.300539 50.808410 0
M  V30 6 C 39.324202 29.986619 53.024729 0
M  V30 7 C 39.256562 30.929678 54.168462 0
M  V30 8 C 38.276992 30.089054 55.101533 0
M  V30 9 C 40.045138 30.257216 51.847702 0
M  V30 10 H 36.845134 28.544210 54.307766 0
M  V30 11 H 38.314779 27.841553 55.042554 0
M  V30 12 H 38.053157 26.937776 52.296749 0
M  V30 13 H 39.315323 27.354963 50.176937 0
M  V30 14 H 40.590315 29.490989 49.896037 0
M  V30 15 H 40.240622 31.075686 54.615867 0
M  V30 16 H 38.831817 31.889834 53.873311 0
M  V30 17 H 37.355926 30.656224 55.248572 0
M  V30 18 H 38.709482 29.962210 56.094298 0
M  V30 19 H 40.588783 31.184959 51.738602 0
M  V30 END ATOM
M  V30 BEGIN BOND
M  V30 1 1 2 1
M  V30 2 2 3 2
M  V30 3 1 4 3
M  V30 4 2 5 4
M  V30 5 1 6 2
M  V30 6 1 7 6
M  V30 7 1 8 1
M  V30 8 1 8 7
M  V30 9 1 9 5
M  V30 10 2 9 6
M  V30 11 1 10 1
M  V30 12 1 11 1
M  V30 13 1 12 3
M  V30 14 1 13 4
M  V30 15 1 14 5
M  V30 16 1 15 7
M  V30 17 1 16 7
M  V30 18 1 17 8
M  V30 19 1 18 8
M  V30 20 1 19 9
M  V30 END BOND
M  V30 END CTAB
M  END
>  <i_epik_Tot_Q>  (1) 
0

>  <i_epik_Tot_abs_Q>  (1) 
0

>  <i_i_glide_confnum>  (1) 
1

>  <i_i_glide_lignum>  (1) 
73

>  <i_i_glide_posenum>  (1) 
213

>  <i_i_glide_rotatable_bonds>  (1) 
0

>  <i_lp_mmshare_version>  (1) 
72125

>  <i_m_source_file_index>  (1) 
69

>  <i_f3d_flags>  (1) 
0

>  <num_sample>  (1) 
100

>  <b_lp_Chiralities_Consistent>  (1) 
1

>  <r_epik_Charging_Adjusted_Penalty>  (1) 
0

>  <r_epik_Ionization_Penalty>  (1) 
0

>  <r_epik_Ionization_Penalty_Charging>  (1) 
0

>  <r_epik_Ionization_Penalty_Neutral>  (1) 
0

>  <r_epik_State_Penalty>  (1) 
-0

>  <r_glide_ring_energy>  (1) 
0

>  <r_i_docking_score>  (1) 
-6.2938104206533758

>  <r_i_glide_ecoul>  (1) 
-1.0594361031192912

>  <r_i_glide_eff_state_penalty>  (1) 
-0

>  <r_i_glide_einternal>  (1) 
0

>  <r_i_glide_emodel>  (1) 
-30.003668121644154

>  <r_i_glide_emodel_strain>  (1) 
0

>  <r_i_glide_energy>  (1) 
-21.63876075409377

>  <r_i_glide_erotb>  (1) 
0

>  <r_i_glide_esite>  (1) 
0

>  <r_i_glide_evdw>  (1) 
-20.579324650974478

>  <r_i_glide_gscore>  (1) 
-6.2938104206533758

>  <r_i_glide_gscore_strain>  (1) 
0

>  <r_i_glide_hbond>  (1) 
0

>  <r_i_glide_ligand_efficiency>  (1) 
-0.69931226896148624

>  <r_i_glide_ligand_efficiency_ln>  (1) 
-1.9685230950830139

>  <r_i_glide_ligand_efficiency_sa>  (1) 
-1.45462813792851

>  <r_i_glide_lipo>  (1) 
-2.3486521933814117

>  <r_i_glide_metal>  (1) 
-0

>  <r_i_glide_rewards>  (1) 
-2.7572765792553464

>  <r_lp_Energy>  (1) 
13.687139

>  <r_lp_tautomer_probability>  (1) 
1

>  <s_epik_cmdline>  (1) 
J2VwaWtfcHl0aG9uJywgJy1waHQnLCAnMS4wJywgJy1waCcsICc3LjQnLCAnLXRuJywgJzgnLCAnLW1hJywgJzUwMCcsICctaW1hZScsICc8aW5maWxlLm1hZT4nLCAnLW9tYWUnLCAnPG91dGZpbGUubWFlPic=

>  <s_epik_input>  (1) 
W0NIMl0xW0NIMl1bQ0gyXWMoYzEyKVtjSF1bY0hdW2NIXVtjSF0y

>  <s_glide_docking_method>  (1) 
confgen

>  <s_i_glide_gridfile>  (1) 
gpcr_5ht2c_6bqh_protein_autoprepared_prepared

>  <s_lp_Force_Field>  (1) 
S-OPLS

>  <s_lp_Variant>  (1) 
Pocket2Mol_68-1

>  <s_m_source_file>  (1) 
generated_GPCR_5HT2C_ligand_Pocket2Mol_2026-06-23_prepared.sdf

>  <GenAI_Model>  (1) 
Pocket2Mol

>  <Protein>  (1) 
GPCR_5HT2C

$$$$
Pocket2Mol_89
     RDKit          3D

  0  0  0  0  0  0  0  0  0  0999 V3000
M  V30 BEGIN CTAB
M  V30 COUNTS 17 18 0 0 1
M  V30 BEGIN ATOM
M  V30 1 C 39.245138 30.743779 54.075176 0
M  V30 2 C 39.350169 29.943127 52.967759 0
M  V30 3 C 40.045138 30.194710 51.780568 0
M  V30 4 C 40.005211 29.211605 50.761503 0
M  V30 5 C 39.267192 28.006473 50.967760 0
M  V30 6 C 38.641481 28.795569 53.173895 0
M  V30 7 C 37.931071 28.715539 54.572877 0
M  V30 8 C 38.576863 27.799297 52.190902 0
M  V30 9 C 38.488762 30.135779 54.978299 0
M  V30 10 H 39.714774 31.712546 54.160770 0
M  V30 11 H 40.595647 31.114462 51.643364 0
M  V30 12 H 40.528377 29.374111 49.831251 0
M  V30 13 H 39.232700 27.253676 50.193185 0
M  V30 14 H 38.313415 27.913165 55.203926 0
M  V30 15 H 36.845139 28.698313 54.495421 0
M  V30 16 H 38.012560 26.894926 52.359163 0
M  V30 17 H 38.249881 30.563696 55.941505 0
M  V30 END ATOM
M  V30 BEGIN BOND
M  V30 1 1 2 1
M  V30 2 2 3 2
M  V30 3 1 4 3
M  V30 4 2 5 4
M  V30 5 1 6 2
M  V30 6 1 7 6
M  V30 7 1 8 5
M  V30 8 2 8 6
M  V30 9 2 9 1
M  V30 10 1 9 7
M  V30 11 1 10 1
M  V30 12 1 11 3
M  V30 13 1 12 4
M  V30 14 1 13 5
M  V30 15 1 14 7
M  V30 16 1 15 7
M  V30 17 1 16 8
M  V30 18 1 17 9
M  V30 END BOND
M  V30 END CTAB
M  END
>  <i_epik_Tot_Q>  (1) 
0

>  <i_epik_Tot_abs_Q>  (1) 
0

>  <i_i_glide_confnum>  (1) 
1

>  <i_i_glide_lignum>  (1) 
94

>  <i_i_glide_posenum>  (1) 
16

>  <i_i_glide_rotatable_bonds>  (1) 
0

>  <i_lp_mmshare_version>  (1) 
72125

>  <i_m_source_file_index>  (1) 
90

>  <i_f3d_flags>  (1) 
0

>  <num_sample>  (1) 
100

>  <b_lp_Chiralities_Consistent>  (1) 
1

>  <r_epik_Charging_Adjusted_Penalty>  (1) 
0

>  <r_epik_Ionization_Penalty>  (1) 
0

>  <r_epik_Ionization_Penalty_Charging>  (1) 
0

>  <r_epik_Ionization_Penalty_Neutral>  (1) 
0

>  <r_epik_State_Penalty>  (1) 
-0

>  <r_glide_ring_energy>  (1) 
0

>  <r_i_docking_score>  (1) 
-6.2830139359868502

>  <r_i_glide_ecoul>  (1) 
-1.0432438140498947

>  <r_i_glide_eff_state_penalty>  (1) 
-0

>  <r_i_glide_einternal>  (1) 
0

>  <r_i_glide_emodel>  (1) 
-29.16708145088964

>  <r_i_glide_emodel_strain>  (1) 
0

>  <r_i_glide_energy>  (1) 
-20.968225032117338

>  <r_i_glide_erotb>  (1) 
0

>  <r_i_glide_esite>  (1) 
0

>  <r_i_glide_evdw>  (1) 
-19.924981218067444

>  <r_i_glide_gscore>  (1) 
-6.2830139359868502

>  <r_i_glide_gscore_strain>  (1) 
0

>  <r_i_glide_hbond>  (1) 
0

>  <r_i_glide_ligand_efficiency>  (1) 
-0.69811265955409452

>  <r_i_glide_ligand_efficiency_ln>  (1) 
-1.9651462648337228

>  <r_i_glide_ligand_efficiency_sa>  (1) 
-1.4521328498062134

>  <r_i_glide_lipo>  (1) 
-2.4130722304092487

>  <r_i_glide_metal>  (1) 
-0

>  <r_i_glide_rewards>  (1) 
-2.7172060725667455

>  <r_lp_Energy>  (1) 
7.8773689999999998

>  <r_lp_tautomer_probability>  (1) 
1

>  <s_epik_cmdline>  (1) 
J2VwaWtfcHl0aG9uJywgJy1waHQnLCAnMS4wJywgJy1waCcsICc3LjQnLCAnLXRuJywgJzgnLCAnLW1hJywgJzUwMCcsICctaW1hZScsICc8aW5maWxlLm1hZT4nLCAnLW9tYWUnLCAnPG91dGZpbGUubWFlPic=

>  <s_epik_input>  (1) 
W0NIXTE9W0NIXVtDSDJdYyhjMTIpW2NIXVtjSF1bY0hdW2NIXTI=

>  <s_glide_docking_method>  (1) 
confgen

>  <s_i_glide_gridfile>  (1) 
gpcr_5ht2c_6bqh_protein_autoprepared_prepared

>  <s_lp_Force_Field>  (1) 
S-OPLS

>  <s_lp_Variant>  (1) 
Pocket2Mol_89-1

>  <s_m_source_file>  (1) 
generated_GPCR_5HT2C_ligand_Pocket2Mol_2026-06-23_prepared.sdf

>  <GenAI_Model>  (1) 
Pocket2Mol

>  <Protein>  (1) 
GPCR_5HT2C

$$$$
Pocket2Mol_68
     RDKit          3D

  0  0  0  0  0  0  0  0  0  0999 V3000
M  V30 BEGIN CTAB
M  V30 COUNTS 19 20 0 0 1
M  V30 BEGIN ATOM
M  V30 1 C 40.154826 29.692239 51.219092 0
M  V30 2 C 39.463404 29.674169 52.532162 0
M  V30 3 C 39.478906 30.760316 53.422278 0
M  V30 4 C 38.780414 30.656012 54.645850 0
M  V30 5 C 38.082012 29.462899 54.955353 0
M  V30 6 C 38.795550 28.530482 52.828244 0
M  V30 7 C 38.861666 27.466688 51.799426 0
M  V30 8 C 39.645166 28.284371 50.683382 0
M  V30 9 C 38.090736 28.388650 54.036487 0
M  V30 10 H 39.832286 30.523770 50.591802 0
M  V30 11 H 41.237128 29.716642 51.348502 0
M  V30 12 H 40.011236 31.664412 53.171703 0
M  V30 13 H 38.776781 31.482846 55.341169 0
M  V30 14 H 37.544650 29.375841 55.888530 0
M  V30 15 H 39.429400 26.609740 52.162674 0
M  V30 16 H 37.874704 27.151981 51.469888 0
M  V30 17 H 38.944738 28.479469 49.871357 0
M  V30 18 H 40.445137 27.697515 50.238974 0
M  V30 19 H 37.561947 27.473397 54.258910 0
M  V30 END ATOM
M  V30 BEGIN BOND
M  V30 1 1 2 1
M  V30 2 2 3 2
M  V30 3 1 4 3
M  V30 4 2 5 4
M  V30 5 1 6 2
M  V30 6 1 7 6
M  V30 7 1 8 1
M  V30 8 1 8 7
M  V30 9 1 9 5
M  V30 10 2 9 6
M  V30 11 1 10 1
M  V30 12 1 11 1
M  V30 13 1 12 3
M  V30 14 1 13 4
M  V30 15 1 14 5
M  V30 16 1 15 7
M  V30 17 1 16 7
M  V30 18 1 17 8
M  V30 19 1 18 8
M  V30 20 1 19 9
M  V30 END BOND
M  V30 END CTAB
M  END
>  <i_epik_Tot_Q>  (1) 
0

>  <i_epik_Tot_abs_Q>  (1) 
0

>  <i_i_glide_confnum>  (1) 
1

>  <i_i_glide_lignum>  (1) 
73

>  <i_i_glide_posenum>  (1) 
305

>  <i_i_glide_rotatable_bonds>  (1) 
0

>  <i_lp_mmshare_version>  (1) 
72125

>  <i_m_source_file_index>  (1) 
69

>  <i_f3d_flags>  (1) 
0

>  <num_sample>  (1) 
100

>  <b_lp_Chiralities_Consistent>  (1) 
1

>  <r_epik_Charging_Adjusted_Penalty>  (1) 
0

>  <r_epik_Ionization_Penalty>  (1) 
0

>  <r_epik_Ionization_Penalty_Charging>  (1) 
0

>  <r_epik_Ionization_Penalty_Neutral>  (1) 
0

>  <r_epik_State_Penalty>  (1) 
-0

>  <r_glide_ring_energy>  (1) 
0

>  <r_i_docking_score>  (1) 
-6.2749705192688712

>  <r_i_glide_ecoul>  (1) 
-1.2590714356197503

>  <r_i_glide_eff_state_penalty>  (1) 
-0

>  <r_i_glide_einternal>  (1) 
0

>  <r_i_glide_emodel>  (1) 
-28.671709659632334

>  <r_i_glide_emodel_strain>  (1) 
0

>  <r_i_glide_energy>  (1) 
-20.331841818118203

>  <r_i_glide_erotb>  (1) 
0

>  <r_i_glide_esite>  (1) 
0

>  <r_i_glide_evdw>  (1) 
-19.072770382498454

>  <r_i_glide_gscore>  (1) 
-6.2749705192688712

>  <r_i_glide_gscore_strain>  (1) 
0

>  <r_i_glide_hbond>  (1) 
0

>  <r_i_glide_ligand_efficiency>  (1) 
-0.69721894658543015

>  <r_i_glide_ligand_efficiency_ln>  (1) 
-1.9626305151503896

>  <r_i_glide_ligand_efficiency_sa>  (1) 
-1.450273851917643

>  <r_i_glide_lipo>  (1) 
-2.4593343847719136

>  <r_i_glide_metal>  (1) 
-0

>  <r_i_glide_rewards>  (1) 
-2.6731369000290717

>  <r_lp_Energy>  (1) 
13.687139

>  <r_lp_tautomer_probability>  (1) 
1

>  <s_epik_cmdline>  (1) 
J2VwaWtfcHl0aG9uJywgJy1waHQnLCAnMS4wJywgJy1waCcsICc3LjQnLCAnLXRuJywgJzgnLCAnLW1hJywgJzUwMCcsICctaW1hZScsICc8aW5maWxlLm1hZT4nLCAnLW9tYWUnLCAnPG91dGZpbGUubWFlPic=

>  <s_epik_input>  (1) 
W0NIMl0xW0NIMl1bQ0gyXWMoYzEyKVtjSF1bY0hdW2NIXVtjSF0y

>  <s_glide_docking_method>  (1) 
confgen

>  <s_i_glide_gridfile>  (1) 
gpcr_5ht2c_6bqh_protein_autoprepared_prepared

>  <s_lp_Force_Field>  (1) 
S-OPLS

>  <s_lp_Variant>  (1) 
Pocket2Mol_68-1

>  <s_m_source_file>  (1) 
generated_GPCR_5HT2C_ligand_Pocket2Mol_2026-06-23_prepared.sdf

>  <GenAI_Model>  (1) 
Pocket2Mol

>  <Protein>  (1) 
GPCR_5HT2C

$$$$
Pocket2Mol_72
     RDKit          3D

  0  0  0  0  0  0  0  0  0  0999 V3000
M  V30 BEGIN CTAB
M  V30 COUNTS 15 16 0 0 1
M  V30 BEGIN ATOM
M  V30 1 C 40.045137 30.280671 51.929238 0
M  V30 2 C 39.279312 29.979828 53.107687 0
M  V30 3 C 38.536652 28.806246 53.245712 0
M  V30 4 C 39.129523 30.659399 54.167665 0
M  V30 5 C 38.548069 27.856301 52.148780 0
M  V30 6 C 38.268982 29.884445 54.983768 0
M  V30 7 C 39.270236 28.129955 51.027442 0
M  V30 8 C 37.878614 28.706683 54.428564 0
M  V30 9 C 40.045153 29.386820 50.914462 0
M  V30 10 H 40.606132 31.201637 51.854481 0
M  V30 11 H 39.561025 31.622620 54.397440 0
M  V30 12 H 37.985384 26.937755 52.220275 0
M  V30 13 H 37.954320 30.212966 55.964162 0
M  V30 14 H 39.276647 27.422525 50.210549 0
M  V30 15 H 40.610968 29.591322 50.017794 0
M  V30 END ATOM
M  V30 BEGIN BOND
M  V30 1 1 2 1
M  V30 2 1 3 2
M  V30 3 2 4 2
M  V30 4 1 5 3
M  V30 5 1 6 4
M  V30 6 2 7 5
M  V30 7 2 8 3
M  V30 8 2 8 6
M  V30 9 2 9 1
M  V30 10 1 9 7
M  V30 11 1 10 1
M  V30 12 1 11 4
M  V30 13 1 12 5
M  V30 14 1 13 6
M  V30 15 1 14 7
M  V30 16 1 15 9
M  V30 END BOND
M  V30 END CTAB
M  END
>  <i_epik_Tot_Q>  (1) 
0

>  <i_epik_Tot_abs_Q>  (1) 
0

>  <i_i_glide_confnum>  (1) 
1

>  <i_i_glide_lignum>  (1) 
77

>  <i_i_glide_posenum>  (1) 
202

>  <i_i_glide_rotatable_bonds>  (1) 
0

>  <i_lp_mmshare_version>  (1) 
72125

>  <i_m_source_file_index>  (1) 
73

>  <i_f3d_flags>  (1) 
0

>  <num_sample>  (1) 
100

>  <b_lp_Chiralities_Consistent>  (1) 
1

>  <r_epik_Charging_Adjusted_Penalty>  (1) 
0

>  <r_epik_Ionization_Penalty>  (1) 
0

>  <r_epik_Ionization_Penalty_Charging>  (1) 
0

>  <r_epik_Ionization_Penalty_Neutral>  (1) 
0

>  <r_epik_State_Penalty>  (1) 
-0

>  <r_glide_ring_energy>  (1) 
0

>  <r_i_docking_score>  (1) 
-6.2746133375093551

>  <r_i_glide_ecoul>  (1) 
-1.1241808661485218

>  <r_i_glide_eff_state_penalty>  (1) 
-0

>  <r_i_glide_einternal>  (1) 
0

>  <r_i_glide_emodel>  (1) 
-30.470766069689695

>  <r_i_glide_emodel_strain>  (1) 
0

>  <r_i_glide_energy>  (1) 
-22.123716689281228

>  <r_i_glide_erotb>  (1) 
0

>  <r_i_glide_esite>  (1) 
0

>  <r_i_glide_evdw>  (1) 
-20.999535823132707

>  <r_i_glide_gscore>  (1) 
-6.2746133375093551

>  <r_i_glide_gscore_strain>  (1) 
0

>  <r_i_glide_hbond>  (1) 
0

>  <r_i_glide_ligand_efficiency>  (1) 
-0.69717925972326167

>  <r_i_glide_ligand_efficiency_ln>  (1) 
-1.9625187989568986

>  <r_i_glide_ligand_efficiency_sa>  (1) 
-1.4501912999176587

>  <r_i_glide_lipo>  (1) 
-2.3358142874725223

>  <r_i_glide_metal>  (1) 
-0

>  <r_i_glide_rewards>  (1) 
-2.7201951289579194

>  <r_lp_Energy>  (1) 
11.424324

>  <r_lp_tautomer_probability>  (1) 
1

>  <s_epik_cmdline>  (1) 
J2VwaWtfcHl0aG9uJywgJy1waHQnLCAnMS4wJywgJy1waCcsICc3LjQnLCAnLXRuJywgJzgnLCAnLW1hJywgJzUwMCcsICctaW1hZScsICc8aW5maWxlLm1hZT4nLCAnLW9tYWUnLCAnPG91dGZpbGUubWFlPic=

>  <s_epik_input>  (1) 
W2NIXTFbY0hdW2NIXVtjSF1jKGMxPTIpPUM9W0NIXVtDSF0y

>  <s_glide_docking_method>  (1) 
confgen

>  <s_i_glide_gridfile>  (1) 
gpcr_5ht2c_6bqh_protein_autoprepared_prepared

>  <s_lp_Force_Field>  (1) 
S-OPLS

>  <s_lp_Variant>  (1) 
Pocket2Mol_72-1

>  <s_m_source_file>  (1) 
generated_GPCR_5HT2C_ligand_Pocket2Mol_2026-06-23_prepared.sdf

>  <GenAI_Model>  (1) 
Pocket2Mol

>  <Protein>  (1) 
GPCR_5HT2C

$$$$
Pocket2Mol_74
     RDKit          3D

  0  0  0  0  0  0  0  0  0  0999 V3000
M  V30 BEGIN CTAB
M  V30 COUNTS 16 17 0 0 1
M  V30 BEGIN ATOM
M  V30 1 C 39.303696 28.144274 50.823075 0
M  V30 2 C 38.900320 28.321437 52.198956 0
M  V30 3 C 39.245138 29.435854 52.901707 0
M  V30 4 C 38.218585 27.562571 52.954344 0
M  V30 5 C 40.045137 30.493061 52.265684 0
M  V30 6 N 38.819173 29.465430 54.123720 0
M  V30 7 C 38.023212 28.130426 54.339456 0
M  V30 8 C 40.042449 29.111901 50.222483 0
M  V30 9 C 40.425642 30.326587 50.969660 0
M  V30 10 H 39.019438 27.254532 50.278672 0
M  V30 11 H 37.807918 26.606410 52.665724 0
M  V30 12 H 40.299217 31.358457 52.855794 0
M  V30 13 H 36.971885 28.313076 54.560169 0
M  V30 14 H 38.474724 27.501581 55.107700 0
M  V30 15 H 40.348974 28.994736 49.193312 0
M  V30 16 H 41.014178 31.090759 50.482883 0
M  V30 END ATOM
M  V30 BEGIN BOND
M  V30 1 1 2 1
M  V30 2 1 3 2
M  V30 3 2 4 2
M  V30 4 1 5 3
M  V30 5 2 6 3
M  V30 6 1 7 4
M  V30 7 1 7 6
M  V30 8 2 8 1
M  V30 9 2 9 5
M  V30 10 1 9 8
M  V30 11 1 10 1
M  V30 12 1 11 4
M  V30 13 1 12 5
M  V30 14 1 13 7
M  V30 15 1 14 7
M  V30 16 1 15 8
M  V30 17 1 16 9
M  V30 END BOND
M  V30 END CTAB
M  END
>  <i_epik_Tot_Q>  (1) 
0

>  <i_epik_Tot_abs_Q>  (1) 
0

>  <i_i_glide_confnum>  (1) 
1

>  <i_i_glide_lignum>  (1) 
79

>  <i_i_glide_posenum>  (1) 
199

>  <i_i_glide_rotatable_bonds>  (1) 
0

>  <i_lp_mmshare_version>  (1) 
72125

>  <i_m_source_file_index>  (1) 
75

>  <i_f3d_flags>  (1) 
0

>  <num_sample>  (1) 
100

>  <b_lp_Chiralities_Consistent>  (1) 
1

>  <r_epik_Charging_Adjusted_Penalty>  (1) 
0

>  <r_epik_Ionization_Penalty>  (1) 
0

>  <r_epik_Ionization_Penalty_Charging>  (1) 
0

>  <r_epik_Ionization_Penalty_Neutral>  (1) 
0

>  <r_epik_State_Penalty>  (1) 
-0

>  <r_glide_ring_energy>  (1) 
0

>  <r_i_docking_score>  (1) 
-6.2654900533091364

>  <r_i_glide_ecoul>  (1) 
-0.74605653798037286

>  <r_i_glide_eff_state_penalty>  (1) 
-0

>  <r_i_glide_einternal>  (1) 
0

>  <r_i_glide_emodel>  (1) 
-29.838191556244201

>  <r_i_glide_emodel_strain>  (1) 
0

>  <r_i_glide_energy>  (1) 
-21.164133846007008

>  <r_i_glide_erotb>  (1) 
0

>  <r_i_glide_esite>  (1) 
0

>  <r_i_glide_evdw>  (1) 
-20.418077308026636

>  <r_i_glide_gscore>  (1) 
-6.2654900533091364

>  <r_i_glide_gscore_strain>  (1) 
0

>  <r_i_glide_hbond>  (1) 
0

>  <r_i_glide_ligand_efficiency>  (1) 
-0.69616556147879294

>  <r_i_glide_ligand_efficiency_ln>  (1) 
-1.9596652977468523

>  <r_i_glide_ligand_efficiency_sa>  (1) 
-1.4480827225978832

>  <r_i_glide_lipo>  (1) 
-2.2493443738774146

>  <r_i_glide_metal>  (1) 
-0

>  <r_i_glide_rewards>  (1) 
-2.8833333333333333

>  <r_lp_Energy>  (1) 
8.0132250000000003

>  <r_lp_tautomer_probability>  (1) 
1

>  <s_epik_Chemistry_Notes>  (1) 
This compound has an imine and may undergo hydrolysis.

>  <s_epik_cmdline>  (1) 
J2VwaWtfcHl0aG9uJywgJy1waHQnLCAnMS4wJywgJy1waCcsICc3LjQnLCAnLXRuJywgJzgnLCAnLW1hJywgJzUwMCcsICctaW1hZScsICc8aW5maWxlLm1hZT4nLCAnLW9tYWUnLCAnPG91dGZpbGUubWFlPic=

>  <s_epik_input>  (1) 
W2NIXTFbY0hdW2NIXVtjSF1jKGMxPTIpPU5bQ0gyXVtDSF0y

>  <s_glide_docking_method>  (1) 
confgen

>  <s_i_glide_gridfile>  (1) 
gpcr_5ht2c_6bqh_protein_autoprepared_prepared

>  <s_lp_Force_Field>  (1) 
S-OPLS

>  <s_lp_Variant>  (1) 
Pocket2Mol_74-1

>  <s_m_source_file>  (1) 
generated_GPCR_5HT2C_ligand_Pocket2Mol_2026-06-23_prepared.sdf

>  <GenAI_Model>  (1) 
Pocket2Mol

>  <Protein>  (1) 
GPCR_5HT2C

$$$$
Pocket2Mol_86
     RDKit          3D

  0  0  0  0  0  0  0  0  0  0999 V3000
M  V30 BEGIN CTAB
M  V30 COUNTS 17 17 0 0 1
M  V30 BEGIN ATOM
M  V30 1 C 38.879620 28.533153 51.429022 0
M  V30 2 C 39.685941 29.667430 51.191608 0
M  V30 3 C 38.431587 28.249956 52.734221 0
M  V30 4 O 37.645140 27.158218 52.967761 0
M  V30 5 C 38.791362 29.096440 53.801793 0
M  V30 6 C 40.158290 29.985645 49.789814 0
M  V30 7 O 38.356345 28.819105 55.062998 0
M  V30 8 C 40.045138 30.511375 52.261017 0
M  V30 9 C 39.597934 30.226419 53.565895 0
M  V30 10 H 38.601921 27.885422 50.609838 0
M  V30 11 H 37.313248 26.735491 52.183925 0
M  V30 12 H 39.807279 29.247426 49.071341 0
M  V30 13 H 39.769168 30.958344 49.487367 0
M  V30 14 H 41.245995 30.024981 49.750809 0
M  V30 15 H 37.827203 28.034012 55.056195 0
M  V30 16 H 40.660960 31.377960 52.079995 0
M  V30 17 H 39.872548 30.875888 54.384923 0
M  V30 END ATOM
M  V30 BEGIN BOND
M  V30 1 2 2 1
M  V30 2 1 3 1
M  V30 3 1 4 3
M  V30 4 2 5 3
M  V30 5 1 6 2
M  V30 6 1 7 5
M  V30 7 1 8 2
M  V30 8 1 9 5
M  V30 9 2 9 8
M  V30 10 1 10 1
M  V30 11 1 11 4
M  V30 12 1 12 6
M  V30 13 1 13 6
M  V30 14 1 14 6
M  V30 15 1 15 7
M  V30 16 1 16 8
M  V30 17 1 17 9
M  V30 END BOND
M  V30 END CTAB
M  END
>  <i_epik_Tot_Q>  (1) 
0

>  <i_epik_Tot_abs_Q>  (1) 
0

>  <i_i_glide_confnum>  (1) 
1

>  <i_i_glide_lignum>  (1) 
91

>  <i_i_glide_posenum>  (1) 
120

>  <i_i_glide_rotatable_bonds>  (1) 
2

>  <i_lp_mmshare_version>  (1) 
72125

>  <i_m_source_file_index>  (1) 
87

>  <i_f3d_flags>  (1) 
0

>  <num_sample>  (1) 
100

>  <b_lp_Chiralities_Consistent>  (1) 
1

>  <r_epik_Charging_Adjusted_Penalty>  (1) 
0

>  <r_epik_Ionization_Penalty>  (1) 
0.0034619861512114073

>  <r_epik_Ionization_Penalty_Charging>  (1) 
0

>  <r_epik_Ionization_Penalty_Neutral>  (1) 
0.0034619861512114073

>  <r_epik_State_Penalty>  (1) 
-0

>  <r_glide_ring_energy>  (1) 
0

>  <r_i_docking_score>  (1) 
-6.2626044629050641

>  <r_i_glide_ecoul>  (1) 
-3.6472983423105125

>  <r_i_glide_eff_state_penalty>  (1) 
-0

>  <r_i_glide_einternal>  (1) 
0.27656145923941255

>  <r_i_glide_emodel>  (1) 
-31.697211530224092

>  <r_i_glide_emodel_strain>  (1) 
0

>  <r_i_glide_energy>  (1) 
-21.746944479929006

>  <r_i_glide_erotb>  (1) 
0

>  <r_i_glide_esite>  (1) 
0

>  <r_i_glide_evdw>  (1) 
-18.099646137618493

>  <r_i_glide_gscore>  (1) 
-6.2626044629050641

>  <r_i_glide_gscore_strain>  (1) 
0

>  <r_i_glide_hbond>  (1) 
-0.30567763694564198

>  <r_i_glide_ligand_efficiency>  (1) 
-0.69584494032278488

>  <r_i_glide_ligand_efficiency_ln>  (1) 
-1.9587627679638251

>  <r_i_glide_ligand_efficiency_sa>  (1) 
-1.4474158037179428

>  <r_i_glide_lipo>  (1) 
-1.9150715029835554

>  <r_i_glide_metal>  (1) 
-0

>  <r_i_glide_rewards>  (1) 
-2.5897782647483654

>  <r_lp_Energy>  (1) 
6.77806

>  <r_lp_tautomer_probability>  (1) 
1

>  <s_epik_cmdline>  (1) 
J2VwaWtfcHl0aG9uJywgJy1waHQnLCAnMS4wJywgJy1waCcsICc3LjQnLCAnLXRuJywgJzgnLCAnLW1hJywgJzUwMCcsICctaW1hZScsICc8aW5maWxlLm1hZT4nLCAnLW9tYWUnLCAnPG91dGZpbGUubWFlPic=

>  <s_epik_input>  (1) 
W0NIM11jMVtjSF1jKFtPSF0pYyhbT0hdKVtjSF1bY0hdMQ==

>  <s_glide_docking_method>  (1) 
confgen

>  <s_i_glide_gridfile>  (1) 
gpcr_5ht2c_6bqh_protein_autoprepared_prepared

>  <s_lp_Force_Field>  (1) 
S-OPLS

>  <s_lp_Variant>  (1) 
Pocket2Mol_86-1

>  <s_m_source_file>  (1) 
generated_GPCR_5HT2C_ligand_Pocket2Mol_2026-06-23_prepared.sdf

>  <GenAI_Model>  (1) 
Pocket2Mol

>  <Protein>  (1) 
GPCR_5HT2C

$$$$
Pocket2Mol_80
     RDKit          3D

  0  0  0  0  0  0  0  0  0  0999 V3000
M  V30 BEGIN CTAB
M  V30 COUNTS 17 17 0 0 1
M  V30 BEGIN ATOM
M  V30 1 C 39.245220 28.211650 51.569460 0
M  V30 2 C 38.675519 27.546623 52.672781 0
M  V30 3 C 38.589028 28.195303 53.921998 0
M  V30 4 C 37.980553 27.475825 55.106623 0
M  V30 5 C 39.072654 29.512471 54.067438 0
M  V30 6 C 39.732866 29.528672 51.717082 0
M  V30 7 C 40.336962 30.232331 50.565079 0
M  V30 8 O 40.445472 29.737762 49.444964 0
M  V30 9 C 39.645094 30.178270 52.966485 0
M  V30 10 H 39.309551 27.711541 50.612239 0
M  V30 11 H 38.304936 26.538397 52.562075 0
M  V30 12 H 37.645161 28.181191 55.868741 0
M  V30 13 H 37.121744 26.882095 54.790439 0
M  V30 14 H 38.715773 26.806511 55.553913 0
M  V30 15 H 39.006630 30.011156 55.023909 0
M  V30 16 H 40.684495 31.240973 50.788836 0
M  V30 17 H 40.016916 31.187158 53.080723 0
M  V30 END ATOM
M  V30 BEGIN BOND
M  V30 1 2 2 1
M  V30 2 1 3 2
M  V30 3 1 4 3
M  V30 4 2 5 3
M  V30 5 1 6 1
M  V30 6 1 7 6
M  V30 7 2 8 7
M  V30 8 1 9 5
M  V30 9 2 9 6
M  V30 10 1 10 1
M  V30 11 1 11 2
M  V30 12 1 12 4
M  V30 13 1 13 4
M  V30 14 1 14 4
M  V30 15 1 15 5
M  V30 16 1 16 7
M  V30 17 1 17 9
M  V30 END BOND
M  V30 END CTAB
M  END
>  <i_epik_Tot_Q>  (1) 
0

>  <i_epik_Tot_abs_Q>  (1) 
0

>  <i_i_glide_confnum>  (1) 
1

>  <i_i_glide_lignum>  (1) 
85

>  <i_i_glide_posenum>  (1) 
364

>  <i_i_glide_rotatable_bonds>  (1) 
1

>  <i_lp_mmshare_version>  (1) 
72125

>  <i_m_source_file_index>  (1) 
81

>  <i_f3d_flags>  (1) 
0

>  <num_sample>  (1) 
100

>  <b_lp_Chiralities_Consistent>  (1) 
1

>  <r_epik_Charging_Adjusted_Penalty>  (1) 
0

>  <r_epik_Ionization_Penalty>  (1) 
0

>  <r_epik_Ionization_Penalty_Charging>  (1) 
0

>  <r_epik_Ionization_Penalty_Neutral>  (1) 
0

>  <r_epik_State_Penalty>  (1) 
-0

>  <r_glide_ring_energy>  (1) 
0

>  <r_i_docking_score>  (1) 
-6.2421183564880502

>  <r_i_glide_ecoul>  (1) 
-1.4628032658985033

>  <r_i_glide_eff_state_penalty>  (1) 
-0

>  <r_i_glide_einternal>  (1) 
0.073355870181768479

>  <r_i_glide_emodel>  (1) 
-29.856964036236409

>  <r_i_glide_emodel_strain>  (1) 
0

>  <r_i_glide_energy>  (1) 
-21.533565648046189

>  <r_i_glide_erotb>  (1) 
0

>  <r_i_glide_esite>  (1) 
0

>  <r_i_glide_evdw>  (1) 
-20.070762382147684

>  <r_i_glide_gscore>  (1) 
-6.2421183564880502

>  <r_i_glide_gscore_strain>  (1) 
0

>  <r_i_glide_hbond>  (1) 
0

>  <r_i_glide_ligand_efficiency>  (1) 
-0.69356870627645006

>  <r_i_glide_ligand_efficiency_ln>  (1) 
-1.9523553023881406

>  <r_i_glide_ligand_efficiency_sa>  (1) 
-1.4426810461006816

>  <r_i_glide_lipo>  (1) 
-1.9824525520495331

>  <r_i_glide_metal>  (1) 
-0

>  <r_i_glide_rewards>  (1) 
-3.0367071954463576

>  <r_lp_Energy>  (1) 
4.8020719999999999

>  <r_lp_tautomer_probability>  (1) 
1

>  <s_epik_cmdline>  (1) 
J2VwaWtfcHl0aG9uJywgJy1waHQnLCAnMS4wJywgJy1waCcsICc3LjQnLCAnLXRuJywgJzgnLCAnLW1hJywgJzUwMCcsICctaW1hZScsICc8aW5maWxlLm1hZT4nLCAnLW9tYWUnLCAnPG91dGZpbGUubWFlPic=

>  <s_epik_input>  (1) 
W2NIXTFbY0hdYyhbQ0hdPU8pW2NIXVtjSF1jMVtDSDNd

>  <s_glide_docking_method>  (1) 
confgen

>  <s_i_glide_gridfile>  (1) 
gpcr_5ht2c_6bqh_protein_autoprepared_prepared

>  <s_lp_Force_Field>  (1) 
S-OPLS

>  <s_lp_Variant>  (1) 
Pocket2Mol_80-1

>  <s_m_source_file>  (1) 
generated_GPCR_5HT2C_ligand_Pocket2Mol_2026-06-23_prepared.sdf

>  <GenAI_Model>  (1) 
Pocket2Mol

>  <Protein>  (1) 
GPCR_5HT2C

$$$$
Pocket2Mol_1
     RDKit          3D

  0  0  0  0  0  0  0  0  0  0999 V3000
M  V30 BEGIN CTAB
M  V30 COUNTS 19 20 0 0 1
M  V30 BEGIN ATOM
M  V30 1 C 39.458715 30.350609 53.367760 0
M  V30 2 C 38.807423 29.069255 53.463557 0
M  V30 3 C 38.494018 28.270551 52.285165 0 CFG=1
M  V30 4 C 38.489293 28.500733 54.566774 0
M  V30 5 C 39.375134 28.651970 51.101508 0
M  V30 6 C 40.064906 29.816973 51.061153 0
M  V30 7 C 37.948319 27.131825 54.429884 0
M  V30 8 O 40.778236 30.137761 49.974779 0
M  V30 9 N 38.350331 26.937758 52.967759 0
M  V30 10 C 40.045137 30.717947 52.213724 0
M  V30 11 H 39.496133 31.006323 54.225861 0
M  V30 12 H 37.482222 28.546519 51.985211 0
M  V30 13 H 38.657460 28.935493 55.541534 0
M  V30 14 H 39.390124 27.977840 50.257234 0
M  V30 15 H 38.433838 26.409112 55.086201 0
M  V30 16 H 36.866852 27.122846 54.567763 0
M  V30 17 H 41.161327 30.989743 50.125182 0
M  V30 18 H 37.679846 26.360952 52.473635 0
M  V30 19 H 40.542825 31.672589 52.152564 0
M  V30 END ATOM
M  V30 BEGIN BOND
M  V30 1 1 2 1
M  V30 2 1 3 2
M  V30 3 2 4 2
M  V30 4 1 5 3
M  V30 5 2 6 5
M  V30 6 1 7 4
M  V30 7 1 8 6
M  V30 8 1 9 3
M  V30 9 1 9 7
M  V30 10 2 10 1
M  V30 11 1 10 6
M  V30 12 1 11 1
M  V30 13 1 3 12 CFG=3
M  V30 14 1 13 4
M  V30 15 1 14 5
M  V30 16 1 15 7
M  V30 17 1 16 7
M  V30 18 1 17 8
M  V30 19 1 18 9
M  V30 20 1 19 10
M  V30 END BOND
M  V30 END CTAB
M  END
>  <i_epik_Tot_Q>  (1) 
0

>  <i_epik_Tot_abs_Q>  (1) 
0

>  <i_i_glide_confnum>  (1) 
1

>  <i_i_glide_lignum>  (1) 
4

>  <i_i_glide_posenum>  (1) 
49

>  <i_i_glide_rotatable_bonds>  (1) 
1

>  <i_lp_mmshare_version>  (1) 
72125

>  <i_m_source_file_index>  (1) 
2

>  <i_f3d_flags>  (1) 
0

>  <num_sample>  (1) 
100

>  <b_lp_Chiralities_Consistent>  (1) 
1

>  <r_epik_Charging_Adjusted_Penalty>  (1) 
0.0032380173127296522

>  <r_epik_Ionization_Penalty>  (1) 
0.0032399356015129686

>  <r_epik_Ionization_Penalty_Charging>  (1) 
0

>  <r_epik_Ionization_Penalty_Neutral>  (1) 
0.0032399356015129686

>  <r_epik_State_Penalty>  (1) 
0.0032380173127296522

>  <r_glide_ring_energy>  (1) 
0

>  <r_i_docking_score>  (1) 
-6.2331585594560615

>  <r_i_glide_ecoul>  (1) 
-2.6579138164026239

>  <r_i_glide_eff_state_penalty>  (1) 
0.0032380173127296522

>  <r_i_glide_einternal>  (1) 
0.024775160582013456

>  <r_i_glide_emodel>  (1) 
-33.297074356470695

>  <r_i_glide_emodel_strain>  (1) 
0

>  <r_i_glide_energy>  (1) 
-23.781290834580219

>  <r_i_glide_erotb>  (1) 
0

>  <r_i_glide_esite>  (1) 
0

>  <r_i_glide_evdw>  (1) 
-21.123377018177596

>  <r_i_glide_gscore>  (1) 
-6.236396576768791

>  <r_i_glide_gscore_strain>  (1) 
0

>  <r_i_glide_hbond>  (1) 
-0.084854410260066016

>  <r_i_glide_ligand_efficiency>  (1) 
-0.62331585594560612

>  <r_i_glide_ligand_efficiency_ln>  (1) 
-1.8873574439243976

>  <r_i_glide_ligand_efficiency_sa>  (1) 
-1.3428933028961303

>  <r_i_glide_lipo>  (1) 
-2.2047087025223941

>  <r_i_glide_metal>  (1) 
-0

>  <r_i_glide_rewards>  (1) 
-2.4919775406170577

>  <r_lp_Energy>  (1) 
5.6363089999999998

>  <s_epik_cmdline>  (1) 
J2VwaWtfcHl0aG9uJywgJy1waHQnLCAnMS4wJywgJy1waCcsICc3LjQnLCAnLXRuJywgJzgnLCAnLW1hJywgJzUwMCcsICctaW1hZScsICc8aW5maWxlLm1hZT4nLCAnLW9tYWUnLCAnPG91dGZpbGUubWFlPic=

>  <s_epik_input>  (1) 
W0NIXTE9W0NIXUMoW09IXSk9W0NIXVtDQEhdKEMxPTIpW05IXVtDSDJdW0NIXTI=

>  <s_glide_docking_method>  (1) 
confgen

>  <s_i_glide_gridfile>  (1) 
gpcr_5ht2c_6bqh_protein_autoprepared_prepared

>  <s_lp_Force_Field>  (1) 
S-OPLS

>  <s_lp_Variant>  (1) 
Pocket2Mol_1-2

>  <s_m_source_file>  (1) 
generated_GPCR_5HT2C_ligand_Pocket2Mol_2026-06-23_prepared.sdf

>  <GenAI_Model>  (1) 
Pocket2Mol

>  <Protein>  (1) 
GPCR_5HT2C

$$$$
Pocket2Mol_91
     RDKit          3D

  0  0  0  0  0  0  0  0  0  0999 V3000
M  V30 BEGIN CTAB
M  V30 COUNTS 14 15 0 0 1
M  V30 BEGIN ATOM
M  V30 1 C 40.045135 29.102919 50.287735 0
M  V30 2 C 39.244997 28.138287 50.952634 0
M  V30 3 C 38.878465 28.405222 52.272419 0
M  V30 4 C 38.135537 27.693766 53.138472 0
M  V30 5 C 40.446683 30.282508 50.987524 0
M  V30 6 C 39.245175 29.475771 52.926357 0
M  V30 7 N 38.743550 29.463646 54.249859 0
M  V30 8 C 38.106460 28.365947 54.291297 0
M  V30 9 C 40.044939 30.466023 52.338584 0
M  V30 10 H 40.346322 28.948071 49.263025 0
M  V30 11 H 38.924136 27.235797 50.453295 0
M  V30 12 H 37.959104 26.637594 52.996996 0
M  V30 13 H 41.058445 31.026265 50.496866 0
M  V30 14 H 40.344416 31.340058 52.893030 0
M  V30 END ATOM
M  V30 BEGIN BOND
M  V30 1 1 2 1
M  V30 2 2 3 2
M  V30 3 1 4 3
M  V30 4 2 5 1
M  V30 5 1 6 3
M  V30 6 1 7 6
M  V30 7 2 8 4
M  V30 8 2 8 7
M  V30 9 1 9 5
M  V30 10 2 9 6
M  V30 11 1 10 1
M  V30 12 1 11 2
M  V30 13 1 12 4
M  V30 14 1 13 5
M  V30 15 1 14 9
M  V30 END BOND
M  V30 END CTAB
M  END
>  <i_epik_Tot_Q>  (1) 
0

>  <i_epik_Tot_abs_Q>  (1) 
0

>  <i_i_glide_confnum>  (1) 
1

>  <i_i_glide_lignum>  (1) 
96

>  <i_i_glide_posenum>  (1) 
370

>  <i_i_glide_rotatable_bonds>  (1) 
0

>  <i_lp_mmshare_version>  (1) 
72125

>  <i_m_source_file_index>  (1) 
92

>  <i_f3d_flags>  (1) 
0

>  <num_sample>  (1) 
100

>  <b_lp_Chiralities_Consistent>  (1) 
1

>  <r_epik_Charging_Adjusted_Penalty>  (1) 
0

>  <r_epik_Ionization_Penalty>  (1) 
7.4584844087238395e-05

>  <r_epik_Ionization_Penalty_Charging>  (1) 
0

>  <r_epik_Ionization_Penalty_Neutral>  (1) 
7.4584844087238395e-05

>  <r_epik_State_Penalty>  (1) 
-0

>  <r_glide_ring_energy>  (1) 
0

>  <r_i_docking_score>  (1) 
-6.2227295604328665

>  <r_i_glide_ecoul>  (1) 
-0.76144831400090229

>  <r_i_glide_eff_state_penalty>  (1) 
-0

>  <r_i_glide_einternal>  (1) 
0

>  <r_i_glide_emodel>  (1) 
-29.973674164272403

>  <r_i_glide_emodel_strain>  (1) 
0

>  <r_i_glide_energy>  (1) 
-21.632204632621356

>  <r_i_glide_erotb>  (1) 
0

>  <r_i_glide_esite>  (1) 
0

>  <r_i_glide_evdw>  (1) 
-20.870756318620455

>  <r_i_glide_gscore>  (1) 
-6.2227295604328665

>  <r_i_glide_gscore_strain>  (1) 
0

>  <r_i_glide_hbond>  (1) 
0

>  <r_i_glide_ligand_efficiency>  (1) 
-0.69141439560365181

>  <r_i_glide_ligand_efficiency_ln>  (1) 
-1.9462910439708174

>  <r_i_glide_ligand_efficiency_sa>  (1) 
-1.438199899320366

>  <r_i_glide_lipo>  (1) 
-2.2953457544326317

>  <r_i_glide_metal>  (1) 
-0

>  <r_i_glide_rewards>  (1) 
-2.7696287429690765

>  <r_lp_Energy>  (1) 
14.311973999999999

>  <r_lp_tautomer_probability>  (1) 
1

>  <s_epik_Chemistry_Notes>  (1) 
This compound has an imine and may undergo hydrolysis.

>  <s_epik_cmdline>  (1) 
J2VwaWtfcHl0aG9uJywgJy1waHQnLCAnMS4wJywgJy1waCcsICc3LjQnLCAnLXRuJywgJzgnLCAnLW1hJywgJzUwMCcsICctaW1hZScsICc8aW5maWxlLm1hZT4nLCAnLW9tYWUnLCAnPG91dGZpbGUubWFlPic=

>  <s_epik_input>  (1) 
W2NIXTFbY0hdW2NIXVtjSF1jKGMxMilOPUM9W0NIXTI=

>  <s_glide_docking_method>  (1) 
confgen

>  <s_i_glide_gridfile>  (1) 
gpcr_5ht2c_6bqh_protein_autoprepared_prepared

>  <s_lp_Force_Field>  (1) 
S-OPLS

>  <s_lp_Variant>  (1) 
Pocket2Mol_91-1

>  <s_m_source_file>  (1) 
generated_GPCR_5HT2C_ligand_Pocket2Mol_2026-06-23_prepared.sdf

>  <GenAI_Model>  (1) 
Pocket2Mol

>  <Protein>  (1) 
GPCR_5HT2C

$$$$
Pocket2Mol_68
     RDKit          3D

  0  0  0  0  0  0  0  0  0  0999 V3000
M  V30 BEGIN CTAB
M  V30 COUNTS 19 20 0 0 1
M  V30 BEGIN ATOM
M  V30 1 C 39.645155 28.595184 50.926085 0
M  V30 2 C 39.041569 28.648973 52.280754 0
M  V30 3 C 38.306155 27.589548 52.837603 0
M  V30 4 C 37.774809 27.732441 54.139300 0
M  V30 5 C 37.991539 28.934872 54.857336 0
M  V30 6 C 39.245113 29.800494 52.967723 0
M  V30 7 C 40.034397 30.834819 52.263053 0
M  V30 8 C 40.407632 29.995881 50.960795 0
M  V30 9 C 38.732961 29.979061 54.263935 0
M  V30 10 H 40.315337 27.745344 50.802255 0
M  V30 11 H 38.865438 28.565149 50.165207 0
M  V30 12 H 38.149806 26.679278 52.280256 0
M  V30 13 H 37.208106 26.928766 54.584802 0
M  V30 14 H 37.590958 29.052687 55.853777 0
M  V30 15 H 39.425344 31.708021 52.030588 0
M  V30 16 H 40.845139 31.161679 52.890749 0
M  V30 17 H 41.480329 29.800870 50.967655 0
M  V30 18 H 40.217100 30.574511 50.056336 0
M  V30 19 H 38.904998 30.901660 54.799280 0
M  V30 END ATOM
M  V30 BEGIN BOND
M  V30 1 1 2 1
M  V30 2 2 3 2
M  V30 3 1 4 3
M  V30 4 2 5 4
M  V30 5 1 6 2
M  V30 6 1 7 6
M  V30 7 1 8 1
M  V30 8 1 8 7
M  V30 9 1 9 5
M  V30 10 2 9 6
M  V30 11 1 10 1
M  V30 12 1 11 1
M  V30 13 1 12 3
M  V30 14 1 13 4
M  V30 15 1 14 5
M  V30 16 1 15 7
M  V30 17 1 16 7
M  V30 18 1 17 8
M  V30 19 1 18 8
M  V30 20 1 19 9
M  V30 END BOND
M  V30 END CTAB
M  END
>  <i_epik_Tot_Q>  (1) 
0

>  <i_epik_Tot_abs_Q>  (1) 
0

>  <i_i_glide_confnum>  (1) 
1

>  <i_i_glide_lignum>  (1) 
73

>  <i_i_glide_posenum>  (1) 
184

>  <i_i_glide_rotatable_bonds>  (1) 
0

>  <i_lp_mmshare_version>  (1) 
72125

>  <i_m_source_file_index>  (1) 
69

>  <i_f3d_flags>  (1) 
0

>  <num_sample>  (1) 
100

>  <b_lp_Chiralities_Consistent>  (1) 
1

>  <r_epik_Charging_Adjusted_Penalty>  (1) 
0

>  <r_epik_Ionization_Penalty>  (1) 
0

>  <r_epik_Ionization_Penalty_Charging>  (1) 
0

>  <r_epik_Ionization_Penalty_Neutral>  (1) 
0

>  <r_epik_State_Penalty>  (1) 
-0

>  <r_glide_ring_energy>  (1) 
0

>  <r_i_docking_score>  (1) 
-6.2189706878409492

>  <r_i_glide_ecoul>  (1) 
-1.0932035685835142

>  <r_i_glide_eff_state_penalty>  (1) 
-0

>  <r_i_glide_einternal>  (1) 
0

>  <r_i_glide_emodel>  (1) 
-27.692000410893364

>  <r_i_glide_emodel_strain>  (1) 
0

>  <r_i_glide_energy>  (1) 
-19.426560200843284

>  <r_i_glide_erotb>  (1) 
0

>  <r_i_glide_esite>  (1) 
0

>  <r_i_glide_evdw>  (1) 
-18.333356632259768

>  <r_i_glide_gscore>  (1) 
-6.2189706878409492

>  <r_i_glide_gscore_strain>  (1) 
0

>  <r_i_glide_hbond>  (1) 
0

>  <r_i_glide_ligand_efficiency>  (1) 
-0.69099674309343884

>  <r_i_glide_ligand_efficiency_ln>  (1) 
-1.9451153766065159

>  <r_i_glide_ligand_efficiency_sa>  (1) 
-1.4373311470902148

>  <r_i_glide_lipo>  (1) 
-2.3399405737560799

>  <r_i_glide_metal>  (1) 
-0

>  <r_i_glide_rewards>  (1) 
-2.7983817471843531

>  <r_lp_Energy>  (1) 
13.687139

>  <r_lp_tautomer_probability>  (1) 
1

>  <s_epik_cmdline>  (1) 
J2VwaWtfcHl0aG9uJywgJy1waHQnLCAnMS4wJywgJy1waCcsICc3LjQnLCAnLXRuJywgJzgnLCAnLW1hJywgJzUwMCcsICctaW1hZScsICc8aW5maWxlLm1hZT4nLCAnLW9tYWUnLCAnPG91dGZpbGUubWFlPic=

>  <s_epik_input>  (1) 
W0NIMl0xW0NIMl1bQ0gyXWMoYzEyKVtjSF1bY0hdW2NIXVtjSF0y

>  <s_glide_docking_method>  (1) 
confgen

>  <s_i_glide_gridfile>  (1) 
gpcr_5ht2c_6bqh_protein_autoprepared_prepared

>  <s_lp_Force_Field>  (1) 
S-OPLS

>  <s_lp_Variant>  (1) 
Pocket2Mol_68-1

>  <s_m_source_file>  (1) 
generated_GPCR_5HT2C_ligand_Pocket2Mol_2026-06-23_prepared.sdf

>  <GenAI_Model>  (1) 
Pocket2Mol

>  <Protein>  (1) 
GPCR_5HT2C

$$$$
Pocket2Mol_51
     RDKit          3D

  0  0  0  0  0  0  0  0  0  0999 V3000
M  V30 BEGIN CTAB
M  V30 COUNTS 18 18 0 0 1
M  V30 BEGIN ATOM
M  V30 1 C 39.245136 29.735411 53.275690 0
M  V30 2 C 40.045122 30.391208 52.317943 0
M  V30 3 C 40.239550 29.814757 51.048092 0
M  V30 4 C 41.082842 30.528426 50.015337 0
M  V30 5 C 38.643226 28.498469 52.963642 0
M  V30 6 C 37.779170 27.795864 53.989706 0
M  V30 7 C 38.845710 27.918776 51.694695 0
M  V30 8 C 39.643070 28.577386 50.739126 0
M  V30 9 H 39.091583 30.182202 54.247524 0
M  V30 10 H 40.501516 31.337891 52.555773 0
M  V30 11 H 41.245141 29.905245 49.136489 0
M  V30 12 H 40.571194 31.433979 49.693338 0
M  V30 13 H 42.051499 30.802866 50.430715 0
M  V30 14 H 37.397680 26.848138 53.607783 0
M  V30 15 H 38.354885 27.591322 54.892171 0
M  V30 16 H 36.925992 28.420718 54.254396 0
M  V30 17 H 38.385304 26.971181 51.451622 0
M  V30 18 H 39.790090 28.137755 49.767867 0
M  V30 END ATOM
M  V30 BEGIN BOND
M  V30 1 2 2 1
M  V30 2 1 3 2
M  V30 3 1 4 3
M  V30 4 1 5 1
M  V30 5 1 6 5
M  V30 6 2 7 5
M  V30 7 2 8 3
M  V30 8 1 8 7
M  V30 9 1 9 1
M  V30 10 1 10 2
M  V30 11 1 11 4
M  V30 12 1 12 4
M  V30 13 1 13 4
M  V30 14 1 14 6
M  V30 15 1 15 6
M  V30 16 1 16 6
M  V30 17 1 17 7
M  V30 18 1 18 8
M  V30 END BOND
M  V30 END CTAB
M  END
>  <i_epik_Tot_Q>  (1) 
0

>  <i_epik_Tot_abs_Q>  (1) 
0

>  <i_i_glide_confnum>  (1) 
1

>  <i_i_glide_lignum>  (1) 
54

>  <i_i_glide_posenum>  (1) 
170

>  <i_i_glide_rotatable_bonds>  (1) 
0

>  <i_lp_mmshare_version>  (1) 
72125

>  <i_m_source_file_index>  (1) 
52

>  <i_f3d_flags>  (1) 
0

>  <num_sample>  (1) 
100

>  <b_lp_Chiralities_Consistent>  (1) 
1

>  <r_epik_Charging_Adjusted_Penalty>  (1) 
0

>  <r_epik_Ionization_Penalty>  (1) 
0

>  <r_epik_Ionization_Penalty_Charging>  (1) 
0

>  <r_epik_Ionization_Penalty_Neutral>  (1) 
0

>  <r_epik_State_Penalty>  (1) 
-0

>  <r_glide_ring_energy>  (1) 
0

>  <r_i_docking_score>  (1) 
-6.2128784529761312

>  <r_i_glide_ecoul>  (1) 
-0.90244526265717473

>  <r_i_glide_eff_state_penalty>  (1) 
-0

>  <r_i_glide_einternal>  (1) 
0

>  <r_i_glide_emodel>  (1) 
-27.056601442368923

>  <r_i_glide_emodel_strain>  (1) 
0.0091899711182339416

>  <r_i_glide_energy>  (1) 
-19.733812262228401

>  <r_i_glide_erotb>  (1) 
0

>  <r_i_glide_esite>  (1) 
0

>  <r_i_glide_evdw>  (1) 
-18.831366999571227

>  <r_i_glide_gscore>  (1) 
-6.2128784529761312

>  <r_i_glide_gscore_strain>  (1) 
0

>  <r_i_glide_hbond>  (1) 
0

>  <r_i_glide_ligand_efficiency>  (1) 
-0.7766098066220164

>  <r_i_glide_ligand_efficiency_ln>  (1) 
-2.0175341434106282

>  <r_i_glide_ligand_efficiency_sa>  (1) 
-1.553219613244033

>  <r_i_glide_lipo>  (1) 
-2.3230712632628712

>  <r_i_glide_metal>  (1) 
-0

>  <r_i_glide_rewards>  (1) 
-2.8128720503361224

>  <r_lp_Energy>  (1) 
3.9239269999999999

>  <r_lp_tautomer_probability>  (1) 
1

>  <s_epik_cmdline>  (1) 
J2VwaWtfcHl0aG9uJywgJy1waHQnLCAnMS4wJywgJy1waCcsICc3LjQnLCAnLXRuJywgJzgnLCAnLW1hJywgJzUwMCcsICctaW1hZScsICc8aW5maWxlLm1hZT4nLCAnLW9tYWUnLCAnPG91dGZpbGUubWFlPic=

>  <s_epik_input>  (1) 
W2NIXTFbY0hdYyhbQ0gzXSlbY0hdW2NIXWMxW0NIM10=

>  <s_glide_docking_method>  (1) 
confgen

>  <s_i_glide_gridfile>  (1) 
gpcr_5ht2c_6bqh_protein_autoprepared_prepared

>  <s_lp_Force_Field>  (1) 
S-OPLS

>  <s_lp_Variant>  (1) 
Pocket2Mol_51-1

>  <s_m_source_file>  (1) 
generated_GPCR_5HT2C_ligand_Pocket2Mol_2026-06-23_prepared.sdf

>  <GenAI_Model>  (1) 
Pocket2Mol

>  <Protein>  (1) 
GPCR_5HT2C

$$$$
Pocket2Mol_89
     RDKit          3D

  0  0  0  0  0  0  0  0  0  0999 V3000
M  V30 BEGIN CTAB
M  V30 COUNTS 17 18 0 0 1
M  V30 BEGIN ATOM
M  V30 1 C 37.921083 28.835271 54.350444 0
M  V30 2 C 38.557099 28.804322 53.138592 0
M  V30 3 C 38.501524 27.809676 52.158507 0
M  V30 4 C 39.245914 28.000960 50.967761 0
M  V30 5 C 40.021301 29.188166 50.799919 0
M  V30 6 C 39.297114 29.941157 52.989909 0
M  V30 7 C 39.217540 30.931696 54.209679 0
M  V30 8 C 40.045089 30.169790 51.825929 0
M  V30 9 C 38.235934 29.961055 54.977121 0
M  V30 10 H 37.270972 28.049230 54.704354 0
M  V30 11 H 37.905211 26.921608 52.302405 0
M  V30 12 H 39.224094 27.252282 50.188773 0
M  V30 13 H 40.587003 29.339822 49.893123 0
M  V30 14 H 38.753605 31.885417 53.956610 0
M  V30 15 H 40.173602 31.060008 54.718204 0
M  V30 16 H 40.625465 31.074634 51.710937 0
M  V30 17 H 37.857578 30.225483 55.954840 0
M  V30 END ATOM
M  V30 BEGIN BOND
M  V30 1 1 2 1
M  V30 2 2 3 2
M  V30 3 1 4 3
M  V30 4 2 5 4
M  V30 5 1 6 2
M  V30 6 1 7 6
M  V30 7 1 8 5
M  V30 8 2 8 6
M  V30 9 2 9 1
M  V30 10 1 9 7
M  V30 11 1 10 1
M  V30 12 1 11 3
M  V30 13 1 12 4
M  V30 14 1 13 5
M  V30 15 1 14 7
M  V30 16 1 15 7
M  V30 17 1 16 8
M  V30 18 1 17 9
M  V30 END BOND
M  V30 END CTAB
M  END
>  <i_epik_Tot_Q>  (1) 
0

>  <i_epik_Tot_abs_Q>  (1) 
0

>  <i_i_glide_confnum>  (1) 
1

>  <i_i_glide_lignum>  (1) 
94

>  <i_i_glide_posenum>  (1) 
142

>  <i_i_glide_rotatable_bonds>  (1) 
0

>  <i_lp_mmshare_version>  (1) 
72125

>  <i_m_source_file_index>  (1) 
90

>  <i_f3d_flags>  (1) 
0

>  <num_sample>  (1) 
100

>  <b_lp_Chiralities_Consistent>  (1) 
1

>  <r_epik_Charging_Adjusted_Penalty>  (1) 
0

>  <r_epik_Ionization_Penalty>  (1) 
0

>  <r_epik_Ionization_Penalty_Charging>  (1) 
0

>  <r_epik_Ionization_Penalty_Neutral>  (1) 
0

>  <r_epik_State_Penalty>  (1) 
-0

>  <r_glide_ring_energy>  (1) 
0

>  <r_i_docking_score>  (1) 
-6.1984898148813388

>  <r_i_glide_ecoul>  (1) 
-1.1863767476604488

>  <r_i_glide_eff_state_penalty>  (1) 
-0

>  <r_i_glide_einternal>  (1) 
0

>  <r_i_glide_emodel>  (1) 
-29.620430356756636

>  <r_i_glide_emodel_strain>  (1) 
0

>  <r_i_glide_energy>  (1) 
-21.531871502167306

>  <r_i_glide_erotb>  (1) 
0

>  <r_i_glide_esite>  (1) 
0

>  <r_i_glide_evdw>  (1) 
-20.345494754506856

>  <r_i_glide_gscore>  (1) 
-6.1984898148813388

>  <r_i_glide_gscore_strain>  (1) 
0

>  <r_i_glide_hbond>  (1) 
0

>  <r_i_glide_ligand_efficiency>  (1) 
-0.68872109054237096

>  <r_i_glide_ligand_efficiency_ln>  (1) 
-1.9387095479059639

>  <r_i_glide_ligand_efficiency_sa>  (1) 
-1.4325975990318518

>  <r_i_glide_lipo>  (1) 
-2.3847225226123969

>  <r_i_glide_metal>  (1) 
-0

>  <r_i_glide_rewards>  (1) 
-2.6185360423945321

>  <r_lp_Energy>  (1) 
7.8773689999999998

>  <r_lp_tautomer_probability>  (1) 
1

>  <s_epik_cmdline>  (1) 
J2VwaWtfcHl0aG9uJywgJy1waHQnLCAnMS4wJywgJy1waCcsICc3LjQnLCAnLXRuJywgJzgnLCAnLW1hJywgJzUwMCcsICctaW1hZScsICc8aW5maWxlLm1hZT4nLCAnLW9tYWUnLCAnPG91dGZpbGUubWFlPic=

>  <s_epik_input>  (1) 
W0NIXTE9W0NIXVtDSDJdYyhjMTIpW2NIXVtjSF1bY0hdW2NIXTI=

>  <s_glide_docking_method>  (1) 
confgen

>  <s_i_glide_gridfile>  (1) 
gpcr_5ht2c_6bqh_protein_autoprepared_prepared

>  <s_lp_Force_Field>  (1) 
S-OPLS

>  <s_lp_Variant>  (1) 
Pocket2Mol_89-1

>  <s_m_source_file>  (1) 
generated_GPCR_5HT2C_ligand_Pocket2Mol_2026-06-23_prepared.sdf

>  <GenAI_Model>  (1) 
Pocket2Mol

>  <Protein>  (1) 
GPCR_5HT2C

$$$$
Pocket2Mol_95
     RDKit          3D

  0  0  0  0  0  0  0  0  0  0999 V3000
M  V30 BEGIN CTAB
M  V30 COUNTS 14 15 0 0 1
M  V30 BEGIN ATOM
M  V30 1 C 40.045137 29.060090 50.398111 0
M  V30 2 C 39.212609 28.106703 51.133935 0
M  V30 3 C 38.987343 28.604917 52.354345 0
M  V30 4 C 39.645138 29.849885 52.453572 0
M  V30 5 C 40.313680 30.121386 51.190783 0
M  V30 6 C 38.214028 28.025072 53.435632 0
M  V30 7 O 37.645135 26.937770 53.367767 0
M  V30 8 N 39.626668 30.575692 53.489985 0
M  V30 9 C 38.835300 30.014302 54.581805 0
M  V30 10 N 38.198645 28.870390 54.574352 0
M  V30 11 H 40.388185 28.937752 49.381435 0
M  V30 12 H 38.840495 27.165154 50.754278 0
M  V30 13 H 40.889861 31.013479 50.993559 0
M  V30 14 H 38.768047 30.608741 55.496535 0
M  V30 END ATOM
M  V30 BEGIN BOND
M  V30 1 1 2 1
M  V30 2 2 3 2
M  V30 3 1 4 3
M  V30 4 2 5 1
M  V30 5 1 5 4
M  V30 6 1 6 3
M  V30 7 2 7 6
M  V30 8 2 8 4
M  V30 9 1 9 8
M  V30 10 1 10 6
M  V30 11 2 10 9
M  V30 12 1 11 1
M  V30 13 1 12 2
M  V30 14 1 13 5
M  V30 15 1 14 9
M  V30 END BOND
M  V30 END CTAB
M  END
>  <i_epik_Tot_Q>  (1) 
0

>  <i_epik_Tot_abs_Q>  (1) 
0

>  <i_i_glide_confnum>  (1) 
1

>  <i_i_glide_lignum>  (1) 
100

>  <i_i_glide_posenum>  (1) 
297

>  <i_i_glide_rotatable_bonds>  (1) 
0

>  <i_lp_mmshare_version>  (1) 
72125

>  <i_m_source_file_index>  (1) 
96

>  <i_f3d_flags>  (1) 
0

>  <num_sample>  (1) 
100

>  <b_lp_Chiralities_Consistent>  (1) 
1

>  <r_epik_Charging_Adjusted_Penalty>  (1) 
0

>  <r_epik_Ionization_Penalty>  (1) 
0.00072225958823983786

>  <r_epik_Ionization_Penalty_Charging>  (1) 
0

>  <r_epik_Ionization_Penalty_Neutral>  (1) 
0.00072225958823983786

>  <r_epik_State_Penalty>  (1) 
-0

>  <r_glide_ring_energy>  (1) 
0

>  <r_i_docking_score>  (1) 
-6.1981173720179106

>  <r_i_glide_ecoul>  (1) 
0.17349168128183562

>  <r_i_glide_eff_state_penalty>  (1) 
-0

>  <r_i_glide_einternal>  (1) 
0

>  <r_i_glide_emodel>  (1) 
-33.057821744756701

>  <r_i_glide_emodel_strain>  (1) 
0

>  <r_i_glide_energy>  (1) 
-23.999623749121053

>  <r_i_glide_erotb>  (1) 
0

>  <r_i_glide_esite>  (1) 
0

>  <r_i_glide_evdw>  (1) 
-24.173115430402888

>  <r_i_glide_gscore>  (1) 
-6.1981173720179106

>  <r_i_glide_gscore_strain>  (1) 
0

>  <r_i_glide_hbond>  (1) 
0

>  <r_i_glide_ligand_efficiency>  (1) 
-0.61981173720179106

>  <r_i_glide_ligand_efficiency_ln>  (1) 
-1.8767472139223045

>  <r_i_glide_ligand_efficiency_sa>  (1) 
-1.3353439079164642

>  <r_i_glide_lipo>  (1) 
-1.3200000000000001

>  <r_i_glide_metal>  (1) 
-0

>  <r_i_glide_rewards>  (1) 
-3.6954853526900422

>  <r_lp_Energy>  (1) 
19.123919000000001

>  <r_lp_tautomer_probability>  (1) 
1

>  <s_epik_Chemistry_Notes>  (1) 
This compound has an imine and may undergo hydrolysis.

>  <s_epik_cmdline>  (1) 
J2VwaWtfcHl0aG9uJywgJy1waHQnLCAnMS4wJywgJy1waCcsICc3LjQnLCAnLXRuJywgJzgnLCAnLW1hJywgJzUwMCcsICctaW1hZScsICc8aW5maWxlLm1hZT4nLCAnLW9tYWUnLCAnPG91dGZpbGUubWFlPic=

>  <s_epik_input>  (1) 
W0NIXT0xW0NIXT1bQ0hdQyhDMTIpPU5bQ0hdPU5DMj1P

>  <s_glide_docking_method>  (1) 
confgen

>  <s_i_glide_gridfile>  (1) 
gpcr_5ht2c_6bqh_protein_autoprepared_prepared

>  <s_lp_Force_Field>  (1) 
S-OPLS

>  <s_lp_Variant>  (1) 
Pocket2Mol_95-1

>  <s_m_source_file>  (1) 
generated_GPCR_5HT2C_ligand_Pocket2Mol_2026-06-23_prepared.sdf

>  <GenAI_Model>  (1) 
Pocket2Mol

>  <Protein>  (1) 
GPCR_5HT2C

$$$$
Pocket2Mol_93
     RDKit          3D

  0  0  0  0  0  0  0  0  0  0999 V3000
M  V30 BEGIN CTAB
M  V30 COUNTS 17 18 0 0 1
M  V30 BEGIN ATOM
M  V30 1 C 38.839070 29.817556 54.297311 0
M  V30 2 C 39.245135 29.590281 52.967978 0
M  V30 3 C 38.856044 28.402867 52.276719 0
M  V30 4 C 40.045140 30.537761 52.305775 0
M  V30 5 C 38.053233 27.466593 52.967790 0
M  V30 6 N 39.245137 28.176138 50.995467 0
M  V30 7 C 40.433510 30.288526 50.985277 0
M  V30 8 C 38.044444 28.872561 54.959512 0
M  V30 9 C 40.010419 29.101731 50.374439 0
M  V30 10 C 37.651828 27.699184 54.296751 0
M  V30 11 H 39.139522 30.720809 54.808685 0
M  V30 12 H 40.353598 31.441387 52.806120 0
M  V30 13 H 37.742786 26.560974 52.470075 0
M  V30 14 H 41.046325 30.997665 50.447215 0
M  V30 15 H 37.732205 29.048605 55.979620 0
M  V30 16 H 40.292267 28.885470 49.356418 0
M  V30 17 H 37.038766 26.971363 54.808052 0
M  V30 END ATOM
M  V30 BEGIN BOND
M  V30 1 2 2 1
M  V30 2 1 3 2
M  V30 3 1 4 2
M  V30 4 2 5 3
M  V30 5 1 6 3
M  V30 6 2 7 4
M  V30 7 1 8 1
M  V30 8 2 9 6
M  V30 9 1 9 7
M  V30 10 1 10 5
M  V30 11 2 10 8
M  V30 12 1 11 1
M  V30 13 1 12 4
M  V30 14 1 13 5
M  V30 15 1 14 7
M  V30 16 1 15 8
M  V30 17 1 16 9
M  V30 18 1 17 10
M  V30 END BOND
M  V30 END CTAB
M  END
>  <i_epik_Tot_Q>  (1) 
0

>  <i_epik_Tot_abs_Q>  (1) 
0

>  <i_i_glide_confnum>  (1) 
1

>  <i_i_glide_lignum>  (1) 
98

>  <i_i_glide_posenum>  (1) 
386

>  <i_i_glide_rotatable_bonds>  (1) 
0

>  <i_lp_mmshare_version>  (1) 
72125

>  <i_m_source_file_index>  (1) 
94

>  <i_f3d_flags>  (1) 
0

>  <num_sample>  (1) 
100

>  <b_lp_Chiralities_Consistent>  (1) 
1

>  <r_epik_Charging_Adjusted_Penalty>  (1) 
0

>  <r_epik_Ionization_Penalty>  (1) 
0.0026406434276513078

>  <r_epik_Ionization_Penalty_Charging>  (1) 
0

>  <r_epik_Ionization_Penalty_Neutral>  (1) 
0.0026406434276513078

>  <r_epik_State_Penalty>  (1) 
-0

>  <r_glide_ring_energy>  (1) 
0

>  <r_i_docking_score>  (1) 
-6.1933186785588408

>  <r_i_glide_ecoul>  (1) 
-0.83447874961200763

>  <r_i_glide_eff_state_penalty>  (1) 
-0

>  <r_i_glide_einternal>  (1) 
0

>  <r_i_glide_emodel>  (1) 
-30.810803468152418

>  <r_i_glide_emodel_strain>  (1) 
0

>  <r_i_glide_energy>  (1) 
-22.192852676829691

>  <r_i_glide_erotb>  (1) 
0

>  <r_i_glide_esite>  (1) 
0

>  <r_i_glide_evdw>  (1) 
-21.358373927217684

>  <r_i_glide_gscore>  (1) 
-6.1933186785588408

>  <r_i_glide_gscore_strain>  (1) 
0

>  <r_i_glide_hbond>  (1) 
0

>  <r_i_glide_ligand_efficiency>  (1) 
-0.61933186785588412

>  <r_i_glide_ligand_efficiency_ln>  (1) 
-1.8752942026223838

>  <r_i_glide_ligand_efficiency_sa>  (1) 
-1.3343100607509593

>  <r_i_glide_lipo>  (1) 
-2.306619445774889

>  <r_i_glide_metal>  (1) 
-0

>  <r_i_glide_rewards>  (1) 
-2.6936087239812663

>  <r_lp_Energy>  (1) 
20.260538

>  <r_lp_tautomer_probability>  (1) 
1

>  <s_epik_cmdline>  (1) 
J2VwaWtfcHl0aG9uJywgJy1waHQnLCAnMS4wJywgJy1waCcsICc3LjQnLCAnLXRuJywgJzgnLCAnLW1hJywgJzUwMCcsICctaW1hZScsICc8aW5maWxlLm1hZT4nLCAnLW9tYWUnLCAnPG91dGZpbGUubWFlPic=

>  <s_epik_input>  (1) 
W2NIXTFbY0hdW2NIXVtjSF1jKGMxMiluW2NIXVtjSF1bY0hdMg==

>  <s_glide_docking_method>  (1) 
confgen

>  <s_i_glide_gridfile>  (1) 
gpcr_5ht2c_6bqh_protein_autoprepared_prepared

>  <s_lp_Force_Field>  (1) 
S-OPLS

>  <s_lp_Variant>  (1) 
Pocket2Mol_93-1

>  <s_m_source_file>  (1) 
generated_GPCR_5HT2C_ligand_Pocket2Mol_2026-06-23_prepared.sdf

>  <GenAI_Model>  (1) 
Pocket2Mol

>  <Protein>  (1) 
GPCR_5HT2C

$$$$
Pocket2Mol_79
     RDKit          3D

  0  0  0  0  0  0  0  0  0  0999 V3000
M  V30 BEGIN CTAB
M  V30 COUNTS 17 18 0 0 1
M  V30 BEGIN ATOM
M  V30 1 C 38.996016 27.765783 51.695064 0
M  V30 2 C 38.703729 27.988589 53.084909 0
M  V30 3 C 38.659835 29.436841 53.679857 0 CFG=2
M  V30 4 C 38.524689 27.020822 53.977552 0
M  V30 5 C 38.460235 27.569206 55.232403 0
M  V30 6 C 39.645137 30.295999 52.905637 0
M  V30 7 C 40.044600 29.982396 51.643856 0
M  V30 8 C 38.588034 28.882468 55.141998 0
M  V30 9 C 39.621267 28.731561 50.991355 0
M  V30 10 H 38.748585 26.824244 51.225952 0
M  V30 11 H 37.673951 29.855518 53.485563 0
M  V30 12 H 38.538035 25.962963 53.771467 0
M  V30 13 H 38.368947 27.011056 56.150863 0
M  V30 14 H 39.975644 31.214061 53.372410 0
M  V30 15 H 40.706916 30.654388 51.116641 0
M  V30 16 H 38.593040 29.550575 55.991048 0
M  V30 17 H 39.865060 28.562585 49.951712 0
M  V30 END ATOM
M  V30 BEGIN BOND
M  V30 1 1 2 1
M  V30 2 1 3 2
M  V30 3 2 4 2
M  V30 4 1 5 4
M  V30 5 1 6 3
M  V30 6 2 7 6
M  V30 7 1 8 3
M  V30 8 2 8 5
M  V30 9 2 9 1
M  V30 10 1 9 7
M  V30 11 1 10 1
M  V30 12 1 3 11 CFG=3
M  V30 13 1 12 4
M  V30 14 1 13 5
M  V30 15 1 14 6
M  V30 16 1 15 7
M  V30 17 1 16 8
M  V30 18 1 17 9
M  V30 END BOND
M  V30 END CTAB
M  END
>  <i_epik_Tot_Q>  (1) 
0

>  <i_epik_Tot_abs_Q>  (1) 
0

>  <i_i_glide_confnum>  (1) 
1

>  <i_i_glide_lignum>  (1) 
84

>  <i_i_glide_posenum>  (1) 
214

>  <i_i_glide_rotatable_bonds>  (1) 
0

>  <i_lp_mmshare_version>  (1) 
72125

>  <i_m_source_file_index>  (1) 
80

>  <i_f3d_flags>  (1) 
0

>  <num_sample>  (1) 
100

>  <b_lp_Chiralities_Consistent>  (1) 
1

>  <r_epik_Charging_Adjusted_Penalty>  (1) 
0

>  <r_epik_Ionization_Penalty>  (1) 
0

>  <r_epik_Ionization_Penalty_Charging>  (1) 
0

>  <r_epik_Ionization_Penalty_Neutral>  (1) 
0

>  <r_epik_State_Penalty>  (1) 
-0

>  <r_glide_ring_energy>  (1) 
0

>  <r_i_docking_score>  (1) 
-6.1922653802103813

>  <r_i_glide_ecoul>  (1) 
-0.70596022355636623

>  <r_i_glide_eff_state_penalty>  (1) 
-0

>  <r_i_glide_einternal>  (1) 
0

>  <r_i_glide_emodel>  (1) 
-28.474936313377434

>  <r_i_glide_emodel_strain>  (1) 
0

>  <r_i_glide_energy>  (1) 
-20.436769827191174

>  <r_i_glide_erotb>  (1) 
0

>  <r_i_glide_esite>  (1) 
0

>  <r_i_glide_evdw>  (1) 
-19.730809603634807

>  <r_i_glide_gscore>  (1) 
-6.1922653802103813

>  <r_i_glide_gscore_strain>  (1) 
0

>  <r_i_glide_hbond>  (1) 
0

>  <r_i_glide_ligand_efficiency>  (1) 
-0.68802948669004238

>  <r_i_glide_ligand_efficiency_ln>  (1) 
-1.9367627235524043

>  <r_i_glide_ligand_efficiency_sa>  (1) 
-1.4311590050466627

>  <r_i_glide_lipo>  (1) 
-2.5145112306295698

>  <r_i_glide_metal>  (1) 
-0

>  <r_i_glide_rewards>  (1) 
-2.5853196358656163

>  <r_lp_Energy>  (1) 
11.987261999999999

>  <r_lp_tautomer_probability>  (1) 
1

>  <s_epik_cmdline>  (1) 
J2VwaWtfcHl0aG9uJywgJy1waHQnLCAnMS4wJywgJy1waCcsICc3LjQnLCAnLXRuJywgJzgnLCAnLW1hJywgJzUwMCcsICctaW1hZScsICc8aW5maWxlLm1hZT4nLCAnLW9tYWUnLCAnPG91dGZpbGUubWFlPic=

>  <s_epik_input>  (1) 
W0NIXTE9W0NIXVtDSF09W0NIXVtDQEBIXShDMT0yKVtDSF09W0NIXVtDSF0y

>  <s_glide_docking_method>  (1) 
confgen

>  <s_i_glide_gridfile>  (1) 
gpcr_5ht2c_6bqh_protein_autoprepared_prepared

>  <s_lp_Force_Field>  (1) 
S-OPLS

>  <s_lp_Variant>  (1) 
Pocket2Mol_79-1

>  <s_m_source_file>  (1) 
generated_GPCR_5HT2C_ligand_Pocket2Mol_2026-06-23_prepared.sdf

>  <GenAI_Model>  (1) 
Pocket2Mol

>  <Protein>  (1) 
GPCR_5HT2C

$$$$
Pocket2Mol_96
     RDKit          3D

  0  0  0  0  0  0  0  0  0  0999 V3000
M  V30 BEGIN CTAB
M  V30 COUNTS 18 19 0 0 1
M  V30 BEGIN ATOM
M  V30 1 C 39.646956 30.937757 54.573452 0
M  V30 2 C 38.809208 29.820182 54.831582 0
M  V30 3 C 40.045126 30.862753 53.265878 0
M  V30 4 C 38.729138 29.097655 53.677016 0
M  V30 5 N 39.484314 29.733161 52.711795 0
M  V30 6 C 37.998883 27.855861 53.350410 0
M  V30 7 O 37.245135 27.339649 54.167688 0
M  V30 8 C 39.639833 29.300468 51.346810 0
M  V30 9 N 38.202690 27.337755 52.125273 0
M  V30 10 C 39.193454 27.845816 51.173032 0
M  V30 11 H 39.925302 31.717483 55.267446 0
M  V30 12 H 38.317103 29.572369 55.761148 0
M  V30 13 H 40.672574 31.507683 52.673676 0
M  V30 14 H 39.041605 29.953203 50.711644 0
M  V30 15 H 40.679950 29.425239 51.042878 0
M  V30 16 H 37.684848 26.510367 51.860554 0
M  V30 17 H 38.845137 27.683952 50.155999 0
M  V30 18 H 40.045137 27.189428 51.284717 0
M  V30 END ATOM
M  V30 BEGIN BOND
M  V30 1 1 2 1
M  V30 2 2 3 1
M  V30 3 2 4 2
M  V30 4 1 5 3
M  V30 5 1 5 4
M  V30 6 1 6 4
M  V30 7 2 7 6
M  V30 8 1 8 5
M  V30 9 1 9 6
M  V30 10 1 10 8
M  V30 11 1 10 9
M  V30 12 1 11 1
M  V30 13 1 12 2
M  V30 14 1 13 3
M  V30 15 1 14 8
M  V30 16 1 15 8
M  V30 17 1 16 9
M  V30 18 1 17 10
M  V30 19 1 18 10
M  V30 END BOND
M  V30 END CTAB
M  END
>  <i_epik_Tot_Q>  (1) 
0

>  <i_epik_Tot_abs_Q>  (1) 
0

>  <i_i_glide_confnum>  (1) 
1

>  <i_i_glide_lignum>  (1) 
101

>  <i_i_glide_posenum>  (1) 
59

>  <i_i_glide_rotatable_bonds>  (1) 
0

>  <i_lp_mmshare_version>  (1) 
72125

>  <i_m_source_file_index>  (1) 
97

>  <i_f3d_flags>  (1) 
0

>  <num_sample>  (1) 
100

>  <b_lp_Chiralities_Consistent>  (1) 
1

>  <r_epik_Charging_Adjusted_Penalty>  (1) 
0

>  <r_epik_Ionization_Penalty>  (1) 
5.1203149696400337e-08

>  <r_epik_Ionization_Penalty_Charging>  (1) 
0

>  <r_epik_Ionization_Penalty_Neutral>  (1) 
5.1203149696400337e-08

>  <r_epik_State_Penalty>  (1) 
-0

>  <r_glide_ring_energy>  (1) 
0

>  <r_i_docking_score>  (1) 
-6.1901571081286137

>  <r_i_glide_ecoul>  (1) 
-2.5519348640656521

>  <r_i_glide_eff_state_penalty>  (1) 
-0

>  <r_i_glide_einternal>  (1) 
0

>  <r_i_glide_emodel>  (1) 
-31.533152095321995

>  <r_i_glide_emodel_strain>  (1) 
0

>  <r_i_glide_energy>  (1) 
-22.01848612660784

>  <r_i_glide_erotb>  (1) 
0

>  <r_i_glide_esite>  (1) 
0

>  <r_i_glide_evdw>  (1) 
-19.466551262542186

>  <r_i_glide_gscore>  (1) 
-6.1901571081286137

>  <r_i_glide_gscore_strain>  (1) 
0

>  <r_i_glide_hbond>  (1) 
-0.20119940492971239

>  <r_i_glide_ligand_efficiency>  (1) 
-0.61901571081286133

>  <r_i_glide_ligand_efficiency_ln>  (1) 
-1.8743369008901942

>  <r_i_glide_ligand_efficiency_sa>  (1) 
-1.3336289210499732

>  <r_i_glide_lipo>  (1) 
-1.5480735260956662

>  <r_i_glide_metal>  (1) 
-0

>  <r_i_glide_rewards>  (1) 
-3.0847663843662789

>  <r_lp_Energy>  (1) 
15.907292999999999

>  <r_lp_tautomer_probability>  (1) 
1

>  <s_epik_cmdline>  (1) 
J2VwaWtfcHl0aG9uJywgJy1waHQnLCAnMS4wJywgJy1waCcsICc3LjQnLCAnLXRuJywgJzgnLCAnLW1hJywgJzUwMCcsICctaW1hZScsICc8aW5maWxlLm1hZT4nLCAnLW9tYWUnLCAnPG91dGZpbGUubWFlPic=

>  <s_epik_input>  (1) 
W2NIXTFbY0hdW2NIXW4oYzEyKVtDSDJdW0NIMl1bTkhdQzI9Tw==

>  <s_glide_docking_method>  (1) 
confgen

>  <s_i_glide_gridfile>  (1) 
gpcr_5ht2c_6bqh_protein_autoprepared_prepared

>  <s_lp_Force_Field>  (1) 
S-OPLS

>  <s_lp_Variant>  (1) 
Pocket2Mol_96-1

>  <s_m_source_file>  (1) 
generated_GPCR_5HT2C_ligand_Pocket2Mol_2026-06-23_prepared.sdf

>  <GenAI_Model>  (1) 
Pocket2Mol

>  <Protein>  (1) 
GPCR_5HT2C

$$$$
Pocket2Mol_81
     RDKit          3D

  0  0  0  0  0  0  0  0  0  0999 V3000
M  V30 BEGIN CTAB
M  V30 COUNTS 15 16 0 0 1
M  V30 BEGIN ATOM
M  V30 1 C 39.645137 30.387126 52.778741 0
M  V30 2 C 38.845137 29.285380 53.173292 0
M  V30 3 C 38.673503 28.241492 52.240147 0
M  V30 4 C 38.109034 28.904797 54.324537 0
M  V30 5 C 39.257644 28.259993 50.967758 0
M  V30 6 N 37.518085 27.743097 54.167760 0
M  V30 7 N 37.855332 27.337756 52.904369 0
M  V30 8 C 40.238691 30.422779 51.491881 0
M  V30 9 C 40.045136 29.357967 50.588710 0
M  V30 10 H 39.800298 31.208620 53.463015 0
M  V30 11 H 37.989900 29.440171 55.255333 0
M  V30 12 H 39.100095 27.439552 50.283255 0
M  V30 13 H 37.496821 26.467901 52.531065 0
M  V30 14 H 40.843652 31.270444 51.202190 0
M  V30 15 H 40.498232 29.388675 49.608692 0
M  V30 END ATOM
M  V30 BEGIN BOND
M  V30 1 1 2 1
M  V30 2 2 3 2
M  V30 3 1 4 2
M  V30 4 1 5 3
M  V30 5 2 6 4
M  V30 6 1 7 3
M  V30 7 1 7 6
M  V30 8 2 8 1
M  V30 9 2 9 5
M  V30 10 1 9 8
M  V30 11 1 10 1
M  V30 12 1 11 4
M  V30 13 1 12 5
M  V30 14 1 13 7
M  V30 15 1 14 8
M  V30 16 1 15 9
M  V30 END BOND
M  V30 END CTAB
M  END
>  <i_epik_Tot_Q>  (1) 
0

>  <i_epik_Tot_abs_Q>  (1) 
0

>  <i_i_glide_confnum>  (1) 
1

>  <i_i_glide_lignum>  (1) 
86

>  <i_i_glide_posenum>  (1) 
13

>  <i_i_glide_rotatable_bonds>  (1) 
0

>  <i_lp_mmshare_version>  (1) 
72125

>  <i_m_source_file_index>  (1) 
82

>  <i_f3d_flags>  (1) 
0

>  <num_sample>  (1) 
100

>  <b_lp_Chiralities_Consistent>  (1) 
1

>  <r_epik_Charging_Adjusted_Penalty>  (1) 
0

>  <r_epik_Ionization_Penalty>  (1) 
2.5998422111611493e-06

>  <r_epik_Ionization_Penalty_Charging>  (1) 
0

>  <r_epik_Ionization_Penalty_Neutral>  (1) 
2.5998422111611493e-06

>  <r_epik_State_Penalty>  (1) 
-0

>  <r_glide_ring_energy>  (1) 
0

>  <r_i_docking_score>  (1) 
-6.1889127711495311

>  <r_i_glide_ecoul>  (1) 
-2.7899350422772864

>  <r_i_glide_eff_state_penalty>  (1) 
-0

>  <r_i_glide_einternal>  (1) 
0

>  <r_i_glide_emodel>  (1) 
-31.163599356908414

>  <r_i_glide_emodel_strain>  (1) 
0

>  <r_i_glide_energy>  (1) 
-22.465404555740385

>  <r_i_glide_erotb>  (1) 
0

>  <r_i_glide_esite>  (1) 
0

>  <r_i_glide_evdw>  (1) 
-19.675469513463099

>  <r_i_glide_gscore>  (1) 
-6.1889127711495311

>  <r_i_glide_gscore_strain>  (1) 
0

>  <r_i_glide_hbond>  (1) 
-0.0906264348637906

>  <r_i_glide_ligand_efficiency>  (1) 
-0.68765697457217012

>  <r_i_glide_ligand_efficiency_ln>  (1) 
-1.9357141237497457

>  <r_i_glide_ligand_efficiency_sa>  (1) 
-1.430384148616386

>  <r_i_glide_lipo>  (1) 
-2.077082175628532

>  <r_i_glide_metal>  (1) 
-0

>  <r_i_glide_rewards>  (1) 
-2.6189404286424605

>  <r_lp_Energy>  (1) 
10.425352

>  <r_lp_tautomer_probability>  (1) 
1

>  <s_epik_cmdline>  (1) 
J2VwaWtfcHl0aG9uJywgJy1waHQnLCAnMS4wJywgJy1waCcsICc3LjQnLCAnLXRuJywgJzgnLCAnLW1hJywgJzUwMCcsICctaW1hZScsICc8aW5maWxlLm1hZT4nLCAnLW9tYWUnLCAnPG91dGZpbGUubWFlPic=

>  <s_epik_input>  (1) 
W2NIXTFbY0hdW2NIXVtjSF1jKGMxMiluW25IXVtjSF0y

>  <s_glide_docking_method>  (1) 
confgen

>  <s_i_glide_gridfile>  (1) 
gpcr_5ht2c_6bqh_protein_autoprepared_prepared

>  <s_lp_Force_Field>  (1) 
S-OPLS

>  <s_lp_Variant>  (1) 
Pocket2Mol_81-1

>  <s_m_source_file>  (1) 
generated_GPCR_5HT2C_ligand_Pocket2Mol_2026-06-23_prepared.sdf

>  <GenAI_Model>  (1) 
Pocket2Mol

>  <Protein>  (1) 
GPCR_5HT2C

$$$$
Pocket2Mol_49
     RDKit          3D

  0  0  0  0  0  0  0  0  0  0999 V3000
M  V30 BEGIN CTAB
M  V30 COUNTS 16 16 0 0 1
M  V30 BEGIN ATOM
M  V30 1 C 38.822345 30.420237 54.365355 0
M  V30 2 C 39.645122 30.479016 53.223963 0
M  V30 3 C 39.521603 29.502199 52.212591 0
M  V30 4 C 40.404077 29.570798 50.981776 0
M  V30 5 C 38.570552 28.464461 52.348524 0
M  V30 6 O 38.445167 27.516846 51.372730 0
M  V30 7 C 37.874813 29.386810 54.499441 0
M  V30 8 C 37.748517 28.409274 53.492068 0
M  V30 9 H 38.916612 31.169582 55.138200 0
M  V30 10 H 40.369359 31.274374 53.122611 0
M  V30 11 H 41.007989 30.478949 50.967760 0
M  V30 12 H 41.072387 28.712886 50.967967 0
M  V30 13 H 39.797336 29.553061 50.075407 0
M  V30 14 H 37.688146 26.953332 51.469269 0
M  V30 15 H 37.244034 29.344880 55.375374 0
M  V30 16 H 37.020573 27.618099 53.597397 0
M  V30 END ATOM
M  V30 BEGIN BOND
M  V30 1 1 2 1
M  V30 2 2 3 2
M  V30 3 1 4 3
M  V30 4 1 5 3
M  V30 5 1 6 5
M  V30 6 2 7 1
M  V30 7 2 8 5
M  V30 8 1 8 7
M  V30 9 1 9 1
M  V30 10 1 10 2
M  V30 11 1 11 4
M  V30 12 1 12 4
M  V30 13 1 13 4
M  V30 14 1 14 6
M  V30 15 1 15 7
M  V30 16 1 16 8
M  V30 END BOND
M  V30 END CTAB
M  END
>  <i_epik_Tot_Q>  (1) 
0

>  <i_epik_Tot_abs_Q>  (1) 
0

>  <i_i_glide_confnum>  (1) 
1

>  <i_i_glide_lignum>  (1) 
52

>  <i_i_glide_posenum>  (1) 
81

>  <i_i_glide_rotatable_bonds>  (1) 
1

>  <i_lp_mmshare_version>  (1) 
72125

>  <i_m_source_file_index>  (1) 
50

>  <i_f3d_flags>  (1) 
0

>  <num_sample>  (1) 
100

>  <b_lp_Chiralities_Consistent>  (1) 
1

>  <r_epik_Charging_Adjusted_Penalty>  (1) 
0

>  <r_epik_Ionization_Penalty>  (1) 
0.00081241911792291806

>  <r_epik_Ionization_Penalty_Charging>  (1) 
0

>  <r_epik_Ionization_Penalty_Neutral>  (1) 
0.00081241911792291806

>  <r_epik_State_Penalty>  (1) 
-0

>  <r_glide_ring_energy>  (1) 
0

>  <r_i_docking_score>  (1) 
-6.187995865942991

>  <r_i_glide_ecoul>  (1) 
-2.9636980337096199

>  <r_i_glide_eff_state_penalty>  (1) 
-0

>  <r_i_glide_einternal>  (1) 
0.086558387146054017

>  <r_i_glide_emodel>  (1) 
-27.812105066360353

>  <r_i_glide_emodel_strain>  (1) 
0

>  <r_i_glide_energy>  (1) 
-20.092381476818243

>  <r_i_glide_erotb>  (1) 
0

>  <r_i_glide_esite>  (1) 
0

>  <r_i_glide_evdw>  (1) 
-17.128683443108624

>  <r_i_glide_gscore>  (1) 
-6.187995865942991

>  <r_i_glide_gscore_strain>  (1) 
0

>  <r_i_glide_hbond>  (1) 
-0.29734001668685445

>  <r_i_glide_ligand_efficiency>  (1) 
-0.77349948324287388

>  <r_i_glide_ligand_efficiency_ln>  (1) 
-2.0094539162991998

>  <r_i_glide_ligand_efficiency_sa>  (1) 
-1.546998966485748

>  <r_i_glide_lipo>  (1) 
-2.014968031574178

>  <r_i_glide_metal>  (1) 
-0

>  <r_i_glide_rewards>  (1) 
-2.5746989404700833

>  <r_lp_Energy>  (1) 
7.6312429999999996

>  <r_lp_tautomer_probability>  (1) 
1

>  <s_epik_cmdline>  (1) 
J2VwaWtfcHl0aG9uJywgJy1waHQnLCAnMS4wJywgJy1waCcsICc3LjQnLCAnLXRuJywgJzgnLCAnLW1hJywgJzUwMCcsICctaW1hZScsICc8aW5maWxlLm1hZT4nLCAnLW9tYWUnLCAnPG91dGZpbGUubWFlPic=

>  <s_epik_input>  (1) 
W0NIM11jMVtjSF1bY0hdW2NIXVtjSF1jMVtPSF0=

>  <s_glide_docking_method>  (1) 
confgen

>  <s_i_glide_gridfile>  (1) 
gpcr_5ht2c_6bqh_protein_autoprepared_prepared

>  <s_lp_Force_Field>  (1) 
S-OPLS

>  <s_lp_Variant>  (1) 
Pocket2Mol_49-1

>  <s_m_source_file>  (1) 
generated_GPCR_5HT2C_ligand_Pocket2Mol_2026-06-23_prepared.sdf

>  <GenAI_Model>  (1) 
Pocket2Mol

>  <Protein>  (1) 
GPCR_5HT2C

$$$$
Pocket2Mol_70
     RDKit          3D

  0  0  0  0  0  0  0  0  0  0999 V3000
M  V30 BEGIN CTAB
M  V30 COUNTS 17 18 0 0 1
M  V30 BEGIN ATOM
M  V30 1 C 39.645136 30.137765 52.664692 0
M  V30 2 C 38.948615 29.006241 53.226455 0
M  V30 3 C 38.902515 27.674328 52.564920 0 CFG=2
M  V30 4 C 38.274385 29.020037 54.304222 0
M  V30 5 C 39.245137 27.801626 51.084438 0
M  V30 6 N 37.645148 27.868555 54.525810 0
M  V30 7 N 37.770088 26.940170 53.367758 0
M  V30 8 C 40.072680 30.090380 51.391704 0
M  V30 9 C 39.813319 28.915192 50.564255 0
M  V30 10 H 39.801016 31.029013 53.255885 0
M  V30 11 H 39.804508 27.178396 52.925223 0
M  V30 12 H 38.099935 29.842594 54.983856 0
M  V30 13 H 39.052544 26.943248 50.456693 0
M  V30 14 H 36.833607 27.813308 55.124142 0
M  V30 15 H 36.900229 26.971561 52.837074 0
M  V30 16 H 40.578618 30.944749 50.964936 0
M  V30 17 H 40.064579 28.941095 49.514219 0
M  V30 END ATOM
M  V30 BEGIN BOND
M  V30 1 1 2 1
M  V30 2 1 3 2
M  V30 3 2 4 2
M  V30 4 1 5 3
M  V30 5 1 6 4
M  V30 6 1 7 3
M  V30 7 1 7 6
M  V30 8 2 8 1
M  V30 9 2 9 5
M  V30 10 1 9 8
M  V30 11 1 10 1
M  V30 12 1 3 11 CFG=1
M  V30 13 1 12 4
M  V30 14 1 13 5
M  V30 15 1 14 6
M  V30 16 1 15 7
M  V30 17 1 16 8
M  V30 18 1 17 9
M  V30 END BOND
M  V30 END CTAB
M  END
>  <i_epik_Tot_Q>  (1) 
0

>  <i_epik_Tot_abs_Q>  (1) 
0

>  <i_i_glide_confnum>  (1) 
1

>  <i_i_glide_lignum>  (1) 
75

>  <i_i_glide_posenum>  (1) 
200

>  <i_i_glide_rotatable_bonds>  (1) 
0

>  <i_lp_mmshare_version>  (1) 
72125

>  <i_m_source_file_index>  (1) 
71

>  <i_f3d_flags>  (1) 
0

>  <num_sample>  (1) 
100

>  <b_lp_Chiralities_Consistent>  (1) 
1

>  <r_epik_Charging_Adjusted_Penalty>  (1) 
0

>  <r_epik_Ionization_Penalty>  (1) 
4.3565390981668577e-05

>  <r_epik_Ionization_Penalty_Charging>  (1) 
0

>  <r_epik_Ionization_Penalty_Neutral>  (1) 
4.3565390981668577e-05

>  <r_epik_State_Penalty>  (1) 
-0

>  <r_glide_ring_energy>  (1) 
0

>  <r_i_docking_score>  (1) 
-6.1837051361284932

>  <r_i_glide_ecoul>  (1) 
-0.69225354981811793

>  <r_i_glide_eff_state_penalty>  (1) 
-0

>  <r_i_glide_einternal>  (1) 
0

>  <r_i_glide_emodel>  (1) 
-30.255862680056602

>  <r_i_glide_emodel_strain>  (1) 
0

>  <r_i_glide_energy>  (1) 
-21.319897572846433

>  <r_i_glide_erotb>  (1) 
0

>  <r_i_glide_esite>  (1) 
0

>  <r_i_glide_evdw>  (1) 
-20.627644023028314

>  <r_i_glide_gscore>  (1) 
-6.1837051361284932

>  <r_i_glide_gscore_strain>  (1) 
0

>  <r_i_glide_hbond>  (1) 
-0.20304478345253041

>  <r_i_glide_ligand_efficiency>  (1) 
-0.68707834845872151

>  <r_i_glide_ligand_efficiency_ln>  (1) 
-1.9340853251167209

>  <r_i_glide_ligand_efficiency_sa>  (1) 
-1.429180557798206

>  <r_i_glide_lipo>  (1) 
-2.129927778942132

>  <r_i_glide_metal>  (1) 
-0

>  <r_i_glide_rewards>  (1) 
-2.7155123401096977

>  <r_lp_Energy>  (1) 
4.0618679999999996

>  <r_lp_tautomer_probability>  (1) 
1

>  <s_epik_cmdline>  (1) 
J2VwaWtfcHl0aG9uJywgJy1waHQnLCAnMS4wJywgJy1waCcsICc3LjQnLCAnLXRuJywgJzgnLCAnLW1hJywgJzUwMCcsICctaW1hZScsICc8aW5maWxlLm1hZT4nLCAnLW9tYWUnLCAnPG91dGZpbGUubWFlPic=

>  <s_epik_input>  (1) 
W0NIXTE9W0NIXVtDSF09W0NIXVtDQEBIXShDMT0yKVtOSF1bTkhdW0NIXTI=

>  <s_glide_docking_method>  (1) 
confgen

>  <s_i_glide_gridfile>  (1) 
gpcr_5ht2c_6bqh_protein_autoprepared_prepared

>  <s_lp_Force_Field>  (1) 
S-OPLS

>  <s_lp_Variant>  (1) 
Pocket2Mol_70-1

>  <s_m_source_file>  (1) 
generated_GPCR_5HT2C_ligand_Pocket2Mol_2026-06-23_prepared.sdf

>  <GenAI_Model>  (1) 
Pocket2Mol

>  <Protein>  (1) 
GPCR_5HT2C

$$$$
Pocket2Mol_94
     RDKit          3D

  0  0  0  0  0  0  0  0  0  0999 V3000
M  V30 BEGIN CTAB
M  V30 COUNTS 16 17 0 0 1
M  V30 BEGIN ATOM
M  V30 1 C 40.045136 30.502738 52.284197 0
M  V30 2 C 39.265382 30.301457 53.475112 0
M  V30 3 C 38.513063 29.149157 53.695452 0
M  V30 4 C 39.110602 31.063457 54.477124 0
M  V30 5 C 38.522087 28.117839 52.677496 0
M  V30 6 C 38.234430 30.359013 55.341284 0
M  V30 7 C 39.247829 28.290237 51.535341 0
M  V30 8 C 37.841703 29.146387 54.875186 0
M  V30 9 O 39.250478 27.341117 50.593400 0
M  V30 10 C 40.039330 29.533743 51.339779 0
M  V30 11 H 40.622845 31.403910 52.145490 0
M  V30 12 H 39.545452 32.038202 54.637935 0
M  V30 13 H 37.949792 27.212076 52.824330 0
M  V30 14 H 37.908077 30.765495 56.289728 0
M  V30 15 H 38.640404 26.667021 50.851538 0
M  V30 16 H 40.618094 29.664918 50.435956 0
M  V30 END ATOM
M  V30 BEGIN BOND
M  V30 1 1 2 1
M  V30 2 1 3 2
M  V30 3 2 4 2
M  V30 4 1 5 3
M  V30 5 1 6 4
M  V30 6 2 7 5
M  V30 7 2 8 3
M  V30 8 2 8 6
M  V30 9 1 9 7
M  V30 10 2 10 1
M  V30 11 1 10 7
M  V30 12 1 11 1
M  V30 13 1 12 4
M  V30 14 1 13 5
M  V30 15 1 14 6
M  V30 16 1 15 9
M  V30 17 1 16 10
M  V30 END BOND
M  V30 END CTAB
M  END
>  <i_epik_Tot_Q>  (1) 
0

>  <i_epik_Tot_abs_Q>  (1) 
0

>  <i_i_glide_confnum>  (1) 
1

>  <i_i_glide_lignum>  (1) 
99

>  <i_i_glide_posenum>  (1) 
256

>  <i_i_glide_rotatable_bonds>  (1) 
1

>  <i_lp_mmshare_version>  (1) 
72125

>  <i_m_source_file_index>  (1) 
95

>  <i_f3d_flags>  (1) 
0

>  <num_sample>  (1) 
100

>  <b_lp_Chiralities_Consistent>  (1) 
1

>  <r_epik_Charging_Adjusted_Penalty>  (1) 
0

>  <r_epik_Ionization_Penalty>  (1) 
1.8682351542324854e-05

>  <r_epik_Ionization_Penalty_Charging>  (1) 
0

>  <r_epik_Ionization_Penalty_Neutral>  (1) 
1.8682351542324854e-05

>  <r_epik_State_Penalty>  (1) 
-0

>  <r_glide_ring_energy>  (1) 
0

>  <r_i_docking_score>  (1) 
-6.1669806847625868

>  <r_i_glide_ecoul>  (1) 
-1.5832696716588359

>  <r_i_glide_eff_state_penalty>  (1) 
-0

>  <r_i_glide_einternal>  (1) 
0.038328464202533663

>  <r_i_glide_emodel>  (1) 
-33.045856992639855

>  <r_i_glide_emodel_strain>  (1) 
0

>  <r_i_glide_energy>  (1) 
-23.557310451786826

>  <r_i_glide_erotb>  (1) 
0

>  <r_i_glide_esite>  (1) 
0

>  <r_i_glide_evdw>  (1) 
-21.974040780127989

>  <r_i_glide_gscore>  (1) 
-6.1669806847625868

>  <r_i_glide_gscore_strain>  (1) 
0

>  <r_i_glide_hbond>  (1) 
0

>  <r_i_glide_ligand_efficiency>  (1) 
-0.61669806847625863

>  <r_i_glide_ligand_efficiency_ln>  (1) 
-1.8673192396601497

>  <r_i_glide_ligand_efficiency_sa>  (1) 
-1.3286357120009098

>  <r_i_glide_lipo>  (1) 
-2.1366729718597952

>  <r_i_glide_metal>  (1) 
-0

>  <r_i_glide_rewards>  (1) 
-2.6941152231475662

>  <r_lp_Energy>  (1) 
8.2800809999999991

>  <r_lp_tautomer_probability>  (1) 
1

>  <s_epik_cmdline>  (1) 
J2VwaWtfcHl0aG9uJywgJy1waHQnLCAnMS4wJywgJy1waCcsICc3LjQnLCAnLXRuJywgJzgnLCAnLW1hJywgJzUwMCcsICctaW1hZScsICc8aW5maWxlLm1hZT4nLCAnLW9tYWUnLCAnPG91dGZpbGUubWFlPic=

>  <s_epik_input>  (1) 
W2NIXTFbY0hdYyhbT0hdKVtjSF1jKGMxPTIpPUM9W0NIXVtDSF0y

>  <s_glide_docking_method>  (1) 
confgen

>  <s_i_glide_gridfile>  (1) 
gpcr_5ht2c_6bqh_protein_autoprepared_prepared

>  <s_lp_Force_Field>  (1) 
S-OPLS

>  <s_lp_Variant>  (1) 
Pocket2Mol_94-1

>  <s_m_source_file>  (1) 
generated_GPCR_5HT2C_ligand_Pocket2Mol_2026-06-23_prepared.sdf

>  <GenAI_Model>  (1) 
Pocket2Mol

>  <Protein>  (1) 
GPCR_5HT2C

$$$$
Pocket2Mol_50
     RDKit          3D

  0  0  0  0  0  0  0  0  0  0999 V3000
M  V30 BEGIN CTAB
M  V30 COUNTS 14 14 0 0 1
M  V30 BEGIN ATOM
M  V30 1 C 38.825457 29.057374 53.739197 0
M  V30 2 C 39.633254 30.150038 53.367264 0
M  V30 3 C 40.045137 30.297522 52.028905 0
M  V30 4 C 39.651070 29.353367 51.062637 0
M  V30 5 C 38.430669 28.111535 52.772259 0
M  V30 6 O 40.045139 29.502979 49.767759 0
M  V30 7 O 37.645137 27.055930 53.132584 0
M  V30 8 C 38.845140 28.258408 51.433691 0
M  V30 9 H 38.507700 28.945966 54.765671 0
M  V30 10 H 39.935622 30.875545 54.107965 0
M  V30 11 H 40.662128 31.137548 51.743413 0
M  V30 12 H 39.425273 29.133118 49.155575 0
M  V30 13 H 37.272200 26.584477 52.396469 0
M  V30 14 H 38.542758 27.533748 50.692109 0
M  V30 END ATOM
M  V30 BEGIN BOND
M  V30 1 1 2 1
M  V30 2 2 3 2
M  V30 3 1 4 3
M  V30 4 2 5 1
M  V30 5 1 6 4
M  V30 6 1 7 5
M  V30 7 2 8 4
M  V30 8 1 8 5
M  V30 9 1 9 1
M  V30 10 1 10 2
M  V30 11 1 11 3
M  V30 12 1 12 6
M  V30 13 1 13 7
M  V30 14 1 14 8
M  V30 END BOND
M  V30 END CTAB
M  END
>  <i_epik_Tot_Q>  (1) 
0

>  <i_epik_Tot_abs_Q>  (1) 
0

>  <i_i_glide_confnum>  (1) 
1

>  <i_i_glide_lignum>  (1) 
53

>  <i_i_glide_posenum>  (1) 
124

>  <i_i_glide_rotatable_bonds>  (1) 
2

>  <i_lp_mmshare_version>  (1) 
72125

>  <i_m_source_file_index>  (1) 
51

>  <i_f3d_flags>  (1) 
0

>  <num_sample>  (1) 
100

>  <b_lp_Chiralities_Consistent>  (1) 
1

>  <r_epik_Charging_Adjusted_Penalty>  (1) 
0.012403777776626769

>  <r_epik_Ionization_Penalty>  (1) 
0.012403777776626781

>  <r_epik_Ionization_Penalty_Charging>  (1) 
0

>  <r_epik_Ionization_Penalty_Neutral>  (1) 
0.012403777776626781

>  <r_epik_State_Penalty>  (1) 
0.012403777776626769

>  <r_glide_ring_energy>  (1) 
0

>  <r_i_docking_score>  (1) 
-6.1665750670051711

>  <r_i_glide_ecoul>  (1) 
-4.7938301864845343

>  <r_i_glide_eff_state_penalty>  (1) 
0.012403777776626769

>  <r_i_glide_einternal>  (1) 
0.45114333481692054

>  <r_i_glide_emodel>  (1) 
-29.806013203543017

>  <r_i_glide_emodel_strain>  (1) 
0.20209539853846614

>  <r_i_glide_energy>  (1) 
-22.093186852993338

>  <r_i_glide_erotb>  (1) 
0

>  <r_i_glide_esite>  (1) 
0

>  <r_i_glide_evdw>  (1) 
-17.299356666508803

>  <r_i_glide_gscore>  (1) 
-6.1789788447817982

>  <r_i_glide_gscore_strain>  (1) 
0

>  <r_i_glide_hbond>  (1) 
-0.40738684233240735

>  <r_i_glide_ligand_efficiency>  (1) 
-0.77082188337564639

>  <r_i_glide_ligand_efficiency_ln>  (1) 
-2.0024978501917929

>  <r_i_glide_ligand_efficiency_sa>  (1) 
-1.541643766751293

>  <r_i_glide_lipo>  (1) 
-1.7732468360236542

>  <r_i_glide_metal>  (1) 
-0

>  <r_i_glide_rewards>  (1) 
-2.4143028051276159

>  <r_lp_Energy>  (1) 
4.2546869999999997

>  <r_lp_tautomer_probability>  (1) 
0.99999999989799981

>  <s_epik_cmdline>  (1) 
J2VwaWtfcHl0aG9uJywgJy1waHQnLCAnMS4wJywgJy1waCcsICc3LjQnLCAnLXRuJywgJzgnLCAnLW1hJywgJzUwMCcsICctaW1hZScsICc8aW5maWxlLm1hZT4nLCAnLW9tYWUnLCAnPG91dGZpbGUubWFlPic=

>  <s_epik_input>  (1) 
W09IXWMoW2NIXTEpW2NIXVtjSF1bY0hdYzFbT0hd

>  <s_glide_docking_method>  (1) 
confgen

>  <s_i_glide_gridfile>  (1) 
gpcr_5ht2c_6bqh_protein_autoprepared_prepared

>  <s_lp_Force_Field>  (1) 
S-OPLS

>  <s_lp_Variant>  (1) 
Pocket2Mol_50-1

>  <s_m_source_file>  (1) 
generated_GPCR_5HT2C_ligand_Pocket2Mol_2026-06-23_prepared.sdf

>  <GenAI_Model>  (1) 
Pocket2Mol

>  <Protein>  (1) 
GPCR_5HT2C

$$$$
Pocket2Mol_93
     RDKit          3D

  0  0  0  0  0  0  0  0  0  0999 V3000
M  V30 BEGIN CTAB
M  V30 COUNTS 17 18 0 0 1
M  V30 BEGIN ATOM
M  V30 1 C 40.045112 30.035234 51.781854 0
M  V30 2 C 39.304950 29.873013 52.970878 0
M  V30 3 C 38.490880 28.717761 53.174321 0
M  V30 4 C 39.359671 30.857748 53.972066 0
M  V30 5 C 38.457641 27.742569 52.152785 0
M  V30 6 N 37.768758 28.557640 54.312381 0
M  V30 7 C 38.609915 30.676508 55.137796 0
M  V30 8 C 39.990737 29.055054 50.782861 0
M  V30 9 C 37.832358 29.517263 55.263318 0
M  V30 10 C 39.203130 27.908642 50.967760 0
M  V30 11 H 40.652752 30.917814 51.638055 0
M  V30 12 H 39.967504 31.737739 53.843760 0
M  V30 13 H 37.849561 26.860688 52.280913 0
M  V30 14 H 38.626824 31.415877 55.925626 0
M  V30 15 H 40.551930 29.183464 49.870570 0
M  V30 16 H 37.244825 29.350260 56.152995 0
M  V30 17 H 39.162724 27.152476 50.196551 0
M  V30 END ATOM
M  V30 BEGIN BOND
M  V30 1 2 2 1
M  V30 2 1 3 2
M  V30 3 1 4 2
M  V30 4 2 5 3
M  V30 5 1 6 3
M  V30 6 2 7 4
M  V30 7 1 8 1
M  V30 8 2 9 6
M  V30 9 1 9 7
M  V30 10 1 10 5
M  V30 11 2 10 8
M  V30 12 1 11 1
M  V30 13 1 12 4
M  V30 14 1 13 5
M  V30 15 1 14 7
M  V30 16 1 15 8
M  V30 17 1 16 9
M  V30 18 1 17 10
M  V30 END BOND
M  V30 END CTAB
M  END
>  <i_epik_Tot_Q>  (1) 
0

>  <i_epik_Tot_abs_Q>  (1) 
0

>  <i_i_glide_confnum>  (1) 
1

>  <i_i_glide_lignum>  (1) 
98

>  <i_i_glide_posenum>  (1) 
342

>  <i_i_glide_rotatable_bonds>  (1) 
0

>  <i_lp_mmshare_version>  (1) 
72125

>  <i_m_source_file_index>  (1) 
94

>  <i_f3d_flags>  (1) 
0

>  <num_sample>  (1) 
100

>  <b_lp_Chiralities_Consistent>  (1) 
1

>  <r_epik_Charging_Adjusted_Penalty>  (1) 
0

>  <r_epik_Ionization_Penalty>  (1) 
0.0026406434276513078

>  <r_epik_Ionization_Penalty_Charging>  (1) 
0

>  <r_epik_Ionization_Penalty_Neutral>  (1) 
0.0026406434276513078

>  <r_epik_State_Penalty>  (1) 
-0

>  <r_glide_ring_energy>  (1) 
0

>  <r_i_docking_score>  (1) 
-6.1524297838825657

>  <r_i_glide_ecoul>  (1) 
-1.6257302446279973

>  <r_i_glide_eff_state_penalty>  (1) 
-0

>  <r_i_glide_einternal>  (1) 
0

>  <r_i_glide_emodel>  (1) 
-31.374046722475818

>  <r_i_glide_emodel_strain>  (1) 
0

>  <r_i_glide_energy>  (1) 
-22.81299248379645

>  <r_i_glide_erotb>  (1) 
0

>  <r_i_glide_esite>  (1) 
0

>  <r_i_glide_evdw>  (1) 
-21.187262239168451

>  <r_i_glide_gscore>  (1) 
-6.1524297838825657

>  <r_i_glide_gscore_strain>  (1) 
0

>  <r_i_glide_hbond>  (1) 
0

>  <r_i_glide_ligand_efficiency>  (1) 
-0.61524297838825659

>  <r_i_glide_ligand_efficiency_ln>  (1) 
-1.8629133271793816

>  <r_i_glide_ligand_efficiency_sa>  (1) 
-1.3255008154381966

>  <r_i_glide_lipo>  (1) 
-2.1945255075024361

>  <r_i_glide_metal>  (1) 
-0

>  <r_i_glide_rewards>  (1) 
-2.6546816277275069

>  <r_lp_Energy>  (1) 
20.260538

>  <r_lp_tautomer_probability>  (1) 
1

>  <s_epik_cmdline>  (1) 
J2VwaWtfcHl0aG9uJywgJy1waHQnLCAnMS4wJywgJy1waCcsICc3LjQnLCAnLXRuJywgJzgnLCAnLW1hJywgJzUwMCcsICctaW1hZScsICc8aW5maWxlLm1hZT4nLCAnLW9tYWUnLCAnPG91dGZpbGUubWFlPic=

>  <s_epik_input>  (1) 
W2NIXTFbY0hdW2NIXVtjSF1jKGMxMiluW2NIXVtjSF1bY0hdMg==

>  <s_glide_docking_method>  (1) 
confgen

>  <s_i_glide_gridfile>  (1) 
gpcr_5ht2c_6bqh_protein_autoprepared_prepared

>  <s_lp_Force_Field>  (1) 
S-OPLS

>  <s_lp_Variant>  (1) 
Pocket2Mol_93-1

>  <s_m_source_file>  (1) 
generated_GPCR_5HT2C_ligand_Pocket2Mol_2026-06-23_prepared.sdf

>  <GenAI_Model>  (1) 
Pocket2Mol

>  <Protein>  (1) 
GPCR_5HT2C

$$$$
Pocket2Mol_73
     RDKit          3D

  0  0  0  0  0  0  0  0  0  0999 V3000
M  V30 BEGIN CTAB
M  V30 COUNTS 15 16 0 0 1
M  V30 BEGIN ATOM
M  V30 1 C 39.488719 28.179003 50.778397 0
M  V30 2 C 39.125544 28.385727 52.168084 0
M  V30 3 C 40.045137 29.337758 50.370420 0
M  V30 4 C 40.045135 30.283590 51.481052 0
M  V30 5 C 39.487816 29.689547 52.545473 0
M  V30 6 C 39.254060 30.199928 53.860556 0
M  V30 7 N 38.573028 27.558501 52.952165 0
M  V30 8 N 38.704111 29.464358 54.742927 0
M  V30 9 C 38.310712 28.059265 54.349595 0
M  V30 10 H 39.315910 27.257494 50.241063 0
M  V30 11 H 40.428004 29.534357 49.379803 0
M  V30 12 H 40.426836 31.294769 51.449260 0
M  V30 13 H 39.569167 31.229243 54.052420 0
M  V30 14 H 38.792742 27.371931 55.045695 0
M  V30 15 H 37.244993 27.945146 54.548119 0
M  V30 END ATOM
M  V30 BEGIN BOND
M  V30 1 1 2 1
M  V30 2 2 3 1
M  V30 3 1 4 3
M  V30 4 1 5 2
M  V30 5 2 5 4
M  V30 6 1 6 5
M  V30 7 2 7 2
M  V30 8 2 8 6
M  V30 9 1 9 7
M  V30 10 1 9 8
M  V30 11 1 10 1
M  V30 12 1 11 3
M  V30 13 1 12 4
M  V30 14 1 13 6
M  V30 15 1 14 9
M  V30 16 1 15 9
M  V30 END BOND
M  V30 END CTAB
M  END
>  <i_epik_Tot_Q>  (1) 
0

>  <i_epik_Tot_abs_Q>  (1) 
0

>  <i_i_glide_confnum>  (1) 
1

>  <i_i_glide_lignum>  (1) 
78

>  <i_i_glide_posenum>  (1) 
61

>  <i_i_glide_rotatable_bonds>  (1) 
0

>  <i_lp_mmshare_version>  (1) 
72125

>  <i_m_source_file_index>  (1) 
74

>  <i_f3d_flags>  (1) 
0

>  <num_sample>  (1) 
100

>  <b_lp_Chiralities_Consistent>  (1) 
1

>  <r_epik_Charging_Adjusted_Penalty>  (1) 
0

>  <r_epik_Ionization_Penalty>  (1) 
1.1225786931258508e-06

>  <r_epik_Ionization_Penalty_Charging>  (1) 
0

>  <r_epik_Ionization_Penalty_Neutral>  (1) 
1.1225786931258508e-06

>  <r_epik_State_Penalty>  (1) 
-0

>  <r_glide_ring_energy>  (1) 
0

>  <r_i_docking_score>  (1) 
-6.1433335690996511

>  <r_i_glide_ecoul>  (1) 
0.10489066671195479

>  <r_i_glide_eff_state_penalty>  (1) 
-0

>  <r_i_glide_einternal>  (1) 
0

>  <r_i_glide_emodel>  (1) 
-30.01018403305444

>  <r_i_glide_emodel_strain>  (1) 
0

>  <r_i_glide_energy>  (1) 
-21.710107591859234

>  <r_i_glide_erotb>  (1) 
0

>  <r_i_glide_esite>  (1) 
0

>  <r_i_glide_evdw>  (1) 
-21.81499825857119

>  <r_i_glide_gscore>  (1) 
-6.1433335690996511

>  <r_i_glide_gscore_strain>  (1) 
0

>  <r_i_glide_hbond>  (1) 
0

>  <r_i_glide_ligand_efficiency>  (1) 
-0.68259261878885014

>  <r_i_glide_ligand_efficiency_ln>  (1) 
-1.9214582587182518

>  <r_i_glide_ligand_efficiency_sa>  (1) 
-1.4198498640773225

>  <r_i_glide_lipo>  (1) 
-1.2671555096340474

>  <r_i_glide_metal>  (1) 
-0

>  <r_i_glide_rewards>  (1) 
-3.8011617465438379

>  <r_lp_Energy>  (1) 
3.4627279999999998

>  <r_lp_tautomer_probability>  (1) 
1

>  <s_epik_Chemistry_Notes>  (1) 
This compound has an imine and may undergo hydrolysis. This compound contains an acetal/aminal-like group ( X-CH(R)-Y where X, Y are N, S, or O) that may be acid/base labile, releasing an aldehyde.

>  <s_epik_cmdline>  (1) 
J2VwaWtfcHl0aG9uJywgJy1waHQnLCAnMS4wJywgJy1waCcsICc3LjQnLCAnLXRuJywgJzgnLCAnLW1hJywgJzUwMCcsICctaW1hZScsICc8aW5maWxlLm1hZT4nLCAnLW9tYWUnLCAnPG91dGZpbGUubWFlPic=

>  <s_epik_input>  (1) 
W0NIXTE9W0NIXVtDSF09QyhDMT0yKVtDSF09TltDSDJdTjI=

>  <s_glide_docking_method>  (1) 
confgen

>  <s_i_glide_gridfile>  (1) 
gpcr_5ht2c_6bqh_protein_autoprepared_prepared

>  <s_lp_Force_Field>  (1) 
S-OPLS

>  <s_lp_Variant>  (1) 
Pocket2Mol_73-1

>  <s_m_source_file>  (1) 
generated_GPCR_5HT2C_ligand_Pocket2Mol_2026-06-23_prepared.sdf

>  <GenAI_Model>  (1) 
Pocket2Mol

>  <Protein>  (1) 
GPCR_5HT2C

$$$$
Pocket2Mol_83
     RDKit          3D

  0  0  0  0  0  0  0  0  0  0999 V3000
M  V30 BEGIN CTAB
M  V30 COUNTS 16 17 0 0 1
M  V30 BEGIN ATOM
M  V30 1 C 40.045137 30.486059 52.320561 0
M  V30 2 C 39.239511 29.484331 52.924033 0
M  V30 3 C 40.442041 30.384169 50.967758 0
M  V30 4 C 40.045136 29.282082 50.193357 0
M  V30 5 C 39.252188 28.277516 50.765926 0
M  V30 6 C 38.679661 29.293285 54.226653 0
M  V30 7 C 37.979813 28.112925 54.190354 0
M  V30 8 C 38.857435 28.384815 52.106080 0
M  V30 9 N 38.087032 27.570177 52.914371 0
M  V30 10 H 40.357858 31.337756 52.903909 0
M  V30 11 H 41.053301 31.158732 50.527146 0
M  V30 12 H 40.349598 29.208966 49.159667 0
M  V30 13 H 38.943481 27.427468 50.175956 0
M  V30 14 H 38.790918 29.958835 55.070778 0
M  V30 15 H 37.413822 27.614948 54.963571 0
M  V30 16 H 37.646235 26.701774 52.640960 0
M  V30 END ATOM
M  V30 BEGIN BOND
M  V30 1 2 2 1
M  V30 2 1 3 1
M  V30 3 2 4 3
M  V30 4 1 5 4
M  V30 5 1 6 2
M  V30 6 2 7 6
M  V30 7 1 8 2
M  V30 8 2 8 5
M  V30 9 1 9 7
M  V30 10 1 9 8
M  V30 11 1 10 1
M  V30 12 1 11 3
M  V30 13 1 12 4
M  V30 14 1 13 5
M  V30 15 1 14 6
M  V30 16 1 15 7
M  V30 17 1 16 9
M  V30 END BOND
M  V30 END CTAB
M  END
>  <i_epik_Tot_Q>  (1) 
0

>  <i_epik_Tot_abs_Q>  (1) 
0

>  <i_i_glide_confnum>  (1) 
1

>  <i_i_glide_lignum>  (1) 
88

>  <i_i_glide_posenum>  (1) 
121

>  <i_i_glide_rotatable_bonds>  (1) 
0

>  <i_lp_mmshare_version>  (1) 
72125

>  <i_m_source_file_index>  (1) 
84

>  <i_f3d_flags>  (1) 
0

>  <num_sample>  (1) 
100

>  <b_lp_Chiralities_Consistent>  (1) 
1

>  <r_epik_Charging_Adjusted_Penalty>  (1) 
0

>  <r_epik_Ionization_Penalty>  (1) 
6.3316205355000374e-10

>  <r_epik_Ionization_Penalty_Charging>  (1) 
0

>  <r_epik_Ionization_Penalty_Neutral>  (1) 
6.3316205355000374e-10

>  <r_epik_State_Penalty>  (1) 
-0

>  <r_glide_ring_energy>  (1) 
0

>  <r_i_docking_score>  (1) 
-6.1413100153032474

>  <r_i_glide_ecoul>  (1) 
-1.7092273145775791

>  <r_i_glide_eff_state_penalty>  (1) 
-0

>  <r_i_glide_einternal>  (1) 
0

>  <r_i_glide_emodel>  (1) 
-29.897068762977412

>  <r_i_glide_emodel_strain>  (1) 
0

>  <r_i_glide_energy>  (1) 
-21.534024519701198

>  <r_i_glide_erotb>  (1) 
0

>  <r_i_glide_esite>  (1) 
0

>  <r_i_glide_evdw>  (1) 
-19.82479720512362

>  <r_i_glide_gscore>  (1) 
-6.1413100153032474

>  <r_i_glide_gscore_strain>  (1) 
0

>  <r_i_glide_hbond>  (1) 
0

>  <r_i_glide_ligand_efficiency>  (1) 
-0.68236777947813865

>  <r_i_glide_ligand_efficiency_ln>  (1) 
-1.9208253492220757

>  <r_i_glide_ligand_efficiency_sa>  (1) 
-1.4193821794643253

>  <r_i_glide_lipo>  (1) 
-2.2052981973845154

>  <r_i_glide_metal>  (1) 
-0

>  <r_i_glide_rewards>  (1) 
-2.6883878604759146

>  <r_lp_Energy>  (1) 
12.824451

>  <r_lp_tautomer_probability>  (1) 
1

>  <s_epik_cmdline>  (1) 
J2VwaWtfcHl0aG9uJywgJy1waHQnLCAnMS4wJywgJy1waCcsICc3LjQnLCAnLXRuJywgJzgnLCAnLW1hJywgJzUwMCcsICctaW1hZScsICc8aW5maWxlLm1hZT4nLCAnLW9tYWUnLCAnPG91dGZpbGUubWFlPic=

>  <s_epik_input>  (1) 
W2NIXTFbY0hdW2NIXVtjSF1jKGMxMilbbkhdW2NIXVtjSF0y

>  <s_glide_docking_method>  (1) 
confgen

>  <s_i_glide_gridfile>  (1) 
gpcr_5ht2c_6bqh_protein_autoprepared_prepared

>  <s_lp_Force_Field>  (1) 
S-OPLS

>  <s_lp_Variant>  (1) 
Pocket2Mol_83-1

>  <s_m_source_file>  (1) 
generated_GPCR_5HT2C_ligand_Pocket2Mol_2026-06-23_prepared.sdf

>  <GenAI_Model>  (1) 
Pocket2Mol

>  <Protein>  (1) 
GPCR_5HT2C

$$$$
Pocket2Mol_71
     RDKit          3D

  0  0  0  0  0  0  0  0  0  0999 V3000
M  V30 BEGIN CTAB
M  V30 COUNTS 17 17 0 0 1
M  V30 BEGIN ATOM
M  V30 1 C 40.045144 30.552758 52.176246 0
M  V30 2 C 39.436412 30.410093 53.436747 0
M  V30 3 C 38.627282 29.289498 53.706392 0
M  V30 4 C 37.962367 29.145152 55.062589 0
M  V30 5 C 38.431538 28.306933 52.709721 0
M  V30 6 O 37.645143 27.220989 52.967134 0
M  V30 7 C 39.851648 29.578290 51.181763 0
M  V30 8 O 40.441177 29.728577 49.959634 0
M  V30 9 C 39.046251 28.451840 51.446925 0
M  V30 10 H 40.661262 31.414292 51.972532 0
M  V30 11 H 39.586995 31.164048 54.195691 0
M  V30 12 H 38.100649 28.139977 55.461462 0
M  V30 13 H 38.371406 29.854078 55.783169 0
M  V30 14 H 36.893391 29.338481 54.968649 0
M  V30 15 H 37.345951 26.757563 52.193482 0
M  V30 16 H 40.863714 30.568217 49.855828 0
M  V30 17 H 38.896464 27.703296 50.682022 0
M  V30 END ATOM
M  V30 BEGIN BOND
M  V30 1 2 2 1
M  V30 2 1 3 2
M  V30 3 1 4 3
M  V30 4 2 5 3
M  V30 5 1 6 5
M  V30 6 1 7 1
M  V30 7 1 8 7
M  V30 8 1 9 5
M  V30 9 2 9 7
M  V30 10 1 10 1
M  V30 11 1 11 2
M  V30 12 1 12 4
M  V30 13 1 13 4
M  V30 14 1 14 4
M  V30 15 1 15 6
M  V30 16 1 16 8
M  V30 17 1 17 9
M  V30 END BOND
M  V30 END CTAB
M  END
>  <i_epik_Tot_Q>  (1) 
0

>  <i_epik_Tot_abs_Q>  (1) 
0

>  <i_i_glide_confnum>  (1) 
1

>  <i_i_glide_lignum>  (1) 
76

>  <i_i_glide_posenum>  (1) 
84

>  <i_i_glide_rotatable_bonds>  (1) 
2

>  <i_lp_mmshare_version>  (1) 
72125

>  <i_m_source_file_index>  (1) 
72

>  <i_f3d_flags>  (1) 
0

>  <num_sample>  (1) 
100

>  <b_lp_Chiralities_Consistent>  (1) 
1

>  <r_epik_Charging_Adjusted_Penalty>  (1) 
0.00325898940304725

>  <r_epik_Ionization_Penalty>  (1) 
0.005516606254364515

>  <r_epik_Ionization_Penalty_Charging>  (1) 
0

>  <r_epik_Ionization_Penalty_Neutral>  (1) 
0.005516606254364515

>  <r_epik_State_Penalty>  (1) 
0.00325898940304725

>  <r_glide_ring_energy>  (1) 
0

>  <r_i_docking_score>  (1) 
-6.1361223879218887

>  <r_i_glide_ecoul>  (1) 
-4.1364360086587633

>  <r_i_glide_eff_state_penalty>  (1) 
0.00325898940304725

>  <r_i_glide_einternal>  (1) 
0.24213494350679493

>  <r_i_glide_emodel>  (1) 
-31.608594531506149

>  <r_i_glide_emodel_strain>  (1) 
0.009164144684353559

>  <r_i_glide_energy>  (1) 
-22.742940274296192

>  <r_i_glide_erotb>  (1) 
0

>  <r_i_glide_esite>  (1) 
0

>  <r_i_glide_evdw>  (1) 
-18.60650426563743

>  <r_i_glide_gscore>  (1) 
-6.1393813773249359

>  <r_i_glide_gscore_strain>  (1) 
0

>  <r_i_glide_hbond>  (1) 
-0.29070058352617745

>  <r_i_glide_ligand_efficiency>  (1) 
-0.68179137643576537

>  <r_i_glide_ligand_efficiency_ln>  (1) 
-1.9192028084039763

>  <r_i_glide_ligand_efficiency_sa>  (1) 
-1.4181832128203271

>  <r_i_glide_lipo>  (1) 
-1.8382093349590298

>  <r_i_glide_metal>  (1) 
-0

>  <r_i_glide_rewards>  (1) 
-2.4596808442590432

>  <r_lp_Energy>  (1) 
3.8278699999999999

>  <r_lp_tautomer_probability>  (1) 
0.99999999989799981

>  <s_epik_cmdline>  (1) 
J2VwaWtfcHl0aG9uJywgJy1waHQnLCAnMS4wJywgJy1waCcsICc3LjQnLCAnLXRuJywgJzgnLCAnLW1hJywgJzUwMCcsICctaW1hZScsICc8aW5maWxlLm1hZT4nLCAnLW9tYWUnLCAnPG91dGZpbGUubWFlPic=

>  <s_epik_input>  (1) 
W0NIM11jMVtjSF1bY0hdYyhbT0hdKVtjSF1jMVtPSF0=

>  <s_glide_docking_method>  (1) 
confgen

>  <s_i_glide_gridfile>  (1) 
gpcr_5ht2c_6bqh_protein_autoprepared_prepared

>  <s_lp_Force_Field>  (1) 
S-OPLS

>  <s_lp_Variant>  (1) 
Pocket2Mol_71-1

>  <s_m_source_file>  (1) 
generated_GPCR_5HT2C_ligand_Pocket2Mol_2026-06-23_prepared.sdf

>  <GenAI_Model>  (1) 
Pocket2Mol

>  <Protein>  (1) 
GPCR_5HT2C

$$$$
Pocket2Mol_79
     RDKit          3D

  0  0  0  0  0  0  0  0  0  0999 V3000
M  V30 BEGIN CTAB
M  V30 COUNTS 17 18 0 0 1
M  V30 BEGIN ATOM
M  V30 1 C 40.045050 30.385793 52.235229 0
M  V30 2 C 39.217179 29.797680 53.246108 0
M  V30 3 C 38.845021 28.274298 53.207933 0 CFG=2
M  V30 4 C 38.637611 30.485431 54.220037 0
M  V30 5 C 37.751898 29.672112 54.881888 0
M  V30 6 C 38.794096 27.844713 51.751473 0
M  V30 7 C 39.458461 28.513935 50.775388 0
M  V30 8 C 37.777177 28.466394 54.335989 0
M  V30 9 C 40.182759 29.761166 51.052402 0
M  V30 10 H 40.522231 31.337756 52.405671 0
M  V30 11 H 39.645130 27.690975 53.661686 0
M  V30 12 H 38.753150 31.546798 54.389414 0
M  V30 13 H 37.098160 29.982569 55.685553 0
M  V30 14 H 38.253467 26.937934 51.520598 0
M  V30 15 H 39.430508 28.137281 49.767755 0
M  V30 16 H 37.156006 27.644412 54.656341 0
M  V30 17 H 40.781763 30.214834 50.276349 0
M  V30 END ATOM
M  V30 BEGIN BOND
M  V30 1 1 2 1
M  V30 2 1 3 2
M  V30 3 2 4 2
M  V30 4 1 5 4
M  V30 5 1 6 3
M  V30 6 2 7 6
M  V30 7 1 8 3
M  V30 8 2 8 5
M  V30 9 2 9 1
M  V30 10 1 9 7
M  V30 11 1 10 1
M  V30 12 1 3 11 CFG=1
M  V30 13 1 12 4
M  V30 14 1 13 5
M  V30 15 1 14 6
M  V30 16 1 15 7
M  V30 17 1 16 8
M  V30 18 1 17 9
M  V30 END BOND
M  V30 END CTAB
M  END
>  <i_epik_Tot_Q>  (1) 
0

>  <i_epik_Tot_abs_Q>  (1) 
0

>  <i_i_glide_confnum>  (1) 
1

>  <i_i_glide_lignum>  (1) 
84

>  <i_i_glide_posenum>  (1) 
55

>  <i_i_glide_rotatable_bonds>  (1) 
0

>  <i_lp_mmshare_version>  (1) 
72125

>  <i_m_source_file_index>  (1) 
80

>  <i_f3d_flags>  (1) 
0

>  <num_sample>  (1) 
100

>  <b_lp_Chiralities_Consistent>  (1) 
1

>  <r_epik_Charging_Adjusted_Penalty>  (1) 
0

>  <r_epik_Ionization_Penalty>  (1) 
0

>  <r_epik_Ionization_Penalty_Charging>  (1) 
0

>  <r_epik_Ionization_Penalty_Neutral>  (1) 
0

>  <r_epik_State_Penalty>  (1) 
-0

>  <r_glide_ring_energy>  (1) 
0

>  <r_i_docking_score>  (1) 
-6.1323872871253489

>  <r_i_glide_ecoul>  (1) 
-1.2029469745959771

>  <r_i_glide_eff_state_penalty>  (1) 
-0

>  <r_i_glide_einternal>  (1) 
0

>  <r_i_glide_emodel>  (1) 
-28.946496902242572

>  <r_i_glide_emodel_strain>  (1) 
0

>  <r_i_glide_energy>  (1) 
-20.986058041010992

>  <r_i_glide_erotb>  (1) 
0

>  <r_i_glide_esite>  (1) 
0

>  <r_i_glide_evdw>  (1) 
-19.783111066415014

>  <r_i_glide_gscore>  (1) 
-6.1323872871253489

>  <r_i_glide_gscore_strain>  (1) 
0

>  <r_i_glide_hbond>  (1) 
0

>  <r_i_glide_ligand_efficiency>  (1) 
-0.68137636523614986

>  <r_i_glide_ligand_efficiency_ln>  (1) 
-1.918034576174368

>  <r_i_glide_ligand_efficiency_sa>  (1) 
-1.4173199547376214

>  <r_i_glide_lipo>  (1) 
-2.1870814768723732

>  <r_i_glide_metal>  (1) 
-0

>  <r_i_glide_rewards>  (1) 
-2.7757082107428288

>  <r_lp_Energy>  (1) 
11.987261999999999

>  <r_lp_tautomer_probability>  (1) 
1

>  <s_epik_cmdline>  (1) 
J2VwaWtfcHl0aG9uJywgJy1waHQnLCAnMS4wJywgJy1waCcsICc3LjQnLCAnLXRuJywgJzgnLCAnLW1hJywgJzUwMCcsICctaW1hZScsICc8aW5maWxlLm1hZT4nLCAnLW9tYWUnLCAnPG91dGZpbGUubWFlPic=

>  <s_epik_input>  (1) 
W0NIXTE9W0NIXVtDSF09W0NIXVtDQEBIXShDMT0yKVtDSF09W0NIXVtDSF0y

>  <s_glide_docking_method>  (1) 
confgen

>  <s_i_glide_gridfile>  (1) 
gpcr_5ht2c_6bqh_protein_autoprepared_prepared

>  <s_lp_Force_Field>  (1) 
S-OPLS

>  <s_lp_Variant>  (1) 
Pocket2Mol_79-1

>  <s_m_source_file>  (1) 
generated_GPCR_5HT2C_ligand_Pocket2Mol_2026-06-23_prepared.sdf

>  <GenAI_Model>  (1) 
Pocket2Mol

>  <Protein>  (1) 
GPCR_5HT2C

$$$$
Pocket2Mol_98
     RDKit          3D

  0  0  0  0  0  0  0  0  0  0999 V3000
M  V30 BEGIN CTAB
M  V30 COUNTS 18 19 0 0 1
M  V30 BEGIN ATOM
M  V30 1 C 38.180920 29.826626 55.253072 0
M  V30 2 O 37.782226 28.680437 54.438101 0
M  V30 3 O 39.155117 30.681362 54.577522 0
M  V30 4 C 38.491734 28.936030 53.334569 0
M  V30 5 C 39.244952 30.035499 53.410838 0
M  V30 6 C 40.045098 30.459110 52.337828 0
M  V30 7 C 40.045117 29.697395 51.146903 0
M  V30 8 C 40.882925 30.137762 49.965843 0
M  V30 9 C 38.463179 28.137784 52.178817 0
M  V30 10 C 39.250587 28.521477 51.068111 0
M  V30 11 H 37.293801 30.418975 55.488538 0
M  V30 12 H 38.611954 29.466526 56.187606 0
M  V30 13 H 40.642101 31.352148 52.418458 0
M  V30 14 H 40.736891 29.489044 49.101839 0
M  V30 15 H 40.608790 31.153359 49.678530 0
M  V30 16 H 41.939453 30.137779 50.232959 0
M  V30 17 H 37.847533 27.250941 52.137219 0
M  V30 18 H 39.242366 27.927342 50.167048 0
M  V30 END ATOM
M  V30 BEGIN BOND
M  V30 1 1 2 1
M  V30 2 1 3 1
M  V30 3 1 4 2
M  V30 4 1 5 3
M  V30 5 2 5 4
M  V30 6 1 6 5
M  V30 7 2 7 6
M  V30 8 1 8 7
M  V30 9 1 9 4
M  V30 10 1 10 7
M  V30 11 2 10 9
M  V30 12 1 11 1
M  V30 13 1 12 1
M  V30 14 1 13 6
M  V30 15 1 14 8
M  V30 16 1 15 8
M  V30 17 1 16 8
M  V30 18 1 17 9
M  V30 19 1 18 10
M  V30 END BOND
M  V30 END CTAB
M  END
>  <i_epik_Tot_Q>  (1) 
0

>  <i_epik_Tot_abs_Q>  (1) 
0

>  <i_i_glide_confnum>  (1) 
1

>  <i_i_glide_lignum>  (1) 
103

>  <i_i_glide_posenum>  (1) 
38

>  <i_i_glide_rotatable_bonds>  (1) 
0

>  <i_lp_mmshare_version>  (1) 
72125

>  <i_m_source_file_index>  (1) 
99

>  <i_f3d_flags>  (1) 
0

>  <num_sample>  (1) 
100

>  <b_lp_Chiralities_Consistent>  (1) 
1

>  <r_epik_Charging_Adjusted_Penalty>  (1) 
0

>  <r_epik_Ionization_Penalty>  (1) 
0

>  <r_epik_Ionization_Penalty_Charging>  (1) 
0

>  <r_epik_Ionization_Penalty_Neutral>  (1) 
0

>  <r_epik_State_Penalty>  (1) 
-0

>  <r_glide_ring_energy>  (1) 
0

>  <r_i_docking_score>  (1) 
-6.1317666383742955

>  <r_i_glide_ecoul>  (1) 
-1.3867479213835896

>  <r_i_glide_eff_state_penalty>  (1) 
-0

>  <r_i_glide_einternal>  (1) 
0

>  <r_i_glide_emodel>  (1) 
-30.552031068893513

>  <r_i_glide_emodel_strain>  (1) 
0.0071885380376670582

>  <r_i_glide_energy>  (1) 
-22.217461046637823

>  <r_i_glide_erotb>  (1) 
0

>  <r_i_glide_esite>  (1) 
-0.0058685041561619836

>  <r_i_glide_evdw>  (1) 
-20.830713125254231

>  <r_i_glide_gscore>  (1) 
-6.1317666383742955

>  <r_i_glide_gscore_strain>  (1) 
0

>  <r_i_glide_hbond>  (1) 
0

>  <r_i_glide_ligand_efficiency>  (1) 
-0.61317666383742953

>  <r_i_glide_ligand_efficiency_ln>  (1) 
-1.8566566691595463

>  <r_i_glide_ligand_efficiency_sa>  (1) 
-1.3210490756893771

>  <r_i_glide_lipo>  (1) 
-2.0670013051881386

>  <r_i_glide_metal>  (1) 
-0

>  <r_i_glide_rewards>  (1) 
-2.8093489845597448

>  <r_lp_Energy>  (1) 
16.823695000000001

>  <r_lp_tautomer_probability>  (1) 
1

>  <s_epik_Chemistry_Notes>  (1) 
This compound contains an acetal/aminal-like group ( X-CH(R)-Y where X, Y are N, S, or O) that may be acid/base labile, releasing an aldehyde.

>  <s_epik_cmdline>  (1) 
J2VwaWtfcHl0aG9uJywgJy1waHQnLCAnMS4wJywgJy1waCcsICc3LjQnLCAnLXRuJywgJzgnLCAnLW1hJywgJzUwMCcsICctaW1hZScsICc8aW5maWxlLm1hZT4nLCAnLW9tYWUnLCAnPG91dGZpbGUubWFlPic=

>  <s_epik_input>  (1) 
TzFbQ0gyXU9jKGMxMilbY0hdYyhbQ0gzXSlbY0hdW2NIXTI=

>  <s_glide_docking_method>  (1) 
confgen

>  <s_i_glide_gridfile>  (1) 
gpcr_5ht2c_6bqh_protein_autoprepared_prepared

>  <s_lp_Force_Field>  (1) 
S-OPLS

>  <s_lp_Variant>  (1) 
Pocket2Mol_98-1

>  <s_m_source_file>  (1) 
generated_GPCR_5HT2C_ligand_Pocket2Mol_2026-06-23_prepared.sdf

>  <GenAI_Model>  (1) 
Pocket2Mol

>  <Protein>  (1) 
GPCR_5HT2C

$$$$
Pocket2Mol_82
     RDKit          3D

  0  0  0  0  0  0  0  0  0  0999 V3000
M  V30 BEGIN CTAB
M  V30 COUNTS 16 16 0 0 1
M  V30 BEGIN ATOM
M  V30 1 C 38.252486 28.928032 54.410570 0
M  V30 2 C 38.888294 29.001088 53.043345 0
M  V30 3 C 39.645136 30.137757 52.653415 0
M  V30 4 C 38.728064 27.928150 52.138855 0
M  V30 5 C 39.305131 27.991755 50.858453 0
M  V30 6 C 40.217086 30.194678 51.367760 0
M  V30 7 C 40.045120 29.125045 50.471908 0
M  V30 8 O 37.645184 27.924804 54.773715 0
M  V30 9 N 38.391857 30.015598 55.172722 0
M  V30 10 H 39.781126 30.965633 53.332002 0
M  V30 11 H 38.155554 27.057259 52.426523 0
M  V30 12 H 39.176005 27.170496 50.168124 0
M  V30 13 H 40.786886 31.062687 51.068634 0
M  V30 14 H 40.477908 29.173904 49.484829 0
M  V30 15 H 38.894515 30.815564 54.824203 0
M  V30 16 H 37.978310 30.038453 56.094221 0
M  V30 END ATOM
M  V30 BEGIN BOND
M  V30 1 1 2 1
M  V30 2 1 3 2
M  V30 3 2 4 2
M  V30 4 1 5 4
M  V30 5 2 6 3
M  V30 6 2 7 5
M  V30 7 1 7 6
M  V30 8 2 8 1
M  V30 9 1 9 1
M  V30 10 1 10 3
M  V30 11 1 11 4
M  V30 12 1 12 5
M  V30 13 1 13 6
M  V30 14 1 14 7
M  V30 15 1 15 9
M  V30 16 1 16 9
M  V30 END BOND
M  V30 END CTAB
M  END
>  <i_epik_Tot_Q>  (1) 
0

>  <i_epik_Tot_abs_Q>  (1) 
0

>  <i_i_glide_confnum>  (1) 
1

>  <i_i_glide_lignum>  (1) 
87

>  <i_i_glide_posenum>  (1) 
329

>  <i_i_glide_rotatable_bonds>  (1) 
1

>  <i_lp_mmshare_version>  (1) 
72125

>  <i_m_source_file_index>  (1) 
83

>  <i_f3d_flags>  (1) 
0

>  <num_sample>  (1) 
100

>  <b_lp_Chiralities_Consistent>  (1) 
1

>  <r_epik_Charging_Adjusted_Penalty>  (1) 
0

>  <r_epik_Ionization_Penalty>  (1) 
4.7216645763340487e-07

>  <r_epik_Ionization_Penalty_Charging>  (1) 
0

>  <r_epik_Ionization_Penalty_Neutral>  (1) 
4.7216645763340487e-07

>  <r_epik_State_Penalty>  (1) 
-0

>  <r_glide_ring_energy>  (1) 
0

>  <r_i_docking_score>  (1) 
-6.1290631141020224

>  <r_i_glide_ecoul>  (1) 
-1.4011347336305406

>  <r_i_glide_eff_state_penalty>  (1) 
-0

>  <r_i_glide_einternal>  (1) 
0.039250050561746797

>  <r_i_glide_emodel>  (1) 
-29.925969792958043

>  <r_i_glide_emodel_strain>  (1) 
0

>  <r_i_glide_energy>  (1) 
-21.177261762520175

>  <r_i_glide_erotb>  (1) 
0

>  <r_i_glide_esite>  (1) 
0

>  <r_i_glide_evdw>  (1) 
-19.776127028889633

>  <r_i_glide_gscore>  (1) 
-6.1290631141020224

>  <r_i_glide_gscore_strain>  (1) 
0

>  <r_i_glide_hbond>  (1) 
0

>  <r_i_glide_ligand_efficiency>  (1) 
-0.68100701267800245

>  <r_i_glide_ligand_efficiency_ln>  (1) 
-1.9169948703473547

>  <r_i_glide_ligand_efficiency_sa>  (1) 
-1.4165516704564163

>  <r_i_glide_lipo>  (1) 
-1.9336522464772443

>  <r_i_glide_metal>  (1) 
-0

>  <r_i_glide_rewards>  (1) 
-2.9964343061357148

>  <r_lp_Energy>  (1) 
9.4363049999999991

>  <r_lp_tautomer_probability>  (1) 
1

>  <s_epik_cmdline>  (1) 
J2VwaWtfcHl0aG9uJywgJy1waHQnLCAnMS4wJywgJy1waCcsICc3LjQnLCAnLXRuJywgJzgnLCAnLW1hJywgJzUwMCcsICctaW1hZScsICc8aW5maWxlLm1hZT4nLCAnLW9tYWUnLCAnPG91dGZpbGUubWFlPic=

>  <s_epik_input>  (1) 
Tz1DKFtOSDJdKWMxW2NIXVtjSF1bY0hdW2NIXVtjSF0x

>  <s_glide_docking_method>  (1) 
confgen

>  <s_i_glide_gridfile>  (1) 
gpcr_5ht2c_6bqh_protein_autoprepared_prepared

>  <s_lp_Force_Field>  (1) 
S-OPLS

>  <s_lp_Variant>  (1) 
Pocket2Mol_82-1

>  <s_m_source_file>  (1) 
generated_GPCR_5HT2C_ligand_Pocket2Mol_2026-06-23_prepared.sdf

>  <GenAI_Model>  (1) 
Pocket2Mol

>  <Protein>  (1) 
GPCR_5HT2C

$$$$
Pocket2Mol_92
     RDKit          3D

  0  0  0  0  0  0  0  0  0  0999 V3000
M  V30 BEGIN CTAB
M  V30 COUNTS 18 19 0 0 1
M  V30 BEGIN ATOM
M  V30 1 C 37.747431 26.105263 54.567760 0
M  V30 2 C 38.246177 27.361867 54.166943 0
M  V30 3 C 38.645063 28.306655 55.142536 0
M  V30 4 C 38.348815 27.679530 52.796778 0
M  V30 5 C 38.848368 28.935530 52.400190 0
M  V30 6 C 38.543559 27.988019 56.512590 0
M  V30 7 C 39.143052 29.563944 54.741865 0
M  V30 8 C 37.648698 25.789572 55.937201 0
M  V30 9 C 39.245137 29.877132 53.371693 0
M  V30 10 C 38.046306 26.729831 56.908923 0
M  V30 11 H 37.440525 25.383128 53.825330 0
M  V30 12 H 38.044917 26.960052 52.049566 0
M  V30 13 H 38.926715 29.177616 51.349960 0
M  V30 14 H 38.846489 28.707288 57.259427 0
M  V30 15 H 39.447362 30.287648 55.484162 0
M  V30 16 H 37.267212 24.826285 56.242412 0
M  V30 17 H 39.627533 30.840497 53.065728 0
M  V30 18 H 37.969094 26.486731 57.958384 0
M  V30 END ATOM
M  V30 BEGIN BOND
M  V30 1 1 2 1
M  V30 2 1 3 2
M  V30 3 2 4 2
M  V30 4 1 5 4
M  V30 5 1 6 3
M  V30 6 2 7 3
M  V30 7 2 8 1
M  V30 8 2 9 5
M  V30 9 1 9 7
M  V30 10 2 10 6
M  V30 11 1 10 8
M  V30 12 1 11 1
M  V30 13 1 12 4
M  V30 14 1 13 5
M  V30 15 1 14 6
M  V30 16 1 15 7
M  V30 17 1 16 8
M  V30 18 1 17 9
M  V30 19 1 18 10
M  V30 END BOND
M  V30 END CTAB
M  END
>  <i_epik_Tot_Q>  (1) 
0

>  <i_epik_Tot_abs_Q>  (1) 
0

>  <i_i_glide_confnum>  (1) 
1

>  <i_i_glide_lignum>  (1) 
97

>  <i_i_glide_posenum>  (1) 
204

>  <i_i_glide_rotatable_bonds>  (1) 
0

>  <i_lp_mmshare_version>  (1) 
72125

>  <i_m_source_file_index>  (1) 
93

>  <i_f3d_flags>  (1) 
0

>  <num_sample>  (1) 
100

>  <b_lp_Chiralities_Consistent>  (1) 
1

>  <r_epik_Charging_Adjusted_Penalty>  (1) 
0

>  <r_epik_Ionization_Penalty>  (1) 
0

>  <r_epik_Ionization_Penalty_Charging>  (1) 
0

>  <r_epik_Ionization_Penalty_Neutral>  (1) 
0

>  <r_epik_State_Penalty>  (1) 
-0

>  <r_glide_ring_energy>  (1) 
0

>  <r_i_docking_score>  (1) 
-6.1260469756180225

>  <r_i_glide_ecoul>  (1) 
-0.71166385483697669

>  <r_i_glide_eff_state_penalty>  (1) 
-0

>  <r_i_glide_einternal>  (1) 
0

>  <r_i_glide_emodel>  (1) 
-27.428981017441401

>  <r_i_glide_emodel_strain>  (1) 
0

>  <r_i_glide_energy>  (1) 
-19.22891282449541

>  <r_i_glide_erotb>  (1) 
0

>  <r_i_glide_esite>  (1) 
0

>  <r_i_glide_evdw>  (1) 
-18.517248969658432

>  <r_i_glide_gscore>  (1) 
-6.1260469756180225

>  <r_i_glide_gscore_strain>  (1) 
0

>  <r_i_glide_hbond>  (1) 
0

>  <r_i_glide_ligand_efficiency>  (1) 
-0.61260469756180225

>  <r_i_glide_ligand_efficiency_ln>  (1) 
-1.8549247947050753

>  <r_i_glide_ligand_efficiency_sa>  (1) 
-1.3198168117036375

>  <r_i_glide_lipo>  (1) 
-2.5001547223213643

>  <r_i_glide_metal>  (1) 
-0

>  <r_i_glide_rewards>  (1) 
-2.59328022658819

>  <r_lp_Energy>  (1) 
18.967330999999998

>  <r_lp_tautomer_probability>  (1) 
1

>  <s_epik_cmdline>  (1) 
J2VwaWtfcHl0aG9uJywgJy1waHQnLCAnMS4wJywgJy1waCcsICc3LjQnLCAnLXRuJywgJzgnLCAnLW1hJywgJzUwMCcsICctaW1hZScsICc8aW5maWxlLm1hZT4nLCAnLW9tYWUnLCAnPG91dGZpbGUubWFlPic=

>  <s_epik_input>  (1) 
W2NIXTFbY0hdW2NIXVtjSF1jKGMxMilbY0hdW2NIXVtjSF1bY0hdMg==

>  <s_glide_docking_method>  (1) 
confgen

>  <s_i_glide_gridfile>  (1) 
gpcr_5ht2c_6bqh_protein_autoprepared_prepared

>  <s_lp_Force_Field>  (1) 
S-OPLS

>  <s_lp_Variant>  (1) 
Pocket2Mol_92-1

>  <s_m_source_file>  (1) 
generated_GPCR_5HT2C_ligand_Pocket2Mol_2026-06-23_prepared.sdf

>  <GenAI_Model>  (1) 
Pocket2Mol

>  <Protein>  (1) 
GPCR_5HT2C

$$$$
Pocket2Mol_1
     RDKit          3D

  0  0  0  0  0  0  0  0  0  0999 V3000
M  V30 BEGIN CTAB
M  V30 COUNTS 19 20 0 0 1
M  V30 BEGIN ATOM
M  V30 1 C 38.815090 27.988075 52.054668 0
M  V30 2 C 38.588957 28.896332 53.154126 0
M  V30 3 C 39.393940 30.099490 53.345579 0 CFG=1
M  V30 4 C 37.651115 28.766171 54.018330 0
M  V30 5 C 40.045251 30.540009 52.040338 0
M  V30 6 C 40.161372 29.716029 50.971721 0
M  V30 7 C 37.523202 29.889728 54.974836 0
M  V30 8 O 40.787217 30.137755 49.866502 0
M  V30 9 N 38.422864 30.860351 54.207881 0
M  V30 10 C 39.581581 28.372029 51.016684 0
M  V30 11 H 38.348072 27.013234 52.050751 0
M  V30 12 H 40.214856 29.828100 54.009959 0
M  V30 13 H 36.946980 27.946558 54.027749 0
M  V30 14 H 40.460735 31.536216 52.009944 0
M  V30 15 H 36.504660 30.267895 55.071667 0
M  V30 16 H 37.928217 29.619223 55.950113 0
M  V30 17 H 41.045154 31.037337 50.007376 0
M  V30 18 H 38.856483 31.550343 54.805342 0
M  V30 19 H 39.731556 27.697279 50.185669 0
M  V30 END ATOM
M  V30 BEGIN BOND
M  V30 1 1 2 1
M  V30 2 1 3 2
M  V30 3 2 4 2
M  V30 4 1 5 3
M  V30 5 2 6 5
M  V30 6 1 7 4
M  V30 7 1 8 6
M  V30 8 1 9 3
M  V30 9 1 9 7
M  V30 10 2 10 1
M  V30 11 1 10 6
M  V30 12 1 11 1
M  V30 13 1 3 12 CFG=1
M  V30 14 1 13 4
M  V30 15 1 14 5
M  V30 16 1 15 7
M  V30 17 1 16 7
M  V30 18 1 17 8
M  V30 19 1 18 9
M  V30 20 1 19 10
M  V30 END BOND
M  V30 END CTAB
M  END
>  <i_epik_Tot_Q>  (1) 
0

>  <i_epik_Tot_abs_Q>  (1) 
0

>  <i_i_glide_confnum>  (1) 
1

>  <i_i_glide_lignum>  (1) 
4

>  <i_i_glide_posenum>  (1) 
125

>  <i_i_glide_rotatable_bonds>  (1) 
1

>  <i_lp_mmshare_version>  (1) 
72125

>  <i_m_source_file_index>  (1) 
2

>  <i_f3d_flags>  (1) 
0

>  <num_sample>  (1) 
100

>  <b_lp_Chiralities_Consistent>  (1) 
1

>  <r_epik_Charging_Adjusted_Penalty>  (1) 
0.0032380173127296522

>  <r_epik_Ionization_Penalty>  (1) 
0.0032399356015129686

>  <r_epik_Ionization_Penalty_Charging>  (1) 
0

>  <r_epik_Ionization_Penalty_Neutral>  (1) 
0.0032399356015129686

>  <r_epik_State_Penalty>  (1) 
0.0032380173127296522

>  <r_glide_ring_energy>  (1) 
0

>  <r_i_docking_score>  (1) 
-6.1244714533473772

>  <r_i_glide_ecoul>  (1) 
-2.1018452359098174

>  <r_i_glide_eff_state_penalty>  (1) 
0.0032380173127296522

>  <r_i_glide_einternal>  (1) 
0.0012830978520002034

>  <r_i_glide_emodel>  (1) 
-34.830069966138574

>  <r_i_glide_emodel_strain>  (1) 
7.219969688776473e-08

>  <r_i_glide_energy>  (1) 
-25.468596208264696

>  <r_i_glide_erotb>  (1) 
0

>  <r_i_glide_esite>  (1) 
0

>  <r_i_glide_evdw>  (1) 
-23.366750972354879

>  <r_i_glide_gscore>  (1) 
-6.1277094706601067

>  <r_i_glide_gscore_strain>  (1) 
0

>  <r_i_glide_hbond>  (1) 
0

>  <r_i_glide_ligand_efficiency>  (1) 
-0.61244714533473776

>  <r_i_glide_ligand_efficiency_ln>  (1) 
-1.8544477374222856

>  <r_i_glide_ligand_efficiency_sa>  (1) 
-1.3194773757201579

>  <r_i_glide_lipo>  (1) 
-2.0895712609616304

>  <r_i_glide_metal>  (1) 
-0

>  <r_i_glide_rewards>  (1) 
-2.5545238756942599

>  <r_lp_Energy>  (1) 
5.6363089999999998

>  <s_epik_cmdline>  (1) 
J2VwaWtfcHl0aG9uJywgJy1waHQnLCAnMS4wJywgJy1waCcsICc3LjQnLCAnLXRuJywgJzgnLCAnLW1hJywgJzUwMCcsICctaW1hZScsICc8aW5maWxlLm1hZT4nLCAnLW9tYWUnLCAnPG91dGZpbGUubWFlPic=

>  <s_epik_input>  (1) 
W0NIXTE9W0NIXUMoW09IXSk9W0NIXVtDQEhdKEMxPTIpW05IXVtDSDJdW0NIXTI=

>  <s_glide_docking_method>  (1) 
confgen

>  <s_i_glide_gridfile>  (1) 
gpcr_5ht2c_6bqh_protein_autoprepared_prepared

>  <s_lp_Force_Field>  (1) 
S-OPLS

>  <s_lp_Variant>  (1) 
Pocket2Mol_1-2

>  <s_m_source_file>  (1) 
generated_GPCR_5HT2C_ligand_Pocket2Mol_2026-06-23_prepared.sdf

>  <GenAI_Model>  (1) 
Pocket2Mol

>  <Protein>  (1) 
GPCR_5HT2C

$$$$
Pocket2Mol_87
     RDKit          3D

  0  0  0  0  0  0  0  0  0  0999 V3000
M  V30 BEGIN CTAB
M  V30 COUNTS 18 18 0 0 1
M  V30 BEGIN ATOM
M  V30 1 C 40.045137 30.366990 51.880071 0
M  V30 2 C 39.447966 30.027811 53.110932 0
M  V30 3 C 38.845136 28.752464 53.289827 0
M  V30 4 C 38.217483 28.384711 54.603735 0
M  V30 5 N 38.218199 29.377748 55.565665 0
M  V30 6 C 37.685146 27.169008 54.840957 0
M  V30 7 C 40.045139 29.447392 50.818498 0
M  V30 8 C 38.855355 27.834064 52.206965 0
M  V30 9 C 39.452285 28.184008 50.982369 0
M  V30 10 H 40.501964 31.337752 51.752354 0
M  V30 11 H 39.456355 30.744276 53.917014 0
M  V30 12 H 38.507703 30.319203 55.346081 0
M  V30 13 H 40.501660 29.711581 49.875858 0
M  V30 14 H 38.406334 26.862967 52.310377 0
M  V30 15 H 39.454153 27.477938 50.167757 0
M  V30 16 H 37.245137 26.937755 55.798922 0
M  V30 17 H 37.681437 26.394412 54.094705 0
M  V30 18 H 37.716233 29.267121 56.435603 0
M  V30 END ATOM
M  V30 BEGIN BOND
M  V30 1 1 2 1
M  V30 2 2 3 2
M  V30 3 1 4 3
M  V30 4 1 5 4
M  V30 5 2 6 4
M  V30 6 2 7 1
M  V30 7 1 8 3
M  V30 8 1 9 7
M  V30 9 2 9 8
M  V30 10 1 10 1
M  V30 11 1 11 2
M  V30 12 1 12 5
M  V30 13 1 13 7
M  V30 14 1 14 8
M  V30 15 1 15 9
M  V30 16 1 16 6
M  V30 17 1 17 6
M  V30 18 1 18 5
M  V30 END BOND
M  V30 END CTAB
M  END
>  <i_epik_Tot_Q>  (1) 
0

>  <i_epik_Tot_abs_Q>  (1) 
0

>  <i_i_glide_confnum>  (1) 
1

>  <i_i_glide_lignum>  (1) 
92

>  <i_i_glide_posenum>  (1) 
176

>  <i_i_glide_rotatable_bonds>  (1) 
1

>  <i_lp_mmshare_version>  (1) 
72125

>  <i_m_source_file_index>  (1) 
88

>  <i_f3d_flags>  (1) 
0

>  <num_sample>  (1) 
100

>  <b_lp_Chiralities_Consistent>  (1) 
1

>  <r_epik_Charging_Adjusted_Penalty>  (1) 
0.00088152279553634463

>  <r_epik_Ionization_Penalty>  (1) 
0.001176351566598113

>  <r_epik_Ionization_Penalty_Charging>  (1) 
0.00088152279553634463

>  <r_epik_Ionization_Penalty_Neutral>  (1) 
0.00029482877106176849

>  <r_epik_State_Penalty>  (1) 
-0

>  <r_glide_ring_energy>  (1) 
0

>  <r_i_docking_score>  (1) 
-6.1238443825440614

>  <r_i_glide_ecoul>  (1) 
-1.3209120539401904

>  <r_i_glide_eff_state_penalty>  (1) 
-0

>  <r_i_glide_einternal>  (1) 
0.096649187042859852

>  <r_i_glide_emodel>  (1) 
-27.30585958543222

>  <r_i_glide_emodel_strain>  (1) 
6.2869053749636805e-06

>  <r_i_glide_energy>  (1) 
-19.526349027974334

>  <r_i_glide_erotb>  (1) 
0

>  <r_i_glide_esite>  (1) 
0

>  <r_i_glide_evdw>  (1) 
-18.205436974034143

>  <r_i_glide_gscore>  (1) 
-6.1238443825440614

>  <r_i_glide_gscore_strain>  (1) 
0

>  <r_i_glide_hbond>  (1) 
0

>  <r_i_glide_ligand_efficiency>  (1) 
-0.68042715361600681

>  <r_i_glide_ligand_efficiency_ln>  (1) 
-1.9153626010363547

>  <r_i_glide_ligand_efficiency_sa>  (1) 
-1.415345515001909

>  <r_i_glide_lipo>  (1) 
-2.2783119636755202

>  <r_i_glide_metal>  (1) 
-0

>  <r_i_glide_rewards>  (1) 
-2.737123762075806

>  <r_lp_Energy>  (1) 
13.175675

>  <r_lp_tautomer_probability>  (1) 
1

>  <s_epik_Chemistry_Notes>  (1) 
This compound has an imine and may undergo hydrolysis.

>  <s_epik_cmdline>  (1) 
J2VwaWtfcHl0aG9uJywgJy1waHQnLCAnMS4wJywgJy1waCcsICc3LjQnLCAnLXRuJywgJzgnLCAnLW1hJywgJzUwMCcsICctaW1hZScsICc8aW5maWxlLm1hZT4nLCAnLW9tYWUnLCAnPG91dGZpbGUubWFlPic=

>  <s_epik_input>  (1) 
W2NIXTFbY0hdW2NIXVtjSF1bY0hdYzEvQyg9Ti9bSF0pW0NIM10=

>  <s_glide_docking_method>  (1) 
confgen

>  <s_i_glide_gridfile>  (1) 
gpcr_5ht2c_6bqh_protein_autoprepared_prepared

>  <s_lp_Force_Field>  (1) 
S-OPLS

>  <s_lp_Variant>  (1) 
Pocket2Mol_87-1

>  <s_m_source_file>  (1) 
generated_GPCR_5HT2C_ligand_Pocket2Mol_2026-06-23_prepared.sdf

>  <GenAI_Model>  (1) 
Pocket2Mol

>  <Protein>  (1) 
GPCR_5HT2C

$$$$
Pocket2Mol_69
     RDKit          3D

  0  0  0  0  0  0  0  0  0  0999 V3000
M  V30 BEGIN CTAB
M  V30 COUNTS 15 16 0 0 1
M  V30 BEGIN ATOM
M  V30 1 C 40.526686 30.488101 50.429668 0
M  V30 2 O 40.275352 30.910875 51.803064 0
M  V30 3 O 40.045137 29.135297 50.163585 0
M  V30 4 C 39.645138 29.824781 52.257944 0
M  V30 5 C 39.517819 28.849928 51.357472 0
M  V30 6 C 38.875127 27.640213 51.663794 0
M  V30 7 C 38.350196 27.459169 52.965236 0
M  V30 8 C 39.142960 29.696772 53.563450 0
M  V30 9 C 38.485068 28.497128 53.923924 0
M  V30 10 H 41.599373 30.534474 50.236132 0
M  V30 11 H 40.023460 31.182228 49.755380 0
M  V30 12 H 38.781135 26.863366 50.918961 0
M  V30 13 H 37.848762 26.538434 53.226164 0
M  V30 14 H 39.254862 30.499784 54.277187 0
M  V30 15 H 38.087879 28.372875 54.920774 0
M  V30 END ATOM
M  V30 BEGIN BOND
M  V30 1 1 2 1
M  V30 2 1 3 1
M  V30 3 1 4 2
M  V30 4 1 5 3
M  V30 5 1 5 4
M  V30 6 2 6 5
M  V30 7 1 7 6
M  V30 8 2 8 4
M  V30 9 2 9 7
M  V30 10 1 9 8
M  V30 11 1 10 1
M  V30 12 1 11 1
M  V30 13 1 12 6
M  V30 14 1 13 7
M  V30 15 1 14 8
M  V30 16 1 15 9
M  V30 END BOND
M  V30 END CTAB
M  END
>  <i_epik_Tot_Q>  (1) 
0

>  <i_epik_Tot_abs_Q>  (1) 
0

>  <i_i_glide_confnum>  (1) 
1

>  <i_i_glide_lignum>  (1) 
74

>  <i_i_glide_posenum>  (1) 
136

>  <i_i_glide_rotatable_bonds>  (1) 
0

>  <i_lp_mmshare_version>  (1) 
72125

>  <i_m_source_file_index>  (1) 
70

>  <i_f3d_flags>  (1) 
0

>  <num_sample>  (1) 
100

>  <b_lp_Chiralities_Consistent>  (1) 
1

>  <r_epik_Charging_Adjusted_Penalty>  (1) 
0

>  <r_epik_Ionization_Penalty>  (1) 
0

>  <r_epik_Ionization_Penalty_Charging>  (1) 
0

>  <r_epik_Ionization_Penalty_Neutral>  (1) 
0

>  <r_epik_State_Penalty>  (1) 
-0

>  <r_glide_ring_energy>  (1) 
0

>  <r_i_docking_score>  (1) 
-6.1235508464040169

>  <r_i_glide_ecoul>  (1) 
-0.66639942409993891

>  <r_i_glide_eff_state_penalty>  (1) 
-0

>  <r_i_glide_einternal>  (1) 
0

>  <r_i_glide_emodel>  (1) 
-29.356262036697846

>  <r_i_glide_emodel_strain>  (1) 
0

>  <r_i_glide_energy>  (1) 
-21.45885832454664

>  <r_i_glide_erotb>  (1) 
0

>  <r_i_glide_esite>  (1) 
0

>  <r_i_glide_evdw>  (1) 
-20.7924589004467

>  <r_i_glide_gscore>  (1) 
-6.1235508464040169

>  <r_i_glide_gscore_strain>  (1) 
0

>  <r_i_glide_hbond>  (1) 
0

>  <r_i_glide_ligand_efficiency>  (1) 
-0.68039453848933518

>  <r_i_glide_ligand_efficiency_ln>  (1) 
-1.9152707913642644

>  <r_i_glide_ligand_efficiency_sa>  (1) 
-1.4152776728045324

>  <r_i_glide_lipo>  (1) 
-1.7596858452912663

>  <r_i_glide_metal>  (1) 
-0

>  <r_i_glide_rewards>  (1) 
-3.2242821424754244

>  <r_lp_Energy>  (1) 
19.342499999999998

>  <r_lp_tautomer_probability>  (1) 
1

>  <s_epik_Chemistry_Notes>  (1) 
This compound contains an acetal/aminal-like group ( X-CH(R)-Y where X, Y are N, S, or O) that may be acid/base labile, releasing an aldehyde.

>  <s_epik_cmdline>  (1) 
J2VwaWtfcHl0aG9uJywgJy1waHQnLCAnMS4wJywgJy1waCcsICc3LjQnLCAnLXRuJywgJzgnLCAnLW1hJywgJzUwMCcsICctaW1hZScsICc8aW5maWxlLm1hZT4nLCAnLW9tYWUnLCAnPG91dGZpbGUubWFlPic=

>  <s_epik_input>  (1) 
TzFbQ0gyXU9jKGMxMilbY0hdW2NIXVtjSF1bY0hdMg==

>  <s_glide_docking_method>  (1) 
confgen

>  <s_i_glide_gridfile>  (1) 
gpcr_5ht2c_6bqh_protein_autoprepared_prepared

>  <s_lp_Force_Field>  (1) 
S-OPLS

>  <s_lp_Variant>  (1) 
Pocket2Mol_69-1

>  <s_m_source_file>  (1) 
generated_GPCR_5HT2C_ligand_Pocket2Mol_2026-06-23_prepared.sdf

>  <GenAI_Model>  (1) 
Pocket2Mol

>  <Protein>  (1) 
GPCR_5HT2C

$$$$
Pocket2Mol_83
     RDKit          3D

  0  0  0  0  0  0  0  0  0  0999 V3000
M  V30 BEGIN CTAB
M  V30 COUNTS 16 17 0 0 1
M  V30 BEGIN ATOM
M  V30 1 C 38.480402 27.974349 53.048700 0
M  V30 2 C 39.211359 28.745245 52.105888 0
M  V30 3 C 38.203003 28.477630 54.340173 0
M  V30 4 C 38.648836 29.757742 54.715796 0
M  V30 5 C 39.372947 30.537755 53.804110 0
M  V30 6 C 39.645135 28.537762 50.760472 0
M  V30 7 C 40.314780 29.673589 50.376783 0
M  V30 8 C 39.645137 30.034599 52.523235 0
M  V30 9 N 40.315580 30.569293 51.437939 0
M  V30 10 H 38.129901 26.989996 52.773489 0
M  V30 11 H 37.644970 27.876185 55.042619 0
M  V30 12 H 38.432302 30.139113 55.703843 0
M  V30 13 H 39.716197 31.522170 54.085237 0
M  V30 14 H 39.469001 27.653075 50.167760 0
M  V30 15 H 40.791141 29.918882 49.438504 0
M  V30 16 H 40.749286 31.482101 51.393219 0
M  V30 END ATOM
M  V30 BEGIN BOND
M  V30 1 2 2 1
M  V30 2 1 3 1
M  V30 3 2 4 3
M  V30 4 1 5 4
M  V30 5 1 6 2
M  V30 6 2 7 6
M  V30 7 1 8 2
M  V30 8 2 8 5
M  V30 9 1 9 7
M  V30 10 1 9 8
M  V30 11 1 10 1
M  V30 12 1 11 3
M  V30 13 1 12 4
M  V30 14 1 13 5
M  V30 15 1 14 6
M  V30 16 1 15 7
M  V30 17 1 16 9
M  V30 END BOND
M  V30 END CTAB
M  END
>  <i_epik_Tot_Q>  (1) 
0

>  <i_epik_Tot_abs_Q>  (1) 
0

>  <i_i_glide_confnum>  (1) 
1

>  <i_i_glide_lignum>  (1) 
88

>  <i_i_glide_posenum>  (1) 
156

>  <i_i_glide_rotatable_bonds>  (1) 
0

>  <i_lp_mmshare_version>  (1) 
72125

>  <i_m_source_file_index>  (1) 
84

>  <i_f3d_flags>  (1) 
0

>  <num_sample>  (1) 
100

>  <b_lp_Chiralities_Consistent>  (1) 
1

>  <r_epik_Charging_Adjusted_Penalty>  (1) 
0

>  <r_epik_Ionization_Penalty>  (1) 
6.3316205355000374e-10

>  <r_epik_Ionization_Penalty_Charging>  (1) 
0

>  <r_epik_Ionization_Penalty_Neutral>  (1) 
6.3316205355000374e-10

>  <r_epik_State_Penalty>  (1) 
-0

>  <r_glide_ring_energy>  (1) 
0

>  <r_i_docking_score>  (1) 
-6.1068175091953298

>  <r_i_glide_ecoul>  (1) 
-1.447520315725574

>  <r_i_glide_eff_state_penalty>  (1) 
-0

>  <r_i_glide_einternal>  (1) 
0

>  <r_i_glide_emodel>  (1) 
-29.632368278408453

>  <r_i_glide_emodel_strain>  (1) 
0

>  <r_i_glide_energy>  (1) 
-21.316294853072254

>  <r_i_glide_erotb>  (1) 
0

>  <r_i_glide_esite>  (1) 
0

>  <r_i_glide_evdw>  (1) 
-19.868774537346681

>  <r_i_glide_gscore>  (1) 
-6.1068175091953298

>  <r_i_glide_gscore_strain>  (1) 
0

>  <r_i_glide_hbond>  (1) 
0

>  <r_i_glide_ligand_efficiency>  (1) 
-0.67853527879948106

>  <r_i_glide_ligand_efficiency_ln>  (1) 
-1.9100370841898286

>  <r_i_glide_ligand_efficiency_sa>  (1) 
-1.4114102568008144

>  <r_i_glide_lipo>  (1) 
-2.3527646913123994

>  <r_i_glide_metal>  (1) 
-0

>  <r_i_glide_rewards>  (1) 
-2.5434860436567606

>  <r_lp_Energy>  (1) 
12.824451

>  <r_lp_tautomer_probability>  (1) 
1

>  <s_epik_cmdline>  (1) 
J2VwaWtfcHl0aG9uJywgJy1waHQnLCAnMS4wJywgJy1waCcsICc3LjQnLCAnLXRuJywgJzgnLCAnLW1hJywgJzUwMCcsICctaW1hZScsICc8aW5maWxlLm1hZT4nLCAnLW9tYWUnLCAnPG91dGZpbGUubWFlPic=

>  <s_epik_input>  (1) 
W2NIXTFbY0hdW2NIXVtjSF1jKGMxMilbbkhdW2NIXVtjSF0y

>  <s_glide_docking_method>  (1) 
confgen

>  <s_i_glide_gridfile>  (1) 
gpcr_5ht2c_6bqh_protein_autoprepared_prepared

>  <s_lp_Force_Field>  (1) 
S-OPLS

>  <s_lp_Variant>  (1) 
Pocket2Mol_83-1

>  <s_m_source_file>  (1) 
generated_GPCR_5HT2C_ligand_Pocket2Mol_2026-06-23_prepared.sdf

>  <GenAI_Model>  (1) 
Pocket2Mol

>  <Protein>  (1) 
GPCR_5HT2C

$$$$
Pocket2Mol_83
     RDKit          3D

  0  0  0  0  0  0  0  0  0  0999 V3000
M  V30 BEGIN CTAB
M  V30 COUNTS 16 17 0 0 1
M  V30 BEGIN ATOM
M  V30 1 C 38.667146 27.831443 52.256616 0
M  V30 2 C 38.845139 28.928414 53.140952 0
M  V30 3 C 39.245157 27.836781 50.967762 0
M  V30 4 C 40.009618 28.936104 50.535098 0
M  V30 5 C 40.202773 30.028834 51.387388 0
M  V30 6 C 38.405910 29.231611 54.468758 0
M  V30 7 C 38.910537 30.468395 54.782677 0
M  V30 8 C 39.630136 30.018833 52.667495 0
M  V30 9 N 39.646646 30.937751 53.699241 0
M  V30 10 H 38.078773 26.982113 52.572911 0
M  V30 11 H 39.096739 26.992230 50.308909 0
M  V30 12 H 40.445123 28.937727 49.546885 0
M  V30 13 H 40.787788 30.876367 51.060134 0
M  V30 14 H 37.791679 28.601346 55.095371 0
M  V30 15 H 38.806815 31.055309 55.685236 0
M  V30 16 H 40.112485 31.835373 53.692392 0
M  V30 END ATOM
M  V30 BEGIN BOND
M  V30 1 2 2 1
M  V30 2 1 3 1
M  V30 3 2 4 3
M  V30 4 1 5 4
M  V30 5 1 6 2
M  V30 6 2 7 6
M  V30 7 1 8 2
M  V30 8 2 8 5
M  V30 9 1 9 7
M  V30 10 1 9 8
M  V30 11 1 10 1
M  V30 12 1 11 3
M  V30 13 1 12 4
M  V30 14 1 13 5
M  V30 15 1 14 6
M  V30 16 1 15 7
M  V30 17 1 16 9
M  V30 END BOND
M  V30 END CTAB
M  END
>  <i_epik_Tot_Q>  (1) 
0

>  <i_epik_Tot_abs_Q>  (1) 
0

>  <i_i_glide_confnum>  (1) 
1

>  <i_i_glide_lignum>  (1) 
88

>  <i_i_glide_posenum>  (1) 
19

>  <i_i_glide_rotatable_bonds>  (1) 
0

>  <i_lp_mmshare_version>  (1) 
72125

>  <i_m_source_file_index>  (1) 
84

>  <i_f3d_flags>  (1) 
0

>  <num_sample>  (1) 
100

>  <b_lp_Chiralities_Consistent>  (1) 
1

>  <r_epik_Charging_Adjusted_Penalty>  (1) 
0

>  <r_epik_Ionization_Penalty>  (1) 
6.3316205355000374e-10

>  <r_epik_Ionization_Penalty_Charging>  (1) 
0

>  <r_epik_Ionization_Penalty_Neutral>  (1) 
6.3316205355000374e-10

>  <r_epik_State_Penalty>  (1) 
-0

>  <r_glide_ring_energy>  (1) 
0

>  <r_i_docking_score>  (1) 
-6.105451227043293

>  <r_i_glide_ecoul>  (1) 
-1.4312247772478495

>  <r_i_glide_eff_state_penalty>  (1) 
-0

>  <r_i_glide_einternal>  (1) 
0

>  <r_i_glide_emodel>  (1) 
-29.796602948816716

>  <r_i_glide_emodel_strain>  (1) 
0

>  <r_i_glide_energy>  (1) 
-21.48239008385897

>  <r_i_glide_erotb>  (1) 
0

>  <r_i_glide_esite>  (1) 
0

>  <r_i_glide_evdw>  (1) 
-20.051165306611122

>  <r_i_glide_gscore>  (1) 
-6.105451227043293

>  <r_i_glide_gscore_strain>  (1) 
0

>  <r_i_glide_hbond>  (1) 
0

>  <r_i_glide_ligand_efficiency>  (1) 
-0.678383469671477

>  <r_i_glide_ligand_efficiency_ln>  (1) 
-1.9096097503823375

>  <r_i_glide_ligand_efficiency_sa>  (1) 
-1.4110944810894614

>  <r_i_glide_lipo>  (1) 
-2.3071957300830022

>  <r_i_glide_metal>  (1) 
-0

>  <r_i_glide_rewards>  (1) 
-2.5810135150425575

>  <r_lp_Energy>  (1) 
12.824451

>  <r_lp_tautomer_probability>  (1) 
1

>  <s_epik_cmdline>  (1) 
J2VwaWtfcHl0aG9uJywgJy1waHQnLCAnMS4wJywgJy1waCcsICc3LjQnLCAnLXRuJywgJzgnLCAnLW1hJywgJzUwMCcsICctaW1hZScsICc8aW5maWxlLm1hZT4nLCAnLW9tYWUnLCAnPG91dGZpbGUubWFlPic=

>  <s_epik_input>  (1) 
W2NIXTFbY0hdW2NIXVtjSF1jKGMxMilbbkhdW2NIXVtjSF0y

>  <s_glide_docking_method>  (1) 
confgen

>  <s_i_glide_gridfile>  (1) 
gpcr_5ht2c_6bqh_protein_autoprepared_prepared

>  <s_lp_Force_Field>  (1) 
S-OPLS

>  <s_lp_Variant>  (1) 
Pocket2Mol_83-1

>  <s_m_source_file>  (1) 
generated_GPCR_5HT2C_ligand_Pocket2Mol_2026-06-23_prepared.sdf

>  <GenAI_Model>  (1) 
Pocket2Mol

>  <Protein>  (1) 
GPCR_5HT2C

$$$$
Pocket2Mol_54
     RDKit          3D

  0  0  0  0  0  0  0  0  0  0999 V3000
M  V30 BEGIN CTAB
M  V30 COUNTS 17 17 0 0 1
M  V30 BEGIN ATOM
M  V30 1 C 39.528892 30.263705 53.784679 0
M  V30 2 C 38.743763 29.133556 54.085866 0
M  V30 3 C 38.418376 28.210231 53.071511 0
M  V30 4 N 37.642400 27.093602 53.367758 0
M  V30 5 C 39.989197 30.471162 52.470173 0
M  V30 6 C 39.662815 29.549852 51.455021 0
M  V30 7 C 40.151340 29.778964 50.042458 0
M  V30 8 C 38.877402 28.418487 51.756819 0
M  V30 9 H 39.777665 30.971295 54.561806 0
M  V30 10 H 38.391009 28.976342 55.094639 0
M  V30 11 H 37.243134 26.537754 52.619958 0
M  V30 12 H 37.176083 27.026092 54.260160 0
M  V30 13 H 40.589317 31.337755 52.239665 0
M  V30 14 H 39.822996 30.755820 49.685798 0
M  V30 15 H 41.239407 29.746655 50.007105 0
M  V30 16 H 39.757578 29.020267 49.367713 0
M  V30 17 H 38.625486 27.711635 50.978749 0
M  V30 END ATOM
M  V30 BEGIN BOND
M  V30 1 1 2 1
M  V30 2 2 3 2
M  V30 3 1 4 3
M  V30 4 2 5 1
M  V30 5 1 6 5
M  V30 6 1 7 6
M  V30 7 1 8 3
M  V30 8 2 8 6
M  V30 9 1 9 1
M  V30 10 1 10 2
M  V30 11 1 11 4
M  V30 12 1 12 4
M  V30 13 1 13 5
M  V30 14 1 14 7
M  V30 15 1 15 7
M  V30 16 1 16 7
M  V30 17 1 17 8
M  V30 END BOND
M  V30 END CTAB
M  END
>  <i_epik_Tot_Q>  (1) 
0

>  <i_epik_Tot_abs_Q>  (1) 
0

>  <i_i_glide_confnum>  (1) 
1

>  <i_i_glide_lignum>  (1) 
58

>  <i_i_glide_posenum>  (1) 
58

>  <i_i_glide_rotatable_bonds>  (1) 
0

>  <i_lp_mmshare_version>  (1) 
72125

>  <i_m_source_file_index>  (1) 
55

>  <i_f3d_flags>  (1) 
0

>  <num_sample>  (1) 
100

>  <b_lp_Chiralities_Consistent>  (1) 
1

>  <r_epik_Charging_Adjusted_Penalty>  (1) 
0

>  <r_epik_Ionization_Penalty>  (1) 
0.0013172751215551738

>  <r_epik_Ionization_Penalty_Charging>  (1) 
0

>  <r_epik_Ionization_Penalty_Neutral>  (1) 
0.0013172751215551738

>  <r_epik_State_Penalty>  (1) 
-0

>  <r_glide_ring_energy>  (1) 
0

>  <r_i_docking_score>  (1) 
-6.0887063719967358

>  <r_i_glide_ecoul>  (1) 
-2.2338590014195354

>  <r_i_glide_eff_state_penalty>  (1) 
-0

>  <r_i_glide_einternal>  (1) 
0

>  <r_i_glide_emodel>  (1) 
-27.209206344161473

>  <r_i_glide_emodel_strain>  (1) 
0.0067644932147707948

>  <r_i_glide_energy>  (1) 
-19.814038701181783

>  <r_i_glide_erotb>  (1) 
0

>  <r_i_glide_esite>  (1) 
0

>  <r_i_glide_evdw>  (1) 
-17.580179699762247

>  <r_i_glide_gscore>  (1) 
-6.0887063719967358

>  <r_i_glide_gscore_strain>  (1) 
0

>  <r_i_glide_hbond>  (1) 
-0.26220125646145265

>  <r_i_glide_ligand_efficiency>  (1) 
-0.76108829649959198

>  <r_i_glide_ligand_efficiency_ln>  (1) 
-1.9772112214461282

>  <r_i_glide_ligand_efficiency_sa>  (1) 
-1.5221765929991842

>  <r_i_glide_lipo>  (1) 
-1.9751101938344289

>  <r_i_glide_metal>  (1) 
-0

>  <r_i_glide_rewards>  (1) 
-2.6373070864998116

>  <r_lp_Energy>  (1) 
5.5447359999999994

>  <r_lp_tautomer_probability>  (1) 
1

>  <s_epik_cmdline>  (1) 
J2VwaWtfcHl0aG9uJywgJy1waHQnLCAnMS4wJywgJy1waCcsICc3LjQnLCAnLXRuJywgJzgnLCAnLW1hJywgJzUwMCcsICctaW1hZScsICc8aW5maWxlLm1hZT4nLCAnLW9tYWUnLCAnPG91dGZpbGUubWFlPic=

>  <s_epik_input>  (1) 
W0NIM11jKFtjSF0xKVtjSF1bY0hdW2NIXWMxW05IMl0=

>  <s_glide_docking_method>  (1) 
confgen

>  <s_i_glide_gridfile>  (1) 
gpcr_5ht2c_6bqh_protein_autoprepared_prepared

>  <s_lp_Force_Field>  (1) 
S-OPLS

>  <s_lp_Variant>  (1) 
Pocket2Mol_54-1

>  <s_m_source_file>  (1) 
generated_GPCR_5HT2C_ligand_Pocket2Mol_2026-06-23_prepared.sdf

>  <GenAI_Model>  (1) 
Pocket2Mol

>  <Protein>  (1) 
GPCR_5HT2C

$$$$
Pocket2Mol_82
     RDKit          3D

  0  0  0  0  0  0  0  0  0  0999 V3000
M  V30 BEGIN CTAB
M  V30 COUNTS 16 16 0 0 1
M  V30 BEGIN ATOM
M  V30 1 C 38.141336 27.887075 54.182794 0
M  V30 2 C 38.845122 28.587262 53.043373 0
M  V30 3 C 38.979051 27.958317 51.778849 0
M  V30 4 C 39.381045 29.881112 53.237374 0
M  V30 5 C 40.045156 30.537179 52.181571 0
M  V30 6 C 39.644670 28.620943 50.729647 0
M  V30 7 C 40.176438 29.907829 50.930580 0
M  V30 8 O 38.045138 28.411477 55.288991 0
M  V30 9 N 37.645229 26.680625 53.900956 0
M  V30 10 H 38.574864 26.971617 51.611690 0
M  V30 11 H 39.284292 30.369858 54.197428 0
M  V30 12 H 40.451868 31.524382 52.332617 0
M  V30 13 H 39.744408 28.141833 49.768296 0
M  V30 14 H 40.685386 30.413572 50.123282 0
M  V30 15 H 37.741401 26.298965 52.972791 0
M  V30 16 H 37.166829 26.156782 54.618770 0
M  V30 END ATOM
M  V30 BEGIN BOND
M  V30 1 1 2 1
M  V30 2 1 3 2
M  V30 3 2 4 2
M  V30 4 1 5 4
M  V30 5 2 6 3
M  V30 6 2 7 5
M  V30 7 1 7 6
M  V30 8 2 8 1
M  V30 9 1 9 1
M  V30 10 1 10 3
M  V30 11 1 11 4
M  V30 12 1 12 5
M  V30 13 1 13 6
M  V30 14 1 14 7
M  V30 15 1 15 9
M  V30 16 1 16 9
M  V30 END BOND
M  V30 END CTAB
M  END
>  <i_epik_Tot_Q>  (1) 
0

>  <i_epik_Tot_abs_Q>  (1) 
0

>  <i_i_glide_confnum>  (1) 
1

>  <i_i_glide_lignum>  (1) 
87

>  <i_i_glide_posenum>  (1) 
61

>  <i_i_glide_rotatable_bonds>  (1) 
1

>  <i_lp_mmshare_version>  (1) 
72125

>  <i_m_source_file_index>  (1) 
83

>  <i_f3d_flags>  (1) 
0

>  <num_sample>  (1) 
100

>  <b_lp_Chiralities_Consistent>  (1) 
1

>  <r_epik_Charging_Adjusted_Penalty>  (1) 
0

>  <r_epik_Ionization_Penalty>  (1) 
4.7216645763340487e-07

>  <r_epik_Ionization_Penalty_Charging>  (1) 
0

>  <r_epik_Ionization_Penalty_Neutral>  (1) 
4.7216645763340487e-07

>  <r_epik_State_Penalty>  (1) 
-0

>  <r_glide_ring_energy>  (1) 
0

>  <r_i_docking_score>  (1) 
-6.0819043430784436

>  <r_i_glide_ecoul>  (1) 
-1.4489415431439054

>  <r_i_glide_eff_state_penalty>  (1) 
-0

>  <r_i_glide_einternal>  (1) 
0.0046233489265681271

>  <r_i_glide_emodel>  (1) 
-29.779532414186498

>  <r_i_glide_emodel_strain>  (1) 
0

>  <r_i_glide_energy>  (1) 
-21.080977104520635

>  <r_i_glide_erotb>  (1) 
0

>  <r_i_glide_esite>  (1) 
0

>  <r_i_glide_evdw>  (1) 
-19.632035561376728

>  <r_i_glide_gscore>  (1) 
-6.0819043430784436

>  <r_i_glide_gscore_strain>  (1) 
0

>  <r_i_glide_hbond>  (1) 
0

>  <r_i_glide_ligand_efficiency>  (1) 
-0.67576714923093817

>  <r_i_glide_ligand_efficiency_ln>  (1) 
-1.9022449615177195

>  <r_i_glide_ligand_efficiency_sa>  (1) 
-1.4056523152651768

>  <r_i_glide_lipo>  (1) 
-1.7004485310271387

>  <r_i_glide_metal>  (1) 
-0

>  <r_i_glide_rewards>  (1) 
-3.1825128025108826

>  <r_lp_Energy>  (1) 
9.4363049999999991

>  <r_lp_tautomer_probability>  (1) 
1

>  <s_epik_cmdline>  (1) 
J2VwaWtfcHl0aG9uJywgJy1waHQnLCAnMS4wJywgJy1waCcsICc3LjQnLCAnLXRuJywgJzgnLCAnLW1hJywgJzUwMCcsICctaW1hZScsICc8aW5maWxlLm1hZT4nLCAnLW9tYWUnLCAnPG91dGZpbGUubWFlPic=

>  <s_epik_input>  (1) 
Tz1DKFtOSDJdKWMxW2NIXVtjSF1bY0hdW2NIXVtjSF0x

>  <s_glide_docking_method>  (1) 
confgen

>  <s_i_glide_gridfile>  (1) 
gpcr_5ht2c_6bqh_protein_autoprepared_prepared

>  <s_lp_Force_Field>  (1) 
S-OPLS

>  <s_lp_Variant>  (1) 
Pocket2Mol_82-1

>  <s_m_source_file>  (1) 
generated_GPCR_5HT2C_ligand_Pocket2Mol_2026-06-23_prepared.sdf

>  <GenAI_Model>  (1) 
Pocket2Mol

>  <Protein>  (1) 
GPCR_5HT2C

$$$$
Pocket2Mol_73
     RDKit          3D

  0  0  0  0  0  0  0  0  0  0999 V3000
M  V30 BEGIN CTAB
M  V30 COUNTS 15 16 0 0 1
M  V30 BEGIN ATOM
M  V30 1 C 40.295163 30.156238 51.061864 0
M  V30 2 C 39.645084 29.737789 52.291105 0
M  V30 3 C 40.045188 29.179658 50.167527 0
M  V30 4 C 39.247096 28.137754 50.807629 0
M  V30 5 C 39.018534 28.496725 52.076267 0
M  V30 6 C 38.286560 27.818025 53.098908 0
M  V30 7 N 39.613092 30.355098 53.397137 0
M  V30 8 N 38.170388 28.339443 54.255065 0
M  V30 9 C 38.804962 29.693150 54.487773 0
M  V30 10 H 40.848251 31.078355 50.956039 0
M  V30 11 H 40.382588 29.168988 49.142209 0
M  V30 12 H 38.896397 27.231183 50.334400 0
M  V30 13 H 37.846231 26.853144 52.831641 0
M  V30 14 H 38.012896 30.383223 54.782790 0
M  V30 15 H 39.440560 29.616340 55.370144 0
M  V30 END ATOM
M  V30 BEGIN BOND
M  V30 1 1 2 1
M  V30 2 2 3 1
M  V30 3 1 4 3
M  V30 4 1 5 2
M  V30 5 2 5 4
M  V30 6 1 6 5
M  V30 7 2 7 2
M  V30 8 2 8 6
M  V30 9 1 9 7
M  V30 10 1 9 8
M  V30 11 1 10 1
M  V30 12 1 11 3
M  V30 13 1 12 4
M  V30 14 1 13 6
M  V30 15 1 14 9
M  V30 16 1 15 9
M  V30 END BOND
M  V30 END CTAB
M  END
>  <i_epik_Tot_Q>  (1) 
0

>  <i_epik_Tot_abs_Q>  (1) 
0

>  <i_i_glide_confnum>  (1) 
1

>  <i_i_glide_lignum>  (1) 
78

>  <i_i_glide_posenum>  (1) 
298

>  <i_i_glide_rotatable_bonds>  (1) 
0

>  <i_lp_mmshare_version>  (1) 
72125

>  <i_m_source_file_index>  (1) 
74

>  <i_f3d_flags>  (1) 
0

>  <num_sample>  (1) 
100

>  <b_lp_Chiralities_Consistent>  (1) 
1

>  <r_epik_Charging_Adjusted_Penalty>  (1) 
0

>  <r_epik_Ionization_Penalty>  (1) 
1.1225786931258508e-06

>  <r_epik_Ionization_Penalty_Charging>  (1) 
0

>  <r_epik_Ionization_Penalty_Neutral>  (1) 
1.1225786931258508e-06

>  <r_epik_State_Penalty>  (1) 
-0

>  <r_glide_ring_energy>  (1) 
0

>  <r_i_docking_score>  (1) 
-6.071506286149507

>  <r_i_glide_ecoul>  (1) 
-0.61894876313360025

>  <r_i_glide_eff_state_penalty>  (1) 
-0

>  <r_i_glide_einternal>  (1) 
0

>  <r_i_glide_emodel>  (1) 
-30.867029633302423

>  <r_i_glide_emodel_strain>  (1) 
0

>  <r_i_glide_energy>  (1) 
-22.663996911505464

>  <r_i_glide_erotb>  (1) 
0

>  <r_i_glide_esite>  (1) 
0

>  <r_i_glide_evdw>  (1) 
-22.045048148371865

>  <r_i_glide_gscore>  (1) 
-6.071506286149507

>  <r_i_glide_gscore_strain>  (1) 
0

>  <r_i_glide_hbond>  (1) 
0

>  <r_i_glide_ligand_efficiency>  (1) 
-0.67461180957216749

>  <r_i_glide_ligand_efficiency_ln>  (1) 
-1.898992748018973

>  <r_i_glide_ligand_efficiency_sa>  (1) 
-1.4032491119308375

>  <r_i_glide_lipo>  (1) 
-1.2597578699387442

>  <r_i_glide_metal>  (1) 
-0

>  <r_i_glide_rewards>  (1) 
-3.6166536943221299

>  <r_lp_Energy>  (1) 
3.4627279999999998

>  <r_lp_tautomer_probability>  (1) 
1

>  <s_epik_Chemistry_Notes>  (1) 
This compound has an imine and may undergo hydrolysis. This compound contains an acetal/aminal-like group ( X-CH(R)-Y where X, Y are N, S, or O) that may be acid/base labile, releasing an aldehyde.

>  <s_epik_cmdline>  (1) 
J2VwaWtfcHl0aG9uJywgJy1waHQnLCAnMS4wJywgJy1waCcsICc3LjQnLCAnLXRuJywgJzgnLCAnLW1hJywgJzUwMCcsICctaW1hZScsICc8aW5maWxlLm1hZT4nLCAnLW9tYWUnLCAnPG91dGZpbGUubWFlPic=

>  <s_epik_input>  (1) 
W0NIXTE9W0NIXVtDSF09QyhDMT0yKVtDSF09TltDSDJdTjI=

>  <s_glide_docking_method>  (1) 
confgen

>  <s_i_glide_gridfile>  (1) 
gpcr_5ht2c_6bqh_protein_autoprepared_prepared

>  <s_lp_Force_Field>  (1) 
S-OPLS

>  <s_lp_Variant>  (1) 
Pocket2Mol_73-1

>  <s_m_source_file>  (1) 
generated_GPCR_5HT2C_ligand_Pocket2Mol_2026-06-23_prepared.sdf

>  <GenAI_Model>  (1) 
Pocket2Mol

>  <Protein>  (1) 
GPCR_5HT2C

$$$$
Pocket2Mol_29
     RDKit          3D

  0  0  0  0  0  0  0  0  0  0999 V3000
M  V30 BEGIN CTAB
M  V30 COUNTS 13 13 0 0 1
M  V30 BEGIN ATOM
M  V30 1 C 38.847980 27.974055 51.283978 0
M  V30 2 C 39.654663 28.995441 50.747469 0
M  V30 3 C 38.435126 28.035855 52.628045 0
M  V30 4 C 40.051009 30.078444 51.555732 0
M  V30 5 O 37.645136 27.051796 53.143064 0
M  V30 6 C 39.645137 30.137755 52.903369 0
M  V30 7 C 38.835393 29.116436 53.439593 0
M  V30 8 H 38.543573 27.144727 50.661581 0
M  V30 9 H 39.967608 28.949720 49.714868 0
M  V30 10 H 40.669254 30.863231 51.143090 0
M  V30 11 H 37.215917 26.537753 52.468235 0
M  V30 12 H 39.950874 30.967805 53.523820 0
M  V30 13 H 38.518932 29.163580 54.471585 0
M  V30 END ATOM
M  V30 BEGIN BOND
M  V30 1 1 2 1
M  V30 2 2 3 1
M  V30 3 2 4 2
M  V30 4 1 5 3
M  V30 5 1 6 4
M  V30 6 1 7 3
M  V30 7 2 7 6
M  V30 8 1 8 1
M  V30 9 1 9 2
M  V30 10 1 10 4
M  V30 11 1 11 5
M  V30 12 1 12 6
M  V30 13 1 13 7
M  V30 END BOND
M  V30 END CTAB
M  END
>  <i_epik_Tot_Q>  (1) 
0

>  <i_epik_Tot_abs_Q>  (1) 
0

>  <i_i_glide_confnum>  (1) 
1

>  <i_i_glide_lignum>  (1) 
32

>  <i_i_glide_posenum>  (1) 
238

>  <i_i_glide_rotatable_bonds>  (1) 
1

>  <i_lp_mmshare_version>  (1) 
72125

>  <i_m_source_file_index>  (1) 
30

>  <i_f3d_flags>  (1) 
0

>  <num_sample>  (1) 
100

>  <b_lp_Chiralities_Consistent>  (1) 
1

>  <r_epik_Charging_Adjusted_Penalty>  (1) 
0

>  <r_epik_Ionization_Penalty>  (1) 
0.0022482968708945868

>  <r_epik_Ionization_Penalty_Charging>  (1) 
0

>  <r_epik_Ionization_Penalty_Neutral>  (1) 
0.0022482968708945868

>  <r_epik_State_Penalty>  (1) 
-0

>  <r_glide_ring_energy>  (1) 
0

>  <r_i_docking_score>  (1) 
-6.0714173242248357

>  <r_i_glide_ecoul>  (1) 
-3.6286725756116449

>  <r_i_glide_eff_state_penalty>  (1) 
-0

>  <r_i_glide_einternal>  (1) 
0.34225379545685986

>  <r_i_glide_emodel>  (1) 
-26.40408395715351

>  <r_i_glide_emodel_strain>  (1) 
0.010562783790957653

>  <r_i_glide_energy>  (1) 
-19.518187766026461

>  <r_i_glide_erotb>  (1) 
0

>  <r_i_glide_esite>  (1) 
0

>  <r_i_glide_evdw>  (1) 
-15.889515190414818

>  <r_i_glide_gscore>  (1) 
-6.0714173242248357

>  <r_i_glide_gscore_strain>  (1) 
0

>  <r_i_glide_hbond>  (1) 
-0.32000000000000001

>  <r_i_glide_ligand_efficiency>  (1) 
-0.86734533203211939

>  <r_i_glide_ligand_efficiency_ln>  (1) 
-2.0609648689291498

>  <r_i_glide_ligand_efficiency_sa>  (1) 
-1.6591719318763127

>  <r_i_glide_lipo>  (1) 
-1.9004621745362753

>  <r_i_glide_metal>  (1) 
-0

>  <r_i_glide_rewards>  (1) 
-2.5121785038260729

>  <r_lp_Energy>  (1) 
6.6738649999999993

>  <r_lp_tautomer_probability>  (1) 
1

>  <s_epik_cmdline>  (1) 
J2VwaWtfcHl0aG9uJywgJy1waHQnLCAnMS4wJywgJy1waCcsICc3LjQnLCAnLXRuJywgJzgnLCAnLW1hJywgJzUwMCcsICctaW1hZScsICc8aW5maWxlLm1hZT4nLCAnLW9tYWUnLCAnPG91dGZpbGUubWFlPic=

>  <s_epik_input>  (1) 
W09IXWMxW2NIXVtjSF1bY0hdW2NIXVtjSF0x

>  <s_glide_docking_method>  (1) 
confgen

>  <s_i_glide_gridfile>  (1) 
gpcr_5ht2c_6bqh_protein_autoprepared_prepared

>  <s_lp_Force_Field>  (1) 
S-OPLS

>  <s_lp_Variant>  (1) 
Pocket2Mol_29-1

>  <s_m_source_file>  (1) 
generated_GPCR_5HT2C_ligand_Pocket2Mol_2026-06-23_prepared.sdf

>  <GenAI_Model>  (1) 
Pocket2Mol

>  <Protein>  (1) 
GPCR_5HT2C

$$$$
Pocket2Mol_82
     RDKit          3D

  0  0  0  0  0  0  0  0  0  0999 V3000
M  V30 BEGIN CTAB
M  V30 COUNTS 16 16 0 0 1
M  V30 BEGIN ATOM
M  V30 1 C 38.271754 30.689420 54.634585 0
M  V30 2 C 38.670243 29.755132 53.513762 0
M  V30 3 C 39.684036 30.138840 52.607289 0
M  V30 4 C 38.026122 28.503837 53.350616 0
M  V30 5 C 38.396003 27.655731 52.290199 0
M  V30 6 C 40.045135 29.287149 51.545188 0
M  V30 7 C 39.401120 28.047111 51.386922 0
M  V30 8 O 38.860000 31.751862 54.816088 0
M  V30 9 N 37.245138 30.284880 55.383517 0
M  V30 10 H 40.179998 31.092850 52.722272 0
M  V30 11 H 37.249576 28.193743 54.032079 0
M  V30 12 H 37.903119 26.704765 52.167750 0
M  V30 13 H 40.817385 29.586936 50.852043 0
M  V30 14 H 39.678322 27.394103 50.571756 0
M  V30 15 H 36.795448 29.407712 55.189960 0
M  V30 16 H 36.900962 30.879544 56.136218 0
M  V30 END ATOM
M  V30 BEGIN BOND
M  V30 1 1 2 1
M  V30 2 1 3 2
M  V30 3 2 4 2
M  V30 4 1 5 4
M  V30 5 2 6 3
M  V30 6 2 7 5
M  V30 7 1 7 6
M  V30 8 2 8 1
M  V30 9 1 9 1
M  V30 10 1 10 3
M  V30 11 1 11 4
M  V30 12 1 12 5
M  V30 13 1 13 6
M  V30 14 1 14 7
M  V30 15 1 15 9
M  V30 16 1 16 9
M  V30 END BOND
M  V30 END CTAB
M  END
>  <i_epik_Tot_Q>  (1) 
0

>  <i_epik_Tot_abs_Q>  (1) 
0

>  <i_i_glide_confnum>  (1) 
1

>  <i_i_glide_lignum>  (1) 
87

>  <i_i_glide_posenum>  (1) 
176

>  <i_i_glide_rotatable_bonds>  (1) 
1

>  <i_lp_mmshare_version>  (1) 
72125

>  <i_m_source_file_index>  (1) 
83

>  <i_f3d_flags>  (1) 
0

>  <num_sample>  (1) 
100

>  <b_lp_Chiralities_Consistent>  (1) 
1

>  <r_epik_Charging_Adjusted_Penalty>  (1) 
0

>  <r_epik_Ionization_Penalty>  (1) 
4.7216645763340487e-07

>  <r_epik_Ionization_Penalty_Charging>  (1) 
0

>  <r_epik_Ionization_Penalty_Neutral>  (1) 
4.7216645763340487e-07

>  <r_epik_State_Penalty>  (1) 
-0

>  <r_glide_ring_energy>  (1) 
0

>  <r_i_docking_score>  (1) 
-6.0643676726034066

>  <r_i_glide_ecoul>  (1) 
-2.6451352090996219

>  <r_i_glide_eff_state_penalty>  (1) 
-0

>  <r_i_glide_einternal>  (1) 
0.32404971586031905

>  <r_i_glide_emodel>  (1) 
-30.098744917151386

>  <r_i_glide_emodel_strain>  (1) 
0

>  <r_i_glide_energy>  (1) 
-21.584991024594451

>  <r_i_glide_erotb>  (1) 
0

>  <r_i_glide_esite>  (1) 
-0.088398138619685443

>  <r_i_glide_evdw>  (1) 
-18.93985581549483

>  <r_i_glide_gscore>  (1) 
-6.0643676726034066

>  <r_i_glide_gscore_strain>  (1) 
0

>  <r_i_glide_hbond>  (1) 
-0.14389417835169716

>  <r_i_glide_ligand_efficiency>  (1) 
-0.67381863028926736

>  <r_i_glide_ligand_efficiency_ln>  (1) 
-1.8967599947752056

>  <r_i_glide_ligand_efficiency_sa>  (1) 
-1.4015992325356972

>  <r_i_glide_lipo>  (1) 
-1.8701973926821784

>  <r_i_glide_metal>  (1) 
-0

>  <r_i_glide_rewards>  (1) 
-2.618114890810161

>  <r_lp_Energy>  (1) 
9.4363049999999991

>  <r_lp_tautomer_probability>  (1) 
1

>  <s_epik_cmdline>  (1) 
J2VwaWtfcHl0aG9uJywgJy1waHQnLCAnMS4wJywgJy1waCcsICc3LjQnLCAnLXRuJywgJzgnLCAnLW1hJywgJzUwMCcsICctaW1hZScsICc8aW5maWxlLm1hZT4nLCAnLW9tYWUnLCAnPG91dGZpbGUubWFlPic=

>  <s_epik_input>  (1) 
Tz1DKFtOSDJdKWMxW2NIXVtjSF1bY0hdW2NIXVtjSF0x

>  <s_glide_docking_method>  (1) 
confgen

>  <s_i_glide_gridfile>  (1) 
gpcr_5ht2c_6bqh_protein_autoprepared_prepared

>  <s_lp_Force_Field>  (1) 
S-OPLS

>  <s_lp_Variant>  (1) 
Pocket2Mol_82-1

>  <s_m_source_file>  (1) 
generated_GPCR_5HT2C_ligand_Pocket2Mol_2026-06-23_prepared.sdf

>  <GenAI_Model>  (1) 
Pocket2Mol

>  <Protein>  (1) 
GPCR_5HT2C

$$$$
Pocket2Mol_96
     RDKit          3D

  0  0  0  0  0  0  0  0  0  0999 V3000
M  V30 BEGIN CTAB
M  V30 COUNTS 18 19 0 0 1
M  V30 BEGIN ATOM
M  V30 1 C 39.740050 28.745346 50.714689 0
M  V30 2 C 38.941311 27.901236 51.536290 0
M  V30 3 C 40.045092 29.864353 51.440898 0
M  V30 4 C 38.774655 28.536788 52.732207 0
M  V30 5 N 39.450861 29.737732 52.684952 0
M  V30 6 C 38.045127 28.148624 53.964281 0
M  V30 7 O 37.581256 27.018667 54.092336 0
M  V30 8 C 39.538458 30.685165 53.767793 0
M  V30 9 N 37.921815 29.100164 54.915500 0
M  V30 10 C 38.356575 30.493695 54.731702 0
M  V30 11 H 40.059853 28.553735 49.703556 0
M  V30 12 H 38.528416 26.937823 51.276877 0
M  V30 13 H 40.629407 30.738777 51.191901 0
M  V30 14 H 40.483580 30.519746 54.285719 0
M  V30 15 H 39.554356 31.698412 53.365603 0
M  V30 16 H 37.444455 28.869368 55.774226 0
M  V30 17 H 38.590949 30.927885 55.703992 0
M  V30 18 H 37.496866 31.050422 54.354799 0
M  V30 END ATOM
M  V30 BEGIN BOND
M  V30 1 1 2 1
M  V30 2 2 3 1
M  V30 3 2 4 2
M  V30 4 1 5 3
M  V30 5 1 5 4
M  V30 6 1 6 4
M  V30 7 2 7 6
M  V30 8 1 8 5
M  V30 9 1 9 6
M  V30 10 1 10 8
M  V30 11 1 10 9
M  V30 12 1 11 1
M  V30 13 1 12 2
M  V30 14 1 13 3
M  V30 15 1 14 8
M  V30 16 1 15 8
M  V30 17 1 16 9
M  V30 18 1 17 10
M  V30 19 1 18 10
M  V30 END BOND
M  V30 END CTAB
M  END
>  <i_epik_Tot_Q>  (1) 
0

>  <i_epik_Tot_abs_Q>  (1) 
0

>  <i_i_glide_confnum>  (1) 
1

>  <i_i_glide_lignum>  (1) 
101

>  <i_i_glide_posenum>  (1) 
203

>  <i_i_glide_rotatable_bonds>  (1) 
0

>  <i_lp_mmshare_version>  (1) 
72125

>  <i_m_source_file_index>  (1) 
97

>  <i_f3d_flags>  (1) 
0

>  <num_sample>  (1) 
100

>  <b_lp_Chiralities_Consistent>  (1) 
1

>  <r_epik_Charging_Adjusted_Penalty>  (1) 
0

>  <r_epik_Ionization_Penalty>  (1) 
5.1203149696400337e-08

>  <r_epik_Ionization_Penalty_Charging>  (1) 
0

>  <r_epik_Ionization_Penalty_Neutral>  (1) 
5.1203149696400337e-08

>  <r_epik_State_Penalty>  (1) 
-0

>  <r_glide_ring_energy>  (1) 
0

>  <r_i_docking_score>  (1) 
-6.0641472735686923

>  <r_i_glide_ecoul>  (1) 
-0.66942823937622453

>  <r_i_glide_eff_state_penalty>  (1) 
-0

>  <r_i_glide_einternal>  (1) 
0

>  <r_i_glide_emodel>  (1) 
-33.794678825830303

>  <r_i_glide_emodel_strain>  (1) 
0

>  <r_i_glide_energy>  (1) 
-24.473698003335816

>  <r_i_glide_erotb>  (1) 
0

>  <r_i_glide_esite>  (1) 
0

>  <r_i_glide_evdw>  (1) 
-23.804269763959592

>  <r_i_glide_gscore>  (1) 
-6.0641472735686923

>  <r_i_glide_gscore_strain>  (1) 
0

>  <r_i_glide_hbond>  (1) 
0

>  <r_i_glide_ligand_efficiency>  (1) 
-0.60641472735686919

>  <r_i_glide_ligand_efficiency_ln>  (1) 
-1.8361819916261655

>  <r_i_glide_ligand_efficiency_sa>  (1) 
-1.306480925163866

>  <r_i_glide_lipo>  (1) 
-1.69625775125046

>  <r_i_glide_metal>  (1) 
-0

>  <r_i_glide_rewards>  (1) 
-3.0772617982138195

>  <r_lp_Energy>  (1) 
15.907292999999999

>  <r_lp_tautomer_probability>  (1) 
1

>  <s_epik_cmdline>  (1) 
J2VwaWtfcHl0aG9uJywgJy1waHQnLCAnMS4wJywgJy1waCcsICc3LjQnLCAnLXRuJywgJzgnLCAnLW1hJywgJzUwMCcsICctaW1hZScsICc8aW5maWxlLm1hZT4nLCAnLW9tYWUnLCAnPG91dGZpbGUubWFlPic=

>  <s_epik_input>  (1) 
W2NIXTFbY0hdW2NIXW4oYzEyKVtDSDJdW0NIMl1bTkhdQzI9Tw==

>  <s_glide_docking_method>  (1) 
confgen

>  <s_i_glide_gridfile>  (1) 
gpcr_5ht2c_6bqh_protein_autoprepared_prepared

>  <s_lp_Force_Field>  (1) 
S-OPLS

>  <s_lp_Variant>  (1) 
Pocket2Mol_96-1

>  <s_m_source_file>  (1) 
generated_GPCR_5HT2C_ligand_Pocket2Mol_2026-06-23_prepared.sdf

>  <GenAI_Model>  (1) 
Pocket2Mol

>  <Protein>  (1) 
GPCR_5HT2C

$$$$
Pocket2Mol_91
     RDKit          3D

  0  0  0  0  0  0  0  0  0  0999 V3000
M  V30 BEGIN CTAB
M  V30 COUNTS 14 15 0 0 1
M  V30 BEGIN ATOM
M  V30 1 C 37.823574 27.988304 54.303806 0
M  V30 2 C 38.186158 27.518247 53.016419 0
M  V30 3 C 38.939248 28.370661 52.208265 0
M  V30 4 C 39.417686 28.203763 50.962478 0
M  V30 5 C 38.231438 29.298001 54.713339 0
M  V30 6 C 39.315037 29.570058 52.567757 0
M  V30 7 N 40.045139 30.207389 51.534870 0
M  V30 8 C 40.045137 29.330861 50.616450 0
M  V30 9 C 38.992895 30.104396 53.822518 0
M  V30 10 H 37.245138 27.364670 54.967759 0
M  V30 11 H 37.891884 26.537763 52.675285 0
M  V30 12 H 39.010471 27.456878 50.296723 0
M  V30 13 H 37.960467 29.672472 55.690137 0
M  V30 14 H 39.309555 31.098618 54.102809 0
M  V30 END ATOM
M  V30 BEGIN BOND
M  V30 1 1 2 1
M  V30 2 2 3 2
M  V30 3 1 4 3
M  V30 4 2 5 1
M  V30 5 1 6 3
M  V30 6 1 7 6
M  V30 7 2 8 4
M  V30 8 2 8 7
M  V30 9 1 9 5
M  V30 10 2 9 6
M  V30 11 1 10 1
M  V30 12 1 11 2
M  V30 13 1 12 4
M  V30 14 1 13 5
M  V30 15 1 14 9
M  V30 END BOND
M  V30 END CTAB
M  END
>  <i_epik_Tot_Q>  (1) 
0

>  <i_epik_Tot_abs_Q>  (1) 
0

>  <i_i_glide_confnum>  (1) 
1

>  <i_i_glide_lignum>  (1) 
96

>  <i_i_glide_posenum>  (1) 
348

>  <i_i_glide_rotatable_bonds>  (1) 
0

>  <i_lp_mmshare_version>  (1) 
72125

>  <i_m_source_file_index>  (1) 
92

>  <i_f3d_flags>  (1) 
0

>  <num_sample>  (1) 
100

>  <b_lp_Chiralities_Consistent>  (1) 
1

>  <r_epik_Charging_Adjusted_Penalty>  (1) 
0

>  <r_epik_Ionization_Penalty>  (1) 
7.4584844087238395e-05

>  <r_epik_Ionization_Penalty_Charging>  (1) 
0

>  <r_epik_Ionization_Penalty_Neutral>  (1) 
7.4584844087238395e-05

>  <r_epik_State_Penalty>  (1) 
-0

>  <r_glide_ring_energy>  (1) 
0

>  <r_i_docking_score>  (1) 
-6.0613589764787132

>  <r_i_glide_ecoul>  (1) 
-0.79705977610761247

>  <r_i_glide_eff_state_penalty>  (1) 
-0

>  <r_i_glide_einternal>  (1) 
0

>  <r_i_glide_emodel>  (1) 
-30.019296484317657

>  <r_i_glide_emodel_strain>  (1) 
0

>  <r_i_glide_energy>  (1) 
-21.894141641628391

>  <r_i_glide_erotb>  (1) 
0

>  <r_i_glide_esite>  (1) 
0

>  <r_i_glide_evdw>  (1) 
-21.097081865520778

>  <r_i_glide_gscore>  (1) 
-6.0613589764787132

>  <r_i_glide_gscore_strain>  (1) 
0

>  <r_i_glide_hbond>  (1) 
0

>  <r_i_glide_ligand_efficiency>  (1) 
-0.67348433071985703

>  <r_i_glide_ligand_efficiency_ln>  (1) 
-1.8958189610592693

>  <r_i_glide_ligand_efficiency_sa>  (1) 
-1.4009038614093134

>  <r_i_glide_lipo>  (1) 
-2.2452792501198657

>  <r_i_glide_metal>  (1) 
-0

>  <r_i_glide_rewards>  (1) 
-2.6416666666666666

>  <r_lp_Energy>  (1) 
14.311973999999999

>  <r_lp_tautomer_probability>  (1) 
1

>  <s_epik_Chemistry_Notes>  (1) 
This compound has an imine and may undergo hydrolysis.

>  <s_epik_cmdline>  (1) 
J2VwaWtfcHl0aG9uJywgJy1waHQnLCAnMS4wJywgJy1waCcsICc3LjQnLCAnLXRuJywgJzgnLCAnLW1hJywgJzUwMCcsICctaW1hZScsICc8aW5maWxlLm1hZT4nLCAnLW9tYWUnLCAnPG91dGZpbGUubWFlPic=

>  <s_epik_input>  (1) 
W2NIXTFbY0hdW2NIXVtjSF1jKGMxMilOPUM9W0NIXTI=

>  <s_glide_docking_method>  (1) 
confgen

>  <s_i_glide_gridfile>  (1) 
gpcr_5ht2c_6bqh_protein_autoprepared_prepared

>  <s_lp_Force_Field>  (1) 
S-OPLS

>  <s_lp_Variant>  (1) 
Pocket2Mol_91-1

>  <s_m_source_file>  (1) 
generated_GPCR_5HT2C_ligand_Pocket2Mol_2026-06-23_prepared.sdf

>  <GenAI_Model>  (1) 
Pocket2Mol

>  <Protein>  (1) 
GPCR_5HT2C

$$$$
Pocket2Mol_74
     RDKit          3D

  0  0  0  0  0  0  0  0  0  0999 V3000
M  V30 BEGIN CTAB
M  V30 COUNTS 16 17 0 0 1
M  V30 BEGIN ATOM
M  V30 1 C 40.045094 30.139370 51.925009 0
M  V30 2 C 39.245138 29.861946 53.097830 0
M  V30 3 C 38.493106 28.728221 53.193595 0
M  V30 4 C 39.084875 30.544043 54.157212 0
M  V30 5 C 38.488718 27.750208 52.098121 0
M  V30 6 N 37.817651 28.611008 54.292056 0
M  V30 7 C 38.140881 29.893274 55.141075 0
M  V30 8 C 40.047485 29.247970 50.904658 0
M  V30 9 C 39.244148 28.009218 50.995789 0
M  V30 10 H 40.629242 31.046457 51.861592 0
M  V30 11 H 39.554864 31.495567 54.359465 0
M  V30 12 H 37.882625 26.865586 52.212871 0
M  V30 13 H 38.633894 29.651899 56.083154 0
M  V30 14 H 37.252622 30.501963 55.320529 0
M  V30 15 H 40.637422 29.443130 50.021370 0
M  V30 16 H 39.253771 27.303368 50.177480 0
M  V30 END ATOM
M  V30 BEGIN BOND
M  V30 1 1 2 1
M  V30 2 1 3 2
M  V30 3 2 4 2
M  V30 4 1 5 3
M  V30 5 2 6 3
M  V30 6 1 7 4
M  V30 7 1 7 6
M  V30 8 2 8 1
M  V30 9 2 9 5
M  V30 10 1 9 8
M  V30 11 1 10 1
M  V30 12 1 11 4
M  V30 13 1 12 5
M  V30 14 1 13 7
M  V30 15 1 14 7
M  V30 16 1 15 8
M  V30 17 1 16 9
M  V30 END BOND
M  V30 END CTAB
M  END
>  <i_epik_Tot_Q>  (1) 
0

>  <i_epik_Tot_abs_Q>  (1) 
0

>  <i_i_glide_confnum>  (1) 
1

>  <i_i_glide_lignum>  (1) 
79

>  <i_i_glide_posenum>  (1) 
390

>  <i_i_glide_rotatable_bonds>  (1) 
0

>  <i_lp_mmshare_version>  (1) 
72125

>  <i_m_source_file_index>  (1) 
75

>  <i_f3d_flags>  (1) 
0

>  <num_sample>  (1) 
100

>  <b_lp_Chiralities_Consistent>  (1) 
1

>  <r_epik_Charging_Adjusted_Penalty>  (1) 
0

>  <r_epik_Ionization_Penalty>  (1) 
0

>  <r_epik_Ionization_Penalty_Charging>  (1) 
0

>  <r_epik_Ionization_Penalty_Neutral>  (1) 
0

>  <r_epik_State_Penalty>  (1) 
-0

>  <r_glide_ring_energy>  (1) 
0

>  <r_i_docking_score>  (1) 
-6.0599259873604341

>  <r_i_glide_ecoul>  (1) 
-1.3453087562869099

>  <r_i_glide_eff_state_penalty>  (1) 
-0

>  <r_i_glide_einternal>  (1) 
0

>  <r_i_glide_emodel>  (1) 
-31.28403401769782

>  <r_i_glide_emodel_strain>  (1) 
8.8763641770128743e-08

>  <r_i_glide_energy>  (1) 
-22.894563005734298

>  <r_i_glide_erotb>  (1) 
0

>  <r_i_glide_esite>  (1) 
0

>  <r_i_glide_evdw>  (1) 
-21.549254249447387

>  <r_i_glide_gscore>  (1) 
-6.0599259873604341

>  <r_i_glide_gscore_strain>  (1) 
0

>  <r_i_glide_hbond>  (1) 
0

>  <r_i_glide_ligand_efficiency>  (1) 
-0.67332510970671489

>  <r_i_glide_ligand_efficiency_ln>  (1) 
-1.8953707632290522

>  <r_i_glide_ligand_efficiency_sa>  (1) 
-1.4005726683555866

>  <r_i_glide_lipo>  (1) 
-2.0764520343406851

>  <r_i_glide_metal>  (1) 
-0

>  <r_i_glide_rewards>  (1) 
-2.704214927104343

>  <r_lp_Energy>  (1) 
8.0132250000000003

>  <r_lp_tautomer_probability>  (1) 
1

>  <s_epik_Chemistry_Notes>  (1) 
This compound has an imine and may undergo hydrolysis.

>  <s_epik_cmdline>  (1) 
J2VwaWtfcHl0aG9uJywgJy1waHQnLCAnMS4wJywgJy1waCcsICc3LjQnLCAnLXRuJywgJzgnLCAnLW1hJywgJzUwMCcsICctaW1hZScsICc8aW5maWxlLm1hZT4nLCAnLW9tYWUnLCAnPG91dGZpbGUubWFlPic=

>  <s_epik_input>  (1) 
W2NIXTFbY0hdW2NIXVtjSF1jKGMxPTIpPU5bQ0gyXVtDSF0y

>  <s_glide_docking_method>  (1) 
confgen

>  <s_i_glide_gridfile>  (1) 
gpcr_5ht2c_6bqh_protein_autoprepared_prepared

>  <s_lp_Force_Field>  (1) 
S-OPLS

>  <s_lp_Variant>  (1) 
Pocket2Mol_74-1

>  <s_m_source_file>  (1) 
generated_GPCR_5HT2C_ligand_Pocket2Mol_2026-06-23_prepared.sdf

>  <GenAI_Model>  (1) 
Pocket2Mol

>  <Protein>  (1) 
GPCR_5HT2C

$$$$
Pocket2Mol_90
     RDKit          3D

  0  0  0  0  0  0  0  0  0  0999 V3000
M  V30 BEGIN CTAB
M  V30 COUNTS 14 14 0 0 1
M  V30 BEGIN ATOM
M  V30 1 C 39.645137 29.048455 50.546108 0
M  V30 2 C 38.848896 28.187193 51.378013 0
M  V30 3 C 38.826177 28.664681 52.637202 0
M  V30 4 C 39.645086 29.889142 52.640234 0
M  V30 5 C 40.127931 30.066760 51.267678 0
M  V30 6 C 38.103243 28.033488 53.745944 0
M  V30 7 O 39.879398 30.618742 53.601028 0
M  V30 8 N 37.440613 26.937991 53.367737 0
M  V30 9 O 38.085842 28.442717 54.902709 0
M  V30 10 H 39.823810 28.899971 49.492071 0
M  V30 11 H 38.346476 27.294850 51.034776 0
M  V30 12 H 40.754929 30.881600 50.935479 0
M  V30 13 H 37.462142 26.635770 52.403144 0
M  V30 14 H 36.905835 26.418282 54.047686 0
M  V30 END ATOM
M  V30 BEGIN BOND
M  V30 1 1 2 1
M  V30 2 2 3 2
M  V30 3 1 4 3
M  V30 4 2 5 1
M  V30 5 1 5 4
M  V30 6 1 6 3
M  V30 7 2 7 4
M  V30 8 1 8 6
M  V30 9 2 9 6
M  V30 10 1 10 1
M  V30 11 1 11 2
M  V30 12 1 12 5
M  V30 13 1 13 8
M  V30 14 1 14 8
M  V30 END BOND
M  V30 END CTAB
M  END
>  <i_epik_Tot_Q>  (1) 
0

>  <i_epik_Tot_abs_Q>  (1) 
0

>  <i_i_glide_confnum>  (1) 
1

>  <i_i_glide_lignum>  (1) 
95

>  <i_i_glide_posenum>  (1) 
141

>  <i_i_glide_rotatable_bonds>  (1) 
1

>  <i_lp_mmshare_version>  (1) 
72125

>  <i_m_source_file_index>  (1) 
91

>  <i_f3d_flags>  (1) 
0

>  <num_sample>  (1) 
100

>  <b_lp_Chiralities_Consistent>  (1) 
1

>  <r_epik_Charging_Adjusted_Penalty>  (1) 
0.0065050288304222097

>  <r_epik_Ionization_Penalty>  (1) 
0.0032614418865694397

>  <r_epik_Ionization_Penalty_Charging>  (1) 
0

>  <r_epik_Ionization_Penalty_Neutral>  (1) 
0.0032614418865694397

>  <r_epik_State_Penalty>  (1) 
0.0065050288304222097

>  <r_glide_ring_energy>  (1) 
0

>  <r_i_docking_score>  (1) 
-6.0592378817798123

>  <r_i_glide_ecoul>  (1) 
-1.8338181242124945

>  <r_i_glide_eff_state_penalty>  (1) 
0.0065050288304222097

>  <r_i_glide_einternal>  (1) 
0.82456214884840806

>  <r_i_glide_emodel>  (1) 
-30.664158205789565

>  <r_i_glide_emodel_strain>  (1) 
0

>  <r_i_glide_energy>  (1) 
-21.735105806308141

>  <r_i_glide_erotb>  (1) 
0

>  <r_i_glide_esite>  (1) 
0

>  <r_i_glide_evdw>  (1) 
-19.901287682095646

>  <r_i_glide_gscore>  (1) 
-6.0657429106102345

>  <r_i_glide_gscore_strain>  (1) 
0

>  <r_i_glide_hbond>  (1) 
0

>  <r_i_glide_ligand_efficiency>  (1) 
-0.6732486535310902

>  <r_i_glide_ligand_efficiency_ln>  (1) 
-1.8951555435708838

>  <r_i_glide_ligand_efficiency_sa>  (1) 
-1.4004136331014974

>  <r_i_glide_lipo>  (1) 
-1.3180028009127303

>  <r_i_glide_metal>  (1) 
-0

>  <r_i_glide_rewards>  (1) 
-3.4776030069608481

>  <r_lp_Energy>  (1) 
1.7710899999999998

>  <s_epik_cmdline>  (1) 
J2VwaWtfcHl0aG9uJywgJy1waHQnLCAnMS4wJywgJy1waCcsICc3LjQnLCAnLXRuJywgJzgnLCAnLW1hJywgJzUwMCcsICctaW1hZScsICc8aW5maWxlLm1hZT4nLCAnLW9tYWUnLCAnPG91dGZpbGUubWFlPic=

>  <s_epik_input>  (1) 
Tz1DMVtDSF09W0NIXVtDSF09QzFDKD1PKVtOSDJd

>  <s_glide_docking_method>  (1) 
confgen

>  <s_i_glide_gridfile>  (1) 
gpcr_5ht2c_6bqh_protein_autoprepared_prepared

>  <s_lp_Force_Field>  (1) 
S-OPLS

>  <s_lp_Variant>  (1) 
Pocket2Mol_90-1

>  <s_m_source_file>  (1) 
generated_GPCR_5HT2C_ligand_Pocket2Mol_2026-06-23_prepared.sdf

>  <GenAI_Model>  (1) 
Pocket2Mol

>  <Protein>  (1) 
GPCR_5HT2C

$$$$
Pocket2Mol_97
     RDKit          3D

  0  0  0  0  0  0  0  0  0  0999 V3000
M  V30 BEGIN CTAB
M  V30 COUNTS 17 18 0 0 1
M  V30 BEGIN ATOM
M  V30 1 C 37.645137 28.654939 54.321334 0
M  V30 2 C 38.444235 28.695403 53.164902 0
M  V30 3 C 39.264337 29.803580 52.911535 0
M  V30 4 C 38.434229 27.642259 52.242827 0
M  V30 5 C 39.245529 27.740304 51.096579 0
M  V30 6 C 39.295057 30.884416 53.814342 0
M  V30 7 C 38.493407 30.851517 54.973004 0
M  V30 8 C 40.044929 29.814113 51.738221 0
M  V30 9 N 40.045134 28.803224 50.836430 0
M  V30 10 C 37.666270 29.737701 55.226691 0
M  V30 11 H 37.011650 27.802653 54.513167 0
M  V30 12 H 37.811097 26.774865 52.402121 0
M  V30 13 H 39.254355 26.944838 50.366037 0
M  V30 14 H 39.925271 31.737754 53.617889 0
M  V30 15 H 38.509238 31.681024 55.665725 0
M  V30 16 H 40.684472 30.655774 51.513671 0
M  V30 17 H 37.047579 29.716698 56.113720 0
M  V30 END ATOM
M  V30 BEGIN BOND
M  V30 1 2 2 1
M  V30 2 1 3 2
M  V30 3 1 4 2
M  V30 4 2 5 4
M  V30 5 2 6 3
M  V30 6 1 7 6
M  V30 7 1 8 3
M  V30 8 1 9 5
M  V30 9 2 9 8
M  V30 10 1 10 1
M  V30 11 2 10 7
M  V30 12 1 11 1
M  V30 13 1 12 4
M  V30 14 1 13 5
M  V30 15 1 14 6
M  V30 16 1 15 7
M  V30 17 1 16 8
M  V30 18 1 17 10
M  V30 END BOND
M  V30 END CTAB
M  END
>  <i_epik_Tot_Q>  (1) 
0

>  <i_epik_Tot_abs_Q>  (1) 
0

>  <i_i_glide_confnum>  (1) 
1

>  <i_i_glide_lignum>  (1) 
102

>  <i_i_glide_posenum>  (1) 
285

>  <i_i_glide_rotatable_bonds>  (1) 
0

>  <i_lp_mmshare_version>  (1) 
72125

>  <i_m_source_file_index>  (1) 
98

>  <i_f3d_flags>  (1) 
0

>  <num_sample>  (1) 
100

>  <b_lp_Chiralities_Consistent>  (1) 
1

>  <r_epik_Charging_Adjusted_Penalty>  (1) 
0.015036794032578672

>  <r_epik_Ionization_Penalty>  (1) 
0.01503679403257876

>  <r_epik_Ionization_Penalty_Charging>  (1) 
0

>  <r_epik_Ionization_Penalty_Neutral>  (1) 
0.01503679403257876

>  <r_epik_State_Penalty>  (1) 
0.015036794032578672

>  <r_glide_ring_energy>  (1) 
0

>  <r_i_docking_score>  (1) 
-6.0546070837000405

>  <r_i_glide_ecoul>  (1) 
-1.477784351017811

>  <r_i_glide_eff_state_penalty>  (1) 
0.015036794032578672

>  <r_i_glide_einternal>  (1) 
0

>  <r_i_glide_emodel>  (1) 
-31.782841899904682

>  <r_i_glide_emodel_strain>  (1) 
0

>  <r_i_glide_energy>  (1) 
-23.148464554709115

>  <r_i_glide_erotb>  (1) 
0

>  <r_i_glide_esite>  (1) 
0

>  <r_i_glide_evdw>  (1) 
-21.670680203691305

>  <r_i_glide_gscore>  (1) 
-6.0696438777326192

>  <r_i_glide_gscore_strain>  (1) 
0

>  <r_i_glide_hbond>  (1) 
0

>  <r_i_glide_ligand_efficiency>  (1) 
-0.6054607083700041

>  <r_i_glide_ligand_efficiency_ln>  (1) 
-1.833293287898625

>  <r_i_glide_ligand_efficiency_sa>  (1) 
-1.3044255535636147

>  <r_i_glide_lipo>  (1) 
-2.1625904087015404

>  <r_i_glide_metal>  (1) 
-0

>  <r_i_glide_rewards>  (1) 
-2.6018518061938418

>  <r_lp_Energy>  (1) 
19.776892999999998

>  <s_epik_cmdline>  (1) 
J2VwaWtfcHl0aG9uJywgJy1waHQnLCAnMS4wJywgJy1waCcsICc3LjQnLCAnLXRuJywgJzgnLCAnLW1hJywgJzUwMCcsICctaW1hZScsICc8aW5maWxlLm1hZT4nLCAnLW9tYWUnLCAnPG91dGZpbGUubWFlPic=

>  <s_epik_input>  (1) 
W2NIXTFbY0hdW2NIXVtjSF1jKGMxMilbY0hdbltjSF1bY0hdMg==

>  <s_glide_docking_method>  (1) 
confgen

>  <s_i_glide_gridfile>  (1) 
gpcr_5ht2c_6bqh_protein_autoprepared_prepared

>  <s_lp_Force_Field>  (1) 
S-OPLS

>  <s_lp_Variant>  (1) 
Pocket2Mol_97-1

>  <s_m_source_file>  (1) 
generated_GPCR_5HT2C_ligand_Pocket2Mol_2026-06-23_prepared.sdf

>  <GenAI_Model>  (1) 
Pocket2Mol

>  <Protein>  (1) 
GPCR_5HT2C

$$$$
Pocket2Mol_91
     RDKit          3D

  0  0  0  0  0  0  0  0  0  0999 V3000
M  V30 BEGIN CTAB
M  V30 COUNTS 14 15 0 0 1
M  V30 BEGIN ATOM
M  V30 1 C 37.868598 29.533193 54.841369 0
M  V30 2 C 37.767252 28.469830 53.906439 0
M  V30 3 C 38.604624 28.513715 52.789254 0
M  V30 4 C 38.732920 27.666987 51.753456 0
M  V30 5 C 38.807078 30.587371 54.604193 0
M  V30 6 C 39.457997 29.476402 52.557070 0
M  V30 7 N 40.148002 29.266023 51.338981 0
M  V30 8 C 39.645138 28.176421 50.925401 0
M  V30 9 C 39.616838 30.554335 53.435025 0
M  V30 10 H 37.244748 29.547477 55.723334 0
M  V30 11 H 37.070947 27.657311 54.054504 0
M  V30 12 H 37.968239 26.946853 51.511732 0
M  V30 13 H 38.896875 31.403694 55.305960 0
M  V30 14 H 40.328498 31.337757 53.228136 0
M  V30 END ATOM
M  V30 BEGIN BOND
M  V30 1 1 2 1
M  V30 2 2 3 2
M  V30 3 1 4 3
M  V30 4 2 5 1
M  V30 5 1 6 3
M  V30 6 1 7 6
M  V30 7 2 8 4
M  V30 8 2 8 7
M  V30 9 1 9 5
M  V30 10 2 9 6
M  V30 11 1 10 1
M  V30 12 1 11 2
M  V30 13 1 12 4
M  V30 14 1 13 5
M  V30 15 1 14 9
M  V30 END BOND
M  V30 END CTAB
M  END
>  <i_epik_Tot_Q>  (1) 
0

>  <i_epik_Tot_abs_Q>  (1) 
0

>  <i_i_glide_confnum>  (1) 
1

>  <i_i_glide_lignum>  (1) 
96

>  <i_i_glide_posenum>  (1) 
77

>  <i_i_glide_rotatable_bonds>  (1) 
0

>  <i_lp_mmshare_version>  (1) 
72125

>  <i_m_source_file_index>  (1) 
92

>  <i_f3d_flags>  (1) 
0

>  <num_sample>  (1) 
100

>  <b_lp_Chiralities_Consistent>  (1) 
1

>  <r_epik_Charging_Adjusted_Penalty>  (1) 
0

>  <r_epik_Ionization_Penalty>  (1) 
7.4584844087238395e-05

>  <r_epik_Ionization_Penalty_Charging>  (1) 
0

>  <r_epik_Ionization_Penalty_Neutral>  (1) 
7.4584844087238395e-05

>  <r_epik_State_Penalty>  (1) 
-0

>  <r_glide_ring_energy>  (1) 
0

>  <r_i_docking_score>  (1) 
-6.0519390589908451

>  <r_i_glide_ecoul>  (1) 
-1.1626331785788222

>  <r_i_glide_eff_state_penalty>  (1) 
-0

>  <r_i_glide_einternal>  (1) 
0

>  <r_i_glide_emodel>  (1) 
-30.085561736902235

>  <r_i_glide_emodel_strain>  (1) 
0

>  <r_i_glide_energy>  (1) 
-21.973034143067775

>  <r_i_glide_erotb>  (1) 
0

>  <r_i_glide_esite>  (1) 
0

>  <r_i_glide_evdw>  (1) 
-20.810400964488952

>  <r_i_glide_gscore>  (1) 
-6.0519390589908451

>  <r_i_glide_gscore_strain>  (1) 
0

>  <r_i_glide_hbond>  (1) 
0

>  <r_i_glide_ligand_efficiency>  (1) 
-0.67243767322120496

>  <r_i_glide_ligand_efficiency_ln>  (1) 
-1.8928726814783345

>  <r_i_glide_ligand_efficiency_sa>  (1) 
-1.3987267260780913

>  <r_i_glide_lipo>  (1) 
-2.1793606396163443

>  <r_i_glide_metal>  (1) 
-0

>  <r_i_glide_rewards>  (1) 
-2.65766339436323

>  <r_lp_Energy>  (1) 
14.311973999999999

>  <r_lp_tautomer_probability>  (1) 
1

>  <s_epik_Chemistry_Notes>  (1) 
This compound has an imine and may undergo hydrolysis.

>  <s_epik_cmdline>  (1) 
J2VwaWtfcHl0aG9uJywgJy1waHQnLCAnMS4wJywgJy1waCcsICc3LjQnLCAnLXRuJywgJzgnLCAnLW1hJywgJzUwMCcsICctaW1hZScsICc8aW5maWxlLm1hZT4nLCAnLW9tYWUnLCAnPG91dGZpbGUubWFlPic=

>  <s_epik_input>  (1) 
W2NIXTFbY0hdW2NIXVtjSF1jKGMxMilOPUM9W0NIXTI=

>  <s_glide_docking_method>  (1) 
confgen

>  <s_i_glide_gridfile>  (1) 
gpcr_5ht2c_6bqh_protein_autoprepared_prepared

>  <s_lp_Force_Field>  (1) 
S-OPLS

>  <s_lp_Variant>  (1) 
Pocket2Mol_91-1

>  <s_m_source_file>  (1) 
generated_GPCR_5HT2C_ligand_Pocket2Mol_2026-06-23_prepared.sdf

>  <GenAI_Model>  (1) 
Pocket2Mol

>  <Protein>  (1) 
GPCR_5HT2C

$$$$
Pocket2Mol_98
     RDKit          3D

  0  0  0  0  0  0  0  0  0  0999 V3000
M  V30 BEGIN CTAB
M  V30 COUNTS 18 19 0 0 1
M  V30 BEGIN ATOM
M  V30 1 C 37.980332 31.098585 55.811701 0
M  V30 2 O 37.302553 29.835904 55.527038 0
M  V30 3 O 39.040162 31.393647 54.850375 0
M  V30 4 C 37.932652 29.495554 54.401321 0
M  V30 5 C 38.887319 30.350416 54.028987 0
M  V30 6 C 39.645220 30.150054 52.864660 0
M  V30 7 C 39.377380 29.010424 52.067373 0
M  V30 8 C 40.164144 28.767168 50.801586 0
M  V30 9 C 37.632369 28.347745 53.649832 0
M  V30 10 C 38.362075 28.100569 52.465179 0
M  V30 11 H 37.245156 31.903907 55.769681 0
M  V30 12 H 38.397752 31.063284 56.817647 0
M  V30 13 H 40.411706 30.856948 52.580793 0
M  V30 14 H 40.092578 27.723628 50.493662 0
M  V30 15 H 39.774395 29.384994 49.992376 0
M  V30 16 H 41.213681 29.016828 50.967320 0
M  V30 17 H 36.854447 27.668421 53.967734 0
M  V30 18 H 38.145976 27.226623 51.866401 0
M  V30 END ATOM
M  V30 BEGIN BOND
M  V30 1 1 2 1
M  V30 2 1 3 1
M  V30 3 1 4 2
M  V30 4 1 5 3
M  V30 5 2 5 4
M  V30 6 1 6 5
M  V30 7 2 7 6
M  V30 8 1 8 7
M  V30 9 1 9 4
M  V30 10 1 10 7
M  V30 11 2 10 9
M  V30 12 1 11 1
M  V30 13 1 12 1
M  V30 14 1 13 6
M  V30 15 1 14 8
M  V30 16 1 15 8
M  V30 17 1 16 8
M  V30 18 1 17 9
M  V30 19 1 18 10
M  V30 END BOND
M  V30 END CTAB
M  END
>  <i_epik_Tot_Q>  (1) 
0

>  <i_epik_Tot_abs_Q>  (1) 
0

>  <i_i_glide_confnum>  (1) 
1

>  <i_i_glide_lignum>  (1) 
103

>  <i_i_glide_posenum>  (1) 
152

>  <i_i_glide_rotatable_bonds>  (1) 
0

>  <i_lp_mmshare_version>  (1) 
72125

>  <i_m_source_file_index>  (1) 
99

>  <i_f3d_flags>  (1) 
0

>  <num_sample>  (1) 
100

>  <b_lp_Chiralities_Consistent>  (1) 
1

>  <r_epik_Charging_Adjusted_Penalty>  (1) 
0

>  <r_epik_Ionization_Penalty>  (1) 
0

>  <r_epik_Ionization_Penalty_Charging>  (1) 
0

>  <r_epik_Ionization_Penalty_Neutral>  (1) 
0

>  <r_epik_State_Penalty>  (1) 
-0

>  <r_glide_ring_energy>  (1) 
0

>  <r_i_docking_score>  (1) 
-6.0435060239961853

>  <r_i_glide_ecoul>  (1) 
-1.5751635780662296

>  <r_i_glide_eff_state_penalty>  (1) 
-0

>  <r_i_glide_einternal>  (1) 
0

>  <r_i_glide_emodel>  (1) 
-29.135858435237655

>  <r_i_glide_emodel_strain>  (1) 
0

>  <r_i_glide_energy>  (1) 
-20.914171100570808

>  <r_i_glide_erotb>  (1) 
0

>  <r_i_glide_esite>  (1) 
-0.098825027145363134

>  <r_i_glide_evdw>  (1) 
-19.339007522504577

>  <r_i_glide_gscore>  (1) 
-6.0435060239961853

>  <r_i_glide_gscore_strain>  (1) 
0

>  <r_i_glide_hbond>  (1) 
0

>  <r_i_glide_ligand_efficiency>  (1) 
-0.60435060239961857

>  <r_i_glide_ligand_efficiency_ln>  (1) 
-1.8299319635447409

>  <r_i_glide_ligand_efficiency_sa>  (1) 
-1.3020339027514045

>  <r_i_glide_lipo>  (1) 
-2.0339986369891294

>  <r_i_glide_metal>  (1) 
-0

>  <r_i_glide_rewards>  (1) 
-2.7074574470265289

>  <r_lp_Energy>  (1) 
16.823695000000001

>  <r_lp_tautomer_probability>  (1) 
1

>  <s_epik_Chemistry_Notes>  (1) 
This compound contains an acetal/aminal-like group ( X-CH(R)-Y where X, Y are N, S, or O) that may be acid/base labile, releasing an aldehyde.

>  <s_epik_cmdline>  (1) 
J2VwaWtfcHl0aG9uJywgJy1waHQnLCAnMS4wJywgJy1waCcsICc3LjQnLCAnLXRuJywgJzgnLCAnLW1hJywgJzUwMCcsICctaW1hZScsICc8aW5maWxlLm1hZT4nLCAnLW9tYWUnLCAnPG91dGZpbGUubWFlPic=

>  <s_epik_input>  (1) 
TzFbQ0gyXU9jKGMxMilbY0hdYyhbQ0gzXSlbY0hdW2NIXTI=

>  <s_glide_docking_method>  (1) 
confgen

>  <s_i_glide_gridfile>  (1) 
gpcr_5ht2c_6bqh_protein_autoprepared_prepared

>  <s_lp_Force_Field>  (1) 
S-OPLS

>  <s_lp_Variant>  (1) 
Pocket2Mol_98-1

>  <s_m_source_file>  (1) 
generated_GPCR_5HT2C_ligand_Pocket2Mol_2026-06-23_prepared.sdf

>  <GenAI_Model>  (1) 
Pocket2Mol

>  <Protein>  (1) 
GPCR_5HT2C

$$$$
Pocket2Mol_87
     RDKit          3D

  0  0  0  0  0  0  0  0  0  0999 V3000
M  V30 BEGIN CTAB
M  V30 COUNTS 18 18 0 0 1
M  V30 BEGIN ATOM
M  V30 1 C 38.326281 27.718311 52.442502 0
M  V30 2 C 37.983132 28.521793 53.545181 0
M  V30 3 C 38.637650 29.763324 53.761308 0
M  V30 4 C 38.256471 30.628569 54.928354 0
M  V30 5 N 37.245138 30.137764 55.729068 0
M  V30 6 C 38.848859 31.809729 55.183977 0
M  V30 7 C 39.319456 28.136753 51.542205 0
M  V30 8 C 39.645133 30.173152 52.844998 0
M  V30 9 C 39.978034 29.360808 51.742359 0
M  V30 10 H 37.821121 26.777374 52.286802 0
M  V30 11 H 37.214552 28.186026 54.223163 0
M  V30 12 H 36.711212 29.338454 55.431588 0
M  V30 13 H 39.576112 27.516214 50.695496 0
M  V30 14 H 40.157431 31.110277 52.978463 0
M  V30 15 H 40.740875 29.681636 51.047838 0
M  V30 16 H 38.544133 32.406758 56.031683 0
M  V30 17 H 39.634427 32.194589 54.563112 0
M  V30 18 H 36.751033 30.759754 56.374110 0
M  V30 END ATOM
M  V30 BEGIN BOND
M  V30 1 1 2 1
M  V30 2 2 3 2
M  V30 3 1 4 3
M  V30 4 1 5 4
M  V30 5 2 6 4
M  V30 6 2 7 1
M  V30 7 1 8 3
M  V30 8 1 9 7
M  V30 9 2 9 8
M  V30 10 1 10 1
M  V30 11 1 11 2
M  V30 12 1 12 5
M  V30 13 1 13 7
M  V30 14 1 14 8
M  V30 15 1 15 9
M  V30 16 1 16 6
M  V30 17 1 17 6
M  V30 18 1 18 5
M  V30 END BOND
M  V30 END CTAB
M  END
>  <i_epik_Tot_Q>  (1) 
0

>  <i_epik_Tot_abs_Q>  (1) 
0

>  <i_i_glide_confnum>  (1) 
1

>  <i_i_glide_lignum>  (1) 
92

>  <i_i_glide_posenum>  (1) 
99

>  <i_i_glide_rotatable_bonds>  (1) 
1

>  <i_lp_mmshare_version>  (1) 
72125

>  <i_m_source_file_index>  (1) 
88

>  <i_f3d_flags>  (1) 
0

>  <num_sample>  (1) 
100

>  <b_lp_Chiralities_Consistent>  (1) 
1

>  <r_epik_Charging_Adjusted_Penalty>  (1) 
0.00088152279553634463

>  <r_epik_Ionization_Penalty>  (1) 
0.001176351566598113

>  <r_epik_Ionization_Penalty_Charging>  (1) 
0.00088152279553634463

>  <r_epik_Ionization_Penalty_Neutral>  (1) 
0.00029482877106176849

>  <r_epik_State_Penalty>  (1) 
-0

>  <r_glide_ring_energy>  (1) 
0

>  <r_i_docking_score>  (1) 
-6.0345117435466094

>  <r_i_glide_ecoul>  (1) 
-3.2873496169853991

>  <r_i_glide_eff_state_penalty>  (1) 
-0

>  <r_i_glide_einternal>  (1) 
0.027809375451463891

>  <r_i_glide_emodel>  (1) 
-28.170962889323125

>  <r_i_glide_emodel_strain>  (1) 
0.043966283956809349

>  <r_i_glide_energy>  (1) 
-20.515182413855086

>  <r_i_glide_erotb>  (1) 
0

>  <r_i_glide_esite>  (1) 
-0.10000000000000001

>  <r_i_glide_evdw>  (1) 
-17.227832796869688

>  <r_i_glide_gscore>  (1) 
-6.0345117435466094

>  <r_i_glide_gscore_strain>  (1) 
0

>  <r_i_glide_hbond>  (1) 
-0.16

>  <r_i_glide_ligand_efficiency>  (1) 
-0.67050130483851211

>  <r_i_glide_ligand_efficiency_ln>  (1) 
-1.8874219178479752

>  <r_i_glide_ligand_efficiency_sa>  (1) 
-1.3946989175297828

>  <r_i_glide_lipo>  (1) 
-1.958251834757976

>  <r_i_glide_metal>  (1) 
-0

>  <r_i_glide_rewards>  (1) 
-2.4617658263973388

>  <r_lp_Energy>  (1) 
13.175675

>  <r_lp_tautomer_probability>  (1) 
1

>  <s_epik_Chemistry_Notes>  (1) 
This compound has an imine and may undergo hydrolysis.

>  <s_epik_cmdline>  (1) 
J2VwaWtfcHl0aG9uJywgJy1waHQnLCAnMS4wJywgJy1waCcsICc3LjQnLCAnLXRuJywgJzgnLCAnLW1hJywgJzUwMCcsICctaW1hZScsICc8aW5maWxlLm1hZT4nLCAnLW9tYWUnLCAnPG91dGZpbGUubWFlPic=

>  <s_epik_input>  (1) 
W2NIXTFbY0hdW2NIXVtjSF1bY0hdYzEvQyg9Ti9bSF0pW0NIM10=

>  <s_glide_docking_method>  (1) 
confgen

>  <s_i_glide_gridfile>  (1) 
gpcr_5ht2c_6bqh_protein_autoprepared_prepared

>  <s_lp_Force_Field>  (1) 
S-OPLS

>  <s_lp_Variant>  (1) 
Pocket2Mol_87-1

>  <s_m_source_file>  (1) 
generated_GPCR_5HT2C_ligand_Pocket2Mol_2026-06-23_prepared.sdf

>  <GenAI_Model>  (1) 
Pocket2Mol

>  <Protein>  (1) 
GPCR_5HT2C

$$$$
Pocket2Mol_65
     RDKit          3D

  0  0  0  0  0  0  0  0  0  0999 V3000
M  V30 BEGIN CTAB
M  V30 COUNTS 20 20 0 0 1
M  V30 BEGIN ATOM
M  V30 1 C 38.845250 28.391429 52.576069 0
M  V30 2 C 37.855622 28.567942 53.723714 0
M  V30 3 C 39.559340 29.736849 52.486141 0
M  V30 4 C 39.167242 30.486821 53.767760 0
M  V30 5 N 38.533552 29.490156 54.623195 0
M  V30 6 N 37.645692 30.065973 55.586771 0 CHG=1
M  V30 7 C 37.668136 29.632118 56.856181 0
M  V30 8 N 36.845160 30.137754 57.782712 0
M  V30 9 H 39.561201 27.605391 52.820287 0
M  V30 10 H 38.351590 28.112604 51.643833 0
M  V30 11 H 37.613671 27.624106 54.213844 0
M  V30 12 H 36.927628 29.007681 53.357929 0
M  V30 13 H 40.635316 29.616385 52.395250 0
M  V30 14 H 39.245142 30.284344 51.599011 0
M  V30 15 H 38.458246 31.279494 53.523895 0
M  V30 16 H 40.025954 30.944783 54.260393 0
M  V30 17 H 38.367699 28.853001 57.137817 0
M  V30 18 H 36.150019 30.883823 57.508829 0
M  V30 19 H 36.879626 29.804703 58.733461 0
M  V30 20 H 37.026938 30.795561 55.253419 0
M  V30 END ATOM
M  V30 BEGIN BOND
M  V30 1 1 2 1
M  V30 2 1 3 1
M  V30 3 1 4 3
M  V30 4 1 5 2
M  V30 5 1 5 4
M  V30 6 1 6 5
M  V30 7 2 7 6
M  V30 8 1 8 7
M  V30 9 1 9 1
M  V30 10 1 10 1
M  V30 11 1 11 2
M  V30 12 1 12 2
M  V30 13 1 13 3
M  V30 14 1 14 3
M  V30 15 1 15 4
M  V30 16 1 16 4
M  V30 17 1 17 7
M  V30 18 1 18 8
M  V30 19 1 19 8
M  V30 20 1 20 6
M  V30 END BOND
M  V30 END CTAB
M  END
>  <i_epik_Tot_Q>  (1) 
1

>  <i_epik_Tot_abs_Q>  (1) 
1

>  <i_i_glide_confnum>  (1) 
1

>  <i_i_glide_lignum>  (1) 
69

>  <i_i_glide_posenum>  (1) 
218

>  <i_i_glide_rotatable_bonds>  (1) 
1

>  <i_lp_mmshare_version>  (1) 
72125

>  <i_m_source_file_index>  (1) 
66

>  <i_f3d_flags>  (1) 
0

>  <num_sample>  (1) 
100

>  <b_lp_Chiralities_Consistent>  (1) 
1

>  <r_epik_Charging_Adjusted_Penalty>  (1) 
1.6312684749255997e-05

>  <r_epik_Ionization_Penalty>  (1) 
1.6401951855999153e-05

>  <r_epik_Ionization_Penalty_Charging>  (1) 
1.6312684749255997e-05

>  <r_epik_Ionization_Penalty_Neutral>  (1) 
8.9267106743156534e-08

>  <r_epik_State_Penalty>  (1) 
-0

>  <r_glide_ring_energy>  (1) 
0

>  <r_i_docking_score>  (1) 
-6.0323129511525924

>  <r_i_glide_ecoul>  (1) 
-9.8132967787568841

>  <r_i_glide_eff_state_penalty>  (1) 
-0

>  <r_i_glide_einternal>  (1) 
0.0017618847340895583

>  <r_i_glide_emodel>  (1) 
-32.238549554132064

>  <r_i_glide_emodel_strain>  (1) 
0.031593922598741386

>  <r_i_glide_energy>  (1) 
-19.55896901989373

>  <r_i_glide_erotb>  (1) 
0

>  <r_i_glide_esite>  (1) 
-0.22855649806829967

>  <r_i_glide_evdw>  (1) 
-9.7456722411368446

>  <r_i_glide_gscore>  (1) 
-6.0323129511525924

>  <r_i_glide_gscore_strain>  (1) 
0

>  <r_i_glide_hbond>  (1) 
-0.12295857113662095

>  <r_i_glide_ligand_efficiency>  (1) 
-0.75403911889407405

>  <r_i_glide_ligand_efficiency_ln>  (1) 
-1.9588983487772154

>  <r_i_glide_ligand_efficiency_sa>  (1) 
-1.5080782377881483

>  <r_i_glide_lipo>  (1) 
-1.2531815229368035

>  <r_i_glide_metal>  (1) 
-0

>  <r_i_glide_rewards>  (1) 
-2.4683382301404935

>  <r_lp_Energy>  (1) 
12.792574

>  <r_lp_tautomer_probability>  (1) 
1

>  <s_epik_Chemistry_Notes>  (1) 
This compound has an imine and may undergo hydrolysis.

>  <s_epik_cmdline>  (1) 
J2VwaWtfcHl0aG9uJywgJy1waHQnLCAnMS4wJywgJy1waCcsICc3LjQnLCAnLXRuJywgJzgnLCAnLW1hJywgJzUwMCcsICctaW1hZScsICc8aW5maWxlLm1hZT4nLCAnLW9tYWUnLCAnPG91dGZpbGUubWFlPic=

>  <s_epik_input>  (1) 
W0NIMl0xW0NIMl1bQ0gyXVtDSDJdTjEvTj1bQ0hdL1tOSDJd

>  <s_glide_docking_method>  (1) 
confgen

>  <s_i_glide_gridfile>  (1) 
gpcr_5ht2c_6bqh_protein_autoprepared_prepared

>  <s_lp_Force_Field>  (1) 
S-OPLS

>  <s_lp_Variant>  (1) 
Pocket2Mol_65-1

>  <s_m_source_file>  (1) 
generated_GPCR_5HT2C_ligand_Pocket2Mol_2026-06-23_prepared.sdf

>  <GenAI_Model>  (1) 
Pocket2Mol

>  <Protein>  (1) 
GPCR_5HT2C

$$$$
Pocket2Mol_57
     RDKit          3D

  0  0  0  0  0  0  0  0  0  0999 V3000
M  V30 BEGIN CTAB
M  V30 COUNTS 16 16 0 0 1
M  V30 BEGIN ATOM
M  V30 1 C 39.245140 29.761890 53.303659 0
M  V30 2 C 38.642966 28.532078 52.969009 0
M  V30 3 C 40.045137 30.436080 52.358775 0
M  V30 4 C 40.242695 29.882247 51.079304 0
M  V30 5 O 41.011891 30.537753 50.161730 0
M  V30 6 C 37.779338 27.811162 53.983223 0
M  V30 7 C 39.645138 28.651247 50.746619 0
M  V30 8 C 38.845248 27.976059 51.689346 0
M  V30 9 H 39.092366 30.189849 54.283905 0
M  V30 10 H 40.503207 31.376663 52.616346 0
M  V30 11 H 41.269752 31.411407 50.421372 0
M  V30 12 H 37.382355 26.878915 53.580354 0
M  V30 13 H 38.357978 27.577936 54.877470 0
M  V30 14 H 36.937379 28.440332 54.272085 0
M  V30 15 H 39.796673 28.226769 49.767824 0
M  V30 16 H 38.384473 27.033675 51.428774 0
M  V30 END ATOM
M  V30 BEGIN BOND
M  V30 1 1 2 1
M  V30 2 2 3 1
M  V30 3 1 4 3
M  V30 4 1 5 4
M  V30 5 1 6 2
M  V30 6 2 7 4
M  V30 7 2 8 2
M  V30 8 1 8 7
M  V30 9 1 9 1
M  V30 10 1 10 3
M  V30 11 1 11 5
M  V30 12 1 12 6
M  V30 13 1 13 6
M  V30 14 1 14 6
M  V30 15 1 15 7
M  V30 16 1 16 8
M  V30 END BOND
M  V30 END CTAB
M  END
>  <i_epik_Tot_Q>  (1) 
0

>  <i_epik_Tot_abs_Q>  (1) 
0

>  <i_i_glide_confnum>  (1) 
1

>  <i_i_glide_lignum>  (1) 
61

>  <i_i_glide_posenum>  (1) 
164

>  <i_i_glide_rotatable_bonds>  (1) 
1

>  <i_lp_mmshare_version>  (1) 
72125

>  <i_m_source_file_index>  (1) 
58

>  <i_f3d_flags>  (1) 
0

>  <num_sample>  (1) 
100

>  <b_lp_Chiralities_Consistent>  (1) 
1

>  <r_epik_Charging_Adjusted_Penalty>  (1) 
0

>  <r_epik_Ionization_Penalty>  (1) 
0.0011734046256504545

>  <r_epik_Ionization_Penalty_Charging>  (1) 
0

>  <r_epik_Ionization_Penalty_Neutral>  (1) 
0.0011734046256504545

>  <r_epik_State_Penalty>  (1) 
-0

>  <r_glide_ring_energy>  (1) 
0

>  <r_i_docking_score>  (1) 
-6.0286180194996568

>  <r_i_glide_ecoul>  (1) 
-2.1587944634633924

>  <r_i_glide_eff_state_penalty>  (1) 
-0

>  <r_i_glide_einternal>  (1) 
0.072979108867023149

>  <r_i_glide_emodel>  (1) 
-28.72348580764633

>  <r_i_glide_emodel_strain>  (1) 
0

>  <r_i_glide_energy>  (1) 
-20.700553422523846

>  <r_i_glide_erotb>  (1) 
0

>  <r_i_glide_esite>  (1) 
0

>  <r_i_glide_evdw>  (1) 
-18.541758959060456

>  <r_i_glide_gscore>  (1) 
-6.0286180194996568

>  <r_i_glide_gscore_strain>  (1) 
0

>  <r_i_glide_hbond>  (1) 
0

>  <r_i_glide_ligand_efficiency>  (1) 
-0.7535772524374571

>  <r_i_glide_ligand_efficiency_ln>  (1) 
-1.9576984780854274

>  <r_i_glide_ligand_efficiency_sa>  (1) 
-1.5071545048749144

>  <r_i_glide_lipo>  (1) 
-2.0781196462166083

>  <r_i_glide_metal>  (1) 
-0

>  <r_i_glide_rewards>  (1) 
-2.6995912558105171

>  <r_lp_Energy>  (1) 
4.2645419999999996

>  <r_lp_tautomer_probability>  (1) 
1

>  <s_epik_cmdline>  (1) 
J2VwaWtfcHl0aG9uJywgJy1waHQnLCAnMS4wJywgJy1waCcsICc3LjQnLCAnLXRuJywgJzgnLCAnLW1hJywgJzUwMCcsICctaW1hZScsICc8aW5maWxlLm1hZT4nLCAnLW9tYWUnLCAnPG91dGZpbGUubWFlPic=

>  <s_epik_input>  (1) 
W0NIM11jMVtjSF1bY0hdYyhbT0hdKVtjSF1bY0hdMQ==

>  <s_glide_docking_method>  (1) 
confgen

>  <s_i_glide_gridfile>  (1) 
gpcr_5ht2c_6bqh_protein_autoprepared_prepared

>  <s_lp_Force_Field>  (1) 
S-OPLS

>  <s_lp_Variant>  (1) 
Pocket2Mol_57-1

>  <s_m_source_file>  (1) 
generated_GPCR_5HT2C_ligand_Pocket2Mol_2026-06-23_prepared.sdf

>  <GenAI_Model>  (1) 
Pocket2Mol

>  <Protein>  (1) 
GPCR_5HT2C

$$$$
Pocket2Mol_57
     RDKit          3D

  0  0  0  0  0  0  0  0  0  0999 V3000
M  V30 BEGIN CTAB
M  V30 COUNTS 16 16 0 0 1
M  V30 BEGIN ATOM
M  V30 1 C 38.845159 27.972923 51.687706 0
M  V30 2 C 38.642377 28.526358 52.967461 0
M  V30 3 C 39.645138 28.649618 50.746467 0
M  V30 4 C 40.242291 29.880419 51.081080 0
M  V30 5 O 41.010874 30.537755 50.164657 0
M  V30 6 C 37.777539 27.800572 53.977925 0
M  V30 7 C 40.045126 30.432046 52.360934 0
M  V30 8 C 39.245137 29.756303 53.304794 0
M  V30 9 H 38.385176 27.030245 51.426562 0
M  V30 10 H 39.796415 28.226882 49.767761 0
M  V30 11 H 41.266092 31.410632 50.428830 0
M  V30 12 H 37.711956 28.352265 54.916545 0
M  V30 13 H 36.768073 27.675170 53.586228 0
M  V30 14 H 38.187972 26.812865 54.189904 0
M  V30 15 H 40.501858 31.372698 52.619801 0
M  V30 16 H 39.092173 30.183623 54.285123 0
M  V30 END ATOM
M  V30 BEGIN BOND
M  V30 1 1 2 1
M  V30 2 2 3 1
M  V30 3 1 4 3
M  V30 4 1 5 4
M  V30 5 1 6 2
M  V30 6 2 7 4
M  V30 7 2 8 2
M  V30 8 1 8 7
M  V30 9 1 9 1
M  V30 10 1 10 3
M  V30 11 1 11 5
M  V30 12 1 12 6
M  V30 13 1 13 6
M  V30 14 1 14 6
M  V30 15 1 15 7
M  V30 16 1 16 8
M  V30 END BOND
M  V30 END CTAB
M  END
>  <i_epik_Tot_Q>  (1) 
0

>  <i_epik_Tot_abs_Q>  (1) 
0

>  <i_i_glide_confnum>  (1) 
1

>  <i_i_glide_lignum>  (1) 
61

>  <i_i_glide_posenum>  (1) 
333

>  <i_i_glide_rotatable_bonds>  (1) 
1

>  <i_lp_mmshare_version>  (1) 
72125

>  <i_m_source_file_index>  (1) 
58

>  <i_f3d_flags>  (1) 
0

>  <num_sample>  (1) 
100

>  <b_lp_Chiralities_Consistent>  (1) 
1

>  <r_epik_Charging_Adjusted_Penalty>  (1) 
0

>  <r_epik_Ionization_Penalty>  (1) 
0.0011734046256504545

>  <r_epik_Ionization_Penalty_Charging>  (1) 
0

>  <r_epik_Ionization_Penalty_Neutral>  (1) 
0.0011734046256504545

>  <r_epik_State_Penalty>  (1) 
-0

>  <r_glide_ring_energy>  (1) 
0

>  <r_i_docking_score>  (1) 
-6.028590984233797

>  <r_i_glide_ecoul>  (1) 
-2.1312560654705175

>  <r_i_glide_eff_state_penalty>  (1) 
-0

>  <r_i_glide_einternal>  (1) 
0.062989339469262579

>  <r_i_glide_emodel>  (1) 
-28.782759261549621

>  <r_i_glide_emodel_strain>  (1) 
0

>  <r_i_glide_energy>  (1) 
-20.754868134110158

>  <r_i_glide_erotb>  (1) 
0

>  <r_i_glide_esite>  (1) 
0

>  <r_i_glide_evdw>  (1) 
-18.623612068639641

>  <r_i_glide_gscore>  (1) 
-6.028590984233797

>  <r_i_glide_gscore_strain>  (1) 
0

>  <r_i_glide_hbond>  (1) 
0

>  <r_i_glide_ligand_efficiency>  (1) 
-0.75357387302922463

>  <r_i_glide_ligand_efficiency_ln>  (1) 
-1.9576896988098693

>  <r_i_glide_ligand_efficiency_sa>  (1) 
-1.5071477460584495

>  <r_i_glide_lipo>  (1) 
-2.0783982315753313

>  <r_i_glide_metal>  (1) 
-0

>  <r_i_glide_rewards>  (1) 
-2.699323739405906

>  <r_lp_Energy>  (1) 
4.2645419999999996

>  <r_lp_tautomer_probability>  (1) 
1

>  <s_epik_cmdline>  (1) 
J2VwaWtfcHl0aG9uJywgJy1waHQnLCAnMS4wJywgJy1waCcsICc3LjQnLCAnLXRuJywgJzgnLCAnLW1hJywgJzUwMCcsICctaW1hZScsICc8aW5maWxlLm1hZT4nLCAnLW9tYWUnLCAnPG91dGZpbGUubWFlPic=

>  <s_epik_input>  (1) 
W0NIM11jMVtjSF1bY0hdYyhbT0hdKVtjSF1bY0hdMQ==

>  <s_glide_docking_method>  (1) 
confgen

>  <s_i_glide_gridfile>  (1) 
gpcr_5ht2c_6bqh_protein_autoprepared_prepared

>  <s_lp_Force_Field>  (1) 
S-OPLS

>  <s_lp_Variant>  (1) 
Pocket2Mol_57-1

>  <s_m_source_file>  (1) 
generated_GPCR_5HT2C_ligand_Pocket2Mol_2026-06-23_prepared.sdf

>  <GenAI_Model>  (1) 
Pocket2Mol

>  <Protein>  (1) 
GPCR_5HT2C

$$$$
Pocket2Mol_74
     RDKit          3D

  0  0  0  0  0  0  0  0  0  0999 V3000
M  V30 BEGIN CTAB
M  V30 COUNTS 16 17 0 0 1
M  V30 BEGIN ATOM
M  V30 1 C 39.144733 29.649779 53.563989 0
M  V30 2 C 39.645133 29.749381 52.211657 0
M  V30 3 C 39.563445 28.705582 51.344748 0
M  V30 4 C 40.188728 30.726725 51.615127 0
M  V30 5 C 38.957323 27.436570 51.768989 0
M  V30 6 N 40.045135 28.937754 50.167707 0
M  V30 7 C 40.556937 30.418365 50.185803 0
M  V30 8 C 38.581415 28.486799 53.972571 0
M  V30 9 C 38.484443 27.339991 53.042105 0
M  V30 10 H 39.216004 30.491185 54.238390 0
M  V30 11 H 40.376836 31.693866 52.056399 0
M  V30 12 H 38.910324 26.630949 51.049782 0
M  V30 13 H 40.012549 31.048576 49.481622 0
M  V30 14 H 41.631772 30.488075 50.014044 0
M  V30 15 H 38.200815 28.397521 54.979435 0
M  V30 16 H 38.032697 26.417682 53.375799 0
M  V30 END ATOM
M  V30 BEGIN BOND
M  V30 1 1 2 1
M  V30 2 1 3 2
M  V30 3 2 4 2
M  V30 4 1 5 3
M  V30 5 2 6 3
M  V30 6 1 7 4
M  V30 7 1 7 6
M  V30 8 2 8 1
M  V30 9 2 9 5
M  V30 10 1 9 8
M  V30 11 1 10 1
M  V30 12 1 11 4
M  V30 13 1 12 5
M  V30 14 1 13 7
M  V30 15 1 14 7
M  V30 16 1 15 8
M  V30 17 1 16 9
M  V30 END BOND
M  V30 END CTAB
M  END
>  <i_epik_Tot_Q>  (1) 
0

>  <i_epik_Tot_abs_Q>  (1) 
0

>  <i_i_glide_confnum>  (1) 
1

>  <i_i_glide_lignum>  (1) 
79

>  <i_i_glide_posenum>  (1) 
314

>  <i_i_glide_rotatable_bonds>  (1) 
0

>  <i_lp_mmshare_version>  (1) 
72125

>  <i_m_source_file_index>  (1) 
75

>  <i_f3d_flags>  (1) 
0

>  <num_sample>  (1) 
100

>  <b_lp_Chiralities_Consistent>  (1) 
1

>  <r_epik_Charging_Adjusted_Penalty>  (1) 
0

>  <r_epik_Ionization_Penalty>  (1) 
0

>  <r_epik_Ionization_Penalty_Charging>  (1) 
0

>  <r_epik_Ionization_Penalty_Neutral>  (1) 
0

>  <r_epik_State_Penalty>  (1) 
-0

>  <r_glide_ring_energy>  (1) 
0

>  <r_i_docking_score>  (1) 
-6.0285223914081287

>  <r_i_glide_ecoul>  (1) 
-0.89223143045841735

>  <r_i_glide_eff_state_penalty>  (1) 
-0

>  <r_i_glide_einternal>  (1) 
0

>  <r_i_glide_emodel>  (1) 
-30.223051359173812

>  <r_i_glide_emodel_strain>  (1) 
0

>  <r_i_glide_energy>  (1) 
-21.877055964461917

>  <r_i_glide_erotb>  (1) 
0

>  <r_i_glide_esite>  (1) 
0

>  <r_i_glide_evdw>  (1) 
-20.984824534003501

>  <r_i_glide_gscore>  (1) 
-6.0285223914081287

>  <r_i_glide_gscore_strain>  (1) 
0

>  <r_i_glide_hbond>  (1) 
0

>  <r_i_glide_ligand_efficiency>  (1) 
-0.66983582126756991

>  <r_i_glide_ligand_efficiency_ln>  (1) 
-1.885548620557276

>  <r_i_glide_ligand_efficiency_sa>  (1) 
-1.3933146559193588

>  <r_i_glide_lipo>  (1) 
-2.2217460829685045

>  <r_i_glide_metal>  (1) 
-0

>  <r_i_glide_rewards>  (1) 
-2.6237003671706867

>  <r_lp_Energy>  (1) 
8.0132250000000003

>  <r_lp_tautomer_probability>  (1) 
1

>  <s_epik_Chemistry_Notes>  (1) 
This compound has an imine and may undergo hydrolysis.

>  <s_epik_cmdline>  (1) 
J2VwaWtfcHl0aG9uJywgJy1waHQnLCAnMS4wJywgJy1waCcsICc3LjQnLCAnLXRuJywgJzgnLCAnLW1hJywgJzUwMCcsICctaW1hZScsICc8aW5maWxlLm1hZT4nLCAnLW9tYWUnLCAnPG91dGZpbGUubWFlPic=

>  <s_epik_input>  (1) 
W2NIXTFbY0hdW2NIXVtjSF1jKGMxPTIpPU5bQ0gyXVtDSF0y

>  <s_glide_docking_method>  (1) 
confgen

>  <s_i_glide_gridfile>  (1) 
gpcr_5ht2c_6bqh_protein_autoprepared_prepared

>  <s_lp_Force_Field>  (1) 
S-OPLS

>  <s_lp_Variant>  (1) 
Pocket2Mol_74-1

>  <s_m_source_file>  (1) 
generated_GPCR_5HT2C_ligand_Pocket2Mol_2026-06-23_prepared.sdf

>  <GenAI_Model>  (1) 
Pocket2Mol

>  <Protein>  (1) 
GPCR_5HT2C

$$$$
Pocket2Mol_93
     RDKit          3D

  0  0  0  0  0  0  0  0  0  0999 V3000
M  V30 BEGIN CTAB
M  V30 COUNTS 17 18 0 0 1
M  V30 BEGIN ATOM
M  V30 1 C 37.648277 28.575271 54.263530 0
M  V30 2 C 38.450718 28.741905 53.118121 0
M  V30 3 C 39.275204 29.896616 52.967759 0
M  V30 4 C 38.444876 27.767506 52.103988 0
M  V30 5 C 39.265247 30.859601 54.000541 0
M  V30 6 N 40.045137 30.072100 51.863605 0
M  V30 7 C 39.245138 27.966356 50.972525 0
M  V30 8 C 37.653115 29.551886 55.272570 0
M  V30 9 C 40.023003 29.131597 50.896228 0
M  V30 10 C 38.459852 30.690036 55.141743 0
M  V30 11 H 37.026626 27.697669 54.365839 0
M  V30 12 H 37.829425 26.885755 52.192423 0
M  V30 13 H 39.880927 31.737755 53.910381 0
M  V30 14 H 39.259132 27.239280 50.172478 0
M  V30 15 H 37.036309 29.428992 56.150690 0
M  V30 16 H 40.645470 29.318464 50.033928 0
M  V30 17 H 38.461753 31.440530 55.919466 0
M  V30 END ATOM
M  V30 BEGIN BOND
M  V30 1 2 2 1
M  V30 2 1 3 2
M  V30 3 1 4 2
M  V30 4 2 5 3
M  V30 5 1 6 3
M  V30 6 2 7 4
M  V30 7 1 8 1
M  V30 8 2 9 6
M  V30 9 1 9 7
M  V30 10 1 10 5
M  V30 11 2 10 8
M  V30 12 1 11 1
M  V30 13 1 12 4
M  V30 14 1 13 5
M  V30 15 1 14 7
M  V30 16 1 15 8
M  V30 17 1 16 9
M  V30 18 1 17 10
M  V30 END BOND
M  V30 END CTAB
M  END
>  <i_epik_Tot_Q>  (1) 
0

>  <i_epik_Tot_abs_Q>  (1) 
0

>  <i_i_glide_confnum>  (1) 
1

>  <i_i_glide_lignum>  (1) 
98

>  <i_i_glide_posenum>  (1) 
194

>  <i_i_glide_rotatable_bonds>  (1) 
0

>  <i_lp_mmshare_version>  (1) 
72125

>  <i_m_source_file_index>  (1) 
94

>  <i_f3d_flags>  (1) 
0

>  <num_sample>  (1) 
100

>  <b_lp_Chiralities_Consistent>  (1) 
1

>  <r_epik_Charging_Adjusted_Penalty>  (1) 
0

>  <r_epik_Ionization_Penalty>  (1) 
0.0026406434276513078

>  <r_epik_Ionization_Penalty_Charging>  (1) 
0

>  <r_epik_Ionization_Penalty_Neutral>  (1) 
0.0026406434276513078

>  <r_epik_State_Penalty>  (1) 
-0

>  <r_glide_ring_energy>  (1) 
0

>  <r_i_docking_score>  (1) 
-6.026401931352698

>  <r_i_glide_ecoul>  (1) 
-1.1054240790267449

>  <r_i_glide_eff_state_penalty>  (1) 
-0

>  <r_i_glide_einternal>  (1) 
0

>  <r_i_glide_emodel>  (1) 
-30.828928329659973

>  <r_i_glide_emodel_strain>  (1) 
0

>  <r_i_glide_energy>  (1) 
-22.443240786577672

>  <r_i_glide_erotb>  (1) 
0

>  <r_i_glide_esite>  (1) 
0

>  <r_i_glide_evdw>  (1) 
-21.337816707550928

>  <r_i_glide_gscore>  (1) 
-6.026401931352698

>  <r_i_glide_gscore_strain>  (1) 
0

>  <r_i_glide_hbond>  (1) 
0

>  <r_i_glide_ligand_efficiency>  (1) 
-0.60264019313526984

>  <r_i_glide_ligand_efficiency_ln>  (1) 
-1.824752962198259

>  <r_i_glide_ligand_efficiency_sa>  (1) 
-1.2983489376981396

>  <r_i_glide_lipo>  (1) 
-2.1298349469954299

>  <r_i_glide_metal>  (1) 
-0

>  <r_i_glide_rewards>  (1) 
-2.6638625371257096

>  <r_lp_Energy>  (1) 
20.260538

>  <r_lp_tautomer_probability>  (1) 
1

>  <s_epik_cmdline>  (1) 
J2VwaWtfcHl0aG9uJywgJy1waHQnLCAnMS4wJywgJy1waCcsICc3LjQnLCAnLXRuJywgJzgnLCAnLW1hJywgJzUwMCcsICctaW1hZScsICc8aW5maWxlLm1hZT4nLCAnLW9tYWUnLCAnPG91dGZpbGUubWFlPic=

>  <s_epik_input>  (1) 
W2NIXTFbY0hdW2NIXVtjSF1jKGMxMiluW2NIXVtjSF1bY0hdMg==

>  <s_glide_docking_method>  (1) 
confgen

>  <s_i_glide_gridfile>  (1) 
gpcr_5ht2c_6bqh_protein_autoprepared_prepared

>  <s_lp_Force_Field>  (1) 
S-OPLS

>  <s_lp_Variant>  (1) 
Pocket2Mol_93-1

>  <s_m_source_file>  (1) 
generated_GPCR_5HT2C_ligand_Pocket2Mol_2026-06-23_prepared.sdf

>  <GenAI_Model>  (1) 
Pocket2Mol

>  <Protein>  (1) 
GPCR_5HT2C

$$$$
Pocket2Mol_1
     RDKit          3D

  0  0  0  0  0  0  0  0  0  0999 V3000
M  V30 BEGIN CTAB
M  V30 COUNTS 19 20 0 0 1
M  V30 BEGIN ATOM
M  V30 1 C 39.646574 30.537608 53.538785 0
M  V30 2 C 39.239564 29.426859 52.714658 0
M  V30 3 C 38.225564 28.471806 53.147344 0 CFG=2
M  V30 4 C 39.740140 29.155152 51.568506 0
M  V30 5 C 38.099384 28.449249 54.664775 0
M  V30 6 C 38.578738 29.448365 55.446118 0
M  V30 7 C 39.250840 27.902921 50.957642 0
M  V30 8 O 38.395256 29.411090 56.771382 0
M  V30 9 N 38.574321 27.344105 52.209854 0
M  V30 10 C 39.316073 30.559467 54.842655 0
M  V30 11 H 40.236486 31.337669 53.117038 0
M  V30 12 H 37.268948 28.855404 52.790756 0
M  V30 13 H 40.510169 29.743051 51.089681 0
M  V30 14 H 37.563343 27.620748 55.102534 0
M  V30 15 H 38.539124 28.135707 50.167774 0
M  V30 16 H 40.045136 27.255374 50.587553 0
M  V30 17 H 37.845695 28.668329 56.965737 0
M  V30 18 H 37.754660 26.799453 51.964480 0
M  V30 19 H 39.638152 31.384804 55.461280 0
M  V30 END ATOM
M  V30 BEGIN BOND
M  V30 1 1 2 1
M  V30 2 1 3 2
M  V30 3 2 4 2
M  V30 4 1 5 3
M  V30 5 2 6 5
M  V30 6 1 7 4
M  V30 7 1 8 6
M  V30 8 1 9 3
M  V30 9 1 9 7
M  V30 10 2 10 1
M  V30 11 1 10 6
M  V30 12 1 11 1
M  V30 13 1 3 12 CFG=3
M  V30 14 1 13 4
M  V30 15 1 14 5
M  V30 16 1 15 7
M  V30 17 1 16 7
M  V30 18 1 17 8
M  V30 19 1 18 9
M  V30 20 1 19 10
M  V30 END BOND
M  V30 END CTAB
M  END
>  <i_epik_Tot_Q>  (1) 
0

>  <i_epik_Tot_abs_Q>  (1) 
0

>  <i_i_glide_confnum>  (1) 
1

>  <i_i_glide_lignum>  (1) 
3

>  <i_i_glide_posenum>  (1) 
241

>  <i_i_glide_rotatable_bonds>  (1) 
1

>  <i_lp_mmshare_version>  (1) 
72125

>  <i_m_source_file_index>  (1) 
2

>  <i_f3d_flags>  (1) 
0

>  <num_sample>  (1) 
100

>  <b_lp_Chiralities_Consistent>  (1) 
1

>  <r_epik_Charging_Adjusted_Penalty>  (1) 
0.0032380173127296522

>  <r_epik_Ionization_Penalty>  (1) 
0.0032399356015129686

>  <r_epik_Ionization_Penalty_Charging>  (1) 
0

>  <r_epik_Ionization_Penalty_Neutral>  (1) 
0.0032399356015129686

>  <r_epik_State_Penalty>  (1) 
0.0032380173127296522

>  <r_glide_ring_energy>  (1) 
0

>  <r_i_docking_score>  (1) 
-6.0245173371154621

>  <r_i_glide_ecoul>  (1) 
-1.6564334891587673

>  <r_i_glide_eff_state_penalty>  (1) 
0.0032380173127296522

>  <r_i_glide_einternal>  (1) 
0.11854991201122189

>  <r_i_glide_emodel>  (1) 
-31.482550783178269

>  <r_i_glide_emodel_strain>  (1) 
0

>  <r_i_glide_energy>  (1) 
-22.781065564417727

>  <r_i_glide_erotb>  (1) 
0

>  <r_i_glide_esite>  (1) 
0

>  <r_i_glide_evdw>  (1) 
-21.124632075258958

>  <r_i_glide_gscore>  (1) 
-6.0277553544281917

>  <r_i_glide_gscore_strain>  (1) 
0

>  <r_i_glide_hbond>  (1) 
-0.17525418221748099

>  <r_i_glide_ligand_efficiency>  (1) 
-0.60245173371154626

>  <r_i_glide_ligand_efficiency_ln>  (1) 
-1.8241823200545535

>  <r_i_glide_ligand_efficiency_sa>  (1) 
-1.2979429141780061

>  <r_i_glide_lipo>  (1) 
-2.0762342686691451

>  <r_i_glide_metal>  (1) 
-0

>  <r_i_glide_rewards>  (1) 
-2.471570276404802

>  <r_lp_Energy>  (1) 
5.6201189999999999

>  <s_epik_cmdline>  (1) 
J2VwaWtfcHl0aG9uJywgJy1waHQnLCAnMS4wJywgJy1waCcsICc3LjQnLCAnLXRuJywgJzgnLCAnLW1hJywgJzUwMCcsICctaW1hZScsICc8aW5maWxlLm1hZT4nLCAnLW9tYWUnLCAnPG91dGZpbGUubWFlPic=

>  <s_epik_input>  (1) 
W0NIXTE9W0NIXUMoW09IXSk9W0NIXVtDQEBIXShDMT0yKVtOSF1bQ0gyXVtDSF0y

>  <s_glide_docking_method>  (1) 
confgen

>  <s_i_glide_gridfile>  (1) 
gpcr_5ht2c_6bqh_protein_autoprepared_prepared

>  <s_lp_Force_Field>  (1) 
S-OPLS

>  <s_lp_Variant>  (1) 
Pocket2Mol_1-1

>  <s_m_source_file>  (1) 
generated_GPCR_5HT2C_ligand_Pocket2Mol_2026-06-23_prepared.sdf

>  <GenAI_Model>  (1) 
Pocket2Mol

>  <Protein>  (1) 
GPCR_5HT2C

$$$$
Pocket2Mol_1
     RDKit          3D

  0  0  0  0  0  0  0  0  0  0999 V3000
M  V30 BEGIN CTAB
M  V30 COUNTS 19 20 0 0 1
M  V30 BEGIN ATOM
M  V30 1 C 39.001222 27.623741 51.742297 0
M  V30 2 C 38.845138 28.030850 53.116178 0
M  V30 3 C 38.974894 29.423712 53.531138 0 CFG=2
M  V30 4 C 38.635887 27.223714 54.089159 0
M  V30 5 C 39.808499 30.219654 52.532945 0
M  V30 6 C 40.045138 29.779411 51.272471 0
M  V30 7 C 38.650985 27.845828 55.431241 0
M  V30 8 O 40.738051 30.537755 50.413840 0
M  V30 9 N 39.245118 29.186293 54.994906 0
M  V30 10 C 39.559758 28.465512 50.854985 0
M  V30 11 H 38.696483 26.636378 51.430412 0
M  V30 12 H 37.974193 29.854723 53.484976 0
M  V30 13 H 38.529837 26.154569 53.975201 0
M  V30 14 H 40.170320 31.186509 52.852093 0
M  V30 15 H 37.645138 27.944806 55.835304 0
M  V30 16 H 39.301694 27.325173 56.134467 0
M  V30 17 H 40.939341 31.356770 50.842057 0
M  V30 18 H 38.898421 29.947380 55.563681 0
M  V30 19 H 39.691594 28.149889 49.831706 0
M  V30 END ATOM
M  V30 BEGIN BOND
M  V30 1 1 2 1
M  V30 2 1 3 2
M  V30 3 2 4 2
M  V30 4 1 5 3
M  V30 5 2 6 5
M  V30 6 1 7 4
M  V30 7 1 8 6
M  V30 8 1 9 3
M  V30 9 1 9 7
M  V30 10 2 10 1
M  V30 11 1 10 6
M  V30 12 1 11 1
M  V30 13 1 3 12 CFG=1
M  V30 14 1 13 4
M  V30 15 1 14 5
M  V30 16 1 15 7
M  V30 17 1 16 7
M  V30 18 1 17 8
M  V30 19 1 18 9
M  V30 20 1 19 10
M  V30 END BOND
M  V30 END CTAB
M  END
>  <i_epik_Tot_Q>  (1) 
0

>  <i_epik_Tot_abs_Q>  (1) 
0

>  <i_i_glide_confnum>  (1) 
1

>  <i_i_glide_lignum>  (1) 
3

>  <i_i_glide_posenum>  (1) 
146

>  <i_i_glide_rotatable_bonds>  (1) 
1

>  <i_lp_mmshare_version>  (1) 
72125

>  <i_m_source_file_index>  (1) 
2

>  <i_f3d_flags>  (1) 
0

>  <num_sample>  (1) 
100

>  <b_lp_Chiralities_Consistent>  (1) 
1

>  <r_epik_Charging_Adjusted_Penalty>  (1) 
0.0032380173127296522

>  <r_epik_Ionization_Penalty>  (1) 
0.0032399356015129686

>  <r_epik_Ionization_Penalty_Charging>  (1) 
0

>  <r_epik_Ionization_Penalty_Neutral>  (1) 
0.0032399356015129686

>  <r_epik_State_Penalty>  (1) 
0.0032380173127296522

>  <r_glide_ring_energy>  (1) 
0

>  <r_i_docking_score>  (1) 
-6.0189447326498522

>  <r_i_glide_ecoul>  (1) 
-1.502741101211067

>  <r_i_glide_eff_state_penalty>  (1) 
0.0032380173127296522

>  <r_i_glide_einternal>  (1) 
0.02118717695109229

>  <r_i_glide_emodel>  (1) 
-31.949908957549624

>  <r_i_glide_emodel_strain>  (1) 
0

>  <r_i_glide_energy>  (1) 
-23.207841613580818

>  <r_i_glide_erotb>  (1) 
0

>  <r_i_glide_esite>  (1) 
0

>  <r_i_glide_evdw>  (1) 
-21.70510051236975

>  <r_i_glide_gscore>  (1) 
-6.0221827499625817

>  <r_i_glide_gscore_strain>  (1) 
0

>  <r_i_glide_hbond>  (1) 
0

>  <r_i_glide_ligand_efficiency>  (1) 
-0.60189447326498524

>  <r_i_glide_ligand_efficiency_ln>  (1) 
-1.8224949738367584

>  <r_i_glide_ligand_efficiency_sa>  (1) 
-1.2967423329405525

>  <r_i_glide_lipo>  (1) 
-2.2531832258291007

>  <r_i_glide_metal>  (1) 
-0

>  <r_i_glide_rewards>  (1) 
-2.4583333333333335

>  <r_lp_Energy>  (1) 
5.6201189999999999

>  <s_epik_cmdline>  (1) 
J2VwaWtfcHl0aG9uJywgJy1waHQnLCAnMS4wJywgJy1waCcsICc3LjQnLCAnLXRuJywgJzgnLCAnLW1hJywgJzUwMCcsICctaW1hZScsICc8aW5maWxlLm1hZT4nLCAnLW9tYWUnLCAnPG91dGZpbGUubWFlPic=

>  <s_epik_input>  (1) 
W0NIXTE9W0NIXUMoW09IXSk9W0NIXVtDQEBIXShDMT0yKVtOSF1bQ0gyXVtDSF0y

>  <s_glide_docking_method>  (1) 
confgen

>  <s_i_glide_gridfile>  (1) 
gpcr_5ht2c_6bqh_protein_autoprepared_prepared

>  <s_lp_Force_Field>  (1) 
S-OPLS

>  <s_lp_Variant>  (1) 
Pocket2Mol_1-1

>  <s_m_source_file>  (1) 
generated_GPCR_5HT2C_ligand_Pocket2Mol_2026-06-23_prepared.sdf

>  <GenAI_Model>  (1) 
Pocket2Mol

>  <Protein>  (1) 
GPCR_5HT2C

$$$$
Pocket2Mol_52
     RDKit          3D

  0  0  0  0  0  0  0  0  0  0999 V3000
M  V30 BEGIN CTAB
M  V30 COUNTS 16 16 0 0 1
M  V30 BEGIN ATOM
M  V30 1 C 38.663573 28.634405 52.967180 0
M  V30 2 C 38.858555 28.028256 51.710536 0
M  V30 3 C 39.256332 29.883148 53.246883 0
M  V30 4 C 39.045890 30.536880 54.597649 0
M  V30 5 C 39.645138 28.669238 50.732744 0
M  V30 6 C 40.236574 29.916601 51.009016 0
M  V30 7 O 40.993180 30.537755 50.058398 0
M  V30 8 C 40.045137 30.523379 52.265762 0
M  V30 9 H 38.058971 28.142450 53.715684 0
M  V30 10 H 38.402310 27.072650 51.495205 0
M  V30 11 H 39.562988 31.495187 54.665453 0
M  V30 12 H 37.983731 30.712638 54.773183 0
M  V30 13 H 39.424261 29.891421 55.390246 0
M  V30 14 H 39.790341 28.205797 49.769309 0
M  V30 15 H 41.248858 31.421464 50.284726 0
M  V30 16 H 40.497205 31.478856 52.477175 0
M  V30 END ATOM
M  V30 BEGIN BOND
M  V30 1 2 2 1
M  V30 2 1 3 1
M  V30 3 1 4 3
M  V30 4 1 5 2
M  V30 5 2 6 5
M  V30 6 1 7 6
M  V30 7 2 8 3
M  V30 8 1 8 6
M  V30 9 1 9 1
M  V30 10 1 10 2
M  V30 11 1 11 4
M  V30 12 1 12 4
M  V30 13 1 13 4
M  V30 14 1 14 5
M  V30 15 1 15 7
M  V30 16 1 16 8
M  V30 END BOND
M  V30 END CTAB
M  END
>  <i_epik_Tot_Q>  (1) 
0

>  <i_epik_Tot_abs_Q>  (1) 
0

>  <i_i_glide_confnum>  (1) 
1

>  <i_i_glide_lignum>  (1) 
55

>  <i_i_glide_posenum>  (1) 
375

>  <i_i_glide_rotatable_bonds>  (1) 
1

>  <i_lp_mmshare_version>  (1) 
72125

>  <i_m_source_file_index>  (1) 
53

>  <i_f3d_flags>  (1) 
0

>  <num_sample>  (1) 
100

>  <b_lp_Chiralities_Consistent>  (1) 
1

>  <r_epik_Charging_Adjusted_Penalty>  (1) 
0

>  <r_epik_Ionization_Penalty>  (1) 
0.0017015869167085525

>  <r_epik_Ionization_Penalty_Charging>  (1) 
0

>  <r_epik_Ionization_Penalty_Neutral>  (1) 
0.0017015869167085525

>  <r_epik_State_Penalty>  (1) 
-0

>  <r_glide_ring_energy>  (1) 
0

>  <r_i_docking_score>  (1) 
-6.0174971624899465

>  <r_i_glide_ecoul>  (1) 
-2.4548901498005753

>  <r_i_glide_eff_state_penalty>  (1) 
-0

>  <r_i_glide_einternal>  (1) 
0.068256776850673939

>  <r_i_glide_emodel>  (1) 
-27.901859927632387

>  <r_i_glide_emodel_strain>  (1) 
0

>  <r_i_glide_energy>  (1) 
-20.454841038566069

>  <r_i_glide_erotb>  (1) 
0

>  <r_i_glide_esite>  (1) 
0

>  <r_i_glide_evdw>  (1) 
-17.999950888765493

>  <r_i_glide_gscore>  (1) 
-6.0174971624899465

>  <r_i_glide_gscore_strain>  (1) 
0

>  <r_i_glide_hbond>  (1) 
0

>  <r_i_glide_ligand_efficiency>  (1) 
-0.75218714531124331

>  <r_i_glide_ligand_efficiency_ln>  (1) 
-1.9540871554286434

>  <r_i_glide_ligand_efficiency_sa>  (1) 
-1.5043742906224868

>  <r_i_glide_lipo>  (1) 
-1.9583458282547619

>  <r_i_glide_metal>  (1) 
-0

>  <r_i_glide_rewards>  (1) 
-2.7909202673268236

>  <r_lp_Energy>  (1) 
5.2727110000000001

>  <r_lp_tautomer_probability>  (1) 
1

>  <s_epik_cmdline>  (1) 
J2VwaWtfcHl0aG9uJywgJy1waHQnLCAnMS4wJywgJy1waCcsICc3LjQnLCAnLXRuJywgJzgnLCAnLW1hJywgJzUwMCcsICctaW1hZScsICc8aW5maWxlLm1hZT4nLCAnLW9tYWUnLCAnPG91dGZpbGUubWFlPic=

>  <s_epik_input>  (1) 
W0NIM11jMVtjSF1bY0hdW2NIXWMoW09IXSlbY0hdMQ==

>  <s_glide_docking_method>  (1) 
confgen

>  <s_i_glide_gridfile>  (1) 
gpcr_5ht2c_6bqh_protein_autoprepared_prepared

>  <s_lp_Force_Field>  (1) 
S-OPLS

>  <s_lp_Variant>  (1) 
Pocket2Mol_52-1

>  <s_m_source_file>  (1) 
generated_GPCR_5HT2C_ligand_Pocket2Mol_2026-06-23_prepared.sdf

>  <GenAI_Model>  (1) 
Pocket2Mol

>  <Protein>  (1) 
GPCR_5HT2C

$$$$
Pocket2Mol_57
     RDKit          3D

  0  0  0  0  0  0  0  0  0  0999 V3000
M  V30 BEGIN CTAB
M  V30 COUNTS 16 16 0 0 1
M  V30 BEGIN ATOM
M  V30 1 C 39.645140 30.125837 52.549406 0
M  V30 2 C 40.047277 29.723289 51.257697 0
M  V30 3 C 38.838755 29.275868 53.331451 0
M  V30 4 C 38.433555 28.026261 52.822069 0
M  V30 5 O 37.645077 27.206242 53.573937 0
M  V30 6 C 40.908259 30.633784 50.412461 0
M  V30 7 C 38.840564 27.625303 51.534465 0
M  V30 8 C 39.645094 28.472857 50.754584 0
M  V30 9 H 39.953811 31.085956 52.937891 0
M  V30 10 H 38.528001 29.583883 54.319528 0
M  V30 11 H 37.303850 26.474948 53.080023 0
M  V30 12 H 41.239579 30.137752 49.499909 0
M  V30 13 H 40.344427 31.521381 50.127151 0
M  V30 14 H 41.793375 30.937753 50.967443 0
M  V30 15 H 38.531261 26.668426 51.141827 0
M  V30 16 H 39.951376 28.164786 49.767918 0
M  V30 END ATOM
M  V30 BEGIN BOND
M  V30 1 1 2 1
M  V30 2 2 3 1
M  V30 3 1 4 3
M  V30 4 1 5 4
M  V30 5 1 6 2
M  V30 6 2 7 4
M  V30 7 2 8 2
M  V30 8 1 8 7
M  V30 9 1 9 1
M  V30 10 1 10 3
M  V30 11 1 11 5
M  V30 12 1 12 6
M  V30 13 1 13 6
M  V30 14 1 14 6
M  V30 15 1 15 7
M  V30 16 1 16 8
M  V30 END BOND
M  V30 END CTAB
M  END
>  <i_epik_Tot_Q>  (1) 
0

>  <i_epik_Tot_abs_Q>  (1) 
0

>  <i_i_glide_confnum>  (1) 
1

>  <i_i_glide_lignum>  (1) 
61

>  <i_i_glide_posenum>  (1) 
55

>  <i_i_glide_rotatable_bonds>  (1) 
1

>  <i_lp_mmshare_version>  (1) 
72125

>  <i_m_source_file_index>  (1) 
58

>  <i_f3d_flags>  (1) 
0

>  <num_sample>  (1) 
100

>  <b_lp_Chiralities_Consistent>  (1) 
1

>  <r_epik_Charging_Adjusted_Penalty>  (1) 
0

>  <r_epik_Ionization_Penalty>  (1) 
0.0011734046256504545

>  <r_epik_Ionization_Penalty_Charging>  (1) 
0

>  <r_epik_Ionization_Penalty_Neutral>  (1) 
0.0011734046256504545

>  <r_epik_State_Penalty>  (1) 
-0

>  <r_glide_ring_energy>  (1) 
0

>  <r_i_docking_score>  (1) 
-6.0124118960866557

>  <r_i_glide_ecoul>  (1) 
-1.9842979172122193

>  <r_i_glide_eff_state_penalty>  (1) 
-0

>  <r_i_glide_einternal>  (1) 
0.11318551530739238

>  <r_i_glide_emodel>  (1) 
-28.963710876818311

>  <r_i_glide_emodel_strain>  (1) 
0.0035914308865381273

>  <r_i_glide_energy>  (1) 
-20.986138453771151

>  <r_i_glide_erotb>  (1) 
0

>  <r_i_glide_esite>  (1) 
0

>  <r_i_glide_evdw>  (1) 
-19.00184053655893

>  <r_i_glide_gscore>  (1) 
-6.0124118960866557

>  <r_i_glide_gscore_strain>  (1) 
0

>  <r_i_glide_hbond>  (1) 
0

>  <r_i_glide_ligand_efficiency>  (1) 
-0.75155148701083196

>  <r_i_glide_ligand_efficiency_ln>  (1) 
-1.952435795487413

>  <r_i_glide_ligand_efficiency_sa>  (1) 
-1.5031029740216642

>  <r_i_glide_lipo>  (1) 
-2.2002452786463684

>  <r_i_glide_metal>  (1) 
-0

>  <r_i_glide_rewards>  (1) 
-2.5644299030305078

>  <r_lp_Energy>  (1) 
4.2645419999999996

>  <r_lp_tautomer_probability>  (1) 
1

>  <s_epik_cmdline>  (1) 
J2VwaWtfcHl0aG9uJywgJy1waHQnLCAnMS4wJywgJy1waCcsICc3LjQnLCAnLXRuJywgJzgnLCAnLW1hJywgJzUwMCcsICctaW1hZScsICc8aW5maWxlLm1hZT4nLCAnLW9tYWUnLCAnPG91dGZpbGUubWFlPic=

>  <s_epik_input>  (1) 
W0NIM11jMVtjSF1bY0hdYyhbT0hdKVtjSF1bY0hdMQ==

>  <s_glide_docking_method>  (1) 
confgen

>  <s_i_glide_gridfile>  (1) 
gpcr_5ht2c_6bqh_protein_autoprepared_prepared

>  <s_lp_Force_Field>  (1) 
S-OPLS

>  <s_lp_Variant>  (1) 
Pocket2Mol_57-1

>  <s_m_source_file>  (1) 
generated_GPCR_5HT2C_ligand_Pocket2Mol_2026-06-23_prepared.sdf

>  <GenAI_Model>  (1) 
Pocket2Mol

>  <Protein>  (1) 
GPCR_5HT2C

$$$$
Pocket2Mol_83
     RDKit          3D

  0  0  0  0  0  0  0  0  0  0999 V3000
M  V30 BEGIN CTAB
M  V30 COUNTS 16 17 0 0 1
M  V30 BEGIN ATOM
M  V30 1 C 39.512583 30.201248 53.680492 0
M  V30 2 C 39.645135 29.738058 52.343876 0
M  V30 3 C 38.793472 29.453699 54.641105 0
M  V30 4 C 38.194533 28.230913 54.288104 0
M  V30 5 C 38.311710 27.751548 52.976658 0
M  V30 6 C 40.279379 30.240240 51.164185 0
M  V30 7 C 40.045137 29.328732 50.167757 0
M  V30 8 C 39.025064 28.496808 52.026746 0
M  V30 9 N 39.296438 28.278192 50.690209 0
M  V30 10 H 39.965189 31.139743 53.965555 0
M  V30 11 H 38.701840 29.824816 55.652043 0
M  V30 12 H 37.645167 27.663838 55.025525 0
M  V30 13 H 37.852356 26.814527 52.697853 0
M  V30 14 H 40.831006 31.165777 51.083656 0
M  V30 15 H 40.348126 29.337481 49.130726 0
M  V30 16 H 39.000208 27.482349 50.142922 0
M  V30 END ATOM
M  V30 BEGIN BOND
M  V30 1 2 2 1
M  V30 2 1 3 1
M  V30 3 2 4 3
M  V30 4 1 5 4
M  V30 5 1 6 2
M  V30 6 2 7 6
M  V30 7 1 8 2
M  V30 8 2 8 5
M  V30 9 1 9 7
M  V30 10 1 9 8
M  V30 11 1 10 1
M  V30 12 1 11 3
M  V30 13 1 12 4
M  V30 14 1 13 5
M  V30 15 1 14 6
M  V30 16 1 15 7
M  V30 17 1 16 9
M  V30 END BOND
M  V30 END CTAB
M  END
>  <i_epik_Tot_Q>  (1) 
0

>  <i_epik_Tot_abs_Q>  (1) 
0

>  <i_i_glide_confnum>  (1) 
1

>  <i_i_glide_lignum>  (1) 
88

>  <i_i_glide_posenum>  (1) 
8

>  <i_i_glide_rotatable_bonds>  (1) 
0

>  <i_lp_mmshare_version>  (1) 
72125

>  <i_m_source_file_index>  (1) 
84

>  <i_f3d_flags>  (1) 
0

>  <num_sample>  (1) 
100

>  <b_lp_Chiralities_Consistent>  (1) 
1

>  <r_epik_Charging_Adjusted_Penalty>  (1) 
0

>  <r_epik_Ionization_Penalty>  (1) 
6.3316205355000374e-10

>  <r_epik_Ionization_Penalty_Charging>  (1) 
0

>  <r_epik_Ionization_Penalty_Neutral>  (1) 
6.3316205355000374e-10

>  <r_epik_State_Penalty>  (1) 
-0

>  <r_glide_ring_energy>  (1) 
0

>  <r_i_docking_score>  (1) 
-6.0112826550452594

>  <r_i_glide_ecoul>  (1) 
-1.1438973945515585

>  <r_i_glide_eff_state_penalty>  (1) 
-0

>  <r_i_glide_einternal>  (1) 
0

>  <r_i_glide_emodel>  (1) 
-29.641815077152337

>  <r_i_glide_emodel_strain>  (1) 
0

>  <r_i_glide_energy>  (1) 
-21.455838033539429

>  <r_i_glide_erotb>  (1) 
0

>  <r_i_glide_esite>  (1) 
0

>  <r_i_glide_evdw>  (1) 
-20.31194063898787

>  <r_i_glide_gscore>  (1) 
-6.0112826550452594

>  <r_i_glide_gscore_strain>  (1) 
0

>  <r_i_glide_hbond>  (1) 
0

>  <r_i_glide_ligand_efficiency>  (1) 
-0.66792029500502881

>  <r_i_glide_ligand_efficiency_ln>  (1) 
-1.880156526274918

>  <r_i_glide_ligand_efficiency_sa>  (1) 
-1.3893302007280162

>  <r_i_glide_lipo>  (1) 
-2.3111701206252637

>  <r_i_glide_metal>  (1) 
-0

>  <r_i_glide_rewards>  (1) 
-2.5129308932878685

>  <r_lp_Energy>  (1) 
12.824451

>  <r_lp_tautomer_probability>  (1) 
1

>  <s_epik_cmdline>  (1) 
J2VwaWtfcHl0aG9uJywgJy1waHQnLCAnMS4wJywgJy1waCcsICc3LjQnLCAnLXRuJywgJzgnLCAnLW1hJywgJzUwMCcsICctaW1hZScsICc8aW5maWxlLm1hZT4nLCAnLW9tYWUnLCAnPG91dGZpbGUubWFlPic=

>  <s_epik_input>  (1) 
W2NIXTFbY0hdW2NIXVtjSF1jKGMxMilbbkhdW2NIXVtjSF0y

>  <s_glide_docking_method>  (1) 
confgen

>  <s_i_glide_gridfile>  (1) 
gpcr_5ht2c_6bqh_protein_autoprepared_prepared

>  <s_lp_Force_Field>  (1) 
S-OPLS

>  <s_lp_Variant>  (1) 
Pocket2Mol_83-1

>  <s_m_source_file>  (1) 
generated_GPCR_5HT2C_ligand_Pocket2Mol_2026-06-23_prepared.sdf

>  <GenAI_Model>  (1) 
Pocket2Mol

>  <Protein>  (1) 
GPCR_5HT2C

$$$$
Pocket2Mol_98
     RDKit          3D

  0  0  0  0  0  0  0  0  0  0999 V3000
M  V30 BEGIN CTAB
M  V30 COUNTS 18 19 0 0 1
M  V30 BEGIN ATOM
M  V30 1 C 40.444642 30.009972 50.397821 0
M  V30 2 O 39.721883 28.743246 50.488615 0
M  V30 3 O 40.416710 30.761212 51.647096 0
M  V30 4 C 39.260984 28.842969 51.738774 0
M  V30 5 C 39.644461 29.950843 52.375540 0
M  V30 6 C 39.245139 30.222174 53.694462 0
M  V30 7 C 38.412762 29.289772 54.358605 0
M  V30 8 C 37.955840 29.551538 55.779221 0
M  V30 9 C 38.438541 27.884637 52.352097 0
M  V30 10 C 38.006252 28.108827 53.680772 0
M  V30 11 H 41.482141 29.824897 50.125628 0
M  V30 12 H 39.984087 30.616997 49.617092 0
M  V30 13 H 39.564505 31.127740 54.189302 0
M  V30 14 H 37.815481 28.616515 56.321804 0
M  V30 15 H 38.691683 30.146585 56.321229 0
M  V30 16 H 37.009936 30.096246 55.777546 0
M  V30 17 H 38.137258 26.995421 51.817832 0
M  V30 18 H 37.370371 27.388204 54.174275 0
M  V30 END ATOM
M  V30 BEGIN BOND
M  V30 1 1 2 1
M  V30 2 1 3 1
M  V30 3 1 4 2
M  V30 4 1 5 3
M  V30 5 2 5 4
M  V30 6 1 6 5
M  V30 7 2 7 6
M  V30 8 1 8 7
M  V30 9 1 9 4
M  V30 10 1 10 7
M  V30 11 2 10 9
M  V30 12 1 11 1
M  V30 13 1 12 1
M  V30 14 1 13 6
M  V30 15 1 14 8
M  V30 16 1 15 8
M  V30 17 1 16 8
M  V30 18 1 17 9
M  V30 19 1 18 10
M  V30 END BOND
M  V30 END CTAB
M  END
>  <i_epik_Tot_Q>  (1) 
0

>  <i_epik_Tot_abs_Q>  (1) 
0

>  <i_i_glide_confnum>  (1) 
1

>  <i_i_glide_lignum>  (1) 
103

>  <i_i_glide_posenum>  (1) 
260

>  <i_i_glide_rotatable_bonds>  (1) 
0

>  <i_lp_mmshare_version>  (1) 
72125

>  <i_m_source_file_index>  (1) 
99

>  <i_f3d_flags>  (1) 
0

>  <num_sample>  (1) 
100

>  <b_lp_Chiralities_Consistent>  (1) 
1

>  <r_epik_Charging_Adjusted_Penalty>  (1) 
0

>  <r_epik_Ionization_Penalty>  (1) 
0

>  <r_epik_Ionization_Penalty_Charging>  (1) 
0

>  <r_epik_Ionization_Penalty_Neutral>  (1) 
0

>  <r_epik_State_Penalty>  (1) 
-0

>  <r_glide_ring_energy>  (1) 
0

>  <r_i_docking_score>  (1) 
-6.0015174575036516

>  <r_i_glide_ecoul>  (1) 
-0.52348109319965563

>  <r_i_glide_eff_state_penalty>  (1) 
-0

>  <r_i_glide_einternal>  (1) 
0

>  <r_i_glide_emodel>  (1) 
-29.172731554120418

>  <r_i_glide_emodel_strain>  (1) 
0

>  <r_i_glide_energy>  (1) 
-21.008166172168067

>  <r_i_glide_erotb>  (1) 
0

>  <r_i_glide_esite>  (1) 
0

>  <r_i_glide_evdw>  (1) 
-20.484685078968411

>  <r_i_glide_gscore>  (1) 
-6.0015174575036516

>  <r_i_glide_gscore_strain>  (1) 
0

>  <r_i_glide_hbond>  (1) 
0

>  <r_i_glide_ligand_efficiency>  (1) 
-0.60015174575036512

>  <r_i_glide_ligand_efficiency_ln>  (1) 
-1.8172181150562927

>  <r_i_glide_ligand_efficiency_sa>  (1) 
-1.2929877403277821

>  <r_i_glide_lipo>  (1) 
-1.7987610395752818

>  <r_i_glide_metal>  (1) 
-0

>  <r_i_glide_rewards>  (1) 
-3.1000000000000001

>  <r_lp_Energy>  (1) 
16.823695000000001

>  <r_lp_tautomer_probability>  (1) 
1

>  <s_epik_Chemistry_Notes>  (1) 
This compound contains an acetal/aminal-like group ( X-CH(R)-Y where X, Y are N, S, or O) that may be acid/base labile, releasing an aldehyde.

>  <s_epik_cmdline>  (1) 
J2VwaWtfcHl0aG9uJywgJy1waHQnLCAnMS4wJywgJy1waCcsICc3LjQnLCAnLXRuJywgJzgnLCAnLW1hJywgJzUwMCcsICctaW1hZScsICc8aW5maWxlLm1hZT4nLCAnLW9tYWUnLCAnPG91dGZpbGUubWFlPic=

>  <s_epik_input>  (1) 
TzFbQ0gyXU9jKGMxMilbY0hdYyhbQ0gzXSlbY0hdW2NIXTI=

>  <s_glide_docking_method>  (1) 
confgen

>  <s_i_glide_gridfile>  (1) 
gpcr_5ht2c_6bqh_protein_autoprepared_prepared

>  <s_lp_Force_Field>  (1) 
S-OPLS

>  <s_lp_Variant>  (1) 
Pocket2Mol_98-1

>  <s_m_source_file>  (1) 
generated_GPCR_5HT2C_ligand_Pocket2Mol_2026-06-23_prepared.sdf

>  <GenAI_Model>  (1) 
Pocket2Mol

>  <Protein>  (1) 
GPCR_5HT2C

$$$$
Pocket2Mol_49
     RDKit          3D

  0  0  0  0  0  0  0  0  0  0999 V3000
M  V30 BEGIN CTAB
M  V30 COUNTS 16 16 0 0 1
M  V30 BEGIN ATOM
M  V30 1 C 40.073373 29.890737 51.469624 0
M  V30 2 C 39.645136 30.138010 52.788712 0
M  V30 3 C 38.780339 29.228556 53.432749 0
M  V30 4 C 38.312115 29.500906 54.850605 0
M  V30 5 C 38.349009 28.067401 52.753009 0
M  V30 6 O 37.507021 27.184574 53.367755 0
M  V30 7 C 39.645134 28.732361 50.795039 0
M  V30 8 C 38.785577 27.820707 51.435959 0
M  V30 9 H 40.732603 30.590745 50.976207 0
M  V30 10 H 39.975888 31.028496 53.304093 0
M  V30 11 H 38.727710 30.432076 55.237492 0
M  V30 12 H 37.224761 29.578158 54.884837 0
M  V30 13 H 38.619055 28.690825 55.511815 0
M  V30 14 H 37.154274 26.542527 52.765563 0
M  V30 15 H 39.974199 28.543927 49.783788 0
M  V30 16 H 38.456261 26.934718 50.914487 0
M  V30 END ATOM
M  V30 BEGIN BOND
M  V30 1 1 2 1
M  V30 2 2 3 2
M  V30 3 1 4 3
M  V30 4 1 5 3
M  V30 5 1 6 5
M  V30 6 2 7 1
M  V30 7 2 8 5
M  V30 8 1 8 7
M  V30 9 1 9 1
M  V30 10 1 10 2
M  V30 11 1 11 4
M  V30 12 1 12 4
M  V30 13 1 13 4
M  V30 14 1 14 6
M  V30 15 1 15 7
M  V30 16 1 16 8
M  V30 END BOND
M  V30 END CTAB
M  END
>  <i_epik_Tot_Q>  (1) 
0

>  <i_epik_Tot_abs_Q>  (1) 
0

>  <i_i_glide_confnum>  (1) 
1

>  <i_i_glide_lignum>  (1) 
52

>  <i_i_glide_posenum>  (1) 
18

>  <i_i_glide_rotatable_bonds>  (1) 
1

>  <i_lp_mmshare_version>  (1) 
72125

>  <i_m_source_file_index>  (1) 
50

>  <i_f3d_flags>  (1) 
0

>  <num_sample>  (1) 
100

>  <b_lp_Chiralities_Consistent>  (1) 
1

>  <r_epik_Charging_Adjusted_Penalty>  (1) 
0

>  <r_epik_Ionization_Penalty>  (1) 
0.00081241911792291806

>  <r_epik_Ionization_Penalty_Charging>  (1) 
0

>  <r_epik_Ionization_Penalty_Neutral>  (1) 
0.00081241911792291806

>  <r_epik_State_Penalty>  (1) 
-0

>  <r_glide_ring_energy>  (1) 
0

>  <r_i_docking_score>  (1) 
-5.995957414690098

>  <r_i_glide_ecoul>  (1) 
-2.9774590912114527

>  <r_i_glide_eff_state_penalty>  (1) 
-0

>  <r_i_glide_einternal>  (1) 
0.13018500209372896

>  <r_i_glide_emodel>  (1) 
-28.369743517199669

>  <r_i_glide_emodel_strain>  (1) 
0

>  <r_i_glide_energy>  (1) 
-20.912750498787997

>  <r_i_glide_erotb>  (1) 
0

>  <r_i_glide_esite>  (1) 
0

>  <r_i_glide_evdw>  (1) 
-17.935291407576543

>  <r_i_glide_gscore>  (1) 
-5.995957414690098

>  <r_i_glide_gscore_strain>  (1) 
0

>  <r_i_glide_hbond>  (1) 
-0.20184314711169091

>  <r_i_glide_ligand_efficiency>  (1) 
-0.74949467683626225

>  <r_i_glide_ligand_efficiency_ln>  (1) 
-1.947092462557124

>  <r_i_glide_ligand_efficiency_sa>  (1) 
-1.4989893536725247

>  <r_i_glide_lipo>  (1) 
-2.0221573784940459

>  <r_i_glide_metal>  (1) 
-0

>  <r_i_glide_rewards>  (1) 
-2.4285734550238156

>  <r_lp_Energy>  (1) 
7.6312429999999996

>  <r_lp_tautomer_probability>  (1) 
1

>  <s_epik_cmdline>  (1) 
J2VwaWtfcHl0aG9uJywgJy1waHQnLCAnMS4wJywgJy1waCcsICc3LjQnLCAnLXRuJywgJzgnLCAnLW1hJywgJzUwMCcsICctaW1hZScsICc8aW5maWxlLm1hZT4nLCAnLW9tYWUnLCAnPG91dGZpbGUubWFlPic=

>  <s_epik_input>  (1) 
W0NIM11jMVtjSF1bY0hdW2NIXVtjSF1jMVtPSF0=

>  <s_glide_docking_method>  (1) 
confgen

>  <s_i_glide_gridfile>  (1) 
gpcr_5ht2c_6bqh_protein_autoprepared_prepared

>  <s_lp_Force_Field>  (1) 
S-OPLS

>  <s_lp_Variant>  (1) 
Pocket2Mol_49-1

>  <s_m_source_file>  (1) 
generated_GPCR_5HT2C_ligand_Pocket2Mol_2026-06-23_prepared.sdf

>  <GenAI_Model>  (1) 
Pocket2Mol

>  <Protein>  (1) 
GPCR_5HT2C

$$$$
Pocket2Mol_75
     RDKit          3D

  0  0  0  0  0  0  0  0  0  0999 V3000
M  V30 BEGIN CTAB
M  V30 COUNTS 21 22 0 0 1
M  V30 BEGIN ATOM
M  V30 1 C 38.464196 27.360692 53.155916 0
M  V30 2 C 38.607016 28.512432 52.148951 0 CFG=1
M  V30 3 C 38.128559 28.067990 54.483649 0
M  V30 4 C 38.853620 29.419296 54.401603 0
M  V30 5 N 39.014133 29.644336 52.978537 0
M  V30 6 N 40.008420 30.506448 52.584026 0
M  V30 7 C 40.445135 30.537753 51.367759 0
M  V30 8 C 40.024857 29.535448 50.333693 0
M  V30 9 C 39.567431 28.229687 50.990724 0
M  V30 10 H 37.705978 26.634691 52.860495 0
M  V30 11 H 39.410509 26.829492 53.266343 0
M  V30 12 H 37.623558 28.757043 51.748884 0
M  V30 13 H 37.053485 28.241376 54.535001 0
M  V30 14 H 38.414601 27.487701 55.361226 0
M  V30 15 H 38.279584 30.227590 54.856525 0
M  V30 16 H 39.835133 29.369952 54.874736 0
M  V30 17 H 41.145285 31.316013 51.066516 0
M  V30 18 H 39.245137 29.978240 49.730665 0
M  V30 19 H 40.845138 29.337755 49.648674 0
M  V30 20 H 40.445136 27.737755 51.393427 0
M  V30 21 H 39.124274 27.548751 50.263532 0
M  V30 END ATOM
M  V30 BEGIN BOND
M  V30 1 1 2 1
M  V30 2 1 3 1
M  V30 3 1 4 3
M  V30 4 1 5 2
M  V30 5 1 5 4
M  V30 6 1 6 5
M  V30 7 2 7 6
M  V30 8 1 8 7
M  V30 9 1 9 2
M  V30 10 1 9 8
M  V30 11 1 10 1
M  V30 12 1 11 1
M  V30 13 1 2 12 CFG=3
M  V30 14 1 13 3
M  V30 15 1 14 3
M  V30 16 1 15 4
M  V30 17 1 16 4
M  V30 18 1 17 7
M  V30 19 1 18 8
M  V30 20 1 19 8
M  V30 21 1 20 9
M  V30 22 1 21 9
M  V30 END BOND
M  V30 END CTAB
M  END
>  <i_epik_Tot_Q>  (1) 
0

>  <i_epik_Tot_abs_Q>  (1) 
0

>  <i_i_glide_confnum>  (1) 
1

>  <i_i_glide_lignum>  (1) 
80

>  <i_i_glide_posenum>  (1) 
231

>  <i_i_glide_rotatable_bonds>  (1) 
0

>  <i_lp_mmshare_version>  (1) 
72125

>  <i_m_source_file_index>  (1) 
76

>  <i_f3d_flags>  (1) 
0

>  <num_sample>  (1) 
100

>  <b_lp_Chiralities_Consistent>  (1) 
1

>  <r_epik_Charging_Adjusted_Penalty>  (1) 
0

>  <r_epik_Ionization_Penalty>  (1) 
0.0031146778150898829

>  <r_epik_Ionization_Penalty_Charging>  (1) 
0

>  <r_epik_Ionization_Penalty_Neutral>  (1) 
0.0031146778150898829

>  <r_epik_State_Penalty>  (1) 
-0

>  <r_glide_ring_energy>  (1) 
0

>  <r_i_docking_score>  (1) 
-5.9830282557086534

>  <r_i_glide_ecoul>  (1) 
-0.67939971528354137

>  <r_i_glide_eff_state_penalty>  (1) 
-0

>  <r_i_glide_einternal>  (1) 
0

>  <r_i_glide_emodel>  (1) 
-28.20290702812482

>  <r_i_glide_emodel_strain>  (1) 
0

>  <r_i_glide_energy>  (1) 
-20.371044192707821

>  <r_i_glide_erotb>  (1) 
0

>  <r_i_glide_esite>  (1) 
0

>  <r_i_glide_evdw>  (1) 
-19.69164447742428

>  <r_i_glide_gscore>  (1) 
-5.9830282557086534

>  <r_i_glide_gscore_strain>  (1) 
0

>  <r_i_glide_hbond>  (1) 
0

>  <r_i_glide_ligand_efficiency>  (1) 
-0.66478091730096145

>  <r_i_glide_ligand_efficiency_ln>  (1) 
-1.8713193618364579

>  <r_i_glide_ligand_efficiency_sa>  (1) 
-1.3828000319513358

>  <r_i_glide_lipo>  (1) 
-1.7242989917808871

>  <r_i_glide_metal>  (1) 
-0

>  <r_i_glide_rewards>  (1) 
-3.1722370827640209

>  <r_lp_Energy>  (1) 
16.062878999999999

>  <r_lp_tautomer_probability>  (1) 
1

>  <s_epik_Chemistry_Notes>  (1) 
This compound has an imine and may undergo hydrolysis.

>  <s_epik_cmdline>  (1) 
J2VwaWtfcHl0aG9uJywgJy1waHQnLCAnMS4wJywgJy1waCcsICc3LjQnLCAnLXRuJywgJzgnLCAnLW1hJywgJzUwMCcsICctaW1hZScsICc8aW5maWxlLm1hZT4nLCAnLW9tYWUnLCAnPG91dGZpbGUubWFlPic=

>  <s_epik_input>  (1) 
W0NIMl0xW0NIMl1bQ0gyXU4oW0NASF0xMilOPVtDSF1bQ0gyXVtDSDJdMg==

>  <s_glide_docking_method>  (1) 
confgen

>  <s_i_glide_gridfile>  (1) 
gpcr_5ht2c_6bqh_protein_autoprepared_prepared

>  <s_lp_Force_Field>  (1) 
S-OPLS

>  <s_lp_Variant>  (1) 
Pocket2Mol_75-1

>  <s_m_source_file>  (1) 
generated_GPCR_5HT2C_ligand_Pocket2Mol_2026-06-23_prepared.sdf

>  <GenAI_Model>  (1) 
Pocket2Mol

>  <Protein>  (1) 
GPCR_5HT2C

$$$$
Pocket2Mol_1
     RDKit          3D

  0  0  0  0  0  0  0  0  0  0999 V3000
M  V30 BEGIN CTAB
M  V30 COUNTS 19 20 0 0 1
M  V30 BEGIN ATOM
M  V30 1 C 39.710491 30.626220 53.424101 0
M  V30 2 C 39.531804 29.512476 52.532177 0
M  V30 3 C 38.692077 28.369902 52.876524 0 CFG=1
M  V30 4 C 40.039473 29.443468 51.359488 0
M  V30 5 C 37.648387 28.759328 53.912879 0
M  V30 6 C 37.764520 29.871322 54.676637 0
M  V30 7 C 39.617709 28.277536 50.567758 0
M  V30 8 O 36.847084 30.137844 55.605414 0
M  V30 9 N 38.468615 27.858272 51.480681 0
M  V30 10 C 38.876540 30.791846 54.462832 0
M  V30 11 H 40.493874 31.340001 53.241891 0
M  V30 12 H 39.331962 27.638258 53.371747 0
M  V30 13 H 40.669804 30.207450 50.927817 0
M  V30 14 H 36.820986 28.083119 54.055135 0
M  V30 15 H 39.258745 28.569279 49.580983 0
M  V30 16 H 40.437327 27.557978 50.494943 0
M  V30 17 H 36.965068 31.015746 55.945097 0
M  V30 18 H 38.235480 26.875082 51.437283 0
M  V30 19 H 39.001581 31.642936 55.116873 0
M  V30 END ATOM
M  V30 BEGIN BOND
M  V30 1 1 2 1
M  V30 2 1 3 2
M  V30 3 2 4 2
M  V30 4 1 5 3
M  V30 5 2 6 5
M  V30 6 1 7 4
M  V30 7 1 8 6
M  V30 8 1 9 3
M  V30 9 1 9 7
M  V30 10 2 10 1
M  V30 11 1 10 6
M  V30 12 1 11 1
M  V30 13 1 3 12 CFG=1
M  V30 14 1 13 4
M  V30 15 1 14 5
M  V30 16 1 15 7
M  V30 17 1 16 7
M  V30 18 1 17 8
M  V30 19 1 18 9
M  V30 20 1 19 10
M  V30 END BOND
M  V30 END CTAB
M  END
>  <i_epik_Tot_Q>  (1) 
0

>  <i_epik_Tot_abs_Q>  (1) 
0

>  <i_i_glide_confnum>  (1) 
1

>  <i_i_glide_lignum>  (1) 
4

>  <i_i_glide_posenum>  (1) 
308

>  <i_i_glide_rotatable_bonds>  (1) 
1

>  <i_lp_mmshare_version>  (1) 
72125

>  <i_m_source_file_index>  (1) 
2

>  <i_f3d_flags>  (1) 
0

>  <num_sample>  (1) 
100

>  <b_lp_Chiralities_Consistent>  (1) 
1

>  <r_epik_Charging_Adjusted_Penalty>  (1) 
0.0032380173127296522

>  <r_epik_Ionization_Penalty>  (1) 
0.0032399356015129686

>  <r_epik_Ionization_Penalty_Charging>  (1) 
0

>  <r_epik_Ionization_Penalty_Neutral>  (1) 
0.0032399356015129686

>  <r_epik_State_Penalty>  (1) 
0.0032380173127296522

>  <r_glide_ring_energy>  (1) 
0

>  <r_i_docking_score>  (1) 
-5.9815102137204912

>  <r_i_glide_ecoul>  (1) 
-2.8180353546079973

>  <r_i_glide_eff_state_penalty>  (1) 
0.0032380173127296522

>  <r_i_glide_einternal>  (1) 
0.0058733701905113733

>  <r_i_glide_emodel>  (1) 
-31.095504773220803

>  <r_i_glide_emodel_strain>  (1) 
0

>  <r_i_glide_energy>  (1) 
-21.954746947100794

>  <r_i_glide_erotb>  (1) 
0

>  <r_i_glide_esite>  (1) 
0

>  <r_i_glide_evdw>  (1) 
-19.136711592492798

>  <r_i_glide_gscore>  (1) 
-5.9847482310332207

>  <r_i_glide_gscore_strain>  (1) 
0

>  <r_i_glide_hbond>  (1) 
-0.048531359835355968

>  <r_i_glide_ligand_efficiency>  (1) 
-0.59815102137204912

>  <r_i_glide_ligand_efficiency_ln>  (1) 
-1.8111600595574042

>  <r_i_glide_ligand_efficiency_sa>  (1) 
-1.2886773103219453

>  <r_i_glide_lipo>  (1) 
-2.1235923602584688

>  <r_i_glide_metal>  (1) 
-0

>  <r_i_glide_rewards>  (1) 
-2.4330836281235571

>  <r_lp_Energy>  (1) 
5.6363089999999998

>  <s_epik_cmdline>  (1) 
J2VwaWtfcHl0aG9uJywgJy1waHQnLCAnMS4wJywgJy1waCcsICc3LjQnLCAnLXRuJywgJzgnLCAnLW1hJywgJzUwMCcsICctaW1hZScsICc8aW5maWxlLm1hZT4nLCAnLW9tYWUnLCAnPG91dGZpbGUubWFlPic=

>  <s_epik_input>  (1) 
W0NIXTE9W0NIXUMoW09IXSk9W0NIXVtDQEhdKEMxPTIpW05IXVtDSDJdW0NIXTI=

>  <s_glide_docking_method>  (1) 
confgen

>  <s_i_glide_gridfile>  (1) 
gpcr_5ht2c_6bqh_protein_autoprepared_prepared

>  <s_lp_Force_Field>  (1) 
S-OPLS

>  <s_lp_Variant>  (1) 
Pocket2Mol_1-2

>  <s_m_source_file>  (1) 
generated_GPCR_5HT2C_ligand_Pocket2Mol_2026-06-23_prepared.sdf

>  <GenAI_Model>  (1) 
Pocket2Mol

>  <Protein>  (1) 
GPCR_5HT2C

$$$$
Pocket2Mol_81
     RDKit          3D

  0  0  0  0  0  0  0  0  0  0999 V3000
M  V30 BEGIN CTAB
M  V30 COUNTS 15 16 0 0 1
M  V30 BEGIN ATOM
M  V30 1 C 39.645137 30.537754 53.391886 0
M  V30 2 C 39.430610 29.459980 52.493751 0
M  V30 3 C 38.411867 28.538759 52.816820 0
M  V30 4 C 39.989660 29.011460 51.269461 0
M  V30 5 C 37.626384 28.654267 53.969660 0
M  V30 6 N 39.407108 27.918485 50.834272 0
M  V30 7 N 38.445138 27.629131 51.767760 0
M  V30 8 C 38.857185 30.669021 54.561253 0
M  V30 9 C 37.847572 29.726935 54.848790 0
M  V30 10 H 40.414423 31.265856 53.180101 0
M  V30 11 H 40.793233 29.449769 50.696047 0
M  V30 12 H 36.855298 27.927845 54.178612 0
M  V30 13 H 37.836253 26.828351 51.647292 0
M  V30 14 H 39.028310 31.495803 55.235799 0
M  V30 15 H 37.246046 29.831836 55.741412 0
M  V30 END ATOM
M  V30 BEGIN BOND
M  V30 1 1 2 1
M  V30 2 2 3 2
M  V30 3 1 4 2
M  V30 4 1 5 3
M  V30 5 2 6 4
M  V30 6 1 7 3
M  V30 7 1 7 6
M  V30 8 2 8 1
M  V30 9 2 9 5
M  V30 10 1 9 8
M  V30 11 1 10 1
M  V30 12 1 11 4
M  V30 13 1 12 5
M  V30 14 1 13 7
M  V30 15 1 14 8
M  V30 16 1 15 9
M  V30 END BOND
M  V30 END CTAB
M  END
>  <i_epik_Tot_Q>  (1) 
0

>  <i_epik_Tot_abs_Q>  (1) 
0

>  <i_i_glide_confnum>  (1) 
1

>  <i_i_glide_lignum>  (1) 
86

>  <i_i_glide_posenum>  (1) 
328

>  <i_i_glide_rotatable_bonds>  (1) 
0

>  <i_lp_mmshare_version>  (1) 
72125

>  <i_m_source_file_index>  (1) 
82

>  <i_f3d_flags>  (1) 
0

>  <num_sample>  (1) 
100

>  <b_lp_Chiralities_Consistent>  (1) 
1

>  <r_epik_Charging_Adjusted_Penalty>  (1) 
0

>  <r_epik_Ionization_Penalty>  (1) 
2.5998422111611493e-06

>  <r_epik_Ionization_Penalty_Charging>  (1) 
0

>  <r_epik_Ionization_Penalty_Neutral>  (1) 
2.5998422111611493e-06

>  <r_epik_State_Penalty>  (1) 
-0

>  <r_glide_ring_energy>  (1) 
0

>  <r_i_docking_score>  (1) 
-5.9715614152625607

>  <r_i_glide_ecoul>  (1) 
-2.3234684590232382

>  <r_i_glide_eff_state_penalty>  (1) 
-0

>  <r_i_glide_einternal>  (1) 
0

>  <r_i_glide_emodel>  (1) 
-31.436948647566538

>  <r_i_glide_emodel_strain>  (1) 
0

>  <r_i_glide_energy>  (1) 
-23.044229865161611

>  <r_i_glide_erotb>  (1) 
0

>  <r_i_glide_esite>  (1) 
0

>  <r_i_glide_evdw>  (1) 
-20.720761406138372

>  <r_i_glide_gscore>  (1) 
-5.9715614152625607

>  <r_i_glide_gscore_strain>  (1) 
0

>  <r_i_glide_hbond>  (1) 
-0.16484899458704216

>  <r_i_glide_ligand_efficiency>  (1) 
-0.66350682391806226

>  <r_i_glide_ligand_efficiency_ln>  (1) 
-1.8677328635568637

>  <r_i_glide_ligand_efficiency_sa>  (1) 
-1.3801498109165098

>  <r_i_glide_lipo>  (1) 
-1.8164236991471998

>  <r_i_glide_metal>  (1) 
-0

>  <r_i_glide_rewards>  (1) 
-2.6057303823679145

>  <r_lp_Energy>  (1) 
10.425352

>  <r_lp_tautomer_probability>  (1) 
1

>  <s_epik_cmdline>  (1) 
J2VwaWtfcHl0aG9uJywgJy1waHQnLCAnMS4wJywgJy1waCcsICc3LjQnLCAnLXRuJywgJzgnLCAnLW1hJywgJzUwMCcsICctaW1hZScsICc8aW5maWxlLm1hZT4nLCAnLW9tYWUnLCAnPG91dGZpbGUubWFlPic=

>  <s_epik_input>  (1) 
W2NIXTFbY0hdW2NIXVtjSF1jKGMxMiluW25IXVtjSF0y

>  <s_glide_docking_method>  (1) 
confgen

>  <s_i_glide_gridfile>  (1) 
gpcr_5ht2c_6bqh_protein_autoprepared_prepared

>  <s_lp_Force_Field>  (1) 
S-OPLS

>  <s_lp_Variant>  (1) 
Pocket2Mol_81-1

>  <s_m_source_file>  (1) 
generated_GPCR_5HT2C_ligand_Pocket2Mol_2026-06-23_prepared.sdf

>  <GenAI_Model>  (1) 
Pocket2Mol

>  <Protein>  (1) 
GPCR_5HT2C

$$$$
Pocket2Mol_96
     RDKit          3D

  0  0  0  0  0  0  0  0  0  0999 V3000
M  V30 BEGIN CTAB
M  V30 COUNTS 18 19 0 0 1
M  V30 BEGIN ATOM
M  V30 1 C 40.011836 29.271147 50.611468 0
M  V30 2 C 40.045139 30.209451 51.683342 0
M  V30 3 C 39.278078 28.192177 51.027549 0
M  V30 4 C 39.336787 29.669848 52.719534 0
M  V30 5 N 38.858453 28.437579 52.323943 0
M  V30 6 C 39.023786 30.182335 54.079771 0
M  V30 7 O 39.293995 31.337092 54.396311 0
M  V30 8 C 38.034282 27.572567 53.124819 0
M  V30 9 N 38.436437 29.312400 54.928476 0
M  V30 10 C 38.230643 27.888733 54.614638 0
M  V30 11 H 40.467389 29.375947 49.638414 0
M  V30 12 H 40.533351 31.173485 51.694820 0
M  V30 13 H 39.008088 27.275535 50.521063 0
M  V30 14 H 36.995446 27.738947 52.835935 0
M  V30 15 H 38.276002 26.535038 52.906607 0
M  V30 16 H 38.187625 29.630860 55.854134 0
M  V30 17 H 37.389586 27.501696 55.188123 0
M  V30 18 H 39.111850 27.354042 54.972864 0
M  V30 END ATOM
M  V30 BEGIN BOND
M  V30 1 1 2 1
M  V30 2 2 3 1
M  V30 3 2 4 2
M  V30 4 1 5 3
M  V30 5 1 5 4
M  V30 6 1 6 4
M  V30 7 2 7 6
M  V30 8 1 8 5
M  V30 9 1 9 6
M  V30 10 1 10 8
M  V30 11 1 10 9
M  V30 12 1 11 1
M  V30 13 1 12 2
M  V30 14 1 13 3
M  V30 15 1 14 8
M  V30 16 1 15 8
M  V30 17 1 16 9
M  V30 18 1 17 10
M  V30 19 1 18 10
M  V30 END BOND
M  V30 END CTAB
M  END
>  <i_epik_Tot_Q>  (1) 
0

>  <i_epik_Tot_abs_Q>  (1) 
0

>  <i_i_glide_confnum>  (1) 
1

>  <i_i_glide_lignum>  (1) 
101

>  <i_i_glide_posenum>  (1) 
242

>  <i_i_glide_rotatable_bonds>  (1) 
0

>  <i_lp_mmshare_version>  (1) 
72125

>  <i_m_source_file_index>  (1) 
97

>  <i_f3d_flags>  (1) 
0

>  <num_sample>  (1) 
100

>  <b_lp_Chiralities_Consistent>  (1) 
1

>  <r_epik_Charging_Adjusted_Penalty>  (1) 
0

>  <r_epik_Ionization_Penalty>  (1) 
5.1203149696400337e-08

>  <r_epik_Ionization_Penalty_Charging>  (1) 
0

>  <r_epik_Ionization_Penalty_Neutral>  (1) 
5.1203149696400337e-08

>  <r_epik_State_Penalty>  (1) 
-0

>  <r_glide_ring_energy>  (1) 
0

>  <r_i_docking_score>  (1) 
-5.9710871586738028

>  <r_i_glide_ecoul>  (1) 
-0.39583864113758144

>  <r_i_glide_eff_state_penalty>  (1) 
-0

>  <r_i_glide_einternal>  (1) 
0

>  <r_i_glide_emodel>  (1) 
-32.755023715972236

>  <r_i_glide_emodel_strain>  (1) 
0

>  <r_i_glide_energy>  (1) 
-23.57708222071426

>  <r_i_glide_erotb>  (1) 
0

>  <r_i_glide_esite>  (1) 
0

>  <r_i_glide_evdw>  (1) 
-23.18124357957668

>  <r_i_glide_gscore>  (1) 
-5.9710871586738028

>  <r_i_glide_gscore_strain>  (1) 
0

>  <r_i_glide_hbond>  (1) 
0

>  <r_i_glide_ligand_efficiency>  (1) 
-0.59710871586738024

>  <r_i_glide_ligand_efficiency_ln>  (1) 
-1.8080040303399285

>  <r_i_glide_ligand_efficiency_sa>  (1) 
-1.2864317311850757

>  <r_i_glide_lipo>  (1) 
-1.7182489111991759

>  <r_i_glide_metal>  (1) 
-0

>  <r_i_glide_rewards>  (1) 
-3.034400272325156

>  <r_lp_Energy>  (1) 
15.907292999999999

>  <r_lp_tautomer_probability>  (1) 
1

>  <s_epik_cmdline>  (1) 
J2VwaWtfcHl0aG9uJywgJy1waHQnLCAnMS4wJywgJy1waCcsICc3LjQnLCAnLXRuJywgJzgnLCAnLW1hJywgJzUwMCcsICctaW1hZScsICc8aW5maWxlLm1hZT4nLCAnLW9tYWUnLCAnPG91dGZpbGUubWFlPic=

>  <s_epik_input>  (1) 
W2NIXTFbY0hdW2NIXW4oYzEyKVtDSDJdW0NIMl1bTkhdQzI9Tw==

>  <s_glide_docking_method>  (1) 
confgen

>  <s_i_glide_gridfile>  (1) 
gpcr_5ht2c_6bqh_protein_autoprepared_prepared

>  <s_lp_Force_Field>  (1) 
S-OPLS

>  <s_lp_Variant>  (1) 
Pocket2Mol_96-1

>  <s_m_source_file>  (1) 
generated_GPCR_5HT2C_ligand_Pocket2Mol_2026-06-23_prepared.sdf

>  <GenAI_Model>  (1) 
Pocket2Mol

>  <Protein>  (1) 
GPCR_5HT2C

$$$$
Pocket2Mol_65
     RDKit          3D

  0  0  0  0  0  0  0  0  0  0999 V3000
M  V30 BEGIN CTAB
M  V30 COUNTS 20 20 0 0 1
M  V30 BEGIN ATOM
M  V30 1 C 40.045137 29.427491 51.177778 0
M  V30 2 C 39.645004 29.944729 52.563847 0
M  V30 3 C 39.334192 28.083666 51.048872 0
M  V30 4 C 38.845219 27.778275 52.461565 0
M  V30 5 N 38.528804 29.102170 52.972545 0
M  V30 6 N 38.311304 29.138282 54.381975 0 CHG=1
M  V30 7 C 37.477421 30.053336 54.899792 0
M  V30 8 N 37.245136 30.137755 56.216309 0
M  V30 9 H 39.720291 30.108982 50.389998 0
M  V30 10 H 41.128461 29.325533 51.101540 0
M  V30 11 H 39.374191 31.001450 52.559594 0
M  V30 12 H 40.448986 29.817107 53.278967 0
M  V30 13 H 38.477750 28.184514 50.383275 0
M  V30 14 H 39.973655 27.300546 50.642196 0
M  V30 15 H 39.644695 27.321203 53.046988 0
M  V30 16 H 37.980257 27.113649 52.470702 0
M  V30 17 H 36.975713 30.746592 54.233483 0
M  V30 18 H 37.704448 29.514829 56.862074 0
M  V30 19 H 36.570307 30.841727 56.567867 0
M  V30 20 H 38.815889 28.458156 54.932419 0
M  V30 END ATOM
M  V30 BEGIN BOND
M  V30 1 1 2 1
M  V30 2 1 3 1
M  V30 3 1 4 3
M  V30 4 1 5 2
M  V30 5 1 5 4
M  V30 6 1 6 5
M  V30 7 2 7 6
M  V30 8 1 8 7
M  V30 9 1 9 1
M  V30 10 1 10 1
M  V30 11 1 11 2
M  V30 12 1 12 2
M  V30 13 1 13 3
M  V30 14 1 14 3
M  V30 15 1 15 4
M  V30 16 1 16 4
M  V30 17 1 17 7
M  V30 18 1 18 8
M  V30 19 1 19 8
M  V30 20 1 20 6
M  V30 END BOND
M  V30 END CTAB
M  END
>  <i_epik_Tot_Q>  (1) 
1

>  <i_epik_Tot_abs_Q>  (1) 
1

>  <i_i_glide_confnum>  (1) 
1

>  <i_i_glide_lignum>  (1) 
69

>  <i_i_glide_posenum>  (1) 
361

>  <i_i_glide_rotatable_bonds>  (1) 
1

>  <i_lp_mmshare_version>  (1) 
72125

>  <i_m_source_file_index>  (1) 
66

>  <i_f3d_flags>  (1) 
0

>  <num_sample>  (1) 
100

>  <b_lp_Chiralities_Consistent>  (1) 
1

>  <r_epik_Charging_Adjusted_Penalty>  (1) 
1.6312684749255997e-05

>  <r_epik_Ionization_Penalty>  (1) 
1.6401951855999153e-05

>  <r_epik_Ionization_Penalty_Charging>  (1) 
1.6312684749255997e-05

>  <r_epik_Ionization_Penalty_Neutral>  (1) 
8.9267106743156534e-08

>  <r_epik_State_Penalty>  (1) 
-0

>  <r_glide_ring_energy>  (1) 
0

>  <r_i_docking_score>  (1) 
-5.9684308762776963

>  <r_i_glide_ecoul>  (1) 
-6.0956141273926425

>  <r_i_glide_eff_state_penalty>  (1) 
-0

>  <r_i_glide_einternal>  (1) 
0.001706264130275803

>  <r_i_glide_emodel>  (1) 
-32.787013129455104

>  <r_i_glide_emodel_strain>  (1) 
0.0057100103861245088

>  <r_i_glide_energy>  (1) 
-20.216141288022477

>  <r_i_glide_erotb>  (1) 
0

>  <r_i_glide_esite>  (1) 
-0.14840974368858018

>  <r_i_glide_evdw>  (1) 
-14.120527160629834

>  <r_i_glide_gscore>  (1) 
-5.9684308762776963

>  <r_i_glide_gscore_strain>  (1) 
0

>  <r_i_glide_hbond>  (1) 
-0.20000000000000001

>  <r_i_glide_ligand_efficiency>  (1) 
-0.74605385953471204

>  <r_i_glide_ligand_efficiency_ln>  (1) 
-1.9381536539972493

>  <r_i_glide_ligand_efficiency_sa>  (1) 
-1.4921077190694243

>  <r_i_glide_lipo>  (1) 
-1.3200000000000001

>  <r_i_glide_metal>  (1) 
-0

>  <r_i_glide_rewards>  (1) 
-2.6796526554487277

>  <r_lp_Energy>  (1) 
12.792574

>  <r_lp_tautomer_probability>  (1) 
1

>  <s_epik_Chemistry_Notes>  (1) 
This compound has an imine and may undergo hydrolysis.

>  <s_epik_cmdline>  (1) 
J2VwaWtfcHl0aG9uJywgJy1waHQnLCAnMS4wJywgJy1waCcsICc3LjQnLCAnLXRuJywgJzgnLCAnLW1hJywgJzUwMCcsICctaW1hZScsICc8aW5maWxlLm1hZT4nLCAnLW9tYWUnLCAnPG91dGZpbGUubWFlPic=

>  <s_epik_input>  (1) 
W0NIMl0xW0NIMl1bQ0gyXVtDSDJdTjEvTj1bQ0hdL1tOSDJd

>  <s_glide_docking_method>  (1) 
confgen

>  <s_i_glide_gridfile>  (1) 
gpcr_5ht2c_6bqh_protein_autoprepared_prepared

>  <s_lp_Force_Field>  (1) 
S-OPLS

>  <s_lp_Variant>  (1) 
Pocket2Mol_65-1

>  <s_m_source_file>  (1) 
generated_GPCR_5HT2C_ligand_Pocket2Mol_2026-06-23_prepared.sdf

>  <GenAI_Model>  (1) 
Pocket2Mol

>  <Protein>  (1) 
GPCR_5HT2C

$$$$
Pocket2Mol_91
     RDKit          3D

  0  0  0  0  0  0  0  0  0  0999 V3000
M  V30 BEGIN CTAB
M  V30 COUNTS 14 15 0 0 1
M  V30 BEGIN ATOM
M  V30 1 C 40.045768 29.247120 50.880572 0
M  V30 2 C 40.045115 30.174000 51.953545 0
M  V30 3 C 39.245138 29.875783 53.061258 0
M  V30 4 C 39.035149 30.557790 54.203373 0
M  V30 5 C 39.245140 28.064605 50.974652 0
M  V30 6 C 38.501463 28.804041 53.154392 0
M  V30 7 N 37.782835 28.784963 54.374146 0
M  V30 8 C 38.148146 29.869219 54.926474 0
M  V30 9 C 38.455413 27.842933 52.136853 0
M  V30 10 H 40.644876 29.431964 50.001463 0
M  V30 11 H 40.637103 31.077240 51.914999 0
M  V30 12 H 39.252682 31.613429 54.277834 0
M  V30 13 H 39.236194 27.347944 50.167687 0
M  V30 14 H 37.835578 26.963255 52.229140 0
M  V30 END ATOM
M  V30 BEGIN BOND
M  V30 1 1 2 1
M  V30 2 2 3 2
M  V30 3 1 4 3
M  V30 4 2 5 1
M  V30 5 1 6 3
M  V30 6 1 7 6
M  V30 7 2 8 4
M  V30 8 2 8 7
M  V30 9 1 9 5
M  V30 10 2 9 6
M  V30 11 1 10 1
M  V30 12 1 11 2
M  V30 13 1 12 4
M  V30 14 1 13 5
M  V30 15 1 14 9
M  V30 END BOND
M  V30 END CTAB
M  END
>  <i_epik_Tot_Q>  (1) 
0

>  <i_epik_Tot_abs_Q>  (1) 
0

>  <i_i_glide_confnum>  (1) 
1

>  <i_i_glide_lignum>  (1) 
96

>  <i_i_glide_posenum>  (1) 
150

>  <i_i_glide_rotatable_bonds>  (1) 
0

>  <i_lp_mmshare_version>  (1) 
72125

>  <i_m_source_file_index>  (1) 
92

>  <i_f3d_flags>  (1) 
0

>  <num_sample>  (1) 
100

>  <b_lp_Chiralities_Consistent>  (1) 
1

>  <r_epik_Charging_Adjusted_Penalty>  (1) 
0

>  <r_epik_Ionization_Penalty>  (1) 
7.4584844087238395e-05

>  <r_epik_Ionization_Penalty_Charging>  (1) 
0

>  <r_epik_Ionization_Penalty_Neutral>  (1) 
7.4584844087238395e-05

>  <r_epik_State_Penalty>  (1) 
-0

>  <r_glide_ring_energy>  (1) 
0

>  <r_i_docking_score>  (1) 
-5.9680362921037435

>  <r_i_glide_ecoul>  (1) 
-1.2090520042237334

>  <r_i_glide_eff_state_penalty>  (1) 
-0

>  <r_i_glide_einternal>  (1) 
0

>  <r_i_glide_emodel>  (1) 
-30.146079574785229

>  <r_i_glide_emodel_strain>  (1) 
0

>  <r_i_glide_energy>  (1) 
-22.146022299130767

>  <r_i_glide_erotb>  (1) 
0

>  <r_i_glide_esite>  (1) 
0

>  <r_i_glide_evdw>  (1) 
-20.936970294907034

>  <r_i_glide_gscore>  (1) 
-5.9680362921037435

>  <r_i_glide_gscore_strain>  (1) 
0

>  <r_i_glide_hbond>  (1) 
0

>  <r_i_glide_ligand_efficiency>  (1) 
-0.66311514356708257

>  <r_i_glide_ligand_efficiency_ln>  (1) 
-1.8666303063002339

>  <r_i_glide_ligand_efficiency_sa>  (1) 
-1.3793350829546296

>  <r_i_glide_lipo>  (1) 
-2.0794919922997304

>  <r_i_glide_metal>  (1) 
-0

>  <r_i_glide_rewards>  (1) 
-2.6603379844251021

>  <r_lp_Energy>  (1) 
14.311973999999999

>  <r_lp_tautomer_probability>  (1) 
1

>  <s_epik_Chemistry_Notes>  (1) 
This compound has an imine and may undergo hydrolysis.

>  <s_epik_cmdline>  (1) 
J2VwaWtfcHl0aG9uJywgJy1waHQnLCAnMS4wJywgJy1waCcsICc3LjQnLCAnLXRuJywgJzgnLCAnLW1hJywgJzUwMCcsICctaW1hZScsICc8aW5maWxlLm1hZT4nLCAnLW9tYWUnLCAnPG91dGZpbGUubWFlPic=

>  <s_epik_input>  (1) 
W2NIXTFbY0hdW2NIXVtjSF1jKGMxMilOPUM9W0NIXTI=

>  <s_glide_docking_method>  (1) 
confgen

>  <s_i_glide_gridfile>  (1) 
gpcr_5ht2c_6bqh_protein_autoprepared_prepared

>  <s_lp_Force_Field>  (1) 
S-OPLS

>  <s_lp_Variant>  (1) 
Pocket2Mol_91-1

>  <s_m_source_file>  (1) 
generated_GPCR_5HT2C_ligand_Pocket2Mol_2026-06-23_prepared.sdf

>  <GenAI_Model>  (1) 
Pocket2Mol

>  <Protein>  (1) 
GPCR_5HT2C

$$$$
Pocket2Mol_1
     RDKit          3D

  0  0  0  0  0  0  0  0  0  0999 V3000
M  V30 BEGIN CTAB
M  V30 COUNTS 19 20 0 0 1
M  V30 BEGIN ATOM
M  V30 1 C 39.583329 30.284026 53.272534 0
M  V30 2 C 38.868945 29.058861 53.531569 0
M  V30 3 C 38.365084 28.215860 52.456158 0 CFG=1
M  V30 4 C 38.661330 28.575809 54.699394 0
M  V30 5 C 39.113088 28.461316 51.155962 0
M  V30 6 C 39.863361 29.568636 50.952965 0
M  V30 7 C 38.033590 27.237109 54.716442 0
M  V30 8 O 40.445139 29.773352 49.767761 0
M  V30 9 N 38.237375 26.937755 53.233191 0
M  V30 10 C 40.045137 30.537759 52.033792 0
M  V30 11 H 39.769352 30.984931 54.073624 0
M  V30 12 H 37.340916 28.537767 52.261799 0
M  V30 13 H 38.978401 29.051594 55.616012 0
M  V30 14 H 38.977632 27.738609 50.364491 0
M  V30 15 H 38.554746 26.522535 55.353930 0
M  V30 16 H 36.976787 27.292958 54.967759 0
M  V30 17 H 40.121645 29.111145 49.176612 0
M  V30 18 H 37.496284 26.360365 52.854700 0
M  V30 19 H 40.594169 31.447561 51.846037 0
M  V30 END ATOM
M  V30 BEGIN BOND
M  V30 1 1 2 1
M  V30 2 1 3 2
M  V30 3 2 4 2
M  V30 4 1 5 3
M  V30 5 2 6 5
M  V30 6 1 7 4
M  V30 7 1 8 6
M  V30 8 1 9 3
M  V30 9 1 9 7
M  V30 10 2 10 1
M  V30 11 1 10 6
M  V30 12 1 11 1
M  V30 13 1 3 12 CFG=3
M  V30 14 1 13 4
M  V30 15 1 14 5
M  V30 16 1 15 7
M  V30 17 1 16 7
M  V30 18 1 17 8
M  V30 19 1 18 9
M  V30 20 1 19 10
M  V30 END BOND
M  V30 END CTAB
M  END
>  <i_epik_Tot_Q>  (1) 
0

>  <i_epik_Tot_abs_Q>  (1) 
0

>  <i_i_glide_confnum>  (1) 
1

>  <i_i_glide_lignum>  (1) 
4

>  <i_i_glide_posenum>  (1) 
120

>  <i_i_glide_rotatable_bonds>  (1) 
1

>  <i_lp_mmshare_version>  (1) 
72125

>  <i_m_source_file_index>  (1) 
2

>  <i_f3d_flags>  (1) 
0

>  <num_sample>  (1) 
100

>  <b_lp_Chiralities_Consistent>  (1) 
1

>  <r_epik_Charging_Adjusted_Penalty>  (1) 
0.0032380173127296522

>  <r_epik_Ionization_Penalty>  (1) 
0.0032399356015129686

>  <r_epik_Ionization_Penalty_Charging>  (1) 
0

>  <r_epik_Ionization_Penalty_Neutral>  (1) 
0.0032399356015129686

>  <r_epik_State_Penalty>  (1) 
0.0032380173127296522

>  <r_glide_ring_energy>  (1) 
0

>  <r_i_docking_score>  (1) 
-5.9646000881678258

>  <r_i_glide_ecoul>  (1) 
-1.4802096102402365

>  <r_i_glide_eff_state_penalty>  (1) 
0.0032380173127296522

>  <r_i_glide_einternal>  (1) 
0.069669561209924957

>  <r_i_glide_emodel>  (1) 
-31.782185923024784

>  <r_i_glide_emodel_strain>  (1) 
0

>  <r_i_glide_energy>  (1) 
-22.699162036501974

>  <r_i_glide_erotb>  (1) 
0

>  <r_i_glide_esite>  (1) 
0

>  <r_i_glide_evdw>  (1) 
-21.218952426261737

>  <r_i_glide_gscore>  (1) 
-5.9678381054805554

>  <r_i_glide_gscore_strain>  (1) 
0

>  <r_i_glide_hbond>  (1) 
-0.0024598876113754863

>  <r_i_glide_ligand_efficiency>  (1) 
-0.59646000881678263

>  <r_i_glide_ligand_efficiency_ln>  (1) 
-1.8060397901089233

>  <r_i_glide_ligand_efficiency_sa>  (1) 
-1.2850341342115998

>  <r_i_glide_lipo>  (1) 
-2.1886963656890437

>  <r_i_glide_metal>  (1) 
-0

>  <r_i_glide_rewards>  (1) 
-2.4937027893310137

>  <r_lp_Energy>  (1) 
5.6363089999999998

>  <s_epik_cmdline>  (1) 
J2VwaWtfcHl0aG9uJywgJy1waHQnLCAnMS4wJywgJy1waCcsICc3LjQnLCAnLXRuJywgJzgnLCAnLW1hJywgJzUwMCcsICctaW1hZScsICc8aW5maWxlLm1hZT4nLCAnLW9tYWUnLCAnPG91dGZpbGUubWFlPic=

>  <s_epik_input>  (1) 
W0NIXTE9W0NIXUMoW09IXSk9W0NIXVtDQEhdKEMxPTIpW05IXVtDSDJdW0NIXTI=

>  <s_glide_docking_method>  (1) 
confgen

>  <s_i_glide_gridfile>  (1) 
gpcr_5ht2c_6bqh_protein_autoprepared_prepared

>  <s_lp_Force_Field>  (1) 
S-OPLS

>  <s_lp_Variant>  (1) 
Pocket2Mol_1-2

>  <s_m_source_file>  (1) 
generated_GPCR_5HT2C_ligand_Pocket2Mol_2026-06-23_prepared.sdf

>  <GenAI_Model>  (1) 
Pocket2Mol

>  <Protein>  (1) 
GPCR_5HT2C

$$$$
Pocket2Mol_81
     RDKit          3D

  0  0  0  0  0  0  0  0  0  0999 V3000
M  V30 BEGIN CTAB
M  V30 COUNTS 15 16 0 0 1
M  V30 BEGIN ATOM
M  V30 1 C 39.245176 28.122068 50.925455 0
M  V30 2 C 38.826478 28.304536 52.266801 0
M  V30 3 C 39.245137 29.481807 52.922143 0
M  V30 4 C 38.045470 27.587346 53.209758 0
M  V30 5 C 40.045137 30.451008 52.299294 0
M  V30 6 N 37.956549 28.219159 54.357387 0
M  V30 7 N 38.682736 29.371133 54.189028 0
M  V30 8 C 40.045135 29.096508 50.280706 0
M  V30 9 C 40.445133 30.259381 50.968265 0
M  V30 10 H 38.945188 27.233740 50.388005 0
M  V30 11 H 37.545940 26.637011 53.085796 0
M  V30 12 H 40.344904 31.337746 52.836717 0
M  V30 13 H 38.762113 30.041301 54.941399 0
M  V30 14 H 40.350816 28.947526 49.256284 0
M  V30 15 H 41.057097 30.999746 50.473027 0
M  V30 END ATOM
M  V30 BEGIN BOND
M  V30 1 1 2 1
M  V30 2 2 3 2
M  V30 3 1 4 2
M  V30 4 1 5 3
M  V30 5 2 6 4
M  V30 6 1 7 3
M  V30 7 1 7 6
M  V30 8 2 8 1
M  V30 9 2 9 5
M  V30 10 1 9 8
M  V30 11 1 10 1
M  V30 12 1 11 4
M  V30 13 1 12 5
M  V30 14 1 13 7
M  V30 15 1 14 8
M  V30 16 1 15 9
M  V30 END BOND
M  V30 END CTAB
M  END
>  <i_epik_Tot_Q>  (1) 
0

>  <i_epik_Tot_abs_Q>  (1) 
0

>  <i_i_glide_confnum>  (1) 
1

>  <i_i_glide_lignum>  (1) 
86

>  <i_i_glide_posenum>  (1) 
127

>  <i_i_glide_rotatable_bonds>  (1) 
0

>  <i_lp_mmshare_version>  (1) 
72125

>  <i_m_source_file_index>  (1) 
82

>  <i_f3d_flags>  (1) 
0

>  <num_sample>  (1) 
100

>  <b_lp_Chiralities_Consistent>  (1) 
1

>  <r_epik_Charging_Adjusted_Penalty>  (1) 
0

>  <r_epik_Ionization_Penalty>  (1) 
2.5998422111611493e-06

>  <r_epik_Ionization_Penalty_Charging>  (1) 
0

>  <r_epik_Ionization_Penalty_Neutral>  (1) 
2.5998422111611493e-06

>  <r_epik_State_Penalty>  (1) 
-0

>  <r_glide_ring_energy>  (1) 
0

>  <r_i_docking_score>  (1) 
-5.9629295135728659

>  <r_i_glide_ecoul>  (1) 
-1.4779879054878506

>  <r_i_glide_eff_state_penalty>  (1) 
-0

>  <r_i_glide_einternal>  (1) 
0

>  <r_i_glide_emodel>  (1) 
-30.180235601746357

>  <r_i_glide_emodel_strain>  (1) 
0

>  <r_i_glide_energy>  (1) 
-21.79964850792355

>  <r_i_glide_erotb>  (1) 
0

>  <r_i_glide_esite>  (1) 
0

>  <r_i_glide_evdw>  (1) 
-20.321660602435699

>  <r_i_glide_gscore>  (1) 
-5.9629295135728659

>  <r_i_glide_gscore_strain>  (1) 
0

>  <r_i_glide_hbond>  (1) 
0

>  <r_i_glide_ligand_efficiency>  (1) 
-0.66254772373031845

>  <r_i_glide_ligand_efficiency_ln>  (1) 
-1.8650330526799916

>  <r_i_glide_ligand_efficiency_sa>  (1) 
-1.3781548021312977

>  <r_i_glide_lipo>  (1) 
-2.0062291006098008

>  <r_i_glide_metal>  (1) 
-0

>  <r_i_glide_rewards>  (1) 
-2.7189191970181033

>  <r_lp_Energy>  (1) 
10.425352

>  <r_lp_tautomer_probability>  (1) 
1

>  <s_epik_cmdline>  (1) 
J2VwaWtfcHl0aG9uJywgJy1waHQnLCAnMS4wJywgJy1waCcsICc3LjQnLCAnLXRuJywgJzgnLCAnLW1hJywgJzUwMCcsICctaW1hZScsICc8aW5maWxlLm1hZT4nLCAnLW9tYWUnLCAnPG91dGZpbGUubWFlPic=

>  <s_epik_input>  (1) 
W2NIXTFbY0hdW2NIXVtjSF1jKGMxMiluW25IXVtjSF0y

>  <s_glide_docking_method>  (1) 
confgen

>  <s_i_glide_gridfile>  (1) 
gpcr_5ht2c_6bqh_protein_autoprepared_prepared

>  <s_lp_Force_Field>  (1) 
S-OPLS

>  <s_lp_Variant>  (1) 
Pocket2Mol_81-1

>  <s_m_source_file>  (1) 
generated_GPCR_5HT2C_ligand_Pocket2Mol_2026-06-23_prepared.sdf

>  <GenAI_Model>  (1) 
Pocket2Mol

>  <Protein>  (1) 
GPCR_5HT2C

$$$$
Pocket2Mol_73
     RDKit          3D

  0  0  0  0  0  0  0  0  0  0999 V3000
M  V30 BEGIN CTAB
M  V30 COUNTS 15 16 0 0 1
M  V30 BEGIN ATOM
M  V30 1 C 38.809255 30.486659 54.601616 0
M  V30 2 C 39.239931 29.985013 53.307836 0
M  V30 3 C 37.961225 29.558384 55.087847 0
M  V30 4 C 37.845213 28.467080 54.123966 0
M  V30 5 C 38.619749 28.748062 53.067605 0
M  V30 6 C 38.845138 27.995476 51.871281 0
M  V30 7 N 40.038687 30.537272 52.490374 0
M  V30 8 N 39.622424 28.447241 50.967815 0
M  V30 9 C 40.236851 29.811009 51.181969 0
M  V30 10 H 39.138574 31.424143 55.024973 0
M  V30 11 H 37.448470 29.614160 56.037914 0
M  V30 12 H 37.237456 27.582279 54.243210 0
M  V30 13 H 38.324006 27.038033 51.786531 0
M  V30 14 H 41.308532 29.724773 51.002896 0
M  V30 15 H 39.883383 30.464201 50.382674 0
M  V30 END ATOM
M  V30 BEGIN BOND
M  V30 1 1 2 1
M  V30 2 2 3 1
M  V30 3 1 4 3
M  V30 4 1 5 2
M  V30 5 2 5 4
M  V30 6 1 6 5
M  V30 7 2 7 2
M  V30 8 2 8 6
M  V30 9 1 9 7
M  V30 10 1 9 8
M  V30 11 1 10 1
M  V30 12 1 11 3
M  V30 13 1 12 4
M  V30 14 1 13 6
M  V30 15 1 14 9
M  V30 16 1 15 9
M  V30 END BOND
M  V30 END CTAB
M  END
>  <i_epik_Tot_Q>  (1) 
0

>  <i_epik_Tot_abs_Q>  (1) 
0

>  <i_i_glide_confnum>  (1) 
1

>  <i_i_glide_lignum>  (1) 
78

>  <i_i_glide_posenum>  (1) 
132

>  <i_i_glide_rotatable_bonds>  (1) 
0

>  <i_lp_mmshare_version>  (1) 
72125

>  <i_m_source_file_index>  (1) 
74

>  <i_f3d_flags>  (1) 
0

>  <num_sample>  (1) 
100

>  <b_lp_Chiralities_Consistent>  (1) 
1

>  <r_epik_Charging_Adjusted_Penalty>  (1) 
0

>  <r_epik_Ionization_Penalty>  (1) 
1.1225786931258508e-06

>  <r_epik_Ionization_Penalty_Charging>  (1) 
0

>  <r_epik_Ionization_Penalty_Neutral>  (1) 
1.1225786931258508e-06

>  <r_epik_State_Penalty>  (1) 
-0

>  <r_glide_ring_energy>  (1) 
0

>  <r_i_docking_score>  (1) 
-5.9563453288533381

>  <r_i_glide_ecoul>  (1) 
-0.19214997948434442

>  <r_i_glide_eff_state_penalty>  (1) 
-0

>  <r_i_glide_einternal>  (1) 
0

>  <r_i_glide_emodel>  (1) 
-30.626686995075417

>  <r_i_glide_emodel_strain>  (1) 
0

>  <r_i_glide_energy>  (1) 
-22.579244839515528

>  <r_i_glide_erotb>  (1) 
0

>  <r_i_glide_esite>  (1) 
0

>  <r_i_glide_evdw>  (1) 
-22.387094860031183

>  <r_i_glide_gscore>  (1) 
-5.9563453288533381

>  <r_i_glide_gscore_strain>  (1) 
0

>  <r_i_glide_hbond>  (1) 
0

>  <r_i_glide_ligand_efficiency>  (1) 
-0.66181614765037089

>  <r_i_glide_ligand_efficiency_ln>  (1) 
-1.8629737088459051

>  <r_i_glide_ligand_efficiency_sa>  (1) 
-1.3766330625620671

>  <r_i_glide_lipo>  (1) 
-0.85611272194790766

>  <r_i_glide_metal>  (1) 
-0

>  <r_i_glide_rewards>  (1) 
-3.9520553669812193

>  <r_lp_Energy>  (1) 
3.4627279999999998

>  <r_lp_tautomer_probability>  (1) 
1

>  <s_epik_Chemistry_Notes>  (1) 
This compound has an imine and may undergo hydrolysis. This compound contains an acetal/aminal-like group ( X-CH(R)-Y where X, Y are N, S, or O) that may be acid/base labile, releasing an aldehyde.

>  <s_epik_cmdline>  (1) 
J2VwaWtfcHl0aG9uJywgJy1waHQnLCAnMS4wJywgJy1waCcsICc3LjQnLCAnLXRuJywgJzgnLCAnLW1hJywgJzUwMCcsICctaW1hZScsICc8aW5maWxlLm1hZT4nLCAnLW9tYWUnLCAnPG91dGZpbGUubWFlPic=

>  <s_epik_input>  (1) 
W0NIXTE9W0NIXVtDSF09QyhDMT0yKVtDSF09TltDSDJdTjI=

>  <s_glide_docking_method>  (1) 
confgen

>  <s_i_glide_gridfile>  (1) 
gpcr_5ht2c_6bqh_protein_autoprepared_prepared

>  <s_lp_Force_Field>  (1) 
S-OPLS

>  <s_lp_Variant>  (1) 
Pocket2Mol_73-1

>  <s_m_source_file>  (1) 
generated_GPCR_5HT2C_ligand_Pocket2Mol_2026-06-23_prepared.sdf

>  <GenAI_Model>  (1) 
Pocket2Mol

>  <Protein>  (1) 
GPCR_5HT2C

$$$$
Pocket2Mol_95
     RDKit          3D

  0  0  0  0  0  0  0  0  0  0999 V3000
M  V30 BEGIN CTAB
M  V30 COUNTS 14 15 0 0 1
M  V30 BEGIN ATOM
M  V30 1 C 40.045132 29.279879 50.565539 0
M  V30 2 C 40.045136 30.170832 51.724763 0
M  V30 3 C 39.390251 29.560759 52.719118 0
M  V30 4 C 38.960695 28.296305 52.259120 0
M  V30 5 C 39.389894 28.137748 50.880859 0
M  V30 6 C 39.133301 30.049385 54.059475 0
M  V30 7 O 39.504856 31.145388 54.474241 0
M  V30 8 N 38.314330 27.471049 52.967787 0
M  V30 9 C 38.045073 27.950863 54.320204 0
M  V30 10 N 38.404573 29.103725 54.825074 0
M  V30 11 H 40.495831 29.498358 49.608814 0
M  V30 12 H 40.494388 31.153236 51.769411 0
M  V30 13 H 39.190443 27.258304 50.285478 0
M  V30 14 H 37.486613 27.279437 54.977186 0
M  V30 END ATOM
M  V30 BEGIN BOND
M  V30 1 1 2 1
M  V30 2 2 3 2
M  V30 3 1 4 3
M  V30 4 2 5 1
M  V30 5 1 5 4
M  V30 6 1 6 3
M  V30 7 2 7 6
M  V30 8 2 8 4
M  V30 9 1 9 8
M  V30 10 1 10 6
M  V30 11 2 10 9
M  V30 12 1 11 1
M  V30 13 1 12 2
M  V30 14 1 13 5
M  V30 15 1 14 9
M  V30 END BOND
M  V30 END CTAB
M  END
>  <i_epik_Tot_Q>  (1) 
0

>  <i_epik_Tot_abs_Q>  (1) 
0

>  <i_i_glide_confnum>  (1) 
1

>  <i_i_glide_lignum>  (1) 
100

>  <i_i_glide_posenum>  (1) 
389

>  <i_i_glide_rotatable_bonds>  (1) 
0

>  <i_lp_mmshare_version>  (1) 
72125

>  <i_m_source_file_index>  (1) 
96

>  <i_f3d_flags>  (1) 
0

>  <num_sample>  (1) 
100

>  <b_lp_Chiralities_Consistent>  (1) 
1

>  <r_epik_Charging_Adjusted_Penalty>  (1) 
0

>  <r_epik_Ionization_Penalty>  (1) 
0.00072225958823983786

>  <r_epik_Ionization_Penalty_Charging>  (1) 
0

>  <r_epik_Ionization_Penalty_Neutral>  (1) 
0.00072225958823983786

>  <r_epik_State_Penalty>  (1) 
-0

>  <r_glide_ring_energy>  (1) 
0

>  <r_i_docking_score>  (1) 
-5.9461391518449771

>  <r_i_glide_ecoul>  (1) 
0.728303672776343

>  <r_i_glide_eff_state_penalty>  (1) 
-0

>  <r_i_glide_einternal>  (1) 
0

>  <r_i_glide_emodel>  (1) 
-32.158978581153704

>  <r_i_glide_emodel_strain>  (1) 
0

>  <r_i_glide_energy>  (1) 
-23.469032503305019

>  <r_i_glide_erotb>  (1) 
0

>  <r_i_glide_esite>  (1) 
0

>  <r_i_glide_evdw>  (1) 
-24.197336176081361

>  <r_i_glide_gscore>  (1) 
-5.9461391518449771

>  <r_i_glide_gscore_strain>  (1) 
0

>  <r_i_glide_hbond>  (1) 
0

>  <r_i_glide_ligand_efficiency>  (1) 
-0.59461391518449769

>  <r_i_glide_ligand_efficiency_ln>  (1) 
-1.8004499458496457

>  <r_i_glide_ligand_efficiency_sa>  (1) 
-1.2810568460491583

>  <r_i_glide_lipo>  (1) 
-1.213471131542297

>  <r_i_glide_metal>  (1) 
-0

>  <r_i_glide_rewards>  (1) 
-3.6320467624150634

>  <r_lp_Energy>  (1) 
19.123919000000001

>  <r_lp_tautomer_probability>  (1) 
1

>  <s_epik_Chemistry_Notes>  (1) 
This compound has an imine and may undergo hydrolysis.

>  <s_epik_cmdline>  (1) 
J2VwaWtfcHl0aG9uJywgJy1waHQnLCAnMS4wJywgJy1waCcsICc3LjQnLCAnLXRuJywgJzgnLCAnLW1hJywgJzUwMCcsICctaW1hZScsICc8aW5maWxlLm1hZT4nLCAnLW9tYWUnLCAnPG91dGZpbGUubWFlPic=

>  <s_epik_input>  (1) 
W0NIXT0xW0NIXT1bQ0hdQyhDMTIpPU5bQ0hdPU5DMj1P

>  <s_glide_docking_method>  (1) 
confgen

>  <s_i_glide_gridfile>  (1) 
gpcr_5ht2c_6bqh_protein_autoprepared_prepared

>  <s_lp_Force_Field>  (1) 
S-OPLS

>  <s_lp_Variant>  (1) 
Pocket2Mol_95-1

>  <s_m_source_file>  (1) 
generated_GPCR_5HT2C_ligand_Pocket2Mol_2026-06-23_prepared.sdf

>  <GenAI_Model>  (1) 
Pocket2Mol

>  <Protein>  (1) 
GPCR_5HT2C

$$$$
Pocket2Mol_70
     RDKit          3D

  0  0  0  0  0  0  0  0  0  0999 V3000
M  V30 BEGIN CTAB
M  V30 COUNTS 17 18 0 0 1
M  V30 BEGIN ATOM
M  V30 1 C 40.045137 30.406609 52.089642 0
M  V30 2 C 39.257320 30.094916 53.258185 0
M  V30 3 C 38.671362 28.750055 53.501738 0 CFG=2
M  V30 4 C 38.933082 30.924480 54.168921 0
M  V30 5 C 38.613950 27.945268 52.204378 0
M  V30 6 N 38.096538 30.400256 55.061938 0
M  V30 7 N 37.644378 29.041370 54.651102 0
M  V30 8 C 40.075625 29.546076 51.056454 0
M  V30 9 C 39.293983 28.311158 51.092449 0
M  V30 10 H 40.589295 31.337759 52.034401 0
M  V30 11 H 39.464724 28.216232 54.025799 0
M  V30 12 H 39.177981 31.973997 54.246463 0
M  V30 13 H 38.033797 27.033820 52.212391 0
M  V30 14 H 37.474584 30.985991 55.611830 0
M  V30 15 H 36.709173 29.138439 54.261306 0
M  V30 16 H 40.651791 29.789062 50.175564 0
M  V30 17 H 39.245150 27.687811 50.211044 0
M  V30 END ATOM
M  V30 BEGIN BOND
M  V30 1 1 2 1
M  V30 2 1 3 2
M  V30 3 2 4 2
M  V30 4 1 5 3
M  V30 5 1 6 4
M  V30 6 1 7 3
M  V30 7 1 7 6
M  V30 8 2 8 1
M  V30 9 2 9 5
M  V30 10 1 9 8
M  V30 11 1 10 1
M  V30 12 1 3 11 CFG=1
M  V30 13 1 12 4
M  V30 14 1 13 5
M  V30 15 1 14 6
M  V30 16 1 15 7
M  V30 17 1 16 8
M  V30 18 1 17 9
M  V30 END BOND
M  V30 END CTAB
M  END
>  <i_epik_Tot_Q>  (1) 
0

>  <i_epik_Tot_abs_Q>  (1) 
0

>  <i_i_glide_confnum>  (1) 
1

>  <i_i_glide_lignum>  (1) 
75

>  <i_i_glide_posenum>  (1) 
361

>  <i_i_glide_rotatable_bonds>  (1) 
0

>  <i_lp_mmshare_version>  (1) 
72125

>  <i_m_source_file_index>  (1) 
71

>  <i_f3d_flags>  (1) 
0

>  <num_sample>  (1) 
100

>  <b_lp_Chiralities_Consistent>  (1) 
1

>  <r_epik_Charging_Adjusted_Penalty>  (1) 
0

>  <r_epik_Ionization_Penalty>  (1) 
4.3565390981668577e-05

>  <r_epik_Ionization_Penalty_Charging>  (1) 
0

>  <r_epik_Ionization_Penalty_Neutral>  (1) 
4.3565390981668577e-05

>  <r_epik_State_Penalty>  (1) 
-0

>  <r_glide_ring_energy>  (1) 
0

>  <r_i_docking_score>  (1) 
-5.945366613554544

>  <r_i_glide_ecoul>  (1) 
-1.5959280115301295

>  <r_i_glide_eff_state_penalty>  (1) 
-0

>  <r_i_glide_einternal>  (1) 
0

>  <r_i_glide_emodel>  (1) 
-30.755617118164224

>  <r_i_glide_emodel_strain>  (1) 
0

>  <r_i_glide_energy>  (1) 
-22.164070878694289

>  <r_i_glide_erotb>  (1) 
0

>  <r_i_glide_esite>  (1) 
-0.023537520879345557

>  <r_i_glide_evdw>  (1) 
-20.568142867164159

>  <r_i_glide_gscore>  (1) 
-5.945366613554544

>  <r_i_glide_gscore_strain>  (1) 
0

>  <r_i_glide_hbond>  (1) 
0

>  <r_i_glide_ligand_efficiency>  (1) 
-0.66059629039494938

>  <r_i_glide_ligand_efficiency_ln>  (1) 
-1.8595398820898437

>  <r_i_glide_ligand_efficiency_sa>  (1) 
-1.3740956572186322

>  <r_i_glide_lipo>  (1) 
-1.9797118058354863

>  <r_i_glide_metal>  (1) 
-0

>  <r_i_glide_rewards>  (1) 
-2.6743209417519851

>  <r_lp_Energy>  (1) 
4.0618679999999996

>  <r_lp_tautomer_probability>  (1) 
1

>  <s_epik_cmdline>  (1) 
J2VwaWtfcHl0aG9uJywgJy1waHQnLCAnMS4wJywgJy1waCcsICc3LjQnLCAnLXRuJywgJzgnLCAnLW1hJywgJzUwMCcsICctaW1hZScsICc8aW5maWxlLm1hZT4nLCAnLW9tYWUnLCAnPG91dGZpbGUubWFlPic=

>  <s_epik_input>  (1) 
W0NIXTE9W0NIXVtDSF09W0NIXVtDQEBIXShDMT0yKVtOSF1bTkhdW0NIXTI=

>  <s_glide_docking_method>  (1) 
confgen

>  <s_i_glide_gridfile>  (1) 
gpcr_5ht2c_6bqh_protein_autoprepared_prepared

>  <s_lp_Force_Field>  (1) 
S-OPLS

>  <s_lp_Variant>  (1) 
Pocket2Mol_70-1

>  <s_m_source_file>  (1) 
generated_GPCR_5HT2C_ligand_Pocket2Mol_2026-06-23_prepared.sdf

>  <GenAI_Model>  (1) 
Pocket2Mol

>  <Protein>  (1) 
GPCR_5HT2C

$$$$
Pocket2Mol_1
     RDKit          3D

  0  0  0  0  0  0  0  0  0  0999 V3000
M  V30 BEGIN CTAB
M  V30 COUNTS 19 20 0 0 1
M  V30 BEGIN ATOM
M  V30 1 C 38.755078 27.969718 52.167401 0
M  V30 2 C 38.835752 28.716284 53.399184 0
M  V30 3 C 39.245134 30.115184 53.432434 0 CFG=2
M  V30 4 C 38.607867 28.223668 54.559593 0
M  V30 5 C 40.045137 30.492781 52.192220 0
M  V30 6 C 40.045136 29.733440 51.070856 0
M  V30 7 C 38.879367 29.138962 55.690448 0
M  V30 8 O 40.720745 30.137756 49.988041 0
M  V30 9 N 39.645131 30.190295 54.883257 0
M  V30 10 C 39.318672 28.461378 51.048477 0
M  V30 11 H 38.264710 27.006619 52.147146 0
M  V30 12 H 38.329988 30.703119 53.367917 0
M  V30 13 H 38.308547 27.200413 54.734001 0
M  V30 14 H 40.582646 31.427113 52.218301 0
M  V30 15 H 37.950740 29.527601 56.110966 0
M  V30 16 H 39.500845 28.689700 56.465409 0
M  V30 17 H 41.089642 30.987854 50.178407 0
M  V30 18 H 39.496144 31.116997 55.259059 0
M  V30 19 H 39.270134 27.890513 50.134167 0
M  V30 END ATOM
M  V30 BEGIN BOND
M  V30 1 1 2 1
M  V30 2 1 3 2
M  V30 3 2 4 2
M  V30 4 1 5 3
M  V30 5 2 6 5
M  V30 6 1 7 4
M  V30 7 1 8 6
M  V30 8 1 9 3
M  V30 9 1 9 7
M  V30 10 2 10 1
M  V30 11 1 10 6
M  V30 12 1 11 1
M  V30 13 1 3 12 CFG=1
M  V30 14 1 13 4
M  V30 15 1 14 5
M  V30 16 1 15 7
M  V30 17 1 16 7
M  V30 18 1 17 8
M  V30 19 1 18 9
M  V30 20 1 19 10
M  V30 END BOND
M  V30 END CTAB
M  END
>  <i_epik_Tot_Q>  (1) 
0

>  <i_epik_Tot_abs_Q>  (1) 
0

>  <i_i_glide_confnum>  (1) 
1

>  <i_i_glide_lignum>  (1) 
3

>  <i_i_glide_posenum>  (1) 
149

>  <i_i_glide_rotatable_bonds>  (1) 
1

>  <i_lp_mmshare_version>  (1) 
72125

>  <i_m_source_file_index>  (1) 
2

>  <i_f3d_flags>  (1) 
0

>  <num_sample>  (1) 
100

>  <b_lp_Chiralities_Consistent>  (1) 
1

>  <r_epik_Charging_Adjusted_Penalty>  (1) 
0.0032380173127296522

>  <r_epik_Ionization_Penalty>  (1) 
0.0032399356015129686

>  <r_epik_Ionization_Penalty_Charging>  (1) 
0

>  <r_epik_Ionization_Penalty_Neutral>  (1) 
0.0032399356015129686

>  <r_epik_State_Penalty>  (1) 
0.0032380173127296522

>  <r_glide_ring_energy>  (1) 
0

>  <r_i_docking_score>  (1) 
-5.9439560781719827

>  <r_i_glide_ecoul>  (1) 
-1.8932857393570361

>  <r_i_glide_eff_state_penalty>  (1) 
0.0032380173127296522

>  <r_i_glide_einternal>  (1) 
0.022500732270172019

>  <r_i_glide_emodel>  (1) 
-32.626888641180336

>  <r_i_glide_emodel_strain>  (1) 
0

>  <r_i_glide_energy>  (1) 
-23.99446684085116

>  <r_i_glide_erotb>  (1) 
0

>  <r_i_glide_esite>  (1) 
0

>  <r_i_glide_evdw>  (1) 
-22.101181101494124

>  <r_i_glide_gscore>  (1) 
-5.9471940954847122

>  <r_i_glide_gscore_strain>  (1) 
0

>  <r_i_glide_hbond>  (1) 
0

>  <r_i_glide_ligand_efficiency>  (1) 
-0.59439560781719825

>  <r_i_glide_ligand_efficiency_ln>  (1) 
-1.7997889261903415

>  <r_i_glide_ligand_efficiency_sa>  (1) 
-1.2805865170839588

>  <r_i_glide_lipo>  (1) 
-2.0183262142524714

>  <r_i_glide_metal>  (1) 
-0

>  <r_i_glide_rewards>  (1) 
-2.5398159652539789

>  <r_lp_Energy>  (1) 
5.6201189999999999

>  <s_epik_cmdline>  (1) 
J2VwaWtfcHl0aG9uJywgJy1waHQnLCAnMS4wJywgJy1waCcsICc3LjQnLCAnLXRuJywgJzgnLCAnLW1hJywgJzUwMCcsICctaW1hZScsICc8aW5maWxlLm1hZT4nLCAnLW9tYWUnLCAnPG91dGZpbGUubWFlPic=

>  <s_epik_input>  (1) 
W0NIXTE9W0NIXUMoW09IXSk9W0NIXVtDQEBIXShDMT0yKVtOSF1bQ0gyXVtDSF0y

>  <s_glide_docking_method>  (1) 
confgen

>  <s_i_glide_gridfile>  (1) 
gpcr_5ht2c_6bqh_protein_autoprepared_prepared

>  <s_lp_Force_Field>  (1) 
S-OPLS

>  <s_lp_Variant>  (1) 
Pocket2Mol_1-1

>  <s_m_source_file>  (1) 
generated_GPCR_5HT2C_ligand_Pocket2Mol_2026-06-23_prepared.sdf

>  <GenAI_Model>  (1) 
Pocket2Mol

>  <Protein>  (1) 
GPCR_5HT2C

$$$$
Pocket2Mol_91
     RDKit          3D

  0  0  0  0  0  0  0  0  0  0999 V3000
M  V30 BEGIN CTAB
M  V30 COUNTS 14 15 0 0 1
M  V30 BEGIN ATOM
M  V30 1 C 39.245139 27.993563 50.985538 0
M  V30 2 C 38.479241 27.807719 52.165965 0
M  V30 3 C 38.539632 28.808899 53.137698 0
M  V30 4 C 37.935509 28.908525 54.336712 0
M  V30 5 C 40.036284 29.178327 50.842666 0
M  V30 6 C 39.263882 29.890898 53.022674 0
M  V30 7 N 39.141561 30.712529 54.169934 0
M  V30 8 C 38.342863 30.048347 54.901080 0
M  V30 9 C 40.045138 30.144353 51.885967 0
M  V30 10 H 39.229798 27.249214 50.202215 0
M  V30 11 H 37.869411 26.928225 52.305072 0
M  V30 12 H 37.534909 28.041894 54.840691 0
M  V30 13 H 40.622148 29.337755 49.950021 0
M  V30 14 H 40.635583 31.045764 51.805559 0
M  V30 END ATOM
M  V30 BEGIN BOND
M  V30 1 1 2 1
M  V30 2 2 3 2
M  V30 3 1 4 3
M  V30 4 2 5 1
M  V30 5 1 6 3
M  V30 6 1 7 6
M  V30 7 2 8 4
M  V30 8 2 8 7
M  V30 9 1 9 5
M  V30 10 2 9 6
M  V30 11 1 10 1
M  V30 12 1 11 2
M  V30 13 1 12 4
M  V30 14 1 13 5
M  V30 15 1 14 9
M  V30 END BOND
M  V30 END CTAB
M  END
>  <i_epik_Tot_Q>  (1) 
0

>  <i_epik_Tot_abs_Q>  (1) 
0

>  <i_i_glide_confnum>  (1) 
1

>  <i_i_glide_lignum>  (1) 
96

>  <i_i_glide_posenum>  (1) 
315

>  <i_i_glide_rotatable_bonds>  (1) 
0

>  <i_lp_mmshare_version>  (1) 
72125

>  <i_m_source_file_index>  (1) 
92

>  <i_f3d_flags>  (1) 
0

>  <num_sample>  (1) 
100

>  <b_lp_Chiralities_Consistent>  (1) 
1

>  <r_epik_Charging_Adjusted_Penalty>  (1) 
0

>  <r_epik_Ionization_Penalty>  (1) 
7.4584844087238395e-05

>  <r_epik_Ionization_Penalty_Charging>  (1) 
0

>  <r_epik_Ionization_Penalty_Neutral>  (1) 
7.4584844087238395e-05

>  <r_epik_State_Penalty>  (1) 
-0

>  <r_glide_ring_energy>  (1) 
0

>  <r_i_docking_score>  (1) 
-5.9403321600952612

>  <r_i_glide_ecoul>  (1) 
-0.69931515170367742

>  <r_i_glide_eff_state_penalty>  (1) 
-0

>  <r_i_glide_einternal>  (1) 
0

>  <r_i_glide_emodel>  (1) 
-29.581180232014738

>  <r_i_glide_emodel_strain>  (1) 
0

>  <r_i_glide_energy>  (1) 
-21.618259902583844

>  <r_i_glide_erotb>  (1) 
0

>  <r_i_glide_esite>  (1) 
0

>  <r_i_glide_evdw>  (1) 
-20.918944750880168

>  <r_i_glide_gscore>  (1) 
-5.9403321600952612

>  <r_i_glide_gscore_strain>  (1) 
0

>  <r_i_glide_hbond>  (1) 
0

>  <r_i_glide_ligand_efficiency>  (1) 
-0.66003690667725123

>  <r_i_glide_ligand_efficiency_ln>  (1) 
-1.8579652496742887

>  <r_i_glide_ligand_efficiency_sa>  (1) 
-1.3729320921965698

>  <r_i_glide_lipo>  (1) 
-2.1309328436751658

>  <r_i_glide_metal>  (1) 
-0

>  <r_i_glide_rewards>  (1) 
-2.6585548061205353

>  <r_lp_Energy>  (1) 
14.311973999999999

>  <r_lp_tautomer_probability>  (1) 
1

>  <s_epik_Chemistry_Notes>  (1) 
This compound has an imine and may undergo hydrolysis.

>  <s_epik_cmdline>  (1) 
J2VwaWtfcHl0aG9uJywgJy1waHQnLCAnMS4wJywgJy1waCcsICc3LjQnLCAnLXRuJywgJzgnLCAnLW1hJywgJzUwMCcsICctaW1hZScsICc8aW5maWxlLm1hZT4nLCAnLW9tYWUnLCAnPG91dGZpbGUubWFlPic=

>  <s_epik_input>  (1) 
W2NIXTFbY0hdW2NIXVtjSF1jKGMxMilOPUM9W0NIXTI=

>  <s_glide_docking_method>  (1) 
confgen

>  <s_i_glide_gridfile>  (1) 
gpcr_5ht2c_6bqh_protein_autoprepared_prepared

>  <s_lp_Force_Field>  (1) 
S-OPLS

>  <s_lp_Variant>  (1) 
Pocket2Mol_91-1

>  <s_m_source_file>  (1) 
generated_GPCR_5HT2C_ligand_Pocket2Mol_2026-06-23_prepared.sdf

>  <GenAI_Model>  (1) 
Pocket2Mol

>  <Protein>  (1) 
GPCR_5HT2C

$$$$
Pocket2Mol_29
     RDKit          3D

  0  0  0  0  0  0  0  0  0  0999 V3000
M  V30 BEGIN CTAB
M  V30 COUNTS 13 13 0 0 1
M  V30 BEGIN ATOM
M  V30 1 C 38.838208 29.171891 53.552945 0
M  V30 2 C 39.645137 30.164599 52.962717 0
M  V30 3 C 38.433831 28.052514 52.798701 0
M  V30 4 C 40.045137 30.038908 51.617708 0
M  V30 5 O 37.645137 27.095556 53.367720 0
M  V30 6 C 39.645209 28.917626 50.865447 0
M  V30 7 C 38.841479 27.923682 51.455583 0
M  V30 8 H 38.527120 29.270755 54.582919 0
M  V30 9 H 39.953529 31.024245 53.539980 0
M  V30 10 H 40.661181 30.802333 51.164004 0
M  V30 11 H 37.258959 26.515112 52.725551 0
M  V30 12 H 39.953063 28.821220 49.834643 0
M  V30 13 H 38.533408 27.065117 50.876340 0
M  V30 END ATOM
M  V30 BEGIN BOND
M  V30 1 1 2 1
M  V30 2 2 3 1
M  V30 3 2 4 2
M  V30 4 1 5 3
M  V30 5 1 6 4
M  V30 6 1 7 3
M  V30 7 2 7 6
M  V30 8 1 8 1
M  V30 9 1 9 2
M  V30 10 1 10 4
M  V30 11 1 11 5
M  V30 12 1 12 6
M  V30 13 1 13 7
M  V30 END BOND
M  V30 END CTAB
M  END
>  <i_epik_Tot_Q>  (1) 
0

>  <i_epik_Tot_abs_Q>  (1) 
0

>  <i_i_glide_confnum>  (1) 
1

>  <i_i_glide_lignum>  (1) 
32

>  <i_i_glide_posenum>  (1) 
57

>  <i_i_glide_rotatable_bonds>  (1) 
1

>  <i_lp_mmshare_version>  (1) 
72125

>  <i_m_source_file_index>  (1) 
30

>  <i_f3d_flags>  (1) 
0

>  <num_sample>  (1) 
100

>  <b_lp_Chiralities_Consistent>  (1) 
1

>  <r_epik_Charging_Adjusted_Penalty>  (1) 
0

>  <r_epik_Ionization_Penalty>  (1) 
0.0022482968708945868

>  <r_epik_Ionization_Penalty_Charging>  (1) 
0

>  <r_epik_Ionization_Penalty_Neutral>  (1) 
0.0022482968708945868

>  <r_epik_State_Penalty>  (1) 
-0

>  <r_glide_ring_energy>  (1) 
0

>  <r_i_docking_score>  (1) 
-5.9397342941432898

>  <r_i_glide_ecoul>  (1) 
-2.8174097512154255

>  <r_i_glide_eff_state_penalty>  (1) 
-0

>  <r_i_glide_einternal>  (1) 
0.28846678863862735

>  <r_i_glide_emodel>  (1) 
-26.302955168816336

>  <r_i_glide_emodel_strain>  (1) 
0

>  <r_i_glide_energy>  (1) 
-19.532891630018739

>  <r_i_glide_erotb>  (1) 
0

>  <r_i_glide_esite>  (1) 
0

>  <r_i_glide_evdw>  (1) 
-16.715481878803313

>  <r_i_glide_gscore>  (1) 
-5.9397342941432898

>  <r_i_glide_gscore_strain>  (1) 
0

>  <r_i_glide_hbond>  (1) 
-0.1887147074977451

>  <r_i_glide_ligand_efficiency>  (1) 
-0.84853347059189854

>  <r_i_glide_ligand_efficiency_ln>  (1) 
-2.0162645816091938

>  <r_i_glide_ligand_efficiency_sa>  (1) 
-1.6231861355213208

>  <r_i_glide_lipo>  (1) 
-1.885476105661658

>  <r_i_glide_metal>  (1) 
-0

>  <r_i_glide_rewards>  (1) 
-2.6071579243614065

>  <r_lp_Energy>  (1) 
6.6738649999999993

>  <r_lp_tautomer_probability>  (1) 
1

>  <s_epik_cmdline>  (1) 
J2VwaWtfcHl0aG9uJywgJy1waHQnLCAnMS4wJywgJy1waCcsICc3LjQnLCAnLXRuJywgJzgnLCAnLW1hJywgJzUwMCcsICctaW1hZScsICc8aW5maWxlLm1hZT4nLCAnLW9tYWUnLCAnPG91dGZpbGUubWFlPic=

>  <s_epik_input>  (1) 
W09IXWMxW2NIXVtjSF1bY0hdW2NIXVtjSF0x

>  <s_glide_docking_method>  (1) 
confgen

>  <s_i_glide_gridfile>  (1) 
gpcr_5ht2c_6bqh_protein_autoprepared_prepared

>  <s_lp_Force_Field>  (1) 
S-OPLS

>  <s_lp_Variant>  (1) 
Pocket2Mol_29-1

>  <s_m_source_file>  (1) 
generated_GPCR_5HT2C_ligand_Pocket2Mol_2026-06-23_prepared.sdf

>  <GenAI_Model>  (1) 
Pocket2Mol

>  <Protein>  (1) 
GPCR_5HT2C

$$$$
Pocket2Mol_81
     RDKit          3D

  0  0  0  0  0  0  0  0  0  0999 V3000
M  V30 BEGIN CTAB
M  V30 COUNTS 15 16 0 0 1
M  V30 BEGIN ATOM
M  V30 1 C 38.234576 28.104377 52.701491 0
M  V30 2 C 39.112688 28.852893 51.876258 0
M  V30 3 C 39.645138 30.045526 52.408356 0
M  V30 4 C 39.645137 28.736779 50.567761 0
M  V30 5 C 39.340311 30.500832 53.698614 0
M  V30 6 N 40.439969 29.738335 50.266273 0
M  V30 7 N 40.442831 30.537753 51.378800 0
M  V30 8 C 37.915960 28.551598 54.006466 0
M  V30 9 C 38.469370 29.750491 54.503985 0
M  V30 10 H 37.803421 27.185735 52.329509 0
M  V30 11 H 39.468511 27.962429 49.839383 0
M  V30 12 H 39.768009 31.420860 54.068131 0
M  V30 13 H 40.981477 31.393793 51.393928 0
M  V30 14 H 37.245179 27.972690 54.623752 0
M  V30 15 H 38.222426 30.090187 55.500069 0
M  V30 END ATOM
M  V30 BEGIN BOND
M  V30 1 1 2 1
M  V30 2 2 3 2
M  V30 3 1 4 2
M  V30 4 1 5 3
M  V30 5 2 6 4
M  V30 6 1 7 3
M  V30 7 1 7 6
M  V30 8 2 8 1
M  V30 9 2 9 5
M  V30 10 1 9 8
M  V30 11 1 10 1
M  V30 12 1 11 4
M  V30 13 1 12 5
M  V30 14 1 13 7
M  V30 15 1 14 8
M  V30 16 1 15 9
M  V30 END BOND
M  V30 END CTAB
M  END
>  <i_epik_Tot_Q>  (1) 
0

>  <i_epik_Tot_abs_Q>  (1) 
0

>  <i_i_glide_confnum>  (1) 
1

>  <i_i_glide_lignum>  (1) 
86

>  <i_i_glide_posenum>  (1) 
243

>  <i_i_glide_rotatable_bonds>  (1) 
0

>  <i_lp_mmshare_version>  (1) 
72125

>  <i_m_source_file_index>  (1) 
82

>  <i_f3d_flags>  (1) 
0

>  <num_sample>  (1) 
100

>  <b_lp_Chiralities_Consistent>  (1) 
1

>  <r_epik_Charging_Adjusted_Penalty>  (1) 
0

>  <r_epik_Ionization_Penalty>  (1) 
2.5998422111611493e-06

>  <r_epik_Ionization_Penalty_Charging>  (1) 
0

>  <r_epik_Ionization_Penalty_Neutral>  (1) 
2.5998422111611493e-06

>  <r_epik_State_Penalty>  (1) 
-0

>  <r_glide_ring_energy>  (1) 
0

>  <r_i_docking_score>  (1) 
-5.9321715928722245

>  <r_i_glide_ecoul>  (1) 
-1.9232517540477005

>  <r_i_glide_eff_state_penalty>  (1) 
-0

>  <r_i_glide_einternal>  (1) 
0

>  <r_i_glide_emodel>  (1) 
-30.537264452901724

>  <r_i_glide_emodel_strain>  (1) 
0

>  <r_i_glide_energy>  (1) 
-22.199906015843997

>  <r_i_glide_erotb>  (1) 
0

>  <r_i_glide_esite>  (1) 
0

>  <r_i_glide_evdw>  (1) 
-20.276654261796295

>  <r_i_glide_gscore>  (1) 
-5.9321715928722245

>  <r_i_glide_gscore_strain>  (1) 
0

>  <r_i_glide_hbond>  (1) 
0

>  <r_i_glide_ligand_efficiency>  (1) 
-0.65913017698580267

>  <r_i_glide_ligand_efficiency_ln>  (1) 
-1.8554128586783969

>  <r_i_glide_ligand_efficiency_sa>  (1) 
-1.3710460184335069

>  <r_i_glide_lipo>  (1) 
-2.0757091572690336

>  <r_i_glide_metal>  (1) 
-0

>  <r_i_glide_rewards>  (1) 
-2.5541419594062207

>  <r_lp_Energy>  (1) 
10.425352

>  <r_lp_tautomer_probability>  (1) 
1

>  <s_epik_cmdline>  (1) 
J2VwaWtfcHl0aG9uJywgJy1waHQnLCAnMS4wJywgJy1waCcsICc3LjQnLCAnLXRuJywgJzgnLCAnLW1hJywgJzUwMCcsICctaW1hZScsICc8aW5maWxlLm1hZT4nLCAnLW9tYWUnLCAnPG91dGZpbGUubWFlPic=

>  <s_epik_input>  (1) 
W2NIXTFbY0hdW2NIXVtjSF1jKGMxMiluW25IXVtjSF0y

>  <s_glide_docking_method>  (1) 
confgen

>  <s_i_glide_gridfile>  (1) 
gpcr_5ht2c_6bqh_protein_autoprepared_prepared

>  <s_lp_Force_Field>  (1) 
S-OPLS

>  <s_lp_Variant>  (1) 
Pocket2Mol_81-1

>  <s_m_source_file>  (1) 
generated_GPCR_5HT2C_ligand_Pocket2Mol_2026-06-23_prepared.sdf

>  <GenAI_Model>  (1) 
Pocket2Mol

>  <Protein>  (1) 
GPCR_5HT2C

$$$$
Pocket2Mol_64
     RDKit          3D

  0  0  0  0  0  0  0  0  0  0999 V3000
M  V30 BEGIN CTAB
M  V30 COUNTS 15 15 0 0 1
M  V30 BEGIN ATOM
M  V30 1 C 38.641730 29.163484 53.765606 0
M  V30 2 C 39.448800 30.292886 53.531581 0
M  V30 3 C 40.045137 30.483254 52.269912 0
M  V30 4 C 39.836091 29.544615 51.240925 0
M  V30 5 C 38.429859 28.223608 52.738071 0
M  V30 6 N 40.425111 29.737770 49.993282 0
M  V30 7 O 37.645137 27.132642 52.967764 0
M  V30 8 C 39.027530 28.412834 51.474649 0
M  V30 9 H 38.183505 29.018765 54.733407 0
M  V30 10 H 39.609933 31.014207 54.319325 0
M  V30 11 H 40.663073 31.349558 52.092377 0
M  V30 12 H 40.120038 29.190482 49.201401 0
M  V30 13 H 40.845372 30.629925 49.770867 0
M  V30 14 H 37.329185 26.697003 52.184546 0
M  V30 15 H 38.865142 27.691921 50.686087 0
M  V30 END ATOM
M  V30 BEGIN BOND
M  V30 1 1 2 1
M  V30 2 2 3 2
M  V30 3 1 4 3
M  V30 4 2 5 1
M  V30 5 1 6 4
M  V30 6 1 7 5
M  V30 7 2 8 4
M  V30 8 1 8 5
M  V30 9 1 9 1
M  V30 10 1 10 2
M  V30 11 1 11 3
M  V30 12 1 12 6
M  V30 13 1 13 6
M  V30 14 1 14 7
M  V30 15 1 15 8
M  V30 END BOND
M  V30 END CTAB
M  END
>  <i_epik_Tot_Q>  (1) 
0

>  <i_epik_Tot_abs_Q>  (1) 
0

>  <i_i_glide_confnum>  (1) 
1

>  <i_i_glide_lignum>  (1) 
68

>  <i_i_glide_posenum>  (1) 
217

>  <i_i_glide_rotatable_bonds>  (1) 
1

>  <i_lp_mmshare_version>  (1) 
72125

>  <i_m_source_file_index>  (1) 
65

>  <i_f3d_flags>  (1) 
0

>  <num_sample>  (1) 
100

>  <b_lp_Chiralities_Consistent>  (1) 
1

>  <r_epik_Charging_Adjusted_Penalty>  (1) 
0

>  <r_epik_Ionization_Penalty>  (1) 
0.0026005809723615375

>  <r_epik_Ionization_Penalty_Charging>  (1) 
0

>  <r_epik_Ionization_Penalty_Neutral>  (1) 
0.0026005809723615375

>  <r_epik_State_Penalty>  (1) 
-0

>  <r_glide_ring_energy>  (1) 
0

>  <r_i_docking_score>  (1) 
-5.9224333403501728

>  <r_i_glide_ecoul>  (1) 
-4.1382718804128897

>  <r_i_glide_eff_state_penalty>  (1) 
-0

>  <r_i_glide_einternal>  (1) 
0.28156012431625543

>  <r_i_glide_emodel>  (1) 
-28.946274560822125

>  <r_i_glide_emodel_strain>  (1) 
0.0098015936228730283

>  <r_i_glide_energy>  (1) 
-21.388985871378623

>  <r_i_glide_erotb>  (1) 
0

>  <r_i_glide_esite>  (1) 
0

>  <r_i_glide_evdw>  (1) 
-17.250713990965732

>  <r_i_glide_gscore>  (1) 
-5.9224333403501728

>  <r_i_glide_gscore_strain>  (1) 
0

>  <r_i_glide_hbond>  (1) 
-0.29410541293771497

>  <r_i_glide_ligand_efficiency>  (1) 
-0.7403041675437716

>  <r_i_glide_ligand_efficiency_ln>  (1) 
-1.9232166807490312

>  <r_i_glide_ligand_efficiency_sa>  (1) 
-1.4806083350875434

>  <r_i_glide_lipo>  (1) 
-1.7368163720622418

>  <r_i_glide_metal>  (1) 
-0

>  <r_i_glide_rewards>  (1) 
-2.4082350737399958

>  <r_lp_Energy>  (1) 
4.3794230000000001

>  <r_lp_tautomer_probability>  (1) 
1

>  <s_epik_cmdline>  (1) 
J2VwaWtfcHl0aG9uJywgJy1waHQnLCAnMS4wJywgJy1waCcsICc3LjQnLCAnLXRuJywgJzgnLCAnLW1hJywgJzUwMCcsICctaW1hZScsICc8aW5maWxlLm1hZT4nLCAnLW9tYWUnLCAnPG91dGZpbGUubWFlPic=

>  <s_epik_input>  (1) 
W09IXWMoW2NIXTEpW2NIXVtjSF1bY0hdYzFbTkgyXQ==

>  <s_glide_docking_method>  (1) 
confgen

>  <s_i_glide_gridfile>  (1) 
gpcr_5ht2c_6bqh_protein_autoprepared_prepared

>  <s_lp_Force_Field>  (1) 
S-OPLS

>  <s_lp_Variant>  (1) 
Pocket2Mol_64-1

>  <s_m_source_file>  (1) 
generated_GPCR_5HT2C_ligand_Pocket2Mol_2026-06-23_prepared.sdf

>  <GenAI_Model>  (1) 
Pocket2Mol

>  <Protein>  (1) 
GPCR_5HT2C

$$$$
Pocket2Mol_50
     RDKit          3D

  0  0  0  0  0  0  0  0  0  0999 V3000
M  V30 BEGIN CTAB
M  V30 COUNTS 14 14 0 0 1
M  V30 BEGIN ATOM
M  V30 1 C 40.045138 30.537637 52.224909 0
M  V30 2 C 39.435608 30.372218 53.484005 0
M  V30 3 C 38.629471 29.244983 53.733282 0
M  V30 4 C 38.431536 28.282578 52.723523 0
M  V30 5 C 39.852288 29.574933 51.215055 0
M  V30 6 O 37.645136 27.195481 52.967762 0
M  V30 7 O 40.445091 29.737755 49.996971 0
M  V30 8 C 39.044345 28.446203 51.463005 0
M  V30 9 H 40.661599 31.402237 52.035594 0
M  V30 10 H 39.585342 31.110952 54.257655 0
M  V30 11 H 38.160546 29.119266 54.698699 0
M  V30 12 H 37.343664 26.739738 52.190798 0
M  V30 13 H 40.901718 30.562419 49.920080 0
M  V30 14 H 38.894226 27.708961 50.687390 0
M  V30 END ATOM
M  V30 BEGIN BOND
M  V30 1 1 2 1
M  V30 2 2 3 2
M  V30 3 1 4 3
M  V30 4 2 5 1
M  V30 5 1 6 4
M  V30 6 1 7 5
M  V30 7 2 8 4
M  V30 8 1 8 5
M  V30 9 1 9 1
M  V30 10 1 10 2
M  V30 11 1 11 3
M  V30 12 1 12 6
M  V30 13 1 13 7
M  V30 14 1 14 8
M  V30 END BOND
M  V30 END CTAB
M  END
>  <i_epik_Tot_Q>  (1) 
0

>  <i_epik_Tot_abs_Q>  (1) 
0

>  <i_i_glide_confnum>  (1) 
1

>  <i_i_glide_lignum>  (1) 
53

>  <i_i_glide_posenum>  (1) 
329

>  <i_i_glide_rotatable_bonds>  (1) 
2

>  <i_lp_mmshare_version>  (1) 
72125

>  <i_m_source_file_index>  (1) 
51

>  <i_f3d_flags>  (1) 
0

>  <num_sample>  (1) 
100

>  <b_lp_Chiralities_Consistent>  (1) 
1

>  <r_epik_Charging_Adjusted_Penalty>  (1) 
0.012403777776626769

>  <r_epik_Ionization_Penalty>  (1) 
0.012403777776626781

>  <r_epik_Ionization_Penalty_Charging>  (1) 
0

>  <r_epik_Ionization_Penalty_Neutral>  (1) 
0.012403777776626781

>  <r_epik_State_Penalty>  (1) 
0.012403777776626769

>  <r_glide_ring_energy>  (1) 
0

>  <r_i_docking_score>  (1) 
-5.9120233916992282

>  <r_i_glide_ecoul>  (1) 
-4.1161074469495009

>  <r_i_glide_eff_state_penalty>  (1) 
0.012403777776626769

>  <r_i_glide_einternal>  (1) 
0.29833322419892327

>  <r_i_glide_emodel>  (1) 
-28.986231499973009

>  <r_i_glide_emodel_strain>  (1) 
0.0077801197834030944

>  <r_i_glide_energy>  (1) 
-21.338043826781707

>  <r_i_glide_erotb>  (1) 
0

>  <r_i_glide_esite>  (1) 
0

>  <r_i_glide_evdw>  (1) 
-17.221936379832204

>  <r_i_glide_gscore>  (1) 
-5.9244271694758552

>  <r_i_glide_gscore_strain>  (1) 
0

>  <r_i_glide_hbond>  (1) 
-0.29035345913837918

>  <r_i_glide_ligand_efficiency>  (1) 
-0.73900292396240352

>  <r_i_glide_ligand_efficiency_ln>  (1) 
-1.9198362143527552

>  <r_i_glide_ligand_efficiency_sa>  (1) 
-1.4780058479248073

>  <r_i_glide_lipo>  (1) 
-1.7223104940824763

>  <r_i_glide_metal>  (1) 
-0

>  <r_i_glide_rewards>  (1) 
-2.4332502802209635

>  <r_lp_Energy>  (1) 
4.2546869999999997

>  <r_lp_tautomer_probability>  (1) 
0.99999999989799981

>  <s_epik_cmdline>  (1) 
J2VwaWtfcHl0aG9uJywgJy1waHQnLCAnMS4wJywgJy1waCcsICc3LjQnLCAnLXRuJywgJzgnLCAnLW1hJywgJzUwMCcsICctaW1hZScsICc8aW5maWxlLm1hZT4nLCAnLW9tYWUnLCAnPG91dGZpbGUubWFlPic=

>  <s_epik_input>  (1) 
W09IXWMoW2NIXTEpW2NIXVtjSF1bY0hdYzFbT0hd

>  <s_glide_docking_method>  (1) 
confgen

>  <s_i_glide_gridfile>  (1) 
gpcr_5ht2c_6bqh_protein_autoprepared_prepared

>  <s_lp_Force_Field>  (1) 
S-OPLS

>  <s_lp_Variant>  (1) 
Pocket2Mol_50-1

>  <s_m_source_file>  (1) 
generated_GPCR_5HT2C_ligand_Pocket2Mol_2026-06-23_prepared.sdf

>  <GenAI_Model>  (1) 
Pocket2Mol

>  <Protein>  (1) 
GPCR_5HT2C

$$$$
Pocket2Mol_69
     RDKit          3D

  0  0  0  0  0  0  0  0  0  0999 V3000
M  V30 BEGIN CTAB
M  V30 COUNTS 15 16 0 0 1
M  V30 BEGIN ATOM
M  V30 1 C 38.961762 30.362042 54.677624 0
M  V30 2 O 38.426789 29.047441 54.332048 0
M  V30 3 O 39.766414 30.937755 53.603540 0
M  V30 4 C 38.909764 28.931869 53.091256 0
M  V30 5 C 39.644764 29.972196 52.690579 0
M  V30 6 C 40.219861 30.022525 51.410612 0
M  V30 7 C 40.017403 28.933742 50.533895 0
M  V30 8 C 38.681053 27.825171 52.259141 0
M  V30 9 C 39.245098 27.822801 50.963532 0
M  V30 10 H 39.577369 30.270960 55.573188 0
M  V30 11 H 38.130667 31.035451 54.896439 0
M  V30 12 H 40.805729 30.877105 51.103303 0
M  V30 13 H 40.445138 28.946731 49.542985 0
M  V30 14 H 38.084151 26.992165 52.601121 0
M  V30 15 H 39.083313 26.983661 50.301672 0
M  V30 END ATOM
M  V30 BEGIN BOND
M  V30 1 1 2 1
M  V30 2 1 3 1
M  V30 3 1 4 2
M  V30 4 1 5 3
M  V30 5 1 5 4
M  V30 6 2 6 5
M  V30 7 1 7 6
M  V30 8 2 8 4
M  V30 9 2 9 7
M  V30 10 1 9 8
M  V30 11 1 10 1
M  V30 12 1 11 1
M  V30 13 1 12 6
M  V30 14 1 13 7
M  V30 15 1 14 8
M  V30 16 1 15 9
M  V30 END BOND
M  V30 END CTAB
M  END
>  <i_epik_Tot_Q>  (1) 
0

>  <i_epik_Tot_abs_Q>  (1) 
0

>  <i_i_glide_confnum>  (1) 
1

>  <i_i_glide_lignum>  (1) 
74

>  <i_i_glide_posenum>  (1) 
76

>  <i_i_glide_rotatable_bonds>  (1) 
0

>  <i_lp_mmshare_version>  (1) 
72125

>  <i_m_source_file_index>  (1) 
70

>  <i_f3d_flags>  (1) 
0

>  <num_sample>  (1) 
100

>  <b_lp_Chiralities_Consistent>  (1) 
1

>  <r_epik_Charging_Adjusted_Penalty>  (1) 
0

>  <r_epik_Ionization_Penalty>  (1) 
0

>  <r_epik_Ionization_Penalty_Charging>  (1) 
0

>  <r_epik_Ionization_Penalty_Neutral>  (1) 
0

>  <r_epik_State_Penalty>  (1) 
-0

>  <r_glide_ring_energy>  (1) 
0

>  <r_i_docking_score>  (1) 
-5.9090008004208858

>  <r_i_glide_ecoul>  (1) 
-0.6544326896043583

>  <r_i_glide_eff_state_penalty>  (1) 
-0

>  <r_i_glide_einternal>  (1) 
0

>  <r_i_glide_emodel>  (1) 
-27.460560809248939

>  <r_i_glide_emodel_strain>  (1) 
0

>  <r_i_glide_energy>  (1) 
-19.839857392741461

>  <r_i_glide_erotb>  (1) 
0

>  <r_i_glide_esite>  (1) 
0

>  <r_i_glide_evdw>  (1) 
-19.185424703137102

>  <r_i_glide_gscore>  (1) 
-5.9090008004208858

>  <r_i_glide_gscore_strain>  (1) 
0

>  <r_i_glide_hbond>  (1) 
0

>  <r_i_glide_ligand_efficiency>  (1) 
-0.65655564449120951

>  <r_i_glide_ligand_efficiency_ln>  (1) 
-1.8481657004350922

>  <r_i_glide_ligand_efficiency_sa>  (1) 
-1.3656907750395821

>  <r_i_glide_lipo>  (1) 
-1.9208563503487786

>  <r_i_glide_metal>  (1) 
-0

>  <r_i_glide_rewards>  (1) 
-2.9307083114745982

>  <r_lp_Energy>  (1) 
19.342499999999998

>  <r_lp_tautomer_probability>  (1) 
1

>  <s_epik_Chemistry_Notes>  (1) 
This compound contains an acetal/aminal-like group ( X-CH(R)-Y where X, Y are N, S, or O) that may be acid/base labile, releasing an aldehyde.

>  <s_epik_cmdline>  (1) 
J2VwaWtfcHl0aG9uJywgJy1waHQnLCAnMS4wJywgJy1waCcsICc3LjQnLCAnLXRuJywgJzgnLCAnLW1hJywgJzUwMCcsICctaW1hZScsICc8aW5maWxlLm1hZT4nLCAnLW9tYWUnLCAnPG91dGZpbGUubWFlPic=

>  <s_epik_input>  (1) 
TzFbQ0gyXU9jKGMxMilbY0hdW2NIXVtjSF1bY0hdMg==

>  <s_glide_docking_method>  (1) 
confgen

>  <s_i_glide_gridfile>  (1) 
gpcr_5ht2c_6bqh_protein_autoprepared_prepared

>  <s_lp_Force_Field>  (1) 
S-OPLS

>  <s_lp_Variant>  (1) 
Pocket2Mol_69-1

>  <s_m_source_file>  (1) 
generated_GPCR_5HT2C_ligand_Pocket2Mol_2026-06-23_prepared.sdf

>  <GenAI_Model>  (1) 
Pocket2Mol

>  <Protein>  (1) 
GPCR_5HT2C

$$$$
Pocket2Mol_71
     RDKit          3D

  0  0  0  0  0  0  0  0  0  0999 V3000
M  V30 BEGIN CTAB
M  V30 COUNTS 17 17 0 0 1
M  V30 BEGIN ATOM
M  V30 1 C 39.645136 28.654082 50.746736 0
M  V30 2 C 38.845138 27.977604 51.687071 0
M  V30 3 C 38.639761 28.528962 52.967834 0
M  V30 4 C 37.770306 27.790223 53.973216 0
M  V30 5 C 39.245137 29.764559 53.305956 0
M  V30 6 O 39.058524 30.312786 54.542500 0
M  V30 7 C 40.242838 29.882962 51.081243 0
M  V30 8 O 41.014055 30.537748 50.164989 0
M  V30 9 C 40.045135 30.436318 52.360029 0
M  V30 10 H 39.797588 28.231147 49.767759 0
M  V30 11 H 38.384581 27.035753 51.424702 0
M  V30 12 H 37.671597 28.293344 54.933279 0
M  V30 13 H 36.768323 27.660479 53.563265 0
M  V30 14 H 38.189355 26.801534 54.160240 0
M  V30 15 H 38.419771 29.860386 55.070667 0
M  V30 16 H 41.292114 31.400854 50.438189 0
M  V30 17 H 40.504526 31.376605 52.618266 0
M  V30 END ATOM
M  V30 BEGIN BOND
M  V30 1 2 2 1
M  V30 2 1 3 2
M  V30 3 1 4 3
M  V30 4 2 5 3
M  V30 5 1 6 5
M  V30 6 1 7 1
M  V30 7 1 8 7
M  V30 8 1 9 5
M  V30 9 2 9 7
M  V30 10 1 10 1
M  V30 11 1 11 2
M  V30 12 1 12 4
M  V30 13 1 13 4
M  V30 14 1 14 4
M  V30 15 1 15 6
M  V30 16 1 16 8
M  V30 17 1 17 9
M  V30 END BOND
M  V30 END CTAB
M  END
>  <i_epik_Tot_Q>  (1) 
0

>  <i_epik_Tot_abs_Q>  (1) 
0

>  <i_i_glide_confnum>  (1) 
1

>  <i_i_glide_lignum>  (1) 
76

>  <i_i_glide_posenum>  (1) 
155

>  <i_i_glide_rotatable_bonds>  (1) 
2

>  <i_lp_mmshare_version>  (1) 
72125

>  <i_m_source_file_index>  (1) 
72

>  <i_f3d_flags>  (1) 
0

>  <num_sample>  (1) 
100

>  <b_lp_Chiralities_Consistent>  (1) 
1

>  <r_epik_Charging_Adjusted_Penalty>  (1) 
0.00325898940304725

>  <r_epik_Ionization_Penalty>  (1) 
0.005516606254364515

>  <r_epik_Ionization_Penalty_Charging>  (1) 
0

>  <r_epik_Ionization_Penalty_Neutral>  (1) 
0.005516606254364515

>  <r_epik_State_Penalty>  (1) 
0.00325898940304725

>  <r_glide_ring_energy>  (1) 
0

>  <r_i_docking_score>  (1) 
-5.905544190949664

>  <r_i_glide_ecoul>  (1) 
-1.9961002227491855

>  <r_i_glide_eff_state_penalty>  (1) 
0.00325898940304725

>  <r_i_glide_einternal>  (1) 
0.090714468027010553

>  <r_i_glide_emodel>  (1) 
-30.350763203472841

>  <r_i_glide_emodel_strain>  (1) 
0.55462465765991897

>  <r_i_glide_energy>  (1) 
-22.292719832760564

>  <r_i_glide_erotb>  (1) 
0

>  <r_i_glide_esite>  (1) 
0

>  <r_i_glide_evdw>  (1) 
-20.29661961001138

>  <r_i_glide_gscore>  (1) 
-5.9088031803527112

>  <r_i_glide_gscore_strain>  (1) 
0

>  <r_i_glide_hbond>  (1) 
0

>  <r_i_glide_ligand_efficiency>  (1) 
-0.65617157677218485

>  <r_i_glide_ligand_efficiency_ln>  (1) 
-1.8470845722917255

>  <r_i_glide_ligand_efficiency_sa>  (1) 
-1.3648918819902827

>  <r_i_glide_lipo>  (1) 
-2.0782522158677996

>  <r_i_glide_metal>  (1) 
-0

>  <r_i_glide_rewards>  (1) 
-2.5163049505719646

>  <r_lp_Energy>  (1) 
3.8278699999999999

>  <r_lp_tautomer_probability>  (1) 
0.99999999989799981

>  <s_epik_cmdline>  (1) 
J2VwaWtfcHl0aG9uJywgJy1waHQnLCAnMS4wJywgJy1waCcsICc3LjQnLCAnLXRuJywgJzgnLCAnLW1hJywgJzUwMCcsICctaW1hZScsICc8aW5maWxlLm1hZT4nLCAnLW9tYWUnLCAnPG91dGZpbGUubWFlPic=

>  <s_epik_input>  (1) 
W0NIM11jMVtjSF1bY0hdYyhbT0hdKVtjSF1jMVtPSF0=

>  <s_glide_docking_method>  (1) 
confgen

>  <s_i_glide_gridfile>  (1) 
gpcr_5ht2c_6bqh_protein_autoprepared_prepared

>  <s_lp_Force_Field>  (1) 
S-OPLS

>  <s_lp_Variant>  (1) 
Pocket2Mol_71-1

>  <s_m_source_file>  (1) 
generated_GPCR_5HT2C_ligand_Pocket2Mol_2026-06-23_prepared.sdf

>  <GenAI_Model>  (1) 
Pocket2Mol

>  <Protein>  (1) 
GPCR_5HT2C

$$$$
Pocket2Mol_64
     RDKit          3D

  0  0  0  0  0  0  0  0  0  0999 V3000
M  V30 BEGIN CTAB
M  V30 COUNTS 15 15 0 0 1
M  V30 BEGIN ATOM
M  V30 1 C 38.822303 28.209614 52.004927 0
M  V30 2 C 39.645137 29.335616 51.807711 0
M  V30 3 C 39.687066 30.356114 52.779387 0
M  V30 4 C 38.906551 30.251198 53.948087 0
M  V30 5 C 38.042538 28.103961 53.174743 0
M  V30 6 N 38.944188 31.263208 54.904935 0
M  V30 7 O 37.245137 27.016011 53.367761 0
M  V30 8 C 38.085115 29.123943 54.145539 0
M  V30 9 H 38.789392 27.427965 51.259526 0
M  V30 10 H 40.242869 29.417702 50.912021 0
M  V30 11 H 40.317438 31.220527 52.625476 0
M  V30 12 H 38.247121 31.294823 55.638079 0
M  V30 13 H 39.384872 32.144081 54.686040 0
M  V30 14 H 37.052692 26.537760 52.570642 0
M  V30 15 H 37.485095 29.042317 55.040434 0
M  V30 END ATOM
M  V30 BEGIN BOND
M  V30 1 1 2 1
M  V30 2 2 3 2
M  V30 3 1 4 3
M  V30 4 2 5 1
M  V30 5 1 6 4
M  V30 6 1 7 5
M  V30 7 2 8 4
M  V30 8 1 8 5
M  V30 9 1 9 1
M  V30 10 1 10 2
M  V30 11 1 11 3
M  V30 12 1 12 6
M  V30 13 1 13 6
M  V30 14 1 14 7
M  V30 15 1 15 8
M  V30 END BOND
M  V30 END CTAB
M  END
>  <i_epik_Tot_Q>  (1) 
0

>  <i_epik_Tot_abs_Q>  (1) 
0

>  <i_i_glide_confnum>  (1) 
1

>  <i_i_glide_lignum>  (1) 
68

>  <i_i_glide_posenum>  (1) 
253

>  <i_i_glide_rotatable_bonds>  (1) 
1

>  <i_lp_mmshare_version>  (1) 
72125

>  <i_m_source_file_index>  (1) 
65

>  <i_f3d_flags>  (1) 
0

>  <num_sample>  (1) 
100

>  <b_lp_Chiralities_Consistent>  (1) 
1

>  <r_epik_Charging_Adjusted_Penalty>  (1) 
0

>  <r_epik_Ionization_Penalty>  (1) 
0.0026005809723615375

>  <r_epik_Ionization_Penalty_Charging>  (1) 
0

>  <r_epik_Ionization_Penalty_Neutral>  (1) 
0.0026005809723615375

>  <r_epik_State_Penalty>  (1) 
-0

>  <r_glide_ring_energy>  (1) 
0

>  <r_i_docking_score>  (1) 
-5.9013110442623056

>  <r_i_glide_ecoul>  (1) 
-3.9112248163742489

>  <r_i_glide_eff_state_penalty>  (1) 
-0

>  <r_i_glide_einternal>  (1) 
0.24943657107478964

>  <r_i_glide_emodel>  (1) 
-28.008078510183761

>  <r_i_glide_emodel_strain>  (1) 
0.018865753753267711

>  <r_i_glide_energy>  (1) 
-20.471282242597752

>  <r_i_glide_erotb>  (1) 
0

>  <r_i_glide_esite>  (1) 
0

>  <r_i_glide_evdw>  (1) 
-16.560057426223505

>  <r_i_glide_gscore>  (1) 
-5.9013110442623056

>  <r_i_glide_gscore_strain>  (1) 
0

>  <r_i_glide_hbond>  (1) 
-0.29710383671435375

>  <r_i_glide_ligand_efficiency>  (1) 
-0.7376638805327882

>  <r_i_glide_ligand_efficiency_ln>  (1) 
-1.9163575487272084

>  <r_i_glide_ligand_efficiency_sa>  (1) 
-1.4753277610655766

>  <r_i_glide_lipo>  (1) 
-1.8275723913290201

>  <r_i_glide_metal>  (1) 
-0

>  <r_i_glide_rewards>  (1) 
-2.3619482224516202

>  <r_lp_Energy>  (1) 
4.3794230000000001

>  <r_lp_tautomer_probability>  (1) 
1

>  <s_epik_cmdline>  (1) 
J2VwaWtfcHl0aG9uJywgJy1waHQnLCAnMS4wJywgJy1waCcsICc3LjQnLCAnLXRuJywgJzgnLCAnLW1hJywgJzUwMCcsICctaW1hZScsICc8aW5maWxlLm1hZT4nLCAnLW9tYWUnLCAnPG91dGZpbGUubWFlPic=

>  <s_epik_input>  (1) 
W09IXWMoW2NIXTEpW2NIXVtjSF1bY0hdYzFbTkgyXQ==

>  <s_glide_docking_method>  (1) 
confgen

>  <s_i_glide_gridfile>  (1) 
gpcr_5ht2c_6bqh_protein_autoprepared_prepared

>  <s_lp_Force_Field>  (1) 
S-OPLS

>  <s_lp_Variant>  (1) 
Pocket2Mol_64-1

>  <s_m_source_file>  (1) 
generated_GPCR_5HT2C_ligand_Pocket2Mol_2026-06-23_prepared.sdf

>  <GenAI_Model>  (1) 
Pocket2Mol

>  <Protein>  (1) 
GPCR_5HT2C

$$$$
Pocket2Mol_74
     RDKit          3D

  0  0  0  0  0  0  0  0  0  0999 V3000
M  V30 BEGIN CTAB
M  V30 COUNTS 16 17 0 0 1
M  V30 BEGIN ATOM
M  V30 1 C 38.518043 27.960633 52.208191 0
M  V30 2 C 38.518051 28.849348 53.349832 0
M  V30 3 C 39.245136 30.003430 53.353673 0
M  V30 4 C 37.908331 28.752750 54.458370 0
M  V30 5 C 40.045137 30.376221 52.176591 0
M  V30 6 N 39.157311 30.701934 54.440270 0
M  V30 7 C 38.181841 29.913825 55.386256 0
M  V30 8 C 39.255200 28.287770 51.118864 0
M  V30 9 C 40.045137 29.539840 51.102294 0
M  V30 10 H 37.938025 27.048954 52.222593 0
M  V30 11 H 37.254635 27.939724 54.736980 0
M  V30 12 H 40.601599 31.301698 52.213894 0
M  V30 13 H 37.277575 30.482664 55.611776 0
M  V30 14 H 38.671491 29.595031 56.306840 0
M  V30 15 H 39.263806 27.633794 50.258503 0
M  V30 16 H 40.625994 29.794000 50.227836 0
M  V30 END ATOM
M  V30 BEGIN BOND
M  V30 1 1 2 1
M  V30 2 1 3 2
M  V30 3 2 4 2
M  V30 4 1 5 3
M  V30 5 2 6 3
M  V30 6 1 7 4
M  V30 7 1 7 6
M  V30 8 2 8 1
M  V30 9 2 9 5
M  V30 10 1 9 8
M  V30 11 1 10 1
M  V30 12 1 11 4
M  V30 13 1 12 5
M  V30 14 1 13 7
M  V30 15 1 14 7
M  V30 16 1 15 8
M  V30 17 1 16 9
M  V30 END BOND
M  V30 END CTAB
M  END
>  <i_epik_Tot_Q>  (1) 
0

>  <i_epik_Tot_abs_Q>  (1) 
0

>  <i_i_glide_confnum>  (1) 
1

>  <i_i_glide_lignum>  (1) 
79

>  <i_i_glide_posenum>  (1) 
215

>  <i_i_glide_rotatable_bonds>  (1) 
0

>  <i_lp_mmshare_version>  (1) 
72125

>  <i_m_source_file_index>  (1) 
75

>  <i_f3d_flags>  (1) 
0

>  <num_sample>  (1) 
100

>  <b_lp_Chiralities_Consistent>  (1) 
1

>  <r_epik_Charging_Adjusted_Penalty>  (1) 
0

>  <r_epik_Ionization_Penalty>  (1) 
0

>  <r_epik_Ionization_Penalty_Charging>  (1) 
0

>  <r_epik_Ionization_Penalty_Neutral>  (1) 
0

>  <r_epik_State_Penalty>  (1) 
-0

>  <r_glide_ring_energy>  (1) 
0

>  <r_i_docking_score>  (1) 
-5.8991994606086582

>  <r_i_glide_ecoul>  (1) 
-0.65473479074762819

>  <r_i_glide_eff_state_penalty>  (1) 
-0

>  <r_i_glide_einternal>  (1) 
0

>  <r_i_glide_emodel>  (1) 
-29.717868170789849

>  <r_i_glide_emodel_strain>  (1) 
0

>  <r_i_glide_energy>  (1) 
-21.550909779643089

>  <r_i_glide_erotb>  (1) 
0

>  <r_i_glide_esite>  (1) 
0

>  <r_i_glide_evdw>  (1) 
-20.89617498889546

>  <r_i_glide_gscore>  (1) 
-5.8991994606086582

>  <r_i_glide_gscore_strain>  (1) 
0

>  <r_i_glide_hbond>  (1) 
0

>  <r_i_glide_ligand_efficiency>  (1) 
-0.65546660673429535

>  <r_i_glide_ligand_efficiency_ln>  (1) 
-1.8451001229083506

>  <r_i_glide_ligand_efficiency_sa>  (1) 
-1.3634254852187322

>  <r_i_glide_lipo>  (1) 
-1.9987087584919718

>  <r_i_glide_metal>  (1) 
-0

>  <r_i_glide_rewards>  (1) 
-2.7574717340597688

>  <r_lp_Energy>  (1) 
8.0132250000000003

>  <r_lp_tautomer_probability>  (1) 
1

>  <s_epik_Chemistry_Notes>  (1) 
This compound has an imine and may undergo hydrolysis.

>  <s_epik_cmdline>  (1) 
J2VwaWtfcHl0aG9uJywgJy1waHQnLCAnMS4wJywgJy1waCcsICc3LjQnLCAnLXRuJywgJzgnLCAnLW1hJywgJzUwMCcsICctaW1hZScsICc8aW5maWxlLm1hZT4nLCAnLW9tYWUnLCAnPG91dGZpbGUubWFlPic=

>  <s_epik_input>  (1) 
W2NIXTFbY0hdW2NIXVtjSF1jKGMxPTIpPU5bQ0gyXVtDSF0y

>  <s_glide_docking_method>  (1) 
confgen

>  <s_i_glide_gridfile>  (1) 
gpcr_5ht2c_6bqh_protein_autoprepared_prepared

>  <s_lp_Force_Field>  (1) 
S-OPLS

>  <s_lp_Variant>  (1) 
Pocket2Mol_74-1

>  <s_m_source_file>  (1) 
generated_GPCR_5HT2C_ligand_Pocket2Mol_2026-06-23_prepared.sdf

>  <GenAI_Model>  (1) 
Pocket2Mol

>  <Protein>  (1) 
GPCR_5HT2C

$$$$
Pocket2Mol_75
     RDKit          3D

  0  0  0  0  0  0  0  0  0  0999 V3000
M  V30 BEGIN CTAB
M  V30 COUNTS 21 22 0 0 1
M  V30 BEGIN ATOM
M  V30 1 C 38.792086 28.352447 54.840082 0
M  V30 2 C 38.582170 28.544176 53.330125 0 CFG=1
M  V30 3 C 38.942860 29.788319 55.381200 0
M  V30 4 C 39.608372 30.564349 54.236001 0
M  V30 5 N 39.245137 29.818554 53.046748 0
M  V30 6 N 40.045136 29.984397 51.942973 0
M  V30 7 C 40.044560 29.135809 50.969693 0
M  V30 8 C 39.245137 27.857461 51.017982 0
M  V30 9 C 39.082301 27.381532 52.464979 0
M  V30 10 H 37.976103 27.804713 55.312077 0
M  V30 11 H 39.714695 27.802904 55.030026 0
M  V30 12 H 37.520073 28.698132 53.134488 0
M  V30 13 H 37.953778 30.207273 55.574899 0
M  V30 14 H 39.511744 29.837376 56.309951 0
M  V30 15 H 39.251919 31.592769 54.167864 0
M  V30 16 H 40.694007 30.571590 54.343105 0
M  V30 17 H 40.632469 29.338806 50.074967 0
M  V30 18 H 38.271836 28.035656 50.567771 0
M  V30 19 H 39.734438 27.081839 50.429266 0
M  V30 20 H 40.045132 27.024111 52.831209 0
M  V30 21 H 38.395573 26.537828 52.530041 0
M  V30 END ATOM
M  V30 BEGIN BOND
M  V30 1 1 2 1
M  V30 2 1 3 1
M  V30 3 1 4 3
M  V30 4 1 5 2
M  V30 5 1 5 4
M  V30 6 1 6 5
M  V30 7 2 7 6
M  V30 8 1 8 7
M  V30 9 1 9 2
M  V30 10 1 9 8
M  V30 11 1 10 1
M  V30 12 1 11 1
M  V30 13 1 2 12 CFG=1
M  V30 14 1 13 3
M  V30 15 1 14 3
M  V30 16 1 15 4
M  V30 17 1 16 4
M  V30 18 1 17 7
M  V30 19 1 18 8
M  V30 20 1 19 8
M  V30 21 1 20 9
M  V30 22 1 21 9
M  V30 END BOND
M  V30 END CTAB
M  END
>  <i_epik_Tot_Q>  (1) 
0

>  <i_epik_Tot_abs_Q>  (1) 
0

>  <i_i_glide_confnum>  (1) 
1

>  <i_i_glide_lignum>  (1) 
80

>  <i_i_glide_posenum>  (1) 
63

>  <i_i_glide_rotatable_bonds>  (1) 
0

>  <i_lp_mmshare_version>  (1) 
72125

>  <i_m_source_file_index>  (1) 
76

>  <i_f3d_flags>  (1) 
0

>  <num_sample>  (1) 
100

>  <b_lp_Chiralities_Consistent>  (1) 
1

>  <r_epik_Charging_Adjusted_Penalty>  (1) 
0

>  <r_epik_Ionization_Penalty>  (1) 
0.0031146778150898829

>  <r_epik_Ionization_Penalty_Charging>  (1) 
0

>  <r_epik_Ionization_Penalty_Neutral>  (1) 
0.0031146778150898829

>  <r_epik_State_Penalty>  (1) 
-0

>  <r_glide_ring_energy>  (1) 
0

>  <r_i_docking_score>  (1) 
-5.8984651966484201

>  <r_i_glide_ecoul>  (1) 
-0.39776655265651439

>  <r_i_glide_eff_state_penalty>  (1) 
-0

>  <r_i_glide_einternal>  (1) 
0

>  <r_i_glide_emodel>  (1) 
-30.150173256267763

>  <r_i_glide_emodel_strain>  (1) 
0

>  <r_i_glide_energy>  (1) 
-22.429004579594057

>  <r_i_glide_erotb>  (1) 
0

>  <r_i_glide_esite>  (1) 
0

>  <r_i_glide_evdw>  (1) 
-22.031238026937544

>  <r_i_glide_gscore>  (1) 
-5.8984651966484201

>  <r_i_glide_gscore_strain>  (1) 
0

>  <r_i_glide_hbond>  (1) 
0

>  <r_i_glide_ligand_efficiency>  (1) 
-0.6553850218498245

>  <r_i_glide_ligand_efficiency_ln>  (1) 
-1.8448704662350461

>  <r_i_glide_ligand_efficiency_sa>  (1) 
-1.3632557818203388

>  <r_i_glide_lipo>  (1) 
-1.5166559953437084

>  <r_i_glide_metal>  (1) 
-0

>  <r_i_glide_rewards>  (1) 
-3.2205823170593568

>  <r_lp_Energy>  (1) 
16.062878999999999

>  <r_lp_tautomer_probability>  (1) 
1

>  <s_epik_Chemistry_Notes>  (1) 
This compound has an imine and may undergo hydrolysis.

>  <s_epik_cmdline>  (1) 
J2VwaWtfcHl0aG9uJywgJy1waHQnLCAnMS4wJywgJy1waCcsICc3LjQnLCAnLXRuJywgJzgnLCAnLW1hJywgJzUwMCcsICctaW1hZScsICc8aW5maWxlLm1hZT4nLCAnLW9tYWUnLCAnPG91dGZpbGUubWFlPic=

>  <s_epik_input>  (1) 
W0NIMl0xW0NIMl1bQ0gyXU4oW0NASF0xMilOPVtDSF1bQ0gyXVtDSDJdMg==

>  <s_glide_docking_method>  (1) 
confgen

>  <s_i_glide_gridfile>  (1) 
gpcr_5ht2c_6bqh_protein_autoprepared_prepared

>  <s_lp_Force_Field>  (1) 
S-OPLS

>  <s_lp_Variant>  (1) 
Pocket2Mol_75-1

>  <s_m_source_file>  (1) 
generated_GPCR_5HT2C_ligand_Pocket2Mol_2026-06-23_prepared.sdf

>  <GenAI_Model>  (1) 
Pocket2Mol

>  <Protein>  (1) 
GPCR_5HT2C

$$$$
Pocket2Mol_1
     RDKit          3D

  0  0  0  0  0  0  0  0  0  0999 V3000
M  V30 BEGIN CTAB
M  V30 COUNTS 19 20 0 0 1
M  V30 BEGIN ATOM
M  V30 1 C 38.667544 28.038365 52.191990 0
M  V30 2 C 38.596203 28.985010 53.278301 0
M  V30 3 C 39.492366 30.137727 53.366460 0 CFG=1
M  V30 4 C 37.725774 28.939105 54.217998 0
M  V30 5 C 40.045134 30.507213 51.992356 0
M  V30 6 C 40.007583 29.653745 50.941429 0
M  V30 7 C 37.746632 30.090379 55.147379 0
M  V30 8 O 40.535730 30.016180 49.767762 0
M  V30 9 N 38.647380 30.978532 54.287635 0
M  V30 10 C 39.356512 28.348436 51.079283 0
M  V30 11 H 38.144616 27.094570 52.258509 0
M  V30 12 H 40.351135 29.834380 53.964726 0
M  V30 13 H 36.971860 28.170700 54.305136 0
M  V30 14 H 40.510362 31.475626 51.891038 0
M  V30 15 H 36.763914 30.537761 55.302998 0
M  V30 16 H 38.204588 29.821296 56.099627 0
M  V30 17 H 40.288841 29.360218 49.134461 0
M  V30 18 H 39.188991 31.624889 54.843778 0
M  V30 19 H 39.388142 27.644623 50.259801 0
M  V30 END ATOM
M  V30 BEGIN BOND
M  V30 1 1 2 1
M  V30 2 1 3 2
M  V30 3 2 4 2
M  V30 4 1 5 3
M  V30 5 2 6 5
M  V30 6 1 7 4
M  V30 7 1 8 6
M  V30 8 1 9 3
M  V30 9 1 9 7
M  V30 10 2 10 1
M  V30 11 1 10 6
M  V30 12 1 11 1
M  V30 13 1 3 12 CFG=1
M  V30 14 1 13 4
M  V30 15 1 14 5
M  V30 16 1 15 7
M  V30 17 1 16 7
M  V30 18 1 17 8
M  V30 19 1 18 9
M  V30 20 1 19 10
M  V30 END BOND
M  V30 END CTAB
M  END
>  <i_epik_Tot_Q>  (1) 
0

>  <i_epik_Tot_abs_Q>  (1) 
0

>  <i_i_glide_confnum>  (1) 
1

>  <i_i_glide_lignum>  (1) 
4

>  <i_i_glide_posenum>  (1) 
113

>  <i_i_glide_rotatable_bonds>  (1) 
1

>  <i_lp_mmshare_version>  (1) 
72125

>  <i_m_source_file_index>  (1) 
2

>  <i_f3d_flags>  (1) 
0

>  <num_sample>  (1) 
100

>  <b_lp_Chiralities_Consistent>  (1) 
1

>  <r_epik_Charging_Adjusted_Penalty>  (1) 
0.0032380173127296522

>  <r_epik_Ionization_Penalty>  (1) 
0.0032399356015129686

>  <r_epik_Ionization_Penalty_Charging>  (1) 
0

>  <r_epik_Ionization_Penalty_Neutral>  (1) 
0.0032399356015129686

>  <r_epik_State_Penalty>  (1) 
0.0032380173127296522

>  <r_glide_ring_energy>  (1) 
0

>  <r_i_docking_score>  (1) 
-5.8880000754693942

>  <r_i_glide_ecoul>  (1) 
-0.80723850055759971

>  <r_i_glide_eff_state_penalty>  (1) 
0.0032380173127296522

>  <r_i_glide_einternal>  (1) 
0.045100171516593957

>  <r_i_glide_emodel>  (1) 
-32.91484848185776

>  <r_i_glide_emodel_strain>  (1) 
2.5805306336224021e-08

>  <r_i_glide_energy>  (1) 
-23.936571936435271

>  <r_i_glide_erotb>  (1) 
0

>  <r_i_glide_esite>  (1) 
0

>  <r_i_glide_evdw>  (1) 
-23.129333435877673

>  <r_i_glide_gscore>  (1) 
-5.8912380927821237

>  <r_i_glide_gscore_strain>  (1) 
0

>  <r_i_glide_hbond>  (1) 
0

>  <r_i_glide_ligand_efficiency>  (1) 
-0.5888000075469394

>  <r_i_glide_ligand_efficiency_ln>  (1) 
-1.7828458343011147

>  <r_i_glide_ligand_efficiency_sa>  (1) 
-1.2685311617501613

>  <r_i_glide_lipo>  (1) 
-2.0669934231436677

>  <r_i_glide_metal>  (1) 
-0

>  <r_i_glide_rewards>  (1) 
-2.5466922227609325

>  <r_lp_Energy>  (1) 
5.6363089999999998

>  <s_epik_cmdline>  (1) 
J2VwaWtfcHl0aG9uJywgJy1waHQnLCAnMS4wJywgJy1waCcsICc3LjQnLCAnLXRuJywgJzgnLCAnLW1hJywgJzUwMCcsICctaW1hZScsICc8aW5maWxlLm1hZT4nLCAnLW9tYWUnLCAnPG91dGZpbGUubWFlPic=

>  <s_epik_input>  (1) 
W0NIXTE9W0NIXUMoW09IXSk9W0NIXVtDQEhdKEMxPTIpW05IXVtDSDJdW0NIXTI=

>  <s_glide_docking_method>  (1) 
confgen

>  <s_i_glide_gridfile>  (1) 
gpcr_5ht2c_6bqh_protein_autoprepared_prepared

>  <s_lp_Force_Field>  (1) 
S-OPLS

>  <s_lp_Variant>  (1) 
Pocket2Mol_1-2

>  <s_m_source_file>  (1) 
generated_GPCR_5HT2C_ligand_Pocket2Mol_2026-06-23_prepared.sdf

>  <GenAI_Model>  (1) 
Pocket2Mol

>  <Protein>  (1) 
GPCR_5HT2C

$$$$
Pocket2Mol_69
     RDKit          3D

  0  0  0  0  0  0  0  0  0  0999 V3000
M  V30 BEGIN CTAB
M  V30 COUNTS 15 16 0 0 1
M  V30 BEGIN ATOM
M  V30 1 C 38.052605 28.295140 54.244128 0
M  V30 2 O 38.800805 29.547525 54.179151 0
M  V30 3 O 38.111353 27.541408 52.995057 0
M  V30 4 C 39.245150 29.473563 52.921584 0
M  V30 5 C 38.866476 28.372360 52.271770 0
M  V30 6 C 39.245140 28.133442 50.942331 0
M  V30 7 C 40.044732 29.094828 50.278761 0
M  V30 8 C 40.045134 30.455324 52.309978 0
M  V30 9 C 40.445889 30.265824 50.967839 0
M  V30 10 H 37.009623 28.518722 54.469614 0
M  V30 11 H 38.457931 27.680771 55.049250 0
M  V30 12 H 38.929429 27.234215 50.433581 0
M  V30 13 H 40.345976 28.937871 49.253935 0
M  V30 14 H 40.342268 31.337766 52.853436 0
M  V30 15 H 41.056221 31.006402 50.472517 0
M  V30 END ATOM
M  V30 BEGIN BOND
M  V30 1 1 2 1
M  V30 2 1 3 1
M  V30 3 1 4 2
M  V30 4 1 5 3
M  V30 5 1 5 4
M  V30 6 2 6 5
M  V30 7 1 7 6
M  V30 8 2 8 4
M  V30 9 2 9 7
M  V30 10 1 9 8
M  V30 11 1 10 1
M  V30 12 1 11 1
M  V30 13 1 12 6
M  V30 14 1 13 7
M  V30 15 1 14 8
M  V30 16 1 15 9
M  V30 END BOND
M  V30 END CTAB
M  END
>  <i_epik_Tot_Q>  (1) 
0

>  <i_epik_Tot_abs_Q>  (1) 
0

>  <i_i_glide_confnum>  (1) 
1

>  <i_i_glide_lignum>  (1) 
74

>  <i_i_glide_posenum>  (1) 
56

>  <i_i_glide_rotatable_bonds>  (1) 
0

>  <i_lp_mmshare_version>  (1) 
72125

>  <i_m_source_file_index>  (1) 
70

>  <i_f3d_flags>  (1) 
0

>  <num_sample>  (1) 
100

>  <b_lp_Chiralities_Consistent>  (1) 
1

>  <r_epik_Charging_Adjusted_Penalty>  (1) 
0

>  <r_epik_Ionization_Penalty>  (1) 
0

>  <r_epik_Ionization_Penalty_Charging>  (1) 
0

>  <r_epik_Ionization_Penalty_Neutral>  (1) 
0

>  <r_epik_State_Penalty>  (1) 
-0

>  <r_glide_ring_energy>  (1) 
0

>  <r_i_docking_score>  (1) 
-5.8876831749621683

>  <r_i_glide_ecoul>  (1) 
-0.08359989908185804

>  <r_i_glide_eff_state_penalty>  (1) 
-0

>  <r_i_glide_einternal>  (1) 
0

>  <r_i_glide_emodel>  (1) 
-26.790255697385117

>  <r_i_glide_emodel_strain>  (1) 
0

>  <r_i_glide_energy>  (1) 
-19.19704513570235

>  <r_i_glide_erotb>  (1) 
0

>  <r_i_glide_esite>  (1) 
0

>  <r_i_glide_evdw>  (1) 
-19.113445236620493

>  <r_i_glide_gscore>  (1) 
-5.8876831749621683

>  <r_i_glide_gscore_strain>  (1) 
0

>  <r_i_glide_hbond>  (1) 
0

>  <r_i_glide_ligand_efficiency>  (1) 
-0.65418701944024094

>  <r_i_glide_ligand_efficiency_ln>  (1) 
-1.8414981595905018

>  <r_i_glide_ligand_efficiency_sa>  (1) 
-1.3607638363881869

>  <r_i_glide_lipo>  (1) 
-1.7226883860665656

>  <r_i_glide_metal>  (1) 
-0

>  <r_i_glide_rewards>  (1) 
-3.1967825422022993

>  <r_lp_Energy>  (1) 
19.342499999999998

>  <r_lp_tautomer_probability>  (1) 
1

>  <s_epik_Chemistry_Notes>  (1) 
This compound contains an acetal/aminal-like group ( X-CH(R)-Y where X, Y are N, S, or O) that may be acid/base labile, releasing an aldehyde.

>  <s_epik_cmdline>  (1) 
J2VwaWtfcHl0aG9uJywgJy1waHQnLCAnMS4wJywgJy1waCcsICc3LjQnLCAnLXRuJywgJzgnLCAnLW1hJywgJzUwMCcsICctaW1hZScsICc8aW5maWxlLm1hZT4nLCAnLW9tYWUnLCAnPG91dGZpbGUubWFlPic=

>  <s_epik_input>  (1) 
TzFbQ0gyXU9jKGMxMilbY0hdW2NIXVtjSF1bY0hdMg==

>  <s_glide_docking_method>  (1) 
confgen

>  <s_i_glide_gridfile>  (1) 
gpcr_5ht2c_6bqh_protein_autoprepared_prepared

>  <s_lp_Force_Field>  (1) 
S-OPLS

>  <s_lp_Variant>  (1) 
Pocket2Mol_69-1

>  <s_m_source_file>  (1) 
generated_GPCR_5HT2C_ligand_Pocket2Mol_2026-06-23_prepared.sdf

>  <GenAI_Model>  (1) 
Pocket2Mol

>  <Protein>  (1) 
GPCR_5HT2C

$$$$
Pocket2Mol_50
     RDKit          3D

  0  0  0  0  0  0  0  0  0  0999 V3000
M  V30 BEGIN CTAB
M  V30 COUNTS 14 14 0 0 1
M  V30 BEGIN ATOM
M  V30 1 C 38.491372 29.307633 53.922865 0
M  V30 2 C 39.387384 30.376338 53.722119 0
M  V30 3 C 40.044874 30.520688 52.484496 0
M  V30 4 C 39.807291 29.597616 51.447789 0
M  V30 5 C 38.251501 28.384917 52.885575 0
M  V30 6 O 40.445137 29.738173 50.250006 0
M  V30 7 O 37.380778 27.353673 53.080653 0
M  V30 8 C 38.909227 28.530643 51.647351 0
M  V30 9 H 37.986186 29.196760 54.871702 0
M  V30 10 H 39.570012 31.085744 54.516104 0
M  V30 11 H 40.730540 31.337883 52.331810 0
M  V30 12 H 40.943432 30.539503 50.193377 0
M  V30 13 H 37.148775 26.875986 52.291981 0
M  V30 14 H 38.726251 27.825111 50.850018 0
M  V30 END ATOM
M  V30 BEGIN BOND
M  V30 1 1 2 1
M  V30 2 2 3 2
M  V30 3 1 4 3
M  V30 4 2 5 1
M  V30 5 1 6 4
M  V30 6 1 7 5
M  V30 7 2 8 4
M  V30 8 1 8 5
M  V30 9 1 9 1
M  V30 10 1 10 2
M  V30 11 1 11 3
M  V30 12 1 12 6
M  V30 13 1 13 7
M  V30 14 1 14 8
M  V30 END BOND
M  V30 END CTAB
M  END
>  <i_epik_Tot_Q>  (1) 
0

>  <i_epik_Tot_abs_Q>  (1) 
0

>  <i_i_glide_confnum>  (1) 
1

>  <i_i_glide_lignum>  (1) 
53

>  <i_i_glide_posenum>  (1) 
377

>  <i_i_glide_rotatable_bonds>  (1) 
2

>  <i_lp_mmshare_version>  (1) 
72125

>  <i_m_source_file_index>  (1) 
51

>  <i_f3d_flags>  (1) 
0

>  <num_sample>  (1) 
100

>  <b_lp_Chiralities_Consistent>  (1) 
1

>  <r_epik_Charging_Adjusted_Penalty>  (1) 
0.012403777776626769

>  <r_epik_Ionization_Penalty>  (1) 
0.012403777776626781

>  <r_epik_Ionization_Penalty_Charging>  (1) 
0

>  <r_epik_Ionization_Penalty_Neutral>  (1) 
0.012403777776626781

>  <r_epik_State_Penalty>  (1) 
0.012403777776626769

>  <r_glide_ring_energy>  (1) 
0

>  <r_i_docking_score>  (1) 
-5.8787579992385917

>  <r_i_glide_ecoul>  (1) 
-4.1749207907150936

>  <r_i_glide_eff_state_penalty>  (1) 
0.012403777776626769

>  <r_i_glide_einternal>  (1) 
0.065256676517441325

>  <r_i_glide_emodel>  (1) 
-28.540375968478905

>  <r_i_glide_emodel_strain>  (1) 
0

>  <r_i_glide_energy>  (1) 
-20.811695380779916

>  <r_i_glide_erotb>  (1) 
0

>  <r_i_glide_esite>  (1) 
0

>  <r_i_glide_evdw>  (1) 
-16.636774590064825

>  <r_i_glide_gscore>  (1) 
-5.8911617770152187

>  <r_i_glide_gscore_strain>  (1) 
0

>  <r_i_glide_hbond>  (1) 
-0.30776382755574266

>  <r_i_glide_ligand_efficiency>  (1) 
-0.73484474990482396

>  <r_i_glide_ligand_efficiency_ln>  (1) 
-1.9090338035875585

>  <r_i_glide_ligand_efficiency_sa>  (1) 
-1.4696894998096481

>  <r_i_glide_lipo>  (1) 
-1.7166663980241803

>  <r_i_glide_metal>  (1) 
-0

>  <r_i_glide_rewards>  (1) 
-2.4086547033247911

>  <r_lp_Energy>  (1) 
4.2546869999999997

>  <r_lp_tautomer_probability>  (1) 
0.99999999989799981

>  <s_epik_cmdline>  (1) 
J2VwaWtfcHl0aG9uJywgJy1waHQnLCAnMS4wJywgJy1waCcsICc3LjQnLCAnLXRuJywgJzgnLCAnLW1hJywgJzUwMCcsICctaW1hZScsICc8aW5maWxlLm1hZT4nLCAnLW9tYWUnLCAnPG91dGZpbGUubWFlPic=

>  <s_epik_input>  (1) 
W09IXWMoW2NIXTEpW2NIXVtjSF1bY0hdYzFbT0hd

>  <s_glide_docking_method>  (1) 
confgen

>  <s_i_glide_gridfile>  (1) 
gpcr_5ht2c_6bqh_protein_autoprepared_prepared

>  <s_lp_Force_Field>  (1) 
S-OPLS

>  <s_lp_Variant>  (1) 
Pocket2Mol_50-1

>  <s_m_source_file>  (1) 
generated_GPCR_5HT2C_ligand_Pocket2Mol_2026-06-23_prepared.sdf

>  <GenAI_Model>  (1) 
Pocket2Mol

>  <Protein>  (1) 
GPCR_5HT2C

$$$$
Pocket2Mol_87
     RDKit          3D

  0  0  0  0  0  0  0  0  0  0999 V3000
M  V30 BEGIN CTAB
M  V30 COUNTS 18 18 0 0 1
M  V30 BEGIN ATOM
M  V30 1 C 39.250102 28.146866 50.959809 0
M  V30 2 C 38.845167 28.361197 52.290185 0
M  V30 3 C 39.237448 29.541339 52.977137 0
M  V30 4 C 38.805038 29.789890 54.393465 0
M  V30 5 N 39.235534 30.980135 54.948589 0
M  V30 6 C 38.045137 28.920166 55.087442 0
M  V30 7 C 40.045136 29.101115 50.299843 0
M  V30 8 C 40.045137 30.491409 52.297776 0
M  V30 9 C 40.443378 30.267864 50.967760 0
M  V30 10 H 38.945885 27.248011 50.442596 0
M  V30 11 H 38.233099 27.622134 52.776903 0
M  V30 12 H 39.704846 31.677904 54.391197 0
M  V30 13 H 40.349492 28.937751 49.277401 0
M  V30 14 H 40.357904 31.391880 52.795988 0
M  V30 15 H 41.055879 30.998119 50.458711 0
M  V30 16 H 37.752175 29.135297 56.104980 0
M  V30 17 H 37.706941 27.993242 54.659611 0
M  V30 18 H 38.895102 31.292762 55.847308 0
M  V30 END ATOM
M  V30 BEGIN BOND
M  V30 1 1 2 1
M  V30 2 2 3 2
M  V30 3 1 4 3
M  V30 4 1 5 4
M  V30 5 2 6 4
M  V30 6 2 7 1
M  V30 7 1 8 3
M  V30 8 1 9 7
M  V30 9 2 9 8
M  V30 10 1 10 1
M  V30 11 1 11 2
M  V30 12 1 12 5
M  V30 13 1 13 7
M  V30 14 1 14 8
M  V30 15 1 15 9
M  V30 16 1 16 6
M  V30 17 1 17 6
M  V30 18 1 18 5
M  V30 END BOND
M  V30 END CTAB
M  END
>  <i_epik_Tot_Q>  (1) 
0

>  <i_epik_Tot_abs_Q>  (1) 
0

>  <i_i_glide_confnum>  (1) 
1

>  <i_i_glide_lignum>  (1) 
92

>  <i_i_glide_posenum>  (1) 
346

>  <i_i_glide_rotatable_bonds>  (1) 
1

>  <i_lp_mmshare_version>  (1) 
72125

>  <i_m_source_file_index>  (1) 
88

>  <i_f3d_flags>  (1) 
0

>  <num_sample>  (1) 
100

>  <b_lp_Chiralities_Consistent>  (1) 
1

>  <r_epik_Charging_Adjusted_Penalty>  (1) 
0.00088152279553634463

>  <r_epik_Ionization_Penalty>  (1) 
0.001176351566598113

>  <r_epik_Ionization_Penalty_Charging>  (1) 
0.00088152279553634463

>  <r_epik_Ionization_Penalty_Neutral>  (1) 
0.00029482877106176849

>  <r_epik_State_Penalty>  (1) 
-0

>  <r_glide_ring_energy>  (1) 
0

>  <r_i_docking_score>  (1) 
-5.8772578369441151

>  <r_i_glide_ecoul>  (1) 
-1.2415678262623677

>  <r_i_glide_eff_state_penalty>  (1) 
-0

>  <r_i_glide_einternal>  (1) 
0.00089132587780604844

>  <r_i_glide_emodel>  (1) 
-27.361383966897794

>  <r_i_glide_emodel_strain>  (1) 
1.7622402594952291e-06

>  <r_i_glide_energy>  (1) 
-19.849190710301329

>  <r_i_glide_erotb>  (1) 
0

>  <r_i_glide_esite>  (1) 
0

>  <r_i_glide_evdw>  (1) 
-18.60762288403896

>  <r_i_glide_gscore>  (1) 
-5.8772578369441151

>  <r_i_glide_gscore_strain>  (1) 
0

>  <r_i_glide_hbond>  (1) 
0

>  <r_i_glide_ligand_efficiency>  (1) 
-0.65302864854934617

>  <r_i_glide_ligand_efficiency_ln>  (1) 
-1.838237413350793

>  <r_i_glide_ligand_efficiency_sa>  (1) 
-1.3583543278369423

>  <r_i_glide_lipo>  (1) 
-2.0394798525562043

>  <r_i_glide_metal>  (1) 
-0

>  <r_i_glide_rewards>  (1) 
-2.7211616662466076

>  <r_lp_Energy>  (1) 
13.175675

>  <r_lp_tautomer_probability>  (1) 
1

>  <s_epik_Chemistry_Notes>  (1) 
This compound has an imine and may undergo hydrolysis.

>  <s_epik_cmdline>  (1) 
J2VwaWtfcHl0aG9uJywgJy1waHQnLCAnMS4wJywgJy1waCcsICc3LjQnLCAnLXRuJywgJzgnLCAnLW1hJywgJzUwMCcsICctaW1hZScsICc8aW5maWxlLm1hZT4nLCAnLW9tYWUnLCAnPG91dGZpbGUubWFlPic=

>  <s_epik_input>  (1) 
W2NIXTFbY0hdW2NIXVtjSF1bY0hdYzEvQyg9Ti9bSF0pW0NIM10=

>  <s_glide_docking_method>  (1) 
confgen

>  <s_i_glide_gridfile>  (1) 
gpcr_5ht2c_6bqh_protein_autoprepared_prepared

>  <s_lp_Force_Field>  (1) 
S-OPLS

>  <s_lp_Variant>  (1) 
Pocket2Mol_87-1

>  <s_m_source_file>  (1) 
generated_GPCR_5HT2C_ligand_Pocket2Mol_2026-06-23_prepared.sdf

>  <GenAI_Model>  (1) 
Pocket2Mol

>  <Protein>  (1) 
GPCR_5HT2C

$$$$
Pocket2Mol_95
     RDKit          3D

  0  0  0  0  0  0  0  0  0  0999 V3000
M  V30 BEGIN CTAB
M  V30 COUNTS 14 15 0 0 1
M  V30 BEGIN ATOM
M  V30 1 C 40.445104 30.497871 50.725983 0
M  V30 2 C 40.045137 30.749230 52.109914 0
M  V30 3 C 39.414113 29.665736 52.567750 0
M  V30 4 C 39.379357 28.703620 51.536645 0
M  V30 5 C 40.045137 29.257660 50.367633 0
M  V30 6 C 38.838296 29.450906 53.878730 0
M  V30 7 O 38.871019 30.279380 54.786740 0
M  V30 8 N 38.845166 27.563314 51.655692 0
M  V30 9 C 38.242813 27.337758 52.968016 0
M  V30 10 N 38.235840 28.171159 53.977392 0
M  V30 11 H 40.973633 31.194151 50.090434 0
M  V30 12 H 40.226814 31.655948 52.664737 0
M  V30 13 H 40.157873 28.731094 49.433577 0
M  V30 14 H 37.747200 26.376247 53.122541 0
M  V30 END ATOM
M  V30 BEGIN BOND
M  V30 1 1 2 1
M  V30 2 2 3 2
M  V30 3 1 4 3
M  V30 4 2 5 1
M  V30 5 1 5 4
M  V30 6 1 6 3
M  V30 7 2 7 6
M  V30 8 2 8 4
M  V30 9 1 9 8
M  V30 10 1 10 6
M  V30 11 2 10 9
M  V30 12 1 11 1
M  V30 13 1 12 2
M  V30 14 1 13 5
M  V30 15 1 14 9
M  V30 END BOND
M  V30 END CTAB
M  END
>  <i_epik_Tot_Q>  (1) 
0

>  <i_epik_Tot_abs_Q>  (1) 
0

>  <i_i_glide_confnum>  (1) 
1

>  <i_i_glide_lignum>  (1) 
100

>  <i_i_glide_posenum>  (1) 
35

>  <i_i_glide_rotatable_bonds>  (1) 
0

>  <i_lp_mmshare_version>  (1) 
72125

>  <i_m_source_file_index>  (1) 
96

>  <i_f3d_flags>  (1) 
0

>  <num_sample>  (1) 
100

>  <b_lp_Chiralities_Consistent>  (1) 
1

>  <r_epik_Charging_Adjusted_Penalty>  (1) 
0

>  <r_epik_Ionization_Penalty>  (1) 
0.00072225958823983786

>  <r_epik_Ionization_Penalty_Charging>  (1) 
0

>  <r_epik_Ionization_Penalty_Neutral>  (1) 
0.00072225958823983786

>  <r_epik_State_Penalty>  (1) 
-0

>  <r_glide_ring_energy>  (1) 
0

>  <r_i_docking_score>  (1) 
-5.8761286307099141

>  <r_i_glide_ecoul>  (1) 
-0.23592751645556365

>  <r_i_glide_eff_state_penalty>  (1) 
-0

>  <r_i_glide_einternal>  (1) 
0

>  <r_i_glide_emodel>  (1) 
-31.664069188304673

>  <r_i_glide_emodel_strain>  (1) 
0

>  <r_i_glide_energy>  (1) 
-23.076439527547745

>  <r_i_glide_erotb>  (1) 
0

>  <r_i_glide_esite>  (1) 
0

>  <r_i_glide_evdw>  (1) 
-22.84051201109218

>  <r_i_glide_gscore>  (1) 
-5.8761286307099141

>  <r_i_glide_gscore_strain>  (1) 
0

>  <r_i_glide_hbond>  (1) 
0

>  <r_i_glide_ligand_efficiency>  (1) 
-0.58761286307099136

>  <r_i_glide_ligand_efficiency_ln>  (1) 
-1.7792512426629874

>  <r_i_glide_ligand_efficiency_sa>  (1) 
-1.2659735365090992

>  <r_i_glide_lipo>  (1) 
-1.0608314631632696

>  <r_i_glide_metal>  (1) 
-0

>  <r_i_glide_rewards>  (1) 
-3.6378824395237013

>  <r_lp_Energy>  (1) 
19.123919000000001

>  <r_lp_tautomer_probability>  (1) 
1

>  <s_epik_Chemistry_Notes>  (1) 
This compound has an imine and may undergo hydrolysis.

>  <s_epik_cmdline>  (1) 
J2VwaWtfcHl0aG9uJywgJy1waHQnLCAnMS4wJywgJy1waCcsICc3LjQnLCAnLXRuJywgJzgnLCAnLW1hJywgJzUwMCcsICctaW1hZScsICc8aW5maWxlLm1hZT4nLCAnLW9tYWUnLCAnPG91dGZpbGUubWFlPic=

>  <s_epik_input>  (1) 
W0NIXT0xW0NIXT1bQ0hdQyhDMTIpPU5bQ0hdPU5DMj1P

>  <s_glide_docking_method>  (1) 
confgen

>  <s_i_glide_gridfile>  (1) 
gpcr_5ht2c_6bqh_protein_autoprepared_prepared

>  <s_lp_Force_Field>  (1) 
S-OPLS

>  <s_lp_Variant>  (1) 
Pocket2Mol_95-1

>  <s_m_source_file>  (1) 
generated_GPCR_5HT2C_ligand_Pocket2Mol_2026-06-23_prepared.sdf

>  <GenAI_Model>  (1) 
Pocket2Mol

>  <Protein>  (1) 
GPCR_5HT2C

$$$$
Pocket2Mol_56
     RDKit          3D

  0  0  0  0  0  0  0  0  0  0999 V3000
M  V30 BEGIN CTAB
M  V30 COUNTS 17 17 0 0 1
M  V30 BEGIN ATOM
M  V30 1 C 39.637395 28.463505 50.755428 0
M  V30 2 C 38.845137 27.649659 51.574085 0
M  V30 3 C 38.489986 28.118267 52.855384 0
M  V30 4 C 37.632707 27.271694 53.772261 0
M  V30 5 C 40.045137 29.710443 51.245770 0
M  V30 6 C 40.897726 30.627185 50.397970 0
M  V30 7 C 39.645138 30.095427 52.542485 0
M  V30 8 N 38.876926 29.320755 53.346011 0
M  V30 9 H 39.924921 28.137816 49.768092 0
M  V30 10 H 38.511222 26.683942 51.226751 0
M  V30 11 H 37.360961 26.324062 53.307489 0
M  V30 12 H 38.169120 27.056474 54.696478 0
M  V30 13 H 36.714263 27.800440 54.024256 0
M  V30 14 H 41.230606 30.137749 49.482550 0
M  V30 15 H 40.325842 31.511345 50.118167 0
M  V30 16 H 41.781451 30.937755 50.952306 0
M  V30 17 H 39.945901 31.051747 52.945066 0
M  V30 END ATOM
M  V30 BEGIN BOND
M  V30 1 2 2 1
M  V30 2 1 3 2
M  V30 3 1 4 3
M  V30 4 1 5 1
M  V30 5 1 6 5
M  V30 6 2 7 5
M  V30 7 2 8 3
M  V30 8 1 8 7
M  V30 9 1 9 1
M  V30 10 1 10 2
M  V30 11 1 11 4
M  V30 12 1 12 4
M  V30 13 1 13 4
M  V30 14 1 14 6
M  V30 15 1 15 6
M  V30 16 1 16 6
M  V30 17 1 17 7
M  V30 END BOND
M  V30 END CTAB
M  END
>  <i_epik_Tot_Q>  (1) 
0

>  <i_epik_Tot_abs_Q>  (1) 
0

>  <i_i_glide_confnum>  (1) 
1

>  <i_i_glide_lignum>  (1) 
60

>  <i_i_glide_posenum>  (1) 
4

>  <i_i_glide_rotatable_bonds>  (1) 
0

>  <i_lp_mmshare_version>  (1) 
72125

>  <i_m_source_file_index>  (1) 
57

>  <i_f3d_flags>  (1) 
0

>  <num_sample>  (1) 
100

>  <b_lp_Chiralities_Consistent>  (1) 
1

>  <r_epik_Charging_Adjusted_Penalty>  (1) 
0.022258434784609007

>  <r_epik_Ionization_Penalty>  (1) 
0.022258434785048374

>  <r_epik_Ionization_Penalty_Charging>  (1) 
0

>  <r_epik_Ionization_Penalty_Neutral>  (1) 
0.022258434785048374

>  <r_epik_State_Penalty>  (1) 
0.022258434784609007

>  <r_glide_ring_energy>  (1) 
0

>  <r_i_docking_score>  (1) 
-5.8744538895656202

>  <r_i_glide_ecoul>  (1) 
-0.88722222134897033

>  <r_i_glide_eff_state_penalty>  (1) 
0.022258434784609007

>  <r_i_glide_einternal>  (1) 
0

>  <r_i_glide_emodel>  (1) 
-27.232844997640953

>  <r_i_glide_emodel_strain>  (1) 
0.0028721408049907637

>  <r_i_glide_energy>  (1) 
-20.139283803922925

>  <r_i_glide_erotb>  (1) 
0

>  <r_i_glide_esite>  (1) 
0

>  <r_i_glide_evdw>  (1) 
-19.252061582573955

>  <r_i_glide_gscore>  (1) 
-5.8967123243502293

>  <r_i_glide_gscore_strain>  (1) 
0

>  <r_i_glide_hbond>  (1) 
0

>  <r_i_glide_ligand_efficiency>  (1) 
-0.73430673619570253

>  <r_i_glide_ligand_efficiency_ln>  (1) 
-1.9076361119559051

>  <r_i_glide_ligand_efficiency_sa>  (1) 
-1.4686134723914053

>  <r_i_glide_lipo>  (1) 
-2.2843592453525194

>  <r_i_glide_metal>  (1) 
-0

>  <r_i_glide_rewards>  (1) 
-2.5166666666666666

>  <r_lp_Energy>  (1) 
7.9607329999999994

>  <s_epik_cmdline>  (1) 
J2VwaWtfcHl0aG9uJywgJy1waHQnLCAnMS4wJywgJy1waCcsICc3LjQnLCAnLXRuJywgJzgnLCAnLW1hJywgJzUwMCcsICctaW1hZScsICc8aW5maWxlLm1hZT4nLCAnLW9tYWUnLCAnPG91dGZpbGUubWFlPic=

>  <s_epik_input>  (1) 
bjFbY0hdYyhbQ0gzXSlbY0hdW2NIXWMxW0NIM10=

>  <s_glide_docking_method>  (1) 
confgen

>  <s_i_glide_gridfile>  (1) 
gpcr_5ht2c_6bqh_protein_autoprepared_prepared

>  <s_lp_Force_Field>  (1) 
S-OPLS

>  <s_lp_Variant>  (1) 
Pocket2Mol_56-1

>  <s_m_source_file>  (1) 
generated_GPCR_5HT2C_ligand_Pocket2Mol_2026-06-23_prepared.sdf

>  <GenAI_Model>  (1) 
Pocket2Mol

>  <Protein>  (1) 
GPCR_5HT2C

$$$$
Pocket2Mol_50
     RDKit          3D

  0  0  0  0  0  0  0  0  0  0999 V3000
M  V30 BEGIN CTAB
M  V30 COUNTS 14 14 0 0 1
M  V30 BEGIN ATOM
M  V30 1 C 38.751574 28.075964 51.792905 0
M  V30 2 C 39.644515 29.115376 51.465549 0
M  V30 3 C 39.895226 30.146037 52.393069 0
M  V30 4 C 39.253974 30.136675 53.649001 0
M  V30 5 C 38.110370 28.067208 53.048867 0
M  V30 6 O 39.496651 31.135036 54.546785 0
M  V30 7 O 37.245138 27.062959 53.367762 0
M  V30 8 C 38.362416 29.096775 53.976020 0
M  V30 9 H 38.557889 27.286837 51.080245 0
M  V30 10 H 40.134444 29.123491 50.503134 0
M  V30 11 H 40.577120 30.945350 52.141079 0
M  V30 12 H 38.935096 31.102657 55.307080 0
M  V30 13 H 36.984365 26.537838 52.620324 0
M  V30 14 H 37.870371 29.088373 54.937672 0
M  V30 END ATOM
M  V30 BEGIN BOND
M  V30 1 1 2 1
M  V30 2 2 3 2
M  V30 3 1 4 3
M  V30 4 2 5 1
M  V30 5 1 6 4
M  V30 6 1 7 5
M  V30 7 2 8 4
M  V30 8 1 8 5
M  V30 9 1 9 1
M  V30 10 1 10 2
M  V30 11 1 11 3
M  V30 12 1 12 6
M  V30 13 1 13 7
M  V30 14 1 14 8
M  V30 END BOND
M  V30 END CTAB
M  END
>  <i_epik_Tot_Q>  (1) 
0

>  <i_epik_Tot_abs_Q>  (1) 
0

>  <i_i_glide_confnum>  (1) 
1

>  <i_i_glide_lignum>  (1) 
53

>  <i_i_glide_posenum>  (1) 
340

>  <i_i_glide_rotatable_bonds>  (1) 
2

>  <i_lp_mmshare_version>  (1) 
72125

>  <i_m_source_file_index>  (1) 
51

>  <i_f3d_flags>  (1) 
0

>  <num_sample>  (1) 
100

>  <b_lp_Chiralities_Consistent>  (1) 
1

>  <r_epik_Charging_Adjusted_Penalty>  (1) 
0.012403777776626769

>  <r_epik_Ionization_Penalty>  (1) 
0.012403777776626781

>  <r_epik_Ionization_Penalty_Charging>  (1) 
0

>  <r_epik_Ionization_Penalty_Neutral>  (1) 
0.012403777776626781

>  <r_epik_State_Penalty>  (1) 
0.012403777776626769

>  <r_glide_ring_energy>  (1) 
0

>  <r_i_docking_score>  (1) 
-5.8679944844456848

>  <r_i_glide_ecoul>  (1) 
-3.6623080652088862

>  <r_i_glide_eff_state_penalty>  (1) 
0.012403777776626769

>  <r_i_glide_einternal>  (1) 
0.18252330569191183

>  <r_i_glide_emodel>  (1) 
-27.855848849603493

>  <r_i_glide_emodel_strain>  (1) 
0

>  <r_i_glide_energy>  (1) 
-20.199981965114368

>  <r_i_glide_erotb>  (1) 
0

>  <r_i_glide_esite>  (1) 
0

>  <r_i_glide_evdw>  (1) 
-16.537673899905482

>  <r_i_glide_gscore>  (1) 
-5.8803982622223119

>  <r_i_glide_gscore_strain>  (1) 
0

>  <r_i_glide_hbond>  (1) 
-0.3175969230120434

>  <r_i_glide_ligand_efficiency>  (1) 
-0.7334993105557106

>  <r_i_glide_ligand_efficiency_ln>  (1) 
-1.9055385221713588

>  <r_i_glide_ligand_efficiency_sa>  (1) 
-1.4669986211114214

>  <r_i_glide_lipo>  (1) 
-1.8260231453722806

>  <r_i_glide_metal>  (1) 
-0

>  <r_i_glide_rewards>  (1) 
-2.3605482890613816

>  <r_lp_Energy>  (1) 
4.2546869999999997

>  <r_lp_tautomer_probability>  (1) 
0.99999999989799981

>  <s_epik_cmdline>  (1) 
J2VwaWtfcHl0aG9uJywgJy1waHQnLCAnMS4wJywgJy1waCcsICc3LjQnLCAnLXRuJywgJzgnLCAnLW1hJywgJzUwMCcsICctaW1hZScsICc8aW5maWxlLm1hZT4nLCAnLW9tYWUnLCAnPG91dGZpbGUubWFlPic=

>  <s_epik_input>  (1) 
W09IXWMoW2NIXTEpW2NIXVtjSF1bY0hdYzFbT0hd

>  <s_glide_docking_method>  (1) 
confgen

>  <s_i_glide_gridfile>  (1) 
gpcr_5ht2c_6bqh_protein_autoprepared_prepared

>  <s_lp_Force_Field>  (1) 
S-OPLS

>  <s_lp_Variant>  (1) 
Pocket2Mol_50-1

>  <s_m_source_file>  (1) 
generated_GPCR_5HT2C_ligand_Pocket2Mol_2026-06-23_prepared.sdf

>  <GenAI_Model>  (1) 
Pocket2Mol

>  <Protein>  (1) 
GPCR_5HT2C

$$$$
Pocket2Mol_41
     RDKit          3D

  0  0  0  0  0  0  0  0  0  0999 V3000
M  V30 BEGIN CTAB
M  V30 COUNTS 15 15 0 0 1
M  V30 BEGIN ATOM
M  V30 1 C 39.000005 29.327321 53.541640 0
M  V30 2 C 39.645138 30.231692 52.634268 0
M  V30 3 C 39.834103 29.693771 51.384337 0
M  V30 4 C 40.442765 30.345818 50.189990 0
M  V30 5 C 38.714000 28.110736 52.972040 0
M  V30 6 C 38.047517 26.937589 53.606459 0
M  V30 7 S 39.245133 28.064234 51.320884 0
M  V30 8 H 38.771149 29.599738 54.561856 0
M  V30 9 H 39.932593 31.232077 52.924418 0
M  V30 10 H 40.852054 31.324637 50.440176 0
M  V30 11 H 41.245129 29.737755 49.779202 0
M  V30 12 H 39.693901 30.486185 49.410021 0
M  V30 13 H 37.598485 27.211181 54.561505 0
M  V30 14 H 37.256887 26.544616 52.967777 0
M  V30 15 H 38.764812 26.137755 53.788612 0
M  V30 END ATOM
M  V30 BEGIN BOND
M  V30 1 1 2 1
M  V30 2 2 3 2
M  V30 3 1 4 3
M  V30 4 2 5 1
M  V30 5 1 6 5
M  V30 6 1 7 3
M  V30 7 1 7 5
M  V30 8 1 8 1
M  V30 9 1 9 2
M  V30 10 1 10 4
M  V30 11 1 11 4
M  V30 12 1 12 4
M  V30 13 1 13 6
M  V30 14 1 14 6
M  V30 15 1 15 6
M  V30 END BOND
M  V30 END CTAB
M  END
>  <i_epik_Tot_Q>  (1) 
0

>  <i_epik_Tot_abs_Q>  (1) 
0

>  <i_i_glide_confnum>  (1) 
1

>  <i_i_glide_lignum>  (1) 
44

>  <i_i_glide_posenum>  (1) 
136

>  <i_i_glide_rotatable_bonds>  (1) 
0

>  <i_lp_mmshare_version>  (1) 
72125

>  <i_m_source_file_index>  (1) 
42

>  <i_f3d_flags>  (1) 
0

>  <num_sample>  (1) 
100

>  <b_lp_Chiralities_Consistent>  (1) 
1

>  <r_epik_Charging_Adjusted_Penalty>  (1) 
0

>  <r_epik_Ionization_Penalty>  (1) 
0

>  <r_epik_Ionization_Penalty_Charging>  (1) 
0

>  <r_epik_Ionization_Penalty_Neutral>  (1) 
0

>  <r_epik_State_Penalty>  (1) 
-0

>  <r_glide_ring_energy>  (1) 
0

>  <r_i_docking_score>  (1) 
-5.8667189430469397

>  <r_i_glide_ecoul>  (1) 
-0.85625369491754488

>  <r_i_glide_eff_state_penalty>  (1) 
-0

>  <r_i_glide_einternal>  (1) 
0

>  <r_i_glide_emodel>  (1) 
-26.390961576944878

>  <r_i_glide_emodel_strain>  (1) 
0

>  <r_i_glide_energy>  (1) 
-19.565475463967129

>  <r_i_glide_erotb>  (1) 
0

>  <r_i_glide_esite>  (1) 
0

>  <r_i_glide_evdw>  (1) 
-18.709221769049584

>  <r_i_glide_gscore>  (1) 
-5.8667189430469397

>  <r_i_glide_gscore_strain>  (1) 
0

>  <r_i_glide_hbond>  (1) 
0

>  <r_i_glide_ligand_efficiency>  (1) 
-0.83810270614956284

>  <r_i_glide_ligand_efficiency_ln>  (1) 
-1.9914792530003889

>  <r_i_glide_ligand_efficiency_sa>  (1) 
-1.6032328009594234

>  <r_i_glide_lipo>  (1) 
-2.1209459919230307

>  <r_i_glide_metal>  (1) 
-0

>  <r_i_glide_rewards>  (1) 
-2.6818738084337985

>  <r_lp_Energy>  (1) 
3.6641779999999997

>  <r_lp_tautomer_probability>  (1) 
1

>  <s_epik_cmdline>  (1) 
J2VwaWtfcHl0aG9uJywgJy1waHQnLCAnMS4wJywgJy1waCcsICc3LjQnLCAnLXRuJywgJzgnLCAnLW1hJywgJzUwMCcsICctaW1hZScsICc8aW5maWxlLm1hZT4nLCAnLW9tYWUnLCAnPG91dGZpbGUubWFlPic=

>  <s_epik_input>  (1) 
W0NIM11jKHMxKVtjSF1bY0hdYzFbQ0gzXQ==

>  <s_glide_docking_method>  (1) 
confgen

>  <s_i_glide_gridfile>  (1) 
gpcr_5ht2c_6bqh_protein_autoprepared_prepared

>  <s_lp_Force_Field>  (1) 
S-OPLS

>  <s_lp_Variant>  (1) 
Pocket2Mol_41-1

>  <s_m_source_file>  (1) 
generated_GPCR_5HT2C_ligand_Pocket2Mol_2026-06-23_prepared.sdf

>  <GenAI_Model>  (1) 
Pocket2Mol

>  <Protein>  (1) 
GPCR_5HT2C

$$$$
Pocket2Mol_54
     RDKit          3D

  0  0  0  0  0  0  0  0  0  0999 V3000
M  V30 BEGIN CTAB
M  V30 COUNTS 17 17 0 0 1
M  V30 BEGIN ATOM
M  V30 1 C 38.616020 28.107992 52.197274 0
M  V30 2 C 39.328211 28.517006 51.052589 0
M  V30 3 C 40.043460 29.731753 51.063368 0
M  V30 4 N 40.747077 30.137748 49.932159 0
M  V30 5 C 38.618728 28.912157 53.354789 0
M  V30 6 C 39.334359 30.127869 53.366289 0
M  V30 7 C 39.341651 30.995924 54.607834 0
M  V30 8 C 40.045147 30.535582 52.218250 0
M  V30 9 H 38.066258 27.176505 52.186397 0
M  V30 10 H 39.323387 27.899829 50.167370 0
M  V30 11 H 41.262473 31.008991 49.912789 0
M  V30 12 H 40.753362 29.582523 49.089584 0
M  V30 13 H 38.073244 28.597528 54.232447 0
M  V30 14 H 38.750911 30.555073 55.412422 0
M  V30 15 H 40.362383 31.130489 54.967507 0
M  V30 16 H 38.928040 31.979165 54.382873 0
M  V30 17 H 40.591078 31.465992 52.224895 0
M  V30 END ATOM
M  V30 BEGIN BOND
M  V30 1 1 2 1
M  V30 2 2 3 2
M  V30 3 1 4 3
M  V30 4 2 5 1
M  V30 5 1 6 5
M  V30 6 1 7 6
M  V30 7 1 8 3
M  V30 8 2 8 6
M  V30 9 1 9 1
M  V30 10 1 10 2
M  V30 11 1 11 4
M  V30 12 1 12 4
M  V30 13 1 13 5
M  V30 14 1 14 7
M  V30 15 1 15 7
M  V30 16 1 16 7
M  V30 17 1 17 8
M  V30 END BOND
M  V30 END CTAB
M  END
>  <i_epik_Tot_Q>  (1) 
0

>  <i_epik_Tot_abs_Q>  (1) 
0

>  <i_i_glide_confnum>  (1) 
1

>  <i_i_glide_lignum>  (1) 
58

>  <i_i_glide_posenum>  (1) 
249

>  <i_i_glide_rotatable_bonds>  (1) 
0

>  <i_lp_mmshare_version>  (1) 
72125

>  <i_m_source_file_index>  (1) 
55

>  <i_f3d_flags>  (1) 
0

>  <num_sample>  (1) 
100

>  <b_lp_Chiralities_Consistent>  (1) 
1

>  <r_epik_Charging_Adjusted_Penalty>  (1) 
0

>  <r_epik_Ionization_Penalty>  (1) 
0.0013172751215551738

>  <r_epik_Ionization_Penalty_Charging>  (1) 
0

>  <r_epik_Ionization_Penalty_Neutral>  (1) 
0.0013172751215551738

>  <r_epik_State_Penalty>  (1) 
-0

>  <r_glide_ring_energy>  (1) 
0

>  <r_i_docking_score>  (1) 
-5.8659010170886727

>  <r_i_glide_ecoul>  (1) 
-1.1959495647669547

>  <r_i_glide_eff_state_penalty>  (1) 
-0

>  <r_i_glide_einternal>  (1) 
0

>  <r_i_glide_emodel>  (1) 
-26.782883961417308

>  <r_i_glide_emodel_strain>  (1) 
0.0044996852693373057

>  <r_i_glide_energy>  (1) 
-19.656312021058959

>  <r_i_glide_erotb>  (1) 
0

>  <r_i_glide_esite>  (1) 
0

>  <r_i_glide_evdw>  (1) 
-18.460362456292003

>  <r_i_glide_gscore>  (1) 
-5.8659010170886727

>  <r_i_glide_gscore_strain>  (1) 
0

>  <r_i_glide_hbond>  (1) 
0

>  <r_i_glide_ligand_efficiency>  (1) 
-0.73323762713608409

>  <r_i_glide_ligand_efficiency_ln>  (1) 
-1.9048587017140852

>  <r_i_glide_ligand_efficiency_sa>  (1) 
-1.4664752542721684

>  <r_i_glide_lipo>  (1) 
-2.0223852356879077

>  <r_i_glide_metal>  (1) 
-0

>  <r_i_glide_rewards>  (1) 
-2.7411052238711218

>  <r_lp_Energy>  (1) 
5.5447359999999994

>  <r_lp_tautomer_probability>  (1) 
1

>  <s_epik_cmdline>  (1) 
J2VwaWtfcHl0aG9uJywgJy1waHQnLCAnMS4wJywgJy1waCcsICc3LjQnLCAnLXRuJywgJzgnLCAnLW1hJywgJzUwMCcsICctaW1hZScsICc8aW5maWxlLm1hZT4nLCAnLW9tYWUnLCAnPG91dGZpbGUubWFlPic=

>  <s_epik_input>  (1) 
W0NIM11jKFtjSF0xKVtjSF1bY0hdW2NIXWMxW05IMl0=

>  <s_glide_docking_method>  (1) 
confgen

>  <s_i_glide_gridfile>  (1) 
gpcr_5ht2c_6bqh_protein_autoprepared_prepared

>  <s_lp_Force_Field>  (1) 
S-OPLS

>  <s_lp_Variant>  (1) 
Pocket2Mol_54-1

>  <s_m_source_file>  (1) 
generated_GPCR_5HT2C_ligand_Pocket2Mol_2026-06-23_prepared.sdf

>  <GenAI_Model>  (1) 
Pocket2Mol

>  <Protein>  (1) 
GPCR_5HT2C

$$$$
Pocket2Mol_74
     RDKit          3D

  0  0  0  0  0  0  0  0  0  0999 V3000
M  V30 BEGIN CTAB
M  V30 COUNTS 16 17 0 0 1
M  V30 BEGIN ATOM
M  V30 1 C 38.824859 30.008034 54.160203 0
M  V30 2 C 39.310334 29.739209 52.824979 0
M  V30 3 C 38.991584 28.587407 52.169634 0
M  V30 4 C 40.044995 30.445674 52.067065 0
M  V30 5 C 38.133616 27.584877 52.814964 0
M  V30 6 N 39.496060 28.477568 50.980329 0
M  V30 7 C 40.308253 29.799490 50.730110 0
M  V30 8 C 38.031955 29.093003 54.768238 0
M  V30 9 C 37.673381 27.838051 54.070652 0
M  V30 10 H 39.087819 30.926707 54.664890 0
M  V30 11 H 40.445138 31.414508 52.321408 0
M  V30 12 H 37.901503 26.687675 52.263929 0
M  V30 13 H 39.892169 30.384020 49.908331 0
M  V30 14 H 41.369840 29.624187 50.569426 0
M  V30 15 H 37.659100 29.281061 55.765065 0
M  V30 16 H 37.040249 27.114912 54.563583 0
M  V30 END ATOM
M  V30 BEGIN BOND
M  V30 1 1 2 1
M  V30 2 1 3 2
M  V30 3 2 4 2
M  V30 4 1 5 3
M  V30 5 2 6 3
M  V30 6 1 7 4
M  V30 7 1 7 6
M  V30 8 2 8 1
M  V30 9 2 9 5
M  V30 10 1 9 8
M  V30 11 1 10 1
M  V30 12 1 11 4
M  V30 13 1 12 5
M  V30 14 1 13 7
M  V30 15 1 14 7
M  V30 16 1 15 8
M  V30 17 1 16 9
M  V30 END BOND
M  V30 END CTAB
M  END
>  <i_epik_Tot_Q>  (1) 
0

>  <i_epik_Tot_abs_Q>  (1) 
0

>  <i_i_glide_confnum>  (1) 
1

>  <i_i_glide_lignum>  (1) 
79

>  <i_i_glide_posenum>  (1) 
315

>  <i_i_glide_rotatable_bonds>  (1) 
0

>  <i_lp_mmshare_version>  (1) 
72125

>  <i_m_source_file_index>  (1) 
75

>  <i_f3d_flags>  (1) 
0

>  <num_sample>  (1) 
100

>  <b_lp_Chiralities_Consistent>  (1) 
1

>  <r_epik_Charging_Adjusted_Penalty>  (1) 
0

>  <r_epik_Ionization_Penalty>  (1) 
0

>  <r_epik_Ionization_Penalty_Charging>  (1) 
0

>  <r_epik_Ionization_Penalty_Neutral>  (1) 
0

>  <r_epik_State_Penalty>  (1) 
-0

>  <r_glide_ring_energy>  (1) 
0

>  <r_i_docking_score>  (1) 
-5.8657180523264261

>  <r_i_glide_ecoul>  (1) 
-0.65480729905470136

>  <r_i_glide_eff_state_penalty>  (1) 
-0

>  <r_i_glide_einternal>  (1) 
0

>  <r_i_glide_emodel>  (1) 
-29.42838646685291

>  <r_i_glide_emodel_strain>  (1) 
0

>  <r_i_glide_energy>  (1) 
-21.30778034267794

>  <r_i_glide_erotb>  (1) 
0

>  <r_i_glide_esite>  (1) 
0

>  <r_i_glide_evdw>  (1) 
-20.652973043623238

>  <r_i_glide_gscore>  (1) 
-5.8657180523264261

>  <r_i_glide_gscore_strain>  (1) 
0

>  <r_i_glide_hbond>  (1) 
0

>  <r_i_glide_ligand_efficiency>  (1) 
-0.65174645025849176

>  <r_i_glide_ligand_efficiency_ln>  (1) 
-1.8346281002298164

>  <r_i_glide_ligand_efficiency_sa>  (1) 
-1.3556872479141915

>  <r_i_glide_lipo>  (1) 
-2.0899190318958554

>  <r_i_glide_metal>  (1) 
-0

>  <r_i_glide_rewards>  (1) 
-2.6449292733912038

>  <r_lp_Energy>  (1) 
8.0132250000000003

>  <r_lp_tautomer_probability>  (1) 
1

>  <s_epik_Chemistry_Notes>  (1) 
This compound has an imine and may undergo hydrolysis.

>  <s_epik_cmdline>  (1) 
J2VwaWtfcHl0aG9uJywgJy1waHQnLCAnMS4wJywgJy1waCcsICc3LjQnLCAnLXRuJywgJzgnLCAnLW1hJywgJzUwMCcsICctaW1hZScsICc8aW5maWxlLm1hZT4nLCAnLW9tYWUnLCAnPG91dGZpbGUubWFlPic=

>  <s_epik_input>  (1) 
W2NIXTFbY0hdW2NIXVtjSF1jKGMxPTIpPU5bQ0gyXVtDSF0y

>  <s_glide_docking_method>  (1) 
confgen

>  <s_i_glide_gridfile>  (1) 
gpcr_5ht2c_6bqh_protein_autoprepared_prepared

>  <s_lp_Force_Field>  (1) 
S-OPLS

>  <s_lp_Variant>  (1) 
Pocket2Mol_74-1

>  <s_m_source_file>  (1) 
generated_GPCR_5HT2C_ligand_Pocket2Mol_2026-06-23_prepared.sdf

>  <GenAI_Model>  (1) 
Pocket2Mol

>  <Protein>  (1) 
GPCR_5HT2C

$$$$
Pocket2Mol_75
     RDKit          3D

  0  0  0  0  0  0  0  0  0  0999 V3000
M  V30 BEGIN CTAB
M  V30 COUNTS 21 22 0 0 1
M  V30 BEGIN ATOM
M  V30 1 C 39.623888 27.898765 56.128799 0
M  V30 2 C 39.270643 26.436318 55.821652 0 CFG=1
M  V30 3 C 40.207676 27.847072 57.550639 0
M  V30 4 C 39.435312 26.708240 58.230652 0
M  V30 5 N 39.033536 25.840398 57.141502 0
M  V30 6 N 37.925606 25.059952 57.376535 0
M  V30 7 C 37.250693 24.537836 56.407504 0
M  V30 8 C 37.541041 24.853536 54.967436 0
M  V30 9 C 38.100363 26.269939 54.843245 0
M  V30 10 H 40.318255 28.325857 55.405892 0
M  V30 11 H 38.723393 28.515669 56.136549 0
M  V30 12 H 40.147781 25.932060 55.412631 0
M  V30 13 H 41.266012 27.587542 57.496058 0
M  V30 14 H 40.119870 28.796290 58.080884 0
M  V30 15 H 40.045137 26.163599 58.949895 0
M  V30 16 H 38.543878 27.085943 58.734042 0
M  V30 17 H 36.445614 23.838590 56.623357 0
M  V30 18 H 38.250044 24.130231 54.568302 0
M  V30 19 H 36.634947 24.760292 54.368239 0
M  V30 20 H 37.307514 26.982421 55.075901 0
M  V30 21 H 38.416955 26.473589 53.820291 0
M  V30 END ATOM
M  V30 BEGIN BOND
M  V30 1 1 2 1
M  V30 2 1 3 1
M  V30 3 1 4 3
M  V30 4 1 5 2
M  V30 5 1 5 4
M  V30 6 1 6 5
M  V30 7 2 7 6
M  V30 8 1 8 7
M  V30 9 1 9 2
M  V30 10 1 9 8
M  V30 11 1 10 1
M  V30 12 1 11 1
M  V30 13 1 2 12 CFG=3
M  V30 14 1 13 3
M  V30 15 1 14 3
M  V30 16 1 15 4
M  V30 17 1 16 4
M  V30 18 1 17 7
M  V30 19 1 18 8
M  V30 20 1 19 8
M  V30 21 1 20 9
M  V30 22 1 21 9
M  V30 END BOND
M  V30 END CTAB
M  END
>  <i_epik_Tot_Q>  (1) 
0

>  <i_epik_Tot_abs_Q>  (1) 
0

>  <i_i_glide_confnum>  (1) 
1

>  <i_i_glide_lignum>  (1) 
80

>  <i_i_glide_posenum>  (1) 
222

>  <i_i_glide_rotatable_bonds>  (1) 
0

>  <i_lp_mmshare_version>  (1) 
72125

>  <i_m_source_file_index>  (1) 
76

>  <i_f3d_flags>  (1) 
0

>  <num_sample>  (1) 
100

>  <b_lp_Chiralities_Consistent>  (1) 
1

>  <r_epik_Charging_Adjusted_Penalty>  (1) 
0

>  <r_epik_Ionization_Penalty>  (1) 
0.0031146778150898829

>  <r_epik_Ionization_Penalty_Charging>  (1) 
0

>  <r_epik_Ionization_Penalty_Neutral>  (1) 
0.0031146778150898829

>  <r_epik_State_Penalty>  (1) 
-0

>  <r_glide_ring_energy>  (1) 
0

>  <r_i_docking_score>  (1) 
-5.8641772370102379

>  <r_i_glide_ecoul>  (1) 
-0.17890580874436932

>  <r_i_glide_eff_state_penalty>  (1) 
-0

>  <r_i_glide_einternal>  (1) 
0

>  <r_i_glide_emodel>  (1) 
-28.13716481694679

>  <r_i_glide_emodel_strain>  (1) 
0

>  <r_i_glide_energy>  (1) 
-20.460879531311114

>  <r_i_glide_erotb>  (1) 
0

>  <r_i_glide_esite>  (1) 
0

>  <r_i_glide_evdw>  (1) 
-20.281973722566747

>  <r_i_glide_gscore>  (1) 
-5.8641772370102379

>  <r_i_glide_gscore_strain>  (1) 
0

>  <r_i_glide_hbond>  (1) 
0

>  <r_i_glide_ligand_efficiency>  (1) 
-0.65157524855669313

>  <r_i_glide_ligand_efficiency_ln>  (1) 
-1.8341461774624541

>  <r_i_glide_ligand_efficiency_sa>  (1) 
-1.355331134023801

>  <r_i_glide_lipo>  (1) 
-1.6446469405407391

>  <r_i_glide_metal>  (1) 
-0

>  <r_i_glide_rewards>  (1) 
-3.1785957390295061

>  <r_lp_Energy>  (1) 
16.062878999999999

>  <r_lp_tautomer_probability>  (1) 
1

>  <s_epik_Chemistry_Notes>  (1) 
This compound has an imine and may undergo hydrolysis.

>  <s_epik_cmdline>  (1) 
J2VwaWtfcHl0aG9uJywgJy1waHQnLCAnMS4wJywgJy1waCcsICc3LjQnLCAnLXRuJywgJzgnLCAnLW1hJywgJzUwMCcsICctaW1hZScsICc8aW5maWxlLm1hZT4nLCAnLW9tYWUnLCAnPG91dGZpbGUubWFlPic=

>  <s_epik_input>  (1) 
W0NIMl0xW0NIMl1bQ0gyXU4oW0NASF0xMilOPVtDSF1bQ0gyXVtDSDJdMg==

>  <s_glide_docking_method>  (1) 
confgen

>  <s_i_glide_gridfile>  (1) 
gpcr_5ht2c_6bqh_protein_autoprepared_prepared

>  <s_lp_Force_Field>  (1) 
S-OPLS

>  <s_lp_Variant>  (1) 
Pocket2Mol_75-1

>  <s_m_source_file>  (1) 
generated_GPCR_5HT2C_ligand_Pocket2Mol_2026-06-23_prepared.sdf

>  <GenAI_Model>  (1) 
Pocket2Mol

>  <Protein>  (1) 
GPCR_5HT2C

$$$$
Pocket2Mol_87
     RDKit          3D

  0  0  0  0  0  0  0  0  0  0999 V3000
M  V30 BEGIN CTAB
M  V30 COUNTS 18 18 0 0 1
M  V30 BEGIN ATOM
M  V30 1 C 39.239723 30.850836 54.481549 0
M  V30 2 C 39.645137 30.537754 53.169556 0
M  V30 3 C 39.247484 29.313209 52.568421 0
M  V30 4 C 39.669510 28.967999 51.170252 0
M  V30 5 N 39.245137 27.737755 50.708257 0
M  V30 6 C 40.413085 29.793869 50.406915 0
M  V30 7 C 38.441339 29.952213 55.208011 0
M  V30 8 C 38.441858 28.414168 53.316361 0
M  V30 9 C 38.045126 28.736013 54.627261 0
M  V30 10 H 39.542871 31.785381 54.930254 0
M  V30 11 H 40.256216 31.239638 52.629050 0
M  V30 12 H 38.625488 27.153381 51.250043 0
M  V30 13 H 38.131719 30.196739 56.214132 0
M  V30 14 H 38.126877 27.477202 52.885168 0
M  V30 15 H 37.433905 28.046108 55.187539 0
M  V30 16 H 40.696592 29.510977 49.404110 0
M  V30 17 H 40.745855 30.752947 50.763922 0
M  V30 18 H 39.418970 27.438190 49.760292 0
M  V30 END ATOM
M  V30 BEGIN BOND
M  V30 1 1 2 1
M  V30 2 2 3 2
M  V30 3 1 4 3
M  V30 4 1 5 4
M  V30 5 2 6 4
M  V30 6 2 7 1
M  V30 7 1 8 3
M  V30 8 1 9 7
M  V30 9 2 9 8
M  V30 10 1 10 1
M  V30 11 1 11 2
M  V30 12 1 12 5
M  V30 13 1 13 7
M  V30 14 1 14 8
M  V30 15 1 15 9
M  V30 16 1 16 6
M  V30 17 1 17 6
M  V30 18 1 18 5
M  V30 END BOND
M  V30 END CTAB
M  END
>  <i_epik_Tot_Q>  (1) 
0

>  <i_epik_Tot_abs_Q>  (1) 
0

>  <i_i_glide_confnum>  (1) 
1

>  <i_i_glide_lignum>  (1) 
92

>  <i_i_glide_posenum>  (1) 
381

>  <i_i_glide_rotatable_bonds>  (1) 
1

>  <i_lp_mmshare_version>  (1) 
72125

>  <i_m_source_file_index>  (1) 
88

>  <i_f3d_flags>  (1) 
0

>  <num_sample>  (1) 
100

>  <b_lp_Chiralities_Consistent>  (1) 
1

>  <r_epik_Charging_Adjusted_Penalty>  (1) 
0.00088152279553634463

>  <r_epik_Ionization_Penalty>  (1) 
0.001176351566598113

>  <r_epik_Ionization_Penalty_Charging>  (1) 
0.00088152279553634463

>  <r_epik_Ionization_Penalty_Neutral>  (1) 
0.00029482877106176849

>  <r_epik_State_Penalty>  (1) 
-0

>  <r_glide_ring_energy>  (1) 
0

>  <r_i_docking_score>  (1) 
-5.863241541313311

>  <r_i_glide_ecoul>  (1) 
-1.3789594629295328

>  <r_i_glide_eff_state_penalty>  (1) 
-0

>  <r_i_glide_einternal>  (1) 
0.02053647272957182

>  <r_i_glide_emodel>  (1) 
-27.948093526146593

>  <r_i_glide_emodel_strain>  (1) 
0

>  <r_i_glide_energy>  (1) 
-20.46363749612625

>  <r_i_glide_erotb>  (1) 
0

>  <r_i_glide_esite>  (1) 
0

>  <r_i_glide_evdw>  (1) 
-19.084678033196717

>  <r_i_glide_gscore>  (1) 
-5.863241541313311

>  <r_i_glide_gscore_strain>  (1) 
0

>  <r_i_glide_hbond>  (1) 
0

>  <r_i_glide_ligand_efficiency>  (1) 
-0.65147128236814567

>  <r_i_glide_ligand_efficiency_ln>  (1) 
-1.8338535187285137

>  <r_i_glide_ligand_efficiency_sa>  (1) 
-1.3551148756368592

>  <r_i_glide_lipo>  (1) 
-2.0790258034054148

>  <r_i_glide_metal>  (1) 
-0

>  <r_i_glide_rewards>  (1) 
-2.6231379168086302

>  <r_lp_Energy>  (1) 
13.175675

>  <r_lp_tautomer_probability>  (1) 
1

>  <s_epik_Chemistry_Notes>  (1) 
This compound has an imine and may undergo hydrolysis.

>  <s_epik_cmdline>  (1) 
J2VwaWtfcHl0aG9uJywgJy1waHQnLCAnMS4wJywgJy1waCcsICc3LjQnLCAnLXRuJywgJzgnLCAnLW1hJywgJzUwMCcsICctaW1hZScsICc8aW5maWxlLm1hZT4nLCAnLW9tYWUnLCAnPG91dGZpbGUubWFlPic=

>  <s_epik_input>  (1) 
W2NIXTFbY0hdW2NIXVtjSF1bY0hdYzEvQyg9Ti9bSF0pW0NIM10=

>  <s_glide_docking_method>  (1) 
confgen

>  <s_i_glide_gridfile>  (1) 
gpcr_5ht2c_6bqh_protein_autoprepared_prepared

>  <s_lp_Force_Field>  (1) 
S-OPLS

>  <s_lp_Variant>  (1) 
Pocket2Mol_87-1

>  <s_m_source_file>  (1) 
generated_GPCR_5HT2C_ligand_Pocket2Mol_2026-06-23_prepared.sdf

>  <GenAI_Model>  (1) 
Pocket2Mol

>  <Protein>  (1) 
GPCR_5HT2C

$$$$
Pocket2Mol_58
     RDKit          3D

  0  0  0  0  0  0  0  0  0  0999 V3000
M  V30 BEGIN CTAB
M  V30 COUNTS 17 17 0 0 1
M  V30 BEGIN ATOM
M  V30 1 C 41.093060 30.526057 50.022298 0
M  V30 2 C 40.242889 29.814850 51.050661 0
M  V30 3 C 40.045135 30.390951 52.320601 0
M  V30 4 C 39.245136 29.733698 53.275997 0
M  V30 5 C 38.641850 28.498421 52.960703 0
M  V30 6 C 39.645134 28.578495 50.738979 0
M  V30 7 N 37.844247 27.850328 53.901175 0
M  V30 8 C 38.845137 27.920792 51.692322 0
M  V30 9 H 41.245139 29.908065 49.137674 0
M  V30 10 H 40.596679 31.443464 49.710916 0
M  V30 11 H 42.067084 30.778766 50.439463 0
M  V30 12 H 40.502630 31.337755 52.561430 0
M  V30 13 H 39.091822 30.178946 54.248293 0
M  V30 14 H 39.794710 28.137766 49.767762 0
M  V30 15 H 37.289484 27.047527 53.639352 0
M  V30 16 H 37.573183 28.320259 54.753371 0
M  V30 17 H 38.383941 26.974387 51.447808 0
M  V30 END ATOM
M  V30 BEGIN BOND
M  V30 1 1 2 1
M  V30 2 1 3 2
M  V30 3 2 4 3
M  V30 4 1 5 4
M  V30 5 2 6 2
M  V30 6 1 7 5
M  V30 7 2 8 5
M  V30 8 1 8 6
M  V30 9 1 9 1
M  V30 10 1 10 1
M  V30 11 1 11 1
M  V30 12 1 12 3
M  V30 13 1 13 4
M  V30 14 1 14 6
M  V30 15 1 15 7
M  V30 16 1 16 7
M  V30 17 1 17 8
M  V30 END BOND
M  V30 END CTAB
M  END
>  <i_epik_Tot_Q>  (1) 
0

>  <i_epik_Tot_abs_Q>  (1) 
0

>  <i_i_glide_confnum>  (1) 
1

>  <i_i_glide_lignum>  (1) 
62

>  <i_i_glide_posenum>  (1) 
32

>  <i_i_glide_rotatable_bonds>  (1) 
0

>  <i_lp_mmshare_version>  (1) 
72125

>  <i_m_source_file_index>  (1) 
59

>  <i_f3d_flags>  (1) 
0

>  <num_sample>  (1) 
100

>  <b_lp_Chiralities_Consistent>  (1) 
1

>  <r_epik_Charging_Adjusted_Penalty>  (1) 
0

>  <r_epik_Ionization_Penalty>  (1) 
0.002249743429862997

>  <r_epik_Ionization_Penalty_Charging>  (1) 
0

>  <r_epik_Ionization_Penalty_Neutral>  (1) 
0.002249743429862997

>  <r_epik_State_Penalty>  (1) 
-0

>  <r_glide_ring_energy>  (1) 
0

>  <r_i_docking_score>  (1) 
-5.8627531363687364

>  <r_i_glide_ecoul>  (1) 
-1.087473416420325

>  <r_i_glide_eff_state_penalty>  (1) 
-0

>  <r_i_glide_einternal>  (1) 
0

>  <r_i_glide_emodel>  (1) 
-27.521818768695574

>  <r_i_glide_emodel_strain>  (1) 
0.0036883418014834746

>  <r_i_glide_energy>  (1) 
-20.38818817767109

>  <r_i_glide_erotb>  (1) 
0

>  <r_i_glide_esite>  (1) 
0

>  <r_i_glide_evdw>  (1) 
-19.300714761250767

>  <r_i_glide_gscore>  (1) 
-5.8627531363687364

>  <r_i_glide_gscore_strain>  (1) 
0

>  <r_i_glide_hbond>  (1) 
0

>  <r_i_glide_ligand_efficiency>  (1) 
-0.73284414204609205

>  <r_i_glide_ligand_efficiency_ln>  (1) 
-1.9038364771719627

>  <r_i_glide_ligand_efficiency_sa>  (1) 
-1.4656882840921843

>  <r_i_glide_lipo>  (1) 
-1.9891525957597553

>  <r_i_glide_metal>  (1) 
-0

>  <r_i_glide_rewards>  (1) 
-2.7454437900833941

>  <r_lp_Energy>  (1) 
4.6440260000000002

>  <r_lp_tautomer_probability>  (1) 
1

>  <s_epik_cmdline>  (1) 
J2VwaWtfcHl0aG9uJywgJy1waHQnLCAnMS4wJywgJy1waCcsICc3LjQnLCAnLXRuJywgJzgnLCAnLW1hJywgJzUwMCcsICctaW1hZScsICc8aW5maWxlLm1hZT4nLCAnLW9tYWUnLCAnPG91dGZpbGUubWFlPic=

>  <s_epik_input>  (1) 
W0NIM11jMVtjSF1bY0hdYyhbTkgyXSlbY0hdW2NIXTE=

>  <s_glide_docking_method>  (1) 
confgen

>  <s_i_glide_gridfile>  (1) 
gpcr_5ht2c_6bqh_protein_autoprepared_prepared

>  <s_lp_Force_Field>  (1) 
S-OPLS

>  <s_lp_Variant>  (1) 
Pocket2Mol_58-1

>  <s_m_source_file>  (1) 
generated_GPCR_5HT2C_ligand_Pocket2Mol_2026-06-23_prepared.sdf

>  <GenAI_Model>  (1) 
Pocket2Mol

>  <Protein>  (1) 
GPCR_5HT2C

$$$$
Pocket2Mol_84
     RDKit          3D

  0  0  0  0  0  0  0  0  0  0999 V3000
M  V30 BEGIN CTAB
M  V30 COUNTS 19 19 0 0 1
M  V30 BEGIN ATOM
M  V30 1 C 38.313410 30.191118 54.239488 0
M  V30 2 C 39.674803 30.380483 53.576518 0
M  V30 3 O 37.607602 29.074665 53.720937 0
M  V30 4 C 38.241777 27.840917 53.586153 0 CFG=1
M  V30 5 C 38.931811 27.422131 54.903311 0
M  V30 6 O 39.629194 30.131406 52.180763 0
M  V30 7 C 39.772531 28.827627 51.767692 0
M  V30 8 O 37.246929 26.874026 53.367760 0
M  V30 9 C 39.186045 27.768872 52.380369 0
M  V30 10 H 37.694112 31.070925 54.063036 0
M  V30 11 H 38.421239 30.111617 55.322040 0
M  V30 12 H 39.998056 31.408555 53.724052 0
M  V30 13 H 40.445135 29.779567 54.052316 0
M  V30 14 H 38.215929 27.461479 55.724685 0
M  V30 15 H 39.301869 26.399499 54.817753 0
M  V30 16 H 39.777254 28.058328 55.150143 0
M  V30 17 H 40.423170 28.743946 50.909736 0
M  V30 18 H 36.958695 26.930088 52.464719 0
M  V30 19 H 39.370137 26.778504 51.987775 0
M  V30 END ATOM
M  V30 BEGIN BOND
M  V30 1 1 2 1
M  V30 2 1 3 1
M  V30 3 1 4 3
M  V30 4 1 5 4
M  V30 5 1 6 2
M  V30 6 1 7 6
M  V30 7 1 4 8 CFG=3
M  V30 8 1 9 4
M  V30 9 2 9 7
M  V30 10 1 10 1
M  V30 11 1 11 1
M  V30 12 1 12 2
M  V30 13 1 13 2
M  V30 14 1 14 5
M  V30 15 1 15 5
M  V30 16 1 16 5
M  V30 17 1 17 7
M  V30 18 1 18 8
M  V30 19 1 19 9
M  V30 END BOND
M  V30 END CTAB
M  END
>  <i_epik_Tot_Q>  (1) 
0

>  <i_epik_Tot_abs_Q>  (1) 
0

>  <i_i_glide_confnum>  (1) 
4

>  <i_i_glide_lignum>  (1) 
89

>  <i_i_glide_posenum>  (1) 
260

>  <i_i_glide_rotatable_bonds>  (1) 
1

>  <i_lp_mmshare_version>  (1) 
72125

>  <i_m_source_file_index>  (1) 
85

>  <i_f3d_flags>  (1) 
0

>  <num_sample>  (1) 
100

>  <b_lp_Chiralities_Consistent>  (1) 
1

>  <r_epik_Charging_Adjusted_Penalty>  (1) 
0

>  <r_epik_Ionization_Penalty>  (1) 
7.9405632778621754e-05

>  <r_epik_Ionization_Penalty_Charging>  (1) 
0

>  <r_epik_Ionization_Penalty_Neutral>  (1) 
7.9405632778621754e-05

>  <r_epik_State_Penalty>  (1) 
-0

>  <r_glide_ring_energy>  (1) 
2.1674625479299614

>  <r_i_docking_score>  (1) 
-5.8612192996049917

>  <r_i_glide_ecoul>  (1) 
-3.03237691789584

>  <r_i_glide_eff_state_penalty>  (1) 
-0

>  <r_i_glide_einternal>  (1) 
0.11549852409809924

>  <r_i_glide_emodel>  (1) 
-27.603133053974574

>  <r_i_glide_emodel_strain>  (1) 
0

>  <r_i_glide_energy>  (1) 
-19.526503809930254

>  <r_i_glide_erotb>  (1) 
0

>  <r_i_glide_esite>  (1) 
0

>  <r_i_glide_evdw>  (1) 
-16.494126892034416

>  <r_i_glide_gscore>  (1) 
-5.8612192996049917

>  <r_i_glide_gscore_strain>  (1) 
0

>  <r_i_glide_hbond>  (1) 
-0.29209025185196208

>  <r_i_glide_ligand_efficiency>  (1) 
-0.65124658884499909

>  <r_i_glide_ligand_efficiency_ln>  (1) 
-1.8332210196157974

>  <r_i_glide_ligand_efficiency_sa>  (1) 
-1.3546474942742175

>  <r_i_glide_lipo>  (1) 
-1.2683056712833187

>  <r_i_glide_metal>  (1) 
-0

>  <r_i_glide_rewards>  (1) 
-3.0212604941836148

>  <r_lp_Energy>  (1) 
3.4776590000000001

>  <r_lp_tautomer_probability>  (1) 
1

>  <s_epik_cmdline>  (1) 
J2VwaWtfcHl0aG9uJywgJy1waHQnLCAnMS4wJywgJy1waCcsICc3LjQnLCAnLXRuJywgJzgnLCAnLW1hJywgJzUwMCcsICctaW1hZScsICc8aW5maWxlLm1hZT4nLCAnLW9tYWUnLCAnPG91dGZpbGUubWFlPic=

>  <s_epik_input>  (1) 
W0NIM11bQ0BAXTEoW09IXSlPW0NIMl1bQ0gyXU9bQ0hdPVtDSF0x

>  <s_glide_docking_method>  (1) 
confgen

>  <s_i_glide_gridfile>  (1) 
gpcr_5ht2c_6bqh_protein_autoprepared_prepared

>  <s_lp_Force_Field>  (1) 
S-OPLS

>  <s_lp_Variant>  (1) 
Pocket2Mol_84-1

>  <s_m_source_file>  (1) 
generated_GPCR_5HT2C_ligand_Pocket2Mol_2026-06-23_prepared.sdf

>  <GenAI_Model>  (1) 
Pocket2Mol

>  <Protein>  (1) 
GPCR_5HT2C

$$$$
Pocket2Mol_84
     RDKit          3D

  0  0  0  0  0  0  0  0  0  0999 V3000
M  V30 BEGIN CTAB
M  V30 COUNTS 19 19 0 0 1
M  V30 BEGIN ATOM
M  V30 1 C 38.856468 27.147791 54.813494 0
M  V30 2 C 38.644093 28.552988 55.397036 0
M  V30 3 O 39.388591 27.119809 53.372569 0
M  V30 4 C 38.722629 28.131910 52.426516 0 CFG=1
M  V30 5 C 39.018295 27.705739 50.991373 0
M  V30 6 O 39.775960 29.547817 55.093613 0
M  V30 7 C 39.718765 30.137631 53.693160 0
M  V30 8 O 37.318896 28.118985 52.558670 0
M  V30 9 C 39.246285 29.551734 52.575873 0
M  V30 10 H 37.911474 26.606758 54.862155 0
M  V30 11 H 39.546744 26.591711 55.447839 0
M  V30 12 H 37.698259 28.963062 55.043006 0
M  V30 13 H 38.530627 28.459527 56.477078 0
M  V30 14 H 38.639219 26.698953 50.811578 0
M  V30 15 H 38.546956 28.389227 50.283698 0
M  V30 16 H 40.095098 27.707443 50.817269 0
M  V30 17 H 40.093057 31.147381 53.611241 0
M  V30 18 H 36.991106 27.373768 52.079235 0
M  V30 19 H 39.241589 30.134314 51.666490 0
M  V30 END ATOM
M  V30 BEGIN BOND
M  V30 1 1 2 1
M  V30 2 1 3 1
M  V30 3 1 4 3
M  V30 4 1 5 4
M  V30 5 1 6 2
M  V30 6 1 7 6
M  V30 7 1 4 8 CFG=3
M  V30 8 1 9 4
M  V30 9 2 9 7
M  V30 10 1 10 1
M  V30 11 1 11 1
M  V30 12 1 12 2
M  V30 13 1 13 2
M  V30 14 1 14 5
M  V30 15 1 15 5
M  V30 16 1 16 5
M  V30 17 1 17 7
M  V30 18 1 18 8
M  V30 19 1 19 9
M  V30 END BOND
M  V30 END CTAB
M  END
>  <i_epik_Tot_Q>  (1) 
0

>  <i_epik_Tot_abs_Q>  (1) 
0

>  <i_i_glide_confnum>  (1) 
2

>  <i_i_glide_lignum>  (1) 
89

>  <i_i_glide_posenum>  (1) 
275

>  <i_i_glide_rotatable_bonds>  (1) 
1

>  <i_lp_mmshare_version>  (1) 
72125

>  <i_m_source_file_index>  (1) 
85

>  <i_f3d_flags>  (1) 
0

>  <num_sample>  (1) 
100

>  <b_lp_Chiralities_Consistent>  (1) 
1

>  <r_epik_Charging_Adjusted_Penalty>  (1) 
0

>  <r_epik_Ionization_Penalty>  (1) 
7.9405632778621754e-05

>  <r_epik_Ionization_Penalty_Charging>  (1) 
0

>  <r_epik_Ionization_Penalty_Neutral>  (1) 
7.9405632778621754e-05

>  <r_epik_State_Penalty>  (1) 
-0

>  <r_glide_ring_energy>  (1) 
1.1732699075621849

>  <r_i_docking_score>  (1) 
-5.8584830946064468

>  <r_i_glide_ecoul>  (1) 
-3.4965065922636076

>  <r_i_glide_eff_state_penalty>  (1) 
-0

>  <r_i_glide_einternal>  (1) 
0.15657905442037579

>  <r_i_glide_emodel>  (1) 
-27.841931785247333

>  <r_i_glide_emodel_strain>  (1) 
3.690646011023091e-09

>  <r_i_glide_energy>  (1) 
-19.789640198616926

>  <r_i_glide_erotb>  (1) 
0

>  <r_i_glide_esite>  (1) 
0

>  <r_i_glide_evdw>  (1) 
-16.293133606353319

>  <r_i_glide_gscore>  (1) 
-5.8584830946064468

>  <r_i_glide_gscore_strain>  (1) 
0

>  <r_i_glide_hbond>  (1) 
-0.32000000000000001

>  <r_i_glide_ligand_efficiency>  (1) 
-0.65094256606738299

>  <r_i_glide_ligand_efficiency_ln>  (1) 
-1.8323652132961725

>  <r_i_glide_ligand_efficiency_sa>  (1) 
-1.3540151014126589

>  <r_i_glide_lipo>  (1) 
-1.2681843295827968

>  <r_i_glide_metal>  (1) 
-0

>  <r_i_glide_rewards>  (1) 
-2.9311660958664429

>  <r_lp_Energy>  (1) 
3.4776590000000001

>  <r_lp_tautomer_probability>  (1) 
1

>  <s_epik_cmdline>  (1) 
J2VwaWtfcHl0aG9uJywgJy1waHQnLCAnMS4wJywgJy1waCcsICc3LjQnLCAnLXRuJywgJzgnLCAnLW1hJywgJzUwMCcsICctaW1hZScsICc8aW5maWxlLm1hZT4nLCAnLW9tYWUnLCAnPG91dGZpbGUubWFlPic=

>  <s_epik_input>  (1) 
W0NIM11bQ0BAXTEoW09IXSlPW0NIMl1bQ0gyXU9bQ0hdPVtDSF0x

>  <s_glide_docking_method>  (1) 
confgen

>  <s_i_glide_gridfile>  (1) 
gpcr_5ht2c_6bqh_protein_autoprepared_prepared

>  <s_lp_Force_Field>  (1) 
S-OPLS

>  <s_lp_Variant>  (1) 
Pocket2Mol_84-1

>  <s_m_source_file>  (1) 
generated_GPCR_5HT2C_ligand_Pocket2Mol_2026-06-23_prepared.sdf

>  <GenAI_Model>  (1) 
Pocket2Mol

>  <Protein>  (1) 
GPCR_5HT2C

$$$$
Pocket2Mol_80
     RDKit          3D

  0  0  0  0  0  0  0  0  0  0999 V3000
M  V30 BEGIN CTAB
M  V30 COUNTS 17 17 0 0 1
M  V30 BEGIN ATOM
M  V30 1 C 38.498724 28.410546 52.494736 0
M  V30 2 C 37.882554 28.517101 53.757692 0
M  V30 3 C 38.177034 29.613195 54.597292 0
M  V30 4 C 37.510329 29.732711 55.949207 0
M  V30 5 C 39.090315 30.599230 54.175203 0
M  V30 6 C 39.407987 29.401909 52.071791 0
M  V30 7 C 40.044933 29.301322 50.742077 0
M  V30 8 O 40.829525 30.139734 50.296193 0
M  V30 9 C 39.703710 30.495974 52.914998 0
M  V30 10 H 38.268824 27.571128 51.851783 0
M  V30 11 H 37.182670 27.760446 54.081454 0
M  V30 12 H 37.919363 30.562190 56.526961 0
M  V30 13 H 36.444288 29.912891 55.814195 0
M  V30 14 H 37.645136 28.815324 56.525272 0
M  V30 15 H 39.316919 31.437822 54.818747 0
M  V30 16 H 39.761166 28.414143 50.176567 0
M  V30 17 H 40.400564 31.256511 52.591792 0
M  V30 END ATOM
M  V30 BEGIN BOND
M  V30 1 2 2 1
M  V30 2 1 3 2
M  V30 3 1 4 3
M  V30 4 2 5 3
M  V30 5 1 6 1
M  V30 6 1 7 6
M  V30 7 2 8 7
M  V30 8 1 9 5
M  V30 9 2 9 6
M  V30 10 1 10 1
M  V30 11 1 11 2
M  V30 12 1 12 4
M  V30 13 1 13 4
M  V30 14 1 14 4
M  V30 15 1 15 5
M  V30 16 1 16 7
M  V30 17 1 17 9
M  V30 END BOND
M  V30 END CTAB
M  END
>  <i_epik_Tot_Q>  (1) 
0

>  <i_epik_Tot_abs_Q>  (1) 
0

>  <i_i_glide_confnum>  (1) 
1

>  <i_i_glide_lignum>  (1) 
85

>  <i_i_glide_posenum>  (1) 
138

>  <i_i_glide_rotatable_bonds>  (1) 
1

>  <i_lp_mmshare_version>  (1) 
72125

>  <i_m_source_file_index>  (1) 
81

>  <i_f3d_flags>  (1) 
0

>  <num_sample>  (1) 
100

>  <b_lp_Chiralities_Consistent>  (1) 
1

>  <r_epik_Charging_Adjusted_Penalty>  (1) 
0

>  <r_epik_Ionization_Penalty>  (1) 
0

>  <r_epik_Ionization_Penalty_Charging>  (1) 
0

>  <r_epik_Ionization_Penalty_Neutral>  (1) 
0

>  <r_epik_State_Penalty>  (1) 
-0

>  <r_glide_ring_energy>  (1) 
0

>  <r_i_docking_score>  (1) 
-5.8515509428298831

>  <r_i_glide_ecoul>  (1) 
-1.0722940295519279

>  <r_i_glide_eff_state_penalty>  (1) 
-0

>  <r_i_glide_einternal>  (1) 
0.0039489436282572621

>  <r_i_glide_emodel>  (1) 
-29.052253580168767

>  <r_i_glide_emodel_strain>  (1) 
0.0038580581065392749

>  <r_i_glide_energy>  (1) 
-21.221097174950362

>  <r_i_glide_erotb>  (1) 
0

>  <r_i_glide_esite>  (1) 
0

>  <r_i_glide_evdw>  (1) 
-20.148803145398436

>  <r_i_glide_gscore>  (1) 
-5.8515509428298831

>  <r_i_glide_gscore_strain>  (1) 
0

>  <r_i_glide_hbond>  (1) 
0

>  <r_i_glide_ligand_efficiency>  (1) 
-0.65017232698109817

>  <r_i_glide_ligand_efficiency_ln>  (1) 
-1.8301970353628165

>  <r_i_glide_ligand_efficiency_sa>  (1) 
-1.3524129395493956

>  <r_i_glide_lipo>  (1) 
-1.6722501969038714

>  <r_i_glide_metal>  (1) 
-0

>  <r_i_glide_rewards>  (1) 
-3.0110164842233011

>  <r_lp_Energy>  (1) 
4.8020719999999999

>  <r_lp_tautomer_probability>  (1) 
1

>  <s_epik_cmdline>  (1) 
J2VwaWtfcHl0aG9uJywgJy1waHQnLCAnMS4wJywgJy1waCcsICc3LjQnLCAnLXRuJywgJzgnLCAnLW1hJywgJzUwMCcsICctaW1hZScsICc8aW5maWxlLm1hZT4nLCAnLW9tYWUnLCAnPG91dGZpbGUubWFlPic=

>  <s_epik_input>  (1) 
W2NIXTFbY0hdYyhbQ0hdPU8pW2NIXVtjSF1jMVtDSDNd

>  <s_glide_docking_method>  (1) 
confgen

>  <s_i_glide_gridfile>  (1) 
gpcr_5ht2c_6bqh_protein_autoprepared_prepared

>  <s_lp_Force_Field>  (1) 
S-OPLS

>  <s_lp_Variant>  (1) 
Pocket2Mol_80-1

>  <s_m_source_file>  (1) 
generated_GPCR_5HT2C_ligand_Pocket2Mol_2026-06-23_prepared.sdf

>  <GenAI_Model>  (1) 
Pocket2Mol

>  <Protein>  (1) 
GPCR_5HT2C

$$$$
Pocket2Mol_64
     RDKit          3D

  0  0  0  0  0  0  0  0  0  0999 V3000
M  V30 BEGIN CTAB
M  V30 COUNTS 15 15 0 0 1
M  V30 BEGIN ATOM
M  V30 1 C 40.045137 30.505890 52.020551 0
M  V30 2 C 39.640252 30.450378 53.368043 0
M  V30 3 C 38.838333 29.383482 53.819353 0
M  V30 4 C 38.441521 28.370789 52.922408 0
M  V30 5 C 39.652517 29.494354 51.123679 0
M  V30 6 N 37.645137 27.317542 53.367754 0
M  V30 7 O 40.045137 29.552994 49.818405 0
M  V30 8 C 38.850017 28.425648 51.574063 0
M  V30 9 H 40.657840 31.326294 51.674950 0
M  V30 10 H 39.942719 31.227100 54.055170 0
M  V30 11 H 38.526755 29.343763 54.853160 0
M  V30 12 H 37.220165 26.677895 52.706169 0
M  V30 13 H 37.229685 27.344955 54.287633 0
M  V30 14 H 39.436384 29.119580 49.237858 0
M  V30 15 H 38.546966 27.649536 50.886072 0
M  V30 END ATOM
M  V30 BEGIN BOND
M  V30 1 1 2 1
M  V30 2 2 3 2
M  V30 3 1 4 3
M  V30 4 2 5 1
M  V30 5 1 6 4
M  V30 6 1 7 5
M  V30 7 2 8 4
M  V30 8 1 8 5
M  V30 9 1 9 1
M  V30 10 1 10 2
M  V30 11 1 11 3
M  V30 12 1 12 6
M  V30 13 1 13 6
M  V30 14 1 14 7
M  V30 15 1 15 8
M  V30 END BOND
M  V30 END CTAB
M  END
>  <i_epik_Tot_Q>  (1) 
0

>  <i_epik_Tot_abs_Q>  (1) 
0

>  <i_i_glide_confnum>  (1) 
1

>  <i_i_glide_lignum>  (1) 
68

>  <i_i_glide_posenum>  (1) 
87

>  <i_i_glide_rotatable_bonds>  (1) 
1

>  <i_lp_mmshare_version>  (1) 
72125

>  <i_m_source_file_index>  (1) 
65

>  <i_f3d_flags>  (1) 
0

>  <num_sample>  (1) 
100

>  <b_lp_Chiralities_Consistent>  (1) 
1

>  <r_epik_Charging_Adjusted_Penalty>  (1) 
0

>  <r_epik_Ionization_Penalty>  (1) 
0.0026005809723615375

>  <r_epik_Ionization_Penalty_Charging>  (1) 
0

>  <r_epik_Ionization_Penalty_Neutral>  (1) 
0.0026005809723615375

>  <r_epik_State_Penalty>  (1) 
-0

>  <r_glide_ring_energy>  (1) 
0

>  <r_i_docking_score>  (1) 
-5.848392565087968

>  <r_i_glide_ecoul>  (1) 
-3.0113251201462212

>  <r_i_glide_eff_state_penalty>  (1) 
-0

>  <r_i_glide_einternal>  (1) 
0.52397589473331641

>  <r_i_glide_emodel>  (1) 
-28.47434483629976

>  <r_i_glide_emodel_strain>  (1) 
0.16319513380401673

>  <r_i_glide_energy>  (1) 
-21.288019432850216

>  <r_i_glide_erotb>  (1) 
0

>  <r_i_glide_esite>  (1) 
0

>  <r_i_glide_evdw>  (1) 
-18.276694312703995

>  <r_i_glide_gscore>  (1) 
-5.848392565087968

>  <r_i_glide_gscore_strain>  (1) 
0

>  <r_i_glide_hbond>  (1) 
-0.27344607464610837

>  <r_i_glide_ligand_efficiency>  (1) 
-0.731049070635996

>  <r_i_glide_ligand_efficiency_ln>  (1) 
-1.8991731084778667

>  <r_i_glide_ligand_efficiency_sa>  (1) 
-1.4620981412719922

>  <r_i_glide_lipo>  (1) 
-1.7133323967121408

>  <r_i_glide_metal>  (1) 
-0

>  <r_i_glide_rewards>  (1) 
-2.496080610072585

>  <r_lp_Energy>  (1) 
4.3794230000000001

>  <r_lp_tautomer_probability>  (1) 
1

>  <s_epik_cmdline>  (1) 
J2VwaWtfcHl0aG9uJywgJy1waHQnLCAnMS4wJywgJy1waCcsICc3LjQnLCAnLXRuJywgJzgnLCAnLW1hJywgJzUwMCcsICctaW1hZScsICc8aW5maWxlLm1hZT4nLCAnLW9tYWUnLCAnPG91dGZpbGUubWFlPic=

>  <s_epik_input>  (1) 
W09IXWMoW2NIXTEpW2NIXVtjSF1bY0hdYzFbTkgyXQ==

>  <s_glide_docking_method>  (1) 
confgen

>  <s_i_glide_gridfile>  (1) 
gpcr_5ht2c_6bqh_protein_autoprepared_prepared

>  <s_lp_Force_Field>  (1) 
S-OPLS

>  <s_lp_Variant>  (1) 
Pocket2Mol_64-1

>  <s_m_source_file>  (1) 
generated_GPCR_5HT2C_ligand_Pocket2Mol_2026-06-23_prepared.sdf

>  <GenAI_Model>  (1) 
Pocket2Mol

>  <Protein>  (1) 
GPCR_5HT2C

$$$$
Pocket2Mol_96
     RDKit          3D

  0  0  0  0  0  0  0  0  0  0999 V3000
M  V30 BEGIN CTAB
M  V30 COUNTS 18 19 0 0 1
M  V30 BEGIN ATOM
M  V30 1 C 40.434655 30.439250 50.711080 0
M  V30 2 C 40.045137 30.759358 52.041224 0
M  V30 3 C 40.045123 29.151749 50.466058 0
M  V30 4 C 39.443917 29.655630 52.568518 0
M  V30 5 N 39.431449 28.667117 51.608504 0
M  V30 6 C 38.844229 29.402729 53.901775 0
M  V30 7 O 38.707543 30.313864 54.712512 0
M  V30 8 C 38.845138 27.361985 51.768079 0
M  V30 9 N 38.470601 28.132098 54.163631 0
M  V30 10 C 38.740350 27.003823 53.259816 0
M  V30 11 H 40.938835 31.084949 50.006356 0
M  V30 12 H 40.192506 31.695641 52.556636 0
M  V30 13 H 40.138475 28.537754 49.585759 0
M  V30 14 H 37.850890 27.395792 51.325265 0
M  V30 15 H 39.425888 26.620623 51.217799 0
M  V30 16 H 38.045008 27.926799 55.055387 0
M  V30 17 H 37.974932 26.240806 53.404768 0
M  V30 18 H 39.681798 26.556623 53.581724 0
M  V30 END ATOM
M  V30 BEGIN BOND
M  V30 1 1 2 1
M  V30 2 2 3 1
M  V30 3 2 4 2
M  V30 4 1 5 3
M  V30 5 1 5 4
M  V30 6 1 6 4
M  V30 7 2 7 6
M  V30 8 1 8 5
M  V30 9 1 9 6
M  V30 10 1 10 8
M  V30 11 1 10 9
M  V30 12 1 11 1
M  V30 13 1 12 2
M  V30 14 1 13 3
M  V30 15 1 14 8
M  V30 16 1 15 8
M  V30 17 1 16 9
M  V30 18 1 17 10
M  V30 19 1 18 10
M  V30 END BOND
M  V30 END CTAB
M  END
>  <i_epik_Tot_Q>  (1) 
0

>  <i_epik_Tot_abs_Q>  (1) 
0

>  <i_i_glide_confnum>  (1) 
1

>  <i_i_glide_lignum>  (1) 
101

>  <i_i_glide_posenum>  (1) 
139

>  <i_i_glide_rotatable_bonds>  (1) 
0

>  <i_lp_mmshare_version>  (1) 
72125

>  <i_m_source_file_index>  (1) 
97

>  <i_f3d_flags>  (1) 
0

>  <num_sample>  (1) 
100

>  <b_lp_Chiralities_Consistent>  (1) 
1

>  <r_epik_Charging_Adjusted_Penalty>  (1) 
0

>  <r_epik_Ionization_Penalty>  (1) 
5.1203149696400337e-08

>  <r_epik_Ionization_Penalty_Charging>  (1) 
0

>  <r_epik_Ionization_Penalty_Neutral>  (1) 
5.1203149696400337e-08

>  <r_epik_State_Penalty>  (1) 
-0

>  <r_glide_ring_energy>  (1) 
0

>  <r_i_docking_score>  (1) 
-5.8450454560797258

>  <r_i_glide_ecoul>  (1) 
-0.6201283769960424

>  <r_i_glide_eff_state_penalty>  (1) 
-0

>  <r_i_glide_einternal>  (1) 
0

>  <r_i_glide_emodel>  (1) 
-31.389844800008511

>  <r_i_glide_emodel_strain>  (1) 
0

>  <r_i_glide_energy>  (1) 
-22.40563743416962

>  <r_i_glide_erotb>  (1) 
0

>  <r_i_glide_esite>  (1) 
0

>  <r_i_glide_evdw>  (1) 
-21.785509057173577

>  <r_i_glide_gscore>  (1) 
-5.8450454560797258

>  <r_i_glide_gscore_strain>  (1) 
0

>  <r_i_glide_hbond>  (1) 
0

>  <r_i_glide_ligand_efficiency>  (1) 
-0.5845045456079726

>  <r_i_glide_ligand_efficiency_ln>  (1) 
-1.7698394716548378

>  <r_i_glide_ligand_efficiency_sa>  (1) 
-1.2592768695391396

>  <r_i_glide_lipo>  (1) 
-1.6727580860332107

>  <r_i_glide_metal>  (1) 
-0

>  <r_i_glide_rewards>  (1) 
-2.9899926606384306

>  <r_lp_Energy>  (1) 
15.907292999999999

>  <r_lp_tautomer_probability>  (1) 
1

>  <s_epik_cmdline>  (1) 
J2VwaWtfcHl0aG9uJywgJy1waHQnLCAnMS4wJywgJy1waCcsICc3LjQnLCAnLXRuJywgJzgnLCAnLW1hJywgJzUwMCcsICctaW1hZScsICc8aW5maWxlLm1hZT4nLCAnLW9tYWUnLCAnPG91dGZpbGUubWFlPic=

>  <s_epik_input>  (1) 
W2NIXTFbY0hdW2NIXW4oYzEyKVtDSDJdW0NIMl1bTkhdQzI9Tw==

>  <s_glide_docking_method>  (1) 
confgen

>  <s_i_glide_gridfile>  (1) 
gpcr_5ht2c_6bqh_protein_autoprepared_prepared

>  <s_lp_Force_Field>  (1) 
S-OPLS

>  <s_lp_Variant>  (1) 
Pocket2Mol_96-1

>  <s_m_source_file>  (1) 
generated_GPCR_5HT2C_ligand_Pocket2Mol_2026-06-23_prepared.sdf

>  <GenAI_Model>  (1) 
Pocket2Mol

>  <Protein>  (1) 
GPCR_5HT2C

$$$$
Pocket2Mol_27
     RDKit          3D

  0  0  0  0  0  0  0  0  0  0999 V3000
M  V30 BEGIN CTAB
M  V30 COUNTS 15 15 0 0 1
M  V30 BEGIN ATOM
M  V30 1 C 39.645122 30.137406 52.658207 0
M  V30 2 C 40.211298 30.113584 51.367861 0
M  V30 3 C 40.011398 28.998805 50.532505 0
M  V30 4 C 38.872319 29.045550 53.109884 0
M  V30 5 C 39.245146 27.906133 50.983537 0
M  V30 6 C 38.256889 29.073964 54.494029 0
M  V30 7 C 38.674391 27.929082 52.270354 0
M  V30 8 H 39.798513 30.994053 53.299112 0
M  V30 9 H 40.799302 30.951031 51.020263 0
M  V30 10 H 40.445137 28.981228 49.544370 0
M  V30 11 H 39.092871 27.050893 50.340848 0
M  V30 12 H 37.691677 28.163464 54.697148 0
M  V30 13 H 39.031953 29.168930 55.254298 0
M  V30 14 H 37.578474 29.922704 54.589421 0
M  V30 15 H 38.083761 27.091467 52.612317 0
M  V30 END ATOM
M  V30 BEGIN BOND
M  V30 1 1 2 1
M  V30 2 2 3 2
M  V30 3 2 4 1
M  V30 4 1 5 3
M  V30 5 1 6 4
M  V30 6 1 7 4
M  V30 7 2 7 5
M  V30 8 1 8 1
M  V30 9 1 9 2
M  V30 10 1 10 3
M  V30 11 1 11 5
M  V30 12 1 12 6
M  V30 13 1 13 6
M  V30 14 1 14 6
M  V30 15 1 15 7
M  V30 END BOND
M  V30 END CTAB
M  END
>  <i_epik_Tot_Q>  (1) 
0

>  <i_epik_Tot_abs_Q>  (1) 
0

>  <i_i_glide_confnum>  (1) 
1

>  <i_i_glide_lignum>  (1) 
30

>  <i_i_glide_posenum>  (1) 
92

>  <i_i_glide_rotatable_bonds>  (1) 
0

>  <i_lp_mmshare_version>  (1) 
72125

>  <i_m_source_file_index>  (1) 
28

>  <i_f3d_flags>  (1) 
0

>  <num_sample>  (1) 
100

>  <b_lp_Chiralities_Consistent>  (1) 
1

>  <r_epik_Charging_Adjusted_Penalty>  (1) 
0

>  <r_epik_Ionization_Penalty>  (1) 
0

>  <r_epik_Ionization_Penalty_Charging>  (1) 
0

>  <r_epik_Ionization_Penalty_Neutral>  (1) 
0

>  <r_epik_State_Penalty>  (1) 
-0

>  <r_glide_ring_energy>  (1) 
0

>  <r_i_docking_score>  (1) 
-5.8420544415024915

>  <r_i_glide_ecoul>  (1) 
-0.8513918774666307

>  <r_i_glide_eff_state_penalty>  (1) 
-0

>  <r_i_glide_einternal>  (1) 
0

>  <r_i_glide_emodel>  (1) 
-23.339042049119563

>  <r_i_glide_emodel_strain>  (1) 
0

>  <r_i_glide_energy>  (1) 
-16.997150708218079

>  <r_i_glide_erotb>  (1) 
0

>  <r_i_glide_esite>  (1) 
0

>  <r_i_glide_evdw>  (1) 
-16.145758830751447

>  <r_i_glide_gscore>  (1) 
-5.8420544415024915

>  <r_i_glide_gscore_strain>  (1) 
0

>  <r_i_glide_hbond>  (1) 
0

>  <r_i_glide_ligand_efficiency>  (1) 
-0.83457920592892731

>  <r_i_glide_ligand_efficiency_ln>  (1) 
-1.9831067975294174

>  <r_i_glide_ligand_efficiency_sa>  (1) 
-1.5964925875148643

>  <r_i_glide_lipo>  (1) 
-2.1400314112184784

>  <r_i_glide_metal>  (1) 
-0

>  <r_i_glide_rewards>  (1) 
-2.7670263071264456

>  <r_lp_Energy>  (1) 
6.403492

>  <r_lp_tautomer_probability>  (1) 
1

>  <s_epik_cmdline>  (1) 
J2VwaWtfcHl0aG9uJywgJy1waHQnLCAnMS4wJywgJy1waCcsICc3LjQnLCAnLXRuJywgJzgnLCAnLW1hJywgJzUwMCcsICctaW1hZScsICc8aW5maWxlLm1hZT4nLCAnLW9tYWUnLCAnPG91dGZpbGUubWFlPic=

>  <s_epik_input>  (1) 
W0NIM11jMVtjSF1bY0hdW2NIXVtjSF1bY0hdMQ==

>  <s_glide_docking_method>  (1) 
confgen

>  <s_i_glide_gridfile>  (1) 
gpcr_5ht2c_6bqh_protein_autoprepared_prepared

>  <s_lp_Force_Field>  (1) 
S-OPLS

>  <s_lp_Variant>  (1) 
Pocket2Mol_27-1

>  <s_m_source_file>  (1) 
generated_GPCR_5HT2C_ligand_Pocket2Mol_2026-06-23_prepared.sdf

>  <GenAI_Model>  (1) 
Pocket2Mol

>  <Protein>  (1) 
GPCR_5HT2C

$$$$
Pocket2Mol_80
     RDKit          3D

  0  0  0  0  0  0  0  0  0  0999 V3000
M  V30 BEGIN CTAB
M  V30 COUNTS 17 17 0 0 1
M  V30 BEGIN ATOM
M  V30 1 C 39.645163 30.474595 53.227695 0
M  V30 2 C 39.764045 29.691965 52.062784 0
M  V30 3 C 38.973115 28.535714 51.905206 0
M  V30 4 C 39.101620 27.698230 50.651603 0
M  V30 5 C 38.062817 28.161475 52.915660 0
M  V30 6 C 38.728510 30.104555 54.235487 0
M  V30 7 C 38.589378 30.933690 55.457375 0
M  V30 8 O 39.245251 31.953633 55.667081 0
M  V30 9 C 37.940885 28.945322 54.080194 0
M  V30 10 H 40.253281 31.356971 53.345470 0
M  V30 11 H 40.463221 29.978666 51.290500 0
M  V30 12 H 38.445010 26.829710 50.677928 0
M  V30 13 H 38.845137 28.296748 49.777681 0
M  V30 14 H 40.120816 27.338476 50.535203 0
M  V30 15 H 37.456872 27.275213 52.796522 0
M  V30 16 H 37.849149 30.564284 56.168198 0
M  V30 17 H 37.243800 28.657972 54.851827 0
M  V30 END ATOM
M  V30 BEGIN BOND
M  V30 1 2 2 1
M  V30 2 1 3 2
M  V30 3 1 4 3
M  V30 4 2 5 3
M  V30 5 1 6 1
M  V30 6 1 7 6
M  V30 7 2 8 7
M  V30 8 1 9 5
M  V30 9 2 9 6
M  V30 10 1 10 1
M  V30 11 1 11 2
M  V30 12 1 12 4
M  V30 13 1 13 4
M  V30 14 1 14 4
M  V30 15 1 15 5
M  V30 16 1 16 7
M  V30 17 1 17 9
M  V30 END BOND
M  V30 END CTAB
M  END
>  <i_epik_Tot_Q>  (1) 
0

>  <i_epik_Tot_abs_Q>  (1) 
0

>  <i_i_glide_confnum>  (1) 
1

>  <i_i_glide_lignum>  (1) 
85

>  <i_i_glide_posenum>  (1) 
363

>  <i_i_glide_rotatable_bonds>  (1) 
1

>  <i_lp_mmshare_version>  (1) 
72125

>  <i_m_source_file_index>  (1) 
81

>  <i_f3d_flags>  (1) 
0

>  <num_sample>  (1) 
100

>  <b_lp_Chiralities_Consistent>  (1) 
1

>  <r_epik_Charging_Adjusted_Penalty>  (1) 
0

>  <r_epik_Ionization_Penalty>  (1) 
0

>  <r_epik_Ionization_Penalty_Charging>  (1) 
0

>  <r_epik_Ionization_Penalty_Neutral>  (1) 
0

>  <r_epik_State_Penalty>  (1) 
-0

>  <r_glide_ring_energy>  (1) 
0

>  <r_i_docking_score>  (1) 
-5.8337054058280602

>  <r_i_glide_ecoul>  (1) 
-1.3501399618397667

>  <r_i_glide_eff_state_penalty>  (1) 
-0

>  <r_i_glide_einternal>  (1) 
0.074042216724052534

>  <r_i_glide_emodel>  (1) 
-29.293669720298492

>  <r_i_glide_emodel_strain>  (1) 
0

>  <r_i_glide_energy>  (1) 
-21.517602441836125

>  <r_i_glide_erotb>  (1) 
0

>  <r_i_glide_esite>  (1) 
-0.016830430826048813

>  <r_i_glide_evdw>  (1) 
-20.16746247999636

>  <r_i_glide_gscore>  (1) 
-5.8337054058280602

>  <r_i_glide_gscore_strain>  (1) 
0

>  <r_i_glide_hbond>  (1) 
0

>  <r_i_glide_ligand_efficiency>  (1) 
-0.64818948953645117

>  <r_i_glide_ligand_efficiency_ln>  (1) 
-1.8246154640436409

>  <r_i_glide_ligand_efficiency_sa>  (1) 
-1.3482884714570438

>  <r_i_glide_lipo>  (1) 
-2.1406158599326583

>  <r_i_glide_metal>  (1) 
-0

>  <r_i_glide_rewards>  (1) 
-2.46536499679357

>  <r_lp_Energy>  (1) 
4.8020719999999999

>  <r_lp_tautomer_probability>  (1) 
1

>  <s_epik_cmdline>  (1) 
J2VwaWtfcHl0aG9uJywgJy1waHQnLCAnMS4wJywgJy1waCcsICc3LjQnLCAnLXRuJywgJzgnLCAnLW1hJywgJzUwMCcsICctaW1hZScsICc8aW5maWxlLm1hZT4nLCAnLW9tYWUnLCAnPG91dGZpbGUubWFlPic=

>  <s_epik_input>  (1) 
W2NIXTFbY0hdYyhbQ0hdPU8pW2NIXVtjSF1jMVtDSDNd

>  <s_glide_docking_method>  (1) 
confgen

>  <s_i_glide_gridfile>  (1) 
gpcr_5ht2c_6bqh_protein_autoprepared_prepared

>  <s_lp_Force_Field>  (1) 
S-OPLS

>  <s_lp_Variant>  (1) 
Pocket2Mol_80-1

>  <s_m_source_file>  (1) 
generated_GPCR_5HT2C_ligand_Pocket2Mol_2026-06-23_prepared.sdf

>  <GenAI_Model>  (1) 
Pocket2Mol

>  <Protein>  (1) 
GPCR_5HT2C

$$$$
Pocket2Mol_57
     RDKit          3D

  0  0  0  0  0  0  0  0  0  0999 V3000
M  V30 BEGIN CTAB
M  V30 COUNTS 16 16 0 0 1
M  V30 BEGIN ATOM
M  V30 1 C 40.045137 30.452321 52.365350 0
M  V30 2 C 40.044164 29.699721 51.175010 0
M  V30 3 C 39.245145 30.052577 53.454182 0
M  V30 4 C 38.445183 28.896346 53.354101 0
M  V30 5 O 37.664007 28.512781 54.404482 0
M  V30 6 C 40.891272 30.143069 50.001867 0
M  V30 7 C 38.449833 28.137839 52.167472 0
M  V30 8 C 39.248313 28.537984 51.077860 0
M  V30 9 H 40.654582 31.337788 52.442226 0
M  V30 10 H 39.243649 30.635541 54.363326 0
M  V30 11 H 37.662631 29.133773 55.117855 0
M  V30 12 H 40.748694 29.496195 49.135541 0
M  V30 13 H 40.621741 31.160150 49.713298 0
M  V30 14 H 41.946289 30.137758 50.275026 0
M  V30 15 H 37.836771 27.251801 52.090609 0
M  V30 16 H 39.245077 27.957918 50.167534 0
M  V30 END ATOM
M  V30 BEGIN BOND
M  V30 1 1 2 1
M  V30 2 2 3 1
M  V30 3 1 4 3
M  V30 4 1 5 4
M  V30 5 1 6 2
M  V30 6 2 7 4
M  V30 7 2 8 2
M  V30 8 1 8 7
M  V30 9 1 9 1
M  V30 10 1 10 3
M  V30 11 1 11 5
M  V30 12 1 12 6
M  V30 13 1 13 6
M  V30 14 1 14 6
M  V30 15 1 15 7
M  V30 16 1 16 8
M  V30 END BOND
M  V30 END CTAB
M  END
>  <i_epik_Tot_Q>  (1) 
0

>  <i_epik_Tot_abs_Q>  (1) 
0

>  <i_i_glide_confnum>  (1) 
1

>  <i_i_glide_lignum>  (1) 
61

>  <i_i_glide_posenum>  (1) 
315

>  <i_i_glide_rotatable_bonds>  (1) 
1

>  <i_lp_mmshare_version>  (1) 
72125

>  <i_m_source_file_index>  (1) 
58

>  <i_f3d_flags>  (1) 
0

>  <num_sample>  (1) 
100

>  <b_lp_Chiralities_Consistent>  (1) 
1

>  <r_epik_Charging_Adjusted_Penalty>  (1) 
0

>  <r_epik_Ionization_Penalty>  (1) 
0.0011734046256504545

>  <r_epik_Ionization_Penalty_Charging>  (1) 
0

>  <r_epik_Ionization_Penalty_Neutral>  (1) 
0.0011734046256504545

>  <r_epik_State_Penalty>  (1) 
-0

>  <r_glide_ring_energy>  (1) 
0

>  <r_i_docking_score>  (1) 
-5.8218836480986642

>  <r_i_glide_ecoul>  (1) 
-1.3762234045458754

>  <r_i_glide_eff_state_penalty>  (1) 
-0

>  <r_i_glide_einternal>  (1) 
0.0078819183863777925

>  <r_i_glide_emodel>  (1) 
-27.70881713903464

>  <r_i_glide_emodel_strain>  (1) 
0

>  <r_i_glide_energy>  (1) 
-19.929711195726799

>  <r_i_glide_erotb>  (1) 
0

>  <r_i_glide_esite>  (1) 
0

>  <r_i_glide_evdw>  (1) 
-18.553487791180924

>  <r_i_glide_gscore>  (1) 
-5.8218836480986642

>  <r_i_glide_gscore_strain>  (1) 
0

>  <r_i_glide_hbond>  (1) 
0

>  <r_i_glide_ligand_efficiency>  (1) 
-0.72773545601233303

>  <r_i_glide_ligand_efficiency_ln>  (1) 
-1.8905647564015213

>  <r_i_glide_ligand_efficiency_sa>  (1) 
-1.4554709120246663

>  <r_i_glide_lipo>  (1) 
-2.0702121479422479

>  <r_i_glide_metal>  (1) 
-0

>  <r_i_glide_rewards>  (1) 
-2.6175635999154885

>  <r_lp_Energy>  (1) 
4.2645419999999996

>  <r_lp_tautomer_probability>  (1) 
1

>  <s_epik_cmdline>  (1) 
J2VwaWtfcHl0aG9uJywgJy1waHQnLCAnMS4wJywgJy1waCcsICc3LjQnLCAnLXRuJywgJzgnLCAnLW1hJywgJzUwMCcsICctaW1hZScsICc8aW5maWxlLm1hZT4nLCAnLW9tYWUnLCAnPG91dGZpbGUubWFlPic=

>  <s_epik_input>  (1) 
W0NIM11jMVtjSF1bY0hdYyhbT0hdKVtjSF1bY0hdMQ==

>  <s_glide_docking_method>  (1) 
confgen

>  <s_i_glide_gridfile>  (1) 
gpcr_5ht2c_6bqh_protein_autoprepared_prepared

>  <s_lp_Force_Field>  (1) 
S-OPLS

>  <s_lp_Variant>  (1) 
Pocket2Mol_57-1

>  <s_m_source_file>  (1) 
generated_GPCR_5HT2C_ligand_Pocket2Mol_2026-06-23_prepared.sdf

>  <GenAI_Model>  (1) 
Pocket2Mol

>  <Protein>  (1) 
GPCR_5HT2C

$$$$
Pocket2Mol_58
     RDKit          3D

  0  0  0  0  0  0  0  0  0  0999 V3000
M  V30 BEGIN CTAB
M  V30 COUNTS 17 17 0 0 1
M  V30 BEGIN ATOM
M  V30 1 C 37.563584 27.155781 53.767297 0
M  V30 2 C 38.434510 28.050346 52.909892 0
M  V30 3 C 38.839815 29.310205 53.393122 0
M  V30 4 C 39.646234 30.142978 52.594970 0
M  V30 5 C 40.048138 29.717146 51.312578 0
M  V30 6 C 38.840159 27.626189 51.627264 0
M  V30 7 N 40.845090 30.537754 50.520711 0
M  V30 8 C 39.645054 28.460690 50.831700 0
M  V30 9 H 37.312511 26.225551 53.257581 0
M  V30 10 H 38.075675 26.907699 54.697115 0
M  V30 11 H 36.633613 27.668220 54.012944 0
M  V30 12 H 38.531076 29.638431 54.375338 0
M  V30 13 H 39.956348 31.109433 52.966230 0
M  V30 14 H 38.530895 26.662784 51.251572 0
M  V30 15 H 41.001220 30.315772 49.549164 0
M  V30 16 H 41.005600 31.501070 50.784128 0
M  V30 17 H 39.951209 28.137520 49.850047 0
M  V30 END ATOM
M  V30 BEGIN BOND
M  V30 1 1 2 1
M  V30 2 1 3 2
M  V30 3 2 4 3
M  V30 4 1 5 4
M  V30 5 2 6 2
M  V30 6 1 7 5
M  V30 7 2 8 5
M  V30 8 1 8 6
M  V30 9 1 9 1
M  V30 10 1 10 1
M  V30 11 1 11 1
M  V30 12 1 12 3
M  V30 13 1 13 4
M  V30 14 1 14 6
M  V30 15 1 15 7
M  V30 16 1 16 7
M  V30 17 1 17 8
M  V30 END BOND
M  V30 END CTAB
M  END
>  <i_epik_Tot_Q>  (1) 
0

>  <i_epik_Tot_abs_Q>  (1) 
0

>  <i_i_glide_confnum>  (1) 
1

>  <i_i_glide_lignum>  (1) 
62

>  <i_i_glide_posenum>  (1) 
400

>  <i_i_glide_rotatable_bonds>  (1) 
0

>  <i_lp_mmshare_version>  (1) 
72125

>  <i_m_source_file_index>  (1) 
59

>  <i_f3d_flags>  (1) 
0

>  <num_sample>  (1) 
100

>  <b_lp_Chiralities_Consistent>  (1) 
1

>  <r_epik_Charging_Adjusted_Penalty>  (1) 
0

>  <r_epik_Ionization_Penalty>  (1) 
0.002249743429862997

>  <r_epik_Ionization_Penalty_Charging>  (1) 
0

>  <r_epik_Ionization_Penalty_Neutral>  (1) 
0.002249743429862997

>  <r_epik_State_Penalty>  (1) 
-0

>  <r_glide_ring_energy>  (1) 
0

>  <r_i_docking_score>  (1) 
-5.8204690894294613

>  <r_i_glide_ecoul>  (1) 
-1.0141071698269528

>  <r_i_glide_eff_state_penalty>  (1) 
-0

>  <r_i_glide_einternal>  (1) 
0

>  <r_i_glide_emodel>  (1) 
-27.274734158469588

>  <r_i_glide_emodel_strain>  (1) 
3.5682852228546835e-09

>  <r_i_glide_energy>  (1) 
-20.188891851501197

>  <r_i_glide_erotb>  (1) 
0

>  <r_i_glide_esite>  (1) 
0

>  <r_i_glide_evdw>  (1) 
-19.174784681674243

>  <r_i_glide_gscore>  (1) 
-5.8204690894294613

>  <r_i_glide_gscore_strain>  (1) 
0

>  <r_i_glide_hbond>  (1) 
0

>  <r_i_glide_ligand_efficiency>  (1) 
-0.72755863617868266

>  <r_i_glide_ligand_efficiency_ln>  (1) 
-1.8901054008170568

>  <r_i_glide_ligand_efficiency_sa>  (1) 
-1.4551172723573655

>  <r_i_glide_lipo>  (1) 
-2.2242204969351862

>  <r_i_glide_metal>  (1) 
-0

>  <r_i_glide_rewards>  (1) 
-2.4853932829365193

>  <r_lp_Energy>  (1) 
4.6440260000000002

>  <r_lp_tautomer_probability>  (1) 
1

>  <s_epik_cmdline>  (1) 
J2VwaWtfcHl0aG9uJywgJy1waHQnLCAnMS4wJywgJy1waCcsICc3LjQnLCAnLXRuJywgJzgnLCAnLW1hJywgJzUwMCcsICctaW1hZScsICc8aW5maWxlLm1hZT4nLCAnLW9tYWUnLCAnPG91dGZpbGUubWFlPic=

>  <s_epik_input>  (1) 
W0NIM11jMVtjSF1bY0hdYyhbTkgyXSlbY0hdW2NIXTE=

>  <s_glide_docking_method>  (1) 
confgen

>  <s_i_glide_gridfile>  (1) 
gpcr_5ht2c_6bqh_protein_autoprepared_prepared

>  <s_lp_Force_Field>  (1) 
S-OPLS

>  <s_lp_Variant>  (1) 
Pocket2Mol_58-1

>  <s_m_source_file>  (1) 
generated_GPCR_5HT2C_ligand_Pocket2Mol_2026-06-23_prepared.sdf

>  <GenAI_Model>  (1) 
Pocket2Mol

>  <Protein>  (1) 
GPCR_5HT2C

$$$$
Pocket2Mol_54
     RDKit          3D

  0  0  0  0  0  0  0  0  0  0999 V3000
M  V30 BEGIN CTAB
M  V30 COUNTS 17 17 0 0 1
M  V30 BEGIN ATOM
M  V30 1 C 38.845163 27.619647 51.593467 0
M  V30 2 C 38.442674 28.039527 52.876401 0
M  V30 3 C 38.842956 29.300213 53.362504 0
M  V30 4 N 38.442655 29.719646 54.628973 0
M  V30 5 C 39.645075 28.458019 50.796178 0
M  V30 6 C 40.045162 29.716535 51.278619 0
M  V30 7 C 40.899624 30.618377 50.417319 0
M  V30 8 C 39.645154 30.137757 52.563966 0
M  V30 9 H 38.537168 26.655582 51.219206 0
M  V30 10 H 37.825903 27.395036 53.485262 0
M  V30 11 H 38.576225 30.679416 54.915947 0
M  V30 12 H 37.735913 29.205363 55.134032 0
M  V30 13 H 39.947988 28.137313 49.812332 0
M  V30 14 H 41.231479 30.116372 49.508624 0
M  V30 15 H 40.327856 31.498210 50.123872 0
M  V30 16 H 41.782700 30.937759 50.967752 0
M  V30 17 H 39.952027 31.105768 52.933776 0
M  V30 END ATOM
M  V30 BEGIN BOND
M  V30 1 1 2 1
M  V30 2 2 3 2
M  V30 3 1 4 3
M  V30 4 2 5 1
M  V30 5 1 6 5
M  V30 6 1 7 6
M  V30 7 1 8 3
M  V30 8 2 8 6
M  V30 9 1 9 1
M  V30 10 1 10 2
M  V30 11 1 11 4
M  V30 12 1 12 4
M  V30 13 1 13 5
M  V30 14 1 14 7
M  V30 15 1 15 7
M  V30 16 1 16 7
M  V30 17 1 17 8
M  V30 END BOND
M  V30 END CTAB
M  END
>  <i_epik_Tot_Q>  (1) 
0

>  <i_epik_Tot_abs_Q>  (1) 
0

>  <i_i_glide_confnum>  (1) 
1

>  <i_i_glide_lignum>  (1) 
58

>  <i_i_glide_posenum>  (1) 
321

>  <i_i_glide_rotatable_bonds>  (1) 
0

>  <i_lp_mmshare_version>  (1) 
72125

>  <i_m_source_file_index>  (1) 
55

>  <i_f3d_flags>  (1) 
0

>  <num_sample>  (1) 
100

>  <b_lp_Chiralities_Consistent>  (1) 
1

>  <r_epik_Charging_Adjusted_Penalty>  (1) 
0

>  <r_epik_Ionization_Penalty>  (1) 
0.0013172751215551738

>  <r_epik_Ionization_Penalty_Charging>  (1) 
0

>  <r_epik_Ionization_Penalty_Neutral>  (1) 
0.0013172751215551738

>  <r_epik_State_Penalty>  (1) 
-0

>  <r_glide_ring_energy>  (1) 
0

>  <r_i_docking_score>  (1) 
-5.8203517046116122

>  <r_i_glide_ecoul>  (1) 
-1.0076441496656026

>  <r_i_glide_eff_state_penalty>  (1) 
-0

>  <r_i_glide_einternal>  (1) 
0

>  <r_i_glide_emodel>  (1) 
-26.980155548361928

>  <r_i_glide_emodel_strain>  (1) 
0.0033295836936844125

>  <r_i_glide_energy>  (1) 
-19.907786996165605

>  <r_i_glide_erotb>  (1) 
0

>  <r_i_glide_esite>  (1) 
0

>  <r_i_glide_evdw>  (1) 
-18.900142846500003

>  <r_i_glide_gscore>  (1) 
-5.8203517046116122

>  <r_i_glide_gscore_strain>  (1) 
0

>  <r_i_glide_hbond>  (1) 
0

>  <r_i_glide_ligand_efficiency>  (1) 
-0.72754396307645153

>  <r_i_glide_ligand_efficiency_ln>  (1) 
-1.8900672819515871

>  <r_i_glide_ligand_efficiency_sa>  (1) 
-1.4550879261529033

>  <r_i_glide_lipo>  (1) 
-2.2033842732303346

>  <r_i_glide_metal>  (1) 
-0

>  <r_i_glide_rewards>  (1) 
-2.5208136666064376

>  <r_lp_Energy>  (1) 
5.5447359999999994

>  <r_lp_tautomer_probability>  (1) 
1

>  <s_epik_cmdline>  (1) 
J2VwaWtfcHl0aG9uJywgJy1waHQnLCAnMS4wJywgJy1waCcsICc3LjQnLCAnLXRuJywgJzgnLCAnLW1hJywgJzUwMCcsICctaW1hZScsICc8aW5maWxlLm1hZT4nLCAnLW9tYWUnLCAnPG91dGZpbGUubWFlPic=

>  <s_epik_input>  (1) 
W0NIM11jKFtjSF0xKVtjSF1bY0hdW2NIXWMxW05IMl0=

>  <s_glide_docking_method>  (1) 
confgen

>  <s_i_glide_gridfile>  (1) 
gpcr_5ht2c_6bqh_protein_autoprepared_prepared

>  <s_lp_Force_Field>  (1) 
S-OPLS

>  <s_lp_Variant>  (1) 
Pocket2Mol_54-1

>  <s_m_source_file>  (1) 
generated_GPCR_5HT2C_ligand_Pocket2Mol_2026-06-23_prepared.sdf

>  <GenAI_Model>  (1) 
Pocket2Mol

>  <Protein>  (1) 
GPCR_5HT2C

$$$$
Pocket2Mol_65
     RDKit          3D

  0  0  0  0  0  0  0  0  0  0999 V3000
M  V30 BEGIN CTAB
M  V30 COUNTS 20 20 0 0 1
M  V30 BEGIN ATOM
M  V30 1 C 38.785418 27.609234 51.974471 0
M  V30 2 C 38.158470 28.498854 53.047137 0
M  V30 3 C 39.645119 28.560722 51.152317 0
M  V30 4 C 39.801076 29.799391 52.028197 0
M  V30 5 N 39.245225 29.426658 53.323888 0
M  V30 6 N 39.001061 30.561935 54.181784 0 CHG=1
M  V30 7 C 37.881784 30.632678 54.927320 0
M  V30 8 N 37.645138 31.674113 55.738200 0
M  V30 9 H 39.416197 26.852441 52.443294 0
M  V30 10 H 38.045138 27.089266 51.367823 0
M  V30 11 H 37.864404 27.927208 53.928148 0
M  V30 12 H 37.284667 29.010618 52.647089 0
M  V30 13 H 40.619410 28.135534 50.925034 0
M  V30 14 H 39.164755 28.816122 50.206795 0
M  V30 15 H 39.245137 30.624601 51.589759 0
M  V30 16 H 40.844036 30.106271 52.111569 0
M  V30 17 H 37.150941 29.835654 54.875887 0
M  V30 18 H 38.309320 32.428326 55.809935 0
M  V30 19 H 36.736280 31.737166 56.252225 0
M  V30 20 H 39.716351 31.275620 54.185293 0
M  V30 END ATOM
M  V30 BEGIN BOND
M  V30 1 1 2 1
M  V30 2 1 3 1
M  V30 3 1 4 3
M  V30 4 1 5 2
M  V30 5 1 5 4
M  V30 6 1 6 5
M  V30 7 2 7 6
M  V30 8 1 8 7
M  V30 9 1 9 1
M  V30 10 1 10 1
M  V30 11 1 11 2
M  V30 12 1 12 2
M  V30 13 1 13 3
M  V30 14 1 14 3
M  V30 15 1 15 4
M  V30 16 1 16 4
M  V30 17 1 17 7
M  V30 18 1 18 8
M  V30 19 1 19 8
M  V30 20 1 20 6
M  V30 END BOND
M  V30 END CTAB
M  END
>  <i_epik_Tot_Q>  (1) 
1

>  <i_epik_Tot_abs_Q>  (1) 
1

>  <i_i_glide_confnum>  (1) 
2

>  <i_i_glide_lignum>  (1) 
69

>  <i_i_glide_posenum>  (1) 
41

>  <i_i_glide_rotatable_bonds>  (1) 
1

>  <i_lp_mmshare_version>  (1) 
72125

>  <i_m_source_file_index>  (1) 
66

>  <i_f3d_flags>  (1) 
0

>  <num_sample>  (1) 
100

>  <b_lp_Chiralities_Consistent>  (1) 
1

>  <r_epik_Charging_Adjusted_Penalty>  (1) 
1.6312684749255997e-05

>  <r_epik_Ionization_Penalty>  (1) 
1.6401951855999153e-05

>  <r_epik_Ionization_Penalty_Charging>  (1) 
1.6312684749255997e-05

>  <r_epik_Ionization_Penalty_Neutral>  (1) 
8.9267106743156534e-08

>  <r_epik_State_Penalty>  (1) 
-0

>  <r_glide_ring_energy>  (1) 
0.002520034235707866

>  <r_i_docking_score>  (1) 
-5.8200382125163586

>  <r_i_glide_ecoul>  (1) 
-6.7757901212784715

>  <r_i_glide_eff_state_penalty>  (1) 
-0

>  <r_i_glide_einternal>  (1) 
0.092346994164771712

>  <r_i_glide_emodel>  (1) 
-29.948460357270811

>  <r_i_glide_emodel_strain>  (1) 
1.4966753299162967

>  <r_i_glide_energy>  (1) 
-19.226586053673845

>  <r_i_glide_erotb>  (1) 
0

>  <r_i_glide_esite>  (1) 
-0.14203071125523728

>  <r_i_glide_evdw>  (1) 
-12.450795932395375

>  <r_i_glide_gscore>  (1) 
-5.8200382125163586

>  <r_i_glide_gscore_strain>  (1) 
0

>  <r_i_glide_hbond>  (1) 
-0.20267939657832931

>  <r_i_glide_ligand_efficiency>  (1) 
-0.72750477656454482

>  <r_i_glide_ligand_efficiency_ln>  (1) 
-1.8899654803453509

>  <r_i_glide_ligand_efficiency_sa>  (1) 
-1.4550095531290899

>  <r_i_glide_lipo>  (1) 
-1.317420978610097

>  <r_i_glide_metal>  (1) 
-0

>  <r_i_glide_rewards>  (1) 
-2.5189988112611559

>  <r_lp_Energy>  (1) 
12.792574

>  <r_lp_tautomer_probability>  (1) 
1

>  <s_epik_Chemistry_Notes>  (1) 
This compound has an imine and may undergo hydrolysis.

>  <s_epik_cmdline>  (1) 
J2VwaWtfcHl0aG9uJywgJy1waHQnLCAnMS4wJywgJy1waCcsICc3LjQnLCAnLXRuJywgJzgnLCAnLW1hJywgJzUwMCcsICctaW1hZScsICc8aW5maWxlLm1hZT4nLCAnLW9tYWUnLCAnPG91dGZpbGUubWFlPic=

>  <s_epik_input>  (1) 
W0NIMl0xW0NIMl1bQ0gyXVtDSDJdTjEvTj1bQ0hdL1tOSDJd

>  <s_glide_docking_method>  (1) 
confgen

>  <s_i_glide_gridfile>  (1) 
gpcr_5ht2c_6bqh_protein_autoprepared_prepared

>  <s_lp_Force_Field>  (1) 
S-OPLS

>  <s_lp_Variant>  (1) 
Pocket2Mol_65-1

>  <s_m_source_file>  (1) 
generated_GPCR_5HT2C_ligand_Pocket2Mol_2026-06-23_prepared.sdf

>  <GenAI_Model>  (1) 
Pocket2Mol

>  <Protein>  (1) 
GPCR_5HT2C

$$$$
Pocket2Mol_54
     RDKit          3D

  0  0  0  0  0  0  0  0  0  0999 V3000
M  V30 BEGIN CTAB
M  V30 COUNTS 17 17 0 0 1
M  V30 BEGIN ATOM
M  V30 1 C 38.536982 28.074487 52.176677 0
M  V30 2 C 38.530483 28.847825 53.353732 0
M  V30 3 C 39.283626 30.037145 53.420406 0
M  V30 4 N 39.274182 30.803304 54.583439 0
M  V30 5 C 39.292556 28.490478 51.064290 0
M  V30 6 C 40.045120 29.681943 51.127687 0
M  V30 7 C 40.850508 30.137944 49.929828 0
M  V30 8 C 40.045066 30.451785 52.307635 0
M  V30 9 H 37.959423 27.162803 52.126043 0
M  V30 10 H 37.947213 28.528170 54.205202 0
M  V30 11 H 39.657902 31.737385 54.578893 0
M  V30 12 H 38.591376 30.615092 55.304910 0
M  V30 13 H 39.291960 27.897258 50.162845 0
M  V30 14 H 40.681731 29.497304 49.063651 0
M  V30 15 H 40.567440 31.156287 49.660989 0
M  V30 16 H 41.914340 30.137876 50.167471 0
M  V30 17 H 40.621176 31.362186 52.356382 0
M  V30 END ATOM
M  V30 BEGIN BOND
M  V30 1 1 2 1
M  V30 2 2 3 2
M  V30 3 1 4 3
M  V30 4 2 5 1
M  V30 5 1 6 5
M  V30 6 1 7 6
M  V30 7 1 8 3
M  V30 8 2 8 6
M  V30 9 1 9 1
M  V30 10 1 10 2
M  V30 11 1 11 4
M  V30 12 1 12 4
M  V30 13 1 13 5
M  V30 14 1 14 7
M  V30 15 1 15 7
M  V30 16 1 16 7
M  V30 17 1 17 8
M  V30 END BOND
M  V30 END CTAB
M  END
>  <i_epik_Tot_Q>  (1) 
0

>  <i_epik_Tot_abs_Q>  (1) 
0

>  <i_i_glide_confnum>  (1) 
1

>  <i_i_glide_lignum>  (1) 
58

>  <i_i_glide_posenum>  (1) 
259

>  <i_i_glide_rotatable_bonds>  (1) 
0

>  <i_lp_mmshare_version>  (1) 
72125

>  <i_m_source_file_index>  (1) 
55

>  <i_f3d_flags>  (1) 
0

>  <num_sample>  (1) 
100

>  <b_lp_Chiralities_Consistent>  (1) 
1

>  <r_epik_Charging_Adjusted_Penalty>  (1) 
0

>  <r_epik_Ionization_Penalty>  (1) 
0.0013172751215551738

>  <r_epik_Ionization_Penalty_Charging>  (1) 
0

>  <r_epik_Ionization_Penalty_Neutral>  (1) 
0.0013172751215551738

>  <r_epik_State_Penalty>  (1) 
-0

>  <r_glide_ring_energy>  (1) 
0

>  <r_i_docking_score>  (1) 
-5.8153601969632556

>  <r_i_glide_ecoul>  (1) 
-1.2294218501593277

>  <r_i_glide_eff_state_penalty>  (1) 
-0

>  <r_i_glide_einternal>  (1) 
0

>  <r_i_glide_emodel>  (1) 
-27.402938883426849

>  <r_i_glide_emodel_strain>  (1) 
0.0062301825511088538

>  <r_i_glide_energy>  (1) 
-20.339539017233747

>  <r_i_glide_erotb>  (1) 
0

>  <r_i_glide_esite>  (1) 
0

>  <r_i_glide_evdw>  (1) 
-19.110117167074421

>  <r_i_glide_gscore>  (1) 
-5.8153601969632556

>  <r_i_glide_gscore_strain>  (1) 
0

>  <r_i_glide_hbond>  (1) 
0

>  <r_i_glide_ligand_efficiency>  (1) 
-0.72692002462040695

>  <r_i_glide_ligand_efficiency_ln>  (1) 
-1.8884463686850752

>  <r_i_glide_ligand_efficiency_sa>  (1) 
-1.4538400492408141

>  <r_i_glide_lipo>  (1) 
-2.0778109435460825

>  <r_i_glide_metal>  (1) 
-0

>  <r_i_glide_rewards>  (1) 
-2.5976301175395533

>  <r_lp_Energy>  (1) 
5.5447359999999994

>  <r_lp_tautomer_probability>  (1) 
1

>  <s_epik_cmdline>  (1) 
J2VwaWtfcHl0aG9uJywgJy1waHQnLCAnMS4wJywgJy1waCcsICc3LjQnLCAnLXRuJywgJzgnLCAnLW1hJywgJzUwMCcsICctaW1hZScsICc8aW5maWxlLm1hZT4nLCAnLW9tYWUnLCAnPG91dGZpbGUubWFlPic=

>  <s_epik_input>  (1) 
W0NIM11jKFtjSF0xKVtjSF1bY0hdW2NIXWMxW05IMl0=

>  <s_glide_docking_method>  (1) 
confgen

>  <s_i_glide_gridfile>  (1) 
gpcr_5ht2c_6bqh_protein_autoprepared_prepared

>  <s_lp_Force_Field>  (1) 
S-OPLS

>  <s_lp_Variant>  (1) 
Pocket2Mol_54-1

>  <s_m_source_file>  (1) 
generated_GPCR_5HT2C_ligand_Pocket2Mol_2026-06-23_prepared.sdf

>  <GenAI_Model>  (1) 
Pocket2Mol

>  <Protein>  (1) 
GPCR_5HT2C

$$$$
Pocket2Mol_87
     RDKit          3D

  0  0  0  0  0  0  0  0  0  0999 V3000
M  V30 BEGIN CTAB
M  V30 COUNTS 18 18 0 0 1
M  V30 BEGIN ATOM
M  V30 1 C 38.787007 30.011266 54.867297 0
M  V30 2 C 39.341834 30.253663 53.597116 0
M  V30 3 C 39.180302 29.307383 52.549366 0
M  V30 4 C 39.766890 29.570101 51.193302 0
M  V30 5 N 40.445137 30.763927 51.057215 0
M  V30 6 C 39.645354 28.708614 50.167758 0
M  V30 7 C 38.068789 28.829726 55.110462 0
M  V30 8 C 38.450132 28.116448 52.809507 0
M  V30 9 C 37.900171 27.884156 54.084519 0
M  V30 10 H 38.912629 30.736849 55.657661 0
M  V30 11 H 39.889861 31.166955 53.426560 0
M  V30 12 H 40.469289 31.447668 51.800133 0
M  V30 13 H 37.645142 28.648415 56.087097 0
M  V30 14 H 38.308232 27.381305 52.036172 0
M  V30 15 H 37.345682 26.976722 54.274001 0
M  V30 16 H 40.080241 28.937753 49.206436 0
M  V30 17 H 39.118532 27.776164 50.265395 0
M  V30 18 H 40.815509 31.065692 50.167190 0
M  V30 END ATOM
M  V30 BEGIN BOND
M  V30 1 1 2 1
M  V30 2 2 3 2
M  V30 3 1 4 3
M  V30 4 1 5 4
M  V30 5 2 6 4
M  V30 6 2 7 1
M  V30 7 1 8 3
M  V30 8 1 9 7
M  V30 9 2 9 8
M  V30 10 1 10 1
M  V30 11 1 11 2
M  V30 12 1 12 5
M  V30 13 1 13 7
M  V30 14 1 14 8
M  V30 15 1 15 9
M  V30 16 1 16 6
M  V30 17 1 17 6
M  V30 18 1 18 5
M  V30 END BOND
M  V30 END CTAB
M  END
>  <i_epik_Tot_Q>  (1) 
0

>  <i_epik_Tot_abs_Q>  (1) 
0

>  <i_i_glide_confnum>  (1) 
1

>  <i_i_glide_lignum>  (1) 
92

>  <i_i_glide_posenum>  (1) 
249

>  <i_i_glide_rotatable_bonds>  (1) 
1

>  <i_lp_mmshare_version>  (1) 
72125

>  <i_m_source_file_index>  (1) 
88

>  <i_f3d_flags>  (1) 
0

>  <num_sample>  (1) 
100

>  <b_lp_Chiralities_Consistent>  (1) 
1

>  <r_epik_Charging_Adjusted_Penalty>  (1) 
0.00088152279553634463

>  <r_epik_Ionization_Penalty>  (1) 
0.001176351566598113

>  <r_epik_Ionization_Penalty_Charging>  (1) 
0.00088152279553634463

>  <r_epik_Ionization_Penalty_Neutral>  (1) 
0.00029482877106176849

>  <r_epik_State_Penalty>  (1) 
-0

>  <r_glide_ring_energy>  (1) 
0

>  <r_i_docking_score>  (1) 
-5.8118706912344562

>  <r_i_glide_ecoul>  (1) 
-1.7362066239745488

>  <r_i_glide_eff_state_penalty>  (1) 
-0

>  <r_i_glide_einternal>  (1) 
0.0025720678778133887

>  <r_i_glide_emodel>  (1) 
-27.458835213971881

>  <r_i_glide_emodel_strain>  (1) 
0

>  <r_i_glide_energy>  (1) 
-20.031062084004891

>  <r_i_glide_erotb>  (1) 
0

>  <r_i_glide_esite>  (1) 
0

>  <r_i_glide_evdw>  (1) 
-18.294855460030341

>  <r_i_glide_gscore>  (1) 
-5.8118706912344562

>  <r_i_glide_gscore_strain>  (1) 
0

>  <r_i_glide_hbond>  (1) 
0

>  <r_i_glide_ligand_efficiency>  (1) 
-0.64576341013716176

>  <r_i_glide_ligand_efficiency_ln>  (1) 
-1.8177861925722589

>  <r_i_glide_ligand_efficiency_sa>  (1) 
-1.3432420229451425

>  <r_i_glide_lipo>  (1) 
-2.1233274821875465

>  <r_i_glide_metal>  (1) 
-0

>  <r_i_glide_rewards>  (1) 
-2.5133694424492106

>  <r_lp_Energy>  (1) 
13.175675

>  <r_lp_tautomer_probability>  (1) 
1

>  <s_epik_Chemistry_Notes>  (1) 
This compound has an imine and may undergo hydrolysis.

>  <s_epik_cmdline>  (1) 
J2VwaWtfcHl0aG9uJywgJy1waHQnLCAnMS4wJywgJy1waCcsICc3LjQnLCAnLXRuJywgJzgnLCAnLW1hJywgJzUwMCcsICctaW1hZScsICc8aW5maWxlLm1hZT4nLCAnLW9tYWUnLCAnPG91dGZpbGUubWFlPic=

>  <s_epik_input>  (1) 
W2NIXTFbY0hdW2NIXVtjSF1bY0hdYzEvQyg9Ti9bSF0pW0NIM10=

>  <s_glide_docking_method>  (1) 
confgen

>  <s_i_glide_gridfile>  (1) 
gpcr_5ht2c_6bqh_protein_autoprepared_prepared

>  <s_lp_Force_Field>  (1) 
S-OPLS

>  <s_lp_Variant>  (1) 
Pocket2Mol_87-1

>  <s_m_source_file>  (1) 
generated_GPCR_5HT2C_ligand_Pocket2Mol_2026-06-23_prepared.sdf

>  <GenAI_Model>  (1) 
Pocket2Mol

>  <Protein>  (1) 
GPCR_5HT2C

$$$$
Pocket2Mol_52
     RDKit          3D

  0  0  0  0  0  0  0  0  0  0999 V3000
M  V30 BEGIN CTAB
M  V30 COUNTS 16 16 0 0 1
M  V30 BEGIN ATOM
M  V30 1 C 38.844512 29.508549 53.920314 0
M  V30 2 C 39.642958 30.534280 53.377617 0
M  V30 3 C 38.448665 28.420775 53.114650 0
M  V30 4 C 37.590687 27.318722 53.701511 0
M  V30 5 C 40.045140 30.474912 52.029293 0
M  V30 6 C 39.652881 29.389825 51.222605 0
M  V30 7 O 40.045135 29.337763 49.917052 0
M  V30 8 C 38.853350 28.361118 51.764149 0
M  V30 9 H 38.535014 29.556447 54.954811 0
M  V30 10 H 39.945201 31.366948 53.995068 0
M  V30 11 H 37.364488 26.545807 52.967754 0
M  V30 12 H 38.103921 26.848012 54.539860 0
M  V30 13 H 36.649533 27.730808 54.064515 0
M  V30 14 H 40.655684 31.263880 51.613492 0
M  V30 15 H 39.502372 28.768887 49.391688 0
M  V30 16 H 38.550679 27.528247 51.145396 0
M  V30 END ATOM
M  V30 BEGIN BOND
M  V30 1 2 2 1
M  V30 2 1 3 1
M  V30 3 1 4 3
M  V30 4 1 5 2
M  V30 5 2 6 5
M  V30 6 1 7 6
M  V30 7 2 8 3
M  V30 8 1 8 6
M  V30 9 1 9 1
M  V30 10 1 10 2
M  V30 11 1 11 4
M  V30 12 1 12 4
M  V30 13 1 13 4
M  V30 14 1 14 5
M  V30 15 1 15 7
M  V30 16 1 16 8
M  V30 END BOND
M  V30 END CTAB
M  END
>  <i_epik_Tot_Q>  (1) 
0

>  <i_epik_Tot_abs_Q>  (1) 
0

>  <i_i_glide_confnum>  (1) 
1

>  <i_i_glide_lignum>  (1) 
55

>  <i_i_glide_posenum>  (1) 
340

>  <i_i_glide_rotatable_bonds>  (1) 
1

>  <i_lp_mmshare_version>  (1) 
72125

>  <i_m_source_file_index>  (1) 
53

>  <i_f3d_flags>  (1) 
0

>  <num_sample>  (1) 
100

>  <b_lp_Chiralities_Consistent>  (1) 
1

>  <r_epik_Charging_Adjusted_Penalty>  (1) 
0

>  <r_epik_Ionization_Penalty>  (1) 
0.0017015869167085525

>  <r_epik_Ionization_Penalty_Charging>  (1) 
0

>  <r_epik_Ionization_Penalty_Neutral>  (1) 
0.0017015869167085525

>  <r_epik_State_Penalty>  (1) 
-0

>  <r_glide_ring_energy>  (1) 
0

>  <r_i_docking_score>  (1) 
-5.8060506205930622

>  <r_i_glide_ecoul>  (1) 
-1.6172313518098285

>  <r_i_glide_eff_state_penalty>  (1) 
-0

>  <r_i_glide_einternal>  (1) 
0.41434403157235422

>  <r_i_glide_emodel>  (1) 
-26.652760883523868

>  <r_i_glide_emodel_strain>  (1) 
0.031243433765558493

>  <r_i_glide_energy>  (1) 
-19.672906241651845

>  <r_i_glide_erotb>  (1) 
0

>  <r_i_glide_esite>  (1) 
0

>  <r_i_glide_evdw>  (1) 
-18.055674889842017

>  <r_i_glide_gscore>  (1) 
-5.8060506205930622

>  <r_i_glide_gscore_strain>  (1) 
0

>  <r_i_glide_hbond>  (1) 
0

>  <r_i_glide_ligand_efficiency>  (1) 
-0.72575632757413278

>  <r_i_glide_ligand_efficiency_ln>  (1) 
-1.8854232308062782

>  <r_i_glide_ligand_efficiency_sa>  (1) 
-1.4515126551482658

>  <r_i_glide_lipo>  (1) 
-2.0474091754507886

>  <r_i_glide_metal>  (1) 
-0

>  <r_i_glide_rewards>  (1) 
-2.613272997878699

>  <r_lp_Energy>  (1) 
5.2727110000000001

>  <r_lp_tautomer_probability>  (1) 
1

>  <s_epik_cmdline>  (1) 
J2VwaWtfcHl0aG9uJywgJy1waHQnLCAnMS4wJywgJy1waCcsICc3LjQnLCAnLXRuJywgJzgnLCAnLW1hJywgJzUwMCcsICctaW1hZScsICc8aW5maWxlLm1hZT4nLCAnLW9tYWUnLCAnPG91dGZpbGUubWFlPic=

>  <s_epik_input>  (1) 
W0NIM11jMVtjSF1bY0hdW2NIXWMoW09IXSlbY0hdMQ==

>  <s_glide_docking_method>  (1) 
confgen

>  <s_i_glide_gridfile>  (1) 
gpcr_5ht2c_6bqh_protein_autoprepared_prepared

>  <s_lp_Force_Field>  (1) 
S-OPLS

>  <s_lp_Variant>  (1) 
Pocket2Mol_52-1

>  <s_m_source_file>  (1) 
generated_GPCR_5HT2C_ligand_Pocket2Mol_2026-06-23_prepared.sdf

>  <GenAI_Model>  (1) 
Pocket2Mol

>  <Protein>  (1) 
GPCR_5HT2C

$$$$
Pocket2Mol_27
     RDKit          3D

  0  0  0  0  0  0  0  0  0  0999 V3000
M  V30 BEGIN CTAB
M  V30 COUNTS 15 15 0 0 1
M  V30 BEGIN ATOM
M  V30 1 C 39.995867 30.409820 52.433165 0
M  V30 2 C 39.245137 29.861813 53.492471 0
M  V30 3 C 38.544655 28.653034 53.308867 0
M  V30 4 C 40.045141 29.750137 51.188943 0
M  V30 5 C 38.595869 27.990993 52.066746 0
M  V30 6 C 40.845923 30.345775 50.049522 0
M  V30 7 C 39.345522 28.538059 51.006898 0
M  V30 8 H 40.529509 31.337755 52.574161 0
M  V30 9 H 39.205211 30.369671 54.444874 0
M  V30 10 H 37.968307 28.234274 54.120868 0
M  V30 11 H 38.057838 27.064500 51.925713 0
M  V30 12 H 40.789418 29.727288 49.154191 0
M  V30 13 H 40.465821 31.336855 49.799560 0
M  V30 14 H 41.893984 30.445916 50.332789 0
M  V30 15 H 39.380538 28.030624 50.055314 0
M  V30 END ATOM
M  V30 BEGIN BOND
M  V30 1 1 2 1
M  V30 2 2 3 2
M  V30 3 2 4 1
M  V30 4 1 5 3
M  V30 5 1 6 4
M  V30 6 1 7 4
M  V30 7 2 7 5
M  V30 8 1 8 1
M  V30 9 1 9 2
M  V30 10 1 10 3
M  V30 11 1 11 5
M  V30 12 1 12 6
M  V30 13 1 13 6
M  V30 14 1 14 6
M  V30 15 1 15 7
M  V30 END BOND
M  V30 END CTAB
M  END
>  <i_epik_Tot_Q>  (1) 
0

>  <i_epik_Tot_abs_Q>  (1) 
0

>  <i_i_glide_confnum>  (1) 
1

>  <i_i_glide_lignum>  (1) 
30

>  <i_i_glide_posenum>  (1) 
321

>  <i_i_glide_rotatable_bonds>  (1) 
0

>  <i_lp_mmshare_version>  (1) 
72125

>  <i_m_source_file_index>  (1) 
28

>  <i_f3d_flags>  (1) 
0

>  <num_sample>  (1) 
100

>  <b_lp_Chiralities_Consistent>  (1) 
1

>  <r_epik_Charging_Adjusted_Penalty>  (1) 
0

>  <r_epik_Ionization_Penalty>  (1) 
0

>  <r_epik_Ionization_Penalty_Charging>  (1) 
0

>  <r_epik_Ionization_Penalty_Neutral>  (1) 
0

>  <r_epik_State_Penalty>  (1) 
-0

>  <r_glide_ring_energy>  (1) 
0

>  <r_i_docking_score>  (1) 
-5.8038681298954762

>  <r_i_glide_ecoul>  (1) 
-1.0797097365125958

>  <r_i_glide_eff_state_penalty>  (1) 
-0

>  <r_i_glide_einternal>  (1) 
0

>  <r_i_glide_emodel>  (1) 
-24.354690199342144

>  <r_i_glide_emodel_strain>  (1) 
0

>  <r_i_glide_energy>  (1) 
-18.054252330219541

>  <r_i_glide_erotb>  (1) 
0

>  <r_i_glide_esite>  (1) 
0

>  <r_i_glide_evdw>  (1) 
-16.974542593706946

>  <r_i_glide_gscore>  (1) 
-5.8038681298954762

>  <r_i_glide_gscore_strain>  (1) 
0

>  <r_i_glide_hbond>  (1) 
0

>  <r_i_glide_ligand_efficiency>  (1) 
-0.82912401855649664

>  <r_i_glide_ligand_efficiency_ln>  (1) 
-1.9701443140608497

>  <r_i_glide_ligand_efficiency_sa>  (1) 
-1.5860571894822755

>  <r_i_glide_lipo>  (1) 
-2.0854660292183844

>  <r_i_glide_metal>  (1) 
-0

>  <r_i_glide_rewards>  (1) 
-2.7077185105148551

>  <r_lp_Energy>  (1) 
6.403492

>  <r_lp_tautomer_probability>  (1) 
1

>  <s_epik_cmdline>  (1) 
J2VwaWtfcHl0aG9uJywgJy1waHQnLCAnMS4wJywgJy1waCcsICc3LjQnLCAnLXRuJywgJzgnLCAnLW1hJywgJzUwMCcsICctaW1hZScsICc8aW5maWxlLm1hZT4nLCAnLW9tYWUnLCAnPG91dGZpbGUubWFlPic=

>  <s_epik_input>  (1) 
W0NIM11jMVtjSF1bY0hdW2NIXVtjSF1bY0hdMQ==

>  <s_glide_docking_method>  (1) 
confgen

>  <s_i_glide_gridfile>  (1) 
gpcr_5ht2c_6bqh_protein_autoprepared_prepared

>  <s_lp_Force_Field>  (1) 
S-OPLS

>  <s_lp_Variant>  (1) 
Pocket2Mol_27-1

>  <s_m_source_file>  (1) 
generated_GPCR_5HT2C_ligand_Pocket2Mol_2026-06-23_prepared.sdf

>  <GenAI_Model>  (1) 
Pocket2Mol

>  <Protein>  (1) 
GPCR_5HT2C

$$$$
Pocket2Mol_70
     RDKit          3D

  0  0  0  0  0  0  0  0  0  0999 V3000
M  V30 BEGIN CTAB
M  V30 COUNTS 17 18 0 0 1
M  V30 BEGIN ATOM
M  V30 1 C 38.964595 27.837014 51.520250 0
M  V30 2 C 38.598298 27.972770 52.908388 0
M  V30 3 C 38.711519 29.254287 53.653914 0 CFG=2
M  V30 4 C 38.189298 27.028463 53.655911 0
M  V30 5 C 39.645136 30.218533 52.929263 0
M  V30 6 N 38.043924 27.407651 54.922738 0
M  V30 7 N 38.563766 28.786150 55.145750 0
M  V30 8 C 39.645665 28.823382 50.910883 0
M  V30 9 C 40.045122 30.019670 51.649974 0
M  V30 10 H 38.711368 26.937725 50.976813 0
M  V30 11 H 37.752974 29.738463 53.463505 0
M  V30 12 H 38.034860 25.989898 53.409137 0
M  V30 13 H 39.953093 31.105156 53.464371 0
M  V30 14 H 38.064960 26.739730 55.680984 0
M  V30 15 H 39.484530 28.702756 55.572162 0
M  V30 16 H 39.932371 28.714498 49.875230 0
M  V30 17 H 40.679572 30.752149 51.172017 0
M  V30 END ATOM
M  V30 BEGIN BOND
M  V30 1 1 2 1
M  V30 2 1 3 2
M  V30 3 2 4 2
M  V30 4 1 5 3
M  V30 5 1 6 4
M  V30 6 1 7 3
M  V30 7 1 7 6
M  V30 8 2 8 1
M  V30 9 2 9 5
M  V30 10 1 9 8
M  V30 11 1 10 1
M  V30 12 1 3 11 CFG=3
M  V30 13 1 12 4
M  V30 14 1 13 5
M  V30 15 1 14 6
M  V30 16 1 15 7
M  V30 17 1 16 8
M  V30 18 1 17 9
M  V30 END BOND
M  V30 END CTAB
M  END
>  <i_epik_Tot_Q>  (1) 
0

>  <i_epik_Tot_abs_Q>  (1) 
0

>  <i_i_glide_confnum>  (1) 
1

>  <i_i_glide_lignum>  (1) 
75

>  <i_i_glide_posenum>  (1) 
297

>  <i_i_glide_rotatable_bonds>  (1) 
0

>  <i_lp_mmshare_version>  (1) 
72125

>  <i_m_source_file_index>  (1) 
71

>  <i_f3d_flags>  (1) 
0

>  <num_sample>  (1) 
100

>  <b_lp_Chiralities_Consistent>  (1) 
1

>  <r_epik_Charging_Adjusted_Penalty>  (1) 
0

>  <r_epik_Ionization_Penalty>  (1) 
4.3565390981668577e-05

>  <r_epik_Ionization_Penalty_Charging>  (1) 
0

>  <r_epik_Ionization_Penalty_Neutral>  (1) 
4.3565390981668577e-05

>  <r_epik_State_Penalty>  (1) 
-0

>  <r_glide_ring_energy>  (1) 
0

>  <r_i_docking_score>  (1) 
-5.8032235809632962

>  <r_i_glide_ecoul>  (1) 
-0.5797825006613373

>  <r_i_glide_eff_state_penalty>  (1) 
-0

>  <r_i_glide_einternal>  (1) 
0

>  <r_i_glide_emodel>  (1) 
-29.42934084353633

>  <r_i_glide_emodel_strain>  (1) 
0

>  <r_i_glide_energy>  (1) 
-21.043203036633358

>  <r_i_glide_erotb>  (1) 
0

>  <r_i_glide_esite>  (1) 
0

>  <r_i_glide_evdw>  (1) 
-20.46342053597202

>  <r_i_glide_gscore>  (1) 
-5.8032235809632962

>  <r_i_glide_gscore_strain>  (1) 
0

>  <r_i_glide_hbond>  (1) 
0

>  <r_i_glide_ligand_efficiency>  (1) 
-0.64480262010703293

>  <r_i_glide_ligand_efficiency_ln>  (1) 
-1.8150816248880068

>  <r_i_glide_ligand_efficiency_sa>  (1) 
-1.3412434991461217

>  <r_i_glide_lipo>  (1) 
-2.1970409867926852

>  <r_i_glide_metal>  (1) 
-0

>  <r_i_glide_rewards>  (1) 
-2.4960441922728096

>  <r_lp_Energy>  (1) 
4.0618679999999996

>  <r_lp_tautomer_probability>  (1) 
1

>  <s_epik_cmdline>  (1) 
J2VwaWtfcHl0aG9uJywgJy1waHQnLCAnMS4wJywgJy1waCcsICc3LjQnLCAnLXRuJywgJzgnLCAnLW1hJywgJzUwMCcsICctaW1hZScsICc8aW5maWxlLm1hZT4nLCAnLW9tYWUnLCAnPG91dGZpbGUubWFlPic=

>  <s_epik_input>  (1) 
W0NIXTE9W0NIXVtDSF09W0NIXVtDQEBIXShDMT0yKVtOSF1bTkhdW0NIXTI=

>  <s_glide_docking_method>  (1) 
confgen

>  <s_i_glide_gridfile>  (1) 
gpcr_5ht2c_6bqh_protein_autoprepared_prepared

>  <s_lp_Force_Field>  (1) 
S-OPLS

>  <s_lp_Variant>  (1) 
Pocket2Mol_70-1

>  <s_m_source_file>  (1) 
generated_GPCR_5HT2C_ligand_Pocket2Mol_2026-06-23_prepared.sdf

>  <GenAI_Model>  (1) 
Pocket2Mol

>  <Protein>  (1) 
GPCR_5HT2C

$$$$
Pocket2Mol_34
     RDKit          3D

  0  0  0  0  0  0  0  0  0  0999 V3000
M  V30 BEGIN CTAB
M  V30 COUNTS 12 12 0 0 1
M  V30 BEGIN ATOM
M  V30 1 C 40.045137 30.389052 51.796612 0
M  V30 2 C 39.505223 30.099708 53.065673 0
M  V30 3 C 38.844571 28.874634 53.286758 0
M  V30 4 C 38.725430 27.939499 52.239357 0
M  V30 5 C 39.926286 29.454407 50.750236 0
M  V30 6 F 40.444785 29.733821 49.531488 0
M  V30 7 C 39.266434 28.229575 50.971203 0
M  V30 8 H 40.551076 31.328279 51.626396 0
M  V30 9 H 39.596306 30.816857 53.868193 0
M  V30 10 H 38.429952 28.652260 54.259406 0
M  V30 11 H 38.219166 27.000184 52.408604 0
M  V30 12 H 39.175152 27.513569 50.168021 0
M  V30 END ATOM
M  V30 BEGIN BOND
M  V30 1 1 2 1
M  V30 2 2 3 2
M  V30 3 1 4 3
M  V30 4 2 5 1
M  V30 5 1 6 5
M  V30 6 2 7 4
M  V30 7 1 7 5
M  V30 8 1 8 1
M  V30 9 1 9 2
M  V30 10 1 10 3
M  V30 11 1 11 4
M  V30 12 1 12 7
M  V30 END BOND
M  V30 END CTAB
M  END
>  <i_epik_Tot_Q>  (1) 
0

>  <i_epik_Tot_abs_Q>  (1) 
0

>  <i_i_glide_confnum>  (1) 
1

>  <i_i_glide_lignum>  (1) 
37

>  <i_i_glide_posenum>  (1) 
38

>  <i_i_glide_rotatable_bonds>  (1) 
0

>  <i_lp_mmshare_version>  (1) 
72125

>  <i_m_source_file_index>  (1) 
35

>  <i_f3d_flags>  (1) 
0

>  <num_sample>  (1) 
100

>  <b_lp_Chiralities_Consistent>  (1) 
1

>  <r_epik_Charging_Adjusted_Penalty>  (1) 
0

>  <r_epik_Ionization_Penalty>  (1) 
0

>  <r_epik_Ionization_Penalty_Charging>  (1) 
0

>  <r_epik_Ionization_Penalty_Neutral>  (1) 
0

>  <r_epik_State_Penalty>  (1) 
-0

>  <r_glide_ring_energy>  (1) 
0

>  <r_i_docking_score>  (1) 
-5.8014624001635999

>  <r_i_glide_ecoul>  (1) 
-1.0366523059779924

>  <r_i_glide_eff_state_penalty>  (1) 
-0

>  <r_i_glide_einternal>  (1) 
0

>  <r_i_glide_emodel>  (1) 
-21.988628050877665

>  <r_i_glide_emodel_strain>  (1) 
0

>  <r_i_glide_energy>  (1) 
-16.269900589814227

>  <r_i_glide_erotb>  (1) 
0

>  <r_i_glide_esite>  (1) 
0

>  <r_i_glide_evdw>  (1) 
-15.233248283836234

>  <r_i_glide_gscore>  (1) 
-5.8014624001635999

>  <r_i_glide_gscore_strain>  (1) 
0

>  <r_i_glide_hbond>  (1) 
0

>  <r_i_glide_ligand_efficiency>  (1) 
-0.82878034288051428

>  <r_i_glide_ligand_efficiency_ln>  (1) 
-1.9693276802837987

>  <r_i_glide_ligand_efficiency_sa>  (1) 
-1.5853997615649285

>  <r_i_glide_lipo>  (1) 
-1.779510439423704

>  <r_i_glide_metal>  (1) 
-0

>  <r_i_glide_rewards>  (1) 
-3.104791700651385

>  <r_lp_Energy>  (1) 
8.194445

>  <r_lp_tautomer_probability>  (1) 
1

>  <s_epik_cmdline>  (1) 
J2VwaWtfcHl0aG9uJywgJy1waHQnLCAnMS4wJywgJy1waCcsICc3LjQnLCAnLXRuJywgJzgnLCAnLW1hJywgJzUwMCcsICctaW1hZScsICc8aW5maWxlLm1hZT4nLCAnLW9tYWUnLCAnPG91dGZpbGUubWFlPic=

>  <s_epik_input>  (1) 
RmMxW2NIXVtjSF1bY0hdW2NIXVtjSF0x

>  <s_glide_docking_method>  (1) 
confgen

>  <s_i_glide_gridfile>  (1) 
gpcr_5ht2c_6bqh_protein_autoprepared_prepared

>  <s_lp_Force_Field>  (1) 
S-OPLS

>  <s_lp_Variant>  (1) 
Pocket2Mol_34-1

>  <s_m_source_file>  (1) 
generated_GPCR_5HT2C_ligand_Pocket2Mol_2026-06-23_prepared.sdf

>  <GenAI_Model>  (1) 
Pocket2Mol

>  <Protein>  (1) 
GPCR_5HT2C

$$$$
Pocket2Mol_84
     RDKit          3D

  0  0  0  0  0  0  0  0  0  0999 V3000
M  V30 BEGIN CTAB
M  V30 COUNTS 19 19 0 0 1
M  V30 BEGIN ATOM
M  V30 1 C 38.662825 26.618698 54.547816 0
M  V30 2 C 39.241967 27.538971 55.613471 0
M  V30 3 O 39.161291 26.979212 53.269923 0
M  V30 4 C 38.667404 28.146673 52.682588 0 CFG=1
M  V30 5 C 39.244133 28.129201 51.258417 0
M  V30 6 O 38.564325 28.781110 55.604101 0
M  V30 7 C 39.030667 29.690472 54.693830 0
M  V30 8 O 37.262450 28.137756 52.567759 0
M  V30 9 C 39.103820 29.444531 53.367740 0
M  V30 10 H 37.572968 26.592443 54.583643 0
M  V30 11 H 39.001616 25.600845 54.742149 0
M  V30 12 H 39.081678 27.093382 56.595402 0
M  V30 13 H 40.321224 27.657599 55.499595 0
M  V30 14 H 38.945748 27.215038 50.742471 0
M  V30 15 H 38.881859 28.985060 50.686962 0
M  V30 16 H 40.333668 28.165076 51.294942 0
M  V30 17 H 39.335241 30.616420 55.159368 0
M  V30 18 H 37.023732 27.419470 51.994621 0
M  V30 19 H 39.488214 30.217119 52.717563 0
M  V30 END ATOM
M  V30 BEGIN BOND
M  V30 1 1 2 1
M  V30 2 1 3 1
M  V30 3 1 4 3
M  V30 4 1 5 4
M  V30 5 1 6 2
M  V30 6 1 7 6
M  V30 7 1 4 8 CFG=3
M  V30 8 1 9 4
M  V30 9 2 9 7
M  V30 10 1 10 1
M  V30 11 1 11 1
M  V30 12 1 12 2
M  V30 13 1 13 2
M  V30 14 1 14 5
M  V30 15 1 15 5
M  V30 16 1 16 5
M  V30 17 1 17 7
M  V30 18 1 18 8
M  V30 19 1 19 9
M  V30 END BOND
M  V30 END CTAB
M  END
>  <i_epik_Tot_Q>  (1) 
0

>  <i_epik_Tot_abs_Q>  (1) 
0

>  <i_i_glide_confnum>  (1) 
1

>  <i_i_glide_lignum>  (1) 
89

>  <i_i_glide_posenum>  (1) 
50

>  <i_i_glide_rotatable_bonds>  (1) 
1

>  <i_lp_mmshare_version>  (1) 
72125

>  <i_m_source_file_index>  (1) 
85

>  <i_f3d_flags>  (1) 
0

>  <num_sample>  (1) 
100

>  <b_lp_Chiralities_Consistent>  (1) 
1

>  <r_epik_Charging_Adjusted_Penalty>  (1) 
0

>  <r_epik_Ionization_Penalty>  (1) 
7.9405632778621754e-05

>  <r_epik_Ionization_Penalty_Charging>  (1) 
0

>  <r_epik_Ionization_Penalty_Neutral>  (1) 
7.9405632778621754e-05

>  <r_epik_State_Penalty>  (1) 
-0

>  <r_glide_ring_energy>  (1) 
0

>  <r_i_docking_score>  (1) 
-5.7931447223152528

>  <r_i_glide_ecoul>  (1) 
-3.1494597373915658

>  <r_i_glide_eff_state_penalty>  (1) 
-0

>  <r_i_glide_einternal>  (1) 
0.13170016517976579

>  <r_i_glide_emodel>  (1) 
-29.78294667065731

>  <r_i_glide_emodel_strain>  (1) 
0

>  <r_i_glide_energy>  (1) 
-21.808894217086284

>  <r_i_glide_erotb>  (1) 
0

>  <r_i_glide_esite>  (1) 
0

>  <r_i_glide_evdw>  (1) 
-18.659434479694717

>  <r_i_glide_gscore>  (1) 
-5.7931447223152528

>  <r_i_glide_gscore_strain>  (1) 
0

>  <r_i_glide_hbond>  (1) 
-0.32000000000000001

>  <r_i_glide_ligand_efficiency>  (1) 
-0.64368274692391703

>  <r_i_glide_ligand_efficiency_ln>  (1) 
-1.8119292474418029

>  <r_i_glide_ligand_efficiency_sa>  (1) 
-1.3389140690540526

>  <r_i_glide_lipo>  (1) 
-1.1789360356214418

>  <r_i_glide_metal>  (1) 
-0

>  <r_i_glide_rewards>  (1) 
-2.88881800210034

>  <r_lp_Energy>  (1) 
3.4776590000000001

>  <r_lp_tautomer_probability>  (1) 
1

>  <s_epik_cmdline>  (1) 
J2VwaWtfcHl0aG9uJywgJy1waHQnLCAnMS4wJywgJy1waCcsICc3LjQnLCAnLXRuJywgJzgnLCAnLW1hJywgJzUwMCcsICctaW1hZScsICc8aW5maWxlLm1hZT4nLCAnLW9tYWUnLCAnPG91dGZpbGUubWFlPic=

>  <s_epik_input>  (1) 
W0NIM11bQ0BAXTEoW09IXSlPW0NIMl1bQ0gyXU9bQ0hdPVtDSF0x

>  <s_glide_docking_method>  (1) 
confgen

>  <s_i_glide_gridfile>  (1) 
gpcr_5ht2c_6bqh_protein_autoprepared_prepared

>  <s_lp_Force_Field>  (1) 
S-OPLS

>  <s_lp_Variant>  (1) 
Pocket2Mol_84-1

>  <s_m_source_file>  (1) 
generated_GPCR_5HT2C_ligand_Pocket2Mol_2026-06-23_prepared.sdf

>  <GenAI_Model>  (1) 
Pocket2Mol

>  <Protein>  (1) 
GPCR_5HT2C

$$$$
Pocket2Mol_98
     RDKit          3D

  0  0  0  0  0  0  0  0  0  0999 V3000
M  V30 BEGIN CTAB
M  V30 COUNTS 18 19 0 0 1
M  V30 BEGIN ATOM
M  V30 1 C 39.679032 28.342708 50.594724 0
M  V30 2 O 38.627436 27.728469 51.398674 0
M  V30 3 O 40.284252 29.499190 51.248194 0
M  V30 4 C 38.615034 28.578009 52.429282 0
M  V30 5 C 39.525008 29.551188 52.346479 0
M  V30 6 C 39.645139 30.537754 53.339312 0
M  V30 7 C 38.772752 30.492650 54.452933 0
M  V30 8 C 38.866762 31.545938 55.537860 0
M  V30 9 C 37.728108 28.484858 53.514781 0
M  V30 10 C 37.805899 29.455382 54.542246 0
M  V30 11 H 40.445070 27.601446 50.375659 0
M  V30 12 H 39.245137 28.677753 49.653916 0
M  V30 13 H 40.385727 31.319054 53.250613 0
M  V30 14 H 38.135706 31.370596 56.328359 0
M  V30 15 H 39.861516 31.546939 55.983256 0
M  V30 16 H 38.675920 32.534442 55.118843 0
M  V30 17 H 36.997959 27.690220 53.561804 0
M  V30 18 H 37.132767 29.409633 55.385839 0
M  V30 END ATOM
M  V30 BEGIN BOND
M  V30 1 1 2 1
M  V30 2 1 3 1
M  V30 3 1 4 2
M  V30 4 1 5 3
M  V30 5 2 5 4
M  V30 6 1 6 5
M  V30 7 2 7 6
M  V30 8 1 8 7
M  V30 9 1 9 4
M  V30 10 1 10 7
M  V30 11 2 10 9
M  V30 12 1 11 1
M  V30 13 1 12 1
M  V30 14 1 13 6
M  V30 15 1 14 8
M  V30 16 1 15 8
M  V30 17 1 16 8
M  V30 18 1 17 9
M  V30 19 1 18 10
M  V30 END BOND
M  V30 END CTAB
M  END
>  <i_epik_Tot_Q>  (1) 
0

>  <i_epik_Tot_abs_Q>  (1) 
0

>  <i_i_glide_confnum>  (1) 
1

>  <i_i_glide_lignum>  (1) 
103

>  <i_i_glide_posenum>  (1) 
180

>  <i_i_glide_rotatable_bonds>  (1) 
0

>  <i_lp_mmshare_version>  (1) 
72125

>  <i_m_source_file_index>  (1) 
99

>  <i_f3d_flags>  (1) 
0

>  <num_sample>  (1) 
100

>  <b_lp_Chiralities_Consistent>  (1) 
1

>  <r_epik_Charging_Adjusted_Penalty>  (1) 
0

>  <r_epik_Ionization_Penalty>  (1) 
0

>  <r_epik_Ionization_Penalty_Charging>  (1) 
0

>  <r_epik_Ionization_Penalty_Neutral>  (1) 
0

>  <r_epik_State_Penalty>  (1) 
-0

>  <r_glide_ring_energy>  (1) 
0

>  <r_i_docking_score>  (1) 
-5.7927681651784066

>  <r_i_glide_ecoul>  (1) 
-0.3891566144986065

>  <r_i_glide_eff_state_penalty>  (1) 
-0

>  <r_i_glide_einternal>  (1) 
0

>  <r_i_glide_emodel>  (1) 
-28.905351098695071

>  <r_i_glide_emodel_strain>  (1) 
0

>  <r_i_glide_energy>  (1) 
-21.024771768219555

>  <r_i_glide_erotb>  (1) 
0

>  <r_i_glide_esite>  (1) 
0

>  <r_i_glide_evdw>  (1) 
-20.635615153720948

>  <r_i_glide_gscore>  (1) 
-5.7927681651784066

>  <r_i_glide_gscore_strain>  (1) 
0

>  <r_i_glide_hbond>  (1) 
0

>  <r_i_glide_ligand_efficiency>  (1) 
-0.57927681651784069

>  <r_i_glide_ligand_efficiency_ln>  (1) 
-1.7540102683400716

>  <r_i_glide_ligand_efficiency_sa>  (1) 
-1.2480140686372705

>  <r_i_glide_lipo>  (1) 
-1.6263492333728553

>  <r_i_glide_metal>  (1) 
-0

>  <r_i_glide_rewards>  (1) 
-3.0762646819447133

>  <r_lp_Energy>  (1) 
16.823695000000001

>  <r_lp_tautomer_probability>  (1) 
1

>  <s_epik_Chemistry_Notes>  (1) 
This compound contains an acetal/aminal-like group ( X-CH(R)-Y where X, Y are N, S, or O) that may be acid/base labile, releasing an aldehyde.

>  <s_epik_cmdline>  (1) 
J2VwaWtfcHl0aG9uJywgJy1waHQnLCAnMS4wJywgJy1waCcsICc3LjQnLCAnLXRuJywgJzgnLCAnLW1hJywgJzUwMCcsICctaW1hZScsICc8aW5maWxlLm1hZT4nLCAnLW9tYWUnLCAnPG91dGZpbGUubWFlPic=

>  <s_epik_input>  (1) 
TzFbQ0gyXU9jKGMxMilbY0hdYyhbQ0gzXSlbY0hdW2NIXTI=

>  <s_glide_docking_method>  (1) 
confgen

>  <s_i_glide_gridfile>  (1) 
gpcr_5ht2c_6bqh_protein_autoprepared_prepared

>  <s_lp_Force_Field>  (1) 
S-OPLS

>  <s_lp_Variant>  (1) 
Pocket2Mol_98-1

>  <s_m_source_file>  (1) 
generated_GPCR_5HT2C_ligand_Pocket2Mol_2026-06-23_prepared.sdf

>  <GenAI_Model>  (1) 
Pocket2Mol

>  <Protein>  (1) 
GPCR_5HT2C

$$$$
Pocket2Mol_92
     RDKit          3D

  0  0  0  0  0  0  0  0  0  0999 V3000
M  V30 BEGIN CTAB
M  V30 COUNTS 18 19 0 0 1
M  V30 BEGIN ATOM
M  V30 1 C 37.522430 29.764686 54.943534 0
M  V30 2 C 38.131380 29.281305 53.767759 0
M  V30 3 C 39.331667 29.864339 53.308061 0
M  V30 4 C 37.548399 28.219861 53.047040 0
M  V30 5 C 38.161402 27.750272 51.867978 0
M  V30 6 C 39.928648 30.906991 54.037667 0
M  V30 7 C 39.931853 29.400312 52.118944 0
M  V30 8 C 38.116637 30.814695 55.665514 0
M  V30 9 C 39.346309 28.343905 51.401121 0
M  V30 10 C 39.322252 31.382694 55.216846 0
M  V30 11 H 36.601665 29.337623 55.290507 0
M  V30 12 H 36.632960 27.764420 53.396238 0
M  V30 13 H 37.717742 26.937843 51.317681 0
M  V30 14 H 40.852508 31.338058 53.693884 0
M  V30 15 H 40.845293 29.851525 51.762386 0
M  V30 16 H 37.645284 31.184057 56.566016 0
M  V30 17 H 39.808749 27.985319 50.493000 0
M  V30 18 H 39.781702 32.185462 55.775645 0
M  V30 END ATOM
M  V30 BEGIN BOND
M  V30 1 1 2 1
M  V30 2 1 3 2
M  V30 3 2 4 2
M  V30 4 1 5 4
M  V30 5 1 6 3
M  V30 6 2 7 3
M  V30 7 2 8 1
M  V30 8 2 9 5
M  V30 9 1 9 7
M  V30 10 2 10 6
M  V30 11 1 10 8
M  V30 12 1 11 1
M  V30 13 1 12 4
M  V30 14 1 13 5
M  V30 15 1 14 6
M  V30 16 1 15 7
M  V30 17 1 16 8
M  V30 18 1 17 9
M  V30 19 1 18 10
M  V30 END BOND
M  V30 END CTAB
M  END
>  <i_epik_Tot_Q>  (1) 
0

>  <i_epik_Tot_abs_Q>  (1) 
0

>  <i_i_glide_confnum>  (1) 
1

>  <i_i_glide_lignum>  (1) 
97

>  <i_i_glide_posenum>  (1) 
299

>  <i_i_glide_rotatable_bonds>  (1) 
0

>  <i_lp_mmshare_version>  (1) 
72125

>  <i_m_source_file_index>  (1) 
93

>  <i_f3d_flags>  (1) 
0

>  <num_sample>  (1) 
100

>  <b_lp_Chiralities_Consistent>  (1) 
1

>  <r_epik_Charging_Adjusted_Penalty>  (1) 
0

>  <r_epik_Ionization_Penalty>  (1) 
0

>  <r_epik_Ionization_Penalty_Charging>  (1) 
0

>  <r_epik_Ionization_Penalty_Neutral>  (1) 
0

>  <r_epik_State_Penalty>  (1) 
-0

>  <r_glide_ring_energy>  (1) 
0

>  <r_i_docking_score>  (1) 
-5.7917333240032738

>  <r_i_glide_ecoul>  (1) 
-1.2627359538462928

>  <r_i_glide_eff_state_penalty>  (1) 
-0

>  <r_i_glide_einternal>  (1) 
0

>  <r_i_glide_emodel>  (1) 
-24.64711507164656

>  <r_i_glide_emodel_strain>  (1) 
0

>  <r_i_glide_energy>  (1) 
-16.894545037298538

>  <r_i_glide_erotb>  (1) 
0

>  <r_i_glide_esite>  (1) 
0

>  <r_i_glide_evdw>  (1) 
-15.631809083452247

>  <r_i_glide_gscore>  (1) 
-5.7917333240032738

>  <r_i_glide_gscore_strain>  (1) 
0

>  <r_i_glide_hbond>  (1) 
0

>  <r_i_glide_ligand_efficiency>  (1) 
-0.57917333240032742

>  <r_i_glide_ligand_efficiency_ln>  (1) 
-1.7536969255658525

>  <r_i_glide_ligand_efficiency_sa>  (1) 
-1.2477911188646327

>  <r_i_glide_lipo>  (1) 
-2.1366965913076341

>  <r_i_glide_metal>  (1) 
-0

>  <r_i_glide_rewards>  (1) 
-2.6840358854460833

>  <r_lp_Energy>  (1) 
18.967330999999998

>  <r_lp_tautomer_probability>  (1) 
1

>  <s_epik_cmdline>  (1) 
J2VwaWtfcHl0aG9uJywgJy1waHQnLCAnMS4wJywgJy1waCcsICc3LjQnLCAnLXRuJywgJzgnLCAnLW1hJywgJzUwMCcsICctaW1hZScsICc8aW5maWxlLm1hZT4nLCAnLW9tYWUnLCAnPG91dGZpbGUubWFlPic=

>  <s_epik_input>  (1) 
W2NIXTFbY0hdW2NIXVtjSF1jKGMxMilbY0hdW2NIXVtjSF1bY0hdMg==

>  <s_glide_docking_method>  (1) 
confgen

>  <s_i_glide_gridfile>  (1) 
gpcr_5ht2c_6bqh_protein_autoprepared_prepared

>  <s_lp_Force_Field>  (1) 
S-OPLS

>  <s_lp_Variant>  (1) 
Pocket2Mol_92-1

>  <s_m_source_file>  (1) 
generated_GPCR_5HT2C_ligand_Pocket2Mol_2026-06-23_prepared.sdf

>  <GenAI_Model>  (1) 
Pocket2Mol

>  <Protein>  (1) 
GPCR_5HT2C

$$$$
Pocket2Mol_34
     RDKit          3D

  0  0  0  0  0  0  0  0  0  0999 V3000
M  V30 BEGIN CTAB
M  V30 COUNTS 12 12 0 0 1
M  V30 BEGIN ATOM
M  V30 1 C 38.679508 27.933085 52.258185 0
M  V30 2 C 39.245134 27.919129 50.967780 0
M  V30 3 C 40.010961 29.014802 50.522576 0
M  V30 4 C 40.210966 30.124176 51.367759 0
M  V30 5 C 38.879439 29.042227 53.103292 0
M  V30 6 F 38.335839 29.055413 54.343213 0
M  V30 7 C 39.645123 30.137662 52.658122 0
M  V30 8 H 38.092287 27.093825 52.600613 0
M  V30 9 H 39.091502 27.068413 50.320196 0
M  V30 10 H 40.444703 29.004282 49.533218 0
M  V30 11 H 40.797977 30.964385 51.026952 0
M  V30 12 H 39.797742 30.987460 53.306948 0
M  V30 END ATOM
M  V30 BEGIN BOND
M  V30 1 1 2 1
M  V30 2 2 3 2
M  V30 3 1 4 3
M  V30 4 2 5 1
M  V30 5 1 6 5
M  V30 6 2 7 4
M  V30 7 1 7 5
M  V30 8 1 8 1
M  V30 9 1 9 2
M  V30 10 1 10 3
M  V30 11 1 11 4
M  V30 12 1 12 7
M  V30 END BOND
M  V30 END CTAB
M  END
>  <i_epik_Tot_Q>  (1) 
0

>  <i_epik_Tot_abs_Q>  (1) 
0

>  <i_i_glide_confnum>  (1) 
1

>  <i_i_glide_lignum>  (1) 
37

>  <i_i_glide_posenum>  (1) 
1

>  <i_i_glide_rotatable_bonds>  (1) 
0

>  <i_lp_mmshare_version>  (1) 
72125

>  <i_m_source_file_index>  (1) 
35

>  <i_f3d_flags>  (1) 
0

>  <num_sample>  (1) 
100

>  <b_lp_Chiralities_Consistent>  (1) 
1

>  <r_epik_Charging_Adjusted_Penalty>  (1) 
0

>  <r_epik_Ionization_Penalty>  (1) 
0

>  <r_epik_Ionization_Penalty_Charging>  (1) 
0

>  <r_epik_Ionization_Penalty_Neutral>  (1) 
0

>  <r_epik_State_Penalty>  (1) 
-0

>  <r_glide_ring_energy>  (1) 
0

>  <r_i_docking_score>  (1) 
-5.790226426710559

>  <r_i_glide_ecoul>  (1) 
-0.65622981856119789

>  <r_i_glide_eff_state_penalty>  (1) 
-0

>  <r_i_glide_einternal>  (1) 
0

>  <r_i_glide_emodel>  (1) 
-21.706372453723297

>  <r_i_glide_emodel_strain>  (1) 
0

>  <r_i_glide_energy>  (1) 
-15.998720729345816

>  <r_i_glide_erotb>  (1) 
0

>  <r_i_glide_esite>  (1) 
0

>  <r_i_glide_evdw>  (1) 
-15.342490910784619

>  <r_i_glide_gscore>  (1) 
-5.790226426710559

>  <r_i_glide_gscore_strain>  (1) 
0

>  <r_i_glide_hbond>  (1) 
0

>  <r_i_glide_ligand_efficiency>  (1) 
-0.82717520381579412

>  <r_i_glide_ligand_efficiency_ln>  (1) 
-1.9655135879033354

>  <r_i_glide_ligand_efficiency_sa>  (1) 
-1.5823292409953391

>  <r_i_glide_lipo>  (1) 
-1.9297819407007255

>  <r_i_glide_metal>  (1) 
-0

>  <r_i_glide_rewards>  (1) 
-2.9948854676864234

>  <r_lp_Energy>  (1) 
8.194445

>  <r_lp_tautomer_probability>  (1) 
1

>  <s_epik_cmdline>  (1) 
J2VwaWtfcHl0aG9uJywgJy1waHQnLCAnMS4wJywgJy1waCcsICc3LjQnLCAnLXRuJywgJzgnLCAnLW1hJywgJzUwMCcsICctaW1hZScsICc8aW5maWxlLm1hZT4nLCAnLW9tYWUnLCAnPG91dGZpbGUubWFlPic=

>  <s_epik_input>  (1) 
RmMxW2NIXVtjSF1bY0hdW2NIXVtjSF0x

>  <s_glide_docking_method>  (1) 
confgen

>  <s_i_glide_gridfile>  (1) 
gpcr_5ht2c_6bqh_protein_autoprepared_prepared

>  <s_lp_Force_Field>  (1) 
S-OPLS

>  <s_lp_Variant>  (1) 
Pocket2Mol_34-1

>  <s_m_source_file>  (1) 
generated_GPCR_5HT2C_ligand_Pocket2Mol_2026-06-23_prepared.sdf

>  <GenAI_Model>  (1) 
Pocket2Mol

>  <Protein>  (1) 
GPCR_5HT2C

$$$$
Pocket2Mol_56
     RDKit          3D

  0  0  0  0  0  0  0  0  0  0999 V3000
M  V30 BEGIN CTAB
M  V30 COUNTS 17 17 0 0 1
M  V30 BEGIN ATOM
M  V30 1 C 38.545744 28.138259 52.167483 0
M  V30 2 C 39.321883 28.574281 51.083109 0
M  V30 3 C 40.045837 29.778703 51.210008 0
M  V30 4 C 40.883105 30.297403 50.060995 0
M  V30 5 C 38.522404 28.923341 53.332376 0
M  V30 6 C 37.692227 28.506943 54.528431 0
M  V30 7 C 39.284313 30.109368 53.367760 0
M  V30 8 N 40.045119 30.537755 52.331656 0
M  V30 9 H 37.974915 27.223251 52.104349 0
M  V30 10 H 39.357881 28.001763 50.167799 0
M  V30 11 H 40.816235 29.645776 49.190331 0
M  V30 12 H 40.540470 31.290241 49.767796 0
M  V30 13 H 41.929033 30.374756 50.358518 0
M  V30 14 H 37.142068 27.586427 54.330317 0
M  V30 15 H 38.331581 28.343554 55.396276 0
M  V30 16 H 36.973517 29.289976 54.774902 0
M  V30 17 H 39.284393 30.732221 54.250489 0
M  V30 END ATOM
M  V30 BEGIN BOND
M  V30 1 2 2 1
M  V30 2 1 3 2
M  V30 3 1 4 3
M  V30 4 1 5 1
M  V30 5 1 6 5
M  V30 6 2 7 5
M  V30 7 2 8 3
M  V30 8 1 8 7
M  V30 9 1 9 1
M  V30 10 1 10 2
M  V30 11 1 11 4
M  V30 12 1 12 4
M  V30 13 1 13 4
M  V30 14 1 14 6
M  V30 15 1 15 6
M  V30 16 1 16 6
M  V30 17 1 17 7
M  V30 END BOND
M  V30 END CTAB
M  END
>  <i_epik_Tot_Q>  (1) 
0

>  <i_epik_Tot_abs_Q>  (1) 
0

>  <i_i_glide_confnum>  (1) 
1

>  <i_i_glide_lignum>  (1) 
60

>  <i_i_glide_posenum>  (1) 
348

>  <i_i_glide_rotatable_bonds>  (1) 
0

>  <i_lp_mmshare_version>  (1) 
72125

>  <i_m_source_file_index>  (1) 
57

>  <i_f3d_flags>  (1) 
0

>  <num_sample>  (1) 
100

>  <b_lp_Chiralities_Consistent>  (1) 
1

>  <r_epik_Charging_Adjusted_Penalty>  (1) 
0.022258434784609007

>  <r_epik_Ionization_Penalty>  (1) 
0.022258434785048374

>  <r_epik_Ionization_Penalty_Charging>  (1) 
0

>  <r_epik_Ionization_Penalty_Neutral>  (1) 
0.022258434785048374

>  <r_epik_State_Penalty>  (1) 
0.022258434784609007

>  <r_glide_ring_energy>  (1) 
0

>  <r_i_docking_score>  (1) 
-5.7866341154971055

>  <r_i_glide_ecoul>  (1) 
-0.50847818586671523

>  <r_i_glide_eff_state_penalty>  (1) 
0.022258434784609007

>  <r_i_glide_einternal>  (1) 
0

>  <r_i_glide_emodel>  (1) 
-26.95162206432714

>  <r_i_glide_emodel_strain>  (1) 
0

>  <r_i_glide_energy>  (1) 
-19.96087595649086

>  <r_i_glide_erotb>  (1) 
0

>  <r_i_glide_esite>  (1) 
0

>  <r_i_glide_evdw>  (1) 
-19.452397770624145

>  <r_i_glide_gscore>  (1) 
-5.8088925502817146

>  <r_i_glide_gscore_strain>  (1) 
0

>  <r_i_glide_hbond>  (1) 
0

>  <r_i_glide_ligand_efficiency>  (1) 
-0.72332926443713819

>  <r_i_glide_ligand_efficiency_ln>  (1) 
-1.8791180274656216

>  <r_i_glide_ligand_efficiency_sa>  (1) 
-1.4466585288742766

>  <r_i_glide_lipo>  (1) 
-2.1424626769658461

>  <r_i_glide_metal>  (1) 
-0

>  <r_i_glide_rewards>  (1) 
-2.6175382569046546

>  <r_lp_Energy>  (1) 
7.9607329999999994

>  <s_epik_cmdline>  (1) 
J2VwaWtfcHl0aG9uJywgJy1waHQnLCAnMS4wJywgJy1waCcsICc3LjQnLCAnLXRuJywgJzgnLCAnLW1hJywgJzUwMCcsICctaW1hZScsICc8aW5maWxlLm1hZT4nLCAnLW9tYWUnLCAnPG91dGZpbGUubWFlPic=

>  <s_epik_input>  (1) 
bjFbY0hdYyhbQ0gzXSlbY0hdW2NIXWMxW0NIM10=

>  <s_glide_docking_method>  (1) 
confgen

>  <s_i_glide_gridfile>  (1) 
gpcr_5ht2c_6bqh_protein_autoprepared_prepared

>  <s_lp_Force_Field>  (1) 
S-OPLS

>  <s_lp_Variant>  (1) 
Pocket2Mol_56-1

>  <s_m_source_file>  (1) 
generated_GPCR_5HT2C_ligand_Pocket2Mol_2026-06-23_prepared.sdf

>  <GenAI_Model>  (1) 
Pocket2Mol

>  <Protein>  (1) 
GPCR_5HT2C

$$$$
Pocket2Mol_82
     RDKit          3D

  0  0  0  0  0  0  0  0  0  0999 V3000
M  V30 BEGIN CTAB
M  V30 COUNTS 16 16 0 0 1
M  V30 BEGIN ATOM
M  V30 1 C 39.595558 28.587564 51.220594 0
M  V30 2 C 39.245136 29.115927 52.592017 0
M  V30 3 C 38.517050 28.316596 53.511349 0
M  V30 4 C 39.645137 30.419651 52.967760 0
M  V30 5 C 39.317857 30.919927 54.243421 0
M  V30 6 C 38.197034 28.823619 54.785677 0
M  V30 7 C 38.594777 30.123453 55.150107 0
M  V30 8 O 40.204413 29.279426 50.408608 0
M  V30 9 N 39.200316 27.337755 50.967761 0
M  V30 10 H 38.204044 27.319417 53.243349 0
M  V30 11 H 40.200567 31.037060 52.275032 0
M  V30 12 H 39.622318 31.916496 54.526299 0
M  V30 13 H 37.645137 28.214562 55.484678 0
M  V30 14 H 38.344518 30.510308 56.127789 0
M  V30 15 H 38.695757 26.818320 51.668126 0
M  V30 16 H 39.401159 26.916105 50.071527 0
M  V30 END ATOM
M  V30 BEGIN BOND
M  V30 1 1 2 1
M  V30 2 1 3 2
M  V30 3 2 4 2
M  V30 4 1 5 4
M  V30 5 2 6 3
M  V30 6 2 7 5
M  V30 7 1 7 6
M  V30 8 2 8 1
M  V30 9 1 9 1
M  V30 10 1 10 3
M  V30 11 1 11 4
M  V30 12 1 12 5
M  V30 13 1 13 6
M  V30 14 1 14 7
M  V30 15 1 15 9
M  V30 16 1 16 9
M  V30 END BOND
M  V30 END CTAB
M  END
>  <i_epik_Tot_Q>  (1) 
0

>  <i_epik_Tot_abs_Q>  (1) 
0

>  <i_i_glide_confnum>  (1) 
1

>  <i_i_glide_lignum>  (1) 
87

>  <i_i_glide_posenum>  (1) 
141

>  <i_i_glide_rotatable_bonds>  (1) 
1

>  <i_lp_mmshare_version>  (1) 
72125

>  <i_m_source_file_index>  (1) 
83

>  <i_f3d_flags>  (1) 
0

>  <num_sample>  (1) 
100

>  <b_lp_Chiralities_Consistent>  (1) 
1

>  <r_epik_Charging_Adjusted_Penalty>  (1) 
0

>  <r_epik_Ionization_Penalty>  (1) 
4.7216645763340487e-07

>  <r_epik_Ionization_Penalty_Charging>  (1) 
0

>  <r_epik_Ionization_Penalty_Neutral>  (1) 
4.7216645763340487e-07

>  <r_epik_State_Penalty>  (1) 
-0

>  <r_glide_ring_energy>  (1) 
0

>  <r_i_docking_score>  (1) 
-5.7866144887454345

>  <r_i_glide_ecoul>  (1) 
-1.786203651967031

>  <r_i_glide_eff_state_penalty>  (1) 
-0

>  <r_i_glide_einternal>  (1) 
0.016173799740649031

>  <r_i_glide_emodel>  (1) 
-30.768749052215416

>  <r_i_glide_emodel_strain>  (1) 
0

>  <r_i_glide_energy>  (1) 
-22.498415228105085

>  <r_i_glide_erotb>  (1) 
0

>  <r_i_glide_esite>  (1) 
0

>  <r_i_glide_evdw>  (1) 
-20.712211576138053

>  <r_i_glide_gscore>  (1) 
-5.7866144887454345

>  <r_i_glide_gscore_strain>  (1) 
0

>  <r_i_glide_hbond>  (1) 
-0.069679030268938971

>  <r_i_glide_ligand_efficiency>  (1) 
-0.64295716541615944

>  <r_i_glide_ligand_efficiency_ln>  (1) 
-1.8098867779774719

>  <r_i_glide_ligand_efficiency_sa>  (1) 
-1.3374047986974607

>  <r_i_glide_lipo>  (1) 
-1.4333704412754353

>  <r_i_glide_metal>  (1) 
-0

>  <r_i_glide_rewards>  (1) 
-2.9800238905991017

>  <r_lp_Energy>  (1) 
9.4363049999999991

>  <r_lp_tautomer_probability>  (1) 
1

>  <s_epik_cmdline>  (1) 
J2VwaWtfcHl0aG9uJywgJy1waHQnLCAnMS4wJywgJy1waCcsICc3LjQnLCAnLXRuJywgJzgnLCAnLW1hJywgJzUwMCcsICctaW1hZScsICc8aW5maWxlLm1hZT4nLCAnLW9tYWUnLCAnPG91dGZpbGUubWFlPic=

>  <s_epik_input>  (1) 
Tz1DKFtOSDJdKWMxW2NIXVtjSF1bY0hdW2NIXVtjSF0x

>  <s_glide_docking_method>  (1) 
confgen

>  <s_i_glide_gridfile>  (1) 
gpcr_5ht2c_6bqh_protein_autoprepared_prepared

>  <s_lp_Force_Field>  (1) 
S-OPLS

>  <s_lp_Variant>  (1) 
Pocket2Mol_82-1

>  <s_m_source_file>  (1) 
generated_GPCR_5HT2C_ligand_Pocket2Mol_2026-06-23_prepared.sdf

>  <GenAI_Model>  (1) 
Pocket2Mol

>  <Protein>  (1) 
GPCR_5HT2C

$$$$
Pocket2Mol_81
     RDKit          3D

  0  0  0  0  0  0  0  0  0  0999 V3000
M  V30 BEGIN CTAB
M  V30 COUNTS 15 16 0 0 1
M  V30 BEGIN ATOM
M  V30 1 C 39.288799 30.221149 53.694395 0
M  V30 2 C 39.645137 29.866431 52.366798 0
M  V30 3 C 39.121220 28.661884 51.854343 0
M  V30 4 C 40.437315 30.421467 51.328120 0
M  V30 5 C 38.277305 27.827835 52.598059 0
M  V30 6 N 40.435340 29.672106 50.251866 0
M  V30 7 N 39.642351 28.597277 50.567760 0
M  V30 8 C 38.437271 29.387317 54.458575 0
M  V30 9 C 37.931749 28.190976 53.908770 0
M  V30 10 H 39.668987 31.136262 54.124137 0
M  V30 11 H 41.002520 31.337754 51.332859 0
M  V30 12 H 37.893884 26.916448 52.166923 0
M  V30 13 H 39.476293 27.866441 49.890986 0
M  V30 14 H 38.172264 29.669845 55.467487 0
M  V30 15 H 37.280911 27.557289 54.493857 0
M  V30 END ATOM
M  V30 BEGIN BOND
M  V30 1 1 2 1
M  V30 2 2 3 2
M  V30 3 1 4 2
M  V30 4 1 5 3
M  V30 5 2 6 4
M  V30 6 1 7 3
M  V30 7 1 7 6
M  V30 8 2 8 1
M  V30 9 2 9 5
M  V30 10 1 9 8
M  V30 11 1 10 1
M  V30 12 1 11 4
M  V30 13 1 12 5
M  V30 14 1 13 7
M  V30 15 1 14 8
M  V30 16 1 15 9
M  V30 END BOND
M  V30 END CTAB
M  END
>  <i_epik_Tot_Q>  (1) 
0

>  <i_epik_Tot_abs_Q>  (1) 
0

>  <i_i_glide_confnum>  (1) 
1

>  <i_i_glide_lignum>  (1) 
86

>  <i_i_glide_posenum>  (1) 
220

>  <i_i_glide_rotatable_bonds>  (1) 
0

>  <i_lp_mmshare_version>  (1) 
72125

>  <i_m_source_file_index>  (1) 
82

>  <i_f3d_flags>  (1) 
0

>  <num_sample>  (1) 
100

>  <b_lp_Chiralities_Consistent>  (1) 
1

>  <r_epik_Charging_Adjusted_Penalty>  (1) 
0

>  <r_epik_Ionization_Penalty>  (1) 
2.5998422111611493e-06

>  <r_epik_Ionization_Penalty_Charging>  (1) 
0

>  <r_epik_Ionization_Penalty_Neutral>  (1) 
2.5998422111611493e-06

>  <r_epik_State_Penalty>  (1) 
-0

>  <r_glide_ring_energy>  (1) 
0

>  <r_i_docking_score>  (1) 
-5.7863222932316338

>  <r_i_glide_ecoul>  (1) 
-1.5359206955040656

>  <r_i_glide_eff_state_penalty>  (1) 
-0

>  <r_i_glide_einternal>  (1) 
0

>  <r_i_glide_emodel>  (1) 
-30.327462774934808

>  <r_i_glide_emodel_strain>  (1) 
0

>  <r_i_glide_energy>  (1) 
-22.19508793787249

>  <r_i_glide_erotb>  (1) 
0

>  <r_i_glide_esite>  (1) 
0

>  <r_i_glide_evdw>  (1) 
-20.659167242368426

>  <r_i_glide_gscore>  (1) 
-5.7863222932316338

>  <r_i_glide_gscore_strain>  (1) 
0

>  <r_i_glide_hbond>  (1) 
0

>  <r_i_glide_ligand_efficiency>  (1) 
-0.64292469924795936

>  <r_i_glide_ligand_efficiency_ln>  (1) 
-1.8097953876147579

>  <r_i_glide_ligand_efficiency_sa>  (1) 
-1.3373372663461911

>  <r_i_glide_lipo>  (1) 
-2.0646424934542695

>  <r_i_glide_metal>  (1) 
-0

>  <r_i_glide_rewards>  (1) 
-2.4583333333333335

>  <r_lp_Energy>  (1) 
10.425352

>  <r_lp_tautomer_probability>  (1) 
1

>  <s_epik_cmdline>  (1) 
J2VwaWtfcHl0aG9uJywgJy1waHQnLCAnMS4wJywgJy1waCcsICc3LjQnLCAnLXRuJywgJzgnLCAnLW1hJywgJzUwMCcsICctaW1hZScsICc8aW5maWxlLm1hZT4nLCAnLW9tYWUnLCAnPG91dGZpbGUubWFlPic=

>  <s_epik_input>  (1) 
W2NIXTFbY0hdW2NIXVtjSF1jKGMxMiluW25IXVtjSF0y

>  <s_glide_docking_method>  (1) 
confgen

>  <s_i_glide_gridfile>  (1) 
gpcr_5ht2c_6bqh_protein_autoprepared_prepared

>  <s_lp_Force_Field>  (1) 
S-OPLS

>  <s_lp_Variant>  (1) 
Pocket2Mol_81-1

>  <s_m_source_file>  (1) 
generated_GPCR_5HT2C_ligand_Pocket2Mol_2026-06-23_prepared.sdf

>  <GenAI_Model>  (1) 
Pocket2Mol

>  <Protein>  (1) 
GPCR_5HT2C

$$$$
Pocket2Mol_0
     RDKit          3D

  0  0  0  0  0  0  0  0  0  0999 V3000
M  V30 BEGIN CTAB
M  V30 COUNTS 19 19 0 0 1
M  V30 BEGIN ATOM
M  V30 1 C 38.387072 28.813479 54.669818 0
M  V30 2 C 38.912525 28.939977 53.260190 0
M  V30 3 C 39.599652 30.127173 52.905869 0
M  V30 4 C 38.727492 27.937018 52.264615 0
M  V30 5 C 39.245199 28.119743 50.967776 0
M  V30 6 C 39.937668 29.296143 50.640592 0
M  V30 7 C 40.108420 30.300356 51.604644 0
M  V30 8 C 38.052967 27.679746 55.362349 0
M  V30 9 C 38.222275 26.288756 54.883909 0
M  V30 10 N 37.758217 25.297592 55.511401 0
M  V30 11 H 38.256937 29.754302 55.186125 0
M  V30 12 H 39.739731 30.906338 53.641356 0
M  V30 13 H 38.166572 27.051234 52.468585 0
M  V30 14 H 39.098528 27.355932 50.217785 0
M  V30 15 H 40.328578 29.432939 49.642901 0
M  V30 16 H 40.634114 31.209217 51.348592 0
M  V30 17 H 37.645136 27.764505 56.359012 0
M  V30 18 H 38.791764 26.158038 53.975889 0
M  V30 19 H 37.967675 24.417390 55.062572 0
M  V30 END ATOM
M  V30 BEGIN BOND
M  V30 1 1 2 1
M  V30 2 1 3 2
M  V30 3 2 4 2
M  V30 4 1 5 4
M  V30 5 2 6 5
M  V30 6 2 7 3
M  V30 7 1 7 6
M  V30 8 2 8 1
M  V30 9 1 9 8
M  V30 10 2 10 9
M  V30 11 1 11 1
M  V30 12 1 12 3
M  V30 13 1 13 4
M  V30 14 1 14 5
M  V30 15 1 15 6
M  V30 16 1 16 7
M  V30 17 1 17 8
M  V30 18 1 18 9
M  V30 19 1 19 10
M  V30 END BOND
M  V30 END CTAB
M  END
>  <i_epik_Tot_Q>  (1) 
0

>  <i_epik_Tot_abs_Q>  (1) 
0

>  <i_i_glide_confnum>  (1) 
1

>  <i_i_glide_lignum>  (1) 
2

>  <i_i_glide_posenum>  (1) 
63

>  <i_i_glide_rotatable_bonds>  (1) 
2

>  <i_lp_mmshare_version>  (1) 
72125

>  <i_m_source_file_index>  (1) 
1

>  <i_f3d_flags>  (1) 
0

>  <num_sample>  (1) 
100

>  <b_lp_Chiralities_Consistent>  (1) 
1

>  <r_epik_Charging_Adjusted_Penalty>  (1) 
0

>  <r_epik_Ionization_Penalty>  (1) 
0

>  <r_epik_Ionization_Penalty_Charging>  (1) 
0

>  <r_epik_Ionization_Penalty_Neutral>  (1) 
0

>  <r_epik_State_Penalty>  (1) 
-0

>  <r_glide_ring_energy>  (1) 
0

>  <r_i_docking_score>  (1) 
-5.7855121524730766

>  <r_i_glide_ecoul>  (1) 
-1.1252329277045277

>  <r_i_glide_eff_state_penalty>  (1) 
-0

>  <r_i_glide_einternal>  (1) 
0.17154373710225457

>  <r_i_glide_emodel>  (1) 
-30.846000344824297

>  <r_i_glide_emodel_strain>  (1) 
0

>  <r_i_glide_energy>  (1) 
-22.574077296534128

>  <r_i_glide_erotb>  (1) 
0.80789427267668723

>  <r_i_glide_esite>  (1) 
0

>  <r_i_glide_evdw>  (1) 
-21.448844368829601

>  <r_i_glide_gscore>  (1) 
-5.7855121524730766

>  <r_i_glide_gscore_strain>  (1) 
0

>  <r_i_glide_hbond>  (1) 
0

>  <r_i_glide_ligand_efficiency>  (1) 
-0.57855121524730768

>  <r_i_glide_ligand_efficiency_ln>  (1) 
-1.7518131977117559

>  <r_i_glide_ligand_efficiency_sa>  (1) 
-1.246450808088903

>  <r_i_glide_lipo>  (1) 
-2.1889310454878044

>  <r_i_glide_metal>  (1) 
-0

>  <r_i_glide_rewards>  (1) 
-3.1632482220648015

>  <r_lp_Energy>  (1) 
13.405619999999999

>  <r_lp_tautomer_probability>  (1) 
1

>  <s_epik_Chemistry_Notes>  (1) 
This compound has an imine and may undergo hydrolysis.

>  <s_epik_cmdline>  (1) 
J2VwaWtfcHl0aG9uJywgJy1waHQnLCAnMS4wJywgJy1waCcsICc3LjQnLCAnLXRuJywgJzgnLCAnLW1hJywgJzUwMCcsICctaW1hZScsICc8aW5maWxlLm1hZT4nLCAnLW9tYWUnLCAnPG91dGZpbGUubWFlPic=

>  <s_epik_input>  (1) 
W0hdL049W0NIXS9bQ0hdPVtDSF1cYzFbY0hdW2NIXVtjSF1bY0hdW2NIXTE=

>  <s_glide_docking_method>  (1) 
confgen

>  <s_i_glide_gridfile>  (1) 
gpcr_5ht2c_6bqh_protein_autoprepared_prepared

>  <s_lp_Force_Field>  (1) 
S-OPLS

>  <s_lp_Variant>  (1) 
Pocket2Mol_0-2

>  <s_m_source_file>  (1) 
generated_GPCR_5HT2C_ligand_Pocket2Mol_2026-06-23_prepared.sdf

>  <GenAI_Model>  (1) 
Pocket2Mol

>  <Protein>  (1) 
GPCR_5HT2C

$$$$
Pocket2Mol_49
     RDKit          3D

  0  0  0  0  0  0  0  0  0  0999 V3000
M  V30 BEGIN CTAB
M  V30 COUNTS 16 16 0 0 1
M  V30 BEGIN ATOM
M  V30 1 C 38.428776 27.429842 52.668542 0
M  V30 2 C 38.565899 28.575521 53.474624 0
M  V30 3 C 39.245138 29.708405 52.980399 0
M  V30 4 C 39.391188 30.942454 53.849979 0
M  V30 5 C 39.786788 29.689158 51.673886 0
M  V30 6 O 40.445137 30.779447 51.185097 0
M  V30 7 C 38.967127 27.414631 51.367754 0
M  V30 8 C 39.645137 28.542820 50.871954 0
M  V30 9 H 37.906703 26.562647 53.046582 0
M  V30 10 H 38.149854 28.585703 54.471675 0
M  V30 11 H 38.926284 30.798467 54.825925 0
M  V30 12 H 40.444245 31.175568 54.009660 0
M  V30 13 H 38.908381 31.796266 53.374495 0
M  V30 14 H 40.445202 31.521146 51.771802 0
M  V30 15 H 38.857736 26.537756 50.748090 0
M  V30 16 H 40.054473 28.530288 49.873019 0
M  V30 END ATOM
M  V30 BEGIN BOND
M  V30 1 1 2 1
M  V30 2 2 3 2
M  V30 3 1 4 3
M  V30 4 1 5 3
M  V30 5 1 6 5
M  V30 6 2 7 1
M  V30 7 2 8 5
M  V30 8 1 8 7
M  V30 9 1 9 1
M  V30 10 1 10 2
M  V30 11 1 11 4
M  V30 12 1 12 4
M  V30 13 1 13 4
M  V30 14 1 14 6
M  V30 15 1 15 7
M  V30 16 1 16 8
M  V30 END BOND
M  V30 END CTAB
M  END
>  <i_epik_Tot_Q>  (1) 
0

>  <i_epik_Tot_abs_Q>  (1) 
0

>  <i_i_glide_confnum>  (1) 
1

>  <i_i_glide_lignum>  (1) 
52

>  <i_i_glide_posenum>  (1) 
212

>  <i_i_glide_rotatable_bonds>  (1) 
1

>  <i_lp_mmshare_version>  (1) 
72125

>  <i_m_source_file_index>  (1) 
50

>  <i_f3d_flags>  (1) 
0

>  <num_sample>  (1) 
100

>  <b_lp_Chiralities_Consistent>  (1) 
1

>  <r_epik_Charging_Adjusted_Penalty>  (1) 
0

>  <r_epik_Ionization_Penalty>  (1) 
0.00081241911792291806

>  <r_epik_Ionization_Penalty_Charging>  (1) 
0

>  <r_epik_Ionization_Penalty_Neutral>  (1) 
0.00081241911792291806

>  <r_epik_State_Penalty>  (1) 
-0

>  <r_glide_ring_energy>  (1) 
0

>  <r_i_docking_score>  (1) 
-5.7637505995691996

>  <r_i_glide_ecoul>  (1) 
-1.3207801304863274

>  <r_i_glide_eff_state_penalty>  (1) 
-0

>  <r_i_glide_einternal>  (1) 
0.010548913805197513

>  <r_i_glide_emodel>  (1) 
-26.747056506357438

>  <r_i_glide_emodel_strain>  (1) 
0

>  <r_i_glide_energy>  (1) 
-19.521554971327681

>  <r_i_glide_erotb>  (1) 
0

>  <r_i_glide_esite>  (1) 
0

>  <r_i_glide_evdw>  (1) 
-18.200774840841355

>  <r_i_glide_gscore>  (1) 
-5.7637505995691996

>  <r_i_glide_gscore_strain>  (1) 
0

>  <r_i_glide_hbond>  (1) 
0

>  <r_i_glide_ligand_efficiency>  (1) 
-0.72046882494614994

>  <r_i_glide_ligand_efficiency_ln>  (1) 
-1.8716869671197176

>  <r_i_glide_ligand_efficiency_sa>  (1) 
-1.4409376498923001

>  <r_i_glide_lipo>  (1) 
-2.121394834111419

>  <r_i_glide_metal>  (1) 
-0

>  <r_i_glide_rewards>  (1) 
-2.5342000038427637

>  <r_lp_Energy>  (1) 
7.6312429999999996

>  <r_lp_tautomer_probability>  (1) 
1

>  <s_epik_cmdline>  (1) 
J2VwaWtfcHl0aG9uJywgJy1waHQnLCAnMS4wJywgJy1waCcsICc3LjQnLCAnLXRuJywgJzgnLCAnLW1hJywgJzUwMCcsICctaW1hZScsICc8aW5maWxlLm1hZT4nLCAnLW9tYWUnLCAnPG91dGZpbGUubWFlPic=

>  <s_epik_input>  (1) 
W0NIM11jMVtjSF1bY0hdW2NIXVtjSF1jMVtPSF0=

>  <s_glide_docking_method>  (1) 
confgen

>  <s_i_glide_gridfile>  (1) 
gpcr_5ht2c_6bqh_protein_autoprepared_prepared

>  <s_lp_Force_Field>  (1) 
S-OPLS

>  <s_lp_Variant>  (1) 
Pocket2Mol_49-1

>  <s_m_source_file>  (1) 
generated_GPCR_5HT2C_ligand_Pocket2Mol_2026-06-23_prepared.sdf

>  <GenAI_Model>  (1) 
Pocket2Mol

>  <Protein>  (1) 
GPCR_5HT2C

$$$$
Pocket2Mol_41
     RDKit          3D

  0  0  0  0  0  0  0  0  0  0999 V3000
M  V30 BEGIN CTAB
M  V30 COUNTS 15 15 0 0 1
M  V30 BEGIN ATOM
M  V30 1 C 39.316348 28.313737 51.079192 0
M  V30 2 C 38.588854 27.879569 52.236181 0
M  V30 3 C 38.670713 28.763243 53.284987 0
M  V30 4 C 38.044645 28.641044 54.634829 0
M  V30 5 C 39.943081 29.523271 51.261632 0
M  V30 6 C 40.776543 30.279407 50.281188 0
M  V30 7 S 39.645151 30.137755 52.859692 0
M  V30 8 H 39.350212 27.732369 50.168199 0
M  V30 9 H 38.039335 26.949957 52.255711 0
M  V30 10 H 37.472935 27.715065 54.718643 0
M  V30 11 H 38.805576 28.635903 55.415231 0
M  V30 12 H 37.367330 29.473666 54.829274 0
M  V30 13 H 40.842105 29.746800 49.332354 0
M  V30 14 H 40.344174 31.260021 50.084618 0
M  V30 15 H 41.790248 30.430217 50.650572 0
M  V30 END ATOM
M  V30 BEGIN BOND
M  V30 1 1 2 1
M  V30 2 2 3 2
M  V30 3 1 4 3
M  V30 4 2 5 1
M  V30 5 1 6 5
M  V30 6 1 7 3
M  V30 7 1 7 5
M  V30 8 1 8 1
M  V30 9 1 9 2
M  V30 10 1 10 4
M  V30 11 1 11 4
M  V30 12 1 12 4
M  V30 13 1 13 6
M  V30 14 1 14 6
M  V30 15 1 15 6
M  V30 END BOND
M  V30 END CTAB
M  END
>  <i_epik_Tot_Q>  (1) 
0

>  <i_epik_Tot_abs_Q>  (1) 
0

>  <i_i_glide_confnum>  (1) 
1

>  <i_i_glide_lignum>  (1) 
44

>  <i_i_glide_posenum>  (1) 
50

>  <i_i_glide_rotatable_bonds>  (1) 
0

>  <i_lp_mmshare_version>  (1) 
72125

>  <i_m_source_file_index>  (1) 
42

>  <i_f3d_flags>  (1) 
0

>  <num_sample>  (1) 
100

>  <b_lp_Chiralities_Consistent>  (1) 
1

>  <r_epik_Charging_Adjusted_Penalty>  (1) 
0

>  <r_epik_Ionization_Penalty>  (1) 
0

>  <r_epik_Ionization_Penalty_Charging>  (1) 
0

>  <r_epik_Ionization_Penalty_Neutral>  (1) 
0

>  <r_epik_State_Penalty>  (1) 
-0

>  <r_glide_ring_energy>  (1) 
0

>  <r_i_docking_score>  (1) 
-5.7609244739035219

>  <r_i_glide_ecoul>  (1) 
-0.83025513027877218

>  <r_i_glide_eff_state_penalty>  (1) 
-0

>  <r_i_glide_einternal>  (1) 
0

>  <r_i_glide_emodel>  (1) 
-25.911894490032587

>  <r_i_glide_emodel_strain>  (1) 
0

>  <r_i_glide_energy>  (1) 
-19.20949228255266

>  <r_i_glide_erotb>  (1) 
0

>  <r_i_glide_esite>  (1) 
0

>  <r_i_glide_evdw>  (1) 
-18.379237152273888

>  <r_i_glide_gscore>  (1) 
-5.7609244739035219

>  <r_i_glide_gscore_strain>  (1) 
0

>  <r_i_glide_hbond>  (1) 
0

>  <r_i_glide_ligand_efficiency>  (1) 
-0.82298921055764596

>  <r_i_glide_ligand_efficiency_ln>  (1) 
-1.9555669326000726

>  <r_i_glide_ligand_efficiency_sa>  (1) 
-1.5743217239609526

>  <r_i_glide_lipo>  (1) 
-2.1753658677755938

>  <r_i_glide_metal>  (1) 
-0

>  <r_i_glide_rewards>  (1) 
-2.5420584789724177

>  <r_lp_Energy>  (1) 
3.6641779999999997

>  <r_lp_tautomer_probability>  (1) 
1

>  <s_epik_cmdline>  (1) 
J2VwaWtfcHl0aG9uJywgJy1waHQnLCAnMS4wJywgJy1waCcsICc3LjQnLCAnLXRuJywgJzgnLCAnLW1hJywgJzUwMCcsICctaW1hZScsICc8aW5maWxlLm1hZT4nLCAnLW9tYWUnLCAnPG91dGZpbGUubWFlPic=

>  <s_epik_input>  (1) 
W0NIM11jKHMxKVtjSF1bY0hdYzFbQ0gzXQ==

>  <s_glide_docking_method>  (1) 
confgen

>  <s_i_glide_gridfile>  (1) 
gpcr_5ht2c_6bqh_protein_autoprepared_prepared

>  <s_lp_Force_Field>  (1) 
S-OPLS

>  <s_lp_Variant>  (1) 
Pocket2Mol_41-1

>  <s_m_source_file>  (1) 
generated_GPCR_5HT2C_ligand_Pocket2Mol_2026-06-23_prepared.sdf

>  <GenAI_Model>  (1) 
Pocket2Mol

>  <Protein>  (1) 
GPCR_5HT2C

$$$$
Pocket2Mol_84
     RDKit          3D

  0  0  0  0  0  0  0  0  0  0999 V3000
M  V30 BEGIN CTAB
M  V30 COUNTS 19 19 0 0 1
M  V30 BEGIN ATOM
M  V30 1 C 37.704115 29.278510 54.171229 0
M  V30 2 C 38.961175 30.114225 54.416070 0
M  V30 3 O 37.666129 28.687765 52.875462 0
M  V30 4 C 38.800147 28.042322 52.380405 0 CFG=1
M  V30 5 C 39.278546 26.965660 53.380637 0
M  V30 6 O 39.250844 30.889708 53.270926 0
M  V30 7 C 40.045047 30.292877 52.321284 0
M  V30 8 O 38.445137 27.337755 51.225913 0
M  V30 9 C 39.890195 29.011875 51.906492 0
M  V30 10 H 36.828081 29.920220 54.256560 0
M  V30 11 H 37.599377 28.515399 54.942687 0
M  V30 12 H 38.784839 30.789344 55.253812 0
M  V30 13 H 39.823024 29.513447 54.705165 0
M  V30 14 H 38.457081 26.288502 53.618239 0
M  V30 15 H 40.089258 26.383600 52.942446 0
M  V30 16 H 39.645136 27.394928 54.309241 0
M  V30 17 H 40.814335 30.958816 51.957723 0
M  V30 18 H 37.588101 26.948800 51.367753 0
M  V30 19 H 40.570767 28.624513 51.161914 0
M  V30 END ATOM
M  V30 BEGIN BOND
M  V30 1 1 2 1
M  V30 2 1 3 1
M  V30 3 1 4 3
M  V30 4 1 5 4
M  V30 5 1 6 2
M  V30 6 1 7 6
M  V30 7 1 4 8 CFG=3
M  V30 8 1 9 4
M  V30 9 2 9 7
M  V30 10 1 10 1
M  V30 11 1 11 1
M  V30 12 1 12 2
M  V30 13 1 13 2
M  V30 14 1 14 5
M  V30 15 1 15 5
M  V30 16 1 16 5
M  V30 17 1 17 7
M  V30 18 1 18 8
M  V30 19 1 19 9
M  V30 END BOND
M  V30 END CTAB
M  END
>  <i_epik_Tot_Q>  (1) 
0

>  <i_epik_Tot_abs_Q>  (1) 
0

>  <i_i_glide_confnum>  (1) 
4

>  <i_i_glide_lignum>  (1) 
89

>  <i_i_glide_posenum>  (1) 
192

>  <i_i_glide_rotatable_bonds>  (1) 
1

>  <i_lp_mmshare_version>  (1) 
72125

>  <i_m_source_file_index>  (1) 
85

>  <i_f3d_flags>  (1) 
0

>  <num_sample>  (1) 
100

>  <b_lp_Chiralities_Consistent>  (1) 
1

>  <r_epik_Charging_Adjusted_Penalty>  (1) 
0

>  <r_epik_Ionization_Penalty>  (1) 
7.9405632778621754e-05

>  <r_epik_Ionization_Penalty_Charging>  (1) 
0

>  <r_epik_Ionization_Penalty_Neutral>  (1) 
7.9405632778621754e-05

>  <r_epik_State_Penalty>  (1) 
-0

>  <r_glide_ring_energy>  (1) 
2.1674625479299614

>  <r_i_docking_score>  (1) 
-5.7609012388542649

>  <r_i_glide_ecoul>  (1) 
-3.0031870295046295

>  <r_i_glide_eff_state_penalty>  (1) 
-0

>  <r_i_glide_einternal>  (1) 
0.51679294885800608

>  <r_i_glide_emodel>  (1) 
-26.796652833395399

>  <r_i_glide_emodel_strain>  (1) 
0.18792836316562855

>  <r_i_glide_energy>  (1) 
-19.247823622374078

>  <r_i_glide_erotb>  (1) 
0

>  <r_i_glide_esite>  (1) 
0

>  <r_i_glide_evdw>  (1) 
-16.244636592869448

>  <r_i_glide_gscore>  (1) 
-5.7609012388542649

>  <r_i_glide_gscore_strain>  (1) 
0

>  <r_i_glide_hbond>  (1) 
-0.32000000000000001

>  <r_i_glide_ligand_efficiency>  (1) 
-0.64010013765047391

>  <r_i_glide_ligand_efficiency_ln>  (1) 
-1.8018444120850536

>  <r_i_glide_ligand_efficiency_sa>  (1) 
-1.3314619414600479

>  <r_i_glide_lipo>  (1) 
-1.2263247184368777

>  <r_i_glide_metal>  (1) 
-0

>  <r_i_glide_rewards>  (1) 
-2.9518666363482202

>  <r_lp_Energy>  (1) 
3.4776590000000001

>  <r_lp_tautomer_probability>  (1) 
1

>  <s_epik_cmdline>  (1) 
J2VwaWtfcHl0aG9uJywgJy1waHQnLCAnMS4wJywgJy1waCcsICc3LjQnLCAnLXRuJywgJzgnLCAnLW1hJywgJzUwMCcsICctaW1hZScsICc8aW5maWxlLm1hZT4nLCAnLW9tYWUnLCAnPG91dGZpbGUubWFlPic=

>  <s_epik_input>  (1) 
W0NIM11bQ0BAXTEoW09IXSlPW0NIMl1bQ0gyXU9bQ0hdPVtDSF0x

>  <s_glide_docking_method>  (1) 
confgen

>  <s_i_glide_gridfile>  (1) 
gpcr_5ht2c_6bqh_protein_autoprepared_prepared

>  <s_lp_Force_Field>  (1) 
S-OPLS

>  <s_lp_Variant>  (1) 
Pocket2Mol_84-1

>  <s_m_source_file>  (1) 
generated_GPCR_5HT2C_ligand_Pocket2Mol_2026-06-23_prepared.sdf

>  <GenAI_Model>  (1) 
Pocket2Mol

>  <Protein>  (1) 
GPCR_5HT2C

$$$$
Pocket2Mol_56
     RDKit          3D

  0  0  0  0  0  0  0  0  0  0999 V3000
M  V30 BEGIN CTAB
M  V30 COUNTS 17 17 0 0 1
M  V30 BEGIN ATOM
M  V30 1 C 39.280745 28.505887 51.036710 0
M  V30 2 C 38.545209 28.126128 52.168485 0
M  V30 3 C 38.605658 28.939510 53.318591 0
M  V30 4 C 37.823256 28.572107 54.561331 0
M  V30 5 C 40.044955 29.683264 51.098371 0
M  V30 6 C 40.849173 30.146962 49.903886 0
M  V30 7 C 40.045140 30.429788 52.292410 0
M  V30 8 N 39.342129 30.074497 53.394216 0
M  V30 9 H 39.255316 27.908047 50.138633 0
M  V30 10 H 37.942489 27.229270 52.156596 0
M  V30 11 H 37.241522 27.662654 54.410544 0
M  V30 12 H 38.501933 28.408302 55.398539 0
M  V30 13 H 37.137470 29.377693 54.827589 0
M  V30 14 H 40.676511 29.513227 49.033614 0
M  V30 15 H 40.571134 31.168539 49.642751 0
M  V30 16 H 41.913022 30.137847 50.141137 0
M  V30 17 H 40.622577 31.337744 52.366431 0
M  V30 END ATOM
M  V30 BEGIN BOND
M  V30 1 2 2 1
M  V30 2 1 3 2
M  V30 3 1 4 3
M  V30 4 1 5 1
M  V30 5 1 6 5
M  V30 6 2 7 5
M  V30 7 2 8 3
M  V30 8 1 8 7
M  V30 9 1 9 1
M  V30 10 1 10 2
M  V30 11 1 11 4
M  V30 12 1 12 4
M  V30 13 1 13 4
M  V30 14 1 14 6
M  V30 15 1 15 6
M  V30 16 1 16 6
M  V30 17 1 17 7
M  V30 END BOND
M  V30 END CTAB
M  END
>  <i_epik_Tot_Q>  (1) 
0

>  <i_epik_Tot_abs_Q>  (1) 
0

>  <i_i_glide_confnum>  (1) 
1

>  <i_i_glide_lignum>  (1) 
60

>  <i_i_glide_posenum>  (1) 
252

>  <i_i_glide_rotatable_bonds>  (1) 
0

>  <i_lp_mmshare_version>  (1) 
72125

>  <i_m_source_file_index>  (1) 
57

>  <i_f3d_flags>  (1) 
0

>  <num_sample>  (1) 
100

>  <b_lp_Chiralities_Consistent>  (1) 
1

>  <r_epik_Charging_Adjusted_Penalty>  (1) 
0.022258434784609007

>  <r_epik_Ionization_Penalty>  (1) 
0.022258434785048374

>  <r_epik_Ionization_Penalty_Charging>  (1) 
0

>  <r_epik_Ionization_Penalty_Neutral>  (1) 
0.022258434785048374

>  <r_epik_State_Penalty>  (1) 
0.022258434784609007

>  <r_glide_ring_energy>  (1) 
0

>  <r_i_docking_score>  (1) 
-5.7601285418287773

>  <r_i_glide_ecoul>  (1) 
-0.73046486452725379

>  <r_i_glide_eff_state_penalty>  (1) 
0.022258434784609007

>  <r_i_glide_einternal>  (1) 
0

>  <r_i_glide_emodel>  (1) 
-26.622680429767371

>  <r_i_glide_emodel_strain>  (1) 
0.006349721148943388

>  <r_i_glide_energy>  (1) 
-19.670182332530896

>  <r_i_glide_erotb>  (1) 
0

>  <r_i_glide_esite>  (1) 
0

>  <r_i_glide_evdw>  (1) 
-18.939717468003643

>  <r_i_glide_gscore>  (1) 
-5.7823869766133864

>  <r_i_glide_gscore_strain>  (1) 
0

>  <r_i_glide_hbond>  (1) 
0

>  <r_i_glide_ligand_efficiency>  (1) 
-0.72001606772859716

>  <r_i_glide_ligand_efficiency_ln>  (1) 
-1.8705107610799543

>  <r_i_glide_ligand_efficiency_sa>  (1) 
-1.4400321354571946

>  <r_i_glide_lipo>  (1) 
-2.0704192133312702

>  <r_i_glide_metal>  (1) 
-0

>  <r_i_glide_rewards>  (1) 
-2.6554121602028458

>  <r_lp_Energy>  (1) 
7.9607329999999994

>  <s_epik_cmdline>  (1) 
J2VwaWtfcHl0aG9uJywgJy1waHQnLCAnMS4wJywgJy1waCcsICc3LjQnLCAnLXRuJywgJzgnLCAnLW1hJywgJzUwMCcsICctaW1hZScsICc8aW5maWxlLm1hZT4nLCAnLW9tYWUnLCAnPG91dGZpbGUubWFlPic=

>  <s_epik_input>  (1) 
bjFbY0hdYyhbQ0gzXSlbY0hdW2NIXWMxW0NIM10=

>  <s_glide_docking_method>  (1) 
confgen

>  <s_i_glide_gridfile>  (1) 
gpcr_5ht2c_6bqh_protein_autoprepared_prepared

>  <s_lp_Force_Field>  (1) 
S-OPLS

>  <s_lp_Variant>  (1) 
Pocket2Mol_56-1

>  <s_m_source_file>  (1) 
generated_GPCR_5HT2C_ligand_Pocket2Mol_2026-06-23_prepared.sdf

>  <GenAI_Model>  (1) 
Pocket2Mol

>  <Protein>  (1) 
GPCR_5HT2C

$$$$
Pocket2Mol_0
     RDKit          3D

  0  0  0  0  0  0  0  0  0  0999 V3000
M  V30 BEGIN CTAB
M  V30 COUNTS 19 19 0 0 1
M  V30 BEGIN ATOM
M  V30 1 C 39.107567 26.888745 53.884045 0
M  V30 2 C 38.705374 26.073547 55.046217 0
M  V30 3 C 39.541745 26.028579 56.182355 0
M  V30 4 C 37.495943 25.336877 55.046740 0
M  V30 5 C 37.134554 24.572097 56.171959 0
M  V30 6 C 37.973406 24.537307 57.300822 0
M  V30 7 C 39.176522 25.264255 57.304242 0
M  V30 8 C 38.382102 27.026938 52.754880 0
M  V30 9 C 38.840438 27.862141 51.623522 0
M  V30 10 N 39.923428 28.511982 51.631940 0
M  V30 11 H 40.045140 27.396523 53.969197 0
M  V30 12 H 40.467835 26.585796 56.192359 0
M  V30 13 H 36.845139 25.355270 54.188579 0
M  V30 14 H 36.211346 24.012132 56.167751 0
M  V30 15 H 37.694733 23.949298 58.163905 0
M  V30 16 H 39.822744 25.236195 58.167791 0
M  V30 17 H 37.433943 26.537733 52.621906 0
M  V30 18 H 38.167559 27.885153 50.765254 0
M  V30 19 H 40.072126 29.033872 50.779771 0
M  V30 END ATOM
M  V30 BEGIN BOND
M  V30 1 1 2 1
M  V30 2 1 3 2
M  V30 3 2 4 2
M  V30 4 1 5 4
M  V30 5 2 6 5
M  V30 6 2 7 3
M  V30 7 1 7 6
M  V30 8 2 8 1
M  V30 9 1 9 8
M  V30 10 2 10 9
M  V30 11 1 11 1
M  V30 12 1 12 3
M  V30 13 1 13 4
M  V30 14 1 14 5
M  V30 15 1 15 6
M  V30 16 1 16 7
M  V30 17 1 17 8
M  V30 18 1 18 9
M  V30 19 1 19 10
M  V30 END BOND
M  V30 END CTAB
M  END
>  <i_epik_Tot_Q>  (1) 
0

>  <i_epik_Tot_abs_Q>  (1) 
0

>  <i_i_glide_confnum>  (1) 
2

>  <i_i_glide_lignum>  (1) 
1

>  <i_i_glide_posenum>  (1) 
19

>  <i_i_glide_rotatable_bonds>  (1) 
2

>  <i_lp_mmshare_version>  (1) 
72125

>  <i_m_source_file_index>  (1) 
1

>  <i_f3d_flags>  (1) 
0

>  <num_sample>  (1) 
100

>  <b_lp_Chiralities_Consistent>  (1) 
1

>  <r_epik_Charging_Adjusted_Penalty>  (1) 
0

>  <r_epik_Ionization_Penalty>  (1) 
0

>  <r_epik_Ionization_Penalty_Charging>  (1) 
0

>  <r_epik_Ionization_Penalty_Neutral>  (1) 
0

>  <r_epik_State_Penalty>  (1) 
-0

>  <r_glide_ring_energy>  (1) 
0

>  <r_i_docking_score>  (1) 
-5.7483648689633418

>  <r_i_glide_ecoul>  (1) 
-1.2749199947352661

>  <r_i_glide_eff_state_penalty>  (1) 
-0

>  <r_i_glide_einternal>  (1) 
4.201796053875146

>  <r_i_glide_emodel>  (1) 
-28.597294557035553

>  <r_i_glide_emodel_strain>  (1) 
0

>  <r_i_glide_energy>  (1) 
-22.562415429311958

>  <r_i_glide_erotb>  (1) 
0.80789427267668723

>  <r_i_glide_esite>  (1) 
0

>  <r_i_glide_evdw>  (1) 
-21.287495434576691

>  <r_i_glide_gscore>  (1) 
-5.7483648689633418

>  <r_i_glide_gscore_strain>  (1) 
0

>  <r_i_glide_hbond>  (1) 
0

>  <r_i_glide_ligand_efficiency>  (1) 
-0.57483648689633415

>  <r_i_glide_ligand_efficiency_ln>  (1) 
-1.7405652563374254

>  <r_i_glide_ligand_efficiency_sa>  (1) 
-1.2384476684655208

>  <r_i_glide_lipo>  (1) 
-2.3665279977684759

>  <r_i_glide_metal>  (1) 
-0

>  <r_i_glide_rewards>  (1) 
-2.9341183729324283

>  <r_lp_Energy>  (1) 
9.4498509999999989

>  <r_lp_tautomer_probability>  (1) 
1

>  <s_epik_Chemistry_Notes>  (1) 
This compound has an imine and may undergo hydrolysis.

>  <s_epik_cmdline>  (1) 
J2VwaWtfcHl0aG9uJywgJy1waHQnLCAnMS4wJywgJy1waCcsICc3LjQnLCAnLXRuJywgJzgnLCAnLW1hJywgJzUwMCcsICctaW1hZScsICc8aW5maWxlLm1hZT4nLCAnLW9tYWUnLCAnPG91dGZpbGUubWFlPic=

>  <s_epik_input>  (1) 
W0hdXE49W0NIXVxbQ0hdPVtDSF1cYzFbY0hdW2NIXVtjSF1bY0hdW2NIXTE=

>  <s_glide_docking_method>  (1) 
confgen

>  <s_i_glide_gridfile>  (1) 
gpcr_5ht2c_6bqh_protein_autoprepared_prepared

>  <s_lp_Force_Field>  (1) 
S-OPLS

>  <s_lp_Variant>  (1) 
Pocket2Mol_0-1

>  <s_m_source_file>  (1) 
generated_GPCR_5HT2C_ligand_Pocket2Mol_2026-06-23_prepared.sdf

>  <GenAI_Model>  (1) 
Pocket2Mol

>  <Protein>  (1) 
GPCR_5HT2C

$$$$
Pocket2Mol_1
     RDKit          3D

  0  0  0  0  0  0  0  0  0  0999 V3000
M  V30 BEGIN CTAB
M  V30 COUNTS 19 20 0 0 1
M  V30 BEGIN ATOM
M  V30 1 C 40.045122 30.424928 52.314519 0
M  V30 2 C 39.258586 30.240771 53.510039 0
M  V30 3 C 38.747966 28.934583 53.908412 0 CFG=2
M  V30 4 C 38.896881 31.190120 54.289061 0
M  V30 5 C 38.653705 27.991987 52.719332 0
M  V30 6 C 39.312968 28.223126 51.560023 0
M  V30 7 C 37.977637 30.792919 55.371684 0
M  V30 8 O 39.245121 27.337748 50.567759 0
M  V30 9 N 37.645136 29.408603 54.813493 0
M  V30 10 C 40.084972 29.453182 51.386729 0
M  V30 11 H 40.576966 31.349361 52.151296 0
M  V30 12 H 39.498637 28.496294 54.567501 0
M  V30 13 H 39.164459 32.224028 54.145235 0
M  V30 14 H 38.074480 27.089023 52.849272 0
M  V30 15 H 38.487335 30.756805 56.334751 0
M  V30 16 H 37.095571 31.430605 55.414062 0
M  V30 17 H 38.652385 26.649637 50.830316 0
M  V30 18 H 37.443300 28.752223 55.553765 0
M  V30 19 H 40.658265 29.601621 50.483319 0
M  V30 END ATOM
M  V30 BEGIN BOND
M  V30 1 1 2 1
M  V30 2 1 3 2
M  V30 3 2 4 2
M  V30 4 1 5 3
M  V30 5 2 6 5
M  V30 6 1 7 4
M  V30 7 1 8 6
M  V30 8 1 9 3
M  V30 9 1 9 7
M  V30 10 2 10 1
M  V30 11 1 10 6
M  V30 12 1 11 1
M  V30 13 1 3 12 CFG=1
M  V30 14 1 13 4
M  V30 15 1 14 5
M  V30 16 1 15 7
M  V30 17 1 16 7
M  V30 18 1 17 8
M  V30 19 1 18 9
M  V30 20 1 19 10
M  V30 END BOND
M  V30 END CTAB
M  END
>  <i_epik_Tot_Q>  (1) 
0

>  <i_epik_Tot_abs_Q>  (1) 
0

>  <i_i_glide_confnum>  (1) 
1

>  <i_i_glide_lignum>  (1) 
3

>  <i_i_glide_posenum>  (1) 
284

>  <i_i_glide_rotatable_bonds>  (1) 
1

>  <i_lp_mmshare_version>  (1) 
72125

>  <i_m_source_file_index>  (1) 
2

>  <i_f3d_flags>  (1) 
0

>  <num_sample>  (1) 
100

>  <b_lp_Chiralities_Consistent>  (1) 
1

>  <r_epik_Charging_Adjusted_Penalty>  (1) 
0.0032380173127296522

>  <r_epik_Ionization_Penalty>  (1) 
0.0032399356015129686

>  <r_epik_Ionization_Penalty_Charging>  (1) 
0

>  <r_epik_Ionization_Penalty_Neutral>  (1) 
0.0032399356015129686

>  <r_epik_State_Penalty>  (1) 
0.0032380173127296522

>  <r_glide_ring_energy>  (1) 
0

>  <r_i_docking_score>  (1) 
-5.7414847274344423

>  <r_i_glide_ecoul>  (1) 
-1.8407128551592491

>  <r_i_glide_eff_state_penalty>  (1) 
0.0032380173127296522

>  <r_i_glide_einternal>  (1) 
0.019495314069095215

>  <r_i_glide_emodel>  (1) 
-31.556301322175269

>  <r_i_glide_emodel_strain>  (1) 
0

>  <r_i_glide_energy>  (1) 
-23.216649363931541

>  <r_i_glide_erotb>  (1) 
0

>  <r_i_glide_esite>  (1) 
0

>  <r_i_glide_evdw>  (1) 
-21.375936508772291

>  <r_i_glide_gscore>  (1) 
-5.7447227447471718

>  <r_i_glide_gscore_strain>  (1) 
0

>  <r_i_glide_hbond>  (1) 
0

>  <r_i_glide_ligand_efficiency>  (1) 
-0.57414847274344427

>  <r_i_glide_ligand_efficiency_ln>  (1) 
-1.7384819969102892

>  <r_i_glide_ligand_efficiency_sa>  (1) 
-1.2369653869073018

>  <r_i_glide_lipo>  (1) 
-1.9158250448861827

>  <r_i_glide_metal>  (1) 
-0

>  <r_i_glide_rewards>  (1) 
-2.483993946148487

>  <r_lp_Energy>  (1) 
5.6201189999999999

>  <s_epik_cmdline>  (1) 
J2VwaWtfcHl0aG9uJywgJy1waHQnLCAnMS4wJywgJy1waCcsICc3LjQnLCAnLXRuJywgJzgnLCAnLW1hJywgJzUwMCcsICctaW1hZScsICc8aW5maWxlLm1hZT4nLCAnLW9tYWUnLCAnPG91dGZpbGUubWFlPic=

>  <s_epik_input>  (1) 
W0NIXTE9W0NIXUMoW09IXSk9W0NIXVtDQEBIXShDMT0yKVtOSF1bQ0gyXVtDSF0y

>  <s_glide_docking_method>  (1) 
confgen

>  <s_i_glide_gridfile>  (1) 
gpcr_5ht2c_6bqh_protein_autoprepared_prepared

>  <s_lp_Force_Field>  (1) 
S-OPLS

>  <s_lp_Variant>  (1) 
Pocket2Mol_1-1

>  <s_m_source_file>  (1) 
generated_GPCR_5HT2C_ligand_Pocket2Mol_2026-06-23_prepared.sdf

>  <GenAI_Model>  (1) 
Pocket2Mol

>  <Protein>  (1) 
GPCR_5HT2C

$$$$
Pocket2Mol_56
     RDKit          3D

  0  0  0  0  0  0  0  0  0  0999 V3000
M  V30 BEGIN CTAB
M  V30 COUNTS 17 17 0 0 1
M  V30 BEGIN ATOM
M  V30 1 C 38.930380 29.166884 53.399371 0
M  V30 2 C 39.644958 30.009325 52.535865 0
M  V30 3 C 39.962839 29.541391 51.242977 0
M  V30 4 C 40.708375 30.423496 50.272075 0
M  V30 5 C 38.567375 27.891742 52.939193 0
M  V30 6 C 37.795365 26.940578 53.829645 0
M  V30 7 C 38.935736 27.511848 51.631723 0
M  V30 8 N 39.626716 28.312947 50.788771 0
M  V30 9 H 38.666838 29.493029 54.394716 0
M  V30 10 H 39.938676 31.000327 52.853496 0
M  V30 11 H 40.950223 31.362785 50.748702 0
M  V30 12 H 41.645031 29.969878 49.955471 0
M  V30 13 H 40.094944 30.631067 49.395934 0
M  V30 14 H 37.590826 27.388686 54.801742 0
M  V30 15 H 36.845197 26.679958 53.367435 0
M  V30 16 H 38.360870 26.023630 53.990001 0
M  V30 17 H 38.672873 26.537762 51.251352 0
M  V30 END ATOM
M  V30 BEGIN BOND
M  V30 1 2 2 1
M  V30 2 1 3 2
M  V30 3 1 4 3
M  V30 4 1 5 1
M  V30 5 1 6 5
M  V30 6 2 7 5
M  V30 7 2 8 3
M  V30 8 1 8 7
M  V30 9 1 9 1
M  V30 10 1 10 2
M  V30 11 1 11 4
M  V30 12 1 12 4
M  V30 13 1 13 4
M  V30 14 1 14 6
M  V30 15 1 15 6
M  V30 16 1 16 6
M  V30 17 1 17 7
M  V30 END BOND
M  V30 END CTAB
M  END
>  <i_epik_Tot_Q>  (1) 
0

>  <i_epik_Tot_abs_Q>  (1) 
0

>  <i_i_glide_confnum>  (1) 
1

>  <i_i_glide_lignum>  (1) 
60

>  <i_i_glide_posenum>  (1) 
311

>  <i_i_glide_rotatable_bonds>  (1) 
0

>  <i_lp_mmshare_version>  (1) 
72125

>  <i_m_source_file_index>  (1) 
57

>  <i_f3d_flags>  (1) 
0

>  <num_sample>  (1) 
100

>  <b_lp_Chiralities_Consistent>  (1) 
1

>  <r_epik_Charging_Adjusted_Penalty>  (1) 
0.022258434784609007

>  <r_epik_Ionization_Penalty>  (1) 
0.022258434785048374

>  <r_epik_Ionization_Penalty_Charging>  (1) 
0

>  <r_epik_Ionization_Penalty_Neutral>  (1) 
0.022258434785048374

>  <r_epik_State_Penalty>  (1) 
0.022258434784609007

>  <r_glide_ring_energy>  (1) 
0

>  <r_i_docking_score>  (1) 
-5.7389733933189353

>  <r_i_glide_ecoul>  (1) 
-0.79216401905058231

>  <r_i_glide_eff_state_penalty>  (1) 
0.022258434784609007

>  <r_i_glide_einternal>  (1) 
0

>  <r_i_glide_emodel>  (1) 
-26.489605513009096

>  <r_i_glide_emodel_strain>  (1) 
0

>  <r_i_glide_energy>  (1) 
-19.556216983261869

>  <r_i_glide_erotb>  (1) 
0

>  <r_i_glide_esite>  (1) 
0

>  <r_i_glide_evdw>  (1) 
-18.764052964211288

>  <r_i_glide_gscore>  (1) 
-5.7612318281035444

>  <r_i_glide_gscore_strain>  (1) 
0

>  <r_i_glide_hbond>  (1) 
0

>  <r_i_glide_ligand_efficiency>  (1) 
-0.71737167416486691

>  <r_i_glide_ligand_efficiency_ln>  (1) 
-1.8636409607530087

>  <r_i_glide_ligand_efficiency_sa>  (1) 
-1.434743348329734

>  <r_i_glide_lipo>  (1) 
-2.2127205450709559

>  <r_i_glide_metal>  (1) 
-0

>  <r_i_glide_rewards>  (1) 
-2.4914840319644376

>  <r_lp_Energy>  (1) 
7.9607329999999994

>  <s_epik_cmdline>  (1) 
J2VwaWtfcHl0aG9uJywgJy1waHQnLCAnMS4wJywgJy1waCcsICc3LjQnLCAnLXRuJywgJzgnLCAnLW1hJywgJzUwMCcsICctaW1hZScsICc8aW5maWxlLm1hZT4nLCAnLW9tYWUnLCAnPG91dGZpbGUubWFlPic=

>  <s_epik_input>  (1) 
bjFbY0hdYyhbQ0gzXSlbY0hdW2NIXWMxW0NIM10=

>  <s_glide_docking_method>  (1) 
confgen

>  <s_i_glide_gridfile>  (1) 
gpcr_5ht2c_6bqh_protein_autoprepared_prepared

>  <s_lp_Force_Field>  (1) 
S-OPLS

>  <s_lp_Variant>  (1) 
Pocket2Mol_56-1

>  <s_m_source_file>  (1) 
generated_GPCR_5HT2C_ligand_Pocket2Mol_2026-06-23_prepared.sdf

>  <GenAI_Model>  (1) 
Pocket2Mol

>  <Protein>  (1) 
GPCR_5HT2C

$$$$
Pocket2Mol_90
     RDKit          3D

  0  0  0  0  0  0  0  0  0  0999 V3000
M  V30 BEGIN CTAB
M  V30 COUNTS 14 14 0 0 1
M  V30 BEGIN ATOM
M  V30 1 C 40.267278 30.408992 51.379794 0
M  V30 2 C 39.645137 30.195034 52.662200 0
M  V30 3 C 39.024878 29.006456 52.675977 0
M  V30 4 C 39.246216 28.396744 51.351615 0
M  V30 5 C 40.045136 29.356892 50.582888 0
M  V30 6 C 38.290896 28.503659 53.836023 0
M  V30 7 O 38.845174 27.302114 50.967760 0
M  V30 8 N 37.735026 27.312363 53.604916 0
M  V30 9 O 38.177788 29.086871 54.910415 0
M  V30 10 H 40.828801 31.289714 51.102537 0
M  V30 11 H 39.669964 30.893037 53.487562 0
M  V30 12 H 40.374491 29.209944 49.565172 0
M  V30 13 H 37.847349 26.869986 52.698783 0
M  V30 14 H 37.200732 26.858574 54.329615 0
M  V30 END ATOM
M  V30 BEGIN BOND
M  V30 1 1 2 1
M  V30 2 2 3 2
M  V30 3 1 4 3
M  V30 4 2 5 1
M  V30 5 1 5 4
M  V30 6 1 6 3
M  V30 7 2 7 4
M  V30 8 1 8 6
M  V30 9 2 9 6
M  V30 10 1 10 1
M  V30 11 1 11 2
M  V30 12 1 12 5
M  V30 13 1 13 8
M  V30 14 1 14 8
M  V30 END BOND
M  V30 END CTAB
M  END
>  <i_epik_Tot_Q>  (1) 
0

>  <i_epik_Tot_abs_Q>  (1) 
0

>  <i_i_glide_confnum>  (1) 
1

>  <i_i_glide_lignum>  (1) 
95

>  <i_i_glide_posenum>  (1) 
237

>  <i_i_glide_rotatable_bonds>  (1) 
1

>  <i_lp_mmshare_version>  (1) 
72125

>  <i_m_source_file_index>  (1) 
91

>  <i_f3d_flags>  (1) 
0

>  <num_sample>  (1) 
100

>  <b_lp_Chiralities_Consistent>  (1) 
1

>  <r_epik_Charging_Adjusted_Penalty>  (1) 
0.0065050288304222097

>  <r_epik_Ionization_Penalty>  (1) 
0.0032614418865694397

>  <r_epik_Ionization_Penalty_Charging>  (1) 
0

>  <r_epik_Ionization_Penalty_Neutral>  (1) 
0.0032614418865694397

>  <r_epik_State_Penalty>  (1) 
0.0065050288304222097

>  <r_glide_ring_energy>  (1) 
0

>  <r_i_docking_score>  (1) 
-5.7355577682069452

>  <r_i_glide_ecoul>  (1) 
0.1599358830050589

>  <r_i_glide_eff_state_penalty>  (1) 
0.0065050288304222097

>  <r_i_glide_einternal>  (1) 
0.043389748621259328

>  <r_i_glide_emodel>  (1) 
-30.828715760535847

>  <r_i_glide_emodel_strain>  (1) 
0

>  <r_i_glide_energy>  (1) 
-22.007549305954921

>  <r_i_glide_erotb>  (1) 
0

>  <r_i_glide_esite>  (1) 
0

>  <r_i_glide_evdw>  (1) 
-22.167485188959979

>  <r_i_glide_gscore>  (1) 
-5.7420627970373674

>  <r_i_glide_gscore_strain>  (1) 
0

>  <r_i_glide_hbond>  (1) 
0

>  <r_i_glide_ligand_efficiency>  (1) 
-0.63728419646743839

>  <r_i_glide_ligand_efficiency_ln>  (1) 
-1.7939177025173341

>  <r_i_glide_ligand_efficiency_sa>  (1) 
-1.3256045477585501

>  <r_i_glide_lipo>  (1) 
-1.2414102075152083

>  <r_i_glide_metal>  (1) 
-0

>  <r_i_glide_rewards>  (1) 
-3.4162687125249191

>  <r_lp_Energy>  (1) 
1.7710899999999998

>  <s_epik_cmdline>  (1) 
J2VwaWtfcHl0aG9uJywgJy1waHQnLCAnMS4wJywgJy1waCcsICc3LjQnLCAnLXRuJywgJzgnLCAnLW1hJywgJzUwMCcsICctaW1hZScsICc8aW5maWxlLm1hZT4nLCAnLW9tYWUnLCAnPG91dGZpbGUubWFlPic=

>  <s_epik_input>  (1) 
Tz1DMVtDSF09W0NIXVtDSF09QzFDKD1PKVtOSDJd

>  <s_glide_docking_method>  (1) 
confgen

>  <s_i_glide_gridfile>  (1) 
gpcr_5ht2c_6bqh_protein_autoprepared_prepared

>  <s_lp_Force_Field>  (1) 
S-OPLS

>  <s_lp_Variant>  (1) 
Pocket2Mol_90-1

>  <s_m_source_file>  (1) 
generated_GPCR_5HT2C_ligand_Pocket2Mol_2026-06-23_prepared.sdf

>  <GenAI_Model>  (1) 
Pocket2Mol

>  <Protein>  (1) 
GPCR_5HT2C

$$$$
Pocket2Mol_56
     RDKit          3D

  0  0  0  0  0  0  0  0  0  0999 V3000
M  V30 BEGIN CTAB
M  V30 COUNTS 17 17 0 0 1
M  V30 BEGIN ATOM
M  V30 1 C 38.846519 27.614614 51.568141 0
M  V30 2 C 39.634917 28.445138 50.761090 0
M  V30 3 C 40.044565 29.690855 51.268479 0
M  V30 4 C 40.884868 30.619878 50.422588 0
M  V30 5 C 38.498566 28.062968 52.852375 0
M  V30 6 C 37.648232 27.205277 53.766598 0
M  V30 7 C 38.955821 29.326906 53.276005 0
M  V30 8 N 39.721254 30.137873 52.506867 0
M  V30 9 H 38.513729 26.653429 51.207282 0
M  V30 10 H 39.917185 28.137755 49.767784 0
M  V30 11 H 41.212850 30.137703 49.501925 0
M  V30 12 H 40.302644 31.500030 50.152202 0
M  V30 13 H 41.771199 30.937753 50.967760 0
M  V30 14 H 37.245126 26.339410 53.241211 0
M  V30 15 H 38.242874 26.846727 54.606998 0
M  V30 16 H 36.813193 27.784080 54.160295 0
M  V30 17 H 38.703737 29.697739 54.258695 0
M  V30 END ATOM
M  V30 BEGIN BOND
M  V30 1 2 2 1
M  V30 2 1 3 2
M  V30 3 1 4 3
M  V30 4 1 5 1
M  V30 5 1 6 5
M  V30 6 2 7 5
M  V30 7 2 8 3
M  V30 8 1 8 7
M  V30 9 1 9 1
M  V30 10 1 10 2
M  V30 11 1 11 4
M  V30 12 1 12 4
M  V30 13 1 13 4
M  V30 14 1 14 6
M  V30 15 1 15 6
M  V30 16 1 16 6
M  V30 17 1 17 7
M  V30 END BOND
M  V30 END CTAB
M  END
>  <i_epik_Tot_Q>  (1) 
0

>  <i_epik_Tot_abs_Q>  (1) 
0

>  <i_i_glide_confnum>  (1) 
1

>  <i_i_glide_lignum>  (1) 
60

>  <i_i_glide_posenum>  (1) 
68

>  <i_i_glide_rotatable_bonds>  (1) 
0

>  <i_lp_mmshare_version>  (1) 
72125

>  <i_m_source_file_index>  (1) 
57

>  <i_f3d_flags>  (1) 
0

>  <num_sample>  (1) 
100

>  <b_lp_Chiralities_Consistent>  (1) 
1

>  <r_epik_Charging_Adjusted_Penalty>  (1) 
0.022258434784609007

>  <r_epik_Ionization_Penalty>  (1) 
0.022258434785048374

>  <r_epik_Ionization_Penalty_Charging>  (1) 
0

>  <r_epik_Ionization_Penalty_Neutral>  (1) 
0.022258434785048374

>  <r_epik_State_Penalty>  (1) 
0.022258434784609007

>  <r_glide_ring_energy>  (1) 
0

>  <r_i_docking_score>  (1) 
-5.7316373107876046

>  <r_i_glide_ecoul>  (1) 
-0.58584224914180383

>  <r_i_glide_eff_state_penalty>  (1) 
0.022258434784609007

>  <r_i_glide_einternal>  (1) 
0

>  <r_i_glide_emodel>  (1) 
-26.6121802874049

>  <r_i_glide_emodel_strain>  (1) 
0.0030138370928396441

>  <r_i_glide_energy>  (1) 
-19.690634246676634

>  <r_i_glide_erotb>  (1) 
0

>  <r_i_glide_esite>  (1) 
0

>  <r_i_glide_evdw>  (1) 
-19.104791997534829

>  <r_i_glide_gscore>  (1) 
-5.7538957455722137

>  <r_i_glide_gscore_strain>  (1) 
0

>  <r_i_glide_hbond>  (1) 
0

>  <r_i_glide_ligand_efficiency>  (1) 
-0.71645466384845058

>  <r_i_glide_ligand_efficiency_ln>  (1) 
-1.8612586838264824

>  <r_i_glide_ligand_efficiency_sa>  (1) 
-1.4329093276969014

>  <r_i_glide_lipo>  (1) 
-2.1964871745225021

>  <r_i_glide_metal>  (1) 
-0

>  <r_i_glide_rewards>  (1) 
-2.5142926338016998

>  <r_lp_Energy>  (1) 
7.9607329999999994

>  <s_epik_cmdline>  (1) 
J2VwaWtfcHl0aG9uJywgJy1waHQnLCAnMS4wJywgJy1waCcsICc3LjQnLCAnLXRuJywgJzgnLCAnLW1hJywgJzUwMCcsICctaW1hZScsICc8aW5maWxlLm1hZT4nLCAnLW9tYWUnLCAnPG91dGZpbGUubWFlPic=

>  <s_epik_input>  (1) 
bjFbY0hdYyhbQ0gzXSlbY0hdW2NIXWMxW0NIM10=

>  <s_glide_docking_method>  (1) 
confgen

>  <s_i_glide_gridfile>  (1) 
gpcr_5ht2c_6bqh_protein_autoprepared_prepared

>  <s_lp_Force_Field>  (1) 
S-OPLS

>  <s_lp_Variant>  (1) 
Pocket2Mol_56-1

>  <s_m_source_file>  (1) 
generated_GPCR_5HT2C_ligand_Pocket2Mol_2026-06-23_prepared.sdf

>  <GenAI_Model>  (1) 
Pocket2Mol

>  <Protein>  (1) 
GPCR_5HT2C

$$$$
Pocket2Mol_0
     RDKit          3D

  0  0  0  0  0  0  0  0  0  0999 V3000
M  V30 BEGIN CTAB
M  V30 COUNTS 19 19 0 0 1
M  V30 BEGIN ATOM
M  V30 1 C 38.327046 26.977868 53.611754 0
M  V30 2 C 38.897780 28.179883 52.965260 0
M  V30 3 C 39.202501 28.150249 51.585493 0
M  V30 4 C 39.163154 29.358892 53.707547 0
M  V30 5 C 39.732992 30.481110 53.074559 0
M  V30 6 C 40.045106 30.436596 51.702720 0
M  V30 7 C 39.775212 29.274252 50.958546 0
M  V30 8 C 38.053755 26.874129 54.927787 0
M  V30 9 C 37.499499 25.638541 55.498708 0
M  V30 10 N 37.245138 25.507978 56.727165 0
M  V30 11 H 38.128773 26.137759 52.967762 0
M  V30 12 H 39.003302 27.258112 51.008484 0
M  V30 13 H 38.937011 29.403800 54.760124 0
M  V30 14 H 39.936121 31.374984 53.644592 0
M  V30 15 H 40.484884 31.297852 51.220399 0
M  V30 16 H 40.008675 29.242562 49.904337 0
M  V30 17 H 38.229964 27.680881 55.620523 0
M  V30 18 H 37.320914 24.830135 54.783907 0
M  V30 19 H 36.871127 24.598642 56.956840 0
M  V30 END ATOM
M  V30 BEGIN BOND
M  V30 1 1 2 1
M  V30 2 1 3 2
M  V30 3 2 4 2
M  V30 4 1 5 4
M  V30 5 2 6 5
M  V30 6 2 7 3
M  V30 7 1 7 6
M  V30 8 2 8 1
M  V30 9 1 9 8
M  V30 10 2 10 9
M  V30 11 1 11 1
M  V30 12 1 12 3
M  V30 13 1 13 4
M  V30 14 1 14 5
M  V30 15 1 15 6
M  V30 16 1 16 7
M  V30 17 1 17 8
M  V30 18 1 18 9
M  V30 19 1 19 10
M  V30 END BOND
M  V30 END CTAB
M  END
>  <i_epik_Tot_Q>  (1) 
0

>  <i_epik_Tot_abs_Q>  (1) 
0

>  <i_i_glide_confnum>  (1) 
1

>  <i_i_glide_lignum>  (1) 
1

>  <i_i_glide_posenum>  (1) 
316

>  <i_i_glide_rotatable_bonds>  (1) 
2

>  <i_lp_mmshare_version>  (1) 
72125

>  <i_m_source_file_index>  (1) 
1

>  <i_f3d_flags>  (1) 
0

>  <num_sample>  (1) 
100

>  <b_lp_Chiralities_Consistent>  (1) 
1

>  <r_epik_Charging_Adjusted_Penalty>  (1) 
0

>  <r_epik_Ionization_Penalty>  (1) 
0

>  <r_epik_Ionization_Penalty_Charging>  (1) 
0

>  <r_epik_Ionization_Penalty_Neutral>  (1) 
0

>  <r_epik_State_Penalty>  (1) 
-0

>  <r_glide_ring_energy>  (1) 
0

>  <r_i_docking_score>  (1) 
-5.7307167910089447

>  <r_i_glide_ecoul>  (1) 
-1.0467466429388916

>  <r_i_glide_eff_state_penalty>  (1) 
-0

>  <r_i_glide_einternal>  (1) 
0.043570078013292601

>  <r_i_glide_emodel>  (1) 
-29.507060044596265

>  <r_i_glide_emodel_strain>  (1) 
0

>  <r_i_glide_energy>  (1) 
-21.418045610894445

>  <r_i_glide_erotb>  (1) 
0.80789427267668723

>  <r_i_glide_esite>  (1) 
0

>  <r_i_glide_evdw>  (1) 
-20.371298967955553

>  <r_i_glide_gscore>  (1) 
-5.7307167910089447

>  <r_i_glide_gscore_strain>  (1) 
0

>  <r_i_glide_hbond>  (1) 
0

>  <r_i_glide_ligand_efficiency>  (1) 
-0.57307167910089452

>  <r_i_glide_ligand_efficiency_ln>  (1) 
-1.7352215399887281

>  <r_i_glide_ligand_efficiency_sa>  (1) 
-1.2346455053297869

>  <r_i_glide_lipo>  (1) 
-2.1630960528787067

>  <r_i_glide_metal>  (1) 
-0

>  <r_i_glide_rewards>  (1) 
-3.1999380659683156

>  <r_lp_Energy>  (1) 
9.4498509999999989

>  <r_lp_tautomer_probability>  (1) 
1

>  <s_epik_Chemistry_Notes>  (1) 
This compound has an imine and may undergo hydrolysis.

>  <s_epik_cmdline>  (1) 
J2VwaWtfcHl0aG9uJywgJy1waHQnLCAnMS4wJywgJy1waCcsICc3LjQnLCAnLXRuJywgJzgnLCAnLW1hJywgJzUwMCcsICctaW1hZScsICc8aW5maWxlLm1hZT4nLCAnLW9tYWUnLCAnPG91dGZpbGUubWFlPic=

>  <s_epik_input>  (1) 
W0hdXE49W0NIXVxbQ0hdPVtDSF1cYzFbY0hdW2NIXVtjSF1bY0hdW2NIXTE=

>  <s_glide_docking_method>  (1) 
confgen

>  <s_i_glide_gridfile>  (1) 
gpcr_5ht2c_6bqh_protein_autoprepared_prepared

>  <s_lp_Force_Field>  (1) 
S-OPLS

>  <s_lp_Variant>  (1) 
Pocket2Mol_0-1

>  <s_m_source_file>  (1) 
generated_GPCR_5HT2C_ligand_Pocket2Mol_2026-06-23_prepared.sdf

>  <GenAI_Model>  (1) 
Pocket2Mol

>  <Protein>  (1) 
GPCR_5HT2C

$$$$
Pocket2Mol_0
     RDKit          3D

  0  0  0  0  0  0  0  0  0  0999 V3000
M  V30 BEGIN CTAB
M  V30 COUNTS 19 19 0 0 1
M  V30 BEGIN ATOM
M  V30 1 C 38.178476 27.338132 54.776887 0
M  V30 2 C 38.707342 28.119817 53.633855 0
M  V30 3 C 38.806340 27.551584 52.338169 0
M  V30 4 C 39.128068 29.453591 53.835038 0
M  V30 5 C 39.645138 30.205691 52.761912 0
M  V30 6 C 39.741548 29.633800 51.480062 0
M  V30 7 C 39.320900 28.309468 51.268363 0
M  V30 8 C 37.750185 26.061714 54.691788 0
M  V30 9 C 37.245157 25.338118 55.865269 0
M  V30 10 N 36.845140 24.143198 55.807733 0
M  V30 11 H 38.145915 27.843878 55.732214 0
M  V30 12 H 38.491262 26.537761 52.162503 0
M  V30 13 H 39.057610 29.898885 54.817149 0
M  V30 14 H 39.967086 31.224482 52.922912 0
M  V30 15 H 40.137154 30.213275 50.658046 0
M  V30 16 H 39.393511 27.871512 50.283695 0
M  V30 17 H 37.758133 25.512625 53.767750 0
M  V30 18 H 37.237874 25.905201 56.800674 0
M  V30 19 H 36.531178 23.790692 56.700445 0
M  V30 END ATOM
M  V30 BEGIN BOND
M  V30 1 1 2 1
M  V30 2 1 3 2
M  V30 3 2 4 2
M  V30 4 1 5 4
M  V30 5 2 6 5
M  V30 6 2 7 3
M  V30 7 1 7 6
M  V30 8 2 8 1
M  V30 9 1 9 8
M  V30 10 2 10 9
M  V30 11 1 11 1
M  V30 12 1 12 3
M  V30 13 1 13 4
M  V30 14 1 14 5
M  V30 15 1 15 6
M  V30 16 1 16 7
M  V30 17 1 17 8
M  V30 18 1 18 9
M  V30 19 1 19 10
M  V30 END BOND
M  V30 END CTAB
M  END
>  <i_epik_Tot_Q>  (1) 
0

>  <i_epik_Tot_abs_Q>  (1) 
0

>  <i_i_glide_confnum>  (1) 
1

>  <i_i_glide_lignum>  (1) 
1

>  <i_i_glide_posenum>  (1) 
231

>  <i_i_glide_rotatable_bonds>  (1) 
2

>  <i_lp_mmshare_version>  (1) 
72125

>  <i_m_source_file_index>  (1) 
1

>  <i_f3d_flags>  (1) 
0

>  <num_sample>  (1) 
100

>  <b_lp_Chiralities_Consistent>  (1) 
1

>  <r_epik_Charging_Adjusted_Penalty>  (1) 
0

>  <r_epik_Ionization_Penalty>  (1) 
0

>  <r_epik_Ionization_Penalty_Charging>  (1) 
0

>  <r_epik_Ionization_Penalty_Neutral>  (1) 
0

>  <r_epik_State_Penalty>  (1) 
-0

>  <r_glide_ring_energy>  (1) 
0

>  <r_i_docking_score>  (1) 
-5.7284683967784291

>  <r_i_glide_ecoul>  (1) 
-0.93758157022002842

>  <r_i_glide_eff_state_penalty>  (1) 
-0

>  <r_i_glide_einternal>  (1) 
0.67864806979230008

>  <r_i_glide_emodel>  (1) 
-29.648699415954582

>  <r_i_glide_emodel_strain>  (1) 
0

>  <r_i_glide_energy>  (1) 
-21.880406176007622

>  <r_i_glide_erotb>  (1) 
0.80789427267668723

>  <r_i_glide_esite>  (1) 
0

>  <r_i_glide_evdw>  (1) 
-20.942824605787592

>  <r_i_glide_gscore>  (1) 
-5.7284683967784291

>  <r_i_glide_gscore_strain>  (1) 
0

>  <r_i_glide_hbond>  (1) 
0

>  <r_i_glide_ligand_efficiency>  (1) 
-0.57284683967784289

>  <r_i_glide_ligand_efficiency_ln>  (1) 
-1.7345407417148893

>  <r_i_glide_ligand_efficiency_sa>  (1) 
-1.2341611034770779

>  <r_i_glide_lipo>  (1) 
-2.365911451797666

>  <r_i_glide_metal>  (1) 
-0

>  <r_i_glide_rewards>  (1) 
-2.9826727518350671

>  <r_lp_Energy>  (1) 
9.4498509999999989

>  <r_lp_tautomer_probability>  (1) 
1

>  <s_epik_Chemistry_Notes>  (1) 
This compound has an imine and may undergo hydrolysis.

>  <s_epik_cmdline>  (1) 
J2VwaWtfcHl0aG9uJywgJy1waHQnLCAnMS4wJywgJy1waCcsICc3LjQnLCAnLXRuJywgJzgnLCAnLW1hJywgJzUwMCcsICctaW1hZScsICc8aW5maWxlLm1hZT4nLCAnLW9tYWUnLCAnPG91dGZpbGUubWFlPic=

>  <s_epik_input>  (1) 
W0hdXE49W0NIXVxbQ0hdPVtDSF1cYzFbY0hdW2NIXVtjSF1bY0hdW2NIXTE=

>  <s_glide_docking_method>  (1) 
confgen

>  <s_i_glide_gridfile>  (1) 
gpcr_5ht2c_6bqh_protein_autoprepared_prepared

>  <s_lp_Force_Field>  (1) 
S-OPLS

>  <s_lp_Variant>  (1) 
Pocket2Mol_0-1

>  <s_m_source_file>  (1) 
generated_GPCR_5HT2C_ligand_Pocket2Mol_2026-06-23_prepared.sdf

>  <GenAI_Model>  (1) 
Pocket2Mol

>  <Protein>  (1) 
GPCR_5HT2C

$$$$
Pocket2Mol_34
     RDKit          3D

  0  0  0  0  0  0  0  0  0  0999 V3000
M  V30 BEGIN CTAB
M  V30 COUNTS 12 12 0 0 1
M  V30 BEGIN ATOM
M  V30 1 C 40.045132 30.179595 51.688310 0
M  V30 2 C 39.919336 29.194821 50.688481 0
M  V30 3 C 39.245143 27.989580 50.967828 0
M  V30 4 C 38.696898 27.769347 52.246923 0
M  V30 5 C 39.497010 29.959461 52.967193 0
M  V30 6 F 39.618014 30.905883 53.927775 0
M  V30 7 C 38.822954 28.754427 53.246426 0
M  V30 8 H 40.561691 31.103872 51.475422 0
M  V30 9 H 40.339807 29.364149 49.708071 0
M  V30 10 H 39.148594 27.234425 50.201373 0
M  V30 11 H 38.179959 26.845570 52.461591 0
M  V30 12 H 38.403140 28.586803 54.227289 0
M  V30 END ATOM
M  V30 BEGIN BOND
M  V30 1 1 2 1
M  V30 2 2 3 2
M  V30 3 1 4 3
M  V30 4 2 5 1
M  V30 5 1 6 5
M  V30 6 2 7 4
M  V30 7 1 7 5
M  V30 8 1 8 1
M  V30 9 1 9 2
M  V30 10 1 10 3
M  V30 11 1 11 4
M  V30 12 1 12 7
M  V30 END BOND
M  V30 END CTAB
M  END
>  <i_epik_Tot_Q>  (1) 
0

>  <i_epik_Tot_abs_Q>  (1) 
0

>  <i_i_glide_confnum>  (1) 
1

>  <i_i_glide_lignum>  (1) 
37

>  <i_i_glide_posenum>  (1) 
320

>  <i_i_glide_rotatable_bonds>  (1) 
0

>  <i_lp_mmshare_version>  (1) 
72125

>  <i_m_source_file_index>  (1) 
35

>  <i_f3d_flags>  (1) 
0

>  <num_sample>  (1) 
100

>  <b_lp_Chiralities_Consistent>  (1) 
1

>  <r_epik_Charging_Adjusted_Penalty>  (1) 
0

>  <r_epik_Ionization_Penalty>  (1) 
0

>  <r_epik_Ionization_Penalty_Charging>  (1) 
0

>  <r_epik_Ionization_Penalty_Neutral>  (1) 
0

>  <r_epik_State_Penalty>  (1) 
-0

>  <r_glide_ring_energy>  (1) 
0

>  <r_i_docking_score>  (1) 
-5.72486701543653

>  <r_i_glide_ecoul>  (1) 
-0.42010585421579266

>  <r_i_glide_eff_state_penalty>  (1) 
-0

>  <r_i_glide_einternal>  (1) 
0

>  <r_i_glide_emodel>  (1) 
-21.348055567008011

>  <r_i_glide_emodel_strain>  (1) 
0

>  <r_i_glide_energy>  (1) 
-15.704831160142954

>  <r_i_glide_erotb>  (1) 
0

>  <r_i_glide_esite>  (1) 
0

>  <r_i_glide_evdw>  (1) 
-15.284725305927161

>  <r_i_glide_gscore>  (1) 
-5.72486701543653

>  <r_i_glide_gscore_strain>  (1) 
0

>  <r_i_glide_hbond>  (1) 
0

>  <r_i_glide_ligand_efficiency>  (1) 
-0.81783814506236141

>  <r_i_glide_ligand_efficiency_ln>  (1) 
-1.9433270961344036

>  <r_i_glide_ligand_efficiency_sa>  (1) 
-1.5644680901505199

>  <r_i_glide_lipo>  (1) 
-1.8561150194511378

>  <r_i_glide_metal>  (1) 
-0

>  <r_i_glide_rewards>  (1) 
-3.0414998525566657

>  <r_lp_Energy>  (1) 
8.194445

>  <r_lp_tautomer_probability>  (1) 
1

>  <s_epik_cmdline>  (1) 
J2VwaWtfcHl0aG9uJywgJy1waHQnLCAnMS4wJywgJy1waCcsICc3LjQnLCAnLXRuJywgJzgnLCAnLW1hJywgJzUwMCcsICctaW1hZScsICc8aW5maWxlLm1hZT4nLCAnLW9tYWUnLCAnPG91dGZpbGUubWFlPic=

>  <s_epik_input>  (1) 
RmMxW2NIXVtjSF1bY0hdW2NIXVtjSF0x

>  <s_glide_docking_method>  (1) 
confgen

>  <s_i_glide_gridfile>  (1) 
gpcr_5ht2c_6bqh_protein_autoprepared_prepared

>  <s_lp_Force_Field>  (1) 
S-OPLS

>  <s_lp_Variant>  (1) 
Pocket2Mol_34-1

>  <s_m_source_file>  (1) 
generated_GPCR_5HT2C_ligand_Pocket2Mol_2026-06-23_prepared.sdf

>  <GenAI_Model>  (1) 
Pocket2Mol

>  <Protein>  (1) 
GPCR_5HT2C

$$$$
Pocket2Mol_96
     RDKit          3D

  0  0  0  0  0  0  0  0  0  0999 V3000
M  V30 BEGIN CTAB
M  V30 COUNTS 18 19 0 0 1
M  V30 BEGIN ATOM
M  V30 1 C 38.591385 30.278833 54.961375 0
M  V30 2 C 39.245789 30.771691 53.797041 0
M  V30 3 C 38.320662 28.953429 54.753860 0
M  V30 4 C 39.339661 29.737718 52.912229 0
M  V30 5 N 38.784504 28.617035 53.493904 0
M  V30 6 C 39.913668 29.655158 51.541536 0
M  V30 7 O 40.541464 30.593183 51.063056 0
M  V30 8 C 38.728698 27.312509 52.893479 0
M  V30 9 N 39.697843 28.508999 50.868330 0
M  V30 10 C 38.845144 27.426470 51.367764 0
M  V30 11 H 38.348998 30.833113 55.857112 0
M  V30 12 H 39.601094 31.773070 53.624312 0
M  V30 13 H 37.846309 28.215950 55.385221 0
M  V30 14 H 39.556779 26.725975 53.293704 0
M  V30 15 H 37.802071 26.813235 53.179898 0
M  V30 16 H 40.080245 28.413153 49.940103 0
M  V30 17 H 39.188328 26.487323 50.942449 0
M  V30 18 H 37.849428 27.606161 50.967762 0
M  V30 END ATOM
M  V30 BEGIN BOND
M  V30 1 1 2 1
M  V30 2 2 3 1
M  V30 3 2 4 2
M  V30 4 1 5 3
M  V30 5 1 5 4
M  V30 6 1 6 4
M  V30 7 2 7 6
M  V30 8 1 8 5
M  V30 9 1 9 6
M  V30 10 1 10 8
M  V30 11 1 10 9
M  V30 12 1 11 1
M  V30 13 1 12 2
M  V30 14 1 13 3
M  V30 15 1 14 8
M  V30 16 1 15 8
M  V30 17 1 16 9
M  V30 18 1 17 10
M  V30 19 1 18 10
M  V30 END BOND
M  V30 END CTAB
M  END
>  <i_epik_Tot_Q>  (1) 
0

>  <i_epik_Tot_abs_Q>  (1) 
0

>  <i_i_glide_confnum>  (1) 
1

>  <i_i_glide_lignum>  (1) 
101

>  <i_i_glide_posenum>  (1) 
265

>  <i_i_glide_rotatable_bonds>  (1) 
0

>  <i_lp_mmshare_version>  (1) 
72125

>  <i_m_source_file_index>  (1) 
97

>  <i_f3d_flags>  (1) 
0

>  <num_sample>  (1) 
100

>  <b_lp_Chiralities_Consistent>  (1) 
1

>  <r_epik_Charging_Adjusted_Penalty>  (1) 
0

>  <r_epik_Ionization_Penalty>  (1) 
5.1203149696400337e-08

>  <r_epik_Ionization_Penalty_Charging>  (1) 
0

>  <r_epik_Ionization_Penalty_Neutral>  (1) 
5.1203149696400337e-08

>  <r_epik_State_Penalty>  (1) 
-0

>  <r_glide_ring_energy>  (1) 
0

>  <r_i_docking_score>  (1) 
-5.7237537746298086

>  <r_i_glide_ecoul>  (1) 
-0.31846553979695152

>  <r_i_glide_eff_state_penalty>  (1) 
-0

>  <r_i_glide_einternal>  (1) 
0

>  <r_i_glide_emodel>  (1) 
-32.295001447327522

>  <r_i_glide_emodel_strain>  (1) 
0

>  <r_i_glide_energy>  (1) 
-23.497227125694277

>  <r_i_glide_erotb>  (1) 
0

>  <r_i_glide_esite>  (1) 
0

>  <r_i_glide_evdw>  (1) 
-23.178761585897327

>  <r_i_glide_gscore>  (1) 
-5.7237537746298086

>  <r_i_glide_gscore_strain>  (1) 
0

>  <r_i_glide_hbond>  (1) 
0

>  <r_i_glide_ligand_efficiency>  (1) 
-0.57237537746298084

>  <r_i_glide_ligand_efficiency_ln>  (1) 
-1.7331131866282325

>  <r_i_glide_ligand_efficiency_sa>  (1) 
-1.2331453689263396

>  <r_i_glide_lipo>  (1) 
-1.4669124954297039

>  <r_i_glide_metal>  (1) 
-0

>  <r_i_glide_rewards>  (1) 
-3.050133368935696

>  <r_lp_Energy>  (1) 
15.907292999999999

>  <r_lp_tautomer_probability>  (1) 
1

>  <s_epik_cmdline>  (1) 
J2VwaWtfcHl0aG9uJywgJy1waHQnLCAnMS4wJywgJy1waCcsICc3LjQnLCAnLXRuJywgJzgnLCAnLW1hJywgJzUwMCcsICctaW1hZScsICc8aW5maWxlLm1hZT4nLCAnLW9tYWUnLCAnPG91dGZpbGUubWFlPic=

>  <s_epik_input>  (1) 
W2NIXTFbY0hdW2NIXW4oYzEyKVtDSDJdW0NIMl1bTkhdQzI9Tw==

>  <s_glide_docking_method>  (1) 
confgen

>  <s_i_glide_gridfile>  (1) 
gpcr_5ht2c_6bqh_protein_autoprepared_prepared

>  <s_lp_Force_Field>  (1) 
S-OPLS

>  <s_lp_Variant>  (1) 
Pocket2Mol_96-1

>  <s_m_source_file>  (1) 
generated_GPCR_5HT2C_ligand_Pocket2Mol_2026-06-23_prepared.sdf

>  <GenAI_Model>  (1) 
Pocket2Mol

>  <Protein>  (1) 
GPCR_5HT2C

$$$$
Pocket2Mol_30
     RDKit          3D

  0  0  0  0  0  0  0  0  0  0999 V3000
M  V30 BEGIN CTAB
M  V30 COUNTS 14 14 0 0 1
M  V30 BEGIN ATOM
M  V30 1 C 39.645138 30.248034 52.956861 0
M  V30 2 C 38.843876 29.250767 53.545689 0
M  V30 3 C 38.441959 28.131650 52.788791 0
M  V30 4 N 37.645137 27.148115 53.367760 0
M  V30 5 C 40.045137 30.126889 51.611035 0
M  V30 6 C 38.845137 28.009735 51.444231 0
M  V30 7 C 39.645794 29.007093 50.855746 0
M  V30 8 H 39.951853 31.106878 53.536064 0
M  V30 9 H 38.536138 29.346075 54.576890 0
M  V30 10 H 37.191061 26.459960 52.778772 0
M  V30 11 H 37.212742 27.308543 54.265783 0
M  V30 12 H 40.658542 30.893142 51.158823 0
M  V30 13 H 38.538018 27.152016 50.862957 0
M  V30 14 H 39.951652 28.914447 49.823989 0
M  V30 END ATOM
M  V30 BEGIN BOND
M  V30 1 1 2 1
M  V30 2 2 3 2
M  V30 3 1 4 3
M  V30 4 2 5 1
M  V30 5 1 6 3
M  V30 6 1 7 5
M  V30 7 2 7 6
M  V30 8 1 8 1
M  V30 9 1 9 2
M  V30 10 1 10 4
M  V30 11 1 11 4
M  V30 12 1 12 5
M  V30 13 1 13 6
M  V30 14 1 14 7
M  V30 END BOND
M  V30 END CTAB
M  END
>  <i_epik_Tot_Q>  (1) 
0

>  <i_epik_Tot_abs_Q>  (1) 
0

>  <i_i_glide_confnum>  (1) 
1

>  <i_i_glide_lignum>  (1) 
33

>  <i_i_glide_posenum>  (1) 
258

>  <i_i_glide_rotatable_bonds>  (1) 
0

>  <i_lp_mmshare_version>  (1) 
72125

>  <i_m_source_file_index>  (1) 
31

>  <i_f3d_flags>  (1) 
0

>  <num_sample>  (1) 
100

>  <b_lp_Chiralities_Consistent>  (1) 
1

>  <r_epik_Charging_Adjusted_Penalty>  (1) 
0

>  <r_epik_Ionization_Penalty>  (1) 
0.00088153335660618348

>  <r_epik_Ionization_Penalty_Charging>  (1) 
0

>  <r_epik_Ionization_Penalty_Neutral>  (1) 
0.00088153335660618348

>  <r_epik_State_Penalty>  (1) 
-0

>  <r_glide_ring_energy>  (1) 
0

>  <r_i_docking_score>  (1) 
-5.7168661548159863

>  <r_i_glide_ecoul>  (1) 
-1.870668870697267

>  <r_i_glide_eff_state_penalty>  (1) 
-0

>  <r_i_glide_einternal>  (1) 
0

>  <r_i_glide_emodel>  (1) 
-25.015123337237782

>  <r_i_glide_emodel_strain>  (1) 
0

>  <r_i_glide_energy>  (1) 
-18.70150846715995

>  <r_i_glide_erotb>  (1) 
0

>  <r_i_glide_esite>  (1) 
0

>  <r_i_glide_evdw>  (1) 
-16.830839596462685

>  <r_i_glide_gscore>  (1) 
-5.7168661548159863

>  <r_i_glide_gscore_strain>  (1) 
0

>  <r_i_glide_hbond>  (1) 
-0.17984264444114964

>  <r_i_glide_ligand_efficiency>  (1) 
-0.81669516497371231

>  <r_i_glide_ligand_efficiency_ln>  (1) 
-1.9406111746650709

>  <r_i_glide_ligand_efficiency_sa>  (1) 
-1.5622816478976551

>  <r_i_glide_lipo>  (1) 
-1.8837909243931037

>  <r_i_glide_metal>  (1) 
-0

>  <r_i_glide_rewards>  (1) 
-2.5310902755540075

>  <r_lp_Energy>  (1) 
7.0325409999999993

>  <r_lp_tautomer_probability>  (1) 
1

>  <s_epik_cmdline>  (1) 
J2VwaWtfcHl0aG9uJywgJy1waHQnLCAnMS4wJywgJy1waCcsICc3LjQnLCAnLXRuJywgJzgnLCAnLW1hJywgJzUwMCcsICctaW1hZScsICc8aW5maWxlLm1hZT4nLCAnLW9tYWUnLCAnPG91dGZpbGUubWFlPic=

>  <s_epik_input>  (1) 
W2NIXTFbY0hdW2NIXVtjSF1bY0hdYzFbTkgyXQ==

>  <s_glide_docking_method>  (1) 
confgen

>  <s_i_glide_gridfile>  (1) 
gpcr_5ht2c_6bqh_protein_autoprepared_prepared

>  <s_lp_Force_Field>  (1) 
S-OPLS

>  <s_lp_Variant>  (1) 
Pocket2Mol_30-1

>  <s_m_source_file>  (1) 
generated_GPCR_5HT2C_ligand_Pocket2Mol_2026-06-23_prepared.sdf

>  <GenAI_Model>  (1) 
Pocket2Mol

>  <Protein>  (1) 
GPCR_5HT2C

$$$$
Pocket2Mol_27
     RDKit          3D

  0  0  0  0  0  0  0  0  0  0999 V3000
M  V30 BEGIN CTAB
M  V30 COUNTS 15 15 0 0 1
M  V30 BEGIN ATOM
M  V30 1 C 40.045137 30.137739 51.781662 0
M  V30 2 C 39.961430 29.175993 50.756472 0
M  V30 3 C 39.245138 27.981472 50.967766 0
M  V30 4 C 39.412592 29.904452 53.020888 0
M  V30 5 C 38.611035 27.749135 52.203392 0
M  V30 6 C 39.504571 30.937753 54.124307 0
M  V30 7 C 38.694508 28.708829 53.230025 0
M  V30 8 H 40.594400 31.054523 51.618550 0
M  V30 9 H 40.444986 29.354866 49.807741 0
M  V30 10 H 39.180366 27.243947 50.180946 0
M  V30 11 H 38.059877 26.834817 52.363583 0
M  V30 12 H 38.969601 30.618430 55.018797 0
M  V30 13 H 40.546567 31.109253 54.396062 0
M  V30 14 H 39.070653 31.880637 53.792071 0
M  V30 15 H 38.207825 28.527880 54.177646 0
M  V30 END ATOM
M  V30 BEGIN BOND
M  V30 1 1 2 1
M  V30 2 2 3 2
M  V30 3 2 4 1
M  V30 4 1 5 3
M  V30 5 1 6 4
M  V30 6 1 7 4
M  V30 7 2 7 5
M  V30 8 1 8 1
M  V30 9 1 9 2
M  V30 10 1 10 3
M  V30 11 1 11 5
M  V30 12 1 12 6
M  V30 13 1 13 6
M  V30 14 1 14 6
M  V30 15 1 15 7
M  V30 END BOND
M  V30 END CTAB
M  END
>  <i_epik_Tot_Q>  (1) 
0

>  <i_epik_Tot_abs_Q>  (1) 
0

>  <i_i_glide_confnum>  (1) 
1

>  <i_i_glide_lignum>  (1) 
30

>  <i_i_glide_posenum>  (1) 
283

>  <i_i_glide_rotatable_bonds>  (1) 
0

>  <i_lp_mmshare_version>  (1) 
72125

>  <i_m_source_file_index>  (1) 
28

>  <i_f3d_flags>  (1) 
0

>  <num_sample>  (1) 
100

>  <b_lp_Chiralities_Consistent>  (1) 
1

>  <r_epik_Charging_Adjusted_Penalty>  (1) 
0

>  <r_epik_Ionization_Penalty>  (1) 
0

>  <r_epik_Ionization_Penalty_Charging>  (1) 
0

>  <r_epik_Ionization_Penalty_Neutral>  (1) 
0

>  <r_epik_State_Penalty>  (1) 
-0

>  <r_glide_ring_energy>  (1) 
0

>  <r_i_docking_score>  (1) 
-5.7097250673766222

>  <r_i_glide_ecoul>  (1) 
-1.0082277054232733

>  <r_i_glide_eff_state_penalty>  (1) 
-0

>  <r_i_glide_einternal>  (1) 
0

>  <r_i_glide_emodel>  (1) 
-23.569579417966807

>  <r_i_glide_emodel_strain>  (1) 
0

>  <r_i_glide_energy>  (1) 
-17.371339342269884

>  <r_i_glide_erotb>  (1) 
0

>  <r_i_glide_esite>  (1) 
0

>  <r_i_glide_evdw>  (1) 
-16.363111636846611

>  <r_i_glide_gscore>  (1) 
-5.7097250673766222

>  <r_i_glide_gscore_strain>  (1) 
0

>  <r_i_glide_hbond>  (1) 
0

>  <r_i_glide_ligand_efficiency>  (1) 
-0.81567500962523176

>  <r_i_glide_ligand_efficiency_ln>  (1) 
-1.9381871063540759

>  <r_i_glide_ligand_efficiency_sa>  (1) 
-1.5603301609202744

>  <r_i_glide_lipo>  (1) 
-2.166347363550345

>  <r_i_glide_metal>  (1) 
-0

>  <r_i_glide_rewards>  (1) 
-2.5739879661704554

>  <r_lp_Energy>  (1) 
6.403492

>  <r_lp_tautomer_probability>  (1) 
1

>  <s_epik_cmdline>  (1) 
J2VwaWtfcHl0aG9uJywgJy1waHQnLCAnMS4wJywgJy1waCcsICc3LjQnLCAnLXRuJywgJzgnLCAnLW1hJywgJzUwMCcsICctaW1hZScsICc8aW5maWxlLm1hZT4nLCAnLW9tYWUnLCAnPG91dGZpbGUubWFlPic=

>  <s_epik_input>  (1) 
W0NIM11jMVtjSF1bY0hdW2NIXVtjSF1bY0hdMQ==

>  <s_glide_docking_method>  (1) 
confgen

>  <s_i_glide_gridfile>  (1) 
gpcr_5ht2c_6bqh_protein_autoprepared_prepared

>  <s_lp_Force_Field>  (1) 
S-OPLS

>  <s_lp_Variant>  (1) 
Pocket2Mol_27-1

>  <s_m_source_file>  (1) 
generated_GPCR_5HT2C_ligand_Pocket2Mol_2026-06-23_prepared.sdf

>  <GenAI_Model>  (1) 
Pocket2Mol

>  <Protein>  (1) 
GPCR_5HT2C

$$$$
Pocket2Mol_49
     RDKit          3D

  0  0  0  0  0  0  0  0  0  0999 V3000
M  V30 BEGIN CTAB
M  V30 COUNTS 16 16 0 0 1
M  V30 BEGIN ATOM
M  V30 1 C 40.045137 30.493098 52.398695 0
M  V30 2 C 40.042384 29.354694 51.570492 0
M  V30 3 C 39.235844 28.244397 51.899193 0
M  V30 4 C 39.247742 27.014261 51.016724 0
M  V30 5 C 38.425252 28.280933 53.055619 0
M  V30 6 O 37.633049 27.215149 53.372800 0
M  V30 7 C 39.245141 30.524689 53.557714 0
M  V30 8 C 38.433578 29.420258 53.884360 0
M  V30 9 H 40.663542 31.340174 52.146863 0
M  V30 10 H 40.661547 29.331845 50.685447 0
M  V30 11 H 39.910816 27.157586 50.167760 0
M  V30 12 H 39.629326 26.163136 51.580727 0
M  V30 13 H 38.255396 26.773828 50.643136 0
M  V30 14 H 37.499359 26.620236 52.648216 0
M  V30 15 H 39.249701 31.398289 54.193324 0
M  V30 16 H 37.816087 29.448258 54.770485 0
M  V30 END ATOM
M  V30 BEGIN BOND
M  V30 1 1 2 1
M  V30 2 2 3 2
M  V30 3 1 4 3
M  V30 4 1 5 3
M  V30 5 1 6 5
M  V30 6 2 7 1
M  V30 7 2 8 5
M  V30 8 1 8 7
M  V30 9 1 9 1
M  V30 10 1 10 2
M  V30 11 1 11 4
M  V30 12 1 12 4
M  V30 13 1 13 4
M  V30 14 1 14 6
M  V30 15 1 15 7
M  V30 16 1 16 8
M  V30 END BOND
M  V30 END CTAB
M  END
>  <i_epik_Tot_Q>  (1) 
0

>  <i_epik_Tot_abs_Q>  (1) 
0

>  <i_i_glide_confnum>  (1) 
1

>  <i_i_glide_lignum>  (1) 
52

>  <i_i_glide_posenum>  (1) 
204

>  <i_i_glide_rotatable_bonds>  (1) 
1

>  <i_lp_mmshare_version>  (1) 
72125

>  <i_m_source_file_index>  (1) 
50

>  <i_f3d_flags>  (1) 
0

>  <num_sample>  (1) 
100

>  <b_lp_Chiralities_Consistent>  (1) 
1

>  <r_epik_Charging_Adjusted_Penalty>  (1) 
0

>  <r_epik_Ionization_Penalty>  (1) 
0.00081241911792291806

>  <r_epik_Ionization_Penalty_Charging>  (1) 
0

>  <r_epik_Ionization_Penalty_Neutral>  (1) 
0.00081241911792291806

>  <r_epik_State_Penalty>  (1) 
-0

>  <r_glide_ring_energy>  (1) 
0

>  <r_i_docking_score>  (1) 
-5.7052283885674671

>  <r_i_glide_ecoul>  (1) 
-2.5099565548773719

>  <r_i_glide_eff_state_penalty>  (1) 
-0

>  <r_i_glide_einternal>  (1) 
0.4302220500457421

>  <r_i_glide_emodel>  (1) 
-26.542760643143694

>  <r_i_glide_emodel_strain>  (1) 
0.0036765466613690734

>  <r_i_glide_energy>  (1) 
-19.604189868401917

>  <r_i_glide_erotb>  (1) 
0

>  <r_i_glide_esite>  (1) 
0

>  <r_i_glide_evdw>  (1) 
-17.094233313524544

>  <r_i_glide_gscore>  (1) 
-5.7052283885674671

>  <r_i_glide_gscore_strain>  (1) 
0

>  <r_i_glide_hbond>  (1) 
-0.062544356309216051

>  <r_i_glide_ligand_efficiency>  (1) 
-0.71315354857093338

>  <r_i_glide_ligand_efficiency_ln>  (1) 
-1.8526828034719776

>  <r_i_glide_ligand_efficiency_sa>  (1) 
-1.426307097141867

>  <r_i_glide_lipo>  (1) 
-2.0192909175078553

>  <r_i_glide_metal>  (1) 
-0

>  <r_i_glide_rewards>  (1) 
-2.3921879658425627

>  <r_lp_Energy>  (1) 
7.6312429999999996

>  <r_lp_tautomer_probability>  (1) 
1

>  <s_epik_cmdline>  (1) 
J2VwaWtfcHl0aG9uJywgJy1waHQnLCAnMS4wJywgJy1waCcsICc3LjQnLCAnLXRuJywgJzgnLCAnLW1hJywgJzUwMCcsICctaW1hZScsICc8aW5maWxlLm1hZT4nLCAnLW9tYWUnLCAnPG91dGZpbGUubWFlPic=

>  <s_epik_input>  (1) 
W0NIM11jMVtjSF1bY0hdW2NIXVtjSF1jMVtPSF0=

>  <s_glide_docking_method>  (1) 
confgen

>  <s_i_glide_gridfile>  (1) 
gpcr_5ht2c_6bqh_protein_autoprepared_prepared

>  <s_lp_Force_Field>  (1) 
S-OPLS

>  <s_lp_Variant>  (1) 
Pocket2Mol_49-1

>  <s_m_source_file>  (1) 
generated_GPCR_5HT2C_ligand_Pocket2Mol_2026-06-23_prepared.sdf

>  <GenAI_Model>  (1) 
Pocket2Mol

>  <Protein>  (1) 
GPCR_5HT2C

$$$$
Pocket2Mol_51
     RDKit          3D

  0  0  0  0  0  0  0  0  0  0999 V3000
M  V30 BEGIN CTAB
M  V30 COUNTS 18 18 0 0 1
M  V30 BEGIN ATOM
M  V30 1 C 37.933953 29.239469 54.308740 0
M  V30 2 C 38.022345 28.241927 53.317404 0
M  V30 3 C 38.922025 28.394574 52.242256 0
M  V30 4 C 39.024479 27.322707 51.182635 0
M  V30 5 C 38.746024 30.388705 54.226675 0
M  V30 6 C 38.652020 31.462393 55.292588 0
M  V30 7 C 39.645117 30.537899 53.151574 0
M  V30 8 C 39.729520 29.544380 52.159270 0
M  V30 9 H 37.245097 29.122865 55.132172 0
M  V30 10 H 37.401256 27.360041 53.382252 0
M  V30 11 H 39.444903 27.710904 50.254699 0
M  V30 12 H 39.645258 26.503087 51.536477 0
M  V30 13 H 38.045136 26.914985 50.967757 0
M  V30 14 H 38.913413 32.440443 54.887783 0
M  V30 15 H 37.638645 31.528755 55.690777 0
M  V30 16 H 39.330482 31.238239 56.116054 0
M  V30 17 H 40.268519 31.414349 53.086555 0
M  V30 18 H 40.419725 29.662467 51.336655 0
M  V30 END ATOM
M  V30 BEGIN BOND
M  V30 1 2 2 1
M  V30 2 1 3 2
M  V30 3 1 4 3
M  V30 4 1 5 1
M  V30 5 1 6 5
M  V30 6 2 7 5
M  V30 7 2 8 3
M  V30 8 1 8 7
M  V30 9 1 9 1
M  V30 10 1 10 2
M  V30 11 1 11 4
M  V30 12 1 12 4
M  V30 13 1 13 4
M  V30 14 1 14 6
M  V30 15 1 15 6
M  V30 16 1 16 6
M  V30 17 1 17 7
M  V30 18 1 18 8
M  V30 END BOND
M  V30 END CTAB
M  END
>  <i_epik_Tot_Q>  (1) 
0

>  <i_epik_Tot_abs_Q>  (1) 
0

>  <i_i_glide_confnum>  (1) 
1

>  <i_i_glide_lignum>  (1) 
54

>  <i_i_glide_posenum>  (1) 
32

>  <i_i_glide_rotatable_bonds>  (1) 
0

>  <i_lp_mmshare_version>  (1) 
72125

>  <i_m_source_file_index>  (1) 
52

>  <i_f3d_flags>  (1) 
0

>  <num_sample>  (1) 
100

>  <b_lp_Chiralities_Consistent>  (1) 
1

>  <r_epik_Charging_Adjusted_Penalty>  (1) 
0

>  <r_epik_Ionization_Penalty>  (1) 
0

>  <r_epik_Ionization_Penalty_Charging>  (1) 
0

>  <r_epik_Ionization_Penalty_Neutral>  (1) 
0

>  <r_epik_State_Penalty>  (1) 
-0

>  <r_glide_ring_energy>  (1) 
0

>  <r_i_docking_score>  (1) 
-5.697596737716216

>  <r_i_glide_ecoul>  (1) 
-1.3026680043207433

>  <r_i_glide_eff_state_penalty>  (1) 
-0

>  <r_i_glide_einternal>  (1) 
0

>  <r_i_glide_emodel>  (1) 
-25.243850985900064

>  <r_i_glide_emodel_strain>  (1) 
0

>  <r_i_glide_energy>  (1) 
-18.519969163746591

>  <r_i_glide_erotb>  (1) 
0

>  <r_i_glide_esite>  (1) 
0

>  <r_i_glide_evdw>  (1) 
-17.217301159425848

>  <r_i_glide_gscore>  (1) 
-5.697596737716216

>  <r_i_glide_gscore_strain>  (1) 
0

>  <r_i_glide_hbond>  (1) 
0

>  <r_i_glide_ligand_efficiency>  (1) 
-0.712199592214527

>  <r_i_glide_ligand_efficiency_ln>  (1) 
-1.8502045454021434

>  <r_i_glide_ligand_efficiency_sa>  (1) 
-1.4243991844290542

>  <r_i_glide_lipo>  (1) 
-2.0886851749270439

>  <r_i_glide_metal>  (1) 
-0

>  <r_i_glide_rewards>  (1) 
-2.5526463041697682

>  <r_lp_Energy>  (1) 
3.9239269999999999

>  <r_lp_tautomer_probability>  (1) 
1

>  <s_epik_cmdline>  (1) 
J2VwaWtfcHl0aG9uJywgJy1waHQnLCAnMS4wJywgJy1waCcsICc3LjQnLCAnLXRuJywgJzgnLCAnLW1hJywgJzUwMCcsICctaW1hZScsICc8aW5maWxlLm1hZT4nLCAnLW9tYWUnLCAnPG91dGZpbGUubWFlPic=

>  <s_epik_input>  (1) 
W2NIXTFbY0hdYyhbQ0gzXSlbY0hdW2NIXWMxW0NIM10=

>  <s_glide_docking_method>  (1) 
confgen

>  <s_i_glide_gridfile>  (1) 
gpcr_5ht2c_6bqh_protein_autoprepared_prepared

>  <s_lp_Force_Field>  (1) 
S-OPLS

>  <s_lp_Variant>  (1) 
Pocket2Mol_51-1

>  <s_m_source_file>  (1) 
generated_GPCR_5HT2C_ligand_Pocket2Mol_2026-06-23_prepared.sdf

>  <GenAI_Model>  (1) 
Pocket2Mol

>  <Protein>  (1) 
GPCR_5HT2C

$$$$
Pocket2Mol_69
     RDKit          3D

  0  0  0  0  0  0  0  0  0  0999 V3000
M  V30 BEGIN CTAB
M  V30 COUNTS 15 16 0 0 1
M  V30 BEGIN ATOM
M  V30 1 C 40.547956 27.027095 57.526135 0
M  V30 2 O 39.831029 25.927949 58.167759 0
M  V30 3 O 40.092924 27.270457 56.160155 0
M  V30 4 C 38.999012 25.597511 57.176849 0
M  V30 5 C 39.142831 26.334369 56.074107 0
M  V30 6 C 38.349229 26.123080 54.935803 0
M  V30 7 C 37.373589 25.099672 54.967761 0
M  V30 8 C 38.045109 24.569691 57.260557 0
M  V30 9 C 37.219450 24.316603 56.140284 0
M  V30 10 H 41.614194 26.797858 57.509155 0
M  V30 11 H 40.400908 27.934210 58.113777 0
M  V30 12 H 38.481370 26.730281 54.052396 0
M  V30 13 H 36.750647 24.916012 54.104796 0
M  V30 14 H 37.944079 23.984017 58.162555 0
M  V30 15 H 36.477584 23.532173 56.176665 0
M  V30 END ATOM
M  V30 BEGIN BOND
M  V30 1 1 2 1
M  V30 2 1 3 1
M  V30 3 1 4 2
M  V30 4 1 5 3
M  V30 5 1 5 4
M  V30 6 2 6 5
M  V30 7 1 7 6
M  V30 8 2 8 4
M  V30 9 2 9 7
M  V30 10 1 9 8
M  V30 11 1 10 1
M  V30 12 1 11 1
M  V30 13 1 12 6
M  V30 14 1 13 7
M  V30 15 1 14 8
M  V30 16 1 15 9
M  V30 END BOND
M  V30 END CTAB
M  END
>  <i_epik_Tot_Q>  (1) 
0

>  <i_epik_Tot_abs_Q>  (1) 
0

>  <i_i_glide_confnum>  (1) 
1

>  <i_i_glide_lignum>  (1) 
74

>  <i_i_glide_posenum>  (1) 
242

>  <i_i_glide_rotatable_bonds>  (1) 
0

>  <i_lp_mmshare_version>  (1) 
72125

>  <i_m_source_file_index>  (1) 
70

>  <i_f3d_flags>  (1) 
0

>  <num_sample>  (1) 
100

>  <b_lp_Chiralities_Consistent>  (1) 
1

>  <r_epik_Charging_Adjusted_Penalty>  (1) 
0

>  <r_epik_Ionization_Penalty>  (1) 
0

>  <r_epik_Ionization_Penalty_Charging>  (1) 
0

>  <r_epik_Ionization_Penalty_Neutral>  (1) 
0

>  <r_epik_State_Penalty>  (1) 
-0

>  <r_glide_ring_energy>  (1) 
0

>  <r_i_docking_score>  (1) 
-5.6908264943097855

>  <r_i_glide_ecoul>  (1) 
-0.85058528577373704

>  <r_i_glide_eff_state_penalty>  (1) 
-0

>  <r_i_glide_einternal>  (1) 
0

>  <r_i_glide_emodel>  (1) 
-25.925223892469742

>  <r_i_glide_emodel_strain>  (1) 
0

>  <r_i_glide_energy>  (1) 
-18.585894897143014

>  <r_i_glide_erotb>  (1) 
0

>  <r_i_glide_esite>  (1) 
0

>  <r_i_glide_evdw>  (1) 
-17.735309611369278

>  <r_i_glide_gscore>  (1) 
-5.6908264943097855

>  <r_i_glide_gscore_strain>  (1) 
0

>  <r_i_glide_hbond>  (1) 
0

>  <r_i_glide_ligand_efficiency>  (1) 
-0.6323140549233095

>  <r_i_glide_ligand_efficiency_ln>  (1) 
-1.7799270450532818

>  <r_i_glide_ligand_efficiency_sa>  (1) 
-1.3152662367343295

>  <r_i_glide_lipo>  (1) 
-1.9116237749016658

>  <r_i_glide_metal>  (1) 
-0

>  <r_i_glide_rewards>  (1) 
-2.7648494459735948

>  <r_lp_Energy>  (1) 
19.342499999999998

>  <r_lp_tautomer_probability>  (1) 
1

>  <s_epik_Chemistry_Notes>  (1) 
This compound contains an acetal/aminal-like group ( X-CH(R)-Y where X, Y are N, S, or O) that may be acid/base labile, releasing an aldehyde.

>  <s_epik_cmdline>  (1) 
J2VwaWtfcHl0aG9uJywgJy1waHQnLCAnMS4wJywgJy1waCcsICc3LjQnLCAnLXRuJywgJzgnLCAnLW1hJywgJzUwMCcsICctaW1hZScsICc8aW5maWxlLm1hZT4nLCAnLW9tYWUnLCAnPG91dGZpbGUubWFlPic=

>  <s_epik_input>  (1) 
TzFbQ0gyXU9jKGMxMilbY0hdW2NIXVtjSF1bY0hdMg==

>  <s_glide_docking_method>  (1) 
confgen

>  <s_i_glide_gridfile>  (1) 
gpcr_5ht2c_6bqh_protein_autoprepared_prepared

>  <s_lp_Force_Field>  (1) 
S-OPLS

>  <s_lp_Variant>  (1) 
Pocket2Mol_69-1

>  <s_m_source_file>  (1) 
generated_GPCR_5HT2C_ligand_Pocket2Mol_2026-06-23_prepared.sdf

>  <GenAI_Model>  (1) 
Pocket2Mol

>  <Protein>  (1) 
GPCR_5HT2C

$$$$
Pocket2Mol_73
     RDKit          3D

  0  0  0  0  0  0  0  0  0  0999 V3000
M  V30 BEGIN CTAB
M  V30 COUNTS 15 16 0 0 1
M  V30 BEGIN ATOM
M  V30 1 C 38.629026 27.838581 51.764056 0
M  V30 2 C 38.445136 28.640344 52.960747 0
M  V30 3 C 39.583311 28.465418 51.046765 0
M  V30 4 C 40.014117 29.657648 51.767762 0
M  V30 5 C 39.317443 29.737735 52.911725 0
M  V30 6 C 39.377916 30.715892 53.951740 0
M  V30 7 N 37.640607 28.428842 53.916068 0
M  V30 8 N 38.620649 30.616652 54.968811 0
M  V30 9 C 37.645846 29.464864 55.014600 0
M  V30 10 H 38.074995 26.937755 51.553011 0
M  V30 11 H 39.964842 28.138714 50.092089 0
M  V30 12 H 40.767917 30.357740 51.436184 0
M  V30 13 H 40.094675 31.527832 53.820472 0
M  V30 14 H 37.792551 28.944196 55.961509 0
M  V30 15 H 36.641184 29.884669 55.088167 0
M  V30 END ATOM
M  V30 BEGIN BOND
M  V30 1 1 2 1
M  V30 2 2 3 1
M  V30 3 1 4 3
M  V30 4 1 5 2
M  V30 5 2 5 4
M  V30 6 1 6 5
M  V30 7 2 7 2
M  V30 8 2 8 6
M  V30 9 1 9 7
M  V30 10 1 9 8
M  V30 11 1 10 1
M  V30 12 1 11 3
M  V30 13 1 12 4
M  V30 14 1 13 6
M  V30 15 1 14 9
M  V30 16 1 15 9
M  V30 END BOND
M  V30 END CTAB
M  END
>  <i_epik_Tot_Q>  (1) 
0

>  <i_epik_Tot_abs_Q>  (1) 
0

>  <i_i_glide_confnum>  (1) 
1

>  <i_i_glide_lignum>  (1) 
78

>  <i_i_glide_posenum>  (1) 
82

>  <i_i_glide_rotatable_bonds>  (1) 
0

>  <i_lp_mmshare_version>  (1) 
72125

>  <i_m_source_file_index>  (1) 
74

>  <i_f3d_flags>  (1) 
0

>  <num_sample>  (1) 
100

>  <b_lp_Chiralities_Consistent>  (1) 
1

>  <r_epik_Charging_Adjusted_Penalty>  (1) 
0

>  <r_epik_Ionization_Penalty>  (1) 
1.1225786931258508e-06

>  <r_epik_Ionization_Penalty_Charging>  (1) 
0

>  <r_epik_Ionization_Penalty_Neutral>  (1) 
1.1225786931258508e-06

>  <r_epik_State_Penalty>  (1) 
-0

>  <r_glide_ring_energy>  (1) 
0

>  <r_i_docking_score>  (1) 
-5.6900784816570322

>  <r_i_glide_ecoul>  (1) 
-0.58312697784560741

>  <r_i_glide_eff_state_penalty>  (1) 
-0

>  <r_i_glide_einternal>  (1) 
0

>  <r_i_glide_emodel>  (1) 
-29.692033171480663

>  <r_i_glide_emodel_strain>  (1) 
0

>  <r_i_glide_energy>  (1) 
-22.004336284613597

>  <r_i_glide_erotb>  (1) 
0

>  <r_i_glide_esite>  (1) 
0

>  <r_i_glide_evdw>  (1) 
-21.421209306767988

>  <r_i_glide_gscore>  (1) 
-5.6900784816570322

>  <r_i_glide_gscore_strain>  (1) 
0

>  <r_i_glide_hbond>  (1) 
0

>  <r_i_glide_ligand_efficiency>  (1) 
-0.63223094240633693

>  <r_i_glide_ligand_efficiency_ln>  (1) 
-1.7796930881839224

>  <r_i_glide_ligand_efficiency_sa>  (1) 
-1.3150933557322817

>  <r_i_glide_lipo>  (1) 
-1.2254281536701934

>  <r_i_glide_metal>  (1) 
-0

>  <r_i_glide_rewards>  (1) 
-3.3061208159715978

>  <r_lp_Energy>  (1) 
3.4627279999999998

>  <r_lp_tautomer_probability>  (1) 
1

>  <s_epik_Chemistry_Notes>  (1) 
This compound has an imine and may undergo hydrolysis. This compound contains an acetal/aminal-like group ( X-CH(R)-Y where X, Y are N, S, or O) that may be acid/base labile, releasing an aldehyde.

>  <s_epik_cmdline>  (1) 
J2VwaWtfcHl0aG9uJywgJy1waHQnLCAnMS4wJywgJy1waCcsICc3LjQnLCAnLXRuJywgJzgnLCAnLW1hJywgJzUwMCcsICctaW1hZScsICc8aW5maWxlLm1hZT4nLCAnLW9tYWUnLCAnPG91dGZpbGUubWFlPic=

>  <s_epik_input>  (1) 
W0NIXTE9W0NIXVtDSF09QyhDMT0yKVtDSF09TltDSDJdTjI=

>  <s_glide_docking_method>  (1) 
confgen

>  <s_i_glide_gridfile>  (1) 
gpcr_5ht2c_6bqh_protein_autoprepared_prepared

>  <s_lp_Force_Field>  (1) 
S-OPLS

>  <s_lp_Variant>  (1) 
Pocket2Mol_73-1

>  <s_m_source_file>  (1) 
generated_GPCR_5HT2C_ligand_Pocket2Mol_2026-06-23_prepared.sdf

>  <GenAI_Model>  (1) 
Pocket2Mol

>  <Protein>  (1) 
GPCR_5HT2C

$$$$
Pocket2Mol_27
     RDKit          3D

  0  0  0  0  0  0  0  0  0  0999 V3000
M  V30 BEGIN CTAB
M  V30 COUNTS 15 15 0 0 1
M  V30 BEGIN ATOM
M  V30 1 C 38.811854 27.904022 51.643662 0
M  V30 2 C 39.634551 28.826204 50.968469 0
M  V30 3 C 40.046994 30.006949 51.615283 0
M  V30 4 C 38.400132 28.163241 52.967275 0
M  V30 5 C 39.644053 30.263496 52.940613 0
M  V30 6 C 37.504919 27.178232 53.688303 0
M  V30 7 C 38.819201 29.343279 53.616304 0
M  V30 8 H 38.491709 27.000220 51.144717 0
M  V30 9 H 39.945715 28.629562 49.953288 0
M  V30 10 H 40.676528 30.715372 51.096173 0
M  V30 11 H 39.963384 31.168711 53.436631 0
M  V30 12 H 37.569445 27.301139 54.769836 0
M  V30 13 H 36.470192 27.337755 53.383890 0
M  V30 14 H 37.779873 26.151738 53.445290 0
M  V30 15 H 38.505542 29.544245 54.630667 0
M  V30 END ATOM
M  V30 BEGIN BOND
M  V30 1 1 2 1
M  V30 2 2 3 2
M  V30 3 2 4 1
M  V30 4 1 5 3
M  V30 5 1 6 4
M  V30 6 1 7 4
M  V30 7 2 7 5
M  V30 8 1 8 1
M  V30 9 1 9 2
M  V30 10 1 10 3
M  V30 11 1 11 5
M  V30 12 1 12 6
M  V30 13 1 13 6
M  V30 14 1 14 6
M  V30 15 1 15 7
M  V30 END BOND
M  V30 END CTAB
M  END
>  <i_epik_Tot_Q>  (1) 
0

>  <i_epik_Tot_abs_Q>  (1) 
0

>  <i_i_glide_confnum>  (1) 
1

>  <i_i_glide_lignum>  (1) 
30

>  <i_i_glide_posenum>  (1) 
364

>  <i_i_glide_rotatable_bonds>  (1) 
0

>  <i_lp_mmshare_version>  (1) 
72125

>  <i_m_source_file_index>  (1) 
28

>  <i_f3d_flags>  (1) 
0

>  <num_sample>  (1) 
100

>  <b_lp_Chiralities_Consistent>  (1) 
1

>  <r_epik_Charging_Adjusted_Penalty>  (1) 
0

>  <r_epik_Ionization_Penalty>  (1) 
0

>  <r_epik_Ionization_Penalty_Charging>  (1) 
0

>  <r_epik_Ionization_Penalty_Neutral>  (1) 
0

>  <r_epik_State_Penalty>  (1) 
-0

>  <r_glide_ring_energy>  (1) 
0

>  <r_i_docking_score>  (1) 
-5.6824139360537504

>  <r_i_glide_ecoul>  (1) 
-0.87711645684072947

>  <r_i_glide_eff_state_penalty>  (1) 
-0

>  <r_i_glide_einternal>  (1) 
0

>  <r_i_glide_emodel>  (1) 
-23.753080957449249

>  <r_i_glide_emodel_strain>  (1) 
0

>  <r_i_glide_energy>  (1) 
-17.584488710094409

>  <r_i_glide_erotb>  (1) 
0

>  <r_i_glide_esite>  (1) 
0

>  <r_i_glide_evdw>  (1) 
-16.707372253253681

>  <r_i_glide_gscore>  (1) 
-5.6824139360537504

>  <r_i_glide_gscore_strain>  (1) 
0

>  <r_i_glide_hbond>  (1) 
0

>  <r_i_glide_ligand_efficiency>  (1) 
-0.81177341943625003

>  <r_i_glide_ligand_efficiency_ln>  (1) 
-1.9289162427020972

>  <r_i_glide_ligand_efficiency_sa>  (1) 
-1.5528666873853727

>  <r_i_glide_lipo>  (1) 
-2.1758195695782607

>  <r_i_glide_metal>  (1) 
-0

>  <r_i_glide_rewards>  (1) 
-2.5396582852866971

>  <r_lp_Energy>  (1) 
6.403492

>  <r_lp_tautomer_probability>  (1) 
1

>  <s_epik_cmdline>  (1) 
J2VwaWtfcHl0aG9uJywgJy1waHQnLCAnMS4wJywgJy1waCcsICc3LjQnLCAnLXRuJywgJzgnLCAnLW1hJywgJzUwMCcsICctaW1hZScsICc8aW5maWxlLm1hZT4nLCAnLW9tYWUnLCAnPG91dGZpbGUubWFlPic=

>  <s_epik_input>  (1) 
W0NIM11jMVtjSF1bY0hdW2NIXVtjSF1bY0hdMQ==

>  <s_glide_docking_method>  (1) 
confgen

>  <s_i_glide_gridfile>  (1) 
gpcr_5ht2c_6bqh_protein_autoprepared_prepared

>  <s_lp_Force_Field>  (1) 
S-OPLS

>  <s_lp_Variant>  (1) 
Pocket2Mol_27-1

>  <s_m_source_file>  (1) 
generated_GPCR_5HT2C_ligand_Pocket2Mol_2026-06-23_prepared.sdf

>  <GenAI_Model>  (1) 
Pocket2Mol

>  <Protein>  (1) 
GPCR_5HT2C

$$$$
Pocket2Mol_75
     RDKit          3D

  0  0  0  0  0  0  0  0  0  0999 V3000
M  V30 BEGIN CTAB
M  V30 COUNTS 21 22 0 0 1
M  V30 BEGIN ATOM
M  V30 1 C 38.810236 27.944983 51.639405 0
M  V30 2 C 38.955306 28.503753 53.061680 0 CFG=1
M  V30 3 C 39.905196 28.667759 50.835749 0
M  V30 4 C 40.045137 30.036877 51.499372 0
M  V30 5 N 39.625362 29.798488 52.871278 0
M  V30 6 N 39.245138 30.905633 53.589115 0
M  V30 7 C 38.448846 30.831595 54.604314 0
M  V30 8 C 37.814751 29.533619 55.040142 0
M  V30 9 C 37.645141 28.581223 53.850571 0
M  V30 10 H 38.907449 26.860060 51.602166 0
M  V30 11 H 37.833993 28.200618 51.229691 0
M  V30 12 H 39.645137 27.870825 53.618263 0
M  V30 13 H 40.845135 28.137755 50.967760 0
M  V30 14 H 39.689354 28.729631 49.768661 0
M  V30 15 H 41.062970 30.420516 51.448369 0
M  V30 16 H 39.383196 30.762253 51.027852 0
M  V30 17 H 38.219934 31.730088 55.178372 0
M  V30 18 H 38.426123 29.074015 55.817164 0
M  V30 19 H 36.841400 29.737840 55.486307 0
M  V30 20 H 36.845137 28.937756 53.204746 0
M  V30 21 H 37.340688 27.589948 54.187920 0
M  V30 END ATOM
M  V30 BEGIN BOND
M  V30 1 1 2 1
M  V30 2 1 3 1
M  V30 3 1 4 3
M  V30 4 1 5 2
M  V30 5 1 5 4
M  V30 6 1 6 5
M  V30 7 2 7 6
M  V30 8 1 8 7
M  V30 9 1 9 2
M  V30 10 1 9 8
M  V30 11 1 10 1
M  V30 12 1 11 1
M  V30 13 1 2 12 CFG=1
M  V30 14 1 13 3
M  V30 15 1 14 3
M  V30 16 1 15 4
M  V30 17 1 16 4
M  V30 18 1 17 7
M  V30 19 1 18 8
M  V30 20 1 19 8
M  V30 21 1 20 9
M  V30 22 1 21 9
M  V30 END BOND
M  V30 END CTAB
M  END
>  <i_epik_Tot_Q>  (1) 
0

>  <i_epik_Tot_abs_Q>  (1) 
0

>  <i_i_glide_confnum>  (1) 
1

>  <i_i_glide_lignum>  (1) 
80

>  <i_i_glide_posenum>  (1) 
282

>  <i_i_glide_rotatable_bonds>  (1) 
0

>  <i_lp_mmshare_version>  (1) 
72125

>  <i_m_source_file_index>  (1) 
76

>  <i_f3d_flags>  (1) 
0

>  <num_sample>  (1) 
100

>  <b_lp_Chiralities_Consistent>  (1) 
1

>  <r_epik_Charging_Adjusted_Penalty>  (1) 
0

>  <r_epik_Ionization_Penalty>  (1) 
0.0031146778150898829

>  <r_epik_Ionization_Penalty_Charging>  (1) 
0

>  <r_epik_Ionization_Penalty_Neutral>  (1) 
0.0031146778150898829

>  <r_epik_State_Penalty>  (1) 
-0

>  <r_glide_ring_energy>  (1) 
0

>  <r_i_docking_score>  (1) 
-5.6820071340910827

>  <r_i_glide_ecoul>  (1) 
-0.22501276643598223

>  <r_i_glide_eff_state_penalty>  (1) 
-0

>  <r_i_glide_einternal>  (1) 
0

>  <r_i_glide_emodel>  (1) 
-28.638873226615793

>  <r_i_glide_emodel_strain>  (1) 
0

>  <r_i_glide_energy>  (1) 
-21.201051006471296

>  <r_i_glide_erotb>  (1) 
0

>  <r_i_glide_esite>  (1) 
0

>  <r_i_glide_evdw>  (1) 
-20.976038240035315

>  <r_i_glide_gscore>  (1) 
-5.6820071340910827

>  <r_i_glide_gscore_strain>  (1) 
0

>  <r_i_glide_hbond>  (1) 
0

>  <r_i_glide_ligand_efficiency>  (1) 
-0.63133412601012029

>  <r_i_glide_ligand_efficiency_ln>  (1) 
-1.777168602533723

>  <r_i_glide_ligand_efficiency_sa>  (1) 
-1.3132279024542639

>  <r_i_glide_lipo>  (1) 
-1.5918289505113556

>  <r_i_glide_metal>  (1) 
-0

>  <r_i_glide_rewards>  (1) 
-3.0076243566125642

>  <r_lp_Energy>  (1) 
16.062878999999999

>  <r_lp_tautomer_probability>  (1) 
1

>  <s_epik_Chemistry_Notes>  (1) 
This compound has an imine and may undergo hydrolysis.

>  <s_epik_cmdline>  (1) 
J2VwaWtfcHl0aG9uJywgJy1waHQnLCAnMS4wJywgJy1waCcsICc3LjQnLCAnLXRuJywgJzgnLCAnLW1hJywgJzUwMCcsICctaW1hZScsICc8aW5maWxlLm1hZT4nLCAnLW9tYWUnLCAnPG91dGZpbGUubWFlPic=

>  <s_epik_input>  (1) 
W0NIMl0xW0NIMl1bQ0gyXU4oW0NASF0xMilOPVtDSF1bQ0gyXVtDSDJdMg==

>  <s_glide_docking_method>  (1) 
confgen

>  <s_i_glide_gridfile>  (1) 
gpcr_5ht2c_6bqh_protein_autoprepared_prepared

>  <s_lp_Force_Field>  (1) 
S-OPLS

>  <s_lp_Variant>  (1) 
Pocket2Mol_75-1

>  <s_m_source_file>  (1) 
generated_GPCR_5HT2C_ligand_Pocket2Mol_2026-06-23_prepared.sdf

>  <GenAI_Model>  (1) 
Pocket2Mol

>  <Protein>  (1) 
GPCR_5HT2C

$$$$
Pocket2Mol_0
     RDKit          3D

  0  0  0  0  0  0  0  0  0  0999 V3000
M  V30 BEGIN CTAB
M  V30 COUNTS 19 19 0 0 1
M  V30 BEGIN ATOM
M  V30 1 C 38.084076 27.330226 53.204782 0
M  V30 2 C 38.889535 28.372435 52.469359 0
M  V30 3 C 39.245131 28.119780 51.123137 0
M  V30 4 C 39.284446 29.607735 53.056937 0
M  V30 5 C 40.045137 30.535566 52.316483 0
M  V30 6 C 40.406054 30.257432 50.989529 0
M  V30 7 C 40.002133 29.056380 50.392194 0
M  V30 8 C 37.965270 27.135821 54.554647 0
M  V30 9 C 38.696028 27.880978 55.604837 0
M  V30 10 N 38.445142 27.736211 56.832295 0
M  V30 11 H 37.529666 26.659742 52.568086 0
M  V30 12 H 38.941795 27.194979 50.652518 0
M  V30 13 H 38.988737 29.866767 54.050713 0
M  V30 14 H 40.340527 31.468203 52.768371 0
M  V30 15 H 40.985610 30.974058 50.425336 0
M  V30 16 H 40.270992 28.850226 49.367782 0
M  V30 17 H 37.306013 26.365136 54.927361 0
M  V30 18 H 39.482302 28.541047 55.268873 0
M  V30 19 H 39.032062 28.304150 57.426583 0
M  V30 END ATOM
M  V30 BEGIN BOND
M  V30 1 1 2 1
M  V30 2 1 3 2
M  V30 3 2 4 2
M  V30 4 1 5 4
M  V30 5 2 6 5
M  V30 6 2 7 3
M  V30 7 1 7 6
M  V30 8 2 8 1
M  V30 9 1 9 8
M  V30 10 2 10 9
M  V30 11 1 11 1
M  V30 12 1 12 3
M  V30 13 1 13 4
M  V30 14 1 14 5
M  V30 15 1 15 6
M  V30 16 1 16 7
M  V30 17 1 17 8
M  V30 18 1 18 9
M  V30 19 1 19 10
M  V30 END BOND
M  V30 END CTAB
M  END
>  <i_epik_Tot_Q>  (1) 
0

>  <i_epik_Tot_abs_Q>  (1) 
0

>  <i_i_glide_confnum>  (1) 
1

>  <i_i_glide_lignum>  (1) 
2

>  <i_i_glide_posenum>  (1) 
331

>  <i_i_glide_rotatable_bonds>  (1) 
2

>  <i_lp_mmshare_version>  (1) 
72125

>  <i_m_source_file_index>  (1) 
1

>  <i_f3d_flags>  (1) 
0

>  <num_sample>  (1) 
100

>  <b_lp_Chiralities_Consistent>  (1) 
1

>  <r_epik_Charging_Adjusted_Penalty>  (1) 
0

>  <r_epik_Ionization_Penalty>  (1) 
0

>  <r_epik_Ionization_Penalty_Charging>  (1) 
0

>  <r_epik_Ionization_Penalty_Neutral>  (1) 
0

>  <r_epik_State_Penalty>  (1) 
-0

>  <r_glide_ring_energy>  (1) 
0

>  <r_i_docking_score>  (1) 
-5.6801056878616514

>  <r_i_glide_ecoul>  (1) 
-1.3323606354704434

>  <r_i_glide_eff_state_penalty>  (1) 
-0

>  <r_i_glide_einternal>  (1) 
0.42680230226913274

>  <r_i_glide_emodel>  (1) 
-29.13388024098855

>  <r_i_glide_emodel_strain>  (1) 
0

>  <r_i_glide_energy>  (1) 
-21.141855634911629

>  <r_i_glide_erotb>  (1) 
0.80789427267668723

>  <r_i_glide_esite>  (1) 
0

>  <r_i_glide_evdw>  (1) 
-19.809494999441185

>  <r_i_glide_gscore>  (1) 
-5.6801056878616514

>  <r_i_glide_gscore_strain>  (1) 
0

>  <r_i_glide_hbond>  (1) 
0

>  <r_i_glide_ligand_efficiency>  (1) 
-0.56801056878616518

>  <r_i_glide_ligand_efficiency_ln>  (1) 
-1.7198968468401221

>  <r_i_glide_ligand_efficiency_sa>  (1) 
-1.2237416736976559

>  <r_i_glide_lipo>  (1) 
-2.2789902679156389

>  <r_i_glide_metal>  (1) 
-0

>  <r_i_glide_rewards>  (1) 
-3.0186808473300748

>  <r_lp_Energy>  (1) 
13.405619999999999

>  <r_lp_tautomer_probability>  (1) 
1

>  <s_epik_Chemistry_Notes>  (1) 
This compound has an imine and may undergo hydrolysis.

>  <s_epik_cmdline>  (1) 
J2VwaWtfcHl0aG9uJywgJy1waHQnLCAnMS4wJywgJy1waCcsICc3LjQnLCAnLXRuJywgJzgnLCAnLW1hJywgJzUwMCcsICctaW1hZScsICc8aW5maWxlLm1hZT4nLCAnLW9tYWUnLCAnPG91dGZpbGUubWFlPic=

>  <s_epik_input>  (1) 
W0hdL049W0NIXS9bQ0hdPVtDSF1cYzFbY0hdW2NIXVtjSF1bY0hdW2NIXTE=

>  <s_glide_docking_method>  (1) 
confgen

>  <s_i_glide_gridfile>  (1) 
gpcr_5ht2c_6bqh_protein_autoprepared_prepared

>  <s_lp_Force_Field>  (1) 
S-OPLS

>  <s_lp_Variant>  (1) 
Pocket2Mol_0-2

>  <s_m_source_file>  (1) 
generated_GPCR_5HT2C_ligand_Pocket2Mol_2026-06-23_prepared.sdf

>  <GenAI_Model>  (1) 
Pocket2Mol

>  <Protein>  (1) 
GPCR_5HT2C

$$$$
Pocket2Mol_59
     RDKit          3D

  0  0  0  0  0  0  0  0  0  0999 V3000
M  V30 BEGIN CTAB
M  V30 COUNTS 16 16 0 0 1
M  V30 BEGIN ATOM
M  V30 1 C 40.444333 30.261503 50.991014 0
M  V30 2 C 40.045137 30.472740 52.324454 0
M  V30 3 C 39.245095 29.518974 52.983662 0
M  V30 4 N 38.850814 29.738361 54.305641 0
M  V30 5 C 40.045137 29.096471 50.313906 0
M  V30 6 C 38.842187 28.345427 52.301763 0
M  V30 7 N 38.045128 27.394525 52.943476 0
M  V30 8 C 39.245139 28.137735 50.967763 0
M  V30 9 H 41.057457 30.995400 50.488195 0
M  V30 10 H 40.354050 31.366010 52.842092 0
M  V30 11 H 38.992047 30.639687 54.739325 0
M  V30 12 H 38.153691 29.149623 54.732750 0
M  V30 13 H 40.350203 28.937764 49.290882 0
M  V30 14 H 37.617908 27.614336 53.828718 0
M  V30 15 H 37.584701 26.671619 52.403550 0
M  V30 16 H 38.939432 27.243395 50.443699 0
M  V30 END ATOM
M  V30 BEGIN BOND
M  V30 1 1 2 1
M  V30 2 2 3 2
M  V30 3 1 4 3
M  V30 4 2 5 1
M  V30 5 1 6 3
M  V30 6 1 7 6
M  V30 7 1 8 5
M  V30 8 2 8 6
M  V30 9 1 9 1
M  V30 10 1 10 2
M  V30 11 1 11 4
M  V30 12 1 12 4
M  V30 13 1 13 5
M  V30 14 1 14 7
M  V30 15 1 15 7
M  V30 16 1 16 8
M  V30 END BOND
M  V30 END CTAB
M  END
>  <i_epik_Tot_Q>  (1) 
0

>  <i_epik_Tot_abs_Q>  (1) 
0

>  <i_i_glide_confnum>  (1) 
1

>  <i_i_glide_lignum>  (1) 
63

>  <i_i_glide_posenum>  (1) 
87

>  <i_i_glide_rotatable_bonds>  (1) 
0

>  <i_lp_mmshare_version>  (1) 
72125

>  <i_m_source_file_index>  (1) 
60

>  <i_f3d_flags>  (1) 
0

>  <num_sample>  (1) 
100

>  <b_lp_Chiralities_Consistent>  (1) 
1

>  <r_epik_Charging_Adjusted_Penalty>  (1) 
0.0055702355519192566

>  <r_epik_Ionization_Penalty>  (1) 
0.0049730634188153225

>  <r_epik_Ionization_Penalty_Charging>  (1) 
0

>  <r_epik_Ionization_Penalty_Neutral>  (1) 
0.0049730634188153225

>  <r_epik_State_Penalty>  (1) 
0.0055702355519192566

>  <r_glide_ring_energy>  (1) 
0

>  <r_i_docking_score>  (1) 
-5.6758098343819183

>  <r_i_glide_ecoul>  (1) 
-1.8724920679234658

>  <r_i_glide_eff_state_penalty>  (1) 
0.0055702355519192566

>  <r_i_glide_einternal>  (1) 
0

>  <r_i_glide_emodel>  (1) 
-27.308075094763709

>  <r_i_glide_emodel_strain>  (1) 
0

>  <r_i_glide_energy>  (1) 
-20.387401739125185

>  <r_i_glide_erotb>  (1) 
0

>  <r_i_glide_esite>  (1) 
0

>  <r_i_glide_evdw>  (1) 
-18.514909671201718

>  <r_i_glide_gscore>  (1) 
-5.6813800699338373

>  <r_i_glide_gscore_strain>  (1) 
0

>  <r_i_glide_hbond>  (1) 
-0.12941937308301246

>  <r_i_glide_ligand_efficiency>  (1) 
-0.70947622929773979

>  <r_i_glide_ligand_efficiency_ln>  (1) 
-1.843129592674704

>  <r_i_glide_ligand_efficiency_sa>  (1) 
-1.4189524585954798

>  <r_i_glide_lipo>  (1) 
-1.7267569696644087

>  <r_i_glide_metal>  (1) 
-0

>  <r_i_glide_rewards>  (1) 
-2.6185844334378108

>  <r_lp_Energy>  (1) 
13.721331999999999

>  <s_epik_cmdline>  (1) 
J2VwaWtfcHl0aG9uJywgJy1waHQnLCAnMS4wJywgJy1waCcsICc3LjQnLCAnLXRuJywgJzgnLCAnLW1hJywgJzUwMCcsICctaW1hZScsICc8aW5maWxlLm1hZT4nLCAnLW9tYWUnLCAnPG91dGZpbGUubWFlPic=

>  <s_epik_input>  (1) 
W05IMl1jMVtjSF1bY0hdW2NIXVtjSF1jMVtOSDJd

>  <s_glide_docking_method>  (1) 
confgen

>  <s_i_glide_gridfile>  (1) 
gpcr_5ht2c_6bqh_protein_autoprepared_prepared

>  <s_lp_Force_Field>  (1) 
S-OPLS

>  <s_lp_Variant>  (1) 
Pocket2Mol_59-1

>  <s_m_source_file>  (1) 
generated_GPCR_5HT2C_ligand_Pocket2Mol_2026-06-23_prepared.sdf

>  <GenAI_Model>  (1) 
Pocket2Mol

>  <Protein>  (1) 
GPCR_5HT2C

$$$$
Pocket2Mol_41
     RDKit          3D

  0  0  0  0  0  0  0  0  0  0999 V3000
M  V30 BEGIN CTAB
M  V30 COUNTS 15 15 0 0 1
M  V30 BEGIN ATOM
M  V30 1 C 39.025416 27.551011 51.734278 0
M  V30 2 C 39.645136 28.492271 50.850207 0
M  V30 3 C 39.827518 29.724306 51.422398 0
M  V30 4 C 40.427139 30.936484 50.804268 0
M  V30 5 C 38.744468 28.079737 52.969834 0
M  V30 6 C 38.102704 27.401261 54.131503 0
M  V30 7 S 39.245134 29.737544 53.057558 0
M  V30 8 H 38.810495 26.537912 51.434504 0
M  V30 9 H 39.926090 28.235518 49.841031 0
M  V30 10 H 40.872962 30.710930 49.835030 0
M  V30 11 H 39.670063 31.707581 50.656308 0
M  V30 12 H 41.207315 31.337752 51.446693 0
M  V30 13 H 37.840248 26.370535 53.890762 0
M  V30 14 H 38.773305 27.389314 54.990711 0
M  V30 15 H 37.190249 27.920068 54.424234 0
M  V30 END ATOM
M  V30 BEGIN BOND
M  V30 1 1 2 1
M  V30 2 2 3 2
M  V30 3 1 4 3
M  V30 4 2 5 1
M  V30 5 1 6 5
M  V30 6 1 7 3
M  V30 7 1 7 5
M  V30 8 1 8 1
M  V30 9 1 9 2
M  V30 10 1 10 4
M  V30 11 1 11 4
M  V30 12 1 12 4
M  V30 13 1 13 6
M  V30 14 1 14 6
M  V30 15 1 15 6
M  V30 END BOND
M  V30 END CTAB
M  END
>  <i_epik_Tot_Q>  (1) 
0

>  <i_epik_Tot_abs_Q>  (1) 
0

>  <i_i_glide_confnum>  (1) 
1

>  <i_i_glide_lignum>  (1) 
44

>  <i_i_glide_posenum>  (1) 
287

>  <i_i_glide_rotatable_bonds>  (1) 
0

>  <i_lp_mmshare_version>  (1) 
72125

>  <i_m_source_file_index>  (1) 
42

>  <i_f3d_flags>  (1) 
0

>  <num_sample>  (1) 
100

>  <b_lp_Chiralities_Consistent>  (1) 
1

>  <r_epik_Charging_Adjusted_Penalty>  (1) 
0

>  <r_epik_Ionization_Penalty>  (1) 
0

>  <r_epik_Ionization_Penalty_Charging>  (1) 
0

>  <r_epik_Ionization_Penalty_Neutral>  (1) 
0

>  <r_epik_State_Penalty>  (1) 
-0

>  <r_glide_ring_energy>  (1) 
0

>  <r_i_docking_score>  (1) 
-5.6726490896230333

>  <r_i_glide_ecoul>  (1) 
-0.60952908112515225

>  <r_i_glide_eff_state_penalty>  (1) 
-0

>  <r_i_glide_einternal>  (1) 
0

>  <r_i_glide_emodel>  (1) 
-24.639891325239663

>  <r_i_glide_emodel_strain>  (1) 
0

>  <r_i_glide_energy>  (1) 
-18.040190886051931

>  <r_i_glide_erotb>  (1) 
0

>  <r_i_glide_esite>  (1) 
0

>  <r_i_glide_evdw>  (1) 
-17.430661804926778

>  <r_i_glide_gscore>  (1) 
-5.6726490896230333

>  <r_i_glide_gscore_strain>  (1) 
0

>  <r_i_glide_hbond>  (1) 
0

>  <r_i_glide_ligand_efficiency>  (1) 
-0.81037844137471904

>  <r_i_glide_ligand_efficiency_ln>  (1) 
-1.9256015297826117

>  <r_i_glide_ligand_efficiency_sa>  (1) 
-1.5501981903521866

>  <r_i_glide_lipo>  (1) 
-2.133213207945353

>  <r_i_glide_metal>  (1) 
-0

>  <r_i_glide_rewards>  (1) 
-2.5764734292625686

>  <r_lp_Energy>  (1) 
3.6641779999999997

>  <r_lp_tautomer_probability>  (1) 
1

>  <s_epik_cmdline>  (1) 
J2VwaWtfcHl0aG9uJywgJy1waHQnLCAnMS4wJywgJy1waCcsICc3LjQnLCAnLXRuJywgJzgnLCAnLW1hJywgJzUwMCcsICctaW1hZScsICc8aW5maWxlLm1hZT4nLCAnLW9tYWUnLCAnPG91dGZpbGUubWFlPic=

>  <s_epik_input>  (1) 
W0NIM11jKHMxKVtjSF1bY0hdYzFbQ0gzXQ==

>  <s_glide_docking_method>  (1) 
confgen

>  <s_i_glide_gridfile>  (1) 
gpcr_5ht2c_6bqh_protein_autoprepared_prepared

>  <s_lp_Force_Field>  (1) 
S-OPLS

>  <s_lp_Variant>  (1) 
Pocket2Mol_41-1

>  <s_m_source_file>  (1) 
generated_GPCR_5HT2C_ligand_Pocket2Mol_2026-06-23_prepared.sdf

>  <GenAI_Model>  (1) 
Pocket2Mol

>  <Protein>  (1) 
GPCR_5HT2C

$$$$
Pocket2Mol_78
     RDKit          3D

  0  0  0  0  0  0  0  0  0  0999 V3000
M  V30 BEGIN CTAB
M  V30 COUNTS 14 14 0 0 1
M  V30 BEGIN ATOM
M  V30 1 C 40.442142 30.248549 50.971213 0
M  V30 2 C 40.045137 30.446370 52.307712 0
M  V30 3 C 39.245135 29.480055 52.960327 0
M  V30 4 C 38.824088 29.687925 54.389324 0
M  V30 5 O 38.099796 28.818941 54.925647 0
M  V30 6 O 39.219412 30.718125 54.979241 0 CHG=-1
M  V30 7 C 40.043888 29.088622 50.283714 0
M  V30 8 C 38.845357 28.316903 52.264418 0
M  V30 9 C 39.246132 28.122736 50.929643 0
M  V30 10 H 41.052566 30.988730 50.474231 0
M  V30 11 H 40.354168 31.337753 52.833955 0
M  V30 12 H 40.347476 28.939348 49.258759 0
M  V30 13 H 38.233048 27.574234 52.756037 0
M  V30 14 H 38.940064 27.232670 50.399263 0
M  V30 END ATOM
M  V30 BEGIN BOND
M  V30 1 1 2 1
M  V30 2 2 3 2
M  V30 3 1 4 3
M  V30 4 2 5 4
M  V30 5 1 6 4
M  V30 6 2 7 1
M  V30 7 1 8 3
M  V30 8 1 9 7
M  V30 9 2 9 8
M  V30 10 1 10 1
M  V30 11 1 11 2
M  V30 12 1 12 7
M  V30 13 1 13 8
M  V30 14 1 14 9
M  V30 END BOND
M  V30 END CTAB
M  END
>  <i_epik_Tot_Q>  (1) 
-1

>  <i_epik_Tot_abs_Q>  (1) 
1

>  <i_i_glide_confnum>  (1) 
1

>  <i_i_glide_lignum>  (1) 
83

>  <i_i_glide_posenum>  (1) 
32

>  <i_i_glide_rotatable_bonds>  (1) 
1

>  <i_lp_mmshare_version>  (1) 
72125

>  <i_m_source_file_index>  (1) 
79

>  <i_f3d_flags>  (1) 
0

>  <num_sample>  (1) 
100

>  <b_lp_Chiralities_Consistent>  (1) 
1

>  <r_epik_Charging_Adjusted_Penalty>  (1) 
0.00033308558627939336

>  <r_epik_Ionization_Penalty>  (1) 
0.00033308558627939336

>  <r_epik_Ionization_Penalty_Charging>  (1) 
0.00033308558627939336

>  <r_epik_Ionization_Penalty_Neutral>  (1) 
0

>  <r_epik_State_Penalty>  (1) 
-0

>  <r_glide_ring_energy>  (1) 
0

>  <r_i_docking_score>  (1) 
-5.6650161898516131

>  <r_i_glide_ecoul>  (1) 
-0.071235525814695277

>  <r_i_glide_eff_state_penalty>  (1) 
-0

>  <r_i_glide_einternal>  (1) 
0.017688943610810526

>  <r_i_glide_emodel>  (1) 
-23.839645795497262

>  <r_i_glide_emodel_strain>  (1) 
0

>  <r_i_glide_energy>  (1) 
-17.231436981402975

>  <r_i_glide_erotb>  (1) 
0

>  <r_i_glide_esite>  (1) 
0

>  <r_i_glide_evdw>  (1) 
-17.160201455588279

>  <r_i_glide_gscore>  (1) 
-5.6650161898516131

>  <r_i_glide_gscore_strain>  (1) 
0

>  <r_i_glide_hbond>  (1) 
0

>  <r_i_glide_ligand_efficiency>  (1) 
-0.62944624331684595

>  <r_i_glide_ligand_efficiency_ln>  (1) 
-1.771854323280426

>  <r_i_glide_ligand_efficiency_sa>  (1) 
-1.309300948204164

>  <r_i_glide_lipo>  (1) 
-1.7223059671442611

>  <r_i_glide_metal>  (1) 
-0

>  <r_i_glide_rewards>  (1) 
-3.0740148210557336

>  <r_lp_Energy>  (1) 
17.740625999999999

>  <r_lp_tautomer_probability>  (1) 
1

>  <s_epik_cmdline>  (1) 
J2VwaWtfcHl0aG9uJywgJy1waHQnLCAnMS4wJywgJy1waCcsICc3LjQnLCAnLXRuJywgJzgnLCAnLW1hJywgJzUwMCcsICctaW1hZScsICc8aW5maWxlLm1hZT4nLCAnLW9tYWUnLCAnPG91dGZpbGUubWFlPic=

>  <s_epik_input>  (1) 
W2NIXTFbY0hdW2NIXVtjSF1bY0hdYzFDKD1PKVtPSF0=

>  <s_glide_docking_method>  (1) 
confgen

>  <s_i_glide_gridfile>  (1) 
gpcr_5ht2c_6bqh_protein_autoprepared_prepared

>  <s_lp_Force_Field>  (1) 
S-OPLS

>  <s_lp_Variant>  (1) 
Pocket2Mol_78-1

>  <s_m_source_file>  (1) 
generated_GPCR_5HT2C_ligand_Pocket2Mol_2026-06-23_prepared.sdf

>  <GenAI_Model>  (1) 
Pocket2Mol

>  <Protein>  (1) 
GPCR_5HT2C

$$$$
Pocket2Mol_59
     RDKit          3D

  0  0  0  0  0  0  0  0  0  0999 V3000
M  V30 BEGIN CTAB
M  V30 COUNTS 16 16 0 0 1
M  V30 BEGIN ATOM
M  V30 1 C 39.291492 30.535579 53.748078 0
M  V30 2 C 38.399262 29.480948 54.024124 0
M  V30 3 C 38.258009 28.416888 53.109122 0
M  V30 4 N 37.370615 27.375302 53.386162 0
M  V30 5 C 40.045136 30.529127 52.557253 0
M  V30 6 C 39.016465 28.409719 51.913296 0
M  V30 7 N 38.885349 27.359455 51.003298 0
M  V30 8 C 39.908151 29.467627 51.641018 0
M  V30 9 H 39.396955 31.350687 54.448879 0
M  V30 10 H 37.821660 29.489553 54.937826 0
M  V30 11 H 36.722824 27.445287 54.155775 0
M  V30 12 H 37.135354 26.701628 52.669592 0
M  V30 13 H 40.727464 31.337703 52.346584 0
M  V30 14 H 38.131427 26.695369 51.103482 0
M  V30 15 H 39.291862 27.426776 50.082176 0
M  V30 16 H 40.487835 29.465548 50.729550 0
M  V30 END ATOM
M  V30 BEGIN BOND
M  V30 1 1 2 1
M  V30 2 2 3 2
M  V30 3 1 4 3
M  V30 4 2 5 1
M  V30 5 1 6 3
M  V30 6 1 7 6
M  V30 7 1 8 5
M  V30 8 2 8 6
M  V30 9 1 9 1
M  V30 10 1 10 2
M  V30 11 1 11 4
M  V30 12 1 12 4
M  V30 13 1 13 5
M  V30 14 1 14 7
M  V30 15 1 15 7
M  V30 16 1 16 8
M  V30 END BOND
M  V30 END CTAB
M  END
>  <i_epik_Tot_Q>  (1) 
0

>  <i_epik_Tot_abs_Q>  (1) 
0

>  <i_i_glide_confnum>  (1) 
1

>  <i_i_glide_lignum>  (1) 
63

>  <i_i_glide_posenum>  (1) 
209

>  <i_i_glide_rotatable_bonds>  (1) 
0

>  <i_lp_mmshare_version>  (1) 
72125

>  <i_m_source_file_index>  (1) 
60

>  <i_f3d_flags>  (1) 
0

>  <num_sample>  (1) 
100

>  <b_lp_Chiralities_Consistent>  (1) 
1

>  <r_epik_Charging_Adjusted_Penalty>  (1) 
0.0055702355519192566

>  <r_epik_Ionization_Penalty>  (1) 
0.0049730634188153225

>  <r_epik_Ionization_Penalty_Charging>  (1) 
0

>  <r_epik_Ionization_Penalty_Neutral>  (1) 
0.0049730634188153225

>  <r_epik_State_Penalty>  (1) 
0.0055702355519192566

>  <r_glide_ring_energy>  (1) 
0

>  <r_i_docking_score>  (1) 
-5.6508654514494605

>  <r_i_glide_ecoul>  (1) 
-2.7992935003810824

>  <r_i_glide_eff_state_penalty>  (1) 
0.0055702355519192566

>  <r_i_glide_einternal>  (1) 
0

>  <r_i_glide_emodel>  (1) 
-27.18958119908601

>  <r_i_glide_emodel_strain>  (1) 
0

>  <r_i_glide_energy>  (1) 
-20.299293405442729

>  <r_i_glide_erotb>  (1) 
0

>  <r_i_glide_esite>  (1) 
0

>  <r_i_glide_evdw>  (1) 
-17.499999905061646

>  <r_i_glide_gscore>  (1) 
-5.6564356870013794

>  <r_i_glide_gscore_strain>  (1) 
0

>  <r_i_glide_hbond>  (1) 
-0.27877100917667647

>  <r_i_glide_ligand_efficiency>  (1) 
-0.70635818143118256

>  <r_i_glide_ligand_efficiency_ln>  (1) 
-1.8350292983210561

>  <r_i_glide_ligand_efficiency_sa>  (1) 
-1.4127163628623653

>  <r_i_glide_lipo>  (1) 
-1.6862165705873153

>  <r_i_glide_metal>  (1) 
-0

>  <r_i_glide_rewards>  (1) 
-2.396554086927142

>  <r_lp_Energy>  (1) 
13.721331999999999

>  <s_epik_cmdline>  (1) 
J2VwaWtfcHl0aG9uJywgJy1waHQnLCAnMS4wJywgJy1waCcsICc3LjQnLCAnLXRuJywgJzgnLCAnLW1hJywgJzUwMCcsICctaW1hZScsICc8aW5maWxlLm1hZT4nLCAnLW9tYWUnLCAnPG91dGZpbGUubWFlPic=

>  <s_epik_input>  (1) 
W05IMl1jMVtjSF1bY0hdW2NIXVtjSF1jMVtOSDJd

>  <s_glide_docking_method>  (1) 
confgen

>  <s_i_glide_gridfile>  (1) 
gpcr_5ht2c_6bqh_protein_autoprepared_prepared

>  <s_lp_Force_Field>  (1) 
S-OPLS

>  <s_lp_Variant>  (1) 
Pocket2Mol_59-1

>  <s_m_source_file>  (1) 
generated_GPCR_5HT2C_ligand_Pocket2Mol_2026-06-23_prepared.sdf

>  <GenAI_Model>  (1) 
Pocket2Mol

>  <Protein>  (1) 
GPCR_5HT2C

$$$$
Pocket2Mol_82
     RDKit          3D

  0  0  0  0  0  0  0  0  0  0999 V3000
M  V30 BEGIN CTAB
M  V30 COUNTS 16 16 0 0 1
M  V30 BEGIN ATOM
M  V30 1 C 40.000818 29.337649 51.271776 0
M  V30 2 C 39.242968 29.340920 52.576081 0
M  V30 3 C 39.256652 30.482983 53.418192 0
M  V30 4 C 38.505279 28.198989 52.963060 0
M  V30 5 C 37.785622 28.199707 54.172914 0
M  V30 6 C 38.534779 30.476344 54.626394 0
M  V30 7 C 37.799753 29.337759 55.002746 0
M  V30 8 O 40.045137 28.334351 50.567758 0
M  V30 9 N 40.599178 30.486893 50.948766 0
M  V30 10 H 39.815023 31.362089 53.139296 0
M  V30 11 H 38.487758 27.323913 52.328276 0
M  V30 12 H 37.220609 27.326568 54.464373 0
M  V30 13 H 38.543193 31.347879 55.265269 0
M  V30 14 H 37.245192 29.337754 55.930096 0
M  V30 15 H 40.525225 31.284219 51.561389 0
M  V30 16 H 41.120323 30.556438 50.088242 0
M  V30 END ATOM
M  V30 BEGIN BOND
M  V30 1 1 2 1
M  V30 2 1 3 2
M  V30 3 2 4 2
M  V30 4 1 5 4
M  V30 5 2 6 3
M  V30 6 2 7 5
M  V30 7 1 7 6
M  V30 8 2 8 1
M  V30 9 1 9 1
M  V30 10 1 10 3
M  V30 11 1 11 4
M  V30 12 1 12 5
M  V30 13 1 13 6
M  V30 14 1 14 7
M  V30 15 1 15 9
M  V30 16 1 16 9
M  V30 END BOND
M  V30 END CTAB
M  END
>  <i_epik_Tot_Q>  (1) 
0

>  <i_epik_Tot_abs_Q>  (1) 
0

>  <i_i_glide_confnum>  (1) 
1

>  <i_i_glide_lignum>  (1) 
87

>  <i_i_glide_posenum>  (1) 
11

>  <i_i_glide_rotatable_bonds>  (1) 
1

>  <i_lp_mmshare_version>  (1) 
72125

>  <i_m_source_file_index>  (1) 
83

>  <i_f3d_flags>  (1) 
0

>  <num_sample>  (1) 
100

>  <b_lp_Chiralities_Consistent>  (1) 
1

>  <r_epik_Charging_Adjusted_Penalty>  (1) 
0

>  <r_epik_Ionization_Penalty>  (1) 
4.7216645763340487e-07

>  <r_epik_Ionization_Penalty_Charging>  (1) 
0

>  <r_epik_Ionization_Penalty_Neutral>  (1) 
4.7216645763340487e-07

>  <r_epik_State_Penalty>  (1) 
-0

>  <r_glide_ring_energy>  (1) 
0

>  <r_i_docking_score>  (1) 
-5.6478381943088092

>  <r_i_glide_ecoul>  (1) 
-1.5684683145531175

>  <r_i_glide_eff_state_penalty>  (1) 
-0

>  <r_i_glide_einternal>  (1) 
0.079969636802856847

>  <r_i_glide_emodel>  (1) 
-30.137621030750324

>  <r_i_glide_emodel_strain>  (1) 
0

>  <r_i_glide_energy>  (1) 
-22.097720651271175

>  <r_i_glide_erotb>  (1) 
0

>  <r_i_glide_esite>  (1) 
0

>  <r_i_glide_evdw>  (1) 
-20.529252336718056

>  <r_i_glide_gscore>  (1) 
-5.6478381943088092

>  <r_i_glide_gscore_strain>  (1) 
0

>  <r_i_glide_hbond>  (1) 
0

>  <r_i_glide_ligand_efficiency>  (1) 
-0.62753757714542324

>  <r_i_glide_ligand_efficiency_ln>  (1) 
-1.7664815397529341

>  <r_i_glide_ligand_efficiency_sa>  (1) 
-1.3053307625773813

>  <r_i_glide_lipo>  (1) 
-1.3999431785188943

>  <r_i_glide_metal>  (1) 
-0

>  <r_i_glide_rewards>  (1) 
-2.9861621517710435

>  <r_lp_Energy>  (1) 
9.4363049999999991

>  <r_lp_tautomer_probability>  (1) 
1

>  <s_epik_cmdline>  (1) 
J2VwaWtfcHl0aG9uJywgJy1waHQnLCAnMS4wJywgJy1waCcsICc3LjQnLCAnLXRuJywgJzgnLCAnLW1hJywgJzUwMCcsICctaW1hZScsICc8aW5maWxlLm1hZT4nLCAnLW9tYWUnLCAnPG91dGZpbGUubWFlPic=

>  <s_epik_input>  (1) 
Tz1DKFtOSDJdKWMxW2NIXVtjSF1bY0hdW2NIXVtjSF0x

>  <s_glide_docking_method>  (1) 
confgen

>  <s_i_glide_gridfile>  (1) 
gpcr_5ht2c_6bqh_protein_autoprepared_prepared

>  <s_lp_Force_Field>  (1) 
S-OPLS

>  <s_lp_Variant>  (1) 
Pocket2Mol_82-1

>  <s_m_source_file>  (1) 
generated_GPCR_5HT2C_ligand_Pocket2Mol_2026-06-23_prepared.sdf

>  <GenAI_Model>  (1) 
Pocket2Mol

>  <Protein>  (1) 
GPCR_5HT2C

$$$$
Pocket2Mol_86
     RDKit          3D

  0  0  0  0  0  0  0  0  0  0999 V3000
M  V30 BEGIN CTAB
M  V30 COUNTS 17 17 0 0 1
M  V30 BEGIN ATOM
M  V30 1 C 39.645137 30.392845 52.967757 0
M  V30 2 C 38.831767 29.938964 54.026778 0
M  V30 3 C 39.783644 29.614926 51.800029 0
M  V30 4 O 40.566779 30.061344 50.772259 0
M  V30 5 C 39.111408 28.376949 51.694588 0
M  V30 6 C 38.676976 30.778018 55.279658 0
M  V30 7 O 39.245137 27.618859 50.567760 0
M  V30 8 C 38.159344 28.704563 53.918287 0
M  V30 9 C 38.299954 27.924194 52.753953 0
M  V30 10 H 40.159498 31.337756 53.049638 0
M  V30 11 H 40.901610 30.934998 50.903296 0
M  V30 12 H 39.252923 31.701932 55.216592 0
M  V30 13 H 37.629468 31.043235 55.432413 0
M  V30 14 H 39.020432 30.222800 56.152670 0
M  V30 15 H 38.742886 26.818409 50.580730 0
M  V30 16 H 37.535413 28.356392 54.728540 0
M  V30 17 H 37.783391 26.978448 52.673641 0
M  V30 END ATOM
M  V30 BEGIN BOND
M  V30 1 2 2 1
M  V30 2 1 3 1
M  V30 3 1 4 3
M  V30 4 2 5 3
M  V30 5 1 6 2
M  V30 6 1 7 5
M  V30 7 1 8 2
M  V30 8 1 9 5
M  V30 9 2 9 8
M  V30 10 1 10 1
M  V30 11 1 11 4
M  V30 12 1 12 6
M  V30 13 1 13 6
M  V30 14 1 14 6
M  V30 15 1 15 7
M  V30 16 1 16 8
M  V30 17 1 17 9
M  V30 END BOND
M  V30 END CTAB
M  END
>  <i_epik_Tot_Q>  (1) 
0

>  <i_epik_Tot_abs_Q>  (1) 
0

>  <i_i_glide_confnum>  (1) 
1

>  <i_i_glide_lignum>  (1) 
91

>  <i_i_glide_posenum>  (1) 
170

>  <i_i_glide_rotatable_bonds>  (1) 
2

>  <i_lp_mmshare_version>  (1) 
72125

>  <i_m_source_file_index>  (1) 
87

>  <i_f3d_flags>  (1) 
0

>  <num_sample>  (1) 
100

>  <b_lp_Chiralities_Consistent>  (1) 
1

>  <r_epik_Charging_Adjusted_Penalty>  (1) 
0

>  <r_epik_Ionization_Penalty>  (1) 
0.0034619861512114073

>  <r_epik_Ionization_Penalty_Charging>  (1) 
0

>  <r_epik_Ionization_Penalty_Neutral>  (1) 
0.0034619861512114073

>  <r_epik_State_Penalty>  (1) 
-0

>  <r_glide_ring_energy>  (1) 
0

>  <r_i_docking_score>  (1) 
-5.6473319570214091

>  <r_i_glide_ecoul>  (1) 
-2.1612012145045663

>  <r_i_glide_eff_state_penalty>  (1) 
-0

>  <r_i_glide_einternal>  (1) 
0.038473799079759341

>  <r_i_glide_emodel>  (1) 
-31.256064174258274

>  <r_i_glide_emodel_strain>  (1) 
0

>  <r_i_glide_energy>  (1) 
-22.177907391198936

>  <r_i_glide_erotb>  (1) 
0

>  <r_i_glide_esite>  (1) 
0

>  <r_i_glide_evdw>  (1) 
-20.01670617669437

>  <r_i_glide_gscore>  (1) 
-5.6473319570214091

>  <r_i_glide_gscore_strain>  (1) 
0

>  <r_i_glide_hbond>  (1) 
0

>  <r_i_glide_ligand_efficiency>  (1) 
-0.62748132855793437

>  <r_i_glide_ligand_efficiency_ln>  (1) 
-1.7663232032722913

>  <r_i_glide_ligand_efficiency_sa>  (1) 
-1.3052137608004761

>  <r_i_glide_lipo>  (1) 
-1.8702515527353683

>  <r_i_glide_metal>  (1) 
-0

>  <r_i_glide_rewards>  (1) 
-2.4520649132756378

>  <r_lp_Energy>  (1) 
6.77806

>  <r_lp_tautomer_probability>  (1) 
1

>  <s_epik_cmdline>  (1) 
J2VwaWtfcHl0aG9uJywgJy1waHQnLCAnMS4wJywgJy1waCcsICc3LjQnLCAnLXRuJywgJzgnLCAnLW1hJywgJzUwMCcsICctaW1hZScsICc8aW5maWxlLm1hZT4nLCAnLW9tYWUnLCAnPG91dGZpbGUubWFlPic=

>  <s_epik_input>  (1) 
W0NIM11jMVtjSF1jKFtPSF0pYyhbT0hdKVtjSF1bY0hdMQ==

>  <s_glide_docking_method>  (1) 
confgen

>  <s_i_glide_gridfile>  (1) 
gpcr_5ht2c_6bqh_protein_autoprepared_prepared

>  <s_lp_Force_Field>  (1) 
S-OPLS

>  <s_lp_Variant>  (1) 
Pocket2Mol_86-1

>  <s_m_source_file>  (1) 
generated_GPCR_5HT2C_ligand_Pocket2Mol_2026-06-23_prepared.sdf

>  <GenAI_Model>  (1) 
Pocket2Mol

>  <Protein>  (1) 
GPCR_5HT2C

$$$$
Pocket2Mol_73
     RDKit          3D

  0  0  0  0  0  0  0  0  0  0999 V3000
M  V30 BEGIN CTAB
M  V30 COUNTS 15 16 0 0 1
M  V30 BEGIN ATOM
M  V30 1 C 38.173618 29.052117 54.923692 0
M  V30 2 C 38.582076 28.627730 53.594559 0
M  V30 3 C 38.592082 30.327984 55.043458 0
M  V30 4 C 39.264089 30.726022 53.810687 0
M  V30 5 C 39.245137 29.689870 52.960841 0
M  V30 6 C 39.771393 29.584345 51.632978 0
M  V30 7 N 38.394676 27.498289 53.053010 0
M  V30 8 N 39.645143 28.498853 50.978675 0
M  V30 9 C 38.923282 27.352635 51.647676 0
M  V30 10 H 37.645178 28.420939 55.622229 0
M  V30 11 H 38.452678 30.954856 55.912711 0
M  V30 12 H 39.701997 31.694100 53.616403 0
M  V30 13 H 40.271966 30.469413 51.230381 0
M  V30 14 H 38.090645 27.061785 51.006579 0
M  V30 15 H 39.592869 26.493281 51.633497 0
M  V30 END ATOM
M  V30 BEGIN BOND
M  V30 1 1 2 1
M  V30 2 2 3 1
M  V30 3 1 4 3
M  V30 4 1 5 2
M  V30 5 2 5 4
M  V30 6 1 6 5
M  V30 7 2 7 2
M  V30 8 2 8 6
M  V30 9 1 9 7
M  V30 10 1 9 8
M  V30 11 1 10 1
M  V30 12 1 11 3
M  V30 13 1 12 4
M  V30 14 1 13 6
M  V30 15 1 14 9
M  V30 16 1 15 9
M  V30 END BOND
M  V30 END CTAB
M  END
>  <i_epik_Tot_Q>  (1) 
0

>  <i_epik_Tot_abs_Q>  (1) 
0

>  <i_i_glide_confnum>  (1) 
1

>  <i_i_glide_lignum>  (1) 
78

>  <i_i_glide_posenum>  (1) 
196

>  <i_i_glide_rotatable_bonds>  (1) 
0

>  <i_lp_mmshare_version>  (1) 
72125

>  <i_m_source_file_index>  (1) 
74

>  <i_f3d_flags>  (1) 
0

>  <num_sample>  (1) 
100

>  <b_lp_Chiralities_Consistent>  (1) 
1

>  <r_epik_Charging_Adjusted_Penalty>  (1) 
0

>  <r_epik_Ionization_Penalty>  (1) 
1.1225786931258508e-06

>  <r_epik_Ionization_Penalty_Charging>  (1) 
0

>  <r_epik_Ionization_Penalty_Neutral>  (1) 
1.1225786931258508e-06

>  <r_epik_State_Penalty>  (1) 
-0

>  <r_glide_ring_energy>  (1) 
0

>  <r_i_docking_score>  (1) 
-5.6451572695200536

>  <r_i_glide_ecoul>  (1) 
-0.25231288012436304

>  <r_i_glide_eff_state_penalty>  (1) 
-0

>  <r_i_glide_einternal>  (1) 
0

>  <r_i_glide_emodel>  (1) 
-29.504442448674268

>  <r_i_glide_emodel_strain>  (1) 
0

>  <r_i_glide_energy>  (1) 
-21.877437284041442

>  <r_i_glide_erotb>  (1) 
0

>  <r_i_glide_esite>  (1) 
0

>  <r_i_glide_evdw>  (1) 
-21.625124403917077

>  <r_i_glide_gscore>  (1) 
-5.6451572695200536

>  <r_i_glide_gscore_strain>  (1) 
0

>  <r_i_glide_hbond>  (1) 
0

>  <r_i_glide_ligand_efficiency>  (1) 
-0.62723969661333934

>  <r_i_glide_ligand_efficiency_ln>  (1) 
-1.7656430234948772

>  <r_i_glide_ligand_efficiency_sa>  (1) 
-1.3047111461013914

>  <r_i_glide_lipo>  (1) 
-0.74952128761856351

>  <r_i_glide_metal>  (1) 
-0

>  <r_i_glide_rewards>  (1) 
-3.7765328296869827

>  <r_lp_Energy>  (1) 
3.4627279999999998

>  <r_lp_tautomer_probability>  (1) 
1

>  <s_epik_Chemistry_Notes>  (1) 
This compound has an imine and may undergo hydrolysis. This compound contains an acetal/aminal-like group ( X-CH(R)-Y where X, Y are N, S, or O) that may be acid/base labile, releasing an aldehyde.

>  <s_epik_cmdline>  (1) 
J2VwaWtfcHl0aG9uJywgJy1waHQnLCAnMS4wJywgJy1waCcsICc3LjQnLCAnLXRuJywgJzgnLCAnLW1hJywgJzUwMCcsICctaW1hZScsICc8aW5maWxlLm1hZT4nLCAnLW9tYWUnLCAnPG91dGZpbGUubWFlPic=

>  <s_epik_input>  (1) 
W0NIXTE9W0NIXVtDSF09QyhDMT0yKVtDSF09TltDSDJdTjI=

>  <s_glide_docking_method>  (1) 
confgen

>  <s_i_glide_gridfile>  (1) 
gpcr_5ht2c_6bqh_protein_autoprepared_prepared

>  <s_lp_Force_Field>  (1) 
S-OPLS

>  <s_lp_Variant>  (1) 
Pocket2Mol_73-1

>  <s_m_source_file>  (1) 
generated_GPCR_5HT2C_ligand_Pocket2Mol_2026-06-23_prepared.sdf

>  <GenAI_Model>  (1) 
Pocket2Mol

>  <Protein>  (1) 
GPCR_5HT2C

$$$$
Pocket2Mol_58
     RDKit          3D

  0  0  0  0  0  0  0  0  0  0999 V3000
M  V30 BEGIN CTAB
M  V30 COUNTS 17 17 0 0 1
M  V30 BEGIN ATOM
M  V30 1 C 39.657890 28.489718 50.573584 0
M  V30 2 C 39.137454 28.904066 51.934359 0
M  V30 3 C 38.137692 28.138816 52.567721 0
M  V30 4 C 37.642245 28.531117 53.826059 0
M  V30 5 C 38.144948 29.688832 54.454403 0
M  V30 6 C 39.645160 30.059541 52.566131 0
M  V30 7 N 37.645171 30.083521 55.693438 0
M  V30 8 C 39.149907 30.450053 53.825148 0
M  V30 9 H 40.448599 29.155056 50.228152 0
M  V30 10 H 40.045135 27.471006 50.600017 0
M  V30 11 H 38.848617 28.529380 49.844075 0
M  V30 12 H 37.746219 27.254185 52.085407 0
M  V30 13 H 36.871968 27.946195 54.306229 0
M  V30 14 H 40.411175 30.649068 52.082914 0
M  V30 15 H 37.832787 31.016364 56.034500 0
M  V30 16 H 36.789620 29.670816 56.038428 0
M  V30 17 H 39.537353 31.336968 54.304805 0
M  V30 END ATOM
M  V30 BEGIN BOND
M  V30 1 1 2 1
M  V30 2 1 3 2
M  V30 3 2 4 3
M  V30 4 1 5 4
M  V30 5 2 6 2
M  V30 6 1 7 5
M  V30 7 2 8 5
M  V30 8 1 8 6
M  V30 9 1 9 1
M  V30 10 1 10 1
M  V30 11 1 11 1
M  V30 12 1 12 3
M  V30 13 1 13 4
M  V30 14 1 14 6
M  V30 15 1 15 7
M  V30 16 1 16 7
M  V30 17 1 17 8
M  V30 END BOND
M  V30 END CTAB
M  END
>  <i_epik_Tot_Q>  (1) 
0

>  <i_epik_Tot_abs_Q>  (1) 
0

>  <i_i_glide_confnum>  (1) 
1

>  <i_i_glide_lignum>  (1) 
62

>  <i_i_glide_posenum>  (1) 
70

>  <i_i_glide_rotatable_bonds>  (1) 
0

>  <i_lp_mmshare_version>  (1) 
72125

>  <i_m_source_file_index>  (1) 
59

>  <i_f3d_flags>  (1) 
0

>  <num_sample>  (1) 
100

>  <b_lp_Chiralities_Consistent>  (1) 
1

>  <r_epik_Charging_Adjusted_Penalty>  (1) 
0

>  <r_epik_Ionization_Penalty>  (1) 
0.002249743429862997

>  <r_epik_Ionization_Penalty_Charging>  (1) 
0

>  <r_epik_Ionization_Penalty_Neutral>  (1) 
0.002249743429862997

>  <r_epik_State_Penalty>  (1) 
-0

>  <r_glide_ring_energy>  (1) 
0

>  <r_i_docking_score>  (1) 
-5.6443533893778381

>  <r_i_glide_ecoul>  (1) 
-1.60218055005633

>  <r_i_glide_eff_state_penalty>  (1) 
-0

>  <r_i_glide_einternal>  (1) 
0

>  <r_i_glide_emodel>  (1) 
-26.078143749933911

>  <r_i_glide_emodel_strain>  (1) 
0.0085196749604961042

>  <r_i_glide_energy>  (1) 
-19.215224465668697

>  <r_i_glide_erotb>  (1) 
0

>  <r_i_glide_esite>  (1) 
-0.06819424268623682

>  <r_i_glide_evdw>  (1) 
-17.613043915612366

>  <r_i_glide_gscore>  (1) 
-5.6443533893778381

>  <r_i_glide_gscore_strain>  (1) 
0

>  <r_i_glide_hbond>  (1) 
0

>  <r_i_glide_ligand_efficiency>  (1) 
-0.70554417367222977

>  <r_i_glide_ligand_efficiency_ln>  (1) 
-1.8329146090231812

>  <r_i_glide_ligand_efficiency_sa>  (1) 
-1.4110883473444598

>  <r_i_glide_lipo>  (1) 
-2.0419895394309826

>  <r_i_glide_metal>  (1) 
-0

>  <r_i_glide_rewards>  (1) 
-2.4131903289715511

>  <r_lp_Energy>  (1) 
4.6440260000000002

>  <r_lp_tautomer_probability>  (1) 
1

>  <s_epik_cmdline>  (1) 
J2VwaWtfcHl0aG9uJywgJy1waHQnLCAnMS4wJywgJy1waCcsICc3LjQnLCAnLXRuJywgJzgnLCAnLW1hJywgJzUwMCcsICctaW1hZScsICc8aW5maWxlLm1hZT4nLCAnLW9tYWUnLCAnPG91dGZpbGUubWFlPic=

>  <s_epik_input>  (1) 
W0NIM11jMVtjSF1bY0hdYyhbTkgyXSlbY0hdW2NIXTE=

>  <s_glide_docking_method>  (1) 
confgen

>  <s_i_glide_gridfile>  (1) 
gpcr_5ht2c_6bqh_protein_autoprepared_prepared

>  <s_lp_Force_Field>  (1) 
S-OPLS

>  <s_lp_Variant>  (1) 
Pocket2Mol_58-1

>  <s_m_source_file>  (1) 
generated_GPCR_5HT2C_ligand_Pocket2Mol_2026-06-23_prepared.sdf

>  <GenAI_Model>  (1) 
Pocket2Mol

>  <Protein>  (1) 
GPCR_5HT2C

$$$$
Pocket2Mol_69
     RDKit          3D

  0  0  0  0  0  0  0  0  0  0999 V3000
M  V30 BEGIN CTAB
M  V30 COUNTS 15 16 0 0 1
M  V30 BEGIN ATOM
M  V30 1 C 39.461059 28.199746 50.748938 0
M  V30 2 O 40.127056 29.377084 51.298209 0
M  V30 3 O 38.445138 27.659790 51.645037 0
M  V30 4 C 39.438918 29.505706 52.436611 0
M  V30 5 C 38.514929 28.561911 52.626626 0
M  V30 6 C 37.696552 28.547241 53.767856 0
M  V30 7 C 37.862812 29.565782 54.736793 0
M  V30 8 C 39.645041 30.537600 53.367760 0
M  V30 9 C 38.846168 30.569591 54.534854 0
M  V30 10 H 40.192914 27.423728 50.534031 0
M  V30 11 H 38.981021 28.485680 49.812130 0
M  V30 12 H 36.953104 27.775183 53.901915 0
M  V30 13 H 37.245136 29.580680 55.623419 0
M  V30 14 H 40.396914 31.293296 53.194082 0
M  V30 15 H 38.981933 31.353089 55.266271 0
M  V30 END ATOM
M  V30 BEGIN BOND
M  V30 1 1 2 1
M  V30 2 1 3 1
M  V30 3 1 4 2
M  V30 4 1 5 3
M  V30 5 1 5 4
M  V30 6 2 6 5
M  V30 7 1 7 6
M  V30 8 2 8 4
M  V30 9 2 9 7
M  V30 10 1 9 8
M  V30 11 1 10 1
M  V30 12 1 11 1
M  V30 13 1 12 6
M  V30 14 1 13 7
M  V30 15 1 14 8
M  V30 16 1 15 9
M  V30 END BOND
M  V30 END CTAB
M  END
>  <i_epik_Tot_Q>  (1) 
0

>  <i_epik_Tot_abs_Q>  (1) 
0

>  <i_i_glide_confnum>  (1) 
1

>  <i_i_glide_lignum>  (1) 
74

>  <i_i_glide_posenum>  (1) 
89

>  <i_i_glide_rotatable_bonds>  (1) 
0

>  <i_lp_mmshare_version>  (1) 
72125

>  <i_m_source_file_index>  (1) 
70

>  <i_f3d_flags>  (1) 
0

>  <num_sample>  (1) 
100

>  <b_lp_Chiralities_Consistent>  (1) 
1

>  <r_epik_Charging_Adjusted_Penalty>  (1) 
0

>  <r_epik_Ionization_Penalty>  (1) 
0

>  <r_epik_Ionization_Penalty_Charging>  (1) 
0

>  <r_epik_Ionization_Penalty_Neutral>  (1) 
0

>  <r_epik_State_Penalty>  (1) 
-0

>  <r_glide_ring_energy>  (1) 
0

>  <r_i_docking_score>  (1) 
-5.6432460383967573

>  <r_i_glide_ecoul>  (1) 
-0.33967875173182699

>  <r_i_glide_eff_state_penalty>  (1) 
-0

>  <r_i_glide_einternal>  (1) 
0

>  <r_i_glide_emodel>  (1) 
-26.905648050554198

>  <r_i_glide_emodel_strain>  (1) 
0

>  <r_i_glide_energy>  (1) 
-19.627682482849544

>  <r_i_glide_erotb>  (1) 
0

>  <r_i_glide_esite>  (1) 
0

>  <r_i_glide_evdw>  (1) 
-19.288003731117715

>  <r_i_glide_gscore>  (1) 
-5.6432460383967573

>  <r_i_glide_gscore_strain>  (1) 
0

>  <r_i_glide_hbond>  (1) 
0

>  <r_i_glide_ligand_efficiency>  (1) 
-0.62702733759963969

>  <r_i_glide_ligand_efficiency_ln>  (1) 
-1.7650452453041163

>  <r_i_glide_ligand_efficiency_sa>  (1) 
-1.3042694215523156

>  <r_i_glide_lipo>  (1) 
-1.5578387000882707

>  <r_i_glide_metal>  (1) 
-0

>  <r_i_glide_rewards>  (1) 
-3.0700553389928267

>  <r_lp_Energy>  (1) 
19.342499999999998

>  <r_lp_tautomer_probability>  (1) 
1

>  <s_epik_Chemistry_Notes>  (1) 
This compound contains an acetal/aminal-like group ( X-CH(R)-Y where X, Y are N, S, or O) that may be acid/base labile, releasing an aldehyde.

>  <s_epik_cmdline>  (1) 
J2VwaWtfcHl0aG9uJywgJy1waHQnLCAnMS4wJywgJy1waCcsICc3LjQnLCAnLXRuJywgJzgnLCAnLW1hJywgJzUwMCcsICctaW1hZScsICc8aW5maWxlLm1hZT4nLCAnLW9tYWUnLCAnPG91dGZpbGUubWFlPic=

>  <s_epik_input>  (1) 
TzFbQ0gyXU9jKGMxMilbY0hdW2NIXVtjSF1bY0hdMg==

>  <s_glide_docking_method>  (1) 
confgen

>  <s_i_glide_gridfile>  (1) 
gpcr_5ht2c_6bqh_protein_autoprepared_prepared

>  <s_lp_Force_Field>  (1) 
S-OPLS

>  <s_lp_Variant>  (1) 
Pocket2Mol_69-1

>  <s_m_source_file>  (1) 
generated_GPCR_5HT2C_ligand_Pocket2Mol_2026-06-23_prepared.sdf

>  <GenAI_Model>  (1) 
Pocket2Mol

>  <Protein>  (1) 
GPCR_5HT2C

$$$$
Pocket2Mol_65
     RDKit          3D

  0  0  0  0  0  0  0  0  0  0999 V3000
M  V30 BEGIN CTAB
M  V30 COUNTS 20 20 0 0 1
M  V30 BEGIN ATOM
M  V30 1 C 39.645137 29.209705 51.911867 0
M  V30 2 C 39.625452 30.145579 53.129406 0
M  V30 3 C 38.886758 27.968733 52.359503 0
M  V30 4 C 37.971468 28.496473 53.457140 0
M  V30 5 N 38.798123 29.485136 54.139222 0
M  V30 6 N 38.053257 30.390353 54.971874 0 CHG=1
M  V30 7 C 38.698603 31.342459 55.667728 0
M  V30 8 N 38.045137 32.201735 56.464360 0
M  V30 9 H 39.133506 29.681256 51.071876 0
M  V30 10 H 40.658996 28.973155 51.586397 0
M  V30 11 H 39.239409 31.126416 52.852428 0
M  V30 12 H 40.624807 30.302590 53.532839 0
M  V30 13 H 38.337908 27.491693 51.546092 0
M  V30 14 H 39.579715 27.234208 52.772935 0
M  V30 15 H 37.638878 27.709221 54.134755 0
M  V30 16 H 37.089656 28.953210 53.010090 0
M  V30 17 H 39.777251 31.418572 55.585214 0
M  V30 18 H 37.021061 32.137755 56.567759 0
M  V30 19 H 38.554431 32.912836 56.967777 0
M  V30 20 H 37.051480 30.254984 55.001580 0
M  V30 END ATOM
M  V30 BEGIN BOND
M  V30 1 1 2 1
M  V30 2 1 3 1
M  V30 3 1 4 3
M  V30 4 1 5 2
M  V30 5 1 5 4
M  V30 6 1 6 5
M  V30 7 2 7 6
M  V30 8 1 8 7
M  V30 9 1 9 1
M  V30 10 1 10 1
M  V30 11 1 11 2
M  V30 12 1 12 2
M  V30 13 1 13 3
M  V30 14 1 14 3
M  V30 15 1 15 4
M  V30 16 1 16 4
M  V30 17 1 17 7
M  V30 18 1 18 8
M  V30 19 1 19 8
M  V30 20 1 20 6
M  V30 END BOND
M  V30 END CTAB
M  END
>  <i_epik_Tot_Q>  (1) 
1

>  <i_epik_Tot_abs_Q>  (1) 
1

>  <i_i_glide_confnum>  (1) 
1

>  <i_i_glide_lignum>  (1) 
69

>  <i_i_glide_posenum>  (1) 
26

>  <i_i_glide_rotatable_bonds>  (1) 
1

>  <i_lp_mmshare_version>  (1) 
72125

>  <i_m_source_file_index>  (1) 
66

>  <i_f3d_flags>  (1) 
0

>  <num_sample>  (1) 
100

>  <b_lp_Chiralities_Consistent>  (1) 
1

>  <r_epik_Charging_Adjusted_Penalty>  (1) 
1.6312684749255997e-05

>  <r_epik_Ionization_Penalty>  (1) 
1.6401951855999153e-05

>  <r_epik_Ionization_Penalty_Charging>  (1) 
1.6312684749255997e-05

>  <r_epik_Ionization_Penalty_Neutral>  (1) 
8.9267106743156534e-08

>  <r_epik_State_Penalty>  (1) 
-0

>  <r_glide_ring_energy>  (1) 
0

>  <r_i_docking_score>  (1) 
-5.6395128761232876

>  <r_i_glide_ecoul>  (1) 
-5.086488110585937

>  <r_i_glide_eff_state_penalty>  (1) 
-0

>  <r_i_glide_einternal>  (1) 
0.17376246880037022

>  <r_i_glide_emodel>  (1) 
-29.95583871184267

>  <r_i_glide_emodel_strain>  (1) 
0.43211528623033502

>  <r_i_glide_energy>  (1) 
-18.59053800082733

>  <r_i_glide_erotb>  (1) 
0

>  <r_i_glide_esite>  (1) 
-0.15382008452968454

>  <r_i_glide_evdw>  (1) 
-13.504049890241392

>  <r_i_glide_gscore>  (1) 
-5.6395128761232876

>  <r_i_glide_gscore_strain>  (1) 
0

>  <r_i_glide_hbond>  (1) 
-0.20000000000000001

>  <r_i_glide_ligand_efficiency>  (1) 
-0.70493910951541094

>  <r_i_glide_ligand_efficiency_ln>  (1) 
-1.831342728801058

>  <r_i_glide_ligand_efficiency_sa>  (1) 
-1.4098782190308221

>  <r_i_glide_lipo>  (1) 
-1.3200000000000001

>  <r_i_glide_metal>  (1) 
-0

>  <r_i_glide_rewards>  (1) 
-2.5275170804936433

>  <r_lp_Energy>  (1) 
12.792574

>  <r_lp_tautomer_probability>  (1) 
1

>  <s_epik_Chemistry_Notes>  (1) 
This compound has an imine and may undergo hydrolysis.

>  <s_epik_cmdline>  (1) 
J2VwaWtfcHl0aG9uJywgJy1waHQnLCAnMS4wJywgJy1waCcsICc3LjQnLCAnLXRuJywgJzgnLCAnLW1hJywgJzUwMCcsICctaW1hZScsICc8aW5maWxlLm1hZT4nLCAnLW9tYWUnLCAnPG91dGZpbGUubWFlPic=

>  <s_epik_input>  (1) 
W0NIMl0xW0NIMl1bQ0gyXVtDSDJdTjEvTj1bQ0hdL1tOSDJd

>  <s_glide_docking_method>  (1) 
confgen

>  <s_i_glide_gridfile>  (1) 
gpcr_5ht2c_6bqh_protein_autoprepared_prepared

>  <s_lp_Force_Field>  (1) 
S-OPLS

>  <s_lp_Variant>  (1) 
Pocket2Mol_65-1

>  <s_m_source_file>  (1) 
generated_GPCR_5HT2C_ligand_Pocket2Mol_2026-06-23_prepared.sdf

>  <GenAI_Model>  (1) 
Pocket2Mol

>  <Protein>  (1) 
GPCR_5HT2C

$$$$
Pocket2Mol_90
     RDKit          3D

  0  0  0  0  0  0  0  0  0  0999 V3000
M  V30 BEGIN CTAB
M  V30 COUNTS 14 14 0 0 1
M  V30 BEGIN ATOM
M  V30 1 C 39.252477 27.727420 50.967760 0
M  V30 2 C 38.619482 27.752235 52.258199 0
M  V30 3 C 38.833054 28.936729 52.847516 0
M  V30 4 C 39.645137 29.737748 51.909949 0
M  V30 5 C 39.869568 28.893420 50.736287 0
M  V30 6 C 38.305471 29.273886 54.167719 0
M  V30 7 O 40.047687 30.887083 52.076835 0
M  V30 8 N 38.616780 30.519248 54.535717 0
M  V30 9 O 37.645136 28.522020 54.877376 0
M  V30 10 H 39.231790 26.892408 50.284101 0
M  V30 11 H 38.051093 26.937757 52.685828 0
M  V30 12 H 40.429996 29.189682 49.862340 0
M  V30 13 H 39.162919 31.106952 53.916778 0
M  V30 14 H 38.298051 30.874839 55.426285 0
M  V30 END ATOM
M  V30 BEGIN BOND
M  V30 1 1 2 1
M  V30 2 2 3 2
M  V30 3 1 4 3
M  V30 4 2 5 1
M  V30 5 1 5 4
M  V30 6 1 6 3
M  V30 7 2 7 4
M  V30 8 1 8 6
M  V30 9 2 9 6
M  V30 10 1 10 1
M  V30 11 1 11 2
M  V30 12 1 12 5
M  V30 13 1 13 8
M  V30 14 1 14 8
M  V30 END BOND
M  V30 END CTAB
M  END
>  <i_epik_Tot_Q>  (1) 
0

>  <i_epik_Tot_abs_Q>  (1) 
0

>  <i_i_glide_confnum>  (1) 
1

>  <i_i_glide_lignum>  (1) 
95

>  <i_i_glide_posenum>  (1) 
276

>  <i_i_glide_rotatable_bonds>  (1) 
1

>  <i_lp_mmshare_version>  (1) 
72125

>  <i_m_source_file_index>  (1) 
91

>  <i_f3d_flags>  (1) 
0

>  <num_sample>  (1) 
100

>  <b_lp_Chiralities_Consistent>  (1) 
1

>  <r_epik_Charging_Adjusted_Penalty>  (1) 
0.0065050288304222097

>  <r_epik_Ionization_Penalty>  (1) 
0.0032614418865694397

>  <r_epik_Ionization_Penalty_Charging>  (1) 
0

>  <r_epik_Ionization_Penalty_Neutral>  (1) 
0.0032614418865694397

>  <r_epik_State_Penalty>  (1) 
0.0065050288304222097

>  <r_glide_ring_energy>  (1) 
0

>  <r_i_docking_score>  (1) 
-5.63923465571271

>  <r_i_glide_ecoul>  (1) 
-0.46717589402830106

>  <r_i_glide_eff_state_penalty>  (1) 
0.0065050288304222097

>  <r_i_glide_einternal>  (1) 
0.014434466212134289

>  <r_i_glide_emodel>  (1) 
-30.063085962101923

>  <r_i_glide_emodel_strain>  (1) 
0

>  <r_i_glide_energy>  (1) 
-21.375780879082587

>  <r_i_glide_erotb>  (1) 
0

>  <r_i_glide_esite>  (1) 
0

>  <r_i_glide_evdw>  (1) 
-20.908604985054286

>  <r_i_glide_gscore>  (1) 
-5.6457396845431322

>  <r_i_glide_gscore_strain>  (1) 
0

>  <r_i_glide_hbond>  (1) 
0

>  <r_i_glide_ligand_efficiency>  (1) 
-0.62658162841252329

>  <r_i_glide_ligand_efficiency_ln>  (1) 
-1.7637906000369423

>  <r_i_glide_ligand_efficiency_sa>  (1) 
-1.3033423090824092

>  <r_i_glide_lipo>  (1) 
-1.3060625103731403

>  <r_i_glide_metal>  (1) 
-0

>  <r_i_glide_rewards>  (1) 
-3.224170540813033

>  <r_lp_Energy>  (1) 
1.7710899999999998

>  <s_epik_cmdline>  (1) 
J2VwaWtfcHl0aG9uJywgJy1waHQnLCAnMS4wJywgJy1waCcsICc3LjQnLCAnLXRuJywgJzgnLCAnLW1hJywgJzUwMCcsICctaW1hZScsICc8aW5maWxlLm1hZT4nLCAnLW9tYWUnLCAnPG91dGZpbGUubWFlPic=

>  <s_epik_input>  (1) 
Tz1DMVtDSF09W0NIXVtDSF09QzFDKD1PKVtOSDJd

>  <s_glide_docking_method>  (1) 
confgen

>  <s_i_glide_gridfile>  (1) 
gpcr_5ht2c_6bqh_protein_autoprepared_prepared

>  <s_lp_Force_Field>  (1) 
S-OPLS

>  <s_lp_Variant>  (1) 
Pocket2Mol_90-1

>  <s_m_source_file>  (1) 
generated_GPCR_5HT2C_ligand_Pocket2Mol_2026-06-23_prepared.sdf

>  <GenAI_Model>  (1) 
Pocket2Mol

>  <Protein>  (1) 
GPCR_5HT2C

$$$$
Pocket2Mol_29
     RDKit          3D

  0  0  0  0  0  0  0  0  0  0999 V3000
M  V30 BEGIN CTAB
M  V30 COUNTS 13 13 0 0 1
M  V30 BEGIN ATOM
M  V30 1 C 37.646073 28.389050 53.367762 0
M  V30 2 C 37.738917 29.424958 54.318834 0
M  V30 3 C 38.553981 28.338479 52.290359 0
M  V30 4 C 38.738033 30.410403 54.192591 0
M  V30 5 O 38.464763 27.337757 51.367786 0
M  V30 6 C 39.645149 30.360135 53.115798 0
M  V30 7 C 39.553566 29.324274 52.164806 0
M  V30 8 H 36.878869 27.634876 53.465095 0
M  V30 9 H 37.042571 29.465699 55.144156 0
M  V30 10 H 38.807167 31.205566 54.921280 0
M  V30 11 H 37.657884 26.840097 51.410957 0
M  V30 12 H 40.410363 31.116586 53.018096 0
M  V30 13 H 40.248812 29.286776 51.338560 0
M  V30 END ATOM
M  V30 BEGIN BOND
M  V30 1 1 2 1
M  V30 2 2 3 1
M  V30 3 2 4 2
M  V30 4 1 5 3
M  V30 5 1 6 4
M  V30 6 1 7 3
M  V30 7 2 7 6
M  V30 8 1 8 1
M  V30 9 1 9 2
M  V30 10 1 10 4
M  V30 11 1 11 5
M  V30 12 1 12 6
M  V30 13 1 13 7
M  V30 END BOND
M  V30 END CTAB
M  END
>  <i_epik_Tot_Q>  (1) 
0

>  <i_epik_Tot_abs_Q>  (1) 
0

>  <i_i_glide_confnum>  (1) 
1

>  <i_i_glide_lignum>  (1) 
32

>  <i_i_glide_posenum>  (1) 
224

>  <i_i_glide_rotatable_bonds>  (1) 
1

>  <i_lp_mmshare_version>  (1) 
72125

>  <i_m_source_file_index>  (1) 
30

>  <i_f3d_flags>  (1) 
0

>  <num_sample>  (1) 
100

>  <b_lp_Chiralities_Consistent>  (1) 
1

>  <r_epik_Charging_Adjusted_Penalty>  (1) 
0

>  <r_epik_Ionization_Penalty>  (1) 
0.0022482968708945868

>  <r_epik_Ionization_Penalty_Charging>  (1) 
0

>  <r_epik_Ionization_Penalty_Neutral>  (1) 
0.0022482968708945868

>  <r_epik_State_Penalty>  (1) 
-0

>  <r_glide_ring_energy>  (1) 
0

>  <r_i_docking_score>  (1) 
-5.6384472045453871

>  <r_i_glide_ecoul>  (1) 
-3.125659784925217

>  <r_i_glide_eff_state_penalty>  (1) 
-0

>  <r_i_glide_einternal>  (1) 
0.1231887873229804

>  <r_i_glide_emodel>  (1) 
-24.583357989127077

>  <r_i_glide_emodel_strain>  (1) 
0

>  <r_i_glide_energy>  (1) 
-18.081376255760333

>  <r_i_glide_erotb>  (1) 
0

>  <r_i_glide_esite>  (1) 
0

>  <r_i_glide_evdw>  (1) 
-14.955716470835117

>  <r_i_glide_gscore>  (1) 
-5.6384472045453871

>  <r_i_glide_gscore_strain>  (1) 
0

>  <r_i_glide_hbond>  (1) 
-0.32000000000000001

>  <r_i_glide_ligand_efficiency>  (1) 
-0.80549245779219814

>  <r_i_glide_ligand_efficiency_ln>  (1) 
-1.9139915745066118

>  <r_i_glide_ligand_efficiency_sa>  (1) 
-1.5408516399986685

>  <r_i_glide_lipo>  (1) 
-1.6983518323643134

>  <r_i_glide_metal>  (1) 
-0

>  <r_i_glide_rewards>  (1) 
-2.4034605809005347

>  <r_lp_Energy>  (1) 
6.6738649999999993

>  <r_lp_tautomer_probability>  (1) 
1

>  <s_epik_cmdline>  (1) 
J2VwaWtfcHl0aG9uJywgJy1waHQnLCAnMS4wJywgJy1waCcsICc3LjQnLCAnLXRuJywgJzgnLCAnLW1hJywgJzUwMCcsICctaW1hZScsICc8aW5maWxlLm1hZT4nLCAnLW9tYWUnLCAnPG91dGZpbGUubWFlPic=

>  <s_epik_input>  (1) 
W09IXWMxW2NIXVtjSF1bY0hdW2NIXVtjSF0x

>  <s_glide_docking_method>  (1) 
confgen

>  <s_i_glide_gridfile>  (1) 
gpcr_5ht2c_6bqh_protein_autoprepared_prepared

>  <s_lp_Force_Field>  (1) 
S-OPLS

>  <s_lp_Variant>  (1) 
Pocket2Mol_29-1

>  <s_m_source_file>  (1) 
generated_GPCR_5HT2C_ligand_Pocket2Mol_2026-06-23_prepared.sdf

>  <GenAI_Model>  (1) 
Pocket2Mol

>  <Protein>  (1) 
GPCR_5HT2C

$$$$
Pocket2Mol_86
     RDKit          3D

  0  0  0  0  0  0  0  0  0  0999 V3000
M  V30 BEGIN CTAB
M  V30 COUNTS 17 17 0 0 1
M  V30 BEGIN ATOM
M  V30 1 C 39.645140 30.358912 52.970867 0
M  V30 2 C 38.835372 30.140020 54.105293 0
M  V30 3 C 39.645137 29.425580 51.915296 0
M  V30 4 O 40.422124 29.636857 50.817296 0
M  V30 5 C 38.840422 28.272639 51.992134 0
M  V30 6 C 38.828975 31.143843 55.241130 0
M  V30 7 O 38.845144 27.369355 50.967760 0
M  V30 8 C 38.027893 28.986320 54.180129 0
M  V30 9 C 38.030877 28.052916 53.124219 0
M  V30 10 H 40.263566 31.242846 52.908756 0
M  V30 11 H 40.248524 28.957176 50.181620 0
M  V30 12 H 39.494414 31.984283 55.040925 0
M  V30 13 H 37.822303 31.536390 55.392054 0
M  V30 14 H 39.151883 30.668846 56.167668 0
M  V30 15 H 38.172997 26.707311 51.052352 0
M  V30 16 H 37.405973 28.818251 55.046688 0
M  V30 17 H 37.411758 27.169000 53.183676 0
M  V30 END ATOM
M  V30 BEGIN BOND
M  V30 1 2 2 1
M  V30 2 1 3 1
M  V30 3 1 4 3
M  V30 4 2 5 3
M  V30 5 1 6 2
M  V30 6 1 7 5
M  V30 7 1 8 2
M  V30 8 1 9 5
M  V30 9 2 9 8
M  V30 10 1 10 1
M  V30 11 1 11 4
M  V30 12 1 12 6
M  V30 13 1 13 6
M  V30 14 1 14 6
M  V30 15 1 15 7
M  V30 16 1 16 8
M  V30 17 1 17 9
M  V30 END BOND
M  V30 END CTAB
M  END
>  <i_epik_Tot_Q>  (1) 
0

>  <i_epik_Tot_abs_Q>  (1) 
0

>  <i_i_glide_confnum>  (1) 
1

>  <i_i_glide_lignum>  (1) 
91

>  <i_i_glide_posenum>  (1) 
285

>  <i_i_glide_rotatable_bonds>  (1) 
2

>  <i_lp_mmshare_version>  (1) 
72125

>  <i_m_source_file_index>  (1) 
87

>  <i_f3d_flags>  (1) 
0

>  <num_sample>  (1) 
100

>  <b_lp_Chiralities_Consistent>  (1) 
1

>  <r_epik_Charging_Adjusted_Penalty>  (1) 
0

>  <r_epik_Ionization_Penalty>  (1) 
0.0034619861512114073

>  <r_epik_Ionization_Penalty_Charging>  (1) 
0

>  <r_epik_Ionization_Penalty_Neutral>  (1) 
0.0034619861512114073

>  <r_epik_State_Penalty>  (1) 
-0

>  <r_glide_ring_energy>  (1) 
0

>  <r_i_docking_score>  (1) 
-5.6379188133264462

>  <r_i_glide_ecoul>  (1) 
-1.6398989388608785

>  <r_i_glide_eff_state_penalty>  (1) 
-0

>  <r_i_glide_einternal>  (1) 
0.14561743292020546

>  <r_i_glide_emodel>  (1) 
-30.930097582581141

>  <r_i_glide_emodel_strain>  (1) 
0

>  <r_i_glide_energy>  (1) 
-21.920676427359407

>  <r_i_glide_erotb>  (1) 
0

>  <r_i_glide_esite>  (1) 
0

>  <r_i_glide_evdw>  (1) 
-20.280777488498529

>  <r_i_glide_gscore>  (1) 
-5.6379188133264462

>  <r_i_glide_gscore_strain>  (1) 
0

>  <r_i_glide_hbond>  (1) 
-0.0045819111429737831

>  <r_i_glide_ligand_efficiency>  (1) 
-0.62643542370293848

>  <r_i_glide_ligand_efficiency_ln>  (1) 
-1.7633790423391844

>  <r_i_glide_ligand_efficiency_sa>  (1) 
-1.3030381910311479

>  <r_i_glide_lipo>  (1) 
-1.8805825961413432

>  <r_i_glide_metal>  (1) 
-0

>  <r_i_glide_rewards>  (1) 
-2.4927305907880708

>  <r_lp_Energy>  (1) 
6.77806

>  <r_lp_tautomer_probability>  (1) 
1

>  <s_epik_cmdline>  (1) 
J2VwaWtfcHl0aG9uJywgJy1waHQnLCAnMS4wJywgJy1waCcsICc3LjQnLCAnLXRuJywgJzgnLCAnLW1hJywgJzUwMCcsICctaW1hZScsICc8aW5maWxlLm1hZT4nLCAnLW9tYWUnLCAnPG91dGZpbGUubWFlPic=

>  <s_epik_input>  (1) 
W0NIM11jMVtjSF1jKFtPSF0pYyhbT0hdKVtjSF1bY0hdMQ==

>  <s_glide_docking_method>  (1) 
confgen

>  <s_i_glide_gridfile>  (1) 
gpcr_5ht2c_6bqh_protein_autoprepared_prepared

>  <s_lp_Force_Field>  (1) 
S-OPLS

>  <s_lp_Variant>  (1) 
Pocket2Mol_86-1

>  <s_m_source_file>  (1) 
generated_GPCR_5HT2C_ligand_Pocket2Mol_2026-06-23_prepared.sdf

>  <GenAI_Model>  (1) 
Pocket2Mol

>  <Protein>  (1) 
GPCR_5HT2C

$$$$
Pocket2Mol_49
     RDKit          3D

  0  0  0  0  0  0  0  0  0  0999 V3000
M  V30 BEGIN CTAB
M  V30 COUNTS 16 16 0 0 1
M  V30 BEGIN ATOM
M  V30 1 C 37.985205 28.552085 54.089961 0
M  V30 2 C 38.212999 27.894534 52.866077 0
M  V30 3 C 39.043369 28.484970 51.891327 0
M  V30 4 C 39.285145 27.777618 50.574855 0
M  V30 5 C 39.645145 29.737733 52.143941 0
M  V30 6 O 40.445114 30.317739 51.199413 0
M  V30 7 C 38.587121 29.800047 54.342909 0
M  V30 8 C 39.417270 30.392410 53.371214 0
M  V30 9 H 37.348199 28.099321 54.835037 0
M  V30 10 H 37.749115 26.937699 52.673876 0
M  V30 11 H 38.845136 26.780316 50.567621 0
M  V30 12 H 38.845304 28.359269 49.767760 0
M  V30 13 H 40.353407 27.683752 50.384391 0
M  V30 14 H 40.722214 31.193871 51.423243 0
M  V30 15 H 38.410575 30.304082 55.282353 0
M  V30 16 H 39.876336 31.349566 53.567043 0
M  V30 END ATOM
M  V30 BEGIN BOND
M  V30 1 1 2 1
M  V30 2 2 3 2
M  V30 3 1 4 3
M  V30 4 1 5 3
M  V30 5 1 6 5
M  V30 6 2 7 1
M  V30 7 2 8 5
M  V30 8 1 8 7
M  V30 9 1 9 1
M  V30 10 1 10 2
M  V30 11 1 11 4
M  V30 12 1 12 4
M  V30 13 1 13 4
M  V30 14 1 14 6
M  V30 15 1 15 7
M  V30 16 1 16 8
M  V30 END BOND
M  V30 END CTAB
M  END
>  <i_epik_Tot_Q>  (1) 
0

>  <i_epik_Tot_abs_Q>  (1) 
0

>  <i_i_glide_confnum>  (1) 
1

>  <i_i_glide_lignum>  (1) 
52

>  <i_i_glide_posenum>  (1) 
41

>  <i_i_glide_rotatable_bonds>  (1) 
1

>  <i_lp_mmshare_version>  (1) 
72125

>  <i_m_source_file_index>  (1) 
50

>  <i_f3d_flags>  (1) 
0

>  <num_sample>  (1) 
100

>  <b_lp_Chiralities_Consistent>  (1) 
1

>  <r_epik_Charging_Adjusted_Penalty>  (1) 
0

>  <r_epik_Ionization_Penalty>  (1) 
0.00081241911792291806

>  <r_epik_Ionization_Penalty_Charging>  (1) 
0

>  <r_epik_Ionization_Penalty_Neutral>  (1) 
0.00081241911792291806

>  <r_epik_State_Penalty>  (1) 
-0

>  <r_glide_ring_energy>  (1) 
0

>  <r_i_docking_score>  (1) 
-5.636167790753742

>  <r_i_glide_ecoul>  (1) 
-1.6428988493218617

>  <r_i_glide_eff_state_penalty>  (1) 
-0

>  <r_i_glide_einternal>  (1) 
0.022583147799854097

>  <r_i_glide_emodel>  (1) 
-27.004106856041425

>  <r_i_glide_emodel_strain>  (1) 
0

>  <r_i_glide_energy>  (1) 
-19.944678411117039

>  <r_i_glide_erotb>  (1) 
0

>  <r_i_glide_esite>  (1) 
0

>  <r_i_glide_evdw>  (1) 
-18.301779561795176

>  <r_i_glide_gscore>  (1) 
-5.636167790753742

>  <r_i_glide_gscore_strain>  (1) 
0

>  <r_i_glide_hbond>  (1) 
0

>  <r_i_glide_ligand_efficiency>  (1) 
-0.70452097384421775

>  <r_i_glide_ligand_efficiency_ln>  (1) 
-1.8302564651638789

>  <r_i_glide_ligand_efficiency_sa>  (1) 
-1.4090419476884357

>  <r_i_glide_lipo>  (1) 
-2.0881754284123302

>  <r_i_glide_metal>  (1) 
-0

>  <r_i_glide_rewards>  (1) 
-2.3864685568533739

>  <r_lp_Energy>  (1) 
7.6312429999999996

>  <r_lp_tautomer_probability>  (1) 
1

>  <s_epik_cmdline>  (1) 
J2VwaWtfcHl0aG9uJywgJy1waHQnLCAnMS4wJywgJy1waCcsICc3LjQnLCAnLXRuJywgJzgnLCAnLW1hJywgJzUwMCcsICctaW1hZScsICc8aW5maWxlLm1hZT4nLCAnLW9tYWUnLCAnPG91dGZpbGUubWFlPic=

>  <s_epik_input>  (1) 
W0NIM11jMVtjSF1bY0hdW2NIXVtjSF1jMVtPSF0=

>  <s_glide_docking_method>  (1) 
confgen

>  <s_i_glide_gridfile>  (1) 
gpcr_5ht2c_6bqh_protein_autoprepared_prepared

>  <s_lp_Force_Field>  (1) 
S-OPLS

>  <s_lp_Variant>  (1) 
Pocket2Mol_49-1

>  <s_m_source_file>  (1) 
generated_GPCR_5HT2C_ligand_Pocket2Mol_2026-06-23_prepared.sdf

>  <GenAI_Model>  (1) 
Pocket2Mol

>  <Protein>  (1) 
GPCR_5HT2C

$$$$
Pocket2Mol_41
     RDKit          3D

  0  0  0  0  0  0  0  0  0  0999 V3000
M  V30 BEGIN CTAB
M  V30 COUNTS 15 15 0 0 1
M  V30 BEGIN ATOM
M  V30 1 C 38.058435 27.838309 52.907924 0
M  V30 2 C 38.033141 28.777685 53.992310 0
M  V30 3 C 38.845169 29.864024 53.777074 0
M  V30 4 C 39.067614 31.035202 54.673812 0
M  V30 5 C 38.889727 28.225123 51.884783 0
M  V30 6 C 39.163950 27.514690 50.608626 0
M  V30 7 S 39.645137 29.737758 52.245345 0
M  V30 8 H 37.474052 26.929742 52.917772 0
M  V30 9 H 37.428767 28.624940 54.874303 0
M  V30 10 H 38.500643 30.936442 55.600070 0
M  V30 11 H 40.122566 31.132775 54.931512 0
M  V30 12 H 38.751380 31.958177 54.186999 0
M  V30 13 H 38.645718 26.556128 50.567756 0
M  V30 14 H 38.845164 28.128074 49.767794 0
M  V30 15 H 40.229272 27.337781 50.486923 0
M  V30 END ATOM
M  V30 BEGIN BOND
M  V30 1 1 2 1
M  V30 2 2 3 2
M  V30 3 1 4 3
M  V30 4 2 5 1
M  V30 5 1 6 5
M  V30 6 1 7 3
M  V30 7 1 7 5
M  V30 8 1 8 1
M  V30 9 1 9 2
M  V30 10 1 10 4
M  V30 11 1 11 4
M  V30 12 1 12 4
M  V30 13 1 13 6
M  V30 14 1 14 6
M  V30 15 1 15 6
M  V30 END BOND
M  V30 END CTAB
M  END
>  <i_epik_Tot_Q>  (1) 
0

>  <i_epik_Tot_abs_Q>  (1) 
0

>  <i_i_glide_confnum>  (1) 
1

>  <i_i_glide_lignum>  (1) 
44

>  <i_i_glide_posenum>  (1) 
388

>  <i_i_glide_rotatable_bonds>  (1) 
0

>  <i_lp_mmshare_version>  (1) 
72125

>  <i_m_source_file_index>  (1) 
42

>  <i_f3d_flags>  (1) 
0

>  <num_sample>  (1) 
100

>  <b_lp_Chiralities_Consistent>  (1) 
1

>  <r_epik_Charging_Adjusted_Penalty>  (1) 
0

>  <r_epik_Ionization_Penalty>  (1) 
0

>  <r_epik_Ionization_Penalty_Charging>  (1) 
0

>  <r_epik_Ionization_Penalty_Neutral>  (1) 
0

>  <r_epik_State_Penalty>  (1) 
-0

>  <r_glide_ring_energy>  (1) 
0

>  <r_i_docking_score>  (1) 
-5.6354401961996867

>  <r_i_glide_ecoul>  (1) 
-0.89552841370016145

>  <r_i_glide_eff_state_penalty>  (1) 
-0

>  <r_i_glide_einternal>  (1) 
0

>  <r_i_glide_emodel>  (1) 
-24.696670155345711

>  <r_i_glide_emodel_strain>  (1) 
0

>  <r_i_glide_energy>  (1) 
-18.140259464278827

>  <r_i_glide_erotb>  (1) 
0

>  <r_i_glide_esite>  (1) 
0

>  <r_i_glide_evdw>  (1) 
-17.244731050578665

>  <r_i_glide_gscore>  (1) 
-5.6354401961996867

>  <r_i_glide_gscore_strain>  (1) 
0

>  <r_i_glide_hbond>  (1) 
0

>  <r_i_glide_ligand_efficiency>  (1) 
-0.8050628851713838

>  <r_i_glide_ligand_efficiency_ln>  (1) 
-1.9129708344997707

>  <r_i_glide_ligand_efficiency_sa>  (1) 
-1.5400298971370474

>  <r_i_glide_lipo>  (1) 
-2.0888743816157298

>  <r_i_glide_metal>  (1) 
-0

>  <r_i_glide_rewards>  (1) 
-2.5499999999999998

>  <r_lp_Energy>  (1) 
3.6641779999999997

>  <r_lp_tautomer_probability>  (1) 
1

>  <s_epik_cmdline>  (1) 
J2VwaWtfcHl0aG9uJywgJy1waHQnLCAnMS4wJywgJy1waCcsICc3LjQnLCAnLXRuJywgJzgnLCAnLW1hJywgJzUwMCcsICctaW1hZScsICc8aW5maWxlLm1hZT4nLCAnLW9tYWUnLCAnPG91dGZpbGUubWFlPic=

>  <s_epik_input>  (1) 
W0NIM11jKHMxKVtjSF1bY0hdYzFbQ0gzXQ==

>  <s_glide_docking_method>  (1) 
confgen

>  <s_i_glide_gridfile>  (1) 
gpcr_5ht2c_6bqh_protein_autoprepared_prepared

>  <s_lp_Force_Field>  (1) 
S-OPLS

>  <s_lp_Variant>  (1) 
Pocket2Mol_41-1

>  <s_m_source_file>  (1) 
generated_GPCR_5HT2C_ligand_Pocket2Mol_2026-06-23_prepared.sdf

>  <GenAI_Model>  (1) 
Pocket2Mol

>  <Protein>  (1) 
GPCR_5HT2C

$$$$
Pocket2Mol_65
     RDKit          3D

  0  0  0  0  0  0  0  0  0  0999 V3000
M  V30 BEGIN CTAB
M  V30 COUNTS 20 20 0 0 1
M  V30 BEGIN ATOM
M  V30 1 C 39.268532 28.451543 51.458611 0
M  V30 2 C 38.721756 28.206103 52.863474 0
M  V30 3 C 40.001211 29.786435 51.562285 0
M  V30 4 C 39.666027 30.316491 52.965423 0
M  V30 5 N 38.494520 29.551315 53.367827 0
M  V30 6 N 38.206692 29.597977 54.778454 0 CHG=1
M  V30 7 C 37.583204 30.670907 55.308286 0
M  V30 8 N 37.245133 31.737746 54.567759 0
M  V30 9 H 39.915892 27.642209 51.119574 0
M  V30 10 H 38.445137 28.535476 50.747677 0
M  V30 11 H 39.464280 27.692410 53.476469 0
M  V30 12 H 37.807472 27.610938 52.852559 0
M  V30 13 H 41.074594 29.668690 51.413413 0
M  V30 14 H 39.645180 30.472138 50.792239 0
M  V30 15 H 39.473224 31.389284 52.960105 0
M  V30 16 H 40.489504 30.137746 53.655674 0
M  V30 17 H 37.345325 30.671249 56.366814 0
M  V30 18 H 37.485379 31.773152 53.587269 0
M  V30 19 H 36.695193 32.497989 54.990195 0
M  V30 20 H 38.470707 28.784150 55.316965 0
M  V30 END ATOM
M  V30 BEGIN BOND
M  V30 1 1 2 1
M  V30 2 1 3 1
M  V30 3 1 4 3
M  V30 4 1 5 2
M  V30 5 1 5 4
M  V30 6 1 6 5
M  V30 7 2 7 6
M  V30 8 1 8 7
M  V30 9 1 9 1
M  V30 10 1 10 1
M  V30 11 1 11 2
M  V30 12 1 12 2
M  V30 13 1 13 3
M  V30 14 1 14 3
M  V30 15 1 15 4
M  V30 16 1 16 4
M  V30 17 1 17 7
M  V30 18 1 18 8
M  V30 19 1 19 8
M  V30 20 1 20 6
M  V30 END BOND
M  V30 END CTAB
M  END
>  <i_epik_Tot_Q>  (1) 
1

>  <i_epik_Tot_abs_Q>  (1) 
1

>  <i_i_glide_confnum>  (1) 
1

>  <i_i_glide_lignum>  (1) 
70

>  <i_i_glide_posenum>  (1) 
325

>  <i_i_glide_rotatable_bonds>  (1) 
1

>  <i_lp_mmshare_version>  (1) 
72125

>  <i_m_source_file_index>  (1) 
66

>  <i_f3d_flags>  (1) 
0

>  <num_sample>  (1) 
100

>  <b_lp_Chiralities_Consistent>  (1) 
1

>  <r_epik_Charging_Adjusted_Penalty>  (1) 
1.6312684749255997e-05

>  <r_epik_Ionization_Penalty>  (1) 
1.6401951855999153e-05

>  <r_epik_Ionization_Penalty_Charging>  (1) 
1.6312684749255997e-05

>  <r_epik_Ionization_Penalty_Neutral>  (1) 
8.9267106743156534e-08

>  <r_epik_State_Penalty>  (1) 
-0

>  <r_glide_ring_energy>  (1) 
0

>  <r_i_docking_score>  (1) 
-5.63425269824761

>  <r_i_glide_ecoul>  (1) 
-5.2087025068593524

>  <r_i_glide_eff_state_penalty>  (1) 
-0

>  <r_i_glide_einternal>  (1) 
0.71429217669352219

>  <r_i_glide_emodel>  (1) 
-28.311607952486415

>  <r_i_glide_emodel_strain>  (1) 
0.051857223452781653

>  <r_i_glide_energy>  (1) 
-17.848551116046004

>  <r_i_glide_erotb>  (1) 
0

>  <r_i_glide_esite>  (1) 
-0.14794501941153235

>  <r_i_glide_evdw>  (1) 
-12.639848609186652

>  <r_i_glide_gscore>  (1) 
-5.63425269824761

>  <r_i_glide_gscore_strain>  (1) 
0

>  <r_i_glide_hbond>  (1) 
-0.20769956404631801

>  <r_i_glide_ligand_efficiency>  (1) 
-0.70428158728095125

>  <r_i_glide_ligand_efficiency_ln>  (1) 
-1.8296345691219469

>  <r_i_glide_ligand_efficiency_sa>  (1) 
-1.4085631745619027

>  <r_i_glide_lipo>  (1) 
-1.3155405682049395

>  <r_i_glide_metal>  (1) 
-0

>  <r_i_glide_rewards>  (1) 
-2.5497697400965853

>  <r_lp_Energy>  (1) 
13.886725999999999

>  <r_lp_tautomer_probability>  (1) 
1

>  <s_epik_Chemistry_Notes>  (1) 
This compound has an imine and may undergo hydrolysis.

>  <s_epik_cmdline>  (1) 
J2VwaWtfcHl0aG9uJywgJy1waHQnLCAnMS4wJywgJy1waCcsICc3LjQnLCAnLXRuJywgJzgnLCAnLW1hJywgJzUwMCcsICctaW1hZScsICc8aW5maWxlLm1hZT4nLCAnLW9tYWUnLCAnPG91dGZpbGUubWFlPic=

>  <s_epik_input>  (1) 
W0NIMl0xW0NIMl1bQ0gyXVtDSDJdTjEvTj1bQ0hdXFtOSDJd

>  <s_glide_docking_method>  (1) 
confgen

>  <s_i_glide_gridfile>  (1) 
gpcr_5ht2c_6bqh_protein_autoprepared_prepared

>  <s_lp_Force_Field>  (1) 
S-OPLS

>  <s_lp_Variant>  (1) 
Pocket2Mol_65-2

>  <s_m_source_file>  (1) 
generated_GPCR_5HT2C_ligand_Pocket2Mol_2026-06-23_prepared.sdf

>  <GenAI_Model>  (1) 
Pocket2Mol

>  <Protein>  (1) 
GPCR_5HT2C

$$$$
Pocket2Mol_51
     RDKit          3D

  0  0  0  0  0  0  0  0  0  0999 V3000
M  V30 BEGIN CTAB
M  V30 COUNTS 18 18 0 0 1
M  V30 BEGIN ATOM
M  V30 1 C 38.240680 28.129177 52.530355 0
M  V30 2 C 37.645134 28.482411 53.756120 0
M  V30 3 C 38.047827 29.656961 54.424747 0
M  V30 4 C 37.400275 30.039749 55.739014 0
M  V30 5 C 39.240295 28.948446 51.970350 0
M  V30 6 C 39.876495 28.571754 50.650474 0
M  V30 7 C 39.645152 30.122765 52.640003 0
M  V30 8 C 39.050508 30.475693 53.866188 0
M  V30 9 H 37.928408 27.230377 52.018418 0
M  V30 10 H 36.876665 27.853891 54.181828 0
M  V30 11 H 37.775358 30.993365 56.112183 0
M  V30 12 H 36.322693 30.137335 55.608405 0
M  V30 13 H 37.589819 29.278438 56.495488 0
M  V30 14 H 40.845138 29.057622 50.552725 0
M  V30 15 H 40.020365 27.493432 50.575447 0
M  V30 16 H 39.249904 28.893244 49.819101 0
M  V30 17 H 40.410881 30.753880 52.211829 0
M  V30 18 H 39.360729 31.376407 54.375909 0
M  V30 END ATOM
M  V30 BEGIN BOND
M  V30 1 2 2 1
M  V30 2 1 3 2
M  V30 3 1 4 3
M  V30 4 1 5 1
M  V30 5 1 6 5
M  V30 6 2 7 5
M  V30 7 2 8 3
M  V30 8 1 8 7
M  V30 9 1 9 1
M  V30 10 1 10 2
M  V30 11 1 11 4
M  V30 12 1 12 4
M  V30 13 1 13 4
M  V30 14 1 14 6
M  V30 15 1 15 6
M  V30 16 1 16 6
M  V30 17 1 17 7
M  V30 18 1 18 8
M  V30 END BOND
M  V30 END CTAB
M  END
>  <i_epik_Tot_Q>  (1) 
0

>  <i_epik_Tot_abs_Q>  (1) 
0

>  <i_i_glide_confnum>  (1) 
1

>  <i_i_glide_lignum>  (1) 
54

>  <i_i_glide_posenum>  (1) 
121

>  <i_i_glide_rotatable_bonds>  (1) 
0

>  <i_lp_mmshare_version>  (1) 
72125

>  <i_m_source_file_index>  (1) 
52

>  <i_f3d_flags>  (1) 
0

>  <num_sample>  (1) 
100

>  <b_lp_Chiralities_Consistent>  (1) 
1

>  <r_epik_Charging_Adjusted_Penalty>  (1) 
0

>  <r_epik_Ionization_Penalty>  (1) 
0

>  <r_epik_Ionization_Penalty_Charging>  (1) 
0

>  <r_epik_Ionization_Penalty_Neutral>  (1) 
0

>  <r_epik_State_Penalty>  (1) 
-0

>  <r_glide_ring_energy>  (1) 
0

>  <r_i_docking_score>  (1) 
-5.6233580049775229

>  <r_i_glide_ecoul>  (1) 
-1.434163877605813

>  <r_i_glide_eff_state_penalty>  (1) 
-0

>  <r_i_glide_einternal>  (1) 
0

>  <r_i_glide_emodel>  (1) 
-25.447326925052998

>  <r_i_glide_emodel_strain>  (1) 
0.0017808657925968419

>  <r_i_glide_energy>  (1) 
-18.812837024465349

>  <r_i_glide_erotb>  (1) 
0

>  <r_i_glide_esite>  (1) 
0

>  <r_i_glide_evdw>  (1) 
-17.378673146859537

>  <r_i_glide_gscore>  (1) 
-5.6233580049775229

>  <r_i_glide_gscore_strain>  (1) 
0

>  <r_i_glide_hbond>  (1) 
0

>  <r_i_glide_ligand_efficiency>  (1) 
-0.70291975062219036

>  <r_i_glide_ligand_efficiency_ln>  (1) 
-1.8260966895672845

>  <r_i_glide_ligand_efficiency_sa>  (1) 
-1.405839501244381

>  <r_i_glide_lipo>  (1) 
-2.0291429070239815

>  <r_i_glide_metal>  (1) 
-0

>  <r_i_glide_rewards>  (1) 
-2.510156858969693

>  <r_lp_Energy>  (1) 
3.9239269999999999

>  <r_lp_tautomer_probability>  (1) 
1

>  <s_epik_cmdline>  (1) 
J2VwaWtfcHl0aG9uJywgJy1waHQnLCAnMS4wJywgJy1waCcsICc3LjQnLCAnLXRuJywgJzgnLCAnLW1hJywgJzUwMCcsICctaW1hZScsICc8aW5maWxlLm1hZT4nLCAnLW9tYWUnLCAnPG91dGZpbGUubWFlPic=

>  <s_epik_input>  (1) 
W2NIXTFbY0hdYyhbQ0gzXSlbY0hdW2NIXWMxW0NIM10=

>  <s_glide_docking_method>  (1) 
confgen

>  <s_i_glide_gridfile>  (1) 
gpcr_5ht2c_6bqh_protein_autoprepared_prepared

>  <s_lp_Force_Field>  (1) 
S-OPLS

>  <s_lp_Variant>  (1) 
Pocket2Mol_51-1

>  <s_m_source_file>  (1) 
generated_GPCR_5HT2C_ligand_Pocket2Mol_2026-06-23_prepared.sdf

>  <GenAI_Model>  (1) 
Pocket2Mol

>  <Protein>  (1) 
GPCR_5HT2C

$$$$
Pocket2Mol_64
     RDKit          3D

  0  0  0  0  0  0  0  0  0  0999 V3000
M  V30 BEGIN CTAB
M  V30 COUNTS 15 15 0 0 1
M  V30 BEGIN ATOM
M  V30 1 C 40.045137 30.537368 52.387120 0
M  V30 2 C 39.499909 30.444653 53.682623 0
M  V30 3 C 38.640905 29.377226 54.010877 0
M  V30 4 C 38.326781 28.401300 53.043158 0
M  V30 5 C 39.732293 29.563674 51.419023 0
M  V30 6 N 37.476234 27.346288 53.367761 0
M  V30 7 O 40.258872 29.657708 50.164393 0
M  V30 8 C 38.873372 28.494772 51.746504 0
M  V30 9 H 40.702807 31.354963 52.137195 0
M  V30 10 H 39.740174 31.192545 54.424268 0
M  V30 11 H 38.223094 29.308451 55.004945 0
M  V30 12 H 37.113357 26.736231 52.643459 0
M  V30 13 H 36.964169 27.353573 54.237806 0
M  V30 14 H 40.763360 30.446275 50.034305 0
M  V30 15 H 38.632933 27.748710 51.002525 0
M  V30 END ATOM
M  V30 BEGIN BOND
M  V30 1 1 2 1
M  V30 2 2 3 2
M  V30 3 1 4 3
M  V30 4 2 5 1
M  V30 5 1 6 4
M  V30 6 1 7 5
M  V30 7 2 8 4
M  V30 8 1 8 5
M  V30 9 1 9 1
M  V30 10 1 10 2
M  V30 11 1 11 3
M  V30 12 1 12 6
M  V30 13 1 13 6
M  V30 14 1 14 7
M  V30 15 1 15 8
M  V30 END BOND
M  V30 END CTAB
M  END
>  <i_epik_Tot_Q>  (1) 
0

>  <i_epik_Tot_abs_Q>  (1) 
0

>  <i_i_glide_confnum>  (1) 
1

>  <i_i_glide_lignum>  (1) 
68

>  <i_i_glide_posenum>  (1) 
104

>  <i_i_glide_rotatable_bonds>  (1) 
1

>  <i_lp_mmshare_version>  (1) 
72125

>  <i_m_source_file_index>  (1) 
65

>  <i_f3d_flags>  (1) 
0

>  <num_sample>  (1) 
100

>  <b_lp_Chiralities_Consistent>  (1) 
1

>  <r_epik_Charging_Adjusted_Penalty>  (1) 
0

>  <r_epik_Ionization_Penalty>  (1) 
0.0026005809723615375

>  <r_epik_Ionization_Penalty_Charging>  (1) 
0

>  <r_epik_Ionization_Penalty_Neutral>  (1) 
0.0026005809723615375

>  <r_epik_State_Penalty>  (1) 
-0

>  <r_glide_ring_energy>  (1) 
0

>  <r_i_docking_score>  (1) 
-5.6217850744885673

>  <r_i_glide_ecoul>  (1) 
-2.1690209929983904

>  <r_i_glide_eff_state_penalty>  (1) 
-0

>  <r_i_glide_einternal>  (1) 
0.02597394883388611

>  <r_i_glide_emodel>  (1) 
-27.245027430681606

>  <r_i_glide_emodel_strain>  (1) 
0

>  <r_i_glide_energy>  (1) 
-19.9414288105169

>  <r_i_glide_erotb>  (1) 
0

>  <r_i_glide_esite>  (1) 
0

>  <r_i_glide_evdw>  (1) 
-17.772407817518509

>  <r_i_glide_gscore>  (1) 
-5.6217850744885673

>  <r_i_glide_gscore_strain>  (1) 
0

>  <r_i_glide_hbond>  (1) 
-0.28681253101454096

>  <r_i_glide_ligand_efficiency>  (1) 
-0.70272313431107092

>  <r_i_glide_ligand_efficiency_ln>  (1) 
-1.8255859052358834

>  <r_i_glide_ligand_efficiency_sa>  (1) 
-1.4054462686221421

>  <r_i_glide_lipo>  (1) 
-1.7093597540079535

>  <r_i_glide_metal>  (1) 
-0

>  <r_i_glide_rewards>  (1) 
-2.4116392496403898

>  <r_lp_Energy>  (1) 
4.3794230000000001

>  <r_lp_tautomer_probability>  (1) 
1

>  <s_epik_cmdline>  (1) 
J2VwaWtfcHl0aG9uJywgJy1waHQnLCAnMS4wJywgJy1waCcsICc3LjQnLCAnLXRuJywgJzgnLCAnLW1hJywgJzUwMCcsICctaW1hZScsICc8aW5maWxlLm1hZT4nLCAnLW9tYWUnLCAnPG91dGZpbGUubWFlPic=

>  <s_epik_input>  (1) 
W09IXWMoW2NIXTEpW2NIXVtjSF1bY0hdYzFbTkgyXQ==

>  <s_glide_docking_method>  (1) 
confgen

>  <s_i_glide_gridfile>  (1) 
gpcr_5ht2c_6bqh_protein_autoprepared_prepared

>  <s_lp_Force_Field>  (1) 
S-OPLS

>  <s_lp_Variant>  (1) 
Pocket2Mol_64-1

>  <s_m_source_file>  (1) 
generated_GPCR_5HT2C_ligand_Pocket2Mol_2026-06-23_prepared.sdf

>  <GenAI_Model>  (1) 
Pocket2Mol

>  <Protein>  (1) 
GPCR_5HT2C

$$$$
Pocket2Mol_34
     RDKit          3D

  0  0  0  0  0  0  0  0  0  0999 V3000
M  V30 BEGIN CTAB
M  V30 COUNTS 12 12 0 0 1
M  V30 BEGIN ATOM
M  V30 1 C 38.669992 28.120175 52.044571 0
M  V30 2 C 38.200478 28.422701 53.338135 0
M  V30 3 C 38.653493 29.581865 53.998654 0
M  V30 4 C 39.575914 30.438266 53.365501 0
M  V30 5 C 39.592243 28.976379 51.411483 0
M  V30 6 F 40.043262 28.685477 50.168485 0
M  V30 7 C 40.045137 30.135315 52.071929 0
M  V30 8 H 38.323500 27.231938 51.537209 0
M  V30 9 H 37.493343 27.765842 53.823076 0
M  V30 10 H 38.293624 29.813978 54.990444 0
M  V30 11 H 39.923516 31.327021 53.871425 0
M  V30 12 H 40.752212 30.790977 51.585529 0
M  V30 END ATOM
M  V30 BEGIN BOND
M  V30 1 1 2 1
M  V30 2 2 3 2
M  V30 3 1 4 3
M  V30 4 2 5 1
M  V30 5 1 6 5
M  V30 6 2 7 4
M  V30 7 1 7 5
M  V30 8 1 8 1
M  V30 9 1 9 2
M  V30 10 1 10 3
M  V30 11 1 11 4
M  V30 12 1 12 7
M  V30 END BOND
M  V30 END CTAB
M  END
>  <i_epik_Tot_Q>  (1) 
0

>  <i_epik_Tot_abs_Q>  (1) 
0

>  <i_i_glide_confnum>  (1) 
1

>  <i_i_glide_lignum>  (1) 
37

>  <i_i_glide_posenum>  (1) 
86

>  <i_i_glide_rotatable_bonds>  (1) 
0

>  <i_lp_mmshare_version>  (1) 
72125

>  <i_m_source_file_index>  (1) 
35

>  <i_f3d_flags>  (1) 
0

>  <num_sample>  (1) 
100

>  <b_lp_Chiralities_Consistent>  (1) 
1

>  <r_epik_Charging_Adjusted_Penalty>  (1) 
0

>  <r_epik_Ionization_Penalty>  (1) 
0

>  <r_epik_Ionization_Penalty_Charging>  (1) 
0

>  <r_epik_Ionization_Penalty_Neutral>  (1) 
0

>  <r_epik_State_Penalty>  (1) 
-0

>  <r_glide_ring_energy>  (1) 
0

>  <r_i_docking_score>  (1) 
-5.6217370380815304

>  <r_i_glide_ecoul>  (1) 
-0.76700264728524137

>  <r_i_glide_eff_state_penalty>  (1) 
-0

>  <r_i_glide_einternal>  (1) 
0

>  <r_i_glide_emodel>  (1) 
-20.879007480531236

>  <r_i_glide_emodel_strain>  (1) 
0

>  <r_i_glide_energy>  (1) 
-15.337442309368928

>  <r_i_glide_erotb>  (1) 
0

>  <r_i_glide_esite>  (1) 
0

>  <r_i_glide_evdw>  (1) 
-14.570439662083686

>  <r_i_glide_gscore>  (1) 
-5.6217370380815304

>  <r_i_glide_gscore_strain>  (1) 
0

>  <r_i_glide_hbond>  (1) 
0

>  <r_i_glide_ligand_efficiency>  (1) 
-0.80310529115450435

>  <r_i_glide_ligand_efficiency_ln>  (1) 
-1.9083192472398705

>  <r_i_glide_ligand_efficiency_sa>  (1) 
-1.53628515449895

>  <r_i_glide_lipo>  (1) 
-1.8109739322974272

>  <r_i_glide_metal>  (1) 
-0

>  <r_i_glide_rewards>  (1) 
-2.9671907255871321

>  <r_lp_Energy>  (1) 
8.194445

>  <r_lp_tautomer_probability>  (1) 
1

>  <s_epik_cmdline>  (1) 
J2VwaWtfcHl0aG9uJywgJy1waHQnLCAnMS4wJywgJy1waCcsICc3LjQnLCAnLXRuJywgJzgnLCAnLW1hJywgJzUwMCcsICctaW1hZScsICc8aW5maWxlLm1hZT4nLCAnLW9tYWUnLCAnPG91dGZpbGUubWFlPic=

>  <s_epik_input>  (1) 
RmMxW2NIXVtjSF1bY0hdW2NIXVtjSF0x

>  <s_glide_docking_method>  (1) 
confgen

>  <s_i_glide_gridfile>  (1) 
gpcr_5ht2c_6bqh_protein_autoprepared_prepared

>  <s_lp_Force_Field>  (1) 
S-OPLS

>  <s_lp_Variant>  (1) 
Pocket2Mol_34-1

>  <s_m_source_file>  (1) 
generated_GPCR_5HT2C_ligand_Pocket2Mol_2026-06-23_prepared.sdf

>  <GenAI_Model>  (1) 
Pocket2Mol

>  <Protein>  (1) 
GPCR_5HT2C

$$$$
Pocket2Mol_52
     RDKit          3D

  0  0  0  0  0  0  0  0  0  0999 V3000
M  V30 BEGIN CTAB
M  V30 COUNTS 16 16 0 0 1
M  V30 BEGIN ATOM
M  V30 1 C 39.619380 28.553141 50.857102 0
M  V30 2 C 38.963766 27.419492 51.370157 0
M  V30 3 C 39.758174 29.706634 51.652262 0
M  V30 4 C 40.447478 30.929741 51.092404 0
M  V30 5 C 38.445994 27.435288 52.679881 0
M  V30 6 C 38.585922 28.586121 53.478449 0
M  V30 7 O 38.079348 28.600836 54.744508 0
M  V30 8 C 39.245049 29.722740 52.966894 0
M  V30 9 H 40.008746 28.539734 49.850380 0
M  V30 10 H 38.852658 26.537848 50.757400 0
M  V30 11 H 40.445135 31.737748 51.822018 0
M  V30 12 H 41.480120 30.703432 50.827088 0
M  V30 13 H 39.927597 31.280087 50.200444 0
M  V30 14 H 37.938255 26.565088 53.070077 0
M  V30 15 H 38.172236 29.435490 55.178985 0
M  V30 16 H 39.349526 30.608567 53.577382 0
M  V30 END ATOM
M  V30 BEGIN BOND
M  V30 1 2 2 1
M  V30 2 1 3 1
M  V30 3 1 4 3
M  V30 4 1 5 2
M  V30 5 2 6 5
M  V30 6 1 7 6
M  V30 7 2 8 3
M  V30 8 1 8 6
M  V30 9 1 9 1
M  V30 10 1 10 2
M  V30 11 1 11 4
M  V30 12 1 12 4
M  V30 13 1 13 4
M  V30 14 1 14 5
M  V30 15 1 15 7
M  V30 16 1 16 8
M  V30 END BOND
M  V30 END CTAB
M  END
>  <i_epik_Tot_Q>  (1) 
0

>  <i_epik_Tot_abs_Q>  (1) 
0

>  <i_i_glide_confnum>  (1) 
1

>  <i_i_glide_lignum>  (1) 
55

>  <i_i_glide_posenum>  (1) 
131

>  <i_i_glide_rotatable_bonds>  (1) 
1

>  <i_lp_mmshare_version>  (1) 
72125

>  <i_m_source_file_index>  (1) 
53

>  <i_f3d_flags>  (1) 
0

>  <num_sample>  (1) 
100

>  <b_lp_Chiralities_Consistent>  (1) 
1

>  <r_epik_Charging_Adjusted_Penalty>  (1) 
0

>  <r_epik_Ionization_Penalty>  (1) 
0.0017015869167085525

>  <r_epik_Ionization_Penalty_Charging>  (1) 
0

>  <r_epik_Ionization_Penalty_Neutral>  (1) 
0.0017015869167085525

>  <r_epik_State_Penalty>  (1) 
-0

>  <r_glide_ring_energy>  (1) 
0

>  <r_i_docking_score>  (1) 
-5.6154384843730476

>  <r_i_glide_ecoul>  (1) 
-1.2765604018970356

>  <r_i_glide_eff_state_penalty>  (1) 
-0

>  <r_i_glide_einternal>  (1) 
0.016632948913808107

>  <r_i_glide_emodel>  (1) 
-26.265872439295585

>  <r_i_glide_emodel_strain>  (1) 
0

>  <r_i_glide_energy>  (1) 
-19.292894000784681

>  <r_i_glide_erotb>  (1) 
0

>  <r_i_glide_esite>  (1) 
0

>  <r_i_glide_evdw>  (1) 
-18.016333598887645

>  <r_i_glide_gscore>  (1) 
-5.6154384843730476

>  <r_i_glide_gscore_strain>  (1) 
0

>  <r_i_glide_hbond>  (1) 
0

>  <r_i_glide_ligand_efficiency>  (1) 
-0.70192981054663095

>  <r_i_glide_ligand_efficiency_ln>  (1) 
-1.8235249503420756

>  <r_i_glide_ligand_efficiency_sa>  (1) 
-1.4038596210932621

>  <r_i_glide_lipo>  (1) 
-2.0201738165206966

>  <r_i_glide_metal>  (1) 
-0

>  <r_i_glide_rewards>  (1) 
-2.5029639276234135

>  <r_lp_Energy>  (1) 
5.2727110000000001

>  <r_lp_tautomer_probability>  (1) 
1

>  <s_epik_cmdline>  (1) 
J2VwaWtfcHl0aG9uJywgJy1waHQnLCAnMS4wJywgJy1waCcsICc3LjQnLCAnLXRuJywgJzgnLCAnLW1hJywgJzUwMCcsICctaW1hZScsICc8aW5maWxlLm1hZT4nLCAnLW9tYWUnLCAnPG91dGZpbGUubWFlPic=

>  <s_epik_input>  (1) 
W0NIM11jMVtjSF1bY0hdW2NIXWMoW09IXSlbY0hdMQ==

>  <s_glide_docking_method>  (1) 
confgen

>  <s_i_glide_gridfile>  (1) 
gpcr_5ht2c_6bqh_protein_autoprepared_prepared

>  <s_lp_Force_Field>  (1) 
S-OPLS

>  <s_lp_Variant>  (1) 
Pocket2Mol_52-1

>  <s_m_source_file>  (1) 
generated_GPCR_5HT2C_ligand_Pocket2Mol_2026-06-23_prepared.sdf

>  <GenAI_Model>  (1) 
Pocket2Mol

>  <Protein>  (1) 
GPCR_5HT2C

$$$$
Pocket2Mol_90
     RDKit          3D

  0  0  0  0  0  0  0  0  0  0999 V3000
M  V30 BEGIN CTAB
M  V30 COUNTS 14 14 0 0 1
M  V30 BEGIN ATOM
M  V30 1 C 39.752995 28.819165 51.676892 0
M  V30 2 C 39.645137 29.908208 52.614327 0
M  V30 3 C 38.668207 29.653912 53.499426 0
M  V30 4 C 38.101969 28.335335 53.140247 0
M  V30 5 C 38.849492 27.872691 51.966337 0
M  V30 6 C 38.297347 30.585509 54.567761 0
M  V30 7 O 37.186327 27.742818 53.709281 0
M  V30 8 N 37.265679 30.141517 55.292605 0
M  V30 9 O 38.845149 31.662481 54.789354 0
M  V30 10 H 40.457559 28.773379 50.859538 0
M  V30 11 H 40.253335 30.802438 52.599893 0
M  V30 12 H 38.675334 26.937763 51.454225 0
M  V30 13 H 36.845140 29.247973 55.075164 0
M  V30 14 H 36.893813 30.712292 56.049007 0
M  V30 END ATOM
M  V30 BEGIN BOND
M  V30 1 1 2 1
M  V30 2 2 3 2
M  V30 3 1 4 3
M  V30 4 2 5 1
M  V30 5 1 5 4
M  V30 6 1 6 3
M  V30 7 2 7 4
M  V30 8 1 8 6
M  V30 9 2 9 6
M  V30 10 1 10 1
M  V30 11 1 11 2
M  V30 12 1 12 5
M  V30 13 1 13 8
M  V30 14 1 14 8
M  V30 END BOND
M  V30 END CTAB
M  END
>  <i_epik_Tot_Q>  (1) 
0

>  <i_epik_Tot_abs_Q>  (1) 
0

>  <i_i_glide_confnum>  (1) 
1

>  <i_i_glide_lignum>  (1) 
95

>  <i_i_glide_posenum>  (1) 
183

>  <i_i_glide_rotatable_bonds>  (1) 
1

>  <i_lp_mmshare_version>  (1) 
72125

>  <i_m_source_file_index>  (1) 
91

>  <i_f3d_flags>  (1) 
0

>  <num_sample>  (1) 
100

>  <b_lp_Chiralities_Consistent>  (1) 
1

>  <r_epik_Charging_Adjusted_Penalty>  (1) 
0.0065050288304222097

>  <r_epik_Ionization_Penalty>  (1) 
0.0032614418865694397

>  <r_epik_Ionization_Penalty_Charging>  (1) 
0

>  <r_epik_Ionization_Penalty_Neutral>  (1) 
0.0032614418865694397

>  <r_epik_State_Penalty>  (1) 
0.0065050288304222097

>  <r_glide_ring_energy>  (1) 
0

>  <r_i_docking_score>  (1) 
-5.6135702200349638

>  <r_i_glide_ecoul>  (1) 
-1.6385937435466382

>  <r_i_glide_eff_state_penalty>  (1) 
0.0065050288304222097

>  <r_i_glide_einternal>  (1) 
0.0544350523546413

>  <r_i_glide_emodel>  (1) 
-30.952926305246304

>  <r_i_glide_emodel_strain>  (1) 
0

>  <r_i_glide_energy>  (1) 
-22.325145124461752

>  <r_i_glide_erotb>  (1) 
0

>  <r_i_glide_esite>  (1) 
-0.083649198369797798

>  <r_i_glide_evdw>  (1) 
-20.686551380915112

>  <r_i_glide_gscore>  (1) 
-5.620075248865386

>  <r_i_glide_gscore_strain>  (1) 
0

>  <r_i_glide_hbond>  (1) 
-0.1404089308220528

>  <r_i_glide_ligand_efficiency>  (1) 
-0.62373002444832926

>  <r_i_glide_ligand_efficiency_ln>  (1) 
-1.7557635018281801

>  <r_i_glide_ligand_efficiency_sa>  (1) 
-1.2974107338067387

>  <r_i_glide_lipo>  (1) 
-1.2234897190335281

>  <r_i_glide_metal>  (1) 
-0

>  <r_i_glide_rewards>  (1) 
-2.8924107700622566

>  <r_lp_Energy>  (1) 
1.7710899999999998

>  <s_epik_cmdline>  (1) 
J2VwaWtfcHl0aG9uJywgJy1waHQnLCAnMS4wJywgJy1waCcsICc3LjQnLCAnLXRuJywgJzgnLCAnLW1hJywgJzUwMCcsICctaW1hZScsICc8aW5maWxlLm1hZT4nLCAnLW9tYWUnLCAnPG91dGZpbGUubWFlPic=

>  <s_epik_input>  (1) 
Tz1DMVtDSF09W0NIXVtDSF09QzFDKD1PKVtOSDJd

>  <s_glide_docking_method>  (1) 
confgen

>  <s_i_glide_gridfile>  (1) 
gpcr_5ht2c_6bqh_protein_autoprepared_prepared

>  <s_lp_Force_Field>  (1) 
S-OPLS

>  <s_lp_Variant>  (1) 
Pocket2Mol_90-1

>  <s_m_source_file>  (1) 
generated_GPCR_5HT2C_ligand_Pocket2Mol_2026-06-23_prepared.sdf

>  <GenAI_Model>  (1) 
Pocket2Mol

>  <Protein>  (1) 
GPCR_5HT2C

$$$$
Pocket2Mol_92
     RDKit          3D

  0  0  0  0  0  0  0  0  0  0999 V3000
M  V30 BEGIN CTAB
M  V30 COUNTS 18 19 0 0 1
M  V30 BEGIN ATOM
M  V30 1 C 39.127752 30.939842 54.111026 0
M  V30 2 C 38.787776 29.577630 53.993836 0
M  V30 3 C 38.385357 28.850417 55.139096 0
M  V30 4 C 38.845137 28.937754 52.738371 0
M  V30 5 C 38.500509 27.577052 52.625965 0
M  V30 6 C 38.323097 29.491061 56.393436 0
M  V30 7 C 38.045137 27.488330 55.022655 0
M  V30 8 C 39.062169 31.577545 55.365848 0
M  V30 9 C 38.100728 26.853620 53.767761 0
M  V30 10 C 38.659981 30.854034 56.505429 0
M  V30 11 H 39.435137 31.498081 53.238830 0
M  V30 12 H 39.151730 29.490188 51.862129 0
M  V30 13 H 38.541651 27.087208 51.663568 0
M  V30 14 H 38.013533 28.939155 57.268924 0
M  V30 15 H 37.737070 26.930682 55.895125 0
M  V30 16 H 39.318667 32.622848 55.453734 0
M  V30 17 H 37.835305 25.810447 53.680365 0
M  V30 18 H 38.607619 31.345543 57.465632 0
M  V30 END ATOM
M  V30 BEGIN BOND
M  V30 1 1 2 1
M  V30 2 1 3 2
M  V30 3 2 4 2
M  V30 4 1 5 4
M  V30 5 1 6 3
M  V30 6 2 7 3
M  V30 7 2 8 1
M  V30 8 2 9 5
M  V30 9 1 9 7
M  V30 10 2 10 6
M  V30 11 1 10 8
M  V30 12 1 11 1
M  V30 13 1 12 4
M  V30 14 1 13 5
M  V30 15 1 14 6
M  V30 16 1 15 7
M  V30 17 1 16 8
M  V30 18 1 17 9
M  V30 19 1 18 10
M  V30 END BOND
M  V30 END CTAB
M  END
>  <i_epik_Tot_Q>  (1) 
0

>  <i_epik_Tot_abs_Q>  (1) 
0

>  <i_i_glide_confnum>  (1) 
1

>  <i_i_glide_lignum>  (1) 
97

>  <i_i_glide_posenum>  (1) 
178

>  <i_i_glide_rotatable_bonds>  (1) 
0

>  <i_lp_mmshare_version>  (1) 
72125

>  <i_m_source_file_index>  (1) 
93

>  <i_f3d_flags>  (1) 
0

>  <num_sample>  (1) 
100

>  <b_lp_Chiralities_Consistent>  (1) 
1

>  <r_epik_Charging_Adjusted_Penalty>  (1) 
0

>  <r_epik_Ionization_Penalty>  (1) 
0

>  <r_epik_Ionization_Penalty_Charging>  (1) 
0

>  <r_epik_Ionization_Penalty_Neutral>  (1) 
0

>  <r_epik_State_Penalty>  (1) 
-0

>  <r_glide_ring_energy>  (1) 
0

>  <r_i_docking_score>  (1) 
-5.6075584109432315

>  <r_i_glide_ecoul>  (1) 
-0.33657126598312348

>  <r_i_glide_eff_state_penalty>  (1) 
-0

>  <r_i_glide_einternal>  (1) 
0

>  <r_i_glide_emodel>  (1) 
-26.545663041669997

>  <r_i_glide_emodel_strain>  (1) 
0

>  <r_i_glide_energy>  (1) 
-19.03962178069461

>  <r_i_glide_erotb>  (1) 
0

>  <r_i_glide_esite>  (1) 
0

>  <r_i_glide_evdw>  (1) 
-18.703050514711485

>  <r_i_glide_gscore>  (1) 
-5.6075584109432315

>  <r_i_glide_gscore_strain>  (1) 
0

>  <r_i_glide_hbond>  (1) 
0

>  <r_i_glide_ligand_efficiency>  (1) 
-0.56075584109432319

>  <r_i_glide_ligand_efficiency_ln>  (1) 
-1.6979300314892269

>  <r_i_glide_ligand_efficiency_sa>  (1) 
-1.2081118366916164

>  <r_i_glide_lipo>  (1) 
-1.8720144416642188

>  <r_i_glide_metal>  (1) 
-0

>  <r_i_glide_rewards>  (1) 
-2.7499057536459697

>  <r_lp_Energy>  (1) 
18.967330999999998

>  <r_lp_tautomer_probability>  (1) 
1

>  <s_epik_cmdline>  (1) 
J2VwaWtfcHl0aG9uJywgJy1waHQnLCAnMS4wJywgJy1waCcsICc3LjQnLCAnLXRuJywgJzgnLCAnLW1hJywgJzUwMCcsICctaW1hZScsICc8aW5maWxlLm1hZT4nLCAnLW9tYWUnLCAnPG91dGZpbGUubWFlPic=

>  <s_epik_input>  (1) 
W2NIXTFbY0hdW2NIXVtjSF1jKGMxMilbY0hdW2NIXVtjSF1bY0hdMg==

>  <s_glide_docking_method>  (1) 
confgen

>  <s_i_glide_gridfile>  (1) 
gpcr_5ht2c_6bqh_protein_autoprepared_prepared

>  <s_lp_Force_Field>  (1) 
S-OPLS

>  <s_lp_Variant>  (1) 
Pocket2Mol_92-1

>  <s_m_source_file>  (1) 
generated_GPCR_5HT2C_ligand_Pocket2Mol_2026-06-23_prepared.sdf

>  <GenAI_Model>  (1) 
Pocket2Mol

>  <Protein>  (1) 
GPCR_5HT2C

$$$$
Pocket2Mol_29
     RDKit          3D

  0  0  0  0  0  0  0  0  0  0999 V3000
M  V30 BEGIN CTAB
M  V30 COUNTS 13 13 0 0 1
M  V30 BEGIN ATOM
M  V30 1 C 40.039131 30.424853 52.364111 0
M  V30 2 C 39.245137 29.742954 53.309710 0
M  V30 3 C 40.235827 29.875263 51.082408 0
M  V30 4 C 38.651811 28.510394 52.973270 0
M  V30 5 O 40.997146 30.537755 50.163850 0
M  V30 6 C 38.852591 27.959189 51.693231 0
M  V30 7 C 39.645134 28.641162 50.748604 0
M  V30 8 H 40.491171 31.367882 52.622688 0
M  V30 9 H 39.091671 30.166036 54.291946 0
M  V30 10 H 38.043597 27.988063 53.697112 0
M  V30 11 H 41.251801 31.410819 50.428092 0
M  V30 12 H 38.397007 27.013974 51.434339 0
M  V30 13 H 39.795780 28.219721 49.767760 0
M  V30 END ATOM
M  V30 BEGIN BOND
M  V30 1 1 2 1
M  V30 2 2 3 1
M  V30 3 2 4 2
M  V30 4 1 5 3
M  V30 5 1 6 4
M  V30 6 1 7 3
M  V30 7 2 7 6
M  V30 8 1 8 1
M  V30 9 1 9 2
M  V30 10 1 10 4
M  V30 11 1 11 5
M  V30 12 1 12 6
M  V30 13 1 13 7
M  V30 END BOND
M  V30 END CTAB
M  END
>  <i_epik_Tot_Q>  (1) 
0

>  <i_epik_Tot_abs_Q>  (1) 
0

>  <i_i_glide_confnum>  (1) 
1

>  <i_i_glide_lignum>  (1) 
32

>  <i_i_glide_posenum>  (1) 
41

>  <i_i_glide_rotatable_bonds>  (1) 
1

>  <i_lp_mmshare_version>  (1) 
72125

>  <i_m_source_file_index>  (1) 
30

>  <i_f3d_flags>  (1) 
0

>  <num_sample>  (1) 
100

>  <b_lp_Chiralities_Consistent>  (1) 
1

>  <r_epik_Charging_Adjusted_Penalty>  (1) 
0

>  <r_epik_Ionization_Penalty>  (1) 
0.0022482968708945868

>  <r_epik_Ionization_Penalty_Charging>  (1) 
0

>  <r_epik_Ionization_Penalty_Neutral>  (1) 
0.0022482968708945868

>  <r_epik_State_Penalty>  (1) 
-0

>  <r_glide_ring_energy>  (1) 
0

>  <r_i_docking_score>  (1) 
-5.6060428711558643

>  <r_i_glide_ecoul>  (1) 
-2.132511659133884

>  <r_i_glide_eff_state_penalty>  (1) 
-0

>  <r_i_glide_einternal>  (1) 
0.069020909306089395

>  <r_i_glide_emodel>  (1) 
-25.366975704274559

>  <r_i_glide_emodel_strain>  (1) 
0

>  <r_i_glide_energy>  (1) 
-18.875631110297743

>  <r_i_glide_erotb>  (1) 
0

>  <r_i_glide_esite>  (1) 
0

>  <r_i_glide_evdw>  (1) 
-16.74311945116386

>  <r_i_glide_gscore>  (1) 
-5.6060428711558643

>  <r_i_glide_gscore_strain>  (1) 
0

>  <r_i_glide_hbond>  (1) 
0

>  <r_i_glide_ligand_efficiency>  (1) 
-0.80086326730798063

>  <r_i_glide_ligand_efficiency_ln>  (1) 
-1.9029918047410899

>  <r_i_glide_ligand_efficiency_sa>  (1) 
-1.5319963171704154

>  <r_i_glide_lipo>  (1) 
-1.7500849898790258

>  <r_i_glide_metal>  (1) 
-0

>  <r_i_glide_rewards>  (1) 
-2.6989251598485633

>  <r_lp_Energy>  (1) 
6.6738649999999993

>  <r_lp_tautomer_probability>  (1) 
1

>  <s_epik_cmdline>  (1) 
J2VwaWtfcHl0aG9uJywgJy1waHQnLCAnMS4wJywgJy1waCcsICc3LjQnLCAnLXRuJywgJzgnLCAnLW1hJywgJzUwMCcsICctaW1hZScsICc8aW5maWxlLm1hZT4nLCAnLW9tYWUnLCAnPG91dGZpbGUubWFlPic=

>  <s_epik_input>  (1) 
W09IXWMxW2NIXVtjSF1bY0hdW2NIXVtjSF0x

>  <s_glide_docking_method>  (1) 
confgen

>  <s_i_glide_gridfile>  (1) 
gpcr_5ht2c_6bqh_protein_autoprepared_prepared

>  <s_lp_Force_Field>  (1) 
S-OPLS

>  <s_lp_Variant>  (1) 
Pocket2Mol_29-1

>  <s_m_source_file>  (1) 
generated_GPCR_5HT2C_ligand_Pocket2Mol_2026-06-23_prepared.sdf

>  <GenAI_Model>  (1) 
Pocket2Mol

>  <Protein>  (1) 
GPCR_5HT2C

$$$$
Pocket2Mol_29
     RDKit          3D

  0  0  0  0  0  0  0  0  0  0999 V3000
M  V30 BEGIN CTAB
M  V30 COUNTS 13 13 0 0 1
M  V30 BEGIN ATOM
M  V30 1 C 39.645136 28.638354 50.748442 0
M  V30 2 C 38.854899 27.953936 51.692915 0
M  V30 3 C 40.233761 29.873184 51.082623 0
M  V30 4 C 38.653909 28.504168 52.973447 0
M  V30 5 O 40.993216 30.537755 50.164095 0
M  V30 6 C 39.245137 29.737760 53.310128 0
M  V30 7 C 40.036925 30.421543 52.364652 0
M  V30 8 H 39.795799 28.218091 49.767761 0
M  V30 9 H 38.401432 27.007825 51.433783 0
M  V30 10 H 38.046974 27.980381 53.697503 0
M  V30 11 H 41.245117 31.411225 50.429308 0
M  V30 12 H 39.091552 30.160294 54.292486 0
M  V30 13 H 40.487358 31.365267 52.623530 0
M  V30 END ATOM
M  V30 BEGIN BOND
M  V30 1 1 2 1
M  V30 2 2 3 1
M  V30 3 2 4 2
M  V30 4 1 5 3
M  V30 5 1 6 4
M  V30 6 1 7 3
M  V30 7 2 7 6
M  V30 8 1 8 1
M  V30 9 1 9 2
M  V30 10 1 10 4
M  V30 11 1 11 5
M  V30 12 1 12 6
M  V30 13 1 13 7
M  V30 END BOND
M  V30 END CTAB
M  END
>  <i_epik_Tot_Q>  (1) 
0

>  <i_epik_Tot_abs_Q>  (1) 
0

>  <i_i_glide_confnum>  (1) 
1

>  <i_i_glide_lignum>  (1) 
32

>  <i_i_glide_posenum>  (1) 
372

>  <i_i_glide_rotatable_bonds>  (1) 
1

>  <i_lp_mmshare_version>  (1) 
72125

>  <i_m_source_file_index>  (1) 
30

>  <i_f3d_flags>  (1) 
0

>  <num_sample>  (1) 
100

>  <b_lp_Chiralities_Consistent>  (1) 
1

>  <r_epik_Charging_Adjusted_Penalty>  (1) 
0

>  <r_epik_Ionization_Penalty>  (1) 
0.0022482968708945868

>  <r_epik_Ionization_Penalty_Charging>  (1) 
0

>  <r_epik_Ionization_Penalty_Neutral>  (1) 
0.0022482968708945868

>  <r_epik_State_Penalty>  (1) 
-0

>  <r_glide_ring_energy>  (1) 
0

>  <r_i_docking_score>  (1) 
-5.606023220632542

>  <r_i_glide_ecoul>  (1) 
-2.1283093719466839

>  <r_i_glide_eff_state_penalty>  (1) 
-0

>  <r_i_glide_einternal>  (1) 
0.051415254704234144

>  <r_i_glide_emodel>  (1) 
-25.378662951656526

>  <r_i_glide_emodel_strain>  (1) 
0

>  <r_i_glide_energy>  (1) 
-18.878538405064145

>  <r_i_glide_erotb>  (1) 
0

>  <r_i_glide_esite>  (1) 
0

>  <r_i_glide_evdw>  (1) 
-16.75022903311746

>  <r_i_glide_gscore>  (1) 
-5.606023220632542

>  <r_i_glide_gscore_strain>  (1) 
0

>  <r_i_glide_hbond>  (1) 
0

>  <r_i_glide_ligand_efficiency>  (1) 
-0.80086046009036316

>  <r_i_glide_ligand_efficiency_ln>  (1) 
-1.9029851342989081

>  <r_i_glide_ligand_efficiency_sa>  (1) 
-1.5319909471562982

>  <r_i_glide_lipo>  (1) 
-1.7508380058746227

>  <r_i_glide_metal>  (1) 
-0

>  <r_i_glide_rewards>  (1) 
-2.6984273573100435

>  <r_lp_Energy>  (1) 
6.6738649999999993

>  <r_lp_tautomer_probability>  (1) 
1

>  <s_epik_cmdline>  (1) 
J2VwaWtfcHl0aG9uJywgJy1waHQnLCAnMS4wJywgJy1waCcsICc3LjQnLCAnLXRuJywgJzgnLCAnLW1hJywgJzUwMCcsICctaW1hZScsICc8aW5maWxlLm1hZT4nLCAnLW9tYWUnLCAnPG91dGZpbGUubWFlPic=

>  <s_epik_input>  (1) 
W09IXWMxW2NIXVtjSF1bY0hdW2NIXVtjSF0x

>  <s_glide_docking_method>  (1) 
confgen

>  <s_i_glide_gridfile>  (1) 
gpcr_5ht2c_6bqh_protein_autoprepared_prepared

>  <s_lp_Force_Field>  (1) 
S-OPLS

>  <s_lp_Variant>  (1) 
Pocket2Mol_29-1

>  <s_m_source_file>  (1) 
generated_GPCR_5HT2C_ligand_Pocket2Mol_2026-06-23_prepared.sdf

>  <GenAI_Model>  (1) 
Pocket2Mol

>  <Protein>  (1) 
GPCR_5HT2C

$$$$
Pocket2Mol_54
     RDKit          3D

  0  0  0  0  0  0  0  0  0  0999 V3000
M  V30 BEGIN CTAB
M  V30 COUNTS 17 17 0 0 1
M  V30 BEGIN ATOM
M  V30 1 C 38.834193 27.625735 51.595829 0
M  V30 2 C 39.645130 28.460473 50.808034 0
M  V30 3 C 40.049686 29.715154 51.295714 0
M  V30 4 N 40.849184 30.537754 50.509694 0
M  V30 5 C 38.423107 28.044247 52.875662 0
M  V30 6 C 38.828997 29.301239 53.369804 0
M  V30 7 C 38.386873 29.755835 54.746194 0
M  V30 8 C 39.645137 30.136851 52.578753 0
M  V30 9 H 38.523234 26.664987 51.215802 0
M  V30 10 H 39.955499 28.137767 49.826538 0
M  V30 11 H 41.020464 31.498538 50.776906 0
M  V30 12 H 41.013271 30.313294 49.540189 0
M  V30 13 H 37.796363 27.401782 53.477060 0
M  V30 14 H 37.771507 29.002305 55.238855 0
M  V30 15 H 39.256165 29.947684 55.375249 0
M  V30 16 H 37.803500 30.674815 54.674765 0
M  V30 17 H 39.956342 31.101194 52.954675 0
M  V30 END ATOM
M  V30 BEGIN BOND
M  V30 1 1 2 1
M  V30 2 2 3 2
M  V30 3 1 4 3
M  V30 4 2 5 1
M  V30 5 1 6 5
M  V30 6 1 7 6
M  V30 7 1 8 3
M  V30 8 2 8 6
M  V30 9 1 9 1
M  V30 10 1 10 2
M  V30 11 1 11 4
M  V30 12 1 12 4
M  V30 13 1 13 5
M  V30 14 1 14 7
M  V30 15 1 15 7
M  V30 16 1 16 7
M  V30 17 1 17 8
M  V30 END BOND
M  V30 END CTAB
M  END
>  <i_epik_Tot_Q>  (1) 
0

>  <i_epik_Tot_abs_Q>  (1) 
0

>  <i_i_glide_confnum>  (1) 
1

>  <i_i_glide_lignum>  (1) 
58

>  <i_i_glide_posenum>  (1) 
130

>  <i_i_glide_rotatable_bonds>  (1) 
0

>  <i_lp_mmshare_version>  (1) 
72125

>  <i_m_source_file_index>  (1) 
55

>  <i_f3d_flags>  (1) 
0

>  <num_sample>  (1) 
100

>  <b_lp_Chiralities_Consistent>  (1) 
1

>  <r_epik_Charging_Adjusted_Penalty>  (1) 
0

>  <r_epik_Ionization_Penalty>  (1) 
0.0013172751215551738

>  <r_epik_Ionization_Penalty_Charging>  (1) 
0

>  <r_epik_Ionization_Penalty_Neutral>  (1) 
0.0013172751215551738

>  <r_epik_State_Penalty>  (1) 
-0

>  <r_glide_ring_energy>  (1) 
0

>  <r_i_docking_score>  (1) 
-5.6006121930999662

>  <r_i_glide_ecoul>  (1) 
-1.1084818290179281

>  <r_i_glide_eff_state_penalty>  (1) 
-0

>  <r_i_glide_einternal>  (1) 
0

>  <r_i_glide_emodel>  (1) 
-26.549165004108737

>  <r_i_glide_emodel_strain>  (1) 
0

>  <r_i_glide_energy>  (1) 
-19.740600287450494

>  <r_i_glide_erotb>  (1) 
0

>  <r_i_glide_esite>  (1) 
0

>  <r_i_glide_evdw>  (1) 
-18.632118458432565

>  <r_i_glide_gscore>  (1) 
-5.6006121930999662

>  <r_i_glide_gscore_strain>  (1) 
0

>  <r_i_glide_hbond>  (1) 
0

>  <r_i_glide_ligand_efficiency>  (1) 
-0.70007652413749577

>  <r_i_glide_ligand_efficiency_ln>  (1) 
-1.8187103464366567

>  <r_i_glide_ligand_efficiency_sa>  (1) 
-1.4001530482749918

>  <r_i_glide_lipo>  (1) 
-2.0084476988611701

>  <r_i_glide_metal>  (1) 
-0

>  <r_i_glide_rewards>  (1) 
-2.494286296964479

>  <r_lp_Energy>  (1) 
5.5447359999999994

>  <r_lp_tautomer_probability>  (1) 
1

>  <s_epik_cmdline>  (1) 
J2VwaWtfcHl0aG9uJywgJy1waHQnLCAnMS4wJywgJy1waCcsICc3LjQnLCAnLXRuJywgJzgnLCAnLW1hJywgJzUwMCcsICctaW1hZScsICc8aW5maWxlLm1hZT4nLCAnLW9tYWUnLCAnPG91dGZpbGUubWFlPic=

>  <s_epik_input>  (1) 
W0NIM11jKFtjSF0xKVtjSF1bY0hdW2NIXWMxW05IMl0=

>  <s_glide_docking_method>  (1) 
confgen

>  <s_i_glide_gridfile>  (1) 
gpcr_5ht2c_6bqh_protein_autoprepared_prepared

>  <s_lp_Force_Field>  (1) 
S-OPLS

>  <s_lp_Variant>  (1) 
Pocket2Mol_54-1

>  <s_m_source_file>  (1) 
generated_GPCR_5HT2C_ligand_Pocket2Mol_2026-06-23_prepared.sdf

>  <GenAI_Model>  (1) 
Pocket2Mol

>  <Protein>  (1) 
GPCR_5HT2C

$$$$
Pocket2Mol_0
     RDKit          3D

  0  0  0  0  0  0  0  0  0  0999 V3000
M  V30 BEGIN CTAB
M  V30 COUNTS 19 19 0 0 1
M  V30 BEGIN ATOM
M  V30 1 C 38.855347 29.683953 54.437937 0
M  V30 2 C 39.249688 29.448498 53.002878 0
M  V30 3 C 40.043680 30.427444 52.352744 0
M  V30 4 C 38.842059 28.300252 52.265288 0
M  V30 5 C 39.245125 28.137733 50.927326 0
M  V30 6 C 40.045137 29.110841 50.304994 0
M  V30 7 C 40.439216 30.254716 51.013200 0
M  V30 8 C 38.493916 28.761665 55.382686 0
M  V30 9 C 38.504122 27.291083 55.201876 0
M  V30 10 N 38.045145 26.500535 56.070648 0
M  V30 11 H 38.858050 30.721345 54.742850 0
M  V30 12 H 40.352326 31.312190 52.891453 0
M  V30 13 H 38.197958 27.564152 52.699147 0
M  V30 14 H 38.929282 27.265560 50.372241 0
M  V30 15 H 40.348142 28.982934 49.276332 0
M  V30 16 H 41.047004 31.005558 50.529703 0
M  V30 17 H 38.189715 29.092371 56.365177 0
M  V30 18 H 38.954689 26.921366 54.291742 0
M  V30 19 H 38.133476 25.529610 55.807159 0
M  V30 END ATOM
M  V30 BEGIN BOND
M  V30 1 1 2 1
M  V30 2 1 3 2
M  V30 3 2 4 2
M  V30 4 1 5 4
M  V30 5 2 6 5
M  V30 6 2 7 3
M  V30 7 1 7 6
M  V30 8 2 8 1
M  V30 9 1 9 8
M  V30 10 2 10 9
M  V30 11 1 11 1
M  V30 12 1 12 3
M  V30 13 1 13 4
M  V30 14 1 14 5
M  V30 15 1 15 6
M  V30 16 1 16 7
M  V30 17 1 17 8
M  V30 18 1 18 9
M  V30 19 1 19 10
M  V30 END BOND
M  V30 END CTAB
M  END
>  <i_epik_Tot_Q>  (1) 
0

>  <i_epik_Tot_abs_Q>  (1) 
0

>  <i_i_glide_confnum>  (1) 
1

>  <i_i_glide_lignum>  (1) 
2

>  <i_i_glide_posenum>  (1) 
1

>  <i_i_glide_rotatable_bonds>  (1) 
2

>  <i_lp_mmshare_version>  (1) 
72125

>  <i_m_source_file_index>  (1) 
1

>  <i_f3d_flags>  (1) 
0

>  <num_sample>  (1) 
100

>  <b_lp_Chiralities_Consistent>  (1) 
1

>  <r_epik_Charging_Adjusted_Penalty>  (1) 
0

>  <r_epik_Ionization_Penalty>  (1) 
0

>  <r_epik_Ionization_Penalty_Charging>  (1) 
0

>  <r_epik_Ionization_Penalty_Neutral>  (1) 
0

>  <r_epik_State_Penalty>  (1) 
-0

>  <r_glide_ring_energy>  (1) 
0

>  <r_i_docking_score>  (1) 
-5.5975051592587626

>  <r_i_glide_ecoul>  (1) 
-1.0003970830791002

>  <r_i_glide_eff_state_penalty>  (1) 
-0

>  <r_i_glide_einternal>  (1) 
0.32712146306353862

>  <r_i_glide_emodel>  (1) 
-29.156548227316218

>  <r_i_glide_emodel_strain>  (1) 
0

>  <r_i_glide_energy>  (1) 
-21.234007126613079

>  <r_i_glide_erotb>  (1) 
0.80789427267668723

>  <r_i_glide_esite>  (1) 
0

>  <r_i_glide_evdw>  (1) 
-20.233610043533979

>  <r_i_glide_gscore>  (1) 
-5.5975051592587626

>  <r_i_glide_gscore_strain>  (1) 
0

>  <r_i_glide_hbond>  (1) 
0

>  <r_i_glide_ligand_efficiency>  (1) 
-0.55975051592587621

>  <r_i_glide_ligand_efficiency_ln>  (1) 
-1.6948859761806156

>  <r_i_glide_ligand_efficiency_sa>  (1) 
-1.2059459292739523

>  <r_i_glide_lipo>  (1) 
-2.0355646475268285

>  <r_i_glide_metal>  (1) 
-0

>  <r_i_glide_rewards>  (1) 
-3.2080947197700578

>  <r_lp_Energy>  (1) 
13.405619999999999

>  <r_lp_tautomer_probability>  (1) 
1

>  <s_epik_Chemistry_Notes>  (1) 
This compound has an imine and may undergo hydrolysis.

>  <s_epik_cmdline>  (1) 
J2VwaWtfcHl0aG9uJywgJy1waHQnLCAnMS4wJywgJy1waCcsICc3LjQnLCAnLXRuJywgJzgnLCAnLW1hJywgJzUwMCcsICctaW1hZScsICc8aW5maWxlLm1hZT4nLCAnLW9tYWUnLCAnPG91dGZpbGUubWFlPic=

>  <s_epik_input>  (1) 
W0hdL049W0NIXS9bQ0hdPVtDSF1cYzFbY0hdW2NIXVtjSF1bY0hdW2NIXTE=

>  <s_glide_docking_method>  (1) 
confgen

>  <s_i_glide_gridfile>  (1) 
gpcr_5ht2c_6bqh_protein_autoprepared_prepared

>  <s_lp_Force_Field>  (1) 
S-OPLS

>  <s_lp_Variant>  (1) 
Pocket2Mol_0-2

>  <s_m_source_file>  (1) 
generated_GPCR_5HT2C_ligand_Pocket2Mol_2026-06-23_prepared.sdf

>  <GenAI_Model>  (1) 
Pocket2Mol

>  <Protein>  (1) 
GPCR_5HT2C

$$$$
Pocket2Mol_36
     RDKit          3D

  0  0  0  0  0  0  0  0  0  0999 V3000
M  V30 BEGIN CTAB
M  V30 COUNTS 19 19 0 0 1
M  V30 BEGIN ATOM
M  V30 1 C 38.931864 27.863910 51.450879 0
M  V30 2 C 38.773753 27.916195 52.977923 0
M  V30 3 C 40.119399 28.719090 50.989617 0
M  V30 4 O 37.634493 27.178152 53.367737 0
M  V30 5 C 40.020395 30.176390 51.458917 0
M  V30 6 C 39.712326 30.310126 52.967763 0
M  V30 7 C 38.600741 29.364337 53.460969 0
M  V30 8 H 39.071068 26.834673 51.117771 0
M  V30 9 H 38.025840 28.224661 50.967762 0
M  V30 10 H 39.645134 27.464110 53.451209 0
M  V30 11 H 41.044842 28.291629 51.369398 0
M  V30 12 H 40.189851 28.691192 49.901987 0
M  V30 13 H 37.437545 26.537764 52.697638 0
M  V30 14 H 40.939972 30.711720 51.220148 0
M  V30 15 H 39.245138 30.666189 50.873995 0
M  V30 16 H 40.616019 30.137756 53.547072 0
M  V30 17 H 39.433305 31.340924 53.187675 0
M  V30 18 H 37.645136 29.737740 53.107174 0
M  V30 19 H 38.548242 29.393964 54.550056 0
M  V30 END ATOM
M  V30 BEGIN BOND
M  V30 1 1 2 1
M  V30 2 1 3 1
M  V30 3 1 4 2
M  V30 4 1 5 3
M  V30 5 1 6 5
M  V30 6 1 7 2
M  V30 7 1 7 6
M  V30 8 1 8 1
M  V30 9 1 9 1
M  V30 10 1 10 2
M  V30 11 1 11 3
M  V30 12 1 12 3
M  V30 13 1 13 4
M  V30 14 1 14 5
M  V30 15 1 15 5
M  V30 16 1 16 6
M  V30 17 1 17 6
M  V30 18 1 18 7
M  V30 19 1 19 7
M  V30 END BOND
M  V30 END CTAB
M  END
>  <i_epik_Tot_Q>  (1) 
0

>  <i_epik_Tot_abs_Q>  (1) 
0

>  <i_i_glide_confnum>  (1) 
1

>  <i_i_glide_lignum>  (1) 
39

>  <i_i_glide_posenum>  (1) 
153

>  <i_i_glide_rotatable_bonds>  (1) 
1

>  <i_lp_mmshare_version>  (1) 
72125

>  <i_m_source_file_index>  (1) 
37

>  <i_f3d_flags>  (1) 
0

>  <num_sample>  (1) 
100

>  <b_lp_Chiralities_Consistent>  (1) 
1

>  <r_epik_Charging_Adjusted_Penalty>  (1) 
0

>  <r_epik_Ionization_Penalty>  (1) 
4.7751045033339745e-07

>  <r_epik_Ionization_Penalty_Charging>  (1) 
0

>  <r_epik_Ionization_Penalty_Neutral>  (1) 
4.7751045033339745e-07

>  <r_epik_State_Penalty>  (1) 
-0

>  <r_glide_ring_energy>  (1) 
0

>  <r_i_docking_score>  (1) 
-5.5915617601247734

>  <r_i_glide_ecoul>  (1) 
-1.4932810538668426

>  <r_i_glide_eff_state_penalty>  (1) 
-0

>  <r_i_glide_einternal>  (1) 
0.97971907945357617

>  <r_i_glide_emodel>  (1) 
-22.171076201459165

>  <r_i_glide_emodel_strain>  (1) 
0.34653303032426752

>  <r_i_glide_energy>  (1) 
-17.676886058928467

>  <r_i_glide_erotb>  (1) 
0

>  <r_i_glide_esite>  (1) 
0

>  <r_i_glide_evdw>  (1) 
-16.183605005061626

>  <r_i_glide_gscore>  (1) 
-5.5915617601247734

>  <r_i_glide_gscore_strain>  (1) 
0

>  <r_i_glide_hbond>  (1) 
-0.079283297274838335

>  <r_i_glide_ligand_efficiency>  (1) 
-0.79879453716068194

>  <r_i_glide_ligand_efficiency_ln>  (1) 
-1.8980761385128668

>  <r_i_glide_ligand_efficiency_sa>  (1) 
-1.5280389787629065

>  <r_i_glide_lipo>  (1) 
-1.8857455364690523

>  <r_i_glide_metal>  (1) 
-0

>  <r_i_glide_rewards>  (1) 
-2.593360518047775

>  <r_lp_Energy>  (1) 
3.8568439999999997

>  <r_lp_tautomer_probability>  (1) 
1

>  <s_epik_cmdline>  (1) 
J2VwaWtfcHl0aG9uJywgJy1waHQnLCAnMS4wJywgJy1waCcsICc3LjQnLCAnLXRuJywgJzgnLCAnLW1hJywgJzUwMCcsICctaW1hZScsICc8aW5maWxlLm1hZT4nLCAnLW9tYWUnLCAnPG91dGZpbGUubWFlPic=

>  <s_epik_input>  (1) 
W09IXVtDSF0xW0NIMl1bQ0gyXVtDSDJdW0NIMl1bQ0gyXTE=

>  <s_glide_docking_method>  (1) 
confgen

>  <s_i_glide_gridfile>  (1) 
gpcr_5ht2c_6bqh_protein_autoprepared_prepared

>  <s_lp_Force_Field>  (1) 
S-OPLS

>  <s_lp_Variant>  (1) 
Pocket2Mol_36-1

>  <s_m_source_file>  (1) 
generated_GPCR_5HT2C_ligand_Pocket2Mol_2026-06-23_prepared.sdf

>  <GenAI_Model>  (1) 
Pocket2Mol

>  <Protein>  (1) 
GPCR_5HT2C

$$$$
Pocket2Mol_58
     RDKit          3D

  0  0  0  0  0  0  0  0  0  0999 V3000
M  V30 BEGIN CTAB
M  V30 COUNTS 17 17 0 0 1
M  V30 BEGIN ATOM
M  V30 1 C 37.592248 28.429637 54.530518 0
M  V30 2 C 38.450081 28.877001 53.368176 0
M  V30 3 C 39.245917 30.034058 53.485095 0
M  V30 4 C 40.045072 30.452153 52.402617 0
M  V30 5 C 40.045459 29.717141 51.201858 0
M  V30 6 C 38.455131 28.137754 52.167753 0
M  V30 7 N 40.827463 30.137983 50.130167 0
M  V30 8 C 39.252159 28.557338 51.085775 0
M  V30 9 H 36.845159 27.703913 54.208065 0
M  V30 10 H 38.209716 27.968852 55.301658 0
M  V30 11 H 37.072167 29.283341 54.967781 0
M  V30 12 H 39.243955 30.601399 54.404596 0
M  V30 13 H 40.653000 31.337743 52.493573 0
M  V30 14 H 37.846217 27.250007 52.075782 0
M  V30 15 H 40.687974 29.736647 49.215257 0
M  V30 16 H 41.245138 31.059360 50.144423 0
M  V30 17 H 39.251950 27.991022 50.166912 0
M  V30 END ATOM
M  V30 BEGIN BOND
M  V30 1 1 2 1
M  V30 2 1 3 2
M  V30 3 2 4 3
M  V30 4 1 5 4
M  V30 5 2 6 2
M  V30 6 1 7 5
M  V30 7 2 8 5
M  V30 8 1 8 6
M  V30 9 1 9 1
M  V30 10 1 10 1
M  V30 11 1 11 1
M  V30 12 1 12 3
M  V30 13 1 13 4
M  V30 14 1 14 6
M  V30 15 1 15 7
M  V30 16 1 16 7
M  V30 17 1 17 8
M  V30 END BOND
M  V30 END CTAB
M  END
>  <i_epik_Tot_Q>  (1) 
0

>  <i_epik_Tot_abs_Q>  (1) 
0

>  <i_i_glide_confnum>  (1) 
1

>  <i_i_glide_lignum>  (1) 
62

>  <i_i_glide_posenum>  (1) 
39

>  <i_i_glide_rotatable_bonds>  (1) 
0

>  <i_lp_mmshare_version>  (1) 
72125

>  <i_m_source_file_index>  (1) 
59

>  <i_f3d_flags>  (1) 
0

>  <num_sample>  (1) 
100

>  <b_lp_Chiralities_Consistent>  (1) 
1

>  <r_epik_Charging_Adjusted_Penalty>  (1) 
0

>  <r_epik_Ionization_Penalty>  (1) 
0.002249743429862997

>  <r_epik_Ionization_Penalty_Charging>  (1) 
0

>  <r_epik_Ionization_Penalty_Neutral>  (1) 
0.002249743429862997

>  <r_epik_State_Penalty>  (1) 
-0

>  <r_glide_ring_energy>  (1) 
0

>  <r_i_docking_score>  (1) 
-5.5831009218338776

>  <r_i_glide_ecoul>  (1) 
-1.3779877683801109

>  <r_i_glide_eff_state_penalty>  (1) 
-0

>  <r_i_glide_einternal>  (1) 
0

>  <r_i_glide_emodel>  (1) 
-26.626640880233428

>  <r_i_glide_emodel_strain>  (1) 
0

>  <r_i_glide_energy>  (1) 
-19.82977070910351

>  <r_i_glide_erotb>  (1) 
0

>  <r_i_glide_esite>  (1) 
0

>  <r_i_glide_evdw>  (1) 
-18.451782940723398

>  <r_i_glide_gscore>  (1) 
-5.5831009218338776

>  <r_i_glide_gscore_strain>  (1) 
0

>  <r_i_glide_hbond>  (1) 
0

>  <r_i_glide_ligand_efficiency>  (1) 
-0.6978876152292347

>  <r_i_glide_ligand_efficiency_ln>  (1) 
-1.8130238376885359

>  <r_i_glide_ligand_efficiency_sa>  (1) 
-1.3957752304584696

>  <r_i_glide_lipo>  (1) 
-1.9881438763019545

>  <r_i_glide_metal>  (1) 
-0

>  <r_i_glide_rewards>  (1) 
-2.4656697332387369

>  <r_lp_Energy>  (1) 
4.6440260000000002

>  <r_lp_tautomer_probability>  (1) 
1

>  <s_epik_cmdline>  (1) 
J2VwaWtfcHl0aG9uJywgJy1waHQnLCAnMS4wJywgJy1waCcsICc3LjQnLCAnLXRuJywgJzgnLCAnLW1hJywgJzUwMCcsICctaW1hZScsICc8aW5maWxlLm1hZT4nLCAnLW9tYWUnLCAnPG91dGZpbGUubWFlPic=

>  <s_epik_input>  (1) 
W0NIM11jMVtjSF1bY0hdYyhbTkgyXSlbY0hdW2NIXTE=

>  <s_glide_docking_method>  (1) 
confgen

>  <s_i_glide_gridfile>  (1) 
gpcr_5ht2c_6bqh_protein_autoprepared_prepared

>  <s_lp_Force_Field>  (1) 
S-OPLS

>  <s_lp_Variant>  (1) 
Pocket2Mol_58-1

>  <s_m_source_file>  (1) 
generated_GPCR_5HT2C_ligand_Pocket2Mol_2026-06-23_prepared.sdf

>  <GenAI_Model>  (1) 
Pocket2Mol

>  <Protein>  (1) 
GPCR_5HT2C

$$$$
Pocket2Mol_78
     RDKit          3D

  0  0  0  0  0  0  0  0  0  0999 V3000
M  V30 BEGIN CTAB
M  V30 COUNTS 14 14 0 0 1
M  V30 BEGIN ATOM
M  V30 1 C 39.247078 27.949327 50.942983 0
M  V30 2 C 38.712803 27.705265 52.220151 0
M  V30 3 C 38.845126 28.671803 53.239582 0
M  V30 4 C 38.282541 28.404123 54.608586 0
M  V30 5 O 38.434555 29.275476 55.492468 0
M  V30 6 O 37.689613 27.318692 54.803569 0 CHG=-1
M  V30 7 C 39.913153 29.161265 50.674860 0
M  V30 8 C 39.513085 29.889147 52.968792 0
M  V30 9 C 40.045137 30.131377 51.686533 0
M  V30 10 H 39.146177 27.205324 50.167779 0
M  V30 11 H 38.202504 26.774605 52.420550 0
M  V30 12 H 40.320824 29.347037 49.692225 0
M  V30 13 H 39.617030 30.634612 53.744484 0
M  V30 14 H 40.554221 31.061409 51.480418 0
M  V30 END ATOM
M  V30 BEGIN BOND
M  V30 1 1 2 1
M  V30 2 2 3 2
M  V30 3 1 4 3
M  V30 4 2 5 4
M  V30 5 1 6 4
M  V30 6 2 7 1
M  V30 7 1 8 3
M  V30 8 1 9 7
M  V30 9 2 9 8
M  V30 10 1 10 1
M  V30 11 1 11 2
M  V30 12 1 12 7
M  V30 13 1 13 8
M  V30 14 1 14 9
M  V30 END BOND
M  V30 END CTAB
M  END
>  <i_epik_Tot_Q>  (1) 
-1

>  <i_epik_Tot_abs_Q>  (1) 
1

>  <i_i_glide_confnum>  (1) 
1

>  <i_i_glide_lignum>  (1) 
83

>  <i_i_glide_posenum>  (1) 
116

>  <i_i_glide_rotatable_bonds>  (1) 
1

>  <i_lp_mmshare_version>  (1) 
72125

>  <i_m_source_file_index>  (1) 
79

>  <i_f3d_flags>  (1) 
0

>  <num_sample>  (1) 
100

>  <b_lp_Chiralities_Consistent>  (1) 
1

>  <r_epik_Charging_Adjusted_Penalty>  (1) 
0.00033308558627939336

>  <r_epik_Ionization_Penalty>  (1) 
0.00033308558627939336

>  <r_epik_Ionization_Penalty_Charging>  (1) 
0.00033308558627939336

>  <r_epik_Ionization_Penalty_Neutral>  (1) 
0

>  <r_epik_State_Penalty>  (1) 
-0

>  <r_glide_ring_energy>  (1) 
0

>  <r_i_docking_score>  (1) 
-5.5820956995049569

>  <r_i_glide_ecoul>  (1) 
-0.343578105402357

>  <r_i_glide_eff_state_penalty>  (1) 
-0

>  <r_i_glide_einternal>  (1) 
0.0011599738785976754

>  <r_i_glide_emodel>  (1) 
-23.889522605623913

>  <r_i_glide_emodel_strain>  (1) 
0

>  <r_i_glide_energy>  (1) 
-17.369905041003644

>  <r_i_glide_erotb>  (1) 
0

>  <r_i_glide_esite>  (1) 
0

>  <r_i_glide_evdw>  (1) 
-17.026326935601286

>  <r_i_glide_gscore>  (1) 
-5.5820956995049569

>  <r_i_glide_gscore_strain>  (1) 
0

>  <r_i_glide_hbond>  (1) 
0

>  <r_i_glide_ligand_efficiency>  (1) 
-0.62023285550055074

>  <r_i_glide_ligand_efficiency_ln>  (1) 
-1.7459191759859742

>  <r_i_glide_ligand_efficiency_sa>  (1) 
-1.290136329251985

>  <r_i_glide_lipo>  (1) 
-1.8567197720874868

>  <r_i_glide_metal>  (1) 
-0

>  <r_i_glide_rewards>  (1) 
-2.8225228648270515

>  <r_lp_Energy>  (1) 
17.740625999999999

>  <r_lp_tautomer_probability>  (1) 
1

>  <s_epik_cmdline>  (1) 
J2VwaWtfcHl0aG9uJywgJy1waHQnLCAnMS4wJywgJy1waCcsICc3LjQnLCAnLXRuJywgJzgnLCAnLW1hJywgJzUwMCcsICctaW1hZScsICc8aW5maWxlLm1hZT4nLCAnLW9tYWUnLCAnPG91dGZpbGUubWFlPic=

>  <s_epik_input>  (1) 
W2NIXTFbY0hdW2NIXVtjSF1bY0hdYzFDKD1PKVtPSF0=

>  <s_glide_docking_method>  (1) 
confgen

>  <s_i_glide_gridfile>  (1) 
gpcr_5ht2c_6bqh_protein_autoprepared_prepared

>  <s_lp_Force_Field>  (1) 
S-OPLS

>  <s_lp_Variant>  (1) 
Pocket2Mol_78-1

>  <s_m_source_file>  (1) 
generated_GPCR_5HT2C_ligand_Pocket2Mol_2026-06-23_prepared.sdf

>  <GenAI_Model>  (1) 
Pocket2Mol

>  <Protein>  (1) 
GPCR_5HT2C

$$$$
Pocket2Mol_95
     RDKit          3D

  0  0  0  0  0  0  0  0  0  0999 V3000
M  V30 BEGIN CTAB
M  V30 COUNTS 14 15 0 0 1
M  V30 BEGIN ATOM
M  V30 1 C 38.789108 31.215312 55.067688 0
M  V30 2 C 39.395428 30.937756 53.765863 0
M  V30 3 C 39.009465 29.721679 53.374509 0
M  V30 4 C 38.172024 29.179718 54.371264 0
M  V30 5 C 38.042249 30.152613 55.444799 0
M  V30 6 C 39.352212 29.020340 52.152566 0
M  V30 7 O 40.072914 29.486815 51.271815 0
M  V30 8 N 37.645137 28.033328 54.298652 0
M  V30 9 C 37.991424 27.310597 53.078926 0
M  V30 10 N 38.754816 27.738066 52.105850 0
M  V30 11 H 38.915085 32.125290 55.636351 0
M  V30 12 H 40.040965 31.603331 53.213643 0
M  V30 13 H 37.449719 29.994301 56.334812 0
M  V30 14 H 37.568919 26.309536 52.967760 0
M  V30 END ATOM
M  V30 BEGIN BOND
M  V30 1 1 2 1
M  V30 2 2 3 2
M  V30 3 1 4 3
M  V30 4 2 5 1
M  V30 5 1 5 4
M  V30 6 1 6 3
M  V30 7 2 7 6
M  V30 8 2 8 4
M  V30 9 1 9 8
M  V30 10 1 10 6
M  V30 11 2 10 9
M  V30 12 1 11 1
M  V30 13 1 12 2
M  V30 14 1 13 5
M  V30 15 1 14 9
M  V30 END BOND
M  V30 END CTAB
M  END
>  <i_epik_Tot_Q>  (1) 
0

>  <i_epik_Tot_abs_Q>  (1) 
0

>  <i_i_glide_confnum>  (1) 
1

>  <i_i_glide_lignum>  (1) 
100

>  <i_i_glide_posenum>  (1) 
203

>  <i_i_glide_rotatable_bonds>  (1) 
0

>  <i_lp_mmshare_version>  (1) 
72125

>  <i_m_source_file_index>  (1) 
96

>  <i_f3d_flags>  (1) 
0

>  <num_sample>  (1) 
100

>  <b_lp_Chiralities_Consistent>  (1) 
1

>  <r_epik_Charging_Adjusted_Penalty>  (1) 
0

>  <r_epik_Ionization_Penalty>  (1) 
0.00072225958823983786

>  <r_epik_Ionization_Penalty_Charging>  (1) 
0

>  <r_epik_Ionization_Penalty_Neutral>  (1) 
0.00072225958823983786

>  <r_epik_State_Penalty>  (1) 
-0

>  <r_glide_ring_energy>  (1) 
0

>  <r_i_docking_score>  (1) 
-5.5796517003765516

>  <r_i_glide_ecoul>  (1) 
-1.1597161645139797

>  <r_i_glide_eff_state_penalty>  (1) 
-0

>  <r_i_glide_einternal>  (1) 
0

>  <r_i_glide_emodel>  (1) 
-31.682982499999682

>  <r_i_glide_emodel_strain>  (1) 
0

>  <r_i_glide_energy>  (1) 
-23.528637105239728

>  <r_i_glide_erotb>  (1) 
0

>  <r_i_glide_esite>  (1) 
0

>  <r_i_glide_evdw>  (1) 
-22.368920940725747

>  <r_i_glide_gscore>  (1) 
-5.5796517003765516

>  <r_i_glide_gscore_strain>  (1) 
0

>  <r_i_glide_hbond>  (1) 
0

>  <r_i_glide_ligand_efficiency>  (1) 
-0.55796517003765511

>  <r_i_glide_ligand_efficiency_ln>  (1) 
-1.6894800719027563

>  <r_i_glide_ligand_efficiency_sa>  (1) 
-1.2020995181586631

>  <r_i_glide_lipo>  (1) 
-0.63582959371818648

>  <r_i_glide_metal>  (1) 
-0

>  <r_i_glide_rewards>  (1) 
-3.6514186349449815

>  <r_lp_Energy>  (1) 
19.123919000000001

>  <r_lp_tautomer_probability>  (1) 
1

>  <s_epik_Chemistry_Notes>  (1) 
This compound has an imine and may undergo hydrolysis.

>  <s_epik_cmdline>  (1) 
J2VwaWtfcHl0aG9uJywgJy1waHQnLCAnMS4wJywgJy1waCcsICc3LjQnLCAnLXRuJywgJzgnLCAnLW1hJywgJzUwMCcsICctaW1hZScsICc8aW5maWxlLm1hZT4nLCAnLW9tYWUnLCAnPG91dGZpbGUubWFlPic=

>  <s_epik_input>  (1) 
W0NIXT0xW0NIXT1bQ0hdQyhDMTIpPU5bQ0hdPU5DMj1P

>  <s_glide_docking_method>  (1) 
confgen

>  <s_i_glide_gridfile>  (1) 
gpcr_5ht2c_6bqh_protein_autoprepared_prepared

>  <s_lp_Force_Field>  (1) 
S-OPLS

>  <s_lp_Variant>  (1) 
Pocket2Mol_95-1

>  <s_m_source_file>  (1) 
generated_GPCR_5HT2C_ligand_Pocket2Mol_2026-06-23_prepared.sdf

>  <GenAI_Model>  (1) 
Pocket2Mol

>  <Protein>  (1) 
GPCR_5HT2C

$$$$
Pocket2Mol_75
     RDKit          3D

  0  0  0  0  0  0  0  0  0  0999 V3000
M  V30 BEGIN CTAB
M  V30 COUNTS 21 22 0 0 1
M  V30 BEGIN ATOM
M  V30 1 C 39.320195 28.932026 51.890959 0
M  V30 2 C 38.692813 29.342789 53.232282 0 CFG=1
M  V30 3 C 38.971857 27.438683 51.781041 0
M  V30 4 C 38.978147 26.937754 53.233387 0
M  V30 5 N 38.690708 28.114764 54.026560 0
M  V30 6 N 39.159954 28.109428 55.318618 0
M  V30 7 C 39.245138 29.200573 56.006534 0
M  V30 8 C 38.970601 30.555794 55.401833 0
M  V30 9 C 39.360140 30.540900 53.920374 0
M  V30 10 H 38.945655 29.514951 51.049136 0
M  V30 11 H 40.404214 29.048642 51.920750 0
M  V30 12 H 37.645138 29.585681 53.067539 0
M  V30 13 H 37.968766 27.337766 51.367814 0
M  V30 14 H 39.645137 26.881260 51.131137 0
M  V30 15 H 38.225542 26.168376 53.408269 0
M  V30 16 H 39.957404 26.542204 53.507617 0
M  V30 17 H 39.522166 29.156346 57.059791 0
M  V30 18 H 37.917585 30.812600 55.528659 0
M  V30 19 H 39.548734 31.319377 55.922755 0
M  V30 20 H 40.445136 30.461592 53.840510 0
M  V30 21 H 39.080197 31.474241 53.430904 0
M  V30 END ATOM
M  V30 BEGIN BOND
M  V30 1 1 2 1
M  V30 2 1 3 1
M  V30 3 1 4 3
M  V30 4 1 5 2
M  V30 5 1 5 4
M  V30 6 1 6 5
M  V30 7 2 7 6
M  V30 8 1 8 7
M  V30 9 1 9 2
M  V30 10 1 9 8
M  V30 11 1 10 1
M  V30 12 1 11 1
M  V30 13 1 2 12 CFG=3
M  V30 14 1 13 3
M  V30 15 1 14 3
M  V30 16 1 15 4
M  V30 17 1 16 4
M  V30 18 1 17 7
M  V30 19 1 18 8
M  V30 20 1 19 8
M  V30 21 1 20 9
M  V30 22 1 21 9
M  V30 END BOND
M  V30 END CTAB
M  END
>  <i_epik_Tot_Q>  (1) 
0

>  <i_epik_Tot_abs_Q>  (1) 
0

>  <i_i_glide_confnum>  (1) 
1

>  <i_i_glide_lignum>  (1) 
80

>  <i_i_glide_posenum>  (1) 
83

>  <i_i_glide_rotatable_bonds>  (1) 
0

>  <i_lp_mmshare_version>  (1) 
72125

>  <i_m_source_file_index>  (1) 
76

>  <i_f3d_flags>  (1) 
0

>  <num_sample>  (1) 
100

>  <b_lp_Chiralities_Consistent>  (1) 
1

>  <r_epik_Charging_Adjusted_Penalty>  (1) 
0

>  <r_epik_Ionization_Penalty>  (1) 
0.0031146778150898829

>  <r_epik_Ionization_Penalty_Charging>  (1) 
0

>  <r_epik_Ionization_Penalty_Neutral>  (1) 
0.0031146778150898829

>  <r_epik_State_Penalty>  (1) 
-0

>  <r_glide_ring_energy>  (1) 
0

>  <r_i_docking_score>  (1) 
-5.56760538916273

>  <r_i_glide_ecoul>  (1) 
-0.30398967212606437

>  <r_i_glide_eff_state_penalty>  (1) 
-0

>  <r_i_glide_einternal>  (1) 
0

>  <r_i_glide_emodel>  (1) 
-27.426690149805371

>  <r_i_glide_emodel_strain>  (1) 
0

>  <r_i_glide_energy>  (1) 
-20.13862132144142

>  <r_i_glide_erotb>  (1) 
0

>  <r_i_glide_esite>  (1) 
0

>  <r_i_glide_evdw>  (1) 
-19.834631649315355

>  <r_i_glide_gscore>  (1) 
-5.56760538916273

>  <r_i_glide_gscore_strain>  (1) 
0

>  <r_i_glide_hbond>  (1) 
0

>  <r_i_glide_ligand_efficiency>  (1) 
-0.61862282101808108

>  <r_i_glide_ligand_efficiency_ln>  (1) 
-1.7413870231791482

>  <r_i_glide_ligand_efficiency_sa>  (1) 
-1.2867873225704443

>  <r_i_glide_lipo>  (1) 
-1.5370872543251475

>  <r_i_glide_metal>  (1) 
-0

>  <r_i_glide_rewards>  (1) 
-2.9931881015529056

>  <r_lp_Energy>  (1) 
16.062878999999999

>  <r_lp_tautomer_probability>  (1) 
1

>  <s_epik_Chemistry_Notes>  (1) 
This compound has an imine and may undergo hydrolysis.

>  <s_epik_cmdline>  (1) 
J2VwaWtfcHl0aG9uJywgJy1waHQnLCAnMS4wJywgJy1waCcsICc3LjQnLCAnLXRuJywgJzgnLCAnLW1hJywgJzUwMCcsICctaW1hZScsICc8aW5maWxlLm1hZT4nLCAnLW9tYWUnLCAnPG91dGZpbGUubWFlPic=

>  <s_epik_input>  (1) 
W0NIMl0xW0NIMl1bQ0gyXU4oW0NASF0xMilOPVtDSF1bQ0gyXVtDSDJdMg==

>  <s_glide_docking_method>  (1) 
confgen

>  <s_i_glide_gridfile>  (1) 
gpcr_5ht2c_6bqh_protein_autoprepared_prepared

>  <s_lp_Force_Field>  (1) 
S-OPLS

>  <s_lp_Variant>  (1) 
Pocket2Mol_75-1

>  <s_m_source_file>  (1) 
generated_GPCR_5HT2C_ligand_Pocket2Mol_2026-06-23_prepared.sdf

>  <GenAI_Model>  (1) 
Pocket2Mol

>  <Protein>  (1) 
GPCR_5HT2C

$$$$
Pocket2Mol_64
     RDKit          3D

  0  0  0  0  0  0  0  0  0  0999 V3000
M  V30 BEGIN CTAB
M  V30 COUNTS 15 15 0 0 1
M  V30 BEGIN ATOM
M  V30 1 C 39.645203 28.668305 50.734797 0
M  V30 2 C 38.848774 28.021467 51.700623 0
M  V30 3 C 38.647561 28.616405 52.961403 0
M  V30 4 C 39.245143 29.858214 53.258084 0
M  V30 5 C 40.241416 29.909787 51.028209 0
M  V30 6 N 39.044537 30.449723 54.504286 0
M  V30 7 O 41.007078 30.537734 50.088876 0
M  V30 8 C 40.045133 30.503585 52.290414 0
M  V30 9 H 39.795096 28.214055 49.767801 0
M  V30 10 H 38.389746 27.070104 51.472873 0
M  V30 11 H 38.034339 28.120222 53.699616 0
M  V30 12 H 39.319517 31.408634 54.663609 0
M  V30 13 H 38.335778 30.088556 55.128054 0
M  V30 14 H 41.251893 31.423753 50.317576 0
M  V30 15 H 40.500438 31.453778 52.515443 0
M  V30 END ATOM
M  V30 BEGIN BOND
M  V30 1 1 2 1
M  V30 2 2 3 2
M  V30 3 1 4 3
M  V30 4 2 5 1
M  V30 5 1 6 4
M  V30 6 1 7 5
M  V30 7 2 8 4
M  V30 8 1 8 5
M  V30 9 1 9 1
M  V30 10 1 10 2
M  V30 11 1 11 3
M  V30 12 1 12 6
M  V30 13 1 13 6
M  V30 14 1 14 7
M  V30 15 1 15 8
M  V30 END BOND
M  V30 END CTAB
M  END
>  <i_epik_Tot_Q>  (1) 
0

>  <i_epik_Tot_abs_Q>  (1) 
0

>  <i_i_glide_confnum>  (1) 
1

>  <i_i_glide_lignum>  (1) 
68

>  <i_i_glide_posenum>  (1) 
179

>  <i_i_glide_rotatable_bonds>  (1) 
1

>  <i_lp_mmshare_version>  (1) 
72125

>  <i_m_source_file_index>  (1) 
65

>  <i_f3d_flags>  (1) 
0

>  <num_sample>  (1) 
100

>  <b_lp_Chiralities_Consistent>  (1) 
1

>  <r_epik_Charging_Adjusted_Penalty>  (1) 
0

>  <r_epik_Ionization_Penalty>  (1) 
0.0026005809723615375

>  <r_epik_Ionization_Penalty_Charging>  (1) 
0

>  <r_epik_Ionization_Penalty_Neutral>  (1) 
0.0026005809723615375

>  <r_epik_State_Penalty>  (1) 
-0

>  <r_glide_ring_energy>  (1) 
0

>  <r_i_docking_score>  (1) 
-5.562273545381875

>  <r_i_glide_ecoul>  (1) 
-2.4997111410191262

>  <r_i_glide_eff_state_penalty>  (1) 
-0

>  <r_i_glide_einternal>  (1) 
0.067395875408662764

>  <r_i_glide_emodel>  (1) 
-28.282935388322358

>  <r_i_glide_emodel_strain>  (1) 
0

>  <r_i_glide_energy>  (1) 
-21.077500211538858

>  <r_i_glide_erotb>  (1) 
0

>  <r_i_glide_esite>  (1) 
0

>  <r_i_glide_evdw>  (1) 
-18.577789070519731

>  <r_i_glide_gscore>  (1) 
-5.562273545381875

>  <r_i_glide_gscore_strain>  (1) 
0

>  <r_i_glide_hbond>  (1) 
0

>  <r_i_glide_ligand_efficiency>  (1) 
-0.69528419317273438

>  <r_i_glide_ligand_efficiency_ln>  (1) 
-1.8062604761601202

>  <r_i_glide_ligand_efficiency_sa>  (1) 
-1.390568386345469

>  <r_i_glide_lipo>  (1) 
-1.7420544030362997

>  <r_i_glide_metal>  (1) 
-0

>  <r_i_glide_rewards>  (1) 
-2.5163730176667207

>  <r_lp_Energy>  (1) 
4.3794230000000001

>  <r_lp_tautomer_probability>  (1) 
1

>  <s_epik_cmdline>  (1) 
J2VwaWtfcHl0aG9uJywgJy1waHQnLCAnMS4wJywgJy1waCcsICc3LjQnLCAnLXRuJywgJzgnLCAnLW1hJywgJzUwMCcsICctaW1hZScsICc8aW5maWxlLm1hZT4nLCAnLW9tYWUnLCAnPG91dGZpbGUubWFlPic=

>  <s_epik_input>  (1) 
W09IXWMoW2NIXTEpW2NIXVtjSF1bY0hdYzFbTkgyXQ==

>  <s_glide_docking_method>  (1) 
confgen

>  <s_i_glide_gridfile>  (1) 
gpcr_5ht2c_6bqh_protein_autoprepared_prepared

>  <s_lp_Force_Field>  (1) 
S-OPLS

>  <s_lp_Variant>  (1) 
Pocket2Mol_64-1

>  <s_m_source_file>  (1) 
generated_GPCR_5HT2C_ligand_Pocket2Mol_2026-06-23_prepared.sdf

>  <GenAI_Model>  (1) 
Pocket2Mol

>  <Protein>  (1) 
GPCR_5HT2C

$$$$
Pocket2Mol_95
     RDKit          3D

  0  0  0  0  0  0  0  0  0  0999 V3000
M  V30 BEGIN CTAB
M  V30 COUNTS 14 15 0 0 1
M  V30 BEGIN ATOM
M  V30 1 C 38.658266 30.379545 55.434316 0
M  V30 2 C 38.177797 29.019787 55.194418 0
M  V30 3 C 38.512195 28.672581 53.947299 0
M  V30 4 C 39.197334 29.752435 53.353643 0
M  V30 5 C 39.279863 30.833236 54.322046 0
M  V30 6 C 38.248305 27.425259 53.262696 0
M  V30 7 O 37.645147 26.481173 53.767797 0
M  V30 8 N 39.645138 29.737766 52.167761 0
M  V30 9 C 39.387222 28.484524 51.463290 0
M  V30 10 N 38.771779 27.434688 51.942875 0
M  V30 11 H 38.534898 30.934356 56.353280 0
M  V30 12 H 37.645138 28.403198 55.902791 0
M  V30 13 H 39.753873 31.779706 54.125654 0
M  V30 14 H 39.744807 28.416787 50.432407 0
M  V30 END ATOM
M  V30 BEGIN BOND
M  V30 1 1 2 1
M  V30 2 2 3 2
M  V30 3 1 4 3
M  V30 4 2 5 1
M  V30 5 1 5 4
M  V30 6 1 6 3
M  V30 7 2 7 6
M  V30 8 2 8 4
M  V30 9 1 9 8
M  V30 10 1 10 6
M  V30 11 2 10 9
M  V30 12 1 11 1
M  V30 13 1 12 2
M  V30 14 1 13 5
M  V30 15 1 14 9
M  V30 END BOND
M  V30 END CTAB
M  END
>  <i_epik_Tot_Q>  (1) 
0

>  <i_epik_Tot_abs_Q>  (1) 
0

>  <i_i_glide_confnum>  (1) 
1

>  <i_i_glide_lignum>  (1) 
100

>  <i_i_glide_posenum>  (1) 
327

>  <i_i_glide_rotatable_bonds>  (1) 
0

>  <i_lp_mmshare_version>  (1) 
72125

>  <i_m_source_file_index>  (1) 
96

>  <i_f3d_flags>  (1) 
0

>  <num_sample>  (1) 
100

>  <b_lp_Chiralities_Consistent>  (1) 
1

>  <r_epik_Charging_Adjusted_Penalty>  (1) 
0

>  <r_epik_Ionization_Penalty>  (1) 
0.00072225958823983786

>  <r_epik_Ionization_Penalty_Charging>  (1) 
0

>  <r_epik_Ionization_Penalty_Neutral>  (1) 
0.00072225958823983786

>  <r_epik_State_Penalty>  (1) 
-0

>  <r_glide_ring_energy>  (1) 
0

>  <r_i_docking_score>  (1) 
-5.5499859591891019

>  <r_i_glide_ecoul>  (1) 
0.12844330017824279

>  <r_i_glide_eff_state_penalty>  (1) 
-0

>  <r_i_glide_einternal>  (1) 
0

>  <r_i_glide_emodel>  (1) 
-31.147935263737885

>  <r_i_glide_emodel_strain>  (1) 
0

>  <r_i_glide_energy>  (1) 
-23.036944671934126

>  <r_i_glide_erotb>  (1) 
0

>  <r_i_glide_esite>  (1) 
0

>  <r_i_glide_evdw>  (1) 
-23.16538797211237

>  <r_i_glide_gscore>  (1) 
-5.5499859591891019

>  <r_i_glide_gscore_strain>  (1) 
0

>  <r_i_glide_hbond>  (1) 
0

>  <r_i_glide_ligand_efficiency>  (1) 
-0.55499859591891021

>  <r_i_glide_ligand_efficiency_ln>  (1) 
-1.6804974899700813

>  <r_i_glide_ligand_efficiency_sa>  (1) 
-1.1957082279666882

>  <r_i_glide_lipo>  (1) 
-0.64430437342304103

>  <r_i_glide_metal>  (1) 
-0

>  <r_i_glide_rewards>  (1) 
-3.7666786821871789

>  <r_lp_Energy>  (1) 
19.123919000000001

>  <r_lp_tautomer_probability>  (1) 
1

>  <s_epik_Chemistry_Notes>  (1) 
This compound has an imine and may undergo hydrolysis.

>  <s_epik_cmdline>  (1) 
J2VwaWtfcHl0aG9uJywgJy1waHQnLCAnMS4wJywgJy1waCcsICc3LjQnLCAnLXRuJywgJzgnLCAnLW1hJywgJzUwMCcsICctaW1hZScsICc8aW5maWxlLm1hZT4nLCAnLW9tYWUnLCAnPG91dGZpbGUubWFlPic=

>  <s_epik_input>  (1) 
W0NIXT0xW0NIXT1bQ0hdQyhDMTIpPU5bQ0hdPU5DMj1P

>  <s_glide_docking_method>  (1) 
confgen

>  <s_i_glide_gridfile>  (1) 
gpcr_5ht2c_6bqh_protein_autoprepared_prepared

>  <s_lp_Force_Field>  (1) 
S-OPLS

>  <s_lp_Variant>  (1) 
Pocket2Mol_95-1

>  <s_m_source_file>  (1) 
generated_GPCR_5HT2C_ligand_Pocket2Mol_2026-06-23_prepared.sdf

>  <GenAI_Model>  (1) 
Pocket2Mol

>  <Protein>  (1) 
GPCR_5HT2C

$$$$
Pocket2Mol_27
     RDKit          3D

  0  0  0  0  0  0  0  0  0  0999 V3000
M  V30 BEGIN CTAB
M  V30 COUNTS 15 15 0 0 1
M  V30 BEGIN ATOM
M  V30 1 C 39.613215 28.554678 50.853819 0
M  V30 2 C 38.962489 27.418257 51.367771 0
M  V30 3 C 38.452943 27.430312 52.681234 0
M  V30 4 C 39.753886 29.706523 51.650875 0
M  V30 5 C 38.594548 28.580382 53.481293 0
M  V30 6 C 40.445137 30.930302 51.092494 0
M  V30 7 C 39.245137 29.718909 52.967760 0
M  V30 8 H 40.000242 28.544577 49.845636 0
M  V30 9 H 38.851642 26.537755 50.753268 0
M  V30 10 H 37.952311 26.557447 53.073824 0
M  V30 11 H 38.203354 28.589902 54.488208 0
M  V30 12 H 40.445137 31.737754 51.821722 0
M  V30 13 H 41.477877 30.701868 50.829356 0
M  V30 14 H 39.930724 31.283358 50.197947 0
M  V30 15 H 39.351559 30.601819 53.581508 0
M  V30 END ATOM
M  V30 BEGIN BOND
M  V30 1 1 2 1
M  V30 2 2 3 2
M  V30 3 2 4 1
M  V30 4 1 5 3
M  V30 5 1 6 4
M  V30 6 1 7 4
M  V30 7 2 7 5
M  V30 8 1 8 1
M  V30 9 1 9 2
M  V30 10 1 10 3
M  V30 11 1 11 5
M  V30 12 1 12 6
M  V30 13 1 13 6
M  V30 14 1 14 6
M  V30 15 1 15 7
M  V30 END BOND
M  V30 END CTAB
M  END
>  <i_epik_Tot_Q>  (1) 
0

>  <i_epik_Tot_abs_Q>  (1) 
0

>  <i_i_glide_confnum>  (1) 
1

>  <i_i_glide_lignum>  (1) 
30

>  <i_i_glide_posenum>  (1) 
63

>  <i_i_glide_rotatable_bonds>  (1) 
0

>  <i_lp_mmshare_version>  (1) 
72125

>  <i_m_source_file_index>  (1) 
28

>  <i_f3d_flags>  (1) 
0

>  <num_sample>  (1) 
100

>  <b_lp_Chiralities_Consistent>  (1) 
1

>  <r_epik_Charging_Adjusted_Penalty>  (1) 
0

>  <r_epik_Ionization_Penalty>  (1) 
0

>  <r_epik_Ionization_Penalty_Charging>  (1) 
0

>  <r_epik_Ionization_Penalty_Neutral>  (1) 
0

>  <r_epik_State_Penalty>  (1) 
-0

>  <r_glide_ring_energy>  (1) 
0

>  <r_i_docking_score>  (1) 
-5.5456902371805654

>  <r_i_glide_ecoul>  (1) 
-1.043062622711161

>  <r_i_glide_eff_state_penalty>  (1) 
-0

>  <r_i_glide_einternal>  (1) 
0

>  <r_i_glide_emodel>  (1) 
-23.564545774715707

>  <r_i_glide_emodel_strain>  (1) 
0

>  <r_i_glide_energy>  (1) 
-17.544375088758859

>  <r_i_glide_erotb>  (1) 
0

>  <r_i_glide_esite>  (1) 
0

>  <r_i_glide_evdw>  (1) 
-16.501312466047697

>  <r_i_glide_gscore>  (1) 
-5.5456902371805654

>  <r_i_glide_gscore_strain>  (1) 
0

>  <r_i_glide_hbond>  (1) 
0

>  <r_i_glide_ligand_efficiency>  (1) 
-0.79224146245436644

>  <r_i_glide_ligand_efficiency_ln>  (1) 
-1.8825048818813916

>  <r_i_glide_ligand_efficiency_sa>  (1) 
-1.5155033978141585

>  <r_i_glide_lipo>  (1) 
-2.0211235634239091

>  <r_i_glide_metal>  (1) 
-0

>  <r_i_glide_rewards>  (1) 
-2.5430416570475969

>  <r_lp_Energy>  (1) 
6.403492

>  <r_lp_tautomer_probability>  (1) 
1

>  <s_epik_cmdline>  (1) 
J2VwaWtfcHl0aG9uJywgJy1waHQnLCAnMS4wJywgJy1waCcsICc3LjQnLCAnLXRuJywgJzgnLCAnLW1hJywgJzUwMCcsICctaW1hZScsICc8aW5maWxlLm1hZT4nLCAnLW9tYWUnLCAnPG91dGZpbGUubWFlPic=

>  <s_epik_input>  (1) 
W0NIM11jMVtjSF1bY0hdW2NIXVtjSF1bY0hdMQ==

>  <s_glide_docking_method>  (1) 
confgen

>  <s_i_glide_gridfile>  (1) 
gpcr_5ht2c_6bqh_protein_autoprepared_prepared

>  <s_lp_Force_Field>  (1) 
S-OPLS

>  <s_lp_Variant>  (1) 
Pocket2Mol_27-1

>  <s_m_source_file>  (1) 
generated_GPCR_5HT2C_ligand_Pocket2Mol_2026-06-23_prepared.sdf

>  <GenAI_Model>  (1) 
Pocket2Mol

>  <Protein>  (1) 
GPCR_5HT2C

$$$$
Pocket2Mol_30
     RDKit          3D

  0  0  0  0  0  0  0  0  0  0999 V3000
M  V30 BEGIN CTAB
M  V30 COUNTS 14 14 0 0 1
M  V30 BEGIN ATOM
M  V30 1 C 40.212210 30.126770 51.375186 0
M  V30 2 C 39.645137 30.137755 52.664955 0
M  V30 3 C 38.870028 29.043160 53.104259 0
M  V30 4 N 38.301376 29.056510 54.376359 0
M  V30 5 C 40.012191 29.021225 50.528309 0
M  V30 6 C 38.672374 27.936042 52.254263 0
M  V30 7 C 39.245136 27.924995 50.967760 0
M  V30 8 H 40.801324 30.967083 51.036985 0
M  V30 9 H 39.799850 30.987832 53.314254 0
M  V30 10 H 37.631250 28.350598 54.644567 0
M  V30 11 H 38.303550 29.900585 54.933074 0
M  V30 12 H 40.445138 29.014051 49.539743 0
M  V30 13 H 38.080667 27.095454 52.587458 0
M  V30 14 H 39.092885 27.076362 50.316162 0
M  V30 END ATOM
M  V30 BEGIN BOND
M  V30 1 1 2 1
M  V30 2 2 3 2
M  V30 3 1 4 3
M  V30 4 2 5 1
M  V30 5 1 6 3
M  V30 6 1 7 5
M  V30 7 2 7 6
M  V30 8 1 8 1
M  V30 9 1 9 2
M  V30 10 1 10 4
M  V30 11 1 11 4
M  V30 12 1 12 5
M  V30 13 1 13 6
M  V30 14 1 14 7
M  V30 END BOND
M  V30 END CTAB
M  END
>  <i_epik_Tot_Q>  (1) 
0

>  <i_epik_Tot_abs_Q>  (1) 
0

>  <i_i_glide_confnum>  (1) 
1

>  <i_i_glide_lignum>  (1) 
33

>  <i_i_glide_posenum>  (1) 
236

>  <i_i_glide_rotatable_bonds>  (1) 
0

>  <i_lp_mmshare_version>  (1) 
72125

>  <i_m_source_file_index>  (1) 
31

>  <i_f3d_flags>  (1) 
0

>  <num_sample>  (1) 
100

>  <b_lp_Chiralities_Consistent>  (1) 
1

>  <r_epik_Charging_Adjusted_Penalty>  (1) 
0

>  <r_epik_Ionization_Penalty>  (1) 
0.00088153335660618348

>  <r_epik_Ionization_Penalty_Charging>  (1) 
0

>  <r_epik_Ionization_Penalty_Neutral>  (1) 
0.00088153335660618348

>  <r_epik_State_Penalty>  (1) 
-0

>  <r_glide_ring_energy>  (1) 
0

>  <r_i_docking_score>  (1) 
-5.5283877898121494

>  <r_i_glide_ecoul>  (1) 
-0.99123300378046675

>  <r_i_glide_eff_state_penalty>  (1) 
-0

>  <r_i_glide_einternal>  (1) 
0

>  <r_i_glide_emodel>  (1) 
-23.750913930242504

>  <r_i_glide_emodel_strain>  (1) 
0

>  <r_i_glide_energy>  (1) 
-17.645451529673462

>  <r_i_glide_erotb>  (1) 
0

>  <r_i_glide_esite>  (1) 
0

>  <r_i_glide_evdw>  (1) 
-16.654218525892997

>  <r_i_glide_gscore>  (1) 
-5.5283877898121494

>  <r_i_glide_gscore_strain>  (1) 
0

>  <r_i_glide_hbond>  (1) 
0

>  <r_i_glide_ligand_efficiency>  (1) 
-0.7897696842588785

>  <r_i_glide_ligand_efficiency_ln>  (1) 
-1.8766315026902562

>  <r_i_glide_ligand_efficiency_sa>  (1) 
-1.5107750562271127

>  <r_i_glide_lipo>  (1) 
-1.9317758693640397

>  <r_i_glide_metal>  (1) 
-0

>  <r_i_glide_rewards>  (1) 
-2.6152160435863898

>  <r_lp_Energy>  (1) 
7.0325409999999993

>  <r_lp_tautomer_probability>  (1) 
1

>  <s_epik_cmdline>  (1) 
J2VwaWtfcHl0aG9uJywgJy1waHQnLCAnMS4wJywgJy1waCcsICc3LjQnLCAnLXRuJywgJzgnLCAnLW1hJywgJzUwMCcsICctaW1hZScsICc8aW5maWxlLm1hZT4nLCAnLW9tYWUnLCAnPG91dGZpbGUubWFlPic=

>  <s_epik_input>  (1) 
W2NIXTFbY0hdW2NIXVtjSF1bY0hdYzFbTkgyXQ==

>  <s_glide_docking_method>  (1) 
confgen

>  <s_i_glide_gridfile>  (1) 
gpcr_5ht2c_6bqh_protein_autoprepared_prepared

>  <s_lp_Force_Field>  (1) 
S-OPLS

>  <s_lp_Variant>  (1) 
Pocket2Mol_30-1

>  <s_m_source_file>  (1) 
generated_GPCR_5HT2C_ligand_Pocket2Mol_2026-06-23_prepared.sdf

>  <GenAI_Model>  (1) 
Pocket2Mol

>  <Protein>  (1) 
GPCR_5HT2C

$$$$
Pocket2Mol_10
     RDKit          3D

  0  0  0  0  0  0  0  0  0  0999 V3000
M  V30 BEGIN CTAB
M  V30 COUNTS 12 12 0 0 1
M  V30 BEGIN ATOM
M  V30 1 C 38.776520 29.172267 53.235270 0
M  V30 2 C 39.645137 30.065454 52.524219 0
M  V30 3 C 39.984161 29.600598 51.274213 0
M  V30 4 C 40.854027 30.259312 50.256881 0
M  V30 5 C 38.468986 28.046674 52.514471 0
M  V30 6 S 39.245230 28.059408 50.967760 0
M  V30 7 H 38.413290 29.388901 54.229373 0
M  V30 8 H 39.982485 31.001661 52.946304 0
M  V30 9 H 40.560361 31.298967 50.108769 0
M  V30 10 H 41.897591 30.243317 50.567816 0
M  V30 11 H 40.784096 29.751041 49.295002 0
M  V30 12 H 37.837051 27.217779 52.799818 0
M  V30 END ATOM
M  V30 BEGIN BOND
M  V30 1 1 2 1
M  V30 2 2 3 2
M  V30 3 1 4 3
M  V30 4 2 5 1
M  V30 5 1 6 3
M  V30 6 1 6 5
M  V30 7 1 7 1
M  V30 8 1 8 2
M  V30 9 1 9 4
M  V30 10 1 10 4
M  V30 11 1 11 4
M  V30 12 1 12 5
M  V30 END BOND
M  V30 END CTAB
M  END
>  <i_epik_Tot_Q>  (1) 
0

>  <i_epik_Tot_abs_Q>  (1) 
0

>  <i_i_glide_confnum>  (1) 
1

>  <i_i_glide_lignum>  (1) 
13

>  <i_i_glide_posenum>  (1) 
208

>  <i_i_glide_rotatable_bonds>  (1) 
0

>  <i_lp_mmshare_version>  (1) 
72125

>  <i_m_source_file_index>  (1) 
11

>  <i_f3d_flags>  (1) 
0

>  <num_sample>  (1) 
100

>  <b_lp_Chiralities_Consistent>  (1) 
1

>  <r_epik_Charging_Adjusted_Penalty>  (1) 
0

>  <r_epik_Ionization_Penalty>  (1) 
0

>  <r_epik_Ionization_Penalty_Charging>  (1) 
0

>  <r_epik_Ionization_Penalty_Neutral>  (1) 
0

>  <r_epik_State_Penalty>  (1) 
-0

>  <r_glide_ring_energy>  (1) 
0

>  <r_i_docking_score>  (1) 
-5.5283714773902668

>  <r_i_glide_ecoul>  (1) 
-0.86088958004004423

>  <r_i_glide_eff_state_penalty>  (1) 
-0

>  <r_i_glide_einternal>  (1) 
0

>  <r_i_glide_emodel>  (1) 
-25.183363551330398

>  <r_i_glide_emodel_strain>  (1) 
0.026534445688667585

>  <r_i_glide_energy>  (1) 
-19.028003215430356

>  <r_i_glide_erotb>  (1) 
0

>  <r_i_glide_esite>  (1) 
0

>  <r_i_glide_evdw>  (1) 
-18.167113635390312

>  <r_i_glide_gscore>  (1) 
-5.5283714773902668

>  <r_i_glide_gscore_strain>  (1) 
0

>  <r_i_glide_hbond>  (1) 
0

>  <r_i_glide_ligand_efficiency>  (1) 
-0.9213952462317111

>  <r_i_glide_ligand_efficiency_ln>  (1) 
-1.9802463422534422

>  <r_i_glide_ligand_efficiency_sa>  (1) 
-1.6742862760652824

>  <r_i_glide_lipo>  (1) 
-1.9336650028919176

>  <r_i_glide_metal>  (1) 
-0

>  <r_i_glide_rewards>  (1) 
-2.5572173557228268

>  <r_lp_Energy>  (1) 
3.145988

>  <r_lp_tautomer_probability>  (1) 
1

>  <s_epik_cmdline>  (1) 
J2VwaWtfcHl0aG9uJywgJy1waHQnLCAnMS4wJywgJy1waCcsICc3LjQnLCAnLXRuJywgJzgnLCAnLW1hJywgJzUwMCcsICctaW1hZScsICc8aW5maWxlLm1hZT4nLCAnLW9tYWUnLCAnPG91dGZpbGUubWFlPic=

>  <s_epik_input>  (1) 
czFbY0hdW2NIXVtjSF1jMVtDSDNd

>  <s_glide_docking_method>  (1) 
confgen

>  <s_i_glide_gridfile>  (1) 
gpcr_5ht2c_6bqh_protein_autoprepared_prepared

>  <s_lp_Force_Field>  (1) 
S-OPLS

>  <s_lp_Variant>  (1) 
Pocket2Mol_10-1

>  <s_m_source_file>  (1) 
generated_GPCR_5HT2C_ligand_Pocket2Mol_2026-06-23_prepared.sdf

>  <GenAI_Model>  (1) 
Pocket2Mol

>  <Protein>  (1) 
GPCR_5HT2C

$$$$
Pocket2Mol_65
     RDKit          3D

  0  0  0  0  0  0  0  0  0  0999 V3000
M  V30 BEGIN CTAB
M  V30 COUNTS 20 20 0 0 1
M  V30 BEGIN ATOM
M  V30 1 C 39.682190 29.298267 51.458565 0
M  V30 2 C 39.645136 30.025415 52.810244 0
M  V30 3 C 38.845141 28.041051 51.657866 0
M  V30 4 C 38.845138 27.837857 53.165662 0
M  V30 5 N 38.813083 29.198926 53.680529 0
M  V30 6 N 39.173442 29.289715 55.071422 0 CHG=1
M  V30 7 C 38.376070 29.952501 55.927394 0
M  V30 8 N 37.245137 30.539573 55.520247 0
M  V30 9 H 39.293437 29.912999 50.645456 0
M  V30 10 H 40.711197 29.035159 51.209703 0
M  V30 11 H 39.245138 31.034857 52.724500 0
M  V30 12 H 40.649765 30.137754 53.215021 0
M  V30 13 H 37.822569 28.212058 51.321199 0
M  V30 14 H 39.234823 27.179528 51.113641 0
M  V30 15 H 39.756672 27.327392 53.475953 0
M  V30 16 H 37.991093 27.251739 53.507648 0
M  V30 17 H 38.656177 30.012670 56.972845 0
M  V30 18 H 36.979491 30.493356 54.549197 0
M  V30 19 H 36.639882 31.043211 56.189965 0
M  V30 20 H 40.032949 28.832886 55.344796 0
M  V30 END ATOM
M  V30 BEGIN BOND
M  V30 1 1 2 1
M  V30 2 1 3 1
M  V30 3 1 4 3
M  V30 4 1 5 2
M  V30 5 1 5 4
M  V30 6 1 6 5
M  V30 7 2 7 6
M  V30 8 1 8 7
M  V30 9 1 9 1
M  V30 10 1 10 1
M  V30 11 1 11 2
M  V30 12 1 12 2
M  V30 13 1 13 3
M  V30 14 1 14 3
M  V30 15 1 15 4
M  V30 16 1 16 4
M  V30 17 1 17 7
M  V30 18 1 18 8
M  V30 19 1 19 8
M  V30 20 1 20 6
M  V30 END BOND
M  V30 END CTAB
M  END
>  <i_epik_Tot_Q>  (1) 
1

>  <i_epik_Tot_abs_Q>  (1) 
1

>  <i_i_glide_confnum>  (1) 
2

>  <i_i_glide_lignum>  (1) 
70

>  <i_i_glide_posenum>  (1) 
289

>  <i_i_glide_rotatable_bonds>  (1) 
1

>  <i_lp_mmshare_version>  (1) 
72125

>  <i_m_source_file_index>  (1) 
66

>  <i_f3d_flags>  (1) 
0

>  <num_sample>  (1) 
100

>  <b_lp_Chiralities_Consistent>  (1) 
1

>  <r_epik_Charging_Adjusted_Penalty>  (1) 
1.6312684749255997e-05

>  <r_epik_Ionization_Penalty>  (1) 
1.6401951855999153e-05

>  <r_epik_Ionization_Penalty_Charging>  (1) 
1.6312684749255997e-05

>  <r_epik_Ionization_Penalty_Neutral>  (1) 
8.9267106743156534e-08

>  <r_epik_State_Penalty>  (1) 
-0

>  <r_glide_ring_energy>  (1) 
0.002520034235707866

>  <r_i_docking_score>  (1) 
-5.5163076563742255

>  <r_i_glide_ecoul>  (1) 
-4.7682177638119265

>  <r_i_glide_eff_state_penalty>  (1) 
-0

>  <r_i_glide_einternal>  (1) 
0.0030800918691702983

>  <r_i_glide_emodel>  (1) 
-28.228726126075479

>  <r_i_glide_emodel_strain>  (1) 
0.1985789574834449

>  <r_i_glide_energy>  (1) 
-17.784376049334856

>  <r_i_glide_erotb>  (1) 
0

>  <r_i_glide_esite>  (1) 
-0.12036233519953254

>  <r_i_glide_evdw>  (1) 
-13.016158285522929

>  <r_i_glide_gscore>  (1) 
-5.5163076563742255

>  <r_i_glide_gscore_strain>  (1) 
0

>  <r_i_glide_hbond>  (1) 
-0.20000000000000001

>  <r_i_glide_ligand_efficiency>  (1) 
-0.68953845704677819

>  <r_i_glide_ligand_efficiency_ln>  (1) 
-1.791333779749259

>  <r_i_glide_ligand_efficiency_sa>  (1) 
-1.3790769140935566

>  <r_i_glide_lipo>  (1) 
-1.2694386395059771

>  <r_i_glide_metal>  (1) 
-0

>  <r_i_glide_rewards>  (1) 
-2.5604661028207802

>  <r_lp_Energy>  (1) 
13.886725999999999

>  <r_lp_tautomer_probability>  (1) 
1

>  <s_epik_Chemistry_Notes>  (1) 
This compound has an imine and may undergo hydrolysis.

>  <s_epik_cmdline>  (1) 
J2VwaWtfcHl0aG9uJywgJy1waHQnLCAnMS4wJywgJy1waCcsICc3LjQnLCAnLXRuJywgJzgnLCAnLW1hJywgJzUwMCcsICctaW1hZScsICc8aW5maWxlLm1hZT4nLCAnLW9tYWUnLCAnPG91dGZpbGUubWFlPic=

>  <s_epik_input>  (1) 
W0NIMl0xW0NIMl1bQ0gyXVtDSDJdTjEvTj1bQ0hdXFtOSDJd

>  <s_glide_docking_method>  (1) 
confgen

>  <s_i_glide_gridfile>  (1) 
gpcr_5ht2c_6bqh_protein_autoprepared_prepared

>  <s_lp_Force_Field>  (1) 
S-OPLS

>  <s_lp_Variant>  (1) 
Pocket2Mol_65-2

>  <s_m_source_file>  (1) 
generated_GPCR_5HT2C_ligand_Pocket2Mol_2026-06-23_prepared.sdf

>  <GenAI_Model>  (1) 
Pocket2Mol

>  <Protein>  (1) 
GPCR_5HT2C

$$$$
Pocket2Mol_36
     RDKit          3D

  0  0  0  0  0  0  0  0  0  0999 V3000
M  V30 BEGIN CTAB
M  V30 COUNTS 19 19 0 0 1
M  V30 BEGIN ATOM
M  V30 1 C 40.044693 30.570514 52.007188 0
M  V30 2 C 40.019256 29.175455 51.362593 0
M  V30 3 C 39.830163 30.537118 53.535355 0
M  V30 4 O 40.045138 29.324590 49.957074 0
M  V30 5 C 38.611563 29.693163 53.947895 0
M  V30 6 C 38.627692 28.295631 53.304113 0
M  V30 7 C 38.767898 28.381050 51.776122 0
M  V30 8 H 40.979701 31.072743 51.767712 0
M  V30 9 H 39.283907 31.196790 51.552879 0
M  V30 10 H 40.913034 28.624913 51.656298 0
M  V30 11 H 40.718327 30.137755 54.023943 0
M  V30 12 H 39.710489 31.553542 53.911953 0
M  V30 13 H 39.211149 29.673815 49.667590 0
M  V30 14 H 38.584870 29.600014 55.034322 0
M  V30 15 H 37.694627 30.213868 53.675865 0
M  V30 16 H 39.451071 27.710001 53.712895 0
M  V30 17 H 37.712980 27.760947 53.563794 0
M  V30 18 H 37.877117 28.859571 51.373106 0
M  V30 19 H 38.797896 27.378995 51.346558 0
M  V30 END ATOM
M  V30 BEGIN BOND
M  V30 1 1 2 1
M  V30 2 1 3 1
M  V30 3 1 4 2
M  V30 4 1 5 3
M  V30 5 1 6 5
M  V30 6 1 7 2
M  V30 7 1 7 6
M  V30 8 1 8 1
M  V30 9 1 9 1
M  V30 10 1 10 2
M  V30 11 1 11 3
M  V30 12 1 12 3
M  V30 13 1 13 4
M  V30 14 1 14 5
M  V30 15 1 15 5
M  V30 16 1 16 6
M  V30 17 1 17 6
M  V30 18 1 18 7
M  V30 19 1 19 7
M  V30 END BOND
M  V30 END CTAB
M  END
>  <i_epik_Tot_Q>  (1) 
0

>  <i_epik_Tot_abs_Q>  (1) 
0

>  <i_i_glide_confnum>  (1) 
1

>  <i_i_glide_lignum>  (1) 
39

>  <i_i_glide_posenum>  (1) 
266

>  <i_i_glide_rotatable_bonds>  (1) 
1

>  <i_lp_mmshare_version>  (1) 
72125

>  <i_m_source_file_index>  (1) 
37

>  <i_f3d_flags>  (1) 
0

>  <num_sample>  (1) 
100

>  <b_lp_Chiralities_Consistent>  (1) 
1

>  <r_epik_Charging_Adjusted_Penalty>  (1) 
0

>  <r_epik_Ionization_Penalty>  (1) 
4.7751045033339745e-07

>  <r_epik_Ionization_Penalty_Charging>  (1) 
0

>  <r_epik_Ionization_Penalty_Neutral>  (1) 
4.7751045033339745e-07

>  <r_epik_State_Penalty>  (1) 
-0

>  <r_glide_ring_energy>  (1) 
0

>  <r_i_docking_score>  (1) 
-5.5150567220901063

>  <r_i_glide_ecoul>  (1) 
-1.6660808100419151

>  <r_i_glide_eff_state_penalty>  (1) 
-0

>  <r_i_glide_einternal>  (1) 
0.044387678192191249

>  <r_i_glide_emodel>  (1) 
-21.176299252705949

>  <r_i_glide_emodel_strain>  (1) 
3.0388444649531721e-08

>  <r_i_glide_energy>  (1) 
-15.940844672104289

>  <r_i_glide_erotb>  (1) 
0

>  <r_i_glide_esite>  (1) 
0

>  <r_i_glide_evdw>  (1) 
-14.274763862062374

>  <r_i_glide_gscore>  (1) 
-5.5150567220901063

>  <r_i_glide_gscore_strain>  (1) 
0

>  <r_i_glide_hbond>  (1) 
-0.29515472295975026

>  <r_i_glide_ligand_efficiency>  (1) 
-0.78786524601287233

>  <r_i_glide_ligand_efficiency_ln>  (1) 
-1.8721062228794247

>  <r_i_glide_ligand_efficiency_sa>  (1) 
-1.5071319969206634

>  <r_i_glide_lipo>  (1) 
-1.6299348370587992

>  <r_i_glide_metal>  (1) 
-0

>  <r_i_glide_rewards>  (1) 
-2.6263168474621517

>  <r_lp_Energy>  (1) 
3.8568439999999997

>  <r_lp_tautomer_probability>  (1) 
1

>  <s_epik_cmdline>  (1) 
J2VwaWtfcHl0aG9uJywgJy1waHQnLCAnMS4wJywgJy1waCcsICc3LjQnLCAnLXRuJywgJzgnLCAnLW1hJywgJzUwMCcsICctaW1hZScsICc8aW5maWxlLm1hZT4nLCAnLW9tYWUnLCAnPG91dGZpbGUubWFlPic=

>  <s_epik_input>  (1) 
W09IXVtDSF0xW0NIMl1bQ0gyXVtDSDJdW0NIMl1bQ0gyXTE=

>  <s_glide_docking_method>  (1) 
confgen

>  <s_i_glide_gridfile>  (1) 
gpcr_5ht2c_6bqh_protein_autoprepared_prepared

>  <s_lp_Force_Field>  (1) 
S-OPLS

>  <s_lp_Variant>  (1) 
Pocket2Mol_36-1

>  <s_m_source_file>  (1) 
generated_GPCR_5HT2C_ligand_Pocket2Mol_2026-06-23_prepared.sdf

>  <GenAI_Model>  (1) 
Pocket2Mol

>  <Protein>  (1) 
GPCR_5HT2C

$$$$
Pocket2Mol_58
     RDKit          3D

  0  0  0  0  0  0  0  0  0  0999 V3000
M  V30 BEGIN CTAB
M  V30 COUNTS 17 17 0 0 1
M  V30 BEGIN ATOM
M  V30 1 C 38.790414 31.251088 55.209329 0
M  V30 2 C 38.809233 30.231871 54.088898 0
M  V30 3 C 37.985926 29.089818 54.165565 0
M  V30 4 C 37.997643 28.137402 53.127829 0
M  V30 5 C 38.833305 28.323460 52.008587 0
M  V30 6 C 39.645138 30.416498 52.967743 0
M  V30 7 N 38.845156 27.381497 50.981826 0
M  V30 8 C 39.656974 29.464125 51.929864 0
M  V30 9 H 39.475801 32.075452 55.010263 0
M  V30 10 H 37.788061 31.663185 55.328221 0
M  V30 11 H 39.084056 30.784048 56.149710 0
M  V30 12 H 37.342934 28.940987 55.020687 0
M  V30 13 H 37.362935 27.265994 53.196595 0
M  V30 14 H 40.280223 31.287419 52.897859 0
M  V30 15 H 39.435076 27.492358 50.169783 0
M  V30 16 H 38.264212 26.556208 51.015104 0
M  V30 17 H 40.300672 29.614716 51.075514 0
M  V30 END ATOM
M  V30 BEGIN BOND
M  V30 1 1 2 1
M  V30 2 1 3 2
M  V30 3 2 4 3
M  V30 4 1 5 4
M  V30 5 2 6 2
M  V30 6 1 7 5
M  V30 7 2 8 5
M  V30 8 1 8 6
M  V30 9 1 9 1
M  V30 10 1 10 1
M  V30 11 1 11 1
M  V30 12 1 12 3
M  V30 13 1 13 4
M  V30 14 1 14 6
M  V30 15 1 15 7
M  V30 16 1 16 7
M  V30 17 1 17 8
M  V30 END BOND
M  V30 END CTAB
M  END
>  <i_epik_Tot_Q>  (1) 
0

>  <i_epik_Tot_abs_Q>  (1) 
0

>  <i_i_glide_confnum>  (1) 
1

>  <i_i_glide_lignum>  (1) 
62

>  <i_i_glide_posenum>  (1) 
237

>  <i_i_glide_rotatable_bonds>  (1) 
0

>  <i_lp_mmshare_version>  (1) 
72125

>  <i_m_source_file_index>  (1) 
59

>  <i_f3d_flags>  (1) 
0

>  <num_sample>  (1) 
100

>  <b_lp_Chiralities_Consistent>  (1) 
1

>  <r_epik_Charging_Adjusted_Penalty>  (1) 
0

>  <r_epik_Ionization_Penalty>  (1) 
0.002249743429862997

>  <r_epik_Ionization_Penalty_Charging>  (1) 
0

>  <r_epik_Ionization_Penalty_Neutral>  (1) 
0.002249743429862997

>  <r_epik_State_Penalty>  (1) 
-0

>  <r_glide_ring_energy>  (1) 
0

>  <r_i_docking_score>  (1) 
-5.5148523656462167

>  <r_i_glide_ecoul>  (1) 
-1.6238157407572384

>  <r_i_glide_eff_state_penalty>  (1) 
-0

>  <r_i_glide_einternal>  (1) 
0

>  <r_i_glide_emodel>  (1) 
-25.857239884341446

>  <r_i_glide_emodel_strain>  (1) 
0

>  <r_i_glide_energy>  (1) 
-19.143455543517856

>  <r_i_glide_erotb>  (1) 
0

>  <r_i_glide_esite>  (1) 
0

>  <r_i_glide_evdw>  (1) 
-17.519639802760619

>  <r_i_glide_gscore>  (1) 
-5.5148523656462167

>  <r_i_glide_gscore_strain>  (1) 
0

>  <r_i_glide_hbond>  (1) 
0

>  <r_i_glide_ligand_efficiency>  (1) 
-0.68935654570577709

>  <r_i_glide_ligand_efficiency_ln>  (1) 
-1.7908611970720718

>  <r_i_glide_ligand_efficiency_sa>  (1) 
-1.3787130914115544

>  <r_i_glide_lipo>  (1) 
-1.8798462225012695

>  <r_i_glide_metal>  (1) 
-0

>  <r_i_glide_rewards>  (1) 
-2.5154517918933301

>  <r_lp_Energy>  (1) 
4.6440260000000002

>  <r_lp_tautomer_probability>  (1) 
1

>  <s_epik_cmdline>  (1) 
J2VwaWtfcHl0aG9uJywgJy1waHQnLCAnMS4wJywgJy1waCcsICc3LjQnLCAnLXRuJywgJzgnLCAnLW1hJywgJzUwMCcsICctaW1hZScsICc8aW5maWxlLm1hZT4nLCAnLW9tYWUnLCAnPG91dGZpbGUubWFlPic=

>  <s_epik_input>  (1) 
W0NIM11jMVtjSF1bY0hdYyhbTkgyXSlbY0hdW2NIXTE=

>  <s_glide_docking_method>  (1) 
confgen

>  <s_i_glide_gridfile>  (1) 
gpcr_5ht2c_6bqh_protein_autoprepared_prepared

>  <s_lp_Force_Field>  (1) 
S-OPLS

>  <s_lp_Variant>  (1) 
Pocket2Mol_58-1

>  <s_m_source_file>  (1) 
generated_GPCR_5HT2C_ligand_Pocket2Mol_2026-06-23_prepared.sdf

>  <GenAI_Model>  (1) 
Pocket2Mol

>  <Protein>  (1) 
GPCR_5HT2C

$$$$
Pocket2Mol_68
     RDKit          3D

  0  0  0  0  0  0  0  0  0  0999 V3000
M  V30 BEGIN CTAB
M  V30 COUNTS 19 20 0 0 1
M  V30 BEGIN ATOM
M  V30 1 C 38.450036 29.824786 56.220423 0
M  V30 2 C 38.442346 28.990779 54.992525 0
M  V30 3 C 38.045137 27.643354 54.982545 0
M  V30 4 C 38.061287 26.932369 53.762674 0
M  V30 5 C 38.479025 27.583482 52.575163 0
M  V30 6 C 38.845601 29.614265 53.856681 0
M  V30 7 C 39.243719 31.033755 54.013008 0
M  V30 8 C 38.877808 31.205893 55.553282 0
M  V30 9 C 38.876683 28.937755 52.623698 0
M  V30 10 H 37.465457 29.873203 56.688524 0
M  V30 11 H 39.189324 29.459698 56.933622 0
M  V30 12 H 37.726978 27.158951 55.894088 0
M  V30 13 H 37.755308 25.896994 53.735072 0
M  V30 14 H 38.493141 27.046310 51.637603 0
M  V30 15 H 40.311205 31.154744 53.826505 0
M  V30 16 H 38.673574 31.702380 53.367901 0
M  V30 17 H 38.027883 31.887268 55.624576 0
M  V30 18 H 39.688639 31.681459 56.105345 0
M  V30 19 H 39.199369 29.446284 51.726737 0
M  V30 END ATOM
M  V30 BEGIN BOND
M  V30 1 1 2 1
M  V30 2 2 3 2
M  V30 3 1 4 3
M  V30 4 2 5 4
M  V30 5 1 6 2
M  V30 6 1 7 6
M  V30 7 1 8 1
M  V30 8 1 8 7
M  V30 9 1 9 5
M  V30 10 2 9 6
M  V30 11 1 10 1
M  V30 12 1 11 1
M  V30 13 1 12 3
M  V30 14 1 13 4
M  V30 15 1 14 5
M  V30 16 1 15 7
M  V30 17 1 16 7
M  V30 18 1 17 8
M  V30 19 1 18 8
M  V30 20 1 19 9
M  V30 END BOND
M  V30 END CTAB
M  END
>  <i_epik_Tot_Q>  (1) 
0

>  <i_epik_Tot_abs_Q>  (1) 
0

>  <i_i_glide_confnum>  (1) 
1

>  <i_i_glide_lignum>  (1) 
73

>  <i_i_glide_posenum>  (1) 
182

>  <i_i_glide_rotatable_bonds>  (1) 
0

>  <i_lp_mmshare_version>  (1) 
72125

>  <i_m_source_file_index>  (1) 
69

>  <i_f3d_flags>  (1) 
0

>  <num_sample>  (1) 
100

>  <b_lp_Chiralities_Consistent>  (1) 
1

>  <r_epik_Charging_Adjusted_Penalty>  (1) 
0

>  <r_epik_Ionization_Penalty>  (1) 
0

>  <r_epik_Ionization_Penalty_Charging>  (1) 
0

>  <r_epik_Ionization_Penalty_Neutral>  (1) 
0

>  <r_epik_State_Penalty>  (1) 
-0

>  <r_glide_ring_energy>  (1) 
0

>  <r_i_docking_score>  (1) 
-5.5008835473930127

>  <r_i_glide_ecoul>  (1) 
-0.85332049660510223

>  <r_i_glide_eff_state_penalty>  (1) 
-0

>  <r_i_glide_einternal>  (1) 
0

>  <r_i_glide_emodel>  (1) 
-26.11586189252035

>  <r_i_glide_emodel_strain>  (1) 
0

>  <r_i_glide_energy>  (1) 
-18.804808931244843

>  <r_i_glide_erotb>  (1) 
0

>  <r_i_glide_esite>  (1) 
0

>  <r_i_glide_evdw>  (1) 
-17.951488434639739

>  <r_i_glide_gscore>  (1) 
-5.5008835473930127

>  <r_i_glide_gscore_strain>  (1) 
0

>  <r_i_glide_hbond>  (1) 
0

>  <r_i_glide_ligand_efficiency>  (1) 
-0.61120928304366806

>  <r_i_glide_ligand_efficiency_ln>  (1) 
-1.7205183478153092

>  <r_i_glide_ligand_efficiency_sa>  (1) 
-1.2713665421582867

>  <r_i_glide_lipo>  (1) 
-1.8462106148334003

>  <r_i_glide_metal>  (1) 
-0

>  <r_i_glide_rewards>  (1) 
-2.6291004363368602

>  <r_lp_Energy>  (1) 
13.687139

>  <r_lp_tautomer_probability>  (1) 
1

>  <s_epik_cmdline>  (1) 
J2VwaWtfcHl0aG9uJywgJy1waHQnLCAnMS4wJywgJy1waCcsICc3LjQnLCAnLXRuJywgJzgnLCAnLW1hJywgJzUwMCcsICctaW1hZScsICc8aW5maWxlLm1hZT4nLCAnLW9tYWUnLCAnPG91dGZpbGUubWFlPic=

>  <s_epik_input>  (1) 
W0NIMl0xW0NIMl1bQ0gyXWMoYzEyKVtjSF1bY0hdW2NIXVtjSF0y

>  <s_glide_docking_method>  (1) 
confgen

>  <s_i_glide_gridfile>  (1) 
gpcr_5ht2c_6bqh_protein_autoprepared_prepared

>  <s_lp_Force_Field>  (1) 
S-OPLS

>  <s_lp_Variant>  (1) 
Pocket2Mol_68-1

>  <s_m_source_file>  (1) 
generated_GPCR_5HT2C_ligand_Pocket2Mol_2026-06-23_prepared.sdf

>  <GenAI_Model>  (1) 
Pocket2Mol

>  <Protein>  (1) 
GPCR_5HT2C

$$$$
Pocket2Mol_70
     RDKit          3D

  0  0  0  0  0  0  0  0  0  0999 V3000
M  V30 BEGIN CTAB
M  V30 COUNTS 17 18 0 0 1
M  V30 BEGIN ATOM
M  V30 1 C 38.322033 27.818971 53.057602 0
M  V30 2 C 39.113400 28.628532 52.167017 0
M  V30 3 C 39.640338 29.966672 52.543656 0 CFG=2
M  V30 4 C 39.409056 28.325177 50.967888 0
M  V30 5 C 38.908071 30.518219 53.767168 0
M  V30 6 N 40.045074 29.309146 50.332964 0
M  V30 7 N 40.080281 30.552345 51.153094 0
M  V30 8 C 37.849880 28.348328 54.199797 0
M  V30 9 C 38.104986 29.748616 54.537019 0
M  V30 10 H 38.090025 26.795528 52.798983 0
M  V30 11 H 40.593623 29.737771 53.005255 0
M  V30 12 H 39.142304 27.438570 50.409526 0
M  V30 13 H 39.082443 31.553655 54.023699 0
M  V30 14 H 40.010033 29.385401 49.325355 0
M  V30 15 H 39.360101 31.178434 50.796576 0
M  V30 16 H 37.245872 27.743251 54.857394 0
M  V30 17 H 37.632278 30.179881 55.408035 0
M  V30 END ATOM
M  V30 BEGIN BOND
M  V30 1 1 2 1
M  V30 2 1 3 2
M  V30 3 2 4 2
M  V30 4 1 5 3
M  V30 5 1 6 4
M  V30 6 1 7 3
M  V30 7 1 7 6
M  V30 8 2 8 1
M  V30 9 2 9 5
M  V30 10 1 9 8
M  V30 11 1 10 1
M  V30 12 1 3 11 CFG=1
M  V30 13 1 12 4
M  V30 14 1 13 5
M  V30 15 1 14 6
M  V30 16 1 15 7
M  V30 17 1 16 8
M  V30 18 1 17 9
M  V30 END BOND
M  V30 END CTAB
M  END
>  <i_epik_Tot_Q>  (1) 
0

>  <i_epik_Tot_abs_Q>  (1) 
0

>  <i_i_glide_confnum>  (1) 
1

>  <i_i_glide_lignum>  (1) 
75

>  <i_i_glide_posenum>  (1) 
110

>  <i_i_glide_rotatable_bonds>  (1) 
0

>  <i_lp_mmshare_version>  (1) 
72125

>  <i_m_source_file_index>  (1) 
71

>  <i_f3d_flags>  (1) 
0

>  <num_sample>  (1) 
100

>  <b_lp_Chiralities_Consistent>  (1) 
1

>  <r_epik_Charging_Adjusted_Penalty>  (1) 
0

>  <r_epik_Ionization_Penalty>  (1) 
4.3565390981668577e-05

>  <r_epik_Ionization_Penalty_Charging>  (1) 
0

>  <r_epik_Ionization_Penalty_Neutral>  (1) 
4.3565390981668577e-05

>  <r_epik_State_Penalty>  (1) 
-0

>  <r_glide_ring_energy>  (1) 
0

>  <r_i_docking_score>  (1) 
-5.4947262224987092

>  <r_i_glide_ecoul>  (1) 
-0.68554566079922319

>  <r_i_glide_eff_state_penalty>  (1) 
-0

>  <r_i_glide_einternal>  (1) 
0

>  <r_i_glide_emodel>  (1) 
-29.29213073801462

>  <r_i_glide_emodel_strain>  (1) 
0

>  <r_i_glide_energy>  (1) 
-21.351797116502023

>  <r_i_glide_erotb>  (1) 
0

>  <r_i_glide_esite>  (1) 
0

>  <r_i_glide_evdw>  (1) 
-20.666251455702799

>  <r_i_glide_gscore>  (1) 
-5.4947262224987092

>  <r_i_glide_gscore_strain>  (1) 
0

>  <r_i_glide_hbond>  (1) 
0

>  <r_i_glide_ligand_efficiency>  (1) 
-0.6105251358331899

>  <r_i_glide_ligand_efficiency_ln>  (1) 
-1.7185925134720008

>  <r_i_glide_ligand_efficiency_sa>  (1) 
-1.269943458613185

>  <r_i_glide_lipo>  (1) 
-1.9734401499168823

>  <r_i_glide_metal>  (1) 
-0

>  <r_i_glide_rewards>  (1) 
-2.3851416506768031

>  <r_lp_Energy>  (1) 
4.0618679999999996

>  <r_lp_tautomer_probability>  (1) 
1

>  <s_epik_cmdline>  (1) 
J2VwaWtfcHl0aG9uJywgJy1waHQnLCAnMS4wJywgJy1waCcsICc3LjQnLCAnLXRuJywgJzgnLCAnLW1hJywgJzUwMCcsICctaW1hZScsICc8aW5maWxlLm1hZT4nLCAnLW9tYWUnLCAnPG91dGZpbGUubWFlPic=

>  <s_epik_input>  (1) 
W0NIXTE9W0NIXVtDSF09W0NIXVtDQEBIXShDMT0yKVtOSF1bTkhdW0NIXTI=

>  <s_glide_docking_method>  (1) 
confgen

>  <s_i_glide_gridfile>  (1) 
gpcr_5ht2c_6bqh_protein_autoprepared_prepared

>  <s_lp_Force_Field>  (1) 
S-OPLS

>  <s_lp_Variant>  (1) 
Pocket2Mol_70-1

>  <s_m_source_file>  (1) 
generated_GPCR_5HT2C_ligand_Pocket2Mol_2026-06-23_prepared.sdf

>  <GenAI_Model>  (1) 
Pocket2Mol

>  <Protein>  (1) 
GPCR_5HT2C

$$$$
Pocket2Mol_34
     RDKit          3D

  0  0  0  0  0  0  0  0  0  0999 V3000
M  V30 BEGIN CTAB
M  V30 COUNTS 12 12 0 0 1
M  V30 BEGIN ATOM
M  V30 1 C 38.845136 29.193614 53.447446 0
M  V30 2 C 39.645143 30.137755 52.773746 0
M  V30 3 C 40.045164 29.900846 51.443698 0
M  V30 4 C 39.645137 28.719871 50.787624 0
M  V30 5 C 38.445146 28.012841 52.791539 0
M  V30 6 F 37.676419 27.105755 53.439107 0
M  V30 7 C 38.845139 27.776031 51.461744 0
M  V30 8 H 38.537844 29.374055 54.466980 0
M  V30 9 H 39.951536 31.042945 53.277155 0
M  V30 10 H 40.658536 30.624613 50.927006 0
M  V30 11 H 39.951530 28.537774 49.767998 0
M  V30 12 H 38.537840 26.870390 50.959930 0
M  V30 END ATOM
M  V30 BEGIN BOND
M  V30 1 1 2 1
M  V30 2 2 3 2
M  V30 3 1 4 3
M  V30 4 2 5 1
M  V30 5 1 6 5
M  V30 6 2 7 4
M  V30 7 1 7 5
M  V30 8 1 8 1
M  V30 9 1 9 2
M  V30 10 1 10 3
M  V30 11 1 11 4
M  V30 12 1 12 7
M  V30 END BOND
M  V30 END CTAB
M  END
>  <i_epik_Tot_Q>  (1) 
0

>  <i_epik_Tot_abs_Q>  (1) 
0

>  <i_i_glide_confnum>  (1) 
1

>  <i_i_glide_lignum>  (1) 
37

>  <i_i_glide_posenum>  (1) 
308

>  <i_i_glide_rotatable_bonds>  (1) 
0

>  <i_lp_mmshare_version>  (1) 
72125

>  <i_m_source_file_index>  (1) 
35

>  <i_f3d_flags>  (1) 
0

>  <num_sample>  (1) 
100

>  <b_lp_Chiralities_Consistent>  (1) 
1

>  <r_epik_Charging_Adjusted_Penalty>  (1) 
0

>  <r_epik_Ionization_Penalty>  (1) 
0

>  <r_epik_Ionization_Penalty_Charging>  (1) 
0

>  <r_epik_Ionization_Penalty_Neutral>  (1) 
0

>  <r_epik_State_Penalty>  (1) 
-0

>  <r_glide_ring_energy>  (1) 
0

>  <r_i_docking_score>  (1) 
-5.4868599044830146

>  <r_i_glide_ecoul>  (1) 
-0.51413964353441199

>  <r_i_glide_eff_state_penalty>  (1) 
-0

>  <r_i_glide_einternal>  (1) 
0

>  <r_i_glide_emodel>  (1) 
-21.689901863210959

>  <r_i_glide_emodel_strain>  (1) 
0

>  <r_i_glide_energy>  (1) 
-16.281290336246641

>  <r_i_glide_erotb>  (1) 
0

>  <r_i_glide_esite>  (1) 
0

>  <r_i_glide_evdw>  (1) 
-15.767150692712228

>  <r_i_glide_gscore>  (1) 
-5.4868599044830146

>  <r_i_glide_gscore_strain>  (1) 
0

>  <r_i_glide_hbond>  (1) 
0

>  <r_i_glide_ligand_efficiency>  (1) 
-0.78383712921185922

>  <r_i_glide_ligand_efficiency_ln>  (1) 
-1.8625347097712828

>  <r_i_glide_ligand_efficiency_sa>  (1) 
-1.499426486684156

>  <r_i_glide_lipo>  (1) 
-1.894794476191171

>  <r_i_glide_metal>  (1) 
-0

>  <r_i_glide_rewards>  (1) 
-2.7265869471260697

>  <r_lp_Energy>  (1) 
8.194445

>  <r_lp_tautomer_probability>  (1) 
1

>  <s_epik_cmdline>  (1) 
J2VwaWtfcHl0aG9uJywgJy1waHQnLCAnMS4wJywgJy1waCcsICc3LjQnLCAnLXRuJywgJzgnLCAnLW1hJywgJzUwMCcsICctaW1hZScsICc8aW5maWxlLm1hZT4nLCAnLW9tYWUnLCAnPG91dGZpbGUubWFlPic=

>  <s_epik_input>  (1) 
RmMxW2NIXVtjSF1bY0hdW2NIXVtjSF0x

>  <s_glide_docking_method>  (1) 
confgen

>  <s_i_glide_gridfile>  (1) 
gpcr_5ht2c_6bqh_protein_autoprepared_prepared

>  <s_lp_Force_Field>  (1) 
S-OPLS

>  <s_lp_Variant>  (1) 
Pocket2Mol_34-1

>  <s_m_source_file>  (1) 
generated_GPCR_5HT2C_ligand_Pocket2Mol_2026-06-23_prepared.sdf

>  <GenAI_Model>  (1) 
Pocket2Mol

>  <Protein>  (1) 
GPCR_5HT2C

$$$$
Pocket2Mol_59
     RDKit          3D

  0  0  0  0  0  0  0  0  0  0999 V3000
M  V30 BEGIN CTAB
M  V30 COUNTS 16 16 0 0 1
M  V30 BEGIN ATOM
M  V30 1 C 38.850892 30.225211 54.174831 0
M  V30 2 C 39.645144 30.446678 53.032878 0
M  V30 3 C 39.645135 29.509487 51.979693 0
M  V30 4 N 40.429480 29.738746 50.847001 0
M  V30 5 C 38.055060 29.067339 54.266516 0
M  V30 6 C 38.848240 28.342200 52.074778 0
M  V30 7 N 38.845137 27.403899 51.041875 0
M  V30 8 C 38.053879 28.126641 53.218261 0
M  V30 9 H 38.850134 30.945469 54.980611 0
M  V30 10 H 40.251810 31.337757 52.963581 0
M  V30 11 H 40.845164 30.647164 50.695575 0
M  V30 12 H 40.281466 29.185907 50.018456 0
M  V30 13 H 37.445435 28.900468 55.142247 0
M  V30 14 H 39.276455 27.620962 50.158774 0
M  V30 15 H 38.152897 26.666987 51.024125 0
M  V30 16 H 37.443193 27.238444 53.292085 0
M  V30 END ATOM
M  V30 BEGIN BOND
M  V30 1 1 2 1
M  V30 2 2 3 2
M  V30 3 1 4 3
M  V30 4 2 5 1
M  V30 5 1 6 3
M  V30 6 1 7 6
M  V30 7 1 8 5
M  V30 8 2 8 6
M  V30 9 1 9 1
M  V30 10 1 10 2
M  V30 11 1 11 4
M  V30 12 1 12 4
M  V30 13 1 13 5
M  V30 14 1 14 7
M  V30 15 1 15 7
M  V30 16 1 16 8
M  V30 END BOND
M  V30 END CTAB
M  END
>  <i_epik_Tot_Q>  (1) 
0

>  <i_epik_Tot_abs_Q>  (1) 
0

>  <i_i_glide_confnum>  (1) 
1

>  <i_i_glide_lignum>  (1) 
63

>  <i_i_glide_posenum>  (1) 
381

>  <i_i_glide_rotatable_bonds>  (1) 
0

>  <i_lp_mmshare_version>  (1) 
72125

>  <i_m_source_file_index>  (1) 
60

>  <i_f3d_flags>  (1) 
0

>  <num_sample>  (1) 
100

>  <b_lp_Chiralities_Consistent>  (1) 
1

>  <r_epik_Charging_Adjusted_Penalty>  (1) 
0.0055702355519192566

>  <r_epik_Ionization_Penalty>  (1) 
0.0049730634188153225

>  <r_epik_Ionization_Penalty_Charging>  (1) 
0

>  <r_epik_Ionization_Penalty_Neutral>  (1) 
0.0049730634188153225

>  <r_epik_State_Penalty>  (1) 
0.0055702355519192566

>  <r_glide_ring_energy>  (1) 
0

>  <r_i_docking_score>  (1) 
-5.486552794471824

>  <r_i_glide_ecoul>  (1) 
-1.8053208350827012

>  <r_i_glide_eff_state_penalty>  (1) 
0.0055702355519192566

>  <r_i_glide_einternal>  (1) 
0

>  <r_i_glide_emodel>  (1) 
-27.332017012527523

>  <r_i_glide_emodel_strain>  (1) 
0

>  <r_i_glide_energy>  (1) 
-20.641883796318194

>  <r_i_glide_erotb>  (1) 
0

>  <r_i_glide_esite>  (1) 
0

>  <r_i_glide_evdw>  (1) 
-18.836562961235494

>  <r_i_glide_gscore>  (1) 
-5.4921230300237429

>  <r_i_glide_gscore_strain>  (1) 
0

>  <r_i_glide_hbond>  (1) 
-0.023153899463551137

>  <r_i_glide_ligand_efficiency>  (1) 
-0.685819099308978

>  <r_i_glide_ligand_efficiency_ln>  (1) 
-1.7816713583330142

>  <r_i_glide_ligand_efficiency_sa>  (1) 
-1.3716381986179562

>  <r_i_glide_lipo>  (1) 
-1.7929048824942404

>  <r_i_glide_metal>  (1) 
-0

>  <r_i_glide_rewards>  (1) 
-2.463437974741773

>  <r_lp_Energy>  (1) 
13.721331999999999

>  <s_epik_cmdline>  (1) 
J2VwaWtfcHl0aG9uJywgJy1waHQnLCAnMS4wJywgJy1waCcsICc3LjQnLCAnLXRuJywgJzgnLCAnLW1hJywgJzUwMCcsICctaW1hZScsICc8aW5maWxlLm1hZT4nLCAnLW9tYWUnLCAnPG91dGZpbGUubWFlPic=

>  <s_epik_input>  (1) 
W05IMl1jMVtjSF1bY0hdW2NIXVtjSF1jMVtOSDJd

>  <s_glide_docking_method>  (1) 
confgen

>  <s_i_glide_gridfile>  (1) 
gpcr_5ht2c_6bqh_protein_autoprepared_prepared

>  <s_lp_Force_Field>  (1) 
S-OPLS

>  <s_lp_Variant>  (1) 
Pocket2Mol_59-1

>  <s_m_source_file>  (1) 
generated_GPCR_5HT2C_ligand_Pocket2Mol_2026-06-23_prepared.sdf

>  <GenAI_Model>  (1) 
Pocket2Mol

>  <Protein>  (1) 
GPCR_5HT2C

$$$$
Pocket2Mol_76
     RDKit          3D

  0  0  0  0  0  0  0  0  0  0999 V3000
M  V30 BEGIN CTAB
M  V30 COUNTS 12 12 0 0 1
M  V30 BEGIN ATOM
M  V30 1 C 39.645269 28.799696 50.567210 0
M  V30 2 C 38.900124 27.953821 51.455899 0
M  V30 3 C 38.870586 28.480498 52.690920 0
M  V30 4 C 39.645116 29.744533 52.605566 0
M  V30 5 C 40.096482 29.868197 51.221787 0
M  V30 6 C 38.169983 27.884596 53.955273 0
M  V30 7 O 39.867423 30.537752 53.517949 0
M  V30 8 O 37.580161 26.794986 53.787792 0 CHG=-1
M  V30 9 O 38.268850 28.550587 55.007647 0
M  V30 10 H 39.811619 28.602655 49.521180 0
M  V30 11 H 38.427321 27.024417 51.171736 0
M  V30 12 H 40.684084 30.688354 50.836299 0
M  V30 END ATOM
M  V30 BEGIN BOND
M  V30 1 1 2 1
M  V30 2 2 3 2
M  V30 3 1 4 3
M  V30 4 2 5 1
M  V30 5 1 5 4
M  V30 6 1 6 3
M  V30 7 2 7 4
M  V30 8 1 8 6
M  V30 9 2 9 6
M  V30 10 1 10 1
M  V30 11 1 11 2
M  V30 12 1 12 5
M  V30 END BOND
M  V30 END CTAB
M  END
>  <i_epik_Tot_Q>  (1) 
-1

>  <i_epik_Tot_abs_Q>  (1) 
1

>  <i_i_glide_confnum>  (1) 
1

>  <i_i_glide_lignum>  (1) 
81

>  <i_i_glide_posenum>  (1) 
333

>  <i_i_glide_rotatable_bonds>  (1) 
1

>  <i_lp_mmshare_version>  (1) 
72125

>  <i_m_source_file_index>  (1) 
77

>  <i_f3d_flags>  (1) 
0

>  <num_sample>  (1) 
100

>  <b_lp_Chiralities_Consistent>  (1) 
1

>  <r_epik_Charging_Adjusted_Penalty>  (1) 
1.3987331750313068e-05

>  <r_epik_Ionization_Penalty>  (1) 
1.3987331750313068e-05

>  <r_epik_Ionization_Penalty_Charging>  (1) 
1.3987331750313068e-05

>  <r_epik_Ionization_Penalty_Neutral>  (1) 
0

>  <r_epik_State_Penalty>  (1) 
-0

>  <r_glide_ring_energy>  (1) 
0

>  <r_i_docking_score>  (1) 
-5.4701447503420821

>  <r_i_glide_ecoul>  (1) 
0.64599668950003308

>  <r_i_glide_eff_state_penalty>  (1) 
-0

>  <r_i_glide_einternal>  (1) 
0.0022981979154191867

>  <r_i_glide_emodel>  (1) 
-23.829797395437158

>  <r_i_glide_emodel_strain>  (1) 
0

>  <r_i_glide_energy>  (1) 
-17.173184561339419

>  <r_i_glide_erotb>  (1) 
0

>  <r_i_glide_esite>  (1) 
0

>  <r_i_glide_evdw>  (1) 
-17.819181250839453

>  <r_i_glide_gscore>  (1) 
-5.4701447503420821

>  <r_i_glide_gscore_strain>  (1) 
0

>  <r_i_glide_hbond>  (1) 
0

>  <r_i_glide_ligand_efficiency>  (1) 
-0.60779386114912026

>  <r_i_glide_ligand_efficiency_ln>  (1) 
-1.710904135141972

>  <r_i_glide_ligand_efficiency_sa>  (1) 
-1.2642621783265404

>  <r_i_glide_lipo>  (1) 
-1.2954773385995539

>  <r_i_glide_metal>  (1) 
-0

>  <r_i_glide_rewards>  (1) 
-3.3806078526255594

>  <r_lp_Energy>  (1) 
9.1486529999999995

>  <r_lp_tautomer_probability>  (1) 
1

>  <s_epik_cmdline>  (1) 
J2VwaWtfcHl0aG9uJywgJy1waHQnLCAnMS4wJywgJy1waCcsICc3LjQnLCAnLXRuJywgJzgnLCAnLW1hJywgJzUwMCcsICctaW1hZScsICc8aW5maWxlLm1hZT4nLCAnLW9tYWUnLCAnPG91dGZpbGUubWFlPic=

>  <s_epik_input>  (1) 
Tz1DMVtDSF09W0NIXVtDSF09QzFDKD1PKVtPSF0=

>  <s_glide_docking_method>  (1) 
confgen

>  <s_i_glide_gridfile>  (1) 
gpcr_5ht2c_6bqh_protein_autoprepared_prepared

>  <s_lp_Force_Field>  (1) 
S-OPLS

>  <s_lp_Variant>  (1) 
Pocket2Mol_76-1

>  <s_m_source_file>  (1) 
generated_GPCR_5HT2C_ligand_Pocket2Mol_2026-06-23_prepared.sdf

>  <GenAI_Model>  (1) 
Pocket2Mol

>  <Protein>  (1) 
GPCR_5HT2C

$$$$
Pocket2Mol_67
     RDKit          3D

  0  0  0  0  0  0  0  0  0  0999 V3000
M  V30 BEGIN CTAB
M  V30 COUNTS 12 12 0 0 1
M  V30 BEGIN ATOM
M  V30 1 C 40.045168 29.947938 51.396185 0
M  V30 2 O 39.658738 30.181555 52.697223 0
M  V30 3 C 38.845077 29.300660 53.434972 0
M  V30 4 O 38.505895 29.515775 54.596697 0
M  V30 5 C 38.432828 28.072971 52.659218 0
M  V30 6 C 39.668103 28.852652 50.745741 0
M  V30 7 O 37.645771 27.188296 53.288172 0
M  V30 8 C 38.842804 27.892304 51.391581 0
M  V30 9 H 40.667197 30.734478 50.993009 0
M  V30 10 H 39.984967 28.694343 49.726630 0
M  V30 11 H 37.381317 26.537755 52.653612 0
M  V30 12 H 38.536358 27.007045 50.852196 0
M  V30 END ATOM
M  V30 BEGIN BOND
M  V30 1 1 2 1
M  V30 2 1 3 2
M  V30 3 2 4 3
M  V30 4 1 5 3
M  V30 5 2 6 1
M  V30 6 1 7 5
M  V30 7 2 8 5
M  V30 8 1 8 6
M  V30 9 1 9 1
M  V30 10 1 10 6
M  V30 11 1 11 7
M  V30 12 1 12 8
M  V30 END BOND
M  V30 END CTAB
M  END
>  <i_epik_Tot_Q>  (1) 
0

>  <i_epik_Tot_abs_Q>  (1) 
0

>  <i_i_glide_confnum>  (1) 
1

>  <i_i_glide_lignum>  (1) 
72

>  <i_i_glide_posenum>  (1) 
314

>  <i_i_glide_rotatable_bonds>  (1) 
1

>  <i_lp_mmshare_version>  (1) 
72125

>  <i_m_source_file_index>  (1) 
68

>  <i_f3d_flags>  (1) 
0

>  <num_sample>  (1) 
100

>  <b_lp_Chiralities_Consistent>  (1) 
1

>  <r_epik_Charging_Adjusted_Penalty>  (1) 
0

>  <r_epik_Ionization_Penalty>  (1) 
0.00075652206847014289

>  <r_epik_Ionization_Penalty_Charging>  (1) 
0

>  <r_epik_Ionization_Penalty_Neutral>  (1) 
0.00075652206847014289

>  <r_epik_State_Penalty>  (1) 
-0

>  <r_glide_ring_energy>  (1) 
0

>  <r_i_docking_score>  (1) 
-5.4693410171000911

>  <r_i_glide_ecoul>  (1) 
-1.8452844107961144

>  <r_i_glide_eff_state_penalty>  (1) 
-0

>  <r_i_glide_einternal>  (1) 
0.079498405038463726

>  <r_i_glide_emodel>  (1) 
-28.498250234814225

>  <r_i_glide_emodel_strain>  (1) 
0

>  <r_i_glide_energy>  (1) 
-21.03168800087396

>  <r_i_glide_erotb>  (1) 
0

>  <r_i_glide_esite>  (1) 
0

>  <r_i_glide_evdw>  (1) 
-19.186403590077845

>  <r_i_glide_gscore>  (1) 
-5.4693410171000911

>  <r_i_glide_gscore_strain>  (1) 
0

>  <r_i_glide_hbond>  (1) 
-0.12920816270036078

>  <r_i_glide_ligand_efficiency>  (1) 
-0.68366762713751139

>  <r_i_glide_ligand_efficiency_ln>  (1) 
-1.7760821054964937

>  <r_i_glide_ligand_efficiency_sa>  (1) 
-1.367335254275023

>  <r_i_glide_lipo>  (1) 
-1.5609047278456503

>  <r_i_glide_metal>  (1) 
-0

>  <r_i_glide_rewards>  (1) 
-2.5431152854307699

>  <r_lp_Energy>  (1) 
14.218883999999999

>  <r_lp_tautomer_probability>  (1) 
1

>  <s_epik_cmdline>  (1) 
J2VwaWtfcHl0aG9uJywgJy1waHQnLCAnMS4wJywgJy1waCcsICc3LjQnLCAnLXRuJywgJzgnLCAnLW1hJywgJzUwMCcsICctaW1hZScsICc8aW5maWxlLm1hZT4nLCAnLW9tYWUnLCAnPG91dGZpbGUubWFlPic=

>  <s_epik_input>  (1) 
Tz1jMW9bY0hdW2NIXVtjSF1jMVtPSF0=

>  <s_glide_docking_method>  (1) 
confgen

>  <s_i_glide_gridfile>  (1) 
gpcr_5ht2c_6bqh_protein_autoprepared_prepared

>  <s_lp_Force_Field>  (1) 
S-OPLS

>  <s_lp_Variant>  (1) 
Pocket2Mol_67-1

>  <s_m_source_file>  (1) 
generated_GPCR_5HT2C_ligand_Pocket2Mol_2026-06-23_prepared.sdf

>  <GenAI_Model>  (1) 
Pocket2Mol

>  <Protein>  (1) 
GPCR_5HT2C

$$$$
Pocket2Mol_0
     RDKit          3D

  0  0  0  0  0  0  0  0  0  0999 V3000
M  V30 BEGIN CTAB
M  V30 COUNTS 19 19 0 0 1
M  V30 BEGIN ATOM
M  V30 1 C 38.752976 30.104793 54.312602 0
M  V30 2 C 39.222701 29.690178 52.971143 0
M  V30 3 C 38.831985 28.436154 52.451691 0
M  V30 4 C 40.045142 30.537750 52.186589 0
M  V30 5 C 40.448386 30.140134 50.900824 0
M  V30 6 C 40.045143 28.896965 50.390041 0
M  V30 7 C 39.244326 28.041761 51.165450 0
M  V30 8 C 39.039374 31.291524 54.883539 0
M  V30 9 C 38.533424 31.646943 56.212929 0
M  V30 10 N 38.804131 32.743907 56.772251 0
M  V30 11 H 38.137770 29.395544 54.848989 0
M  V30 12 H 38.206863 27.779355 53.038969 0
M  V30 13 H 40.355971 31.495777 52.562957 0
M  V30 14 H 41.068013 30.793931 50.303684 0
M  V30 15 H 40.354645 28.597188 49.401237 0
M  V30 16 H 38.937842 27.083433 50.770602 0
M  V30 17 H 39.645140 32.033712 54.396199 0
M  V30 18 H 37.899601 30.895204 56.692138 0
M  V30 19 H 38.348368 32.838970 57.668981 0
M  V30 END ATOM
M  V30 BEGIN BOND
M  V30 1 1 2 1
M  V30 2 1 3 2
M  V30 3 2 4 2
M  V30 4 1 5 4
M  V30 5 2 6 5
M  V30 6 2 7 3
M  V30 7 1 7 6
M  V30 8 2 8 1
M  V30 9 1 9 8
M  V30 10 2 10 9
M  V30 11 1 11 1
M  V30 12 1 12 3
M  V30 13 1 13 4
M  V30 14 1 14 5
M  V30 15 1 15 6
M  V30 16 1 16 7
M  V30 17 1 17 8
M  V30 18 1 18 9
M  V30 19 1 19 10
M  V30 END BOND
M  V30 END CTAB
M  END
>  <i_epik_Tot_Q>  (1) 
0

>  <i_epik_Tot_abs_Q>  (1) 
0

>  <i_i_glide_confnum>  (1) 
1

>  <i_i_glide_lignum>  (1) 
1

>  <i_i_glide_posenum>  (1) 
195

>  <i_i_glide_rotatable_bonds>  (1) 
2

>  <i_lp_mmshare_version>  (1) 
72125

>  <i_m_source_file_index>  (1) 
1

>  <i_f3d_flags>  (1) 
0

>  <num_sample>  (1) 
100

>  <b_lp_Chiralities_Consistent>  (1) 
1

>  <r_epik_Charging_Adjusted_Penalty>  (1) 
0

>  <r_epik_Ionization_Penalty>  (1) 
0

>  <r_epik_Ionization_Penalty_Charging>  (1) 
0

>  <r_epik_Ionization_Penalty_Neutral>  (1) 
0

>  <r_epik_State_Penalty>  (1) 
-0

>  <r_glide_ring_energy>  (1) 
0

>  <r_i_docking_score>  (1) 
-5.4581778635005396

>  <r_i_glide_ecoul>  (1) 
-1.1790448868918078

>  <r_i_glide_eff_state_penalty>  (1) 
-0

>  <r_i_glide_einternal>  (1) 
0.039057404605655544

>  <r_i_glide_emodel>  (1) 
-29.437079449399036

>  <r_i_glide_emodel_strain>  (1) 
0

>  <r_i_glide_energy>  (1) 
-21.731538539697006

>  <r_i_glide_erotb>  (1) 
0.80789427267668723

>  <r_i_glide_esite>  (1) 
-0.067219733240908131

>  <r_i_glide_evdw>  (1) 
-20.552493652805197

>  <r_i_glide_gscore>  (1) 
-5.4581778635005396

>  <r_i_glide_gscore_strain>  (1) 
0

>  <r_i_glide_hbond>  (1) 
0

>  <r_i_glide_ligand_efficiency>  (1) 
-0.54581778635005396

>  <r_i_glide_ligand_efficiency_ln>  (1) 
-1.6526986314688061

>  <r_i_glide_ligand_efficiency_sa>  (1) 
-1.1759287733489676

>  <r_i_glide_lipo>  (1) 
-2.1060549338214405

>  <r_i_glide_metal>  (1) 
-0

>  <r_i_glide_rewards>  (1) 
-2.888316053440847

>  <r_lp_Energy>  (1) 
9.4498509999999989

>  <r_lp_tautomer_probability>  (1) 
1

>  <s_epik_Chemistry_Notes>  (1) 
This compound has an imine and may undergo hydrolysis.

>  <s_epik_cmdline>  (1) 
J2VwaWtfcHl0aG9uJywgJy1waHQnLCAnMS4wJywgJy1waCcsICc3LjQnLCAnLXRuJywgJzgnLCAnLW1hJywgJzUwMCcsICctaW1hZScsICc8aW5maWxlLm1hZT4nLCAnLW9tYWUnLCAnPG91dGZpbGUubWFlPic=

>  <s_epik_input>  (1) 
W0hdXE49W0NIXVxbQ0hdPVtDSF1cYzFbY0hdW2NIXVtjSF1bY0hdW2NIXTE=

>  <s_glide_docking_method>  (1) 
confgen

>  <s_i_glide_gridfile>  (1) 
gpcr_5ht2c_6bqh_protein_autoprepared_prepared

>  <s_lp_Force_Field>  (1) 
S-OPLS

>  <s_lp_Variant>  (1) 
Pocket2Mol_0-1

>  <s_m_source_file>  (1) 
generated_GPCR_5HT2C_ligand_Pocket2Mol_2026-06-23_prepared.sdf

>  <GenAI_Model>  (1) 
Pocket2Mol

>  <Protein>  (1) 
GPCR_5HT2C

$$$$
Pocket2Mol_90
     RDKit          3D

  0  0  0  0  0  0  0  0  0  0999 V3000
M  V30 BEGIN CTAB
M  V30 COUNTS 14 14 0 0 1
M  V30 BEGIN ATOM
M  V30 1 C 38.902340 30.842258 54.604429 0
M  V30 2 C 39.583475 30.468849 53.391639 0
M  V30 3 C 39.054412 29.337755 52.899929 0
M  V30 4 C 37.974512 28.935725 53.824873 0
M  V30 5 C 37.942184 29.950250 54.884688 0
M  V30 6 C 39.528263 28.707904 51.667737 0
M  V30 7 O 37.245138 27.948851 53.727346 0
M  V30 8 N 38.845170 27.599913 51.368612 0
M  V30 9 O 40.445137 29.126401 50.967359 0
M  V30 10 H 39.129750 31.714910 55.199616 0
M  V30 11 H 40.397139 31.021144 52.942386 0
M  V30 12 H 37.256360 29.948824 55.720250 0
M  V30 13 H 38.091333 27.292102 51.973191 0
M  V30 14 H 39.077874 27.073931 50.538727 0
M  V30 END ATOM
M  V30 BEGIN BOND
M  V30 1 1 2 1
M  V30 2 2 3 2
M  V30 3 1 4 3
M  V30 4 2 5 1
M  V30 5 1 5 4
M  V30 6 1 6 3
M  V30 7 2 7 4
M  V30 8 1 8 6
M  V30 9 2 9 6
M  V30 10 1 10 1
M  V30 11 1 11 2
M  V30 12 1 12 5
M  V30 13 1 13 8
M  V30 14 1 14 8
M  V30 END BOND
M  V30 END CTAB
M  END
>  <i_epik_Tot_Q>  (1) 
0

>  <i_epik_Tot_abs_Q>  (1) 
0

>  <i_i_glide_confnum>  (1) 
1

>  <i_i_glide_lignum>  (1) 
95

>  <i_i_glide_posenum>  (1) 
81

>  <i_i_glide_rotatable_bonds>  (1) 
1

>  <i_lp_mmshare_version>  (1) 
72125

>  <i_m_source_file_index>  (1) 
91

>  <i_f3d_flags>  (1) 
0

>  <num_sample>  (1) 
100

>  <b_lp_Chiralities_Consistent>  (1) 
1

>  <r_epik_Charging_Adjusted_Penalty>  (1) 
0.0065050288304222097

>  <r_epik_Ionization_Penalty>  (1) 
0.0032614418865694397

>  <r_epik_Ionization_Penalty_Charging>  (1) 
0

>  <r_epik_Ionization_Penalty_Neutral>  (1) 
0.0032614418865694397

>  <r_epik_State_Penalty>  (1) 
0.0065050288304222097

>  <r_glide_ring_energy>  (1) 
0

>  <r_i_docking_score>  (1) 
-5.4577448891800158

>  <r_i_glide_ecoul>  (1) 
-1.4418972657380462

>  <r_i_glide_eff_state_penalty>  (1) 
0.0065050288304222097

>  <r_i_glide_einternal>  (1) 
0.0015829347743276934

>  <r_i_glide_emodel>  (1) 
-31.980908066255697

>  <r_i_glide_emodel_strain>  (1) 
0

>  <r_i_glide_energy>  (1) 
-23.566674132613812

>  <r_i_glide_erotb>  (1) 
0

>  <r_i_glide_esite>  (1) 
0

>  <r_i_glide_evdw>  (1) 
-22.124776866875767

>  <r_i_glide_gscore>  (1) 
-5.464249918010438

>  <r_i_glide_gscore_strain>  (1) 
0

>  <r_i_glide_hbond>  (1) 
0

>  <r_i_glide_ligand_efficiency>  (1) 
-0.60641609879777958

>  <r_i_glide_ligand_efficiency_ln>  (1) 
-1.7070258147856343

>  <r_i_glide_ligand_efficiency_sa>  (1) 
-1.2613963171475067

>  <r_i_glide_lipo>  (1) 
-0.77994024183945421

>  <r_i_glide_metal>  (1) 
-0

>  <r_i_glide_rewards>  (1) 
-3.3617862429664882

>  <r_lp_Energy>  (1) 
1.7710899999999998

>  <s_epik_cmdline>  (1) 
J2VwaWtfcHl0aG9uJywgJy1waHQnLCAnMS4wJywgJy1waCcsICc3LjQnLCAnLXRuJywgJzgnLCAnLW1hJywgJzUwMCcsICctaW1hZScsICc8aW5maWxlLm1hZT4nLCAnLW9tYWUnLCAnPG91dGZpbGUubWFlPic=

>  <s_epik_input>  (1) 
Tz1DMVtDSF09W0NIXVtDSF09QzFDKD1PKVtOSDJd

>  <s_glide_docking_method>  (1) 
confgen

>  <s_i_glide_gridfile>  (1) 
gpcr_5ht2c_6bqh_protein_autoprepared_prepared

>  <s_lp_Force_Field>  (1) 
S-OPLS

>  <s_lp_Variant>  (1) 
Pocket2Mol_90-1

>  <s_m_source_file>  (1) 
generated_GPCR_5HT2C_ligand_Pocket2Mol_2026-06-23_prepared.sdf

>  <GenAI_Model>  (1) 
Pocket2Mol

>  <Protein>  (1) 
GPCR_5HT2C

$$$$
Pocket2Mol_10
     RDKit          3D

  0  0  0  0  0  0  0  0  0  0999 V3000
M  V30 BEGIN CTAB
M  V30 COUNTS 12 12 0 0 1
M  V30 BEGIN ATOM
M  V30 1 C 38.561564 27.903709 52.264575 0
M  V30 2 C 39.263485 28.367721 51.103209 0
M  V30 3 C 39.900428 29.569923 51.306649 0
M  V30 4 C 40.712810 30.351985 50.330215 0
M  V30 5 C 38.676290 28.758898 53.330893 0
M  V30 6 S 39.645137 30.137755 52.930586 0
M  V30 7 H 38.006822 26.976352 52.272439 0
M  V30 8 H 39.272610 27.813880 50.175569 0
M  V30 9 H 40.760573 29.843740 49.367758 0
M  V30 10 H 40.276973 31.337754 50.167125 0
M  V30 11 H 41.732801 30.489555 50.687219 0
M  V30 12 H 38.251921 28.659474 54.319495 0
M  V30 END ATOM
M  V30 BEGIN BOND
M  V30 1 1 2 1
M  V30 2 2 3 2
M  V30 3 1 4 3
M  V30 4 2 5 1
M  V30 5 1 6 3
M  V30 6 1 6 5
M  V30 7 1 7 1
M  V30 8 1 8 2
M  V30 9 1 9 4
M  V30 10 1 10 4
M  V30 11 1 11 4
M  V30 12 1 12 5
M  V30 END BOND
M  V30 END CTAB
M  END
>  <i_epik_Tot_Q>  (1) 
0

>  <i_epik_Tot_abs_Q>  (1) 
0

>  <i_i_glide_confnum>  (1) 
1

>  <i_i_glide_lignum>  (1) 
13

>  <i_i_glide_posenum>  (1) 
398

>  <i_i_glide_rotatable_bonds>  (1) 
0

>  <i_lp_mmshare_version>  (1) 
72125

>  <i_m_source_file_index>  (1) 
11

>  <i_f3d_flags>  (1) 
0

>  <num_sample>  (1) 
100

>  <b_lp_Chiralities_Consistent>  (1) 
1

>  <r_epik_Charging_Adjusted_Penalty>  (1) 
0

>  <r_epik_Ionization_Penalty>  (1) 
0

>  <r_epik_Ionization_Penalty_Charging>  (1) 
0

>  <r_epik_Ionization_Penalty_Neutral>  (1) 
0

>  <r_epik_State_Penalty>  (1) 
-0

>  <r_glide_ring_energy>  (1) 
0

>  <r_i_docking_score>  (1) 
-5.4521462678255794

>  <r_i_glide_ecoul>  (1) 
-0.89211750097848008

>  <r_i_glide_eff_state_penalty>  (1) 
-0

>  <r_i_glide_einternal>  (1) 
0

>  <r_i_glide_emodel>  (1) 
-23.871505399717691

>  <r_i_glide_emodel_strain>  (1) 
0

>  <r_i_glide_energy>  (1) 
-17.774846609805845

>  <r_i_glide_erotb>  (1) 
0

>  <r_i_glide_esite>  (1) 
0

>  <r_i_glide_evdw>  (1) 
-16.882729108827366

>  <r_i_glide_gscore>  (1) 
-5.4521462678255794

>  <r_i_glide_gscore_strain>  (1) 
0

>  <r_i_glide_hbond>  (1) 
0

>  <r_i_glide_ligand_efficiency>  (1) 
-0.90869104463759653

>  <r_i_glide_ligand_efficiency_ln>  (1) 
-1.9529426972206685

>  <r_i_glide_ligand_efficiency_sa>  (1) 
-1.6512012097331259

>  <r_i_glide_lipo>  (1) 
-1.9510548973131052

>  <r_i_glide_metal>  (1) 
-0

>  <r_i_glide_rewards>  (1) 
-2.5231372899243336

>  <r_lp_Energy>  (1) 
3.145988

>  <r_lp_tautomer_probability>  (1) 
1

>  <s_epik_cmdline>  (1) 
J2VwaWtfcHl0aG9uJywgJy1waHQnLCAnMS4wJywgJy1waCcsICc3LjQnLCAnLXRuJywgJzgnLCAnLW1hJywgJzUwMCcsICctaW1hZScsICc8aW5maWxlLm1hZT4nLCAnLW9tYWUnLCAnPG91dGZpbGUubWFlPic=

>  <s_epik_input>  (1) 
czFbY0hdW2NIXVtjSF1jMVtDSDNd

>  <s_glide_docking_method>  (1) 
confgen

>  <s_i_glide_gridfile>  (1) 
gpcr_5ht2c_6bqh_protein_autoprepared_prepared

>  <s_lp_Force_Field>  (1) 
S-OPLS

>  <s_lp_Variant>  (1) 
Pocket2Mol_10-1

>  <s_m_source_file>  (1) 
generated_GPCR_5HT2C_ligand_Pocket2Mol_2026-06-23_prepared.sdf

>  <GenAI_Model>  (1) 
Pocket2Mol

>  <Protein>  (1) 
GPCR_5HT2C

$$$$
Pocket2Mol_65
     RDKit          3D

  0  0  0  0  0  0  0  0  0  0999 V3000
M  V30 BEGIN CTAB
M  V30 COUNTS 20 20 0 0 1
M  V30 BEGIN ATOM
M  V30 1 C 39.100649 27.981536 51.511057 0
M  V30 2 C 39.619661 29.346187 51.945785 0
M  V30 3 C 38.845011 27.255765 52.826490 0
M  V30 4 C 38.818052 28.349213 53.898015 0
M  V30 5 N 38.848521 29.602777 53.154195 0
M  V30 6 N 39.331495 30.724301 53.917106 0 CHG=1
M  V30 7 C 38.514418 31.352305 54.786293 0
M  V30 8 N 37.245137 30.961829 54.977071 0
M  V30 9 H 38.161915 28.100101 50.967762 0
M  V30 10 H 39.794759 27.450535 50.858908 0
M  V30 11 H 39.461267 30.111962 51.185305 0
M  V30 12 H 40.685348 29.299478 52.167719 0
M  V30 13 H 37.902928 26.707200 52.791522 0
M  V30 14 H 39.638151 26.537705 53.038991 0
M  V30 15 H 39.684173 28.264269 54.553102 0
M  V30 16 H 37.927617 28.281329 54.523568 0
M  V30 17 H 38.894227 32.198124 55.348141 0
M  V30 18 H 36.877478 30.177594 54.462079 0
M  V30 19 H 36.644593 31.457201 55.649046 0
M  V30 20 H 40.288445 31.003630 53.747998 0
M  V30 END ATOM
M  V30 BEGIN BOND
M  V30 1 1 2 1
M  V30 2 1 3 1
M  V30 3 1 4 3
M  V30 4 1 5 2
M  V30 5 1 5 4
M  V30 6 1 6 5
M  V30 7 2 7 6
M  V30 8 1 8 7
M  V30 9 1 9 1
M  V30 10 1 10 1
M  V30 11 1 11 2
M  V30 12 1 12 2
M  V30 13 1 13 3
M  V30 14 1 14 3
M  V30 15 1 15 4
M  V30 16 1 16 4
M  V30 17 1 17 7
M  V30 18 1 18 8
M  V30 19 1 19 8
M  V30 20 1 20 6
M  V30 END BOND
M  V30 END CTAB
M  END
>  <i_epik_Tot_Q>  (1) 
1

>  <i_epik_Tot_abs_Q>  (1) 
1

>  <i_i_glide_confnum>  (1) 
1

>  <i_i_glide_lignum>  (1) 
70

>  <i_i_glide_posenum>  (1) 
261

>  <i_i_glide_rotatable_bonds>  (1) 
1

>  <i_lp_mmshare_version>  (1) 
72125

>  <i_m_source_file_index>  (1) 
66

>  <i_f3d_flags>  (1) 
0

>  <num_sample>  (1) 
100

>  <b_lp_Chiralities_Consistent>  (1) 
1

>  <r_epik_Charging_Adjusted_Penalty>  (1) 
1.6312684749255997e-05

>  <r_epik_Ionization_Penalty>  (1) 
1.6401951855999153e-05

>  <r_epik_Ionization_Penalty_Charging>  (1) 
1.6312684749255997e-05

>  <r_epik_Ionization_Penalty_Neutral>  (1) 
8.9267106743156534e-08

>  <r_epik_State_Penalty>  (1) 
-0

>  <r_glide_ring_energy>  (1) 
0

>  <r_i_docking_score>  (1) 
-5.4473536952012838

>  <r_i_glide_ecoul>  (1) 
-3.7064956799560473

>  <r_i_glide_eff_state_penalty>  (1) 
-0

>  <r_i_glide_einternal>  (1) 
1.1444360014364499

>  <r_i_glide_emodel>  (1) 
-26.784718115396196

>  <r_i_glide_emodel_strain>  (1) 
0.087249766247261107

>  <r_i_glide_energy>  (1) 
-16.932772888516794

>  <r_i_glide_erotb>  (1) 
0

>  <r_i_glide_esite>  (1) 
-0.093855140896148756

>  <r_i_glide_evdw>  (1) 
-13.226277208560749

>  <r_i_glide_gscore>  (1) 
-5.4473536952012838

>  <r_i_glide_gscore_strain>  (1) 
0

>  <r_i_glide_hbond>  (1) 
-0.21152323824676422

>  <r_i_glide_ligand_efficiency>  (1) 
-0.68091921190016047

>  <r_i_glide_ligand_efficiency_ln>  (1) 
-1.7689420700058984

>  <r_i_glide_ligand_efficiency_sa>  (1) 
-1.3618384238003212

>  <r_i_glide_lipo>  (1) 
-1.2069944681342137

>  <r_i_glide_metal>  (1) 
-0

>  <r_i_glide_rewards>  (1) 
-2.7176926355027118

>  <r_lp_Energy>  (1) 
13.886725999999999

>  <r_lp_tautomer_probability>  (1) 
1

>  <s_epik_Chemistry_Notes>  (1) 
This compound has an imine and may undergo hydrolysis.

>  <s_epik_cmdline>  (1) 
J2VwaWtfcHl0aG9uJywgJy1waHQnLCAnMS4wJywgJy1waCcsICc3LjQnLCAnLXRuJywgJzgnLCAnLW1hJywgJzUwMCcsICctaW1hZScsICc8aW5maWxlLm1hZT4nLCAnLW9tYWUnLCAnPG91dGZpbGUubWFlPic=

>  <s_epik_input>  (1) 
W0NIMl0xW0NIMl1bQ0gyXVtDSDJdTjEvTj1bQ0hdXFtOSDJd

>  <s_glide_docking_method>  (1) 
confgen

>  <s_i_glide_gridfile>  (1) 
gpcr_5ht2c_6bqh_protein_autoprepared_prepared

>  <s_lp_Force_Field>  (1) 
S-OPLS

>  <s_lp_Variant>  (1) 
Pocket2Mol_65-2

>  <s_m_source_file>  (1) 
generated_GPCR_5HT2C_ligand_Pocket2Mol_2026-06-23_prepared.sdf

>  <GenAI_Model>  (1) 
Pocket2Mol

>  <Protein>  (1) 
GPCR_5HT2C

$$$$
Pocket2Mol_47
     RDKit          3D

  0  0  0  0  0  0  0  0  0  0999 V3000
M  V30 BEGIN CTAB
M  V30 COUNTS 20 20 0 0 1
M  V30 BEGIN ATOM
M  V30 1 C 38.531566 29.003079 54.055272 0
M  V30 2 O 37.680994 28.538196 53.022540 0
M  V30 3 C 38.312647 27.716527 52.051268 0
M  V30 4 C 39.104762 30.372676 53.660867 0
M  V30 5 O 40.103282 30.313552 52.650781 0
M  V30 6 C 39.762848 29.735844 51.392861 0 CFG=1
M  V30 7 C 40.846071 30.159750 50.406620 0
M  V30 8 C 39.657747 28.211344 51.520228 0
M  V30 9 H 37.912904 29.129935 54.944032 0
M  V30 10 H 39.306809 28.282320 54.318863 0
M  V30 11 H 38.425027 26.710969 52.457351 0
M  V30 12 H 37.645136 27.634964 51.201646 0
M  V30 13 H 38.311788 31.057209 53.367782 0
M  V30 14 H 39.573389 30.821997 54.536563 0
M  V30 15 H 38.845138 30.137755 50.988471 0
M  V30 16 H 40.669034 29.741897 49.415532 0
M  V30 17 H 40.874107 31.245066 50.306795 0
M  V30 18 H 41.828844 29.834939 50.743422 0
M  V30 19 H 40.445137 27.842518 52.167759 0
M  V30 20 H 39.831760 27.739858 50.552266 0
M  V30 END ATOM
M  V30 BEGIN BOND
M  V30 1 1 2 1
M  V30 2 1 3 2
M  V30 3 1 4 1
M  V30 4 1 5 4
M  V30 5 1 6 5
M  V30 6 1 7 6
M  V30 7 1 8 3
M  V30 8 1 8 6
M  V30 9 1 9 1
M  V30 10 1 10 1
M  V30 11 1 11 3
M  V30 12 1 12 3
M  V30 13 1 13 4
M  V30 14 1 14 4
M  V30 15 1 6 15 CFG=3
M  V30 16 1 16 7
M  V30 17 1 17 7
M  V30 18 1 18 7
M  V30 19 1 19 8
M  V30 20 1 20 8
M  V30 END BOND
M  V30 END CTAB
M  END
>  <i_epik_Tot_Q>  (1) 
0

>  <i_epik_Tot_abs_Q>  (1) 
0

>  <i_i_glide_confnum>  (1) 
3

>  <i_i_glide_lignum>  (1) 
50

>  <i_i_glide_posenum>  (1) 
101

>  <i_i_glide_rotatable_bonds>  (1) 
0

>  <i_lp_mmshare_version>  (1) 
72125

>  <i_m_source_file_index>  (1) 
48

>  <i_f3d_flags>  (1) 
0

>  <num_sample>  (1) 
100

>  <b_lp_Chiralities_Consistent>  (1) 
1

>  <r_epik_Charging_Adjusted_Penalty>  (1) 
0

>  <r_epik_Ionization_Penalty>  (1) 
4.0259461194199272e-12

>  <r_epik_Ionization_Penalty_Charging>  (1) 
0

>  <r_epik_Ionization_Penalty_Neutral>  (1) 
4.0259461194199272e-12

>  <r_epik_State_Penalty>  (1) 
-0

>  <r_glide_ring_energy>  (1) 
0.19121708349067734

>  <r_i_docking_score>  (1) 
-5.4370127345335222

>  <r_i_glide_ecoul>  (1) 
-0.72453620697109522

>  <r_i_glide_eff_state_penalty>  (1) 
-0

>  <r_i_glide_einternal>  (1) 
0

>  <r_i_glide_emodel>  (1) 
-23.525976822117219

>  <r_i_glide_emodel_strain>  (1) 
0

>  <r_i_glide_energy>  (1) 
-17.376903480566504

>  <r_i_glide_erotb>  (1) 
0

>  <r_i_glide_esite>  (1) 
0

>  <r_i_glide_evdw>  (1) 
-16.652367273595409

>  <r_i_glide_gscore>  (1) 
-5.4370127345335222

>  <r_i_glide_gscore_strain>  (1) 
0

>  <r_i_glide_hbond>  (1) 
0

>  <r_i_glide_ligand_efficiency>  (1) 
-0.67962659181669027

>  <r_i_glide_ligand_efficiency_ln>  (1) 
-1.7655840063674764

>  <r_i_glide_ligand_efficiency_sa>  (1) 
-1.3592531836333808

>  <r_i_glide_lipo>  (1) 
-1.8098157571711802

>  <r_i_glide_metal>  (1) 
-0

>  <r_i_glide_rewards>  (1) 
-2.6858981826369073

>  <r_lp_Energy>  (1) 
6.6371139999999995

>  <r_lp_tautomer_probability>  (1) 
1

>  <s_epik_cmdline>  (1) 
J2VwaWtfcHl0aG9uJywgJy1waHQnLCAnMS4wJywgJy1waCcsICc3LjQnLCAnLXRuJywgJzgnLCAnLW1hJywgJzUwMCcsICctaW1hZScsICc8aW5maWxlLm1hZT4nLCAnLW9tYWUnLCAnPG91dGZpbGUubWFlPic=

>  <s_epik_input>  (1) 
W0NIMl0xW0NIMl1PW0NIMl1bQ0gyXU9bQ0BIXTFbQ0gzXQ==

>  <s_glide_docking_method>  (1) 
confgen

>  <s_i_glide_gridfile>  (1) 
gpcr_5ht2c_6bqh_protein_autoprepared_prepared

>  <s_lp_Force_Field>  (1) 
S-OPLS

>  <s_lp_Variant>  (1) 
Pocket2Mol_47-1

>  <s_m_source_file>  (1) 
generated_GPCR_5HT2C_ligand_Pocket2Mol_2026-06-23_prepared.sdf

>  <GenAI_Model>  (1) 
Pocket2Mol

>  <Protein>  (1) 
GPCR_5HT2C

$$$$
Pocket2Mol_38
     RDKit          3D

  0  0  0  0  0  0  0  0  0  0999 V3000
M  V30 BEGIN CTAB
M  V30 COUNTS 17 17 0 0 1
M  V30 BEGIN ATOM
M  V30 1 C 40.045302 30.494112 51.589042 0
M  V30 2 C 39.645144 30.327824 53.070065 0
M  V30 3 C 38.656204 29.175680 53.288224 0
M  V30 4 O 37.691379 29.293142 54.040076 0
M  V30 5 C 40.434173 29.167948 50.930876 0
M  V30 6 C 39.315655 28.127615 51.068866 0
M  V30 7 C 38.924516 27.871152 52.534484 0
M  V30 8 H 39.245182 30.949777 51.006757 0
M  V30 9 H 40.879216 31.191241 51.520670 0
M  V30 10 H 39.204598 31.254278 53.440605 0
M  V30 11 H 39.723309 27.337580 53.047735 0
M  V30 12 H 40.526165 30.137785 53.680481 0
M  V30 13 H 41.353552 28.784076 51.370026 0
M  V30 14 H 40.643526 29.338615 49.874571 0
M  V30 15 H 39.621812 27.190342 50.602964 0
M  V30 16 H 38.445244 28.474650 50.516516 0
M  V30 17 H 38.039452 27.235407 52.582783 0
M  V30 END ATOM
M  V30 BEGIN BOND
M  V30 1 1 2 1
M  V30 2 1 3 2
M  V30 3 2 4 3
M  V30 4 1 5 1
M  V30 5 1 6 5
M  V30 6 1 7 3
M  V30 7 1 7 6
M  V30 8 1 8 1
M  V30 9 1 9 1
M  V30 10 1 10 2
M  V30 11 1 11 7
M  V30 12 1 12 2
M  V30 13 1 13 5
M  V30 14 1 14 5
M  V30 15 1 15 6
M  V30 16 1 16 6
M  V30 17 1 17 7
M  V30 END BOND
M  V30 END CTAB
M  END
>  <i_epik_Tot_Q>  (1) 
0

>  <i_epik_Tot_abs_Q>  (1) 
0

>  <i_i_glide_confnum>  (1) 
1

>  <i_i_glide_lignum>  (1) 
41

>  <i_i_glide_posenum>  (1) 
353

>  <i_i_glide_rotatable_bonds>  (1) 
0

>  <i_lp_mmshare_version>  (1) 
72125

>  <i_m_source_file_index>  (1) 
39

>  <i_f3d_flags>  (1) 
0

>  <num_sample>  (1) 
100

>  <b_lp_Chiralities_Consistent>  (1) 
1

>  <r_epik_Charging_Adjusted_Penalty>  (1) 
0

>  <r_epik_Ionization_Penalty>  (1) 
3.7730911281982554e-13

>  <r_epik_Ionization_Penalty_Charging>  (1) 
0

>  <r_epik_Ionization_Penalty_Neutral>  (1) 
3.7730911281982554e-13

>  <r_epik_State_Penalty>  (1) 
-0

>  <r_glide_ring_energy>  (1) 
0

>  <r_i_docking_score>  (1) 
-5.4339637666388532

>  <r_i_glide_ecoul>  (1) 
-0.35189343467814421

>  <r_i_glide_eff_state_penalty>  (1) 
-0

>  <r_i_glide_einternal>  (1) 
0

>  <r_i_glide_emodel>  (1) 
-21.987368828519767

>  <r_i_glide_emodel_strain>  (1) 
0

>  <r_i_glide_energy>  (1) 
-16.320374169608471

>  <r_i_glide_erotb>  (1) 
0

>  <r_i_glide_esite>  (1) 
0

>  <r_i_glide_evdw>  (1) 
-15.968480734930326

>  <r_i_glide_gscore>  (1) 
-5.4339637666388532

>  <r_i_glide_gscore_strain>  (1) 
0

>  <r_i_glide_hbond>  (1) 
0

>  <r_i_glide_ligand_efficiency>  (1) 
-0.77628053809126474

>  <r_i_glide_ligand_efficiency_ln>  (1) 
-1.8445789218593114

>  <r_i_glide_ligand_efficiency_sa>  (1) 
-1.4849712478941097

>  <r_i_glide_lipo>  (1) 
-1.5339170873115604

>  <r_i_glide_metal>  (1) 
-0

>  <r_i_glide_rewards>  (1) 
-3.048838627379054

>  <r_lp_Energy>  (1) 
-0.38638499999999998

>  <r_lp_tautomer_probability>  (1) 
1

>  <s_epik_cmdline>  (1) 
J2VwaWtfcHl0aG9uJywgJy1waHQnLCAnMS4wJywgJy1waCcsICc3LjQnLCAnLXRuJywgJzgnLCAnLW1hJywgJzUwMCcsICctaW1hZScsICc8aW5maWxlLm1hZT4nLCAnLW9tYWUnLCAnPG91dGZpbGUubWFlPic=

>  <s_epik_input>  (1) 
W0NIMl0xW0NIMl1bQ0gyXVtDSDJdW0NIXT1DMVtPSF0=

>  <s_glide_docking_method>  (1) 
confgen

>  <s_i_glide_gridfile>  (1) 
gpcr_5ht2c_6bqh_protein_autoprepared_prepared

>  <s_lp_Force_Field>  (1) 
S-OPLS

>  <s_lp_Variant>  (1) 
Pocket2Mol_38-1

>  <s_m_source_file>  (1) 
generated_GPCR_5HT2C_ligand_Pocket2Mol_2026-06-23_prepared.sdf

>  <GenAI_Model>  (1) 
Pocket2Mol

>  <Protein>  (1) 
GPCR_5HT2C

$$$$
Pocket2Mol_48
     RDKit          3D

  0  0  0  0  0  0  0  0  0  0999 V3000
M  V30 BEGIN CTAB
M  V30 COUNTS 13 13 0 0 1
M  V30 BEGIN ATOM
M  V30 1 C 39.645203 28.968979 50.804444 0
M  V30 2 C 38.923878 28.176049 51.645773 0
M  V30 3 C 40.045154 30.047224 51.453837 0
M  V30 4 C 39.607053 30.137953 52.968015 0
M  V30 5 C 38.858613 28.744018 52.840494 0
M  V30 6 C 38.130473 28.172937 54.095745 0
M  V30 7 O 38.198479 28.868688 55.131546 0
M  V30 8 O 37.553028 27.074355 53.941482 0 CHG=-1
M  V30 9 H 39.854672 28.750818 49.767860 0
M  V30 10 H 38.473472 27.229806 51.379655 0
M  V30 11 H 40.633990 30.833270 51.003708 0
M  V30 12 H 40.445136 30.136594 53.665461 0
M  V30 13 H 38.927668 30.966269 53.170042 0
M  V30 END ATOM
M  V30 BEGIN BOND
M  V30 1 1 2 1
M  V30 2 2 3 1
M  V30 3 1 4 3
M  V30 4 2 5 2
M  V30 5 1 5 4
M  V30 6 1 6 5
M  V30 7 2 7 6
M  V30 8 1 8 6
M  V30 9 1 9 1
M  V30 10 1 10 2
M  V30 11 1 11 3
M  V30 12 1 12 4
M  V30 13 1 13 4
M  V30 END BOND
M  V30 END CTAB
M  END
>  <i_epik_Tot_Q>  (1) 
-1

>  <i_epik_Tot_abs_Q>  (1) 
1

>  <i_i_glide_confnum>  (1) 
1

>  <i_i_glide_lignum>  (1) 
51

>  <i_i_glide_posenum>  (1) 
290

>  <i_i_glide_rotatable_bonds>  (1) 
1

>  <i_lp_mmshare_version>  (1) 
72125

>  <i_m_source_file_index>  (1) 
49

>  <i_f3d_flags>  (1) 
0

>  <num_sample>  (1) 
100

>  <b_lp_Chiralities_Consistent>  (1) 
1

>  <r_epik_Charging_Adjusted_Penalty>  (1) 
0.00046806641816521339

>  <r_epik_Ionization_Penalty>  (1) 
0.00046806641816521339

>  <r_epik_Ionization_Penalty_Charging>  (1) 
0.00046806641816521339

>  <r_epik_Ionization_Penalty_Neutral>  (1) 
0

>  <r_epik_State_Penalty>  (1) 
-0

>  <r_glide_ring_energy>  (1) 
0

>  <r_i_docking_score>  (1) 
-5.4243829986266645

>  <r_i_glide_ecoul>  (1) 
0.063557305185453883

>  <r_i_glide_eff_state_penalty>  (1) 
-0

>  <r_i_glide_einternal>  (1) 
0.00085891014175309977

>  <r_i_glide_emodel>  (1) 
-21.751889952103227

>  <r_i_glide_emodel_strain>  (1) 
0

>  <r_i_glide_energy>  (1) 
-16.025258404641878

>  <r_i_glide_erotb>  (1) 
0

>  <r_i_glide_esite>  (1) 
0

>  <r_i_glide_evdw>  (1) 
-16.088815709827333

>  <r_i_glide_gscore>  (1) 
-5.4243829986266645

>  <r_i_glide_gscore_strain>  (1) 
0

>  <r_i_glide_hbond>  (1) 
0

>  <r_i_glide_ligand_efficiency>  (1) 
-0.67804787482833306

>  <r_i_glide_ligand_efficiency_ln>  (1) 
-1.7614826991220178

>  <r_i_glide_ligand_efficiency_sa>  (1) 
-1.3560957496566663

>  <r_i_glide_lipo>  (1) 
-1.6230808629405997

>  <r_i_glide_metal>  (1) 
-0

>  <r_i_glide_rewards>  (1) 
-3.0063949459725157

>  <r_lp_Energy>  (1) 
4.7151909999999999

>  <r_lp_tautomer_probability>  (1) 
1

>  <s_epik_cmdline>  (1) 
J2VwaWtfcHl0aG9uJywgJy1waHQnLCAnMS4wJywgJy1waCcsICc3LjQnLCAnLXRuJywgJzgnLCAnLW1hJywgJzUwMCcsICctaW1hZScsICc8aW5maWxlLm1hZT4nLCAnLW9tYWUnLCAnPG91dGZpbGUubWFlPic=

>  <s_epik_input>  (1) 
W0NIMl0xW0NIXT1bQ0hdW0NIXT1DMUMoPU8pW09IXQ==

>  <s_glide_docking_method>  (1) 
confgen

>  <s_i_glide_gridfile>  (1) 
gpcr_5ht2c_6bqh_protein_autoprepared_prepared

>  <s_lp_Force_Field>  (1) 
S-OPLS

>  <s_lp_Variant>  (1) 
Pocket2Mol_48-1

>  <s_m_source_file>  (1) 
generated_GPCR_5HT2C_ligand_Pocket2Mol_2026-06-23_prepared.sdf

>  <GenAI_Model>  (1) 
Pocket2Mol

>  <Protein>  (1) 
GPCR_5HT2C

$$$$
Pocket2Mol_85
     RDKit          3D

  0  0  0  0  0  0  0  0  0  0999 V3000
M  V30 BEGIN CTAB
M  V30 COUNTS 14 14 0 0 1
M  V30 BEGIN ATOM
M  V30 1 C 39.511255 28.517803 50.949822 0
M  V30 2 C 38.830131 27.903831 51.950904 0
M  V30 3 C 39.962393 29.659968 51.402515 0
M  V30 4 C 38.856935 28.673684 53.038734 0
M  V30 5 O 40.684266 30.561125 50.729029 0
M  V30 6 C 39.645138 30.059406 52.884707 0
M  V30 7 C 38.210783 28.339942 54.414944 0
M  V30 8 O 38.347217 29.203926 55.306953 0
M  V30 9 O 37.624738 27.237456 54.491499 0 CHG=-1
M  V30 10 H 39.656727 28.131177 49.954234 0
M  V30 11 H 38.346702 26.940941 51.879224 0
M  V30 12 H 40.817233 31.303108 51.300264 0
M  V30 13 H 40.517747 30.137758 53.530986 0
M  V30 14 H 38.987517 30.920759 52.991232 0
M  V30 END ATOM
M  V30 BEGIN BOND
M  V30 1 1 2 1
M  V30 2 2 3 1
M  V30 3 2 4 2
M  V30 4 1 5 3
M  V30 5 1 6 3
M  V30 6 1 6 4
M  V30 7 1 7 4
M  V30 8 2 8 7
M  V30 9 1 9 7
M  V30 10 1 10 1
M  V30 11 1 11 2
M  V30 12 1 12 5
M  V30 13 1 13 6
M  V30 14 1 14 6
M  V30 END BOND
M  V30 END CTAB
M  END
>  <i_epik_Tot_Q>  (1) 
-1

>  <i_epik_Tot_abs_Q>  (1) 
1

>  <i_i_glide_confnum>  (1) 
1

>  <i_i_glide_lignum>  (1) 
90

>  <i_i_glide_posenum>  (1) 
216

>  <i_i_glide_rotatable_bonds>  (1) 
2

>  <i_lp_mmshare_version>  (1) 
72125

>  <i_m_source_file_index>  (1) 
86

>  <i_f3d_flags>  (1) 
0

>  <num_sample>  (1) 
100

>  <b_lp_Chiralities_Consistent>  (1) 
1

>  <r_epik_Charging_Adjusted_Penalty>  (1) 
0.00019237637697373591

>  <r_epik_Ionization_Penalty>  (1) 
0.0032632994418700166

>  <r_epik_Ionization_Penalty_Charging>  (1) 
0.00019237637697373591

>  <r_epik_Ionization_Penalty_Neutral>  (1) 
0.0030709230648962808

>  <r_epik_State_Penalty>  (1) 
-0

>  <r_glide_ring_energy>  (1) 
0

>  <r_i_docking_score>  (1) 
-5.4215888690744327

>  <r_i_glide_ecoul>  (1) 
-0.38883255767056979

>  <r_i_glide_eff_state_penalty>  (1) 
-0

>  <r_i_glide_einternal>  (1) 
2.0608964095206259

>  <r_i_glide_emodel>  (1) 
-24.722165871684016

>  <r_i_glide_emodel_strain>  (1) 
0

>  <r_i_glide_energy>  (1) 
-18.26404292165325

>  <r_i_glide_erotb>  (1) 
0

>  <r_i_glide_esite>  (1) 
0

>  <r_i_glide_evdw>  (1) 
-17.875210363982681

>  <r_i_glide_gscore>  (1) 
-5.4215888690744327

>  <r_i_glide_gscore_strain>  (1) 
0

>  <r_i_glide_hbond>  (1) 
0

>  <r_i_glide_ligand_efficiency>  (1) 
-0.60239876323049257

>  <r_i_glide_ligand_efficiency_ln>  (1) 
-1.6957172503632669

>  <r_i_glide_ligand_efficiency_sa>  (1) 
-1.253039922422222

>  <r_i_glide_lipo>  (1) 
-1.6013986308743706

>  <r_i_glide_metal>  (1) 
-0

>  <r_i_glide_rewards>  (1) 
-2.8681048363503425

>  <r_lp_Energy>  (1) 
1.821912

>  <r_lp_tautomer_probability>  (1) 
1

>  <s_epik_cmdline>  (1) 
J2VwaWtfcHl0aG9uJywgJy1waHQnLCAnMS4wJywgJy1waCcsICc3LjQnLCAnLXRuJywgJzgnLCAnLW1hJywgJzUwMCcsICctaW1hZScsICc8aW5maWxlLm1hZT4nLCAnLW9tYWUnLCAnPG91dGZpbGUubWFlPic=

>  <s_epik_input>  (1) 
W09IXUMxPVtDSF1bQ0hdPUMoW0NIMl0xKUMoPU8pW09IXQ==

>  <s_glide_docking_method>  (1) 
confgen

>  <s_i_glide_gridfile>  (1) 
gpcr_5ht2c_6bqh_protein_autoprepared_prepared

>  <s_lp_Force_Field>  (1) 
S-OPLS

>  <s_lp_Variant>  (1) 
Pocket2Mol_85-1

>  <s_m_source_file>  (1) 
generated_GPCR_5HT2C_ligand_Pocket2Mol_2026-06-23_prepared.sdf

>  <GenAI_Model>  (1) 
Pocket2Mol

>  <Protein>  (1) 
GPCR_5HT2C

$$$$
Pocket2Mol_59
     RDKit          3D

  0  0  0  0  0  0  0  0  0  0999 V3000
M  V30 BEGIN CTAB
M  V30 COUNTS 16 16 0 0 1
M  V30 BEGIN ATOM
M  V30 1 C 39.245530 28.043317 50.974239 0
M  V30 2 C 38.446063 27.823739 52.111782 0
M  V30 3 C 38.442760 28.759290 53.164659 0
M  V30 4 N 37.645745 28.536869 54.288028 0
M  V30 5 C 40.043956 29.199864 50.885965 0
M  V30 6 C 39.245865 29.921289 53.077629 0
M  V30 7 N 39.245851 30.857863 54.114000 0
M  V30 8 C 40.045137 30.137762 51.935782 0
M  V30 9 H 39.245138 27.324112 50.168200 0
M  V30 10 H 37.833018 26.937753 52.174858 0
M  V30 11 H 37.208134 27.639012 54.432265 0
M  V30 12 H 37.768733 29.103423 55.113949 0
M  V30 13 H 40.654373 29.368586 50.011779 0
M  V30 14 H 38.527790 30.817810 54.822146 0
M  V30 15 H 39.663497 31.766276 53.971905 0
M  V30 16 H 40.657079 31.025525 51.864035 0
M  V30 END ATOM
M  V30 BEGIN BOND
M  V30 1 1 2 1
M  V30 2 2 3 2
M  V30 3 1 4 3
M  V30 4 2 5 1
M  V30 5 1 6 3
M  V30 6 1 7 6
M  V30 7 1 8 5
M  V30 8 2 8 6
M  V30 9 1 9 1
M  V30 10 1 10 2
M  V30 11 1 11 4
M  V30 12 1 12 4
M  V30 13 1 13 5
M  V30 14 1 14 7
M  V30 15 1 15 7
M  V30 16 1 16 8
M  V30 END BOND
M  V30 END CTAB
M  END
>  <i_epik_Tot_Q>  (1) 
0

>  <i_epik_Tot_abs_Q>  (1) 
0

>  <i_i_glide_confnum>  (1) 
1

>  <i_i_glide_lignum>  (1) 
63

>  <i_i_glide_posenum>  (1) 
323

>  <i_i_glide_rotatable_bonds>  (1) 
0

>  <i_lp_mmshare_version>  (1) 
72125

>  <i_m_source_file_index>  (1) 
60

>  <i_f3d_flags>  (1) 
0

>  <num_sample>  (1) 
100

>  <b_lp_Chiralities_Consistent>  (1) 
1

>  <r_epik_Charging_Adjusted_Penalty>  (1) 
0.0055702355519192566

>  <r_epik_Ionization_Penalty>  (1) 
0.0049730634188153225

>  <r_epik_Ionization_Penalty_Charging>  (1) 
0

>  <r_epik_Ionization_Penalty_Neutral>  (1) 
0.0049730634188153225

>  <r_epik_State_Penalty>  (1) 
0.0055702355519192566

>  <r_glide_ring_energy>  (1) 
0

>  <r_i_docking_score>  (1) 
-5.419637161161214

>  <r_i_glide_ecoul>  (1) 
-1.5204516269123642

>  <r_i_glide_eff_state_penalty>  (1) 
0.0055702355519192566

>  <r_i_glide_einternal>  (1) 
0

>  <r_i_glide_emodel>  (1) 
-26.742461352988681

>  <r_i_glide_emodel_strain>  (1) 
0

>  <r_i_glide_energy>  (1) 
-20.133840240322499

>  <r_i_glide_erotb>  (1) 
0

>  <r_i_glide_esite>  (1) 
0

>  <r_i_glide_evdw>  (1) 
-18.613388613410134

>  <r_i_glide_gscore>  (1) 
-5.4252073967131329

>  <r_i_glide_gscore_strain>  (1) 
0

>  <r_i_glide_hbond>  (1) 
0

>  <r_i_glide_ligand_efficiency>  (1) 
-0.67745464514515175

>  <r_i_glide_ligand_efficiency_ln>  (1) 
-1.7599415633669737

>  <r_i_glide_ligand_efficiency_sa>  (1) 
-1.3549092902903037

>  <r_i_glide_lipo>  (1) 
-1.8235954344680141

>  <r_i_glide_metal>  (1) 
-0

>  <r_i_glide_rewards>  (1) 
-2.4428747875377574

>  <r_lp_Energy>  (1) 
13.721331999999999

>  <s_epik_cmdline>  (1) 
J2VwaWtfcHl0aG9uJywgJy1waHQnLCAnMS4wJywgJy1waCcsICc3LjQnLCAnLXRuJywgJzgnLCAnLW1hJywgJzUwMCcsICctaW1hZScsICc8aW5maWxlLm1hZT4nLCAnLW9tYWUnLCAnPG91dGZpbGUubWFlPic=

>  <s_epik_input>  (1) 
W05IMl1jMVtjSF1bY0hdW2NIXVtjSF1jMVtOSDJd

>  <s_glide_docking_method>  (1) 
confgen

>  <s_i_glide_gridfile>  (1) 
gpcr_5ht2c_6bqh_protein_autoprepared_prepared

>  <s_lp_Force_Field>  (1) 
S-OPLS

>  <s_lp_Variant>  (1) 
Pocket2Mol_59-1

>  <s_m_source_file>  (1) 
generated_GPCR_5HT2C_ligand_Pocket2Mol_2026-06-23_prepared.sdf

>  <GenAI_Model>  (1) 
Pocket2Mol

>  <Protein>  (1) 
GPCR_5HT2C

$$$$
Pocket2Mol_31
     RDKit          3D

  0  0  0  0  0  0  0  0  0  0999 V3000
M  V30 BEGIN CTAB
M  V30 COUNTS 17 17 0 0 1
M  V30 BEGIN ATOM
M  V30 1 C 39.584311 30.137825 53.126563 0
M  V30 2 C 38.602124 28.965134 53.254583 0
M  V30 3 C 38.899026 27.710925 52.432846 0
M  V30 4 O 37.622324 29.028483 53.992256 0
M  V30 5 C 40.045043 30.381152 51.674393 0
M  V30 6 C 39.310811 28.060190 50.994351 0
M  V30 7 C 40.445137 29.095050 50.953205 0
M  V30 8 H 39.117217 31.040633 53.521684 0
M  V30 9 H 40.444391 29.934235 53.761841 0
M  V30 10 H 39.695639 27.157652 52.928947 0
M  V30 11 H 38.019144 27.066265 52.425718 0
M  V30 12 H 39.251595 30.848299 51.093471 0
M  V30 13 H 40.867233 31.094254 51.664235 0
M  V30 14 H 39.614965 27.151445 50.473673 0
M  V30 15 H 38.445878 28.447670 50.456498 0
M  V30 16 H 41.343759 28.676094 51.401074 0
M  V30 17 H 40.693569 29.336885 49.919036 0
M  V30 END ATOM
M  V30 BEGIN BOND
M  V30 1 1 2 1
M  V30 2 1 3 2
M  V30 3 2 4 2
M  V30 4 1 5 1
M  V30 5 1 6 3
M  V30 6 1 7 5
M  V30 7 1 7 6
M  V30 8 1 8 1
M  V30 9 1 9 1
M  V30 10 1 10 3
M  V30 11 1 11 3
M  V30 12 1 12 5
M  V30 13 1 13 5
M  V30 14 1 14 6
M  V30 15 1 15 6
M  V30 16 1 16 7
M  V30 17 1 17 7
M  V30 END BOND
M  V30 END CTAB
M  END
>  <i_epik_Tot_Q>  (1) 
0

>  <i_epik_Tot_abs_Q>  (1) 
0

>  <i_i_glide_confnum>  (1) 
1

>  <i_i_glide_lignum>  (1) 
34

>  <i_i_glide_posenum>  (1) 
82

>  <i_i_glide_rotatable_bonds>  (1) 
0

>  <i_lp_mmshare_version>  (1) 
72125

>  <i_m_source_file_index>  (1) 
32

>  <i_f3d_flags>  (1) 
0

>  <num_sample>  (1) 
100

>  <b_lp_Chiralities_Consistent>  (1) 
1

>  <r_epik_Charging_Adjusted_Penalty>  (1) 
0

>  <r_epik_Ionization_Penalty>  (1) 
3.7730911281982554e-13

>  <r_epik_Ionization_Penalty_Charging>  (1) 
0

>  <r_epik_Ionization_Penalty_Neutral>  (1) 
3.7730911281982554e-13

>  <r_epik_State_Penalty>  (1) 
-0

>  <r_glide_ring_energy>  (1) 
0

>  <r_i_docking_score>  (1) 
-5.3974466926606013

>  <r_i_glide_ecoul>  (1) 
-0.4028324674020447

>  <r_i_glide_eff_state_penalty>  (1) 
-0

>  <r_i_glide_einternal>  (1) 
0

>  <r_i_glide_emodel>  (1) 
-21.939428259268233

>  <r_i_glide_emodel_strain>  (1) 
0

>  <r_i_glide_energy>  (1) 
-16.331904784184459

>  <r_i_glide_erotb>  (1) 
0

>  <r_i_glide_esite>  (1) 
0

>  <r_i_glide_evdw>  (1) 
-15.929072316782413

>  <r_i_glide_gscore>  (1) 
-5.3974466926606013

>  <r_i_glide_gscore_strain>  (1) 
0

>  <r_i_glide_hbond>  (1) 
0

>  <r_i_glide_ligand_efficiency>  (1) 
-0.77106381323722872

>  <r_i_glide_ligand_efficiency_ln>  (1) 
-1.8321830672233639

>  <r_i_glide_ligand_efficiency_sa>  (1) 
-1.4749920122488807

>  <r_i_glide_lipo>  (1) 
-1.5572674189192437

>  <r_i_glide_metal>  (1) 
-0

>  <r_i_glide_rewards>  (1) 
-2.9833007877919302

>  <r_lp_Energy>  (1) 
-0.38655299999999998

>  <r_lp_tautomer_probability>  (1) 
1

>  <s_epik_cmdline>  (1) 
J2VwaWtfcHl0aG9uJywgJy1waHQnLCAnMS4wJywgJy1waCcsICc3LjQnLCAnLXRuJywgJzgnLCAnLW1hJywgJzUwMCcsICctaW1hZScsICc8aW5maWxlLm1hZT4nLCAnLW9tYWUnLCAnPG91dGZpbGUubWFlPic=

>  <s_epik_input>  (1) 
Tz1DMVtDSDJdW0NIMl1bQ0gyXVtDSDJdW0NIMl0x

>  <s_glide_docking_method>  (1) 
confgen

>  <s_i_glide_gridfile>  (1) 
gpcr_5ht2c_6bqh_protein_autoprepared_prepared

>  <s_lp_Force_Field>  (1) 
S-OPLS

>  <s_lp_Variant>  (1) 
Pocket2Mol_31-1

>  <s_m_source_file>  (1) 
generated_GPCR_5HT2C_ligand_Pocket2Mol_2026-06-23_prepared.sdf

>  <GenAI_Model>  (1) 
Pocket2Mol

>  <Protein>  (1) 
GPCR_5HT2C

$$$$
Pocket2Mol_30
     RDKit          3D

  0  0  0  0  0  0  0  0  0  0999 V3000
M  V30 BEGIN CTAB
M  V30 COUNTS 14 14 0 0 1
M  V30 BEGIN ATOM
M  V30 1 C 38.840574 29.300170 53.381830 0
M  V30 2 C 39.645192 30.137753 52.585204 0
M  V30 3 C 40.047418 29.715057 51.301505 0
M  V30 4 N 40.844159 30.537755 50.511654 0
M  V30 5 C 38.438999 28.041034 52.895106 0
M  V30 6 C 39.645138 28.458869 50.817971 0
M  V30 7 C 38.843107 27.621317 51.612759 0
M  V30 8 H 38.531208 29.623707 54.365142 0
M  V30 9 H 39.953566 31.103833 52.958583 0
M  V30 10 H 40.998498 30.314614 49.540120 0
M  V30 11 H 41.006702 31.501175 50.774162 0
M  V30 12 H 37.820829 27.397790 53.504413 0
M  V30 13 H 39.951245 28.137748 49.835374 0
M  V30 14 H 38.534870 26.657741 51.237094 0
M  V30 END ATOM
M  V30 BEGIN BOND
M  V30 1 1 2 1
M  V30 2 2 3 2
M  V30 3 1 4 3
M  V30 4 2 5 1
M  V30 5 1 6 3
M  V30 6 1 7 5
M  V30 7 2 7 6
M  V30 8 1 8 1
M  V30 9 1 9 2
M  V30 10 1 10 4
M  V30 11 1 11 4
M  V30 12 1 12 5
M  V30 13 1 13 6
M  V30 14 1 14 7
M  V30 END BOND
M  V30 END CTAB
M  END
>  <i_epik_Tot_Q>  (1) 
0

>  <i_epik_Tot_abs_Q>  (1) 
0

>  <i_i_glide_confnum>  (1) 
1

>  <i_i_glide_lignum>  (1) 
33

>  <i_i_glide_posenum>  (1) 
293

>  <i_i_glide_rotatable_bonds>  (1) 
0

>  <i_lp_mmshare_version>  (1) 
72125

>  <i_m_source_file_index>  (1) 
31

>  <i_f3d_flags>  (1) 
0

>  <num_sample>  (1) 
100

>  <b_lp_Chiralities_Consistent>  (1) 
1

>  <r_epik_Charging_Adjusted_Penalty>  (1) 
0

>  <r_epik_Ionization_Penalty>  (1) 
0.00088153335660618348

>  <r_epik_Ionization_Penalty_Charging>  (1) 
0

>  <r_epik_Ionization_Penalty_Neutral>  (1) 
0.00088153335660618348

>  <r_epik_State_Penalty>  (1) 
-0

>  <r_glide_ring_energy>  (1) 
0

>  <r_i_docking_score>  (1) 
-5.3928149912554746

>  <r_i_glide_ecoul>  (1) 
-0.99990525818075582

>  <r_i_glide_eff_state_penalty>  (1) 
-0

>  <r_i_glide_einternal>  (1) 
0

>  <r_i_glide_emodel>  (1) 
-24.173596528745769

>  <r_i_glide_emodel_strain>  (1) 
0

>  <r_i_glide_energy>  (1) 
-18.217858542526436

>  <r_i_glide_erotb>  (1) 
0

>  <r_i_glide_esite>  (1) 
0

>  <r_i_glide_evdw>  (1) 
-17.217953284345679

>  <r_i_glide_gscore>  (1) 
-5.3928149912554746

>  <r_i_glide_gscore_strain>  (1) 
0

>  <r_i_glide_hbond>  (1) 
0

>  <r_i_glide_ligand_efficiency>  (1) 
-0.77040214160792497

>  <r_i_glide_ligand_efficiency_ln>  (1) 
-1.8306108192012671

>  <r_i_glide_ligand_efficiency_sa>  (1) 
-1.4737262799564295

>  <r_i_glide_lipo>  (1) 
-1.895556669913304

>  <r_i_glide_metal>  (1) 
-0

>  <r_i_glide_rewards>  (1) 
-2.4863748683977742

>  <r_lp_Energy>  (1) 
7.0325409999999993

>  <r_lp_tautomer_probability>  (1) 
1

>  <s_epik_cmdline>  (1) 
J2VwaWtfcHl0aG9uJywgJy1waHQnLCAnMS4wJywgJy1waCcsICc3LjQnLCAnLXRuJywgJzgnLCAnLW1hJywgJzUwMCcsICctaW1hZScsICc8aW5maWxlLm1hZT4nLCAnLW9tYWUnLCAnPG91dGZpbGUubWFlPic=

>  <s_epik_input>  (1) 
W2NIXTFbY0hdW2NIXVtjSF1bY0hdYzFbTkgyXQ==

>  <s_glide_docking_method>  (1) 
confgen

>  <s_i_glide_gridfile>  (1) 
gpcr_5ht2c_6bqh_protein_autoprepared_prepared

>  <s_lp_Force_Field>  (1) 
S-OPLS

>  <s_lp_Variant>  (1) 
Pocket2Mol_30-1

>  <s_m_source_file>  (1) 
generated_GPCR_5HT2C_ligand_Pocket2Mol_2026-06-23_prepared.sdf

>  <GenAI_Model>  (1) 
Pocket2Mol

>  <Protein>  (1) 
GPCR_5HT2C

$$$$
Pocket2Mol_36
     RDKit          3D

  0  0  0  0  0  0  0  0  0  0999 V3000
M  V30 BEGIN CTAB
M  V30 COUNTS 19 19 0 0 1
M  V30 BEGIN ATOM
M  V30 1 C 38.971520 27.731504 57.386006 0
M  V30 2 C 39.938768 26.538261 57.514638 0
M  V30 3 C 38.713200 28.114868 55.916499 0
M  V30 4 O 41.238734 26.937777 57.121347 0
M  V30 5 C 38.225821 26.908369 55.096056 0
M  V30 6 C 39.215154 25.737771 55.197212 0
M  V30 7 C 39.464807 25.345948 56.663404 0
M  V30 8 H 38.020423 27.472714 57.855157 0
M  V30 9 H 39.357577 28.591544 57.933406 0
M  V30 10 H 39.997292 26.228946 58.558934 0
M  V30 11 H 37.980181 28.920188 55.866105 0
M  V30 12 H 39.630236 28.508549 55.475966 0
M  V30 13 H 41.794650 26.170867 57.017724 0
M  V30 14 H 37.245278 26.590046 55.452847 0
M  V30 15 H 38.094649 27.194182 54.052833 0
M  V30 16 H 38.830701 24.879666 54.647206 0
M  V30 17 H 40.158543 26.010614 54.723611 0
M  V30 18 H 40.191605 24.537731 56.715479 0
M  V30 19 H 38.541752 24.950640 57.086511 0
M  V30 END ATOM
M  V30 BEGIN BOND
M  V30 1 1 2 1
M  V30 2 1 3 1
M  V30 3 1 4 2
M  V30 4 1 5 3
M  V30 5 1 6 5
M  V30 6 1 7 2
M  V30 7 1 7 6
M  V30 8 1 8 1
M  V30 9 1 9 1
M  V30 10 1 10 2
M  V30 11 1 11 3
M  V30 12 1 12 3
M  V30 13 1 13 4
M  V30 14 1 14 5
M  V30 15 1 15 5
M  V30 16 1 16 6
M  V30 17 1 17 6
M  V30 18 1 18 7
M  V30 19 1 19 7
M  V30 END BOND
M  V30 END CTAB
M  END
>  <i_epik_Tot_Q>  (1) 
0

>  <i_epik_Tot_abs_Q>  (1) 
0

>  <i_i_glide_confnum>  (1) 
2

>  <i_i_glide_lignum>  (1) 
39

>  <i_i_glide_posenum>  (1) 
317

>  <i_i_glide_rotatable_bonds>  (1) 
1

>  <i_lp_mmshare_version>  (1) 
72125

>  <i_m_source_file_index>  (1) 
37

>  <i_f3d_flags>  (1) 
0

>  <num_sample>  (1) 
100

>  <b_lp_Chiralities_Consistent>  (1) 
1

>  <r_epik_Charging_Adjusted_Penalty>  (1) 
0

>  <r_epik_Ionization_Penalty>  (1) 
4.7751045033339745e-07

>  <r_epik_Ionization_Penalty_Charging>  (1) 
0

>  <r_epik_Ionization_Penalty_Neutral>  (1) 
4.7751045033339745e-07

>  <r_epik_State_Penalty>  (1) 
-0

>  <r_glide_ring_energy>  (1) 
0.69137214327877039

>  <r_i_docking_score>  (1) 
-5.384503449658518

>  <r_i_glide_ecoul>  (1) 
-3.3164564302593496

>  <r_i_glide_eff_state_penalty>  (1) 
-0

>  <r_i_glide_einternal>  (1) 
0.44774272404242832

>  <r_i_glide_emodel>  (1) 
-20.881585517910999

>  <r_i_glide_emodel_strain>  (1) 
1.5547921751846161e-05

>  <r_i_glide_energy>  (1) 
-15.972283841925513

>  <r_i_glide_erotb>  (1) 
0

>  <r_i_glide_esite>  (1) 
0

>  <r_i_glide_evdw>  (1) 
-12.655827411666165

>  <r_i_glide_gscore>  (1) 
-5.384503449658518

>  <r_i_glide_gscore_strain>  (1) 
0

>  <r_i_glide_hbond>  (1) 
-0.32000000000000001

>  <r_i_glide_ligand_efficiency>  (1) 
-0.76921477852264541

>  <r_i_glide_ligand_efficiency_ln>  (1) 
-1.8277894359355142

>  <r_i_glide_ligand_efficiency_sa>  (1) 
-1.4714549360853255

>  <r_i_glide_lipo>  (1) 
-1.4759102812029743

>  <r_i_glide_metal>  (1) 
-0

>  <r_i_glide_rewards>  (1) 
-2.4583333333333335

>  <r_lp_Energy>  (1) 
3.8568439999999997

>  <r_lp_tautomer_probability>  (1) 
1

>  <s_epik_cmdline>  (1) 
J2VwaWtfcHl0aG9uJywgJy1waHQnLCAnMS4wJywgJy1waCcsICc3LjQnLCAnLXRuJywgJzgnLCAnLW1hJywgJzUwMCcsICctaW1hZScsICc8aW5maWxlLm1hZT4nLCAnLW9tYWUnLCAnPG91dGZpbGUubWFlPic=

>  <s_epik_input>  (1) 
W09IXVtDSF0xW0NIMl1bQ0gyXVtDSDJdW0NIMl1bQ0gyXTE=

>  <s_glide_docking_method>  (1) 
confgen

>  <s_i_glide_gridfile>  (1) 
gpcr_5ht2c_6bqh_protein_autoprepared_prepared

>  <s_lp_Force_Field>  (1) 
S-OPLS

>  <s_lp_Variant>  (1) 
Pocket2Mol_36-1

>  <s_m_source_file>  (1) 
generated_GPCR_5HT2C_ligand_Pocket2Mol_2026-06-23_prepared.sdf

>  <GenAI_Model>  (1) 
Pocket2Mol

>  <Protein>  (1) 
GPCR_5HT2C

$$$$
Pocket2Mol_0
     RDKit          3D

  0  0  0  0  0  0  0  0  0  0999 V3000
M  V30 BEGIN CTAB
M  V30 COUNTS 19 19 0 0 1
M  V30 BEGIN ATOM
M  V30 1 C 38.629837 28.309613 54.701717 0
M  V30 2 C 38.261538 26.999654 55.357764 0
M  V30 3 C 38.513060 26.852654 56.742539 0
M  V30 4 C 37.645137 25.921772 54.659670 0
M  V30 5 C 37.320801 24.728729 55.337656 0
M  V30 6 C 37.597988 24.595183 56.707394 0
M  V30 7 C 38.188979 25.655907 57.409437 0
M  V30 8 C 38.861087 28.572101 53.377652 0
M  V30 9 C 38.880943 27.573605 52.286466 0
M  V30 10 N 38.991754 27.901578 51.074361 0
M  V30 11 H 38.712852 29.144267 55.383415 0
M  V30 12 H 38.966911 27.663842 57.293233 0
M  V30 13 H 37.382956 26.009912 53.627807 0
M  V30 14 H 36.848049 23.917512 54.802705 0
M  V30 15 H 37.345741 23.680370 57.223212 0
M  V30 16 H 38.394025 25.555127 58.465360 0
M  V30 17 H 39.073926 29.583927 53.063607 0
M  V30 18 H 38.826750 26.537759 52.581064 0
M  V30 19 H 39.000817 27.106791 50.449637 0
M  V30 END ATOM
M  V30 BEGIN BOND
M  V30 1 1 2 1
M  V30 2 1 3 2
M  V30 3 2 4 2
M  V30 4 1 5 4
M  V30 5 2 6 5
M  V30 6 2 7 3
M  V30 7 1 7 6
M  V30 8 2 8 1
M  V30 9 1 9 8
M  V30 10 2 10 9
M  V30 11 1 11 1
M  V30 12 1 12 3
M  V30 13 1 13 4
M  V30 14 1 14 5
M  V30 15 1 15 6
M  V30 16 1 16 7
M  V30 17 1 17 8
M  V30 18 1 18 9
M  V30 19 1 19 10
M  V30 END BOND
M  V30 END CTAB
M  END
>  <i_epik_Tot_Q>  (1) 
0

>  <i_epik_Tot_abs_Q>  (1) 
0

>  <i_i_glide_confnum>  (1) 
1

>  <i_i_glide_lignum>  (1) 
2

>  <i_i_glide_posenum>  (1) 
332

>  <i_i_glide_rotatable_bonds>  (1) 
2

>  <i_lp_mmshare_version>  (1) 
72125

>  <i_m_source_file_index>  (1) 
1

>  <i_f3d_flags>  (1) 
0

>  <num_sample>  (1) 
100

>  <b_lp_Chiralities_Consistent>  (1) 
1

>  <r_epik_Charging_Adjusted_Penalty>  (1) 
0

>  <r_epik_Ionization_Penalty>  (1) 
0

>  <r_epik_Ionization_Penalty_Charging>  (1) 
0

>  <r_epik_Ionization_Penalty_Neutral>  (1) 
0

>  <r_epik_State_Penalty>  (1) 
-0

>  <r_glide_ring_energy>  (1) 
0

>  <r_i_docking_score>  (1) 
-5.3779574083201567

>  <r_i_glide_ecoul>  (1) 
-0.34703293811572677

>  <r_i_glide_eff_state_penalty>  (1) 
-0

>  <r_i_glide_einternal>  (1) 
0.024661356331913353

>  <r_i_glide_emodel>  (1) 
-29.535661598208218

>  <r_i_glide_emodel_strain>  (1) 
0

>  <r_i_glide_energy>  (1) 
-21.77904700239473

>  <r_i_glide_erotb>  (1) 
0.80789427267668723

>  <r_i_glide_esite>  (1) 
0

>  <r_i_glide_evdw>  (1) 
-21.432014064279002

>  <r_i_glide_gscore>  (1) 
-5.3779574083201567

>  <r_i_glide_gscore_strain>  (1) 
0

>  <r_i_glide_hbond>  (1) 
0

>  <r_i_glide_ligand_efficiency>  (1) 
-0.53779574083201565

>  <r_i_glide_ligand_efficiency_ln>  (1) 
-1.6284084306347508

>  <r_i_glide_ligand_efficiency_sa>  (1) 
-1.1586458001998912

>  <r_i_glide_lipo>  (1) 
-2.1729358033105912

>  <r_i_glide_metal>  (1) 
-0

>  <r_i_glide_rewards>  (1) 
-2.8892602337549431

>  <r_lp_Energy>  (1) 
13.405619999999999

>  <r_lp_tautomer_probability>  (1) 
1

>  <s_epik_Chemistry_Notes>  (1) 
This compound has an imine and may undergo hydrolysis.

>  <s_epik_cmdline>  (1) 
J2VwaWtfcHl0aG9uJywgJy1waHQnLCAnMS4wJywgJy1waCcsICc3LjQnLCAnLXRuJywgJzgnLCAnLW1hJywgJzUwMCcsICctaW1hZScsICc8aW5maWxlLm1hZT4nLCAnLW9tYWUnLCAnPG91dGZpbGUubWFlPic=

>  <s_epik_input>  (1) 
W0hdL049W0NIXS9bQ0hdPVtDSF1cYzFbY0hdW2NIXVtjSF1bY0hdW2NIXTE=

>  <s_glide_docking_method>  (1) 
confgen

>  <s_i_glide_gridfile>  (1) 
gpcr_5ht2c_6bqh_protein_autoprepared_prepared

>  <s_lp_Force_Field>  (1) 
S-OPLS

>  <s_lp_Variant>  (1) 
Pocket2Mol_0-2

>  <s_m_source_file>  (1) 
generated_GPCR_5HT2C_ligand_Pocket2Mol_2026-06-23_prepared.sdf

>  <GenAI_Model>  (1) 
Pocket2Mol

>  <Protein>  (1) 
GPCR_5HT2C

$$$$
Pocket2Mol_78
     RDKit          3D

  0  0  0  0  0  0  0  0  0  0999 V3000
M  V30 BEGIN CTAB
M  V30 COUNTS 14 14 0 0 1
M  V30 BEGIN ATOM
M  V30 1 C 38.996804 30.400954 54.491182 0
M  V30 2 C 39.645140 30.340602 53.242099 0
M  V30 3 C 39.292246 29.337755 52.308659 0
M  V30 4 C 39.976455 29.277937 50.969980 0
M  V30 5 O 39.645138 28.371931 50.177682 0
M  V30 6 O 40.845187 30.137755 50.708259 0 CHG=-1
M  V30 7 C 37.997037 29.462597 54.813058 0
M  V30 8 C 38.290448 28.396046 52.637163 0
M  V30 9 C 37.645132 28.460248 53.887417 0
M  V30 10 H 39.264997 31.168934 55.201963 0
M  V30 11 H 40.409586 31.064276 52.997113 0
M  V30 12 H 37.498970 29.512496 55.770607 0
M  V30 13 H 38.015243 27.627469 51.928048 0
M  V30 14 H 36.878072 27.741562 54.135752 0
M  V30 END ATOM
M  V30 BEGIN BOND
M  V30 1 1 2 1
M  V30 2 2 3 2
M  V30 3 1 4 3
M  V30 4 2 5 4
M  V30 5 1 6 4
M  V30 6 2 7 1
M  V30 7 1 8 3
M  V30 8 1 9 7
M  V30 9 2 9 8
M  V30 10 1 10 1
M  V30 11 1 11 2
M  V30 12 1 12 7
M  V30 13 1 13 8
M  V30 14 1 14 9
M  V30 END BOND
M  V30 END CTAB
M  END
>  <i_epik_Tot_Q>  (1) 
-1

>  <i_epik_Tot_abs_Q>  (1) 
1

>  <i_i_glide_confnum>  (1) 
1

>  <i_i_glide_lignum>  (1) 
83

>  <i_i_glide_posenum>  (1) 
221

>  <i_i_glide_rotatable_bonds>  (1) 
1

>  <i_lp_mmshare_version>  (1) 
72125

>  <i_m_source_file_index>  (1) 
79

>  <i_f3d_flags>  (1) 
0

>  <num_sample>  (1) 
100

>  <b_lp_Chiralities_Consistent>  (1) 
1

>  <r_epik_Charging_Adjusted_Penalty>  (1) 
0.00033308558627939336

>  <r_epik_Ionization_Penalty>  (1) 
0.00033308558627939336

>  <r_epik_Ionization_Penalty_Charging>  (1) 
0.00033308558627939336

>  <r_epik_Ionization_Penalty_Neutral>  (1) 
0

>  <r_epik_State_Penalty>  (1) 
-0

>  <r_glide_ring_energy>  (1) 
0

>  <r_i_docking_score>  (1) 
-5.3765015018839497

>  <r_i_glide_ecoul>  (1) 
0.3143629901003594

>  <r_i_glide_eff_state_penalty>  (1) 
-0

>  <r_i_glide_einternal>  (1) 
0.0098516804676618275

>  <r_i_glide_emodel>  (1) 
-22.877181482529473

>  <r_i_glide_emodel_strain>  (1) 
1.3555201405779371e-10

>  <r_i_glide_energy>  (1) 
-16.602055203468339

>  <r_i_glide_erotb>  (1) 
0

>  <r_i_glide_esite>  (1) 
0

>  <r_i_glide_evdw>  (1) 
-16.916418193568699

>  <r_i_glide_gscore>  (1) 
-5.3765015018839497

>  <r_i_glide_gscore_strain>  (1) 
0

>  <r_i_glide_hbond>  (1) 
0

>  <r_i_glide_ligand_efficiency>  (1) 
-0.59738905576488333

>  <r_i_glide_ligand_efficiency_ln>  (1) 
-1.6816152171466803

>  <r_i_glide_ligand_efficiency_sa>  (1) 
-1.2426193109647858

>  <r_i_glide_lipo>  (1) 
-1.6167593215520359

>  <r_i_glide_metal>  (1) 
-0

>  <r_i_glide_rewards>  (1) 
-2.9610757191685328

>  <r_lp_Energy>  (1) 
17.740625999999999

>  <r_lp_tautomer_probability>  (1) 
1

>  <s_epik_cmdline>  (1) 
J2VwaWtfcHl0aG9uJywgJy1waHQnLCAnMS4wJywgJy1waCcsICc3LjQnLCAnLXRuJywgJzgnLCAnLW1hJywgJzUwMCcsICctaW1hZScsICc8aW5maWxlLm1hZT4nLCAnLW9tYWUnLCAnPG91dGZpbGUubWFlPic=

>  <s_epik_input>  (1) 
W2NIXTFbY0hdW2NIXVtjSF1bY0hdYzFDKD1PKVtPSF0=

>  <s_glide_docking_method>  (1) 
confgen

>  <s_i_glide_gridfile>  (1) 
gpcr_5ht2c_6bqh_protein_autoprepared_prepared

>  <s_lp_Force_Field>  (1) 
S-OPLS

>  <s_lp_Variant>  (1) 
Pocket2Mol_78-1

>  <s_m_source_file>  (1) 
generated_GPCR_5HT2C_ligand_Pocket2Mol_2026-06-23_prepared.sdf

>  <GenAI_Model>  (1) 
Pocket2Mol

>  <Protein>  (1) 
GPCR_5HT2C

$$$$
Pocket2Mol_59
     RDKit          3D

  0  0  0  0  0  0  0  0  0  0999 V3000
M  V30 BEGIN CTAB
M  V30 COUNTS 16 16 0 0 1
M  V30 BEGIN ATOM
M  V30 1 C 38.958349 27.413943 51.367756 0
M  V30 2 C 39.633612 28.538558 50.864371 0
M  V30 3 C 39.778914 29.688440 51.660331 0
M  V30 4 N 40.445137 30.800870 51.150218 0
M  V30 5 C 38.427747 27.432867 52.671673 0
M  V30 6 C 39.245137 29.711129 52.973177 0
M  V30 7 N 39.382851 30.848452 53.771945 0
M  V30 8 C 38.570414 28.580356 53.474161 0
M  V30 9 H 38.845137 26.537635 50.751345 0
M  V30 10 H 40.037100 28.520827 49.862998 0
M  V30 11 H 40.707915 30.845692 50.176798 0
M  V30 12 H 40.445377 31.676106 51.652164 0
M  V30 13 H 37.907917 26.566911 53.055159 0
M  V30 14 H 39.719076 31.711830 53.373631 0
M  V30 15 H 38.870399 30.931795 54.638746 0
M  V30 16 H 38.161174 28.593089 54.473848 0
M  V30 END ATOM
M  V30 BEGIN BOND
M  V30 1 1 2 1
M  V30 2 2 3 2
M  V30 3 1 4 3
M  V30 4 2 5 1
M  V30 5 1 6 3
M  V30 6 1 7 6
M  V30 7 1 8 5
M  V30 8 2 8 6
M  V30 9 1 9 1
M  V30 10 1 10 2
M  V30 11 1 11 4
M  V30 12 1 12 4
M  V30 13 1 13 5
M  V30 14 1 14 7
M  V30 15 1 15 7
M  V30 16 1 16 8
M  V30 END BOND
M  V30 END CTAB
M  END
>  <i_epik_Tot_Q>  (1) 
0

>  <i_epik_Tot_abs_Q>  (1) 
0

>  <i_i_glide_confnum>  (1) 
1

>  <i_i_glide_lignum>  (1) 
63

>  <i_i_glide_posenum>  (1) 
294

>  <i_i_glide_rotatable_bonds>  (1) 
0

>  <i_lp_mmshare_version>  (1) 
72125

>  <i_m_source_file_index>  (1) 
60

>  <i_f3d_flags>  (1) 
0

>  <num_sample>  (1) 
100

>  <b_lp_Chiralities_Consistent>  (1) 
1

>  <r_epik_Charging_Adjusted_Penalty>  (1) 
0.0055702355519192566

>  <r_epik_Ionization_Penalty>  (1) 
0.0049730634188153225

>  <r_epik_Ionization_Penalty_Charging>  (1) 
0

>  <r_epik_Ionization_Penalty_Neutral>  (1) 
0.0049730634188153225

>  <r_epik_State_Penalty>  (1) 
0.0055702355519192566

>  <r_glide_ring_energy>  (1) 
0

>  <r_i_docking_score>  (1) 
-5.3732092827738906

>  <r_i_glide_ecoul>  (1) 
-1.8412963206780064

>  <r_i_glide_eff_state_penalty>  (1) 
0.0055702355519192566

>  <r_i_glide_einternal>  (1) 
0

>  <r_i_glide_emodel>  (1) 
-26.337183552027586

>  <r_i_glide_emodel_strain>  (1) 
0

>  <r_i_glide_energy>  (1) 
-19.785117744051259

>  <r_i_glide_erotb>  (1) 
0

>  <r_i_glide_esite>  (1) 
0

>  <r_i_glide_evdw>  (1) 
-17.943821423373254

>  <r_i_glide_gscore>  (1) 
-5.3787795183258096

>  <r_i_glide_gscore_strain>  (1) 
0

>  <r_i_glide_hbond>  (1) 
0

>  <r_i_glide_ligand_efficiency>  (1) 
-0.67165116034673633

>  <r_i_glide_ligand_efficiency_ln>  (1) 
-1.7448648432023179

>  <r_i_glide_ligand_efficiency_sa>  (1) 
-1.3433023206934729

>  <r_i_glide_lipo>  (1) 
-1.8164557218932

>  <r_i_glide_metal>  (1) 
-0

>  <r_i_glide_rewards>  (1) 
-2.3889382771622456

>  <r_lp_Energy>  (1) 
13.721331999999999

>  <s_epik_cmdline>  (1) 
J2VwaWtfcHl0aG9uJywgJy1waHQnLCAnMS4wJywgJy1waCcsICc3LjQnLCAnLXRuJywgJzgnLCAnLW1hJywgJzUwMCcsICctaW1hZScsICc8aW5maWxlLm1hZT4nLCAnLW9tYWUnLCAnPG91dGZpbGUubWFlPic=

>  <s_epik_input>  (1) 
W05IMl1jMVtjSF1bY0hdW2NIXVtjSF1jMVtOSDJd

>  <s_glide_docking_method>  (1) 
confgen

>  <s_i_glide_gridfile>  (1) 
gpcr_5ht2c_6bqh_protein_autoprepared_prepared

>  <s_lp_Force_Field>  (1) 
S-OPLS

>  <s_lp_Variant>  (1) 
Pocket2Mol_59-1

>  <s_m_source_file>  (1) 
generated_GPCR_5HT2C_ligand_Pocket2Mol_2026-06-23_prepared.sdf

>  <GenAI_Model>  (1) 
Pocket2Mol

>  <Protein>  (1) 
GPCR_5HT2C

$$$$
Pocket2Mol_10
     RDKit          3D

  0  0  0  0  0  0  0  0  0  0999 V3000
M  V30 BEGIN CTAB
M  V30 COUNTS 12 12 0 0 1
M  V30 BEGIN ATOM
M  V30 1 C 39.971734 28.943842 50.566713 0
M  V30 2 C 40.045133 29.963109 51.571704 0
M  V30 3 C 39.365035 29.630806 52.720355 0
M  V30 4 C 39.219923 30.439546 53.964561 0
M  V30 5 C 39.245137 27.852693 50.968064 0
M  V30 6 S 38.633508 28.061273 52.572814 0
M  V30 7 H 40.445137 29.048222 49.602658 0
M  V30 8 H 40.581158 30.888846 51.417400 0
M  V30 9 H 39.742830 31.391555 53.876129 0
M  V30 10 H 38.170040 30.651399 54.169383 0
M  V30 11 H 39.631970 29.908309 54.822596 0
M  V30 12 H 39.031181 26.947961 50.415747 0
M  V30 END ATOM
M  V30 BEGIN BOND
M  V30 1 1 2 1
M  V30 2 2 3 2
M  V30 3 1 4 3
M  V30 4 2 5 1
M  V30 5 1 6 3
M  V30 6 1 6 5
M  V30 7 1 7 1
M  V30 8 1 8 2
M  V30 9 1 9 4
M  V30 10 1 10 4
M  V30 11 1 11 4
M  V30 12 1 12 5
M  V30 END BOND
M  V30 END CTAB
M  END
>  <i_epik_Tot_Q>  (1) 
0

>  <i_epik_Tot_abs_Q>  (1) 
0

>  <i_i_glide_confnum>  (1) 
1

>  <i_i_glide_lignum>  (1) 
13

>  <i_i_glide_posenum>  (1) 
303

>  <i_i_glide_rotatable_bonds>  (1) 
0

>  <i_lp_mmshare_version>  (1) 
72125

>  <i_m_source_file_index>  (1) 
11

>  <i_f3d_flags>  (1) 
0

>  <num_sample>  (1) 
100

>  <b_lp_Chiralities_Consistent>  (1) 
1

>  <r_epik_Charging_Adjusted_Penalty>  (1) 
0

>  <r_epik_Ionization_Penalty>  (1) 
0

>  <r_epik_Ionization_Penalty_Charging>  (1) 
0

>  <r_epik_Ionization_Penalty_Neutral>  (1) 
0

>  <r_epik_State_Penalty>  (1) 
-0

>  <r_glide_ring_energy>  (1) 
0

>  <r_i_docking_score>  (1) 
-5.367552536636782

>  <r_i_glide_ecoul>  (1) 
-0.96764687969149954

>  <r_i_glide_eff_state_penalty>  (1) 
-0

>  <r_i_glide_einternal>  (1) 
0

>  <r_i_glide_emodel>  (1) 
-23.781895405751833

>  <r_i_glide_emodel_strain>  (1) 
0

>  <r_i_glide_energy>  (1) 
-17.779830394049334

>  <r_i_glide_erotb>  (1) 
0

>  <r_i_glide_esite>  (1) 
0

>  <r_i_glide_evdw>  (1) 
-16.812183514357834

>  <r_i_glide_gscore>  (1) 
-5.367552536636782

>  <r_i_glide_gscore_strain>  (1) 
0

>  <r_i_glide_hbond>  (1) 
0

>  <r_i_glide_ligand_efficiency>  (1) 
-0.89459208943946367

>  <r_i_glide_ligand_efficiency_ln>  (1) 
-1.9226414724478236

>  <r_i_glide_ligand_efficiency_sa>  (1) 
-1.6255817079051809

>  <r_i_glide_lipo>  (1) 
-1.8523672384365129

>  <r_i_glide_metal>  (1) 
-0

>  <r_i_glide_rewards>  (1) 
-2.5294290905286525

>  <r_lp_Energy>  (1) 
3.145988

>  <r_lp_tautomer_probability>  (1) 
1

>  <s_epik_cmdline>  (1) 
J2VwaWtfcHl0aG9uJywgJy1waHQnLCAnMS4wJywgJy1waCcsICc3LjQnLCAnLXRuJywgJzgnLCAnLW1hJywgJzUwMCcsICctaW1hZScsICc8aW5maWxlLm1hZT4nLCAnLW9tYWUnLCAnPG91dGZpbGUubWFlPic=

>  <s_epik_input>  (1) 
czFbY0hdW2NIXVtjSF1jMVtDSDNd

>  <s_glide_docking_method>  (1) 
confgen

>  <s_i_glide_gridfile>  (1) 
gpcr_5ht2c_6bqh_protein_autoprepared_prepared

>  <s_lp_Force_Field>  (1) 
S-OPLS

>  <s_lp_Variant>  (1) 
Pocket2Mol_10-1

>  <s_m_source_file>  (1) 
generated_GPCR_5HT2C_ligand_Pocket2Mol_2026-06-23_prepared.sdf

>  <GenAI_Model>  (1) 
Pocket2Mol

>  <Protein>  (1) 
GPCR_5HT2C

$$$$
Pocket2Mol_10
     RDKit          3D

  0  0  0  0  0  0  0  0  0  0999 V3000
M  V30 BEGIN CTAB
M  V30 COUNTS 12 12 0 0 1
M  V30 BEGIN ATOM
M  V30 1 C 38.445136 27.479380 52.396191 0
M  V30 2 C 38.472128 28.553724 53.343586 0
M  V30 3 C 39.245137 29.611903 52.930053 0
M  V30 4 C 39.505536 30.889431 53.649595 0
M  V30 5 C 39.196294 27.737616 51.277992 0
M  V30 6 S 39.942567 29.296408 51.367753 0
M  V30 7 H 37.883688 26.572548 52.567787 0
M  V30 8 H 37.933268 28.511867 54.279001 0
M  V30 9 H 38.914237 30.957050 54.563131 0
M  V30 10 H 40.558076 30.973210 53.920162 0
M  V30 11 H 39.245140 31.737756 53.019037 0
M  V30 12 H 39.349472 27.107204 50.413231 0
M  V30 END ATOM
M  V30 BEGIN BOND
M  V30 1 1 2 1
M  V30 2 2 3 2
M  V30 3 1 4 3
M  V30 4 2 5 1
M  V30 5 1 6 3
M  V30 6 1 6 5
M  V30 7 1 7 1
M  V30 8 1 8 2
M  V30 9 1 9 4
M  V30 10 1 10 4
M  V30 11 1 11 4
M  V30 12 1 12 5
M  V30 END BOND
M  V30 END CTAB
M  END
>  <i_epik_Tot_Q>  (1) 
0

>  <i_epik_Tot_abs_Q>  (1) 
0

>  <i_i_glide_confnum>  (1) 
1

>  <i_i_glide_lignum>  (1) 
13

>  <i_i_glide_posenum>  (1) 
73

>  <i_i_glide_rotatable_bonds>  (1) 
0

>  <i_lp_mmshare_version>  (1) 
72125

>  <i_m_source_file_index>  (1) 
11

>  <i_f3d_flags>  (1) 
0

>  <num_sample>  (1) 
100

>  <b_lp_Chiralities_Consistent>  (1) 
1

>  <r_epik_Charging_Adjusted_Penalty>  (1) 
0

>  <r_epik_Ionization_Penalty>  (1) 
0

>  <r_epik_Ionization_Penalty_Charging>  (1) 
0

>  <r_epik_Ionization_Penalty_Neutral>  (1) 
0

>  <r_epik_State_Penalty>  (1) 
-0

>  <r_glide_ring_energy>  (1) 
0

>  <r_i_docking_score>  (1) 
-5.3617911138891579

>  <r_i_glide_ecoul>  (1) 
-1.1790702353678464

>  <r_i_glide_eff_state_penalty>  (1) 
-0

>  <r_i_glide_einternal>  (1) 
0

>  <r_i_glide_emodel>  (1) 
-23.941148597969761

>  <r_i_glide_emodel_strain>  (1) 
0

>  <r_i_glide_energy>  (1) 
-17.945526081921493

>  <r_i_glide_erotb>  (1) 
0

>  <r_i_glide_esite>  (1) 
0

>  <r_i_glide_evdw>  (1) 
-16.766455846553647

>  <r_i_glide_gscore>  (1) 
-5.3617911138891579

>  <r_i_glide_gscore_strain>  (1) 
0

>  <r_i_glide_hbond>  (1) 
0

>  <r_i_glide_ligand_efficiency>  (1) 
-0.89363185231485964

>  <r_i_glide_ligand_efficiency_ln>  (1) 
-1.9205777478285901

>  <r_i_glide_ligand_efficiency_sa>  (1) 
-1.623836841252061

>  <r_i_glide_lipo>  (1) 
-1.8302992280139432

>  <r_i_glide_metal>  (1) 
-0

>  <r_i_glide_rewards>  (1) 
-2.5163085582423563

>  <r_lp_Energy>  (1) 
3.145988

>  <r_lp_tautomer_probability>  (1) 
1

>  <s_epik_cmdline>  (1) 
J2VwaWtfcHl0aG9uJywgJy1waHQnLCAnMS4wJywgJy1waCcsICc3LjQnLCAnLXRuJywgJzgnLCAnLW1hJywgJzUwMCcsICctaW1hZScsICc8aW5maWxlLm1hZT4nLCAnLW9tYWUnLCAnPG91dGZpbGUubWFlPic=

>  <s_epik_input>  (1) 
czFbY0hdW2NIXVtjSF1jMVtDSDNd

>  <s_glide_docking_method>  (1) 
confgen

>  <s_i_glide_gridfile>  (1) 
gpcr_5ht2c_6bqh_protein_autoprepared_prepared

>  <s_lp_Force_Field>  (1) 
S-OPLS

>  <s_lp_Variant>  (1) 
Pocket2Mol_10-1

>  <s_m_source_file>  (1) 
generated_GPCR_5HT2C_ligand_Pocket2Mol_2026-06-23_prepared.sdf

>  <GenAI_Model>  (1) 
Pocket2Mol

>  <Protein>  (1) 
GPCR_5HT2C

$$$$
Pocket2Mol_31
     RDKit          3D

  0  0  0  0  0  0  0  0  0  0999 V3000
M  V30 BEGIN CTAB
M  V30 COUNTS 17 17 0 0 1
M  V30 BEGIN ATOM
M  V30 1 C 38.592167 28.985553 53.318003 0
M  V30 2 C 39.592187 30.137831 53.169795 0
M  V30 3 C 40.045232 30.487749 51.749490 0
M  V30 4 O 40.009236 30.754383 54.147228 0
M  V30 5 C 38.993173 27.761208 52.474049 0
M  V30 6 C 40.426707 29.223471 50.967760 0
M  V30 7 C 39.338385 28.138117 51.024899 0
M  V30 8 H 38.502887 28.711113 54.369530 0
M  V30 9 H 37.613920 29.338427 52.996670 0
M  V30 10 H 39.245150 31.007251 51.225164 0
M  V30 11 H 40.883855 31.182426 51.789572 0
M  V30 12 H 39.845616 27.262593 52.934896 0
M  V30 13 H 38.181480 27.032065 52.477666 0
M  V30 14 H 40.619456 29.489115 49.928653 0
M  V30 15 H 41.359497 28.826612 51.367747 0
M  V30 16 H 38.445137 28.503052 50.522372 0
M  V30 17 H 39.659639 27.251393 50.477569 0
M  V30 END ATOM
M  V30 BEGIN BOND
M  V30 1 1 2 1
M  V30 2 1 3 2
M  V30 3 2 4 2
M  V30 4 1 5 1
M  V30 5 1 6 3
M  V30 6 1 7 5
M  V30 7 1 7 6
M  V30 8 1 8 1
M  V30 9 1 9 1
M  V30 10 1 10 3
M  V30 11 1 11 3
M  V30 12 1 12 5
M  V30 13 1 13 5
M  V30 14 1 14 6
M  V30 15 1 15 6
M  V30 16 1 16 7
M  V30 17 1 17 7
M  V30 END BOND
M  V30 END CTAB
M  END
>  <i_epik_Tot_Q>  (1) 
0

>  <i_epik_Tot_abs_Q>  (1) 
0

>  <i_i_glide_confnum>  (1) 
1

>  <i_i_glide_lignum>  (1) 
34

>  <i_i_glide_posenum>  (1) 
300

>  <i_i_glide_rotatable_bonds>  (1) 
0

>  <i_lp_mmshare_version>  (1) 
72125

>  <i_m_source_file_index>  (1) 
32

>  <i_f3d_flags>  (1) 
0

>  <num_sample>  (1) 
100

>  <b_lp_Chiralities_Consistent>  (1) 
1

>  <r_epik_Charging_Adjusted_Penalty>  (1) 
0

>  <r_epik_Ionization_Penalty>  (1) 
3.7730911281982554e-13

>  <r_epik_Ionization_Penalty_Charging>  (1) 
0

>  <r_epik_Ionization_Penalty_Neutral>  (1) 
3.7730911281982554e-13

>  <r_epik_State_Penalty>  (1) 
-0

>  <r_glide_ring_energy>  (1) 
0

>  <r_i_docking_score>  (1) 
-5.3543703985088911

>  <r_i_glide_ecoul>  (1) 
0.38789730785658028

>  <r_i_glide_eff_state_penalty>  (1) 
-0

>  <r_i_glide_einternal>  (1) 
0

>  <r_i_glide_emodel>  (1) 
-21.024076393729569

>  <r_i_glide_emodel_strain>  (1) 
0

>  <r_i_glide_energy>  (1) 
-15.461305807266964

>  <r_i_glide_erotb>  (1) 
0

>  <r_i_glide_esite>  (1) 
0

>  <r_i_glide_evdw>  (1) 
-15.849203115123544

>  <r_i_glide_gscore>  (1) 
-5.3543703985088911

>  <r_i_glide_gscore_strain>  (1) 
0

>  <r_i_glide_hbond>  (1) 
0

>  <r_i_glide_ligand_efficiency>  (1) 
-0.7649100569298416

>  <r_i_glide_ligand_efficiency_ln>  (1) 
-1.8175606612529973

>  <r_i_glide_ligand_efficiency_sa>  (1) 
-1.4632202999172974

>  <r_i_glide_lipo>  (1) 
-1.4737373257202793

>  <r_i_glide_metal>  (1) 
-0

>  <r_i_glide_rewards>  (1) 
-3.1463575132109214

>  <r_lp_Energy>  (1) 
-0.38655299999999998

>  <r_lp_tautomer_probability>  (1) 
1

>  <s_epik_cmdline>  (1) 
J2VwaWtfcHl0aG9uJywgJy1waHQnLCAnMS4wJywgJy1waCcsICc3LjQnLCAnLXRuJywgJzgnLCAnLW1hJywgJzUwMCcsICctaW1hZScsICc8aW5maWxlLm1hZT4nLCAnLW9tYWUnLCAnPG91dGZpbGUubWFlPic=

>  <s_epik_input>  (1) 
Tz1DMVtDSDJdW0NIMl1bQ0gyXVtDSDJdW0NIMl0x

>  <s_glide_docking_method>  (1) 
confgen

>  <s_i_glide_gridfile>  (1) 
gpcr_5ht2c_6bqh_protein_autoprepared_prepared

>  <s_lp_Force_Field>  (1) 
S-OPLS

>  <s_lp_Variant>  (1) 
Pocket2Mol_31-1

>  <s_m_source_file>  (1) 
generated_GPCR_5HT2C_ligand_Pocket2Mol_2026-06-23_prepared.sdf

>  <GenAI_Model>  (1) 
Pocket2Mol

>  <Protein>  (1) 
GPCR_5HT2C

$$$$
Pocket2Mol_17
     RDKit          3D

  0  0  0  0  0  0  0  0  0  0999 V3000
M  V30 BEGIN CTAB
M  V30 COUNTS 16 16 0 0 1
M  V30 BEGIN ATOM
M  V30 1 C 39.645140 29.818143 52.452824 0
M  V30 2 C 38.620808 28.934641 53.177700 0
M  V30 3 C 40.102033 29.029008 51.213814 0
M  V30 4 C 38.788868 27.537429 52.578914 0
M  V30 5 C 39.184916 27.808431 51.131231 0
M  V30 6 O 40.045170 29.790315 50.024828 0
M  V30 7 H 40.480897 30.026098 53.113713 0
M  V30 8 H 39.245137 30.795906 52.201149 0
M  V30 9 H 38.753752 28.941785 54.260065 0
M  V30 10 H 37.616480 29.300511 52.969777 0
M  V30 11 H 41.130583 28.699782 51.367763 0
M  V30 12 H 39.591908 27.003721 53.089265 0
M  V30 13 H 37.881681 26.937569 52.658556 0
M  V30 14 H 38.289165 28.062638 50.567761 0
M  V30 15 H 39.647244 26.949483 50.644084 0
M  V30 16 H 39.137476 29.935717 49.791108 0
M  V30 END ATOM
M  V30 BEGIN BOND
M  V30 1 1 2 1
M  V30 2 1 3 1
M  V30 3 1 4 2
M  V30 4 1 5 3
M  V30 5 1 5 4
M  V30 6 1 6 3
M  V30 7 1 7 1
M  V30 8 1 8 1
M  V30 9 1 9 2
M  V30 10 1 10 2
M  V30 11 1 11 3
M  V30 12 1 12 4
M  V30 13 1 13 4
M  V30 14 1 14 5
M  V30 15 1 15 5
M  V30 16 1 16 6
M  V30 END BOND
M  V30 END CTAB
M  END
>  <i_epik_Tot_Q>  (1) 
0

>  <i_epik_Tot_abs_Q>  (1) 
0

>  <i_i_glide_confnum>  (1) 
2

>  <i_i_glide_lignum>  (1) 
20

>  <i_i_glide_posenum>  (1) 
331

>  <i_i_glide_rotatable_bonds>  (1) 
1

>  <i_lp_mmshare_version>  (1) 
72125

>  <i_m_source_file_index>  (1) 
18

>  <i_f3d_flags>  (1) 
0

>  <num_sample>  (1) 
100

>  <b_lp_Chiralities_Consistent>  (1) 
1

>  <r_epik_Charging_Adjusted_Penalty>  (1) 
0

>  <r_epik_Ionization_Penalty>  (1) 
4.538991431931509e-07

>  <r_epik_Ionization_Penalty_Charging>  (1) 
0

>  <r_epik_Ionization_Penalty_Neutral>  (1) 
4.538991431931509e-07

>  <r_epik_State_Penalty>  (1) 
-0

>  <r_glide_ring_energy>  (1) 
0.076601694165865028

>  <r_i_docking_score>  (1) 
-5.3480356031949352

>  <r_i_glide_ecoul>  (1) 
-1.4598358135365788

>  <r_i_glide_eff_state_penalty>  (1) 
-0

>  <r_i_glide_einternal>  (1) 
0.11833605271652071

>  <r_i_glide_emodel>  (1) 
-21.575515834865033

>  <r_i_glide_emodel_strain>  (1) 
0.34765480891866929

>  <r_i_glide_energy>  (1) 
-16.728584338179054

>  <r_i_glide_erotb>  (1) 
0

>  <r_i_glide_esite>  (1) 
0

>  <r_i_glide_evdw>  (1) 
-15.268748524642476

>  <r_i_glide_gscore>  (1) 
-5.3480356031949352

>  <r_i_glide_gscore_strain>  (1) 
0

>  <r_i_glide_hbond>  (1) 
-0.31277694328323846

>  <r_i_glide_ligand_efficiency>  (1) 
-0.8913392671991559

>  <r_i_glide_ligand_efficiency_ln>  (1) 
-1.9156505645071609

>  <r_i_glide_ligand_efficiency_sa>  (1) 
-1.6196709376274951

>  <r_i_glide_lipo>  (1) 
-1.6409089579074796

>  <r_i_glide_metal>  (1) 
-0

>  <r_i_glide_rewards>  (1) 
-2.4119369037416072

>  <r_lp_Energy>  (1) 
8.9029089999999993

>  <r_lp_tautomer_probability>  (1) 
1

>  <s_epik_cmdline>  (1) 
J2VwaWtfcHl0aG9uJywgJy1waHQnLCAnMS4wJywgJy1waCcsICc3LjQnLCAnLXRuJywgJzgnLCAnLW1hJywgJzUwMCcsICctaW1hZScsICc8aW5maWxlLm1hZT4nLCAnLW9tYWUnLCAnPG91dGZpbGUubWFlPic=

>  <s_epik_input>  (1) 
W09IXVtDSF0xW0NIMl1bQ0gyXVtDSDJdW0NIMl0x

>  <s_glide_docking_method>  (1) 
confgen

>  <s_i_glide_gridfile>  (1) 
gpcr_5ht2c_6bqh_protein_autoprepared_prepared

>  <s_lp_Force_Field>  (1) 
S-OPLS

>  <s_lp_Variant>  (1) 
Pocket2Mol_17-1

>  <s_m_source_file>  (1) 
generated_GPCR_5HT2C_ligand_Pocket2Mol_2026-06-23_prepared.sdf

>  <GenAI_Model>  (1) 
Pocket2Mol

>  <Protein>  (1) 
GPCR_5HT2C

$$$$
Pocket2Mol_38
     RDKit          3D

  0  0  0  0  0  0  0  0  0  0999 V3000
M  V30 BEGIN CTAB
M  V30 COUNTS 17 17 0 0 1
M  V30 BEGIN ATOM
M  V30 1 C 38.994560 27.764880 52.478025 0
M  V30 2 C 38.580357 28.988712 53.316686 0
M  V30 3 C 39.583898 30.137040 53.174478 0
M  V30 4 O 39.998284 30.752080 54.154321 0
M  V30 5 C 39.337560 28.138125 51.026010 0
M  V30 6 C 40.427010 29.221582 50.967862 0
M  V30 7 C 40.045137 30.484681 51.756169 0
M  V30 8 H 39.854502 27.281296 52.940916 0
M  V30 9 H 38.191904 27.026296 52.486271 0
M  V30 10 H 38.470533 28.721046 54.368481 0
M  V30 11 H 39.257799 31.013731 51.224576 0
M  V30 12 H 37.609137 29.342872 52.976400 0
M  V30 13 H 38.444762 28.503390 50.522467 0
M  V30 14 H 39.660284 27.248157 50.483481 0
M  V30 15 H 40.631148 29.489219 49.930821 0
M  V30 16 H 41.354764 28.815359 51.367785 0
M  V30 17 H 40.887176 31.173701 51.808137 0
M  V30 END ATOM
M  V30 BEGIN BOND
M  V30 1 1 2 1
M  V30 2 1 3 2
M  V30 3 2 4 3
M  V30 4 1 5 1
M  V30 5 1 6 5
M  V30 6 1 7 3
M  V30 7 1 7 6
M  V30 8 1 8 1
M  V30 9 1 9 1
M  V30 10 1 10 2
M  V30 11 1 11 7
M  V30 12 1 12 2
M  V30 13 1 13 5
M  V30 14 1 14 5
M  V30 15 1 15 6
M  V30 16 1 16 6
M  V30 17 1 17 7
M  V30 END BOND
M  V30 END CTAB
M  END
>  <i_epik_Tot_Q>  (1) 
0

>  <i_epik_Tot_abs_Q>  (1) 
0

>  <i_i_glide_confnum>  (1) 
1

>  <i_i_glide_lignum>  (1) 
41

>  <i_i_glide_posenum>  (1) 
299

>  <i_i_glide_rotatable_bonds>  (1) 
0

>  <i_lp_mmshare_version>  (1) 
72125

>  <i_m_source_file_index>  (1) 
39

>  <i_f3d_flags>  (1) 
0

>  <num_sample>  (1) 
100

>  <b_lp_Chiralities_Consistent>  (1) 
1

>  <r_epik_Charging_Adjusted_Penalty>  (1) 
0

>  <r_epik_Ionization_Penalty>  (1) 
3.7730911281982554e-13

>  <r_epik_Ionization_Penalty_Charging>  (1) 
0

>  <r_epik_Ionization_Penalty_Neutral>  (1) 
3.7730911281982554e-13

>  <r_epik_State_Penalty>  (1) 
-0

>  <r_glide_ring_energy>  (1) 
0

>  <r_i_docking_score>  (1) 
-5.3475722730366861

>  <r_i_glide_ecoul>  (1) 
0.39732333744060355

>  <r_i_glide_eff_state_penalty>  (1) 
-0

>  <r_i_glide_einternal>  (1) 
0

>  <r_i_glide_emodel>  (1) 
-20.991838131961295

>  <r_i_glide_emodel_strain>  (1) 
0

>  <r_i_glide_energy>  (1) 
-15.414939792025212

>  <r_i_glide_erotb>  (1) 
0

>  <r_i_glide_esite>  (1) 
0

>  <r_i_glide_evdw>  (1) 
-15.812263129465816

>  <r_i_glide_gscore>  (1) 
-5.3475722730366861

>  <r_i_glide_gscore_strain>  (1) 
0

>  <r_i_glide_hbond>  (1) 
0

>  <r_i_glide_ligand_efficiency>  (1) 
-0.76393889614809807

>  <r_i_glide_ligand_efficiency_ln>  (1) 
-1.8152530126390756

>  <r_i_glide_ligand_efficiency_sa>  (1) 
-1.4613625361744145

>  <r_i_glide_lipo>  (1) 
-1.4710543619254128

>  <r_i_glide_metal>  (1) 
-0

>  <r_i_glide_rewards>  (1) 
-3.1455032552540736

>  <r_lp_Energy>  (1) 
-0.38638499999999998

>  <r_lp_tautomer_probability>  (1) 
1

>  <s_epik_cmdline>  (1) 
J2VwaWtfcHl0aG9uJywgJy1waHQnLCAnMS4wJywgJy1waCcsICc3LjQnLCAnLXRuJywgJzgnLCAnLW1hJywgJzUwMCcsICctaW1hZScsICc8aW5maWxlLm1hZT4nLCAnLW9tYWUnLCAnPG91dGZpbGUubWFlPic=

>  <s_epik_input>  (1) 
W0NIMl0xW0NIMl1bQ0gyXVtDSDJdW0NIXT1DMVtPSF0=

>  <s_glide_docking_method>  (1) 
confgen

>  <s_i_glide_gridfile>  (1) 
gpcr_5ht2c_6bqh_protein_autoprepared_prepared

>  <s_lp_Force_Field>  (1) 
S-OPLS

>  <s_lp_Variant>  (1) 
Pocket2Mol_38-1

>  <s_m_source_file>  (1) 
generated_GPCR_5HT2C_ligand_Pocket2Mol_2026-06-23_prepared.sdf

>  <GenAI_Model>  (1) 
Pocket2Mol

>  <Protein>  (1) 
GPCR_5HT2C

$$$$
Pocket2Mol_17
     RDKit          3D

  0  0  0  0  0  0  0  0  0  0999 V3000
M  V30 BEGIN CTAB
M  V30 COUNTS 16 16 0 0 1
M  V30 BEGIN ATOM
M  V30 1 C 40.045138 30.614133 51.595646 0
M  V30 2 C 39.617361 30.329398 53.036030 0
M  V30 3 C 40.166957 29.239573 50.962635 0
M  V30 4 C 38.843434 29.000866 52.997392 0
M  V30 5 C 39.051889 28.405884 51.596056 0
M  V30 6 O 40.045137 29.337764 49.563218 0
M  V30 7 H 40.973875 31.181015 51.541708 0
M  V30 8 H 39.296478 31.199393 51.063894 0
M  V30 9 H 40.492662 30.222250 53.675066 0
M  V30 10 H 39.020212 31.144035 53.448635 0
M  V30 11 H 41.136690 28.813907 51.223381 0
M  V30 12 H 39.208277 28.325627 53.773345 0
M  V30 13 H 37.780043 29.158768 53.184121 0
M  V30 14 H 38.128215 28.503643 51.024582 0
M  V30 15 H 39.300118 27.343307 51.627101 0
M  V30 16 H 39.167037 29.635421 49.351664 0
M  V30 END ATOM
M  V30 BEGIN BOND
M  V30 1 1 2 1
M  V30 2 1 3 1
M  V30 3 1 4 2
M  V30 4 1 5 3
M  V30 5 1 5 4
M  V30 6 1 6 3
M  V30 7 1 7 1
M  V30 8 1 8 1
M  V30 9 1 9 2
M  V30 10 1 10 2
M  V30 11 1 11 3
M  V30 12 1 12 4
M  V30 13 1 13 4
M  V30 14 1 14 5
M  V30 15 1 15 5
M  V30 16 1 16 6
M  V30 END BOND
M  V30 END CTAB
M  END
>  <i_epik_Tot_Q>  (1) 
0

>  <i_epik_Tot_abs_Q>  (1) 
0

>  <i_i_glide_confnum>  (1) 
1

>  <i_i_glide_lignum>  (1) 
20

>  <i_i_glide_posenum>  (1) 
132

>  <i_i_glide_rotatable_bonds>  (1) 
1

>  <i_lp_mmshare_version>  (1) 
72125

>  <i_m_source_file_index>  (1) 
18

>  <i_f3d_flags>  (1) 
0

>  <num_sample>  (1) 
100

>  <b_lp_Chiralities_Consistent>  (1) 
1

>  <r_epik_Charging_Adjusted_Penalty>  (1) 
0

>  <r_epik_Ionization_Penalty>  (1) 
4.538991431931509e-07

>  <r_epik_Ionization_Penalty_Charging>  (1) 
0

>  <r_epik_Ionization_Penalty_Neutral>  (1) 
4.538991431931509e-07

>  <r_epik_State_Penalty>  (1) 
-0

>  <r_glide_ring_energy>  (1) 
0

>  <r_i_docking_score>  (1) 
-5.337104260051043

>  <r_i_glide_ecoul>  (1) 
-2.687021231131169

>  <r_i_glide_eff_state_penalty>  (1) 
-0

>  <r_i_glide_einternal>  (1) 
0.041139649582389914

>  <r_i_glide_emodel>  (1) 
-20.913774947304404

>  <r_i_glide_emodel_strain>  (1) 
0

>  <r_i_glide_energy>  (1) 
-15.691329073092069

>  <r_i_glide_erotb>  (1) 
0

>  <r_i_glide_esite>  (1) 
0

>  <r_i_glide_evdw>  (1) 
-13.0043078419609

>  <r_i_glide_gscore>  (1) 
-5.337104260051043

>  <r_i_glide_gscore_strain>  (1) 
0

>  <r_i_glide_hbond>  (1) 
-0.32000000000000001

>  <r_i_glide_ligand_efficiency>  (1) 
-0.88951737667517383

>  <r_i_glide_ligand_efficiency_ln>  (1) 
-1.9117349896647069

>  <r_i_glide_ligand_efficiency_sa>  (1) 
-1.6163603428384818

>  <r_i_glide_lipo>  (1) 
-1.470594316482678

>  <r_i_glide_metal>  (1) 
-0

>  <r_i_glide_rewards>  (1) 
-2.4932413668006457

>  <r_lp_Energy>  (1) 
8.9029089999999993

>  <r_lp_tautomer_probability>  (1) 
1

>  <s_epik_cmdline>  (1) 
J2VwaWtfcHl0aG9uJywgJy1waHQnLCAnMS4wJywgJy1waCcsICc3LjQnLCAnLXRuJywgJzgnLCAnLW1hJywgJzUwMCcsICctaW1hZScsICc8aW5maWxlLm1hZT4nLCAnLW9tYWUnLCAnPG91dGZpbGUubWFlPic=

>  <s_epik_input>  (1) 
W09IXVtDSF0xW0NIMl1bQ0gyXVtDSDJdW0NIMl0x

>  <s_glide_docking_method>  (1) 
confgen

>  <s_i_glide_gridfile>  (1) 
gpcr_5ht2c_6bqh_protein_autoprepared_prepared

>  <s_lp_Force_Field>  (1) 
S-OPLS

>  <s_lp_Variant>  (1) 
Pocket2Mol_17-1

>  <s_m_source_file>  (1) 
generated_GPCR_5HT2C_ligand_Pocket2Mol_2026-06-23_prepared.sdf

>  <GenAI_Model>  (1) 
Pocket2Mol

>  <Protein>  (1) 
GPCR_5HT2C

$$$$
Pocket2Mol_47
     RDKit          3D

  0  0  0  0  0  0  0  0  0  0999 V3000
M  V30 BEGIN CTAB
M  V30 COUNTS 20 20 0 0 1
M  V30 BEGIN ATOM
M  V30 1 C 39.331722 28.022961 50.967761 0
M  V30 2 O 40.434880 28.907365 51.104962 0
M  V30 3 C 40.045145 30.219728 51.484355 0
M  V30 4 C 39.019206 27.283823 52.279683 0
M  V30 5 O 39.113616 28.050698 53.470656 0
M  V30 6 C 38.539735 29.340966 53.408088 0 CFG=1
M  V30 7 C 38.005784 29.676564 54.804826 0
M  V30 8 C 39.645137 30.322568 52.967760 0
M  V30 9 H 38.447335 28.537315 50.588705 0
M  V30 10 H 39.581591 27.283145 50.207435 0
M  V30 11 H 40.893358 30.881245 51.307578 0
M  V30 12 H 39.251996 30.581927 50.828942 0
M  V30 13 H 38.014480 26.868626 52.219323 0
M  V30 14 H 39.698667 26.440533 52.392877 0
M  V30 15 H 37.692889 29.337756 52.720536 0
M  V30 16 H 37.545269 30.665287 54.826397 0
M  V30 17 H 37.247506 28.956588 55.111921 0
M  V30 18 H 38.802081 29.661031 55.549374 0
M  V30 19 H 40.517699 30.181496 53.602603 0
M  V30 20 H 39.310423 31.343925 53.151854 0
M  V30 END ATOM
M  V30 BEGIN BOND
M  V30 1 1 2 1
M  V30 2 1 3 2
M  V30 3 1 4 1
M  V30 4 1 5 4
M  V30 5 1 6 5
M  V30 6 1 7 6
M  V30 7 1 8 3
M  V30 8 1 8 6
M  V30 9 1 9 1
M  V30 10 1 10 1
M  V30 11 1 11 3
M  V30 12 1 12 3
M  V30 13 1 13 4
M  V30 14 1 14 4
M  V30 15 1 6 15 CFG=3
M  V30 16 1 16 7
M  V30 17 1 17 7
M  V30 18 1 18 7
M  V30 19 1 19 8
M  V30 20 1 20 8
M  V30 END BOND
M  V30 END CTAB
M  END
>  <i_epik_Tot_Q>  (1) 
0

>  <i_epik_Tot_abs_Q>  (1) 
0

>  <i_i_glide_confnum>  (1) 
4

>  <i_i_glide_lignum>  (1) 
50

>  <i_i_glide_posenum>  (1) 
110

>  <i_i_glide_rotatable_bonds>  (1) 
0

>  <i_lp_mmshare_version>  (1) 
72125

>  <i_m_source_file_index>  (1) 
48

>  <i_f3d_flags>  (1) 
0

>  <num_sample>  (1) 
100

>  <b_lp_Chiralities_Consistent>  (1) 
1

>  <r_epik_Charging_Adjusted_Penalty>  (1) 
0

>  <r_epik_Ionization_Penalty>  (1) 
4.0259461194199272e-12

>  <r_epik_Ionization_Penalty_Charging>  (1) 
0

>  <r_epik_Ionization_Penalty_Neutral>  (1) 
4.0259461194199272e-12

>  <r_epik_State_Penalty>  (1) 
-0

>  <r_glide_ring_energy>  (1) 
0.19137908204174731

>  <r_i_docking_score>  (1) 
-5.3337540165296877

>  <r_i_glide_ecoul>  (1) 
-0.84831209886150649

>  <r_i_glide_eff_state_penalty>  (1) 
-0

>  <r_i_glide_einternal>  (1) 
0

>  <r_i_glide_emodel>  (1) 
-25.034156336426364

>  <r_i_glide_emodel_strain>  (1) 
0

>  <r_i_glide_energy>  (1) 
-19.001865033315102

>  <r_i_glide_erotb>  (1) 
0

>  <r_i_glide_esite>  (1) 
0

>  <r_i_glide_evdw>  (1) 
-18.153552934453597

>  <r_i_glide_gscore>  (1) 
-5.3337540165296877

>  <r_i_glide_gscore_strain>  (1) 
0

>  <r_i_glide_hbond>  (1) 
0

>  <r_i_glide_ligand_efficiency>  (1) 
-0.66671925206621097

>  <r_i_glide_ligand_efficiency_ln>  (1) 
-1.732052368696736

>  <r_i_glide_ligand_efficiency_sa>  (1) 
-1.3334385041324222

>  <r_i_glide_lipo>  (1) 
-1.6377561300323475

>  <r_i_glide_metal>  (1) 
-0

>  <r_i_glide_rewards>  (1) 
-2.6610734249454344

>  <r_lp_Energy>  (1) 
6.6371139999999995

>  <r_lp_tautomer_probability>  (1) 
1

>  <s_epik_cmdline>  (1) 
J2VwaWtfcHl0aG9uJywgJy1waHQnLCAnMS4wJywgJy1waCcsICc3LjQnLCAnLXRuJywgJzgnLCAnLW1hJywgJzUwMCcsICctaW1hZScsICc8aW5maWxlLm1hZT4nLCAnLW9tYWUnLCAnPG91dGZpbGUubWFlPic=

>  <s_epik_input>  (1) 
W0NIMl0xW0NIMl1PW0NIMl1bQ0gyXU9bQ0BIXTFbQ0gzXQ==

>  <s_glide_docking_method>  (1) 
confgen

>  <s_i_glide_gridfile>  (1) 
gpcr_5ht2c_6bqh_protein_autoprepared_prepared

>  <s_lp_Force_Field>  (1) 
S-OPLS

>  <s_lp_Variant>  (1) 
Pocket2Mol_47-1

>  <s_m_source_file>  (1) 
generated_GPCR_5HT2C_ligand_Pocket2Mol_2026-06-23_prepared.sdf

>  <GenAI_Model>  (1) 
Pocket2Mol

>  <Protein>  (1) 
GPCR_5HT2C

$$$$
Pocket2Mol_16
     RDKit          3D

  0  0  0  0  0  0  0  0  0  0999 V3000
M  V30 BEGIN CTAB
M  V30 COUNTS 18 18 0 0 1
M  V30 BEGIN ATOM
M  V30 1 C 39.645832 29.930967 52.682692 0
M  V30 2 C 38.591328 28.937683 53.191303 0
M  V30 3 C 40.204213 29.347960 51.367746 0
M  V30 4 C 38.792924 27.664946 52.368990 0
M  V30 5 C 39.288946 28.171910 51.018398 0
M  V30 6 C 40.352945 30.374293 50.239532 0
M  V30 7 H 40.445137 30.044032 53.413732 0
M  V30 8 H 39.245137 30.934475 52.559832 0
M  V30 9 H 38.671042 28.756957 54.263546 0
M  V30 10 H 37.596498 29.337635 53.001910 0
M  V30 11 H 41.192863 28.937751 51.576920 0
M  V30 12 H 39.557835 27.040038 52.831958 0
M  V30 13 H 37.882976 27.069874 52.286233 0
M  V30 14 H 38.445138 28.524289 50.427787 0
M  V30 15 H 39.797719 27.397322 50.443967 0
M  V30 16 H 39.395558 30.829304 49.983329 0
M  V30 17 H 40.752396 29.903559 49.342416 0
M  V30 18 H 41.036583 31.173497 50.525233 0
M  V30 END ATOM
M  V30 BEGIN BOND
M  V30 1 1 2 1
M  V30 2 1 3 1
M  V30 3 1 4 2
M  V30 4 1 5 3
M  V30 5 1 5 4
M  V30 6 1 6 3
M  V30 7 1 7 1
M  V30 8 1 8 1
M  V30 9 1 9 2
M  V30 10 1 10 2
M  V30 11 1 11 3
M  V30 12 1 12 4
M  V30 13 1 13 4
M  V30 14 1 14 5
M  V30 15 1 15 5
M  V30 16 1 16 6
M  V30 17 1 17 6
M  V30 18 1 18 6
M  V30 END BOND
M  V30 END CTAB
M  END
>  <i_epik_Tot_Q>  (1) 
0

>  <i_epik_Tot_abs_Q>  (1) 
0

>  <i_i_glide_confnum>  (1) 
2

>  <i_i_glide_lignum>  (1) 
19

>  <i_i_glide_posenum>  (1) 
384

>  <i_i_glide_rotatable_bonds>  (1) 
0

>  <i_lp_mmshare_version>  (1) 
72125

>  <i_m_source_file_index>  (1) 
17

>  <i_f3d_flags>  (1) 
0

>  <num_sample>  (1) 
100

>  <b_lp_Chiralities_Consistent>  (1) 
1

>  <r_epik_Charging_Adjusted_Penalty>  (1) 
0

>  <r_epik_Ionization_Penalty>  (1) 
0

>  <r_epik_Ionization_Penalty_Charging>  (1) 
0

>  <r_epik_Ionization_Penalty_Neutral>  (1) 
0

>  <r_epik_State_Penalty>  (1) 
-0

>  <r_glide_ring_energy>  (1) 
0.2204327727677606

>  <r_i_docking_score>  (1) 
-5.326128039128065

>  <r_i_glide_ecoul>  (1) 
-0.20315906235779982

>  <r_i_glide_eff_state_penalty>  (1) 
-0

>  <r_i_glide_einternal>  (1) 
0

>  <r_i_glide_emodel>  (1) 
-21.829060950594911

>  <r_i_glide_emodel_strain>  (1) 
0.14179956744466082

>  <r_i_glide_energy>  (1) 
-16.745753519427453

>  <r_i_glide_erotb>  (1) 
0

>  <r_i_glide_esite>  (1) 
0

>  <r_i_glide_evdw>  (1) 
-16.542594457069654

>  <r_i_glide_gscore>  (1) 
-5.326128039128065

>  <r_i_glide_gscore_strain>  (1) 
0

>  <r_i_glide_hbond>  (1) 
0

>  <r_i_glide_ligand_efficiency>  (1) 
-0.88768800652134416

>  <r_i_glide_ligand_efficiency_ln>  (1) 
-1.9078033397342731

>  <r_i_glide_ligand_efficiency_sa>  (1) 
-1.6130361566600453

>  <r_i_glide_lipo>  (1) 
-1.9660309402809579

>  <r_i_glide_metal>  (1) 
-0

>  <r_i_glide_rewards>  (1) 
-2.5024935166399547

>  <r_lp_Energy>  (1) 
6.4120089999999994

>  <r_lp_tautomer_probability>  (1) 
1

>  <s_epik_cmdline>  (1) 
J2VwaWtfcHl0aG9uJywgJy1waHQnLCAnMS4wJywgJy1waCcsICc3LjQnLCAnLXRuJywgJzgnLCAnLW1hJywgJzUwMCcsICctaW1hZScsICc8aW5maWxlLm1hZT4nLCAnLW9tYWUnLCAnPG91dGZpbGUubWFlPic=

>  <s_epik_input>  (1) 
W0NIM11bQ0hdMVtDSDJdW0NIMl1bQ0gyXVtDSDJdMQ==

>  <s_glide_docking_method>  (1) 
confgen

>  <s_i_glide_gridfile>  (1) 
gpcr_5ht2c_6bqh_protein_autoprepared_prepared

>  <s_lp_Force_Field>  (1) 
S-OPLS

>  <s_lp_Variant>  (1) 
Pocket2Mol_16-1

>  <s_m_source_file>  (1) 
generated_GPCR_5HT2C_ligand_Pocket2Mol_2026-06-23_prepared.sdf

>  <GenAI_Model>  (1) 
Pocket2Mol

>  <Protein>  (1) 
GPCR_5HT2C

$$$$
Pocket2Mol_32
     RDKit          3D

  0  0  0  0  0  0  0  0  0  0999 V3000
M  V30 BEGIN CTAB
M  V30 COUNTS 15 15 0 0 1
M  V30 BEGIN ATOM
M  V30 1 C 40.129953 30.595251 50.043213 0
M  V30 2 C 40.238802 30.937768 51.528142 0
M  V30 3 O 39.930762 29.737823 52.194638 0
M  V30 4 O 40.030466 29.185820 49.999795 0
M  V30 5 C 40.250674 28.744933 51.290808 0
M  V30 6 C 39.415224 27.485389 51.580371 0
M  V30 7 O 38.045142 27.779538 51.767698 0
M  V30 8 H 41.007377 30.936980 49.493307 0
M  V30 9 H 39.245192 31.045256 49.594693 0
M  V30 10 H 41.245281 31.256104 51.767821 0
M  V30 11 H 39.573979 31.737756 51.836014 0
M  V30 12 H 41.317331 28.537782 51.367762 0
M  V30 13 H 39.793808 27.011866 52.486495 0
M  V30 14 H 39.543039 26.782545 50.756560 0
M  V30 15 H 37.520123 27.004050 51.606604 0
M  V30 END ATOM
M  V30 BEGIN BOND
M  V30 1 1 2 1
M  V30 2 1 3 2
M  V30 3 1 4 1
M  V30 4 1 5 3
M  V30 5 1 5 4
M  V30 6 1 6 5
M  V30 7 1 7 6
M  V30 8 1 8 1
M  V30 9 1 9 1
M  V30 10 1 10 2
M  V30 11 1 11 2
M  V30 12 1 12 5
M  V30 13 1 13 6
M  V30 14 1 14 6
M  V30 15 1 15 7
M  V30 END BOND
M  V30 END CTAB
M  END
>  <i_epik_Tot_Q>  (1) 
0

>  <i_epik_Tot_abs_Q>  (1) 
0

>  <i_i_glide_confnum>  (1) 
1

>  <i_i_glide_lignum>  (1) 
35

>  <i_i_glide_posenum>  (1) 
285

>  <i_i_glide_rotatable_bonds>  (1) 
2

>  <i_lp_mmshare_version>  (1) 
72125

>  <i_m_source_file_index>  (1) 
33

>  <i_f3d_flags>  (1) 
0

>  <num_sample>  (1) 
100

>  <b_lp_Chiralities_Consistent>  (1) 
1

>  <r_epik_Charging_Adjusted_Penalty>  (1) 
0

>  <r_epik_Ionization_Penalty>  (1) 
3.4422651255072934e-07

>  <r_epik_Ionization_Penalty_Charging>  (1) 
0

>  <r_epik_Ionization_Penalty_Neutral>  (1) 
3.4422651255072934e-07

>  <r_epik_State_Penalty>  (1) 
-0

>  <r_glide_ring_energy>  (1) 
0

>  <r_i_docking_score>  (1) 
-5.3147254998236937

>  <r_i_glide_ecoul>  (1) 
-3.3541223003593323

>  <r_i_glide_eff_state_penalty>  (1) 
-0

>  <r_i_glide_einternal>  (1) 
1.8499862921426231

>  <r_i_glide_emodel>  (1) 
-22.271718578905308

>  <r_i_glide_emodel_strain>  (1) 
0.46375450875671653

>  <r_i_glide_energy>  (1) 
-17.802878272250823

>  <r_i_glide_erotb>  (1) 
0

>  <r_i_glide_esite>  (1) 
0

>  <r_i_glide_evdw>  (1) 
-14.448755971891492

>  <r_i_glide_gscore>  (1) 
-5.3147254998236937

>  <r_i_glide_gscore_strain>  (1) 
0

>  <r_i_glide_hbond>  (1) 
-0.31037154759901314

>  <r_i_glide_ligand_efficiency>  (1) 
-0.75924649997481342

>  <r_i_glide_ligand_efficiency_ln>  (1) 
-1.8041030550534631

>  <r_i_glide_ligand_efficiency_sa>  (1) 
-1.4523863052126165

>  <r_i_glide_lipo>  (1) 
-0.72466006061096833

>  <r_i_glide_metal>  (1) 
-0

>  <r_i_glide_rewards>  (1) 
-3.0541377479652376

>  <r_lp_Energy>  (1) 
-10.260740999999999

>  <r_lp_tautomer_probability>  (1) 
1

>  <s_epik_Chemistry_Notes>  (1) 
This compound contains an acetal/aminal-like group ( X-CH(R)-Y where X, Y are N, S, or O) that may be acid/base labile, releasing an aldehyde.

>  <s_epik_cmdline>  (1) 
J2VwaWtfcHl0aG9uJywgJy1waHQnLCAnMS4wJywgJy1waCcsICc3LjQnLCAnLXRuJywgJzgnLCAnLW1hJywgJzUwMCcsICctaW1hZScsICc8aW5maWxlLm1hZT4nLCAnLW9tYWUnLCAnPG91dGZpbGUubWFlPic=

>  <s_epik_input>  (1) 
TzFbQ0gyXVtDSDJdT1tDSF0xW0NIMl1bT0hd

>  <s_glide_docking_method>  (1) 
confgen

>  <s_i_glide_gridfile>  (1) 
gpcr_5ht2c_6bqh_protein_autoprepared_prepared

>  <s_lp_Force_Field>  (1) 
S-OPLS

>  <s_lp_Variant>  (1) 
Pocket2Mol_32-1

>  <s_m_source_file>  (1) 
generated_GPCR_5HT2C_ligand_Pocket2Mol_2026-06-23_prepared.sdf

>  <GenAI_Model>  (1) 
Pocket2Mol

>  <Protein>  (1) 
GPCR_5HT2C

$$$$
Pocket2Mol_32
     RDKit          3D

  0  0  0  0  0  0  0  0  0  0999 V3000
M  V30 BEGIN CTAB
M  V30 COUNTS 15 15 0 0 1
M  V30 BEGIN ATOM
M  V30 1 C 38.649600 26.990907 53.558288 0
M  V30 2 C 37.939814 28.329771 53.448955 0
M  V30 3 O 37.948547 28.537741 52.055067 0
M  V30 4 O 39.645119 27.121236 52.567867 0
M  V30 5 C 39.093374 27.916188 51.570079 0
M  V30 6 C 40.116387 28.998868 51.178176 0
M  V30 7 O 40.045136 29.337759 49.807254 0
M  V30 8 H 37.973474 26.171395 53.312365 0
M  V30 9 H 39.074047 26.811247 54.546069 0
M  V30 10 H 36.929443 28.316315 53.857759 0
M  V30 11 H 38.511348 29.117920 53.941268 0
M  V30 12 H 38.831838 27.270888 50.729175 0
M  V30 13 H 41.118804 28.613472 51.367760 0
M  V30 14 H 39.988136 29.880003 51.808240 0
M  V30 15 H 39.162391 29.627888 49.607466 0
M  V30 END ATOM
M  V30 BEGIN BOND
M  V30 1 1 2 1
M  V30 2 1 3 2
M  V30 3 1 4 1
M  V30 4 1 5 3
M  V30 5 1 5 4
M  V30 6 1 6 5
M  V30 7 1 7 6
M  V30 8 1 8 1
M  V30 9 1 9 1
M  V30 10 1 10 2
M  V30 11 1 11 2
M  V30 12 1 12 5
M  V30 13 1 13 6
M  V30 14 1 14 6
M  V30 15 1 15 7
M  V30 END BOND
M  V30 END CTAB
M  END
>  <i_epik_Tot_Q>  (1) 
0

>  <i_epik_Tot_abs_Q>  (1) 
0

>  <i_i_glide_confnum>  (1) 
2

>  <i_i_glide_lignum>  (1) 
35

>  <i_i_glide_posenum>  (1) 
223

>  <i_i_glide_rotatable_bonds>  (1) 
2

>  <i_lp_mmshare_version>  (1) 
72125

>  <i_m_source_file_index>  (1) 
33

>  <i_f3d_flags>  (1) 
0

>  <num_sample>  (1) 
100

>  <b_lp_Chiralities_Consistent>  (1) 
1

>  <r_epik_Charging_Adjusted_Penalty>  (1) 
0

>  <r_epik_Ionization_Penalty>  (1) 
3.4422651255072934e-07

>  <r_epik_Ionization_Penalty_Charging>  (1) 
0

>  <r_epik_Ionization_Penalty_Neutral>  (1) 
3.4422651255072934e-07

>  <r_epik_State_Penalty>  (1) 
-0

>  <r_glide_ring_energy>  (1) 
0.8940093629212682

>  <r_i_docking_score>  (1) 
-5.3088873325633861

>  <r_i_glide_ecoul>  (1) 
-2.9318298914390812

>  <r_i_glide_eff_state_penalty>  (1) 
-0

>  <r_i_glide_einternal>  (1) 
0.093418535692169846

>  <r_i_glide_emodel>  (1) 
-23.05913774666374

>  <r_i_glide_emodel_strain>  (1) 
0

>  <r_i_glide_energy>  (1) 
-17.254693548705827

>  <r_i_glide_erotb>  (1) 
0

>  <r_i_glide_esite>  (1) 
0

>  <r_i_glide_evdw>  (1) 
-14.322863657266746

>  <r_i_glide_gscore>  (1) 
-5.3088873325633861

>  <r_i_glide_gscore_strain>  (1) 
0

>  <r_i_glide_hbond>  (1) 
-0.32000000000000001

>  <r_i_glide_ligand_efficiency>  (1) 
-0.75841247608048368

>  <r_i_glide_ligand_efficiency_ln>  (1) 
-1.802121267773841

>  <r_i_glide_ligand_efficiency_sa>  (1) 
-1.4507908748979761

>  <r_i_glide_lipo>  (1) 
-0.94130299931752015

>  <r_i_glide_metal>  (1) 
-0

>  <r_i_glide_rewards>  (1) 
-2.8916666666666666

>  <r_lp_Energy>  (1) 
-10.260740999999999

>  <r_lp_tautomer_probability>  (1) 
1

>  <s_epik_Chemistry_Notes>  (1) 
This compound contains an acetal/aminal-like group ( X-CH(R)-Y where X, Y are N, S, or O) that may be acid/base labile, releasing an aldehyde.

>  <s_epik_cmdline>  (1) 
J2VwaWtfcHl0aG9uJywgJy1waHQnLCAnMS4wJywgJy1waCcsICc3LjQnLCAnLXRuJywgJzgnLCAnLW1hJywgJzUwMCcsICctaW1hZScsICc8aW5maWxlLm1hZT4nLCAnLW9tYWUnLCAnPG91dGZpbGUubWFlPic=

>  <s_epik_input>  (1) 
TzFbQ0gyXVtDSDJdT1tDSF0xW0NIMl1bT0hd

>  <s_glide_docking_method>  (1) 
confgen

>  <s_i_glide_gridfile>  (1) 
gpcr_5ht2c_6bqh_protein_autoprepared_prepared

>  <s_lp_Force_Field>  (1) 
S-OPLS

>  <s_lp_Variant>  (1) 
Pocket2Mol_32-1

>  <s_m_source_file>  (1) 
generated_GPCR_5HT2C_ligand_Pocket2Mol_2026-06-23_prepared.sdf

>  <GenAI_Model>  (1) 
Pocket2Mol

>  <Protein>  (1) 
GPCR_5HT2C

$$$$
Pocket2Mol_36
     RDKit          3D

  0  0  0  0  0  0  0  0  0  0999 V3000
M  V30 BEGIN CTAB
M  V30 COUNTS 19 19 0 0 1
M  V30 BEGIN ATOM
M  V30 1 C 40.040851 28.373770 50.967764 0
M  V30 2 C 39.785848 29.862410 51.149649 0
M  V30 3 C 38.942083 27.527827 51.613299 0
M  V30 4 O 40.876667 30.537771 50.567760 0
M  V30 5 C 38.786547 27.833637 53.109486 0
M  V30 6 C 38.610191 29.337783 53.367818 0
M  V30 7 C 39.645187 30.221831 52.646010 0
M  V30 8 H 40.108205 28.137664 49.907104 0
M  V30 9 H 41.004779 28.137755 51.412736 0
M  V30 10 H 38.886608 30.137736 50.597586 0
M  V30 11 H 37.997944 27.705756 51.099609 0
M  V30 12 H 39.184608 26.477655 51.472113 0
M  V30 13 H 40.724116 31.471040 50.612026 0
M  V30 14 H 37.927444 27.290259 53.504969 0
M  V30 15 H 39.645140 27.460240 53.660148 0
M  V30 16 H 37.629111 29.624454 53.017623 0
M  V30 17 H 38.622032 29.541300 54.439153 0
M  V30 18 H 40.602588 30.137678 53.153203 0
M  V30 19 H 39.364305 31.270552 52.750485 0
M  V30 END ATOM
M  V30 BEGIN BOND
M  V30 1 1 2 1
M  V30 2 1 3 1
M  V30 3 1 4 2
M  V30 4 1 5 3
M  V30 5 1 6 5
M  V30 6 1 7 2
M  V30 7 1 7 6
M  V30 8 1 8 1
M  V30 9 1 9 1
M  V30 10 1 10 2
M  V30 11 1 11 3
M  V30 12 1 12 3
M  V30 13 1 13 4
M  V30 14 1 14 5
M  V30 15 1 15 5
M  V30 16 1 16 6
M  V30 17 1 17 6
M  V30 18 1 18 7
M  V30 19 1 19 7
M  V30 END BOND
M  V30 END CTAB
M  END
>  <i_epik_Tot_Q>  (1) 
0

>  <i_epik_Tot_abs_Q>  (1) 
0

>  <i_i_glide_confnum>  (1) 
1

>  <i_i_glide_lignum>  (1) 
39

>  <i_i_glide_posenum>  (1) 
339

>  <i_i_glide_rotatable_bonds>  (1) 
1

>  <i_lp_mmshare_version>  (1) 
72125

>  <i_m_source_file_index>  (1) 
37

>  <i_f3d_flags>  (1) 
0

>  <num_sample>  (1) 
100

>  <b_lp_Chiralities_Consistent>  (1) 
1

>  <r_epik_Charging_Adjusted_Penalty>  (1) 
0

>  <r_epik_Ionization_Penalty>  (1) 
4.7751045033339745e-07

>  <r_epik_Ionization_Penalty_Charging>  (1) 
0

>  <r_epik_Ionization_Penalty_Neutral>  (1) 
4.7751045033339745e-07

>  <r_epik_State_Penalty>  (1) 
-0

>  <r_glide_ring_energy>  (1) 
0

>  <r_i_docking_score>  (1) 
-5.3048117672295128

>  <r_i_glide_ecoul>  (1) 
-0.74471333629734326

>  <r_i_glide_eff_state_penalty>  (1) 
-0

>  <r_i_glide_einternal>  (1) 
0.32032515345010026

>  <r_i_glide_emodel>  (1) 
-21.090297441431836

>  <r_i_glide_emodel_strain>  (1) 
0

>  <r_i_glide_energy>  (1) 
-16.193243606536161

>  <r_i_glide_erotb>  (1) 
0

>  <r_i_glide_esite>  (1) 
0

>  <r_i_glide_evdw>  (1) 
-15.448530270238818

>  <r_i_glide_gscore>  (1) 
-5.3048117672295128

>  <r_i_glide_gscore_strain>  (1) 
0

>  <r_i_glide_hbond>  (1) 
0

>  <r_i_glide_ligand_efficiency>  (1) 
-0.75783025246135893

>  <r_i_glide_ligand_efficiency_ln>  (1) 
-1.8007378021799632

>  <r_i_glide_ligand_efficiency_sa>  (1) 
-1.4496771211816057

>  <r_i_glide_lipo>  (1) 
-1.886810377476476

>  <r_i_glide_metal>  (1) 
-0

>  <r_i_glide_rewards>  (1) 
-2.5338678757964939

>  <r_lp_Energy>  (1) 
3.8568439999999997

>  <r_lp_tautomer_probability>  (1) 
1

>  <s_epik_cmdline>  (1) 
J2VwaWtfcHl0aG9uJywgJy1waHQnLCAnMS4wJywgJy1waCcsICc3LjQnLCAnLXRuJywgJzgnLCAnLW1hJywgJzUwMCcsICctaW1hZScsICc8aW5maWxlLm1hZT4nLCAnLW9tYWUnLCAnPG91dGZpbGUubWFlPic=

>  <s_epik_input>  (1) 
W09IXVtDSF0xW0NIMl1bQ0gyXVtDSDJdW0NIMl1bQ0gyXTE=

>  <s_glide_docking_method>  (1) 
confgen

>  <s_i_glide_gridfile>  (1) 
gpcr_5ht2c_6bqh_protein_autoprepared_prepared

>  <s_lp_Force_Field>  (1) 
S-OPLS

>  <s_lp_Variant>  (1) 
Pocket2Mol_36-1

>  <s_m_source_file>  (1) 
generated_GPCR_5HT2C_ligand_Pocket2Mol_2026-06-23_prepared.sdf

>  <GenAI_Model>  (1) 
Pocket2Mol

>  <Protein>  (1) 
GPCR_5HT2C

$$$$
Pocket2Mol_47
     RDKit          3D

  0  0  0  0  0  0  0  0  0  0999 V3000
M  V30 BEGIN CTAB
M  V30 COUNTS 20 20 0 0 1
M  V30 BEGIN ATOM
M  V30 1 C 38.128876 27.710762 53.180050 0
M  V30 2 O 38.971774 28.431321 54.070360 0
M  V30 3 C 38.836028 29.841138 53.947408 0
M  V30 4 C 38.719640 27.646963 51.767697 0
M  V30 5 O 38.845196 28.937720 51.188461 0
M  V30 6 C 40.009316 29.636060 51.603091 0 CFG=1
M  V30 7 C 40.445141 30.510901 50.422984 0
M  V30 8 C 39.758629 30.465996 52.884587 0
M  V30 9 H 38.041563 26.693663 53.562838 0
M  V30 10 H 37.114118 28.112312 53.165280 0
M  V30 11 H 37.796760 30.120588 53.767760 0
M  V30 12 H 39.082759 30.280875 54.914051 0
M  V30 13 H 39.658952 27.095415 51.756619 0
M  V30 14 H 38.045145 27.074649 51.132980 0
M  V30 15 H 40.825285 28.931609 51.767797 0
M  V30 16 H 41.388186 31.011913 50.636536 0
M  V30 17 H 40.591100 29.907435 49.526687 0
M  V30 18 H 39.699213 31.271849 50.191167 0
M  V30 19 H 39.344513 31.439501 52.621126 0
M  V30 20 H 40.720425 30.689096 53.345386 0
M  V30 END ATOM
M  V30 BEGIN BOND
M  V30 1 1 2 1
M  V30 2 1 3 2
M  V30 3 1 4 1
M  V30 4 1 5 4
M  V30 5 1 6 5
M  V30 6 1 7 6
M  V30 7 1 8 3
M  V30 8 1 8 6
M  V30 9 1 9 1
M  V30 10 1 10 1
M  V30 11 1 11 3
M  V30 12 1 12 3
M  V30 13 1 13 4
M  V30 14 1 14 4
M  V30 15 1 6 15 CFG=1
M  V30 16 1 16 7
M  V30 17 1 17 7
M  V30 18 1 18 7
M  V30 19 1 19 8
M  V30 20 1 20 8
M  V30 END BOND
M  V30 END CTAB
M  END
>  <i_epik_Tot_Q>  (1) 
0

>  <i_epik_Tot_abs_Q>  (1) 
0

>  <i_i_glide_confnum>  (1) 
6

>  <i_i_glide_lignum>  (1) 
50

>  <i_i_glide_posenum>  (1) 
323

>  <i_i_glide_rotatable_bonds>  (1) 
0

>  <i_lp_mmshare_version>  (1) 
72125

>  <i_m_source_file_index>  (1) 
48

>  <i_f3d_flags>  (1) 
0

>  <num_sample>  (1) 
100

>  <b_lp_Chiralities_Consistent>  (1) 
1

>  <r_epik_Charging_Adjusted_Penalty>  (1) 
0

>  <r_epik_Ionization_Penalty>  (1) 
4.0259461194199272e-12

>  <r_epik_Ionization_Penalty_Charging>  (1) 
0

>  <r_epik_Ionization_Penalty_Neutral>  (1) 
4.0259461194199272e-12

>  <r_epik_State_Penalty>  (1) 
-0

>  <r_glide_ring_energy>  (1) 
0.28092827696695249

>  <r_i_docking_score>  (1) 
-5.3028742690952209

>  <r_i_glide_ecoul>  (1) 
-0.6176343715001914

>  <r_i_glide_eff_state_penalty>  (1) 
-0

>  <r_i_glide_einternal>  (1) 
0

>  <r_i_glide_emodel>  (1) 
-25.746153574700021

>  <r_i_glide_emodel_strain>  (1) 
0

>  <r_i_glide_energy>  (1) 
-19.748786197835436

>  <r_i_glide_erotb>  (1) 
0

>  <r_i_glide_esite>  (1) 
0

>  <r_i_glide_evdw>  (1) 
-19.131151826335245

>  <r_i_glide_gscore>  (1) 
-5.3028742690952209

>  <r_i_glide_gscore_strain>  (1) 
0

>  <r_i_glide_hbond>  (1) 
0

>  <r_i_glide_ligand_efficiency>  (1) 
-0.66285928363690261

>  <r_i_glide_ligand_efficiency_ln>  (1) 
-1.7220246584718417

>  <r_i_glide_ligand_efficiency_sa>  (1) 
-1.3257185672738054

>  <r_i_glide_lipo>  (1) 
-1.826195713293193

>  <r_i_glide_metal>  (1) 
-0

>  <r_i_glide_rewards>  (1) 
-2.4274758087602368

>  <r_lp_Energy>  (1) 
6.6371139999999995

>  <r_lp_tautomer_probability>  (1) 
1

>  <s_epik_cmdline>  (1) 
J2VwaWtfcHl0aG9uJywgJy1waHQnLCAnMS4wJywgJy1waCcsICc3LjQnLCAnLXRuJywgJzgnLCAnLW1hJywgJzUwMCcsICctaW1hZScsICc8aW5maWxlLm1hZT4nLCAnLW9tYWUnLCAnPG91dGZpbGUubWFlPic=

>  <s_epik_input>  (1) 
W0NIMl0xW0NIMl1PW0NIMl1bQ0gyXU9bQ0BIXTFbQ0gzXQ==

>  <s_glide_docking_method>  (1) 
confgen

>  <s_i_glide_gridfile>  (1) 
gpcr_5ht2c_6bqh_protein_autoprepared_prepared

>  <s_lp_Force_Field>  (1) 
S-OPLS

>  <s_lp_Variant>  (1) 
Pocket2Mol_47-1

>  <s_m_source_file>  (1) 
generated_GPCR_5HT2C_ligand_Pocket2Mol_2026-06-23_prepared.sdf

>  <GenAI_Model>  (1) 
Pocket2Mol

>  <Protein>  (1) 
GPCR_5HT2C

$$$$
Pocket2Mol_30
     RDKit          3D

  0  0  0  0  0  0  0  0  0  0999 V3000
M  V30 BEGIN CTAB
M  V30 COUNTS 14 14 0 0 1
M  V30 BEGIN ATOM
M  V30 1 C 38.451293 27.827407 52.138395 0
M  V30 2 C 38.450895 28.716273 53.230422 0
M  V30 3 C 39.247134 29.878550 53.193487 0
M  V30 4 N 39.245182 30.759643 54.272677 0
M  V30 5 C 39.246785 28.099046 51.007603 0
M  V30 6 C 40.045137 30.150221 52.060925 0
M  V30 7 C 40.043604 29.260793 50.968804 0
M  V30 8 H 37.839998 26.937874 52.167523 0
M  V30 9 H 37.839001 28.506349 54.095644 0
M  V30 10 H 39.671726 31.670743 54.182354 0
M  V30 11 H 38.554121 30.668993 55.004980 0
M  V30 12 H 39.245155 27.416513 50.169842 0
M  V30 13 H 40.654598 31.042117 52.028929 0
M  V30 14 H 40.651954 29.470435 50.101652 0
M  V30 END ATOM
M  V30 BEGIN BOND
M  V30 1 1 2 1
M  V30 2 2 3 2
M  V30 3 1 4 3
M  V30 4 2 5 1
M  V30 5 1 6 3
M  V30 6 1 7 5
M  V30 7 2 7 6
M  V30 8 1 8 1
M  V30 9 1 9 2
M  V30 10 1 10 4
M  V30 11 1 11 4
M  V30 12 1 12 5
M  V30 13 1 13 6
M  V30 14 1 14 7
M  V30 END BOND
M  V30 END CTAB
M  END
>  <i_epik_Tot_Q>  (1) 
0

>  <i_epik_Tot_abs_Q>  (1) 
0

>  <i_i_glide_confnum>  (1) 
1

>  <i_i_glide_lignum>  (1) 
33

>  <i_i_glide_posenum>  (1) 
198

>  <i_i_glide_rotatable_bonds>  (1) 
0

>  <i_lp_mmshare_version>  (1) 
72125

>  <i_m_source_file_index>  (1) 
31

>  <i_f3d_flags>  (1) 
0

>  <num_sample>  (1) 
100

>  <b_lp_Chiralities_Consistent>  (1) 
1

>  <r_epik_Charging_Adjusted_Penalty>  (1) 
0

>  <r_epik_Ionization_Penalty>  (1) 
0.00088153335660618348

>  <r_epik_Ionization_Penalty_Charging>  (1) 
0

>  <r_epik_Ionization_Penalty_Neutral>  (1) 
0.00088153335660618348

>  <r_epik_State_Penalty>  (1) 
-0

>  <r_glide_ring_energy>  (1) 
0

>  <r_i_docking_score>  (1) 
-5.2881460927850323

>  <r_i_glide_ecoul>  (1) 
-1.1928468528179053

>  <r_i_glide_eff_state_penalty>  (1) 
-0

>  <r_i_glide_einternal>  (1) 
0

>  <r_i_glide_emodel>  (1) 
-23.679856333973497

>  <r_i_glide_emodel_strain>  (1) 
0

>  <r_i_glide_energy>  (1) 
-17.839712992778509

>  <r_i_glide_erotb>  (1) 
0

>  <r_i_glide_esite>  (1) 
0

>  <r_i_glide_evdw>  (1) 
-16.646866139960604

>  <r_i_glide_gscore>  (1) 
-5.2881460927850323

>  <r_i_glide_gscore_strain>  (1) 
0

>  <r_i_glide_hbond>  (1) 
0

>  <r_i_glide_ligand_efficiency>  (1) 
-0.75544944182643314

>  <r_i_glide_ligand_efficiency_ln>  (1) 
-1.7950805778923098

>  <r_i_glide_ligand_efficiency_sa>  (1) 
-1.44512279427778

>  <r_i_glide_lipo>  (1) 
-1.8108420603080142

>  <r_i_glide_metal>  (1) 
-0

>  <r_i_glide_rewards>  (1) 
-2.466033697556302

>  <r_lp_Energy>  (1) 
7.0325409999999993

>  <r_lp_tautomer_probability>  (1) 
1

>  <s_epik_cmdline>  (1) 
J2VwaWtfcHl0aG9uJywgJy1waHQnLCAnMS4wJywgJy1waCcsICc3LjQnLCAnLXRuJywgJzgnLCAnLW1hJywgJzUwMCcsICctaW1hZScsICc8aW5maWxlLm1hZT4nLCAnLW9tYWUnLCAnPG91dGZpbGUubWFlPic=

>  <s_epik_input>  (1) 
W2NIXTFbY0hdW2NIXVtjSF1bY0hdYzFbTkgyXQ==

>  <s_glide_docking_method>  (1) 
confgen

>  <s_i_glide_gridfile>  (1) 
gpcr_5ht2c_6bqh_protein_autoprepared_prepared

>  <s_lp_Force_Field>  (1) 
S-OPLS

>  <s_lp_Variant>  (1) 
Pocket2Mol_30-1

>  <s_m_source_file>  (1) 
generated_GPCR_5HT2C_ligand_Pocket2Mol_2026-06-23_prepared.sdf

>  <GenAI_Model>  (1) 
Pocket2Mol

>  <Protein>  (1) 
GPCR_5HT2C

$$$$
Pocket2Mol_10
     RDKit          3D

  0  0  0  0  0  0  0  0  0  0999 V3000
M  V30 BEGIN CTAB
M  V30 COUNTS 12 12 0 0 1
M  V30 BEGIN ATOM
M  V30 1 C 40.045156 30.360344 51.978981 0
M  V30 2 C 39.244867 29.728019 52.987466 0
M  V30 3 C 38.734789 28.516090 52.584423 0
M  V30 4 C 37.857488 27.589391 53.356364 0
M  V30 5 C 40.131823 29.619174 50.829831 0
M  V30 6 S 39.245212 28.138741 50.967763 0
M  V30 7 H 40.516533 31.320404 52.132369 0
M  V30 8 H 39.071849 30.180236 53.953462 0
M  V30 9 H 37.833503 27.859446 54.412853 0
M  V30 10 H 36.839004 27.620400 52.969650 0
M  V30 11 H 38.209413 26.560831 53.279606 0
M  V30 12 H 40.661835 29.854616 49.919441 0
M  V30 END ATOM
M  V30 BEGIN BOND
M  V30 1 1 2 1
M  V30 2 2 3 2
M  V30 3 1 4 3
M  V30 4 2 5 1
M  V30 5 1 6 3
M  V30 6 1 6 5
M  V30 7 1 7 1
M  V30 8 1 8 2
M  V30 9 1 9 4
M  V30 10 1 10 4
M  V30 11 1 11 4
M  V30 12 1 12 5
M  V30 END BOND
M  V30 END CTAB
M  END
>  <i_epik_Tot_Q>  (1) 
0

>  <i_epik_Tot_abs_Q>  (1) 
0

>  <i_i_glide_confnum>  (1) 
1

>  <i_i_glide_lignum>  (1) 
13

>  <i_i_glide_posenum>  (1) 
229

>  <i_i_glide_rotatable_bonds>  (1) 
0

>  <i_lp_mmshare_version>  (1) 
72125

>  <i_m_source_file_index>  (1) 
11

>  <i_f3d_flags>  (1) 
0

>  <num_sample>  (1) 
100

>  <b_lp_Chiralities_Consistent>  (1) 
1

>  <r_epik_Charging_Adjusted_Penalty>  (1) 
0

>  <r_epik_Ionization_Penalty>  (1) 
0

>  <r_epik_Ionization_Penalty_Charging>  (1) 
0

>  <r_epik_Ionization_Penalty_Neutral>  (1) 
0

>  <r_epik_State_Penalty>  (1) 
-0

>  <r_glide_ring_energy>  (1) 
0

>  <r_i_docking_score>  (1) 
-5.2846953382515194

>  <r_i_glide_ecoul>  (1) 
-0.45474813307909018

>  <r_i_glide_eff_state_penalty>  (1) 
-0

>  <r_i_glide_einternal>  (1) 
0

>  <r_i_glide_emodel>  (1) 
-23.602557387815953

>  <r_i_glide_emodel_strain>  (1) 
0

>  <r_i_glide_energy>  (1) 
-17.693144341418201

>  <r_i_glide_erotb>  (1) 
0

>  <r_i_glide_esite>  (1) 
0

>  <r_i_glide_evdw>  (1) 
-17.238396208339111

>  <r_i_glide_gscore>  (1) 
-5.2846953382515194

>  <r_i_glide_gscore_strain>  (1) 
0

>  <r_i_glide_hbond>  (1) 
0

>  <r_i_glide_ligand_efficiency>  (1) 
-0.88078255637525327

>  <r_i_glide_ligand_efficiency_ln>  (1) 
-1.8929622685985845

>  <r_i_glide_ligand_efficiency_sa>  (1) 
-1.6004881209968078

>  <r_i_glide_lipo>  (1) 
-1.7384396289753432

>  <r_i_glide_metal>  (1) 
-0

>  <r_i_glide_rewards>  (1) 
-2.6161236788973565

>  <r_lp_Energy>  (1) 
3.145988

>  <r_lp_tautomer_probability>  (1) 
1

>  <s_epik_cmdline>  (1) 
J2VwaWtfcHl0aG9uJywgJy1waHQnLCAnMS4wJywgJy1waCcsICc3LjQnLCAnLXRuJywgJzgnLCAnLW1hJywgJzUwMCcsICctaW1hZScsICc8aW5maWxlLm1hZT4nLCAnLW9tYWUnLCAnPG91dGZpbGUubWFlPic=

>  <s_epik_input>  (1) 
czFbY0hdW2NIXVtjSF1jMVtDSDNd

>  <s_glide_docking_method>  (1) 
confgen

>  <s_i_glide_gridfile>  (1) 
gpcr_5ht2c_6bqh_protein_autoprepared_prepared

>  <s_lp_Force_Field>  (1) 
S-OPLS

>  <s_lp_Variant>  (1) 
Pocket2Mol_10-1

>  <s_m_source_file>  (1) 
generated_GPCR_5HT2C_ligand_Pocket2Mol_2026-06-23_prepared.sdf

>  <GenAI_Model>  (1) 
Pocket2Mol

>  <Protein>  (1) 
GPCR_5HT2C

$$$$
Pocket2Mol_65
     RDKit          3D

  0  0  0  0  0  0  0  0  0  0999 V3000
M  V30 BEGIN CTAB
M  V30 COUNTS 20 20 0 0 1
M  V30 BEGIN ATOM
M  V30 1 C 39.961470 29.698063 51.514261 0
M  V30 2 C 39.198663 28.375378 51.421833 0
M  V30 3 C 39.645180 30.225053 52.915553 0
M  V30 4 C 38.667844 29.207639 53.498618 0
M  V30 5 N 39.017971 27.974074 52.808272 0
M  V30 6 N 38.039188 26.937755 52.967998 0 CHG=1
M  V30 7 C 38.104714 26.100812 54.023791 0
M  V30 8 N 39.069724 26.198570 54.956534 0
M  V30 9 H 41.032741 29.532922 51.390903 0
M  V30 10 H 39.645480 30.390178 50.732170 0
M  V30 11 H 39.730763 27.623052 50.838825 0
M  V30 12 H 38.223884 28.539618 50.960572 0
M  V30 13 H 40.547797 30.254131 53.523825 0
M  V30 14 H 39.243920 31.238460 52.907412 0
M  V30 15 H 37.643286 29.493597 53.262941 0
M  V30 16 H 38.758363 29.120700 54.582385 0
M  V30 17 H 37.355251 25.323597 54.123446 0
M  V30 18 H 39.774937 26.917762 54.877074 0
M  V30 19 H 39.090466 25.555317 55.735718 0
M  V30 20 H 37.330380 26.871090 52.243377 0
M  V30 END ATOM
M  V30 BEGIN BOND
M  V30 1 1 2 1
M  V30 2 1 3 1
M  V30 3 1 4 3
M  V30 4 1 5 2
M  V30 5 1 5 4
M  V30 6 1 6 5
M  V30 7 2 7 6
M  V30 8 1 8 7
M  V30 9 1 9 1
M  V30 10 1 10 1
M  V30 11 1 11 2
M  V30 12 1 12 2
M  V30 13 1 13 3
M  V30 14 1 14 3
M  V30 15 1 15 4
M  V30 16 1 16 4
M  V30 17 1 17 7
M  V30 18 1 18 8
M  V30 19 1 19 8
M  V30 20 1 20 6
M  V30 END BOND
M  V30 END CTAB
M  END
>  <i_epik_Tot_Q>  (1) 
1

>  <i_epik_Tot_abs_Q>  (1) 
1

>  <i_i_glide_confnum>  (1) 
2

>  <i_i_glide_lignum>  (1) 
70

>  <i_i_glide_posenum>  (1) 
316

>  <i_i_glide_rotatable_bonds>  (1) 
1

>  <i_lp_mmshare_version>  (1) 
72125

>  <i_m_source_file_index>  (1) 
66

>  <i_f3d_flags>  (1) 
0

>  <num_sample>  (1) 
100

>  <b_lp_Chiralities_Consistent>  (1) 
1

>  <r_epik_Charging_Adjusted_Penalty>  (1) 
1.6312684749255997e-05

>  <r_epik_Ionization_Penalty>  (1) 
1.6401951855999153e-05

>  <r_epik_Ionization_Penalty_Charging>  (1) 
1.6312684749255997e-05

>  <r_epik_Ionization_Penalty_Neutral>  (1) 
8.9267106743156534e-08

>  <r_epik_State_Penalty>  (1) 
-0

>  <r_glide_ring_energy>  (1) 
0.002520034235707866

>  <r_i_docking_score>  (1) 
-5.2840430468354764

>  <r_i_glide_ecoul>  (1) 
-2.9586593600506115

>  <r_i_glide_eff_state_penalty>  (1) 
-0

>  <r_i_glide_einternal>  (1) 
0.13701006690537865

>  <r_i_glide_emodel>  (1) 
-27.169484973296402

>  <r_i_glide_emodel_strain>  (1) 
0.011124336724247286

>  <r_i_glide_energy>  (1) 
-17.052831551799429

>  <r_i_glide_erotb>  (1) 
0

>  <r_i_glide_esite>  (1) 
0

>  <r_i_glide_evdw>  (1) 
-14.094172191748818

>  <r_i_glide_gscore>  (1) 
-5.2840430468354764

>  <r_i_glide_gscore_strain>  (1) 
0

>  <r_i_glide_hbond>  (1) 
0

>  <r_i_glide_ligand_efficiency>  (1) 
-0.66050538085443455

>  <r_i_glide_ligand_efficiency_ln>  (1) 
-1.7159095164875351

>  <r_i_glide_ligand_efficiency_sa>  (1) 
-1.3210107617088693

>  <r_i_glide_lipo>  (1) 
-1.266690209413067

>  <r_i_glide_metal>  (1) 
-0

>  <r_i_glide_rewards>  (1) 
-2.8688453238273763

>  <r_lp_Energy>  (1) 
13.886725999999999

>  <r_lp_tautomer_probability>  (1) 
1

>  <s_epik_Chemistry_Notes>  (1) 
This compound has an imine and may undergo hydrolysis.

>  <s_epik_cmdline>  (1) 
J2VwaWtfcHl0aG9uJywgJy1waHQnLCAnMS4wJywgJy1waCcsICc3LjQnLCAnLXRuJywgJzgnLCAnLW1hJywgJzUwMCcsICctaW1hZScsICc8aW5maWxlLm1hZT4nLCAnLW9tYWUnLCAnPG91dGZpbGUubWFlPic=

>  <s_epik_input>  (1) 
W0NIMl0xW0NIMl1bQ0gyXVtDSDJdTjEvTj1bQ0hdXFtOSDJd

>  <s_glide_docking_method>  (1) 
confgen

>  <s_i_glide_gridfile>  (1) 
gpcr_5ht2c_6bqh_protein_autoprepared_prepared

>  <s_lp_Force_Field>  (1) 
S-OPLS

>  <s_lp_Variant>  (1) 
Pocket2Mol_65-2

>  <s_m_source_file>  (1) 
generated_GPCR_5HT2C_ligand_Pocket2Mol_2026-06-23_prepared.sdf

>  <GenAI_Model>  (1) 
Pocket2Mol

>  <Protein>  (1) 
GPCR_5HT2C

$$$$
Pocket2Mol_65
     RDKit          3D

  0  0  0  0  0  0  0  0  0  0999 V3000
M  V30 BEGIN CTAB
M  V30 COUNTS 20 20 0 0 1
M  V30 BEGIN ATOM
M  V30 1 C 38.778256 25.818188 55.252832 0
M  V30 2 C 38.683905 27.162445 54.542881 0
M  V30 3 C 39.933873 26.016493 56.223395 0
M  V30 4 C 40.099158 27.534518 56.350393 0
M  V30 5 N 38.967539 28.092285 55.623901 0
M  V30 6 N 39.169029 29.444191 55.183477 0 CHG=1
M  V30 7 C 38.299747 30.403426 55.549206 0
M  V30 8 N 37.245138 30.137756 56.332009 0
M  V30 9 H 37.856059 25.619681 55.801409 0
M  V30 10 H 38.944734 24.987522 54.567771 0
M  V30 11 H 37.703461 27.332724 54.096310 0
M  V30 12 H 39.444162 27.237208 53.763480 0
M  V30 13 H 39.739949 25.537582 57.183729 0
M  V30 14 H 40.845118 25.584546 55.811773 0
M  V30 15 H 41.038468 27.843816 55.890957 0
M  V30 16 H 40.103039 27.867258 57.389059 0
M  V30 17 H 38.455521 31.418369 55.200556 0
M  V30 18 H 37.095622 29.201031 56.674189 0
M  V30 19 H 36.567279 30.886682 56.567761 0
M  V30 20 H 39.973743 29.611083 54.595176 0
M  V30 END ATOM
M  V30 BEGIN BOND
M  V30 1 1 2 1
M  V30 2 1 3 1
M  V30 3 1 4 3
M  V30 4 1 5 2
M  V30 5 1 5 4
M  V30 6 1 6 5
M  V30 7 2 7 6
M  V30 8 1 8 7
M  V30 9 1 9 1
M  V30 10 1 10 1
M  V30 11 1 11 2
M  V30 12 1 12 2
M  V30 13 1 13 3
M  V30 14 1 14 3
M  V30 15 1 15 4
M  V30 16 1 16 4
M  V30 17 1 17 7
M  V30 18 1 18 8
M  V30 19 1 19 8
M  V30 20 1 20 6
M  V30 END BOND
M  V30 END CTAB
M  END
>  <i_epik_Tot_Q>  (1) 
1

>  <i_epik_Tot_abs_Q>  (1) 
1

>  <i_i_glide_confnum>  (1) 
1

>  <i_i_glide_lignum>  (1) 
70

>  <i_i_glide_posenum>  (1) 
36

>  <i_i_glide_rotatable_bonds>  (1) 
1

>  <i_lp_mmshare_version>  (1) 
72125

>  <i_m_source_file_index>  (1) 
66

>  <i_f3d_flags>  (1) 
0

>  <num_sample>  (1) 
100

>  <b_lp_Chiralities_Consistent>  (1) 
1

>  <r_epik_Charging_Adjusted_Penalty>  (1) 
1.6312684749255997e-05

>  <r_epik_Ionization_Penalty>  (1) 
1.6401951855999153e-05

>  <r_epik_Ionization_Penalty_Charging>  (1) 
1.6312684749255997e-05

>  <r_epik_Ionization_Penalty_Neutral>  (1) 
8.9267106743156534e-08

>  <r_epik_State_Penalty>  (1) 
-0

>  <r_glide_ring_energy>  (1) 
0

>  <r_i_docking_score>  (1) 
-5.2778686982772403

>  <r_i_glide_ecoul>  (1) 
-6.2330458574337335

>  <r_i_glide_eff_state_penalty>  (1) 
-0

>  <r_i_glide_einternal>  (1) 
0.0018414508051163847

>  <r_i_glide_emodel>  (1) 
-26.769278703287387

>  <r_i_glide_emodel_strain>  (1) 
0.072108824311364117

>  <r_i_glide_energy>  (1) 
-16.657939710207685

>  <r_i_glide_erotb>  (1) 
0

>  <r_i_glide_esite>  (1) 
-0.13637690511585115

>  <r_i_glide_evdw>  (1) 
-10.424893852773954

>  <r_i_glide_gscore>  (1) 
-5.2778686982772403

>  <r_i_glide_gscore_strain>  (1) 
0

>  <r_i_glide_hbond>  (1) 
-0.20000000000000001

>  <r_i_glide_ligand_efficiency>  (1) 
-0.65973358728465503

>  <r_i_glide_ligand_efficiency_ln>  (1) 
-1.7139044943188504

>  <r_i_glide_ligand_efficiency_sa>  (1) 
-1.3194671745693103

>  <r_i_glide_lipo>  (1) 
-1.0140449843619959

>  <r_i_glide_metal>  (1) 
-0

>  <r_i_glide_rewards>  (1) 
-2.4712452375456353

>  <r_lp_Energy>  (1) 
13.886725999999999

>  <r_lp_tautomer_probability>  (1) 
1

>  <s_epik_Chemistry_Notes>  (1) 
This compound has an imine and may undergo hydrolysis.

>  <s_epik_cmdline>  (1) 
J2VwaWtfcHl0aG9uJywgJy1waHQnLCAnMS4wJywgJy1waCcsICc3LjQnLCAnLXRuJywgJzgnLCAnLW1hJywgJzUwMCcsICctaW1hZScsICc8aW5maWxlLm1hZT4nLCAnLW9tYWUnLCAnPG91dGZpbGUubWFlPic=

>  <s_epik_input>  (1) 
W0NIMl0xW0NIMl1bQ0gyXVtDSDJdTjEvTj1bQ0hdXFtOSDJd

>  <s_glide_docking_method>  (1) 
confgen

>  <s_i_glide_gridfile>  (1) 
gpcr_5ht2c_6bqh_protein_autoprepared_prepared

>  <s_lp_Force_Field>  (1) 
S-OPLS

>  <s_lp_Variant>  (1) 
Pocket2Mol_65-2

>  <s_m_source_file>  (1) 
generated_GPCR_5HT2C_ligand_Pocket2Mol_2026-06-23_prepared.sdf

>  <GenAI_Model>  (1) 
Pocket2Mol

>  <Protein>  (1) 
GPCR_5HT2C

$$$$
Pocket2Mol_31
     RDKit          3D

  0  0  0  0  0  0  0  0  0  0999 V3000
M  V30 BEGIN CTAB
M  V30 COUNTS 17 17 0 0 1
M  V30 BEGIN ATOM
M  V30 1 C 39.245133 28.118342 51.155950 0
M  V30 2 C 38.845139 28.023257 52.626885 0
M  V30 3 C 38.600107 29.337765 53.366859 0
M  V30 4 O 38.724571 26.937926 53.190208 0
M  V30 5 C 40.364692 29.151200 50.949511 0
M  V30 6 C 39.671335 30.401386 53.061058 0
M  V30 7 C 40.045139 30.515849 51.567138 0
M  V30 8 H 39.557387 27.137677 50.795177 0
M  V30 9 H 38.367817 28.403922 50.578222 0
M  V30 10 H 37.631928 29.712549 53.057993 0
M  V30 11 H 38.541096 29.152501 54.439674 0
M  V30 12 H 41.293846 28.767257 51.367754 0
M  V30 13 H 40.536094 29.283812 49.881072 0
M  V30 14 H 39.330580 31.371889 53.422537 0
M  V30 15 H 40.561888 30.170752 53.642502 0
M  V30 16 H 39.245139 30.975835 50.989081 0
M  V30 17 H 40.898127 31.183682 51.452086 0
M  V30 END ATOM
M  V30 BEGIN BOND
M  V30 1 1 2 1
M  V30 2 1 3 2
M  V30 3 2 4 2
M  V30 4 1 5 1
M  V30 5 1 6 3
M  V30 6 1 7 5
M  V30 7 1 7 6
M  V30 8 1 8 1
M  V30 9 1 9 1
M  V30 10 1 10 3
M  V30 11 1 11 3
M  V30 12 1 12 5
M  V30 13 1 13 5
M  V30 14 1 14 6
M  V30 15 1 15 6
M  V30 16 1 16 7
M  V30 17 1 17 7
M  V30 END BOND
M  V30 END CTAB
M  END
>  <i_epik_Tot_Q>  (1) 
0

>  <i_epik_Tot_abs_Q>  (1) 
0

>  <i_i_glide_confnum>  (1) 
1

>  <i_i_glide_lignum>  (1) 
34

>  <i_i_glide_posenum>  (1) 
145

>  <i_i_glide_rotatable_bonds>  (1) 
0

>  <i_lp_mmshare_version>  (1) 
72125

>  <i_m_source_file_index>  (1) 
32

>  <i_f3d_flags>  (1) 
0

>  <num_sample>  (1) 
100

>  <b_lp_Chiralities_Consistent>  (1) 
1

>  <r_epik_Charging_Adjusted_Penalty>  (1) 
0

>  <r_epik_Ionization_Penalty>  (1) 
3.7730911281982554e-13

>  <r_epik_Ionization_Penalty_Charging>  (1) 
0

>  <r_epik_Ionization_Penalty_Neutral>  (1) 
3.7730911281982554e-13

>  <r_epik_State_Penalty>  (1) 
-0

>  <r_glide_ring_energy>  (1) 
0

>  <r_i_docking_score>  (1) 
-5.2702958165675797

>  <r_i_glide_ecoul>  (1) 
0.17148765706626407

>  <r_i_glide_eff_state_penalty>  (1) 
-0

>  <r_i_glide_einternal>  (1) 
0

>  <r_i_glide_emodel>  (1) 
-21.26824423728241

>  <r_i_glide_emodel_strain>  (1) 
0

>  <r_i_glide_energy>  (1) 
-15.792820542551935

>  <r_i_glide_erotb>  (1) 
0

>  <r_i_glide_esite>  (1) 
0

>  <r_i_glide_evdw>  (1) 
-15.964308199618198

>  <r_i_glide_gscore>  (1) 
-5.2702958165675797

>  <r_i_glide_gscore_strain>  (1) 
0

>  <r_i_glide_hbond>  (1) 
0

>  <r_i_glide_ligand_efficiency>  (1) 
-0.75289940236679709

>  <r_i_glide_ligand_efficiency_ln>  (1) 
-1.7890212361899918

>  <r_i_glide_ligand_efficiency_sa>  (1) 
-1.4402447442781421

>  <r_i_glide_lipo>  (1) 
-1.4766732814815113

>  <r_i_glide_metal>  (1) 
-0

>  <r_i_glide_rewards>  (1) 
-3.021130273665098

>  <r_lp_Energy>  (1) 
-0.38655299999999998

>  <r_lp_tautomer_probability>  (1) 
1

>  <s_epik_cmdline>  (1) 
J2VwaWtfcHl0aG9uJywgJy1waHQnLCAnMS4wJywgJy1waCcsICc3LjQnLCAnLXRuJywgJzgnLCAnLW1hJywgJzUwMCcsICctaW1hZScsICc8aW5maWxlLm1hZT4nLCAnLW9tYWUnLCAnPG91dGZpbGUubWFlPic=

>  <s_epik_input>  (1) 
Tz1DMVtDSDJdW0NIMl1bQ0gyXVtDSDJdW0NIMl0x

>  <s_glide_docking_method>  (1) 
confgen

>  <s_i_glide_gridfile>  (1) 
gpcr_5ht2c_6bqh_protein_autoprepared_prepared

>  <s_lp_Force_Field>  (1) 
S-OPLS

>  <s_lp_Variant>  (1) 
Pocket2Mol_31-1

>  <s_m_source_file>  (1) 
generated_GPCR_5HT2C_ligand_Pocket2Mol_2026-06-23_prepared.sdf

>  <GenAI_Model>  (1) 
Pocket2Mol

>  <Protein>  (1) 
GPCR_5HT2C

$$$$
Pocket2Mol_85
     RDKit          3D

  0  0  0  0  0  0  0  0  0  0999 V3000
M  V30 BEGIN CTAB
M  V30 COUNTS 14 14 0 0 1
M  V30 BEGIN ATOM
M  V30 1 C 41.482677 35.179895 63.834395 0
M  V30 2 C 41.645378 33.879979 63.468838 0
M  V30 3 C 40.518448 35.689358 63.107432 0
M  V30 4 C 40.774144 33.580934 62.504891 0
M  V30 5 O 40.045141 36.939641 63.160163 0
M  V30 6 C 39.812391 34.775572 62.051356 0
M  V30 7 C 40.618044 32.198271 61.801099 0
M  V30 8 O 39.716783 32.121939 60.939318 0
M  V30 9 O 41.411947 31.302911 62.167659 0 CHG=-1
M  V30 10 H 42.048274 35.700568 64.593839 0
M  V30 11 H 42.365831 33.195945 63.893555 0
M  V30 12 H 40.568234 37.406947 63.800008 0
M  V30 13 H 38.762294 34.581508 62.265643 0
M  V30 14 H 39.981089 35.090998 61.021102 0
M  V30 END ATOM
M  V30 BEGIN BOND
M  V30 1 1 2 1
M  V30 2 2 3 1
M  V30 3 2 4 2
M  V30 4 1 5 3
M  V30 5 1 6 3
M  V30 6 1 6 4
M  V30 7 1 7 4
M  V30 8 2 8 7
M  V30 9 1 9 7
M  V30 10 1 10 1
M  V30 11 1 11 2
M  V30 12 1 12 5
M  V30 13 1 13 6
M  V30 14 1 14 6
M  V30 END BOND
M  V30 END CTAB
M  END
>  <i_epik_Tot_Q>  (1) 
-1

>  <i_epik_Tot_abs_Q>  (1) 
1

>  <i_i_glide_confnum>  (1) 
1

>  <i_i_glide_lignum>  (1) 
90

>  <i_i_glide_posenum>  (1) 
253

>  <i_i_glide_rotatable_bonds>  (1) 
2

>  <i_lp_mmshare_version>  (1) 
72125

>  <i_m_source_file_index>  (1) 
86

>  <i_f3d_flags>  (1) 
0

>  <num_sample>  (1) 
100

>  <b_lp_Chiralities_Consistent>  (1) 
1

>  <r_epik_Charging_Adjusted_Penalty>  (1) 
0.00019237637697373591

>  <r_epik_Ionization_Penalty>  (1) 
0.0032632994418700166

>  <r_epik_Ionization_Penalty_Charging>  (1) 
0.00019237637697373591

>  <r_epik_Ionization_Penalty_Neutral>  (1) 
0.0030709230648962808

>  <r_epik_State_Penalty>  (1) 
-0

>  <r_glide_ring_energy>  (1) 
0

>  <r_i_docking_score>  (1) 
-5.2699345477425679

>  <r_i_glide_ecoul>  (1) 
-4.6837785147044562

>  <r_i_glide_eff_state_penalty>  (1) 
-0

>  <r_i_glide_einternal>  (1) 
0.019890855276611497

>  <r_i_glide_emodel>  (1) 
-24.996177175604792

>  <r_i_glide_emodel_strain>  (1) 
0

>  <r_i_glide_energy>  (1) 
-17.727024022571996

>  <r_i_glide_erotb>  (1) 
0

>  <r_i_glide_esite>  (1) 
0

>  <r_i_glide_evdw>  (1) 
-13.043245507867539

>  <r_i_glide_gscore>  (1) 
-5.2699345477425679

>  <r_i_glide_gscore_strain>  (1) 
0

>  <r_i_glide_hbond>  (1) 
-0.42448553345210932

>  <r_i_glide_ligand_efficiency>  (1) 
-0.5855482830825075

>  <r_i_glide_ligand_efficiency_ln>  (1) 
-1.6482841352774895

>  <r_i_glide_ligand_efficiency_sa>  (1) 
-1.2179895112557411

>  <r_i_glide_lipo>  (1) 
-1.0186497683001765

>  <r_i_glide_metal>  (1) 
-0

>  <r_i_glide_rewards>  (1) 
-2.4720701933912372

>  <r_lp_Energy>  (1) 
1.821912

>  <r_lp_tautomer_probability>  (1) 
1

>  <s_epik_cmdline>  (1) 
J2VwaWtfcHl0aG9uJywgJy1waHQnLCAnMS4wJywgJy1waCcsICc3LjQnLCAnLXRuJywgJzgnLCAnLW1hJywgJzUwMCcsICctaW1hZScsICc8aW5maWxlLm1hZT4nLCAnLW9tYWUnLCAnPG91dGZpbGUubWFlPic=

>  <s_epik_input>  (1) 
W09IXUMxPVtDSF1bQ0hdPUMoW0NIMl0xKUMoPU8pW09IXQ==

>  <s_glide_docking_method>  (1) 
confgen

>  <s_i_glide_gridfile>  (1) 
gpcr_5ht2c_6bqh_protein_autoprepared_prepared

>  <s_lp_Force_Field>  (1) 
S-OPLS

>  <s_lp_Variant>  (1) 
Pocket2Mol_85-1

>  <s_m_source_file>  (1) 
generated_GPCR_5HT2C_ligand_Pocket2Mol_2026-06-23_prepared.sdf

>  <GenAI_Model>  (1) 
Pocket2Mol

>  <Protein>  (1) 
GPCR_5HT2C

$$$$
Pocket2Mol_85
     RDKit          3D

  0  0  0  0  0  0  0  0  0  0999 V3000
M  V30 BEGIN CTAB
M  V30 COUNTS 14 14 0 0 1
M  V30 BEGIN ATOM
M  V30 1 C 39.579789 28.485208 51.019053 0
M  V30 2 C 39.041691 27.559548 51.856067 0
M  V30 3 C 39.704837 29.608249 51.680705 0
M  V30 4 C 38.829281 28.114329 53.050601 0
M  V30 5 O 40.193156 30.764238 51.218473 0
M  V30 6 C 39.245132 29.653449 53.177387 0
M  V30 7 C 38.227097 27.406218 54.307067 0
M  V30 8 O 38.108823 28.115457 55.328993 0
M  V30 9 O 37.925555 26.200275 54.167760 0 CHG=-1
M  V30 10 H 39.855285 28.322187 49.988364 0
M  V30 11 H 38.823175 26.537755 51.595341 0
M  V30 12 H 40.422493 30.637303 50.311274 0
M  V30 13 H 40.055466 29.817941 53.886087 0
M  V30 14 H 38.396477 30.308967 53.367767 0
M  V30 END ATOM
M  V30 BEGIN BOND
M  V30 1 1 2 1
M  V30 2 2 3 1
M  V30 3 2 4 2
M  V30 4 1 5 3
M  V30 5 1 6 3
M  V30 6 1 6 4
M  V30 7 1 7 4
M  V30 8 2 8 7
M  V30 9 1 9 7
M  V30 10 1 10 1
M  V30 11 1 11 2
M  V30 12 1 12 5
M  V30 13 1 13 6
M  V30 14 1 14 6
M  V30 END BOND
M  V30 END CTAB
M  END
>  <i_epik_Tot_Q>  (1) 
-1

>  <i_epik_Tot_abs_Q>  (1) 
1

>  <i_i_glide_confnum>  (1) 
1

>  <i_i_glide_lignum>  (1) 
90

>  <i_i_glide_posenum>  (1) 
52

>  <i_i_glide_rotatable_bonds>  (1) 
2

>  <i_lp_mmshare_version>  (1) 
72125

>  <i_m_source_file_index>  (1) 
86

>  <i_f3d_flags>  (1) 
0

>  <num_sample>  (1) 
100

>  <b_lp_Chiralities_Consistent>  (1) 
1

>  <r_epik_Charging_Adjusted_Penalty>  (1) 
0.00019237637697373591

>  <r_epik_Ionization_Penalty>  (1) 
0.0032632994418700166

>  <r_epik_Ionization_Penalty_Charging>  (1) 
0.00019237637697373591

>  <r_epik_Ionization_Penalty_Neutral>  (1) 
0.0030709230648962808

>  <r_epik_State_Penalty>  (1) 
-0

>  <r_glide_ring_energy>  (1) 
0

>  <r_i_docking_score>  (1) 
-5.2645201395879448

>  <r_i_glide_ecoul>  (1) 
0.12589840761339555

>  <r_i_glide_eff_state_penalty>  (1) 
-0

>  <r_i_glide_einternal>  (1) 
0.0019948680321153489

>  <r_i_glide_emodel>  (1) 
-24.5681554369406

>  <r_i_glide_emodel_strain>  (1) 
4.7791104407224339e-11

>  <r_i_glide_energy>  (1) 
-17.297532943124271

>  <r_i_glide_erotb>  (1) 
0

>  <r_i_glide_esite>  (1) 
0

>  <r_i_glide_evdw>  (1) 
-17.423431350737665

>  <r_i_glide_gscore>  (1) 
-5.2645201395879448

>  <r_i_glide_gscore_strain>  (1) 
0

>  <r_i_glide_hbond>  (1) 
0

>  <r_i_glide_ligand_efficiency>  (1) 
-0.5849466821764383

>  <r_i_glide_ligand_efficiency_ln>  (1) 
-1.6465906639483239

>  <r_i_glide_ligand_efficiency_sa>  (1) 
-1.2167381309430931

>  <r_i_glide_lipo>  (1) 
-1.4892392989654726

>  <r_i_glide_metal>  (1) 
-0

>  <r_i_glide_rewards>  (1) 
-2.9229940342275986

>  <r_lp_Energy>  (1) 
1.821912

>  <r_lp_tautomer_probability>  (1) 
1

>  <s_epik_cmdline>  (1) 
J2VwaWtfcHl0aG9uJywgJy1waHQnLCAnMS4wJywgJy1waCcsICc3LjQnLCAnLXRuJywgJzgnLCAnLW1hJywgJzUwMCcsICctaW1hZScsICc8aW5maWxlLm1hZT4nLCAnLW9tYWUnLCAnPG91dGZpbGUubWFlPic=

>  <s_epik_input>  (1) 
W09IXUMxPVtDSF1bQ0hdPUMoW0NIMl0xKUMoPU8pW09IXQ==

>  <s_glide_docking_method>  (1) 
confgen

>  <s_i_glide_gridfile>  (1) 
gpcr_5ht2c_6bqh_protein_autoprepared_prepared

>  <s_lp_Force_Field>  (1) 
S-OPLS

>  <s_lp_Variant>  (1) 
Pocket2Mol_85-1

>  <s_m_source_file>  (1) 
generated_GPCR_5HT2C_ligand_Pocket2Mol_2026-06-23_prepared.sdf

>  <GenAI_Model>  (1) 
Pocket2Mol

>  <Protein>  (1) 
GPCR_5HT2C

$$$$
Pocket2Mol_43
     RDKit          3D

  0  0  0  0  0  0  0  0  0  0999 V3000
M  V30 BEGIN CTAB
M  V30 COUNTS 15 15 0 0 1
M  V30 BEGIN ATOM
M  V30 1 C 39.677258 30.436847 53.025186 0
M  V30 2 O 38.438271 29.864170 53.399874 0
M  V30 3 C 38.454042 28.455439 53.531632 0
M  V30 4 C 40.045133 30.131260 51.564387 0
M  V30 5 O 40.427927 28.777794 51.367738 0
M  V30 6 C 38.450338 27.737021 52.198866 0
M  V30 7 C 39.380062 27.905195 51.241369 0
M  V30 8 H 39.571345 31.515623 53.136540 0
M  V30 9 H 40.464860 30.137727 53.714220 0
M  V30 10 H 37.547815 28.166272 54.064233 0
M  V30 11 H 39.292109 28.120115 54.143529 0
M  V30 12 H 39.245180 30.408169 50.877696 0
M  V30 13 H 40.898317 30.748438 51.282889 0
M  V30 14 H 37.645178 27.036140 52.036634 0
M  V30 15 H 39.385547 27.386691 50.293445 0
M  V30 END ATOM
M  V30 BEGIN BOND
M  V30 1 1 2 1
M  V30 2 1 3 2
M  V30 3 1 4 1
M  V30 4 1 5 4
M  V30 5 1 6 3
M  V30 6 1 7 5
M  V30 7 2 7 6
M  V30 8 1 8 1
M  V30 9 1 9 1
M  V30 10 1 10 3
M  V30 11 1 11 3
M  V30 12 1 12 4
M  V30 13 1 13 4
M  V30 14 1 14 6
M  V30 15 1 15 7
M  V30 END BOND
M  V30 END CTAB
M  END
>  <i_epik_Tot_Q>  (1) 
0

>  <i_epik_Tot_abs_Q>  (1) 
0

>  <i_i_glide_confnum>  (1) 
2

>  <i_i_glide_lignum>  (1) 
46

>  <i_i_glide_posenum>  (1) 
299

>  <i_i_glide_rotatable_bonds>  (1) 
0

>  <i_lp_mmshare_version>  (1) 
72125

>  <i_m_source_file_index>  (1) 
44

>  <i_f3d_flags>  (1) 
0

>  <num_sample>  (1) 
100

>  <b_lp_Chiralities_Consistent>  (1) 
1

>  <r_epik_Charging_Adjusted_Penalty>  (1) 
0

>  <r_epik_Ionization_Penalty>  (1) 
5.6701613537443791e-14

>  <r_epik_Ionization_Penalty_Charging>  (1) 
0

>  <r_epik_Ionization_Penalty_Neutral>  (1) 
5.6701613537443791e-14

>  <r_epik_State_Penalty>  (1) 
-0

>  <r_glide_ring_energy>  (1) 
0.00079047383587571227

>  <r_i_docking_score>  (1) 
-5.2639572914472668

>  <r_i_glide_ecoul>  (1) 
-1.4483174397631333

>  <r_i_glide_eff_state_penalty>  (1) 
-0

>  <r_i_glide_einternal>  (1) 
0

>  <r_i_glide_emodel>  (1) 
-22.354809862362764

>  <r_i_glide_emodel_strain>  (1) 
0

>  <r_i_glide_energy>  (1) 
-16.956813450951511

>  <r_i_glide_erotb>  (1) 
0

>  <r_i_glide_esite>  (1) 
0

>  <r_i_glide_evdw>  (1) 
-15.508496011188379

>  <r_i_glide_gscore>  (1) 
-5.2639572914472668

>  <r_i_glide_gscore_strain>  (1) 
0

>  <r_i_glide_hbond>  (1) 
0

>  <r_i_glide_ligand_efficiency>  (1) 
-0.75199389877818101

>  <r_i_glide_ligand_efficiency_ln>  (1) 
-1.7868696006004454

>  <r_i_glide_ligand_efficiency_sa>  (1) 
-1.438512578227366

>  <r_i_glide_lipo>  (1) 
-1.6223637884283446

>  <r_i_glide_metal>  (1) 
-0

>  <r_i_glide_rewards>  (1) 
-2.648921086495033

>  <r_lp_Energy>  (1) 
7.3473649999999999

>  <r_lp_tautomer_probability>  (1) 
1

>  <s_epik_cmdline>  (1) 
J2VwaWtfcHl0aG9uJywgJy1waHQnLCAnMS4wJywgJy1waCcsICc3LjQnLCAnLXRuJywgJzgnLCAnLW1hJywgJzUwMCcsICctaW1hZScsICc8aW5maWxlLm1hZT4nLCAnLW9tYWUnLCAnPG91dGZpbGUubWFlPic=

>  <s_epik_input>  (1) 
W0NIMl0xT1tDSDJdW0NIXT1bQ0hdT1tDSDJdMQ==

>  <s_glide_docking_method>  (1) 
confgen

>  <s_i_glide_gridfile>  (1) 
gpcr_5ht2c_6bqh_protein_autoprepared_prepared

>  <s_lp_Force_Field>  (1) 
S-OPLS

>  <s_lp_Variant>  (1) 
Pocket2Mol_43-1

>  <s_m_source_file>  (1) 
generated_GPCR_5HT2C_ligand_Pocket2Mol_2026-06-23_prepared.sdf

>  <GenAI_Model>  (1) 
Pocket2Mol

>  <Protein>  (1) 
GPCR_5HT2C

$$$$
Pocket2Mol_78
     RDKit          3D

  0  0  0  0  0  0  0  0  0  0999 V3000
M  V30 BEGIN CTAB
M  V30 COUNTS 14 14 0 0 1
M  V30 BEGIN ATOM
M  V30 1 C 38.829805 28.668919 55.304269 0
M  V30 2 C 38.715598 27.658360 56.280034 0
M  V30 3 C 38.211351 26.385650 55.926381 0
M  V30 4 C 38.086473 25.304114 56.968445 0
M  V30 5 O 37.629068 24.192774 56.618577 0
M  V30 6 O 38.445136 25.564097 58.139233 0 CHG=-1
M  V30 7 C 38.442903 28.412977 53.974366 0
M  V30 8 C 37.824281 26.133709 54.590126 0
M  V30 9 C 37.941283 27.146704 53.617595 0
M  V30 10 H 39.213996 29.640860 55.576899 0
M  V30 11 H 39.013143 27.858762 57.299335 0
M  V30 12 H 38.531007 29.188510 53.227852 0
M  V30 13 H 37.437867 25.163532 54.311969 0
M  V30 14 H 37.645174 26.951032 52.596923 0
M  V30 END ATOM
M  V30 BEGIN BOND
M  V30 1 1 2 1
M  V30 2 2 3 2
M  V30 3 1 4 3
M  V30 4 2 5 4
M  V30 5 1 6 4
M  V30 6 2 7 1
M  V30 7 1 8 3
M  V30 8 1 9 7
M  V30 9 2 9 8
M  V30 10 1 10 1
M  V30 11 1 11 2
M  V30 12 1 12 7
M  V30 13 1 13 8
M  V30 14 1 14 9
M  V30 END BOND
M  V30 END CTAB
M  END
>  <i_epik_Tot_Q>  (1) 
-1

>  <i_epik_Tot_abs_Q>  (1) 
1

>  <i_i_glide_confnum>  (1) 
1

>  <i_i_glide_lignum>  (1) 
83

>  <i_i_glide_posenum>  (1) 
333

>  <i_i_glide_rotatable_bonds>  (1) 
1

>  <i_lp_mmshare_version>  (1) 
72125

>  <i_m_source_file_index>  (1) 
79

>  <i_f3d_flags>  (1) 
0

>  <num_sample>  (1) 
100

>  <b_lp_Chiralities_Consistent>  (1) 
1

>  <r_epik_Charging_Adjusted_Penalty>  (1) 
0.00033308558627939336

>  <r_epik_Ionization_Penalty>  (1) 
0.00033308558627939336

>  <r_epik_Ionization_Penalty_Charging>  (1) 
0.00033308558627939336

>  <r_epik_Ionization_Penalty_Neutral>  (1) 
0

>  <r_epik_State_Penalty>  (1) 
-0

>  <r_glide_ring_energy>  (1) 
0

>  <r_i_docking_score>  (1) 
-5.2571704435631847

>  <r_i_glide_ecoul>  (1) 
-1.1908304652206696

>  <r_i_glide_eff_state_penalty>  (1) 
-0

>  <r_i_glide_einternal>  (1) 
0.0026810407341637532

>  <r_i_glide_emodel>  (1) 
-22.034705711662635

>  <r_i_glide_emodel_strain>  (1) 
0

>  <r_i_glide_energy>  (1) 
-15.895379410912353

>  <r_i_glide_erotb>  (1) 
0

>  <r_i_glide_esite>  (1) 
0

>  <r_i_glide_evdw>  (1) 
-14.704548945691684

>  <r_i_glide_gscore>  (1) 
-5.2571704435631847

>  <r_i_glide_gscore_strain>  (1) 
0

>  <r_i_glide_hbond>  (1) 
0

>  <r_i_glide_ligand_efficiency>  (1) 
-0.58413004928479828

>  <r_i_glide_ligand_efficiency_ln>  (1) 
-1.644291890169072

>  <r_i_glide_ligand_efficiency_sa>  (1) 
-1.2150394660758206

>  <r_i_glide_lipo>  (1) 
-1.463646508191796

>  <r_i_glide_metal>  (1) 
-0

>  <r_i_glide_rewards>  (1) 
-2.8796719183037043

>  <r_lp_Energy>  (1) 
17.740625999999999

>  <r_lp_tautomer_probability>  (1) 
1

>  <s_epik_cmdline>  (1) 
J2VwaWtfcHl0aG9uJywgJy1waHQnLCAnMS4wJywgJy1waCcsICc3LjQnLCAnLXRuJywgJzgnLCAnLW1hJywgJzUwMCcsICctaW1hZScsICc8aW5maWxlLm1hZT4nLCAnLW9tYWUnLCAnPG91dGZpbGUubWFlPic=

>  <s_epik_input>  (1) 
W2NIXTFbY0hdW2NIXVtjSF1bY0hdYzFDKD1PKVtPSF0=

>  <s_glide_docking_method>  (1) 
confgen

>  <s_i_glide_gridfile>  (1) 
gpcr_5ht2c_6bqh_protein_autoprepared_prepared

>  <s_lp_Force_Field>  (1) 
S-OPLS

>  <s_lp_Variant>  (1) 
Pocket2Mol_78-1

>  <s_m_source_file>  (1) 
generated_GPCR_5HT2C_ligand_Pocket2Mol_2026-06-23_prepared.sdf

>  <GenAI_Model>  (1) 
Pocket2Mol

>  <Protein>  (1) 
GPCR_5HT2C

$$$$
Pocket2Mol_21
     RDKit          3D

  0  0  0  0  0  0  0  0  0  0999 V3000
M  V30 BEGIN CTAB
M  V30 COUNTS 13 13 0 0 1
M  V30 BEGIN ATOM
M  V30 1 C 38.607088 27.914875 52.270867 0
M  V30 2 C 38.854532 28.967328 53.194253 0
M  V30 3 C 39.249576 28.226131 51.106381 0
M  V30 4 C 39.645116 29.891127 52.567717 0
M  V30 5 N 39.887139 29.443742 51.280944 0
M  V30 6 C 40.674591 30.137725 50.281852 0
M  V30 7 H 38.019240 27.024021 52.439889 0
M  V30 8 H 38.493984 29.040974 54.209935 0
M  V30 9 H 39.311590 27.697807 50.167746 0
M  V30 10 H 40.055070 30.829550 52.913731 0
M  V30 11 H 40.565934 29.652911 49.311556 0
M  V30 12 H 40.332179 31.169602 50.197362 0
M  V30 13 H 41.726145 30.137737 50.567761 0
M  V30 END ATOM
M  V30 BEGIN BOND
M  V30 1 1 2 1
M  V30 2 2 3 1
M  V30 3 2 4 2
M  V30 4 1 5 3
M  V30 5 1 5 4
M  V30 6 1 6 5
M  V30 7 1 7 1
M  V30 8 1 8 2
M  V30 9 1 9 3
M  V30 10 1 10 4
M  V30 11 1 11 6
M  V30 12 1 12 6
M  V30 13 1 13 6
M  V30 END BOND
M  V30 END CTAB
M  END
>  <i_epik_Tot_Q>  (1) 
0

>  <i_epik_Tot_abs_Q>  (1) 
0

>  <i_i_glide_confnum>  (1) 
1

>  <i_i_glide_lignum>  (1) 
24

>  <i_i_glide_posenum>  (1) 
200

>  <i_i_glide_rotatable_bonds>  (1) 
0

>  <i_lp_mmshare_version>  (1) 
72125

>  <i_m_source_file_index>  (1) 
22

>  <i_f3d_flags>  (1) 
0

>  <num_sample>  (1) 
100

>  <b_lp_Chiralities_Consistent>  (1) 
1

>  <r_epik_Charging_Adjusted_Penalty>  (1) 
0

>  <r_epik_Ionization_Penalty>  (1) 
5.9248581604286784e-11

>  <r_epik_Ionization_Penalty_Charging>  (1) 
0

>  <r_epik_Ionization_Penalty_Neutral>  (1) 
5.9248581604286784e-11

>  <r_epik_State_Penalty>  (1) 
-0

>  <r_glide_ring_energy>  (1) 
0

>  <r_i_docking_score>  (1) 
-5.2569078423282827

>  <r_i_glide_ecoul>  (1) 
-1.0437475937646448

>  <r_i_glide_eff_state_penalty>  (1) 
-0

>  <r_i_glide_einternal>  (1) 
0

>  <r_i_glide_emodel>  (1) 
-22.55231997037658

>  <r_i_glide_emodel_strain>  (1) 
0.0012909195759490677

>  <r_i_glide_energy>  (1) 
-17.190738978308403

>  <r_i_glide_erotb>  (1) 
0

>  <r_i_glide_esite>  (1) 
0

>  <r_i_glide_evdw>  (1) 
-16.146991384543757

>  <r_i_glide_gscore>  (1) 
-5.2569078423282827

>  <r_i_glide_gscore_strain>  (1) 
0

>  <r_i_glide_hbond>  (1) 
0

>  <r_i_glide_ligand_efficiency>  (1) 
-0.87615130705471378

>  <r_i_glide_ligand_efficiency_ln>  (1) 
-1.8830088695935765

>  <r_i_glide_ligand_efficiency_sa>  (1) 
-1.5920725824859157

>  <r_i_glide_lipo>  (1) 
-1.5929961340363983

>  <r_i_glide_metal>  (1) 
-0

>  <r_i_glide_rewards>  (1) 
-2.7000000000000002

>  <r_lp_Energy>  (1) 
0.62146699999999999

>  <r_lp_tautomer_probability>  (1) 
1

>  <s_epik_cmdline>  (1) 
J2VwaWtfcHl0aG9uJywgJy1waHQnLCAnMS4wJywgJy1waCcsICc3LjQnLCAnLXRuJywgJzgnLCAnLW1hJywgJzUwMCcsICctaW1hZScsICc8aW5maWxlLm1hZT4nLCAnLW9tYWUnLCAnPG91dGZpbGUubWFlPic=

>  <s_epik_input>  (1) 
W2NIXTFbY0hdW2NIXVtjSF1uMVtDSDNd

>  <s_glide_docking_method>  (1) 
confgen

>  <s_i_glide_gridfile>  (1) 
gpcr_5ht2c_6bqh_protein_autoprepared_prepared

>  <s_lp_Force_Field>  (1) 
S-OPLS

>  <s_lp_Variant>  (1) 
Pocket2Mol_21-1

>  <s_m_source_file>  (1) 
generated_GPCR_5HT2C_ligand_Pocket2Mol_2026-06-23_prepared.sdf

>  <GenAI_Model>  (1) 
Pocket2Mol

>  <Protein>  (1) 
GPCR_5HT2C

$$$$
Pocket2Mol_78
     RDKit          3D

  0  0  0  0  0  0  0  0  0  0999 V3000
M  V30 BEGIN CTAB
M  V30 COUNTS 14 14 0 0 1
M  V30 BEGIN ATOM
M  V30 1 C 38.978417 28.496425 55.684809 0
M  V30 2 C 38.660845 27.254114 56.269931 0
M  V30 3 C 37.991405 26.265495 55.513048 0
M  V30 4 C 37.646036 24.937755 56.136831 0
M  V30 5 O 37.049041 24.090517 55.434893 0
M  V30 6 O 37.970683 24.738995 57.329998 0 CHG=-1
M  V30 7 C 38.629730 28.755559 54.344669 0
M  V30 8 C 37.645137 26.530037 54.167760 0
M  V30 9 C 37.964179 27.772878 53.586718 0
M  V30 10 H 39.488730 29.250959 56.264954 0
M  V30 11 H 38.928846 27.059668 57.298558 0
M  V30 12 H 38.873208 29.708516 53.898407 0
M  V30 13 H 37.133694 25.778994 53.582438 0
M  V30 14 H 37.697242 27.971701 52.558901 0
M  V30 END ATOM
M  V30 BEGIN BOND
M  V30 1 1 2 1
M  V30 2 2 3 2
M  V30 3 1 4 3
M  V30 4 2 5 4
M  V30 5 1 6 4
M  V30 6 2 7 1
M  V30 7 1 8 3
M  V30 8 1 9 7
M  V30 9 2 9 8
M  V30 10 1 10 1
M  V30 11 1 11 2
M  V30 12 1 12 7
M  V30 13 1 13 8
M  V30 14 1 14 9
M  V30 END BOND
M  V30 END CTAB
M  END
>  <i_epik_Tot_Q>  (1) 
-1

>  <i_epik_Tot_abs_Q>  (1) 
1

>  <i_i_glide_confnum>  (1) 
1

>  <i_i_glide_lignum>  (1) 
83

>  <i_i_glide_posenum>  (1) 
353

>  <i_i_glide_rotatable_bonds>  (1) 
1

>  <i_lp_mmshare_version>  (1) 
72125

>  <i_m_source_file_index>  (1) 
79

>  <i_f3d_flags>  (1) 
0

>  <num_sample>  (1) 
100

>  <b_lp_Chiralities_Consistent>  (1) 
1

>  <r_epik_Charging_Adjusted_Penalty>  (1) 
0.00033308558627939336

>  <r_epik_Ionization_Penalty>  (1) 
0.00033308558627939336

>  <r_epik_Ionization_Penalty_Charging>  (1) 
0.00033308558627939336

>  <r_epik_Ionization_Penalty_Neutral>  (1) 
0

>  <r_epik_State_Penalty>  (1) 
-0

>  <r_glide_ring_energy>  (1) 
0

>  <r_i_docking_score>  (1) 
-5.2493622073855715

>  <r_i_glide_ecoul>  (1) 
-0.6902366223158215

>  <r_i_glide_eff_state_penalty>  (1) 
-0

>  <r_i_glide_einternal>  (1) 
0.00029190736602657807

>  <r_i_glide_emodel>  (1) 
-21.90583833270458

>  <r_i_glide_emodel_strain>  (1) 
0

>  <r_i_glide_energy>  (1) 
-15.774437918438343

>  <r_i_glide_erotb>  (1) 
0

>  <r_i_glide_esite>  (1) 
0

>  <r_i_glide_evdw>  (1) 
-15.084201296122522

>  <r_i_glide_gscore>  (1) 
-5.2493622073855715

>  <r_i_glide_gscore_strain>  (1) 
0

>  <r_i_glide_hbond>  (1) 
0

>  <r_i_glide_ligand_efficiency>  (1) 
-0.58326246748728572

>  <r_i_glide_ligand_efficiency_ln>  (1) 
-1.6418496982026514

>  <r_i_glide_ligand_efficiency_sa>  (1) 
-1.2132348232136403

>  <r_i_glide_lipo>  (1) 
-1.4903892834661361

>  <r_i_glide_metal>  (1) 
-0

>  <r_i_glide_rewards>  (1) 
-2.9012273657659353

>  <r_lp_Energy>  (1) 
17.740625999999999

>  <r_lp_tautomer_probability>  (1) 
1

>  <s_epik_cmdline>  (1) 
J2VwaWtfcHl0aG9uJywgJy1waHQnLCAnMS4wJywgJy1waCcsICc3LjQnLCAnLXRuJywgJzgnLCAnLW1hJywgJzUwMCcsICctaW1hZScsICc8aW5maWxlLm1hZT4nLCAnLW9tYWUnLCAnPG91dGZpbGUubWFlPic=

>  <s_epik_input>  (1) 
W2NIXTFbY0hdW2NIXVtjSF1bY0hdYzFDKD1PKVtPSF0=

>  <s_glide_docking_method>  (1) 
confgen

>  <s_i_glide_gridfile>  (1) 
gpcr_5ht2c_6bqh_protein_autoprepared_prepared

>  <s_lp_Force_Field>  (1) 
S-OPLS

>  <s_lp_Variant>  (1) 
Pocket2Mol_78-1

>  <s_m_source_file>  (1) 
generated_GPCR_5HT2C_ligand_Pocket2Mol_2026-06-23_prepared.sdf

>  <GenAI_Model>  (1) 
Pocket2Mol

>  <Protein>  (1) 
GPCR_5HT2C

$$$$
Pocket2Mol_30
     RDKit          3D

  0  0  0  0  0  0  0  0  0  0999 V3000
M  V30 BEGIN CTAB
M  V30 COUNTS 14 14 0 0 1
M  V30 BEGIN ATOM
M  V30 1 C 40.045137 30.526218 52.453003 0
M  V30 2 C 39.887906 29.455257 51.551454 0
M  V30 3 C 39.011696 28.396165 51.861833 0
M  V30 4 N 38.856839 27.337759 50.972575 0
M  V30 5 C 39.327602 30.537797 53.666391 0
M  V30 6 C 38.291826 28.409564 53.073790 0
M  V30 7 C 38.450360 29.479991 53.975998 0
M  V30 8 H 40.715836 31.337755 52.214224 0
M  V30 9 H 40.439253 29.447603 50.622562 0
M  V30 10 H 38.107884 26.669588 51.102758 0
M  V30 11 H 39.244628 27.389174 50.041721 0
M  V30 12 H 39.448570 31.359316 54.357653 0
M  V30 13 H 37.618799 27.598696 53.312376 0
M  V30 14 H 37.898724 29.490104 54.905100 0
M  V30 END ATOM
M  V30 BEGIN BOND
M  V30 1 1 2 1
M  V30 2 2 3 2
M  V30 3 1 4 3
M  V30 4 2 5 1
M  V30 5 1 6 3
M  V30 6 1 7 5
M  V30 7 2 7 6
M  V30 8 1 8 1
M  V30 9 1 9 2
M  V30 10 1 10 4
M  V30 11 1 11 4
M  V30 12 1 12 5
M  V30 13 1 13 6
M  V30 14 1 14 7
M  V30 END BOND
M  V30 END CTAB
M  END
>  <i_epik_Tot_Q>  (1) 
0

>  <i_epik_Tot_abs_Q>  (1) 
0

>  <i_i_glide_confnum>  (1) 
1

>  <i_i_glide_lignum>  (1) 
33

>  <i_i_glide_posenum>  (1) 
134

>  <i_i_glide_rotatable_bonds>  (1) 
0

>  <i_lp_mmshare_version>  (1) 
72125

>  <i_m_source_file_index>  (1) 
31

>  <i_f3d_flags>  (1) 
0

>  <num_sample>  (1) 
100

>  <b_lp_Chiralities_Consistent>  (1) 
1

>  <r_epik_Charging_Adjusted_Penalty>  (1) 
0

>  <r_epik_Ionization_Penalty>  (1) 
0.00088153335660618348

>  <r_epik_Ionization_Penalty_Charging>  (1) 
0

>  <r_epik_Ionization_Penalty_Neutral>  (1) 
0.00088153335660618348

>  <r_epik_State_Penalty>  (1) 
-0

>  <r_glide_ring_energy>  (1) 
0

>  <r_i_docking_score>  (1) 
-5.2462694447392195

>  <r_i_glide_ecoul>  (1) 
-1.7894526213363398

>  <r_i_glide_eff_state_penalty>  (1) 
-0

>  <r_i_glide_einternal>  (1) 
0

>  <r_i_glide_emodel>  (1) 
-23.100439400762394

>  <r_i_glide_emodel_strain>  (1) 
0

>  <r_i_glide_energy>  (1) 
-17.3065439549442

>  <r_i_glide_erotb>  (1) 
0

>  <r_i_glide_esite>  (1) 
0

>  <r_i_glide_evdw>  (1) 
-15.517091333607858

>  <r_i_glide_gscore>  (1) 
-5.2462694447392195

>  <r_i_glide_gscore_strain>  (1) 
0

>  <r_i_glide_hbond>  (1) 
-0.060284590894031889

>  <r_i_glide_ligand_efficiency>  (1) 
-0.74946706353417425

>  <r_i_glide_ligand_efficiency_ln>  (1) 
-1.7808653961905725

>  <r_i_glide_ligand_efficiency_sa>  (1) 
-1.4336789162953771

>  <r_i_glide_lipo>  (1) 
-1.6888914245587958

>  <r_i_glide_metal>  (1) 
-0

>  <r_i_glide_rewards>  (1) 
-2.4528209694055478

>  <r_lp_Energy>  (1) 
7.0325409999999993

>  <r_lp_tautomer_probability>  (1) 
1

>  <s_epik_cmdline>  (1) 
J2VwaWtfcHl0aG9uJywgJy1waHQnLCAnMS4wJywgJy1waCcsICc3LjQnLCAnLXRuJywgJzgnLCAnLW1hJywgJzUwMCcsICctaW1hZScsICc8aW5maWxlLm1hZT4nLCAnLW9tYWUnLCAnPG91dGZpbGUubWFlPic=

>  <s_epik_input>  (1) 
W2NIXTFbY0hdW2NIXVtjSF1bY0hdYzFbTkgyXQ==

>  <s_glide_docking_method>  (1) 
confgen

>  <s_i_glide_gridfile>  (1) 
gpcr_5ht2c_6bqh_protein_autoprepared_prepared

>  <s_lp_Force_Field>  (1) 
S-OPLS

>  <s_lp_Variant>  (1) 
Pocket2Mol_30-1

>  <s_m_source_file>  (1) 
generated_GPCR_5HT2C_ligand_Pocket2Mol_2026-06-23_prepared.sdf

>  <GenAI_Model>  (1) 
Pocket2Mol

>  <Protein>  (1) 
GPCR_5HT2C

$$$$
Pocket2Mol_84
     RDKit          3D

  0  0  0  0  0  0  0  0  0  0999 V3000
M  V30 BEGIN CTAB
M  V30 COUNTS 19 19 0 0 1
M  V30 BEGIN ATOM
M  V30 1 C 39.642464 30.540193 53.225644 0
M  V30 2 C 39.647074 29.541575 52.066399 0
M  V30 3 O 39.568367 29.908293 54.493545 0
M  V30 4 C 38.367341 29.283654 54.839934 0 CFG=1
M  V30 5 C 38.535161 28.934449 56.325849 0
M  V30 6 O 38.382167 28.937597 51.880962 0
M  V30 7 C 38.112064 27.888341 52.715272 0
M  V30 8 O 37.245364 30.137753 54.730140 0
M  V30 9 C 38.102711 27.995963 54.059978 0
M  V30 10 H 38.855907 31.285348 53.110641 0
M  V30 11 H 40.579336 31.094768 53.206575 0
M  V30 12 H 39.872894 30.082664 51.147176 0
M  V30 13 H 40.433204 28.793617 52.167747 0
M  V30 14 H 38.707276 29.841183 56.907116 0
M  V30 15 H 37.645147 28.436813 56.710221 0
M  V30 16 H 39.391094 28.271519 56.459056 0
M  V30 17 H 37.915035 26.974149 52.174225 0
M  V30 18 H 37.192431 30.681159 55.505651 0
M  V30 19 H 37.882685 27.118878 54.650734 0
M  V30 END ATOM
M  V30 BEGIN BOND
M  V30 1 1 2 1
M  V30 2 1 3 1
M  V30 3 1 4 3
M  V30 4 1 5 4
M  V30 5 1 6 2
M  V30 6 1 7 6
M  V30 7 1 4 8 CFG=1
M  V30 8 1 9 4
M  V30 9 2 9 7
M  V30 10 1 10 1
M  V30 11 1 11 1
M  V30 12 1 12 2
M  V30 13 1 13 2
M  V30 14 1 14 5
M  V30 15 1 15 5
M  V30 16 1 16 5
M  V30 17 1 17 7
M  V30 18 1 18 8
M  V30 19 1 19 9
M  V30 END BOND
M  V30 END CTAB
M  END
>  <i_epik_Tot_Q>  (1) 
0

>  <i_epik_Tot_abs_Q>  (1) 
0

>  <i_i_glide_confnum>  (1) 
1

>  <i_i_glide_lignum>  (1) 
89

>  <i_i_glide_posenum>  (1) 
151

>  <i_i_glide_rotatable_bonds>  (1) 
1

>  <i_lp_mmshare_version>  (1) 
72125

>  <i_m_source_file_index>  (1) 
85

>  <i_f3d_flags>  (1) 
0

>  <num_sample>  (1) 
100

>  <b_lp_Chiralities_Consistent>  (1) 
1

>  <r_epik_Charging_Adjusted_Penalty>  (1) 
0

>  <r_epik_Ionization_Penalty>  (1) 
7.9405632778621754e-05

>  <r_epik_Ionization_Penalty_Charging>  (1) 
0

>  <r_epik_Ionization_Penalty_Neutral>  (1) 
7.9405632778621754e-05

>  <r_epik_State_Penalty>  (1) 
-0

>  <r_glide_ring_energy>  (1) 
0

>  <r_i_docking_score>  (1) 
-5.237927581633814

>  <r_i_glide_ecoul>  (1) 
-2.4389575000293728

>  <r_i_glide_eff_state_penalty>  (1) 
-0

>  <r_i_glide_einternal>  (1) 
0.10973086335254734

>  <r_i_glide_emodel>  (1) 
-26.823782904085697

>  <r_i_glide_emodel_strain>  (1) 
0

>  <r_i_glide_energy>  (1) 
-19.609293043188771

>  <r_i_glide_erotb>  (1) 
0

>  <r_i_glide_esite>  (1) 
0

>  <r_i_glide_evdw>  (1) 
-17.1703355431594

>  <r_i_glide_gscore>  (1) 
-5.237927581633814

>  <r_i_glide_gscore_strain>  (1) 
0

>  <r_i_glide_hbond>  (1) 
0

>  <r_i_glide_ligand_efficiency>  (1) 
-0.58199195351486821

>  <r_i_glide_ligand_efficiency_ln>  (1) 
-1.6382732757540024

>  <r_i_glide_ligand_efficiency_sa>  (1) 
-1.2105920476526533

>  <r_i_glide_lipo>  (1) 
-1.3594220550896534

>  <r_i_glide_metal>  (1) 
-0

>  <r_i_glide_rewards>  (1) 
-2.6541451243817837

>  <r_lp_Energy>  (1) 
3.4776590000000001

>  <r_lp_tautomer_probability>  (1) 
1

>  <s_epik_cmdline>  (1) 
J2VwaWtfcHl0aG9uJywgJy1waHQnLCAnMS4wJywgJy1waCcsICc3LjQnLCAnLXRuJywgJzgnLCAnLW1hJywgJzUwMCcsICctaW1hZScsICc8aW5maWxlLm1hZT4nLCAnLW9tYWUnLCAnPG91dGZpbGUubWFlPic=

>  <s_epik_input>  (1) 
W0NIM11bQ0BAXTEoW09IXSlPW0NIMl1bQ0gyXU9bQ0hdPVtDSF0x

>  <s_glide_docking_method>  (1) 
confgen

>  <s_i_glide_gridfile>  (1) 
gpcr_5ht2c_6bqh_protein_autoprepared_prepared

>  <s_lp_Force_Field>  (1) 
S-OPLS

>  <s_lp_Variant>  (1) 
Pocket2Mol_84-1

>  <s_m_source_file>  (1) 
generated_GPCR_5HT2C_ligand_Pocket2Mol_2026-06-23_prepared.sdf

>  <GenAI_Model>  (1) 
Pocket2Mol

>  <Protein>  (1) 
GPCR_5HT2C

$$$$
Pocket2Mol_40
     RDKit          3D

  0  0  0  0  0  0  0  0  0  0999 V3000
M  V30 BEGIN CTAB
M  V30 COUNTS 12 12 0 0 1
M  V30 BEGIN ATOM
M  V30 1 C 38.286003 27.737752 52.567778 0
M  V30 2 C 38.967371 28.075210 51.388409 0
M  V30 3 C 39.546207 29.189515 51.602536 0
M  V30 4 C 40.408209 29.992784 50.647483 0
M  V30 5 N 38.393913 28.585597 53.549374 0
M  V30 6 C 39.245137 29.598752 52.952728 0
M  V30 7 O 39.645138 30.626680 53.495714 0
M  V30 8 H 37.714307 26.806893 52.600976 0
M  V30 9 H 38.957757 27.460369 50.500253 0
M  V30 10 H 40.069391 31.028684 50.604477 0
M  V30 11 H 41.449593 29.983793 50.967759 0
M  V30 12 H 40.357609 29.578386 49.639967 0
M  V30 END ATOM
M  V30 BEGIN BOND
M  V30 1 1 2 1
M  V30 2 2 3 2
M  V30 3 1 4 3
M  V30 4 2 5 1
M  V30 5 1 6 3
M  V30 6 1 6 5
M  V30 7 2 7 6
M  V30 8 1 8 1
M  V30 9 1 9 2
M  V30 10 1 10 4
M  V30 11 1 11 4
M  V30 12 1 12 4
M  V30 END BOND
M  V30 END CTAB
M  END
>  <i_epik_Tot_Q>  (1) 
0

>  <i_epik_Tot_abs_Q>  (1) 
0

>  <i_i_glide_confnum>  (1) 
1

>  <i_i_glide_lignum>  (1) 
43

>  <i_i_glide_posenum>  (1) 
272

>  <i_i_glide_rotatable_bonds>  (1) 
0

>  <i_lp_mmshare_version>  (1) 
72125

>  <i_m_source_file_index>  (1) 
41

>  <i_f3d_flags>  (1) 
0

>  <num_sample>  (1) 
100

>  <b_lp_Chiralities_Consistent>  (1) 
1

>  <r_epik_Charging_Adjusted_Penalty>  (1) 
0

>  <r_epik_Ionization_Penalty>  (1) 
0

>  <r_epik_Ionization_Penalty_Charging>  (1) 
0

>  <r_epik_Ionization_Penalty_Neutral>  (1) 
0

>  <r_epik_State_Penalty>  (1) 
-0

>  <r_glide_ring_energy>  (1) 
0

>  <r_i_docking_score>  (1) 
-5.2182450432063865

>  <r_i_glide_ecoul>  (1) 
-0.63525812998686315

>  <r_i_glide_eff_state_penalty>  (1) 
-0

>  <r_i_glide_einternal>  (1) 
0

>  <r_i_glide_emodel>  (1) 
-25.591357966946269

>  <r_i_glide_emodel_strain>  (1) 
0

>  <r_i_glide_energy>  (1) 
-19.474922683254569

>  <r_i_glide_erotb>  (1) 
0

>  <r_i_glide_esite>  (1) 
0

>  <r_i_glide_evdw>  (1) 
-18.839664553267706

>  <r_i_glide_gscore>  (1) 
-5.2182450432063865

>  <r_i_glide_gscore_strain>  (1) 
0

>  <r_i_glide_hbond>  (1) 
0

>  <r_i_glide_ligand_efficiency>  (1) 
-0.74546357760091231

>  <r_i_glide_ligand_efficiency_ln>  (1) 
-1.7713524103509264

>  <r_i_glide_ligand_efficiency_sa>  (1) 
-1.4260205232138501

>  <r_i_glide_lipo>  (1) 
-0.98999999999999999

>  <r_i_glide_metal>  (1) 
-0

>  <r_i_glide_rewards>  (1) 
-3.1909730960449711

>  <r_lp_Energy>  (1) 
0.58044799999999996

>  <r_lp_tautomer_probability>  (1) 
1

>  <s_epik_Chemistry_Notes>  (1) 
This compound has an imine and may undergo hydrolysis.

>  <s_epik_cmdline>  (1) 
J2VwaWtfcHl0aG9uJywgJy1waHQnLCAnMS4wJywgJy1waCcsICc3LjQnLCAnLXRuJywgJzgnLCAnLW1hJywgJzUwMCcsICctaW1hZScsICc8aW5maWxlLm1hZT4nLCAnLW9tYWUnLCAnPG91dGZpbGUubWFlPic=

>  <s_epik_input>  (1) 
Tz1DMU49W0NIXVtDSF09QzFbQ0gzXQ==

>  <s_glide_docking_method>  (1) 
confgen

>  <s_i_glide_gridfile>  (1) 
gpcr_5ht2c_6bqh_protein_autoprepared_prepared

>  <s_lp_Force_Field>  (1) 
S-OPLS

>  <s_lp_Variant>  (1) 
Pocket2Mol_40-1

>  <s_m_source_file>  (1) 
generated_GPCR_5HT2C_ligand_Pocket2Mol_2026-06-23_prepared.sdf

>  <GenAI_Model>  (1) 
Pocket2Mol

>  <Protein>  (1) 
GPCR_5HT2C

$$$$
Pocket2Mol_85
     RDKit          3D

  0  0  0  0  0  0  0  0  0  0999 V3000
M  V30 BEGIN CTAB
M  V30 COUNTS 14 14 0 0 1
M  V30 BEGIN ATOM
M  V30 1 C 40.045137 30.537755 52.033411 0
M  V30 2 C 39.436107 30.039822 53.140781 0
M  V30 3 C 39.967916 29.638332 51.084564 0
M  V30 4 C 38.973496 28.817878 52.876274 0
M  V30 5 O 40.445137 29.740673 49.839116 0
M  V30 6 C 39.245145 28.284357 51.391807 0
M  V30 7 C 38.215771 27.888545 53.871098 0
M  V30 8 O 37.857285 26.780647 53.420587 0
M  V30 9 O 38.045144 28.343519 55.022763 0 CHG=-1
M  V30 10 H 40.511445 31.507050 51.951206 0
M  V30 11 H 39.342682 30.552145 54.087689 0
M  V30 12 H 40.833809 30.598649 49.762221 0
M  V30 13 H 38.329584 28.137752 50.820291 0
M  V30 14 H 39.903880 27.417556 51.359923 0
M  V30 END ATOM
M  V30 BEGIN BOND
M  V30 1 1 2 1
M  V30 2 2 3 1
M  V30 3 2 4 2
M  V30 4 1 5 3
M  V30 5 1 6 3
M  V30 6 1 6 4
M  V30 7 1 7 4
M  V30 8 2 8 7
M  V30 9 1 9 7
M  V30 10 1 10 1
M  V30 11 1 11 2
M  V30 12 1 12 5
M  V30 13 1 13 6
M  V30 14 1 14 6
M  V30 END BOND
M  V30 END CTAB
M  END
>  <i_epik_Tot_Q>  (1) 
-1

>  <i_epik_Tot_abs_Q>  (1) 
1

>  <i_i_glide_confnum>  (1) 
1

>  <i_i_glide_lignum>  (1) 
90

>  <i_i_glide_posenum>  (1) 
58

>  <i_i_glide_rotatable_bonds>  (1) 
2

>  <i_lp_mmshare_version>  (1) 
72125

>  <i_m_source_file_index>  (1) 
86

>  <i_f3d_flags>  (1) 
0

>  <num_sample>  (1) 
100

>  <b_lp_Chiralities_Consistent>  (1) 
1

>  <r_epik_Charging_Adjusted_Penalty>  (1) 
0.00019237637697373591

>  <r_epik_Ionization_Penalty>  (1) 
0.0032632994418700166

>  <r_epik_Ionization_Penalty_Charging>  (1) 
0.00019237637697373591

>  <r_epik_Ionization_Penalty_Neutral>  (1) 
0.0030709230648962808

>  <r_epik_State_Penalty>  (1) 
-0

>  <r_glide_ring_energy>  (1) 
0

>  <r_i_docking_score>  (1) 
-5.2182092724889104

>  <r_i_glide_ecoul>  (1) 
-0.10455368909763507

>  <r_i_glide_eff_state_penalty>  (1) 
-0

>  <r_i_glide_einternal>  (1) 
0.013063271646227115

>  <r_i_glide_emodel>  (1) 
-24.391067724153206

>  <r_i_glide_emodel_strain>  (1) 
0

>  <r_i_glide_energy>  (1) 
-17.189946330340568

>  <r_i_glide_erotb>  (1) 
0

>  <r_i_glide_esite>  (1) 
0

>  <r_i_glide_evdw>  (1) 
-17.085392641242933

>  <r_i_glide_gscore>  (1) 
-5.2182092724889104

>  <r_i_glide_gscore_strain>  (1) 
0

>  <r_i_glide_hbond>  (1) 
0

>  <r_i_glide_ligand_efficiency>  (1) 
-0.57980103027654561

>  <r_i_glide_ligand_efficiency_ln>  (1) 
-1.6321059551082528

>  <r_i_glide_ligand_efficiency_sa>  (1) 
-1.20603474366707

>  <r_i_glide_lipo>  (1) 
-1.3916583964694722

>  <r_i_glide_metal>  (1) 
-0

>  <r_i_glide_rewards>  (1) 
-2.9565981905926462

>  <r_lp_Energy>  (1) 
1.821912

>  <r_lp_tautomer_probability>  (1) 
1

>  <s_epik_cmdline>  (1) 
J2VwaWtfcHl0aG9uJywgJy1waHQnLCAnMS4wJywgJy1waCcsICc3LjQnLCAnLXRuJywgJzgnLCAnLW1hJywgJzUwMCcsICctaW1hZScsICc8aW5maWxlLm1hZT4nLCAnLW9tYWUnLCAnPG91dGZpbGUubWFlPic=

>  <s_epik_input>  (1) 
W09IXUMxPVtDSF1bQ0hdPUMoW0NIMl0xKUMoPU8pW09IXQ==

>  <s_glide_docking_method>  (1) 
confgen

>  <s_i_glide_gridfile>  (1) 
gpcr_5ht2c_6bqh_protein_autoprepared_prepared

>  <s_lp_Force_Field>  (1) 
S-OPLS

>  <s_lp_Variant>  (1) 
Pocket2Mol_85-1

>  <s_m_source_file>  (1) 
generated_GPCR_5HT2C_ligand_Pocket2Mol_2026-06-23_prepared.sdf

>  <GenAI_Model>  (1) 
Pocket2Mol

>  <Protein>  (1) 
GPCR_5HT2C

$$$$
Pocket2Mol_67
     RDKit          3D

  0  0  0  0  0  0  0  0  0  0999 V3000
M  V30 BEGIN CTAB
M  V30 COUNTS 12 12 0 0 1
M  V30 BEGIN ATOM
M  V30 1 C 40.457111 30.537755 50.562383 0
M  V30 2 O 40.271652 30.933264 51.867607 0
M  V30 3 C 39.645137 30.131553 52.839189 0
M  V30 4 O 39.488452 30.489966 54.004775 0
M  V30 5 C 39.185947 28.791504 52.306298 0
M  V30 6 C 40.045137 29.351835 50.129943 0
M  V30 7 O 38.570842 27.967991 53.167017 0
M  V30 8 C 39.393301 28.457386 51.021674 0
M  V30 9 H 40.958315 31.284392 49.962946 0
M  V30 10 H 40.202466 29.069123 49.100199 0
M  V30 11 H 38.311844 27.193324 52.691746 0
M  V30 12 H 39.058437 27.495590 50.658043 0
M  V30 END ATOM
M  V30 BEGIN BOND
M  V30 1 1 2 1
M  V30 2 1 3 2
M  V30 3 2 4 3
M  V30 4 1 5 3
M  V30 5 2 6 1
M  V30 6 1 7 5
M  V30 7 2 8 5
M  V30 8 1 8 6
M  V30 9 1 9 1
M  V30 10 1 10 6
M  V30 11 1 11 7
M  V30 12 1 12 8
M  V30 END BOND
M  V30 END CTAB
M  END
>  <i_epik_Tot_Q>  (1) 
0

>  <i_epik_Tot_abs_Q>  (1) 
0

>  <i_i_glide_confnum>  (1) 
1

>  <i_i_glide_lignum>  (1) 
72

>  <i_i_glide_posenum>  (1) 
78

>  <i_i_glide_rotatable_bonds>  (1) 
1

>  <i_lp_mmshare_version>  (1) 
72125

>  <i_m_source_file_index>  (1) 
68

>  <i_f3d_flags>  (1) 
0

>  <num_sample>  (1) 
100

>  <b_lp_Chiralities_Consistent>  (1) 
1

>  <r_epik_Charging_Adjusted_Penalty>  (1) 
0

>  <r_epik_Ionization_Penalty>  (1) 
0.00075652206847014289

>  <r_epik_Ionization_Penalty_Charging>  (1) 
0

>  <r_epik_Ionization_Penalty_Neutral>  (1) 
0.00075652206847014289

>  <r_epik_State_Penalty>  (1) 
-0

>  <r_glide_ring_energy>  (1) 
0

>  <r_i_docking_score>  (1) 
-5.215039493069729

>  <r_i_glide_ecoul>  (1) 
-0.54673136025446389

>  <r_i_glide_eff_state_penalty>  (1) 
-0

>  <r_i_glide_einternal>  (1) 
0.016344987163689817

>  <r_i_glide_emodel>  (1) 
-26.133426501584644

>  <r_i_glide_emodel_strain>  (1) 
0

>  <r_i_glide_energy>  (1) 
-18.984299703345634

>  <r_i_glide_erotb>  (1) 
0

>  <r_i_glide_esite>  (1) 
0

>  <r_i_glide_evdw>  (1) 
-18.437568343091172

>  <r_i_glide_gscore>  (1) 
-5.215039493069729

>  <r_i_glide_gscore_strain>  (1) 
0

>  <r_i_glide_hbond>  (1) 
0

>  <r_i_glide_ligand_efficiency>  (1) 
-0.65187993663371613

>  <r_i_glide_ligand_efficiency_ln>  (1) 
-1.6935017023329899

>  <r_i_glide_ligand_efficiency_sa>  (1) 
-1.3037598732674325

>  <r_i_glide_lipo>  (1) 
-1.5688015630066865

>  <r_i_glide_metal>  (1) 
-0

>  <r_i_glide_rewards>  (1) 
-2.6423498088703146

>  <r_lp_Energy>  (1) 
14.218883999999999

>  <r_lp_tautomer_probability>  (1) 
1

>  <s_epik_cmdline>  (1) 
J2VwaWtfcHl0aG9uJywgJy1waHQnLCAnMS4wJywgJy1waCcsICc3LjQnLCAnLXRuJywgJzgnLCAnLW1hJywgJzUwMCcsICctaW1hZScsICc8aW5maWxlLm1hZT4nLCAnLW9tYWUnLCAnPG91dGZpbGUubWFlPic=

>  <s_epik_input>  (1) 
Tz1jMW9bY0hdW2NIXVtjSF1jMVtPSF0=

>  <s_glide_docking_method>  (1) 
confgen

>  <s_i_glide_gridfile>  (1) 
gpcr_5ht2c_6bqh_protein_autoprepared_prepared

>  <s_lp_Force_Field>  (1) 
S-OPLS

>  <s_lp_Variant>  (1) 
Pocket2Mol_67-1

>  <s_m_source_file>  (1) 
generated_GPCR_5HT2C_ligand_Pocket2Mol_2026-06-23_prepared.sdf

>  <GenAI_Model>  (1) 
Pocket2Mol

>  <Protein>  (1) 
GPCR_5HT2C

$$$$
Pocket2Mol_38
     RDKit          3D

  0  0  0  0  0  0  0  0  0  0999 V3000
M  V30 BEGIN CTAB
M  V30 COUNTS 17 17 0 0 1
M  V30 BEGIN ATOM
M  V30 1 C 40.382045 29.192249 50.953582 0
M  V30 2 C 39.276871 28.141814 51.164136 0
M  V30 3 C 38.863708 28.047360 52.632444 0
M  V30 4 O 38.736827 26.962088 53.194670 0
M  V30 5 C 40.045163 30.552432 51.567613 0
M  V30 6 C 39.672335 30.434712 53.060769 0
M  V30 7 C 38.613922 29.361607 53.371158 0
M  V30 8 H 41.318609 28.825644 51.369366 0
M  V30 9 H 40.548480 29.327421 49.884584 0
M  V30 10 H 39.607761 27.161209 50.815979 0
M  V30 11 H 37.639973 29.733416 53.075836 0
M  V30 12 H 38.399192 28.406230 50.576268 0
M  V30 13 H 39.245137 31.004831 50.984633 0
M  V30 14 H 40.890823 31.232790 51.456527 0
M  V30 15 H 39.318376 31.400695 53.419531 0
M  V30 16 H 40.565402 30.215353 53.642252 0
M  V30 17 H 38.566693 29.174834 54.444941 0
M  V30 END ATOM
M  V30 BEGIN BOND
M  V30 1 1 2 1
M  V30 2 1 3 2
M  V30 3 2 4 3
M  V30 4 1 5 1
M  V30 5 1 6 5
M  V30 6 1 7 3
M  V30 7 1 7 6
M  V30 8 1 8 1
M  V30 9 1 9 1
M  V30 10 1 10 2
M  V30 11 1 11 7
M  V30 12 1 12 2
M  V30 13 1 13 5
M  V30 14 1 14 5
M  V30 15 1 15 6
M  V30 16 1 16 6
M  V30 17 1 17 7
M  V30 END BOND
M  V30 END CTAB
M  END
>  <i_epik_Tot_Q>  (1) 
0

>  <i_epik_Tot_abs_Q>  (1) 
0

>  <i_i_glide_confnum>  (1) 
1

>  <i_i_glide_lignum>  (1) 
41

>  <i_i_glide_posenum>  (1) 
146

>  <i_i_glide_rotatable_bonds>  (1) 
0

>  <i_lp_mmshare_version>  (1) 
72125

>  <i_m_source_file_index>  (1) 
39

>  <i_f3d_flags>  (1) 
0

>  <num_sample>  (1) 
100

>  <b_lp_Chiralities_Consistent>  (1) 
1

>  <r_epik_Charging_Adjusted_Penalty>  (1) 
0

>  <r_epik_Ionization_Penalty>  (1) 
3.7730911281982554e-13

>  <r_epik_Ionization_Penalty_Charging>  (1) 
0

>  <r_epik_Ionization_Penalty_Neutral>  (1) 
3.7730911281982554e-13

>  <r_epik_State_Penalty>  (1) 
-0

>  <r_glide_ring_energy>  (1) 
0

>  <r_i_docking_score>  (1) 
-5.2120675540203276

>  <r_i_glide_ecoul>  (1) 
0.16291180612080022

>  <r_i_glide_eff_state_penalty>  (1) 
-0

>  <r_i_glide_einternal>  (1) 
0

>  <r_i_glide_emodel>  (1) 
-21.209495531348463

>  <r_i_glide_emodel_strain>  (1) 
0

>  <r_i_glide_energy>  (1) 
-15.77391291450156

>  <r_i_glide_erotb>  (1) 
0

>  <r_i_glide_esite>  (1) 
0

>  <r_i_glide_evdw>  (1) 
-15.93682472062236

>  <r_i_glide_gscore>  (1) 
-5.2120675540203276

>  <r_i_glide_gscore_strain>  (1) 
0

>  <r_i_glide_hbond>  (1) 
0

>  <r_i_glide_ligand_efficiency>  (1) 
-0.7445810791457611

>  <r_i_glide_ligand_efficiency_ln>  (1) 
-1.7692554389996311

>  <r_i_glide_ligand_efficiency_sa>  (1) 
-1.4243323644002428

>  <r_i_glide_lipo>  (1) 
-1.459743690325402

>  <r_i_glide_metal>  (1) 
-0

>  <r_i_glide_rewards>  (1) 
-2.9799193985819272

>  <r_lp_Energy>  (1) 
-0.38638499999999998

>  <r_lp_tautomer_probability>  (1) 
1

>  <s_epik_cmdline>  (1) 
J2VwaWtfcHl0aG9uJywgJy1waHQnLCAnMS4wJywgJy1waCcsICc3LjQnLCAnLXRuJywgJzgnLCAnLW1hJywgJzUwMCcsICctaW1hZScsICc8aW5maWxlLm1hZT4nLCAnLW9tYWUnLCAnPG91dGZpbGUubWFlPic=

>  <s_epik_input>  (1) 
W0NIMl0xW0NIMl1bQ0gyXVtDSDJdW0NIXT1DMVtPSF0=

>  <s_glide_docking_method>  (1) 
confgen

>  <s_i_glide_gridfile>  (1) 
gpcr_5ht2c_6bqh_protein_autoprepared_prepared

>  <s_lp_Force_Field>  (1) 
S-OPLS

>  <s_lp_Variant>  (1) 
Pocket2Mol_38-1

>  <s_m_source_file>  (1) 
generated_GPCR_5HT2C_ligand_Pocket2Mol_2026-06-23_prepared.sdf

>  <GenAI_Model>  (1) 
Pocket2Mol

>  <Protein>  (1) 
GPCR_5HT2C

$$$$
Pocket2Mol_70
     RDKit          3D

  0  0  0  0  0  0  0  0  0  0999 V3000
M  V30 BEGIN CTAB
M  V30 COUNTS 17 18 0 0 1
M  V30 BEGIN ATOM
M  V30 1 C 39.134823 29.972211 53.894074 0
M  V30 2 C 39.245137 29.378439 52.585174 0
M  V30 3 C 38.518115 28.141371 52.193790 0 CFG=2
M  V30 4 C 39.989137 29.806244 51.645091 0
M  V30 5 C 38.054054 27.376912 53.429586 0
M  V30 6 N 39.983140 29.002078 50.587477 0
M  V30 7 N 39.245144 27.737063 50.863328 0
M  V30 8 C 38.545817 29.286681 54.889032 0
M  V30 9 C 38.045129 27.931453 54.664469 0
M  V30 10 H 39.541570 30.955965 54.080516 0
M  V30 11 H 37.558992 28.516107 51.833700 0
M  V30 12 H 40.649732 30.661931 51.639312 0
M  V30 13 H 37.685737 26.372634 53.280576 0
M  V30 14 H 40.730983 29.007287 49.909575 0
M  V30 15 H 39.932464 27.010681 51.053173 0
M  V30 16 H 38.476150 29.726686 55.873449 0
M  V30 17 H 37.674028 27.357813 55.501062 0
M  V30 END ATOM
M  V30 BEGIN BOND
M  V30 1 1 2 1
M  V30 2 1 3 2
M  V30 3 2 4 2
M  V30 4 1 5 3
M  V30 5 1 6 4
M  V30 6 1 7 3
M  V30 7 1 7 6
M  V30 8 2 8 1
M  V30 9 2 9 5
M  V30 10 1 9 8
M  V30 11 1 10 1
M  V30 12 1 3 11 CFG=3
M  V30 13 1 12 4
M  V30 14 1 13 5
M  V30 15 1 14 6
M  V30 16 1 15 7
M  V30 17 1 16 8
M  V30 18 1 17 9
M  V30 END BOND
M  V30 END CTAB
M  END
>  <i_epik_Tot_Q>  (1) 
0

>  <i_epik_Tot_abs_Q>  (1) 
0

>  <i_i_glide_confnum>  (1) 
1

>  <i_i_glide_lignum>  (1) 
75

>  <i_i_glide_posenum>  (1) 
100

>  <i_i_glide_rotatable_bonds>  (1) 
0

>  <i_lp_mmshare_version>  (1) 
72125

>  <i_m_source_file_index>  (1) 
71

>  <i_f3d_flags>  (1) 
0

>  <num_sample>  (1) 
100

>  <b_lp_Chiralities_Consistent>  (1) 
1

>  <r_epik_Charging_Adjusted_Penalty>  (1) 
0

>  <r_epik_Ionization_Penalty>  (1) 
4.3565390981668577e-05

>  <r_epik_Ionization_Penalty_Charging>  (1) 
0

>  <r_epik_Ionization_Penalty_Neutral>  (1) 
4.3565390981668577e-05

>  <r_epik_State_Penalty>  (1) 
-0

>  <r_glide_ring_energy>  (1) 
0

>  <r_i_docking_score>  (1) 
-5.2116720082949612

>  <r_i_glide_ecoul>  (1) 
0.67167374519671075

>  <r_i_glide_eff_state_penalty>  (1) 
-0

>  <r_i_glide_einternal>  (1) 
0

>  <r_i_glide_emodel>  (1) 
-28.379141736822412

>  <r_i_glide_emodel_strain>  (1) 
0

>  <r_i_glide_energy>  (1) 
-20.847844853946594

>  <r_i_glide_erotb>  (1) 
0

>  <r_i_glide_esite>  (1) 
0

>  <r_i_glide_evdw>  (1) 
-21.519518599143304

>  <r_i_glide_gscore>  (1) 
-5.2116720082949612

>  <r_i_glide_gscore_strain>  (1) 
0

>  <r_i_glide_hbond>  (1) 
0

>  <r_i_glide_ligand_efficiency>  (1) 
-0.57907466758832904

>  <r_i_glide_ligand_efficiency_ln>  (1) 
-1.6300612866666646

>  <r_i_glide_ligand_efficiency_sa>  (1) 
-1.2045238483896421

>  <r_i_glide_lipo>  (1) 
-1.8473568447754569

>  <r_i_glide_metal>  (1) 
-0

>  <r_i_glide_rewards>  (1) 
-2.3890902953418456

>  <r_lp_Energy>  (1) 
4.0618679999999996

>  <r_lp_tautomer_probability>  (1) 
1

>  <s_epik_cmdline>  (1) 
J2VwaWtfcHl0aG9uJywgJy1waHQnLCAnMS4wJywgJy1waCcsICc3LjQnLCAnLXRuJywgJzgnLCAnLW1hJywgJzUwMCcsICctaW1hZScsICc8aW5maWxlLm1hZT4nLCAnLW9tYWUnLCAnPG91dGZpbGUubWFlPic=

>  <s_epik_input>  (1) 
W0NIXTE9W0NIXVtDSF09W0NIXVtDQEBIXShDMT0yKVtOSF1bTkhdW0NIXTI=

>  <s_glide_docking_method>  (1) 
confgen

>  <s_i_glide_gridfile>  (1) 
gpcr_5ht2c_6bqh_protein_autoprepared_prepared

>  <s_lp_Force_Field>  (1) 
S-OPLS

>  <s_lp_Variant>  (1) 
Pocket2Mol_70-1

>  <s_m_source_file>  (1) 
generated_GPCR_5HT2C_ligand_Pocket2Mol_2026-06-23_prepared.sdf

>  <GenAI_Model>  (1) 
Pocket2Mol

>  <Protein>  (1) 
GPCR_5HT2C

$$$$
Pocket2Mol_63
     RDKit          3D

  0  0  0  0  0  0  0  0  0  0999 V3000
M  V30 BEGIN CTAB
M  V30 COUNTS 14 14 0 0 1
M  V30 BEGIN ATOM
M  V30 1 C 38.004900 28.962290 53.650185 0
M  V30 2 C 39.186611 29.757247 53.310668 0
M  V30 3 C 37.725271 28.013412 52.839155 0
M  V30 4 C 38.633037 27.867206 51.694235 0
M  V30 5 N 39.685455 28.867383 52.167751 0
M  V30 6 N 40.040975 29.769851 50.979764 0 CHG=1
M  V30 7 O 40.045134 29.250392 49.869011 0 CHG=-1
M  V30 8 O 40.322056 30.937180 51.229817 0
M  V30 9 H 37.422986 29.188656 54.532699 0
M  V30 10 H 38.859785 30.759099 53.033527 0
M  V30 11 H 39.904454 29.805388 54.129910 0
M  V30 12 H 36.881727 27.349257 52.963277 0
M  V30 13 H 39.038937 26.858812 51.612281 0
M  V30 14 H 38.110230 28.146739 50.780482 0
M  V30 END ATOM
M  V30 BEGIN BOND
M  V30 1 1 2 1
M  V30 2 2 3 1
M  V30 3 1 4 3
M  V30 4 1 5 2
M  V30 5 1 5 4
M  V30 6 1 6 5
M  V30 7 1 7 6
M  V30 8 2 8 6
M  V30 9 1 9 1
M  V30 10 1 10 2
M  V30 11 1 11 2
M  V30 12 1 12 3
M  V30 13 1 13 4
M  V30 14 1 14 4
M  V30 END BOND
M  V30 END CTAB
M  END
>  <i_epik_Tot_Q>  (1) 
0

>  <i_epik_Tot_abs_Q>  (1) 
2

>  <i_i_glide_confnum>  (1) 
1

>  <i_i_glide_lignum>  (1) 
67

>  <i_i_glide_posenum>  (1) 
215

>  <i_i_glide_rotatable_bonds>  (1) 
1

>  <i_lp_mmshare_version>  (1) 
72125

>  <i_m_source_file_index>  (1) 
64

>  <i_f3d_flags>  (1) 
0

>  <num_sample>  (1) 
100

>  <b_lp_Chiralities_Consistent>  (1) 
1

>  <r_epik_Charging_Adjusted_Penalty>  (1) 
0.01004869924428556

>  <r_epik_Ionization_Penalty>  (1) 
0.010048699244285546

>  <r_epik_Ionization_Penalty_Charging>  (1) 
0

>  <r_epik_Ionization_Penalty_Neutral>  (1) 
0.010048699244285546

>  <r_epik_State_Penalty>  (1) 
0.01004869924428556

>  <r_glide_ring_energy>  (1) 
0

>  <r_i_docking_score>  (1) 
-5.2081398788953033

>  <r_i_glide_ecoul>  (1) 
0.10145267490284848

>  <r_i_glide_eff_state_penalty>  (1) 
0.01004869924428556

>  <r_i_glide_einternal>  (1) 
0.029952495003389507

>  <r_i_glide_emodel>  (1) 
-24.359686010808193

>  <r_i_glide_emodel_strain>  (1) 
0

>  <r_i_glide_energy>  (1) 
-18.241627263926034

>  <r_i_glide_erotb>  (1) 
0

>  <r_i_glide_esite>  (1) 
0

>  <r_i_glide_evdw>  (1) 
-18.343079938828883

>  <r_i_glide_gscore>  (1) 
-5.2181885781395891

>  <r_i_glide_gscore_strain>  (1) 
0

>  <r_i_glide_hbond>  (1) 
0

>  <r_i_glide_ligand_efficiency>  (1) 
-0.65101748486191291

>  <r_i_glide_ligand_efficiency_ln>  (1) 
-1.6912611616112259

>  <r_i_glide_ligand_efficiency_sa>  (1) 
-1.302034969723826

>  <r_i_glide_lipo>  (1) 
-1.1864082187696916

>  <r_i_glide_metal>  (1) 
-0

>  <r_i_glide_rewards>  (1) 
-3.1298442636638804

>  <r_lp_Energy>  (1) 
16.803152000000001

>  <s_epik_cmdline>  (1) 
J2VwaWtfcHl0aG9uJywgJy1waHQnLCAnMS4wJywgJy1waCcsICc3LjQnLCAnLXRuJywgJzgnLCAnLW1hJywgJzUwMCcsICctaW1hZScsICc8aW5maWxlLm1hZT4nLCAnLW9tYWUnLCAnPG91dGZpbGUubWFlPic=

>  <s_epik_input>  (1) 
W0NIMl0xW0NIXT1bQ0hdW0NIMl1OMVtOK10oW08tXSk9Tw==

>  <s_glide_docking_method>  (1) 
confgen

>  <s_i_glide_gridfile>  (1) 
gpcr_5ht2c_6bqh_protein_autoprepared_prepared

>  <s_lp_Force_Field>  (1) 
S-OPLS

>  <s_lp_Variant>  (1) 
Pocket2Mol_63-1

>  <s_m_source_file>  (1) 
generated_GPCR_5HT2C_ligand_Pocket2Mol_2026-06-23_prepared.sdf

>  <GenAI_Model>  (1) 
Pocket2Mol

>  <Protein>  (1) 
GPCR_5HT2C

$$$$
Pocket2Mol_61
     RDKit          3D

  0  0  0  0  0  0  0  0  0  0999 V3000
M  V30 BEGIN CTAB
M  V30 COUNTS 16 16 0 0 1
M  V30 BEGIN ATOM
M  V30 1 C 40.046473 29.751561 51.352475 0
M  V30 2 C 39.562431 29.939278 52.795049 0
M  V30 3 C 39.584545 28.349951 50.938222 0
M  V30 4 C 38.942259 27.741351 52.184087 0
M  V30 5 N 38.502270 28.937742 52.888359 0
M  V30 6 N 38.367906 28.557123 54.364050 0 CHG=1
M  V30 7 O 38.613500 29.432015 55.189978 0 CHG=-1
M  V30 8 O 38.009296 27.408345 54.612504 0
M  V30 9 H 39.608179 30.502781 50.694113 0
M  V30 10 H 41.129565 29.854595 51.284605 0
M  V30 11 H 39.198158 30.948484 52.989824 0
M  V30 12 H 40.380049 29.737755 53.485757 0
M  V30 13 H 40.405554 27.737800 50.567477 0
M  V30 14 H 38.845168 28.427000 50.140637 0
M  V30 15 H 39.698916 27.202272 52.756901 0
M  V30 16 H 38.118481 27.064361 51.953416 0
M  V30 END ATOM
M  V30 BEGIN BOND
M  V30 1 1 2 1
M  V30 2 1 3 1
M  V30 3 1 4 3
M  V30 4 1 5 2
M  V30 5 1 5 4
M  V30 6 1 6 5
M  V30 7 1 7 6
M  V30 8 2 8 6
M  V30 9 1 9 1
M  V30 10 1 10 1
M  V30 11 1 11 2
M  V30 12 1 12 2
M  V30 13 1 13 3
M  V30 14 1 14 3
M  V30 15 1 15 4
M  V30 16 1 16 4
M  V30 END BOND
M  V30 END CTAB
M  END
>  <i_epik_Tot_Q>  (1) 
0

>  <i_epik_Tot_abs_Q>  (1) 
2

>  <i_i_glide_confnum>  (1) 
1

>  <i_i_glide_lignum>  (1) 
65

>  <i_i_glide_posenum>  (1) 
62

>  <i_i_glide_rotatable_bonds>  (1) 
1

>  <i_lp_mmshare_version>  (1) 
72125

>  <i_m_source_file_index>  (1) 
62

>  <i_f3d_flags>  (1) 
0

>  <num_sample>  (1) 
100

>  <b_lp_Chiralities_Consistent>  (1) 
1

>  <r_epik_Charging_Adjusted_Penalty>  (1) 
0

>  <r_epik_Ionization_Penalty>  (1) 
5.9201220630741648e-14

>  <r_epik_Ionization_Penalty_Charging>  (1) 
0

>  <r_epik_Ionization_Penalty_Neutral>  (1) 
5.9201220630741648e-14

>  <r_epik_State_Penalty>  (1) 
-0

>  <r_glide_ring_energy>  (1) 
0

>  <r_i_docking_score>  (1) 
-5.205498428378462

>  <r_i_glide_ecoul>  (1) 
-0.07045645677701734

>  <r_i_glide_eff_state_penalty>  (1) 
-0

>  <r_i_glide_einternal>  (1) 
0.023519665973616877

>  <r_i_glide_emodel>  (1) 
-23.151553524063363

>  <r_i_glide_emodel_strain>  (1) 
2.0764190367117408e-10

>  <r_i_glide_energy>  (1) 
-17.640557303735605

>  <r_i_glide_erotb>  (1) 
0

>  <r_i_glide_esite>  (1) 
0

>  <r_i_glide_evdw>  (1) 
-17.570100846958589

>  <r_i_glide_gscore>  (1) 
-5.205498428378462

>  <r_i_glide_gscore_strain>  (1) 
0

>  <r_i_glide_hbond>  (1) 
0

>  <r_i_glide_ligand_efficiency>  (1) 
-0.65068730354730775

>  <r_i_glide_ligand_efficiency_ln>  (1) 
-1.6904033922783486

>  <r_i_glide_ligand_efficiency_sa>  (1) 
-1.3013746070946157

>  <r_i_glide_lipo>  (1) 
-1.3090670632630523

>  <r_i_glide_metal>  (1) 
-0

>  <r_i_glide_rewards>  (1) 
-3.0073578542509272

>  <r_lp_Energy>  (1) 
26.171151999999999

>  <r_lp_tautomer_probability>  (1) 
1

>  <s_epik_cmdline>  (1) 
J2VwaWtfcHl0aG9uJywgJy1waHQnLCAnMS4wJywgJy1waCcsICc3LjQnLCAnLXRuJywgJzgnLCAnLW1hJywgJzUwMCcsICctaW1hZScsICc8aW5maWxlLm1hZT4nLCAnLW9tYWUnLCAnPG91dGZpbGUubWFlPic=

>  <s_epik_input>  (1) 
W0NIMl0xW0NIMl1bQ0gyXVtDSDJdTjFbTitdKFtPLV0pPU8=

>  <s_glide_docking_method>  (1) 
confgen

>  <s_i_glide_gridfile>  (1) 
gpcr_5ht2c_6bqh_protein_autoprepared_prepared

>  <s_lp_Force_Field>  (1) 
S-OPLS

>  <s_lp_Variant>  (1) 
Pocket2Mol_61-1

>  <s_m_source_file>  (1) 
generated_GPCR_5HT2C_ligand_Pocket2Mol_2026-06-23_prepared.sdf

>  <GenAI_Model>  (1) 
Pocket2Mol

>  <Protein>  (1) 
GPCR_5HT2C

$$$$
Pocket2Mol_8
     RDKit          3D

  0  0  0  0  0  0  0  0  0  0999 V3000
M  V30 BEGIN CTAB
M  V30 COUNTS 12 12 0 0 1
M  V30 BEGIN ATOM
M  V30 1 C 38.845137 29.170417 53.468340 0
M  V30 2 C 39.645137 30.137755 52.828705 0
M  V30 3 C 38.445139 28.013788 52.770424 0
M  V30 4 C 38.845139 27.824499 51.432873 0
M  V30 5 C 39.645138 28.791838 50.793239 0
M  V30 6 C 40.045137 29.948466 51.491154 0
M  V30 7 H 38.538463 29.315542 54.493818 0
M  V30 8 H 39.951808 31.024522 53.363786 0
M  V30 9 H 37.831794 27.272147 53.260821 0
M  V30 10 H 38.538467 26.937732 50.897793 0
M  V30 11 H 39.951810 28.646713 49.767761 0
M  V30 12 H 40.658481 30.690107 51.000756 0
M  V30 END ATOM
M  V30 BEGIN BOND
M  V30 1 1 2 1
M  V30 2 2 3 1
M  V30 3 1 4 3
M  V30 4 2 5 4
M  V30 5 2 6 2
M  V30 6 1 6 5
M  V30 7 1 7 1
M  V30 8 1 8 2
M  V30 9 1 9 3
M  V30 10 1 10 4
M  V30 11 1 11 5
M  V30 12 1 12 6
M  V30 END BOND
M  V30 END CTAB
M  END
>  <i_epik_Tot_Q>  (1) 
0

>  <i_epik_Tot_abs_Q>  (1) 
0

>  <i_i_glide_confnum>  (1) 
1

>  <i_i_glide_lignum>  (1) 
11

>  <i_i_glide_posenum>  (1) 
108

>  <i_i_glide_rotatable_bonds>  (1) 
0

>  <i_lp_mmshare_version>  (1) 
72125

>  <i_m_source_file_index>  (1) 
9

>  <i_f3d_flags>  (1) 
0

>  <num_sample>  (1) 
100

>  <b_lp_Chiralities_Consistent>  (1) 
1

>  <r_epik_Charging_Adjusted_Penalty>  (1) 
0

>  <r_epik_Ionization_Penalty>  (1) 
0

>  <r_epik_Ionization_Penalty_Charging>  (1) 
0

>  <r_epik_Ionization_Penalty_Neutral>  (1) 
0

>  <r_epik_State_Penalty>  (1) 
-0

>  <r_glide_ring_energy>  (1) 
0

>  <r_i_docking_score>  (1) 
-5.2035197966450273

>  <r_i_glide_ecoul>  (1) 
-0.85536188476164143

>  <r_i_glide_eff_state_penalty>  (1) 
-0

>  <r_i_glide_einternal>  (1) 
0

>  <r_i_glide_emodel>  (1) 
-20.639788896087399

>  <r_i_glide_emodel_strain>  (1) 
0

>  <r_i_glide_energy>  (1) 
-15.715170515812854

>  <r_i_glide_erotb>  (1) 
0

>  <r_i_glide_esite>  (1) 
0

>  <r_i_glide_evdw>  (1) 
-14.859808631051212

>  <r_i_glide_gscore>  (1) 
-5.2035197966450273

>  <r_i_glide_gscore_strain>  (1) 
0

>  <r_i_glide_hbond>  (1) 
0

>  <r_i_glide_ligand_efficiency>  (1) 
-0.86725329944083784

>  <r_i_glide_ligand_efficiency_ln>  (1) 
-1.8638854292428868

>  <r_i_glide_ligand_efficiency_sa>  (1) 
-1.5759038296155647

>  <r_i_glide_lipo>  (1) 
-1.8934715124867858

>  <r_i_glide_metal>  (1) 
-0

>  <r_i_glide_rewards>  (1) 
-2.4387535698914347

>  <r_lp_Energy>  (1) 
6.1542199999999996

>  <r_lp_tautomer_probability>  (1) 
1

>  <s_epik_cmdline>  (1) 
J2VwaWtfcHl0aG9uJywgJy1waHQnLCAnMS4wJywgJy1waCcsICc3LjQnLCAnLXRuJywgJzgnLCAnLW1hJywgJzUwMCcsICctaW1hZScsICc8aW5maWxlLm1hZT4nLCAnLW9tYWUnLCAnPG91dGZpbGUubWFlPic=

>  <s_epik_input>  (1) 
W2NIXTFbY0hdW2NIXVtjSF1bY0hdW2NIXTE=

>  <s_glide_docking_method>  (1) 
confgen

>  <s_i_glide_gridfile>  (1) 
gpcr_5ht2c_6bqh_protein_autoprepared_prepared

>  <s_lp_Force_Field>  (1) 
S-OPLS

>  <s_lp_Variant>  (1) 
Pocket2Mol_8-1

>  <s_m_source_file>  (1) 
generated_GPCR_5HT2C_ligand_Pocket2Mol_2026-06-23_prepared.sdf

>  <GenAI_Model>  (1) 
Pocket2Mol

>  <Protein>  (1) 
GPCR_5HT2C

$$$$
Pocket2Mol_63
     RDKit          3D

  0  0  0  0  0  0  0  0  0  0999 V3000
M  V30 BEGIN CTAB
M  V30 COUNTS 14 14 0 0 1
M  V30 BEGIN ATOM
M  V30 1 C 40.045137 30.045728 51.617059 0
M  V30 2 C 39.540271 30.137756 52.990288 0
M  V30 3 C 39.695815 28.999817 50.967773 0
M  V30 4 C 38.845064 28.056747 51.696506 0
M  V30 5 N 38.589268 28.936082 52.924857 0
M  V30 6 N 38.845140 28.072671 54.162933 0 CHG=1
M  V30 7 O 38.615017 26.870784 54.061719 0 CHG=-1
M  V30 8 O 39.243133 28.648270 55.171584 0
M  V30 9 H 40.672390 30.824800 51.207061 0
M  V30 10 H 40.381317 30.052314 53.677734 0
M  V30 11 H 39.004175 31.069167 53.173461 0
M  V30 12 H 39.994907 28.798788 49.949420 0
M  V30 13 H 37.924227 27.827118 51.161575 0
M  V30 14 H 39.418806 27.147102 51.876351 0
M  V30 END ATOM
M  V30 BEGIN BOND
M  V30 1 1 2 1
M  V30 2 2 3 1
M  V30 3 1 4 3
M  V30 4 1 5 2
M  V30 5 1 5 4
M  V30 6 1 6 5
M  V30 7 1 7 6
M  V30 8 2 8 6
M  V30 9 1 9 1
M  V30 10 1 10 2
M  V30 11 1 11 2
M  V30 12 1 12 3
M  V30 13 1 13 4
M  V30 14 1 14 4
M  V30 END BOND
M  V30 END CTAB
M  END
>  <i_epik_Tot_Q>  (1) 
0

>  <i_epik_Tot_abs_Q>  (1) 
2

>  <i_i_glide_confnum>  (1) 
1

>  <i_i_glide_lignum>  (1) 
67

>  <i_i_glide_posenum>  (1) 
61

>  <i_i_glide_rotatable_bonds>  (1) 
1

>  <i_lp_mmshare_version>  (1) 
72125

>  <i_m_source_file_index>  (1) 
64

>  <i_f3d_flags>  (1) 
0

>  <num_sample>  (1) 
100

>  <b_lp_Chiralities_Consistent>  (1) 
1

>  <r_epik_Charging_Adjusted_Penalty>  (1) 
0.01004869924428556

>  <r_epik_Ionization_Penalty>  (1) 
0.010048699244285546

>  <r_epik_Ionization_Penalty_Charging>  (1) 
0

>  <r_epik_Ionization_Penalty_Neutral>  (1) 
0.010048699244285546

>  <r_epik_State_Penalty>  (1) 
0.01004869924428556

>  <r_glide_ring_energy>  (1) 
0

>  <r_i_docking_score>  (1) 
-5.201110929591918

>  <r_i_glide_ecoul>  (1) 
-0.32662063376224482

>  <r_i_glide_eff_state_penalty>  (1) 
0.01004869924428556

>  <r_i_glide_einternal>  (1) 
-2.1040129504656946e-05

>  <r_i_glide_emodel>  (1) 
-23.834805376933925

>  <r_i_glide_emodel_strain>  (1) 
0

>  <r_i_glide_energy>  (1) 
-17.710021118552607

>  <r_i_glide_erotb>  (1) 
0

>  <r_i_glide_esite>  (1) 
0

>  <r_i_glide_evdw>  (1) 
-17.383400484790361

>  <r_i_glide_gscore>  (1) 
-5.2111596288362039

>  <r_i_glide_gscore_strain>  (1) 
0

>  <r_i_glide_hbond>  (1) 
0

>  <r_i_glide_ligand_efficiency>  (1) 
-0.65013886619898975

>  <r_i_glide_ligand_efficiency_ln>  (1) 
-1.6889786213492175

>  <r_i_glide_ligand_efficiency_sa>  (1) 
-1.3002777323979797

>  <r_i_glide_lipo>  (1) 
-1.3200000000000001

>  <r_i_glide_metal>  (1) 
-0

>  <r_i_glide_rewards>  (1) 
-2.9729965095323485

>  <r_lp_Energy>  (1) 
16.803152000000001

>  <s_epik_cmdline>  (1) 
J2VwaWtfcHl0aG9uJywgJy1waHQnLCAnMS4wJywgJy1waCcsICc3LjQnLCAnLXRuJywgJzgnLCAnLW1hJywgJzUwMCcsICctaW1hZScsICc8aW5maWxlLm1hZT4nLCAnLW9tYWUnLCAnPG91dGZpbGUubWFlPic=

>  <s_epik_input>  (1) 
W0NIMl0xW0NIXT1bQ0hdW0NIMl1OMVtOK10oW08tXSk9Tw==

>  <s_glide_docking_method>  (1) 
confgen

>  <s_i_glide_gridfile>  (1) 
gpcr_5ht2c_6bqh_protein_autoprepared_prepared

>  <s_lp_Force_Field>  (1) 
S-OPLS

>  <s_lp_Variant>  (1) 
Pocket2Mol_63-1

>  <s_m_source_file>  (1) 
generated_GPCR_5HT2C_ligand_Pocket2Mol_2026-06-23_prepared.sdf

>  <GenAI_Model>  (1) 
Pocket2Mol

>  <Protein>  (1) 
GPCR_5HT2C

$$$$
Pocket2Mol_18
     RDKit          3D

  0  0  0  0  0  0  0  0  0  0999 V3000
M  V30 BEGIN CTAB
M  V30 COUNTS 18 18 0 0 1
M  V30 BEGIN ATOM
M  V30 1 C 39.519007 28.202857 50.848559 0
M  V30 2 C 40.550157 29.338307 50.904287 0
M  V30 3 C 40.045101 30.541114 51.691833 0
M  V30 4 C 39.109194 27.762891 52.259124 0
M  V30 5 C 39.569163 30.138717 53.099852 0
M  V30 6 C 38.577802 28.957056 53.068083 0
M  V30 7 H 38.640708 28.536145 50.297064 0
M  V30 8 H 39.926374 27.355440 50.296472 0
M  V30 9 H 41.462643 28.964625 51.367783 0
M  V30 10 H 40.822832 29.650427 49.895255 0
M  V30 11 H 40.828446 31.294854 51.767770 0
M  V30 12 H 39.245139 31.007016 51.118323 0
M  V30 13 H 38.348128 26.983169 52.199692 0
M  V30 14 H 39.966603 27.319554 52.765956 0
M  V30 15 H 39.101724 30.996087 53.584546 0
M  V30 16 H 40.430752 29.890199 53.716784 0
M  V30 17 H 37.644613 29.291586 52.619976 0
M  V30 18 H 38.335218 28.645115 54.084551 0
M  V30 END ATOM
M  V30 BEGIN BOND
M  V30 1 1 2 1
M  V30 2 1 3 2
M  V30 3 1 4 1
M  V30 4 1 5 3
M  V30 5 1 6 4
M  V30 6 1 6 5
M  V30 7 1 7 1
M  V30 8 1 8 1
M  V30 9 1 9 2
M  V30 10 1 10 2
M  V30 11 1 11 3
M  V30 12 1 12 3
M  V30 13 1 13 4
M  V30 14 1 14 4
M  V30 15 1 15 5
M  V30 16 1 16 5
M  V30 17 1 17 6
M  V30 18 1 18 6
M  V30 END BOND
M  V30 END CTAB
M  END
>  <i_epik_Tot_Q>  (1) 
0

>  <i_epik_Tot_abs_Q>  (1) 
0

>  <i_i_glide_confnum>  (1) 
2

>  <i_i_glide_lignum>  (1) 
21

>  <i_i_glide_posenum>  (1) 
334

>  <i_i_glide_rotatable_bonds>  (1) 
0

>  <i_lp_mmshare_version>  (1) 
72125

>  <i_m_source_file_index>  (1) 
19

>  <i_f3d_flags>  (1) 
0

>  <num_sample>  (1) 
100

>  <b_lp_Chiralities_Consistent>  (1) 
1

>  <r_epik_Charging_Adjusted_Penalty>  (1) 
0

>  <r_epik_Ionization_Penalty>  (1) 
0

>  <r_epik_Ionization_Penalty_Charging>  (1) 
0

>  <r_epik_Ionization_Penalty_Neutral>  (1) 
0

>  <r_epik_State_Penalty>  (1) 
-0

>  <r_glide_ring_energy>  (1) 
0.00054248204421707515

>  <r_i_docking_score>  (1) 
-5.1892961424400745

>  <r_i_glide_ecoul>  (1) 
-0.11350665769661664

>  <r_i_glide_eff_state_penalty>  (1) 
-0

>  <r_i_glide_einternal>  (1) 
0

>  <r_i_glide_emodel>  (1) 
-17.316441143339702

>  <r_i_glide_emodel_strain>  (1) 
0

>  <r_i_glide_energy>  (1) 
-12.925149737715094

>  <r_i_glide_erotb>  (1) 
0

>  <r_i_glide_esite>  (1) 
0

>  <r_i_glide_evdw>  (1) 
-12.811643080018477

>  <r_i_glide_gscore>  (1) 
-5.1892961424400745

>  <r_i_glide_gscore_strain>  (1) 
0

>  <r_i_glide_hbond>  (1) 
0

>  <r_i_glide_ligand_efficiency>  (1) 
-0.86488269040667909

>  <r_i_glide_ligand_efficiency_ln>  (1) 
-1.8587905582979749

>  <r_i_glide_ligand_efficiency_sa>  (1) 
-1.5715961471220408

>  <r_i_glide_lipo>  (1) 
-1.8244498182731068

>  <r_i_glide_metal>  (1) 
-0

>  <r_i_glide_rewards>  (1) 
-2.7072381715115519

>  <r_lp_Energy>  (1) 
5.7175969999999996

>  <r_lp_tautomer_probability>  (1) 
1

>  <s_epik_cmdline>  (1) 
J2VwaWtfcHl0aG9uJywgJy1waHQnLCAnMS4wJywgJy1waCcsICc3LjQnLCAnLXRuJywgJzgnLCAnLW1hJywgJzUwMCcsICctaW1hZScsICc8aW5maWxlLm1hZT4nLCAnLW9tYWUnLCAnPG91dGZpbGUubWFlPic=

>  <s_epik_input>  (1) 
W0NIMl0xW0NIMl1bQ0gyXVtDSDJdW0NIMl1bQ0gyXTE=

>  <s_glide_docking_method>  (1) 
confgen

>  <s_i_glide_gridfile>  (1) 
gpcr_5ht2c_6bqh_protein_autoprepared_prepared

>  <s_lp_Force_Field>  (1) 
S-OPLS

>  <s_lp_Variant>  (1) 
Pocket2Mol_18-1

>  <s_m_source_file>  (1) 
generated_GPCR_5HT2C_ligand_Pocket2Mol_2026-06-23_prepared.sdf

>  <GenAI_Model>  (1) 
Pocket2Mol

>  <Protein>  (1) 
GPCR_5HT2C

$$$$
Pocket2Mol_21
     RDKit          3D

  0  0  0  0  0  0  0  0  0  0999 V3000
M  V30 BEGIN CTAB
M  V30 COUNTS 13 13 0 0 1
M  V30 BEGIN ATOM
M  V30 1 C 39.465897 28.168946 50.967758 0
M  V30 2 C 40.045137 29.285061 50.302001 0
M  V30 3 C 39.227925 28.537096 52.261242 0
M  V30 4 C 40.144995 30.301384 51.207820 0
M  V30 5 N 39.645137 29.848351 52.415773 0
M  V30 6 C 39.570828 30.621096 53.638761 0
M  V30 7 H 39.245295 27.199416 50.543845 0
M  V30 8 H 40.354179 29.338061 49.268542 0
M  V30 9 H 38.801014 27.990350 53.089560 0
M  V30 10 H 40.525165 31.308649 51.109181 0
M  V30 11 H 39.135097 30.025633 54.441407 0
M  V30 12 H 40.571421 30.937536 53.934257 0
M  V30 13 H 38.953449 31.505174 53.477315 0
M  V30 END ATOM
M  V30 BEGIN BOND
M  V30 1 1 2 1
M  V30 2 2 3 1
M  V30 3 2 4 2
M  V30 4 1 5 3
M  V30 5 1 5 4
M  V30 6 1 6 5
M  V30 7 1 7 1
M  V30 8 1 8 2
M  V30 9 1 9 3
M  V30 10 1 10 4
M  V30 11 1 11 6
M  V30 12 1 12 6
M  V30 13 1 13 6
M  V30 END BOND
M  V30 END CTAB
M  END
>  <i_epik_Tot_Q>  (1) 
0

>  <i_epik_Tot_abs_Q>  (1) 
0

>  <i_i_glide_confnum>  (1) 
1

>  <i_i_glide_lignum>  (1) 
24

>  <i_i_glide_posenum>  (1) 
52

>  <i_i_glide_rotatable_bonds>  (1) 
0

>  <i_lp_mmshare_version>  (1) 
72125

>  <i_m_source_file_index>  (1) 
22

>  <i_f3d_flags>  (1) 
0

>  <num_sample>  (1) 
100

>  <b_lp_Chiralities_Consistent>  (1) 
1

>  <r_epik_Charging_Adjusted_Penalty>  (1) 
0

>  <r_epik_Ionization_Penalty>  (1) 
5.9248581604286784e-11

>  <r_epik_Ionization_Penalty_Charging>  (1) 
0

>  <r_epik_Ionization_Penalty_Neutral>  (1) 
5.9248581604286784e-11

>  <r_epik_State_Penalty>  (1) 
-0

>  <r_glide_ring_energy>  (1) 
0

>  <r_i_docking_score>  (1) 
-5.1835157157471059

>  <r_i_glide_ecoul>  (1) 
-0.71771243362162895

>  <r_i_glide_eff_state_penalty>  (1) 
-0

>  <r_i_glide_einternal>  (1) 
0

>  <r_i_glide_emodel>  (1) 
-21.354874000586079

>  <r_i_glide_emodel_strain>  (1) 
0

>  <r_i_glide_energy>  (1) 
-16.066873588687269

>  <r_i_glide_erotb>  (1) 
0

>  <r_i_glide_esite>  (1) 
0

>  <r_i_glide_evdw>  (1) 
-15.349161155065639

>  <r_i_glide_gscore>  (1) 
-5.1835157157471059

>  <r_i_glide_gscore_strain>  (1) 
0

>  <r_i_glide_hbond>  (1) 
0

>  <r_i_glide_ligand_efficiency>  (1) 
-0.86391928595785095

>  <r_i_glide_ligand_efficiency_ln>  (1) 
-1.8567200265216228

>  <r_i_glide_ligand_efficiency_sa>  (1) 
-1.5698455250588492

>  <r_i_glide_lipo>  (1) 
-1.6084007929505795

>  <r_i_glide_metal>  (1) 
-0

>  <r_i_glide_rewards>  (1) 
-2.7000000000000002

>  <r_lp_Energy>  (1) 
0.62146699999999999

>  <r_lp_tautomer_probability>  (1) 
1

>  <s_epik_cmdline>  (1) 
J2VwaWtfcHl0aG9uJywgJy1waHQnLCAnMS4wJywgJy1waCcsICc3LjQnLCAnLXRuJywgJzgnLCAnLW1hJywgJzUwMCcsICctaW1hZScsICc8aW5maWxlLm1hZT4nLCAnLW9tYWUnLCAnPG91dGZpbGUubWFlPic=

>  <s_epik_input>  (1) 
W2NIXTFbY0hdW2NIXVtjSF1uMVtDSDNd

>  <s_glide_docking_method>  (1) 
confgen

>  <s_i_glide_gridfile>  (1) 
gpcr_5ht2c_6bqh_protein_autoprepared_prepared

>  <s_lp_Force_Field>  (1) 
S-OPLS

>  <s_lp_Variant>  (1) 
Pocket2Mol_21-1

>  <s_m_source_file>  (1) 
generated_GPCR_5HT2C_ligand_Pocket2Mol_2026-06-23_prepared.sdf

>  <GenAI_Model>  (1) 
Pocket2Mol

>  <Protein>  (1) 
GPCR_5HT2C

$$$$
Pocket2Mol_53
     RDKit          3D

  0  0  0  0  0  0  0  0  0  0999 V3000
M  V30 BEGIN CTAB
M  V30 COUNTS 16 16 0 0 1
M  V30 BEGIN ATOM
M  V30 1 C 40.907619 30.650348 50.422795 0
M  V30 2 C 40.049689 29.733252 51.265251 0
M  V30 3 C 39.641211 28.489890 50.770392 0
M  V30 4 C 38.843277 27.676367 51.583341 0
M  V30 5 C 38.481725 28.139584 52.863866 0
M  V30 6 C 39.645256 30.114010 52.561106 0
M  V30 7 N 37.683202 27.352982 53.684831 0
M  V30 8 N 38.873295 29.337034 53.357765 0
M  V30 9 H 41.221220 30.166708 49.497488 0
M  V30 10 H 40.348239 31.547810 50.160374 0
M  V30 11 H 41.804666 30.937747 50.967757 0
M  V30 12 H 39.930672 28.166446 49.782728 0
M  V30 13 H 38.506439 26.714455 51.230032 0
M  V30 14 H 39.946993 31.067598 52.969426 0
M  V30 15 H 37.324592 26.461543 53.375314 0
M  V30 16 H 37.397060 27.671223 54.598463 0
M  V30 END ATOM
M  V30 BEGIN BOND
M  V30 1 1 2 1
M  V30 2 1 3 2
M  V30 3 2 4 3
M  V30 4 1 5 4
M  V30 5 2 6 2
M  V30 6 1 7 5
M  V30 7 2 8 5
M  V30 8 1 8 6
M  V30 9 1 9 1
M  V30 10 1 10 1
M  V30 11 1 11 1
M  V30 12 1 12 3
M  V30 13 1 13 4
M  V30 14 1 14 6
M  V30 15 1 15 7
M  V30 16 1 16 7
M  V30 END BOND
M  V30 END CTAB
M  END
>  <i_epik_Tot_Q>  (1) 
0

>  <i_epik_Tot_abs_Q>  (1) 
0

>  <i_i_glide_confnum>  (1) 
1

>  <i_i_glide_lignum>  (1) 
56

>  <i_i_glide_posenum>  (1) 
281

>  <i_i_glide_rotatable_bonds>  (1) 
0

>  <i_lp_mmshare_version>  (1) 
72125

>  <i_m_source_file_index>  (1) 
54

>  <i_f3d_flags>  (1) 
0

>  <num_sample>  (1) 
100

>  <b_lp_Chiralities_Consistent>  (1) 
1

>  <r_epik_Charging_Adjusted_Penalty>  (1) 
0.35861937746939487

>  <r_epik_Ionization_Penalty>  (1) 
0.35867228033349524

>  <r_epik_Ionization_Penalty_Charging>  (1) 
0

>  <r_epik_Ionization_Penalty_Neutral>  (1) 
0.35867228033349524

>  <r_epik_State_Penalty>  (1) 
0.35861937746939487

>  <r_glide_ring_energy>  (1) 
0

>  <r_i_docking_score>  (1) 
-5.1797121981031005

>  <r_i_glide_ecoul>  (1) 
-1.0684429400690847

>  <r_i_glide_eff_state_penalty>  (1) 
0.35861937746939487

>  <r_i_glide_einternal>  (1) 
0

>  <r_i_glide_emodel>  (1) 
-27.692118827339705

>  <r_i_glide_emodel_strain>  (1) 
0.0039626587514689504

>  <r_i_glide_energy>  (1) 
-20.746112372604074

>  <r_i_glide_erotb>  (1) 
0

>  <r_i_glide_esite>  (1) 
0

>  <r_i_glide_evdw>  (1) 
-19.677669432534991

>  <r_i_glide_gscore>  (1) 
-5.5383315755724958

>  <r_i_glide_gscore_strain>  (1) 
0

>  <r_i_glide_hbond>  (1) 
0

>  <r_i_glide_ligand_efficiency>  (1) 
-0.64746402476288756

>  <r_i_glide_ligand_efficiency_ln>  (1) 
-1.6820297212973125

>  <r_i_glide_ligand_efficiency_sa>  (1) 
-1.2949280495257753

>  <r_i_glide_lipo>  (1) 
-1.9441322533357253

>  <r_i_glide_metal>  (1) 
-0

>  <r_i_glide_rewards>  (1) 
-2.4500494095996586

>  <r_lp_Energy>  (1) 
5.8194469999999994

>  <r_lp_tautomer_probability>  (1) 
0.99999977220005165

>  <s_epik_cmdline>  (1) 
J2VwaWtfcHl0aG9uJywgJy1waHQnLCAnMS4wJywgJy1waCcsICc3LjQnLCAnLXRuJywgJzgnLCAnLW1hJywgJzUwMCcsICctaW1hZScsICc8aW5maWxlLm1hZT4nLCAnLW9tYWUnLCAnPG91dGZpbGUubWFlPic=

>  <s_epik_input>  (1) 
W0NIM11jMVtjSF1bY0hdYyhbTkgyXSluW2NIXTE=

>  <s_glide_docking_method>  (1) 
confgen

>  <s_i_glide_gridfile>  (1) 
gpcr_5ht2c_6bqh_protein_autoprepared_prepared

>  <s_lp_Force_Field>  (1) 
S-OPLS

>  <s_lp_Variant>  (1) 
Pocket2Mol_53-1

>  <s_m_source_file>  (1) 
generated_GPCR_5HT2C_ligand_Pocket2Mol_2026-06-23_prepared.sdf

>  <GenAI_Model>  (1) 
Pocket2Mol

>  <Protein>  (1) 
GPCR_5HT2C

$$$$
Pocket2Mol_21
     RDKit          3D

  0  0  0  0  0  0  0  0  0  0999 V3000
M  V30 BEGIN CTAB
M  V30 COUNTS 13 13 0 0 1
M  V30 BEGIN ATOM
M  V30 1 C 40.142121 30.303421 51.297013 0
M  V30 2 C 40.045137 29.337667 50.259559 0
M  V30 3 C 39.645137 29.737748 52.436890 0
M  V30 4 C 39.491669 28.208485 50.794738 0
M  V30 5 N 39.242536 28.447740 52.133090 0
M  V30 6 C 38.657224 27.503686 53.061675 0
M  V30 7 H 40.534017 31.307724 51.218145 0
M  V30 8 H 40.347092 29.456198 49.229850 0
M  V30 9 H 39.538242 30.130418 53.438101 0
M  V30 10 H 39.248680 27.254003 50.348699 0
M  V30 11 H 38.572312 27.947115 54.054430 0
M  V30 12 H 37.664242 27.215804 52.714815 0
M  V30 13 H 39.284919 26.614159 53.123308 0
M  V30 END ATOM
M  V30 BEGIN BOND
M  V30 1 1 2 1
M  V30 2 2 3 1
M  V30 3 2 4 2
M  V30 4 1 5 3
M  V30 5 1 5 4
M  V30 6 1 6 5
M  V30 7 1 7 1
M  V30 8 1 8 2
M  V30 9 1 9 3
M  V30 10 1 10 4
M  V30 11 1 11 6
M  V30 12 1 12 6
M  V30 13 1 13 6
M  V30 END BOND
M  V30 END CTAB
M  END
>  <i_epik_Tot_Q>  (1) 
0

>  <i_epik_Tot_abs_Q>  (1) 
0

>  <i_i_glide_confnum>  (1) 
1

>  <i_i_glide_lignum>  (1) 
24

>  <i_i_glide_posenum>  (1) 
128

>  <i_i_glide_rotatable_bonds>  (1) 
0

>  <i_lp_mmshare_version>  (1) 
72125

>  <i_m_source_file_index>  (1) 
22

>  <i_f3d_flags>  (1) 
0

>  <num_sample>  (1) 
100

>  <b_lp_Chiralities_Consistent>  (1) 
1

>  <r_epik_Charging_Adjusted_Penalty>  (1) 
0

>  <r_epik_Ionization_Penalty>  (1) 
5.9248581604286784e-11

>  <r_epik_Ionization_Penalty_Charging>  (1) 
0

>  <r_epik_Ionization_Penalty_Neutral>  (1) 
5.9248581604286784e-11

>  <r_epik_State_Penalty>  (1) 
-0

>  <r_glide_ring_energy>  (1) 
0

>  <r_i_docking_score>  (1) 
-5.1758746421382007

>  <r_i_glide_ecoul>  (1) 
-0.6985651657305515

>  <r_i_glide_eff_state_penalty>  (1) 
-0

>  <r_i_glide_einternal>  (1) 
0

>  <r_i_glide_emodel>  (1) 
-20.939120930031319

>  <r_i_glide_emodel_strain>  (1) 
0

>  <r_i_glide_energy>  (1) 
-15.658915613702197

>  <r_i_glide_erotb>  (1) 
0

>  <r_i_glide_esite>  (1) 
0

>  <r_i_glide_evdw>  (1) 
-14.960350447971646

>  <r_i_glide_gscore>  (1) 
-5.1758746421382007

>  <r_i_glide_gscore_strain>  (1) 
0

>  <r_i_glide_hbond>  (1) 
0

>  <r_i_glide_ligand_efficiency>  (1) 
-0.86264577368970008

>  <r_i_glide_ligand_efficiency_ln>  (1) 
-1.8539830165130142

>  <r_i_glide_ligand_efficiency_sa>  (1) 
-1.5675313996911679

>  <r_i_glide_lipo>  (1) 
-1.6230723448800355

>  <r_i_glide_metal>  (1) 
-0

>  <r_i_glide_rewards>  (1) 
-2.7000000000000002

>  <r_lp_Energy>  (1) 
0.62146699999999999

>  <r_lp_tautomer_probability>  (1) 
1

>  <s_epik_cmdline>  (1) 
J2VwaWtfcHl0aG9uJywgJy1waHQnLCAnMS4wJywgJy1waCcsICc3LjQnLCAnLXRuJywgJzgnLCAnLW1hJywgJzUwMCcsICctaW1hZScsICc8aW5maWxlLm1hZT4nLCAnLW9tYWUnLCAnPG91dGZpbGUubWFlPic=

>  <s_epik_input>  (1) 
W2NIXTFbY0hdW2NIXVtjSF1uMVtDSDNd

>  <s_glide_docking_method>  (1) 
confgen

>  <s_i_glide_gridfile>  (1) 
gpcr_5ht2c_6bqh_protein_autoprepared_prepared

>  <s_lp_Force_Field>  (1) 
S-OPLS

>  <s_lp_Variant>  (1) 
Pocket2Mol_21-1

>  <s_m_source_file>  (1) 
generated_GPCR_5HT2C_ligand_Pocket2Mol_2026-06-23_prepared.sdf

>  <GenAI_Model>  (1) 
Pocket2Mol

>  <Protein>  (1) 
GPCR_5HT2C

$$$$
Pocket2Mol_32
     RDKit          3D

  0  0  0  0  0  0  0  0  0  0999 V3000
M  V30 BEGIN CTAB
M  V30 COUNTS 15 15 0 0 1
M  V30 BEGIN ATOM
M  V30 1 C 39.895098 30.128682 51.250157 0
M  V30 2 C 40.043931 28.791672 50.550845 0
M  V30 3 O 38.846860 28.137654 50.894645 0
M  V30 4 O 39.277644 29.733124 52.454599 0
M  V30 5 C 38.486220 28.633481 52.139402 0
M  V30 6 C 38.718608 27.544848 53.194588 0
M  V30 7 O 37.546081 26.802046 53.439581 0
M  V30 8 H 39.245140 30.785029 50.670518 0
M  V30 9 H 40.843980 30.635740 51.423756 0
M  V30 10 H 40.177247 28.893612 49.473821 0
M  V30 11 H 40.868392 28.223270 50.973291 0
M  V30 12 H 37.440290 28.938487 52.101258 0
M  V30 13 H 39.001188 28.022337 54.133582 0
M  V30 14 H 39.544678 26.900089 52.892469 0
M  V30 15 H 37.206881 26.484690 52.611377 0
M  V30 END ATOM
M  V30 BEGIN BOND
M  V30 1 1 2 1
M  V30 2 1 3 2
M  V30 3 1 4 1
M  V30 4 1 5 3
M  V30 5 1 5 4
M  V30 6 1 6 5
M  V30 7 1 7 6
M  V30 8 1 8 1
M  V30 9 1 9 1
M  V30 10 1 10 2
M  V30 11 1 11 2
M  V30 12 1 12 5
M  V30 13 1 13 6
M  V30 14 1 14 6
M  V30 15 1 15 7
M  V30 END BOND
M  V30 END CTAB
M  END
>  <i_epik_Tot_Q>  (1) 
0

>  <i_epik_Tot_abs_Q>  (1) 
0

>  <i_i_glide_confnum>  (1) 
2

>  <i_i_glide_lignum>  (1) 
35

>  <i_i_glide_posenum>  (1) 
320

>  <i_i_glide_rotatable_bonds>  (1) 
2

>  <i_lp_mmshare_version>  (1) 
72125

>  <i_m_source_file_index>  (1) 
33

>  <i_f3d_flags>  (1) 
0

>  <num_sample>  (1) 
100

>  <b_lp_Chiralities_Consistent>  (1) 
1

>  <r_epik_Charging_Adjusted_Penalty>  (1) 
0

>  <r_epik_Ionization_Penalty>  (1) 
3.4422651255072934e-07

>  <r_epik_Ionization_Penalty_Charging>  (1) 
0

>  <r_epik_Ionization_Penalty_Neutral>  (1) 
3.4422651255072934e-07

>  <r_epik_State_Penalty>  (1) 
-0

>  <r_glide_ring_energy>  (1) 
0.8940093629212682

>  <r_i_docking_score>  (1) 
-5.1718826431671374

>  <r_i_glide_ecoul>  (1) 
-1.5226050245326253

>  <r_i_glide_eff_state_penalty>  (1) 
-0

>  <r_i_glide_einternal>  (1) 
0.13169360255969709

>  <r_i_glide_emodel>  (1) 
-20.590088452993868

>  <r_i_glide_emodel_strain>  (1) 
5.3290705182007514e-15

>  <r_i_glide_energy>  (1) 
-14.955780559582308

>  <r_i_glide_erotb>  (1) 
0

>  <r_i_glide_esite>  (1) 
0

>  <r_i_glide_evdw>  (1) 
-13.433175535049683

>  <r_i_glide_gscore>  (1) 
-5.1718826431671374

>  <r_i_glide_gscore_strain>  (1) 
0

>  <r_i_glide_hbond>  (1) 
-0.29319158364495662

>  <r_i_glide_ligand_efficiency>  (1) 
-0.7388403775953053

>  <r_i_glide_ligand_efficiency_ln>  (1) 
-1.7556145236899512

>  <r_i_glide_ligand_efficiency_sa>  (1) 
-1.4133507973933861

>  <r_i_glide_lipo>  (1) 
-0.97864152908980306

>  <r_i_glide_metal>  (1) 
-0

>  <r_i_glide_rewards>  (1) 
-3

>  <r_lp_Energy>  (1) 
-10.260740999999999

>  <r_lp_tautomer_probability>  (1) 
1

>  <s_epik_Chemistry_Notes>  (1) 
This compound contains an acetal/aminal-like group ( X-CH(R)-Y where X, Y are N, S, or O) that may be acid/base labile, releasing an aldehyde.

>  <s_epik_cmdline>  (1) 
J2VwaWtfcHl0aG9uJywgJy1waHQnLCAnMS4wJywgJy1waCcsICc3LjQnLCAnLXRuJywgJzgnLCAnLW1hJywgJzUwMCcsICctaW1hZScsICc8aW5maWxlLm1hZT4nLCAnLW9tYWUnLCAnPG91dGZpbGUubWFlPic=

>  <s_epik_input>  (1) 
TzFbQ0gyXVtDSDJdT1tDSF0xW0NIMl1bT0hd

>  <s_glide_docking_method>  (1) 
confgen

>  <s_i_glide_gridfile>  (1) 
gpcr_5ht2c_6bqh_protein_autoprepared_prepared

>  <s_lp_Force_Field>  (1) 
S-OPLS

>  <s_lp_Variant>  (1) 
Pocket2Mol_32-1

>  <s_m_source_file>  (1) 
generated_GPCR_5HT2C_ligand_Pocket2Mol_2026-06-23_prepared.sdf

>  <GenAI_Model>  (1) 
Pocket2Mol

>  <Protein>  (1) 
GPCR_5HT2C

$$$$
Pocket2Mol_24
     RDKit          3D

  0  0  0  0  0  0  0  0  0  0999 V3000
M  V30 BEGIN CTAB
M  V30 COUNTS 11 11 0 0 1
M  V30 BEGIN ATOM
M  V30 1 C 38.627841 27.952897 52.224559 0
M  V30 2 C 39.363039 28.302980 51.046951 0
M  V30 3 C 39.988444 29.508012 51.194420 0
M  V30 4 C 40.843490 30.241382 50.216933 0
M  V30 5 N 38.684833 28.828467 53.210615 0
M  V30 6 S 39.645135 30.137756 52.766610 0
M  V30 7 H 38.045099 27.053897 52.364078 0
M  V30 8 H 39.398732 27.677470 50.167773 0
M  V30 9 H 40.845149 29.738751 49.249631 0
M  V30 10 H 40.476165 31.257017 50.066611 0
M  V30 11 H 41.873431 30.304628 50.567759 0
M  V30 END ATOM
M  V30 BEGIN BOND
M  V30 1 1 2 1
M  V30 2 2 3 2
M  V30 3 1 4 3
M  V30 4 2 5 1
M  V30 5 1 6 3
M  V30 6 1 6 5
M  V30 7 1 7 1
M  V30 8 1 8 2
M  V30 9 1 9 4
M  V30 10 1 10 4
M  V30 11 1 11 4
M  V30 END BOND
M  V30 END CTAB
M  END
>  <i_epik_Tot_Q>  (1) 
0

>  <i_epik_Tot_abs_Q>  (1) 
0

>  <i_i_glide_confnum>  (1) 
1

>  <i_i_glide_lignum>  (1) 
27

>  <i_i_glide_posenum>  (1) 
188

>  <i_i_glide_rotatable_bonds>  (1) 
0

>  <i_lp_mmshare_version>  (1) 
72125

>  <i_m_source_file_index>  (1) 
25

>  <i_f3d_flags>  (1) 
0

>  <num_sample>  (1) 
100

>  <b_lp_Chiralities_Consistent>  (1) 
1

>  <r_epik_Charging_Adjusted_Penalty>  (1) 
0

>  <r_epik_Ionization_Penalty>  (1) 
2.7081824038816109e-08

>  <r_epik_Ionization_Penalty_Charging>  (1) 
0

>  <r_epik_Ionization_Penalty_Neutral>  (1) 
2.7081824038816109e-08

>  <r_epik_State_Penalty>  (1) 
-0

>  <r_glide_ring_energy>  (1) 
0

>  <r_i_docking_score>  (1) 
-5.1708895288166614

>  <r_i_glide_ecoul>  (1) 
-0.98140093059045663

>  <r_i_glide_eff_state_penalty>  (1) 
-0

>  <r_i_glide_einternal>  (1) 
0

>  <r_i_glide_emodel>  (1) 
-24.048776729669342

>  <r_i_glide_emodel_strain>  (1) 
0

>  <r_i_glide_energy>  (1) 
-18.27341921388744

>  <r_i_glide_erotb>  (1) 
0

>  <r_i_glide_esite>  (1) 
0

>  <r_i_glide_evdw>  (1) 
-17.292018283296983

>  <r_i_glide_gscore>  (1) 
-5.1708895288166614

>  <r_i_glide_gscore_strain>  (1) 
0

>  <r_i_glide_hbond>  (1) 
0

>  <r_i_glide_ligand_efficiency>  (1) 
-0.86181492146944361

>  <r_i_glide_ligand_efficiency_ln>  (1) 
-1.8521973636383711

>  <r_i_glide_ligand_efficiency_sa>  (1) 
-1.5660216410121395

>  <r_i_glide_lipo>  (1) 
-1.6500000000000001

>  <r_i_glide_metal>  (1) 
-0

>  <r_i_glide_rewards>  (1) 
-2.5090784750632431

>  <r_lp_Energy>  (1) 
1.924183

>  <r_lp_tautomer_probability>  (1) 
1

>  <s_epik_cmdline>  (1) 
J2VwaWtfcHl0aG9uJywgJy1waHQnLCAnMS4wJywgJy1waCcsICc3LjQnLCAnLXRuJywgJzgnLCAnLW1hJywgJzUwMCcsICctaW1hZScsICc8aW5maWxlLm1hZT4nLCAnLW9tYWUnLCAnPG91dGZpbGUubWFlPic=

>  <s_epik_input>  (1) 
czFuW2NIXVtjSF1jMVtDSDNd

>  <s_glide_docking_method>  (1) 
confgen

>  <s_i_glide_gridfile>  (1) 
gpcr_5ht2c_6bqh_protein_autoprepared_prepared

>  <s_lp_Force_Field>  (1) 
S-OPLS

>  <s_lp_Variant>  (1) 
Pocket2Mol_24-1

>  <s_m_source_file>  (1) 
generated_GPCR_5HT2C_ligand_Pocket2Mol_2026-06-23_prepared.sdf

>  <GenAI_Model>  (1) 
Pocket2Mol

>  <Protein>  (1) 
GPCR_5HT2C

$$$$
Pocket2Mol_48
     RDKit          3D

  0  0  0  0  0  0  0  0  0  0999 V3000
M  V30 BEGIN CTAB
M  V30 COUNTS 13 13 0 0 1
M  V30 BEGIN ATOM
M  V30 1 C 40.045137 29.947113 51.518595 0
M  V30 2 C 39.486968 29.737756 52.744897 0
M  V30 3 C 39.816084 28.898540 50.751285 0
M  V30 4 C 38.999076 27.726714 51.419846 0
M  V30 5 C 38.897278 28.551435 52.765338 0
M  V30 6 C 38.134728 27.916734 53.969591 0
M  V30 7 O 37.648237 26.781857 53.773368 0
M  V30 8 O 38.087132 28.605634 55.011562 0 CHG=-1
M  V30 9 H 40.586003 30.833861 51.221147 0
M  V30 10 H 39.517707 30.433097 53.571653 0
M  V30 11 H 40.152771 28.820536 49.728920 0
M  V30 12 H 38.026082 27.553403 50.967760 0
M  V30 13 H 39.572223 26.805566 51.525201 0
M  V30 END ATOM
M  V30 BEGIN BOND
M  V30 1 1 2 1
M  V30 2 2 3 1
M  V30 3 1 4 3
M  V30 4 2 5 2
M  V30 5 1 5 4
M  V30 6 1 6 5
M  V30 7 2 7 6
M  V30 8 1 8 6
M  V30 9 1 9 1
M  V30 10 1 10 2
M  V30 11 1 11 3
M  V30 12 1 12 4
M  V30 13 1 13 4
M  V30 END BOND
M  V30 END CTAB
M  END
>  <i_epik_Tot_Q>  (1) 
-1

>  <i_epik_Tot_abs_Q>  (1) 
1

>  <i_i_glide_confnum>  (1) 
1

>  <i_i_glide_lignum>  (1) 
51

>  <i_i_glide_posenum>  (1) 
238

>  <i_i_glide_rotatable_bonds>  (1) 
1

>  <i_lp_mmshare_version>  (1) 
72125

>  <i_m_source_file_index>  (1) 
49

>  <i_f3d_flags>  (1) 
0

>  <num_sample>  (1) 
100

>  <b_lp_Chiralities_Consistent>  (1) 
1

>  <r_epik_Charging_Adjusted_Penalty>  (1) 
0.00046806641816521339

>  <r_epik_Ionization_Penalty>  (1) 
0.00046806641816521339

>  <r_epik_Ionization_Penalty_Charging>  (1) 
0.00046806641816521339

>  <r_epik_Ionization_Penalty_Neutral>  (1) 
0

>  <r_epik_State_Penalty>  (1) 
-0

>  <r_glide_ring_energy>  (1) 
0

>  <r_i_docking_score>  (1) 
-5.1639623178778784

>  <r_i_glide_ecoul>  (1) 
0.3187776728547369

>  <r_i_glide_eff_state_penalty>  (1) 
-0

>  <r_i_glide_einternal>  (1) 
0.00034703672559177612

>  <r_i_glide_emodel>  (1) 
-21.138599182901707

>  <r_i_glide_emodel_strain>  (1) 
0

>  <r_i_glide_energy>  (1) 
-15.686663730206988

>  <r_i_glide_erotb>  (1) 
0

>  <r_i_glide_esite>  (1) 
0

>  <r_i_glide_evdw>  (1) 
-16.005441403061724

>  <r_i_glide_gscore>  (1) 
-5.1639623178778784

>  <r_i_glide_gscore_strain>  (1) 
0

>  <r_i_glide_hbond>  (1) 
0

>  <r_i_glide_ligand_efficiency>  (1) 
-0.6454952897347348

>  <r_i_glide_ligand_efficiency_ln>  (1) 
-1.6769151964680375

>  <r_i_glide_ligand_efficiency_sa>  (1) 
-1.2909905794694698

>  <r_i_glide_lipo>  (1) 
-1.5611746968301425

>  <r_i_glide_metal>  (1) 
-0

>  <r_i_glide_rewards>  (1) 
-2.8503322018228605

>  <r_lp_Energy>  (1) 
4.7151909999999999

>  <r_lp_tautomer_probability>  (1) 
1

>  <s_epik_cmdline>  (1) 
J2VwaWtfcHl0aG9uJywgJy1waHQnLCAnMS4wJywgJy1waCcsICc3LjQnLCAnLXRuJywgJzgnLCAnLW1hJywgJzUwMCcsICctaW1hZScsICc8aW5maWxlLm1hZT4nLCAnLW9tYWUnLCAnPG91dGZpbGUubWFlPic=

>  <s_epik_input>  (1) 
W0NIMl0xW0NIXT1bQ0hdW0NIXT1DMUMoPU8pW09IXQ==

>  <s_glide_docking_method>  (1) 
confgen

>  <s_i_glide_gridfile>  (1) 
gpcr_5ht2c_6bqh_protein_autoprepared_prepared

>  <s_lp_Force_Field>  (1) 
S-OPLS

>  <s_lp_Variant>  (1) 
Pocket2Mol_48-1

>  <s_m_source_file>  (1) 
generated_GPCR_5HT2C_ligand_Pocket2Mol_2026-06-23_prepared.sdf

>  <GenAI_Model>  (1) 
Pocket2Mol

>  <Protein>  (1) 
GPCR_5HT2C

$$$$
Pocket2Mol_53
     RDKit          3D

  0  0  0  0  0  0  0  0  0  0999 V3000
M  V30 BEGIN CTAB
M  V30 COUNTS 16 16 0 0 1
M  V30 BEGIN ATOM
M  V30 1 C 40.849989 30.221352 49.886900 0
M  V30 2 C 40.045138 29.722299 51.067501 0
M  V30 3 C 39.282466 28.547292 50.972435 0
M  V30 4 C 38.547228 28.135149 52.093265 0
M  V30 5 C 38.603217 28.914458 53.265390 0
M  V30 6 C 40.045137 30.432389 52.282211 0
M  V30 7 N 37.876781 28.532439 54.385182 0
M  V30 8 N 39.338938 30.045124 53.370626 0
M  V30 9 H 40.734953 29.573432 49.017516 0
M  V30 10 H 40.521349 31.224212 49.612547 0
M  V30 11 H 41.907779 30.274938 50.145243 0
M  V30 12 H 39.257314 27.975717 50.057566 0
M  V30 13 H 37.945711 27.238447 52.055135 0
M  V30 14 H 40.622263 31.337753 52.384267 0
M  V30 15 H 37.294276 27.709062 54.381316 0
M  V30 16 H 37.883342 29.087569 55.228988 0
M  V30 END ATOM
M  V30 BEGIN BOND
M  V30 1 1 2 1
M  V30 2 1 3 2
M  V30 3 2 4 3
M  V30 4 1 5 4
M  V30 5 2 6 2
M  V30 6 1 7 5
M  V30 7 2 8 5
M  V30 8 1 8 6
M  V30 9 1 9 1
M  V30 10 1 10 1
M  V30 11 1 11 1
M  V30 12 1 12 3
M  V30 13 1 13 4
M  V30 14 1 14 6
M  V30 15 1 15 7
M  V30 16 1 16 7
M  V30 END BOND
M  V30 END CTAB
M  END
>  <i_epik_Tot_Q>  (1) 
0

>  <i_epik_Tot_abs_Q>  (1) 
0

>  <i_i_glide_confnum>  (1) 
1

>  <i_i_glide_lignum>  (1) 
56

>  <i_i_glide_posenum>  (1) 
207

>  <i_i_glide_rotatable_bonds>  (1) 
0

>  <i_lp_mmshare_version>  (1) 
72125

>  <i_m_source_file_index>  (1) 
54

>  <i_f3d_flags>  (1) 
0

>  <num_sample>  (1) 
100

>  <b_lp_Chiralities_Consistent>  (1) 
1

>  <r_epik_Charging_Adjusted_Penalty>  (1) 
0.35861937746939487

>  <r_epik_Ionization_Penalty>  (1) 
0.35867228033349524

>  <r_epik_Ionization_Penalty_Charging>  (1) 
0

>  <r_epik_Ionization_Penalty_Neutral>  (1) 
0.35867228033349524

>  <r_epik_State_Penalty>  (1) 
0.35861937746939487

>  <r_glide_ring_energy>  (1) 
0

>  <r_i_docking_score>  (1) 
-5.1618061216986533

>  <r_i_glide_ecoul>  (1) 
-0.89620622169524355

>  <r_i_glide_eff_state_penalty>  (1) 
0.35861937746939487

>  <r_i_glide_einternal>  (1) 
0

>  <r_i_glide_emodel>  (1) 
-27.076267859821996

>  <r_i_glide_emodel_strain>  (1) 
0

>  <r_i_glide_energy>  (1) 
-20.148768812681865

>  <r_i_glide_erotb>  (1) 
0

>  <r_i_glide_esite>  (1) 
0

>  <r_i_glide_evdw>  (1) 
-19.252562590986621

>  <r_i_glide_gscore>  (1) 
-5.5204254991680486

>  <r_i_glide_gscore_strain>  (1) 
0

>  <r_i_glide_hbond>  (1) 
0

>  <r_i_glide_ligand_efficiency>  (1) 
-0.64522576521233166

>  <r_i_glide_ligand_efficiency_ln>  (1) 
-1.6762150058165701

>  <r_i_glide_ligand_efficiency_sa>  (1) 
-1.2904515304246635

>  <r_i_glide_lipo>  (1) 
-1.8325129222689536

>  <r_i_glide_metal>  (1) 
-0

>  <r_i_glide_rewards>  (1) 
-2.5908535140954774

>  <r_lp_Energy>  (1) 
5.8194469999999994

>  <r_lp_tautomer_probability>  (1) 
0.99999977220005165

>  <s_epik_cmdline>  (1) 
J2VwaWtfcHl0aG9uJywgJy1waHQnLCAnMS4wJywgJy1waCcsICc3LjQnLCAnLXRuJywgJzgnLCAnLW1hJywgJzUwMCcsICctaW1hZScsICc8aW5maWxlLm1hZT4nLCAnLW9tYWUnLCAnPG91dGZpbGUubWFlPic=

>  <s_epik_input>  (1) 
W0NIM11jMVtjSF1bY0hdYyhbTkgyXSluW2NIXTE=

>  <s_glide_docking_method>  (1) 
confgen

>  <s_i_glide_gridfile>  (1) 
gpcr_5ht2c_6bqh_protein_autoprepared_prepared

>  <s_lp_Force_Field>  (1) 
S-OPLS

>  <s_lp_Variant>  (1) 
Pocket2Mol_53-1

>  <s_m_source_file>  (1) 
generated_GPCR_5HT2C_ligand_Pocket2Mol_2026-06-23_prepared.sdf

>  <GenAI_Model>  (1) 
Pocket2Mol

>  <Protein>  (1) 
GPCR_5HT2C

$$$$
Pocket2Mol_38
     RDKit          3D

  0  0  0  0  0  0  0  0  0  0999 V3000
M  V30 BEGIN CTAB
M  V30 COUNTS 17 17 0 0 1
M  V30 BEGIN ATOM
M  V30 1 C 38.586172 29.239729 53.519554 0
M  V30 2 C 39.645138 30.217263 52.967760 0
M  V30 3 C 39.979660 29.992079 51.486262 0
M  V30 4 O 40.188284 30.933896 50.727008 0
M  V30 5 C 38.762902 27.784880 53.055291 0
M  V30 6 C 38.880458 27.704047 51.527729 0
M  V30 7 C 40.045137 28.549475 50.996233 0
M  V30 8 H 38.592041 29.277558 54.609304 0
M  V30 9 H 37.601556 29.586091 53.221953 0
M  V30 10 H 40.565499 30.137754 53.543095 0
M  V30 11 H 40.052921 28.537776 49.906033 0
M  V30 12 H 39.300994 31.243646 53.099437 0
M  V30 13 H 37.915156 27.186051 53.391036 0
M  V30 14 H 39.645137 27.347141 53.520165 0
M  V30 15 H 37.950467 28.038318 51.069074 0
M  V30 16 H 39.016094 26.666802 51.219943 0
M  V30 17 H 40.992824 28.137757 51.336621 0
M  V30 END ATOM
M  V30 BEGIN BOND
M  V30 1 1 2 1
M  V30 2 1 3 2
M  V30 3 2 4 3
M  V30 4 1 5 1
M  V30 5 1 6 5
M  V30 6 1 7 3
M  V30 7 1 7 6
M  V30 8 1 8 1
M  V30 9 1 9 1
M  V30 10 1 10 2
M  V30 11 1 11 7
M  V30 12 1 12 2
M  V30 13 1 13 5
M  V30 14 1 14 5
M  V30 15 1 15 6
M  V30 16 1 16 6
M  V30 17 1 17 7
M  V30 END BOND
M  V30 END CTAB
M  END
>  <i_epik_Tot_Q>  (1) 
0

>  <i_epik_Tot_abs_Q>  (1) 
0

>  <i_i_glide_confnum>  (1) 
2

>  <i_i_glide_lignum>  (1) 
41

>  <i_i_glide_posenum>  (1) 
111

>  <i_i_glide_rotatable_bonds>  (1) 
0

>  <i_lp_mmshare_version>  (1) 
72125

>  <i_m_source_file_index>  (1) 
39

>  <i_f3d_flags>  (1) 
0

>  <num_sample>  (1) 
100

>  <b_lp_Chiralities_Consistent>  (1) 
1

>  <r_epik_Charging_Adjusted_Penalty>  (1) 
0

>  <r_epik_Ionization_Penalty>  (1) 
3.7730911281982554e-13

>  <r_epik_Ionization_Penalty_Charging>  (1) 
0

>  <r_epik_Ionization_Penalty_Neutral>  (1) 
3.7730911281982554e-13

>  <r_epik_State_Penalty>  (1) 
-0

>  <r_glide_ring_energy>  (1) 
4.2281688740393558e-05

>  <r_i_docking_score>  (1) 
-5.1565816588190208

>  <r_i_glide_ecoul>  (1) 
0.94968322609848665

>  <r_i_glide_eff_state_penalty>  (1) 
-0

>  <r_i_glide_einternal>  (1) 
0

>  <r_i_glide_emodel>  (1) 
-21.591483187006808

>  <r_i_glide_emodel_strain>  (1) 
0

>  <r_i_glide_energy>  (1) 
-16.213765930558733

>  <r_i_glide_erotb>  (1) 
0

>  <r_i_glide_esite>  (1) 
0

>  <r_i_glide_evdw>  (1) 
-17.163449156657219

>  <r_i_glide_gscore>  (1) 
-5.1565816588190208

>  <r_i_glide_gscore_strain>  (1) 
0

>  <r_i_glide_hbond>  (1) 
0

>  <r_i_glide_ligand_efficiency>  (1) 
-0.73665452268843157

>  <r_i_glide_ligand_efficiency_ln>  (1) 
-1.7504205484585535

>  <r_i_glide_ligand_efficiency_sa>  (1) 
-1.409169407381011

>  <r_i_glide_lipo>  (1) 
-1.5735308340090057

>  <r_i_glide_metal>  (1) 
-0

>  <r_i_glide_rewards>  (1) 
-2.8673308508919271

>  <r_lp_Energy>  (1) 
-0.38638499999999998

>  <r_lp_tautomer_probability>  (1) 
1

>  <s_epik_cmdline>  (1) 
J2VwaWtfcHl0aG9uJywgJy1waHQnLCAnMS4wJywgJy1waCcsICc3LjQnLCAnLXRuJywgJzgnLCAnLW1hJywgJzUwMCcsICctaW1hZScsICc8aW5maWxlLm1hZT4nLCAnLW9tYWUnLCAnPG91dGZpbGUubWFlPic=

>  <s_epik_input>  (1) 
W0NIMl0xW0NIMl1bQ0gyXVtDSDJdW0NIXT1DMVtPSF0=

>  <s_glide_docking_method>  (1) 
confgen

>  <s_i_glide_gridfile>  (1) 
gpcr_5ht2c_6bqh_protein_autoprepared_prepared

>  <s_lp_Force_Field>  (1) 
S-OPLS

>  <s_lp_Variant>  (1) 
Pocket2Mol_38-1

>  <s_m_source_file>  (1) 
generated_GPCR_5HT2C_ligand_Pocket2Mol_2026-06-23_prepared.sdf

>  <GenAI_Model>  (1) 
Pocket2Mol

>  <Protein>  (1) 
GPCR_5HT2C

$$$$
Pocket2Mol_36
     RDKit          3D

  0  0  0  0  0  0  0  0  0  0999 V3000
M  V30 BEGIN CTAB
M  V30 COUNTS 19 19 0 0 1
M  V30 BEGIN ATOM
M  V30 1 C 38.450800 28.487655 52.311699 0
M  V30 2 C 38.454231 27.771330 53.671527 0
M  V30 3 C 39.553026 29.561113 52.228299 0
M  V30 4 O 37.346553 26.900603 53.733094 0
M  V30 5 C 39.510885 30.537754 53.425356 0
M  V30 6 C 39.484630 29.815236 54.780942 0
M  V30 7 C 38.356119 28.773288 54.835341 0
M  V30 8 H 38.582507 27.765235 51.504844 0
M  V30 9 H 37.473237 28.938758 52.149416 0
M  V30 10 H 39.365586 27.179624 53.769101 0
M  V30 11 H 40.523808 29.074674 52.167758 0
M  V30 12 H 39.452080 30.118404 51.296315 0
M  V30 13 H 37.262092 26.451012 52.902859 0
M  V30 14 H 40.364641 31.214336 53.381071 0
M  V30 15 H 38.623107 31.167745 53.367759 0
M  V30 16 H 40.445134 29.337754 54.967760 0
M  V30 17 H 39.351914 30.543425 55.581986 0
M  V30 18 H 37.393017 29.285805 54.800918 0
M  V30 19 H 38.387672 28.244181 55.788427 0
M  V30 END ATOM
M  V30 BEGIN BOND
M  V30 1 1 2 1
M  V30 2 1 3 1
M  V30 3 1 4 2
M  V30 4 1 5 3
M  V30 5 1 6 5
M  V30 6 1 7 2
M  V30 7 1 7 6
M  V30 8 1 8 1
M  V30 9 1 9 1
M  V30 10 1 10 2
M  V30 11 1 11 3
M  V30 12 1 12 3
M  V30 13 1 13 4
M  V30 14 1 14 5
M  V30 15 1 15 5
M  V30 16 1 16 6
M  V30 17 1 17 6
M  V30 18 1 18 7
M  V30 19 1 19 7
M  V30 END BOND
M  V30 END CTAB
M  END
>  <i_epik_Tot_Q>  (1) 
0

>  <i_epik_Tot_abs_Q>  (1) 
0

>  <i_i_glide_confnum>  (1) 
1

>  <i_i_glide_lignum>  (1) 
39

>  <i_i_glide_posenum>  (1) 
241

>  <i_i_glide_rotatable_bonds>  (1) 
1

>  <i_lp_mmshare_version>  (1) 
72125

>  <i_m_source_file_index>  (1) 
37

>  <i_f3d_flags>  (1) 
0

>  <num_sample>  (1) 
100

>  <b_lp_Chiralities_Consistent>  (1) 
1

>  <r_epik_Charging_Adjusted_Penalty>  (1) 
0

>  <r_epik_Ionization_Penalty>  (1) 
4.7751045033339745e-07

>  <r_epik_Ionization_Penalty_Charging>  (1) 
0

>  <r_epik_Ionization_Penalty_Neutral>  (1) 
4.7751045033339745e-07

>  <r_epik_State_Penalty>  (1) 
-0

>  <r_glide_ring_energy>  (1) 
0

>  <r_i_docking_score>  (1) 
-5.150612747171504

>  <r_i_glide_ecoul>  (1) 
-1.4808588208627216

>  <r_i_glide_eff_state_penalty>  (1) 
-0

>  <r_i_glide_einternal>  (1) 
0.66685793613037314

>  <r_i_glide_emodel>  (1) 
-20.266157368352207

>  <r_i_glide_emodel_strain>  (1) 
0.0062708264831021765

>  <r_i_glide_energy>  (1) 
-15.695642727808044

>  <r_i_glide_erotb>  (1) 
0

>  <r_i_glide_esite>  (1) 
0

>  <r_i_glide_evdw>  (1) 
-14.214783906945323

>  <r_i_glide_gscore>  (1) 
-5.150612747171504

>  <r_i_glide_gscore_strain>  (1) 
0

>  <r_i_glide_hbond>  (1) 
-0.077037508872341037

>  <r_i_glide_ligand_efficiency>  (1) 
-0.73580182102450054

>  <r_i_glide_ligand_efficiency_ln>  (1) 
-1.7483943795173755

>  <r_i_glide_ligand_efficiency_sa>  (1) 
-1.4075382477784757

>  <r_i_glide_lipo>  (1) 
-1.6427336004940416

>  <r_i_glide_metal>  (1) 
-0

>  <r_i_glide_rewards>  (1) 
-2.4979736193284463

>  <r_lp_Energy>  (1) 
3.8568439999999997

>  <r_lp_tautomer_probability>  (1) 
1

>  <s_epik_cmdline>  (1) 
J2VwaWtfcHl0aG9uJywgJy1waHQnLCAnMS4wJywgJy1waCcsICc3LjQnLCAnLXRuJywgJzgnLCAnLW1hJywgJzUwMCcsICctaW1hZScsICc8aW5maWxlLm1hZT4nLCAnLW9tYWUnLCAnPG91dGZpbGUubWFlPic=

>  <s_epik_input>  (1) 
W09IXVtDSF0xW0NIMl1bQ0gyXVtDSDJdW0NIMl1bQ0gyXTE=

>  <s_glide_docking_method>  (1) 
confgen

>  <s_i_glide_gridfile>  (1) 
gpcr_5ht2c_6bqh_protein_autoprepared_prepared

>  <s_lp_Force_Field>  (1) 
S-OPLS

>  <s_lp_Variant>  (1) 
Pocket2Mol_36-1

>  <s_m_source_file>  (1) 
generated_GPCR_5HT2C_ligand_Pocket2Mol_2026-06-23_prepared.sdf

>  <GenAI_Model>  (1) 
Pocket2Mol

>  <Protein>  (1) 
GPCR_5HT2C

$$$$
Pocket2Mol_43
     RDKit          3D

  0  0  0  0  0  0  0  0  0  0999 V3000
M  V30 BEGIN CTAB
M  V30 COUNTS 15 15 0 0 1
M  V30 BEGIN ATOM
M  V30 1 C 39.245140 27.660599 51.396249 0
M  V30 2 O 40.359720 28.537923 51.367760 0
M  V30 3 C 40.045134 29.919857 51.362189 0
M  V30 4 C 38.156008 28.119196 52.372353 0
M  V30 5 O 38.726150 28.472046 53.622655 0
M  V30 6 C 39.745837 30.466953 52.753740 0
M  V30 7 C 39.156906 29.771178 53.752811 0
M  V30 8 H 38.845139 27.567845 50.387403 0
M  V30 9 H 39.608339 26.672363 51.679083 0
M  V30 10 H 39.245138 30.155543 50.658888 0
M  V30 11 H 40.932405 30.439935 51.000138 0
M  V30 12 H 37.564644 28.937708 51.960238 0
M  V30 13 H 37.453335 27.304866 52.544915 0
M  V30 14 H 40.041917 31.488812 52.932888 0
M  V30 15 H 38.956331 30.171433 54.736160 0
M  V30 END ATOM
M  V30 BEGIN BOND
M  V30 1 1 2 1
M  V30 2 1 3 2
M  V30 3 1 4 1
M  V30 4 1 5 4
M  V30 5 1 6 3
M  V30 6 1 7 5
M  V30 7 2 7 6
M  V30 8 1 8 1
M  V30 9 1 9 1
M  V30 10 1 10 3
M  V30 11 1 11 3
M  V30 12 1 12 4
M  V30 13 1 13 4
M  V30 14 1 14 6
M  V30 15 1 15 7
M  V30 END BOND
M  V30 END CTAB
M  END
>  <i_epik_Tot_Q>  (1) 
0

>  <i_epik_Tot_abs_Q>  (1) 
0

>  <i_i_glide_confnum>  (1) 
4

>  <i_i_glide_lignum>  (1) 
46

>  <i_i_glide_posenum>  (1) 
325

>  <i_i_glide_rotatable_bonds>  (1) 
0

>  <i_lp_mmshare_version>  (1) 
72125

>  <i_m_source_file_index>  (1) 
44

>  <i_f3d_flags>  (1) 
0

>  <num_sample>  (1) 
100

>  <b_lp_Chiralities_Consistent>  (1) 
1

>  <r_epik_Charging_Adjusted_Penalty>  (1) 
0

>  <r_epik_Ionization_Penalty>  (1) 
5.6701613537443791e-14

>  <r_epik_Ionization_Penalty_Charging>  (1) 
0

>  <r_epik_Ionization_Penalty_Neutral>  (1) 
5.6701613537443791e-14

>  <r_epik_State_Penalty>  (1) 
-0

>  <r_glide_ring_energy>  (1) 
0.98544188256928789

>  <r_i_docking_score>  (1) 
-5.1493462998622315

>  <r_i_glide_ecoul>  (1) 
-1.2733023416690661

>  <r_i_glide_eff_state_penalty>  (1) 
-0

>  <r_i_glide_einternal>  (1) 
0

>  <r_i_glide_emodel>  (1) 
-22.554910970052632

>  <r_i_glide_emodel_strain>  (1) 
0

>  <r_i_glide_energy>  (1) 
-17.274443954689009

>  <r_i_glide_erotb>  (1) 
0

>  <r_i_glide_esite>  (1) 
0

>  <r_i_glide_evdw>  (1) 
-16.001141613019943

>  <r_i_glide_gscore>  (1) 
-5.1493462998622315

>  <r_i_glide_gscore_strain>  (1) 
0

>  <r_i_glide_hbond>  (1) 
0

>  <r_i_glide_ligand_efficiency>  (1) 
-0.73562089998031877

>  <r_i_glide_ligand_efficiency_ln>  (1) 
-1.7479644793353626

>  <r_i_glide_ligand_efficiency_sa>  (1) 
-1.4071921582714406

>  <r_i_glide_lipo>  (1) 
-1.5166049288292176

>  <r_i_glide_metal>  (1) 
-0

>  <r_i_glide_rewards>  (1) 
-2.6416889391316571

>  <r_lp_Energy>  (1) 
7.3473649999999999

>  <r_lp_tautomer_probability>  (1) 
1

>  <s_epik_cmdline>  (1) 
J2VwaWtfcHl0aG9uJywgJy1waHQnLCAnMS4wJywgJy1waCcsICc3LjQnLCAnLXRuJywgJzgnLCAnLW1hJywgJzUwMCcsICctaW1hZScsICc8aW5maWxlLm1hZT4nLCAnLW9tYWUnLCAnPG91dGZpbGUubWFlPic=

>  <s_epik_input>  (1) 
W0NIMl0xT1tDSDJdW0NIXT1bQ0hdT1tDSDJdMQ==

>  <s_glide_docking_method>  (1) 
confgen

>  <s_i_glide_gridfile>  (1) 
gpcr_5ht2c_6bqh_protein_autoprepared_prepared

>  <s_lp_Force_Field>  (1) 
S-OPLS

>  <s_lp_Variant>  (1) 
Pocket2Mol_43-1

>  <s_m_source_file>  (1) 
generated_GPCR_5HT2C_ligand_Pocket2Mol_2026-06-23_prepared.sdf

>  <GenAI_Model>  (1) 
Pocket2Mol

>  <Protein>  (1) 
GPCR_5HT2C

$$$$
Pocket2Mol_76
     RDKit          3D

  0  0  0  0  0  0  0  0  0  0999 V3000
M  V30 BEGIN CTAB
M  V30 COUNTS 12 12 0 0 1
M  V30 BEGIN ATOM
M  V30 1 C 40.045118 29.329340 50.748133 0
M  V30 2 C 40.045125 30.143991 51.930057 0
M  V30 3 C 39.335012 29.553204 52.909423 0
M  V30 4 C 38.845119 28.276759 52.335607 0
M  V30 5 C 39.342108 28.215455 50.961556 0
M  V30 6 C 39.084826 30.094414 54.355301 0
M  V30 7 O 38.155787 27.429520 52.900167 0
M  V30 8 O 39.611153 31.197029 54.622796 0 CHG=-1
M  V30 9 O 38.389887 29.372075 55.102294 0
M  V30 10 H 40.540850 29.581301 49.822917 0
M  V30 11 H 40.543498 31.099210 52.021596 0
M  V30 12 H 39.153953 27.403889 50.274310 0
M  V30 END ATOM
M  V30 BEGIN BOND
M  V30 1 1 2 1
M  V30 2 2 3 2
M  V30 3 1 4 3
M  V30 4 2 5 1
M  V30 5 1 5 4
M  V30 6 1 6 3
M  V30 7 2 7 4
M  V30 8 1 8 6
M  V30 9 2 9 6
M  V30 10 1 10 1
M  V30 11 1 11 2
M  V30 12 1 12 5
M  V30 END BOND
M  V30 END CTAB
M  END
>  <i_epik_Tot_Q>  (1) 
-1

>  <i_epik_Tot_abs_Q>  (1) 
1

>  <i_i_glide_confnum>  (1) 
1

>  <i_i_glide_lignum>  (1) 
81

>  <i_i_glide_posenum>  (1) 
186

>  <i_i_glide_rotatable_bonds>  (1) 
1

>  <i_lp_mmshare_version>  (1) 
72125

>  <i_m_source_file_index>  (1) 
77

>  <i_f3d_flags>  (1) 
0

>  <num_sample>  (1) 
100

>  <b_lp_Chiralities_Consistent>  (1) 
1

>  <r_epik_Charging_Adjusted_Penalty>  (1) 
1.3987331750313068e-05

>  <r_epik_Ionization_Penalty>  (1) 
1.3987331750313068e-05

>  <r_epik_Ionization_Penalty_Charging>  (1) 
1.3987331750313068e-05

>  <r_epik_Ionization_Penalty_Neutral>  (1) 
0

>  <r_epik_State_Penalty>  (1) 
-0

>  <r_glide_ring_energy>  (1) 
0

>  <r_i_docking_score>  (1) 
-5.1486921380371271

>  <r_i_glide_ecoul>  (1) 
0.80752379679064501

>  <r_i_glide_eff_state_penalty>  (1) 
-0

>  <r_i_glide_einternal>  (1) 
0.0027042538062745924

>  <r_i_glide_emodel>  (1) 
-23.799941077005538

>  <r_i_glide_emodel_strain>  (1) 
0

>  <r_i_glide_energy>  (1) 
-17.534774110515066

>  <r_i_glide_erotb>  (1) 
0

>  <r_i_glide_esite>  (1) 
0

>  <r_i_glide_evdw>  (1) 
-18.34229790730571

>  <r_i_glide_gscore>  (1) 
-5.1486921380371271

>  <r_i_glide_gscore_strain>  (1) 
0

>  <r_i_glide_hbond>  (1) 
0

>  <r_i_glide_ligand_efficiency>  (1) 
-0.57207690422634749

>  <r_i_glide_ligand_efficiency_ln>  (1) 
-1.6103629924948157

>  <r_i_glide_ligand_efficiency_sa>  (1) 
-1.189967914022839

>  <r_i_glide_lipo>  (1) 
-1.1821920083737585

>  <r_i_glide_metal>  (1) 
-0

>  <r_i_glide_rewards>  (1) 
-3.1705138038166787

>  <r_lp_Energy>  (1) 
9.1486529999999995

>  <r_lp_tautomer_probability>  (1) 
1

>  <s_epik_cmdline>  (1) 
J2VwaWtfcHl0aG9uJywgJy1waHQnLCAnMS4wJywgJy1waCcsICc3LjQnLCAnLXRuJywgJzgnLCAnLW1hJywgJzUwMCcsICctaW1hZScsICc8aW5maWxlLm1hZT4nLCAnLW9tYWUnLCAnPG91dGZpbGUubWFlPic=

>  <s_epik_input>  (1) 
Tz1DMVtDSF09W0NIXVtDSF09QzFDKD1PKVtPSF0=

>  <s_glide_docking_method>  (1) 
confgen

>  <s_i_glide_gridfile>  (1) 
gpcr_5ht2c_6bqh_protein_autoprepared_prepared

>  <s_lp_Force_Field>  (1) 
S-OPLS

>  <s_lp_Variant>  (1) 
Pocket2Mol_76-1

>  <s_m_source_file>  (1) 
generated_GPCR_5HT2C_ligand_Pocket2Mol_2026-06-23_prepared.sdf

>  <GenAI_Model>  (1) 
Pocket2Mol

>  <Protein>  (1) 
GPCR_5HT2C

$$$$
Pocket2Mol_76
     RDKit          3D

  0  0  0  0  0  0  0  0  0  0999 V3000
M  V30 BEGIN CTAB
M  V30 COUNTS 12 12 0 0 1
M  V30 BEGIN ATOM
M  V30 1 C 40.437971 30.474472 50.751261 0
M  V30 2 C 40.045137 30.475011 52.131324 0
M  V30 3 C 39.394333 29.337745 52.437008 0
M  V30 4 C 39.363819 28.544848 51.185824 0
M  V30 5 C 40.045137 29.343018 50.167103 0
M  V30 6 C 38.797177 28.934332 53.824440 0
M  V30 7 O 38.866626 27.431727 51.027470 0
M  V30 8 O 38.960763 29.761378 54.747685 0 CHG=-1
M  V30 9 O 38.218551 27.827193 53.876908 0
M  V30 10 H 40.971291 31.274362 50.258202 0
M  V30 11 H 40.241479 31.277749 52.827668 0
M  V30 12 H 40.185810 29.040605 49.141360 0
M  V30 END ATOM
M  V30 BEGIN BOND
M  V30 1 1 2 1
M  V30 2 2 3 2
M  V30 3 1 4 3
M  V30 4 2 5 1
M  V30 5 1 5 4
M  V30 6 1 6 3
M  V30 7 2 7 4
M  V30 8 1 8 6
M  V30 9 2 9 6
M  V30 10 1 10 1
M  V30 11 1 11 2
M  V30 12 1 12 5
M  V30 END BOND
M  V30 END CTAB
M  END
>  <i_epik_Tot_Q>  (1) 
-1

>  <i_epik_Tot_abs_Q>  (1) 
1

>  <i_i_glide_confnum>  (1) 
1

>  <i_i_glide_lignum>  (1) 
81

>  <i_i_glide_posenum>  (1) 
169

>  <i_i_glide_rotatable_bonds>  (1) 
1

>  <i_lp_mmshare_version>  (1) 
72125

>  <i_m_source_file_index>  (1) 
77

>  <i_f3d_flags>  (1) 
0

>  <num_sample>  (1) 
100

>  <b_lp_Chiralities_Consistent>  (1) 
1

>  <r_epik_Charging_Adjusted_Penalty>  (1) 
1.3987331750313068e-05

>  <r_epik_Ionization_Penalty>  (1) 
1.3987331750313068e-05

>  <r_epik_Ionization_Penalty_Charging>  (1) 
1.3987331750313068e-05

>  <r_epik_Ionization_Penalty_Neutral>  (1) 
0

>  <r_epik_State_Penalty>  (1) 
-0

>  <r_glide_ring_energy>  (1) 
0

>  <r_i_docking_score>  (1) 
-5.1460463208652607

>  <r_i_glide_ecoul>  (1) 
1.0697008940018145

>  <r_i_glide_eff_state_penalty>  (1) 
-0

>  <r_i_glide_einternal>  (1) 
0.0081813285624169757

>  <r_i_glide_emodel>  (1) 
-23.688106293326904

>  <r_i_glide_emodel_strain>  (1) 
0

>  <r_i_glide_energy>  (1) 
-17.428898111877526

>  <r_i_glide_erotb>  (1) 
0

>  <r_i_glide_esite>  (1) 
0

>  <r_i_glide_evdw>  (1) 
-18.498599005879342

>  <r_i_glide_gscore>  (1) 
-5.1460463208652607

>  <r_i_glide_gscore_strain>  (1) 
0

>  <r_i_glide_hbond>  (1) 
0

>  <r_i_glide_ligand_efficiency>  (1) 
-0.57178292454058455

>  <r_i_glide_ligand_efficiency_ln>  (1) 
-1.6095354568907729

>  <r_i_glide_ligand_efficiency_sa>  (1) 
-1.1893564116341777

>  <r_i_glide_lipo>  (1) 
-1.0827979186678751

>  <r_i_glide_metal>  (1) 
-0

>  <r_i_glide_rewards>  (1) 
-3.2987735860036911

>  <r_lp_Energy>  (1) 
9.1486529999999995

>  <r_lp_tautomer_probability>  (1) 
1

>  <s_epik_cmdline>  (1) 
J2VwaWtfcHl0aG9uJywgJy1waHQnLCAnMS4wJywgJy1waCcsICc3LjQnLCAnLXRuJywgJzgnLCAnLW1hJywgJzUwMCcsICctaW1hZScsICc8aW5maWxlLm1hZT4nLCAnLW9tYWUnLCAnPG91dGZpbGUubWFlPic=

>  <s_epik_input>  (1) 
Tz1DMVtDSF09W0NIXVtDSF09QzFDKD1PKVtPSF0=

>  <s_glide_docking_method>  (1) 
confgen

>  <s_i_glide_gridfile>  (1) 
gpcr_5ht2c_6bqh_protein_autoprepared_prepared

>  <s_lp_Force_Field>  (1) 
S-OPLS

>  <s_lp_Variant>  (1) 
Pocket2Mol_76-1

>  <s_m_source_file>  (1) 
generated_GPCR_5HT2C_ligand_Pocket2Mol_2026-06-23_prepared.sdf

>  <GenAI_Model>  (1) 
Pocket2Mol

>  <Protein>  (1) 
GPCR_5HT2C

$$$$
Pocket2Mol_8
     RDKit          3D

  0  0  0  0  0  0  0  0  0  0999 V3000
M  V30 BEGIN CTAB
M  V30 COUNTS 12 12 0 0 1
M  V30 BEGIN ATOM
M  V30 1 C 38.731368 28.221876 52.148674 0
M  V30 2 C 39.585679 29.326757 51.963546 0
M  V30 3 C 37.936517 28.132563 53.308463 0
M  V30 4 C 37.995980 29.148126 54.283127 0
M  V30 5 C 38.850291 30.253004 54.098002 0
M  V30 6 C 39.645137 30.342319 52.938214 0
M  V30 7 H 38.685778 27.443260 51.401415 0
M  V30 8 H 40.195075 29.395233 51.074356 0
M  V30 9 H 37.281532 27.285471 53.450396 0
M  V30 10 H 37.386581 29.079650 55.172318 0
M  V30 11 H 38.895879 31.031620 54.845260 0
M  V30 12 H 40.300124 31.189413 52.796279 0
M  V30 END ATOM
M  V30 BEGIN BOND
M  V30 1 1 2 1
M  V30 2 2 3 1
M  V30 3 1 4 3
M  V30 4 2 5 4
M  V30 5 2 6 2
M  V30 6 1 6 5
M  V30 7 1 7 1
M  V30 8 1 8 2
M  V30 9 1 9 3
M  V30 10 1 10 4
M  V30 11 1 11 5
M  V30 12 1 12 6
M  V30 END BOND
M  V30 END CTAB
M  END
>  <i_epik_Tot_Q>  (1) 
0

>  <i_epik_Tot_abs_Q>  (1) 
0

>  <i_i_glide_confnum>  (1) 
1

>  <i_i_glide_lignum>  (1) 
11

>  <i_i_glide_posenum>  (1) 
191

>  <i_i_glide_rotatable_bonds>  (1) 
0

>  <i_lp_mmshare_version>  (1) 
72125

>  <i_m_source_file_index>  (1) 
9

>  <i_f3d_flags>  (1) 
0

>  <num_sample>  (1) 
100

>  <b_lp_Chiralities_Consistent>  (1) 
1

>  <r_epik_Charging_Adjusted_Penalty>  (1) 
0

>  <r_epik_Ionization_Penalty>  (1) 
0

>  <r_epik_Ionization_Penalty_Charging>  (1) 
0

>  <r_epik_Ionization_Penalty_Neutral>  (1) 
0

>  <r_epik_State_Penalty>  (1) 
-0

>  <r_glide_ring_energy>  (1) 
0

>  <r_i_docking_score>  (1) 
-5.1448203168126714

>  <r_i_glide_ecoul>  (1) 
-0.93131061290605199

>  <r_i_glide_eff_state_penalty>  (1) 
-0

>  <r_i_glide_einternal>  (1) 
0

>  <r_i_glide_emodel>  (1) 
-18.997899623139244

>  <r_i_glide_emodel_strain>  (1) 
0

>  <r_i_glide_energy>  (1) 
-14.12883451230385

>  <r_i_glide_erotb>  (1) 
0

>  <r_i_glide_esite>  (1) 
0

>  <r_i_glide_evdw>  (1) 
-13.197523899397799

>  <r_i_glide_gscore>  (1) 
-5.1448203168126714

>  <r_i_glide_gscore_strain>  (1) 
0

>  <r_i_glide_hbond>  (1) 
0

>  <r_i_glide_ligand_efficiency>  (1) 
-0.85747005280211186

>  <r_i_glide_ligand_efficiency_ln>  (1) 
-1.8428594488604915

>  <r_i_glide_ligand_efficiency_sa>  (1) 
-1.5581264906835799

>  <r_i_glide_lipo>  (1) 
-1.7965114710939591

>  <r_i_glide_metal>  (1) 
-0

>  <r_i_glide_rewards>  (1) 
-2.548736058812914

>  <r_lp_Energy>  (1) 
6.1542199999999996

>  <r_lp_tautomer_probability>  (1) 
1

>  <s_epik_cmdline>  (1) 
J2VwaWtfcHl0aG9uJywgJy1waHQnLCAnMS4wJywgJy1waCcsICc3LjQnLCAnLXRuJywgJzgnLCAnLW1hJywgJzUwMCcsICctaW1hZScsICc8aW5maWxlLm1hZT4nLCAnLW9tYWUnLCAnPG91dGZpbGUubWFlPic=

>  <s_epik_input>  (1) 
W2NIXTFbY0hdW2NIXVtjSF1bY0hdW2NIXTE=

>  <s_glide_docking_method>  (1) 
confgen

>  <s_i_glide_gridfile>  (1) 
gpcr_5ht2c_6bqh_protein_autoprepared_prepared

>  <s_lp_Force_Field>  (1) 
S-OPLS

>  <s_lp_Variant>  (1) 
Pocket2Mol_8-1

>  <s_m_source_file>  (1) 
generated_GPCR_5HT2C_ligand_Pocket2Mol_2026-06-23_prepared.sdf

>  <GenAI_Model>  (1) 
Pocket2Mol

>  <Protein>  (1) 
GPCR_5HT2C

$$$$
Pocket2Mol_40
     RDKit          3D

  0  0  0  0  0  0  0  0  0  0999 V3000
M  V30 BEGIN CTAB
M  V30 COUNTS 12 12 0 0 1
M  V30 BEGIN ATOM
M  V30 1 C 39.247643 25.361391 57.221854 0
M  V30 2 C 39.252886 26.244088 56.131024 0
M  V30 3 C 38.207498 25.992669 55.446337 0
M  V30 4 C 37.739696 26.671222 54.171971 0
M  V30 5 N 38.240007 24.538678 57.281737 0
M  V30 6 C 37.495876 24.918592 56.093210 0
M  V30 7 O 36.445137 24.415094 55.700554 0
M  V30 8 H 40.065962 25.408378 57.945515 0
M  V30 9 H 40.028150 26.977388 55.964939 0
M  V30 10 H 37.500672 25.938872 53.402619 0
M  V30 11 H 36.847913 27.268160 54.362593 0
M  V30 12 H 38.512820 27.332600 53.780944 0
M  V30 END ATOM
M  V30 BEGIN BOND
M  V30 1 1 2 1
M  V30 2 2 3 2
M  V30 3 1 4 3
M  V30 4 2 5 1
M  V30 5 1 6 3
M  V30 6 1 6 5
M  V30 7 2 7 6
M  V30 8 1 8 1
M  V30 9 1 9 2
M  V30 10 1 10 4
M  V30 11 1 11 4
M  V30 12 1 12 4
M  V30 END BOND
M  V30 END CTAB
M  END
>  <i_epik_Tot_Q>  (1) 
0

>  <i_epik_Tot_abs_Q>  (1) 
0

>  <i_i_glide_confnum>  (1) 
1

>  <i_i_glide_lignum>  (1) 
43

>  <i_i_glide_posenum>  (1) 
189

>  <i_i_glide_rotatable_bonds>  (1) 
0

>  <i_lp_mmshare_version>  (1) 
72125

>  <i_m_source_file_index>  (1) 
41

>  <i_f3d_flags>  (1) 
0

>  <num_sample>  (1) 
100

>  <b_lp_Chiralities_Consistent>  (1) 
1

>  <r_epik_Charging_Adjusted_Penalty>  (1) 
0

>  <r_epik_Ionization_Penalty>  (1) 
0

>  <r_epik_Ionization_Penalty_Charging>  (1) 
0

>  <r_epik_Ionization_Penalty_Neutral>  (1) 
0

>  <r_epik_State_Penalty>  (1) 
-0

>  <r_glide_ring_energy>  (1) 
0

>  <r_i_docking_score>  (1) 
-5.1440854144569768

>  <r_i_glide_ecoul>  (1) 
-0.60568891468322872

>  <r_i_glide_eff_state_penalty>  (1) 
-0

>  <r_i_glide_einternal>  (1) 
0

>  <r_i_glide_emodel>  (1) 
-24.55827379400629

>  <r_i_glide_emodel_strain>  (1) 
0

>  <r_i_glide_energy>  (1) 
-18.528762862496727

>  <r_i_glide_erotb>  (1) 
0

>  <r_i_glide_esite>  (1) 
0

>  <r_i_glide_evdw>  (1) 
-17.923073947813499

>  <r_i_glide_gscore>  (1) 
-5.1440854144569768

>  <r_i_glide_gscore_strain>  (1) 
0

>  <r_i_glide_hbond>  (1) 
0

>  <r_i_glide_ligand_efficiency>  (1) 
-0.73486934492242528

>  <r_i_glide_ligand_efficiency_ln>  (1) 
-1.746178652497792

>  <r_i_glide_ligand_efficiency_sa>  (1) 
-1.4057544851656258

>  <r_i_glide_lipo>  (1) 
-0.9182500012444611

>  <r_i_glide_metal>  (1) 
-0

>  <r_i_glide_rewards>  (1) 
-3.2388283786193557

>  <r_lp_Energy>  (1) 
0.58044799999999996

>  <r_lp_tautomer_probability>  (1) 
1

>  <s_epik_Chemistry_Notes>  (1) 
This compound has an imine and may undergo hydrolysis.

>  <s_epik_cmdline>  (1) 
J2VwaWtfcHl0aG9uJywgJy1waHQnLCAnMS4wJywgJy1waCcsICc3LjQnLCAnLXRuJywgJzgnLCAnLW1hJywgJzUwMCcsICctaW1hZScsICc8aW5maWxlLm1hZT4nLCAnLW9tYWUnLCAnPG91dGZpbGUubWFlPic=

>  <s_epik_input>  (1) 
Tz1DMU49W0NIXVtDSF09QzFbQ0gzXQ==

>  <s_glide_docking_method>  (1) 
confgen

>  <s_i_glide_gridfile>  (1) 
gpcr_5ht2c_6bqh_protein_autoprepared_prepared

>  <s_lp_Force_Field>  (1) 
S-OPLS

>  <s_lp_Variant>  (1) 
Pocket2Mol_40-1

>  <s_m_source_file>  (1) 
generated_GPCR_5HT2C_ligand_Pocket2Mol_2026-06-23_prepared.sdf

>  <GenAI_Model>  (1) 
Pocket2Mol

>  <Protein>  (1) 
GPCR_5HT2C

$$$$
Pocket2Mol_48
     RDKit          3D

  0  0  0  0  0  0  0  0  0  0999 V3000
M  V30 BEGIN CTAB
M  V30 COUNTS 13 13 0 0 1
M  V30 BEGIN ATOM
M  V30 1 C 40.044915 29.126016 50.706777 0
M  V30 2 C 39.990862 29.903041 51.822467 0
M  V30 3 C 39.337786 28.027990 50.904715 0
M  V30 4 C 38.641934 27.905083 52.311822 0
M  V30 5 C 39.245137 29.304468 52.740316 0
M  V30 6 C 38.925453 29.841720 54.167767 0
M  V30 7 O 38.184515 29.119411 54.869925 0
M  V30 8 O 39.445624 30.938043 54.469167 0 CHG=-1
M  V30 9 H 40.581535 29.369162 49.802370 0
M  V30 10 H 40.479990 30.859367 51.942771 0
M  V30 11 H 39.224885 27.247594 50.167744 0
M  V30 12 H 37.553324 27.908232 52.251970 0
M  V30 13 H 39.020896 27.074077 52.906960 0
M  V30 END ATOM
M  V30 BEGIN BOND
M  V30 1 1 2 1
M  V30 2 2 3 1
M  V30 3 1 4 3
M  V30 4 2 5 2
M  V30 5 1 5 4
M  V30 6 1 6 5
M  V30 7 2 7 6
M  V30 8 1 8 6
M  V30 9 1 9 1
M  V30 10 1 10 2
M  V30 11 1 11 3
M  V30 12 1 12 4
M  V30 13 1 13 4
M  V30 END BOND
M  V30 END CTAB
M  END
>  <i_epik_Tot_Q>  (1) 
-1

>  <i_epik_Tot_abs_Q>  (1) 
1

>  <i_i_glide_confnum>  (1) 
1

>  <i_i_glide_lignum>  (1) 
51

>  <i_i_glide_posenum>  (1) 
307

>  <i_i_glide_rotatable_bonds>  (1) 
1

>  <i_lp_mmshare_version>  (1) 
72125

>  <i_m_source_file_index>  (1) 
49

>  <i_f3d_flags>  (1) 
0

>  <num_sample>  (1) 
100

>  <b_lp_Chiralities_Consistent>  (1) 
1

>  <r_epik_Charging_Adjusted_Penalty>  (1) 
0.00046806641816521339

>  <r_epik_Ionization_Penalty>  (1) 
0.00046806641816521339

>  <r_epik_Ionization_Penalty_Charging>  (1) 
0.00046806641816521339

>  <r_epik_Ionization_Penalty_Neutral>  (1) 
0

>  <r_epik_State_Penalty>  (1) 
-0

>  <r_glide_ring_energy>  (1) 
0

>  <r_i_docking_score>  (1) 
-5.1409797078577064

>  <r_i_glide_ecoul>  (1) 
0.18850241126994005

>  <r_i_glide_eff_state_penalty>  (1) 
-0

>  <r_i_glide_einternal>  (1) 
0.012617051962779513

>  <r_i_glide_emodel>  (1) 
-21.36213692632554

>  <r_i_glide_emodel_strain>  (1) 
0

>  <r_i_glide_energy>  (1) 
-15.940601510030799

>  <r_i_glide_erotb>  (1) 
0

>  <r_i_glide_esite>  (1) 
0

>  <r_i_glide_evdw>  (1) 
-16.129103921300739

>  <r_i_glide_gscore>  (1) 
-5.1409797078577064

>  <r_i_glide_gscore_strain>  (1) 
0

>  <r_i_glide_hbond>  (1) 
0

>  <r_i_glide_ligand_efficiency>  (1) 
-0.6426224634822133

>  <r_i_glide_ligand_efficiency_ln>  (1) 
-1.6694519568808899

>  <r_i_glide_ligand_efficiency_sa>  (1) 
-1.2852449269644268

>  <r_i_glide_lipo>  (1) 
-1.5560551162315723

>  <r_i_glide_metal>  (1) 
-0

>  <r_i_glide_rewards>  (1) 
-2.8067447572515873

>  <r_lp_Energy>  (1) 
4.7151909999999999

>  <r_lp_tautomer_probability>  (1) 
1

>  <s_epik_cmdline>  (1) 
J2VwaWtfcHl0aG9uJywgJy1waHQnLCAnMS4wJywgJy1waCcsICc3LjQnLCAnLXRuJywgJzgnLCAnLW1hJywgJzUwMCcsICctaW1hZScsICc8aW5maWxlLm1hZT4nLCAnLW9tYWUnLCAnPG91dGZpbGUubWFlPic=

>  <s_epik_input>  (1) 
W0NIMl0xW0NIXT1bQ0hdW0NIXT1DMUMoPU8pW09IXQ==

>  <s_glide_docking_method>  (1) 
confgen

>  <s_i_glide_gridfile>  (1) 
gpcr_5ht2c_6bqh_protein_autoprepared_prepared

>  <s_lp_Force_Field>  (1) 
S-OPLS

>  <s_lp_Variant>  (1) 
Pocket2Mol_48-1

>  <s_m_source_file>  (1) 
generated_GPCR_5HT2C_ligand_Pocket2Mol_2026-06-23_prepared.sdf

>  <GenAI_Model>  (1) 
Pocket2Mol

>  <Protein>  (1) 
GPCR_5HT2C

$$$$
Pocket2Mol_67
     RDKit          3D

  0  0  0  0  0  0  0  0  0  0999 V3000
M  V30 BEGIN CTAB
M  V30 COUNTS 12 12 0 0 1
M  V30 BEGIN ATOM
M  V30 1 C 39.344007 30.421929 53.624608 0
M  V30 2 O 40.041998 30.685373 52.465672 0
M  V30 3 C 40.052879 29.821521 51.353190 0
M  V30 4 O 40.652375 30.080162 50.309788 0
M  V30 5 C 39.261776 28.553833 51.570231 0
M  V30 6 C 38.644903 29.300773 53.775480 0
M  V30 7 O 39.245659 27.666706 50.567761 0
M  V30 8 C 38.607719 28.340801 52.725588 0
M  V30 9 H 39.433334 31.208534 54.358941 0
M  V30 10 H 38.106040 29.119797 54.694266 0
M  V30 11 H 38.695190 26.943649 50.828009 0
M  V30 12 H 38.044938 27.427436 52.860714 0
M  V30 END ATOM
M  V30 BEGIN BOND
M  V30 1 1 2 1
M  V30 2 1 3 2
M  V30 3 2 4 3
M  V30 4 1 5 3
M  V30 5 2 6 1
M  V30 6 1 7 5
M  V30 7 2 8 5
M  V30 8 1 8 6
M  V30 9 1 9 1
M  V30 10 1 10 6
M  V30 11 1 11 7
M  V30 12 1 12 8
M  V30 END BOND
M  V30 END CTAB
M  END
>  <i_epik_Tot_Q>  (1) 
0

>  <i_epik_Tot_abs_Q>  (1) 
0

>  <i_i_glide_confnum>  (1) 
1

>  <i_i_glide_lignum>  (1) 
72

>  <i_i_glide_posenum>  (1) 
146

>  <i_i_glide_rotatable_bonds>  (1) 
1

>  <i_lp_mmshare_version>  (1) 
72125

>  <i_m_source_file_index>  (1) 
68

>  <i_f3d_flags>  (1) 
0

>  <num_sample>  (1) 
100

>  <b_lp_Chiralities_Consistent>  (1) 
1

>  <r_epik_Charging_Adjusted_Penalty>  (1) 
0

>  <r_epik_Ionization_Penalty>  (1) 
0.00075652206847014289

>  <r_epik_Ionization_Penalty_Charging>  (1) 
0

>  <r_epik_Ionization_Penalty_Neutral>  (1) 
0.00075652206847014289

>  <r_epik_State_Penalty>  (1) 
-0

>  <r_glide_ring_energy>  (1) 
0

>  <r_i_docking_score>  (1) 
-5.1349755162058832

>  <r_i_glide_ecoul>  (1) 
-0.53062766271399842

>  <r_i_glide_eff_state_penalty>  (1) 
-0

>  <r_i_glide_einternal>  (1) 
0.021882813445377458

>  <r_i_glide_emodel>  (1) 
-27.688323873617865

>  <r_i_glide_emodel_strain>  (1) 
0

>  <r_i_glide_energy>  (1) 
-20.651848539873235

>  <r_i_glide_erotb>  (1) 
0

>  <r_i_glide_esite>  (1) 
0

>  <r_i_glide_evdw>  (1) 
-20.121220877159235

>  <r_i_glide_gscore>  (1) 
-5.1349755162058832

>  <r_i_glide_gscore_strain>  (1) 
0

>  <r_i_glide_hbond>  (1) 
0

>  <r_i_glide_ligand_efficiency>  (1) 
-0.6418719395257354

>  <r_i_glide_ligand_efficiency_ln>  (1) 
-1.6675021904798859

>  <r_i_glide_ligand_efficiency_sa>  (1) 
-1.283743879051471

>  <r_i_glide_lipo>  (1) 
-1.5338256731873363

>  <r_i_glide_metal>  (1) 
-0

>  <r_i_glide_rewards>  (1) 
-2.5154946497534847

>  <r_lp_Energy>  (1) 
14.218883999999999

>  <r_lp_tautomer_probability>  (1) 
1

>  <s_epik_cmdline>  (1) 
J2VwaWtfcHl0aG9uJywgJy1waHQnLCAnMS4wJywgJy1waCcsICc3LjQnLCAnLXRuJywgJzgnLCAnLW1hJywgJzUwMCcsICctaW1hZScsICc8aW5maWxlLm1hZT4nLCAnLW9tYWUnLCAnPG91dGZpbGUubWFlPic=

>  <s_epik_input>  (1) 
Tz1jMW9bY0hdW2NIXVtjSF1jMVtPSF0=

>  <s_glide_docking_method>  (1) 
confgen

>  <s_i_glide_gridfile>  (1) 
gpcr_5ht2c_6bqh_protein_autoprepared_prepared

>  <s_lp_Force_Field>  (1) 
S-OPLS

>  <s_lp_Variant>  (1) 
Pocket2Mol_67-1

>  <s_m_source_file>  (1) 
generated_GPCR_5HT2C_ligand_Pocket2Mol_2026-06-23_prepared.sdf

>  <GenAI_Model>  (1) 
Pocket2Mol

>  <Protein>  (1) 
GPCR_5HT2C

$$$$
Pocket2Mol_41
     RDKit          3D

  0  0  0  0  0  0  0  0  0  0999 V3000
M  V30 BEGIN CTAB
M  V30 COUNTS 15 15 0 0 1
M  V30 BEGIN ATOM
M  V30 1 C 39.111011 30.386138 53.749119 0
M  V30 2 C 39.645128 29.737819 52.597243 0
M  V30 3 C 39.029815 28.545096 52.317736 0
M  V30 4 C 39.323137 27.603016 51.199763 0
M  V30 5 C 38.092789 29.682472 54.338525 0
M  V30 6 C 37.305903 30.051568 55.550133 0
M  V30 7 S 37.773688 28.199435 53.477551 0
M  V30 8 H 39.488594 31.335172 54.100473 0
M  V30 9 H 40.452817 30.164781 52.021027 0
M  V30 10 H 40.134542 27.975000 50.573736 0
M  V30 11 H 39.615830 26.626042 51.584734 0
M  V30 12 H 38.445139 27.468290 50.567844 0
M  V30 13 H 37.637266 31.006234 55.959363 0
M  V30 14 H 36.245900 30.137764 55.310729 0
M  V30 15 H 37.416591 29.295517 56.327619 0
M  V30 END ATOM
M  V30 BEGIN BOND
M  V30 1 1 2 1
M  V30 2 2 3 2
M  V30 3 1 4 3
M  V30 4 2 5 1
M  V30 5 1 6 5
M  V30 6 1 7 3
M  V30 7 1 7 5
M  V30 8 1 8 1
M  V30 9 1 9 2
M  V30 10 1 10 4
M  V30 11 1 11 4
M  V30 12 1 12 4
M  V30 13 1 13 6
M  V30 14 1 14 6
M  V30 15 1 15 6
M  V30 END BOND
M  V30 END CTAB
M  END
>  <i_epik_Tot_Q>  (1) 
0

>  <i_epik_Tot_abs_Q>  (1) 
0

>  <i_i_glide_confnum>  (1) 
1

>  <i_i_glide_lignum>  (1) 
44

>  <i_i_glide_posenum>  (1) 
205

>  <i_i_glide_rotatable_bonds>  (1) 
0

>  <i_lp_mmshare_version>  (1) 
72125

>  <i_m_source_file_index>  (1) 
42

>  <i_f3d_flags>  (1) 
0

>  <num_sample>  (1) 
100

>  <b_lp_Chiralities_Consistent>  (1) 
1

>  <r_epik_Charging_Adjusted_Penalty>  (1) 
0

>  <r_epik_Ionization_Penalty>  (1) 
0

>  <r_epik_Ionization_Penalty_Charging>  (1) 
0

>  <r_epik_Ionization_Penalty_Neutral>  (1) 
0

>  <r_epik_State_Penalty>  (1) 
-0

>  <r_glide_ring_energy>  (1) 
0

>  <r_i_docking_score>  (1) 
-5.1305644359160683

>  <r_i_glide_ecoul>  (1) 
-0.88071062227545094

>  <r_i_glide_eff_state_penalty>  (1) 
-0

>  <r_i_glide_einternal>  (1) 
0

>  <r_i_glide_emodel>  (1) 
-24.505990408898462

>  <r_i_glide_emodel_strain>  (1) 
0

>  <r_i_glide_energy>  (1) 
-18.53696468105349

>  <r_i_glide_erotb>  (1) 
0

>  <r_i_glide_esite>  (1) 
0

>  <r_i_glide_evdw>  (1) 
-17.656254058778039

>  <r_i_glide_gscore>  (1) 
-5.1305644359160683

>  <r_i_glide_gscore_strain>  (1) 
0

>  <r_i_glide_hbond>  (1) 
0

>  <r_i_glide_ligand_efficiency>  (1) 
-0.73293777655943837

>  <r_i_glide_ligand_efficiency_ln>  (1) 
-1.741588906763271

>  <r_i_glide_ligand_efficiency_sa>  (1) 
-1.4020595278124115

>  <r_i_glide_lipo>  (1) 
-1.7071238995265736

>  <r_i_glide_metal>  (1) 
-0

>  <r_i_glide_rewards>  (1) 
-2.4085212401092746

>  <r_lp_Energy>  (1) 
3.6641779999999997

>  <r_lp_tautomer_probability>  (1) 
1

>  <s_epik_cmdline>  (1) 
J2VwaWtfcHl0aG9uJywgJy1waHQnLCAnMS4wJywgJy1waCcsICc3LjQnLCAnLXRuJywgJzgnLCAnLW1hJywgJzUwMCcsICctaW1hZScsICc8aW5maWxlLm1hZT4nLCAnLW9tYWUnLCAnPG91dGZpbGUubWFlPic=

>  <s_epik_input>  (1) 
W0NIM11jKHMxKVtjSF1bY0hdYzFbQ0gzXQ==

>  <s_glide_docking_method>  (1) 
confgen

>  <s_i_glide_gridfile>  (1) 
gpcr_5ht2c_6bqh_protein_autoprepared_prepared

>  <s_lp_Force_Field>  (1) 
S-OPLS

>  <s_lp_Variant>  (1) 
Pocket2Mol_41-1

>  <s_m_source_file>  (1) 
generated_GPCR_5HT2C_ligand_Pocket2Mol_2026-06-23_prepared.sdf

>  <GenAI_Model>  (1) 
Pocket2Mol

>  <Protein>  (1) 
GPCR_5HT2C

$$$$
Pocket2Mol_48
     RDKit          3D

  0  0  0  0  0  0  0  0  0  0999 V3000
M  V30 BEGIN CTAB
M  V30 COUNTS 13 13 0 0 1
M  V30 BEGIN ATOM
M  V30 1 C 40.445134 30.451331 50.731843 0
M  V30 2 C 40.045137 30.447203 52.032972 0
M  V30 3 C 40.045136 29.337759 50.149796 0
M  V30 4 C 39.245398 28.332858 51.065938 0
M  V30 5 C 39.384852 29.327444 52.288487 0
M  V30 6 C 38.752759 28.917968 53.653236 0
M  V30 7 O 38.155377 27.819272 53.672706 0
M  V30 8 O 38.908247 29.727991 54.592519 0 CHG=-1
M  V30 9 H 41.000739 31.243388 50.251079 0
M  V30 10 H 40.234484 31.236330 52.746876 0
M  V30 11 H 40.237197 29.103438 49.114007 0
M  V30 12 H 38.211319 28.187056 50.758271 0
M  V30 13 H 39.760728 27.385692 51.222416 0
M  V30 END ATOM
M  V30 BEGIN BOND
M  V30 1 1 2 1
M  V30 2 2 3 1
M  V30 3 1 4 3
M  V30 4 2 5 2
M  V30 5 1 5 4
M  V30 6 1 6 5
M  V30 7 2 7 6
M  V30 8 1 8 6
M  V30 9 1 9 1
M  V30 10 1 10 2
M  V30 11 1 11 3
M  V30 12 1 12 4
M  V30 13 1 13 4
M  V30 END BOND
M  V30 END CTAB
M  END
>  <i_epik_Tot_Q>  (1) 
-1

>  <i_epik_Tot_abs_Q>  (1) 
1

>  <i_i_glide_confnum>  (1) 
1

>  <i_i_glide_lignum>  (1) 
51

>  <i_i_glide_posenum>  (1) 
20

>  <i_i_glide_rotatable_bonds>  (1) 
1

>  <i_lp_mmshare_version>  (1) 
72125

>  <i_m_source_file_index>  (1) 
49

>  <i_f3d_flags>  (1) 
0

>  <num_sample>  (1) 
100

>  <b_lp_Chiralities_Consistent>  (1) 
1

>  <r_epik_Charging_Adjusted_Penalty>  (1) 
0.00046806641816521339

>  <r_epik_Ionization_Penalty>  (1) 
0.00046806641816521339

>  <r_epik_Ionization_Penalty_Charging>  (1) 
0.00046806641816521339

>  <r_epik_Ionization_Penalty_Neutral>  (1) 
0

>  <r_epik_State_Penalty>  (1) 
-0

>  <r_glide_ring_energy>  (1) 
0

>  <r_i_docking_score>  (1) 
-5.128670615502017

>  <r_i_glide_ecoul>  (1) 
0.24269389249396944

>  <r_i_glide_eff_state_penalty>  (1) 
-0

>  <r_i_glide_einternal>  (1) 
0.012904926294797336

>  <r_i_glide_emodel>  (1) 
-20.736068016154146

>  <r_i_glide_emodel_strain>  (1) 
0

>  <r_i_glide_energy>  (1) 
-15.327672470908526

>  <r_i_glide_erotb>  (1) 
0

>  <r_i_glide_esite>  (1) 
0

>  <r_i_glide_evdw>  (1) 
-15.570366363402496

>  <r_i_glide_gscore>  (1) 
-5.128670615502017

>  <r_i_glide_gscore_strain>  (1) 
0

>  <r_i_glide_hbond>  (1) 
0

>  <r_i_glide_ligand_efficiency>  (1) 
-0.64108382693775212

>  <r_i_glide_ligand_efficiency_ln>  (1) 
-1.6654547735640166

>  <r_i_glide_ligand_efficiency_sa>  (1) 
-1.2821676538755045

>  <r_i_glide_lipo>  (1) 
-1.4351692085140042

>  <r_i_glide_metal>  (1) 
-0

>  <r_i_glide_rewards>  (1) 
-2.9513871726919834

>  <r_lp_Energy>  (1) 
4.7151909999999999

>  <r_lp_tautomer_probability>  (1) 
1

>  <s_epik_cmdline>  (1) 
J2VwaWtfcHl0aG9uJywgJy1waHQnLCAnMS4wJywgJy1waCcsICc3LjQnLCAnLXRuJywgJzgnLCAnLW1hJywgJzUwMCcsICctaW1hZScsICc8aW5maWxlLm1hZT4nLCAnLW9tYWUnLCAnPG91dGZpbGUubWFlPic=

>  <s_epik_input>  (1) 
W0NIMl0xW0NIXT1bQ0hdW0NIXT1DMUMoPU8pW09IXQ==

>  <s_glide_docking_method>  (1) 
confgen

>  <s_i_glide_gridfile>  (1) 
gpcr_5ht2c_6bqh_protein_autoprepared_prepared

>  <s_lp_Force_Field>  (1) 
S-OPLS

>  <s_lp_Variant>  (1) 
Pocket2Mol_48-1

>  <s_m_source_file>  (1) 
generated_GPCR_5HT2C_ligand_Pocket2Mol_2026-06-23_prepared.sdf

>  <GenAI_Model>  (1) 
Pocket2Mol

>  <Protein>  (1) 
GPCR_5HT2C

$$$$
Pocket2Mol_31
     RDKit          3D

  0  0  0  0  0  0  0  0  0  0999 V3000
M  V30 BEGIN CTAB
M  V30 COUNTS 17 17 0 0 1
M  V30 BEGIN ATOM
M  V30 1 C 40.045140 28.503102 50.967810 0
M  V30 2 C 39.891098 29.915203 51.517324 0
M  V30 3 C 39.539444 30.053993 53.002240 0
M  V30 4 O 40.045159 30.900304 50.800632 0
M  V30 5 C 38.936600 27.558317 51.454183 0
M  V30 6 C 38.464566 29.037859 53.447265 0
M  V30 7 C 38.754266 27.604239 52.977754 0
M  V30 8 H 40.060525 28.537760 49.878287 0
M  V30 9 H 41.015125 28.137909 51.298291 0
M  V30 10 H 40.445457 29.919411 53.588327 0
M  V30 11 H 39.198926 31.071542 53.196523 0
M  V30 12 H 37.999189 27.823770 50.967779 0
M  V30 13 H 39.164694 26.539474 51.139046 0
M  V30 14 H 38.372649 29.057371 54.533495 0
M  V30 15 H 37.492542 29.337734 53.059690 0
M  V30 16 H 39.645213 27.221238 53.473799 0
M  V30 17 H 37.934758 26.946154 53.269971 0
M  V30 END ATOM
M  V30 BEGIN BOND
M  V30 1 1 2 1
M  V30 2 1 3 2
M  V30 3 2 4 2
M  V30 4 1 5 1
M  V30 5 1 6 3
M  V30 6 1 7 5
M  V30 7 1 7 6
M  V30 8 1 8 1
M  V30 9 1 9 1
M  V30 10 1 10 3
M  V30 11 1 11 3
M  V30 12 1 12 5
M  V30 13 1 13 5
M  V30 14 1 14 6
M  V30 15 1 15 6
M  V30 16 1 16 7
M  V30 17 1 17 7
M  V30 END BOND
M  V30 END CTAB
M  END
>  <i_epik_Tot_Q>  (1) 
0

>  <i_epik_Tot_abs_Q>  (1) 
0

>  <i_i_glide_confnum>  (1) 
1

>  <i_i_glide_lignum>  (1) 
34

>  <i_i_glide_posenum>  (1) 
107

>  <i_i_glide_rotatable_bonds>  (1) 
0

>  <i_lp_mmshare_version>  (1) 
72125

>  <i_m_source_file_index>  (1) 
32

>  <i_f3d_flags>  (1) 
0

>  <num_sample>  (1) 
100

>  <b_lp_Chiralities_Consistent>  (1) 
1

>  <r_epik_Charging_Adjusted_Penalty>  (1) 
0

>  <r_epik_Ionization_Penalty>  (1) 
3.7730911281982554e-13

>  <r_epik_Ionization_Penalty_Charging>  (1) 
0

>  <r_epik_Ionization_Penalty_Neutral>  (1) 
3.7730911281982554e-13

>  <r_epik_State_Penalty>  (1) 
-0

>  <r_glide_ring_energy>  (1) 
0

>  <r_i_docking_score>  (1) 
-5.1238587748111808

>  <r_i_glide_ecoul>  (1) 
0.89334093603256015

>  <r_i_glide_eff_state_penalty>  (1) 
-0

>  <r_i_glide_einternal>  (1) 
0

>  <r_i_glide_emodel>  (1) 
-21.111074467051193

>  <r_i_glide_emodel_strain>  (1) 
0

>  <r_i_glide_energy>  (1) 
-15.787787365052131

>  <r_i_glide_erotb>  (1) 
0

>  <r_i_glide_esite>  (1) 
0

>  <r_i_glide_evdw>  (1) 
-16.681128301084691

>  <r_i_glide_gscore>  (1) 
-5.1238587748111808

>  <r_i_glide_gscore_strain>  (1) 
0

>  <r_i_glide_hbond>  (1) 
0

>  <r_i_glide_ligand_efficiency>  (1) 
-0.73197982497302583

>  <r_i_glide_ligand_efficiency_ln>  (1) 
-1.7393126455178161

>  <r_i_glide_ligand_efficiency_sa>  (1) 
-1.4002270323511767

>  <r_i_glide_lipo>  (1) 
-1.5890013058335519

>  <r_i_glide_metal>  (1) 
-0

>  <r_i_glide_rewards>  (1) 
-2.8348021943282773

>  <r_lp_Energy>  (1) 
-0.38655299999999998

>  <r_lp_tautomer_probability>  (1) 
1

>  <s_epik_cmdline>  (1) 
J2VwaWtfcHl0aG9uJywgJy1waHQnLCAnMS4wJywgJy1waCcsICc3LjQnLCAnLXRuJywgJzgnLCAnLW1hJywgJzUwMCcsICctaW1hZScsICc8aW5maWxlLm1hZT4nLCAnLW9tYWUnLCAnPG91dGZpbGUubWFlPic=

>  <s_epik_input>  (1) 
Tz1DMVtDSDJdW0NIMl1bQ0gyXVtDSDJdW0NIMl0x

>  <s_glide_docking_method>  (1) 
confgen

>  <s_i_glide_gridfile>  (1) 
gpcr_5ht2c_6bqh_protein_autoprepared_prepared

>  <s_lp_Force_Field>  (1) 
S-OPLS

>  <s_lp_Variant>  (1) 
Pocket2Mol_31-1

>  <s_m_source_file>  (1) 
generated_GPCR_5HT2C_ligand_Pocket2Mol_2026-06-23_prepared.sdf

>  <GenAI_Model>  (1) 
Pocket2Mol

>  <Protein>  (1) 
GPCR_5HT2C

$$$$
Pocket2Mol_61
     RDKit          3D

  0  0  0  0  0  0  0  0  0  0999 V3000
M  V30 BEGIN CTAB
M  V30 COUNTS 16 16 0 0 1
M  V30 BEGIN ATOM
M  V30 1 C 39.722145 29.737307 51.788977 0
M  V30 2 C 39.006949 29.452542 53.123815 0
M  V30 3 C 39.670077 28.429614 51.000671 0
M  V30 4 C 39.229245 27.382432 52.015855 0
M  V30 5 N 38.348102 28.176557 52.861630 0
M  V30 6 N 38.240344 27.441782 54.201907 0 CHG=1
M  V30 7 O 38.088722 28.132695 55.206212 0 CHG=-1
M  V30 8 O 38.298986 26.213937 54.170735 0
M  V30 9 H 39.250509 30.538991 51.218429 0
M  V30 10 H 40.755676 30.035153 51.961946 0
M  V30 11 H 38.297008 30.229149 53.408147 0
M  V30 12 H 39.754889 29.371452 53.912549 0
M  V30 13 H 40.634136 28.177583 50.564959 0
M  V30 14 H 38.936450 28.508045 50.195448 0
M  V30 15 H 40.098013 27.023960 52.573715 0
M  V30 16 H 38.735848 26.538224 51.544353 0
M  V30 END ATOM
M  V30 BEGIN BOND
M  V30 1 1 2 1
M  V30 2 1 3 1
M  V30 3 1 4 3
M  V30 4 1 5 2
M  V30 5 1 5 4
M  V30 6 1 6 5
M  V30 7 1 7 6
M  V30 8 2 8 6
M  V30 9 1 9 1
M  V30 10 1 10 1
M  V30 11 1 11 2
M  V30 12 1 12 2
M  V30 13 1 13 3
M  V30 14 1 14 3
M  V30 15 1 15 4
M  V30 16 1 16 4
M  V30 END BOND
M  V30 END CTAB
M  END
>  <i_epik_Tot_Q>  (1) 
0

>  <i_epik_Tot_abs_Q>  (1) 
2

>  <i_i_glide_confnum>  (1) 
2

>  <i_i_glide_lignum>  (1) 
65

>  <i_i_glide_posenum>  (1) 
317

>  <i_i_glide_rotatable_bonds>  (1) 
1

>  <i_lp_mmshare_version>  (1) 
72125

>  <i_m_source_file_index>  (1) 
62

>  <i_f3d_flags>  (1) 
0

>  <num_sample>  (1) 
100

>  <b_lp_Chiralities_Consistent>  (1) 
1

>  <r_epik_Charging_Adjusted_Penalty>  (1) 
0

>  <r_epik_Ionization_Penalty>  (1) 
5.9201220630741648e-14

>  <r_epik_Ionization_Penalty_Charging>  (1) 
0

>  <r_epik_Ionization_Penalty_Neutral>  (1) 
5.9201220630741648e-14

>  <r_epik_State_Penalty>  (1) 
-0

>  <r_glide_ring_energy>  (1) 
0.002520034235707866

>  <r_i_docking_score>  (1) 
-5.1225621367520713

>  <r_i_glide_ecoul>  (1) 
0.17378617389145579

>  <r_i_glide_eff_state_penalty>  (1) 
-0

>  <r_i_glide_einternal>  (1) 
0.0033148264113433967

>  <r_i_glide_emodel>  (1) 
-21.533693779353865

>  <r_i_glide_emodel_strain>  (1) 
0.0010673488894710204

>  <r_i_glide_energy>  (1) 
-16.101653467645335

>  <r_i_glide_erotb>  (1) 
0

>  <r_i_glide_esite>  (1) 
0

>  <r_i_glide_evdw>  (1) 
-16.275439641536792

>  <r_i_glide_gscore>  (1) 
-5.1225621367520713

>  <r_i_glide_gscore_strain>  (1) 
0

>  <r_i_glide_hbond>  (1) 
0

>  <r_i_glide_ligand_efficiency>  (1) 
-0.64032026709400891

>  <r_i_glide_ligand_efficiency_ln>  (1) 
-1.663471141575142

>  <r_i_glide_ligand_efficiency_sa>  (1) 
-1.280640534188018

>  <r_i_glide_lipo>  (1) 
-1.2217631941857088

>  <r_i_glide_metal>  (1) 
-0

>  <r_i_glide_rewards>  (1) 
-3.1130948865732413

>  <r_lp_Energy>  (1) 
26.171151999999999

>  <r_lp_tautomer_probability>  (1) 
1

>  <s_epik_cmdline>  (1) 
J2VwaWtfcHl0aG9uJywgJy1waHQnLCAnMS4wJywgJy1waCcsICc3LjQnLCAnLXRuJywgJzgnLCAnLW1hJywgJzUwMCcsICctaW1hZScsICc8aW5maWxlLm1hZT4nLCAnLW9tYWUnLCAnPG91dGZpbGUubWFlPic=

>  <s_epik_input>  (1) 
W0NIMl0xW0NIMl1bQ0gyXVtDSDJdTjFbTitdKFtPLV0pPU8=

>  <s_glide_docking_method>  (1) 
confgen

>  <s_i_glide_gridfile>  (1) 
gpcr_5ht2c_6bqh_protein_autoprepared_prepared

>  <s_lp_Force_Field>  (1) 
S-OPLS

>  <s_lp_Variant>  (1) 
Pocket2Mol_61-1

>  <s_m_source_file>  (1) 
generated_GPCR_5HT2C_ligand_Pocket2Mol_2026-06-23_prepared.sdf

>  <GenAI_Model>  (1) 
Pocket2Mol

>  <Protein>  (1) 
GPCR_5HT2C

$$$$
Pocket2Mol_37
     RDKit          3D

  0  0  0  0  0  0  0  0  0  0999 V3000
M  V30 BEGIN CTAB
M  V30 COUNTS 11 11 0 0 1
M  V30 BEGIN ATOM
M  V30 1 C 40.045142 30.473648 52.286207 0
M  V30 2 O 39.275707 29.549832 52.958922 0
M  V30 3 C 38.845150 28.336481 52.389155 0
M  V30 4 O 38.164284 27.514224 52.997274 0
M  V30 5 C 39.300167 28.146881 50.967750 0
M  V30 6 C 40.426850 30.275653 51.030239 0
M  V30 7 C 40.044915 29.086811 50.355559 0
M  V30 8 H 40.283699 31.337754 52.884576 0
M  V30 9 H 39.012894 27.241832 50.449989 0
M  V30 10 H 41.028605 31.017002 50.523704 0
M  V30 11 H 40.357630 28.935557 49.333078 0
M  V30 END ATOM
M  V30 BEGIN BOND
M  V30 1 1 2 1
M  V30 2 1 3 2
M  V30 3 2 4 3
M  V30 4 1 5 3
M  V30 5 2 6 1
M  V30 6 2 7 5
M  V30 7 1 7 6
M  V30 8 1 8 1
M  V30 9 1 9 5
M  V30 10 1 10 6
M  V30 11 1 11 7
M  V30 END BOND
M  V30 END CTAB
M  END
>  <i_epik_Tot_Q>  (1) 
0

>  <i_epik_Tot_abs_Q>  (1) 
0

>  <i_i_glide_confnum>  (1) 
1

>  <i_i_glide_lignum>  (1) 
40

>  <i_i_glide_posenum>  (1) 
252

>  <i_i_glide_rotatable_bonds>  (1) 
0

>  <i_lp_mmshare_version>  (1) 
72125

>  <i_m_source_file_index>  (1) 
38

>  <i_f3d_flags>  (1) 
0

>  <num_sample>  (1) 
100

>  <b_lp_Chiralities_Consistent>  (1) 
1

>  <r_epik_Charging_Adjusted_Penalty>  (1) 
0

>  <r_epik_Ionization_Penalty>  (1) 
2.4984917370333966e-09

>  <r_epik_Ionization_Penalty_Charging>  (1) 
0

>  <r_epik_Ionization_Penalty_Neutral>  (1) 
2.4984917370333966e-09

>  <r_epik_State_Penalty>  (1) 
-0

>  <r_glide_ring_energy>  (1) 
0

>  <r_i_docking_score>  (1) 
-5.1135586399463557

>  <r_i_glide_ecoul>  (1) 
-0.28060283974742461

>  <r_i_glide_eff_state_penalty>  (1) 
-0

>  <r_i_glide_einternal>  (1) 
0

>  <r_i_glide_emodel>  (1) 
-23.135066296710988

>  <r_i_glide_emodel_strain>  (1) 
0

>  <r_i_glide_energy>  (1) 
-17.72549260843298

>  <r_i_glide_erotb>  (1) 
0

>  <r_i_glide_esite>  (1) 
0

>  <r_i_glide_evdw>  (1) 
-17.444889768685556

>  <r_i_glide_gscore>  (1) 
-5.1135586399463557

>  <r_i_glide_gscore_strain>  (1) 
0

>  <r_i_glide_hbond>  (1) 
0

>  <r_i_glide_ligand_efficiency>  (1) 
-0.73050837713519368

>  <r_i_glide_ligand_efficiency_ln>  (1) 
-1.7358162269769695

>  <r_i_glide_ligand_efficiency_sa>  (1) 
-1.3974122538983647

>  <r_i_glide_lipo>  (1) 
-1.5078587641080552

>  <r_i_glide_metal>  (1) 
-0

>  <r_i_glide_rewards>  (1) 
-2.6913649614419084

>  <r_lp_Energy>  (1) 
11.255118999999999

>  <r_lp_tautomer_probability>  (1) 
1

>  <s_epik_cmdline>  (1) 
J2VwaWtfcHl0aG9uJywgJy1waHQnLCAnMS4wJywgJy1waCcsICc3LjQnLCAnLXRuJywgJzgnLCAnLW1hJywgJzUwMCcsICctaW1hZScsICc8aW5maWxlLm1hZT4nLCAnLW9tYWUnLCAnPG91dGZpbGUubWFlPic=

>  <s_epik_input>  (1) 
W2NIXTFbY0hdW2NIXVtjSF1vYzE9Tw==

>  <s_glide_docking_method>  (1) 
confgen

>  <s_i_glide_gridfile>  (1) 
gpcr_5ht2c_6bqh_protein_autoprepared_prepared

>  <s_lp_Force_Field>  (1) 
S-OPLS

>  <s_lp_Variant>  (1) 
Pocket2Mol_37-1

>  <s_m_source_file>  (1) 
generated_GPCR_5HT2C_ligand_Pocket2Mol_2026-06-23_prepared.sdf

>  <GenAI_Model>  (1) 
Pocket2Mol

>  <Protein>  (1) 
GPCR_5HT2C

$$$$
Pocket2Mol_0
     RDKit          3D

  0  0  0  0  0  0  0  0  0  0999 V3000
M  V30 BEGIN CTAB
M  V30 COUNTS 19 19 0 0 1
M  V30 BEGIN ATOM
M  V30 1 C 39.218666 30.889116 54.014314 0
M  V30 2 C 39.154266 29.684043 53.160585 0
M  V30 3 C 39.695772 29.725725 51.855510 0
M  V30 4 C 38.553112 28.486938 53.622629 0
M  V30 5 C 38.497763 27.355205 52.786950 0
M  V30 6 C 39.039813 27.407223 51.489580 0
M  V30 7 C 39.638267 28.590668 51.024612 0
M  V30 8 C 38.749703 30.959066 55.277209 0
M  V30 9 C 38.845172 32.197871 56.062606 0
M  V30 10 N 38.445136 32.282549 57.254941 0
M  V30 11 H 39.675110 31.759032 53.574896 0
M  V30 12 H 40.155136 30.633984 51.491440 0
M  V30 13 H 38.132179 28.434457 54.613043 0
M  V30 14 H 38.035955 26.446274 53.142115 0
M  V30 15 H 38.994322 26.537755 50.849625 0
M  V30 16 H 40.051385 28.630441 50.027819 0
M  V30 17 H 38.285915 30.119939 55.769365 0
M  V30 18 H 39.290942 33.050157 55.542974 0
M  V30 19 H 38.558521 33.205163 57.648571 0
M  V30 END ATOM
M  V30 BEGIN BOND
M  V30 1 1 2 1
M  V30 2 1 3 2
M  V30 3 2 4 2
M  V30 4 1 5 4
M  V30 5 2 6 5
M  V30 6 2 7 3
M  V30 7 1 7 6
M  V30 8 2 8 1
M  V30 9 1 9 8
M  V30 10 2 10 9
M  V30 11 1 11 1
M  V30 12 1 12 3
M  V30 13 1 13 4
M  V30 14 1 14 5
M  V30 15 1 15 6
M  V30 16 1 16 7
M  V30 17 1 17 8
M  V30 18 1 18 9
M  V30 19 1 19 10
M  V30 END BOND
M  V30 END CTAB
M  END
>  <i_epik_Tot_Q>  (1) 
0

>  <i_epik_Tot_abs_Q>  (1) 
0

>  <i_i_glide_confnum>  (1) 
1

>  <i_i_glide_lignum>  (1) 
1

>  <i_i_glide_posenum>  (1) 
350

>  <i_i_glide_rotatable_bonds>  (1) 
2

>  <i_lp_mmshare_version>  (1) 
72125

>  <i_m_source_file_index>  (1) 
1

>  <i_f3d_flags>  (1) 
0

>  <num_sample>  (1) 
100

>  <b_lp_Chiralities_Consistent>  (1) 
1

>  <r_epik_Charging_Adjusted_Penalty>  (1) 
0

>  <r_epik_Ionization_Penalty>  (1) 
0

>  <r_epik_Ionization_Penalty_Charging>  (1) 
0

>  <r_epik_Ionization_Penalty_Neutral>  (1) 
0

>  <r_epik_State_Penalty>  (1) 
-0

>  <r_glide_ring_energy>  (1) 
0

>  <r_i_docking_score>  (1) 
-5.1134017262498039

>  <r_i_glide_ecoul>  (1) 
-0.19594343741565501

>  <r_i_glide_eff_state_penalty>  (1) 
-0

>  <r_i_glide_einternal>  (1) 
0.046694452146524013

>  <r_i_glide_emodel>  (1) 
-28.603981909825524

>  <r_i_glide_emodel_strain>  (1) 
0

>  <r_i_glide_energy>  (1) 
-21.390228169736467

>  <r_i_glide_erotb>  (1) 
0.80789427267668723

>  <r_i_glide_esite>  (1) 
-0.032814840878919227

>  <r_i_glide_evdw>  (1) 
-21.194284732320813

>  <r_i_glide_gscore>  (1) 
-5.1134017262498039

>  <r_i_glide_gscore_strain>  (1) 
0

>  <r_i_glide_hbond>  (1) 
0

>  <r_i_glide_ligand_efficiency>  (1) 
-0.51134017262498044

>  <r_i_glide_ligand_efficiency_ln>  (1) 
-1.5483027938014806

>  <r_i_glide_ligand_efficiency_sa>  (1) 
-1.1016490063101496

>  <r_i_glide_lipo>  (1) 
-2.1279401250016186

>  <r_i_glide_metal>  (1) 
-0

>  <r_i_glide_rewards>  (1) 
-2.6714352808175641

>  <r_lp_Energy>  (1) 
9.4498509999999989

>  <r_lp_tautomer_probability>  (1) 
1

>  <s_epik_Chemistry_Notes>  (1) 
This compound has an imine and may undergo hydrolysis.

>  <s_epik_cmdline>  (1) 
J2VwaWtfcHl0aG9uJywgJy1waHQnLCAnMS4wJywgJy1waCcsICc3LjQnLCAnLXRuJywgJzgnLCAnLW1hJywgJzUwMCcsICctaW1hZScsICc8aW5maWxlLm1hZT4nLCAnLW9tYWUnLCAnPG91dGZpbGUubWFlPic=

>  <s_epik_input>  (1) 
W0hdXE49W0NIXVxbQ0hdPVtDSF1cYzFbY0hdW2NIXVtjSF1bY0hdW2NIXTE=

>  <s_glide_docking_method>  (1) 
confgen

>  <s_i_glide_gridfile>  (1) 
gpcr_5ht2c_6bqh_protein_autoprepared_prepared

>  <s_lp_Force_Field>  (1) 
S-OPLS

>  <s_lp_Variant>  (1) 
Pocket2Mol_0-1

>  <s_m_source_file>  (1) 
generated_GPCR_5HT2C_ligand_Pocket2Mol_2026-06-23_prepared.sdf

>  <GenAI_Model>  (1) 
Pocket2Mol

>  <Protein>  (1) 
GPCR_5HT2C

$$$$
Pocket2Mol_40
     RDKit          3D

  0  0  0  0  0  0  0  0  0  0999 V3000
M  V30 BEGIN CTAB
M  V30 COUNTS 12 12 0 0 1
M  V30 BEGIN ATOM
M  V30 1 C 38.845141 29.199489 53.510221 0
M  V30 2 C 39.642949 30.137763 52.835074 0
M  V30 3 C 39.873402 29.659556 51.676345 0
M  V30 4 C 40.676359 30.280245 50.556432 0
M  V30 5 N 38.548772 28.121656 52.841497 0
M  V30 6 C 39.225199 28.377337 51.581458 0
M  V30 7 O 39.245183 27.635691 50.601368 0
M  V30 8 H 38.523134 29.414978 54.532491 0
M  V30 9 H 39.960052 31.073342 53.272549 0
M  V30 10 H 40.152070 30.185430 49.604853 0
M  V30 11 H 40.844883 31.337755 50.748245 0
M  V30 12 H 41.645454 29.793541 50.475958 0
M  V30 END ATOM
M  V30 BEGIN BOND
M  V30 1 1 2 1
M  V30 2 2 3 2
M  V30 3 1 4 3
M  V30 4 2 5 1
M  V30 5 1 6 3
M  V30 6 1 6 5
M  V30 7 2 7 6
M  V30 8 1 8 1
M  V30 9 1 9 2
M  V30 10 1 10 4
M  V30 11 1 11 4
M  V30 12 1 12 4
M  V30 END BOND
M  V30 END CTAB
M  END
>  <i_epik_Tot_Q>  (1) 
0

>  <i_epik_Tot_abs_Q>  (1) 
0

>  <i_i_glide_confnum>  (1) 
1

>  <i_i_glide_lignum>  (1) 
43

>  <i_i_glide_posenum>  (1) 
279

>  <i_i_glide_rotatable_bonds>  (1) 
0

>  <i_lp_mmshare_version>  (1) 
72125

>  <i_m_source_file_index>  (1) 
41

>  <i_f3d_flags>  (1) 
0

>  <num_sample>  (1) 
100

>  <b_lp_Chiralities_Consistent>  (1) 
1

>  <r_epik_Charging_Adjusted_Penalty>  (1) 
0

>  <r_epik_Ionization_Penalty>  (1) 
0

>  <r_epik_Ionization_Penalty_Charging>  (1) 
0

>  <r_epik_Ionization_Penalty_Neutral>  (1) 
0

>  <r_epik_State_Penalty>  (1) 
-0

>  <r_glide_ring_energy>  (1) 
0

>  <r_i_docking_score>  (1) 
-5.1017827973332279

>  <r_i_glide_ecoul>  (1) 
0.29586036554945472

>  <r_i_glide_eff_state_penalty>  (1) 
-0

>  <r_i_glide_einternal>  (1) 
0

>  <r_i_glide_emodel>  (1) 
-24.776507771415243

>  <r_i_glide_emodel_strain>  (1) 
0.00027973778659884374

>  <r_i_glide_energy>  (1) 
-18.796860531267832

>  <r_i_glide_erotb>  (1) 
0

>  <r_i_glide_esite>  (1) 
0

>  <r_i_glide_evdw>  (1) 
-19.092720896817287

>  <r_i_glide_gscore>  (1) 
-5.1017827973332279

>  <r_i_glide_gscore_strain>  (1) 
0

>  <r_i_glide_hbond>  (1) 
0

>  <r_i_glide_ligand_efficiency>  (1) 
-0.72882611390474683

>  <r_i_glide_ligand_efficiency_ln>  (1) 
-1.7318188740309184

>  <r_i_glide_ligand_efficiency_sa>  (1) 
-1.3941942001072114

>  <r_i_glide_lipo>  (1) 
-0.98999999999999999

>  <r_i_glide_metal>  (1) 
-0

>  <r_i_glide_rewards>  (1) 
-3.2015258073247823

>  <r_lp_Energy>  (1) 
0.58044799999999996

>  <r_lp_tautomer_probability>  (1) 
1

>  <s_epik_Chemistry_Notes>  (1) 
This compound has an imine and may undergo hydrolysis.

>  <s_epik_cmdline>  (1) 
J2VwaWtfcHl0aG9uJywgJy1waHQnLCAnMS4wJywgJy1waCcsICc3LjQnLCAnLXRuJywgJzgnLCAnLW1hJywgJzUwMCcsICctaW1hZScsICc8aW5maWxlLm1hZT4nLCAnLW9tYWUnLCAnPG91dGZpbGUubWFlPic=

>  <s_epik_input>  (1) 
Tz1DMU49W0NIXVtDSF09QzFbQ0gzXQ==

>  <s_glide_docking_method>  (1) 
confgen

>  <s_i_glide_gridfile>  (1) 
gpcr_5ht2c_6bqh_protein_autoprepared_prepared

>  <s_lp_Force_Field>  (1) 
S-OPLS

>  <s_lp_Variant>  (1) 
Pocket2Mol_40-1

>  <s_m_source_file>  (1) 
generated_GPCR_5HT2C_ligand_Pocket2Mol_2026-06-23_prepared.sdf

>  <GenAI_Model>  (1) 
Pocket2Mol

>  <Protein>  (1) 
GPCR_5HT2C

$$$$
Pocket2Mol_47
     RDKit          3D

  0  0  0  0  0  0  0  0  0  0999 V3000
M  V30 BEGIN CTAB
M  V30 COUNTS 20 20 0 0 1
M  V30 BEGIN ATOM
M  V30 1 C 39.691976 29.129705 51.397101 0
M  V30 2 O 39.997432 29.873170 52.710232 0
M  V30 3 C 38.869560 29.859294 53.755193 0
M  V30 4 C 38.897262 27.816382 51.515313 0
M  V30 5 O 39.255373 26.933694 52.722313 0
M  V30 6 C 38.467891 27.310000 53.989606 0 CFG=1
M  V30 7 C 38.613396 26.180517 55.005368 0
M  V30 8 C 38.913742 28.617241 54.662452 0
M  V30 9 H 39.146378 29.795567 50.728483 0
M  V30 10 H 40.638113 28.930364 50.893924 0
M  V30 11 H 38.864201 30.778134 54.341541 0
M  V30 12 H 37.918750 29.843718 53.222446 0
M  V30 13 H 37.829487 28.034894 51.529814 0
M  V30 14 H 39.056149 27.246344 50.599938 0
M  V30 15 H 37.403192 27.358853 53.761290 0
M  V30 16 H 38.012028 26.369748 55.894862 0
M  V30 17 H 38.286781 25.230899 54.580823 0
M  V30 18 H 39.650731 26.063719 55.320535 0
M  V30 19 H 39.916171 28.495859 55.072942 0
M  V30 20 H 38.267760 28.792668 55.522703 0
M  V30 END ATOM
M  V30 BEGIN BOND
M  V30 1 1 2 1
M  V30 2 1 3 2
M  V30 3 1 4 1
M  V30 4 1 5 4
M  V30 5 1 6 5
M  V30 6 1 7 6
M  V30 7 1 8 3
M  V30 8 1 8 6
M  V30 9 1 9 1
M  V30 10 1 10 1
M  V30 11 1 11 3
M  V30 12 1 12 3
M  V30 13 1 13 4
M  V30 14 1 14 4
M  V30 15 1 6 15 CFG=3
M  V30 16 1 16 7
M  V30 17 1 17 7
M  V30 18 1 18 7
M  V30 19 1 19 8
M  V30 20 1 20 8
M  V30 END BOND
M  V30 END CTAB
M  END
>  <i_epik_Tot_Q>  (1) 
0

>  <i_epik_Tot_abs_Q>  (1) 
0

>  <i_i_glide_confnum>  (1) 
2

>  <i_i_glide_lignum>  (1) 
50

>  <i_i_glide_posenum>  (1) 
362

>  <i_i_glide_rotatable_bonds>  (1) 
0

>  <i_lp_mmshare_version>  (1) 
72125

>  <i_m_source_file_index>  (1) 
48

>  <i_f3d_flags>  (1) 
0

>  <num_sample>  (1) 
100

>  <b_lp_Chiralities_Consistent>  (1) 
1

>  <r_epik_Charging_Adjusted_Penalty>  (1) 
0

>  <r_epik_Ionization_Penalty>  (1) 
4.0259461194199272e-12

>  <r_epik_Ionization_Penalty_Charging>  (1) 
0

>  <r_epik_Ionization_Penalty_Neutral>  (1) 
4.0259461194199272e-12

>  <r_epik_State_Penalty>  (1) 
-0

>  <r_glide_ring_energy>  (1) 
0.00017015776906804109

>  <r_i_docking_score>  (1) 
-5.097064258814858

>  <r_i_glide_ecoul>  (1) 
-0.54567009563491542

>  <r_i_glide_eff_state_penalty>  (1) 
-0

>  <r_i_glide_einternal>  (1) 
0

>  <r_i_glide_emodel>  (1) 
-24.012992801970643

>  <r_i_glide_emodel_strain>  (1) 
0

>  <r_i_glide_energy>  (1) 
-18.248389427956575

>  <r_i_glide_erotb>  (1) 
0

>  <r_i_glide_esite>  (1) 
0

>  <r_i_glide_evdw>  (1) 
-17.70271933232166

>  <r_i_glide_gscore>  (1) 
-5.097064258814858

>  <r_i_glide_gscore_strain>  (1) 
0

>  <r_i_glide_hbond>  (1) 
0

>  <r_i_glide_ligand_efficiency>  (1) 
-0.63713303235185725

>  <r_i_glide_ligand_efficiency_ln>  (1) 
-1.6551911084613118

>  <r_i_glide_ligand_efficiency_sa>  (1) 
-1.2742660647037147

>  <r_i_glide_lipo>  (1) 
-1.6717444445202041

>  <r_i_glide_metal>  (1) 
-0

>  <r_i_glide_rewards>  (1) 
-2.4583333333333335

>  <r_lp_Energy>  (1) 
6.6371139999999995

>  <r_lp_tautomer_probability>  (1) 
1

>  <s_epik_cmdline>  (1) 
J2VwaWtfcHl0aG9uJywgJy1waHQnLCAnMS4wJywgJy1waCcsICc3LjQnLCAnLXRuJywgJzgnLCAnLW1hJywgJzUwMCcsICctaW1hZScsICc8aW5maWxlLm1hZT4nLCAnLW9tYWUnLCAnPG91dGZpbGUubWFlPic=

>  <s_epik_input>  (1) 
W0NIMl0xW0NIMl1PW0NIMl1bQ0gyXU9bQ0BIXTFbQ0gzXQ==

>  <s_glide_docking_method>  (1) 
confgen

>  <s_i_glide_gridfile>  (1) 
gpcr_5ht2c_6bqh_protein_autoprepared_prepared

>  <s_lp_Force_Field>  (1) 
S-OPLS

>  <s_lp_Variant>  (1) 
Pocket2Mol_47-1

>  <s_m_source_file>  (1) 
generated_GPCR_5HT2C_ligand_Pocket2Mol_2026-06-23_prepared.sdf

>  <GenAI_Model>  (1) 
Pocket2Mol

>  <Protein>  (1) 
GPCR_5HT2C

$$$$
Pocket2Mol_8
     RDKit          3D

  0  0  0  0  0  0  0  0  0  0999 V3000
M  V30 BEGIN CTAB
M  V30 COUNTS 12 12 0 0 1
M  V30 BEGIN ATOM
M  V30 1 C 38.845274 26.072081 54.994613 0
M  V30 2 C 39.645138 26.073040 56.153873 0
M  V30 3 C 37.645138 25.334816 54.967760 0
M  V30 4 C 37.245134 24.597780 56.100117 0
M  V30 5 C 38.045087 24.599130 57.260001 0
M  V30 6 C 39.245138 25.337438 57.286510 0
M  V30 7 H 39.152086 26.636079 54.126133 0
M  V30 8 H 40.566311 26.637361 56.174477 0
M  V30 9 H 37.032190 25.333602 54.078031 0
M  V30 10 H 36.325569 24.031699 56.078733 0
M  V30 11 H 37.738824 24.033683 58.128276 0
M  V30 12 H 39.859873 25.338095 58.174453 0
M  V30 END ATOM
M  V30 BEGIN BOND
M  V30 1 1 2 1
M  V30 2 2 3 1
M  V30 3 1 4 3
M  V30 4 2 5 4
M  V30 5 2 6 2
M  V30 6 1 6 5
M  V30 7 1 7 1
M  V30 8 1 8 2
M  V30 9 1 9 3
M  V30 10 1 10 4
M  V30 11 1 11 5
M  V30 12 1 12 6
M  V30 END BOND
M  V30 END CTAB
M  END
>  <i_epik_Tot_Q>  (1) 
0

>  <i_epik_Tot_abs_Q>  (1) 
0

>  <i_i_glide_confnum>  (1) 
1

>  <i_i_glide_lignum>  (1) 
11

>  <i_i_glide_posenum>  (1) 
292

>  <i_i_glide_rotatable_bonds>  (1) 
0

>  <i_lp_mmshare_version>  (1) 
72125

>  <i_m_source_file_index>  (1) 
9

>  <i_f3d_flags>  (1) 
0

>  <num_sample>  (1) 
100

>  <b_lp_Chiralities_Consistent>  (1) 
1

>  <r_epik_Charging_Adjusted_Penalty>  (1) 
0

>  <r_epik_Ionization_Penalty>  (1) 
0

>  <r_epik_Ionization_Penalty_Charging>  (1) 
0

>  <r_epik_Ionization_Penalty_Neutral>  (1) 
0

>  <r_epik_State_Penalty>  (1) 
-0

>  <r_glide_ring_energy>  (1) 
0

>  <r_i_docking_score>  (1) 
-5.0905726372395428

>  <r_i_glide_ecoul>  (1) 
-0.085569693143408121

>  <r_i_glide_eff_state_penalty>  (1) 
-0

>  <r_i_glide_einternal>  (1) 
0

>  <r_i_glide_emodel>  (1) 
-19.197554171730761

>  <r_i_glide_emodel_strain>  (1) 
0

>  <r_i_glide_energy>  (1) 
-14.379829140371056

>  <r_i_glide_erotb>  (1) 
0

>  <r_i_glide_esite>  (1) 
0

>  <r_i_glide_evdw>  (1) 
-14.294259447227647

>  <r_i_glide_gscore>  (1) 
-5.0905726372395428

>  <r_i_glide_gscore_strain>  (1) 
0

>  <r_i_glide_hbond>  (1) 
0

>  <r_i_glide_ligand_efficiency>  (1) 
-0.84842877287325713

>  <r_i_glide_ligand_efficiency_ln>  (1) 
-1.8234280901882745

>  <r_i_glide_ligand_efficiency_sa>  (1) 
-1.541697394739298

>  <r_i_glide_lipo>  (1) 
-1.9615613109609986

>  <r_i_glide_metal>  (1) 
-0

>  <r_i_glide_rewards>  (1) 
-2.4014628999456509

>  <r_lp_Energy>  (1) 
6.1542199999999996

>  <r_lp_tautomer_probability>  (1) 
1

>  <s_epik_cmdline>  (1) 
J2VwaWtfcHl0aG9uJywgJy1waHQnLCAnMS4wJywgJy1waCcsICc3LjQnLCAnLXRuJywgJzgnLCAnLW1hJywgJzUwMCcsICctaW1hZScsICc8aW5maWxlLm1hZT4nLCAnLW9tYWUnLCAnPG91dGZpbGUubWFlPic=

>  <s_epik_input>  (1) 
W2NIXTFbY0hdW2NIXVtjSF1bY0hdW2NIXTE=

>  <s_glide_docking_method>  (1) 
confgen

>  <s_i_glide_gridfile>  (1) 
gpcr_5ht2c_6bqh_protein_autoprepared_prepared

>  <s_lp_Force_Field>  (1) 
S-OPLS

>  <s_lp_Variant>  (1) 
Pocket2Mol_8-1

>  <s_m_source_file>  (1) 
generated_GPCR_5HT2C_ligand_Pocket2Mol_2026-06-23_prepared.sdf

>  <GenAI_Model>  (1) 
Pocket2Mol

>  <Protein>  (1) 
GPCR_5HT2C

$$$$
Pocket2Mol_61
     RDKit          3D

  0  0  0  0  0  0  0  0  0  0999 V3000
M  V30 BEGIN CTAB
M  V30 COUNTS 16 16 0 0 1
M  V30 BEGIN ATOM
M  V30 1 C 39.525971 28.553759 50.966513 0
M  V30 2 C 39.645480 29.653597 52.018724 0
M  V30 3 C 38.960444 27.337756 51.701129 0
M  V30 4 C 38.693740 27.802599 53.134317 0
M  V30 5 N 38.624890 29.250670 52.977160 0
M  V30 6 N 39.010007 29.860900 54.328571 0 CHG=1
M  V30 7 O 38.684975 29.235726 55.334702 0 CHG=-1
M  V30 8 O 39.603350 30.936065 54.305805 0
M  V30 9 H 38.845032 28.860813 50.173322 0
M  V30 10 H 40.480573 28.336866 50.498818 0
M  V30 11 H 39.492796 30.652970 51.613302 0
M  V30 12 H 40.637281 29.620347 52.464810 0
M  V30 13 H 39.645024 26.491875 51.684598 0
M  V30 14 H 38.044955 27.006457 51.216250 0
M  V30 15 H 39.536263 27.510247 53.763738 0
M  V30 16 H 37.777574 27.385850 53.554423 0
M  V30 END ATOM
M  V30 BEGIN BOND
M  V30 1 1 2 1
M  V30 2 1 3 1
M  V30 3 1 4 3
M  V30 4 1 5 2
M  V30 5 1 5 4
M  V30 6 1 6 5
M  V30 7 1 7 6
M  V30 8 2 8 6
M  V30 9 1 9 1
M  V30 10 1 10 1
M  V30 11 1 11 2
M  V30 12 1 12 2
M  V30 13 1 13 3
M  V30 14 1 14 3
M  V30 15 1 15 4
M  V30 16 1 16 4
M  V30 END BOND
M  V30 END CTAB
M  END
>  <i_epik_Tot_Q>  (1) 
0

>  <i_epik_Tot_abs_Q>  (1) 
2

>  <i_i_glide_confnum>  (1) 
1

>  <i_i_glide_lignum>  (1) 
65

>  <i_i_glide_posenum>  (1) 
316

>  <i_i_glide_rotatable_bonds>  (1) 
1

>  <i_lp_mmshare_version>  (1) 
72125

>  <i_m_source_file_index>  (1) 
62

>  <i_f3d_flags>  (1) 
0

>  <num_sample>  (1) 
100

>  <b_lp_Chiralities_Consistent>  (1) 
1

>  <r_epik_Charging_Adjusted_Penalty>  (1) 
0

>  <r_epik_Ionization_Penalty>  (1) 
5.9201220630741648e-14

>  <r_epik_Ionization_Penalty_Charging>  (1) 
0

>  <r_epik_Ionization_Penalty_Neutral>  (1) 
5.9201220630741648e-14

>  <r_epik_State_Penalty>  (1) 
-0

>  <r_glide_ring_energy>  (1) 
0

>  <r_i_docking_score>  (1) 
-5.0896323398536918

>  <r_i_glide_ecoul>  (1) 
0.058041012173958073

>  <r_i_glide_eff_state_penalty>  (1) 
-0

>  <r_i_glide_einternal>  (1) 
0.0024829215777341096

>  <r_i_glide_emodel>  (1) 
-22.213927318509697

>  <r_i_glide_emodel_strain>  (1) 
0

>  <r_i_glide_energy>  (1) 
-16.815340462784135

>  <r_i_glide_erotb>  (1) 
0

>  <r_i_glide_esite>  (1) 
0

>  <r_i_glide_evdw>  (1) 
-16.873381474958094

>  <r_i_glide_gscore>  (1) 
-5.0896323398536918

>  <r_i_glide_gscore_strain>  (1) 
0

>  <r_i_glide_hbond>  (1) 
0

>  <r_i_glide_ligand_efficiency>  (1) 
-0.63620404248171147

>  <r_i_glide_ligand_efficiency_ln>  (1) 
-1.6527777101679602

>  <r_i_glide_ligand_efficiency_sa>  (1) 
-1.2724080849634232

>  <r_i_glide_lipo>  (1) 
-1.3107567967786466

>  <r_i_glide_metal>  (1) 
-0

>  <r_i_glide_rewards>  (1) 
-2.9439126211532347

>  <r_lp_Energy>  (1) 
26.171151999999999

>  <r_lp_tautomer_probability>  (1) 
1

>  <s_epik_cmdline>  (1) 
J2VwaWtfcHl0aG9uJywgJy1waHQnLCAnMS4wJywgJy1waCcsICc3LjQnLCAnLXRuJywgJzgnLCAnLW1hJywgJzUwMCcsICctaW1hZScsICc8aW5maWxlLm1hZT4nLCAnLW9tYWUnLCAnPG91dGZpbGUubWFlPic=

>  <s_epik_input>  (1) 
W0NIMl0xW0NIMl1bQ0gyXVtDSDJdTjFbTitdKFtPLV0pPU8=

>  <s_glide_docking_method>  (1) 
confgen

>  <s_i_glide_gridfile>  (1) 
gpcr_5ht2c_6bqh_protein_autoprepared_prepared

>  <s_lp_Force_Field>  (1) 
S-OPLS

>  <s_lp_Variant>  (1) 
Pocket2Mol_61-1

>  <s_m_source_file>  (1) 
generated_GPCR_5HT2C_ligand_Pocket2Mol_2026-06-23_prepared.sdf

>  <GenAI_Model>  (1) 
Pocket2Mol

>  <Protein>  (1) 
GPCR_5HT2C

$$$$
Pocket2Mol_9
     RDKit          3D

  0  0  0  0  0  0  0  0  0  0999 V3000
M  V30 BEGIN CTAB
M  V30 COUNTS 11 11 0 0 1
M  V30 BEGIN ATOM
M  V30 1 C 39.805097 29.203205 51.716897 0
M  V30 2 C 39.249337 28.130001 50.787897 0
M  V30 3 C 39.199678 29.335790 52.870040 0
M  V30 4 C 38.150896 28.413062 52.941228 0
M  V30 5 N 38.174570 27.738357 51.778255 0
M  V30 6 O 37.354583 28.235145 53.857656 0
M  V30 7 H 40.651971 29.803501 51.415589 0
M  V30 8 H 37.504480 27.008338 51.560518 0
M  V30 9 H 38.845137 28.537925 49.862567 0
M  V30 10 H 39.463095 30.042960 53.642444 0
M  V30 11 H 39.957990 27.325313 50.591944 0
M  V30 END ATOM
M  V30 BEGIN BOND
M  V30 1 1 2 1
M  V30 2 2 3 1
M  V30 3 1 4 3
M  V30 4 1 5 2
M  V30 5 1 5 4
M  V30 6 2 6 4
M  V30 7 1 7 1
M  V30 8 1 8 5
M  V30 9 1 9 2
M  V30 10 1 10 3
M  V30 11 1 11 2
M  V30 END BOND
M  V30 END CTAB
M  END
>  <i_epik_Tot_Q>  (1) 
0

>  <i_epik_Tot_abs_Q>  (1) 
0

>  <i_i_glide_confnum>  (1) 
1

>  <i_i_glide_lignum>  (1) 
12

>  <i_i_glide_posenum>  (1) 
280

>  <i_i_glide_rotatable_bonds>  (1) 
0

>  <i_lp_mmshare_version>  (1) 
72125

>  <i_m_source_file_index>  (1) 
10

>  <i_f3d_flags>  (1) 
0

>  <num_sample>  (1) 
100

>  <b_lp_Chiralities_Consistent>  (1) 
1

>  <r_epik_Charging_Adjusted_Penalty>  (1) 
0

>  <r_epik_Ionization_Penalty>  (1) 
3.8544596149973334e-06

>  <r_epik_Ionization_Penalty_Charging>  (1) 
0

>  <r_epik_Ionization_Penalty_Neutral>  (1) 
3.8544596149973334e-06

>  <r_epik_State_Penalty>  (1) 
-0

>  <r_glide_ring_energy>  (1) 
0

>  <r_i_docking_score>  (1) 
-5.0876844362165841

>  <r_i_glide_ecoul>  (1) 
-2.8503486088050449

>  <r_i_glide_eff_state_penalty>  (1) 
-0

>  <r_i_glide_einternal>  (1) 
0

>  <r_i_glide_emodel>  (1) 
-22.954547485429231

>  <r_i_glide_emodel_strain>  (1) 
0

>  <r_i_glide_energy>  (1) 
-17.568638576600943

>  <r_i_glide_erotb>  (1) 
0

>  <r_i_glide_esite>  (1) 
0

>  <r_i_glide_evdw>  (1) 
-14.718289967795899

>  <r_i_glide_gscore>  (1) 
-5.0876844362165841

>  <r_i_glide_gscore_strain>  (1) 
0

>  <r_i_glide_hbond>  (1) 
-0.32000000000000001

>  <r_i_glide_ligand_efficiency>  (1) 
-0.84794740603609731

>  <r_i_glide_ligand_efficiency_ln>  (1) 
-1.8223935451084443

>  <r_i_glide_ligand_efficiency_sa>  (1) 
-1.5408226931467883

>  <r_i_glide_lipo>  (1) 
-0.90421764650603242

>  <r_i_glide_metal>  (1) 
-0

>  <r_i_glide_rewards>  (1) 
-2.7000000000000002

>  <r_lp_Energy>  (1) 
3.2049569999999998

>  <r_lp_tautomer_probability>  (1) 
1

>  <s_epik_cmdline>  (1) 
J2VwaWtfcHl0aG9uJywgJy1waHQnLCAnMS4wJywgJy1waCcsICc3LjQnLCAnLXRuJywgJzgnLCAnLW1hJywgJzUwMCcsICctaW1hZScsICc8aW5maWxlLm1hZT4nLCAnLW9tYWUnLCAnPG91dGZpbGUubWFlPic=

>  <s_epik_input>  (1) 
TjE9W0NIXVtDSDJdW0NIMl1DMT1P

>  <s_glide_docking_method>  (1) 
confgen

>  <s_i_glide_gridfile>  (1) 
gpcr_5ht2c_6bqh_protein_autoprepared_prepared

>  <s_lp_Force_Field>  (1) 
S-OPLS

>  <s_lp_Variant>  (1) 
Pocket2Mol_9-1

>  <s_m_source_file>  (1) 
generated_GPCR_5HT2C_ligand_Pocket2Mol_2026-06-23_prepared.sdf

>  <GenAI_Model>  (1) 
Pocket2Mol

>  <Protein>  (1) 
GPCR_5HT2C

$$$$
Pocket2Mol_63
     RDKit          3D

  0  0  0  0  0  0  0  0  0  0999 V3000
M  V30 BEGIN CTAB
M  V30 COUNTS 14 14 0 0 1
M  V30 BEGIN ATOM
M  V30 1 C 39.777235 28.496264 50.967750 0
M  V30 2 C 39.763741 29.715222 51.774256 0
M  V30 3 C 39.118312 27.509087 51.443773 0
M  V30 4 C 38.448664 27.751784 52.723593 0
M  V30 5 N 38.710277 29.259380 52.789774 0
M  V30 6 N 39.245137 29.572427 54.189120 0 CHG=1
M  V30 7 O 38.868598 28.847070 55.105197 0 CHG=-1
M  V30 8 O 39.997010 30.537755 54.295267 0
M  V30 9 H 40.319885 28.459841 50.035821 0
M  V30 10 H 40.766299 29.869700 52.169323 0
M  V30 11 H 39.446682 30.581590 51.195406 0
M  V30 12 H 39.044371 26.547344 50.956299 0
M  V30 13 H 37.383244 27.524951 52.680609 0
M  V30 14 H 38.940994 27.150088 53.488055 0
M  V30 END ATOM
M  V30 BEGIN BOND
M  V30 1 1 2 1
M  V30 2 2 3 1
M  V30 3 1 4 3
M  V30 4 1 5 2
M  V30 5 1 5 4
M  V30 6 1 6 5
M  V30 7 1 7 6
M  V30 8 2 8 6
M  V30 9 1 9 1
M  V30 10 1 10 2
M  V30 11 1 11 2
M  V30 12 1 12 3
M  V30 13 1 13 4
M  V30 14 1 14 4
M  V30 END BOND
M  V30 END CTAB
M  END
>  <i_epik_Tot_Q>  (1) 
0

>  <i_epik_Tot_abs_Q>  (1) 
2

>  <i_i_glide_confnum>  (1) 
1

>  <i_i_glide_lignum>  (1) 
67

>  <i_i_glide_posenum>  (1) 
99

>  <i_i_glide_rotatable_bonds>  (1) 
1

>  <i_lp_mmshare_version>  (1) 
72125

>  <i_m_source_file_index>  (1) 
64

>  <i_f3d_flags>  (1) 
0

>  <num_sample>  (1) 
100

>  <b_lp_Chiralities_Consistent>  (1) 
1

>  <r_epik_Charging_Adjusted_Penalty>  (1) 
0.01004869924428556

>  <r_epik_Ionization_Penalty>  (1) 
0.010048699244285546

>  <r_epik_Ionization_Penalty_Charging>  (1) 
0

>  <r_epik_Ionization_Penalty_Neutral>  (1) 
0.010048699244285546

>  <r_epik_State_Penalty>  (1) 
0.01004869924428556

>  <r_glide_ring_energy>  (1) 
0

>  <r_i_docking_score>  (1) 
-5.0836866388251583

>  <r_i_glide_ecoul>  (1) 
-0.12057262623333001

>  <r_i_glide_eff_state_penalty>  (1) 
0.01004869924428556

>  <r_i_glide_einternal>  (1) 
0.0035640964496263527

>  <r_i_glide_emodel>  (1) 
-22.946200097430626

>  <r_i_glide_emodel_strain>  (1) 
0

>  <r_i_glide_energy>  (1) 
-16.9612193806257

>  <r_i_glide_erotb>  (1) 
0

>  <r_i_glide_esite>  (1) 
0

>  <r_i_glide_evdw>  (1) 
-16.84064675439237

>  <r_i_glide_gscore>  (1) 
-5.0937353380694441

>  <r_i_glide_gscore_strain>  (1) 
0

>  <r_i_glide_hbond>  (1) 
0

>  <r_i_glide_ligand_efficiency>  (1) 
-0.63546082985314478

>  <r_i_glide_ligand_efficiency_ln>  (1) 
-1.6508469376729933

>  <r_i_glide_ligand_efficiency_sa>  (1) 
-1.2709216597062898

>  <r_i_glide_lipo>  (1) 
-1.3200000000000001

>  <r_i_glide_metal>  (1) 
-0

>  <r_i_glide_rewards>  (1) 
-2.9136171064148257

>  <r_lp_Energy>  (1) 
16.803152000000001

>  <s_epik_cmdline>  (1) 
J2VwaWtfcHl0aG9uJywgJy1waHQnLCAnMS4wJywgJy1waCcsICc3LjQnLCAnLXRuJywgJzgnLCAnLW1hJywgJzUwMCcsICctaW1hZScsICc8aW5maWxlLm1hZT4nLCAnLW9tYWUnLCAnPG91dGZpbGUubWFlPic=

>  <s_epik_input>  (1) 
W0NIMl0xW0NIXT1bQ0hdW0NIMl1OMVtOK10oW08tXSk9Tw==

>  <s_glide_docking_method>  (1) 
confgen

>  <s_i_glide_gridfile>  (1) 
gpcr_5ht2c_6bqh_protein_autoprepared_prepared

>  <s_lp_Force_Field>  (1) 
S-OPLS

>  <s_lp_Variant>  (1) 
Pocket2Mol_63-1

>  <s_m_source_file>  (1) 
generated_GPCR_5HT2C_ligand_Pocket2Mol_2026-06-23_prepared.sdf

>  <GenAI_Model>  (1) 
Pocket2Mol

>  <Protein>  (1) 
GPCR_5HT2C

$$$$
Pocket2Mol_21
     RDKit          3D

  0  0  0  0  0  0  0  0  0  0999 V3000
M  V30 BEGIN CTAB
M  V30 COUNTS 13 13 0 0 1
M  V30 BEGIN ATOM
M  V30 1 C 40.444950 30.530223 50.898176 0
M  V30 2 C 40.045137 30.537245 52.262284 0
M  V30 3 C 40.045138 29.341865 50.356894 0
M  V30 4 C 39.411415 29.352679 52.514479 0
M  V30 5 N 39.410394 28.612573 51.347091 0
M  V30 6 C 38.837568 27.295205 51.188630 0
M  V30 7 H 40.968383 31.313303 50.368713 0
M  V30 8 H 40.203192 31.326584 52.982844 0
M  V30 9 H 40.150232 28.944407 49.359051 0
M  V30 10 H 38.960749 28.964069 53.416658 0
M  V30 11 H 38.969695 26.937920 50.167792 0
M  V30 12 H 39.321050 26.597531 51.872373 0
M  V30 13 H 37.773066 27.337760 51.415528 0
M  V30 END ATOM
M  V30 BEGIN BOND
M  V30 1 1 2 1
M  V30 2 2 3 1
M  V30 3 2 4 2
M  V30 4 1 5 3
M  V30 5 1 5 4
M  V30 6 1 6 5
M  V30 7 1 7 1
M  V30 8 1 8 2
M  V30 9 1 9 3
M  V30 10 1 10 4
M  V30 11 1 11 6
M  V30 12 1 12 6
M  V30 13 1 13 6
M  V30 END BOND
M  V30 END CTAB
M  END
>  <i_epik_Tot_Q>  (1) 
0

>  <i_epik_Tot_abs_Q>  (1) 
0

>  <i_i_glide_confnum>  (1) 
1

>  <i_i_glide_lignum>  (1) 
24

>  <i_i_glide_posenum>  (1) 
72

>  <i_i_glide_rotatable_bonds>  (1) 
0

>  <i_lp_mmshare_version>  (1) 
72125

>  <i_m_source_file_index>  (1) 
22

>  <i_f3d_flags>  (1) 
0

>  <num_sample>  (1) 
100

>  <b_lp_Chiralities_Consistent>  (1) 
1

>  <r_epik_Charging_Adjusted_Penalty>  (1) 
0

>  <r_epik_Ionization_Penalty>  (1) 
5.9248581604286784e-11

>  <r_epik_Ionization_Penalty_Charging>  (1) 
0

>  <r_epik_Ionization_Penalty_Neutral>  (1) 
5.9248581604286784e-11

>  <r_epik_State_Penalty>  (1) 
-0

>  <r_glide_ring_energy>  (1) 
0

>  <r_i_docking_score>  (1) 
-5.0817720837951157

>  <r_i_glide_ecoul>  (1) 
-1.1536125923031144

>  <r_i_glide_eff_state_penalty>  (1) 
-0

>  <r_i_glide_einternal>  (1) 
0

>  <r_i_glide_emodel>  (1) 
-21.542046970599422

>  <r_i_glide_emodel_strain>  (1) 
0

>  <r_i_glide_energy>  (1) 
-16.357841048227428

>  <r_i_glide_erotb>  (1) 
0

>  <r_i_glide_esite>  (1) 
0

>  <r_i_glide_evdw>  (1) 
-15.204228455924314

>  <r_i_glide_gscore>  (1) 
-5.0817720837951157

>  <r_i_glide_gscore_strain>  (1) 
0

>  <r_i_glide_hbond>  (1) 
0

>  <r_i_glide_ligand_efficiency>  (1) 
-0.84696201396585258

>  <r_i_glide_ligand_efficiency_ln>  (1) 
-1.8202757579256168

>  <r_i_glide_ligand_efficiency_sa>  (1) 
-1.5390321169239332

>  <r_i_glide_lipo>  (1) 
-1.4485187721534327

>  <r_i_glide_metal>  (1) 
-0

>  <r_i_glide_rewards>  (1) 
-2.7000000000000002

>  <r_lp_Energy>  (1) 
0.62146699999999999

>  <r_lp_tautomer_probability>  (1) 
1

>  <s_epik_cmdline>  (1) 
J2VwaWtfcHl0aG9uJywgJy1waHQnLCAnMS4wJywgJy1waCcsICc3LjQnLCAnLXRuJywgJzgnLCAnLW1hJywgJzUwMCcsICctaW1hZScsICc8aW5maWxlLm1hZT4nLCAnLW9tYWUnLCAnPG91dGZpbGUubWFlPic=

>  <s_epik_input>  (1) 
W2NIXTFbY0hdW2NIXVtjSF1uMVtDSDNd

>  <s_glide_docking_method>  (1) 
confgen

>  <s_i_glide_gridfile>  (1) 
gpcr_5ht2c_6bqh_protein_autoprepared_prepared

>  <s_lp_Force_Field>  (1) 
S-OPLS

>  <s_lp_Variant>  (1) 
Pocket2Mol_21-1

>  <s_m_source_file>  (1) 
generated_GPCR_5HT2C_ligand_Pocket2Mol_2026-06-23_prepared.sdf

>  <GenAI_Model>  (1) 
Pocket2Mol

>  <Protein>  (1) 
GPCR_5HT2C

$$$$
Pocket2Mol_13
     RDKit          3D

  0  0  0  0  0  0  0  0  0  0999 V3000
M  V30 BEGIN CTAB
M  V30 COUNTS 11 11 0 0 1
M  V30 BEGIN ATOM
M  V30 1 C 39.216809 29.336943 52.870164 0
M  V30 2 C 39.826371 29.190386 51.720961 0
M  V30 3 C 38.159860 28.423262 52.943104 0
M  V30 4 C 39.265649 28.116276 50.797332 0
M  V30 5 N 38.185081 27.737755 51.786529 0
M  V30 6 O 37.356467 28.259951 53.856169 0
M  V30 7 H 39.482780 30.047617 53.638910 0
M  V30 8 H 38.866740 28.532616 49.872595 0
M  V30 9 H 40.679280 29.780901 51.418814 0
M  V30 10 H 39.972190 27.308680 50.604206 0
M  V30 11 H 37.510514 27.010502 51.571733 0
M  V30 END ATOM
M  V30 BEGIN BOND
M  V30 1 2 2 1
M  V30 2 1 3 1
M  V30 3 1 4 2
M  V30 4 1 5 3
M  V30 5 1 5 4
M  V30 6 2 6 3
M  V30 7 1 7 1
M  V30 8 1 8 4
M  V30 9 1 9 2
M  V30 10 1 10 4
M  V30 11 1 11 5
M  V30 END BOND
M  V30 END CTAB
M  END
>  <i_epik_Tot_Q>  (1) 
0

>  <i_epik_Tot_abs_Q>  (1) 
0

>  <i_i_glide_confnum>  (1) 
1

>  <i_i_glide_lignum>  (1) 
16

>  <i_i_glide_posenum>  (1) 
280

>  <i_i_glide_rotatable_bonds>  (1) 
0

>  <i_lp_mmshare_version>  (1) 
72125

>  <i_m_source_file_index>  (1) 
14

>  <i_f3d_flags>  (1) 
0

>  <num_sample>  (1) 
100

>  <b_lp_Chiralities_Consistent>  (1) 
1

>  <r_epik_Charging_Adjusted_Penalty>  (1) 
0

>  <r_epik_Ionization_Penalty>  (1) 
3.8544596149973334e-06

>  <r_epik_Ionization_Penalty_Charging>  (1) 
0

>  <r_epik_Ionization_Penalty_Neutral>  (1) 
3.8544596149973334e-06

>  <r_epik_State_Penalty>  (1) 
-0

>  <r_glide_ring_energy>  (1) 
0

>  <r_i_docking_score>  (1) 
-5.0813537221256473

>  <r_i_glide_ecoul>  (1) 
-2.8074980707381476

>  <r_i_glide_eff_state_penalty>  (1) 
-0

>  <r_i_glide_einternal>  (1) 
0

>  <r_i_glide_emodel>  (1) 
-22.937786361754362

>  <r_i_glide_emodel_strain>  (1) 
0

>  <r_i_glide_energy>  (1) 
-17.55759978246423

>  <r_i_glide_erotb>  (1) 
0

>  <r_i_glide_esite>  (1) 
0

>  <r_i_glide_evdw>  (1) 
-14.750101711726083

>  <r_i_glide_gscore>  (1) 
-5.0813537221256473

>  <r_i_glide_gscore_strain>  (1) 
0

>  <r_i_glide_hbond>  (1) 
-0.32000000000000001

>  <r_i_glide_ligand_efficiency>  (1) 
-0.84689228702094121

>  <r_i_glide_ligand_efficiency_ln>  (1) 
-1.8201259020107075

>  <r_i_glide_ligand_efficiency_sa>  (1) 
-1.5389054146564594

>  <r_i_glide_lipo>  (1) 
-0.90272392592862105

>  <r_i_glide_metal>  (1) 
-0

>  <r_i_glide_rewards>  (1) 
-2.7000000000000002

>  <r_lp_Energy>  (1) 
3.204942

>  <r_lp_tautomer_probability>  (1) 
1

>  <s_epik_cmdline>  (1) 
J2VwaWtfcHl0aG9uJywgJy1waHQnLCAnMS4wJywgJy1waCcsICc3LjQnLCAnLXRuJywgJzgnLCAnLW1hJywgJzUwMCcsICctaW1hZScsICc8aW5maWxlLm1hZT4nLCAnLW9tYWUnLCAnPG91dGZpbGUubWFlPic=

>  <s_epik_input>  (1) 
Tz1DMVtDSDJdW0NIXT1bQ0hdW05IXTE=

>  <s_glide_docking_method>  (1) 
confgen

>  <s_i_glide_gridfile>  (1) 
gpcr_5ht2c_6bqh_protein_autoprepared_prepared

>  <s_lp_Force_Field>  (1) 
S-OPLS

>  <s_lp_Variant>  (1) 
Pocket2Mol_13-1

>  <s_m_source_file>  (1) 
generated_GPCR_5HT2C_ligand_Pocket2Mol_2026-06-23_prepared.sdf

>  <GenAI_Model>  (1) 
Pocket2Mol

>  <Protein>  (1) 
GPCR_5HT2C

$$$$
Pocket2Mol_16
     RDKit          3D

  0  0  0  0  0  0  0  0  0  0999 V3000
M  V30 BEGIN CTAB
M  V30 COUNTS 18 18 0 0 1
M  V30 BEGIN ATOM
M  V30 1 C 38.845042 29.333196 53.233559 0
M  V30 2 C 39.657790 30.598767 52.941515 0
M  V30 3 C 38.927541 28.456207 51.974343 0
M  V30 4 C 40.045182 30.536011 51.457043 0
M  V30 5 C 40.045221 29.051487 51.115456 0
M  V30 6 C 39.144980 26.976092 52.285182 0
M  V30 7 H 37.806565 29.576478 53.460905 0
M  V30 8 H 39.248539 28.823527 54.109236 0
M  V30 9 H 39.109033 31.510084 53.181542 0
M  V30 10 H 40.556051 30.600305 53.558749 0
M  V30 11 H 37.992661 28.563612 51.422697 0
M  V30 12 H 39.313405 31.052402 50.835485 0
M  V30 13 H 41.011855 30.999794 51.262025 0
M  V30 14 H 41.007699 28.617214 51.388062 0
M  V30 15 H 39.892577 28.870116 50.050624 0
M  V30 16 H 40.045302 26.813363 52.877344 0
M  V30 17 H 39.245138 26.410166 51.359779 0
M  V30 18 H 38.300504 26.565911 52.840098 0
M  V30 END ATOM
M  V30 BEGIN BOND
M  V30 1 1 2 1
M  V30 2 1 3 1
M  V30 3 1 4 2
M  V30 4 1 5 3
M  V30 5 1 5 4
M  V30 6 1 6 3
M  V30 7 1 7 1
M  V30 8 1 8 1
M  V30 9 1 9 2
M  V30 10 1 10 2
M  V30 11 1 11 3
M  V30 12 1 12 4
M  V30 13 1 13 4
M  V30 14 1 14 5
M  V30 15 1 15 5
M  V30 16 1 16 6
M  V30 17 1 17 6
M  V30 18 1 18 6
M  V30 END BOND
M  V30 END CTAB
M  END
>  <i_epik_Tot_Q>  (1) 
0

>  <i_epik_Tot_abs_Q>  (1) 
0

>  <i_i_glide_confnum>  (1) 
2

>  <i_i_glide_lignum>  (1) 
19

>  <i_i_glide_posenum>  (1) 
188

>  <i_i_glide_rotatable_bonds>  (1) 
0

>  <i_lp_mmshare_version>  (1) 
72125

>  <i_m_source_file_index>  (1) 
17

>  <i_f3d_flags>  (1) 
0

>  <num_sample>  (1) 
100

>  <b_lp_Chiralities_Consistent>  (1) 
1

>  <r_epik_Charging_Adjusted_Penalty>  (1) 
0

>  <r_epik_Ionization_Penalty>  (1) 
0

>  <r_epik_Ionization_Penalty_Charging>  (1) 
0

>  <r_epik_Ionization_Penalty_Neutral>  (1) 
0

>  <r_epik_State_Penalty>  (1) 
-0

>  <r_glide_ring_energy>  (1) 
0.2204327727677606

>  <r_i_docking_score>  (1) 
-5.0797288765178834

>  <r_i_glide_ecoul>  (1) 
-0.10997932388788204

>  <r_i_glide_eff_state_penalty>  (1) 
-0

>  <r_i_glide_einternal>  (1) 
0

>  <r_i_glide_emodel>  (1) 
-19.318809794624315

>  <r_i_glide_emodel_strain>  (1) 
0.080180125425961535

>  <r_i_glide_energy>  (1) 
-14.415608614014149

>  <r_i_glide_erotb>  (1) 
0

>  <r_i_glide_esite>  (1) 
0

>  <r_i_glide_evdw>  (1) 
-14.305629290126266

>  <r_i_glide_gscore>  (1) 
-5.0797288765178834

>  <r_i_glide_gscore_strain>  (1) 
0

>  <r_i_glide_hbond>  (1) 
0

>  <r_i_glide_ligand_efficiency>  (1) 
-0.84662147941964727

>  <r_i_glide_ligand_efficiency_ln>  (1) 
-1.819543887110902

>  <r_i_glide_ligand_efficiency_sa>  (1) 
-1.5384133245874527

>  <r_i_glide_lipo>  (1) 
-1.7749102111374813

>  <r_i_glide_metal>  (1) 
-0

>  <r_i_glide_rewards>  (1) 
-2.5730403022909059

>  <r_lp_Energy>  (1) 
6.4120089999999994

>  <r_lp_tautomer_probability>  (1) 
1

>  <s_epik_cmdline>  (1) 
J2VwaWtfcHl0aG9uJywgJy1waHQnLCAnMS4wJywgJy1waCcsICc3LjQnLCAnLXRuJywgJzgnLCAnLW1hJywgJzUwMCcsICctaW1hZScsICc8aW5maWxlLm1hZT4nLCAnLW9tYWUnLCAnPG91dGZpbGUubWFlPic=

>  <s_epik_input>  (1) 
W0NIM11bQ0hdMVtDSDJdW0NIMl1bQ0gyXVtDSDJdMQ==

>  <s_glide_docking_method>  (1) 
confgen

>  <s_i_glide_gridfile>  (1) 
gpcr_5ht2c_6bqh_protein_autoprepared_prepared

>  <s_lp_Force_Field>  (1) 
S-OPLS

>  <s_lp_Variant>  (1) 
Pocket2Mol_16-1

>  <s_m_source_file>  (1) 
generated_GPCR_5HT2C_ligand_Pocket2Mol_2026-06-23_prepared.sdf

>  <GenAI_Model>  (1) 
Pocket2Mol

>  <Protein>  (1) 
GPCR_5HT2C

$$$$
Pocket2Mol_24
     RDKit          3D

  0  0  0  0  0  0  0  0  0  0999 V3000
M  V30 BEGIN CTAB
M  V30 COUNTS 11 11 0 0 1
M  V30 BEGIN ATOM
M  V30 1 C 40.045145 29.338934 50.259839 0
M  V30 2 C 40.128897 30.273814 51.339120 0
M  V30 3 C 39.645133 29.735989 52.494915 0
M  V30 4 C 39.548369 30.360656 53.845419 0
M  V30 5 N 39.538845 28.159814 50.567692 0
M  V30 6 S 39.104533 28.123867 52.188654 0
M  V30 7 H 40.360038 29.516041 49.242282 0
M  V30 8 H 40.528072 31.272049 51.226728 0
M  V30 9 H 40.029814 31.338381 53.860598 0
M  V30 10 H 38.506649 30.497709 54.136219 0
M  V30 11 H 40.030374 29.735687 54.597156 0
M  V30 END ATOM
M  V30 BEGIN BOND
M  V30 1 1 2 1
M  V30 2 2 3 2
M  V30 3 1 4 3
M  V30 4 2 5 1
M  V30 5 1 6 3
M  V30 6 1 6 5
M  V30 7 1 7 1
M  V30 8 1 8 2
M  V30 9 1 9 4
M  V30 10 1 10 4
M  V30 11 1 11 4
M  V30 END BOND
M  V30 END CTAB
M  END
>  <i_epik_Tot_Q>  (1) 
0

>  <i_epik_Tot_abs_Q>  (1) 
0

>  <i_i_glide_confnum>  (1) 
1

>  <i_i_glide_lignum>  (1) 
27

>  <i_i_glide_posenum>  (1) 
269

>  <i_i_glide_rotatable_bonds>  (1) 
0

>  <i_lp_mmshare_version>  (1) 
72125

>  <i_m_source_file_index>  (1) 
25

>  <i_f3d_flags>  (1) 
0

>  <num_sample>  (1) 
100

>  <b_lp_Chiralities_Consistent>  (1) 
1

>  <r_epik_Charging_Adjusted_Penalty>  (1) 
0

>  <r_epik_Ionization_Penalty>  (1) 
2.7081824038816109e-08

>  <r_epik_Ionization_Penalty_Charging>  (1) 
0

>  <r_epik_Ionization_Penalty_Neutral>  (1) 
2.7081824038816109e-08

>  <r_epik_State_Penalty>  (1) 
-0

>  <r_glide_ring_energy>  (1) 
0

>  <r_i_docking_score>  (1) 
-5.0779980479200768

>  <r_i_glide_ecoul>  (1) 
-0.20198545234327325

>  <r_i_glide_eff_state_penalty>  (1) 
-0

>  <r_i_glide_einternal>  (1) 
0

>  <r_i_glide_emodel>  (1) 
-23.208897867064508

>  <r_i_glide_emodel_strain>  (1) 
0

>  <r_i_glide_energy>  (1) 
-17.53729068463598

>  <r_i_glide_erotb>  (1) 
0

>  <r_i_glide_esite>  (1) 
0

>  <r_i_glide_evdw>  (1) 
-17.335305232292708

>  <r_i_glide_gscore>  (1) 
-5.0779980479200768

>  <r_i_glide_gscore_strain>  (1) 
0

>  <r_i_glide_hbond>  (1) 
0

>  <r_i_glide_ligand_efficiency>  (1) 
-0.84633300798667943

>  <r_i_glide_ligand_efficiency_ln>  (1) 
-1.8189239094169478

>  <r_i_glide_ligand_efficiency_sa>  (1) 
-1.5378891372061632

>  <r_i_glide_lipo>  (1) 
-1.5948036681241491

>  <r_i_glide_metal>  (1) 
-0

>  <r_i_glide_rewards>  (1) 
-2.586131300329801

>  <r_lp_Energy>  (1) 
1.924183

>  <r_lp_tautomer_probability>  (1) 
1

>  <s_epik_cmdline>  (1) 
J2VwaWtfcHl0aG9uJywgJy1waHQnLCAnMS4wJywgJy1waCcsICc3LjQnLCAnLXRuJywgJzgnLCAnLW1hJywgJzUwMCcsICctaW1hZScsICc8aW5maWxlLm1hZT4nLCAnLW9tYWUnLCAnPG91dGZpbGUubWFlPic=

>  <s_epik_input>  (1) 
czFuW2NIXVtjSF1jMVtDSDNd

>  <s_glide_docking_method>  (1) 
confgen

>  <s_i_glide_gridfile>  (1) 
gpcr_5ht2c_6bqh_protein_autoprepared_prepared

>  <s_lp_Force_Field>  (1) 
S-OPLS

>  <s_lp_Variant>  (1) 
Pocket2Mol_24-1

>  <s_m_source_file>  (1) 
generated_GPCR_5HT2C_ligand_Pocket2Mol_2026-06-23_prepared.sdf

>  <GenAI_Model>  (1) 
Pocket2Mol

>  <Protein>  (1) 
GPCR_5HT2C

$$$$
Pocket2Mol_39
     RDKit          3D

  0  0  0  0  0  0  0  0  0  0999 V3000
M  V30 BEGIN CTAB
M  V30 COUNTS 15 15 0 0 1
M  V30 BEGIN ATOM
M  V30 1 C 40.170308 29.044065 51.326092 0
M  V30 2 C 39.229249 27.832613 51.285925 0
M  V30 3 O 39.645237 30.137850 52.062261 0
M  V30 4 C 39.244288 29.860546 53.367560 0
M  V30 5 O 39.245176 27.233326 52.568594 0
M  V30 6 O 38.073594 29.105939 53.391594 0
M  V30 7 C 38.282413 27.725992 53.447438 0
M  V30 8 H 41.140820 28.757458 51.729259 0
M  V30 9 H 40.351198 29.393929 50.309524 0
M  V30 10 H 39.612800 27.103028 50.572181 0
M  V30 11 H 38.221182 28.098018 50.963349 0
M  V30 12 H 38.995993 30.823927 53.814040 0
M  V30 13 H 40.045128 29.427969 53.968175 0
M  V30 14 H 38.570777 27.444867 54.461045 0
M  V30 15 H 37.330623 27.241200 53.224477 0
M  V30 END ATOM
M  V30 BEGIN BOND
M  V30 1 1 2 1
M  V30 2 1 3 1
M  V30 3 1 4 3
M  V30 4 1 5 2
M  V30 5 1 6 4
M  V30 6 1 7 5
M  V30 7 1 7 6
M  V30 8 1 8 1
M  V30 9 1 9 1
M  V30 10 1 10 2
M  V30 11 1 11 2
M  V30 12 1 12 4
M  V30 13 1 13 4
M  V30 14 1 14 7
M  V30 15 1 15 7
M  V30 END BOND
M  V30 END CTAB
M  END
>  <i_epik_Tot_Q>  (1) 
0

>  <i_epik_Tot_abs_Q>  (1) 
0

>  <i_i_glide_confnum>  (1) 
6

>  <i_i_glide_lignum>  (1) 
42

>  <i_i_glide_posenum>  (1) 
389

>  <i_i_glide_rotatable_bonds>  (1) 
0

>  <i_lp_mmshare_version>  (1) 
72125

>  <i_m_source_file_index>  (1) 
40

>  <i_f3d_flags>  (1) 
0

>  <num_sample>  (1) 
100

>  <b_lp_Chiralities_Consistent>  (1) 
1

>  <r_epik_Charging_Adjusted_Penalty>  (1) 
0

>  <r_epik_Ionization_Penalty>  (1) 
4.6834743432320728e-14

>  <r_epik_Ionization_Penalty_Charging>  (1) 
0

>  <r_epik_Ionization_Penalty_Neutral>  (1) 
4.6834743432320728e-14

>  <r_epik_State_Penalty>  (1) 
-0

>  <r_glide_ring_energy>  (1) 
0.00047957236178236941

>  <r_i_docking_score>  (1) 
-5.0777627443014746

>  <r_i_glide_ecoul>  (1) 
-0.85231104824091031

>  <r_i_glide_eff_state_penalty>  (1) 
-0

>  <r_i_glide_einternal>  (1) 
0

>  <r_i_glide_emodel>  (1) 
-22.304692485501235

>  <r_i_glide_emodel_strain>  (1) 
0

>  <r_i_glide_energy>  (1) 
-16.624740122327704

>  <r_i_glide_erotb>  (1) 
0

>  <r_i_glide_esite>  (1) 
0

>  <r_i_glide_evdw>  (1) 
-15.772429074086793

>  <r_i_glide_gscore>  (1) 
-5.0777627443014746

>  <r_i_glide_gscore_strain>  (1) 
0

>  <r_i_glide_hbond>  (1) 
0

>  <r_i_glide_ligand_efficiency>  (1) 
-0.72539467775735356

>  <r_i_glide_ligand_efficiency_ln>  (1) 
-1.7236651789701725

>  <r_i_glide_ligand_efficiency_sa>  (1) 
-1.3876300988991703

>  <r_i_glide_lipo>  (1) 
-0.66000000000000003

>  <r_i_glide_metal>  (1) 
-0

>  <r_i_glide_rewards>  (1) 
-3.501294633360998

>  <r_lp_Energy>  (1) 
1.238378

>  <r_lp_tautomer_probability>  (1) 
1

>  <s_epik_Chemistry_Notes>  (1) 
This compound contains an acetal/aminal-like group ( X-CH(R)-Y where X, Y are N, S, or O) that may be acid/base labile, releasing an aldehyde.

>  <s_epik_cmdline>  (1) 
J2VwaWtfcHl0aG9uJywgJy1waHQnLCAnMS4wJywgJy1waCcsICc3LjQnLCAnLXRuJywgJzgnLCAnLW1hJywgJzUwMCcsICctaW1hZScsICc8aW5maWxlLm1hZT4nLCAnLW9tYWUnLCAnPG91dGZpbGUubWFlPic=

>  <s_epik_input>  (1) 
W0NIMl0xW0NIMl1PW0NIMl1PW0NIMl1PMQ==

>  <s_glide_docking_method>  (1) 
confgen

>  <s_i_glide_gridfile>  (1) 
gpcr_5ht2c_6bqh_protein_autoprepared_prepared

>  <s_lp_Force_Field>  (1) 
S-OPLS

>  <s_lp_Variant>  (1) 
Pocket2Mol_39-1

>  <s_m_source_file>  (1) 
generated_GPCR_5HT2C_ligand_Pocket2Mol_2026-06-23_prepared.sdf

>  <GenAI_Model>  (1) 
Pocket2Mol

>  <Protein>  (1) 
GPCR_5HT2C

$$$$
Pocket2Mol_45
     RDKit          3D

  0  0  0  0  0  0  0  0  0  0999 V3000
M  V30 BEGIN CTAB
M  V30 COUNTS 15 15 0 0 1
M  V30 BEGIN ATOM
M  V30 1 C 40.045137 30.268150 51.750433 0
M  V30 2 O 39.528372 29.954141 53.042716 0
M  V30 3 C 38.636087 28.942867 53.280838 0
M  V30 4 O 37.801632 28.949335 54.182101 0
M  V30 5 C 38.777699 27.744802 52.325473 0
M  V30 6 C 40.445125 29.034582 50.964554 0
M  V30 7 C 39.257131 28.084809 50.912580 0
M  V30 8 H 39.282122 30.803245 51.187828 0
M  V30 9 H 40.879440 30.958026 51.846471 0
M  V30 10 H 39.472855 27.043797 52.788529 0
M  V30 11 H 37.816417 27.233482 52.267978 0
M  V30 12 H 40.742592 29.337676 49.959030 0
M  V30 13 H 41.301947 28.546279 51.425210 0
M  V30 14 H 39.531927 27.168100 50.389647 0
M  V30 15 H 38.446694 28.538348 50.342659 0
M  V30 END ATOM
M  V30 BEGIN BOND
M  V30 1 1 2 1
M  V30 2 1 3 2
M  V30 3 2 4 3
M  V30 4 1 5 3
M  V30 5 1 6 1
M  V30 6 1 7 5
M  V30 7 1 7 6
M  V30 8 1 8 1
M  V30 9 1 9 1
M  V30 10 1 10 5
M  V30 11 1 11 5
M  V30 12 1 12 6
M  V30 13 1 13 6
M  V30 14 1 14 7
M  V30 15 1 15 7
M  V30 END BOND
M  V30 END CTAB
M  END
>  <i_epik_Tot_Q>  (1) 
0

>  <i_epik_Tot_abs_Q>  (1) 
0

>  <i_i_glide_confnum>  (1) 
1

>  <i_i_glide_lignum>  (1) 
48

>  <i_i_glide_posenum>  (1) 
362

>  <i_i_glide_rotatable_bonds>  (1) 
0

>  <i_lp_mmshare_version>  (1) 
72125

>  <i_m_source_file_index>  (1) 
46

>  <i_f3d_flags>  (1) 
0

>  <num_sample>  (1) 
100

>  <b_lp_Chiralities_Consistent>  (1) 
1

>  <r_epik_Charging_Adjusted_Penalty>  (1) 
0

>  <r_epik_Ionization_Penalty>  (1) 
4.2138389519661579e-10

>  <r_epik_Ionization_Penalty_Charging>  (1) 
0

>  <r_epik_Ionization_Penalty_Neutral>  (1) 
4.2138389519661579e-10

>  <r_epik_State_Penalty>  (1) 
-0

>  <r_glide_ring_energy>  (1) 
0

>  <r_i_docking_score>  (1) 
-5.071432763300435

>  <r_i_glide_ecoul>  (1) 
-0.48447697369960502

>  <r_i_glide_eff_state_penalty>  (1) 
-0

>  <r_i_glide_einternal>  (1) 
0

>  <r_i_glide_emodel>  (1) 
-22.256553950050378

>  <r_i_glide_emodel_strain>  (1) 
0

>  <r_i_glide_energy>  (1) 
-16.54443806360381

>  <r_i_glide_erotb>  (1) 
0

>  <r_i_glide_esite>  (1) 
0

>  <r_i_glide_evdw>  (1) 
-16.059961089904206

>  <r_i_glide_gscore>  (1) 
-5.071432763300435

>  <r_i_glide_gscore_strain>  (1) 
0

>  <r_i_glide_hbond>  (1) 
0

>  <r_i_glide_ligand_efficiency>  (1) 
-0.724490394757205

>  <r_i_glide_ligand_efficiency_ln>  (1) 
-1.7215164437132369

>  <r_i_glide_ligand_efficiency_sa>  (1) 
-1.3859002677501353

>  <r_i_glide_lipo>  (1) 
-1.2466358530478947

>  <r_i_glide_metal>  (1) 
-0

>  <r_i_glide_rewards>  (1) 
-2.9491273097023898

>  <r_lp_Energy>  (1) 
8.5246700000000004

>  <r_lp_tautomer_probability>  (1) 
1

>  <s_epik_Chemistry_Notes>  (1) 
This compound has an ester and may undergo hydrolysis at high or low pH.

>  <s_epik_cmdline>  (1) 
J2VwaWtfcHl0aG9uJywgJy1waHQnLCAnMS4wJywgJy1waCcsICc3LjQnLCAnLXRuJywgJzgnLCAnLW1hJywgJzUwMCcsICctaW1hZScsICc8aW5maWxlLm1hZT4nLCAnLW9tYWUnLCAnPG91dGZpbGUubWFlPic=

>  <s_epik_input>  (1) 
W0NIMl0xW0NIMl1bQ0gyXVtDSDJdT0MxPU8=

>  <s_glide_docking_method>  (1) 
confgen

>  <s_i_glide_gridfile>  (1) 
gpcr_5ht2c_6bqh_protein_autoprepared_prepared

>  <s_lp_Force_Field>  (1) 
S-OPLS

>  <s_lp_Variant>  (1) 
Pocket2Mol_45-1

>  <s_m_source_file>  (1) 
generated_GPCR_5HT2C_ligand_Pocket2Mol_2026-06-23_prepared.sdf

>  <GenAI_Model>  (1) 
Pocket2Mol

>  <Protein>  (1) 
GPCR_5HT2C

$$$$
Pocket2Mol_37
     RDKit          3D

  0  0  0  0  0  0  0  0  0  0999 V3000
M  V30 BEGIN CTAB
M  V30 COUNTS 11 11 0 0 1
M  V30 BEGIN ATOM
M  V30 1 C 39.245135 27.922243 50.994751 0
M  V30 2 O 38.710446 27.897757 52.262186 0
M  V30 3 C 38.845138 28.956718 53.180879 0
M  V30 4 O 38.356989 28.932400 54.307734 0
M  V30 5 C 39.645138 30.119453 52.647192 0
M  V30 6 C 39.937716 28.966528 50.554067 0
M  V30 7 C 40.143083 30.090083 51.399149 0
M  V30 8 H 39.035673 27.024466 50.430815 0
M  V30 9 H 39.802686 30.974702 53.288055 0
M  V30 10 H 40.343889 28.961867 49.553626 0
M  V30 11 H 40.710302 30.934396 51.033041 0
M  V30 END ATOM
M  V30 BEGIN BOND
M  V30 1 1 2 1
M  V30 2 1 3 2
M  V30 3 2 4 3
M  V30 4 1 5 3
M  V30 5 2 6 1
M  V30 6 2 7 5
M  V30 7 1 7 6
M  V30 8 1 8 1
M  V30 9 1 9 5
M  V30 10 1 10 6
M  V30 11 1 11 7
M  V30 END BOND
M  V30 END CTAB
M  END
>  <i_epik_Tot_Q>  (1) 
0

>  <i_epik_Tot_abs_Q>  (1) 
0

>  <i_i_glide_confnum>  (1) 
1

>  <i_i_glide_lignum>  (1) 
40

>  <i_i_glide_posenum>  (1) 
211

>  <i_i_glide_rotatable_bonds>  (1) 
0

>  <i_lp_mmshare_version>  (1) 
72125

>  <i_m_source_file_index>  (1) 
38

>  <i_f3d_flags>  (1) 
0

>  <num_sample>  (1) 
100

>  <b_lp_Chiralities_Consistent>  (1) 
1

>  <r_epik_Charging_Adjusted_Penalty>  (1) 
0

>  <r_epik_Ionization_Penalty>  (1) 
2.4984917370333966e-09

>  <r_epik_Ionization_Penalty_Charging>  (1) 
0

>  <r_epik_Ionization_Penalty_Neutral>  (1) 
2.4984917370333966e-09

>  <r_epik_State_Penalty>  (1) 
-0

>  <r_glide_ring_energy>  (1) 
0

>  <r_i_docking_score>  (1) 
-5.0701241141476334

>  <r_i_glide_ecoul>  (1) 
-0.33304701293549371

>  <r_i_glide_eff_state_penalty>  (1) 
-0

>  <r_i_glide_einternal>  (1) 
0

>  <r_i_glide_emodel>  (1) 
-22.317149697904277

>  <r_i_glide_emodel_strain>  (1) 
0

>  <r_i_glide_energy>  (1) 
-16.953524884855373

>  <r_i_glide_erotb>  (1) 
0

>  <r_i_glide_esite>  (1) 
0

>  <r_i_glide_evdw>  (1) 
-16.620477871919878

>  <r_i_glide_gscore>  (1) 
-5.0701241141476334

>  <r_i_glide_gscore_strain>  (1) 
0

>  <r_i_glide_hbond>  (1) 
0

>  <r_i_glide_ligand_efficiency>  (1) 
-0.72430344487823339

>  <r_i_glide_ligand_efficiency_ln>  (1) 
-1.7210722179607234

>  <r_i_glide_ligand_efficiency_sa>  (1) 
-1.385542645497035

>  <r_i_glide_lipo>  (1) 
-1.5965066484486858

>  <r_i_glide_metal>  (1) 
-0

>  <r_i_glide_rewards>  (1) 
-2.5926365201626305

>  <r_lp_Energy>  (1) 
11.255118999999999

>  <r_lp_tautomer_probability>  (1) 
1

>  <s_epik_cmdline>  (1) 
J2VwaWtfcHl0aG9uJywgJy1waHQnLCAnMS4wJywgJy1waCcsICc3LjQnLCAnLXRuJywgJzgnLCAnLW1hJywgJzUwMCcsICctaW1hZScsICc8aW5maWxlLm1hZT4nLCAnLW9tYWUnLCAnPG91dGZpbGUubWFlPic=

>  <s_epik_input>  (1) 
W2NIXTFbY0hdW2NIXVtjSF1vYzE9Tw==

>  <s_glide_docking_method>  (1) 
confgen

>  <s_i_glide_gridfile>  (1) 
gpcr_5ht2c_6bqh_protein_autoprepared_prepared

>  <s_lp_Force_Field>  (1) 
S-OPLS

>  <s_lp_Variant>  (1) 
Pocket2Mol_37-1

>  <s_m_source_file>  (1) 
generated_GPCR_5HT2C_ligand_Pocket2Mol_2026-06-23_prepared.sdf

>  <GenAI_Model>  (1) 
Pocket2Mol

>  <Protein>  (1) 
GPCR_5HT2C

$$$$
Pocket2Mol_39
     RDKit          3D

  0  0  0  0  0  0  0  0  0  0999 V3000
M  V30 BEGIN CTAB
M  V30 COUNTS 15 15 0 0 1
M  V30 BEGIN ATOM
M  V30 1 C 38.529482 27.842879 52.736864 0
M  V30 2 C 39.245135 27.714804 51.389479 0
M  V30 3 O 38.176637 29.193780 53.001279 0
M  V30 4 C 39.244881 29.969757 53.456153 0
M  V30 5 O 40.399352 28.537781 51.334338 0
M  V30 6 O 40.045152 30.551281 52.467690 0
M  V30 7 C 40.093607 29.891436 51.240614 0
M  V30 8 H 37.611318 27.256046 52.702568 0
M  V30 9 H 39.130924 27.420670 53.543794 0
M  V30 10 H 38.565417 27.940430 50.567809 0
M  V30 11 H 39.559674 26.680131 51.249868 0
M  V30 12 H 39.869477 29.414417 54.156133 0
M  V30 13 H 38.818082 30.799170 54.021799 0
M  V30 14 H 39.184713 30.073970 50.665798 0
M  V30 15 H 40.906216 30.357295 50.683568 0
M  V30 END ATOM
M  V30 BEGIN BOND
M  V30 1 1 2 1
M  V30 2 1 3 1
M  V30 3 1 4 3
M  V30 4 1 5 2
M  V30 5 1 6 4
M  V30 6 1 7 5
M  V30 7 1 7 6
M  V30 8 1 8 1
M  V30 9 1 9 1
M  V30 10 1 10 2
M  V30 11 1 11 2
M  V30 12 1 12 4
M  V30 13 1 13 4
M  V30 14 1 14 7
M  V30 15 1 15 7
M  V30 END BOND
M  V30 END CTAB
M  END
>  <i_epik_Tot_Q>  (1) 
0

>  <i_epik_Tot_abs_Q>  (1) 
0

>  <i_i_glide_confnum>  (1) 
8

>  <i_i_glide_lignum>  (1) 
42

>  <i_i_glide_posenum>  (1) 
367

>  <i_i_glide_rotatable_bonds>  (1) 
0

>  <i_lp_mmshare_version>  (1) 
72125

>  <i_m_source_file_index>  (1) 
40

>  <i_f3d_flags>  (1) 
0

>  <num_sample>  (1) 
100

>  <b_lp_Chiralities_Consistent>  (1) 
1

>  <r_epik_Charging_Adjusted_Penalty>  (1) 
0

>  <r_epik_Ionization_Penalty>  (1) 
4.6834743432320728e-14

>  <r_epik_Ionization_Penalty_Charging>  (1) 
0

>  <r_epik_Ionization_Penalty_Neutral>  (1) 
4.6834743432320728e-14

>  <r_epik_State_Penalty>  (1) 
-0

>  <r_glide_ring_energy>  (1) 
0.00055159938950669681

>  <r_i_docking_score>  (1) 
-5.0686138544473973

>  <r_i_glide_ecoul>  (1) 
-1.2825201625764553

>  <r_i_glide_eff_state_penalty>  (1) 
-0

>  <r_i_glide_einternal>  (1) 
0

>  <r_i_glide_emodel>  (1) 
-23.473034553455932

>  <r_i_glide_emodel_strain>  (1) 
0

>  <r_i_glide_energy>  (1) 
-17.803316078938465

>  <r_i_glide_erotb>  (1) 
0

>  <r_i_glide_esite>  (1) 
0

>  <r_i_glide_evdw>  (1) 
-16.520795916362008

>  <r_i_glide_gscore>  (1) 
-5.0686138544473973

>  <r_i_glide_gscore_strain>  (1) 
0

>  <r_i_glide_hbond>  (1) 
0

>  <r_i_glide_ligand_efficiency>  (1) 
-0.72408769349248536

>  <r_i_glide_ligand_efficiency_ln>  (1) 
-1.7205595547687653

>  <r_i_glide_ligand_efficiency_sa>  (1) 
-1.3851299279435112

>  <r_i_glide_lipo>  (1) 
-0.66000000000000003

>  <r_i_glide_metal>  (1) 
-0

>  <r_i_glide_rewards>  (1) 
-3.3901960342428286

>  <r_lp_Energy>  (1) 
1.238378

>  <r_lp_tautomer_probability>  (1) 
1

>  <s_epik_Chemistry_Notes>  (1) 
This compound contains an acetal/aminal-like group ( X-CH(R)-Y where X, Y are N, S, or O) that may be acid/base labile, releasing an aldehyde.

>  <s_epik_cmdline>  (1) 
J2VwaWtfcHl0aG9uJywgJy1waHQnLCAnMS4wJywgJy1waCcsICc3LjQnLCAnLXRuJywgJzgnLCAnLW1hJywgJzUwMCcsICctaW1hZScsICc8aW5maWxlLm1hZT4nLCAnLW9tYWUnLCAnPG91dGZpbGUubWFlPic=

>  <s_epik_input>  (1) 
W0NIMl0xW0NIMl1PW0NIMl1PW0NIMl1PMQ==

>  <s_glide_docking_method>  (1) 
confgen

>  <s_i_glide_gridfile>  (1) 
gpcr_5ht2c_6bqh_protein_autoprepared_prepared

>  <s_lp_Force_Field>  (1) 
S-OPLS

>  <s_lp_Variant>  (1) 
Pocket2Mol_39-1

>  <s_m_source_file>  (1) 
generated_GPCR_5HT2C_ligand_Pocket2Mol_2026-06-23_prepared.sdf

>  <GenAI_Model>  (1) 
Pocket2Mol

>  <Protein>  (1) 
GPCR_5HT2C

$$$$
Pocket2Mol_40
     RDKit          3D

  0  0  0  0  0  0  0  0  0  0999 V3000
M  V30 BEGIN CTAB
M  V30 COUNTS 12 12 0 0 1
M  V30 BEGIN ATOM
M  V30 1 C 39.645138 28.594655 50.928596 0
M  V30 2 C 39.904641 29.687732 51.767683 0
M  V30 3 C 39.245138 29.494574 52.841081 0
M  V30 4 C 39.181382 30.384200 54.068158 0
M  V30 5 N 38.845137 27.687804 51.408133 0
M  V30 6 C 38.531495 28.247904 52.710273 0
M  V30 7 O 37.788600 27.753200 53.556642 0
M  V30 8 H 40.114027 28.561189 49.942181 0
M  V30 9 H 40.552267 30.507366 51.492621 0
M  V30 10 H 38.524848 29.972361 54.835527 0
M  V30 11 H 40.176092 30.503683 54.498674 0
M  V30 12 H 38.806305 31.371748 53.796764 0
M  V30 END ATOM
M  V30 BEGIN BOND
M  V30 1 1 2 1
M  V30 2 2 3 2
M  V30 3 1 4 3
M  V30 4 2 5 1
M  V30 5 1 6 3
M  V30 6 1 6 5
M  V30 7 2 7 6
M  V30 8 1 8 1
M  V30 9 1 9 2
M  V30 10 1 10 4
M  V30 11 1 11 4
M  V30 12 1 12 4
M  V30 END BOND
M  V30 END CTAB
M  END
>  <i_epik_Tot_Q>  (1) 
0

>  <i_epik_Tot_abs_Q>  (1) 
0

>  <i_i_glide_confnum>  (1) 
1

>  <i_i_glide_lignum>  (1) 
43

>  <i_i_glide_posenum>  (1) 
58

>  <i_i_glide_rotatable_bonds>  (1) 
0

>  <i_lp_mmshare_version>  (1) 
72125

>  <i_m_source_file_index>  (1) 
41

>  <i_f3d_flags>  (1) 
0

>  <num_sample>  (1) 
100

>  <b_lp_Chiralities_Consistent>  (1) 
1

>  <r_epik_Charging_Adjusted_Penalty>  (1) 
0

>  <r_epik_Ionization_Penalty>  (1) 
0

>  <r_epik_Ionization_Penalty_Charging>  (1) 
0

>  <r_epik_Ionization_Penalty_Neutral>  (1) 
0

>  <r_epik_State_Penalty>  (1) 
-0

>  <r_glide_ring_energy>  (1) 
0

>  <r_i_docking_score>  (1) 
-5.0573032980688728

>  <r_i_glide_ecoul>  (1) 
0.45446198646910252

>  <r_i_glide_eff_state_penalty>  (1) 
-0

>  <r_i_glide_einternal>  (1) 
0

>  <r_i_glide_emodel>  (1) 
-23.564409966173258

>  <r_i_glide_emodel_strain>  (1) 
0.95286593161423383

>  <r_i_glide_energy>  (1) 
-18.589484451329842

>  <r_i_glide_erotb>  (1) 
0

>  <r_i_glide_esite>  (1) 
0

>  <r_i_glide_evdw>  (1) 
-19.043946437798944

>  <r_i_glide_gscore>  (1) 
-5.0573032980688728

>  <r_i_glide_gscore_strain>  (1) 
0

>  <r_i_glide_hbond>  (1) 
0

>  <r_i_glide_ligand_efficiency>  (1) 
-0.72247189972412473

>  <r_i_glide_ligand_efficiency_ln>  (1) 
-1.7167201449408209

>  <r_i_glide_ligand_efficiency_sa>  (1) 
-1.3820390256590849

>  <r_i_glide_lipo>  (1) 
-0.83370989374280247

>  <r_i_glide_metal>  (1) 
-0

>  <r_i_glide_rewards>  (1) 
-3.3395653804064884

>  <r_lp_Energy>  (1) 
0.58044799999999996

>  <r_lp_tautomer_probability>  (1) 
1

>  <s_epik_Chemistry_Notes>  (1) 
This compound has an imine and may undergo hydrolysis.

>  <s_epik_cmdline>  (1) 
J2VwaWtfcHl0aG9uJywgJy1waHQnLCAnMS4wJywgJy1waCcsICc3LjQnLCAnLXRuJywgJzgnLCAnLW1hJywgJzUwMCcsICctaW1hZScsICc8aW5maWxlLm1hZT4nLCAnLW9tYWUnLCAnPG91dGZpbGUubWFlPic=

>  <s_epik_input>  (1) 
Tz1DMU49W0NIXVtDSF09QzFbQ0gzXQ==

>  <s_glide_docking_method>  (1) 
confgen

>  <s_i_glide_gridfile>  (1) 
gpcr_5ht2c_6bqh_protein_autoprepared_prepared

>  <s_lp_Force_Field>  (1) 
S-OPLS

>  <s_lp_Variant>  (1) 
Pocket2Mol_40-1

>  <s_m_source_file>  (1) 
generated_GPCR_5HT2C_ligand_Pocket2Mol_2026-06-23_prepared.sdf

>  <GenAI_Model>  (1) 
Pocket2Mol

>  <Protein>  (1) 
GPCR_5HT2C

$$$$
Pocket2Mol_0
     RDKit          3D

  0  0  0  0  0  0  0  0  0  0999 V3000
M  V30 BEGIN CTAB
M  V30 COUNTS 19 19 0 0 1
M  V30 BEGIN ATOM
M  V30 1 C 38.321548 29.379801 54.931998 0
M  V30 2 C 38.805008 29.205586 53.512479 0
M  V30 3 C 38.429693 28.031470 52.817581 0
M  V30 4 C 39.642136 30.151208 52.850898 0
M  V30 5 C 40.049487 29.929303 51.520492 0
M  V30 6 C 39.646875 28.768973 50.841190 0
M  V30 7 C 38.845137 27.818882 51.489814 0
M  V30 8 C 38.203186 30.533312 55.660459 0
M  V30 9 C 38.452050 31.902272 55.158526 0
M  V30 10 N 38.485422 32.905624 55.922092 0
M  V30 11 H 38.041568 28.461290 55.426983 0
M  V30 12 H 37.807516 27.294974 53.305476 0
M  V30 13 H 39.996659 31.024288 53.355581 0
M  V30 14 H 40.682359 30.651197 51.024265 0
M  V30 15 H 39.962088 28.603429 49.821525 0
M  V30 16 H 38.542314 26.923419 50.967689 0
M  V30 17 H 37.881545 30.485199 56.691265 0
M  V30 18 H 38.579989 32.006811 54.089849 0
M  V30 19 H 38.626351 33.775816 55.430881 0
M  V30 END ATOM
M  V30 BEGIN BOND
M  V30 1 1 2 1
M  V30 2 1 3 2
M  V30 3 2 4 2
M  V30 4 1 5 4
M  V30 5 2 6 5
M  V30 6 2 7 3
M  V30 7 1 7 6
M  V30 8 2 8 1
M  V30 9 1 9 8
M  V30 10 2 10 9
M  V30 11 1 11 1
M  V30 12 1 12 3
M  V30 13 1 13 4
M  V30 14 1 14 5
M  V30 15 1 15 6
M  V30 16 1 16 7
M  V30 17 1 17 8
M  V30 18 1 18 9
M  V30 19 1 19 10
M  V30 END BOND
M  V30 END CTAB
M  END
>  <i_epik_Tot_Q>  (1) 
0

>  <i_epik_Tot_abs_Q>  (1) 
0

>  <i_i_glide_confnum>  (1) 
1

>  <i_i_glide_lignum>  (1) 
2

>  <i_i_glide_posenum>  (1) 
319

>  <i_i_glide_rotatable_bonds>  (1) 
2

>  <i_lp_mmshare_version>  (1) 
72125

>  <i_m_source_file_index>  (1) 
1

>  <i_f3d_flags>  (1) 
0

>  <num_sample>  (1) 
100

>  <b_lp_Chiralities_Consistent>  (1) 
1

>  <r_epik_Charging_Adjusted_Penalty>  (1) 
0

>  <r_epik_Ionization_Penalty>  (1) 
0

>  <r_epik_Ionization_Penalty_Charging>  (1) 
0

>  <r_epik_Ionization_Penalty_Neutral>  (1) 
0

>  <r_epik_State_Penalty>  (1) 
-0

>  <r_glide_ring_energy>  (1) 
0

>  <r_i_docking_score>  (1) 
-5.0516258107247092

>  <r_i_glide_ecoul>  (1) 
-0.36794144742217627

>  <r_i_glide_eff_state_penalty>  (1) 
-0

>  <r_i_glide_einternal>  (1) 
0.29091915250136413

>  <r_i_glide_emodel>  (1) 
-30.174228740049987

>  <r_i_glide_emodel_strain>  (1) 
0

>  <r_i_glide_energy>  (1) 
-23.022158512991755

>  <r_i_glide_erotb>  (1) 
0.80789427267668723

>  <r_i_glide_esite>  (1) 
-0.0080342745658896469

>  <r_i_glide_evdw>  (1) 
-22.654217065569579

>  <r_i_glide_gscore>  (1) 
-5.0516258107247092

>  <r_i_glide_gscore_strain>  (1) 
0

>  <r_i_glide_hbond>  (1) 
0

>  <r_i_glide_ligand_efficiency>  (1) 
-0.50516258107247092

>  <r_i_glide_ligand_efficiency_ln>  (1) 
-1.5295974724287948

>  <r_i_glide_ligand_efficiency_sa>  (1) 
-1.0883397887685753

>  <r_i_glide_lipo>  (1) 
-2.0144483583958124

>  <r_i_glide_metal>  (1) 
-0

>  <r_i_glide_rewards>  (1) 
-2.6491353800478894

>  <r_lp_Energy>  (1) 
13.405619999999999

>  <r_lp_tautomer_probability>  (1) 
1

>  <s_epik_Chemistry_Notes>  (1) 
This compound has an imine and may undergo hydrolysis.

>  <s_epik_cmdline>  (1) 
J2VwaWtfcHl0aG9uJywgJy1waHQnLCAnMS4wJywgJy1waCcsICc3LjQnLCAnLXRuJywgJzgnLCAnLW1hJywgJzUwMCcsICctaW1hZScsICc8aW5maWxlLm1hZT4nLCAnLW9tYWUnLCAnPG91dGZpbGUubWFlPic=

>  <s_epik_input>  (1) 
W0hdL049W0NIXS9bQ0hdPVtDSF1cYzFbY0hdW2NIXVtjSF1bY0hdW2NIXTE=

>  <s_glide_docking_method>  (1) 
confgen

>  <s_i_glide_gridfile>  (1) 
gpcr_5ht2c_6bqh_protein_autoprepared_prepared

>  <s_lp_Force_Field>  (1) 
S-OPLS

>  <s_lp_Variant>  (1) 
Pocket2Mol_0-2

>  <s_m_source_file>  (1) 
generated_GPCR_5HT2C_ligand_Pocket2Mol_2026-06-23_prepared.sdf

>  <GenAI_Model>  (1) 
Pocket2Mol

>  <Protein>  (1) 
GPCR_5HT2C

$$$$
Pocket2Mol_20
     RDKit          3D

  0  0  0  0  0  0  0  0  0  0999 V3000
M  V30 BEGIN CTAB
M  V30 COUNTS 10 10 0 0 1
M  V30 BEGIN ATOM
M  V30 1 C 39.980069 28.993084 50.967566 0
M  V30 2 C 39.245138 27.765584 50.967758 0
M  V30 3 C 39.645142 29.674267 52.105763 0
M  V30 4 C 38.486004 27.739628 52.105475 0
M  V30 5 N 38.735503 28.903707 52.789823 0
M  V30 6 O 38.160539 29.246887 53.979163 0 CHG=-1
M  V30 7 H 40.674204 29.337763 50.216458 0
M  V30 8 H 39.269712 26.989617 50.216259 0
M  V30 9 H 39.965524 30.631281 52.490809 0
M  V30 10 H 37.793138 27.005444 52.489800 0
M  V30 END ATOM
M  V30 BEGIN BOND
M  V30 1 1 2 1
M  V30 2 2 3 1
M  V30 3 2 4 2
M  V30 4 1 5 3
M  V30 5 1 5 4
M  V30 6 1 6 5
M  V30 7 1 7 1
M  V30 8 1 8 2
M  V30 9 1 9 3
M  V30 10 1 10 4
M  V30 END BOND
M  V30 END CTAB
M  END
>  <i_epik_Tot_Q>  (1) 
-1

>  <i_epik_Tot_abs_Q>  (1) 
1

>  <i_i_glide_confnum>  (1) 
1

>  <i_i_glide_lignum>  (1) 
23

>  <i_i_glide_posenum>  (1) 
260

>  <i_i_glide_rotatable_bonds>  (1) 
0

>  <i_lp_mmshare_version>  (1) 
72125

>  <i_m_source_file_index>  (1) 
21

>  <i_f3d_flags>  (1) 
0

>  <num_sample>  (1) 
100

>  <b_lp_Chiralities_Consistent>  (1) 
1

>  <r_epik_Charging_Adjusted_Penalty>  (1) 
0.038602441834166765

>  <r_epik_Ionization_Penalty>  (1) 
0.019301220976331968

>  <r_epik_Ionization_Penalty_Charging>  (1) 
0.019301220917083386

>  <r_epik_Ionization_Penalty_Neutral>  (1) 
5.9248581604286784e-11

>  <r_epik_State_Penalty>  (1) 
0.019301220917083379

>  <r_glide_ring_energy>  (1) 
0

>  <r_i_docking_score>  (1) 
-5.0499001502556222

>  <r_i_glide_ecoul>  (1) 
-0.78610065970877918

>  <r_i_glide_eff_state_penalty>  (1) 
0.019301220917083379

>  <r_i_glide_einternal>  (1) 
0

>  <r_i_glide_emodel>  (1) 
-19.508851535921018

>  <r_i_glide_emodel_strain>  (1) 
0

>  <r_i_glide_energy>  (1) 
-14.609926844990666

>  <r_i_glide_erotb>  (1) 
0

>  <r_i_glide_esite>  (1) 
0

>  <r_i_glide_evdw>  (1) 
-13.823826185281886

>  <r_i_glide_gscore>  (1) 
-5.0692013711727055

>  <r_i_glide_gscore_strain>  (1) 
0

>  <r_i_glide_hbond>  (1) 
0

>  <r_i_glide_ligand_efficiency>  (1) 
-0.84165002504260367

>  <r_i_glide_ligand_efficiency_ln>  (1) 
-1.8088593254246084

>  <r_i_glide_ligand_efficiency_sa>  (1) 
-1.5293795924626015

>  <r_i_glide_lipo>  (1) 
-1.3200000000000001

>  <r_i_glide_metal>  (1) 
-0

>  <r_i_glide_rewards>  (1) 
-2.9400949629522941

>  <r_lp_Energy>  (1) 
1.8910769999999999

>  <r_lp_tautomer_probability>  (1) 
1

>  <s_epik_cmdline>  (1) 
J2VwaWtfcHl0aG9uJywgJy1waHQnLCAnMS4wJywgJy1waCcsICc3LjQnLCAnLXRuJywgJzgnLCAnLW1hJywgJzUwMCcsICctaW1hZScsICc8aW5maWxlLm1hZT4nLCAnLW9tYWUnLCAnPG91dGZpbGUubWFlPic=

>  <s_epik_input>  (1) 
W2NIXTFbY0hdW2NIXVtjSF1uMVtPSF0=

>  <s_glide_docking_method>  (1) 
confgen

>  <s_i_glide_gridfile>  (1) 
gpcr_5ht2c_6bqh_protein_autoprepared_prepared

>  <s_lp_Force_Field>  (1) 
S-OPLS

>  <s_lp_Variant>  (1) 
Pocket2Mol_20-1

>  <s_m_source_file>  (1) 
generated_GPCR_5HT2C_ligand_Pocket2Mol_2026-06-23_prepared.sdf

>  <GenAI_Model>  (1) 
Pocket2Mol

>  <Protein>  (1) 
GPCR_5HT2C

$$$$
Pocket2Mol_65
     RDKit          3D

  0  0  0  0  0  0  0  0  0  0999 V3000
M  V30 BEGIN CTAB
M  V30 COUNTS 20 20 0 0 1
M  V30 BEGIN ATOM
M  V30 1 C 39.567620 30.549432 53.991046 0
M  V30 2 C 38.901718 31.018648 55.286913 0
M  V30 3 C 38.787186 29.302223 53.584470 0
M  V30 4 C 37.646368 29.235037 54.594547 0
M  V30 5 N 38.221585 29.832555 55.788196 0
M  V30 6 N 37.245144 30.137239 56.785764 0 CHG=1
M  V30 7 C 37.259908 29.486659 57.955926 0
M  V30 8 N 36.370390 29.760527 58.917185 0
M  V30 9 H 39.528283 31.326957 53.226857 0
M  V30 10 H 40.616054 30.308106 54.164840 0
M  V30 11 H 38.170507 31.798604 55.065208 0
M  V30 12 H 39.619310 31.416359 56.005712 0
M  V30 13 H 38.424072 29.341985 52.557290 0
M  V30 14 H 39.415078 28.416132 53.676873 0
M  V30 15 H 37.297401 28.216352 54.765842 0
M  V30 16 H 36.805223 29.838505 54.250814 0
M  V30 17 H 38.012765 28.722747 58.129835 0
M  V30 18 H 35.669418 30.478605 58.759047 0
M  V30 19 H 36.397824 29.262471 59.793873 0
M  V30 20 H 36.577435 30.887811 56.566279 0
M  V30 END ATOM
M  V30 BEGIN BOND
M  V30 1 1 2 1
M  V30 2 1 3 1
M  V30 3 1 4 3
M  V30 4 1 5 2
M  V30 5 1 5 4
M  V30 6 1 6 5
M  V30 7 2 7 6
M  V30 8 1 8 7
M  V30 9 1 9 1
M  V30 10 1 10 1
M  V30 11 1 11 2
M  V30 12 1 12 2
M  V30 13 1 13 3
M  V30 14 1 14 3
M  V30 15 1 15 4
M  V30 16 1 16 4
M  V30 17 1 17 7
M  V30 18 1 18 8
M  V30 19 1 19 8
M  V30 20 1 20 6
M  V30 END BOND
M  V30 END CTAB
M  END
>  <i_epik_Tot_Q>  (1) 
1

>  <i_epik_Tot_abs_Q>  (1) 
1

>  <i_i_glide_confnum>  (1) 
2

>  <i_i_glide_lignum>  (1) 
69

>  <i_i_glide_posenum>  (1) 
328

>  <i_i_glide_rotatable_bonds>  (1) 
1

>  <i_lp_mmshare_version>  (1) 
72125

>  <i_m_source_file_index>  (1) 
66

>  <i_f3d_flags>  (1) 
0

>  <num_sample>  (1) 
100

>  <b_lp_Chiralities_Consistent>  (1) 
1

>  <r_epik_Charging_Adjusted_Penalty>  (1) 
1.6312684749255997e-05

>  <r_epik_Ionization_Penalty>  (1) 
1.6401951855999153e-05

>  <r_epik_Ionization_Penalty_Charging>  (1) 
1.6312684749255997e-05

>  <r_epik_Ionization_Penalty_Neutral>  (1) 
8.9267106743156534e-08

>  <r_epik_State_Penalty>  (1) 
-0

>  <r_glide_ring_energy>  (1) 
0.002520034235707866

>  <r_i_docking_score>  (1) 
-5.048627178951075

>  <r_i_glide_ecoul>  (1) 
-6.058245193914777

>  <r_i_glide_eff_state_penalty>  (1) 
-0

>  <r_i_glide_einternal>  (1) 
0.00044618699997045486

>  <r_i_glide_emodel>  (1) 
-27.955912638253096

>  <r_i_glide_emodel_strain>  (1) 
0.0068125149179216749

>  <r_i_glide_energy>  (1) 
-17.323840344205308

>  <r_i_glide_erotb>  (1) 
0

>  <r_i_glide_esite>  (1) 
-0.27298300813570026

>  <r_i_glide_evdw>  (1) 
-11.265595150290533

>  <r_i_glide_gscore>  (1) 
-5.048627178951075

>  <r_i_glide_gscore_strain>  (1) 
0

>  <r_i_glide_hbond>  (1) 
-0.2431166621865728

>  <r_i_glide_ligand_efficiency>  (1) 
-0.63107839736888438

>  <r_i_glide_ligand_efficiency_ln>  (1) 
-1.6394619318530881

>  <r_i_glide_ligand_efficiency_sa>  (1) 
-1.262156794737769

>  <r_i_glide_lipo>  (1) 
-0.81051097202705902

>  <r_i_glide_metal>  (1) 
-0

>  <r_i_glide_rewards>  (1) 
-2.25

>  <r_lp_Energy>  (1) 
12.792574

>  <r_lp_tautomer_probability>  (1) 
1

>  <s_epik_Chemistry_Notes>  (1) 
This compound has an imine and may undergo hydrolysis.

>  <s_epik_cmdline>  (1) 
J2VwaWtfcHl0aG9uJywgJy1waHQnLCAnMS4wJywgJy1waCcsICc3LjQnLCAnLXRuJywgJzgnLCAnLW1hJywgJzUwMCcsICctaW1hZScsICc8aW5maWxlLm1hZT4nLCAnLW9tYWUnLCAnPG91dGZpbGUubWFlPic=

>  <s_epik_input>  (1) 
W0NIMl0xW0NIMl1bQ0gyXVtDSDJdTjEvTj1bQ0hdL1tOSDJd

>  <s_glide_docking_method>  (1) 
confgen

>  <s_i_glide_gridfile>  (1) 
gpcr_5ht2c_6bqh_protein_autoprepared_prepared

>  <s_lp_Force_Field>  (1) 
S-OPLS

>  <s_lp_Variant>  (1) 
Pocket2Mol_65-1

>  <s_m_source_file>  (1) 
generated_GPCR_5HT2C_ligand_Pocket2Mol_2026-06-23_prepared.sdf

>  <GenAI_Model>  (1) 
Pocket2Mol

>  <Protein>  (1) 
GPCR_5HT2C

$$$$
Pocket2Mol_53
     RDKit          3D

  0  0  0  0  0  0  0  0  0  0999 V3000
M  V30 BEGIN CTAB
M  V30 COUNTS 16 16 0 0 1
M  V30 BEGIN ATOM
M  V30 1 C 37.709498 27.139249 53.530673 0
M  V30 2 C 38.539047 28.083428 52.686487 0
M  V30 3 C 38.961792 29.317741 53.200026 0
M  V30 4 C 39.730458 30.154209 52.378470 0
M  V30 5 C 40.045137 29.724003 51.073402 0
M  V30 6 C 38.902040 27.737526 51.369641 0
M  V30 7 N 40.801415 30.537615 50.239319 0
M  V30 8 N 39.645303 28.535694 50.567771 0
M  V30 9 H 37.347510 27.626619 54.436532 0
M  V30 10 H 36.845391 26.792203 52.968031 0
M  V30 11 H 38.302057 26.270596 53.819477 0
M  V30 12 H 38.702372 29.618551 54.204914 0
M  V30 13 H 40.072452 31.113214 52.739469 0
M  V30 14 H 38.589957 26.794242 50.947248 0
M  V30 15 H 41.108926 31.455300 50.530960 0
M  V30 16 H 41.015330 30.262516 49.294154 0
M  V30 END ATOM
M  V30 BEGIN BOND
M  V30 1 1 2 1
M  V30 2 1 3 2
M  V30 3 2 4 3
M  V30 4 1 5 4
M  V30 5 2 6 2
M  V30 6 1 7 5
M  V30 7 2 8 5
M  V30 8 1 8 6
M  V30 9 1 9 1
M  V30 10 1 10 1
M  V30 11 1 11 1
M  V30 12 1 12 3
M  V30 13 1 13 4
M  V30 14 1 14 6
M  V30 15 1 15 7
M  V30 16 1 16 7
M  V30 END BOND
M  V30 END CTAB
M  END
>  <i_epik_Tot_Q>  (1) 
0

>  <i_epik_Tot_abs_Q>  (1) 
0

>  <i_i_glide_confnum>  (1) 
1

>  <i_i_glide_lignum>  (1) 
56

>  <i_i_glide_posenum>  (1) 
257

>  <i_i_glide_rotatable_bonds>  (1) 
0

>  <i_lp_mmshare_version>  (1) 
72125

>  <i_m_source_file_index>  (1) 
54

>  <i_f3d_flags>  (1) 
0

>  <num_sample>  (1) 
100

>  <b_lp_Chiralities_Consistent>  (1) 
1

>  <r_epik_Charging_Adjusted_Penalty>  (1) 
0.35861937746939487

>  <r_epik_Ionization_Penalty>  (1) 
0.35867228033349524

>  <r_epik_Ionization_Penalty_Charging>  (1) 
0

>  <r_epik_Ionization_Penalty_Neutral>  (1) 
0.35867228033349524

>  <r_epik_State_Penalty>  (1) 
0.35861937746939487

>  <r_glide_ring_energy>  (1) 
0

>  <r_i_docking_score>  (1) 
-5.0438352986663464

>  <r_i_glide_ecoul>  (1) 
-0.94822262890840125

>  <r_i_glide_eff_state_penalty>  (1) 
0.35861937746939487

>  <r_i_glide_einternal>  (1) 
0

>  <r_i_glide_emodel>  (1) 
-27.508746738123484

>  <r_i_glide_emodel_strain>  (1) 
0.00075793287490810712

>  <r_i_glide_energy>  (1) 
-20.73004543786713

>  <r_i_glide_erotb>  (1) 
0

>  <r_i_glide_esite>  (1) 
0

>  <r_i_glide_evdw>  (1) 
-19.781822808958729

>  <r_i_glide_gscore>  (1) 
-5.4024546761357417

>  <r_i_glide_gscore_strain>  (1) 
0

>  <r_i_glide_hbond>  (1) 
0

>  <r_i_glide_ligand_efficiency>  (1) 
-0.6304794123332933

>  <r_i_glide_ligand_efficiency_ln>  (1) 
-1.637905844419743

>  <r_i_glide_ligand_efficiency_sa>  (1) 
-1.2609588246665868

>  <r_i_glide_lipo>  (1) 
-1.8234501252231621

>  <r_i_glide_metal>  (1) 
-0

>  <r_i_glide_rewards>  (1) 
-2.4476800161283832

>  <r_lp_Energy>  (1) 
5.8194469999999994

>  <r_lp_tautomer_probability>  (1) 
0.99999977220005165

>  <s_epik_cmdline>  (1) 
J2VwaWtfcHl0aG9uJywgJy1waHQnLCAnMS4wJywgJy1waCcsICc3LjQnLCAnLXRuJywgJzgnLCAnLW1hJywgJzUwMCcsICctaW1hZScsICc8aW5maWxlLm1hZT4nLCAnLW9tYWUnLCAnPG91dGZpbGUubWFlPic=

>  <s_epik_input>  (1) 
W0NIM11jMVtjSF1bY0hdYyhbTkgyXSluW2NIXTE=

>  <s_glide_docking_method>  (1) 
confgen

>  <s_i_glide_gridfile>  (1) 
gpcr_5ht2c_6bqh_protein_autoprepared_prepared

>  <s_lp_Force_Field>  (1) 
S-OPLS

>  <s_lp_Variant>  (1) 
Pocket2Mol_53-1

>  <s_m_source_file>  (1) 
generated_GPCR_5HT2C_ligand_Pocket2Mol_2026-06-23_prepared.sdf

>  <GenAI_Model>  (1) 
Pocket2Mol

>  <Protein>  (1) 
GPCR_5HT2C

$$$$
Pocket2Mol_21
     RDKit          3D

  0  0  0  0  0  0  0  0  0  0999 V3000
M  V30 BEGIN CTAB
M  V30 COUNTS 13 13 0 0 1
M  V30 BEGIN ATOM
M  V30 1 C 39.245137 27.806114 50.967768 0
M  V30 2 C 38.511997 27.735192 52.183569 0
M  V30 3 C 39.932279 28.987194 50.967755 0
M  V30 4 C 38.773203 28.872777 52.891965 0
M  V30 5 N 39.645078 29.647882 52.149122 0
M  V30 6 C 40.162917 30.937754 52.541946 0
M  V30 7 H 39.265326 27.071126 50.175713 0
M  V30 8 H 37.860728 26.936070 52.505346 0
M  V30 9 H 40.597770 29.423437 50.237407 0
M  V30 10 H 38.418823 29.208186 53.856207 0
M  V30 11 H 40.845138 31.321473 51.782607 0
M  V30 12 H 39.339906 31.642675 52.661526 0
M  V30 13 H 40.690666 30.853855 53.492193 0
M  V30 END ATOM
M  V30 BEGIN BOND
M  V30 1 1 2 1
M  V30 2 2 3 1
M  V30 3 2 4 2
M  V30 4 1 5 3
M  V30 5 1 5 4
M  V30 6 1 6 5
M  V30 7 1 7 1
M  V30 8 1 8 2
M  V30 9 1 9 3
M  V30 10 1 10 4
M  V30 11 1 11 6
M  V30 12 1 12 6
M  V30 13 1 13 6
M  V30 END BOND
M  V30 END CTAB
M  END
>  <i_epik_Tot_Q>  (1) 
0

>  <i_epik_Tot_abs_Q>  (1) 
0

>  <i_i_glide_confnum>  (1) 
1

>  <i_i_glide_lignum>  (1) 
24

>  <i_i_glide_posenum>  (1) 
399

>  <i_i_glide_rotatable_bonds>  (1) 
0

>  <i_lp_mmshare_version>  (1) 
72125

>  <i_m_source_file_index>  (1) 
22

>  <i_f3d_flags>  (1) 
0

>  <num_sample>  (1) 
100

>  <b_lp_Chiralities_Consistent>  (1) 
1

>  <r_epik_Charging_Adjusted_Penalty>  (1) 
0

>  <r_epik_Ionization_Penalty>  (1) 
5.9248581604286784e-11

>  <r_epik_Ionization_Penalty_Charging>  (1) 
0

>  <r_epik_Ionization_Penalty_Neutral>  (1) 
5.9248581604286784e-11

>  <r_epik_State_Penalty>  (1) 
-0

>  <r_glide_ring_energy>  (1) 
0

>  <r_i_docking_score>  (1) 
-5.0379375379004747

>  <r_i_glide_ecoul>  (1) 
-0.98671005536303791

>  <r_i_glide_eff_state_penalty>  (1) 
-0

>  <r_i_glide_einternal>  (1) 
0

>  <r_i_glide_emodel>  (1) 
-21.618846545406274

>  <r_i_glide_emodel_strain>  (1) 
0

>  <r_i_glide_energy>  (1) 
-16.479358746689634

>  <r_i_glide_erotb>  (1) 
0

>  <r_i_glide_esite>  (1) 
0

>  <r_i_glide_evdw>  (1) 
-15.492648691326597

>  <r_i_glide_gscore>  (1) 
-5.0379375379004747

>  <r_i_glide_gscore_strain>  (1) 
0

>  <r_i_glide_hbond>  (1) 
0

>  <r_i_glide_ligand_efficiency>  (1) 
-0.83965625631674579

>  <r_i_glide_ligand_efficiency_ln>  (1) 
-1.8045743529952123

>  <r_i_glide_ligand_efficiency_sa>  (1) 
-1.5257566742535003

>  <r_i_glide_lipo>  (1) 
-1.415298595029689

>  <r_i_glide_metal>  (1) 
-0

>  <r_i_glide_rewards>  (1) 
-2.7000000000000002

>  <r_lp_Energy>  (1) 
0.62146699999999999

>  <r_lp_tautomer_probability>  (1) 
1

>  <s_epik_cmdline>  (1) 
J2VwaWtfcHl0aG9uJywgJy1waHQnLCAnMS4wJywgJy1waCcsICc3LjQnLCAnLXRuJywgJzgnLCAnLW1hJywgJzUwMCcsICctaW1hZScsICc8aW5maWxlLm1hZT4nLCAnLW9tYWUnLCAnPG91dGZpbGUubWFlPic=

>  <s_epik_input>  (1) 
W2NIXTFbY0hdW2NIXVtjSF1uMVtDSDNd

>  <s_glide_docking_method>  (1) 
confgen

>  <s_i_glide_gridfile>  (1) 
gpcr_5ht2c_6bqh_protein_autoprepared_prepared

>  <s_lp_Force_Field>  (1) 
S-OPLS

>  <s_lp_Variant>  (1) 
Pocket2Mol_21-1

>  <s_m_source_file>  (1) 
generated_GPCR_5HT2C_ligand_Pocket2Mol_2026-06-23_prepared.sdf

>  <GenAI_Model>  (1) 
Pocket2Mol

>  <Protein>  (1) 
GPCR_5HT2C

$$$$
Pocket2Mol_16
     RDKit          3D

  0  0  0  0  0  0  0  0  0  0999 V3000
M  V30 BEGIN CTAB
M  V30 COUNTS 18 18 0 0 1
M  V30 BEGIN ATOM
M  V30 1 C 38.511421 27.741630 51.631193 0
M  V30 2 C 39.587130 28.417564 50.783207 0
M  V30 3 C 38.838587 28.127880 53.068854 0
M  V30 4 C 39.987390 29.681171 51.549573 0
M  V30 5 C 39.347971 29.568264 52.945907 0
M  V30 6 C 37.659372 27.976294 54.034020 0
M  V30 7 H 38.489390 26.664601 51.478297 0
M  V30 8 H 37.532673 28.137755 51.367760 0
M  V30 9 H 40.445137 27.753006 50.691948 0
M  V30 10 H 39.245129 28.636650 49.771407 0
M  V30 11 H 39.645137 27.483885 53.413306 0
M  V30 12 H 41.071976 29.738879 51.603117 0
M  V30 13 H 39.645138 30.582076 51.039135 0
M  V30 14 H 38.511989 30.260075 53.025059 0
M  V30 15 H 40.045135 29.826750 53.742890 0
M  V30 16 H 36.845137 28.641015 53.753854 0
M  V30 17 H 37.953927 28.225802 55.053692 0
M  V30 18 H 37.277266 26.955081 54.034720 0
M  V30 END ATOM
M  V30 BEGIN BOND
M  V30 1 1 2 1
M  V30 2 1 3 1
M  V30 3 1 4 2
M  V30 4 1 5 3
M  V30 5 1 5 4
M  V30 6 1 6 3
M  V30 7 1 7 1
M  V30 8 1 8 1
M  V30 9 1 9 2
M  V30 10 1 10 2
M  V30 11 1 11 3
M  V30 12 1 12 4
M  V30 13 1 13 4
M  V30 14 1 14 5
M  V30 15 1 15 5
M  V30 16 1 16 6
M  V30 17 1 17 6
M  V30 18 1 18 6
M  V30 END BOND
M  V30 END CTAB
M  END
>  <i_epik_Tot_Q>  (1) 
0

>  <i_epik_Tot_abs_Q>  (1) 
0

>  <i_i_glide_confnum>  (1) 
1

>  <i_i_glide_lignum>  (1) 
19

>  <i_i_glide_posenum>  (1) 
241

>  <i_i_glide_rotatable_bonds>  (1) 
0

>  <i_lp_mmshare_version>  (1) 
72125

>  <i_m_source_file_index>  (1) 
17

>  <i_f3d_flags>  (1) 
0

>  <num_sample>  (1) 
100

>  <b_lp_Chiralities_Consistent>  (1) 
1

>  <r_epik_Charging_Adjusted_Penalty>  (1) 
0

>  <r_epik_Ionization_Penalty>  (1) 
0

>  <r_epik_Ionization_Penalty_Charging>  (1) 
0

>  <r_epik_Ionization_Penalty_Neutral>  (1) 
0

>  <r_epik_State_Penalty>  (1) 
-0

>  <r_glide_ring_energy>  (1) 
0

>  <r_i_docking_score>  (1) 
-5.0377647357461379

>  <r_i_glide_ecoul>  (1) 
-0.0040977403148157801

>  <r_i_glide_eff_state_penalty>  (1) 
-0

>  <r_i_glide_einternal>  (1) 
0

>  <r_i_glide_emodel>  (1) 
-19.012803098914098

>  <r_i_glide_emodel_strain>  (1) 
0

>  <r_i_glide_energy>  (1) 
-14.070589996876514

>  <r_i_glide_erotb>  (1) 
0

>  <r_i_glide_esite>  (1) 
0

>  <r_i_glide_evdw>  (1) 
-14.066492256561698

>  <r_i_glide_gscore>  (1) 
-5.0377647357461379

>  <r_i_glide_gscore_strain>  (1) 
0

>  <r_i_glide_hbond>  (1) 
0

>  <r_i_glide_ligand_efficiency>  (1) 
-0.83962745595768962

>  <r_i_glide_ligand_efficiency_ln>  (1) 
-1.8045124557736782

>  <r_i_glide_ligand_efficiency_sa>  (1) 
-1.5257043405279784

>  <r_i_glide_lipo>  (1) 
-1.8269372639430819

>  <r_i_glide_metal>  (1) 
-0

>  <r_i_glide_rewards>  (1) 
-2.5068881979277493

>  <r_lp_Energy>  (1) 
6.4120089999999994

>  <r_lp_tautomer_probability>  (1) 
1

>  <s_epik_cmdline>  (1) 
J2VwaWtfcHl0aG9uJywgJy1waHQnLCAnMS4wJywgJy1waCcsICc3LjQnLCAnLXRuJywgJzgnLCAnLW1hJywgJzUwMCcsICctaW1hZScsICc8aW5maWxlLm1hZT4nLCAnLW9tYWUnLCAnPG91dGZpbGUubWFlPic=

>  <s_epik_input>  (1) 
W0NIM11bQ0hdMVtDSDJdW0NIMl1bQ0gyXVtDSDJdMQ==

>  <s_glide_docking_method>  (1) 
confgen

>  <s_i_glide_gridfile>  (1) 
gpcr_5ht2c_6bqh_protein_autoprepared_prepared

>  <s_lp_Force_Field>  (1) 
S-OPLS

>  <s_lp_Variant>  (1) 
Pocket2Mol_16-1

>  <s_m_source_file>  (1) 
generated_GPCR_5HT2C_ligand_Pocket2Mol_2026-06-23_prepared.sdf

>  <GenAI_Model>  (1) 
Pocket2Mol

>  <Protein>  (1) 
GPCR_5HT2C

$$$$
Pocket2Mol_35
     RDKit          3D

  0  0  0  0  0  0  0  0  0  0999 V3000
M  V30 BEGIN CTAB
M  V30 COUNTS 17 17 0 0 1
M  V30 BEGIN ATOM
M  V30 1 C 38.774268 27.632003 51.862943 0
M  V30 2 O 38.038806 28.593641 52.612346 0
M  V30 3 C 38.800741 29.195381 53.651322 0
M  V30 4 C 39.635539 28.283032 50.772505 0
M  V30 5 O 40.612325 29.163365 51.306487 0
M  V30 6 C 39.635111 30.405267 53.187053 0
M  V30 7 C 40.063758 30.408116 51.708889 0
M  V30 8 H 39.370985 26.982000 52.503633 0
M  V30 9 H 38.046713 26.982453 51.377289 0
M  V30 10 H 38.102805 29.530975 54.419638 0
M  V30 11 H 39.433395 28.455517 54.145002 0
M  V30 12 H 40.149289 27.504003 50.211949 0
M  V30 13 H 39.006391 28.787937 50.040566 0
M  V30 14 H 39.062613 31.315166 53.367451 0
M  V30 15 H 40.512962 30.482730 53.829070 0
M  V30 16 H 39.245139 30.699786 51.049977 0
M  V30 17 H 40.824535 31.177092 51.569241 0
M  V30 END ATOM
M  V30 BEGIN BOND
M  V30 1 1 2 1
M  V30 2 1 3 2
M  V30 3 1 4 1
M  V30 4 1 5 4
M  V30 5 1 6 3
M  V30 6 1 7 5
M  V30 7 1 7 6
M  V30 8 1 8 1
M  V30 9 1 9 1
M  V30 10 1 10 3
M  V30 11 1 11 3
M  V30 12 1 12 4
M  V30 13 1 13 4
M  V30 14 1 14 6
M  V30 15 1 15 6
M  V30 16 1 16 7
M  V30 17 1 17 7
M  V30 END BOND
M  V30 END CTAB
M  END
>  <i_epik_Tot_Q>  (1) 
0

>  <i_epik_Tot_abs_Q>  (1) 
0

>  <i_i_glide_confnum>  (1) 
8

>  <i_i_glide_lignum>  (1) 
38

>  <i_i_glide_posenum>  (1) 
83

>  <i_i_glide_rotatable_bonds>  (1) 
0

>  <i_lp_mmshare_version>  (1) 
72125

>  <i_m_source_file_index>  (1) 
36

>  <i_f3d_flags>  (1) 
0

>  <num_sample>  (1) 
100

>  <b_lp_Chiralities_Consistent>  (1) 
1

>  <r_epik_Charging_Adjusted_Penalty>  (1) 
0

>  <r_epik_Ionization_Penalty>  (1) 
3.933197540425548e-12

>  <r_epik_Ionization_Penalty_Charging>  (1) 
0

>  <r_epik_Ionization_Penalty_Neutral>  (1) 
3.933197540425548e-12

>  <r_epik_State_Penalty>  (1) 
-0

>  <r_glide_ring_energy>  (1) 
0.00055159938950669681

>  <r_i_docking_score>  (1) 
-5.0374164220609536

>  <r_i_glide_ecoul>  (1) 
-1.015991556459781

>  <r_i_glide_eff_state_penalty>  (1) 
-0

>  <r_i_glide_einternal>  (1) 
0

>  <r_i_glide_emodel>  (1) 
-22.474944411408742

>  <r_i_glide_emodel_strain>  (1) 
0

>  <r_i_glide_energy>  (1) 
-17.207388665935202

>  <r_i_glide_erotb>  (1) 
0

>  <r_i_glide_esite>  (1) 
0

>  <r_i_glide_evdw>  (1) 
-16.191397109475421

>  <r_i_glide_gscore>  (1) 
-5.0374164220609536

>  <r_i_glide_gscore_strain>  (1) 
0

>  <r_i_glide_hbond>  (1) 
0

>  <r_i_glide_ligand_efficiency>  (1) 
-0.71963091743727914

>  <r_i_glide_ligand_efficiency_ln>  (1) 
-1.7099694719733183

>  <r_i_glide_ligand_efficiency_sa>  (1) 
-1.3766044220528739

>  <r_i_glide_lipo>  (1) 
-1.4412816735055971

>  <r_i_glide_metal>  (1) 
-0

>  <r_i_glide_rewards>  (1) 
-2.6341661596126191

>  <r_lp_Energy>  (1) 
9.6410049999999998

>  <r_lp_tautomer_probability>  (1) 
1

>  <s_epik_cmdline>  (1) 
J2VwaWtfcHl0aG9uJywgJy1waHQnLCAnMS4wJywgJy1waCcsICc3LjQnLCAnLXRuJywgJzgnLCAnLW1hJywgJzUwMCcsICctaW1hZScsICc8aW5maWxlLm1hZT4nLCAnLW9tYWUnLCAnPG91dGZpbGUubWFlPic=

>  <s_epik_input>  (1) 
W0NIMl0xT1tDSDJdW0NIMl1bQ0gyXU9bQ0gyXTE=

>  <s_glide_docking_method>  (1) 
confgen

>  <s_i_glide_gridfile>  (1) 
gpcr_5ht2c_6bqh_protein_autoprepared_prepared

>  <s_lp_Force_Field>  (1) 
S-OPLS

>  <s_lp_Variant>  (1) 
Pocket2Mol_35-1

>  <s_m_source_file>  (1) 
generated_GPCR_5HT2C_ligand_Pocket2Mol_2026-06-23_prepared.sdf

>  <GenAI_Model>  (1) 
Pocket2Mol

>  <Protein>  (1) 
GPCR_5HT2C

$$$$
Pocket2Mol_67
     RDKit          3D

  0  0  0  0  0  0  0  0  0  0999 V3000
M  V30 BEGIN CTAB
M  V30 COUNTS 12 12 0 0 1
M  V30 BEGIN ATOM
M  V30 1 C 39.245123 27.803456 50.967762 0
M  V30 2 O 38.541791 27.550879 52.124019 0
M  V30 3 C 38.457496 28.459890 53.195178 0
M  V30 4 O 37.805355 28.236689 54.213551 0
M  V30 5 C 39.245137 29.730103 52.967760 0
M  V30 6 C 39.916109 28.937745 50.795864 0
M  V30 7 O 39.231103 30.643378 53.948832 0
M  V30 8 C 39.922409 29.921438 51.821590 0
M  V30 9 H 39.179001 26.998482 50.249532 0
M  V30 10 H 40.452908 29.112510 49.876838 0
M  V30 11 H 39.735619 31.388061 53.660054 0
M  V30 12 H 40.477087 30.837514 51.675230 0
M  V30 END ATOM
M  V30 BEGIN BOND
M  V30 1 1 2 1
M  V30 2 1 3 2
M  V30 3 2 4 3
M  V30 4 1 5 3
M  V30 5 2 6 1
M  V30 6 1 7 5
M  V30 7 2 8 5
M  V30 8 1 8 6
M  V30 9 1 9 1
M  V30 10 1 10 6
M  V30 11 1 11 7
M  V30 12 1 12 8
M  V30 END BOND
M  V30 END CTAB
M  END
>  <i_epik_Tot_Q>  (1) 
0

>  <i_epik_Tot_abs_Q>  (1) 
0

>  <i_i_glide_confnum>  (1) 
1

>  <i_i_glide_lignum>  (1) 
72

>  <i_i_glide_posenum>  (1) 
328

>  <i_i_glide_rotatable_bonds>  (1) 
1

>  <i_lp_mmshare_version>  (1) 
72125

>  <i_m_source_file_index>  (1) 
68

>  <i_f3d_flags>  (1) 
0

>  <num_sample>  (1) 
100

>  <b_lp_Chiralities_Consistent>  (1) 
1

>  <r_epik_Charging_Adjusted_Penalty>  (1) 
0

>  <r_epik_Ionization_Penalty>  (1) 
0.00075652206847014289

>  <r_epik_Ionization_Penalty_Charging>  (1) 
0

>  <r_epik_Ionization_Penalty_Neutral>  (1) 
0.00075652206847014289

>  <r_epik_State_Penalty>  (1) 
-0

>  <r_glide_ring_energy>  (1) 
0

>  <r_i_docking_score>  (1) 
-5.0322156858784757

>  <r_i_glide_ecoul>  (1) 
-0.65964631906744986

>  <r_i_glide_eff_state_penalty>  (1) 
-0

>  <r_i_glide_einternal>  (1) 
0.00817587065943437

>  <r_i_glide_emodel>  (1) 
-26.319149797294831

>  <r_i_glide_emodel_strain>  (1) 
0

>  <r_i_glide_energy>  (1) 
-19.41685211221056

>  <r_i_glide_erotb>  (1) 
0

>  <r_i_glide_esite>  (1) 
0

>  <r_i_glide_evdw>  (1) 
-18.757205793143111

>  <r_i_glide_gscore>  (1) 
-5.0322156858784757

>  <r_i_glide_gscore_strain>  (1) 
0

>  <r_i_glide_hbond>  (1) 
0

>  <r_i_glide_ligand_efficiency>  (1) 
-0.62902696073480946

>  <r_i_glide_ligand_efficiency_ln>  (1) 
-1.6341325587019917

>  <r_i_glide_ligand_efficiency_sa>  (1) 
-1.2580539214696191

>  <r_i_glide_lipo>  (1) 
-1.5454084483612029

>  <r_i_glide_metal>  (1) 
-0

>  <r_i_glide_rewards>  (1) 
-2.4500000000000002

>  <r_lp_Energy>  (1) 
14.218883999999999

>  <r_lp_tautomer_probability>  (1) 
1

>  <s_epik_cmdline>  (1) 
J2VwaWtfcHl0aG9uJywgJy1waHQnLCAnMS4wJywgJy1waCcsICc3LjQnLCAnLXRuJywgJzgnLCAnLW1hJywgJzUwMCcsICctaW1hZScsICc8aW5maWxlLm1hZT4nLCAnLW9tYWUnLCAnPG91dGZpbGUubWFlPic=

>  <s_epik_input>  (1) 
Tz1jMW9bY0hdW2NIXVtjSF1jMVtPSF0=

>  <s_glide_docking_method>  (1) 
confgen

>  <s_i_glide_gridfile>  (1) 
gpcr_5ht2c_6bqh_protein_autoprepared_prepared

>  <s_lp_Force_Field>  (1) 
S-OPLS

>  <s_lp_Variant>  (1) 
Pocket2Mol_67-1

>  <s_m_source_file>  (1) 
generated_GPCR_5HT2C_ligand_Pocket2Mol_2026-06-23_prepared.sdf

>  <GenAI_Model>  (1) 
Pocket2Mol

>  <Protein>  (1) 
GPCR_5HT2C

$$$$
Pocket2Mol_40
     RDKit          3D

  0  0  0  0  0  0  0  0  0  0999 V3000
M  V30 BEGIN CTAB
M  V30 COUNTS 12 12 0 0 1
M  V30 BEGIN ATOM
M  V30 1 C 38.856356 27.452171 51.361592 0
M  V30 2 C 39.627861 28.454137 50.765422 0
M  V30 3 C 39.686556 29.414024 51.592912 0
M  V30 4 C 40.381611 30.740876 51.422904 0
M  V30 5 N 38.412343 27.708432 52.557978 0
M  V30 6 C 38.941360 29.040928 52.768196 0
M  V30 7 O 38.786299 29.737228 53.769331 0
M  V30 8 H 38.668124 26.537394 50.804949 0
M  V30 9 H 40.052585 28.367387 49.778463 0
M  V30 10 H 40.845085 31.055890 52.357910 0
M  V30 11 H 41.156445 30.681299 50.657002 0
M  V30 12 H 39.655064 31.502129 51.132223 0
M  V30 END ATOM
M  V30 BEGIN BOND
M  V30 1 1 2 1
M  V30 2 2 3 2
M  V30 3 1 4 3
M  V30 4 2 5 1
M  V30 5 1 6 3
M  V30 6 1 6 5
M  V30 7 2 7 6
M  V30 8 1 8 1
M  V30 9 1 9 2
M  V30 10 1 10 4
M  V30 11 1 11 4
M  V30 12 1 12 4
M  V30 END BOND
M  V30 END CTAB
M  END
>  <i_epik_Tot_Q>  (1) 
0

>  <i_epik_Tot_abs_Q>  (1) 
0

>  <i_i_glide_confnum>  (1) 
1

>  <i_i_glide_lignum>  (1) 
43

>  <i_i_glide_posenum>  (1) 
314

>  <i_i_glide_rotatable_bonds>  (1) 
0

>  <i_lp_mmshare_version>  (1) 
72125

>  <i_m_source_file_index>  (1) 
41

>  <i_f3d_flags>  (1) 
0

>  <num_sample>  (1) 
100

>  <b_lp_Chiralities_Consistent>  (1) 
1

>  <r_epik_Charging_Adjusted_Penalty>  (1) 
0

>  <r_epik_Ionization_Penalty>  (1) 
0

>  <r_epik_Ionization_Penalty_Charging>  (1) 
0

>  <r_epik_Ionization_Penalty_Neutral>  (1) 
0

>  <r_epik_State_Penalty>  (1) 
-0

>  <r_glide_ring_energy>  (1) 
0

>  <r_i_docking_score>  (1) 
-5.0282669749141169

>  <r_i_glide_ecoul>  (1) 
-0.18821756157289449

>  <r_i_glide_eff_state_penalty>  (1) 
-0

>  <r_i_glide_einternal>  (1) 
0

>  <r_i_glide_emodel>  (1) 
-23.18415574066896

>  <r_i_glide_emodel_strain>  (1) 
0.031559633970339007

>  <r_i_glide_energy>  (1) 
-17.32195812741567

>  <r_i_glide_erotb>  (1) 
0

>  <r_i_glide_esite>  (1) 
0

>  <r_i_glide_evdw>  (1) 
-17.133740565842775

>  <r_i_glide_gscore>  (1) 
-5.0282669749141169

>  <r_i_glide_gscore_strain>  (1) 
0

>  <r_i_glide_hbond>  (1) 
0

>  <r_i_glide_ligand_efficiency>  (1) 
-0.71832385355915951

>  <r_i_glide_ligand_efficiency_ln>  (1) 
-1.7068636585968409

>  <r_i_glide_ligand_efficiency_sa>  (1) 
-1.3741040988025435

>  <r_i_glide_lipo>  (1) 
-0.82414724681255058

>  <r_i_glide_metal>  (1) 
-0

>  <r_i_glide_rewards>  (1) 
-3.3192000655734932

>  <r_lp_Energy>  (1) 
0.58044799999999996

>  <r_lp_tautomer_probability>  (1) 
1

>  <s_epik_Chemistry_Notes>  (1) 
This compound has an imine and may undergo hydrolysis.

>  <s_epik_cmdline>  (1) 
J2VwaWtfcHl0aG9uJywgJy1waHQnLCAnMS4wJywgJy1waCcsICc3LjQnLCAnLXRuJywgJzgnLCAnLW1hJywgJzUwMCcsICctaW1hZScsICc8aW5maWxlLm1hZT4nLCAnLW9tYWUnLCAnPG91dGZpbGUubWFlPic=

>  <s_epik_input>  (1) 
Tz1DMU49W0NIXVtDSF09QzFbQ0gzXQ==

>  <s_glide_docking_method>  (1) 
confgen

>  <s_i_glide_gridfile>  (1) 
gpcr_5ht2c_6bqh_protein_autoprepared_prepared

>  <s_lp_Force_Field>  (1) 
S-OPLS

>  <s_lp_Variant>  (1) 
Pocket2Mol_40-1

>  <s_m_source_file>  (1) 
generated_GPCR_5HT2C_ligand_Pocket2Mol_2026-06-23_prepared.sdf

>  <GenAI_Model>  (1) 
Pocket2Mol

>  <Protein>  (1) 
GPCR_5HT2C

$$$$
Pocket2Mol_37
     RDKit          3D

  0  0  0  0  0  0  0  0  0  0999 V3000
M  V30 BEGIN CTAB
M  V30 COUNTS 11 11 0 0 1
M  V30 BEGIN ATOM
M  V30 1 C 40.045135 30.118240 51.877185 0
M  V30 2 O 39.290662 29.920485 53.012664 0
M  V30 3 C 38.460393 28.797114 53.207610 0
M  V30 4 O 37.778419 28.633275 54.216464 0
M  V30 5 C 38.490290 27.822585 52.062548 0
M  V30 6 C 40.045131 29.237153 50.883588 0
M  V30 7 C 39.250509 28.060661 50.979826 0
M  V30 8 H 40.608222 31.040081 51.899163 0
M  V30 9 H 37.885714 26.932542 52.130914 0
M  V30 10 H 40.643909 29.415242 50.002816 0
M  V30 11 H 39.254999 27.347987 50.168238 0
M  V30 END ATOM
M  V30 BEGIN BOND
M  V30 1 1 2 1
M  V30 2 1 3 2
M  V30 3 2 4 3
M  V30 4 1 5 3
M  V30 5 2 6 1
M  V30 6 2 7 5
M  V30 7 1 7 6
M  V30 8 1 8 1
M  V30 9 1 9 5
M  V30 10 1 10 6
M  V30 11 1 11 7
M  V30 END BOND
M  V30 END CTAB
M  END
>  <i_epik_Tot_Q>  (1) 
0

>  <i_epik_Tot_abs_Q>  (1) 
0

>  <i_i_glide_confnum>  (1) 
1

>  <i_i_glide_lignum>  (1) 
40

>  <i_i_glide_posenum>  (1) 
276

>  <i_i_glide_rotatable_bonds>  (1) 
0

>  <i_lp_mmshare_version>  (1) 
72125

>  <i_m_source_file_index>  (1) 
38

>  <i_f3d_flags>  (1) 
0

>  <num_sample>  (1) 
100

>  <b_lp_Chiralities_Consistent>  (1) 
1

>  <r_epik_Charging_Adjusted_Penalty>  (1) 
0

>  <r_epik_Ionization_Penalty>  (1) 
2.4984917370333966e-09

>  <r_epik_Ionization_Penalty_Charging>  (1) 
0

>  <r_epik_Ionization_Penalty_Neutral>  (1) 
2.4984917370333966e-09

>  <r_epik_State_Penalty>  (1) 
-0

>  <r_glide_ring_energy>  (1) 
0

>  <r_i_docking_score>  (1) 
-5.0270335280825611

>  <r_i_glide_ecoul>  (1) 
-0.84386504152772845

>  <r_i_glide_eff_state_penalty>  (1) 
-0

>  <r_i_glide_einternal>  (1) 
0

>  <r_i_glide_emodel>  (1) 
-23.55371404247478

>  <r_i_glide_emodel_strain>  (1) 
0

>  <r_i_glide_energy>  (1) 
-18.235674254846167

>  <r_i_glide_erotb>  (1) 
0

>  <r_i_glide_esite>  (1) 
0

>  <r_i_glide_evdw>  (1) 
-17.391809213318439

>  <r_i_glide_gscore>  (1) 
-5.0270335280825611

>  <r_i_glide_gscore_strain>  (1) 
0

>  <r_i_glide_hbond>  (1) 
0

>  <r_i_glide_ligand_efficiency>  (1) 
-0.71814764686893728

>  <r_i_glide_ligand_efficiency_ln>  (1) 
-1.7064449605479708

>  <r_i_glide_ligand_efficiency_sa>  (1) 
-1.3737670275302043

>  <r_i_glide_lipo>  (1) 
-1.5865507200316398

>  <r_i_glide_metal>  (1) 
-0

>  <r_i_glide_rewards>  (1) 
-2.4443125911558403

>  <r_lp_Energy>  (1) 
11.255118999999999

>  <r_lp_tautomer_probability>  (1) 
1

>  <s_epik_cmdline>  (1) 
J2VwaWtfcHl0aG9uJywgJy1waHQnLCAnMS4wJywgJy1waCcsICc3LjQnLCAnLXRuJywgJzgnLCAnLW1hJywgJzUwMCcsICctaW1hZScsICc8aW5maWxlLm1hZT4nLCAnLW9tYWUnLCAnPG91dGZpbGUubWFlPic=

>  <s_epik_input>  (1) 
W2NIXTFbY0hdW2NIXVtjSF1vYzE9Tw==

>  <s_glide_docking_method>  (1) 
confgen

>  <s_i_glide_gridfile>  (1) 
gpcr_5ht2c_6bqh_protein_autoprepared_prepared

>  <s_lp_Force_Field>  (1) 
S-OPLS

>  <s_lp_Variant>  (1) 
Pocket2Mol_37-1

>  <s_m_source_file>  (1) 
generated_GPCR_5HT2C_ligand_Pocket2Mol_2026-06-23_prepared.sdf

>  <GenAI_Model>  (1) 
Pocket2Mol

>  <Protein>  (1) 
GPCR_5HT2C

$$$$
Pocket2Mol_63
     RDKit          3D

  0  0  0  0  0  0  0  0  0  0999 V3000
M  V30 BEGIN CTAB
M  V30 COUNTS 14 14 0 0 1
M  V30 BEGIN ATOM
M  V30 1 C 40.045164 29.482939 50.256455 0
M  V30 2 C 39.321839 28.425105 50.967565 0
M  V30 3 C 40.400237 30.485132 50.967759 0
M  V30 4 C 40.026011 30.420759 52.383337 0
M  V30 5 N 39.540153 28.968153 52.381350 0
M  V30 6 N 38.195950 28.937868 53.111852 0 CHG=1
M  V30 7 O 38.045123 29.737828 54.029855 0 CHG=-1
M  V30 8 O 37.376477 28.106351 52.740601 0
M  V30 9 H 40.246645 29.397151 49.198783 0
M  V30 10 H 38.292027 28.418644 50.615515 0
M  V30 11 H 39.777878 27.444654 50.831076 0
M  V30 12 H 40.934267 31.337755 50.576307 0
M  V30 13 H 40.845089 30.581538 53.078595 0
M  V30 14 H 39.252433 31.165637 52.567787 0
M  V30 END ATOM
M  V30 BEGIN BOND
M  V30 1 1 2 1
M  V30 2 2 3 1
M  V30 3 1 4 3
M  V30 4 1 5 2
M  V30 5 1 5 4
M  V30 6 1 6 5
M  V30 7 1 7 6
M  V30 8 2 8 6
M  V30 9 1 9 1
M  V30 10 1 10 2
M  V30 11 1 11 2
M  V30 12 1 12 3
M  V30 13 1 13 4
M  V30 14 1 14 4
M  V30 END BOND
M  V30 END CTAB
M  END
>  <i_epik_Tot_Q>  (1) 
0

>  <i_epik_Tot_abs_Q>  (1) 
2

>  <i_i_glide_confnum>  (1) 
1

>  <i_i_glide_lignum>  (1) 
67

>  <i_i_glide_posenum>  (1) 
185

>  <i_i_glide_rotatable_bonds>  (1) 
1

>  <i_lp_mmshare_version>  (1) 
72125

>  <i_m_source_file_index>  (1) 
64

>  <i_f3d_flags>  (1) 
0

>  <num_sample>  (1) 
100

>  <b_lp_Chiralities_Consistent>  (1) 
1

>  <r_epik_Charging_Adjusted_Penalty>  (1) 
0.01004869924428556

>  <r_epik_Ionization_Penalty>  (1) 
0.010048699244285546

>  <r_epik_Ionization_Penalty_Charging>  (1) 
0

>  <r_epik_Ionization_Penalty_Neutral>  (1) 
0.010048699244285546

>  <r_epik_State_Penalty>  (1) 
0.01004869924428556

>  <r_glide_ring_energy>  (1) 
0

>  <r_i_docking_score>  (1) 
-5.0246266371491597

>  <r_i_glide_ecoul>  (1) 
-0.087245255050644177

>  <r_i_glide_eff_state_penalty>  (1) 
0.01004869924428556

>  <r_i_glide_einternal>  (1) 
0.0023147115578709687

>  <r_i_glide_emodel>  (1) 
-23.181862910688288

>  <r_i_glide_emodel_strain>  (1) 
0

>  <r_i_glide_energy>  (1) 
-17.265671830111746

>  <r_i_glide_erotb>  (1) 
0

>  <r_i_glide_esite>  (1) 
0

>  <r_i_glide_evdw>  (1) 
-17.178426575061103

>  <r_i_glide_gscore>  (1) 
-5.0346753363934456

>  <r_i_glide_gscore_strain>  (1) 
0

>  <r_i_glide_hbond>  (1) 
0

>  <r_i_glide_ligand_efficiency>  (1) 
-0.62807832964364496

>  <r_i_glide_ligand_efficiency_ln>  (1) 
-1.6316681349983431

>  <r_i_glide_ligand_efficiency_sa>  (1) 
-1.2561566592872901

>  <r_i_glide_lipo>  (1) 
-1.1736698270540731

>  <r_i_glide_metal>  (1) 
-0

>  <r_i_glide_rewards>  (1) 
-2.9889973923287214

>  <r_lp_Energy>  (1) 
16.803152000000001

>  <s_epik_cmdline>  (1) 
J2VwaWtfcHl0aG9uJywgJy1waHQnLCAnMS4wJywgJy1waCcsICc3LjQnLCAnLXRuJywgJzgnLCAnLW1hJywgJzUwMCcsICctaW1hZScsICc8aW5maWxlLm1hZT4nLCAnLW9tYWUnLCAnPG91dGZpbGUubWFlPic=

>  <s_epik_input>  (1) 
W0NIMl0xW0NIXT1bQ0hdW0NIMl1OMVtOK10oW08tXSk9Tw==

>  <s_glide_docking_method>  (1) 
confgen

>  <s_i_glide_gridfile>  (1) 
gpcr_5ht2c_6bqh_protein_autoprepared_prepared

>  <s_lp_Force_Field>  (1) 
S-OPLS

>  <s_lp_Variant>  (1) 
Pocket2Mol_63-1

>  <s_m_source_file>  (1) 
generated_GPCR_5HT2C_ligand_Pocket2Mol_2026-06-23_prepared.sdf

>  <GenAI_Model>  (1) 
Pocket2Mol

>  <Protein>  (1) 
GPCR_5HT2C

$$$$
Pocket2Mol_85
     RDKit          3D

  0  0  0  0  0  0  0  0  0  0999 V3000
M  V30 BEGIN CTAB
M  V30 COUNTS 14 14 0 0 1
M  V30 BEGIN ATOM
M  V30 1 C 37.643297 30.842811 58.963894 0
M  V30 2 C 38.749535 30.456347 59.653300 0
M  V30 3 C 36.998023 31.723514 59.688669 0
M  V30 4 C 38.793274 31.105178 60.817194 0
M  V30 5 O 35.859340 32.354173 59.367750 0
M  V30 6 C 37.584804 32.119006 61.086210 0
M  V30 7 C 39.901902 30.967132 61.904786 0
M  V30 8 O 40.843878 30.186216 61.631987 0
M  V30 9 O 39.743809 31.653772 62.938138 0 CHG=-1
M  V30 10 H 37.349629 30.488330 57.985844 0
M  V30 11 H 39.482340 29.739912 59.310384 0
M  V30 12 H 35.644994 32.137742 58.445696 0
M  V30 13 H 37.907608 33.159508 61.137917 0
M  V30 14 H 36.950919 31.831696 61.923845 0
M  V30 END ATOM
M  V30 BEGIN BOND
M  V30 1 1 2 1
M  V30 2 2 3 1
M  V30 3 2 4 2
M  V30 4 1 5 3
M  V30 5 1 6 3
M  V30 6 1 6 4
M  V30 7 1 7 4
M  V30 8 2 8 7
M  V30 9 1 9 7
M  V30 10 1 10 1
M  V30 11 1 11 2
M  V30 12 1 12 5
M  V30 13 1 13 6
M  V30 14 1 14 6
M  V30 END BOND
M  V30 END CTAB
M  END
>  <i_epik_Tot_Q>  (1) 
-1

>  <i_epik_Tot_abs_Q>  (1) 
1

>  <i_i_glide_confnum>  (1) 
1

>  <i_i_glide_lignum>  (1) 
90

>  <i_i_glide_posenum>  (1) 
339

>  <i_i_glide_rotatable_bonds>  (1) 
2

>  <i_lp_mmshare_version>  (1) 
72125

>  <i_m_source_file_index>  (1) 
86

>  <i_f3d_flags>  (1) 
0

>  <num_sample>  (1) 
100

>  <b_lp_Chiralities_Consistent>  (1) 
1

>  <r_epik_Charging_Adjusted_Penalty>  (1) 
0.00019237637697373591

>  <r_epik_Ionization_Penalty>  (1) 
0.0032632994418700166

>  <r_epik_Ionization_Penalty_Charging>  (1) 
0.00019237637697373591

>  <r_epik_Ionization_Penalty_Neutral>  (1) 
0.0030709230648962808

>  <r_epik_State_Penalty>  (1) 
-0

>  <r_glide_ring_energy>  (1) 
0

>  <r_i_docking_score>  (1) 
-5.0210589132574128

>  <r_i_glide_ecoul>  (1) 
-9.1831299182984356

>  <r_i_glide_eff_state_penalty>  (1) 
-0

>  <r_i_glide_einternal>  (1) 
0.12206984863959525

>  <r_i_glide_emodel>  (1) 
-25.506624014966583

>  <r_i_glide_emodel_strain>  (1) 
0

>  <r_i_glide_energy>  (1) 
-18.632319898953501

>  <r_i_glide_erotb>  (1) 
0

>  <r_i_glide_esite>  (1) 
0

>  <r_i_glide_evdw>  (1) 
-9.4491899806550652

>  <r_i_glide_gscore>  (1) 
-5.0210589132574128

>  <r_i_glide_gscore_strain>  (1) 
0

>  <r_i_glide_hbond>  (1) 
-0.32000000000000001

>  <r_i_glide_ligand_efficiency>  (1) 
-0.55789543480637915

>  <r_i_glide_ligand_efficiency_ln>  (1) 
-1.5704429863480933

>  <r_i_glide_ligand_efficiency_sa>  (1) 
-1.1604692688952578

>  <r_i_glide_lipo>  (1) 
-0.25994175641359912

>  <r_i_glide_metal>  (1) 
-0

>  <r_i_glide_rewards>  (1) 
-2.591188170066296

>  <r_lp_Energy>  (1) 
1.821912

>  <r_lp_tautomer_probability>  (1) 
1

>  <s_epik_cmdline>  (1) 
J2VwaWtfcHl0aG9uJywgJy1waHQnLCAnMS4wJywgJy1waCcsICc3LjQnLCAnLXRuJywgJzgnLCAnLW1hJywgJzUwMCcsICctaW1hZScsICc8aW5maWxlLm1hZT4nLCAnLW9tYWUnLCAnPG91dGZpbGUubWFlPic=

>  <s_epik_input>  (1) 
W09IXUMxPVtDSF1bQ0hdPUMoW0NIMl0xKUMoPU8pW09IXQ==

>  <s_glide_docking_method>  (1) 
confgen

>  <s_i_glide_gridfile>  (1) 
gpcr_5ht2c_6bqh_protein_autoprepared_prepared

>  <s_lp_Force_Field>  (1) 
S-OPLS

>  <s_lp_Variant>  (1) 
Pocket2Mol_85-1

>  <s_m_source_file>  (1) 
generated_GPCR_5HT2C_ligand_Pocket2Mol_2026-06-23_prepared.sdf

>  <GenAI_Model>  (1) 
Pocket2Mol

>  <Protein>  (1) 
GPCR_5HT2C

$$$$
Pocket2Mol_48
     RDKit          3D

  0  0  0  0  0  0  0  0  0  0999 V3000
M  V30 BEGIN CTAB
M  V30 COUNTS 13 13 0 0 1
M  V30 BEGIN ATOM
M  V30 1 C 37.884276 27.513787 53.337025 0
M  V30 2 C 38.511016 27.753044 52.150456 0
M  V30 3 C 38.090782 28.530583 54.154105 0
M  V30 4 C 38.970807 29.704483 53.576281 0
M  V30 5 C 39.122932 28.925482 52.203848 0
M  V30 6 C 39.955070 29.588516 51.063400 0
M  V30 7 O 40.445137 30.704804 51.324718 0
M  V30 8 O 40.045178 28.937607 50.001413 0 CHG=-1
M  V30 9 H 37.307588 26.631090 53.570635 0
M  V30 10 H 38.506756 27.090929 51.296576 0
M  V30 11 H 37.694852 28.580942 55.158838 0
M  V30 12 H 38.427407 30.643767 53.478251 0
M  V30 13 H 39.918608 29.836407 54.099171 0
M  V30 END ATOM
M  V30 BEGIN BOND
M  V30 1 1 2 1
M  V30 2 2 3 1
M  V30 3 1 4 3
M  V30 4 2 5 2
M  V30 5 1 5 4
M  V30 6 1 6 5
M  V30 7 2 7 6
M  V30 8 1 8 6
M  V30 9 1 9 1
M  V30 10 1 10 2
M  V30 11 1 11 3
M  V30 12 1 12 4
M  V30 13 1 13 4
M  V30 END BOND
M  V30 END CTAB
M  END
>  <i_epik_Tot_Q>  (1) 
-1

>  <i_epik_Tot_abs_Q>  (1) 
1

>  <i_i_glide_confnum>  (1) 
1

>  <i_i_glide_lignum>  (1) 
51

>  <i_i_glide_posenum>  (1) 
152

>  <i_i_glide_rotatable_bonds>  (1) 
1

>  <i_lp_mmshare_version>  (1) 
72125

>  <i_m_source_file_index>  (1) 
49

>  <i_f3d_flags>  (1) 
0

>  <num_sample>  (1) 
100

>  <b_lp_Chiralities_Consistent>  (1) 
1

>  <r_epik_Charging_Adjusted_Penalty>  (1) 
0.00046806641816521339

>  <r_epik_Ionization_Penalty>  (1) 
0.00046806641816521339

>  <r_epik_Ionization_Penalty_Charging>  (1) 
0.00046806641816521339

>  <r_epik_Ionization_Penalty_Neutral>  (1) 
0

>  <r_epik_State_Penalty>  (1) 
-0

>  <r_glide_ring_energy>  (1) 
0

>  <r_i_docking_score>  (1) 
-5.0204172797891289

>  <r_i_glide_ecoul>  (1) 
0.37473179457094841

>  <r_i_glide_eff_state_penalty>  (1) 
-0

>  <r_i_glide_einternal>  (1) 
0.0039473274091132993

>  <r_i_glide_emodel>  (1) 
-20.785469274621502

>  <r_i_glide_emodel_strain>  (1) 
0

>  <r_i_glide_energy>  (1) 
-15.48688875054126

>  <r_i_glide_erotb>  (1) 
0

>  <r_i_glide_esite>  (1) 
0

>  <r_i_glide_evdw>  (1) 
-15.861620545112208

>  <r_i_glide_gscore>  (1) 
-5.0204172797891289

>  <r_i_glide_gscore_strain>  (1) 
0

>  <r_i_glide_hbond>  (1) 
0

>  <r_i_glide_ligand_efficiency>  (1) 
-0.62755215997364111

>  <r_i_glide_ligand_efficiency_ln>  (1) 
-1.6303012126836773

>  <r_i_glide_ligand_efficiency_sa>  (1) 
-1.2551043199472824

>  <r_i_glide_lipo>  (1) 
-1.441879355052494

>  <r_i_glide_metal>  (1) 
-0

>  <r_i_glide_rewards>  (1) 
-2.8416666666666668

>  <r_lp_Energy>  (1) 
4.7151909999999999

>  <r_lp_tautomer_probability>  (1) 
1

>  <s_epik_cmdline>  (1) 
J2VwaWtfcHl0aG9uJywgJy1waHQnLCAnMS4wJywgJy1waCcsICc3LjQnLCAnLXRuJywgJzgnLCAnLW1hJywgJzUwMCcsICctaW1hZScsICc8aW5maWxlLm1hZT4nLCAnLW9tYWUnLCAnPG91dGZpbGUubWFlPic=

>  <s_epik_input>  (1) 
W0NIMl0xW0NIXT1bQ0hdW0NIXT1DMUMoPU8pW09IXQ==

>  <s_glide_docking_method>  (1) 
confgen

>  <s_i_glide_gridfile>  (1) 
gpcr_5ht2c_6bqh_protein_autoprepared_prepared

>  <s_lp_Force_Field>  (1) 
S-OPLS

>  <s_lp_Variant>  (1) 
Pocket2Mol_48-1

>  <s_m_source_file>  (1) 
generated_GPCR_5HT2C_ligand_Pocket2Mol_2026-06-23_prepared.sdf

>  <GenAI_Model>  (1) 
Pocket2Mol

>  <Protein>  (1) 
GPCR_5HT2C

$$$$
Pocket2Mol_20
     RDKit          3D

  0  0  0  0  0  0  0  0  0  0999 V3000
M  V30 BEGIN CTAB
M  V30 COUNTS 10 10 0 0 1
M  V30 BEGIN ATOM
M  V30 1 C 38.704412 27.753437 52.275721 0
M  V30 2 C 38.956229 28.941214 53.029377 0
M  V30 3 C 39.245135 27.931930 51.031591 0
M  V30 4 C 39.645137 29.805043 52.220548 0
M  V30 5 N 39.810570 29.185381 51.006548 0
M  V30 6 O 40.445138 29.737753 49.928108 0 CHG=-1
M  V30 7 H 38.183525 26.868432 52.608531 0
M  V30 8 H 38.666003 29.139536 54.050230 0
M  V30 9 H 39.276521 27.288865 50.167758 0
M  V30 10 H 40.026495 30.800907 52.393059 0
M  V30 END ATOM
M  V30 BEGIN BOND
M  V30 1 1 2 1
M  V30 2 2 3 1
M  V30 3 2 4 2
M  V30 4 1 5 3
M  V30 5 1 5 4
M  V30 6 1 6 5
M  V30 7 1 7 1
M  V30 8 1 8 2
M  V30 9 1 9 3
M  V30 10 1 10 4
M  V30 END BOND
M  V30 END CTAB
M  END
>  <i_epik_Tot_Q>  (1) 
-1

>  <i_epik_Tot_abs_Q>  (1) 
1

>  <i_i_glide_confnum>  (1) 
1

>  <i_i_glide_lignum>  (1) 
23

>  <i_i_glide_posenum>  (1) 
91

>  <i_i_glide_rotatable_bonds>  (1) 
0

>  <i_lp_mmshare_version>  (1) 
72125

>  <i_m_source_file_index>  (1) 
21

>  <i_f3d_flags>  (1) 
0

>  <num_sample>  (1) 
100

>  <b_lp_Chiralities_Consistent>  (1) 
1

>  <r_epik_Charging_Adjusted_Penalty>  (1) 
0.038602441834166765

>  <r_epik_Ionization_Penalty>  (1) 
0.019301220976331968

>  <r_epik_Ionization_Penalty_Charging>  (1) 
0.019301220917083386

>  <r_epik_Ionization_Penalty_Neutral>  (1) 
5.9248581604286784e-11

>  <r_epik_State_Penalty>  (1) 
0.019301220917083379

>  <r_glide_ring_energy>  (1) 
0

>  <r_i_docking_score>  (1) 
-5.017657387266687

>  <r_i_glide_ecoul>  (1) 
-0.23461150935679392

>  <r_i_glide_eff_state_penalty>  (1) 
0.019301220917083379

>  <r_i_glide_einternal>  (1) 
0

>  <r_i_glide_emodel>  (1) 
-18.811787221179653

>  <r_i_glide_emodel_strain>  (1) 
0

>  <r_i_glide_energy>  (1) 
-13.944022244796951

>  <r_i_glide_erotb>  (1) 
0

>  <r_i_glide_esite>  (1) 
0

>  <r_i_glide_evdw>  (1) 
-13.709410735440157

>  <r_i_glide_gscore>  (1) 
-5.0369586081837703

>  <r_i_glide_gscore_strain>  (1) 
0

>  <r_i_glide_hbond>  (1) 
0

>  <r_i_glide_ligand_efficiency>  (1) 
-0.8362762312111145

>  <r_i_glide_ligand_efficiency_ln>  (1) 
-1.7973100629095786

>  <r_i_glide_ligand_efficiency_sa>  (1) 
-1.5196147610297681

>  <r_i_glide_lipo>  (1) 
-1.2575716687923233

>  <r_i_glide_metal>  (1) 
-0

>  <r_i_glide_rewards>  (1) 
-3.0587246762159199

>  <r_lp_Energy>  (1) 
1.8910769999999999

>  <r_lp_tautomer_probability>  (1) 
1

>  <s_epik_cmdline>  (1) 
J2VwaWtfcHl0aG9uJywgJy1waHQnLCAnMS4wJywgJy1waCcsICc3LjQnLCAnLXRuJywgJzgnLCAnLW1hJywgJzUwMCcsICctaW1hZScsICc8aW5maWxlLm1hZT4nLCAnLW9tYWUnLCAnPG91dGZpbGUubWFlPic=

>  <s_epik_input>  (1) 
W2NIXTFbY0hdW2NIXVtjSF1uMVtPSF0=

>  <s_glide_docking_method>  (1) 
confgen

>  <s_i_glide_gridfile>  (1) 
gpcr_5ht2c_6bqh_protein_autoprepared_prepared

>  <s_lp_Force_Field>  (1) 
S-OPLS

>  <s_lp_Variant>  (1) 
Pocket2Mol_20-1

>  <s_m_source_file>  (1) 
generated_GPCR_5HT2C_ligand_Pocket2Mol_2026-06-23_prepared.sdf

>  <GenAI_Model>  (1) 
Pocket2Mol

>  <Protein>  (1) 
GPCR_5HT2C

$$$$
Pocket2Mol_45
     RDKit          3D

  0  0  0  0  0  0  0  0  0  0999 V3000
M  V30 BEGIN CTAB
M  V30 COUNTS 15 15 0 0 1
M  V30 BEGIN ATOM
M  V30 1 C 39.645122 30.366049 52.979104 0
M  V30 2 O 38.678955 29.337756 53.202353 0
M  V30 3 C 38.681243 28.138128 52.557991 0
M  V30 4 O 38.248218 27.092797 53.034571 0
M  V30 5 C 39.258429 28.195968 51.132891 0
M  V30 6 C 40.045229 30.537758 51.512418 0
M  V30 7 C 40.414021 29.182365 50.946411 0
M  V30 8 H 39.248304 31.305620 53.364654 0
M  V30 9 H 40.524080 30.137754 53.579933 0
M  V30 10 H 39.570510 27.194619 50.834404 0
M  V30 11 H 38.445133 28.474943 50.465168 0
M  V30 12 H 39.245148 30.972150 50.916767 0
M  V30 13 H 40.883351 31.228852 51.432486 0
M  V30 14 H 41.314268 28.798829 51.422568 0
M  V30 15 H 40.637598 29.296081 49.885713 0
M  V30 END ATOM
M  V30 BEGIN BOND
M  V30 1 1 2 1
M  V30 2 1 3 2
M  V30 3 2 4 3
M  V30 4 1 5 3
M  V30 5 1 6 1
M  V30 6 1 7 5
M  V30 7 1 7 6
M  V30 8 1 8 1
M  V30 9 1 9 1
M  V30 10 1 10 5
M  V30 11 1 11 5
M  V30 12 1 12 6
M  V30 13 1 13 6
M  V30 14 1 14 7
M  V30 15 1 15 7
M  V30 END BOND
M  V30 END CTAB
M  END
>  <i_epik_Tot_Q>  (1) 
0

>  <i_epik_Tot_abs_Q>  (1) 
0

>  <i_i_glide_confnum>  (1) 
2

>  <i_i_glide_lignum>  (1) 
48

>  <i_i_glide_posenum>  (1) 
330

>  <i_i_glide_rotatable_bonds>  (1) 
0

>  <i_lp_mmshare_version>  (1) 
72125

>  <i_m_source_file_index>  (1) 
46

>  <i_f3d_flags>  (1) 
0

>  <num_sample>  (1) 
100

>  <b_lp_Chiralities_Consistent>  (1) 
1

>  <r_epik_Charging_Adjusted_Penalty>  (1) 
0

>  <r_epik_Ionization_Penalty>  (1) 
4.2138389519661579e-10

>  <r_epik_Ionization_Penalty_Charging>  (1) 
0

>  <r_epik_Ionization_Penalty_Neutral>  (1) 
4.2138389519661579e-10

>  <r_epik_State_Penalty>  (1) 
-0

>  <r_glide_ring_energy>  (1) 
0.00094626647336522524

>  <r_i_docking_score>  (1) 
-5.01504863047382

>  <r_i_glide_ecoul>  (1) 
0.033253604791689817

>  <r_i_glide_eff_state_penalty>  (1) 
-0

>  <r_i_glide_einternal>  (1) 
0

>  <r_i_glide_emodel>  (1) 
-21.852062712161509

>  <r_i_glide_emodel_strain>  (1) 
0

>  <r_i_glide_energy>  (1) 
-16.203454066349799

>  <r_i_glide_erotb>  (1) 
0

>  <r_i_glide_esite>  (1) 
0

>  <r_i_glide_evdw>  (1) 
-16.236707671141488

>  <r_i_glide_gscore>  (1) 
-5.01504863047382

>  <r_i_glide_gscore_strain>  (1) 
0

>  <r_i_glide_hbond>  (1) 
0

>  <r_i_glide_ligand_efficiency>  (1) 
-0.71643551863911714

>  <r_i_glide_ligand_efficiency_ln>  (1) 
-1.7023766431172493

>  <r_i_glide_ligand_efficiency_sa>  (1) 
-1.3704918440504765

>  <r_i_glide_lipo>  (1) 
-1.2169039237745882

>  <r_i_glide_metal>  (1) 
-0

>  <r_i_glide_rewards>  (1) 
-2.9912973638609106

>  <r_lp_Energy>  (1) 
8.5246700000000004

>  <r_lp_tautomer_probability>  (1) 
1

>  <s_epik_Chemistry_Notes>  (1) 
This compound has an ester and may undergo hydrolysis at high or low pH.

>  <s_epik_cmdline>  (1) 
J2VwaWtfcHl0aG9uJywgJy1waHQnLCAnMS4wJywgJy1waCcsICc3LjQnLCAnLXRuJywgJzgnLCAnLW1hJywgJzUwMCcsICctaW1hZScsICc8aW5maWxlLm1hZT4nLCAnLW9tYWUnLCAnPG91dGZpbGUubWFlPic=

>  <s_epik_input>  (1) 
W0NIMl0xW0NIMl1bQ0gyXVtDSDJdT0MxPU8=

>  <s_glide_docking_method>  (1) 
confgen

>  <s_i_glide_gridfile>  (1) 
gpcr_5ht2c_6bqh_protein_autoprepared_prepared

>  <s_lp_Force_Field>  (1) 
S-OPLS

>  <s_lp_Variant>  (1) 
Pocket2Mol_45-1

>  <s_m_source_file>  (1) 
generated_GPCR_5HT2C_ligand_Pocket2Mol_2026-06-23_prepared.sdf

>  <GenAI_Model>  (1) 
Pocket2Mol

>  <Protein>  (1) 
GPCR_5HT2C

$$$$
Pocket2Mol_35
     RDKit          3D

  0  0  0  0  0  0  0  0  0  0999 V3000
M  V30 BEGIN CTAB
M  V30 COUNTS 17 17 0 0 1
M  V30 BEGIN ATOM
M  V30 1 C 38.454676 28.432475 54.465504 0
M  V30 2 O 38.294652 29.730592 53.654917 0
M  V30 3 C 39.584126 30.137720 52.922978 0
M  V30 4 C 38.522791 27.149483 53.623080 0
M  V30 5 O 39.642491 27.127439 52.567830 0
M  V30 6 C 39.781333 29.509738 51.531176 0
M  V30 7 C 39.346856 28.041812 51.367517 0
M  V30 8 H 39.336951 28.501439 55.101849 0
M  V30 9 H 37.610507 28.344036 55.149358 0
M  V30 10 H 39.597781 31.221277 52.805434 0
M  V30 11 H 40.445133 29.911309 53.551869 0
M  V30 12 H 38.616983 26.283936 54.278867 0
M  V30 13 H 37.565730 27.026073 53.116223 0
M  V30 14 H 39.245488 30.104968 50.791804 0
M  V30 15 H 40.834315 29.602140 51.265111 0
M  V30 16 H 38.283422 27.999054 51.132190 0
M  V30 17 H 39.847235 27.641762 50.485654 0
M  V30 END ATOM
M  V30 BEGIN BOND
M  V30 1 1 2 1
M  V30 2 1 3 2
M  V30 3 1 4 1
M  V30 4 1 5 4
M  V30 5 1 6 3
M  V30 6 1 7 5
M  V30 7 1 7 6
M  V30 8 1 8 1
M  V30 9 1 9 1
M  V30 10 1 10 3
M  V30 11 1 11 3
M  V30 12 1 12 4
M  V30 13 1 13 4
M  V30 14 1 14 6
M  V30 15 1 15 6
M  V30 16 1 16 7
M  V30 17 1 17 7
M  V30 END BOND
M  V30 END CTAB
M  END
>  <i_epik_Tot_Q>  (1) 
0

>  <i_epik_Tot_abs_Q>  (1) 
0

>  <i_i_glide_confnum>  (1) 
8

>  <i_i_glide_lignum>  (1) 
38

>  <i_i_glide_posenum>  (1) 
301

>  <i_i_glide_rotatable_bonds>  (1) 
0

>  <i_lp_mmshare_version>  (1) 
72125

>  <i_m_source_file_index>  (1) 
36

>  <i_f3d_flags>  (1) 
0

>  <num_sample>  (1) 
100

>  <b_lp_Chiralities_Consistent>  (1) 
1

>  <r_epik_Charging_Adjusted_Penalty>  (1) 
0

>  <r_epik_Ionization_Penalty>  (1) 
3.933197540425548e-12

>  <r_epik_Ionization_Penalty_Charging>  (1) 
0

>  <r_epik_Ionization_Penalty_Neutral>  (1) 
3.933197540425548e-12

>  <r_epik_State_Penalty>  (1) 
-0

>  <r_glide_ring_energy>  (1) 
0.00055159938950669681

>  <r_i_docking_score>  (1) 
-5.0147216229924423

>  <r_i_glide_ecoul>  (1) 
-1.0584269325662741

>  <r_i_glide_eff_state_penalty>  (1) 
-0

>  <r_i_glide_einternal>  (1) 
0

>  <r_i_glide_emodel>  (1) 
-21.624291182515659

>  <r_i_glide_emodel_strain>  (1) 
7.8266708669616492e-09

>  <r_i_glide_energy>  (1) 
-16.380467078152503

>  <r_i_glide_erotb>  (1) 
0

>  <r_i_glide_esite>  (1) 
0

>  <r_i_glide_evdw>  (1) 
-15.322040145586229

>  <r_i_glide_gscore>  (1) 
-5.0147216229924423

>  <r_i_glide_gscore_strain>  (1) 
0

>  <r_i_glide_hbond>  (1) 
0

>  <r_i_glide_ligand_efficiency>  (1) 
-0.71638880328463461

>  <r_i_glide_ligand_efficiency_ln>  (1) 
-1.7022656392288644

>  <r_i_glide_ligand_efficiency_sa>  (1) 
-1.3704024807921726

>  <r_i_glide_lipo>  (1) 
-1.5311121961802154

>  <r_i_glide_metal>  (1) 
-0

>  <r_i_glide_rewards>  (1) 
-2.5587433796479737

>  <r_lp_Energy>  (1) 
9.6410049999999998

>  <r_lp_tautomer_probability>  (1) 
1

>  <s_epik_cmdline>  (1) 
J2VwaWtfcHl0aG9uJywgJy1waHQnLCAnMS4wJywgJy1waCcsICc3LjQnLCAnLXRuJywgJzgnLCAnLW1hJywgJzUwMCcsICctaW1hZScsICc8aW5maWxlLm1hZT4nLCAnLW9tYWUnLCAnPG91dGZpbGUubWFlPic=

>  <s_epik_input>  (1) 
W0NIMl0xT1tDSDJdW0NIMl1bQ0gyXU9bQ0gyXTE=

>  <s_glide_docking_method>  (1) 
confgen

>  <s_i_glide_gridfile>  (1) 
gpcr_5ht2c_6bqh_protein_autoprepared_prepared

>  <s_lp_Force_Field>  (1) 
S-OPLS

>  <s_lp_Variant>  (1) 
Pocket2Mol_35-1

>  <s_m_source_file>  (1) 
generated_GPCR_5HT2C_ligand_Pocket2Mol_2026-06-23_prepared.sdf

>  <GenAI_Model>  (1) 
Pocket2Mol

>  <Protein>  (1) 
GPCR_5HT2C

$$$$
Pocket2Mol_45
     RDKit          3D

  0  0  0  0  0  0  0  0  0  0999 V3000
M  V30 BEGIN CTAB
M  V30 COUNTS 15 15 0 0 1
M  V30 BEGIN ATOM
M  V30 1 C 39.973038 28.708621 51.192571 0
M  V30 2 O 38.669999 28.220193 51.491668 0
M  V30 3 C 38.052279 28.501092 52.670148 0
M  V30 4 O 36.918574 28.137732 52.967763 0
M  V30 5 C 38.910159 29.337636 53.631174 0
M  V30 6 C 40.045160 30.211918 51.486386 0
M  V30 7 C 39.651753 30.506043 52.949006 0
M  V30 8 H 40.717297 28.159030 51.767750 0
M  V30 9 H 40.181909 28.521479 50.139399 0
M  V30 10 H 38.288399 29.711920 54.444941 0
M  V30 11 H 39.638092 28.665473 54.085938 0
M  V30 12 H 41.037931 30.605441 51.267915 0
M  V30 13 H 39.367059 30.725402 50.804712 0
M  V30 14 H 39.053811 31.416594 52.996934 0
M  V30 15 H 40.548192 30.723282 53.529493 0
M  V30 END ATOM
M  V30 BEGIN BOND
M  V30 1 1 2 1
M  V30 2 1 3 2
M  V30 3 2 4 3
M  V30 4 1 5 3
M  V30 5 1 6 1
M  V30 6 1 7 5
M  V30 7 1 7 6
M  V30 8 1 8 1
M  V30 9 1 9 1
M  V30 10 1 10 5
M  V30 11 1 11 5
M  V30 12 1 12 6
M  V30 13 1 13 6
M  V30 14 1 14 7
M  V30 15 1 15 7
M  V30 END BOND
M  V30 END CTAB
M  END
>  <i_epik_Tot_Q>  (1) 
0

>  <i_epik_Tot_abs_Q>  (1) 
0

>  <i_i_glide_confnum>  (1) 
3

>  <i_i_glide_lignum>  (1) 
48

>  <i_i_glide_posenum>  (1) 
73

>  <i_i_glide_rotatable_bonds>  (1) 
0

>  <i_lp_mmshare_version>  (1) 
72125

>  <i_m_source_file_index>  (1) 
46

>  <i_f3d_flags>  (1) 
0

>  <num_sample>  (1) 
100

>  <b_lp_Chiralities_Consistent>  (1) 
1

>  <r_epik_Charging_Adjusted_Penalty>  (1) 
0

>  <r_epik_Ionization_Penalty>  (1) 
4.2138389519661579e-10

>  <r_epik_Ionization_Penalty_Charging>  (1) 
0

>  <r_epik_Ionization_Penalty_Neutral>  (1) 
4.2138389519661579e-10

>  <r_epik_State_Penalty>  (1) 
-0

>  <r_glide_ring_energy>  (1) 
0.70452651660711352

>  <r_i_docking_score>  (1) 
-5.0135982224153368

>  <r_i_glide_ecoul>  (1) 
0.11842542306538204

>  <r_i_glide_eff_state_penalty>  (1) 
-0

>  <r_i_glide_einternal>  (1) 
0

>  <r_i_glide_emodel>  (1) 
-22.124705499827741

>  <r_i_glide_emodel_strain>  (1) 
5.4637030899584715e-08

>  <r_i_glide_energy>  (1) 
-16.477730549341871

>  <r_i_glide_erotb>  (1) 
0

>  <r_i_glide_esite>  (1) 
0

>  <r_i_glide_evdw>  (1) 
-16.596155972407253

>  <r_i_glide_gscore>  (1) 
-5.0135982224153368

>  <r_i_glide_gscore_strain>  (1) 
0

>  <r_i_glide_hbond>  (1) 
0

>  <r_i_glide_ligand_efficiency>  (1) 
-0.71622831748790527

>  <r_i_glide_ligand_efficiency_ln>  (1) 
-1.7018842967845045

>  <r_i_glide_ligand_efficiency_sa>  (1) 
-1.3700954825072169

>  <r_i_glide_lipo>  (1) 
-1.2044777807272835

>  <r_i_glide_metal>  (1) 
-0

>  <r_i_glide_rewards>  (1) 
-2.9970764565274979

>  <r_lp_Energy>  (1) 
8.5246700000000004

>  <r_lp_tautomer_probability>  (1) 
1

>  <s_epik_Chemistry_Notes>  (1) 
This compound has an ester and may undergo hydrolysis at high or low pH.

>  <s_epik_cmdline>  (1) 
J2VwaWtfcHl0aG9uJywgJy1waHQnLCAnMS4wJywgJy1waCcsICc3LjQnLCAnLXRuJywgJzgnLCAnLW1hJywgJzUwMCcsICctaW1hZScsICc8aW5maWxlLm1hZT4nLCAnLW9tYWUnLCAnPG91dGZpbGUubWFlPic=

>  <s_epik_input>  (1) 
W0NIMl0xW0NIMl1bQ0gyXVtDSDJdT0MxPU8=

>  <s_glide_docking_method>  (1) 
confgen

>  <s_i_glide_gridfile>  (1) 
gpcr_5ht2c_6bqh_protein_autoprepared_prepared

>  <s_lp_Force_Field>  (1) 
S-OPLS

>  <s_lp_Variant>  (1) 
Pocket2Mol_45-1

>  <s_m_source_file>  (1) 
generated_GPCR_5HT2C_ligand_Pocket2Mol_2026-06-23_prepared.sdf

>  <GenAI_Model>  (1) 
Pocket2Mol

>  <Protein>  (1) 
GPCR_5HT2C

$$$$
Pocket2Mol_53
     RDKit          3D

  0  0  0  0  0  0  0  0  0  0999 V3000
M  V30 BEGIN CTAB
M  V30 COUNTS 16 16 0 0 1
M  V30 BEGIN ATOM
M  V30 1 C 37.647161 28.497487 54.513327 0
M  V30 2 C 38.491575 28.912577 53.327752 0
M  V30 3 C 38.513046 28.136775 52.159511 0
M  V30 4 C 39.304044 28.567790 51.085043 0
M  V30 5 C 40.044947 29.759313 51.222117 0
M  V30 6 C 39.270052 30.086154 53.376374 0
M  V30 7 N 40.822131 30.215962 50.166810 0
M  V30 8 N 40.044185 30.509148 52.347973 0
M  V30 9 H 36.845152 27.826403 54.201281 0
M  V30 10 H 38.261007 27.982721 55.252804 0
M  V30 11 H 37.192787 29.369373 54.986562 0
M  V30 12 H 37.930036 27.230336 52.086059 0
M  V30 13 H 39.338274 27.999421 50.167925 0
M  V30 14 H 39.274056 30.702824 54.263163 0
M  V30 15 H 40.829723 29.743054 49.277414 0
M  V30 16 H 41.314078 31.097258 50.222424 0
M  V30 END ATOM
M  V30 BEGIN BOND
M  V30 1 1 2 1
M  V30 2 1 3 2
M  V30 3 2 4 3
M  V30 4 1 5 4
M  V30 5 2 6 2
M  V30 6 1 7 5
M  V30 7 2 8 5
M  V30 8 1 8 6
M  V30 9 1 9 1
M  V30 10 1 10 1
M  V30 11 1 11 1
M  V30 12 1 12 3
M  V30 13 1 13 4
M  V30 14 1 14 6
M  V30 15 1 15 7
M  V30 16 1 16 7
M  V30 END BOND
M  V30 END CTAB
M  END
>  <i_epik_Tot_Q>  (1) 
0

>  <i_epik_Tot_abs_Q>  (1) 
0

>  <i_i_glide_confnum>  (1) 
1

>  <i_i_glide_lignum>  (1) 
56

>  <i_i_glide_posenum>  (1) 
297

>  <i_i_glide_rotatable_bonds>  (1) 
0

>  <i_lp_mmshare_version>  (1) 
72125

>  <i_m_source_file_index>  (1) 
54

>  <i_f3d_flags>  (1) 
0

>  <num_sample>  (1) 
100

>  <b_lp_Chiralities_Consistent>  (1) 
1

>  <r_epik_Charging_Adjusted_Penalty>  (1) 
0.35861937746939487

>  <r_epik_Ionization_Penalty>  (1) 
0.35867228033349524

>  <r_epik_Ionization_Penalty_Charging>  (1) 
0

>  <r_epik_Ionization_Penalty_Neutral>  (1) 
0.35867228033349524

>  <r_epik_State_Penalty>  (1) 
0.35861937746939487

>  <r_glide_ring_energy>  (1) 
0

>  <r_i_docking_score>  (1) 
-5.0092509850897375

>  <r_i_glide_ecoul>  (1) 
-0.58983657281882762

>  <r_i_glide_eff_state_penalty>  (1) 
0.35861937746939487

>  <r_i_glide_einternal>  (1) 
0

>  <r_i_glide_emodel>  (1) 
-26.671811851372063

>  <r_i_glide_emodel_strain>  (1) 
0

>  <r_i_glide_energy>  (1) 
-19.935751953923177

>  <r_i_glide_erotb>  (1) 
0

>  <r_i_glide_esite>  (1) 
0

>  <r_i_glide_evdw>  (1) 
-19.345915381104348

>  <r_i_glide_gscore>  (1) 
-5.3678703625591329

>  <r_i_glide_gscore_strain>  (1) 
0

>  <r_i_glide_hbond>  (1) 
0

>  <r_i_glide_ligand_efficiency>  (1) 
-0.62615637313621719

>  <r_i_glide_ligand_efficiency_ln>  (1) 
-1.6266751348548707

>  <r_i_glide_ligand_efficiency_sa>  (1) 
-1.2523127462724346

>  <r_i_glide_lipo>  (1) 
-1.8117322716958082

>  <r_i_glide_metal>  (1) 
-0

>  <r_i_glide_rewards>  (1) 
-2.5003668358852833

>  <r_lp_Energy>  (1) 
5.8194469999999994

>  <r_lp_tautomer_probability>  (1) 
0.99999977220005165

>  <s_epik_cmdline>  (1) 
J2VwaWtfcHl0aG9uJywgJy1waHQnLCAnMS4wJywgJy1waCcsICc3LjQnLCAnLXRuJywgJzgnLCAnLW1hJywgJzUwMCcsICctaW1hZScsICc8aW5maWxlLm1hZT4nLCAnLW9tYWUnLCAnPG91dGZpbGUubWFlPic=

>  <s_epik_input>  (1) 
W0NIM11jMVtjSF1bY0hdYyhbTkgyXSluW2NIXTE=

>  <s_glide_docking_method>  (1) 
confgen

>  <s_i_glide_gridfile>  (1) 
gpcr_5ht2c_6bqh_protein_autoprepared_prepared

>  <s_lp_Force_Field>  (1) 
S-OPLS

>  <s_lp_Variant>  (1) 
Pocket2Mol_53-1

>  <s_m_source_file>  (1) 
generated_GPCR_5HT2C_ligand_Pocket2Mol_2026-06-23_prepared.sdf

>  <GenAI_Model>  (1) 
Pocket2Mol

>  <Protein>  (1) 
GPCR_5HT2C

$$$$
Pocket2Mol_53
     RDKit          3D

  0  0  0  0  0  0  0  0  0  0999 V3000
M  V30 BEGIN CTAB
M  V30 COUNTS 16 16 0 0 1
M  V30 BEGIN ATOM
M  V30 1 C 37.517133 27.209446 53.743822 0
M  V30 2 C 38.411725 28.065226 52.870487 0
M  V30 3 C 38.822273 27.616055 51.605422 0
M  V30 4 C 39.645145 28.447755 50.834931 0
M  V30 5 C 40.029237 29.695207 51.357724 0
M  V30 6 C 38.845957 29.328947 53.312293 0
M  V30 7 N 40.838727 30.537760 50.607556 0
M  V30 8 N 39.645143 30.138358 52.577751 0
M  V30 9 H 37.264763 26.264931 53.261299 0
M  V30 10 H 38.011544 26.987605 54.689643 0
M  V30 11 H 36.588298 27.737753 53.958506 0
M  V30 12 H 38.508636 26.654013 51.230151 0
M  V30 13 H 39.974967 28.137754 49.856550 0
M  V30 14 H 38.546621 29.702382 54.280488 0
M  V30 15 H 41.134407 30.293261 49.675951 0
M  V30 16 H 41.095328 31.455786 50.943701 0
M  V30 END ATOM
M  V30 BEGIN BOND
M  V30 1 1 2 1
M  V30 2 1 3 2
M  V30 3 2 4 3
M  V30 4 1 5 4
M  V30 5 2 6 2
M  V30 6 1 7 5
M  V30 7 2 8 5
M  V30 8 1 8 6
M  V30 9 1 9 1
M  V30 10 1 10 1
M  V30 11 1 11 1
M  V30 12 1 12 3
M  V30 13 1 13 4
M  V30 14 1 14 6
M  V30 15 1 15 7
M  V30 16 1 16 7
M  V30 END BOND
M  V30 END CTAB
M  END
>  <i_epik_Tot_Q>  (1) 
0

>  <i_epik_Tot_abs_Q>  (1) 
0

>  <i_i_glide_confnum>  (1) 
1

>  <i_i_glide_lignum>  (1) 
56

>  <i_i_glide_posenum>  (1) 
236

>  <i_i_glide_rotatable_bonds>  (1) 
0

>  <i_lp_mmshare_version>  (1) 
72125

>  <i_m_source_file_index>  (1) 
54

>  <i_f3d_flags>  (1) 
0

>  <num_sample>  (1) 
100

>  <b_lp_Chiralities_Consistent>  (1) 
1

>  <r_epik_Charging_Adjusted_Penalty>  (1) 
0.35861937746939487

>  <r_epik_Ionization_Penalty>  (1) 
0.35867228033349524

>  <r_epik_Ionization_Penalty_Charging>  (1) 
0

>  <r_epik_Ionization_Penalty_Neutral>  (1) 
0.35867228033349524

>  <r_epik_State_Penalty>  (1) 
0.35861937746939487

>  <r_glide_ring_energy>  (1) 
0

>  <r_i_docking_score>  (1) 
-5.0040736547998037

>  <r_i_glide_ecoul>  (1) 
-0.60926870485943629

>  <r_i_glide_eff_state_penalty>  (1) 
0.35861937746939487

>  <r_i_glide_einternal>  (1) 
0

>  <r_i_glide_emodel>  (1) 
-26.845051810683859

>  <r_i_glide_emodel_strain>  (1) 
0

>  <r_i_glide_energy>  (1) 
-20.115488867257024

>  <r_i_glide_erotb>  (1) 
0

>  <r_i_glide_esite>  (1) 
0

>  <r_i_glide_evdw>  (1) 
-19.506220162397589

>  <r_i_glide_gscore>  (1) 
-5.362693032269199

>  <r_i_glide_gscore_strain>  (1) 
0

>  <r_i_glide_hbond>  (1) 
0

>  <r_i_glide_ligand_efficiency>  (1) 
-0.62550920684997546

>  <r_i_glide_ligand_efficiency_ln>  (1) 
-1.6249938786206284

>  <r_i_glide_ligand_efficiency_sa>  (1) 
-1.2510184136999511

>  <r_i_glide_lipo>  (1) 
-1.8891257592250197

>  <r_i_glide_metal>  (1) 
-0

>  <r_i_glide_rewards>  (1) 
-2.4068659591953847

>  <r_lp_Energy>  (1) 
5.8194469999999994

>  <r_lp_tautomer_probability>  (1) 
0.99999977220005165

>  <s_epik_cmdline>  (1) 
J2VwaWtfcHl0aG9uJywgJy1waHQnLCAnMS4wJywgJy1waCcsICc3LjQnLCAnLXRuJywgJzgnLCAnLW1hJywgJzUwMCcsICctaW1hZScsICc8aW5maWxlLm1hZT4nLCAnLW9tYWUnLCAnPG91dGZpbGUubWFlPic=

>  <s_epik_input>  (1) 
W0NIM11jMVtjSF1bY0hdYyhbTkgyXSluW2NIXTE=

>  <s_glide_docking_method>  (1) 
confgen

>  <s_i_glide_gridfile>  (1) 
gpcr_5ht2c_6bqh_protein_autoprepared_prepared

>  <s_lp_Force_Field>  (1) 
S-OPLS

>  <s_lp_Variant>  (1) 
Pocket2Mol_53-1

>  <s_m_source_file>  (1) 
generated_GPCR_5HT2C_ligand_Pocket2Mol_2026-06-23_prepared.sdf

>  <GenAI_Model>  (1) 
Pocket2Mol

>  <Protein>  (1) 
GPCR_5HT2C

$$$$
Pocket2Mol_61
     RDKit          3D

  0  0  0  0  0  0  0  0  0  0999 V3000
M  V30 BEGIN CTAB
M  V30 COUNTS 16 16 0 0 1
M  V30 BEGIN ATOM
M  V30 1 C 40.132823 27.319695 57.516610 0
M  V30 2 C 39.587998 27.244821 56.093366 0
M  V30 3 C 39.227364 26.384398 58.323138 0
M  V30 4 C 38.434327 25.570445 57.292096 0
M  V30 5 N 39.139804 25.859335 56.048033 0
M  V30 6 N 38.107418 25.756049 54.923679 0 CHG=1
M  V30 7 O 38.225967 26.538183 53.982795 0 CHG=-1
M  V30 8 O 37.246241 24.887189 55.037616 0
M  V30 9 H 41.159651 26.949846 57.537610 0
M  V30 10 H 40.139353 28.338240 57.905774 0
M  V30 11 H 40.342356 27.467062 55.339267 0
M  V30 12 H 38.750600 27.937134 55.985666 0
M  V30 13 H 38.548089 26.947759 58.964051 0
M  V30 14 H 39.820900 25.738509 58.967680 0
M  V30 15 H 37.409295 25.945700 57.265479 0
M  V30 16 H 38.414255 24.502220 57.511243 0
M  V30 END ATOM
M  V30 BEGIN BOND
M  V30 1 1 2 1
M  V30 2 1 3 1
M  V30 3 1 4 3
M  V30 4 1 5 2
M  V30 5 1 5 4
M  V30 6 1 6 5
M  V30 7 1 7 6
M  V30 8 2 8 6
M  V30 9 1 9 1
M  V30 10 1 10 1
M  V30 11 1 11 2
M  V30 12 1 12 2
M  V30 13 1 13 3
M  V30 14 1 14 3
M  V30 15 1 15 4
M  V30 16 1 16 4
M  V30 END BOND
M  V30 END CTAB
M  END
>  <i_epik_Tot_Q>  (1) 
0

>  <i_epik_Tot_abs_Q>  (1) 
2

>  <i_i_glide_confnum>  (1) 
1

>  <i_i_glide_lignum>  (1) 
65

>  <i_i_glide_posenum>  (1) 
275

>  <i_i_glide_rotatable_bonds>  (1) 
1

>  <i_lp_mmshare_version>  (1) 
72125

>  <i_m_source_file_index>  (1) 
62

>  <i_f3d_flags>  (1) 
0

>  <num_sample>  (1) 
100

>  <b_lp_Chiralities_Consistent>  (1) 
1

>  <r_epik_Charging_Adjusted_Penalty>  (1) 
0

>  <r_epik_Ionization_Penalty>  (1) 
5.9201220630741648e-14

>  <r_epik_Ionization_Penalty_Charging>  (1) 
0

>  <r_epik_Ionization_Penalty_Neutral>  (1) 
5.9201220630741648e-14

>  <r_epik_State_Penalty>  (1) 
-0

>  <r_glide_ring_energy>  (1) 
0

>  <r_i_docking_score>  (1) 
-4.9991486111783772

>  <r_i_glide_ecoul>  (1) 
0.27197812796522786

>  <r_i_glide_eff_state_penalty>  (1) 
-0

>  <r_i_glide_einternal>  (1) 
0.034562715693997825

>  <r_i_glide_emodel>  (1) 
-21.579599008551501

>  <r_i_glide_emodel_strain>  (1) 
0.00099046380709211235

>  <r_i_glide_energy>  (1) 
-16.294040921367664

>  <r_i_glide_erotb>  (1) 
0

>  <r_i_glide_esite>  (1) 
0

>  <r_i_glide_evdw>  (1) 
-16.56601904933289

>  <r_i_glide_gscore>  (1) 
-4.9991486111783772

>  <r_i_glide_gscore_strain>  (1) 
0

>  <r_i_glide_hbond>  (1) 
0

>  <r_i_glide_ligand_efficiency>  (1) 
-0.62489357639729715

>  <r_i_glide_ligand_efficiency_ln>  (1) 
-1.6233945484970438

>  <r_i_glide_ligand_efficiency_sa>  (1) 
-1.2497871527945945

>  <r_i_glide_lipo>  (1) 
-1.0769115290938467

>  <r_i_glide_metal>  (1) 
-0

>  <r_i_glide_rewards>  (1) 
-3.1347328488126696

>  <r_lp_Energy>  (1) 
26.171151999999999

>  <r_lp_tautomer_probability>  (1) 
1

>  <s_epik_cmdline>  (1) 
J2VwaWtfcHl0aG9uJywgJy1waHQnLCAnMS4wJywgJy1waCcsICc3LjQnLCAnLXRuJywgJzgnLCAnLW1hJywgJzUwMCcsICctaW1hZScsICc8aW5maWxlLm1hZT4nLCAnLW9tYWUnLCAnPG91dGZpbGUubWFlPic=

>  <s_epik_input>  (1) 
W0NIMl0xW0NIMl1bQ0gyXVtDSDJdTjFbTitdKFtPLV0pPU8=

>  <s_glide_docking_method>  (1) 
confgen

>  <s_i_glide_gridfile>  (1) 
gpcr_5ht2c_6bqh_protein_autoprepared_prepared

>  <s_lp_Force_Field>  (1) 
S-OPLS

>  <s_lp_Variant>  (1) 
Pocket2Mol_61-1

>  <s_m_source_file>  (1) 
generated_GPCR_5HT2C_ligand_Pocket2Mol_2026-06-23_prepared.sdf

>  <GenAI_Model>  (1) 
Pocket2Mol

>  <Protein>  (1) 
GPCR_5HT2C

$$$$
Pocket2Mol_17
     RDKit          3D

  0  0  0  0  0  0  0  0  0  0999 V3000
M  V30 BEGIN CTAB
M  V30 COUNTS 16 16 0 0 1
M  V30 BEGIN ATOM
M  V30 1 C 39.245139 27.380077 52.230762 0
M  V30 2 C 39.577671 28.323531 51.075055 0
M  V30 3 C 38.567324 28.257227 53.280950 0
M  V30 4 C 39.787786 29.704607 51.705709 0
M  V30 5 C 39.226288 29.637079 53.138302 0
M  V30 6 O 37.196343 28.345582 52.967762 0
M  V30 7 H 40.162423 26.966067 52.646529 0
M  V30 8 H 38.634256 26.537757 51.914077 0
M  V30 9 H 40.444434 27.989376 50.505671 0
M  V30 10 H 38.733284 28.365874 50.386977 0
M  V30 11 H 38.674255 27.849290 54.286879 0
M  V30 12 H 40.845137 29.957801 51.730581 0
M  V30 13 H 39.296236 30.470736 51.106894 0
M  V30 14 H 38.535009 30.449796 53.367752 0
M  V30 15 H 40.045137 29.737056 53.850570 0
M  V30 16 H 36.870288 27.472801 52.800934 0
M  V30 END ATOM
M  V30 BEGIN BOND
M  V30 1 1 2 1
M  V30 2 1 3 1
M  V30 3 1 4 2
M  V30 4 1 5 3
M  V30 5 1 5 4
M  V30 6 1 6 3
M  V30 7 1 7 1
M  V30 8 1 8 1
M  V30 9 1 9 2
M  V30 10 1 10 2
M  V30 11 1 11 3
M  V30 12 1 12 4
M  V30 13 1 13 4
M  V30 14 1 14 5
M  V30 15 1 15 5
M  V30 16 1 16 6
M  V30 END BOND
M  V30 END CTAB
M  END
>  <i_epik_Tot_Q>  (1) 
0

>  <i_epik_Tot_abs_Q>  (1) 
0

>  <i_i_glide_confnum>  (1) 
4

>  <i_i_glide_lignum>  (1) 
20

>  <i_i_glide_posenum>  (1) 
344

>  <i_i_glide_rotatable_bonds>  (1) 
1

>  <i_lp_mmshare_version>  (1) 
72125

>  <i_m_source_file_index>  (1) 
18

>  <i_f3d_flags>  (1) 
0

>  <num_sample>  (1) 
100

>  <b_lp_Chiralities_Consistent>  (1) 
1

>  <r_epik_Charging_Adjusted_Penalty>  (1) 
0

>  <r_epik_Ionization_Penalty>  (1) 
4.538991431931509e-07

>  <r_epik_Ionization_Penalty_Charging>  (1) 
0

>  <r_epik_Ionization_Penalty_Neutral>  (1) 
4.538991431931509e-07

>  <r_epik_State_Penalty>  (1) 
-0

>  <r_glide_ring_energy>  (1) 
0.38828123220255384

>  <r_i_docking_score>  (1) 
-4.9962010255467186

>  <r_i_glide_ecoul>  (1) 
-1.4996756778129952

>  <r_i_glide_eff_state_penalty>  (1) 
-0

>  <r_i_glide_einternal>  (1) 
0.4703400382039703

>  <r_i_glide_emodel>  (1) 
-20.270006889688506

>  <r_i_glide_emodel_strain>  (1) 
0.001375535238690162

>  <r_i_glide_energy>  (1) 
-15.598430148500245

>  <r_i_glide_erotb>  (1) 
0

>  <r_i_glide_esite>  (1) 
0

>  <r_i_glide_evdw>  (1) 
-14.098754470687251

>  <r_i_glide_gscore>  (1) 
-4.9962010255467186

>  <r_i_glide_gscore_strain>  (1) 
0

>  <r_i_glide_hbond>  (1) 
-0.058430447681849754

>  <r_i_glide_ligand_efficiency>  (1) 
-0.83270017092445314

>  <r_i_glide_ligand_efficiency_ln>  (1) 
-1.7896244574853042

>  <r_i_glide_ligand_efficiency_sa>  (1) 
-1.5131166282416664

>  <r_i_glide_lipo>  (1) 
-1.5373536531007612

>  <r_i_glide_metal>  (1) 
-0

>  <r_i_glide_rewards>  (1) 
-2.4705278495577958

>  <r_lp_Energy>  (1) 
8.9029089999999993

>  <r_lp_tautomer_probability>  (1) 
1

>  <s_epik_cmdline>  (1) 
J2VwaWtfcHl0aG9uJywgJy1waHQnLCAnMS4wJywgJy1waCcsICc3LjQnLCAnLXRuJywgJzgnLCAnLW1hJywgJzUwMCcsICctaW1hZScsICc8aW5maWxlLm1hZT4nLCAnLW9tYWUnLCAnPG91dGZpbGUubWFlPic=

>  <s_epik_input>  (1) 
W09IXVtDSF0xW0NIMl1bQ0gyXVtDSDJdW0NIMl0x

>  <s_glide_docking_method>  (1) 
confgen

>  <s_i_glide_gridfile>  (1) 
gpcr_5ht2c_6bqh_protein_autoprepared_prepared

>  <s_lp_Force_Field>  (1) 
S-OPLS

>  <s_lp_Variant>  (1) 
Pocket2Mol_17-1

>  <s_m_source_file>  (1) 
generated_GPCR_5HT2C_ligand_Pocket2Mol_2026-06-23_prepared.sdf

>  <GenAI_Model>  (1) 
Pocket2Mol

>  <Protein>  (1) 
GPCR_5HT2C

$$$$
Pocket2Mol_24
     RDKit          3D

  0  0  0  0  0  0  0  0  0  0999 V3000
M  V30 BEGIN CTAB
M  V30 COUNTS 11 11 0 0 1
M  V30 BEGIN ATOM
M  V30 1 C 38.627138 28.607777 53.594333 0
M  V30 2 C 39.245137 29.737751 52.967756 0
M  V30 3 C 39.645499 29.439750 51.697576 0
M  V30 4 C 40.323205 30.319966 50.703025 0
M  V30 5 N 38.561486 27.515464 52.856811 0
M  V30 6 S 39.245042 27.798582 51.346040 0
M  V30 7 H 38.223730 28.580148 54.595857 0
M  V30 8 H 39.365692 30.692525 53.458486 0
M  V30 9 H 40.487183 31.317933 51.111173 0
M  V30 10 H 41.292874 29.910250 50.422550 0
M  V30 11 H 39.720936 30.419636 49.799673 0
M  V30 END ATOM
M  V30 BEGIN BOND
M  V30 1 1 2 1
M  V30 2 2 3 2
M  V30 3 1 4 3
M  V30 4 2 5 1
M  V30 5 1 6 3
M  V30 6 1 6 5
M  V30 7 1 7 1
M  V30 8 1 8 2
M  V30 9 1 9 4
M  V30 10 1 10 4
M  V30 11 1 11 4
M  V30 END BOND
M  V30 END CTAB
M  END
>  <i_epik_Tot_Q>  (1) 
0

>  <i_epik_Tot_abs_Q>  (1) 
0

>  <i_i_glide_confnum>  (1) 
1

>  <i_i_glide_lignum>  (1) 
27

>  <i_i_glide_posenum>  (1) 
246

>  <i_i_glide_rotatable_bonds>  (1) 
0

>  <i_lp_mmshare_version>  (1) 
72125

>  <i_m_source_file_index>  (1) 
25

>  <i_f3d_flags>  (1) 
0

>  <num_sample>  (1) 
100

>  <b_lp_Chiralities_Consistent>  (1) 
1

>  <r_epik_Charging_Adjusted_Penalty>  (1) 
0

>  <r_epik_Ionization_Penalty>  (1) 
2.7081824038816109e-08

>  <r_epik_Ionization_Penalty_Charging>  (1) 
0

>  <r_epik_Ionization_Penalty_Neutral>  (1) 
2.7081824038816109e-08

>  <r_epik_State_Penalty>  (1) 
-0

>  <r_glide_ring_energy>  (1) 
0

>  <r_i_docking_score>  (1) 
-4.995322901985622

>  <r_i_glide_ecoul>  (1) 
-0.25902923629881469

>  <r_i_glide_eff_state_penalty>  (1) 
-0

>  <r_i_glide_einternal>  (1) 
0

>  <r_i_glide_emodel>  (1) 
-23.742828181153744

>  <r_i_glide_emodel_strain>  (1) 
0

>  <r_i_glide_energy>  (1) 
-18.163560725338982

>  <r_i_glide_erotb>  (1) 
0

>  <r_i_glide_esite>  (1) 
0

>  <r_i_glide_evdw>  (1) 
-17.904531489040167

>  <r_i_glide_gscore>  (1) 
-4.995322901985622

>  <r_i_glide_gscore_strain>  (1) 
0

>  <r_i_glide_hbond>  (1) 
0

>  <r_i_glide_ligand_efficiency>  (1) 
-0.83255381699760367

>  <r_i_glide_ligand_efficiency_ln>  (1) 
-1.7893099162181301

>  <r_i_glide_ligand_efficiency_sa>  (1) 
-1.5128506855073465

>  <r_i_glide_lipo>  (1) 
-1.5111958562192562

>  <r_i_glide_metal>  (1) 
-0

>  <r_i_glide_rewards>  (1) 
-2.5500460858695355

>  <r_lp_Energy>  (1) 
1.924183

>  <r_lp_tautomer_probability>  (1) 
1

>  <s_epik_cmdline>  (1) 
J2VwaWtfcHl0aG9uJywgJy1waHQnLCAnMS4wJywgJy1waCcsICc3LjQnLCAnLXRuJywgJzgnLCAnLW1hJywgJzUwMCcsICctaW1hZScsICc8aW5maWxlLm1hZT4nLCAnLW9tYWUnLCAnPG91dGZpbGUubWFlPic=

>  <s_epik_input>  (1) 
czFuW2NIXVtjSF1jMVtDSDNd

>  <s_glide_docking_method>  (1) 
confgen

>  <s_i_glide_gridfile>  (1) 
gpcr_5ht2c_6bqh_protein_autoprepared_prepared

>  <s_lp_Force_Field>  (1) 
S-OPLS

>  <s_lp_Variant>  (1) 
Pocket2Mol_24-1

>  <s_m_source_file>  (1) 
generated_GPCR_5HT2C_ligand_Pocket2Mol_2026-06-23_prepared.sdf

>  <GenAI_Model>  (1) 
Pocket2Mol

>  <Protein>  (1) 
GPCR_5HT2C

$$$$
Pocket2Mol_20
     RDKit          3D

  0  0  0  0  0  0  0  0  0  0999 V3000
M  V30 BEGIN CTAB
M  V30 COUNTS 10 10 0 0 1
M  V30 BEGIN ATOM
M  V30 1 C 40.045085 29.337756 50.167757 0
M  V30 2 C 39.478430 28.137754 50.701231 0
M  V30 3 C 40.135077 30.241388 51.189874 0
M  V30 4 C 39.241469 28.349519 52.030946 0
M  V30 5 N 39.645138 29.630975 52.318606 0
M  V30 6 O 39.571433 30.213489 53.551042 0 CHG=-1
M  V30 7 H 40.350165 29.516632 49.147989 0
M  V30 8 H 39.267270 27.222359 50.167760 0
M  V30 9 H 40.500470 31.257497 51.220461 0
M  V30 10 H 38.825682 27.711616 52.796382 0
M  V30 END ATOM
M  V30 BEGIN BOND
M  V30 1 1 2 1
M  V30 2 2 3 1
M  V30 3 2 4 2
M  V30 4 1 5 3
M  V30 5 1 5 4
M  V30 6 1 6 5
M  V30 7 1 7 1
M  V30 8 1 8 2
M  V30 9 1 9 3
M  V30 10 1 10 4
M  V30 END BOND
M  V30 END CTAB
M  END
>  <i_epik_Tot_Q>  (1) 
-1

>  <i_epik_Tot_abs_Q>  (1) 
1

>  <i_i_glide_confnum>  (1) 
1

>  <i_i_glide_lignum>  (1) 
23

>  <i_i_glide_posenum>  (1) 
110

>  <i_i_glide_rotatable_bonds>  (1) 
0

>  <i_lp_mmshare_version>  (1) 
72125

>  <i_m_source_file_index>  (1) 
21

>  <i_f3d_flags>  (1) 
0

>  <num_sample>  (1) 
100

>  <b_lp_Chiralities_Consistent>  (1) 
1

>  <r_epik_Charging_Adjusted_Penalty>  (1) 
0.038602441834166765

>  <r_epik_Ionization_Penalty>  (1) 
0.019301220976331968

>  <r_epik_Ionization_Penalty_Charging>  (1) 
0.019301220917083386

>  <r_epik_Ionization_Penalty_Neutral>  (1) 
5.9248581604286784e-11

>  <r_epik_State_Penalty>  (1) 
0.019301220917083379

>  <r_glide_ring_energy>  (1) 
0

>  <r_i_docking_score>  (1) 
-4.990095968818113

>  <r_i_glide_ecoul>  (1) 
-0.18796641025645955

>  <r_i_glide_eff_state_penalty>  (1) 
0.019301220917083379

>  <r_i_glide_einternal>  (1) 
0

>  <r_i_glide_emodel>  (1) 
-18.626892210391215

>  <r_i_glide_emodel_strain>  (1) 
0

>  <r_i_glide_energy>  (1) 
-13.785762852416299

>  <r_i_glide_erotb>  (1) 
0

>  <r_i_glide_esite>  (1) 
0

>  <r_i_glide_evdw>  (1) 
-13.59779644215984

>  <r_i_glide_gscore>  (1) 
-5.0093971897351963

>  <r_i_glide_gscore_strain>  (1) 
0

>  <r_i_glide_hbond>  (1) 
0

>  <r_i_glide_ligand_efficiency>  (1) 
-0.8316826614696855

>  <r_i_glide_ligand_efficiency_ln>  (1) 
-1.7874376441885649

>  <r_i_glide_ligand_efficiency_sa>  (1) 
-1.5112676908580067

>  <r_i_glide_lipo>  (1) 
-1.2617866336340786

>  <r_i_glide_metal>  (1) 
-0

>  <r_i_glide_rewards>  (1) 
-3.0395257724546565

>  <r_lp_Energy>  (1) 
1.8910769999999999

>  <r_lp_tautomer_probability>  (1) 
1

>  <s_epik_cmdline>  (1) 
J2VwaWtfcHl0aG9uJywgJy1waHQnLCAnMS4wJywgJy1waCcsICc3LjQnLCAnLXRuJywgJzgnLCAnLW1hJywgJzUwMCcsICctaW1hZScsICc8aW5maWxlLm1hZT4nLCAnLW9tYWUnLCAnPG91dGZpbGUubWFlPic=

>  <s_epik_input>  (1) 
W2NIXTFbY0hdW2NIXVtjSF1uMVtPSF0=

>  <s_glide_docking_method>  (1) 
confgen

>  <s_i_glide_gridfile>  (1) 
gpcr_5ht2c_6bqh_protein_autoprepared_prepared

>  <s_lp_Force_Field>  (1) 
S-OPLS

>  <s_lp_Variant>  (1) 
Pocket2Mol_20-1

>  <s_m_source_file>  (1) 
generated_GPCR_5HT2C_ligand_Pocket2Mol_2026-06-23_prepared.sdf

>  <GenAI_Model>  (1) 
Pocket2Mol

>  <Protein>  (1) 
GPCR_5HT2C

$$$$
Pocket2Mol_43
     RDKit          3D

  0  0  0  0  0  0  0  0  0  0999 V3000
M  V30 BEGIN CTAB
M  V30 COUNTS 15 15 0 0 1
M  V30 BEGIN ATOM
M  V30 1 C 38.451390 27.584210 52.909403 0
M  V30 2 O 37.987749 28.770732 53.524702 0
M  V30 3 C 39.025664 29.667694 53.886842 0
M  V30 4 C 38.833952 27.877093 51.460666 0
M  V30 5 O 40.103584 28.498228 51.367906 0
M  V30 6 C 39.645124 30.420713 52.718520 0
M  V30 7 C 40.126504 29.848794 51.594892 0
M  V30 8 H 39.270344 27.122256 53.462889 0
M  V30 9 H 37.625312 26.873299 52.920561 0
M  V30 10 H 39.793288 29.177875 54.485844 0
M  V30 11 H 38.573831 30.415453 54.538951 0
M  V30 12 H 38.898504 26.937752 50.911217 0
M  V30 13 H 38.061809 28.468483 50.967766 0
M  V30 14 H 39.702122 31.493986 52.824355 0
M  V30 15 H 40.571344 30.394779 50.775286 0
M  V30 END ATOM
M  V30 BEGIN BOND
M  V30 1 1 2 1
M  V30 2 1 3 2
M  V30 3 1 4 1
M  V30 4 1 5 4
M  V30 5 1 6 3
M  V30 6 1 7 5
M  V30 7 2 7 6
M  V30 8 1 8 1
M  V30 9 1 9 1
M  V30 10 1 10 3
M  V30 11 1 11 3
M  V30 12 1 12 4
M  V30 13 1 13 4
M  V30 14 1 14 6
M  V30 15 1 15 7
M  V30 END BOND
M  V30 END CTAB
M  END
>  <i_epik_Tot_Q>  (1) 
0

>  <i_epik_Tot_abs_Q>  (1) 
0

>  <i_i_glide_confnum>  (1) 
1

>  <i_i_glide_lignum>  (1) 
46

>  <i_i_glide_posenum>  (1) 
43

>  <i_i_glide_rotatable_bonds>  (1) 
0

>  <i_lp_mmshare_version>  (1) 
72125

>  <i_m_source_file_index>  (1) 
44

>  <i_f3d_flags>  (1) 
0

>  <num_sample>  (1) 
100

>  <b_lp_Chiralities_Consistent>  (1) 
1

>  <r_epik_Charging_Adjusted_Penalty>  (1) 
0

>  <r_epik_Ionization_Penalty>  (1) 
5.6701613537443791e-14

>  <r_epik_Ionization_Penalty_Charging>  (1) 
0

>  <r_epik_Ionization_Penalty_Neutral>  (1) 
5.6701613537443791e-14

>  <r_epik_State_Penalty>  (1) 
-0

>  <r_glide_ring_energy>  (1) 
0

>  <r_i_docking_score>  (1) 
-4.9800603660043734

>  <r_i_glide_ecoul>  (1) 
-1.3251893926198646

>  <r_i_glide_eff_state_penalty>  (1) 
-0

>  <r_i_glide_einternal>  (1) 
0

>  <r_i_glide_emodel>  (1) 
-21.906511480799189

>  <r_i_glide_emodel_strain>  (1) 
0

>  <r_i_glide_energy>  (1) 
-16.799641022716123

>  <r_i_glide_erotb>  (1) 
0

>  <r_i_glide_esite>  (1) 
0

>  <r_i_glide_evdw>  (1) 
-15.474451630096258

>  <r_i_glide_gscore>  (1) 
-4.9800603660043734

>  <r_i_glide_gscore_strain>  (1) 
0

>  <r_i_glide_hbond>  (1) 
0

>  <r_i_glide_ligand_efficiency>  (1) 
-0.71143719514348192

>  <r_i_glide_ligand_efficiency_ln>  (1) 
-1.6904997484737836

>  <r_i_glide_ligand_efficiency_sa>  (1) 
-1.3609303951740919

>  <r_i_glide_lipo>  (1) 
-1.512730565821252

>  <r_i_glide_metal>  (1) 
-0

>  <r_i_glide_rewards>  (1) 
-2.4948288097853282

>  <r_lp_Energy>  (1) 
7.3473649999999999

>  <r_lp_tautomer_probability>  (1) 
1

>  <s_epik_cmdline>  (1) 
J2VwaWtfcHl0aG9uJywgJy1waHQnLCAnMS4wJywgJy1waCcsICc3LjQnLCAnLXRuJywgJzgnLCAnLW1hJywgJzUwMCcsICctaW1hZScsICc8aW5maWxlLm1hZT4nLCAnLW9tYWUnLCAnPG91dGZpbGUubWFlPic=

>  <s_epik_input>  (1) 
W0NIMl0xT1tDSDJdW0NIXT1bQ0hdT1tDSDJdMQ==

>  <s_glide_docking_method>  (1) 
confgen

>  <s_i_glide_gridfile>  (1) 
gpcr_5ht2c_6bqh_protein_autoprepared_prepared

>  <s_lp_Force_Field>  (1) 
S-OPLS

>  <s_lp_Variant>  (1) 
Pocket2Mol_43-1

>  <s_m_source_file>  (1) 
generated_GPCR_5HT2C_ligand_Pocket2Mol_2026-06-23_prepared.sdf

>  <GenAI_Model>  (1) 
Pocket2Mol

>  <Protein>  (1) 
GPCR_5HT2C

$$$$
Pocket2Mol_16
     RDKit          3D

  0  0  0  0  0  0  0  0  0  0999 V3000
M  V30 BEGIN CTAB
M  V30 COUNTS 18 18 0 0 1
M  V30 BEGIN ATOM
M  V30 1 C 39.038464 27.338256 52.331967 0
M  V30 2 C 38.178461 27.129409 53.585888 0
M  V30 3 C 38.925012 28.824477 52.007965 0
M  V30 4 C 37.974862 28.519436 54.207115 0
M  V30 5 C 38.845136 29.477145 53.389705 0
M  V30 6 C 40.045136 29.357483 51.103826 0
M  V30 7 H 38.731169 26.710819 51.495099 0
M  V30 8 H 40.069931 27.084630 52.567455 0
M  V30 9 H 37.214521 26.692143 53.324532 0
M  V30 10 H 38.665906 26.444543 54.280824 0
M  V30 11 H 37.971468 28.974152 51.502708 0
M  V30 12 H 36.927123 28.808749 54.117202 0
M  V30 13 H 38.227089 28.542371 55.267744 0
M  V30 14 H 39.837466 29.542453 53.835122 0
M  V30 15 H 38.439065 30.488245 53.367743 0
M  V30 16 H 41.028825 29.188861 51.539434 0
M  V30 17 H 39.934738 30.428443 50.932380 0
M  V30 18 H 40.023635 28.864189 50.131787 0
M  V30 END ATOM
M  V30 BEGIN BOND
M  V30 1 1 2 1
M  V30 2 1 3 1
M  V30 3 1 4 2
M  V30 4 1 5 3
M  V30 5 1 5 4
M  V30 6 1 6 3
M  V30 7 1 7 1
M  V30 8 1 8 1
M  V30 9 1 9 2
M  V30 10 1 10 2
M  V30 11 1 11 3
M  V30 12 1 12 4
M  V30 13 1 13 4
M  V30 14 1 14 5
M  V30 15 1 15 5
M  V30 16 1 16 6
M  V30 17 1 17 6
M  V30 18 1 18 6
M  V30 END BOND
M  V30 END CTAB
M  END
>  <i_epik_Tot_Q>  (1) 
0

>  <i_epik_Tot_abs_Q>  (1) 
0

>  <i_i_glide_confnum>  (1) 
4

>  <i_i_glide_lignum>  (1) 
19

>  <i_i_glide_posenum>  (1) 
270

>  <i_i_glide_rotatable_bonds>  (1) 
0

>  <i_lp_mmshare_version>  (1) 
72125

>  <i_m_source_file_index>  (1) 
17

>  <i_f3d_flags>  (1) 
0

>  <num_sample>  (1) 
100

>  <b_lp_Chiralities_Consistent>  (1) 
1

>  <r_epik_Charging_Adjusted_Penalty>  (1) 
0

>  <r_epik_Ionization_Penalty>  (1) 
0

>  <r_epik_Ionization_Penalty_Charging>  (1) 
0

>  <r_epik_Ionization_Penalty_Neutral>  (1) 
0

>  <r_epik_State_Penalty>  (1) 
-0

>  <r_glide_ring_energy>  (1) 
1.1090637560940064

>  <r_i_docking_score>  (1) 
-4.9775586169726687

>  <r_i_glide_ecoul>  (1) 
0.062671087840906248

>  <r_i_glide_eff_state_penalty>  (1) 
-0

>  <r_i_glide_einternal>  (1) 
0

>  <r_i_glide_emodel>  (1) 
-20.127581785268852

>  <r_i_glide_emodel_strain>  (1) 
0

>  <r_i_glide_energy>  (1) 
-15.244432868367534

>  <r_i_glide_erotb>  (1) 
0

>  <r_i_glide_esite>  (1) 
0

>  <r_i_glide_evdw>  (1) 
-15.30710395620844

>  <r_i_glide_gscore>  (1) 
-4.9775586169726687

>  <r_i_glide_gscore_strain>  (1) 
0

>  <r_i_glide_hbond>  (1) 
0

>  <r_i_glide_ligand_efficiency>  (1) 
-0.82959310282877807

>  <r_i_glide_ligand_efficiency_ln>  (1) 
-1.7829468017704999

>  <r_i_glide_ligand_efficiency_sa>  (1) 
-1.5074707108216836

>  <r_i_glide_lipo>  (1) 
-1.8113652065299444

>  <r_i_glide_metal>  (1) 
-0

>  <r_i_glide_rewards>  (1) 
-2.4102388758084379

>  <r_lp_Energy>  (1) 
6.4120089999999994

>  <r_lp_tautomer_probability>  (1) 
1

>  <s_epik_cmdline>  (1) 
J2VwaWtfcHl0aG9uJywgJy1waHQnLCAnMS4wJywgJy1waCcsICc3LjQnLCAnLXRuJywgJzgnLCAnLW1hJywgJzUwMCcsICctaW1hZScsICc8aW5maWxlLm1hZT4nLCAnLW9tYWUnLCAnPG91dGZpbGUubWFlPic=

>  <s_epik_input>  (1) 
W0NIM11bQ0hdMVtDSDJdW0NIMl1bQ0gyXVtDSDJdMQ==

>  <s_glide_docking_method>  (1) 
confgen

>  <s_i_glide_gridfile>  (1) 
gpcr_5ht2c_6bqh_protein_autoprepared_prepared

>  <s_lp_Force_Field>  (1) 
S-OPLS

>  <s_lp_Variant>  (1) 
Pocket2Mol_16-1

>  <s_m_source_file>  (1) 
generated_GPCR_5HT2C_ligand_Pocket2Mol_2026-06-23_prepared.sdf

>  <GenAI_Model>  (1) 
Pocket2Mol

>  <Protein>  (1) 
GPCR_5HT2C

$$$$
Pocket2Mol_20
     RDKit          3D

  0  0  0  0  0  0  0  0  0  0999 V3000
M  V30 BEGIN CTAB
M  V30 COUNTS 10 10 0 0 1
M  V30 BEGIN ATOM
M  V30 1 C 40.094261 30.298448 51.265241 0
M  V30 2 C 40.045134 29.289485 50.255226 0
M  V30 3 C 39.645138 29.737830 52.430574 0
M  V30 4 C 39.567453 28.145073 50.837392 0
M  V30 5 N 39.326974 28.428562 52.159016 0
M  V30 6 O 38.845077 27.535480 53.074512 0 CHG=-1
M  V30 7 H 40.423115 31.321096 51.149926 0
M  V30 8 H 40.326457 29.391250 49.217760 0
M  V30 9 H 39.522619 30.146450 53.422357 0
M  V30 10 H 39.376794 27.160335 50.436010 0
M  V30 END ATOM
M  V30 BEGIN BOND
M  V30 1 1 2 1
M  V30 2 2 3 1
M  V30 3 2 4 2
M  V30 4 1 5 3
M  V30 5 1 5 4
M  V30 6 1 6 5
M  V30 7 1 7 1
M  V30 8 1 8 2
M  V30 9 1 9 3
M  V30 10 1 10 4
M  V30 END BOND
M  V30 END CTAB
M  END
>  <i_epik_Tot_Q>  (1) 
-1

>  <i_epik_Tot_abs_Q>  (1) 
1

>  <i_i_glide_confnum>  (1) 
1

>  <i_i_glide_lignum>  (1) 
23

>  <i_i_glide_posenum>  (1) 
10

>  <i_i_glide_rotatable_bonds>  (1) 
0

>  <i_lp_mmshare_version>  (1) 
72125

>  <i_m_source_file_index>  (1) 
21

>  <i_f3d_flags>  (1) 
0

>  <num_sample>  (1) 
100

>  <b_lp_Chiralities_Consistent>  (1) 
1

>  <r_epik_Charging_Adjusted_Penalty>  (1) 
0.038602441834166765

>  <r_epik_Ionization_Penalty>  (1) 
0.019301220976331968

>  <r_epik_Ionization_Penalty_Charging>  (1) 
0.019301220917083386

>  <r_epik_Ionization_Penalty_Neutral>  (1) 
5.9248581604286784e-11

>  <r_epik_State_Penalty>  (1) 
0.019301220917083379

>  <r_glide_ring_energy>  (1) 
0

>  <r_i_docking_score>  (1) 
-4.9757454167332362

>  <r_i_glide_ecoul>  (1) 
-0.13534368597503077

>  <r_i_glide_eff_state_penalty>  (1) 
0.019301220917083379

>  <r_i_glide_einternal>  (1) 
0

>  <r_i_glide_emodel>  (1) 
-18.309353326324239

>  <r_i_glide_emodel_strain>  (1) 
0

>  <r_i_glide_energy>  (1) 
-13.482092479144116

>  <r_i_glide_erotb>  (1) 
0

>  <r_i_glide_esite>  (1) 
0

>  <r_i_glide_evdw>  (1) 
-13.346748793169086

>  <r_i_glide_gscore>  (1) 
-4.9950466376503195

>  <r_i_glide_gscore_strain>  (1) 
0

>  <r_i_glide_hbond>  (1) 
0

>  <r_i_glide_ligand_efficiency>  (1) 
-0.82929090278887274

>  <r_i_glide_ligand_efficiency_ln>  (1) 
-1.7822973187976943

>  <r_i_glide_ligand_efficiency_sa>  (1) 
-1.5069215769060169

>  <r_i_glide_lipo>  (1) 
-1.2907530488786418

>  <r_i_glide_metal>  (1) 
-0

>  <r_i_glide_rewards>  (1) 
-3.0166545962169691

>  <r_lp_Energy>  (1) 
1.8910769999999999

>  <r_lp_tautomer_probability>  (1) 
1

>  <s_epik_cmdline>  (1) 
J2VwaWtfcHl0aG9uJywgJy1waHQnLCAnMS4wJywgJy1waCcsICc3LjQnLCAnLXRuJywgJzgnLCAnLW1hJywgJzUwMCcsICctaW1hZScsICc8aW5maWxlLm1hZT4nLCAnLW9tYWUnLCAnPG91dGZpbGUubWFlPic=

>  <s_epik_input>  (1) 
W2NIXTFbY0hdW2NIXVtjSF1uMVtPSF0=

>  <s_glide_docking_method>  (1) 
confgen

>  <s_i_glide_gridfile>  (1) 
gpcr_5ht2c_6bqh_protein_autoprepared_prepared

>  <s_lp_Force_Field>  (1) 
S-OPLS

>  <s_lp_Variant>  (1) 
Pocket2Mol_20-1

>  <s_m_source_file>  (1) 
generated_GPCR_5HT2C_ligand_Pocket2Mol_2026-06-23_prepared.sdf

>  <GenAI_Model>  (1) 
Pocket2Mol

>  <Protein>  (1) 
GPCR_5HT2C

$$$$
Pocket2Mol_53
     RDKit          3D

  0  0  0  0  0  0  0  0  0  0999 V3000
M  V30 BEGIN CTAB
M  V30 COUNTS 17 17 0 0 1
M  V30 BEGIN ATOM
M  V30 1 C 40.813331 30.896630 50.965352 0
M  V30 2 C 39.988787 29.818396 51.612599 0
M  V30 3 C 39.625970 28.669403 50.886403 0
M  V30 4 C 38.838578 27.683041 51.510765 0
M  V30 5 C 38.432528 27.870912 52.849422 0
M  V30 6 C 39.561176 29.951297 52.950343 0
M  V30 7 N 37.645137 26.937847 53.518807 0
M  V30 8 N 38.807591 28.984353 53.511985 0 CHG=1
M  V30 9 H 40.845161 31.737755 51.648809 0
M  V30 10 H 41.826963 30.554636 50.756698 0
M  V30 11 H 40.355924 31.230061 50.033161 0
M  V30 12 H 39.940421 28.549626 49.861320 0
M  V30 13 H 38.545644 26.801262 50.967005 0
M  V30 14 H 39.792393 30.800066 53.580228 0
M  V30 15 H 37.295648 26.112331 53.051479 0
M  V30 16 H 37.330228 27.094191 54.464913 0
M  V30 17 H 38.504887 29.104493 54.479771 0
M  V30 END ATOM
M  V30 BEGIN BOND
M  V30 1 1 2 1
M  V30 2 1 3 2
M  V30 3 2 4 3
M  V30 4 1 5 4
M  V30 5 2 6 2
M  V30 6 1 7 5
M  V30 7 2 8 5
M  V30 8 1 8 6
M  V30 9 1 9 1
M  V30 10 1 10 1
M  V30 11 1 11 1
M  V30 12 1 12 3
M  V30 13 1 13 4
M  V30 14 1 14 6
M  V30 15 1 15 7
M  V30 16 1 16 7
M  V30 17 1 17 8
M  V30 END BOND
M  V30 END CTAB
M  END
>  <i_epik_Tot_Q>  (1) 
1

>  <i_epik_Tot_abs_Q>  (1) 
1

>  <i_i_glide_confnum>  (1) 
1

>  <i_i_glide_lignum>  (1) 
57

>  <i_i_glide_posenum>  (1) 
82

>  <i_i_glide_rotatable_bonds>  (1) 
0

>  <i_lp_mmshare_version>  (1) 
72125

>  <i_m_source_file_index>  (1) 
54

>  <i_f3d_flags>  (1) 
0

>  <num_sample>  (1) 
100

>  <b_lp_Chiralities_Consistent>  (1) 
1

>  <r_epik_Charging_Adjusted_Penalty>  (1) 
0.93551857814206563

>  <r_epik_Ionization_Penalty>  (1) 
0.46776012796604682

>  <r_epik_Ionization_Penalty_Charging>  (1) 
0.46775928907103281

>  <r_epik_Ionization_Penalty_Neutral>  (1) 
8.3889501401179816e-07

>  <r_epik_State_Penalty>  (1) 
0.46775928907103276

>  <r_glide_ring_energy>  (1) 
0

>  <r_i_docking_score>  (1) 
-4.9732406895422692

>  <r_i_glide_ecoul>  (1) 
-2.9323894212797028

>  <r_i_glide_eff_state_penalty>  (1) 
0.46775928907103276

>  <r_i_glide_einternal>  (1) 
0

>  <r_i_glide_emodel>  (1) 
-26.816435236165272

>  <r_i_glide_emodel_strain>  (1) 
1.926481829173099e-05

>  <r_i_glide_energy>  (1) 
-17.365266282178041

>  <r_i_glide_erotb>  (1) 
0

>  <r_i_glide_esite>  (1) 
0

>  <r_i_glide_evdw>  (1) 
-14.432876860898338

>  <r_i_glide_gscore>  (1) 
-5.4409999786133021

>  <r_i_glide_gscore_strain>  (1) 
0

>  <r_i_glide_hbond>  (1) 
0

>  <r_i_glide_ligand_efficiency>  (1) 
-0.62165508619278365

>  <r_i_glide_ligand_efficiency_ln>  (1) 
-1.614981360168755

>  <r_i_glide_ligand_efficiency_sa>  (1) 
-1.2433101723855675

>  <r_i_glide_lipo>  (1) 
-1.8294977223764297

>  <r_i_glide_metal>  (1) 
-0

>  <r_i_glide_rewards>  (1) 
-2.4500000000000002

>  <r_lp_Energy>  (1) 
10.43703

>  <r_lp_tautomer_probability>  (1) 
0.99999385203779767

>  <s_epik_cmdline>  (1) 
J2VwaWtfcHl0aG9uJywgJy1waHQnLCAnMS4wJywgJy1waCcsICc3LjQnLCAnLXRuJywgJzgnLCAnLW1hJywgJzUwMCcsICctaW1hZScsICc8aW5maWxlLm1hZT4nLCAnLW9tYWUnLCAnPG91dGZpbGUubWFlPic=

>  <s_epik_input>  (1) 
W0NIM11jMVtjSF1bY0hdYyhbTkgyXSluW2NIXTE=

>  <s_glide_docking_method>  (1) 
confgen

>  <s_i_glide_gridfile>  (1) 
gpcr_5ht2c_6bqh_protein_autoprepared_prepared

>  <s_lp_Force_Field>  (1) 
S-OPLS

>  <s_lp_Variant>  (1) 
Pocket2Mol_53-2

>  <s_m_source_file>  (1) 
generated_GPCR_5HT2C_ligand_Pocket2Mol_2026-06-23_prepared.sdf

>  <GenAI_Model>  (1) 
Pocket2Mol

>  <Protein>  (1) 
GPCR_5HT2C

$$$$
Pocket2Mol_53
     RDKit          3D

  0  0  0  0  0  0  0  0  0  0999 V3000
M  V30 BEGIN CTAB
M  V30 COUNTS 17 17 0 0 1
M  V30 BEGIN ATOM
M  V30 1 C 40.472962 30.380071 50.148846 0
M  V30 2 C 39.826793 29.729023 51.353233 0
M  V30 3 C 39.206071 28.468053 51.237217 0
M  V30 4 C 38.596136 27.895007 52.374166 0
M  V30 5 C 38.627544 28.594301 53.597619 0
M  V30 6 C 39.828609 30.377567 52.603703 0
M  V30 7 N 38.045135 28.082740 54.754186 0
M  V30 8 N 39.235873 29.794743 53.665605 0 CHG=1
M  V30 9 H 40.925863 31.337794 50.404474 0
M  V30 10 H 41.245154 29.737755 49.731772 0
M  V30 11 H 39.723203 30.558985 49.377672 0
M  V30 12 H 39.191041 27.949941 50.289634 0
M  V30 13 H 38.109576 26.937779 52.305211 0
M  V30 14 H 40.279401 31.337763 52.783297 0
M  V30 15 H 37.574356 27.189499 54.757790 0
M  V30 16 H 38.061296 28.594016 55.625083 0
M  V30 17 H 39.246883 30.287606 54.559752 0
M  V30 END ATOM
M  V30 BEGIN BOND
M  V30 1 1 2 1
M  V30 2 1 3 2
M  V30 3 2 4 3
M  V30 4 1 5 4
M  V30 5 2 6 2
M  V30 6 1 7 5
M  V30 7 2 8 5
M  V30 8 1 8 6
M  V30 9 1 9 1
M  V30 10 1 10 1
M  V30 11 1 11 1
M  V30 12 1 12 3
M  V30 13 1 13 4
M  V30 14 1 14 6
M  V30 15 1 15 7
M  V30 16 1 16 7
M  V30 17 1 17 8
M  V30 END BOND
M  V30 END CTAB
M  END
>  <i_epik_Tot_Q>  (1) 
1

>  <i_epik_Tot_abs_Q>  (1) 
1

>  <i_i_glide_confnum>  (1) 
1

>  <i_i_glide_lignum>  (1) 
57

>  <i_i_glide_posenum>  (1) 
14

>  <i_i_glide_rotatable_bonds>  (1) 
0

>  <i_lp_mmshare_version>  (1) 
72125

>  <i_m_source_file_index>  (1) 
54

>  <i_f3d_flags>  (1) 
0

>  <num_sample>  (1) 
100

>  <b_lp_Chiralities_Consistent>  (1) 
1

>  <r_epik_Charging_Adjusted_Penalty>  (1) 
0.93551857814206563

>  <r_epik_Ionization_Penalty>  (1) 
0.46776012796604682

>  <r_epik_Ionization_Penalty_Charging>  (1) 
0.46775928907103281

>  <r_epik_Ionization_Penalty_Neutral>  (1) 
8.3889501401179816e-07

>  <r_epik_State_Penalty>  (1) 
0.46775928907103276

>  <r_glide_ring_energy>  (1) 
0

>  <r_i_docking_score>  (1) 
-4.9676010769969645

>  <r_i_glide_ecoul>  (1) 
-2.4193435917159856

>  <r_i_glide_eff_state_penalty>  (1) 
0.46775928907103276

>  <r_i_glide_einternal>  (1) 
0

>  <r_i_glide_emodel>  (1) 
-26.679674234463725

>  <r_i_glide_emodel_strain>  (1) 
0

>  <r_i_glide_energy>  (1) 
-17.238282200156696

>  <r_i_glide_erotb>  (1) 
0

>  <r_i_glide_esite>  (1) 
0

>  <r_i_glide_evdw>  (1) 
-14.818938608440712

>  <r_i_glide_gscore>  (1) 
-5.4353603660679974

>  <r_i_glide_gscore_strain>  (1) 
0

>  <r_i_glide_hbond>  (1) 
0

>  <r_i_glide_ligand_efficiency>  (1) 
-0.62095013462462056

>  <r_i_glide_ligand_efficiency_ln>  (1) 
-1.6131499850739617

>  <r_i_glide_ligand_efficiency_sa>  (1) 
-1.2419002692492414

>  <r_i_glide_lipo>  (1) 
-1.8858133559754393

>  <r_i_glide_metal>  (1) 
-0

>  <r_i_glide_rewards>  (1) 
-2.4456985409131251

>  <r_lp_Energy>  (1) 
10.43703

>  <r_lp_tautomer_probability>  (1) 
0.99999385203779767

>  <s_epik_cmdline>  (1) 
J2VwaWtfcHl0aG9uJywgJy1waHQnLCAnMS4wJywgJy1waCcsICc3LjQnLCAnLXRuJywgJzgnLCAnLW1hJywgJzUwMCcsICctaW1hZScsICc8aW5maWxlLm1hZT4nLCAnLW9tYWUnLCAnPG91dGZpbGUubWFlPic=

>  <s_epik_input>  (1) 
W0NIM11jMVtjSF1bY0hdYyhbTkgyXSluW2NIXTE=

>  <s_glide_docking_method>  (1) 
confgen

>  <s_i_glide_gridfile>  (1) 
gpcr_5ht2c_6bqh_protein_autoprepared_prepared

>  <s_lp_Force_Field>  (1) 
S-OPLS

>  <s_lp_Variant>  (1) 
Pocket2Mol_53-2

>  <s_m_source_file>  (1) 
generated_GPCR_5HT2C_ligand_Pocket2Mol_2026-06-23_prepared.sdf

>  <GenAI_Model>  (1) 
Pocket2Mol

>  <Protein>  (1) 
GPCR_5HT2C

$$$$
Pocket2Mol_53
     RDKit          3D

  0  0  0  0  0  0  0  0  0  0999 V3000
M  V30 BEGIN CTAB
M  V30 COUNTS 17 17 0 0 1
M  V30 BEGIN ATOM
M  V30 1 C 39.012451 27.802685 51.088117 0
M  V30 2 C 38.747664 28.657183 52.310906 0
M  V30 3 C 39.598641 29.737820 52.624821 0
M  V30 4 C 39.323852 30.522996 53.767298 0
M  V30 5 C 38.198552 30.214532 54.559871 0
M  V30 6 C 37.645136 28.389634 53.147163 0
M  V30 7 N 37.861132 30.964711 55.685708 0
M  V30 8 N 37.412448 29.170696 54.225010 0 CHG=1
M  V30 9 H 38.351102 26.937722 51.059041 0
M  V30 10 H 38.845169 28.383898 50.180381 0
M  V30 11 H 40.042669 27.447167 51.081131 0
M  V30 12 H 40.445191 29.964294 51.997426 0
M  V30 13 H 39.963161 31.350638 54.023730 0
M  V30 14 H 36.942190 27.585489 52.983349 0
M  V30 15 H 38.360056 31.811319 55.914621 0
M  V30 16 H 36.978568 30.822273 56.167860 0
M  V30 17 H 36.604111 28.962494 54.811559 0
M  V30 END ATOM
M  V30 BEGIN BOND
M  V30 1 1 2 1
M  V30 2 1 3 2
M  V30 3 2 4 3
M  V30 4 1 5 4
M  V30 5 2 6 2
M  V30 6 1 7 5
M  V30 7 2 8 5
M  V30 8 1 8 6
M  V30 9 1 9 1
M  V30 10 1 10 1
M  V30 11 1 11 1
M  V30 12 1 12 3
M  V30 13 1 13 4
M  V30 14 1 14 6
M  V30 15 1 15 7
M  V30 16 1 16 7
M  V30 17 1 17 8
M  V30 END BOND
M  V30 END CTAB
M  END
>  <i_epik_Tot_Q>  (1) 
1

>  <i_epik_Tot_abs_Q>  (1) 
1

>  <i_i_glide_confnum>  (1) 
1

>  <i_i_glide_lignum>  (1) 
57

>  <i_i_glide_posenum>  (1) 
354

>  <i_i_glide_rotatable_bonds>  (1) 
0

>  <i_lp_mmshare_version>  (1) 
72125

>  <i_m_source_file_index>  (1) 
54

>  <i_f3d_flags>  (1) 
0

>  <num_sample>  (1) 
100

>  <b_lp_Chiralities_Consistent>  (1) 
1

>  <r_epik_Charging_Adjusted_Penalty>  (1) 
0.93551857814206563

>  <r_epik_Ionization_Penalty>  (1) 
0.46776012796604682

>  <r_epik_Ionization_Penalty_Charging>  (1) 
0.46775928907103281

>  <r_epik_Ionization_Penalty_Neutral>  (1) 
8.3889501401179816e-07

>  <r_epik_State_Penalty>  (1) 
0.46775928907103276

>  <r_glide_ring_energy>  (1) 
0

>  <r_i_docking_score>  (1) 
-4.9673865632152552

>  <r_i_glide_ecoul>  (1) 
-3.315834875262015

>  <r_i_glide_eff_state_penalty>  (1) 
0.46775928907103276

>  <r_i_glide_einternal>  (1) 
0

>  <r_i_glide_emodel>  (1) 
-27.228673973392397

>  <r_i_glide_emodel_strain>  (1) 
0

>  <r_i_glide_energy>  (1) 
-17.787654556276038

>  <r_i_glide_erotb>  (1) 
0

>  <r_i_glide_esite>  (1) 
-0.09593117235002134

>  <r_i_glide_evdw>  (1) 
-14.471819681014024

>  <r_i_glide_gscore>  (1) 
-5.4351458522862881

>  <r_i_glide_gscore_strain>  (1) 
0

>  <r_i_glide_hbond>  (1) 
-0.16444514310648226

>  <r_i_glide_ligand_efficiency>  (1) 
-0.6209233204019069

>  <r_i_glide_ligand_efficiency_ln>  (1) 
-1.6130803251116581

>  <r_i_glide_ligand_efficiency_sa>  (1) 
-1.241846640803814

>  <r_i_glide_lipo>  (1) 
-1.6279401647609077

>  <r_i_glide_metal>  (1) 
-0

>  <r_i_glide_rewards>  (1) 
-2.325863156728873

>  <r_lp_Energy>  (1) 
10.43703

>  <r_lp_tautomer_probability>  (1) 
0.99999385203779767

>  <s_epik_cmdline>  (1) 
J2VwaWtfcHl0aG9uJywgJy1waHQnLCAnMS4wJywgJy1waCcsICc3LjQnLCAnLXRuJywgJzgnLCAnLW1hJywgJzUwMCcsICctaW1hZScsICc8aW5maWxlLm1hZT4nLCAnLW9tYWUnLCAnPG91dGZpbGUubWFlPic=

>  <s_epik_input>  (1) 
W0NIM11jMVtjSF1bY0hdYyhbTkgyXSluW2NIXTE=

>  <s_glide_docking_method>  (1) 
confgen

>  <s_i_glide_gridfile>  (1) 
gpcr_5ht2c_6bqh_protein_autoprepared_prepared

>  <s_lp_Force_Field>  (1) 
S-OPLS

>  <s_lp_Variant>  (1) 
Pocket2Mol_53-2

>  <s_m_source_file>  (1) 
generated_GPCR_5HT2C_ligand_Pocket2Mol_2026-06-23_prepared.sdf

>  <GenAI_Model>  (1) 
Pocket2Mol

>  <Protein>  (1) 
GPCR_5HT2C

$$$$
Pocket2Mol_35
     RDKit          3D

  0  0  0  0  0  0  0  0  0  0999 V3000
M  V30 BEGIN CTAB
M  V30 COUNTS 17 17 0 0 1
M  V30 BEGIN ATOM
M  V30 1 C 38.672193 29.472812 53.880786 0
M  V30 2 O 38.886798 28.155936 53.389242 0
M  V30 3 C 38.371135 27.968798 52.078919 0
M  V30 4 C 39.665800 30.485716 53.293841 0
M  V30 5 O 39.645142 30.538073 51.871015 0
M  V30 6 C 39.392593 28.260107 50.970546 0
M  V30 7 C 40.309558 29.462999 51.221839 0
M  V30 8 H 37.642953 29.794105 53.718265 0
M  V30 9 H 38.805322 29.444909 54.962900 0
M  V30 10 H 38.048696 26.934736 51.989863 0
M  V30 11 H 37.466292 28.554169 51.918783 0
M  V30 12 H 39.398571 31.479249 53.654452 0
M  V30 13 H 40.673956 30.302485 53.663970 0
M  V30 14 H 40.011575 27.378908 50.797374 0
M  V30 15 H 38.845420 28.418580 50.041461 0
M  V30 16 H 41.199238 29.155400 51.767525 0
M  V30 17 H 40.673622 29.829541 50.260450 0
M  V30 END ATOM
M  V30 BEGIN BOND
M  V30 1 1 2 1
M  V30 2 1 3 2
M  V30 3 1 4 1
M  V30 4 1 5 4
M  V30 5 1 6 3
M  V30 6 1 7 5
M  V30 7 1 7 6
M  V30 8 1 8 1
M  V30 9 1 9 1
M  V30 10 1 10 3
M  V30 11 1 11 3
M  V30 12 1 12 4
M  V30 13 1 13 4
M  V30 14 1 14 6
M  V30 15 1 15 6
M  V30 16 1 16 7
M  V30 17 1 17 7
M  V30 END BOND
M  V30 END CTAB
M  END
>  <i_epik_Tot_Q>  (1) 
0

>  <i_epik_Tot_abs_Q>  (1) 
0

>  <i_i_glide_confnum>  (1) 
8

>  <i_i_glide_lignum>  (1) 
38

>  <i_i_glide_posenum>  (1) 
334

>  <i_i_glide_rotatable_bonds>  (1) 
0

>  <i_lp_mmshare_version>  (1) 
72125

>  <i_m_source_file_index>  (1) 
36

>  <i_f3d_flags>  (1) 
0

>  <num_sample>  (1) 
100

>  <b_lp_Chiralities_Consistent>  (1) 
1

>  <r_epik_Charging_Adjusted_Penalty>  (1) 
0

>  <r_epik_Ionization_Penalty>  (1) 
3.933197540425548e-12

>  <r_epik_Ionization_Penalty_Charging>  (1) 
0

>  <r_epik_Ionization_Penalty_Neutral>  (1) 
3.933197540425548e-12

>  <r_epik_State_Penalty>  (1) 
-0

>  <r_glide_ring_energy>  (1) 
0.00055159938950669681

>  <r_i_docking_score>  (1) 
-4.9664368852488847

>  <r_i_glide_ecoul>  (1) 
-0.46371998180527885

>  <r_i_glide_eff_state_penalty>  (1) 
-0

>  <r_i_glide_einternal>  (1) 
0

>  <r_i_glide_emodel>  (1) 
-20.769829594655299

>  <r_i_glide_emodel_strain>  (1) 
2.2738352001283602e-07

>  <r_i_glide_energy>  (1) 
-15.576496383323173

>  <r_i_glide_erotb>  (1) 
0

>  <r_i_glide_esite>  (1) 
0

>  <r_i_glide_evdw>  (1) 
-15.112776401517895

>  <r_i_glide_gscore>  (1) 
-4.9664368852488847

>  <r_i_glide_gscore_strain>  (1) 
0

>  <r_i_glide_hbond>  (1) 
0

>  <r_i_glide_ligand_efficiency>  (1) 
-0.70949098360698348

>  <r_i_glide_ligand_efficiency_ln>  (1) 
-1.6858752079867434

>  <r_i_glide_ligand_efficiency_sa>  (1) 
-1.3572074264376528

>  <r_i_glide_lipo>  (1) 
-1.550901651122623

>  <r_i_glide_metal>  (1) 
-0

>  <r_i_glide_rewards>  (1) 
-2.5903384167795758

>  <r_lp_Energy>  (1) 
9.6410049999999998

>  <r_lp_tautomer_probability>  (1) 
1

>  <s_epik_cmdline>  (1) 
J2VwaWtfcHl0aG9uJywgJy1waHQnLCAnMS4wJywgJy1waCcsICc3LjQnLCAnLXRuJywgJzgnLCAnLW1hJywgJzUwMCcsICctaW1hZScsICc8aW5maWxlLm1hZT4nLCAnLW9tYWUnLCAnPG91dGZpbGUubWFlPic=

>  <s_epik_input>  (1) 
W0NIMl0xT1tDSDJdW0NIMl1bQ0gyXU9bQ0gyXTE=

>  <s_glide_docking_method>  (1) 
confgen

>  <s_i_glide_gridfile>  (1) 
gpcr_5ht2c_6bqh_protein_autoprepared_prepared

>  <s_lp_Force_Field>  (1) 
S-OPLS

>  <s_lp_Variant>  (1) 
Pocket2Mol_35-1

>  <s_m_source_file>  (1) 
generated_GPCR_5HT2C_ligand_Pocket2Mol_2026-06-23_prepared.sdf

>  <GenAI_Model>  (1) 
Pocket2Mol

>  <Protein>  (1) 
GPCR_5HT2C

$$$$
Pocket2Mol_53
     RDKit          3D

  0  0  0  0  0  0  0  0  0  0999 V3000
M  V30 BEGIN CTAB
M  V30 COUNTS 17 17 0 0 1
M  V30 BEGIN ATOM
M  V30 1 C 37.701589 28.297251 54.547991 0
M  V30 2 C 38.527121 28.855053 53.407338 0
M  V30 3 C 38.586094 28.178720 52.169110 0
M  V30 4 C 39.357351 28.726385 51.121608 0
M  V30 5 C 40.047452 29.938119 51.336896 0
M  V30 6 C 39.245440 30.057784 53.566192 0
M  V30 7 N 40.813761 30.537764 50.339207 0
M  V30 8 N 39.969939 30.548290 52.538104 0 CHG=1
M  V30 9 H 37.273982 29.102986 55.146584 0
M  V30 10 H 36.878107 27.691360 54.167083 0
M  V30 11 H 38.318455 27.676464 55.197438 0
M  V30 12 H 38.045137 27.255732 52.024104 0
M  V30 13 H 39.411752 28.226093 50.167874 0
M  V30 14 H 39.256782 30.641100 54.476927 0
M  V30 15 H 40.878989 30.138910 49.414365 0
M  V30 16 H 41.269109 31.429115 50.485231 0
M  V30 17 H 40.475063 31.425924 52.675256 0
M  V30 END ATOM
M  V30 BEGIN BOND
M  V30 1 1 2 1
M  V30 2 1 3 2
M  V30 3 2 4 3
M  V30 4 1 5 4
M  V30 5 2 6 2
M  V30 6 1 7 5
M  V30 7 2 8 5
M  V30 8 1 8 6
M  V30 9 1 9 1
M  V30 10 1 10 1
M  V30 11 1 11 1
M  V30 12 1 12 3
M  V30 13 1 13 4
M  V30 14 1 14 6
M  V30 15 1 15 7
M  V30 16 1 16 7
M  V30 17 1 17 8
M  V30 END BOND
M  V30 END CTAB
M  END
>  <i_epik_Tot_Q>  (1) 
1

>  <i_epik_Tot_abs_Q>  (1) 
1

>  <i_i_glide_confnum>  (1) 
1

>  <i_i_glide_lignum>  (1) 
57

>  <i_i_glide_posenum>  (1) 
196

>  <i_i_glide_rotatable_bonds>  (1) 
0

>  <i_lp_mmshare_version>  (1) 
72125

>  <i_m_source_file_index>  (1) 
54

>  <i_f3d_flags>  (1) 
0

>  <num_sample>  (1) 
100

>  <b_lp_Chiralities_Consistent>  (1) 
1

>  <r_epik_Charging_Adjusted_Penalty>  (1) 
0.93551857814206563

>  <r_epik_Ionization_Penalty>  (1) 
0.46776012796604682

>  <r_epik_Ionization_Penalty_Charging>  (1) 
0.46775928907103281

>  <r_epik_Ionization_Penalty_Neutral>  (1) 
8.3889501401179816e-07

>  <r_epik_State_Penalty>  (1) 
0.46775928907103276

>  <r_glide_ring_energy>  (1) 
0

>  <r_i_docking_score>  (1) 
-4.9560714905362886

>  <r_i_glide_ecoul>  (1) 
-2.8009538429306162

>  <r_i_glide_eff_state_penalty>  (1) 
0.46775928907103276

>  <r_i_glide_einternal>  (1) 
0

>  <r_i_glide_emodel>  (1) 
-27.651986759888985

>  <r_i_glide_emodel_strain>  (1) 
0

>  <r_i_glide_energy>  (1) 
-18.230621980158901

>  <r_i_glide_erotb>  (1) 
0

>  <r_i_glide_esite>  (1) 
0

>  <r_i_glide_evdw>  (1) 
-15.429668137228285

>  <r_i_glide_gscore>  (1) 
-5.4238307796073215

>  <r_i_glide_gscore_strain>  (1) 
0

>  <r_i_glide_hbond>  (1) 
0

>  <r_i_glide_ligand_efficiency>  (1) 
-0.61950893631703607

>  <r_i_glide_ligand_efficiency_ln>  (1) 
-1.6094059339839752

>  <r_i_glide_ligand_efficiency_sa>  (1) 
-1.2390178726340724

>  <r_i_glide_lipo>  (1) 
-1.8093736758617438

>  <r_i_glide_metal>  (1) 
-0

>  <r_i_glide_rewards>  (1) 
-2.4228306204445715

>  <r_lp_Energy>  (1) 
10.43703

>  <r_lp_tautomer_probability>  (1) 
0.99999385203779767

>  <s_epik_cmdline>  (1) 
J2VwaWtfcHl0aG9uJywgJy1waHQnLCAnMS4wJywgJy1waCcsICc3LjQnLCAnLXRuJywgJzgnLCAnLW1hJywgJzUwMCcsICctaW1hZScsICc8aW5maWxlLm1hZT4nLCAnLW9tYWUnLCAnPG91dGZpbGUubWFlPic=

>  <s_epik_input>  (1) 
W0NIM11jMVtjSF1bY0hdYyhbTkgyXSluW2NIXTE=

>  <s_glide_docking_method>  (1) 
confgen

>  <s_i_glide_gridfile>  (1) 
gpcr_5ht2c_6bqh_protein_autoprepared_prepared

>  <s_lp_Force_Field>  (1) 
S-OPLS

>  <s_lp_Variant>  (1) 
Pocket2Mol_53-2

>  <s_m_source_file>  (1) 
generated_GPCR_5HT2C_ligand_Pocket2Mol_2026-06-23_prepared.sdf

>  <GenAI_Model>  (1) 
Pocket2Mol

>  <Protein>  (1) 
GPCR_5HT2C

$$$$
Pocket2Mol_43
     RDKit          3D

  0  0  0  0  0  0  0  0  0  0999 V3000
M  V30 BEGIN CTAB
M  V30 COUNTS 15 15 0 0 1
M  V30 BEGIN ATOM
M  V30 1 C 38.999415 27.781458 51.206684 0
M  V30 2 O 38.878239 27.337955 52.542217 0
M  V30 3 C 38.168811 28.253004 53.358877 0
M  V30 4 C 40.071047 28.864853 51.098898 0
M  V30 5 O 39.645335 30.127650 51.588680 0
M  V30 6 C 38.998007 29.448784 53.792053 0
M  V30 7 C 39.645718 30.281684 52.952363 0
M  V30 8 H 39.299481 26.923674 50.604080 0
M  V30 9 H 38.045143 28.127076 50.812747 0
M  V30 10 H 37.882662 27.716604 54.263324 0
M  V30 11 H 37.238395 28.582291 52.891790 0
M  V30 12 H 40.998754 28.550083 51.577975 0
M  V30 13 H 40.308153 29.004801 50.044340 0
M  V30 14 H 39.045109 29.634257 54.855092 0
M  V30 15 H 40.225962 31.136735 53.267574 0
M  V30 END ATOM
M  V30 BEGIN BOND
M  V30 1 1 2 1
M  V30 2 1 3 2
M  V30 3 1 4 1
M  V30 4 1 5 4
M  V30 5 1 6 3
M  V30 6 1 7 5
M  V30 7 2 7 6
M  V30 8 1 8 1
M  V30 9 1 9 1
M  V30 10 1 10 3
M  V30 11 1 11 3
M  V30 12 1 12 4
M  V30 13 1 13 4
M  V30 14 1 14 6
M  V30 15 1 15 7
M  V30 END BOND
M  V30 END CTAB
M  END
>  <i_epik_Tot_Q>  (1) 
0

>  <i_epik_Tot_abs_Q>  (1) 
0

>  <i_i_glide_confnum>  (1) 
2

>  <i_i_glide_lignum>  (1) 
46

>  <i_i_glide_posenum>  (1) 
224

>  <i_i_glide_rotatable_bonds>  (1) 
0

>  <i_lp_mmshare_version>  (1) 
72125

>  <i_m_source_file_index>  (1) 
44

>  <i_f3d_flags>  (1) 
0

>  <num_sample>  (1) 
100

>  <b_lp_Chiralities_Consistent>  (1) 
1

>  <r_epik_Charging_Adjusted_Penalty>  (1) 
0

>  <r_epik_Ionization_Penalty>  (1) 
5.6701613537443791e-14

>  <r_epik_Ionization_Penalty_Charging>  (1) 
0

>  <r_epik_Ionization_Penalty_Neutral>  (1) 
5.6701613537443791e-14

>  <r_epik_State_Penalty>  (1) 
-0

>  <r_glide_ring_energy>  (1) 
0.00079047383587571227

>  <r_i_docking_score>  (1) 
-4.9533646170421823

>  <r_i_glide_ecoul>  (1) 
-0.29980548743692736

>  <r_i_glide_eff_state_penalty>  (1) 
-0

>  <r_i_glide_einternal>  (1) 
0

>  <r_i_glide_emodel>  (1) 
-21.574104666354422

>  <r_i_glide_emodel_strain>  (1) 
0

>  <r_i_glide_energy>  (1) 
-16.494609726179142

>  <r_i_glide_erotb>  (1) 
0

>  <r_i_glide_esite>  (1) 
0

>  <r_i_glide_evdw>  (1) 
-16.194804238742215

>  <r_i_glide_gscore>  (1) 
-4.9533646170421823

>  <r_i_glide_gscore_strain>  (1) 
0

>  <r_i_glide_hbond>  (1) 
0

>  <r_i_glide_ligand_efficiency>  (1) 
-0.70762351672031176

>  <r_i_glide_ligand_efficiency_ln>  (1) 
-1.6814377786201709

>  <r_i_glide_ligand_efficiency_sa>  (1) 
-1.3536350907973436

>  <r_i_glide_lipo>  (1) 
-1.5185590194709673

>  <r_i_glide_metal>  (1) 
-0

>  <r_i_glide_rewards>  (1) 
-2.5800945625185654

>  <r_lp_Energy>  (1) 
7.3473649999999999

>  <r_lp_tautomer_probability>  (1) 
1

>  <s_epik_cmdline>  (1) 
J2VwaWtfcHl0aG9uJywgJy1waHQnLCAnMS4wJywgJy1waCcsICc3LjQnLCAnLXRuJywgJzgnLCAnLW1hJywgJzUwMCcsICctaW1hZScsICc8aW5maWxlLm1hZT4nLCAnLW9tYWUnLCAnPG91dGZpbGUubWFlPic=

>  <s_epik_input>  (1) 
W0NIMl0xT1tDSDJdW0NIXT1bQ0hdT1tDSDJdMQ==

>  <s_glide_docking_method>  (1) 
confgen

>  <s_i_glide_gridfile>  (1) 
gpcr_5ht2c_6bqh_protein_autoprepared_prepared

>  <s_lp_Force_Field>  (1) 
S-OPLS

>  <s_lp_Variant>  (1) 
Pocket2Mol_43-1

>  <s_m_source_file>  (1) 
generated_GPCR_5HT2C_ligand_Pocket2Mol_2026-06-23_prepared.sdf

>  <GenAI_Model>  (1) 
Pocket2Mol

>  <Protein>  (1) 
GPCR_5HT2C

$$$$
Pocket2Mol_53
     RDKit          3D

  0  0  0  0  0  0  0  0  0  0999 V3000
M  V30 BEGIN CTAB
M  V30 COUNTS 17 17 0 0 1
M  V30 BEGIN ATOM
M  V30 1 C 40.688380 30.298057 50.407414 0
M  V30 2 C 39.833664 29.583169 51.435316 0
M  V30 3 C 39.645139 30.137754 52.720916 0
M  V30 4 C 38.840839 29.450676 53.656417 0
M  V30 5 C 38.242412 28.229625 53.280434 0
M  V30 6 C 39.211408 28.359005 51.121278 0
M  V30 7 N 37.439053 27.503633 54.154009 0
M  V30 8 N 38.445629 27.737751 52.041748 0 CHG=1
M  V30 9 H 40.726678 29.743740 49.469413 0
M  V30 10 H 40.281029 31.287948 50.198374 0
M  V30 11 H 41.708455 30.419330 50.770517 0
M  V30 12 H 40.109813 31.075410 52.985284 0
M  V30 13 H 38.684929 29.857834 54.645746 0
M  V30 14 H 39.296791 27.864252 50.167760 0
M  V30 15 H 37.257172 27.824735 55.094285 0
M  V30 16 H 37.016601 26.628368 53.879842 0
M  V30 17 H 37.997184 26.854914 51.785897 0
M  V30 END ATOM
M  V30 BEGIN BOND
M  V30 1 1 2 1
M  V30 2 1 3 2
M  V30 3 2 4 3
M  V30 4 1 5 4
M  V30 5 2 6 2
M  V30 6 1 7 5
M  V30 7 2 8 5
M  V30 8 1 8 6
M  V30 9 1 9 1
M  V30 10 1 10 1
M  V30 11 1 11 1
M  V30 12 1 12 3
M  V30 13 1 13 4
M  V30 14 1 14 6
M  V30 15 1 15 7
M  V30 16 1 16 7
M  V30 17 1 17 8
M  V30 END BOND
M  V30 END CTAB
M  END
>  <i_epik_Tot_Q>  (1) 
1

>  <i_epik_Tot_abs_Q>  (1) 
1

>  <i_i_glide_confnum>  (1) 
1

>  <i_i_glide_lignum>  (1) 
57

>  <i_i_glide_posenum>  (1) 
1

>  <i_i_glide_rotatable_bonds>  (1) 
0

>  <i_lp_mmshare_version>  (1) 
72125

>  <i_m_source_file_index>  (1) 
54

>  <i_f3d_flags>  (1) 
0

>  <num_sample>  (1) 
100

>  <b_lp_Chiralities_Consistent>  (1) 
1

>  <r_epik_Charging_Adjusted_Penalty>  (1) 
0.93551857814206563

>  <r_epik_Ionization_Penalty>  (1) 
0.46776012796604682

>  <r_epik_Ionization_Penalty_Charging>  (1) 
0.46775928907103281

>  <r_epik_Ionization_Penalty_Neutral>  (1) 
8.3889501401179816e-07

>  <r_epik_State_Penalty>  (1) 
0.46775928907103276

>  <r_glide_ring_energy>  (1) 
0

>  <r_i_docking_score>  (1) 
-4.9533563539755949

>  <r_i_glide_ecoul>  (1) 
-1.8370969655399736

>  <r_i_glide_eff_state_penalty>  (1) 
0.46775928907103276

>  <r_i_glide_einternal>  (1) 
0

>  <r_i_glide_emodel>  (1) 
-27.195796130854653

>  <r_i_glide_emodel_strain>  (1) 
0

>  <r_i_glide_energy>  (1) 
-17.779147628789659

>  <r_i_glide_erotb>  (1) 
0

>  <r_i_glide_esite>  (1) 
0

>  <r_i_glide_evdw>  (1) 
-15.942050663249686

>  <r_i_glide_gscore>  (1) 
-5.4211156430466279

>  <r_i_glide_gscore_strain>  (1) 
0

>  <r_i_glide_hbond>  (1) 
0

>  <r_i_glide_ligand_efficiency>  (1) 
-0.61916954424694937

>  <r_i_glide_ligand_efficiency_ln>  (1) 
-1.6085242362722489

>  <r_i_glide_ligand_efficiency_sa>  (1) 
-1.238339088493899

>  <r_i_glide_lipo>  (1) 
-1.8782579864405307

>  <r_i_glide_metal>  (1) 
-0

>  <r_i_glide_rewards>  (1) 
-2.470190578612617

>  <r_lp_Energy>  (1) 
10.43703

>  <r_lp_tautomer_probability>  (1) 
0.99999385203779767

>  <s_epik_cmdline>  (1) 
J2VwaWtfcHl0aG9uJywgJy1waHQnLCAnMS4wJywgJy1waCcsICc3LjQnLCAnLXRuJywgJzgnLCAnLW1hJywgJzUwMCcsICctaW1hZScsICc8aW5maWxlLm1hZT4nLCAnLW9tYWUnLCAnPG91dGZpbGUubWFlPic=

>  <s_epik_input>  (1) 
W0NIM11jMVtjSF1bY0hdYyhbTkgyXSluW2NIXTE=

>  <s_glide_docking_method>  (1) 
confgen

>  <s_i_glide_gridfile>  (1) 
gpcr_5ht2c_6bqh_protein_autoprepared_prepared

>  <s_lp_Force_Field>  (1) 
S-OPLS

>  <s_lp_Variant>  (1) 
Pocket2Mol_53-2

>  <s_m_source_file>  (1) 
generated_GPCR_5HT2C_ligand_Pocket2Mol_2026-06-23_prepared.sdf

>  <GenAI_Model>  (1) 
Pocket2Mol

>  <Protein>  (1) 
GPCR_5HT2C

$$$$
Pocket2Mol_35
     RDKit          3D

  0  0  0  0  0  0  0  0  0  0999 V3000
M  V30 BEGIN CTAB
M  V30 COUNTS 17 17 0 0 1
M  V30 BEGIN ATOM
M  V30 1 C 39.285238 27.879539 51.117489 0
M  V30 2 O 38.861822 27.399020 52.385394 0
M  V30 3 C 37.813675 28.180370 52.940639 0
M  V30 4 C 40.248737 29.063699 51.247291 0
M  V30 5 O 39.645140 30.199709 51.845775 0
M  V30 6 C 38.319785 29.353711 53.794610 0
M  V30 7 C 39.535024 30.137538 53.262622 0
M  V30 8 H 39.799385 27.062440 50.611283 0
M  V30 9 H 38.445137 28.137756 50.476373 0
M  V30 10 H 37.130160 28.537743 52.168449 0
M  V30 11 H 37.212140 27.526907 53.573141 0
M  V30 12 H 41.160683 28.774923 51.767635 0
M  V30 13 H 40.558428 29.361403 50.245485 0
M  V30 14 H 37.488686 30.043518 53.943295 0
M  V30 15 H 38.567613 28.987919 54.791525 0
M  V30 16 H 39.471386 31.161955 53.630906 0
M  V30 17 H 40.445137 29.738366 53.696949 0
M  V30 END ATOM
M  V30 BEGIN BOND
M  V30 1 1 2 1
M  V30 2 1 3 2
M  V30 3 1 4 1
M  V30 4 1 5 4
M  V30 5 1 6 3
M  V30 6 1 7 5
M  V30 7 1 7 6
M  V30 8 1 8 1
M  V30 9 1 9 1
M  V30 10 1 10 3
M  V30 11 1 11 3
M  V30 12 1 12 4
M  V30 13 1 13 4
M  V30 14 1 14 6
M  V30 15 1 15 6
M  V30 16 1 16 7
M  V30 17 1 17 7
M  V30 END BOND
M  V30 END CTAB
M  END
>  <i_epik_Tot_Q>  (1) 
0

>  <i_epik_Tot_abs_Q>  (1) 
0

>  <i_i_glide_confnum>  (1) 
11

>  <i_i_glide_lignum>  (1) 
38

>  <i_i_glide_posenum>  (1) 
348

>  <i_i_glide_rotatable_bonds>  (1) 
0

>  <i_lp_mmshare_version>  (1) 
72125

>  <i_m_source_file_index>  (1) 
36

>  <i_f3d_flags>  (1) 
0

>  <num_sample>  (1) 
100

>  <b_lp_Chiralities_Consistent>  (1) 
1

>  <r_epik_Charging_Adjusted_Penalty>  (1) 
0

>  <r_epik_Ionization_Penalty>  (1) 
3.933197540425548e-12

>  <r_epik_Ionization_Penalty_Charging>  (1) 
0

>  <r_epik_Ionization_Penalty_Neutral>  (1) 
3.933197540425548e-12

>  <r_epik_State_Penalty>  (1) 
-0

>  <r_glide_ring_energy>  (1) 
0.00070385905571176553

>  <r_i_docking_score>  (1) 
-4.9486411047221637

>  <r_i_glide_ecoul>  (1) 
0.11356121813056318

>  <r_i_glide_eff_state_penalty>  (1) 
-0

>  <r_i_glide_einternal>  (1) 
0

>  <r_i_glide_emodel>  (1) 
-20.894418928838018

>  <r_i_glide_emodel_strain>  (1) 
0

>  <r_i_glide_energy>  (1) 
-15.719694288384154

>  <r_i_glide_erotb>  (1) 
0

>  <r_i_glide_esite>  (1) 
0

>  <r_i_glide_evdw>  (1) 
-15.833255506514718

>  <r_i_glide_gscore>  (1) 
-4.9486411047221637

>  <r_i_glide_gscore_strain>  (1) 
0

>  <r_i_glide_hbond>  (1) 
0

>  <r_i_glide_ligand_efficiency>  (1) 
-0.70694872924602337

>  <r_i_glide_ligand_efficiency_ln>  (1) 
-1.6798343650464291

>  <r_i_glide_ligand_efficiency_sa>  (1) 
-1.352344268796033

>  <r_i_glide_lipo>  (1) 
-1.5634758154086821

>  <r_i_glide_metal>  (1) 
-0

>  <r_i_glide_rewards>  (1) 
-2.6105366967073298

>  <r_lp_Energy>  (1) 
9.6410049999999998

>  <r_lp_tautomer_probability>  (1) 
1

>  <s_epik_cmdline>  (1) 
J2VwaWtfcHl0aG9uJywgJy1waHQnLCAnMS4wJywgJy1waCcsICc3LjQnLCAnLXRuJywgJzgnLCAnLW1hJywgJzUwMCcsICctaW1hZScsICc8aW5maWxlLm1hZT4nLCAnLW9tYWUnLCAnPG91dGZpbGUubWFlPic=

>  <s_epik_input>  (1) 
W0NIMl0xT1tDSDJdW0NIMl1bQ0gyXU9bQ0gyXTE=

>  <s_glide_docking_method>  (1) 
confgen

>  <s_i_glide_gridfile>  (1) 
gpcr_5ht2c_6bqh_protein_autoprepared_prepared

>  <s_lp_Force_Field>  (1) 
S-OPLS

>  <s_lp_Variant>  (1) 
Pocket2Mol_35-1

>  <s_m_source_file>  (1) 
generated_GPCR_5HT2C_ligand_Pocket2Mol_2026-06-23_prepared.sdf

>  <GenAI_Model>  (1) 
Pocket2Mol

>  <Protein>  (1) 
GPCR_5HT2C

$$$$
Pocket2Mol_4
     RDKit          3D

  0  0  0  0  0  0  0  0  0  0999 V3000
M  V30 BEGIN CTAB
M  V30 COUNTS 9 9 0 0 1
M  V30 BEGIN ATOM
M  V30 1 C 38.690504 28.861331 52.884126 0
M  V30 2 C 39.645133 29.577302 52.120151 0
M  V30 3 C 38.443746 27.798348 52.229729 0
M  V30 4 C 39.245880 27.862181 51.064065 0
M  V30 5 C 40.017923 28.971629 50.967760 0
M  V30 6 H 38.259312 29.158345 53.829172 0
M  V30 7 H 40.039486 30.530189 52.442608 0
M  V30 8 H 37.759582 27.008286 52.505961 0
M  V30 9 H 39.236599 27.080396 50.318268 0
M  V30 END ATOM
M  V30 BEGIN BOND
M  V30 1 1 2 1
M  V30 2 2 3 1
M  V30 3 1 4 3
M  V30 4 2 5 2
M  V30 5 2 5 4
M  V30 6 1 6 1
M  V30 7 1 7 2
M  V30 8 1 8 3
M  V30 9 1 9 4
M  V30 END BOND
M  V30 END CTAB
M  END
>  <i_epik_Tot_Q>  (1) 
0

>  <i_epik_Tot_abs_Q>  (1) 
0

>  <i_i_glide_confnum>  (1) 
1

>  <i_i_glide_lignum>  (1) 
7

>  <i_i_glide_posenum>  (1) 
144

>  <i_i_glide_rotatable_bonds>  (1) 
0

>  <i_lp_mmshare_version>  (1) 
72125

>  <i_m_source_file_index>  (1) 
5

>  <i_f3d_flags>  (1) 
0

>  <num_sample>  (1) 
100

>  <b_lp_Chiralities_Consistent>  (1) 
1

>  <r_epik_Charging_Adjusted_Penalty>  (1) 
0

>  <r_epik_Ionization_Penalty>  (1) 
0

>  <r_epik_Ionization_Penalty_Charging>  (1) 
0

>  <r_epik_Ionization_Penalty_Neutral>  (1) 
0

>  <r_epik_State_Penalty>  (1) 
-0

>  <r_glide_ring_energy>  (1) 
0

>  <r_i_docking_score>  (1) 
-4.9467934326046334

>  <r_i_glide_ecoul>  (1) 
-0.72728905707181923

>  <r_i_glide_eff_state_penalty>  (1) 
-0

>  <r_i_glide_einternal>  (1) 
0

>  <r_i_glide_emodel>  (1) 
-19.067578880837694

>  <r_i_glide_emodel_strain>  (1) 
0

>  <r_i_glide_energy>  (1) 
-14.738666899226525

>  <r_i_glide_erotb>  (1) 
0

>  <r_i_glide_esite>  (1) 
0

>  <r_i_glide_evdw>  (1) 
-14.011377842154705

>  <r_i_glide_gscore>  (1) 
-4.9467934326046334

>  <r_i_glide_gscore_strain>  (1) 
0

>  <r_i_glide_hbond>  (1) 
0

>  <r_i_glide_ligand_efficiency>  (1) 
-0.98935868652092673

>  <r_i_glide_ligand_efficiency_ln>  (1) 
-1.8957314174952846

>  <r_i_glide_ligand_efficiency_sa>  (1) 
-1.6917795565864351

>  <r_i_glide_lipo>  (1) 
-1.6500000000000001

>  <r_i_glide_metal>  (1) 
-0

>  <r_i_glide_rewards>  (1) 
-2.4871311819361259

>  <r_lp_Energy>  (1) 
-2.6088139999999997

>  <r_lp_tautomer_probability>  (1) 
1

>  <s_epik_cmdline>  (1) 
J2VwaWtfcHl0aG9uJywgJy1waHQnLCAnMS4wJywgJy1waCcsICc3LjQnLCAnLXRuJywgJzgnLCAnLW1hJywgJzUwMCcsICctaW1hZScsICc8aW5maWxlLm1hZT4nLCAnLW9tYWUnLCAnPG91dGZpbGUubWFlPic=

>  <s_epik_input>  (1) 
W0NIXTE9W0NIXVtDSF09Qz1bQ0hdMQ==

>  <s_glide_docking_method>  (1) 
confgen

>  <s_i_glide_gridfile>  (1) 
gpcr_5ht2c_6bqh_protein_autoprepared_prepared

>  <s_lp_Force_Field>  (1) 
S-OPLS

>  <s_lp_Variant>  (1) 
Pocket2Mol_4-1

>  <s_m_source_file>  (1) 
generated_GPCR_5HT2C_ligand_Pocket2Mol_2026-06-23_prepared.sdf

>  <GenAI_Model>  (1) 
Pocket2Mol

>  <Protein>  (1) 
GPCR_5HT2C

$$$$
Pocket2Mol_20
     RDKit          3D

  0  0  0  0  0  0  0  0  0  0999 V3000
M  V30 BEGIN CTAB
M  V30 COUNTS 10 10 0 0 1
M  V30 BEGIN ATOM
M  V30 1 C 40.045137 29.298854 50.156797 0
M  V30 2 C 40.454189 30.533345 50.745669 0
M  V30 3 C 39.397771 28.574208 51.119767 0
M  V30 4 C 40.045137 30.523049 52.050794 0
M  V30 5 N 39.401228 29.327564 52.267360 0
M  V30 6 O 38.844948 28.943441 53.454246 0 CHG=-1
M  V30 7 H 40.206325 28.979073 49.139461 0
M  V30 8 H 40.989607 31.337748 50.265229 0
M  V30 9 H 38.935297 27.598443 51.095257 0
M  V30 10 H 40.148760 31.251697 52.841137 0
M  V30 END ATOM
M  V30 BEGIN BOND
M  V30 1 1 2 1
M  V30 2 2 3 1
M  V30 3 2 4 2
M  V30 4 1 5 3
M  V30 5 1 5 4
M  V30 6 1 6 5
M  V30 7 1 7 1
M  V30 8 1 8 2
M  V30 9 1 9 3
M  V30 10 1 10 4
M  V30 END BOND
M  V30 END CTAB
M  END
>  <i_epik_Tot_Q>  (1) 
-1

>  <i_epik_Tot_abs_Q>  (1) 
1

>  <i_i_glide_confnum>  (1) 
1

>  <i_i_glide_lignum>  (1) 
23

>  <i_i_glide_posenum>  (1) 
198

>  <i_i_glide_rotatable_bonds>  (1) 
0

>  <i_lp_mmshare_version>  (1) 
72125

>  <i_m_source_file_index>  (1) 
21

>  <i_f3d_flags>  (1) 
0

>  <num_sample>  (1) 
100

>  <b_lp_Chiralities_Consistent>  (1) 
1

>  <r_epik_Charging_Adjusted_Penalty>  (1) 
0.038602441834166765

>  <r_epik_Ionization_Penalty>  (1) 
0.019301220976331968

>  <r_epik_Ionization_Penalty_Charging>  (1) 
0.019301220917083386

>  <r_epik_Ionization_Penalty_Neutral>  (1) 
5.9248581604286784e-11

>  <r_epik_State_Penalty>  (1) 
0.019301220917083379

>  <r_glide_ring_energy>  (1) 
0

>  <r_i_docking_score>  (1) 
-4.9341007845910827

>  <r_i_glide_ecoul>  (1) 
-0.61650960970739987

>  <r_i_glide_eff_state_penalty>  (1) 
0.019301220917083379

>  <r_i_glide_einternal>  (1) 
0

>  <r_i_glide_emodel>  (1) 
-18.390199934384711

>  <r_i_glide_emodel_strain>  (1) 
0

>  <r_i_glide_energy>  (1) 
-13.603184858028783

>  <r_i_glide_erotb>  (1) 
0

>  <r_i_glide_esite>  (1) 
0

>  <r_i_glide_evdw>  (1) 
-12.986675248321383

>  <r_i_glide_gscore>  (1) 
-4.953402005508166

>  <r_i_glide_gscore_strain>  (1) 
0

>  <r_i_glide_hbond>  (1) 
0

>  <r_i_glide_ligand_efficiency>  (1) 
-0.82235013076518049

>  <r_i_glide_ligand_efficiency_ln>  (1) 
-1.7673803345083319

>  <r_i_glide_ligand_efficiency_sa>  (1) 
-1.4943093571316124

>  <r_i_glide_lipo>  (1) 
-1.1034436658600202

>  <r_i_glide_metal>  (1) 
-0

>  <r_i_glide_rewards>  (1) 
-3.1081481357759668

>  <r_lp_Energy>  (1) 
1.8910769999999999

>  <r_lp_tautomer_probability>  (1) 
1

>  <s_epik_cmdline>  (1) 
J2VwaWtfcHl0aG9uJywgJy1waHQnLCAnMS4wJywgJy1waCcsICc3LjQnLCAnLXRuJywgJzgnLCAnLW1hJywgJzUwMCcsICctaW1hZScsICc8aW5maWxlLm1hZT4nLCAnLW9tYWUnLCAnPG91dGZpbGUubWFlPic=

>  <s_epik_input>  (1) 
W2NIXTFbY0hdW2NIXVtjSF1uMVtPSF0=

>  <s_glide_docking_method>  (1) 
confgen

>  <s_i_glide_gridfile>  (1) 
gpcr_5ht2c_6bqh_protein_autoprepared_prepared

>  <s_lp_Force_Field>  (1) 
S-OPLS

>  <s_lp_Variant>  (1) 
Pocket2Mol_20-1

>  <s_m_source_file>  (1) 
generated_GPCR_5HT2C_ligand_Pocket2Mol_2026-06-23_prepared.sdf

>  <GenAI_Model>  (1) 
Pocket2Mol

>  <Protein>  (1) 
GPCR_5HT2C

$$$$
Pocket2Mol_4
     RDKit          3D

  0  0  0  0  0  0  0  0  0  0999 V3000
M  V30 BEGIN CTAB
M  V30 COUNTS 9 9 0 0 1
M  V30 BEGIN ATOM
M  V30 1 C 40.045153 30.327221 51.994185 0
M  V30 2 C 39.245148 29.317708 52.587951 0
M  V30 3 C 40.292701 29.927994 50.812893 0
M  V30 4 C 39.645158 28.674924 50.681043 0
M  V30 5 C 38.977061 28.261292 51.783839 0
M  V30 6 H 40.376067 31.248283 52.451658 0
M  V30 7 H 38.882960 29.396021 53.603351 0
M  V30 8 H 40.876145 30.440180 50.062118 0
M  V30 9 H 39.687472 28.105464 49.767761 0
M  V30 END ATOM
M  V30 BEGIN BOND
M  V30 1 1 2 1
M  V30 2 2 3 1
M  V30 3 1 4 3
M  V30 4 2 5 2
M  V30 5 2 5 4
M  V30 6 1 6 1
M  V30 7 1 7 2
M  V30 8 1 8 3
M  V30 9 1 9 4
M  V30 END BOND
M  V30 END CTAB
M  END
>  <i_epik_Tot_Q>  (1) 
0

>  <i_epik_Tot_abs_Q>  (1) 
0

>  <i_i_glide_confnum>  (1) 
1

>  <i_i_glide_lignum>  (1) 
7

>  <i_i_glide_posenum>  (1) 
28

>  <i_i_glide_rotatable_bonds>  (1) 
0

>  <i_lp_mmshare_version>  (1) 
72125

>  <i_m_source_file_index>  (1) 
5

>  <i_f3d_flags>  (1) 
0

>  <num_sample>  (1) 
100

>  <b_lp_Chiralities_Consistent>  (1) 
1

>  <r_epik_Charging_Adjusted_Penalty>  (1) 
0

>  <r_epik_Ionization_Penalty>  (1) 
0

>  <r_epik_Ionization_Penalty_Charging>  (1) 
0

>  <r_epik_Ionization_Penalty_Neutral>  (1) 
0

>  <r_epik_State_Penalty>  (1) 
-0

>  <r_glide_ring_energy>  (1) 
0

>  <r_i_docking_score>  (1) 
-4.9270627369851177

>  <r_i_glide_ecoul>  (1) 
-0.36546909388525706

>  <r_i_glide_eff_state_penalty>  (1) 
-0

>  <r_i_glide_einternal>  (1) 
0

>  <r_i_glide_emodel>  (1) 
-18.092567541821225

>  <r_i_glide_emodel_strain>  (1) 
0

>  <r_i_glide_energy>  (1) 
-13.780921784449353

>  <r_i_glide_erotb>  (1) 
0

>  <r_i_glide_esite>  (1) 
0

>  <r_i_glide_evdw>  (1) 
-13.415452690564095

>  <r_i_glide_gscore>  (1) 
-4.9270627369851177

>  <r_i_glide_gscore_strain>  (1) 
0

>  <r_i_glide_hbond>  (1) 
0

>  <r_i_glide_ligand_efficiency>  (1) 
-0.98541254739702355

>  <r_i_glide_ligand_efficiency_ln>  (1) 
-1.8881701356094431

>  <r_i_glide_ligand_efficiency_sa>  (1) 
-1.6850317536023209

>  <r_i_glide_lipo>  (1) 
-1.4922686904661704

>  <r_i_glide_metal>  (1) 
-0

>  <r_i_glide_rewards>  (1) 
-2.7092010479079542

>  <r_lp_Energy>  (1) 
-2.6088139999999997

>  <r_lp_tautomer_probability>  (1) 
1

>  <s_epik_cmdline>  (1) 
J2VwaWtfcHl0aG9uJywgJy1waHQnLCAnMS4wJywgJy1waCcsICc3LjQnLCAnLXRuJywgJzgnLCAnLW1hJywgJzUwMCcsICctaW1hZScsICc8aW5maWxlLm1hZT4nLCAnLW9tYWUnLCAnPG91dGZpbGUubWFlPic=

>  <s_epik_input>  (1) 
W0NIXTE9W0NIXVtDSF09Qz1bQ0hdMQ==

>  <s_glide_docking_method>  (1) 
confgen

>  <s_i_glide_gridfile>  (1) 
gpcr_5ht2c_6bqh_protein_autoprepared_prepared

>  <s_lp_Force_Field>  (1) 
S-OPLS

>  <s_lp_Variant>  (1) 
Pocket2Mol_4-1

>  <s_m_source_file>  (1) 
generated_GPCR_5HT2C_ligand_Pocket2Mol_2026-06-23_prepared.sdf

>  <GenAI_Model>  (1) 
Pocket2Mol

>  <Protein>  (1) 
GPCR_5HT2C

$$$$
Pocket2Mol_24
     RDKit          3D

  0  0  0  0  0  0  0  0  0  0999 V3000
M  V30 BEGIN CTAB
M  V30 COUNTS 11 11 0 0 1
M  V30 BEGIN ATOM
M  V30 1 C 38.925109 27.738253 51.381675 0
M  V30 2 C 38.673836 28.300985 52.675614 0
M  V30 3 C 39.244877 29.534513 52.796032 0
M  V30 4 C 39.229493 30.461659 53.965890 0
M  V30 5 N 39.645690 28.486444 50.567757 0
M  V30 6 S 40.045167 29.935522 51.318881 0
M  V30 7 H 38.583500 26.776568 51.031630 0
M  V30 8 H 38.102846 27.793918 53.439345 0
M  V30 9 H 38.673123 30.031861 54.799190 0
M  V30 10 H 40.241797 30.672594 54.311761 0
M  V30 11 H 38.756293 31.408245 53.704230 0
M  V30 END ATOM
M  V30 BEGIN BOND
M  V30 1 1 2 1
M  V30 2 2 3 2
M  V30 3 1 4 3
M  V30 4 2 5 1
M  V30 5 1 6 3
M  V30 6 1 6 5
M  V30 7 1 7 1
M  V30 8 1 8 2
M  V30 9 1 9 4
M  V30 10 1 10 4
M  V30 11 1 11 4
M  V30 END BOND
M  V30 END CTAB
M  END
>  <i_epik_Tot_Q>  (1) 
0

>  <i_epik_Tot_abs_Q>  (1) 
0

>  <i_i_glide_confnum>  (1) 
1

>  <i_i_glide_lignum>  (1) 
27

>  <i_i_glide_posenum>  (1) 
33

>  <i_i_glide_rotatable_bonds>  (1) 
0

>  <i_lp_mmshare_version>  (1) 
72125

>  <i_m_source_file_index>  (1) 
25

>  <i_f3d_flags>  (1) 
0

>  <num_sample>  (1) 
100

>  <b_lp_Chiralities_Consistent>  (1) 
1

>  <r_epik_Charging_Adjusted_Penalty>  (1) 
0

>  <r_epik_Ionization_Penalty>  (1) 
2.7081824038816109e-08

>  <r_epik_Ionization_Penalty_Charging>  (1) 
0

>  <r_epik_Ionization_Penalty_Neutral>  (1) 
2.7081824038816109e-08

>  <r_epik_State_Penalty>  (1) 
-0

>  <r_glide_ring_energy>  (1) 
0

>  <r_i_docking_score>  (1) 
-4.9245031415871106

>  <r_i_glide_ecoul>  (1) 
-0.54645171068522913

>  <r_i_glide_eff_state_penalty>  (1) 
-0

>  <r_i_glide_einternal>  (1) 
0

>  <r_i_glide_emodel>  (1) 
-23.804188097860226

>  <r_i_glide_emodel_strain>  (1) 
0

>  <r_i_glide_energy>  (1) 
-18.304019109186189

>  <r_i_glide_erotb>  (1) 
0

>  <r_i_glide_esite>  (1) 
0

>  <r_i_glide_evdw>  (1) 
-17.75756739850096

>  <r_i_glide_gscore>  (1) 
-4.9245031415871106

>  <r_i_glide_gscore_strain>  (1) 
0

>  <r_i_glide_hbond>  (1) 
0

>  <r_i_glide_ligand_efficiency>  (1) 
-0.82075052359785172

>  <r_i_glide_ligand_efficiency_ln>  (1) 
-1.763942487118626

>  <r_i_glide_ligand_efficiency_sa>  (1) 
-1.4914026780074177

>  <r_i_glide_lipo>  (1) 
-1.5085505190091193

>  <r_i_glide_metal>  (1) 
-0

>  <r_i_glide_rewards>  (1) 
-2.4461064960501586

>  <r_lp_Energy>  (1) 
1.924183

>  <r_lp_tautomer_probability>  (1) 
1

>  <s_epik_cmdline>  (1) 
J2VwaWtfcHl0aG9uJywgJy1waHQnLCAnMS4wJywgJy1waCcsICc3LjQnLCAnLXRuJywgJzgnLCAnLW1hJywgJzUwMCcsICctaW1hZScsICc8aW5maWxlLm1hZT4nLCAnLW9tYWUnLCAnPG91dGZpbGUubWFlPic=

>  <s_epik_input>  (1) 
czFuW2NIXVtjSF1jMVtDSDNd

>  <s_glide_docking_method>  (1) 
confgen

>  <s_i_glide_gridfile>  (1) 
gpcr_5ht2c_6bqh_protein_autoprepared_prepared

>  <s_lp_Force_Field>  (1) 
S-OPLS

>  <s_lp_Variant>  (1) 
Pocket2Mol_24-1

>  <s_m_source_file>  (1) 
generated_GPCR_5HT2C_ligand_Pocket2Mol_2026-06-23_prepared.sdf

>  <GenAI_Model>  (1) 
Pocket2Mol

>  <Protein>  (1) 
GPCR_5HT2C

$$$$
Pocket2Mol_4
     RDKit          3D

  0  0  0  0  0  0  0  0  0  0999 V3000
M  V30 BEGIN CTAB
M  V30 COUNTS 9 9 0 0 1
M  V30 BEGIN ATOM
M  V30 1 C 39.245147 27.835582 50.967760 0
M  V30 2 C 38.612775 27.798912 52.234376 0
M  V30 3 C 39.884024 28.936006 50.926102 0
M  V30 4 C 39.645126 29.573485 52.167735 0
M  V30 5 C 38.845115 28.881461 53.014271 0
M  V30 6 H 39.194161 27.083094 50.193774 0
M  V30 7 H 37.994448 26.967944 52.542502 0
M  V30 8 H 40.484843 29.308459 50.109634 0
M  V30 9 H 40.070542 30.537006 52.409182 0
M  V30 END ATOM
M  V30 BEGIN BOND
M  V30 1 1 2 1
M  V30 2 2 3 1
M  V30 3 1 4 3
M  V30 4 2 5 2
M  V30 5 2 5 4
M  V30 6 1 6 1
M  V30 7 1 7 2
M  V30 8 1 8 3
M  V30 9 1 9 4
M  V30 END BOND
M  V30 END CTAB
M  END
>  <i_epik_Tot_Q>  (1) 
0

>  <i_epik_Tot_abs_Q>  (1) 
0

>  <i_i_glide_confnum>  (1) 
1

>  <i_i_glide_lignum>  (1) 
7

>  <i_i_glide_posenum>  (1) 
109

>  <i_i_glide_rotatable_bonds>  (1) 
0

>  <i_lp_mmshare_version>  (1) 
72125

>  <i_m_source_file_index>  (1) 
5

>  <i_f3d_flags>  (1) 
0

>  <num_sample>  (1) 
100

>  <b_lp_Chiralities_Consistent>  (1) 
1

>  <r_epik_Charging_Adjusted_Penalty>  (1) 
0

>  <r_epik_Ionization_Penalty>  (1) 
0

>  <r_epik_Ionization_Penalty_Charging>  (1) 
0

>  <r_epik_Ionization_Penalty_Neutral>  (1) 
0

>  <r_epik_State_Penalty>  (1) 
-0

>  <r_glide_ring_energy>  (1) 
0

>  <r_i_docking_score>  (1) 
-4.913426036958306

>  <r_i_glide_ecoul>  (1) 
-0.64493774886358257

>  <r_i_glide_eff_state_penalty>  (1) 
-0

>  <r_i_glide_einternal>  (1) 
0

>  <r_i_glide_emodel>  (1) 
-18.86990339841222

>  <r_i_glide_emodel_strain>  (1) 
0

>  <r_i_glide_energy>  (1) 
-14.570191042937955

>  <r_i_glide_erotb>  (1) 
0

>  <r_i_glide_esite>  (1) 
0

>  <r_i_glide_evdw>  (1) 
-13.925253294074372

>  <r_i_glide_gscore>  (1) 
-4.913426036958306

>  <r_i_glide_gscore_strain>  (1) 
0

>  <r_i_glide_hbond>  (1) 
0

>  <r_i_glide_ligand_efficiency>  (1) 
-0.98268520739166121

>  <r_i_glide_ligand_efficiency_ln>  (1) 
-1.8829442208782161

>  <r_i_glide_ligand_efficiency_sa>  (1) 
-1.6803680677947421

>  <r_i_glide_lipo>  (1) 
-1.6130883956946509

>  <r_i_glide_metal>  (1) 
-0

>  <r_i_glide_rewards>  (1) 
-2.5073343142303992

>  <r_lp_Energy>  (1) 
-2.6088139999999997

>  <r_lp_tautomer_probability>  (1) 
1

>  <s_epik_cmdline>  (1) 
J2VwaWtfcHl0aG9uJywgJy1waHQnLCAnMS4wJywgJy1waCcsICc3LjQnLCAnLXRuJywgJzgnLCAnLW1hJywgJzUwMCcsICctaW1hZScsICc8aW5maWxlLm1hZT4nLCAnLW9tYWUnLCAnPG91dGZpbGUubWFlPic=

>  <s_epik_input>  (1) 
W0NIXTE9W0NIXVtDSF09Qz1bQ0hdMQ==

>  <s_glide_docking_method>  (1) 
confgen

>  <s_i_glide_gridfile>  (1) 
gpcr_5ht2c_6bqh_protein_autoprepared_prepared

>  <s_lp_Force_Field>  (1) 
S-OPLS

>  <s_lp_Variant>  (1) 
Pocket2Mol_4-1

>  <s_m_source_file>  (1) 
generated_GPCR_5HT2C_ligand_Pocket2Mol_2026-06-23_prepared.sdf

>  <GenAI_Model>  (1) 
Pocket2Mol

>  <Protein>  (1) 
GPCR_5HT2C

$$$$
Pocket2Mol_24
     RDKit          3D

  0  0  0  0  0  0  0  0  0  0999 V3000
M  V30 BEGIN CTAB
M  V30 COUNTS 11 11 0 0 1
M  V30 BEGIN ATOM
M  V30 1 C 40.412492 30.424979 50.599532 0
M  V30 2 C 40.045137 30.468496 51.982109 0
M  V30 3 C 39.372892 29.337743 52.350668 0
M  V30 4 C 38.806995 28.980773 53.683443 0
M  V30 5 N 40.045137 29.337751 49.950493 0
M  V30 6 S 39.245143 28.283619 50.990164 0
M  V30 7 H 40.947196 31.193516 50.060637 0
M  V30 8 H 40.277393 31.302982 52.628078 0
M  V30 9 H 39.000007 29.764738 54.416367 0
M  V30 10 H 37.727647 28.841058 53.618488 0
M  V30 11 H 39.245092 28.054672 54.055880 0
M  V30 END ATOM
M  V30 BEGIN BOND
M  V30 1 1 2 1
M  V30 2 2 3 2
M  V30 3 1 4 3
M  V30 4 2 5 1
M  V30 5 1 6 3
M  V30 6 1 6 5
M  V30 7 1 7 1
M  V30 8 1 8 2
M  V30 9 1 9 4
M  V30 10 1 10 4
M  V30 11 1 11 4
M  V30 END BOND
M  V30 END CTAB
M  END
>  <i_epik_Tot_Q>  (1) 
0

>  <i_epik_Tot_abs_Q>  (1) 
0

>  <i_i_glide_confnum>  (1) 
1

>  <i_i_glide_lignum>  (1) 
27

>  <i_i_glide_posenum>  (1) 
250

>  <i_i_glide_rotatable_bonds>  (1) 
0

>  <i_lp_mmshare_version>  (1) 
72125

>  <i_m_source_file_index>  (1) 
25

>  <i_f3d_flags>  (1) 
0

>  <num_sample>  (1) 
100

>  <b_lp_Chiralities_Consistent>  (1) 
1

>  <r_epik_Charging_Adjusted_Penalty>  (1) 
0

>  <r_epik_Ionization_Penalty>  (1) 
2.7081824038816109e-08

>  <r_epik_Ionization_Penalty_Charging>  (1) 
0

>  <r_epik_Ionization_Penalty_Neutral>  (1) 
2.7081824038816109e-08

>  <r_epik_State_Penalty>  (1) 
-0

>  <r_glide_ring_energy>  (1) 
0

>  <r_i_docking_score>  (1) 
-4.8899061495381737

>  <r_i_glide_ecoul>  (1) 
-0.66742784906492947

>  <r_i_glide_eff_state_penalty>  (1) 
-0

>  <r_i_glide_einternal>  (1) 
0

>  <r_i_glide_emodel>  (1) 
-23.144722005666296

>  <r_i_glide_emodel_strain>  (1) 
0

>  <r_i_glide_energy>  (1) 
-17.683194337202206

>  <r_i_glide_erotb>  (1) 
0

>  <r_i_glide_esite>  (1) 
0

>  <r_i_glide_evdw>  (1) 
-17.015766488137277

>  <r_i_glide_gscore>  (1) 
-4.8899061495381737

>  <r_i_glide_gscore_strain>  (1) 
0

>  <r_i_glide_hbond>  (1) 
0

>  <r_i_glide_ligand_efficiency>  (1) 
-0.81498435825636228

>  <r_i_glide_ligand_efficiency_ln>  (1) 
-1.7515499467044968

>  <r_i_glide_ligand_efficiency_sa>  (1) 
-1.4809248602237222

>  <r_i_glide_lipo>  (1) 
-1.382328471742438

>  <r_i_glide_metal>  (1) 
-0

>  <r_i_glide_rewards>  (1) 
-2.5566751760291329

>  <r_lp_Energy>  (1) 
1.924183

>  <r_lp_tautomer_probability>  (1) 
1

>  <s_epik_cmdline>  (1) 
J2VwaWtfcHl0aG9uJywgJy1waHQnLCAnMS4wJywgJy1waCcsICc3LjQnLCAnLXRuJywgJzgnLCAnLW1hJywgJzUwMCcsICctaW1hZScsICc8aW5maWxlLm1hZT4nLCAnLW9tYWUnLCAnPG91dGZpbGUubWFlPic=

>  <s_epik_input>  (1) 
czFuW2NIXVtjSF1jMVtDSDNd

>  <s_glide_docking_method>  (1) 
confgen

>  <s_i_glide_gridfile>  (1) 
gpcr_5ht2c_6bqh_protein_autoprepared_prepared

>  <s_lp_Force_Field>  (1) 
S-OPLS

>  <s_lp_Variant>  (1) 
Pocket2Mol_24-1

>  <s_m_source_file>  (1) 
generated_GPCR_5HT2C_ligand_Pocket2Mol_2026-06-23_prepared.sdf

>  <GenAI_Model>  (1) 
Pocket2Mol

>  <Protein>  (1) 
GPCR_5HT2C

$$$$
Pocket2Mol_16
     RDKit          3D

  0  0  0  0  0  0  0  0  0  0999 V3000
M  V30 BEGIN CTAB
M  V30 COUNTS 18 18 0 0 1
M  V30 BEGIN ATOM
M  V30 1 C 39.546125 30.110943 52.994663 0
M  V30 2 C 39.645143 29.337767 51.666781 0
M  V30 3 C 38.543882 29.337515 53.862504 0
M  V30 4 C 38.845386 28.041153 51.850940 0
M  V30 5 C 38.642423 27.895521 53.358437 0
M  V30 6 C 38.783032 29.487509 55.370363 0
M  V30 7 H 39.245139 31.149147 52.851508 0
M  V30 8 H 40.518506 30.137690 53.482249 0
M  V30 9 H 39.248524 29.917269 50.832081 0
M  V30 10 H 40.688887 29.117554 51.438747 0
M  V30 11 H 37.542849 29.705052 53.636021 0
M  V30 12 H 37.872779 28.142040 51.367681 0
M  V30 13 H 39.340030 27.174606 51.410139 0
M  V30 14 H 39.507214 27.397336 53.799194 0
M  V30 15 H 37.758921 27.304274 53.602549 0
M  V30 16 H 39.775742 29.136721 55.654310 0
M  V30 17 H 38.050449 28.915456 55.940310 0
M  V30 18 H 38.696816 30.530622 55.676618 0
M  V30 END ATOM
M  V30 BEGIN BOND
M  V30 1 1 2 1
M  V30 2 1 3 1
M  V30 3 1 4 2
M  V30 4 1 5 3
M  V30 5 1 5 4
M  V30 6 1 6 3
M  V30 7 1 7 1
M  V30 8 1 8 1
M  V30 9 1 9 2
M  V30 10 1 10 2
M  V30 11 1 11 3
M  V30 12 1 12 4
M  V30 13 1 13 4
M  V30 14 1 14 5
M  V30 15 1 15 5
M  V30 16 1 16 6
M  V30 17 1 17 6
M  V30 18 1 18 6
M  V30 END BOND
M  V30 END CTAB
M  END
>  <i_epik_Tot_Q>  (1) 
0

>  <i_epik_Tot_abs_Q>  (1) 
0

>  <i_i_glide_confnum>  (1) 
1

>  <i_i_glide_lignum>  (1) 
19

>  <i_i_glide_posenum>  (1) 
90

>  <i_i_glide_rotatable_bonds>  (1) 
0

>  <i_lp_mmshare_version>  (1) 
72125

>  <i_m_source_file_index>  (1) 
17

>  <i_f3d_flags>  (1) 
0

>  <num_sample>  (1) 
100

>  <b_lp_Chiralities_Consistent>  (1) 
1

>  <r_epik_Charging_Adjusted_Penalty>  (1) 
0

>  <r_epik_Ionization_Penalty>  (1) 
0

>  <r_epik_Ionization_Penalty_Charging>  (1) 
0

>  <r_epik_Ionization_Penalty_Neutral>  (1) 
0

>  <r_epik_State_Penalty>  (1) 
-0

>  <r_glide_ring_energy>  (1) 
0

>  <r_i_docking_score>  (1) 
-4.8826507723714947

>  <r_i_glide_ecoul>  (1) 
-0.12957420578503648

>  <r_i_glide_eff_state_penalty>  (1) 
-0

>  <r_i_glide_einternal>  (1) 
0

>  <r_i_glide_emodel>  (1) 
-19.234887937909171

>  <r_i_glide_emodel_strain>  (1) 
0.0072127218587922926

>  <r_i_glide_energy>  (1) 
-14.452059463786171

>  <r_i_glide_erotb>  (1) 
0

>  <r_i_glide_esite>  (1) 
0

>  <r_i_glide_evdw>  (1) 
-14.322485258001134

>  <r_i_glide_gscore>  (1) 
-4.8826507723714947

>  <r_i_glide_gscore_strain>  (1) 
0

>  <r_i_glide_hbond>  (1) 
0

>  <r_i_glide_ligand_efficiency>  (1) 
-0.81377512872858249

>  <r_i_glide_ligand_efficiency_ln>  (1) 
-1.7489510920228342

>  <r_i_glide_ligand_efficiency_sa>  (1) 
-1.4787275443473327

>  <r_i_glide_lipo>  (1) 
-1.6445143767639954

>  <r_i_glide_metal>  (1) 
-0

>  <r_i_glide_rewards>  (1) 
-2.5025760018396865

>  <r_lp_Energy>  (1) 
6.4120089999999994

>  <r_lp_tautomer_probability>  (1) 
1

>  <s_epik_cmdline>  (1) 
J2VwaWtfcHl0aG9uJywgJy1waHQnLCAnMS4wJywgJy1waCcsICc3LjQnLCAnLXRuJywgJzgnLCAnLW1hJywgJzUwMCcsICctaW1hZScsICc8aW5maWxlLm1hZT4nLCAnLW9tYWUnLCAnPG91dGZpbGUubWFlPic=

>  <s_epik_input>  (1) 
W0NIM11bQ0hdMVtDSDJdW0NIMl1bQ0gyXVtDSDJdMQ==

>  <s_glide_docking_method>  (1) 
confgen

>  <s_i_glide_gridfile>  (1) 
gpcr_5ht2c_6bqh_protein_autoprepared_prepared

>  <s_lp_Force_Field>  (1) 
S-OPLS

>  <s_lp_Variant>  (1) 
Pocket2Mol_16-1

>  <s_m_source_file>  (1) 
generated_GPCR_5HT2C_ligand_Pocket2Mol_2026-06-23_prepared.sdf

>  <GenAI_Model>  (1) 
Pocket2Mol

>  <Protein>  (1) 
GPCR_5HT2C

$$$$
Pocket2Mol_4
     RDKit          3D

  0  0  0  0  0  0  0  0  0  0999 V3000
M  V30 BEGIN CTAB
M  V30 COUNTS 9 9 0 0 1
M  V30 BEGIN ATOM
M  V30 1 C 39.176093 28.381724 52.132098 0
M  V30 2 C 39.555662 29.726241 52.377626 0
M  V30 3 C 39.482179 28.147854 50.918747 0
M  V30 4 C 40.045137 29.348660 50.418724 0
M  V30 5 C 40.102282 30.362218 51.313773 0
M  V30 6 H 38.720823 27.695702 52.832108 0
M  V30 7 H 39.409615 30.198979 53.339522 0
M  V30 8 H 39.338781 27.222283 50.377545 0
M  V30 9 H 40.393813 29.437956 49.400958 0
M  V30 END ATOM
M  V30 BEGIN BOND
M  V30 1 1 2 1
M  V30 2 2 3 1
M  V30 3 1 4 3
M  V30 4 2 5 2
M  V30 5 2 5 4
M  V30 6 1 6 1
M  V30 7 1 7 2
M  V30 8 1 8 3
M  V30 9 1 9 4
M  V30 END BOND
M  V30 END CTAB
M  END
>  <i_epik_Tot_Q>  (1) 
0

>  <i_epik_Tot_abs_Q>  (1) 
0

>  <i_i_glide_confnum>  (1) 
1

>  <i_i_glide_lignum>  (1) 
7

>  <i_i_glide_posenum>  (1) 
351

>  <i_i_glide_rotatable_bonds>  (1) 
0

>  <i_lp_mmshare_version>  (1) 
72125

>  <i_m_source_file_index>  (1) 
5

>  <i_f3d_flags>  (1) 
0

>  <num_sample>  (1) 
100

>  <b_lp_Chiralities_Consistent>  (1) 
1

>  <r_epik_Charging_Adjusted_Penalty>  (1) 
0

>  <r_epik_Ionization_Penalty>  (1) 
0

>  <r_epik_Ionization_Penalty_Charging>  (1) 
0

>  <r_epik_Ionization_Penalty_Neutral>  (1) 
0

>  <r_epik_State_Penalty>  (1) 
-0

>  <r_glide_ring_energy>  (1) 
0

>  <r_i_docking_score>  (1) 
-4.8788657252659293

>  <r_i_glide_ecoul>  (1) 
-0.25279356787763596

>  <r_i_glide_eff_state_penalty>  (1) 
-0

>  <r_i_glide_einternal>  (1) 
0

>  <r_i_glide_emodel>  (1) 
-17.574816472546189

>  <r_i_glide_emodel_strain>  (1) 
0

>  <r_i_glide_energy>  (1) 
-13.305347657541446

>  <r_i_glide_erotb>  (1) 
0

>  <r_i_glide_esite>  (1) 
0

>  <r_i_glide_evdw>  (1) 
-13.052554089663811

>  <r_i_glide_gscore>  (1) 
-4.8788657252659293

>  <r_i_glide_gscore_strain>  (1) 
0

>  <r_i_glide_hbond>  (1) 
0

>  <r_i_glide_ligand_efficiency>  (1) 
-0.97577314505318591

>  <r_i_glide_ligand_efficiency_ln>  (1) 
-1.8696998698523897

>  <r_i_glide_ligand_efficiency_sa>  (1) 
-1.6685486074540195

>  <r_i_glide_lipo>  (1) 
-1.6383189856010931

>  <r_i_glide_metal>  (1) 
-0

>  <r_i_glide_rewards>  (1) 
-2.5499999999999998

>  <r_lp_Energy>  (1) 
-2.6088139999999997

>  <r_lp_tautomer_probability>  (1) 
1

>  <s_epik_cmdline>  (1) 
J2VwaWtfcHl0aG9uJywgJy1waHQnLCAnMS4wJywgJy1waCcsICc3LjQnLCAnLXRuJywgJzgnLCAnLW1hJywgJzUwMCcsICctaW1hZScsICc8aW5maWxlLm1hZT4nLCAnLW9tYWUnLCAnPG91dGZpbGUubWFlPic=

>  <s_epik_input>  (1) 
W0NIXTE9W0NIXVtDSF09Qz1bQ0hdMQ==

>  <s_glide_docking_method>  (1) 
confgen

>  <s_i_glide_gridfile>  (1) 
gpcr_5ht2c_6bqh_protein_autoprepared_prepared

>  <s_lp_Force_Field>  (1) 
S-OPLS

>  <s_lp_Variant>  (1) 
Pocket2Mol_4-1

>  <s_m_source_file>  (1) 
generated_GPCR_5HT2C_ligand_Pocket2Mol_2026-06-23_prepared.sdf

>  <GenAI_Model>  (1) 
Pocket2Mol

>  <Protein>  (1) 
GPCR_5HT2C

$$$$
Pocket2Mol_17
     RDKit          3D

  0  0  0  0  0  0  0  0  0  0999 V3000
M  V30 BEGIN CTAB
M  V30 COUNTS 16 16 0 0 1
M  V30 BEGIN ATOM
M  V30 1 C 38.846731 29.258949 53.176813 0
M  V30 2 C 39.645139 30.536043 52.868210 0
M  V30 3 C 38.918633 28.385730 51.915578 0
M  V30 4 C 40.045172 30.456137 51.385895 0
M  V30 5 C 40.046028 28.965175 51.063105 0
M  V30 6 O 39.177140 27.035768 52.230436 0
M  V30 7 H 37.810729 29.486506 53.428715 0
M  V30 8 H 39.278151 28.750946 54.041139 0
M  V30 9 H 39.086433 31.445244 53.091236 0
M  V30 10 H 40.537780 30.558530 53.493112 0
M  V30 11 H 37.976186 28.456173 51.370407 0
M  V30 12 H 39.306966 30.956543 50.757614 0
M  V30 13 H 41.006025 30.932494 51.187125 0
M  V30 14 H 41.002635 28.538528 51.367747 0
M  V30 15 H 39.913669 28.765144 49.999098 0
M  V30 16 H 39.084301 26.523206 51.441278 0
M  V30 END ATOM
M  V30 BEGIN BOND
M  V30 1 1 2 1
M  V30 2 1 3 1
M  V30 3 1 4 2
M  V30 4 1 5 3
M  V30 5 1 5 4
M  V30 6 1 6 3
M  V30 7 1 7 1
M  V30 8 1 8 1
M  V30 9 1 9 2
M  V30 10 1 10 2
M  V30 11 1 11 3
M  V30 12 1 12 4
M  V30 13 1 13 4
M  V30 14 1 14 5
M  V30 15 1 15 5
M  V30 16 1 16 6
M  V30 END BOND
M  V30 END CTAB
M  END
>  <i_epik_Tot_Q>  (1) 
0

>  <i_epik_Tot_abs_Q>  (1) 
0

>  <i_i_glide_confnum>  (1) 
2

>  <i_i_glide_lignum>  (1) 
20

>  <i_i_glide_posenum>  (1) 
322

>  <i_i_glide_rotatable_bonds>  (1) 
1

>  <i_lp_mmshare_version>  (1) 
72125

>  <i_m_source_file_index>  (1) 
18

>  <i_f3d_flags>  (1) 
0

>  <num_sample>  (1) 
100

>  <b_lp_Chiralities_Consistent>  (1) 
1

>  <r_epik_Charging_Adjusted_Penalty>  (1) 
0

>  <r_epik_Ionization_Penalty>  (1) 
4.538991431931509e-07

>  <r_epik_Ionization_Penalty_Charging>  (1) 
0

>  <r_epik_Ionization_Penalty_Neutral>  (1) 
4.538991431931509e-07

>  <r_epik_State_Penalty>  (1) 
-0

>  <r_glide_ring_energy>  (1) 
0.076601694165865028

>  <r_i_docking_score>  (1) 
-4.8671611980976515

>  <r_i_glide_ecoul>  (1) 
-0.6562079404304878

>  <r_i_glide_eff_state_penalty>  (1) 
-0

>  <r_i_glide_einternal>  (1) 
0.38477816355898981

>  <r_i_glide_emodel>  (1) 
-19.847749089380468

>  <r_i_glide_emodel_strain>  (1) 
0.13774699834258186

>  <r_i_glide_energy>  (1) 
-15.396527840170036

>  <r_i_glide_erotb>  (1) 
0

>  <r_i_glide_esite>  (1) 
0

>  <r_i_glide_evdw>  (1) 
-14.740319899739548

>  <r_i_glide_gscore>  (1) 
-4.8671611980976515

>  <r_i_glide_gscore_strain>  (1) 
0

>  <r_i_glide_hbond>  (1) 
0

>  <r_i_glide_ligand_efficiency>  (1) 
-0.81119353301627528

>  <r_i_glide_ligand_efficiency_ln>  (1) 
-1.7434027722465155

>  <r_i_glide_ligand_efficiency_sa>  (1) 
-1.474036473616132

>  <r_i_glide_lipo>  (1) 
-1.5375328337825345

>  <r_i_glide_metal>  (1) 
-0

>  <r_i_glide_rewards>  (1) 
-2.4941811782635668

>  <r_lp_Energy>  (1) 
8.9029089999999993

>  <r_lp_tautomer_probability>  (1) 
1

>  <s_epik_cmdline>  (1) 
J2VwaWtfcHl0aG9uJywgJy1waHQnLCAnMS4wJywgJy1waCcsICc3LjQnLCAnLXRuJywgJzgnLCAnLW1hJywgJzUwMCcsICctaW1hZScsICc8aW5maWxlLm1hZT4nLCAnLW9tYWUnLCAnPG91dGZpbGUubWFlPic=

>  <s_epik_input>  (1) 
W09IXVtDSF0xW0NIMl1bQ0gyXVtDSDJdW0NIMl0x

>  <s_glide_docking_method>  (1) 
confgen

>  <s_i_glide_gridfile>  (1) 
gpcr_5ht2c_6bqh_protein_autoprepared_prepared

>  <s_lp_Force_Field>  (1) 
S-OPLS

>  <s_lp_Variant>  (1) 
Pocket2Mol_17-1

>  <s_m_source_file>  (1) 
generated_GPCR_5HT2C_ligand_Pocket2Mol_2026-06-23_prepared.sdf

>  <GenAI_Model>  (1) 
Pocket2Mol

>  <Protein>  (1) 
GPCR_5HT2C

$$$$
Pocket2Mol_67
     RDKit          3D

  0  0  0  0  0  0  0  0  0  0999 V3000
M  V30 BEGIN CTAB
M  V30 COUNTS 12 12 0 0 1
M  V30 BEGIN ATOM
M  V30 1 C 38.316050 28.597260 53.819602 0
M  V30 2 O 38.495446 27.880870 52.655082 0
M  V30 3 C 39.245291 28.375998 51.607448 0
M  V30 4 O 39.406553 27.738491 50.567721 0
M  V30 5 C 39.841315 29.723111 51.818548 0
M  V30 6 C 38.849125 29.812858 54.020186 0
M  V30 7 O 40.574449 30.229490 50.818655 0
M  V30 8 C 39.645110 30.392915 52.967706 0
M  V30 9 H 37.705054 28.069244 54.536882 0
M  V30 10 H 38.685819 30.343234 54.946972 0
M  V30 11 H 40.846287 31.094737 51.088989 0
M  V30 12 H 40.084536 31.370197 53.105944 0
M  V30 END ATOM
M  V30 BEGIN BOND
M  V30 1 1 2 1
M  V30 2 1 3 2
M  V30 3 2 4 3
M  V30 4 1 5 3
M  V30 5 2 6 1
M  V30 6 1 7 5
M  V30 7 2 8 5
M  V30 8 1 8 6
M  V30 9 1 9 1
M  V30 10 1 10 6
M  V30 11 1 11 7
M  V30 12 1 12 8
M  V30 END BOND
M  V30 END CTAB
M  END
>  <i_epik_Tot_Q>  (1) 
0

>  <i_epik_Tot_abs_Q>  (1) 
0

>  <i_i_glide_confnum>  (1) 
1

>  <i_i_glide_lignum>  (1) 
72

>  <i_i_glide_posenum>  (1) 
124

>  <i_i_glide_rotatable_bonds>  (1) 
1

>  <i_lp_mmshare_version>  (1) 
72125

>  <i_m_source_file_index>  (1) 
68

>  <i_f3d_flags>  (1) 
0

>  <num_sample>  (1) 
100

>  <b_lp_Chiralities_Consistent>  (1) 
1

>  <r_epik_Charging_Adjusted_Penalty>  (1) 
0

>  <r_epik_Ionization_Penalty>  (1) 
0.00075652206847014289

>  <r_epik_Ionization_Penalty_Charging>  (1) 
0

>  <r_epik_Ionization_Penalty_Neutral>  (1) 
0.00075652206847014289

>  <r_epik_State_Penalty>  (1) 
-0

>  <r_glide_ring_energy>  (1) 
0

>  <r_i_docking_score>  (1) 
-4.8668741851562061

>  <r_i_glide_ecoul>  (1) 
-0.26274287385852979

>  <r_i_glide_eff_state_penalty>  (1) 
-0

>  <r_i_glide_einternal>  (1) 
0.015406888089832149

>  <r_i_glide_emodel>  (1) 
-26.088682233757307

>  <r_i_glide_emodel_strain>  (1) 
4.9017856440514151e-09

>  <r_i_glide_energy>  (1) 
-19.416920415932736

>  <r_i_glide_erotb>  (1) 
0

>  <r_i_glide_esite>  (1) 
0

>  <r_i_glide_evdw>  (1) 
-19.154177542074208

>  <r_i_glide_gscore>  (1) 
-4.8668741851562061

>  <r_i_glide_gscore_strain>  (1) 
0

>  <r_i_glide_hbond>  (1) 
0

>  <r_i_glide_ligand_efficiency>  (1) 
-0.60835927314452576

>  <r_i_glide_ligand_efficiency_ln>  (1) 
-1.5804405179587613

>  <r_i_glide_ligand_efficiency_sa>  (1) 
-1.2167185462890517

>  <r_i_glide_lipo>  (1) 
-1.5106753880975408

>  <r_i_glide_metal>  (1) 
-0

>  <r_i_glide_rewards>  (1) 
-2.3590784888761753

>  <r_lp_Energy>  (1) 
14.218883999999999

>  <r_lp_tautomer_probability>  (1) 
1

>  <s_epik_cmdline>  (1) 
J2VwaWtfcHl0aG9uJywgJy1waHQnLCAnMS4wJywgJy1waCcsICc3LjQnLCAnLXRuJywgJzgnLCAnLW1hJywgJzUwMCcsICctaW1hZScsICc8aW5maWxlLm1hZT4nLCAnLW9tYWUnLCAnPG91dGZpbGUubWFlPic=

>  <s_epik_input>  (1) 
Tz1jMW9bY0hdW2NIXVtjSF1jMVtPSF0=

>  <s_glide_docking_method>  (1) 
confgen

>  <s_i_glide_gridfile>  (1) 
gpcr_5ht2c_6bqh_protein_autoprepared_prepared

>  <s_lp_Force_Field>  (1) 
S-OPLS

>  <s_lp_Variant>  (1) 
Pocket2Mol_67-1

>  <s_m_source_file>  (1) 
generated_GPCR_5HT2C_ligand_Pocket2Mol_2026-06-23_prepared.sdf

>  <GenAI_Model>  (1) 
Pocket2Mol

>  <Protein>  (1) 
GPCR_5HT2C

$$$$
Pocket2Mol_47
     RDKit          3D

  0  0  0  0  0  0  0  0  0  0999 V3000
M  V30 BEGIN CTAB
M  V30 COUNTS 20 20 0 0 1
M  V30 BEGIN ATOM
M  V30 1 C 38.857922 27.621902 51.838556 0
M  V30 2 O 38.845132 28.937758 51.303819 0
M  V30 3 C 39.911594 29.751830 51.767756 0
M  V30 4 C 38.166311 27.553314 53.204983 0
M  V30 5 O 38.845139 28.336100 54.178732 0
M  V30 6 C 38.604649 29.731130 54.046350 0 CFG=1
M  V30 7 C 38.608467 30.335145 55.455544 0
M  V30 8 C 39.645148 30.412570 53.137869 0
M  V30 9 H 38.314370 26.983482 51.141860 0
M  V30 10 H 39.867287 27.214633 51.892239 0
M  V30 11 H 40.845139 29.189433 51.767762 0
M  V30 12 H 40.062603 30.542797 51.032277 0
M  V30 13 H 37.112331 27.826498 53.129652 0
M  V30 14 H 38.182262 26.519293 53.549216 0
M  V30 15 H 37.611546 29.905438 53.635025 0
M  V30 16 H 38.397867 31.404865 55.425830 0
M  V30 17 H 37.844422 29.870426 56.079613 0
M  V30 18 H 39.571664 30.194503 55.946591 0
M  V30 19 H 40.591600 30.513178 53.668751 0
M  V30 20 H 39.307347 31.435436 52.967740 0
M  V30 END ATOM
M  V30 BEGIN BOND
M  V30 1 1 2 1
M  V30 2 1 3 2
M  V30 3 1 4 1
M  V30 4 1 5 4
M  V30 5 1 6 5
M  V30 6 1 7 6
M  V30 7 1 8 3
M  V30 8 1 8 6
M  V30 9 1 9 1
M  V30 10 1 10 1
M  V30 11 1 11 3
M  V30 12 1 12 3
M  V30 13 1 13 4
M  V30 14 1 14 4
M  V30 15 1 6 15 CFG=3
M  V30 16 1 16 7
M  V30 17 1 17 7
M  V30 18 1 18 7
M  V30 19 1 19 8
M  V30 20 1 20 8
M  V30 END BOND
M  V30 END CTAB
M  END
>  <i_epik_Tot_Q>  (1) 
0

>  <i_epik_Tot_abs_Q>  (1) 
0

>  <i_i_glide_confnum>  (1) 
6

>  <i_i_glide_lignum>  (1) 
50

>  <i_i_glide_posenum>  (1) 
271

>  <i_i_glide_rotatable_bonds>  (1) 
0

>  <i_lp_mmshare_version>  (1) 
72125

>  <i_m_source_file_index>  (1) 
48

>  <i_f3d_flags>  (1) 
0

>  <num_sample>  (1) 
100

>  <b_lp_Chiralities_Consistent>  (1) 
1

>  <r_epik_Charging_Adjusted_Penalty>  (1) 
0

>  <r_epik_Ionization_Penalty>  (1) 
4.0259461194199272e-12

>  <r_epik_Ionization_Penalty_Charging>  (1) 
0

>  <r_epik_Ionization_Penalty_Neutral>  (1) 
4.0259461194199272e-12

>  <r_epik_State_Penalty>  (1) 
-0

>  <r_glide_ring_energy>  (1) 
0.28092827696695249

>  <r_i_docking_score>  (1) 
-4.8599568000614912

>  <r_i_glide_ecoul>  (1) 
-0.57430456534753049

>  <r_i_glide_eff_state_penalty>  (1) 
-0

>  <r_i_glide_einternal>  (1) 
0

>  <r_i_glide_emodel>  (1) 
-24.134299740392738

>  <r_i_glide_emodel_strain>  (1) 
0

>  <r_i_glide_energy>  (1) 
-18.63785670090256

>  <r_i_glide_erotb>  (1) 
0

>  <r_i_glide_esite>  (1) 
0

>  <r_i_glide_evdw>  (1) 
-18.063552135555028

>  <r_i_glide_gscore>  (1) 
-4.8599568000614912

>  <r_i_glide_gscore_strain>  (1) 
0

>  <r_i_glide_hbond>  (1) 
0

>  <r_i_glide_ligand_efficiency>  (1) 
-0.6074946000076864

>  <r_i_glide_ligand_efficiency_ln>  (1) 
-1.5781942064113301

>  <r_i_glide_ligand_efficiency_sa>  (1) 
-1.214989200015373

>  <r_i_glide_lipo>  (1) 
-1.4953906016407688

>  <r_i_glide_metal>  (1) 
-0

>  <r_i_glide_rewards>  (1) 
-2.375242906840842

>  <r_lp_Energy>  (1) 
6.6371139999999995

>  <r_lp_tautomer_probability>  (1) 
1

>  <s_epik_cmdline>  (1) 
J2VwaWtfcHl0aG9uJywgJy1waHQnLCAnMS4wJywgJy1waCcsICc3LjQnLCAnLXRuJywgJzgnLCAnLW1hJywgJzUwMCcsICctaW1hZScsICc8aW5maWxlLm1hZT4nLCAnLW9tYWUnLCAnPG91dGZpbGUubWFlPic=

>  <s_epik_input>  (1) 
W0NIMl0xW0NIMl1PW0NIMl1bQ0gyXU9bQ0BIXTFbQ0gzXQ==

>  <s_glide_docking_method>  (1) 
confgen

>  <s_i_glide_gridfile>  (1) 
gpcr_5ht2c_6bqh_protein_autoprepared_prepared

>  <s_lp_Force_Field>  (1) 
S-OPLS

>  <s_lp_Variant>  (1) 
Pocket2Mol_47-1

>  <s_m_source_file>  (1) 
generated_GPCR_5HT2C_ligand_Pocket2Mol_2026-06-23_prepared.sdf

>  <GenAI_Model>  (1) 
Pocket2Mol

>  <Protein>  (1) 
GPCR_5HT2C

$$$$
Pocket2Mol_7
     RDKit          3D

  0  0  0  0  0  0  0  0  0  0999 V3000
M  V30 BEGIN CTAB
M  V30 COUNTS 13 13 0 0 1
M  V30 BEGIN ATOM
M  V30 1 C 39.501384 28.451710 50.920084 0
M  V30 2 C 38.759076 28.097485 52.146971 0
M  V30 3 C 40.051251 29.861382 51.435120 0
M  V30 4 C 39.645016 30.145264 52.958177 0
M  V30 5 C 38.828803 28.926543 53.145024 0
M  V30 6 H 40.297257 27.737751 50.714297 0
M  V30 7 H 38.845138 28.537754 50.055350 0
M  V30 8 H 38.188900 27.179911 52.184716 0
M  V30 9 H 39.649633 30.654620 50.803003 0
M  V30 10 H 41.133840 29.904300 51.315556 0
M  V30 11 H 39.058173 31.055096 53.083336 0
M  V30 12 H 40.490419 30.156392 53.643067 0
M  V30 13 H 38.322043 28.757437 54.084201 0
M  V30 END ATOM
M  V30 BEGIN BOND
M  V30 1 1 2 1
M  V30 2 1 3 1
M  V30 3 1 4 3
M  V30 4 2 5 2
M  V30 5 1 5 4
M  V30 6 1 6 1
M  V30 7 1 7 1
M  V30 8 1 8 2
M  V30 9 1 9 3
M  V30 10 1 10 3
M  V30 11 1 11 4
M  V30 12 1 12 4
M  V30 13 1 13 5
M  V30 END BOND
M  V30 END CTAB
M  END
>  <i_epik_Tot_Q>  (1) 
0

>  <i_epik_Tot_abs_Q>  (1) 
0

>  <i_i_glide_confnum>  (1) 
1

>  <i_i_glide_lignum>  (1) 
10

>  <i_i_glide_posenum>  (1) 
272

>  <i_i_glide_rotatable_bonds>  (1) 
0

>  <i_lp_mmshare_version>  (1) 
72125

>  <i_m_source_file_index>  (1) 
8

>  <i_f3d_flags>  (1) 
0

>  <num_sample>  (1) 
100

>  <b_lp_Chiralities_Consistent>  (1) 
1

>  <r_epik_Charging_Adjusted_Penalty>  (1) 
0

>  <r_epik_Ionization_Penalty>  (1) 
0

>  <r_epik_Ionization_Penalty_Charging>  (1) 
0

>  <r_epik_Ionization_Penalty_Neutral>  (1) 
0

>  <r_epik_State_Penalty>  (1) 
-0

>  <r_glide_ring_energy>  (1) 
0

>  <r_i_docking_score>  (1) 
-4.8548914286441764

>  <r_i_glide_ecoul>  (1) 
-0.49510615372121575

>  <r_i_glide_eff_state_penalty>  (1) 
-0

>  <r_i_glide_einternal>  (1) 
0

>  <r_i_glide_emodel>  (1) 
-17.723549027870085

>  <r_i_glide_emodel_strain>  (1) 
0

>  <r_i_glide_energy>  (1) 
-13.664531022229253

>  <r_i_glide_erotb>  (1) 
0

>  <r_i_glide_esite>  (1) 
0

>  <r_i_glide_evdw>  (1) 
-13.169424868508038

>  <r_i_glide_gscore>  (1) 
-4.8548914286441764

>  <r_i_glide_gscore_strain>  (1) 
0

>  <r_i_glide_hbond>  (1) 
0

>  <r_i_glide_ligand_efficiency>  (1) 
-0.97097828572883527

>  <r_i_glide_ligand_efficiency_ln>  (1) 
-1.8605123369712608

>  <r_i_glide_ligand_efficiency_sa>  (1) 
-1.6603495133416815

>  <r_i_glide_lipo>  (1) 
-1.6037583516748795

>  <r_i_glide_metal>  (1) 
-0

>  <r_i_glide_rewards>  (1) 
-2.518395910485713

>  <r_lp_Energy>  (1) 
-2.1713199999999997

>  <r_lp_tautomer_probability>  (1) 
1

>  <s_epik_cmdline>  (1) 
J2VwaWtfcHl0aG9uJywgJy1waHQnLCAnMS4wJywgJy1waCcsICc3LjQnLCAnLXRuJywgJzgnLCAnLW1hJywgJzUwMCcsICctaW1hZScsICc8aW5maWxlLm1hZT4nLCAnLW9tYWUnLCAnPG91dGZpbGUubWFlPic=

>  <s_epik_input>  (1) 
W0NIMl0xW0NIXT1bQ0hdW0NIMl1bQ0gyXTE=

>  <s_glide_docking_method>  (1) 
confgen

>  <s_i_glide_gridfile>  (1) 
gpcr_5ht2c_6bqh_protein_autoprepared_prepared

>  <s_lp_Force_Field>  (1) 
S-OPLS

>  <s_lp_Variant>  (1) 
Pocket2Mol_7-1

>  <s_m_source_file>  (1) 
generated_GPCR_5HT2C_ligand_Pocket2Mol_2026-06-23_prepared.sdf

>  <GenAI_Model>  (1) 
Pocket2Mol

>  <Protein>  (1) 
GPCR_5HT2C

$$$$
Pocket2Mol_18
     RDKit          3D

  0  0  0  0  0  0  0  0  0  0999 V3000
M  V30 BEGIN CTAB
M  V30 COUNTS 18 18 0 0 1
M  V30 BEGIN ATOM
M  V30 1 C 39.935287 27.030786 57.519439 0
M  V30 2 C 38.800693 26.088058 57.949681 0
M  V30 3 C 38.685044 24.883800 57.002106 0
M  V30 4 C 39.753219 27.485727 56.062829 0
M  V30 5 C 38.504146 25.337767 55.544987 0
M  V30 6 C 39.639595 26.281128 55.113206 0
M  V30 7 H 39.968919 27.898421 58.179031 0
M  V30 8 H 40.895283 26.523974 57.627121 0
M  V30 9 H 38.972959 25.741459 58.967759 0
M  V30 10 H 37.856534 26.634185 57.963789 0
M  V30 11 H 39.581995 24.268007 57.084529 0
M  V30 12 H 37.849042 24.251438 57.303056 0
M  V30 13 H 38.857127 28.102403 55.980830 0
M  V30 14 H 40.591123 28.117567 55.767760 0
M  V30 15 H 37.544823 25.845768 55.436069 0
M  V30 16 H 38.468828 24.468893 54.887757 0
M  V30 17 H 39.471086 26.624360 54.091976 0
M  V30 18 H 40.584779 25.737755 55.105066 0
M  V30 END ATOM
M  V30 BEGIN BOND
M  V30 1 1 2 1
M  V30 2 1 3 2
M  V30 3 1 4 1
M  V30 4 1 5 3
M  V30 5 1 6 4
M  V30 6 1 6 5
M  V30 7 1 7 1
M  V30 8 1 8 1
M  V30 9 1 9 2
M  V30 10 1 10 2
M  V30 11 1 11 3
M  V30 12 1 12 3
M  V30 13 1 13 4
M  V30 14 1 14 4
M  V30 15 1 15 5
M  V30 16 1 16 5
M  V30 17 1 17 6
M  V30 18 1 18 6
M  V30 END BOND
M  V30 END CTAB
M  END
>  <i_epik_Tot_Q>  (1) 
0

>  <i_epik_Tot_abs_Q>  (1) 
0

>  <i_i_glide_confnum>  (1) 
1

>  <i_i_glide_lignum>  (1) 
21

>  <i_i_glide_posenum>  (1) 
24

>  <i_i_glide_rotatable_bonds>  (1) 
0

>  <i_lp_mmshare_version>  (1) 
72125

>  <i_m_source_file_index>  (1) 
19

>  <i_f3d_flags>  (1) 
0

>  <num_sample>  (1) 
100

>  <b_lp_Chiralities_Consistent>  (1) 
1

>  <r_epik_Charging_Adjusted_Penalty>  (1) 
0

>  <r_epik_Ionization_Penalty>  (1) 
0

>  <r_epik_Ionization_Penalty_Charging>  (1) 
0

>  <r_epik_Ionization_Penalty_Neutral>  (1) 
0

>  <r_epik_State_Penalty>  (1) 
-0

>  <r_glide_ring_energy>  (1) 
0

>  <r_i_docking_score>  (1) 
-4.8526197240339801

>  <r_i_glide_ecoul>  (1) 
0.094618541792834909

>  <r_i_glide_eff_state_penalty>  (1) 
-0

>  <r_i_glide_einternal>  (1) 
0

>  <r_i_glide_emodel>  (1) 
-18.358357251130638

>  <r_i_glide_emodel_strain>  (1) 
0

>  <r_i_glide_energy>  (1) 
-14.25196850321559

>  <r_i_glide_erotb>  (1) 
0

>  <r_i_glide_esite>  (1) 
0

>  <r_i_glide_evdw>  (1) 
-14.346587045008425

>  <r_i_glide_gscore>  (1) 
-4.8526197240339801

>  <r_i_glide_gscore_strain>  (1) 
0

>  <r_i_glide_hbond>  (1) 
0

>  <r_i_glide_ligand_efficiency>  (1) 
-0.80876995400566332

>  <r_i_glide_ligand_efficiency_ln>  (1) 
-1.7381940591664835

>  <r_i_glide_ligand_efficiency_sa>  (1) 
-1.4696325382875934

>  <r_i_glide_lipo>  (1) 
-1.7425537691724993

>  <r_i_glide_metal>  (1) 
-0

>  <r_i_glide_rewards>  (1) 
-2.4069293838799855

>  <r_lp_Energy>  (1) 
5.7175969999999996

>  <r_lp_tautomer_probability>  (1) 
1

>  <s_epik_cmdline>  (1) 
J2VwaWtfcHl0aG9uJywgJy1waHQnLCAnMS4wJywgJy1waCcsICc3LjQnLCAnLXRuJywgJzgnLCAnLW1hJywgJzUwMCcsICctaW1hZScsICc8aW5maWxlLm1hZT4nLCAnLW9tYWUnLCAnPG91dGZpbGUubWFlPic=

>  <s_epik_input>  (1) 
W0NIMl0xW0NIMl1bQ0gyXVtDSDJdW0NIMl1bQ0gyXTE=

>  <s_glide_docking_method>  (1) 
confgen

>  <s_i_glide_gridfile>  (1) 
gpcr_5ht2c_6bqh_protein_autoprepared_prepared

>  <s_lp_Force_Field>  (1) 
S-OPLS

>  <s_lp_Variant>  (1) 
Pocket2Mol_18-1

>  <s_m_source_file>  (1) 
generated_GPCR_5HT2C_ligand_Pocket2Mol_2026-06-23_prepared.sdf

>  <GenAI_Model>  (1) 
Pocket2Mol

>  <Protein>  (1) 
GPCR_5HT2C

$$$$
Pocket2Mol_37
     RDKit          3D

  0  0  0  0  0  0  0  0  0  0999 V3000
M  V30 BEGIN CTAB
M  V30 COUNTS 11 11 0 0 1
M  V30 BEGIN ATOM
M  V30 1 C 39.494407 28.137755 51.048278 0
M  V30 2 O 38.553171 27.537936 51.852800 0
M  V30 3 C 38.090395 28.099576 53.057845 0
M  V30 4 O 37.245155 27.560735 53.767759 0
M  V30 5 C 38.730278 29.421301 53.389929 0
M  V30 6 C 40.036250 29.307467 51.367760 0
M  V30 7 C 39.645140 29.964316 52.567757 0
M  V30 8 H 39.723977 27.560123 50.167758 0
M  V30 9 H 38.434735 29.922539 54.300231 0
M  V30 10 H 40.773832 29.758067 50.719348 0
M  V30 11 H 40.091114 30.915188 52.822760 0
M  V30 END ATOM
M  V30 BEGIN BOND
M  V30 1 1 2 1
M  V30 2 1 3 2
M  V30 3 2 4 3
M  V30 4 1 5 3
M  V30 5 2 6 1
M  V30 6 2 7 5
M  V30 7 1 7 6
M  V30 8 1 8 1
M  V30 9 1 9 5
M  V30 10 1 10 6
M  V30 11 1 11 7
M  V30 END BOND
M  V30 END CTAB
M  END
>  <i_epik_Tot_Q>  (1) 
0

>  <i_epik_Tot_abs_Q>  (1) 
0

>  <i_i_glide_confnum>  (1) 
1

>  <i_i_glide_lignum>  (1) 
40

>  <i_i_glide_posenum>  (1) 
248

>  <i_i_glide_rotatable_bonds>  (1) 
0

>  <i_lp_mmshare_version>  (1) 
72125

>  <i_m_source_file_index>  (1) 
38

>  <i_f3d_flags>  (1) 
0

>  <num_sample>  (1) 
100

>  <b_lp_Chiralities_Consistent>  (1) 
1

>  <r_epik_Charging_Adjusted_Penalty>  (1) 
0

>  <r_epik_Ionization_Penalty>  (1) 
2.4984917370333966e-09

>  <r_epik_Ionization_Penalty_Charging>  (1) 
0

>  <r_epik_Ionization_Penalty_Neutral>  (1) 
2.4984917370333966e-09

>  <r_epik_State_Penalty>  (1) 
-0

>  <r_glide_ring_energy>  (1) 
0

>  <r_i_docking_score>  (1) 
-4.8504286138139703

>  <r_i_glide_ecoul>  (1) 
-0.2167822183640114

>  <r_i_glide_eff_state_penalty>  (1) 
-0

>  <r_i_glide_einternal>  (1) 
0

>  <r_i_glide_emodel>  (1) 
-22.672233237807454

>  <r_i_glide_emodel_strain>  (1) 
9.7006846999647678e-12

>  <r_i_glide_energy>  (1) 
-17.541021716903789

>  <r_i_glide_erotb>  (1) 
0

>  <r_i_glide_esite>  (1) 
0

>  <r_i_glide_evdw>  (1) 
-17.324239498539779

>  <r_i_glide_gscore>  (1) 
-4.8504286138139703

>  <r_i_glide_gscore_strain>  (1) 
0

>  <r_i_glide_hbond>  (1) 
0

>  <r_i_glide_ligand_efficiency>  (1) 
-0.6929183734019958

>  <r_i_glide_ligand_efficiency_ln>  (1) 
-1.6464957749540978

>  <r_i_glide_ligand_efficiency_sa>  (1) 
-1.3255051635965998

>  <r_i_glide_lipo>  (1) 
-1.569855287052708

>  <r_i_glide_metal>  (1) 
-0

>  <r_i_glide_rewards>  (1) 
-2.3818440190796717

>  <r_lp_Energy>  (1) 
11.255118999999999

>  <r_lp_tautomer_probability>  (1) 
1

>  <s_epik_cmdline>  (1) 
J2VwaWtfcHl0aG9uJywgJy1waHQnLCAnMS4wJywgJy1waCcsICc3LjQnLCAnLXRuJywgJzgnLCAnLW1hJywgJzUwMCcsICctaW1hZScsICc8aW5maWxlLm1hZT4nLCAnLW9tYWUnLCAnPG91dGZpbGUubWFlPic=

>  <s_epik_input>  (1) 
W2NIXTFbY0hdW2NIXVtjSF1vYzE9Tw==

>  <s_glide_docking_method>  (1) 
confgen

>  <s_i_glide_gridfile>  (1) 
gpcr_5ht2c_6bqh_protein_autoprepared_prepared

>  <s_lp_Force_Field>  (1) 
S-OPLS

>  <s_lp_Variant>  (1) 
Pocket2Mol_37-1

>  <s_m_source_file>  (1) 
generated_GPCR_5HT2C_ligand_Pocket2Mol_2026-06-23_prepared.sdf

>  <GenAI_Model>  (1) 
Pocket2Mol

>  <Protein>  (1) 
GPCR_5HT2C

$$$$
Pocket2Mol_7
     RDKit          3D

  0  0  0  0  0  0  0  0  0  0999 V3000
M  V30 BEGIN CTAB
M  V30 COUNTS 13 13 0 0 1
M  V30 BEGIN ATOM
M  V30 1 C 38.845887 27.987913 51.767763 0
M  V30 2 C 39.652313 28.935055 50.968779 0
M  V30 3 C 38.826804 28.849769 53.115698 0
M  V30 4 C 39.645137 30.217000 52.967760 0
M  V30 5 C 40.045102 30.025891 51.556074 0
M  V30 6 H 37.851241 27.844027 51.345986 0
M  V30 7 H 39.351695 27.028418 51.880035 0
M  V30 8 H 39.890137 28.704428 49.940572 0
M  V30 9 H 39.239752 28.260464 53.935148 0
M  V30 10 H 37.795375 29.070148 53.393826 0
M  V30 11 H 40.504343 30.270200 53.633984 0
M  V30 12 H 39.025958 31.104702 53.096505 0
M  V30 13 H 40.637765 30.780197 51.057897 0
M  V30 END ATOM
M  V30 BEGIN BOND
M  V30 1 1 2 1
M  V30 2 1 3 1
M  V30 3 1 4 3
M  V30 4 2 5 2
M  V30 5 1 5 4
M  V30 6 1 6 1
M  V30 7 1 7 1
M  V30 8 1 8 2
M  V30 9 1 9 3
M  V30 10 1 10 3
M  V30 11 1 11 4
M  V30 12 1 12 4
M  V30 13 1 13 5
M  V30 END BOND
M  V30 END CTAB
M  END
>  <i_epik_Tot_Q>  (1) 
0

>  <i_epik_Tot_abs_Q>  (1) 
0

>  <i_i_glide_confnum>  (1) 
1

>  <i_i_glide_lignum>  (1) 
10

>  <i_i_glide_posenum>  (1) 
45

>  <i_i_glide_rotatable_bonds>  (1) 
0

>  <i_lp_mmshare_version>  (1) 
72125

>  <i_m_source_file_index>  (1) 
8

>  <i_f3d_flags>  (1) 
0

>  <num_sample>  (1) 
100

>  <b_lp_Chiralities_Consistent>  (1) 
1

>  <r_epik_Charging_Adjusted_Penalty>  (1) 
0

>  <r_epik_Ionization_Penalty>  (1) 
0

>  <r_epik_Ionization_Penalty_Charging>  (1) 
0

>  <r_epik_Ionization_Penalty_Neutral>  (1) 
0

>  <r_epik_State_Penalty>  (1) 
-0

>  <r_glide_ring_energy>  (1) 
0

>  <r_i_docking_score>  (1) 
-4.8466980380843561

>  <r_i_glide_ecoul>  (1) 
-0.35170307343208607

>  <r_i_glide_eff_state_penalty>  (1) 
-0

>  <r_i_glide_einternal>  (1) 
0

>  <r_i_glide_emodel>  (1) 
-17.832192796282122

>  <r_i_glide_emodel_strain>  (1) 
0

>  <r_i_glide_energy>  (1) 
-13.780025020002416

>  <r_i_glide_erotb>  (1) 
0

>  <r_i_glide_esite>  (1) 
0

>  <r_i_glide_evdw>  (1) 
-13.42832194657033

>  <r_i_glide_gscore>  (1) 
-4.8466980380843561

>  <r_i_glide_gscore_strain>  (1) 
0

>  <r_i_glide_hbond>  (1) 
0

>  <r_i_glide_ligand_efficiency>  (1) 
-0.96933960761687121

>  <r_i_glide_ligand_efficiency_ln>  (1) 
-1.8573724306639374

>  <r_i_glide_ligand_efficiency_sa>  (1) 
-1.6575474131858774

>  <r_i_glide_lipo>  (1) 
-1.6058016378221176

>  <r_i_glide_metal>  (1) 
-0

>  <r_i_glide_rewards>  (1) 
-2.5167248419189088

>  <r_lp_Energy>  (1) 
-2.1713199999999997

>  <r_lp_tautomer_probability>  (1) 
1

>  <s_epik_cmdline>  (1) 
J2VwaWtfcHl0aG9uJywgJy1waHQnLCAnMS4wJywgJy1waCcsICc3LjQnLCAnLXRuJywgJzgnLCAnLW1hJywgJzUwMCcsICctaW1hZScsICc8aW5maWxlLm1hZT4nLCAnLW9tYWUnLCAnPG91dGZpbGUubWFlPic=

>  <s_epik_input>  (1) 
W0NIMl0xW0NIXT1bQ0hdW0NIMl1bQ0gyXTE=

>  <s_glide_docking_method>  (1) 
confgen

>  <s_i_glide_gridfile>  (1) 
gpcr_5ht2c_6bqh_protein_autoprepared_prepared

>  <s_lp_Force_Field>  (1) 
S-OPLS

>  <s_lp_Variant>  (1) 
Pocket2Mol_7-1

>  <s_m_source_file>  (1) 
generated_GPCR_5HT2C_ligand_Pocket2Mol_2026-06-23_prepared.sdf

>  <GenAI_Model>  (1) 
Pocket2Mol

>  <Protein>  (1) 
GPCR_5HT2C

$$$$
Pocket2Mol_7
     RDKit          3D

  0  0  0  0  0  0  0  0  0  0999 V3000
M  V30 BEGIN CTAB
M  V30 COUNTS 13 13 0 0 1
M  V30 BEGIN ATOM
M  V30 1 C 39.601283 28.389745 50.773361 0
M  V30 2 C 40.045143 29.669528 51.362134 0
M  V30 3 C 38.738393 27.895103 52.025289 0
M  V30 4 C 38.779425 28.942928 53.233932 0
M  V30 5 C 39.645137 29.940034 52.567757 0
M  V30 6 H 39.000246 28.537758 49.876378 0
M  V30 7 H 40.445137 27.737755 50.557129 0
M  V30 8 H 40.678264 30.333896 50.791347 0
M  V30 9 H 39.101205 26.923606 52.362241 0
M  V30 10 H 37.704644 27.737748 51.714268 0
M  V30 11 H 39.245143 28.540380 54.133414 0
M  V30 12 H 37.799290 29.358847 53.469321 0
M  V30 13 H 39.916136 30.849270 53.085423 0
M  V30 END ATOM
M  V30 BEGIN BOND
M  V30 1 1 2 1
M  V30 2 1 3 1
M  V30 3 1 4 3
M  V30 4 2 5 2
M  V30 5 1 5 4
M  V30 6 1 6 1
M  V30 7 1 7 1
M  V30 8 1 8 2
M  V30 9 1 9 3
M  V30 10 1 10 3
M  V30 11 1 11 4
M  V30 12 1 12 4
M  V30 13 1 13 5
M  V30 END BOND
M  V30 END CTAB
M  END
>  <i_epik_Tot_Q>  (1) 
0

>  <i_epik_Tot_abs_Q>  (1) 
0

>  <i_i_glide_confnum>  (1) 
1

>  <i_i_glide_lignum>  (1) 
10

>  <i_i_glide_posenum>  (1) 
219

>  <i_i_glide_rotatable_bonds>  (1) 
0

>  <i_lp_mmshare_version>  (1) 
72125

>  <i_m_source_file_index>  (1) 
8

>  <i_f3d_flags>  (1) 
0

>  <num_sample>  (1) 
100

>  <b_lp_Chiralities_Consistent>  (1) 
1

>  <r_epik_Charging_Adjusted_Penalty>  (1) 
0

>  <r_epik_Ionization_Penalty>  (1) 
0

>  <r_epik_Ionization_Penalty_Charging>  (1) 
0

>  <r_epik_Ionization_Penalty_Neutral>  (1) 
0

>  <r_epik_State_Penalty>  (1) 
-0

>  <r_glide_ring_energy>  (1) 
0

>  <r_i_docking_score>  (1) 
-4.8420164632734375

>  <r_i_glide_ecoul>  (1) 
-0.41882764201781414

>  <r_i_glide_eff_state_penalty>  (1) 
-0

>  <r_i_glide_einternal>  (1) 
0

>  <r_i_glide_emodel>  (1) 
-17.858731189126281

>  <r_i_glide_emodel_strain>  (1) 
0

>  <r_i_glide_energy>  (1) 
-13.810477526422865

>  <r_i_glide_erotb>  (1) 
0

>  <r_i_glide_esite>  (1) 
0

>  <r_i_glide_evdw>  (1) 
-13.391649884405052

>  <r_i_glide_gscore>  (1) 
-4.8420164632734375

>  <r_i_glide_gscore_strain>  (1) 
0

>  <r_i_glide_hbond>  (1) 
0

>  <r_i_glide_ligand_efficiency>  (1) 
-0.9684032926546875

>  <r_i_glide_ligand_efficiency_ln>  (1) 
-1.8555783374653176

>  <r_i_glide_ligand_efficiency_sa>  (1) 
-1.6559463371220298

>  <r_i_glide_lipo>  (1) 
-1.6060020530894992

>  <r_i_glide_metal>  (1) 
-0

>  <r_i_glide_rewards>  (1) 
-2.5036077696610137

>  <r_lp_Energy>  (1) 
-2.1713199999999997

>  <r_lp_tautomer_probability>  (1) 
1

>  <s_epik_cmdline>  (1) 
J2VwaWtfcHl0aG9uJywgJy1waHQnLCAnMS4wJywgJy1waCcsICc3LjQnLCAnLXRuJywgJzgnLCAnLW1hJywgJzUwMCcsICctaW1hZScsICc8aW5maWxlLm1hZT4nLCAnLW9tYWUnLCAnPG91dGZpbGUubWFlPic=

>  <s_epik_input>  (1) 
W0NIMl0xW0NIXT1bQ0hdW0NIMl1bQ0gyXTE=

>  <s_glide_docking_method>  (1) 
confgen

>  <s_i_glide_gridfile>  (1) 
gpcr_5ht2c_6bqh_protein_autoprepared_prepared

>  <s_lp_Force_Field>  (1) 
S-OPLS

>  <s_lp_Variant>  (1) 
Pocket2Mol_7-1

>  <s_m_source_file>  (1) 
generated_GPCR_5HT2C_ligand_Pocket2Mol_2026-06-23_prepared.sdf

>  <GenAI_Model>  (1) 
Pocket2Mol

>  <Protein>  (1) 
GPCR_5HT2C

$$$$
Pocket2Mol_63
     RDKit          3D

  0  0  0  0  0  0  0  0  0  0999 V3000
M  V30 BEGIN CTAB
M  V30 COUNTS 14 14 0 0 1
M  V30 BEGIN ATOM
M  V30 1 C 39.516018 29.003502 50.967770 0
M  V30 2 C 38.837439 28.303336 52.062378 0
M  V30 3 C 40.045141 30.128379 51.274257 0
M  V30 4 C 39.892482 30.541998 52.672726 0
M  V30 5 N 39.300450 29.229264 53.190514 0
M  V30 6 N 38.091894 29.566096 54.044168 0 CHG=1
M  V30 7 O 38.066972 30.675267 54.569512 0 CHG=-1
M  V30 8 O 37.244828 28.692996 54.164603 0
M  V30 9 H 39.545825 28.578066 49.975327 0
M  V30 10 H 37.762971 28.300771 51.872231 0
M  V30 11 H 39.204683 27.284765 52.193010 0
M  V30 12 H 40.572163 30.755516 50.568910 0
M  V30 13 H 40.843687 30.775957 53.151579 0
M  V30 14 H 39.245100 31.416273 52.703628 0
M  V30 END ATOM
M  V30 BEGIN BOND
M  V30 1 1 2 1
M  V30 2 2 3 1
M  V30 3 1 4 3
M  V30 4 1 5 2
M  V30 5 1 5 4
M  V30 6 1 6 5
M  V30 7 1 7 6
M  V30 8 2 8 6
M  V30 9 1 9 1
M  V30 10 1 10 2
M  V30 11 1 11 2
M  V30 12 1 12 3
M  V30 13 1 13 4
M  V30 14 1 14 4
M  V30 END BOND
M  V30 END CTAB
M  END
>  <i_epik_Tot_Q>  (1) 
0

>  <i_epik_Tot_abs_Q>  (1) 
2

>  <i_i_glide_confnum>  (1) 
1

>  <i_i_glide_lignum>  (1) 
67

>  <i_i_glide_posenum>  (1) 
253

>  <i_i_glide_rotatable_bonds>  (1) 
1

>  <i_lp_mmshare_version>  (1) 
72125

>  <i_m_source_file_index>  (1) 
64

>  <i_f3d_flags>  (1) 
0

>  <num_sample>  (1) 
100

>  <b_lp_Chiralities_Consistent>  (1) 
1

>  <r_epik_Charging_Adjusted_Penalty>  (1) 
0.01004869924428556

>  <r_epik_Ionization_Penalty>  (1) 
0.010048699244285546

>  <r_epik_Ionization_Penalty_Charging>  (1) 
0

>  <r_epik_Ionization_Penalty_Neutral>  (1) 
0.010048699244285546

>  <r_epik_State_Penalty>  (1) 
0.01004869924428556

>  <r_glide_ring_energy>  (1) 
0

>  <r_i_docking_score>  (1) 
-4.8388833077166256

>  <r_i_glide_ecoul>  (1) 
-0.34966760094884342

>  <r_i_glide_eff_state_penalty>  (1) 
0.01004869924428556

>  <r_i_glide_einternal>  (1) 
0.017861421563016261

>  <r_i_glide_emodel>  (1) 
-22.239625902910223

>  <r_i_glide_emodel_strain>  (1) 
0

>  <r_i_glide_energy>  (1) 
-16.549515799286791

>  <r_i_glide_erotb>  (1) 
0

>  <r_i_glide_esite>  (1) 
-0.00627658301654937

>  <r_i_glide_evdw>  (1) 
-16.199848198337946

>  <r_i_glide_gscore>  (1) 
-4.8489320069609114

>  <r_i_glide_gscore_strain>  (1) 
0

>  <r_i_glide_hbond>  (1) 
0

>  <r_i_glide_ligand_efficiency>  (1) 
-0.60486041346457819

>  <r_i_glide_ligand_efficiency_ln>  (1) 
-1.571350922634178

>  <r_i_glide_ligand_efficiency_sa>  (1) 
-1.2097208269291566

>  <r_i_glide_lipo>  (1) 
-1.2299830605587787

>  <r_i_glide_metal>  (1) 
-0

>  <r_i_glide_rewards>  (1) 
-2.7502298133263596

>  <r_lp_Energy>  (1) 
16.803152000000001

>  <s_epik_cmdline>  (1) 
J2VwaWtfcHl0aG9uJywgJy1waHQnLCAnMS4wJywgJy1waCcsICc3LjQnLCAnLXRuJywgJzgnLCAnLW1hJywgJzUwMCcsICctaW1hZScsICc8aW5maWxlLm1hZT4nLCAnLW9tYWUnLCAnPG91dGZpbGUubWFlPic=

>  <s_epik_input>  (1) 
W0NIMl0xW0NIXT1bQ0hdW0NIMl1OMVtOK10oW08tXSk9Tw==

>  <s_glide_docking_method>  (1) 
confgen

>  <s_i_glide_gridfile>  (1) 
gpcr_5ht2c_6bqh_protein_autoprepared_prepared

>  <s_lp_Force_Field>  (1) 
S-OPLS

>  <s_lp_Variant>  (1) 
Pocket2Mol_63-1

>  <s_m_source_file>  (1) 
generated_GPCR_5HT2C_ligand_Pocket2Mol_2026-06-23_prepared.sdf

>  <GenAI_Model>  (1) 
Pocket2Mol

>  <Protein>  (1) 
GPCR_5HT2C

$$$$
Pocket2Mol_45
     RDKit          3D

  0  0  0  0  0  0  0  0  0  0999 V3000
M  V30 BEGIN CTAB
M  V30 COUNTS 15 15 0 0 1
M  V30 BEGIN ATOM
M  V30 1 C 39.245136 28.403736 51.095959 0
M  V30 2 O 39.245137 27.370609 52.073471 0
M  V30 3 C 38.845137 27.617175 53.347262 0
M  V30 4 O 38.732138 26.762300 54.222218 0
M  V30 5 C 38.538390 29.099823 53.618530 0
M  V30 6 C 40.045137 29.614852 51.596117 0
M  V30 7 C 39.585309 30.055216 53.002008 0
M  V30 8 H 39.668550 28.021524 50.167759 0
M  V30 9 H 38.213634 28.686012 50.888756 0
M  V30 10 H 37.554479 29.312846 53.201836 0
M  V30 11 H 38.461920 29.266718 54.693324 0
M  V30 12 H 41.098832 29.337789 51.624008 0
M  V30 13 H 39.963805 30.441106 50.888842 0
M  V30 14 H 39.172482 31.063340 52.967760 0
M  V30 15 H 40.445137 30.137755 53.665697 0
M  V30 END ATOM
M  V30 BEGIN BOND
M  V30 1 1 2 1
M  V30 2 1 3 2
M  V30 3 2 4 3
M  V30 4 1 5 3
M  V30 5 1 6 1
M  V30 6 1 7 5
M  V30 7 1 7 6
M  V30 8 1 8 1
M  V30 9 1 9 1
M  V30 10 1 10 5
M  V30 11 1 11 5
M  V30 12 1 12 6
M  V30 13 1 13 6
M  V30 14 1 14 7
M  V30 15 1 15 7
M  V30 END BOND
M  V30 END CTAB
M  END
>  <i_epik_Tot_Q>  (1) 
0

>  <i_epik_Tot_abs_Q>  (1) 
0

>  <i_i_glide_confnum>  (1) 
4

>  <i_i_glide_lignum>  (1) 
48

>  <i_i_glide_posenum>  (1) 
165

>  <i_i_glide_rotatable_bonds>  (1) 
0

>  <i_lp_mmshare_version>  (1) 
72125

>  <i_m_source_file_index>  (1) 
46

>  <i_f3d_flags>  (1) 
0

>  <num_sample>  (1) 
100

>  <b_lp_Chiralities_Consistent>  (1) 
1

>  <r_epik_Charging_Adjusted_Penalty>  (1) 
0

>  <r_epik_Ionization_Penalty>  (1) 
4.2138389519661579e-10

>  <r_epik_Ionization_Penalty_Charging>  (1) 
0

>  <r_epik_Ionization_Penalty_Neutral>  (1) 
4.2138389519661579e-10

>  <r_epik_State_Penalty>  (1) 
-0

>  <r_glide_ring_energy>  (1) 
0.70488572220387524

>  <r_i_docking_score>  (1) 
-4.8383933737558422

>  <r_i_glide_ecoul>  (1) 
-0.037464269652930926

>  <r_i_glide_eff_state_penalty>  (1) 
-0

>  <r_i_glide_einternal>  (1) 
0

>  <r_i_glide_emodel>  (1) 
-21.961707138555546

>  <r_i_glide_emodel_strain>  (1) 
0

>  <r_i_glide_energy>  (1) 
-16.512070922315466

>  <r_i_glide_erotb>  (1) 
0

>  <r_i_glide_esite>  (1) 
0

>  <r_i_glide_evdw>  (1) 
-16.474606652662537

>  <r_i_glide_gscore>  (1) 
-4.8383933737558422

>  <r_i_glide_gscore_strain>  (1) 
0

>  <r_i_glide_hbond>  (1) 
0

>  <r_i_glide_ligand_efficiency>  (1) 
-0.6911990533936917

>  <r_i_glide_ligand_efficiency_ln>  (1) 
-1.6424103685943732

>  <r_i_glide_ligand_efficiency_sa>  (1) 
-1.3222162227395506

>  <r_i_glide_lipo>  (1) 
-1.2680079464168692

>  <r_i_glide_metal>  (1) 
-0

>  <r_i_glide_rewards>  (1) 
-2.7410354542579061

>  <r_lp_Energy>  (1) 
8.5246700000000004

>  <r_lp_tautomer_probability>  (1) 
1

>  <s_epik_Chemistry_Notes>  (1) 
This compound has an ester and may undergo hydrolysis at high or low pH.

>  <s_epik_cmdline>  (1) 
J2VwaWtfcHl0aG9uJywgJy1waHQnLCAnMS4wJywgJy1waCcsICc3LjQnLCAnLXRuJywgJzgnLCAnLW1hJywgJzUwMCcsICctaW1hZScsICc8aW5maWxlLm1hZT4nLCAnLW9tYWUnLCAnPG91dGZpbGUubWFlPic=

>  <s_epik_input>  (1) 
W0NIMl0xW0NIMl1bQ0gyXVtDSDJdT0MxPU8=

>  <s_glide_docking_method>  (1) 
confgen

>  <s_i_glide_gridfile>  (1) 
gpcr_5ht2c_6bqh_protein_autoprepared_prepared

>  <s_lp_Force_Field>  (1) 
S-OPLS

>  <s_lp_Variant>  (1) 
Pocket2Mol_45-1

>  <s_m_source_file>  (1) 
generated_GPCR_5HT2C_ligand_Pocket2Mol_2026-06-23_prepared.sdf

>  <GenAI_Model>  (1) 
Pocket2Mol

>  <Protein>  (1) 
GPCR_5HT2C

$$$$
Pocket2Mol_46
     RDKit          3D

  0  0  0  0  0  0  0  0  0  0999 V3000
M  V30 BEGIN CTAB
M  V30 COUNTS 12 11 0 0 1
M  V30 BEGIN ATOM
M  V30 1 C 39.378692 30.938630 55.038086 0
M  V30 2 O 38.663697 29.800991 54.591051 0
M  V30 3 C 38.845355 29.359660 53.334308 0
M  V30 4 C 37.908889 28.177930 53.018871 0
M  V30 5 O 39.645120 29.824095 52.516580 0
M  V30 6 O 37.126842 27.713190 53.841396 0
M  V30 7 N 38.045138 27.737788 51.767978 0
M  V30 8 H 39.089196 31.182401 56.060010 0
M  V30 9 H 40.452686 30.752537 55.021565 0
M  V30 10 H 39.165266 31.803837 54.409638 0
M  V30 11 H 38.713776 28.175880 51.150484 0
M  V30 12 H 37.466185 26.970469 51.437868 0
M  V30 END ATOM
M  V30 BEGIN BOND
M  V30 1 1 2 1
M  V30 2 1 3 2
M  V30 3 1 4 3
M  V30 4 2 5 3
M  V30 5 2 6 4
M  V30 6 1 7 4
M  V30 7 1 8 1
M  V30 8 1 9 1
M  V30 9 1 10 1
M  V30 10 1 11 7
M  V30 11 1 12 7
M  V30 END BOND
M  V30 END CTAB
M  END
>  <i_epik_Tot_Q>  (1) 
0

>  <i_epik_Tot_abs_Q>  (1) 
0

>  <i_i_glide_confnum>  (1) 
1

>  <i_i_glide_lignum>  (1) 
49

>  <i_i_glide_posenum>  (1) 
387

>  <i_i_glide_rotatable_bonds>  (1) 
2

>  <i_lp_mmshare_version>  (1) 
72125

>  <i_m_source_file_index>  (1) 
47

>  <i_f3d_flags>  (1) 
0

>  <num_sample>  (1) 
100

>  <b_lp_Chiralities_Consistent>  (1) 
1

>  <r_epik_Charging_Adjusted_Penalty>  (1) 
0

>  <r_epik_Ionization_Penalty>  (1) 
3.9236796398539443e-05

>  <r_epik_Ionization_Penalty_Charging>  (1) 
0

>  <r_epik_Ionization_Penalty_Neutral>  (1) 
3.9236796398539443e-05

>  <r_epik_State_Penalty>  (1) 
-0

>  <r_glide_ring_energy>  (1) 
0

>  <r_i_docking_score>  (1) 
-4.8366703241677955

>  <r_i_glide_ecoul>  (1) 
-3.4388953694432316

>  <r_i_glide_eff_state_penalty>  (1) 
-0

>  <r_i_glide_einternal>  (1) 
0.10787820841480755

>  <r_i_glide_emodel>  (1) 
-24.579000664812096

>  <r_i_glide_emodel_strain>  (1) 
0

>  <r_i_glide_energy>  (1) 
-18.3297679067927

>  <r_i_glide_erotb>  (1) 
0

>  <r_i_glide_esite>  (1) 
0

>  <r_i_glide_evdw>  (1) 
-14.890872537349468

>  <r_i_glide_gscore>  (1) 
-4.8366703241677955

>  <r_i_glide_gscore_strain>  (1) 
0

>  <r_i_glide_hbond>  (1) 
-0.32000000000000001

>  <r_i_glide_ligand_efficiency>  (1) 
-0.69095290345254223

>  <r_i_glide_ligand_efficiency_ln>  (1) 
-1.641825473094896

>  <r_i_glide_ligand_efficiency_sa>  (1) 
-1.3217453548414879

>  <r_i_glide_lipo>  (1) 
-0.22429841664137218

>  <r_i_glide_metal>  (1) 
-0

>  <r_i_glide_rewards>  (1) 
-3.0319939752424654

>  <r_lp_Energy>  (1) 
8.3220650000000003

>  <r_lp_tautomer_probability>  (1) 
1

>  <s_epik_Chemistry_Notes>  (1) 
This compound has an ester and may undergo hydrolysis at high or low pH.

>  <s_epik_cmdline>  (1) 
J2VwaWtfcHl0aG9uJywgJy1waHQnLCAnMS4wJywgJy1waCcsICc3LjQnLCAnLXRuJywgJzgnLCAnLW1hJywgJzUwMCcsICctaW1hZScsICc8aW5maWxlLm1hZT4nLCAnLW9tYWUnLCAnPG91dGZpbGUubWFlPic=

>  <s_epik_input>  (1) 
W0NIM11PQyg9TylDKD1PKVtOSDJd

>  <s_glide_docking_method>  (1) 
confgen

>  <s_i_glide_gridfile>  (1) 
gpcr_5ht2c_6bqh_protein_autoprepared_prepared

>  <s_lp_Force_Field>  (1) 
S-OPLS

>  <s_lp_Variant>  (1) 
Pocket2Mol_46-1

>  <s_m_source_file>  (1) 
generated_GPCR_5HT2C_ligand_Pocket2Mol_2026-06-23_prepared.sdf

>  <GenAI_Model>  (1) 
Pocket2Mol

>  <Protein>  (1) 
GPCR_5HT2C

$$$$
Pocket2Mol_17
     RDKit          3D

  0  0  0  0  0  0  0  0  0  0999 V3000
M  V30 BEGIN CTAB
M  V30 COUNTS 16 16 0 0 1
M  V30 BEGIN ATOM
M  V30 1 C 38.057984 28.151068 52.517145 0
M  V30 2 C 39.245143 27.881262 51.598080 0
M  V30 3 C 38.632977 29.102127 53.565692 0
M  V30 4 C 39.982362 29.222771 51.512984 0
M  V30 5 C 39.645138 29.982882 52.810573 0
M  V30 6 O 37.611257 29.846059 54.188411 0
M  V30 7 H 37.641238 27.240530 52.949743 0
M  V30 8 H 37.264300 28.641628 51.951509 0
M  V30 9 H 39.889600 27.136294 52.064012 0
M  V30 10 H 38.944215 27.498540 50.622269 0
M  V30 11 H 39.158416 28.519175 54.323369 0
M  V30 12 H 41.054822 29.080129 51.383248 0
M  V30 13 H 39.622738 29.788880 50.652467 0
M  V30 14 H 39.245201 30.967591 52.567583 0
M  V30 15 H 40.518978 30.167259 53.431079 0
M  V30 16 H 37.985438 30.411549 54.848751 0
M  V30 END ATOM
M  V30 BEGIN BOND
M  V30 1 1 2 1
M  V30 2 1 3 1
M  V30 3 1 4 2
M  V30 4 1 5 3
M  V30 5 1 5 4
M  V30 6 1 6 3
M  V30 7 1 7 1
M  V30 8 1 8 1
M  V30 9 1 9 2
M  V30 10 1 10 2
M  V30 11 1 11 3
M  V30 12 1 12 4
M  V30 13 1 13 4
M  V30 14 1 14 5
M  V30 15 1 15 5
M  V30 16 1 16 6
M  V30 END BOND
M  V30 END CTAB
M  END
>  <i_epik_Tot_Q>  (1) 
0

>  <i_epik_Tot_abs_Q>  (1) 
0

>  <i_i_glide_confnum>  (1) 
1

>  <i_i_glide_lignum>  (1) 
20

>  <i_i_glide_posenum>  (1) 
392

>  <i_i_glide_rotatable_bonds>  (1) 
1

>  <i_lp_mmshare_version>  (1) 
72125

>  <i_m_source_file_index>  (1) 
18

>  <i_f3d_flags>  (1) 
0

>  <num_sample>  (1) 
100

>  <b_lp_Chiralities_Consistent>  (1) 
1

>  <r_epik_Charging_Adjusted_Penalty>  (1) 
0

>  <r_epik_Ionization_Penalty>  (1) 
4.538991431931509e-07

>  <r_epik_Ionization_Penalty_Charging>  (1) 
0

>  <r_epik_Ionization_Penalty_Neutral>  (1) 
4.538991431931509e-07

>  <r_epik_State_Penalty>  (1) 
-0

>  <r_glide_ring_energy>  (1) 
0

>  <r_i_docking_score>  (1) 
-4.8348949107220758

>  <r_i_glide_ecoul>  (1) 
-0.9911720955177129

>  <r_i_glide_eff_state_penalty>  (1) 
-0

>  <r_i_glide_einternal>  (1) 
0.31318164190370135

>  <r_i_glide_emodel>  (1) 
-19.996401766403192

>  <r_i_glide_emodel_strain>  (1) 
0.12042510452746669

>  <r_i_glide_energy>  (1) 
-15.523757823010905

>  <r_i_glide_erotb>  (1) 
0

>  <r_i_glide_esite>  (1) 
0

>  <r_i_glide_evdw>  (1) 
-14.532585727493192

>  <r_i_glide_gscore>  (1) 
-4.8348949107220758

>  <r_i_glide_gscore_strain>  (1) 
0

>  <r_i_glide_hbond>  (1) 
0

>  <r_i_glide_ligand_efficiency>  (1) 
-0.80581581845367933

>  <r_i_glide_ligand_efficiency_ln>  (1) 
-1.73184508336564

>  <r_i_glide_ligand_efficiency_sa>  (1) 
-1.4642645177420657

>  <r_i_glide_lipo>  (1) 
-1.6019536089614774

>  <r_i_glide_metal>  (1) 
-0

>  <r_i_glide_rewards>  (1) 
-2.3576362010582828

>  <r_lp_Energy>  (1) 
8.9029089999999993

>  <r_lp_tautomer_probability>  (1) 
1

>  <s_epik_cmdline>  (1) 
J2VwaWtfcHl0aG9uJywgJy1waHQnLCAnMS4wJywgJy1waCcsICc3LjQnLCAnLXRuJywgJzgnLCAnLW1hJywgJzUwMCcsICctaW1hZScsICc8aW5maWxlLm1hZT4nLCAnLW9tYWUnLCAnPG91dGZpbGUubWFlPic=

>  <s_epik_input>  (1) 
W09IXVtDSF0xW0NIMl1bQ0gyXVtDSDJdW0NIMl0x

>  <s_glide_docking_method>  (1) 
confgen

>  <s_i_glide_gridfile>  (1) 
gpcr_5ht2c_6bqh_protein_autoprepared_prepared

>  <s_lp_Force_Field>  (1) 
S-OPLS

>  <s_lp_Variant>  (1) 
Pocket2Mol_17-1

>  <s_m_source_file>  (1) 
generated_GPCR_5HT2C_ligand_Pocket2Mol_2026-06-23_prepared.sdf

>  <GenAI_Model>  (1) 
Pocket2Mol

>  <Protein>  (1) 
GPCR_5HT2C

$$$$
Pocket2Mol_61
     RDKit          3D

  0  0  0  0  0  0  0  0  0  0999 V3000
M  V30 BEGIN CTAB
M  V30 COUNTS 16 16 0 0 1
M  V30 BEGIN ATOM
M  V30 1 C 39.665906 28.601528 50.665269 0
M  V30 2 C 38.803839 28.534846 51.925624 0
M  V30 3 C 40.442656 29.924770 50.758594 0
M  V30 4 C 40.045142 30.537758 52.103238 0
M  V30 5 N 39.564317 29.376521 52.838722 0
M  V30 6 N 38.589010 29.893949 53.898432 0 CHG=1
M  V30 7 O 37.643534 29.165317 54.188595 0 CHG=-1
M  V30 8 O 38.833570 30.992113 54.391052 0
M  V30 9 H 40.362007 27.763071 50.639820 0
M  V30 10 H 39.053623 28.537751 49.767617 0
M  V30 11 H 38.678258 27.518949 52.302389 0
M  V30 12 H 37.819238 28.954279 51.716895 0
M  V30 13 H 40.206342 30.598487 49.933890 0
M  V30 14 H 41.516274 29.737758 50.733218 0
M  V30 15 H 39.247560 31.260028 51.948967 0
M  V30 16 H 40.845133 31.057027 52.621356 0
M  V30 END ATOM
M  V30 BEGIN BOND
M  V30 1 1 2 1
M  V30 2 1 3 1
M  V30 3 1 4 3
M  V30 4 1 5 2
M  V30 5 1 5 4
M  V30 6 1 6 5
M  V30 7 1 7 6
M  V30 8 2 8 6
M  V30 9 1 9 1
M  V30 10 1 10 1
M  V30 11 1 11 2
M  V30 12 1 12 2
M  V30 13 1 13 3
M  V30 14 1 14 3
M  V30 15 1 15 4
M  V30 16 1 16 4
M  V30 END BOND
M  V30 END CTAB
M  END
>  <i_epik_Tot_Q>  (1) 
0

>  <i_epik_Tot_abs_Q>  (1) 
2

>  <i_i_glide_confnum>  (1) 
2

>  <i_i_glide_lignum>  (1) 
65

>  <i_i_glide_posenum>  (1) 
113

>  <i_i_glide_rotatable_bonds>  (1) 
1

>  <i_lp_mmshare_version>  (1) 
72125

>  <i_m_source_file_index>  (1) 
62

>  <i_f3d_flags>  (1) 
0

>  <num_sample>  (1) 
100

>  <b_lp_Chiralities_Consistent>  (1) 
1

>  <r_epik_Charging_Adjusted_Penalty>  (1) 
0

>  <r_epik_Ionization_Penalty>  (1) 
5.9201220630741648e-14

>  <r_epik_Ionization_Penalty_Charging>  (1) 
0

>  <r_epik_Ionization_Penalty_Neutral>  (1) 
5.9201220630741648e-14

>  <r_epik_State_Penalty>  (1) 
-0

>  <r_glide_ring_energy>  (1) 
0.002520034235707866

>  <r_i_docking_score>  (1) 
-4.8323980688644097

>  <r_i_glide_ecoul>  (1) 
0.020279999603374121

>  <r_i_glide_eff_state_penalty>  (1) 
-0

>  <r_i_glide_einternal>  (1) 
0.00032876863231590114

>  <r_i_glide_emodel>  (1) 
-21.208325558710872

>  <r_i_glide_emodel_strain>  (1) 
0

>  <r_i_glide_energy>  (1) 
-16.081573461339907

>  <r_i_glide_erotb>  (1) 
0

>  <r_i_glide_esite>  (1) 
0

>  <r_i_glide_evdw>  (1) 
-16.101853460943282

>  <r_i_glide_gscore>  (1) 
-4.8323980688644097

>  <r_i_glide_gscore_strain>  (1) 
0

>  <r_i_glide_hbond>  (1) 
0

>  <r_i_glide_ligand_efficiency>  (1) 
-0.60404975860805121

>  <r_i_glide_ligand_efficiency_ln>  (1) 
-1.5692449437531248

>  <r_i_glide_ligand_efficiency_sa>  (1) 
-1.2080995172161026

>  <r_i_glide_lipo>  (1) 
-1.1636664844386453

>  <r_i_glide_metal>  (1) 
-0

>  <r_i_glide_rewards>  (1) 
-2.8666809113191061

>  <r_lp_Energy>  (1) 
26.171151999999999

>  <r_lp_tautomer_probability>  (1) 
1

>  <s_epik_cmdline>  (1) 
J2VwaWtfcHl0aG9uJywgJy1waHQnLCAnMS4wJywgJy1waCcsICc3LjQnLCAnLXRuJywgJzgnLCAnLW1hJywgJzUwMCcsICctaW1hZScsICc8aW5maWxlLm1hZT4nLCAnLW9tYWUnLCAnPG91dGZpbGUubWFlPic=

>  <s_epik_input>  (1) 
W0NIMl0xW0NIMl1bQ0gyXVtDSDJdTjFbTitdKFtPLV0pPU8=

>  <s_glide_docking_method>  (1) 
confgen

>  <s_i_glide_gridfile>  (1) 
gpcr_5ht2c_6bqh_protein_autoprepared_prepared

>  <s_lp_Force_Field>  (1) 
S-OPLS

>  <s_lp_Variant>  (1) 
Pocket2Mol_61-1

>  <s_m_source_file>  (1) 
generated_GPCR_5HT2C_ligand_Pocket2Mol_2026-06-23_prepared.sdf

>  <GenAI_Model>  (1) 
Pocket2Mol

>  <Protein>  (1) 
GPCR_5HT2C

$$$$
Pocket2Mol_76
     RDKit          3D

  0  0  0  0  0  0  0  0  0  0999 V3000
M  V30 BEGIN CTAB
M  V30 COUNTS 12 12 0 0 1
M  V30 BEGIN ATOM
M  V30 1 C 37.942919 29.946090 58.941275 0
M  V30 2 C 39.156184 29.861780 59.706349 0
M  V30 3 C 39.027494 30.524316 60.869592 0
M  V30 4 C 37.648074 31.070889 60.869391 0
M  V30 5 C 37.032544 30.658416 59.606277 0
M  V30 6 C 40.107368 30.686767 61.989860 0
M  V30 7 O 37.116311 31.737755 61.757496 0
M  V30 8 O 41.212038 30.137822 61.767761 0 CHG=-1
M  V30 9 O 39.767752 31.351198 62.991685 0
M  V30 10 H 37.790847 29.500902 57.968999 0
M  V30 11 H 40.049239 29.341803 59.390379 0
M  V30 12 H 36.025562 30.904171 59.300800 0
M  V30 END ATOM
M  V30 BEGIN BOND
M  V30 1 1 2 1
M  V30 2 2 3 2
M  V30 3 1 4 3
M  V30 4 2 5 1
M  V30 5 1 5 4
M  V30 6 1 6 3
M  V30 7 2 7 4
M  V30 8 1 8 6
M  V30 9 2 9 6
M  V30 10 1 10 1
M  V30 11 1 11 2
M  V30 12 1 12 5
M  V30 END BOND
M  V30 END CTAB
M  END
>  <i_epik_Tot_Q>  (1) 
-1

>  <i_epik_Tot_abs_Q>  (1) 
1

>  <i_i_glide_confnum>  (1) 
1

>  <i_i_glide_lignum>  (1) 
81

>  <i_i_glide_posenum>  (1) 
185

>  <i_i_glide_rotatable_bonds>  (1) 
1

>  <i_lp_mmshare_version>  (1) 
72125

>  <i_m_source_file_index>  (1) 
77

>  <i_f3d_flags>  (1) 
0

>  <num_sample>  (1) 
100

>  <b_lp_Chiralities_Consistent>  (1) 
1

>  <r_epik_Charging_Adjusted_Penalty>  (1) 
1.3987331750313068e-05

>  <r_epik_Ionization_Penalty>  (1) 
1.3987331750313068e-05

>  <r_epik_Ionization_Penalty_Charging>  (1) 
1.3987331750313068e-05

>  <r_epik_Ionization_Penalty_Neutral>  (1) 
0

>  <r_epik_State_Penalty>  (1) 
-0

>  <r_glide_ring_energy>  (1) 
0

>  <r_i_docking_score>  (1) 
-4.8317610172622834

>  <r_i_glide_ecoul>  (1) 
-6.5549426697176525

>  <r_i_glide_eff_state_penalty>  (1) 
-0

>  <r_i_glide_einternal>  (1) 
0.0039819304944908873

>  <r_i_glide_emodel>  (1) 
-23.856951696384861

>  <r_i_glide_emodel_strain>  (1) 
0

>  <r_i_glide_energy>  (1) 
-17.978163260257325

>  <r_i_glide_erotb>  (1) 
0

>  <r_i_glide_esite>  (1) 
0

>  <r_i_glide_evdw>  (1) 
-11.423220590539675

>  <r_i_glide_gscore>  (1) 
-4.8317610172622834

>  <r_i_glide_gscore_strain>  (1) 
0

>  <r_i_glide_hbond>  (1) 
-0.47999999999999998

>  <r_i_glide_ligand_efficiency>  (1) 
-0.53686233525136484

>  <r_i_glide_ligand_efficiency_ln>  (1) 
-1.5112360425078066

>  <r_i_glide_ligand_efficiency_sa>  (1) 
-1.1167186587622322

>  <r_i_glide_lipo>  (1) 
-0.27234093889211081

>  <r_i_glide_metal>  (1) 
-0

>  <r_i_glide_rewards>  (1) 
-2.5250176483855409

>  <r_lp_Energy>  (1) 
9.1486529999999995

>  <r_lp_tautomer_probability>  (1) 
1

>  <s_epik_cmdline>  (1) 
J2VwaWtfcHl0aG9uJywgJy1waHQnLCAnMS4wJywgJy1waCcsICc3LjQnLCAnLXRuJywgJzgnLCAnLW1hJywgJzUwMCcsICctaW1hZScsICc8aW5maWxlLm1hZT4nLCAnLW9tYWUnLCAnPG91dGZpbGUubWFlPic=

>  <s_epik_input>  (1) 
Tz1DMVtDSF09W0NIXVtDSF09QzFDKD1PKVtPSF0=

>  <s_glide_docking_method>  (1) 
confgen

>  <s_i_glide_gridfile>  (1) 
gpcr_5ht2c_6bqh_protein_autoprepared_prepared

>  <s_lp_Force_Field>  (1) 
S-OPLS

>  <s_lp_Variant>  (1) 
Pocket2Mol_76-1

>  <s_m_source_file>  (1) 
generated_GPCR_5HT2C_ligand_Pocket2Mol_2026-06-23_prepared.sdf

>  <GenAI_Model>  (1) 
Pocket2Mol

>  <Protein>  (1) 
GPCR_5HT2C

$$$$
Pocket2Mol_7
     RDKit          3D

  0  0  0  0  0  0  0  0  0  0999 V3000
M  V30 BEGIN CTAB
M  V30 COUNTS 13 13 0 0 1
M  V30 BEGIN ATOM
M  V30 1 C 38.706749 27.833049 51.868387 0
M  V30 2 C 38.927933 28.937862 52.822458 0
M  V30 3 C 39.575897 28.445102 50.672864 0
M  V30 4 C 40.168389 29.884923 51.032788 0
M  V30 5 C 39.645132 29.942093 52.414636 0
M  V30 6 H 39.100368 26.887876 52.242649 0
M  V30 7 H 37.648151 27.737609 51.622770 0
M  V30 8 H 38.499615 28.887006 53.813100 0
M  V30 9 H 38.972310 28.510887 49.767760 0
M  V30 10 H 40.394199 27.763788 50.440353 0
M  V30 11 H 39.749418 30.682233 50.417416 0
M  V30 12 H 41.256953 29.914963 51.001024 0
M  V30 13 H 39.863120 30.798312 53.037427 0
M  V30 END ATOM
M  V30 BEGIN BOND
M  V30 1 1 2 1
M  V30 2 1 3 1
M  V30 3 1 4 3
M  V30 4 2 5 2
M  V30 5 1 5 4
M  V30 6 1 6 1
M  V30 7 1 7 1
M  V30 8 1 8 2
M  V30 9 1 9 3
M  V30 10 1 10 3
M  V30 11 1 11 4
M  V30 12 1 12 4
M  V30 13 1 13 5
M  V30 END BOND
M  V30 END CTAB
M  END
>  <i_epik_Tot_Q>  (1) 
0

>  <i_epik_Tot_abs_Q>  (1) 
0

>  <i_i_glide_confnum>  (1) 
1

>  <i_i_glide_lignum>  (1) 
10

>  <i_i_glide_posenum>  (1) 
397

>  <i_i_glide_rotatable_bonds>  (1) 
0

>  <i_lp_mmshare_version>  (1) 
72125

>  <i_m_source_file_index>  (1) 
8

>  <i_f3d_flags>  (1) 
0

>  <num_sample>  (1) 
100

>  <b_lp_Chiralities_Consistent>  (1) 
1

>  <r_epik_Charging_Adjusted_Penalty>  (1) 
0

>  <r_epik_Ionization_Penalty>  (1) 
0

>  <r_epik_Ionization_Penalty_Charging>  (1) 
0

>  <r_epik_Ionization_Penalty_Neutral>  (1) 
0

>  <r_epik_State_Penalty>  (1) 
-0

>  <r_glide_ring_energy>  (1) 
0

>  <r_i_docking_score>  (1) 
-4.8317224086729063

>  <r_i_glide_ecoul>  (1) 
-0.41898916936496328

>  <r_i_glide_eff_state_penalty>  (1) 
-0

>  <r_i_glide_einternal>  (1) 
0

>  <r_i_glide_emodel>  (1) 
-17.879012834364154

>  <r_i_glide_emodel_strain>  (1) 
0

>  <r_i_glide_energy>  (1) 
-13.839365698416017

>  <r_i_glide_erotb>  (1) 
0

>  <r_i_glide_esite>  (1) 
0

>  <r_i_glide_evdw>  (1) 
-13.420376529051055

>  <r_i_glide_gscore>  (1) 
-4.8317224086729063

>  <r_i_glide_gscore_strain>  (1) 
0

>  <r_i_glide_hbond>  (1) 
0

>  <r_i_glide_ligand_efficiency>  (1) 
-0.96634448173458121

>  <r_i_glide_ligand_efficiency_ln>  (1) 
-1.851633405665454

>  <r_i_glide_ligand_efficiency_sa>  (1) 
-1.6524258199698927

>  <r_i_glide_lipo>  (1) 
-1.6178492346558442

>  <r_i_glide_metal>  (1) 
-0

>  <r_i_glide_rewards>  (1) 
-2.4800059721597649

>  <r_lp_Energy>  (1) 
-2.1713199999999997

>  <r_lp_tautomer_probability>  (1) 
1

>  <s_epik_cmdline>  (1) 
J2VwaWtfcHl0aG9uJywgJy1waHQnLCAnMS4wJywgJy1waCcsICc3LjQnLCAnLXRuJywgJzgnLCAnLW1hJywgJzUwMCcsICctaW1hZScsICc8aW5maWxlLm1hZT4nLCAnLW9tYWUnLCAnPG91dGZpbGUubWFlPic=

>  <s_epik_input>  (1) 
W0NIMl0xW0NIXT1bQ0hdW0NIMl1bQ0gyXTE=

>  <s_glide_docking_method>  (1) 
confgen

>  <s_i_glide_gridfile>  (1) 
gpcr_5ht2c_6bqh_protein_autoprepared_prepared

>  <s_lp_Force_Field>  (1) 
S-OPLS

>  <s_lp_Variant>  (1) 
Pocket2Mol_7-1

>  <s_m_source_file>  (1) 
generated_GPCR_5HT2C_ligand_Pocket2Mol_2026-06-23_prepared.sdf

>  <GenAI_Model>  (1) 
Pocket2Mol

>  <Protein>  (1) 
GPCR_5HT2C

$$$$
Pocket2Mol_4
     RDKit          3D

  0  0  0  0  0  0  0  0  0  0999 V3000
M  V30 BEGIN CTAB
M  V30 COUNTS 9 9 0 0 1
M  V30 BEGIN ATOM
M  V30 1 C 39.932794 29.844784 51.739561 0
M  V30 2 C 39.933136 28.888132 50.696258 0
M  V30 3 C 39.245131 29.335382 52.682310 0
M  V30 4 C 38.825894 28.063808 52.216778 0
M  V30 5 C 39.245168 27.753155 50.967754 0
M  V30 6 H 40.415475 30.811830 51.735395 0
M  V30 7 H 40.445135 29.060871 49.761574 0
M  V30 8 H 39.025959 29.781818 53.641739 0
M  V30 9 H 38.219096 27.402691 52.819228 0
M  V30 END ATOM
M  V30 BEGIN BOND
M  V30 1 1 2 1
M  V30 2 2 3 1
M  V30 3 1 4 3
M  V30 4 2 5 2
M  V30 5 2 5 4
M  V30 6 1 6 1
M  V30 7 1 7 2
M  V30 8 1 8 3
M  V30 9 1 9 4
M  V30 END BOND
M  V30 END CTAB
M  END
>  <i_epik_Tot_Q>  (1) 
0

>  <i_epik_Tot_abs_Q>  (1) 
0

>  <i_i_glide_confnum>  (1) 
1

>  <i_i_glide_lignum>  (1) 
7

>  <i_i_glide_posenum>  (1) 
362

>  <i_i_glide_rotatable_bonds>  (1) 
0

>  <i_lp_mmshare_version>  (1) 
72125

>  <i_m_source_file_index>  (1) 
5

>  <i_f3d_flags>  (1) 
0

>  <num_sample>  (1) 
100

>  <b_lp_Chiralities_Consistent>  (1) 
1

>  <r_epik_Charging_Adjusted_Penalty>  (1) 
0

>  <r_epik_Ionization_Penalty>  (1) 
0

>  <r_epik_Ionization_Penalty_Charging>  (1) 
0

>  <r_epik_Ionization_Penalty_Neutral>  (1) 
0

>  <r_epik_State_Penalty>  (1) 
-0

>  <r_glide_ring_energy>  (1) 
0

>  <r_i_docking_score>  (1) 
-4.8281018962157782

>  <r_i_glide_ecoul>  (1) 
-0.22544240851293543

>  <r_i_glide_eff_state_penalty>  (1) 
-0

>  <r_i_glide_einternal>  (1) 
0

>  <r_i_glide_emodel>  (1) 
-17.980406622096034

>  <r_i_glide_emodel_strain>  (1) 
0

>  <r_i_glide_energy>  (1) 
-13.755360957320134

>  <r_i_glide_erotb>  (1) 
0

>  <r_i_glide_esite>  (1) 
0

>  <r_i_glide_evdw>  (1) 
-13.529918548807199

>  <r_i_glide_gscore>  (1) 
-4.8281018962157782

>  <r_i_glide_gscore_strain>  (1) 
0

>  <r_i_glide_hbond>  (1) 
0

>  <r_i_glide_ligand_efficiency>  (1) 
-0.96562037924315569

>  <r_i_glide_ligand_efficiency_ln>  (1) 
-1.8502459373375524

>  <r_i_glide_ligand_efficiency_sa>  (1) 
-1.6511876221266262

>  <r_i_glide_lipo>  (1) 
-1.5817829473232261

>  <r_i_glide_metal>  (1) 
-0

>  <r_i_glide_rewards>  (1) 
-2.5360066601752518

>  <r_lp_Energy>  (1) 
-2.6088139999999997

>  <r_lp_tautomer_probability>  (1) 
1

>  <s_epik_cmdline>  (1) 
J2VwaWtfcHl0aG9uJywgJy1waHQnLCAnMS4wJywgJy1waCcsICc3LjQnLCAnLXRuJywgJzgnLCAnLW1hJywgJzUwMCcsICctaW1hZScsICc8aW5maWxlLm1hZT4nLCAnLW9tYWUnLCAnPG91dGZpbGUubWFlPic=

>  <s_epik_input>  (1) 
W0NIXTE9W0NIXVtDSF09Qz1bQ0hdMQ==

>  <s_glide_docking_method>  (1) 
confgen

>  <s_i_glide_gridfile>  (1) 
gpcr_5ht2c_6bqh_protein_autoprepared_prepared

>  <s_lp_Force_Field>  (1) 
S-OPLS

>  <s_lp_Variant>  (1) 
Pocket2Mol_4-1

>  <s_m_source_file>  (1) 
generated_GPCR_5HT2C_ligand_Pocket2Mol_2026-06-23_prepared.sdf

>  <GenAI_Model>  (1) 
Pocket2Mol

>  <Protein>  (1) 
GPCR_5HT2C

$$$$
Pocket2Mol_88
     RDKit          3D

  0  0  0  0  0  0  0  0  0  0999 V3000
M  V30 BEGIN CTAB
M  V30 COUNTS 15 15 0 0 1
M  V30 BEGIN ATOM
M  V30 1 C 39.897463 28.807714 51.040556 0
M  V30 2 C 40.120412 30.297357 50.791174 0
M  V30 3 C 38.938385 28.794819 52.226575 0
M  V30 4 C 39.354737 30.019392 53.051317 0
M  V30 5 N 40.045137 30.937720 52.119134 0 CHG=1
M  V30 6 H 40.839232 28.335859 51.322882 0
M  V30 7 H 39.503156 28.284611 50.167813 0
M  V30 8 H 41.067986 30.507379 50.293071 0
M  V30 9 H 39.317780 30.694377 50.167757 0
M  V30 10 H 37.914582 28.917039 51.869651 0
M  V30 11 H 38.980967 27.865548 52.796049 0
M  V30 12 H 38.497314 30.503583 53.520626 0
M  V30 13 H 40.045135 29.737755 53.845987 0
M  V30 14 H 39.555994 31.820721 52.052728 0
M  V30 15 H 40.976917 31.117848 52.462983 0
M  V30 END ATOM
M  V30 BEGIN BOND
M  V30 1 1 2 1
M  V30 2 1 3 1
M  V30 3 1 4 3
M  V30 4 1 5 2
M  V30 5 1 5 4
M  V30 6 1 6 1
M  V30 7 1 7 1
M  V30 8 1 8 2
M  V30 9 1 9 2
M  V30 10 1 10 3
M  V30 11 1 11 3
M  V30 12 1 12 4
M  V30 13 1 13 4
M  V30 14 1 14 5
M  V30 15 1 15 5
M  V30 END BOND
M  V30 END CTAB
M  END
>  <i_epik_Tot_Q>  (1) 
1

>  <i_epik_Tot_abs_Q>  (1) 
1

>  <i_i_glide_confnum>  (1) 
3

>  <i_i_glide_lignum>  (1) 
93

>  <i_i_glide_posenum>  (1) 
75

>  <i_i_glide_rotatable_bonds>  (1) 
0

>  <i_lp_mmshare_version>  (1) 
72125

>  <i_m_source_file_index>  (1) 
89

>  <i_f3d_flags>  (1) 
0

>  <num_sample>  (1) 
100

>  <b_lp_Chiralities_Consistent>  (1) 
1

>  <r_epik_Charging_Adjusted_Penalty>  (1) 
0.00011848530527437102

>  <r_epik_Ionization_Penalty>  (1) 
0.00011848530527437102

>  <r_epik_Ionization_Penalty_Charging>  (1) 
0.00011848530527437102

>  <r_epik_Ionization_Penalty_Neutral>  (1) 
0

>  <r_epik_State_Penalty>  (1) 
-0

>  <r_glide_ring_energy>  (1) 
2.3171021879061433

>  <r_i_docking_score>  (1) 
-4.8177689074726313

>  <r_i_glide_ecoul>  (1) 
-0.97192446859184711

>  <r_i_glide_eff_state_penalty>  (1) 
-0

>  <r_i_glide_einternal>  (1) 
0

>  <r_i_glide_emodel>  (1) 
-19.962545704085734

>  <r_i_glide_emodel_strain>  (1) 
8.6221874084912997e-10

>  <r_i_glide_energy>  (1) 
-12.441012943257395

>  <r_i_glide_erotb>  (1) 
0

>  <r_i_glide_esite>  (1) 
0

>  <r_i_glide_evdw>  (1) 
-11.469088474665547

>  <r_i_glide_gscore>  (1) 
-4.8177689074726313

>  <r_i_glide_gscore_strain>  (1) 
0

>  <r_i_glide_hbond>  (1) 
0

>  <r_i_glide_ligand_efficiency>  (1) 
-0.96355378149452631

>  <r_i_glide_ligand_efficiency_ln>  (1) 
-1.8462860850283982

>  <r_i_glide_ligand_efficiency_sa>  (1) 
-1.6476537896850139

>  <r_i_glide_lipo>  (1) 
-1.2566330910235977

>  <r_i_glide_metal>  (1) 
-0

>  <r_i_glide_rewards>  (1) 
-2.8418927224269792

>  <r_lp_Energy>  (1) 
17.726251999999999

>  <r_lp_tautomer_probability>  (1) 
1

>  <s_epik_cmdline>  (1) 
J2VwaWtfcHl0aG9uJywgJy1waHQnLCAnMS4wJywgJy1waCcsICc3LjQnLCAnLXRuJywgJzgnLCAnLW1hJywgJzUwMCcsICctaW1hZScsICc8aW5maWxlLm1hZT4nLCAnLW9tYWUnLCAnPG91dGZpbGUubWFlPic=

>  <s_epik_input>  (1) 
W0NIMl0xW0NIMl1bTkhdW0NIMl1bQ0gyXTE=

>  <s_glide_docking_method>  (1) 
confgen

>  <s_i_glide_gridfile>  (1) 
gpcr_5ht2c_6bqh_protein_autoprepared_prepared

>  <s_lp_Force_Field>  (1) 
S-OPLS

>  <s_lp_Variant>  (1) 
Pocket2Mol_88-1

>  <s_m_source_file>  (1) 
generated_GPCR_5HT2C_ligand_Pocket2Mol_2026-06-23_prepared.sdf

>  <GenAI_Model>  (1) 
Pocket2Mol

>  <Protein>  (1) 
GPCR_5HT2C

$$$$
Pocket2Mol_60
     RDKit          3D

  0  0  0  0  0  0  0  0  0  0999 V3000
M  V30 BEGIN CTAB
M  V30 COUNTS 12 12 0 0 1
M  V30 BEGIN ATOM
M  V30 1 C 40.101012 29.942052 51.249258 0
M  V30 2 C 39.645132 29.830432 52.605347 0
M  V30 3 C 39.645161 28.841894 50.567762 0
M  V30 4 C 38.927970 28.668877 52.698860 0
M  V30 5 N 38.933818 28.080524 51.463940 0
M  V30 6 C 38.225205 28.024148 53.823357 0
M  V30 7 O 38.241540 28.591833 54.936031 0
M  V30 8 O 37.645056 26.935613 53.615999 0 CHG=-1
M  V30 9 H 40.695494 30.738316 50.824773 0
M  V30 10 H 39.823656 30.522324 53.415597 0
M  V30 11 H 39.757970 28.537770 49.540089 0
M  V30 12 H 38.473682 27.206036 51.248128 0
M  V30 END ATOM
M  V30 BEGIN BOND
M  V30 1 1 2 1
M  V30 2 2 3 1
M  V30 3 2 4 2
M  V30 4 1 5 3
M  V30 5 1 5 4
M  V30 6 1 6 4
M  V30 7 2 7 6
M  V30 8 1 8 6
M  V30 9 1 9 1
M  V30 10 1 10 2
M  V30 11 1 11 3
M  V30 12 1 12 5
M  V30 END BOND
M  V30 END CTAB
M  END
>  <i_epik_Tot_Q>  (1) 
-1

>  <i_epik_Tot_abs_Q>  (1) 
1

>  <i_i_glide_confnum>  (1) 
1

>  <i_i_glide_lignum>  (1) 
64

>  <i_i_glide_posenum>  (1) 
27

>  <i_i_glide_rotatable_bonds>  (1) 
1

>  <i_lp_mmshare_version>  (1) 
72125

>  <i_m_source_file_index>  (1) 
61

>  <i_f3d_flags>  (1) 
0

>  <num_sample>  (1) 
100

>  <b_lp_Chiralities_Consistent>  (1) 
1

>  <r_epik_Charging_Adjusted_Penalty>  (1) 
0.00021018459712964226

>  <r_epik_Ionization_Penalty>  (1) 
0.00021021235475979092

>  <r_epik_Ionization_Penalty_Charging>  (1) 
0.00021018459712964226

>  <r_epik_Ionization_Penalty_Neutral>  (1) 
2.7757630148672405e-08

>  <r_epik_State_Penalty>  (1) 
-0

>  <r_glide_ring_energy>  (1) 
0

>  <r_i_docking_score>  (1) 
-4.8111994700980754

>  <r_i_glide_ecoul>  (1) 
-0.30301493321321304

>  <r_i_glide_eff_state_penalty>  (1) 
-0

>  <r_i_glide_einternal>  (1) 
8.5915609835174322e-05

>  <r_i_glide_emodel>  (1) 
-21.222119913584962

>  <r_i_glide_emodel_strain>  (1) 
0

>  <r_i_glide_energy>  (1) 
-15.96969174838547

>  <r_i_glide_erotb>  (1) 
0

>  <r_i_glide_esite>  (1) 
0

>  <r_i_glide_evdw>  (1) 
-15.666676815172258

>  <r_i_glide_gscore>  (1) 
-4.8111994700980754

>  <r_i_glide_gscore_strain>  (1) 
0

>  <r_i_glide_hbond>  (1) 
0

>  <r_i_glide_ligand_efficiency>  (1) 
-0.60139993376225942

>  <r_i_glide_ligand_efficiency_ln>  (1) 
-1.5623610336416924

>  <r_i_glide_ligand_efficiency_sa>  (1) 
-1.2027998675245191

>  <r_i_glide_lipo>  (1) 
-1.2873086721239284

>  <r_i_glide_metal>  (1) 
-0

>  <r_i_glide_rewards>  (1) 
-2.6951047172335518

>  <r_lp_Energy>  (1) 
7.8081959999999997

>  <r_lp_tautomer_probability>  (1) 
1

>  <s_epik_cmdline>  (1) 
J2VwaWtfcHl0aG9uJywgJy1waHQnLCAnMS4wJywgJy1waCcsICc3LjQnLCAnLXRuJywgJzgnLCAnLW1hJywgJzUwMCcsICctaW1hZScsICc8aW5maWxlLm1hZT4nLCAnLW9tYWUnLCAnPG91dGZpbGUubWFlPic=

>  <s_epik_input>  (1) 
W25IXTFbY0hdW2NIXVtjSF1jMUMoPU8pW09IXQ==

>  <s_glide_docking_method>  (1) 
confgen

>  <s_i_glide_gridfile>  (1) 
gpcr_5ht2c_6bqh_protein_autoprepared_prepared

>  <s_lp_Force_Field>  (1) 
S-OPLS

>  <s_lp_Variant>  (1) 
Pocket2Mol_60-1

>  <s_m_source_file>  (1) 
generated_GPCR_5HT2C_ligand_Pocket2Mol_2026-06-23_prepared.sdf

>  <GenAI_Model>  (1) 
Pocket2Mol

>  <Protein>  (1) 
GPCR_5HT2C

$$$$
Pocket2Mol_39
     RDKit          3D

  0  0  0  0  0  0  0  0  0  0999 V3000
M  V30 BEGIN CTAB
M  V30 COUNTS 15 15 0 0 1
M  V30 BEGIN ATOM
M  V30 1 C 39.383534 28.345435 51.767779 0
M  V30 2 C 39.900015 29.724830 51.326901 0
M  V30 3 O 38.055996 28.439752 52.251758 0
M  V30 4 C 37.974985 28.845081 53.578267 0
M  V30 5 O 40.045118 30.730113 52.328081 0
M  V30 6 O 38.286534 30.188313 53.767760 0
M  V30 7 C 39.642562 30.475450 53.637173 0
M  V30 8 H 39.359665 27.693091 50.894453 0
M  V30 9 H 40.045137 27.859230 52.484496 0
M  V30 10 H 39.245146 30.124459 50.553258 0
M  V30 11 H 40.874597 29.602069 50.854100 0
M  V30 12 H 38.558700 28.196025 54.234259 0
M  V30 13 H 36.930522 28.730059 53.867910 0
M  V30 14 H 39.801416 31.410036 54.174590 0
M  V30 15 H 40.276699 29.737729 54.122297 0
M  V30 END ATOM
M  V30 BEGIN BOND
M  V30 1 1 2 1
M  V30 2 1 3 1
M  V30 3 1 4 3
M  V30 4 1 5 2
M  V30 5 1 6 4
M  V30 6 1 7 5
M  V30 7 1 7 6
M  V30 8 1 8 1
M  V30 9 1 9 1
M  V30 10 1 10 2
M  V30 11 1 11 2
M  V30 12 1 12 4
M  V30 13 1 13 4
M  V30 14 1 14 7
M  V30 15 1 15 7
M  V30 END BOND
M  V30 END CTAB
M  END
>  <i_epik_Tot_Q>  (1) 
0

>  <i_epik_Tot_abs_Q>  (1) 
0

>  <i_i_glide_confnum>  (1) 
14

>  <i_i_glide_lignum>  (1) 
42

>  <i_i_glide_posenum>  (1) 
352

>  <i_i_glide_rotatable_bonds>  (1) 
0

>  <i_lp_mmshare_version>  (1) 
72125

>  <i_m_source_file_index>  (1) 
40

>  <i_f3d_flags>  (1) 
0

>  <num_sample>  (1) 
100

>  <b_lp_Chiralities_Consistent>  (1) 
1

>  <r_epik_Charging_Adjusted_Penalty>  (1) 
0

>  <r_epik_Ionization_Penalty>  (1) 
4.6834743432320728e-14

>  <r_epik_Ionization_Penalty_Charging>  (1) 
0

>  <r_epik_Ionization_Penalty_Neutral>  (1) 
4.6834743432320728e-14

>  <r_epik_State_Penalty>  (1) 
-0

>  <r_glide_ring_energy>  (1) 
0.0018681440481121299

>  <r_i_docking_score>  (1) 
-4.7985673399173656

>  <r_i_glide_ecoul>  (1) 
0.18296984001591876

>  <r_i_glide_eff_state_penalty>  (1) 
-0

>  <r_i_glide_einternal>  (1) 
0

>  <r_i_glide_emodel>  (1) 
-20.295955411522876

>  <r_i_glide_emodel_strain>  (1) 
0.33635049688504459

>  <r_i_glide_energy>  (1) 
-15.26465970776599

>  <r_i_glide_erotb>  (1) 
0

>  <r_i_glide_esite>  (1) 
0

>  <r_i_glide_evdw>  (1) 
-15.447629547781908

>  <r_i_glide_gscore>  (1) 
-4.7985673399173656

>  <r_i_glide_gscore_strain>  (1) 
0

>  <r_i_glide_hbond>  (1) 
0

>  <r_i_glide_ligand_efficiency>  (1) 
-0.68550961998819504

>  <r_i_glide_ligand_efficiency_ln>  (1) 
-1.6288912754030049

>  <r_i_glide_ligand_efficiency_sa>  (1) 
-1.3113327281658691

>  <r_i_glide_lipo>  (1) 
-0.66000000000000003

>  <r_i_glide_metal>  (1) 
-0

>  <r_i_glide_rewards>  (1) 
-3.3936313385306573

>  <r_lp_Energy>  (1) 
1.238378

>  <r_lp_tautomer_probability>  (1) 
1

>  <s_epik_Chemistry_Notes>  (1) 
This compound contains an acetal/aminal-like group ( X-CH(R)-Y where X, Y are N, S, or O) that may be acid/base labile, releasing an aldehyde.

>  <s_epik_cmdline>  (1) 
J2VwaWtfcHl0aG9uJywgJy1waHQnLCAnMS4wJywgJy1waCcsICc3LjQnLCAnLXRuJywgJzgnLCAnLW1hJywgJzUwMCcsICctaW1hZScsICc8aW5maWxlLm1hZT4nLCAnLW9tYWUnLCAnPG91dGZpbGUubWFlPic=

>  <s_epik_input>  (1) 
W0NIMl0xW0NIMl1PW0NIMl1PW0NIMl1PMQ==

>  <s_glide_docking_method>  (1) 
confgen

>  <s_i_glide_gridfile>  (1) 
gpcr_5ht2c_6bqh_protein_autoprepared_prepared

>  <s_lp_Force_Field>  (1) 
S-OPLS

>  <s_lp_Variant>  (1) 
Pocket2Mol_39-1

>  <s_m_source_file>  (1) 
generated_GPCR_5HT2C_ligand_Pocket2Mol_2026-06-23_prepared.sdf

>  <GenAI_Model>  (1) 
Pocket2Mol

>  <Protein>  (1) 
GPCR_5HT2C

$$$$
Pocket2Mol_60
     RDKit          3D

  0  0  0  0  0  0  0  0  0  0999 V3000
M  V30 BEGIN CTAB
M  V30 COUNTS 12 12 0 0 1
M  V30 BEGIN ATOM
M  V30 1 C 39.879399 28.956591 50.832502 0
M  V30 2 C 39.645138 29.618635 52.082853 0
M  V30 3 C 39.245138 27.739960 50.884105 0
M  V30 4 C 38.876515 28.782251 52.844548 0
M  V30 5 N 38.640401 27.655075 52.110215 0
M  V30 6 C 38.326606 28.902596 54.200721 0
M  V30 7 O 38.566183 29.944231 54.846984 0
M  V30 8 O 37.645137 27.953930 54.648893 0 CHG=-1
M  V30 9 H 40.447231 29.330236 49.993707 0
M  V30 10 H 39.999656 30.593552 52.385716 0
M  V30 11 H 39.168720 26.937753 50.167739 0
M  V30 12 H 38.091931 26.869679 52.433653 0
M  V30 END ATOM
M  V30 BEGIN BOND
M  V30 1 1 2 1
M  V30 2 2 3 1
M  V30 3 2 4 2
M  V30 4 1 5 3
M  V30 5 1 5 4
M  V30 6 1 6 4
M  V30 7 2 7 6
M  V30 8 1 8 6
M  V30 9 1 9 1
M  V30 10 1 10 2
M  V30 11 1 11 3
M  V30 12 1 12 5
M  V30 END BOND
M  V30 END CTAB
M  END
>  <i_epik_Tot_Q>  (1) 
-1

>  <i_epik_Tot_abs_Q>  (1) 
1

>  <i_i_glide_confnum>  (1) 
1

>  <i_i_glide_lignum>  (1) 
64

>  <i_i_glide_posenum>  (1) 
215

>  <i_i_glide_rotatable_bonds>  (1) 
1

>  <i_lp_mmshare_version>  (1) 
72125

>  <i_m_source_file_index>  (1) 
61

>  <i_f3d_flags>  (1) 
0

>  <num_sample>  (1) 
100

>  <b_lp_Chiralities_Consistent>  (1) 
1

>  <r_epik_Charging_Adjusted_Penalty>  (1) 
0.00021018459712964226

>  <r_epik_Ionization_Penalty>  (1) 
0.00021021235475979092

>  <r_epik_Ionization_Penalty_Charging>  (1) 
0.00021018459712964226

>  <r_epik_Ionization_Penalty_Neutral>  (1) 
2.7757630148672405e-08

>  <r_epik_State_Penalty>  (1) 
-0

>  <r_glide_ring_energy>  (1) 
0

>  <r_i_docking_score>  (1) 
-4.7829456655601978

>  <r_i_glide_ecoul>  (1) 
-0.75628330816561595

>  <r_i_glide_eff_state_penalty>  (1) 
-0

>  <r_i_glide_einternal>  (1) 
0.00019444539607471611

>  <r_i_glide_emodel>  (1) 
-21.918393899787961

>  <r_i_glide_emodel_strain>  (1) 
0

>  <r_i_glide_energy>  (1) 
-16.696865175070865

>  <r_i_glide_erotb>  (1) 
0

>  <r_i_glide_esite>  (1) 
0

>  <r_i_glide_evdw>  (1) 
-15.94058186690525

>  <r_i_glide_gscore>  (1) 
-4.7829456655601978

>  <r_i_glide_gscore_strain>  (1) 
0

>  <r_i_glide_hbond>  (1) 
0

>  <r_i_glide_ligand_efficiency>  (1) 
-0.59786820819502473

>  <r_i_glide_ligand_efficiency_ln>  (1) 
-1.553186056894946

>  <r_i_glide_ligand_efficiency_sa>  (1) 
-1.1957364163900497

>  <r_i_glide_lipo>  (1) 
-1.2898228080507554

>  <r_i_glide_metal>  (1) 
-0

>  <r_i_glide_rewards>  (1) 
-2.5826512679393372

>  <r_lp_Energy>  (1) 
7.8081959999999997

>  <r_lp_tautomer_probability>  (1) 
1

>  <s_epik_cmdline>  (1) 
J2VwaWtfcHl0aG9uJywgJy1waHQnLCAnMS4wJywgJy1waCcsICc3LjQnLCAnLXRuJywgJzgnLCAnLW1hJywgJzUwMCcsICctaW1hZScsICc8aW5maWxlLm1hZT4nLCAnLW9tYWUnLCAnPG91dGZpbGUubWFlPic=

>  <s_epik_input>  (1) 
W25IXTFbY0hdW2NIXVtjSF1jMUMoPU8pW09IXQ==

>  <s_glide_docking_method>  (1) 
confgen

>  <s_i_glide_gridfile>  (1) 
gpcr_5ht2c_6bqh_protein_autoprepared_prepared

>  <s_lp_Force_Field>  (1) 
S-OPLS

>  <s_lp_Variant>  (1) 
Pocket2Mol_60-1

>  <s_m_source_file>  (1) 
generated_GPCR_5HT2C_ligand_Pocket2Mol_2026-06-23_prepared.sdf

>  <GenAI_Model>  (1) 
Pocket2Mol

>  <Protein>  (1) 
GPCR_5HT2C

$$$$
Pocket2Mol_28
     RDKit          3D

  0  0  0  0  0  0  0  0  0  0999 V3000
M  V30 BEGIN CTAB
M  V30 COUNTS 13 13 0 0 1
M  V30 BEGIN ATOM
M  V30 1 C 39.375902 28.125418 50.810021 0
M  V30 2 O 38.757437 27.532476 51.941752 0
M  V30 3 C 38.344770 28.269687 53.003976 0
M  V30 4 O 37.437491 27.944992 53.766407 0
M  V30 5 C 39.147804 29.575478 53.208527 0
M  V30 6 C 40.367123 29.213536 51.211937 0
M  V30 7 O 39.645140 30.137813 51.996587 0
M  V30 8 H 38.599155 28.537814 50.167760 0
M  V30 9 H 39.879585 27.348636 50.234861 0
M  V30 10 H 39.976969 29.379907 53.887614 0
M  V30 11 H 38.509909 30.312134 53.697533 0
M  V30 12 H 40.766725 29.716407 50.331172 0
M  V30 13 H 41.209071 28.801550 51.767155 0
M  V30 END ATOM
M  V30 BEGIN BOND
M  V30 1 1 2 1
M  V30 2 1 3 2
M  V30 3 2 4 3
M  V30 4 1 5 3
M  V30 5 1 6 1
M  V30 6 1 7 5
M  V30 7 1 7 6
M  V30 8 1 8 1
M  V30 9 1 9 1
M  V30 10 1 10 5
M  V30 11 1 11 5
M  V30 12 1 12 6
M  V30 13 1 13 6
M  V30 END BOND
M  V30 END CTAB
M  END
>  <i_epik_Tot_Q>  (1) 
0

>  <i_epik_Tot_abs_Q>  (1) 
0

>  <i_i_glide_confnum>  (1) 
2

>  <i_i_glide_lignum>  (1) 
31

>  <i_i_glide_posenum>  (1) 
378

>  <i_i_glide_rotatable_bonds>  (1) 
0

>  <i_lp_mmshare_version>  (1) 
72125

>  <i_m_source_file_index>  (1) 
29

>  <i_f3d_flags>  (1) 
0

>  <num_sample>  (1) 
100

>  <b_lp_Chiralities_Consistent>  (1) 
1

>  <r_epik_Charging_Adjusted_Penalty>  (1) 
0

>  <r_epik_Ionization_Penalty>  (1) 
1.0677269036415479e-12

>  <r_epik_Ionization_Penalty_Charging>  (1) 
0

>  <r_epik_Ionization_Penalty_Neutral>  (1) 
1.0677269036415479e-12

>  <r_epik_State_Penalty>  (1) 
-0

>  <r_glide_ring_energy>  (1) 
4.2281688740393558e-05

>  <r_i_docking_score>  (1) 
-4.7790156094881482

>  <r_i_glide_ecoul>  (1) 
0.090159851909149602

>  <r_i_glide_eff_state_penalty>  (1) 
-0

>  <r_i_glide_einternal>  (1) 
0

>  <r_i_glide_emodel>  (1) 
-21.114137454590431

>  <r_i_glide_emodel_strain>  (1) 
0

>  <r_i_glide_energy>  (1) 
-16.17397818850587

>  <r_i_glide_erotb>  (1) 
0

>  <r_i_glide_esite>  (1) 
0

>  <r_i_glide_evdw>  (1) 
-16.26413804041502

>  <r_i_glide_gscore>  (1) 
-4.7790156094881482

>  <r_i_glide_gscore_strain>  (1) 
0

>  <r_i_glide_hbond>  (1) 
0

>  <r_i_glide_ligand_efficiency>  (1) 
-0.68271651564116398

>  <r_i_glide_ligand_efficiency_ln>  (1) 
-1.6222543688308586

>  <r_i_glide_ligand_efficiency_sa>  (1) 
-1.3059897117636963

>  <r_i_glide_lipo>  (1) 
-0.87933268525376906

>  <r_i_glide_metal>  (1) 
-0

>  <r_i_glide_rewards>  (1) 
-3.1000000000000001

>  <r_lp_Energy>  (1) 
12.58291

>  <r_lp_tautomer_probability>  (1) 
1

>  <s_epik_Chemistry_Notes>  (1) 
This compound has an ester and may undergo hydrolysis at high or low pH.

>  <s_epik_cmdline>  (1) 
J2VwaWtfcHl0aG9uJywgJy1waHQnLCAnMS4wJywgJy1waCcsICc3LjQnLCAnLXRuJywgJzgnLCAnLW1hJywgJzUwMCcsICctaW1hZScsICc8aW5maWxlLm1hZT4nLCAnLW9tYWUnLCAnPG91dGZpbGUubWFlPic=

>  <s_epik_input>  (1) 
W0NIMl0xT1tDSDJdW0NIMl1PQzE9Tw==

>  <s_glide_docking_method>  (1) 
confgen

>  <s_i_glide_gridfile>  (1) 
gpcr_5ht2c_6bqh_protein_autoprepared_prepared

>  <s_lp_Force_Field>  (1) 
S-OPLS

>  <s_lp_Variant>  (1) 
Pocket2Mol_28-1

>  <s_m_source_file>  (1) 
generated_GPCR_5HT2C_ligand_Pocket2Mol_2026-06-23_prepared.sdf

>  <GenAI_Model>  (1) 
Pocket2Mol

>  <Protein>  (1) 
GPCR_5HT2C

$$$$
Pocket2Mol_19
     RDKit          3D

  0  0  0  0  0  0  0  0  0  0999 V3000
M  V30 BEGIN CTAB
M  V30 COUNTS 10 10 0 0 1
M  V30 BEGIN ATOM
M  V30 1 C 40.209761 30.466479 51.171640 0
M  V30 2 O 39.645138 29.776697 52.379703 0
M  V30 3 C 39.245137 28.469796 52.049840 0
M  V30 4 C 40.045136 29.337755 50.202106 0
M  V30 5 C 39.522816 28.265525 50.691092 0
M  V30 6 O 38.744699 27.653975 52.820060 0
M  V30 7 H 41.253759 30.738448 51.310189 0
M  V30 8 H 40.349906 29.443149 49.171450 0
M  V30 9 H 39.317251 27.344023 50.167760 0
M  V30 10 H 39.631739 31.343329 50.882806 0
M  V30 END ATOM
M  V30 BEGIN BOND
M  V30 1 1 2 1
M  V30 2 1 3 2
M  V30 3 1 4 1
M  V30 4 1 5 3
M  V30 5 2 5 4
M  V30 6 2 6 3
M  V30 7 1 7 1
M  V30 8 1 8 4
M  V30 9 1 9 5
M  V30 10 1 10 1
M  V30 END BOND
M  V30 END CTAB
M  END
>  <i_epik_Tot_Q>  (1) 
0

>  <i_epik_Tot_abs_Q>  (1) 
0

>  <i_i_glide_confnum>  (1) 
1

>  <i_i_glide_lignum>  (1) 
22

>  <i_i_glide_posenum>  (1) 
349

>  <i_i_glide_rotatable_bonds>  (1) 
0

>  <i_lp_mmshare_version>  (1) 
72125

>  <i_m_source_file_index>  (1) 
20

>  <i_f3d_flags>  (1) 
0

>  <num_sample>  (1) 
100

>  <b_lp_Chiralities_Consistent>  (1) 
1

>  <r_epik_Charging_Adjusted_Penalty>  (1) 
0

>  <r_epik_Ionization_Penalty>  (1) 
0

>  <r_epik_Ionization_Penalty_Charging>  (1) 
0

>  <r_epik_Ionization_Penalty_Neutral>  (1) 
0

>  <r_epik_State_Penalty>  (1) 
-0

>  <r_glide_ring_energy>  (1) 
0

>  <r_i_docking_score>  (1) 
-4.7759251517858896

>  <r_i_glide_ecoul>  (1) 
-0.3454443366872173

>  <r_i_glide_eff_state_penalty>  (1) 
-0

>  <r_i_glide_einternal>  (1) 
0

>  <r_i_glide_emodel>  (1) 
-20.829526790484184

>  <r_i_glide_emodel_strain>  (1) 
0

>  <r_i_glide_energy>  (1) 
-16.014751765969706

>  <r_i_glide_erotb>  (1) 
0

>  <r_i_glide_esite>  (1) 
0

>  <r_i_glide_evdw>  (1) 
-15.669307429282489

>  <r_i_glide_gscore>  (1) 
-4.7759251517858896

>  <r_i_glide_gscore_strain>  (1) 
0

>  <r_i_glide_hbond>  (1) 
0

>  <r_i_glide_ligand_efficiency>  (1) 
-0.79598752529764827

>  <r_i_glide_ligand_efficiency_ln>  (1) 
-1.7107222898061749

>  <r_i_glide_ligand_efficiency_sa>  (1) 
-1.4464053238558505

>  <r_i_glide_lipo>  (1) 
-0.94064312981868292

>  <r_i_glide_metal>  (1) 
-0

>  <r_i_glide_rewards>  (1) 
-3

>  <r_lp_Energy>  (1) 
-7.0611199999999998

>  <r_lp_tautomer_probability>  (1) 
1

>  <s_epik_Chemistry_Notes>  (1) 
This compound has an ester and may undergo hydrolysis at high or low pH.

>  <s_epik_cmdline>  (1) 
J2VwaWtfcHl0aG9uJywgJy1waHQnLCAnMS4wJywgJy1waCcsICc3LjQnLCAnLXRuJywgJzgnLCAnLW1hJywgJzUwMCcsICctaW1hZScsICc8aW5maWxlLm1hZT4nLCAnLW9tYWUnLCAnPG91dGZpbGUubWFlPic=

>  <s_epik_input>  (1) 
W0NIMl0xW0NIXT1bQ0hdT0MxPU8=

>  <s_glide_docking_method>  (1) 
confgen

>  <s_i_glide_gridfile>  (1) 
gpcr_5ht2c_6bqh_protein_autoprepared_prepared

>  <s_lp_Force_Field>  (1) 
S-OPLS

>  <s_lp_Variant>  (1) 
Pocket2Mol_19-1

>  <s_m_source_file>  (1) 
generated_GPCR_5HT2C_ligand_Pocket2Mol_2026-06-23_prepared.sdf

>  <GenAI_Model>  (1) 
Pocket2Mol

>  <Protein>  (1) 
GPCR_5HT2C

$$$$
Pocket2Mol_7
     RDKit          3D

  0  0  0  0  0  0  0  0  0  0999 V3000
M  V30 BEGIN CTAB
M  V30 COUNTS 13 13 0 0 1
M  V30 BEGIN ATOM
M  V30 1 C 40.090373 29.757552 51.381098 0
M  V30 2 C 39.258563 28.545391 51.222749 0
M  V30 3 C 39.645139 30.101076 52.882483 0
M  V30 4 C 38.582390 29.039214 53.442779 0
M  V30 5 C 38.520269 28.194296 52.231653 0
M  V30 6 H 41.151134 29.523020 51.293683 0
M  V30 7 H 39.807875 30.530193 50.665618 0
M  V30 8 H 39.281996 27.994926 50.293420 0
M  V30 9 H 39.231677 31.108391 52.926939 0
M  V30 10 H 40.508540 30.137748 53.543638 0
M  V30 11 H 37.611923 29.482485 53.668208 0
M  V30 12 H 38.951315 28.474883 54.300025 0
M  V30 13 H 37.876870 27.325905 52.212056 0
M  V30 END ATOM
M  V30 BEGIN BOND
M  V30 1 1 2 1
M  V30 2 1 3 1
M  V30 3 1 4 3
M  V30 4 2 5 2
M  V30 5 1 5 4
M  V30 6 1 6 1
M  V30 7 1 7 1
M  V30 8 1 8 2
M  V30 9 1 9 3
M  V30 10 1 10 3
M  V30 11 1 11 4
M  V30 12 1 12 4
M  V30 13 1 13 5
M  V30 END BOND
M  V30 END CTAB
M  END
>  <i_epik_Tot_Q>  (1) 
0

>  <i_epik_Tot_abs_Q>  (1) 
0

>  <i_i_glide_confnum>  (1) 
1

>  <i_i_glide_lignum>  (1) 
10

>  <i_i_glide_posenum>  (1) 
149

>  <i_i_glide_rotatable_bonds>  (1) 
0

>  <i_lp_mmshare_version>  (1) 
72125

>  <i_m_source_file_index>  (1) 
8

>  <i_f3d_flags>  (1) 
0

>  <num_sample>  (1) 
100

>  <b_lp_Chiralities_Consistent>  (1) 
1

>  <r_epik_Charging_Adjusted_Penalty>  (1) 
0

>  <r_epik_Ionization_Penalty>  (1) 
0

>  <r_epik_Ionization_Penalty_Charging>  (1) 
0

>  <r_epik_Ionization_Penalty_Neutral>  (1) 
0

>  <r_epik_State_Penalty>  (1) 
-0

>  <r_glide_ring_energy>  (1) 
0

>  <r_i_docking_score>  (1) 
-4.7676914961608396

>  <r_i_glide_ecoul>  (1) 
-0.5915486293298764

>  <r_i_glide_eff_state_penalty>  (1) 
-0

>  <r_i_glide_einternal>  (1) 
0

>  <r_i_glide_emodel>  (1) 
-17.658887817062094

>  <r_i_glide_emodel_strain>  (1) 
0

>  <r_i_glide_energy>  (1) 
-13.672774860121677

>  <r_i_glide_erotb>  (1) 
0

>  <r_i_glide_esite>  (1) 
0

>  <r_i_glide_evdw>  (1) 
-13.081226230791801

>  <r_i_glide_gscore>  (1) 
-4.7676914961608396

>  <r_i_glide_gscore_strain>  (1) 
0

>  <r_i_glide_hbond>  (1) 
0

>  <r_i_glide_ligand_efficiency>  (1) 
-0.95353829923216793

>  <r_i_glide_ligand_efficiency_ln>  (1) 
-1.8270952044662776

>  <r_i_glide_ligand_efficiency_sa>  (1) 
-1.630527555922014

>  <r_i_glide_lipo>  (1) 
-1.6126893386930923

>  <r_i_glide_metal>  (1) 
-0

>  <r_i_glide_rewards>  (1) 
-2.4122085515286753

>  <r_lp_Energy>  (1) 
-2.1713199999999997

>  <r_lp_tautomer_probability>  (1) 
1

>  <s_epik_cmdline>  (1) 
J2VwaWtfcHl0aG9uJywgJy1waHQnLCAnMS4wJywgJy1waCcsICc3LjQnLCAnLXRuJywgJzgnLCAnLW1hJywgJzUwMCcsICctaW1hZScsICc8aW5maWxlLm1hZT4nLCAnLW9tYWUnLCAnPG91dGZpbGUubWFlPic=

>  <s_epik_input>  (1) 
W0NIMl0xW0NIXT1bQ0hdW0NIMl1bQ0gyXTE=

>  <s_glide_docking_method>  (1) 
confgen

>  <s_i_glide_gridfile>  (1) 
gpcr_5ht2c_6bqh_protein_autoprepared_prepared

>  <s_lp_Force_Field>  (1) 
S-OPLS

>  <s_lp_Variant>  (1) 
Pocket2Mol_7-1

>  <s_m_source_file>  (1) 
generated_GPCR_5HT2C_ligand_Pocket2Mol_2026-06-23_prepared.sdf

>  <GenAI_Model>  (1) 
Pocket2Mol

>  <Protein>  (1) 
GPCR_5HT2C

$$$$
Pocket2Mol_23
     RDKit          3D

  0  0  0  0  0  0  0  0  0  0999 V3000
M  V30 BEGIN CTAB
M  V30 COUNTS 14 14 0 0 1
M  V30 BEGIN ATOM
M  V30 1 C 38.836869 27.355330 53.950290 0
M  V30 2 C 37.442385 27.774191 53.514937 0
M  V30 3 O 39.475699 27.112725 52.713590 0
M  V30 4 C 38.794390 27.868775 51.767075 0
M  V30 5 O 37.740452 28.537755 52.372530 0
M  V30 6 C 39.749188 28.904558 51.173189 0
M  V30 7 H 38.840832 26.477163 54.596180 0
M  V30 8 H 39.341539 28.173438 54.466572 0
M  V30 9 H 36.845147 26.904224 53.242543 0
M  V30 10 H 36.905593 28.352295 54.266396 0
M  V30 11 H 38.403989 27.192974 51.003612 0
M  V30 12 H 40.078513 29.598711 51.946192 0
M  V30 13 H 39.244172 29.461780 50.384634 0
M  V30 14 H 40.618477 28.403641 50.753045 0
M  V30 END ATOM
M  V30 BEGIN BOND
M  V30 1 1 2 1
M  V30 2 1 3 1
M  V30 3 1 4 3
M  V30 4 1 5 2
M  V30 5 1 5 4
M  V30 6 1 6 4
M  V30 7 1 7 1
M  V30 8 1 8 1
M  V30 9 1 9 2
M  V30 10 1 10 2
M  V30 11 1 11 4
M  V30 12 1 12 6
M  V30 13 1 13 6
M  V30 14 1 14 6
M  V30 END BOND
M  V30 END CTAB
M  END
>  <i_epik_Tot_Q>  (1) 
0

>  <i_epik_Tot_abs_Q>  (1) 
0

>  <i_i_glide_confnum>  (1) 
3

>  <i_i_glide_lignum>  (1) 
26

>  <i_i_glide_posenum>  (1) 
227

>  <i_i_glide_rotatable_bonds>  (1) 
0

>  <i_lp_mmshare_version>  (1) 
72125

>  <i_m_source_file_index>  (1) 
24

>  <i_f3d_flags>  (1) 
0

>  <num_sample>  (1) 
100

>  <b_lp_Chiralities_Consistent>  (1) 
1

>  <r_epik_Charging_Adjusted_Penalty>  (1) 
0

>  <r_epik_Ionization_Penalty>  (1) 
7.9724310449397378e-14

>  <r_epik_Ionization_Penalty_Charging>  (1) 
0

>  <r_epik_Ionization_Penalty_Neutral>  (1) 
7.9724310449397378e-14

>  <r_epik_State_Penalty>  (1) 
-0

>  <r_glide_ring_energy>  (1) 
1.2362365743684729

>  <r_i_docking_score>  (1) 
-4.7599889368071491

>  <r_i_glide_ecoul>  (1) 
-1.2203576068235547

>  <r_i_glide_eff_state_penalty>  (1) 
-0

>  <r_i_glide_einternal>  (1) 
0

>  <r_i_glide_emodel>  (1) 
-20.530009283279139

>  <r_i_glide_emodel_strain>  (1) 
0

>  <r_i_glide_energy>  (1) 
-16.137395805617583

>  <r_i_glide_erotb>  (1) 
0

>  <r_i_glide_esite>  (1) 
0

>  <r_i_glide_evdw>  (1) 
-14.917038198794028

>  <r_i_glide_gscore>  (1) 
-4.7599889368071491

>  <r_i_glide_gscore_strain>  (1) 
0

>  <r_i_glide_hbond>  (1) 
0

>  <r_i_glide_ligand_efficiency>  (1) 
-0.79333148946785814

>  <r_i_glide_ligand_efficiency_ln>  (1) 
-1.7050139846479417

>  <r_i_glide_ligand_efficiency_sa>  (1) 
-1.441578986454239

>  <r_i_glide_lipo>  (1) 
-0.88615612990705284

>  <r_i_glide_metal>  (1) 
-0

>  <r_i_glide_rewards>  (1) 
-2.9449272559368613

>  <r_lp_Energy>  (1) 
-12.129052

>  <r_lp_tautomer_probability>  (1) 
1

>  <s_epik_Chemistry_Notes>  (1) 
This compound contains an acetal/aminal-like group ( X-CH(R)-Y where X, Y are N, S, or O) that may be acid/base labile, releasing an aldehyde.

>  <s_epik_cmdline>  (1) 
J2VwaWtfcHl0aG9uJywgJy1waHQnLCAnMS4wJywgJy1waCcsICc3LjQnLCAnLXRuJywgJzgnLCAnLW1hJywgJzUwMCcsICctaW1hZScsICc8aW5maWxlLm1hZT4nLCAnLW9tYWUnLCAnPG91dGZpbGUubWFlPic=

>  <s_epik_input>  (1) 
TzFbQ0gyXVtDSDJdT1tDSF0xW0NIM10=

>  <s_glide_docking_method>  (1) 
confgen

>  <s_i_glide_gridfile>  (1) 
gpcr_5ht2c_6bqh_protein_autoprepared_prepared

>  <s_lp_Force_Field>  (1) 
S-OPLS

>  <s_lp_Variant>  (1) 
Pocket2Mol_23-1

>  <s_m_source_file>  (1) 
generated_GPCR_5HT2C_ligand_Pocket2Mol_2026-06-23_prepared.sdf

>  <GenAI_Model>  (1) 
Pocket2Mol

>  <Protein>  (1) 
GPCR_5HT2C

$$$$
Pocket2Mol_26
     RDKit          3D

  0  0  0  0  0  0  0  0  0  0999 V3000
M  V30 BEGIN CTAB
M  V30 COUNTS 16 16 0 0 1
M  V30 BEGIN ATOM
M  V30 1 C 38.681316 29.027815 52.830976 0
M  V30 2 C 39.699225 30.059801 52.566126 0
M  V30 3 C 38.532499 28.125409 51.922464 0
M  V30 4 C 39.402655 28.238713 50.740431 0
M  V30 5 N 40.216387 29.443177 51.247094 0 CHG=1
M  V30 6 C 40.494800 30.435232 50.185883 0
M  V30 7 H 38.100224 29.055309 53.742647 0
M  V30 8 H 39.245143 31.042635 52.440758 0
M  V30 9 H 40.448115 30.113445 53.354703 0
M  V30 10 H 37.814888 27.321828 51.997049 0
M  V30 11 H 40.012501 27.349717 50.588361 0
M  V30 12 H 38.844617 28.465637 49.833927 0
M  V30 13 H 39.582911 30.943778 49.865186 0
M  V30 14 H 41.209034 31.181023 50.531592 0
M  V30 15 H 40.926587 29.938500 49.315751 0
M  V30 16 H 41.112655 29.042307 51.485856 0
M  V30 END ATOM
M  V30 BEGIN BOND
M  V30 1 1 2 1
M  V30 2 2 3 1
M  V30 3 1 4 3
M  V30 4 1 5 2
M  V30 5 1 5 4
M  V30 6 1 6 5
M  V30 7 1 7 1
M  V30 8 1 8 2
M  V30 9 1 9 2
M  V30 10 1 10 3
M  V30 11 1 11 4
M  V30 12 1 12 4
M  V30 13 1 13 6
M  V30 14 1 14 6
M  V30 15 1 15 6
M  V30 16 1 16 5
M  V30 END BOND
M  V30 END CTAB
M  END
>  <i_epik_Tot_Q>  (1) 
1

>  <i_epik_Tot_abs_Q>  (1) 
1

>  <i_i_glide_confnum>  (1) 
1

>  <i_i_glide_lignum>  (1) 
29

>  <i_i_glide_posenum>  (1) 
26

>  <i_i_glide_rotatable_bonds>  (1) 
0

>  <i_lp_mmshare_version>  (1) 
72125

>  <i_m_source_file_index>  (1) 
27

>  <i_f3d_flags>  (1) 
0

>  <num_sample>  (1) 
100

>  <b_lp_Chiralities_Consistent>  (1) 
1

>  <r_epik_Charging_Adjusted_Penalty>  (1) 
0.0014863909170882658

>  <r_epik_Ionization_Penalty>  (1) 
0.0014863909170882658

>  <r_epik_Ionization_Penalty_Charging>  (1) 
0.0014863909170882658

>  <r_epik_Ionization_Penalty_Neutral>  (1) 
0

>  <r_epik_State_Penalty>  (1) 
-0

>  <r_glide_ring_energy>  (1) 
0

>  <r_i_docking_score>  (1) 
-4.7552747120319578

>  <r_i_glide_ecoul>  (1) 
-1.4246147710596753

>  <r_i_glide_eff_state_penalty>  (1) 
-0

>  <r_i_glide_einternal>  (1) 
0

>  <r_i_glide_emodel>  (1) 
-21.485358854775576

>  <r_i_glide_emodel_strain>  (1) 
0

>  <r_i_glide_energy>  (1) 
-14.256264698519796

>  <r_i_glide_erotb>  (1) 
0

>  <r_i_glide_esite>  (1) 
0

>  <r_i_glide_evdw>  (1) 
-12.831649927460122

>  <r_i_glide_gscore>  (1) 
-4.7552747120319578

>  <r_i_glide_gscore_strain>  (1) 
0

>  <r_i_glide_hbond>  (1) 
0

>  <r_i_glide_ligand_efficiency>  (1) 
-0.7925457853386596

>  <r_i_glide_ligand_efficiency_ln>  (1) 
-1.7033253632508789

>  <r_i_glide_ligand_efficiency_sa>  (1) 
-1.4401512673011991

>  <r_i_glide_lipo>  (1) 
-1.6500000000000001

>  <r_i_glide_metal>  (1) 
-0

>  <r_i_glide_rewards>  (1) 
-2.25

>  <r_lp_Energy>  (1) 
6.8415840000000001

>  <r_lp_tautomer_probability>  (1) 
1

>  <s_epik_cmdline>  (1) 
J2VwaWtfcHl0aG9uJywgJy1waHQnLCAnMS4wJywgJy1waCcsICc3LjQnLCAnLXRuJywgJzgnLCAnLW1hJywgJzUwMCcsICctaW1hZScsICc8aW5maWxlLm1hZT4nLCAnLW9tYWUnLCAnPG91dGZpbGUubWFlPic=

>  <s_epik_input>  (1) 
W0NIMl0xW0NIXT1bQ0hdW0NIMl1OMVtDSDNd

>  <s_glide_docking_method>  (1) 
confgen

>  <s_i_glide_gridfile>  (1) 
gpcr_5ht2c_6bqh_protein_autoprepared_prepared

>  <s_lp_Force_Field>  (1) 
S-OPLS

>  <s_lp_Variant>  (1) 
Pocket2Mol_26-1

>  <s_m_source_file>  (1) 
generated_GPCR_5HT2C_ligand_Pocket2Mol_2026-06-23_prepared.sdf

>  <GenAI_Model>  (1) 
Pocket2Mol

>  <Protein>  (1) 
GPCR_5HT2C

$$$$
Pocket2Mol_32
     RDKit          3D

  0  0  0  0  0  0  0  0  0  0999 V3000
M  V30 BEGIN CTAB
M  V30 COUNTS 15 15 0 0 1
M  V30 BEGIN ATOM
M  V30 1 C 40.134828 30.640637 49.894244 0
M  V30 2 C 40.204906 30.937750 51.387420 0
M  V30 3 O 39.645142 29.785198 51.960000 0
M  V30 4 O 40.045061 29.230388 49.826871 0
M  V30 5 C 40.078340 28.771666 51.133828 0
M  V30 6 C 39.112644 27.595344 51.283028 0
M  V30 7 O 39.299742 26.937757 52.517368 0
M  V30 8 H 41.014451 31.010857 49.367790 0
M  V30 9 H 39.245138 31.084548 49.447531 0
M  V30 10 H 41.238885 31.059142 51.704147 0
M  V30 11 H 39.645131 31.819109 51.677970 0
M  V30 12 H 41.110097 28.511413 51.375969 0
M  V30 13 H 39.302081 26.886813 50.477838 0
M  V30 14 H 38.085156 27.946419 51.181641 0
M  V30 15 H 39.090690 27.551575 53.206083 0
M  V30 END ATOM
M  V30 BEGIN BOND
M  V30 1 1 2 1
M  V30 2 1 3 2
M  V30 3 1 4 1
M  V30 4 1 5 3
M  V30 5 1 5 4
M  V30 6 1 6 5
M  V30 7 1 7 6
M  V30 8 1 8 1
M  V30 9 1 9 1
M  V30 10 1 10 2
M  V30 11 1 11 2
M  V30 12 1 12 5
M  V30 13 1 13 6
M  V30 14 1 14 6
M  V30 15 1 15 7
M  V30 END BOND
M  V30 END CTAB
M  END
>  <i_epik_Tot_Q>  (1) 
0

>  <i_epik_Tot_abs_Q>  (1) 
0

>  <i_i_glide_confnum>  (1) 
1

>  <i_i_glide_lignum>  (1) 
35

>  <i_i_glide_posenum>  (1) 
297

>  <i_i_glide_rotatable_bonds>  (1) 
2

>  <i_lp_mmshare_version>  (1) 
72125

>  <i_m_source_file_index>  (1) 
33

>  <i_f3d_flags>  (1) 
0

>  <num_sample>  (1) 
100

>  <b_lp_Chiralities_Consistent>  (1) 
1

>  <r_epik_Charging_Adjusted_Penalty>  (1) 
0

>  <r_epik_Ionization_Penalty>  (1) 
3.4422651255072934e-07

>  <r_epik_Ionization_Penalty_Charging>  (1) 
0

>  <r_epik_Ionization_Penalty_Neutral>  (1) 
3.4422651255072934e-07

>  <r_epik_State_Penalty>  (1) 
-0

>  <r_glide_ring_energy>  (1) 
0

>  <r_i_docking_score>  (1) 
-4.754241999462252

>  <r_i_glide_ecoul>  (1) 
-0.99019303840153428

>  <r_i_glide_eff_state_penalty>  (1) 
-0

>  <r_i_glide_einternal>  (1) 
0.66113198273708962

>  <r_i_glide_emodel>  (1) 
-20.839421225254256

>  <r_i_glide_emodel_strain>  (1) 
0.068866665245826297

>  <r_i_glide_energy>  (1) 
-15.998998934901287

>  <r_i_glide_erotb>  (1) 
0

>  <r_i_glide_esite>  (1) 
0

>  <r_i_glide_evdw>  (1) 
-15.008805896499753

>  <r_i_glide_gscore>  (1) 
-4.754241999462252

>  <r_i_glide_gscore_strain>  (1) 
0

>  <r_i_glide_hbond>  (1) 
0

>  <r_i_glide_ligand_efficiency>  (1) 
-0.67917742849460738

>  <r_i_glide_ligand_efficiency_ln>  (1) 
-1.6138448760858608

>  <r_i_glide_ligand_efficiency_sa>  (1) 
-1.2992196816024992

>  <r_i_glide_lipo>  (1) 
-0.75527274887703377

>  <r_i_glide_metal>  (1) 
-0

>  <r_i_glide_rewards>  (1) 
-3.1000000000000001

>  <r_lp_Energy>  (1) 
-10.260740999999999

>  <r_lp_tautomer_probability>  (1) 
1

>  <s_epik_Chemistry_Notes>  (1) 
This compound contains an acetal/aminal-like group ( X-CH(R)-Y where X, Y are N, S, or O) that may be acid/base labile, releasing an aldehyde.

>  <s_epik_cmdline>  (1) 
J2VwaWtfcHl0aG9uJywgJy1waHQnLCAnMS4wJywgJy1waCcsICc3LjQnLCAnLXRuJywgJzgnLCAnLW1hJywgJzUwMCcsICctaW1hZScsICc8aW5maWxlLm1hZT4nLCAnLW9tYWUnLCAnPG91dGZpbGUubWFlPic=

>  <s_epik_input>  (1) 
TzFbQ0gyXVtDSDJdT1tDSF0xW0NIMl1bT0hd

>  <s_glide_docking_method>  (1) 
confgen

>  <s_i_glide_gridfile>  (1) 
gpcr_5ht2c_6bqh_protein_autoprepared_prepared

>  <s_lp_Force_Field>  (1) 
S-OPLS

>  <s_lp_Variant>  (1) 
Pocket2Mol_32-1

>  <s_m_source_file>  (1) 
generated_GPCR_5HT2C_ligand_Pocket2Mol_2026-06-23_prepared.sdf

>  <GenAI_Model>  (1) 
Pocket2Mol

>  <Protein>  (1) 
GPCR_5HT2C

$$$$
Pocket2Mol_23
     RDKit          3D

  0  0  0  0  0  0  0  0  0  0999 V3000
M  V30 BEGIN CTAB
M  V30 COUNTS 14 14 0 0 1
M  V30 BEGIN ATOM
M  V30 1 C 39.826367 29.409871 51.416307 0
M  V30 2 C 39.557550 28.139830 50.615980 0
M  V30 3 O 38.928209 29.333943 52.509771 0
M  V30 4 C 38.243726 28.137185 52.370177 0
M  V30 5 O 39.002296 27.289766 51.588205 0
M  V30 6 C 38.049449 27.501991 53.747020 0
M  V30 7 H 39.674912 30.314200 50.825929 0
M  V30 8 H 40.845138 29.414337 51.797855 0
M  V30 9 H 38.845137 28.329622 49.816624 0
M  V30 10 H 40.445137 27.705264 50.167763 0
M  V30 11 H 37.289259 28.323591 51.872933 0
M  V30 12 H 39.017826 27.319931 54.213450 0
M  V30 13 H 37.519676 26.554273 53.643163 0
M  V30 14 H 37.466161 28.167662 54.383585 0
M  V30 END ATOM
M  V30 BEGIN BOND
M  V30 1 1 2 1
M  V30 2 1 3 1
M  V30 3 1 4 3
M  V30 4 1 5 2
M  V30 5 1 5 4
M  V30 6 1 6 4
M  V30 7 1 7 1
M  V30 8 1 8 1
M  V30 9 1 9 2
M  V30 10 1 10 2
M  V30 11 1 11 4
M  V30 12 1 12 6
M  V30 13 1 13 6
M  V30 14 1 14 6
M  V30 END BOND
M  V30 END CTAB
M  END
>  <i_epik_Tot_Q>  (1) 
0

>  <i_epik_Tot_abs_Q>  (1) 
0

>  <i_i_glide_confnum>  (1) 
1

>  <i_i_glide_lignum>  (1) 
26

>  <i_i_glide_posenum>  (1) 
399

>  <i_i_glide_rotatable_bonds>  (1) 
0

>  <i_lp_mmshare_version>  (1) 
72125

>  <i_m_source_file_index>  (1) 
24

>  <i_f3d_flags>  (1) 
0

>  <num_sample>  (1) 
100

>  <b_lp_Chiralities_Consistent>  (1) 
1

>  <r_epik_Charging_Adjusted_Penalty>  (1) 
0

>  <r_epik_Ionization_Penalty>  (1) 
7.9724310449397378e-14

>  <r_epik_Ionization_Penalty_Charging>  (1) 
0

>  <r_epik_Ionization_Penalty_Neutral>  (1) 
7.9724310449397378e-14

>  <r_epik_State_Penalty>  (1) 
-0

>  <r_glide_ring_energy>  (1) 
0

>  <r_i_docking_score>  (1) 
-4.737289346421985

>  <r_i_glide_ecoul>  (1) 
-0.27144278653537512

>  <r_i_glide_eff_state_penalty>  (1) 
-0

>  <r_i_glide_einternal>  (1) 
0

>  <r_i_glide_emodel>  (1) 
-19.95116818092162

>  <r_i_glide_emodel_strain>  (1) 
0.027997143210272135

>  <r_i_glide_energy>  (1) 
-15.607499484791981

>  <r_i_glide_erotb>  (1) 
0

>  <r_i_glide_esite>  (1) 
0

>  <r_i_glide_evdw>  (1) 
-15.336056698256606

>  <r_i_glide_gscore>  (1) 
-4.737289346421985

>  <r_i_glide_gscore_strain>  (1) 
0

>  <r_i_glide_hbond>  (1) 
0

>  <r_i_glide_ligand_efficiency>  (1) 
-0.78954822440366412

>  <r_i_glide_ligand_efficiency_ln>  (1) 
-1.6968830583860741

>  <r_i_glide_ligand_efficiency_sa>  (1) 
-1.4347043375979496

>  <r_i_glide_lipo>  (1) 
-0.98999999999999999

>  <r_i_glide_metal>  (1) 
-0

>  <r_i_glide_rewards>  (1) 
-2.939770093528848

>  <r_lp_Energy>  (1) 
-12.129052

>  <r_lp_tautomer_probability>  (1) 
1

>  <s_epik_Chemistry_Notes>  (1) 
This compound contains an acetal/aminal-like group ( X-CH(R)-Y where X, Y are N, S, or O) that may be acid/base labile, releasing an aldehyde.

>  <s_epik_cmdline>  (1) 
J2VwaWtfcHl0aG9uJywgJy1waHQnLCAnMS4wJywgJy1waCcsICc3LjQnLCAnLXRuJywgJzgnLCAnLW1hJywgJzUwMCcsICctaW1hZScsICc8aW5maWxlLm1hZT4nLCAnLW9tYWUnLCAnPG91dGZpbGUubWFlPic=

>  <s_epik_input>  (1) 
TzFbQ0gyXVtDSDJdT1tDSF0xW0NIM10=

>  <s_glide_docking_method>  (1) 
confgen

>  <s_i_glide_gridfile>  (1) 
gpcr_5ht2c_6bqh_protein_autoprepared_prepared

>  <s_lp_Force_Field>  (1) 
S-OPLS

>  <s_lp_Variant>  (1) 
Pocket2Mol_23-1

>  <s_m_source_file>  (1) 
generated_GPCR_5HT2C_ligand_Pocket2Mol_2026-06-23_prepared.sdf

>  <GenAI_Model>  (1) 
Pocket2Mol

>  <Protein>  (1) 
GPCR_5HT2C

$$$$
Pocket2Mol_39
     RDKit          3D

  0  0  0  0  0  0  0  0  0  0999 V3000
M  V30 BEGIN CTAB
M  V30 COUNTS 15 15 0 0 1
M  V30 BEGIN ATOM
M  V30 1 C 39.077008 28.189320 51.168720 0
M  V30 2 C 40.045135 29.318553 51.545448 0
M  V30 3 O 39.245136 27.098139 52.056408 0
M  V30 4 C 38.662294 27.280719 53.304075 0
M  V30 5 O 39.645138 30.137752 52.639939 0
M  V30 6 O 39.245137 28.307510 54.047573 0
M  V30 7 C 38.845136 29.577708 53.636170 0
M  V30 8 H 38.045121 28.532542 51.120818 0
M  V30 9 H 39.328574 27.827918 50.171348 0
M  V30 10 H 40.182733 29.980052 50.689956 0
M  V30 11 H 41.026571 28.897062 51.759398 0
M  V30 12 H 38.835809 26.359197 53.859983 0
M  V30 13 H 37.579619 27.395198 53.214707 0
M  V30 14 H 37.795093 29.602408 53.341423 0
M  V30 15 H 38.937339 30.235969 54.500566 0
M  V30 END ATOM
M  V30 BEGIN BOND
M  V30 1 1 2 1
M  V30 2 1 3 1
M  V30 3 1 4 3
M  V30 4 1 5 2
M  V30 5 1 6 4
M  V30 6 1 7 5
M  V30 7 1 7 6
M  V30 8 1 8 1
M  V30 9 1 9 1
M  V30 10 1 10 2
M  V30 11 1 11 2
M  V30 12 1 12 4
M  V30 13 1 13 4
M  V30 14 1 14 7
M  V30 15 1 15 7
M  V30 END BOND
M  V30 END CTAB
M  END
>  <i_epik_Tot_Q>  (1) 
0

>  <i_epik_Tot_abs_Q>  (1) 
0

>  <i_i_glide_confnum>  (1) 
5

>  <i_i_glide_lignum>  (1) 
42

>  <i_i_glide_posenum>  (1) 
283

>  <i_i_glide_rotatable_bonds>  (1) 
0

>  <i_lp_mmshare_version>  (1) 
72125

>  <i_m_source_file_index>  (1) 
40

>  <i_f3d_flags>  (1) 
0

>  <num_sample>  (1) 
100

>  <b_lp_Chiralities_Consistent>  (1) 
1

>  <r_epik_Charging_Adjusted_Penalty>  (1) 
0

>  <r_epik_Ionization_Penalty>  (1) 
4.6834743432320728e-14

>  <r_epik_Ionization_Penalty_Charging>  (1) 
0

>  <r_epik_Ionization_Penalty_Neutral>  (1) 
4.6834743432320728e-14

>  <r_epik_State_Penalty>  (1) 
-0

>  <r_glide_ring_energy>  (1) 
0.00038839890898634857

>  <r_i_docking_score>  (1) 
-4.7360335560346263

>  <r_i_glide_ecoul>  (1) 
-0.38559579859115173

>  <r_i_glide_eff_state_penalty>  (1) 
-0

>  <r_i_glide_einternal>  (1) 
0

>  <r_i_glide_emodel>  (1) 
-20.954814333618835

>  <r_i_glide_emodel_strain>  (1) 
0

>  <r_i_glide_energy>  (1) 
-15.657118016701101

>  <r_i_glide_erotb>  (1) 
0

>  <r_i_glide_esite>  (1) 
0

>  <r_i_glide_evdw>  (1) 
-15.271522218109951

>  <r_i_glide_gscore>  (1) 
-4.7360335560346263

>  <r_i_glide_gscore_strain>  (1) 
0

>  <r_i_glide_hbond>  (1) 
0

>  <r_i_glide_ligand_efficiency>  (1) 
-0.67657622229066094

>  <r_i_glide_ligand_efficiency_ln>  (1) 
-1.6076639532109847

>  <r_i_glide_ligand_efficiency_sa>  (1) 
-1.2942437531421489

>  <r_i_glide_lipo>  (1) 
-0.66000000000000003

>  <r_i_glide_metal>  (1) 
-0

>  <r_i_glide_rewards>  (1) 
-3.2546180753404563

>  <r_lp_Energy>  (1) 
1.238378

>  <r_lp_tautomer_probability>  (1) 
1

>  <s_epik_Chemistry_Notes>  (1) 
This compound contains an acetal/aminal-like group ( X-CH(R)-Y where X, Y are N, S, or O) that may be acid/base labile, releasing an aldehyde.

>  <s_epik_cmdline>  (1) 
J2VwaWtfcHl0aG9uJywgJy1waHQnLCAnMS4wJywgJy1waCcsICc3LjQnLCAnLXRuJywgJzgnLCAnLW1hJywgJzUwMCcsICctaW1hZScsICc8aW5maWxlLm1hZT4nLCAnLW9tYWUnLCAnPG91dGZpbGUubWFlPic=

>  <s_epik_input>  (1) 
W0NIMl0xW0NIMl1PW0NIMl1PW0NIMl1PMQ==

>  <s_glide_docking_method>  (1) 
confgen

>  <s_i_glide_gridfile>  (1) 
gpcr_5ht2c_6bqh_protein_autoprepared_prepared

>  <s_lp_Force_Field>  (1) 
S-OPLS

>  <s_lp_Variant>  (1) 
Pocket2Mol_39-1

>  <s_m_source_file>  (1) 
generated_GPCR_5HT2C_ligand_Pocket2Mol_2026-06-23_prepared.sdf

>  <GenAI_Model>  (1) 
Pocket2Mol

>  <Protein>  (1) 
GPCR_5HT2C

$$$$
Pocket2Mol_35
     RDKit          3D

  0  0  0  0  0  0  0  0  0  0999 V3000
M  V30 BEGIN CTAB
M  V30 COUNTS 17 17 0 0 1
M  V30 BEGIN ATOM
M  V30 1 C 37.302264 24.899675 57.237122 0
M  V30 2 O 38.347796 25.573721 57.930068 0
M  V30 3 C 39.645013 25.520718 57.361253 0
M  V30 4 C 37.407455 24.843354 55.701155 0
M  V30 5 O 37.695728 26.113046 55.134955 0
M  V30 6 C 39.785984 26.642286 56.322989 0
M  V30 7 C 39.089194 26.355908 54.985721 0
M  V30 8 H 37.245139 23.880736 57.621521 0
M  V30 9 H 36.367823 25.383691 57.521307 0
M  V30 10 H 40.355581 25.702417 58.167757 0
M  V30 11 H 39.884969 24.536663 56.956700 0
M  V30 12 H 38.126304 24.088834 55.379808 0
M  V30 13 H 36.446351 24.515057 55.304556 0
M  V30 14 H 39.410334 27.575596 56.743784 0
M  V30 15 H 40.845496 26.805307 56.126776 0
M  V30 16 H 39.205032 27.223928 54.336322 0
M  V30 17 H 39.575776 25.527739 54.468691 0
M  V30 END ATOM
M  V30 BEGIN BOND
M  V30 1 1 2 1
M  V30 2 1 3 2
M  V30 3 1 4 1
M  V30 4 1 5 4
M  V30 5 1 6 3
M  V30 6 1 7 5
M  V30 7 1 7 6
M  V30 8 1 8 1
M  V30 9 1 9 1
M  V30 10 1 10 3
M  V30 11 1 11 3
M  V30 12 1 12 4
M  V30 13 1 13 4
M  V30 14 1 14 6
M  V30 15 1 15 6
M  V30 16 1 16 7
M  V30 17 1 17 7
M  V30 END BOND
M  V30 END CTAB
M  END
>  <i_epik_Tot_Q>  (1) 
0

>  <i_epik_Tot_abs_Q>  (1) 
0

>  <i_i_glide_confnum>  (1) 
9

>  <i_i_glide_lignum>  (1) 
38

>  <i_i_glide_posenum>  (1) 
92

>  <i_i_glide_rotatable_bonds>  (1) 
0

>  <i_lp_mmshare_version>  (1) 
72125

>  <i_m_source_file_index>  (1) 
36

>  <i_f3d_flags>  (1) 
0

>  <num_sample>  (1) 
100

>  <b_lp_Chiralities_Consistent>  (1) 
1

>  <r_epik_Charging_Adjusted_Penalty>  (1) 
0

>  <r_epik_Ionization_Penalty>  (1) 
3.933197540425548e-12

>  <r_epik_Ionization_Penalty_Charging>  (1) 
0

>  <r_epik_Ionization_Penalty_Neutral>  (1) 
3.933197540425548e-12

>  <r_epik_State_Penalty>  (1) 
-0

>  <r_glide_ring_energy>  (1) 
0.00061177386835536518

>  <r_i_docking_score>  (1) 
-4.7305175443163812

>  <r_i_glide_ecoul>  (1) 
-0.13549093136399934

>  <r_i_glide_eff_state_penalty>  (1) 
-0

>  <r_i_glide_einternal>  (1) 
0

>  <r_i_glide_emodel>  (1) 
-21.567538943934277

>  <r_i_glide_emodel_strain>  (1) 
0

>  <r_i_glide_energy>  (1) 
-16.6209030532623

>  <r_i_glide_erotb>  (1) 
0

>  <r_i_glide_esite>  (1) 
0

>  <r_i_glide_evdw>  (1) 
-16.4854121218983

>  <r_i_glide_gscore>  (1) 
-4.7305175443163812

>  <r_i_glide_gscore_strain>  (1) 
0

>  <r_i_glide_hbond>  (1) 
0

>  <r_i_glide_ligand_efficiency>  (1) 
-0.67578822061662591

>  <r_i_glide_ligand_efficiency_ln>  (1) 
-1.6057915228111592

>  <r_i_glide_ligand_efficiency_sa>  (1) 
-1.2927363601678103

>  <r_i_glide_lipo>  (1) 
-1.5515826022209929

>  <r_i_glide_metal>  (1) 
-0

>  <r_i_glide_rewards>  (1) 
-2.3343406962958735

>  <r_lp_Energy>  (1) 
9.6410049999999998

>  <r_lp_tautomer_probability>  (1) 
1

>  <s_epik_cmdline>  (1) 
J2VwaWtfcHl0aG9uJywgJy1waHQnLCAnMS4wJywgJy1waCcsICc3LjQnLCAnLXRuJywgJzgnLCAnLW1hJywgJzUwMCcsICctaW1hZScsICc8aW5maWxlLm1hZT4nLCAnLW9tYWUnLCAnPG91dGZpbGUubWFlPic=

>  <s_epik_input>  (1) 
W0NIMl0xT1tDSDJdW0NIMl1bQ0gyXU9bQ0gyXTE=

>  <s_glide_docking_method>  (1) 
confgen

>  <s_i_glide_gridfile>  (1) 
gpcr_5ht2c_6bqh_protein_autoprepared_prepared

>  <s_lp_Force_Field>  (1) 
S-OPLS

>  <s_lp_Variant>  (1) 
Pocket2Mol_35-1

>  <s_m_source_file>  (1) 
generated_GPCR_5HT2C_ligand_Pocket2Mol_2026-06-23_prepared.sdf

>  <GenAI_Model>  (1) 
Pocket2Mol

>  <Protein>  (1) 
GPCR_5HT2C

$$$$
Pocket2Mol_77
     RDKit          3D

  0  0  0  0  0  0  0  0  0  0999 V3000
M  V30 BEGIN CTAB
M  V30 COUNTS 15 15 0 0 1
M  V30 BEGIN ATOM
M  V30 1 C 39.850880 29.426306 51.433053 0
M  V30 2 C 39.277188 28.015859 51.576899 0
M  V30 3 C 38.126766 28.177942 52.565687 0
M  V30 4 C 39.645136 30.098083 52.800632 0
M  V30 5 C 38.611911 29.243370 53.554244 0
M  V30 6 H 40.896358 29.421304 51.123123 0
M  V30 7 H 39.286498 29.968785 50.672499 0
M  V30 8 H 38.956806 27.591752 50.624140 0
M  V30 9 H 40.031579 27.353606 52.002309 0
M  V30 10 H 37.244949 28.538199 52.036809 0
M  V30 11 H 37.856527 27.240610 53.053368 0
M  V30 12 H 40.570439 30.137834 53.371758 0
M  V30 13 H 39.306240 31.128188 52.683598 0
M  V30 14 H 37.786295 29.841512 53.942427 0
M  V30 15 H 39.090878 28.761263 54.407599 0
M  V30 END ATOM
M  V30 BEGIN BOND
M  V30 1 1 2 1
M  V30 2 1 3 2
M  V30 3 1 4 1
M  V30 4 1 5 3
M  V30 5 1 5 4
M  V30 6 1 6 1
M  V30 7 1 7 1
M  V30 8 1 8 2
M  V30 9 1 9 2
M  V30 10 1 10 3
M  V30 11 1 11 3
M  V30 12 1 12 4
M  V30 13 1 13 4
M  V30 14 1 14 5
M  V30 15 1 15 5
M  V30 END BOND
M  V30 END CTAB
M  END
>  <i_epik_Tot_Q>  (1) 
0

>  <i_epik_Tot_abs_Q>  (1) 
0

>  <i_i_glide_confnum>  (1) 
1

>  <i_i_glide_lignum>  (1) 
82

>  <i_i_glide_posenum>  (1) 
338

>  <i_i_glide_rotatable_bonds>  (1) 
0

>  <i_lp_mmshare_version>  (1) 
72125

>  <i_m_source_file_index>  (1) 
78

>  <i_f3d_flags>  (1) 
0

>  <num_sample>  (1) 
100

>  <b_lp_Chiralities_Consistent>  (1) 
1

>  <r_epik_Charging_Adjusted_Penalty>  (1) 
0

>  <r_epik_Ionization_Penalty>  (1) 
0

>  <r_epik_Ionization_Penalty_Charging>  (1) 
0

>  <r_epik_Ionization_Penalty_Neutral>  (1) 
0

>  <r_epik_State_Penalty>  (1) 
-0

>  <r_glide_ring_energy>  (1) 
0

>  <r_i_docking_score>  (1) 
-4.7230858931813557

>  <r_i_glide_ecoul>  (1) 
-0.10607008626834342

>  <r_i_glide_eff_state_penalty>  (1) 
-0

>  <r_i_glide_einternal>  (1) 
0

>  <r_i_glide_emodel>  (1) 
-17.116996877856046

>  <r_i_glide_emodel_strain>  (1) 
0.00053789470504028714

>  <r_i_glide_energy>  (1) 
-13.347484648414811

>  <r_i_glide_erotb>  (1) 
0

>  <r_i_glide_esite>  (1) 
0

>  <r_i_glide_evdw>  (1) 
-13.241414562146469

>  <r_i_glide_gscore>  (1) 
-4.7230858931813557

>  <r_i_glide_gscore_strain>  (1) 
0

>  <r_i_glide_hbond>  (1) 
0

>  <r_i_glide_ligand_efficiency>  (1) 
-0.94461717863627115

>  <r_i_glide_ligand_efficiency_ln>  (1) 
-1.8100012537855827

>  <r_i_glide_ligand_efficiency_sa>  (1) 
-1.6152726542856284

>  <r_i_glide_lipo>  (1) 
-1.5924749435813272

>  <r_i_glide_metal>  (1) 
-0

>  <r_i_glide_rewards>  (1) 
-2.4526297085524544

>  <r_lp_Energy>  (1) 
13.274989999999999

>  <r_lp_tautomer_probability>  (1) 
1

>  <s_epik_cmdline>  (1) 
J2VwaWtfcHl0aG9uJywgJy1waHQnLCAnMS4wJywgJy1waCcsICc3LjQnLCAnLXRuJywgJzgnLCAnLW1hJywgJzUwMCcsICctaW1hZScsICc8aW5maWxlLm1hZT4nLCAnLW9tYWUnLCAnPG91dGZpbGUubWFlPic=

>  <s_epik_input>  (1) 
W0NIMl0xW0NIMl1bQ0gyXVtDSDJdW0NIMl0x

>  <s_glide_docking_method>  (1) 
confgen

>  <s_i_glide_gridfile>  (1) 
gpcr_5ht2c_6bqh_protein_autoprepared_prepared

>  <s_lp_Force_Field>  (1) 
S-OPLS

>  <s_lp_Variant>  (1) 
Pocket2Mol_77-1

>  <s_m_source_file>  (1) 
generated_GPCR_5HT2C_ligand_Pocket2Mol_2026-06-23_prepared.sdf

>  <GenAI_Model>  (1) 
Pocket2Mol

>  <Protein>  (1) 
GPCR_5HT2C

$$$$
Pocket2Mol_43
     RDKit          3D

  0  0  0  0  0  0  0  0  0  0999 V3000
M  V30 BEGIN CTAB
M  V30 COUNTS 15 15 0 0 1
M  V30 BEGIN ATOM
M  V30 1 C 37.913264 29.853314 54.407614 0
M  V30 2 O 37.289475 28.859734 53.415703 0
M  V30 3 C 38.214971 27.703876 53.002992 0
M  V30 4 C 39.364632 30.250709 54.098085 0
M  V30 5 O 39.645137 30.537813 52.614251 0
M  V30 6 C 39.244277 28.084616 51.950380 0
M  V30 7 C 39.823381 29.287166 51.767764 0
M  V30 8 H 37.290746 30.747513 54.438902 0
M  V30 9 H 37.876518 29.434041 55.413080 0
M  V30 10 H 37.600064 26.916118 52.567760 0
M  V30 11 H 38.710879 27.259887 53.866154 0
M  V30 12 H 39.607820 31.136132 54.685440 0
M  V30 13 H 40.045149 29.475799 54.450948 0
M  V30 14 H 39.517543 27.287522 51.274831 0
M  V30 15 H 40.506910 29.394997 50.938571 0
M  V30 END ATOM
M  V30 BEGIN BOND
M  V30 1 1 2 1
M  V30 2 1 3 2
M  V30 3 1 4 1
M  V30 4 1 5 4
M  V30 5 1 6 3
M  V30 6 1 7 5
M  V30 7 2 7 6
M  V30 8 1 8 1
M  V30 9 1 9 1
M  V30 10 1 10 3
M  V30 11 1 11 3
M  V30 12 1 12 4
M  V30 13 1 13 4
M  V30 14 1 14 6
M  V30 15 1 15 7
M  V30 END BOND
M  V30 END CTAB
M  END
>  <i_epik_Tot_Q>  (1) 
0

>  <i_epik_Tot_abs_Q>  (1) 
0

>  <i_i_glide_confnum>  (1) 
3

>  <i_i_glide_lignum>  (1) 
46

>  <i_i_glide_posenum>  (1) 
370

>  <i_i_glide_rotatable_bonds>  (1) 
0

>  <i_lp_mmshare_version>  (1) 
72125

>  <i_m_source_file_index>  (1) 
44

>  <i_f3d_flags>  (1) 
0

>  <num_sample>  (1) 
100

>  <b_lp_Chiralities_Consistent>  (1) 
1

>  <r_epik_Charging_Adjusted_Penalty>  (1) 
0

>  <r_epik_Ionization_Penalty>  (1) 
5.6701613537443791e-14

>  <r_epik_Ionization_Penalty_Charging>  (1) 
0

>  <r_epik_Ionization_Penalty_Neutral>  (1) 
5.6701613537443791e-14

>  <r_epik_State_Penalty>  (1) 
-0

>  <r_glide_ring_energy>  (1) 
0.9851884203704826

>  <r_i_docking_score>  (1) 
-4.713793547466218

>  <r_i_glide_ecoul>  (1) 
-1.1887406094273678

>  <r_i_glide_eff_state_penalty>  (1) 
-0

>  <r_i_glide_einternal>  (1) 
0

>  <r_i_glide_emodel>  (1) 
-21.271425642821292

>  <r_i_glide_emodel_strain>  (1) 
1.42683729720261e-07

>  <r_i_glide_energy>  (1) 
-16.437602248467865

>  <r_i_glide_erotb>  (1) 
0

>  <r_i_glide_esite>  (1) 
0

>  <r_i_glide_evdw>  (1) 
-15.248861639040499

>  <r_i_glide_gscore>  (1) 
-4.713793547466218

>  <r_i_glide_gscore_strain>  (1) 
0

>  <r_i_glide_hbond>  (1) 
0

>  <r_i_glide_ligand_efficiency>  (1) 
-0.67339907820945977

>  <r_i_glide_ligand_efficiency_ln>  (1) 
-1.6001145007690831

>  <r_i_glide_ligand_efficiency_sa>  (1) 
-1.2881660951570584

>  <r_i_glide_lipo>  (1) 
-1.2777433819893098

>  <r_i_glide_metal>  (1) 
-0

>  <r_i_glide_rewards>  (1) 
-2.4952959921107776

>  <r_lp_Energy>  (1) 
7.3473649999999999

>  <r_lp_tautomer_probability>  (1) 
1

>  <s_epik_cmdline>  (1) 
J2VwaWtfcHl0aG9uJywgJy1waHQnLCAnMS4wJywgJy1waCcsICc3LjQnLCAnLXRuJywgJzgnLCAnLW1hJywgJzUwMCcsICctaW1hZScsICc8aW5maWxlLm1hZT4nLCAnLW9tYWUnLCAnPG91dGZpbGUubWFlPic=

>  <s_epik_input>  (1) 
W0NIMl0xT1tDSDJdW0NIXT1bQ0hdT1tDSDJdMQ==

>  <s_glide_docking_method>  (1) 
confgen

>  <s_i_glide_gridfile>  (1) 
gpcr_5ht2c_6bqh_protein_autoprepared_prepared

>  <s_lp_Force_Field>  (1) 
S-OPLS

>  <s_lp_Variant>  (1) 
Pocket2Mol_43-1

>  <s_m_source_file>  (1) 
generated_GPCR_5HT2C_ligand_Pocket2Mol_2026-06-23_prepared.sdf

>  <GenAI_Model>  (1) 
Pocket2Mol

>  <Protein>  (1) 
GPCR_5HT2C

$$$$
Pocket2Mol_60
     RDKit          3D

  0  0  0  0  0  0  0  0  0  0999 V3000
M  V30 BEGIN CTAB
M  V30 COUNTS 12 12 0 0 1
M  V30 BEGIN ATOM
M  V30 1 C 40.045137 29.338614 50.161565 0
M  V30 2 C 39.294930 28.418160 50.967735 0
M  V30 3 C 40.424217 30.383162 50.966495 0
M  V30 4 C 39.242028 28.936621 52.230779 0
M  V30 5 N 39.928275 30.122101 52.219597 0
M  V30 6 C 38.616381 28.454864 53.475514 0
M  V30 7 O 37.992738 27.371835 53.446009 0
M  V30 8 O 38.738146 29.150647 54.508053 0 CHG=-1
M  V30 9 H 40.277735 29.244709 49.111500 0
M  V30 10 H 38.845309 27.487092 50.653685 0
M  V30 11 H 40.992914 31.278790 50.763059 0
M  V30 12 H 40.045183 30.719834 53.026725 0
M  V30 END ATOM
M  V30 BEGIN BOND
M  V30 1 1 2 1
M  V30 2 2 3 1
M  V30 3 2 4 2
M  V30 4 1 5 3
M  V30 5 1 5 4
M  V30 6 1 6 4
M  V30 7 2 7 6
M  V30 8 1 8 6
M  V30 9 1 9 1
M  V30 10 1 10 2
M  V30 11 1 11 3
M  V30 12 1 12 5
M  V30 END BOND
M  V30 END CTAB
M  END
>  <i_epik_Tot_Q>  (1) 
-1

>  <i_epik_Tot_abs_Q>  (1) 
1

>  <i_i_glide_confnum>  (1) 
1

>  <i_i_glide_lignum>  (1) 
64

>  <i_i_glide_posenum>  (1) 
392

>  <i_i_glide_rotatable_bonds>  (1) 
1

>  <i_lp_mmshare_version>  (1) 
72125

>  <i_m_source_file_index>  (1) 
61

>  <i_f3d_flags>  (1) 
0

>  <num_sample>  (1) 
100

>  <b_lp_Chiralities_Consistent>  (1) 
1

>  <r_epik_Charging_Adjusted_Penalty>  (1) 
0.00021018459712964226

>  <r_epik_Ionization_Penalty>  (1) 
0.00021021235475979092

>  <r_epik_Ionization_Penalty_Charging>  (1) 
0.00021018459712964226

>  <r_epik_Ionization_Penalty_Neutral>  (1) 
2.7757630148672405e-08

>  <r_epik_State_Penalty>  (1) 
-0

>  <r_glide_ring_energy>  (1) 
0

>  <r_i_docking_score>  (1) 
-4.705564271285942

>  <r_i_glide_ecoul>  (1) 
0.066875921538333771

>  <r_i_glide_eff_state_penalty>  (1) 
-0

>  <r_i_glide_einternal>  (1) 
0.0018651534945004489

>  <r_i_glide_emodel>  (1) 
-21.016843161351876

>  <r_i_glide_emodel_strain>  (1) 
0

>  <r_i_glide_energy>  (1) 
-15.880628420474633

>  <r_i_glide_erotb>  (1) 
0

>  <r_i_glide_esite>  (1) 
0

>  <r_i_glide_evdw>  (1) 
-15.947504342012966

>  <r_i_glide_gscore>  (1) 
-4.705564271285942

>  <r_i_glide_gscore_strain>  (1) 
0

>  <r_i_glide_hbond>  (1) 
0

>  <r_i_glide_ligand_efficiency>  (1) 
-0.58819553391074275

>  <r_i_glide_ligand_efficiency_ln>  (1) 
-1.5280576713656515

>  <r_i_glide_ligand_efficiency_sa>  (1) 
-1.1763910678214857

>  <r_i_glide_lipo>  (1) 
-1.2596845669883061

>  <r_i_glide_metal>  (1) 
-0

>  <r_i_glide_rewards>  (1) 
-2.6585358754277375

>  <r_lp_Energy>  (1) 
7.8081959999999997

>  <r_lp_tautomer_probability>  (1) 
1

>  <s_epik_cmdline>  (1) 
J2VwaWtfcHl0aG9uJywgJy1waHQnLCAnMS4wJywgJy1waCcsICc3LjQnLCAnLXRuJywgJzgnLCAnLW1hJywgJzUwMCcsICctaW1hZScsICc8aW5maWxlLm1hZT4nLCAnLW9tYWUnLCAnPG91dGZpbGUubWFlPic=

>  <s_epik_input>  (1) 
W25IXTFbY0hdW2NIXVtjSF1jMUMoPU8pW09IXQ==

>  <s_glide_docking_method>  (1) 
confgen

>  <s_i_glide_gridfile>  (1) 
gpcr_5ht2c_6bqh_protein_autoprepared_prepared

>  <s_lp_Force_Field>  (1) 
S-OPLS

>  <s_lp_Variant>  (1) 
Pocket2Mol_60-1

>  <s_m_source_file>  (1) 
generated_GPCR_5HT2C_ligand_Pocket2Mol_2026-06-23_prepared.sdf

>  <GenAI_Model>  (1) 
Pocket2Mol

>  <Protein>  (1) 
GPCR_5HT2C

$$$$
Pocket2Mol_15
     RDKit          3D

  0  0  0  0  0  0  0  0  0  0999 V3000
M  V30 BEGIN CTAB
M  V30 COUNTS 12 12 0 0 1
M  V30 BEGIN ATOM
M  V30 1 C 39.845324 29.535809 51.750164 0
M  V30 2 O 38.883142 29.337756 52.774745 0
M  V30 3 C 39.552155 28.420458 50.738222 0
M  V30 4 C 38.318187 28.141961 52.703668 0
M  V30 5 C 38.845139 27.337760 51.537234 0
M  V30 6 O 37.463384 27.710333 53.473145 0
M  V30 7 H 39.761436 30.527951 51.305625 0
M  V30 8 H 40.845138 29.428117 52.167762 0
M  V30 9 H 38.880566 28.786158 49.963372 0
M  V30 10 H 40.445137 28.049399 50.243277 0
M  V30 11 H 39.537569 26.576676 51.896864 0
M  V30 12 H 38.045143 26.866077 50.968240 0
M  V30 END ATOM
M  V30 BEGIN BOND
M  V30 1 1 2 1
M  V30 2 1 3 1
M  V30 3 1 4 2
M  V30 4 1 5 3
M  V30 5 1 5 4
M  V30 6 2 6 4
M  V30 7 1 7 1
M  V30 8 1 8 1
M  V30 9 1 9 3
M  V30 10 1 10 3
M  V30 11 1 11 5
M  V30 12 1 12 5
M  V30 END BOND
M  V30 END CTAB
M  END
>  <i_epik_Tot_Q>  (1) 
0

>  <i_epik_Tot_abs_Q>  (1) 
0

>  <i_i_glide_confnum>  (1) 
1

>  <i_i_glide_lignum>  (1) 
18

>  <i_i_glide_posenum>  (1) 
106

>  <i_i_glide_rotatable_bonds>  (1) 
0

>  <i_lp_mmshare_version>  (1) 
72125

>  <i_m_source_file_index>  (1) 
16

>  <i_f3d_flags>  (1) 
0

>  <num_sample>  (1) 
100

>  <b_lp_Chiralities_Consistent>  (1) 
1

>  <r_epik_Charging_Adjusted_Penalty>  (1) 
0

>  <r_epik_Ionization_Penalty>  (1) 
0

>  <r_epik_Ionization_Penalty_Charging>  (1) 
0

>  <r_epik_Ionization_Penalty_Neutral>  (1) 
0

>  <r_epik_State_Penalty>  (1) 
-0

>  <r_glide_ring_energy>  (1) 
0

>  <r_i_docking_score>  (1) 
-4.7019624364510726

>  <r_i_glide_ecoul>  (1) 
-0.55128066307524448

>  <r_i_glide_eff_state_penalty>  (1) 
-0

>  <r_i_glide_einternal>  (1) 
0

>  <r_i_glide_emodel>  (1) 
-20.464860924792536

>  <r_i_glide_emodel_strain>  (1) 
0

>  <r_i_glide_energy>  (1) 
-15.636687402870969

>  <r_i_glide_erotb>  (1) 
0

>  <r_i_glide_esite>  (1) 
0

>  <r_i_glide_evdw>  (1) 
-15.085406739795724

>  <r_i_glide_gscore>  (1) 
-4.7019624364510726

>  <r_i_glide_gscore_strain>  (1) 
0

>  <r_i_glide_hbond>  (1) 
0

>  <r_i_glide_ligand_efficiency>  (1) 
-0.78366040607517873

>  <r_i_glide_ligand_efficiency_ln>  (1) 
-1.6842290635271686

>  <r_i_glide_ligand_efficiency_sa>  (1) 
-1.4240054616664044

>  <r_i_glide_lipo>  (1) 
-0.98999999999999999

>  <r_i_glide_metal>  (1) 
-0

>  <r_i_glide_rewards>  (1) 
-2.875

>  <r_lp_Energy>  (1) 
-1.1766760000000001

>  <r_lp_tautomer_probability>  (1) 
1

>  <s_epik_Chemistry_Notes>  (1) 
This compound has an ester and may undergo hydrolysis at high or low pH.

>  <s_epik_cmdline>  (1) 
J2VwaWtfcHl0aG9uJywgJy1waHQnLCAnMS4wJywgJy1waCcsICc3LjQnLCAnLXRuJywgJzgnLCAnLW1hJywgJzUwMCcsICctaW1hZScsICc8aW5maWxlLm1hZT4nLCAnLW9tYWUnLCAnPG91dGZpbGUubWFlPic=

>  <s_epik_input>  (1) 
W0NIMl0xW0NIMl1bQ0gyXU9DMT1P

>  <s_glide_docking_method>  (1) 
confgen

>  <s_i_glide_gridfile>  (1) 
gpcr_5ht2c_6bqh_protein_autoprepared_prepared

>  <s_lp_Force_Field>  (1) 
S-OPLS

>  <s_lp_Variant>  (1) 
Pocket2Mol_15-1

>  <s_m_source_file>  (1) 
generated_GPCR_5HT2C_ligand_Pocket2Mol_2026-06-23_prepared.sdf

>  <GenAI_Model>  (1) 
Pocket2Mol

>  <Protein>  (1) 
GPCR_5HT2C

$$$$
Pocket2Mol_28
     RDKit          3D

  0  0  0  0  0  0  0  0  0  0999 V3000
M  V30 BEGIN CTAB
M  V30 COUNTS 13 13 0 0 1
M  V30 BEGIN ATOM
M  V30 1 C 39.998620 30.280932 52.039430 0
M  V30 2 O 39.245054 29.651920 53.076340 0
M  V30 3 C 38.457086 28.555945 52.868569 0
M  V30 4 O 37.530751 28.214477 53.600286 0
M  V30 5 C 38.845575 27.737636 51.622357 0
M  V30 6 C 40.464442 29.297392 50.974083 0
M  V30 7 O 39.341604 28.547053 50.567759 0
M  V30 8 H 40.845125 30.806805 52.477888 0
M  V30 9 H 39.387393 31.048337 51.570115 0
M  V30 10 H 37.975565 27.191104 51.263796 0
M  V30 11 H 39.594166 26.995381 51.901152 0
M  V30 12 H 41.243975 28.642226 51.367716 0
M  V30 13 H 40.881496 29.830159 50.119356 0
M  V30 END ATOM
M  V30 BEGIN BOND
M  V30 1 1 2 1
M  V30 2 1 3 2
M  V30 3 2 4 3
M  V30 4 1 5 3
M  V30 5 1 6 1
M  V30 6 1 7 5
M  V30 7 1 7 6
M  V30 8 1 8 1
M  V30 9 1 9 1
M  V30 10 1 10 5
M  V30 11 1 11 5
M  V30 12 1 12 6
M  V30 13 1 13 6
M  V30 END BOND
M  V30 END CTAB
M  END
>  <i_epik_Tot_Q>  (1) 
0

>  <i_epik_Tot_abs_Q>  (1) 
0

>  <i_i_glide_confnum>  (1) 
1

>  <i_i_glide_lignum>  (1) 
31

>  <i_i_glide_posenum>  (1) 
210

>  <i_i_glide_rotatable_bonds>  (1) 
0

>  <i_lp_mmshare_version>  (1) 
72125

>  <i_m_source_file_index>  (1) 
29

>  <i_f3d_flags>  (1) 
0

>  <num_sample>  (1) 
100

>  <b_lp_Chiralities_Consistent>  (1) 
1

>  <r_epik_Charging_Adjusted_Penalty>  (1) 
0

>  <r_epik_Ionization_Penalty>  (1) 
1.0677269036415479e-12

>  <r_epik_Ionization_Penalty_Charging>  (1) 
0

>  <r_epik_Ionization_Penalty_Neutral>  (1) 
1.0677269036415479e-12

>  <r_epik_State_Penalty>  (1) 
-0

>  <r_glide_ring_energy>  (1) 
0

>  <r_i_docking_score>  (1) 
-4.6801604916035791

>  <r_i_glide_ecoul>  (1) 
-0.12033053857278048

>  <r_i_glide_eff_state_penalty>  (1) 
-0

>  <r_i_glide_einternal>  (1) 
0

>  <r_i_glide_emodel>  (1) 
-21.196584457779068

>  <r_i_glide_emodel_strain>  (1) 
0

>  <r_i_glide_energy>  (1) 
-16.358613605904278

>  <r_i_glide_erotb>  (1) 
0

>  <r_i_glide_esite>  (1) 
0

>  <r_i_glide_evdw>  (1) 
-16.238283067331498

>  <r_i_glide_gscore>  (1) 
-4.6801604916035791

>  <r_i_glide_gscore_strain>  (1) 
0

>  <r_i_glide_hbond>  (1) 
0

>  <r_i_glide_ligand_efficiency>  (1) 
-0.66859435594336847

>  <r_i_glide_ligand_efficiency_ln>  (1) 
-1.5886976366554832

>  <r_i_glide_ligand_efficiency_sa>  (1) 
-1.2789749921096916

>  <r_i_glide_lipo>  (1) 
-0.90986173084736777

>  <r_i_glide_metal>  (1) 
-0

>  <r_i_glide_rewards>  (1) 
-2.9403350266037194

>  <r_lp_Energy>  (1) 
12.58291

>  <r_lp_tautomer_probability>  (1) 
1

>  <s_epik_Chemistry_Notes>  (1) 
This compound has an ester and may undergo hydrolysis at high or low pH.

>  <s_epik_cmdline>  (1) 
J2VwaWtfcHl0aG9uJywgJy1waHQnLCAnMS4wJywgJy1waCcsICc3LjQnLCAnLXRuJywgJzgnLCAnLW1hJywgJzUwMCcsICctaW1hZScsICc8aW5maWxlLm1hZT4nLCAnLW9tYWUnLCAnPG91dGZpbGUubWFlPic=

>  <s_epik_input>  (1) 
W0NIMl0xT1tDSDJdW0NIMl1PQzE9Tw==

>  <s_glide_docking_method>  (1) 
confgen

>  <s_i_glide_gridfile>  (1) 
gpcr_5ht2c_6bqh_protein_autoprepared_prepared

>  <s_lp_Force_Field>  (1) 
S-OPLS

>  <s_lp_Variant>  (1) 
Pocket2Mol_28-1

>  <s_m_source_file>  (1) 
generated_GPCR_5HT2C_ligand_Pocket2Mol_2026-06-23_prepared.sdf

>  <GenAI_Model>  (1) 
Pocket2Mol

>  <Protein>  (1) 
GPCR_5HT2C

$$$$
Pocket2Mol_42
     RDKit          3D

  0  0  0  0  0  0  0  0  0  0999 V3000
M  V30 BEGIN CTAB
M  V30 COUNTS 10 9 0 0 1
M  V30 BEGIN ATOM
M  V30 1 C 39.640284 28.533743 59.898881 0
M  V30 2 O 38.925641 29.557908 60.570405 0
M  V30 3 C 39.615659 30.488488 61.263425 0
M  V30 4 C 38.664482 31.523069 61.932182 0
M  V30 5 O 40.845179 30.537288 61.367997 0
M  V30 6 O 37.435452 31.329538 61.767759 0
M  V30 7 O 39.229444 32.441738 62.567124 0 CHG=-1
M  V30 8 H 38.948705 27.862740 59.391264 0
M  V30 9 H 40.229994 27.941548 60.599371 0
M  V30 10 H 40.315415 28.952026 59.152033 0
M  V30 END ATOM
M  V30 BEGIN BOND
M  V30 1 1 2 1
M  V30 2 1 3 2
M  V30 3 1 4 3
M  V30 4 2 5 3
M  V30 5 2 6 4
M  V30 6 1 7 4
M  V30 7 1 8 1
M  V30 8 1 9 1
M  V30 9 1 10 1
M  V30 END BOND
M  V30 END CTAB
M  END
>  <i_epik_Tot_Q>  (1) 
-1

>  <i_epik_Tot_abs_Q>  (1) 
1

>  <i_i_glide_confnum>  (1) 
1

>  <i_i_glide_lignum>  (1) 
45

>  <i_i_glide_posenum>  (1) 
29

>  <i_i_glide_rotatable_bonds>  (1) 
2

>  <i_lp_mmshare_version>  (1) 
72125

>  <i_m_source_file_index>  (1) 
43

>  <i_f3d_flags>  (1) 
0

>  <num_sample>  (1) 
100

>  <b_lp_Chiralities_Consistent>  (1) 
1

>  <r_epik_Charging_Adjusted_Penalty>  (1) 
5.6581681309968728e-06

>  <r_epik_Ionization_Penalty>  (1) 
5.6581681309968728e-06

>  <r_epik_Ionization_Penalty_Charging>  (1) 
5.6581681309968728e-06

>  <r_epik_Ionization_Penalty_Neutral>  (1) 
0

>  <r_epik_State_Penalty>  (1) 
-0

>  <r_glide_ring_energy>  (1) 
0

>  <r_i_docking_score>  (1) 
-4.6787144454445455

>  <r_i_glide_ecoul>  (1) 
-5.0656541848938543

>  <r_i_glide_eff_state_penalty>  (1) 
-0

>  <r_i_glide_einternal>  (1) 
0.024559851423275436

>  <r_i_glide_emodel>  (1) 
-18.670365412888437

>  <r_i_glide_emodel_strain>  (1) 
0

>  <r_i_glide_energy>  (1) 
-13.810179128701591

>  <r_i_glide_erotb>  (1) 
0

>  <r_i_glide_esite>  (1) 
0

>  <r_i_glide_evdw>  (1) 
-8.7445249438077362

>  <r_i_glide_gscore>  (1) 
-4.6787144454445455

>  <r_i_glide_gscore_strain>  (1) 
0

>  <r_i_glide_hbond>  (1) 
-0.47999999999999998

>  <r_i_glide_ligand_efficiency>  (1) 
-0.66838777792064941

>  <r_i_glide_ligand_efficiency_ln>  (1) 
-1.5882067709854977

>  <r_i_glide_ligand_efficiency_sa>  (1) 
-1.2785798225683567

>  <r_i_glide_lipo>  (1) 
-0.27234799332941262

>  <r_i_glide_metal>  (1) 
-0

>  <r_i_glide_rewards>  (1) 
-2.7292920771906686

>  <r_lp_Energy>  (1) 
21.029133999999999

>  <r_lp_tautomer_probability>  (1) 
1

>  <s_epik_Chemistry_Notes>  (1) 
This compound has an ester and may undergo hydrolysis at high or low pH.

>  <s_epik_cmdline>  (1) 
J2VwaWtfcHl0aG9uJywgJy1waHQnLCAnMS4wJywgJy1waCcsICc3LjQnLCAnLXRuJywgJzgnLCAnLW1hJywgJzUwMCcsICctaW1hZScsICc8aW5maWxlLm1hZT4nLCAnLW9tYWUnLCAnPG91dGZpbGUubWFlPic=

>  <s_epik_input>  (1) 
W0NIM11PQyg9TylDKD1PKVtPSF0=

>  <s_glide_docking_method>  (1) 
confgen

>  <s_i_glide_gridfile>  (1) 
gpcr_5ht2c_6bqh_protein_autoprepared_prepared

>  <s_lp_Force_Field>  (1) 
S-OPLS

>  <s_lp_Variant>  (1) 
Pocket2Mol_42-1

>  <s_m_source_file>  (1) 
generated_GPCR_5HT2C_ligand_Pocket2Mol_2026-06-23_prepared.sdf

>  <GenAI_Model>  (1) 
Pocket2Mol

>  <Protein>  (1) 
GPCR_5HT2C

$$$$
Pocket2Mol_15
     RDKit          3D

  0  0  0  0  0  0  0  0  0  0999 V3000
M  V30 BEGIN CTAB
M  V30 COUNTS 12 12 0 0 1
M  V30 BEGIN ATOM
M  V30 1 C 40.045152 29.829960 51.228516 0
M  V30 2 O 39.645139 29.901819 52.587597 0
M  V30 3 C 39.600986 28.436274 50.761214 0
M  V30 4 C 38.835761 28.911441 52.935852 0
M  V30 5 C 38.598542 27.945642 51.797782 0
M  V30 6 O 38.322185 28.766483 54.041883 0
M  V30 7 H 39.539920 30.612459 50.661108 0
M  V30 8 H 41.121110 29.969305 51.121392 0
M  V30 9 H 39.161000 28.479291 49.767697 0
M  V30 10 H 40.445136 27.751867 50.715877 0
M  V30 11 H 38.780115 26.914302 52.098993 0
M  V30 12 H 37.572454 28.040271 51.445074 0
M  V30 END ATOM
M  V30 BEGIN BOND
M  V30 1 1 2 1
M  V30 2 1 3 1
M  V30 3 1 4 2
M  V30 4 1 5 3
M  V30 5 1 5 4
M  V30 6 2 6 4
M  V30 7 1 7 1
M  V30 8 1 8 1
M  V30 9 1 9 3
M  V30 10 1 10 3
M  V30 11 1 11 5
M  V30 12 1 12 5
M  V30 END BOND
M  V30 END CTAB
M  END
>  <i_epik_Tot_Q>  (1) 
0

>  <i_epik_Tot_abs_Q>  (1) 
0

>  <i_i_glide_confnum>  (1) 
2

>  <i_i_glide_lignum>  (1) 
18

>  <i_i_glide_posenum>  (1) 
187

>  <i_i_glide_rotatable_bonds>  (1) 
0

>  <i_lp_mmshare_version>  (1) 
72125

>  <i_m_source_file_index>  (1) 
16

>  <i_f3d_flags>  (1) 
0

>  <num_sample>  (1) 
100

>  <b_lp_Chiralities_Consistent>  (1) 
1

>  <r_epik_Charging_Adjusted_Penalty>  (1) 
0

>  <r_epik_Ionization_Penalty>  (1) 
0

>  <r_epik_Ionization_Penalty_Charging>  (1) 
0

>  <r_epik_Ionization_Penalty_Neutral>  (1) 
0

>  <r_epik_State_Penalty>  (1) 
-0

>  <r_glide_ring_energy>  (1) 
0.00053108536261990756

>  <r_i_docking_score>  (1) 
-4.6646150198093741

>  <r_i_glide_ecoul>  (1) 
-0.30544335915631166

>  <r_i_glide_eff_state_penalty>  (1) 
-0

>  <r_i_glide_einternal>  (1) 
0

>  <r_i_glide_emodel>  (1) 
-20.32801849845767

>  <r_i_glide_emodel_strain>  (1) 
0

>  <r_i_glide_energy>  (1) 
-15.538194880555695

>  <r_i_glide_erotb>  (1) 
0

>  <r_i_glide_esite>  (1) 
0

>  <r_i_glide_evdw>  (1) 
-15.232751521399383

>  <r_i_glide_gscore>  (1) 
-4.6646150198093741

>  <r_i_glide_gscore_strain>  (1) 
0

>  <r_i_glide_hbond>  (1) 
0

>  <r_i_glide_ligand_efficiency>  (1) 
-0.77743583663489568

>  <r_i_glide_ligand_efficiency_ln>  (1) 
-1.6708513291437601

>  <r_i_glide_ligand_efficiency_sa>  (1) 
-1.4126946683549524

>  <r_i_glide_lipo>  (1) 
-0.98999999999999999

>  <r_i_glide_metal>  (1) 
-0

>  <r_i_glide_rewards>  (1) 
-2.867160939865959

>  <r_lp_Energy>  (1) 
-1.1766760000000001

>  <r_lp_tautomer_probability>  (1) 
1

>  <s_epik_Chemistry_Notes>  (1) 
This compound has an ester and may undergo hydrolysis at high or low pH.

>  <s_epik_cmdline>  (1) 
J2VwaWtfcHl0aG9uJywgJy1waHQnLCAnMS4wJywgJy1waCcsICc3LjQnLCAnLXRuJywgJzgnLCAnLW1hJywgJzUwMCcsICctaW1hZScsICc8aW5maWxlLm1hZT4nLCAnLW9tYWUnLCAnPG91dGZpbGUubWFlPic=

>  <s_epik_input>  (1) 
W0NIMl0xW0NIMl1bQ0gyXU9DMT1P

>  <s_glide_docking_method>  (1) 
confgen

>  <s_i_glide_gridfile>  (1) 
gpcr_5ht2c_6bqh_protein_autoprepared_prepared

>  <s_lp_Force_Field>  (1) 
S-OPLS

>  <s_lp_Variant>  (1) 
Pocket2Mol_15-1

>  <s_m_source_file>  (1) 
generated_GPCR_5HT2C_ligand_Pocket2Mol_2026-06-23_prepared.sdf

>  <GenAI_Model>  (1) 
Pocket2Mol

>  <Protein>  (1) 
GPCR_5HT2C

$$$$
Pocket2Mol_18
     RDKit          3D

  0  0  0  0  0  0  0  0  0  0999 V3000
M  V30 BEGIN CTAB
M  V30 COUNTS 18 18 0 0 1
M  V30 BEGIN ATOM
M  V30 1 C 39.311147 26.468247 57.962794 0
M  V30 2 C 38.444722 27.645068 57.484374 0
M  V30 3 C 38.843155 28.090635 56.066617 0
M  V30 4 C 39.245450 25.294286 56.971483 0
M  V30 5 C 38.782473 26.917315 55.074647 0
M  V30 6 C 39.645135 25.738839 55.554551 0
M  V30 7 H 40.346415 26.796053 58.069117 0
M  V30 8 H 38.987759 26.144696 58.953421 0
M  V30 9 H 37.393736 27.351751 57.492971 0
M  V30 10 H 38.537306 28.482449 58.176993 0
M  V30 11 H 38.188248 28.896151 55.731865 0
M  V30 12 H 39.853842 28.501506 56.082329 0
M  V30 13 H 39.902432 24.491283 57.306340 0
M  V30 14 H 38.235446 24.882710 56.956705 0
M  V30 15 H 39.115535 27.245899 54.089578 0
M  V30 16 H 37.748106 26.590918 54.957738 0
M  V30 17 H 40.697287 26.026981 55.545739 0
M  V30 18 H 39.550921 24.902135 54.862749 0
M  V30 END ATOM
M  V30 BEGIN BOND
M  V30 1 1 2 1
M  V30 2 1 3 2
M  V30 3 1 4 1
M  V30 4 1 5 3
M  V30 5 1 6 4
M  V30 6 1 6 5
M  V30 7 1 7 1
M  V30 8 1 8 1
M  V30 9 1 9 2
M  V30 10 1 10 2
M  V30 11 1 11 3
M  V30 12 1 12 3
M  V30 13 1 13 4
M  V30 14 1 14 4
M  V30 15 1 15 5
M  V30 16 1 16 5
M  V30 17 1 17 6
M  V30 18 1 18 6
M  V30 END BOND
M  V30 END CTAB
M  END
>  <i_epik_Tot_Q>  (1) 
0

>  <i_epik_Tot_abs_Q>  (1) 
0

>  <i_i_glide_confnum>  (1) 
2

>  <i_i_glide_lignum>  (1) 
21

>  <i_i_glide_posenum>  (1) 
275

>  <i_i_glide_rotatable_bonds>  (1) 
0

>  <i_lp_mmshare_version>  (1) 
72125

>  <i_m_source_file_index>  (1) 
19

>  <i_f3d_flags>  (1) 
0

>  <num_sample>  (1) 
100

>  <b_lp_Chiralities_Consistent>  (1) 
1

>  <r_epik_Charging_Adjusted_Penalty>  (1) 
0

>  <r_epik_Ionization_Penalty>  (1) 
0

>  <r_epik_Ionization_Penalty_Charging>  (1) 
0

>  <r_epik_Ionization_Penalty_Neutral>  (1) 
0

>  <r_epik_State_Penalty>  (1) 
-0

>  <r_glide_ring_energy>  (1) 
0.00054248204421707515

>  <r_i_docking_score>  (1) 
-4.6578131434177079

>  <r_i_glide_ecoul>  (1) 
0.081785705675193415

>  <r_i_glide_eff_state_penalty>  (1) 
-0

>  <r_i_glide_einternal>  (1) 
0

>  <r_i_glide_emodel>  (1) 
-17.228827756726929

>  <r_i_glide_emodel_strain>  (1) 
6.0136340351846229e-10

>  <r_i_glide_energy>  (1) 
-13.28728843017055

>  <r_i_glide_erotb>  (1) 
0

>  <r_i_glide_esite>  (1) 
0

>  <r_i_glide_evdw>  (1) 
-13.369074135845743

>  <r_i_glide_gscore>  (1) 
-4.6578131434177079

>  <r_i_glide_gscore_strain>  (1) 
0

>  <r_i_glide_hbond>  (1) 
0

>  <r_i_glide_ligand_efficiency>  (1) 
-0.77630219056961802

>  <r_i_glide_ligand_efficiency_ln>  (1) 
-1.6684149171008749

>  <r_i_glide_ligand_efficiency_sa>  (1) 
-1.4106346967447529

>  <r_i_glide_lipo>  (1) 
-1.5181432568144215

>  <r_i_glide_metal>  (1) 
-0

>  <r_i_glide_rewards>  (1) 
-2.4834840356622778

>  <r_lp_Energy>  (1) 
5.7175969999999996

>  <r_lp_tautomer_probability>  (1) 
1

>  <s_epik_cmdline>  (1) 
J2VwaWtfcHl0aG9uJywgJy1waHQnLCAnMS4wJywgJy1waCcsICc3LjQnLCAnLXRuJywgJzgnLCAnLW1hJywgJzUwMCcsICctaW1hZScsICc8aW5maWxlLm1hZT4nLCAnLW9tYWUnLCAnPG91dGZpbGUubWFlPic=

>  <s_epik_input>  (1) 
W0NIMl0xW0NIMl1bQ0gyXVtDSDJdW0NIMl1bQ0gyXTE=

>  <s_glide_docking_method>  (1) 
confgen

>  <s_i_glide_gridfile>  (1) 
gpcr_5ht2c_6bqh_protein_autoprepared_prepared

>  <s_lp_Force_Field>  (1) 
S-OPLS

>  <s_lp_Variant>  (1) 
Pocket2Mol_18-1

>  <s_m_source_file>  (1) 
generated_GPCR_5HT2C_ligand_Pocket2Mol_2026-06-23_prepared.sdf

>  <GenAI_Model>  (1) 
Pocket2Mol

>  <Protein>  (1) 
GPCR_5HT2C

$$$$
Pocket2Mol_23
     RDKit          3D

  0  0  0  0  0  0  0  0  0  0999 V3000
M  V30 BEGIN CTAB
M  V30 COUNTS 14 14 0 0 1
M  V30 BEGIN ATOM
M  V30 1 C 40.133167 30.555512 49.958114 0
M  V30 2 C 40.189670 30.842038 51.450908 0
M  V30 3 O 40.045074 29.149199 49.868996 0
M  V30 4 C 40.044852 28.675196 51.168772 0
M  V30 5 O 39.629942 29.682708 52.014304 0
M  V30 6 C 39.067377 27.506057 51.273919 0
M  V30 7 H 41.013078 30.937095 49.438927 0
M  V30 8 H 39.245186 30.999983 49.509413 0
M  V30 9 H 41.222829 30.960436 51.767325 0
M  V30 10 H 39.645138 31.737746 51.738166 0
M  V30 11 H 41.063217 28.390304 51.434895 0
M  V30 12 H 38.058357 27.838757 51.027057 0
M  V30 13 H 39.072221 27.103643 52.286782 0
M  V30 14 H 39.357030 26.719428 50.578192 0
M  V30 END ATOM
M  V30 BEGIN BOND
M  V30 1 1 2 1
M  V30 2 1 3 1
M  V30 3 1 4 3
M  V30 4 1 5 2
M  V30 5 1 5 4
M  V30 6 1 6 4
M  V30 7 1 7 1
M  V30 8 1 8 1
M  V30 9 1 9 2
M  V30 10 1 10 2
M  V30 11 1 11 4
M  V30 12 1 12 6
M  V30 13 1 13 6
M  V30 14 1 14 6
M  V30 END BOND
M  V30 END CTAB
M  END
>  <i_epik_Tot_Q>  (1) 
0

>  <i_epik_Tot_abs_Q>  (1) 
0

>  <i_i_glide_confnum>  (1) 
1

>  <i_i_glide_lignum>  (1) 
26

>  <i_i_glide_posenum>  (1) 
322

>  <i_i_glide_rotatable_bonds>  (1) 
0

>  <i_lp_mmshare_version>  (1) 
72125

>  <i_m_source_file_index>  (1) 
24

>  <i_f3d_flags>  (1) 
0

>  <num_sample>  (1) 
100

>  <b_lp_Chiralities_Consistent>  (1) 
1

>  <r_epik_Charging_Adjusted_Penalty>  (1) 
0

>  <r_epik_Ionization_Penalty>  (1) 
7.9724310449397378e-14

>  <r_epik_Ionization_Penalty_Charging>  (1) 
0

>  <r_epik_Ionization_Penalty_Neutral>  (1) 
7.9724310449397378e-14

>  <r_epik_State_Penalty>  (1) 
-0

>  <r_glide_ring_energy>  (1) 
0

>  <r_i_docking_score>  (1) 
-4.6546329201352323

>  <r_i_glide_ecoul>  (1) 
-0.67392632813571562

>  <r_i_glide_eff_state_penalty>  (1) 
-0

>  <r_i_glide_einternal>  (1) 
0

>  <r_i_glide_emodel>  (1) 
-18.497916537709788

>  <r_i_glide_emodel_strain>  (1) 
0.042071248144337936

>  <r_i_glide_energy>  (1) 
-14.244598958276782

>  <r_i_glide_erotb>  (1) 
0

>  <r_i_glide_esite>  (1) 
0

>  <r_i_glide_evdw>  (1) 
-13.570672630141067

>  <r_i_glide_gscore>  (1) 
-4.6546329201352323

>  <r_i_glide_gscore_strain>  (1) 
0

>  <r_i_glide_hbond>  (1) 
0

>  <r_i_glide_ligand_efficiency>  (1) 
-0.77577215335587202

>  <r_i_glide_ligand_efficiency_ln>  (1) 
-1.6672757705097989

>  <r_i_glide_ligand_efficiency_sa>  (1) 
-1.409671555208688

>  <r_i_glide_lipo>  (1) 
-0.76545023168470505

>  <r_i_glide_metal>  (1) 
-0

>  <r_i_glide_rewards>  (1) 
-3.1095601077231163

>  <r_lp_Energy>  (1) 
-12.129052

>  <r_lp_tautomer_probability>  (1) 
1

>  <s_epik_Chemistry_Notes>  (1) 
This compound contains an acetal/aminal-like group ( X-CH(R)-Y where X, Y are N, S, or O) that may be acid/base labile, releasing an aldehyde.

>  <s_epik_cmdline>  (1) 
J2VwaWtfcHl0aG9uJywgJy1waHQnLCAnMS4wJywgJy1waCcsICc3LjQnLCAnLXRuJywgJzgnLCAnLW1hJywgJzUwMCcsICctaW1hZScsICc8aW5maWxlLm1hZT4nLCAnLW9tYWUnLCAnPG91dGZpbGUubWFlPic=

>  <s_epik_input>  (1) 
TzFbQ0gyXVtDSDJdT1tDSF0xW0NIM10=

>  <s_glide_docking_method>  (1) 
confgen

>  <s_i_glide_gridfile>  (1) 
gpcr_5ht2c_6bqh_protein_autoprepared_prepared

>  <s_lp_Force_Field>  (1) 
S-OPLS

>  <s_lp_Variant>  (1) 
Pocket2Mol_23-1

>  <s_m_source_file>  (1) 
generated_GPCR_5HT2C_ligand_Pocket2Mol_2026-06-23_prepared.sdf

>  <GenAI_Model>  (1) 
Pocket2Mol

>  <Protein>  (1) 
GPCR_5HT2C

$$$$
Pocket2Mol_77
     RDKit          3D

  0  0  0  0  0  0  0  0  0  0999 V3000
M  V30 BEGIN CTAB
M  V30 COUNTS 15 15 0 0 1
M  V30 BEGIN ATOM
M  V30 1 C 37.955355 25.805741 55.153038 0
M  V30 2 C 37.223608 24.903448 56.154901 0
M  V30 3 C 38.154414 24.759351 57.367755 0
M  V30 4 C 39.415642 25.813628 55.603748 0
M  V30 5 C 39.327626 25.710167 57.123879 0
M  V30 6 H 37.836800 25.465341 54.125011 0
M  V30 7 H 37.552467 26.817912 55.210450 0
M  V30 8 H 36.263480 25.337014 56.437474 0
M  V30 9 H 37.021902 23.924495 55.717874 0
M  V30 10 H 37.645130 24.970886 58.307773 0
M  V30 11 H 38.527445 23.737765 57.425087 0
M  V30 12 H 39.929325 24.937935 55.205764 0
M  V30 13 H 39.956840 26.700143 55.271287 0
M  V30 14 H 39.103164 26.690292 57.547135 0
M  V30 15 H 40.254863 25.357106 57.576610 0
M  V30 END ATOM
M  V30 BEGIN BOND
M  V30 1 1 2 1
M  V30 2 1 3 2
M  V30 3 1 4 1
M  V30 4 1 5 3
M  V30 5 1 5 4
M  V30 6 1 6 1
M  V30 7 1 7 1
M  V30 8 1 8 2
M  V30 9 1 9 2
M  V30 10 1 10 3
M  V30 11 1 11 3
M  V30 12 1 12 4
M  V30 13 1 13 4
M  V30 14 1 14 5
M  V30 15 1 15 5
M  V30 END BOND
M  V30 END CTAB
M  END
>  <i_epik_Tot_Q>  (1) 
0

>  <i_epik_Tot_abs_Q>  (1) 
0

>  <i_i_glide_confnum>  (1) 
3

>  <i_i_glide_lignum>  (1) 
82

>  <i_i_glide_posenum>  (1) 
387

>  <i_i_glide_rotatable_bonds>  (1) 
0

>  <i_lp_mmshare_version>  (1) 
72125

>  <i_m_source_file_index>  (1) 
78

>  <i_f3d_flags>  (1) 
0

>  <num_sample>  (1) 
100

>  <b_lp_Chiralities_Consistent>  (1) 
1

>  <r_epik_Charging_Adjusted_Penalty>  (1) 
0

>  <r_epik_Ionization_Penalty>  (1) 
0

>  <r_epik_Ionization_Penalty_Charging>  (1) 
0

>  <r_epik_Ionization_Penalty_Neutral>  (1) 
0

>  <r_epik_State_Penalty>  (1) 
-0

>  <r_glide_ring_energy>  (1) 
0.0011506089744752722

>  <r_i_docking_score>  (1) 
-4.6524257898912564

>  <r_i_glide_ecoul>  (1) 
0.11070753340210912

>  <r_i_glide_eff_state_penalty>  (1) 
-0

>  <r_i_glide_einternal>  (1) 
0

>  <r_i_glide_emodel>  (1) 
-17.003163513048751

>  <r_i_glide_emodel_strain>  (1) 
0

>  <r_i_glide_energy>  (1) 
-13.289515524541299

>  <r_i_glide_erotb>  (1) 
0

>  <r_i_glide_esite>  (1) 
0

>  <r_i_glide_evdw>  (1) 
-13.400223057943409

>  <r_i_glide_gscore>  (1) 
-4.6524257898912564

>  <r_i_glide_gscore_strain>  (1) 
0

>  <r_i_glide_hbond>  (1) 
0

>  <r_i_glide_ligand_efficiency>  (1) 
-0.93048515797825126

>  <r_i_glide_ligand_efficiency_ln>  (1) 
-1.782922585635097

>  <r_i_glide_ligand_efficiency_sa>  (1) 
-1.5911072388824763

>  <r_i_glide_lipo>  (1) 
-1.6500000000000001

>  <r_i_glide_metal>  (1) 
-0

>  <r_i_glide_rewards>  (1) 
-2.3490207670044012

>  <r_lp_Energy>  (1) 
13.274989999999999

>  <r_lp_tautomer_probability>  (1) 
1

>  <s_epik_cmdline>  (1) 
J2VwaWtfcHl0aG9uJywgJy1waHQnLCAnMS4wJywgJy1waCcsICc3LjQnLCAnLXRuJywgJzgnLCAnLW1hJywgJzUwMCcsICctaW1hZScsICc8aW5maWxlLm1hZT4nLCAnLW9tYWUnLCAnPG91dGZpbGUubWFlPic=

>  <s_epik_input>  (1) 
W0NIMl0xW0NIMl1bQ0gyXVtDSDJdW0NIMl0x

>  <s_glide_docking_method>  (1) 
confgen

>  <s_i_glide_gridfile>  (1) 
gpcr_5ht2c_6bqh_protein_autoprepared_prepared

>  <s_lp_Force_Field>  (1) 
S-OPLS

>  <s_lp_Variant>  (1) 
Pocket2Mol_77-1

>  <s_m_source_file>  (1) 
generated_GPCR_5HT2C_ligand_Pocket2Mol_2026-06-23_prepared.sdf

>  <GenAI_Model>  (1) 
Pocket2Mol

>  <Protein>  (1) 
GPCR_5HT2C

$$$$
Pocket2Mol_3
     RDKit          3D

  0  0  0  0  0  0  0  0  0  0999 V3000
M  V30 BEGIN CTAB
M  V30 COUNTS 9 9 0 0 1
M  V30 BEGIN ATOM
M  V30 1 C 40.390094 30.498874 50.450105 0
M  V30 2 O 40.146632 29.373080 49.715877 0
M  V30 3 C 39.645060 28.456268 50.595338 0
M  V30 4 C 40.045141 30.310768 51.757157 0
M  V30 5 C 39.559885 28.982342 51.851096 0
M  V30 6 H 40.801625 31.330167 49.895624 0
M  V30 7 H 39.399263 27.494876 50.167764 0
M  V30 8 H 40.133613 31.041582 52.548176 0
M  V30 9 H 39.193678 28.471785 52.729993 0
M  V30 END ATOM
M  V30 BEGIN BOND
M  V30 1 1 2 1
M  V30 2 1 3 2
M  V30 3 2 4 1
M  V30 4 2 5 3
M  V30 5 1 5 4
M  V30 6 1 6 1
M  V30 7 1 7 3
M  V30 8 1 8 4
M  V30 9 1 9 5
M  V30 END BOND
M  V30 END CTAB
M  END
>  <i_epik_Tot_Q>  (1) 
0

>  <i_epik_Tot_abs_Q>  (1) 
0

>  <i_i_glide_confnum>  (1) 
1

>  <i_i_glide_lignum>  (1) 
6

>  <i_i_glide_posenum>  (1) 
199

>  <i_i_glide_rotatable_bonds>  (1) 
0

>  <i_lp_mmshare_version>  (1) 
72125

>  <i_m_source_file_index>  (1) 
4

>  <i_f3d_flags>  (1) 
0

>  <num_sample>  (1) 
100

>  <b_lp_Chiralities_Consistent>  (1) 
1

>  <r_epik_Charging_Adjusted_Penalty>  (1) 
0

>  <r_epik_Ionization_Penalty>  (1) 
0

>  <r_epik_Ionization_Penalty_Charging>  (1) 
0

>  <r_epik_Ionization_Penalty_Neutral>  (1) 
0

>  <r_epik_State_Penalty>  (1) 
-0

>  <r_glide_ring_energy>  (1) 
0

>  <r_i_docking_score>  (1) 
-4.6446931207165569

>  <r_i_glide_ecoul>  (1) 
-0.82374745545928141

>  <r_i_glide_eff_state_penalty>  (1) 
-0

>  <r_i_glide_einternal>  (1) 
0

>  <r_i_glide_emodel>  (1) 
-17.523535778657727

>  <r_i_glide_emodel_strain>  (1) 
0

>  <r_i_glide_energy>  (1) 
-13.627793183250416

>  <r_i_glide_erotb>  (1) 
0

>  <r_i_glide_esite>  (1) 
0

>  <r_i_glide_evdw>  (1) 
-12.804045727791134

>  <r_i_glide_gscore>  (1) 
-4.6446931207165569

>  <r_i_glide_gscore_strain>  (1) 
0

>  <r_i_glide_hbond>  (1) 
0

>  <r_i_glide_ligand_efficiency>  (1) 
-0.92893862414331141

>  <r_i_glide_ligand_efficiency_ln>  (1) 
-1.7799592389550121

>  <r_i_glide_ligand_efficiency_sa>  (1) 
-1.5884627032240073

>  <r_i_glide_lipo>  (1) 
-1.2309287160081079

>  <r_i_glide_metal>  (1) 
-0

>  <r_i_glide_rewards>  (1) 
-2.6499999999999999

>  <r_lp_Energy>  (1) 
2.5980879999999997

>  <r_lp_tautomer_probability>  (1) 
1

>  <s_epik_cmdline>  (1) 
J2VwaWtfcHl0aG9uJywgJy1waHQnLCAnMS4wJywgJy1waCcsICc3LjQnLCAnLXRuJywgJzgnLCAnLW1hJywgJzUwMCcsICctaW1hZScsICc8aW5maWxlLm1hZT4nLCAnLW9tYWUnLCAnPG91dGZpbGUubWFlPic=

>  <s_epik_input>  (1) 
W2NIXTFvW2NIXVtjSF1bY0hdMQ==

>  <s_glide_docking_method>  (1) 
confgen

>  <s_i_glide_gridfile>  (1) 
gpcr_5ht2c_6bqh_protein_autoprepared_prepared

>  <s_lp_Force_Field>  (1) 
S-OPLS

>  <s_lp_Variant>  (1) 
Pocket2Mol_3-1

>  <s_m_source_file>  (1) 
generated_GPCR_5HT2C_ligand_Pocket2Mol_2026-06-23_prepared.sdf

>  <GenAI_Model>  (1) 
Pocket2Mol

>  <Protein>  (1) 
GPCR_5HT2C

$$$$
Pocket2Mol_60
     RDKit          3D

  0  0  0  0  0  0  0  0  0  0999 V3000
M  V30 BEGIN CTAB
M  V30 COUNTS 12 12 0 0 1
M  V30 BEGIN ATOM
M  V30 1 C 38.343424 27.369993 52.854704 0
M  V30 2 C 38.871489 27.676495 51.553902 0
M  V30 3 C 38.559459 28.462821 53.657310 0
M  V30 4 C 39.386018 28.941061 51.613636 0
M  V30 5 N 39.195483 29.404895 52.886876 0
M  V30 6 C 40.045639 29.793373 50.610458 0
M  V30 7 O 40.209763 29.337755 49.459309 0
M  V30 8 O 40.413577 30.936803 50.955521 0 CHG=-1
M  V30 9 H 37.859421 26.454898 53.162570 0
M  V30 10 H 38.869564 27.042632 50.677900 0
M  V30 11 H 38.320941 28.653819 54.694020 0
M  V30 12 H 39.483323 30.320200 53.207165 0
M  V30 END ATOM
M  V30 BEGIN BOND
M  V30 1 1 2 1
M  V30 2 2 3 1
M  V30 3 2 4 2
M  V30 4 1 5 3
M  V30 5 1 5 4
M  V30 6 1 6 4
M  V30 7 2 7 6
M  V30 8 1 8 6
M  V30 9 1 9 1
M  V30 10 1 10 2
M  V30 11 1 11 3
M  V30 12 1 12 5
M  V30 END BOND
M  V30 END CTAB
M  END
>  <i_epik_Tot_Q>  (1) 
-1

>  <i_epik_Tot_abs_Q>  (1) 
1

>  <i_i_glide_confnum>  (1) 
1

>  <i_i_glide_lignum>  (1) 
64

>  <i_i_glide_posenum>  (1) 
379

>  <i_i_glide_rotatable_bonds>  (1) 
1

>  <i_lp_mmshare_version>  (1) 
72125

>  <i_m_source_file_index>  (1) 
61

>  <i_f3d_flags>  (1) 
0

>  <num_sample>  (1) 
100

>  <b_lp_Chiralities_Consistent>  (1) 
1

>  <r_epik_Charging_Adjusted_Penalty>  (1) 
0.00021018459712964226

>  <r_epik_Ionization_Penalty>  (1) 
0.00021021235475979092

>  <r_epik_Ionization_Penalty_Charging>  (1) 
0.00021018459712964226

>  <r_epik_Ionization_Penalty_Neutral>  (1) 
2.7757630148672405e-08

>  <r_epik_State_Penalty>  (1) 
-0

>  <r_glide_ring_energy>  (1) 
0

>  <r_i_docking_score>  (1) 
-4.6428735348318275

>  <r_i_glide_ecoul>  (1) 
0.41804641984713548

>  <r_i_glide_eff_state_penalty>  (1) 
-0

>  <r_i_glide_einternal>  (1) 
0.010666922414110047

>  <r_i_glide_emodel>  (1) 
-20.603732172258439

>  <r_i_glide_emodel_strain>  (1) 
0

>  <r_i_glide_energy>  (1) 
-15.540358895981489

>  <r_i_glide_erotb>  (1) 
0

>  <r_i_glide_esite>  (1) 
0

>  <r_i_glide_evdw>  (1) 
-15.958405315828625

>  <r_i_glide_gscore>  (1) 
-4.6428735348318275

>  <r_i_glide_gscore_strain>  (1) 
0

>  <r_i_glide_hbond>  (1) 
0

>  <r_i_glide_ligand_efficiency>  (1) 
-0.58035919185397844

>  <r_i_glide_ligand_efficiency_ln>  (1) 
-1.5076998449203032

>  <r_i_glide_ligand_efficiency_sa>  (1) 
-1.1607183837079571

>  <r_i_glide_lipo>  (1) 
-1.2076602320174665

>  <r_i_glide_metal>  (1) 
-0

>  <r_i_glide_rewards>  (1) 
-2.7000000000000002

>  <r_lp_Energy>  (1) 
7.8081959999999997

>  <r_lp_tautomer_probability>  (1) 
1

>  <s_epik_cmdline>  (1) 
J2VwaWtfcHl0aG9uJywgJy1waHQnLCAnMS4wJywgJy1waCcsICc3LjQnLCAnLXRuJywgJzgnLCAnLW1hJywgJzUwMCcsICctaW1hZScsICc8aW5maWxlLm1hZT4nLCAnLW9tYWUnLCAnPG91dGZpbGUubWFlPic=

>  <s_epik_input>  (1) 
W25IXTFbY0hdW2NIXVtjSF1jMUMoPU8pW09IXQ==

>  <s_glide_docking_method>  (1) 
confgen

>  <s_i_glide_gridfile>  (1) 
gpcr_5ht2c_6bqh_protein_autoprepared_prepared

>  <s_lp_Force_Field>  (1) 
S-OPLS

>  <s_lp_Variant>  (1) 
Pocket2Mol_60-1

>  <s_m_source_file>  (1) 
generated_GPCR_5HT2C_ligand_Pocket2Mol_2026-06-23_prepared.sdf

>  <GenAI_Model>  (1) 
Pocket2Mol

>  <Protein>  (1) 
GPCR_5HT2C

$$$$
Pocket2Mol_19
     RDKit          3D

  0  0  0  0  0  0  0  0  0  0999 V3000
M  V30 BEGIN CTAB
M  V30 COUNTS 10 10 0 0 1
M  V30 BEGIN ATOM
M  V30 1 C 39.997528 30.537782 52.434989 0
M  V30 2 O 39.302375 29.213003 52.551569 0
M  V30 3 C 39.360035 28.526217 51.326585 0
M  V30 4 C 40.398308 30.429771 50.993687 0
M  V30 5 C 40.045222 29.338839 50.407756 0
M  V30 6 O 38.894333 27.411916 51.104234 0
M  V30 7 H 40.845104 30.616362 53.113090 0
M  V30 8 H 40.941152 31.227054 50.508310 0
M  V30 9 H 40.229760 29.062318 49.380597 0
M  V30 10 H 39.313399 31.370752 52.599619 0
M  V30 END ATOM
M  V30 BEGIN BOND
M  V30 1 1 2 1
M  V30 2 1 3 2
M  V30 3 1 4 1
M  V30 4 1 5 3
M  V30 5 2 5 4
M  V30 6 2 6 3
M  V30 7 1 7 1
M  V30 8 1 8 4
M  V30 9 1 9 5
M  V30 10 1 10 1
M  V30 END BOND
M  V30 END CTAB
M  END
>  <i_epik_Tot_Q>  (1) 
0

>  <i_epik_Tot_abs_Q>  (1) 
0

>  <i_i_glide_confnum>  (1) 
1

>  <i_i_glide_lignum>  (1) 
22

>  <i_i_glide_posenum>  (1) 
196

>  <i_i_glide_rotatable_bonds>  (1) 
0

>  <i_lp_mmshare_version>  (1) 
72125

>  <i_m_source_file_index>  (1) 
20

>  <i_f3d_flags>  (1) 
0

>  <num_sample>  (1) 
100

>  <b_lp_Chiralities_Consistent>  (1) 
1

>  <r_epik_Charging_Adjusted_Penalty>  (1) 
0

>  <r_epik_Ionization_Penalty>  (1) 
0

>  <r_epik_Ionization_Penalty_Charging>  (1) 
0

>  <r_epik_Ionization_Penalty_Neutral>  (1) 
0

>  <r_epik_State_Penalty>  (1) 
-0

>  <r_glide_ring_energy>  (1) 
0

>  <r_i_docking_score>  (1) 
-4.6405532626867307

>  <r_i_glide_ecoul>  (1) 
0.20476034598650408

>  <r_i_glide_eff_state_penalty>  (1) 
-0

>  <r_i_glide_einternal>  (1) 
0

>  <r_i_glide_emodel>  (1) 
-20.064369462814366

>  <r_i_glide_emodel_strain>  (1) 
0

>  <r_i_glide_energy>  (1) 
-15.386067513136968

>  <r_i_glide_erotb>  (1) 
0

>  <r_i_glide_esite>  (1) 
0

>  <r_i_glide_evdw>  (1) 
-15.590827859123472

>  <r_i_glide_gscore>  (1) 
-4.6405532626867307

>  <r_i_glide_gscore_strain>  (1) 
0

>  <r_i_glide_hbond>  (1) 
0

>  <r_i_glide_ligand_efficiency>  (1) 
-0.77342554378112183

>  <r_i_glide_ligand_efficiency_ln>  (1) 
-1.6622324787779381

>  <r_i_glide_ligand_efficiency_sa>  (1) 
-1.4054074826270722

>  <r_i_glide_lipo>  (1) 
-0.85704102714611596

>  <r_i_glide_metal>  (1) 
-0

>  <r_i_glide_rewards>  (1) 
-3.0346848944824165

>  <r_lp_Energy>  (1) 
-7.0611199999999998

>  <r_lp_tautomer_probability>  (1) 
1

>  <s_epik_Chemistry_Notes>  (1) 
This compound has an ester and may undergo hydrolysis at high or low pH.

>  <s_epik_cmdline>  (1) 
J2VwaWtfcHl0aG9uJywgJy1waHQnLCAnMS4wJywgJy1waCcsICc3LjQnLCAnLXRuJywgJzgnLCAnLW1hJywgJzUwMCcsICctaW1hZScsICc8aW5maWxlLm1hZT4nLCAnLW9tYWUnLCAnPG91dGZpbGUubWFlPic=

>  <s_epik_input>  (1) 
W0NIMl0xW0NIXT1bQ0hdT0MxPU8=

>  <s_glide_docking_method>  (1) 
confgen

>  <s_i_glide_gridfile>  (1) 
gpcr_5ht2c_6bqh_protein_autoprepared_prepared

>  <s_lp_Force_Field>  (1) 
S-OPLS

>  <s_lp_Variant>  (1) 
Pocket2Mol_19-1

>  <s_m_source_file>  (1) 
generated_GPCR_5HT2C_ligand_Pocket2Mol_2026-06-23_prepared.sdf

>  <GenAI_Model>  (1) 
Pocket2Mol

>  <Protein>  (1) 
GPCR_5HT2C

$$$$
Pocket2Mol_32
     RDKit          3D

  0  0  0  0  0  0  0  0  0  0999 V3000
M  V30 BEGIN CTAB
M  V30 COUNTS 15 15 0 0 1
M  V30 BEGIN ATOM
M  V30 1 C 40.136132 30.680049 49.903794 0
M  V30 2 C 40.210770 30.958300 51.399953 0
M  V30 3 O 39.645006 29.805928 51.960794 0
M  V30 4 O 40.045168 29.270204 49.821558 0
M  V30 5 C 40.061396 28.794842 51.124045 0
M  V30 6 C 39.068515 27.637772 51.251370 0
M  V30 7 O 39.244779 26.937708 52.463406 0
M  V30 8 H 41.007938 31.063090 49.372188 0
M  V30 9 H 39.245140 31.130609 49.468537 0
M  V30 10 H 41.245137 31.074259 51.718627 0
M  V30 11 H 39.644958 31.832572 51.701885 0
M  V30 12 H 41.086150 28.509118 51.367697 0
M  V30 13 H 39.233519 26.944464 50.425672 0
M  V30 14 H 38.050702 28.020987 51.175658 0
M  V30 15 H 40.100295 26.539060 52.462488 0
M  V30 END ATOM
M  V30 BEGIN BOND
M  V30 1 1 2 1
M  V30 2 1 3 2
M  V30 3 1 4 1
M  V30 4 1 5 3
M  V30 5 1 5 4
M  V30 6 1 6 5
M  V30 7 1 7 6
M  V30 8 1 8 1
M  V30 9 1 9 1
M  V30 10 1 10 2
M  V30 11 1 11 2
M  V30 12 1 12 5
M  V30 13 1 13 6
M  V30 14 1 14 6
M  V30 15 1 15 7
M  V30 END BOND
M  V30 END CTAB
M  END
>  <i_epik_Tot_Q>  (1) 
0

>  <i_epik_Tot_abs_Q>  (1) 
0

>  <i_i_glide_confnum>  (1) 
1

>  <i_i_glide_lignum>  (1) 
35

>  <i_i_glide_posenum>  (1) 
389

>  <i_i_glide_rotatable_bonds>  (1) 
2

>  <i_lp_mmshare_version>  (1) 
72125

>  <i_m_source_file_index>  (1) 
33

>  <i_f3d_flags>  (1) 
0

>  <num_sample>  (1) 
100

>  <b_lp_Chiralities_Consistent>  (1) 
1

>  <r_epik_Charging_Adjusted_Penalty>  (1) 
0

>  <r_epik_Ionization_Penalty>  (1) 
3.4422651255072934e-07

>  <r_epik_Ionization_Penalty_Charging>  (1) 
0

>  <r_epik_Ionization_Penalty_Neutral>  (1) 
3.4422651255072934e-07

>  <r_epik_State_Penalty>  (1) 
-0

>  <r_glide_ring_energy>  (1) 
0

>  <r_i_docking_score>  (1) 
-4.6382077807341897

>  <r_i_glide_ecoul>  (1) 
-0.22166208706660173

>  <r_i_glide_eff_state_penalty>  (1) 
-0

>  <r_i_glide_einternal>  (1) 
0.75311984252095909

>  <r_i_glide_emodel>  (1) 
-19.984988433822849

>  <r_i_glide_emodel_strain>  (1) 
0.052986774800444891

>  <r_i_glide_energy>  (1) 
-15.302566494780347

>  <r_i_glide_erotb>  (1) 
0

>  <r_i_glide_esite>  (1) 
0

>  <r_i_glide_evdw>  (1) 
-15.080904407713746

>  <r_i_glide_gscore>  (1) 
-4.6382077807341897

>  <r_i_glide_gscore_strain>  (1) 
0

>  <r_i_glide_hbond>  (1) 
0

>  <r_i_glide_ligand_efficiency>  (1) 
-0.66260111153345569

>  <r_i_glide_ligand_efficiency_ln>  (1) 
-1.5744566351494318

>  <r_i_glide_ligand_efficiency_sa>  (1) 
-1.267510327991993

>  <r_i_glide_lipo>  (1) 
-0.75091324728851172

>  <r_i_glide_metal>  (1) 
-0

>  <r_i_glide_rewards>  (1) 
-3.1000000000000001

>  <r_lp_Energy>  (1) 
-10.260740999999999

>  <r_lp_tautomer_probability>  (1) 
1

>  <s_epik_Chemistry_Notes>  (1) 
This compound contains an acetal/aminal-like group ( X-CH(R)-Y where X, Y are N, S, or O) that may be acid/base labile, releasing an aldehyde.

>  <s_epik_cmdline>  (1) 
J2VwaWtfcHl0aG9uJywgJy1waHQnLCAnMS4wJywgJy1waCcsICc3LjQnLCAnLXRuJywgJzgnLCAnLW1hJywgJzUwMCcsICctaW1hZScsICc8aW5maWxlLm1hZT4nLCAnLW9tYWUnLCAnPG91dGZpbGUubWFlPic=

>  <s_epik_input>  (1) 
TzFbQ0gyXVtDSDJdT1tDSF0xW0NIMl1bT0hd

>  <s_glide_docking_method>  (1) 
confgen

>  <s_i_glide_gridfile>  (1) 
gpcr_5ht2c_6bqh_protein_autoprepared_prepared

>  <s_lp_Force_Field>  (1) 
S-OPLS

>  <s_lp_Variant>  (1) 
Pocket2Mol_32-1

>  <s_m_source_file>  (1) 
generated_GPCR_5HT2C_ligand_Pocket2Mol_2026-06-23_prepared.sdf

>  <GenAI_Model>  (1) 
Pocket2Mol

>  <Protein>  (1) 
GPCR_5HT2C

$$$$
Pocket2Mol_8
     RDKit          3D

  0  0  0  0  0  0  0  0  0  0999 V3000
M  V30 BEGIN CTAB
M  V30 COUNTS 12 12 0 0 1
M  V30 BEGIN ATOM
M  V30 1 C 38.044737 26.991096 53.764072 0
M  V30 2 C 38.445141 27.588066 52.552544 0
M  V30 3 C 38.045138 27.744179 54.954084 0
M  V30 4 C 38.444560 29.095009 54.933020 0
M  V30 5 C 38.845137 29.691874 53.721980 0
M  V30 6 C 38.845546 28.937753 52.531336 0
M  V30 7 H 37.736272 25.955960 53.779821 0
M  V30 8 H 38.443322 27.010247 51.639266 0
M  V30 9 H 37.737638 27.286418 55.882864 0
M  V30 10 H 38.442922 29.673314 55.845675 0
M  V30 11 H 39.151445 30.727995 53.705773 0
M  V30 12 H 39.152467 29.395089 51.602023 0
M  V30 END ATOM
M  V30 BEGIN BOND
M  V30 1 1 2 1
M  V30 2 2 3 1
M  V30 3 1 4 3
M  V30 4 2 5 4
M  V30 5 2 6 2
M  V30 6 1 6 5
M  V30 7 1 7 1
M  V30 8 1 8 2
M  V30 9 1 9 3
M  V30 10 1 10 4
M  V30 11 1 11 5
M  V30 12 1 12 6
M  V30 END BOND
M  V30 END CTAB
M  END
>  <i_epik_Tot_Q>  (1) 
0

>  <i_epik_Tot_abs_Q>  (1) 
0

>  <i_i_glide_confnum>  (1) 
1

>  <i_i_glide_lignum>  (1) 
11

>  <i_i_glide_posenum>  (1) 
267

>  <i_i_glide_rotatable_bonds>  (1) 
0

>  <i_lp_mmshare_version>  (1) 
72125

>  <i_m_source_file_index>  (1) 
9

>  <i_f3d_flags>  (1) 
0

>  <num_sample>  (1) 
100

>  <b_lp_Chiralities_Consistent>  (1) 
1

>  <r_epik_Charging_Adjusted_Penalty>  (1) 
0

>  <r_epik_Ionization_Penalty>  (1) 
0

>  <r_epik_Ionization_Penalty_Charging>  (1) 
0

>  <r_epik_Ionization_Penalty_Neutral>  (1) 
0

>  <r_epik_State_Penalty>  (1) 
-0

>  <r_glide_ring_energy>  (1) 
0

>  <r_i_docking_score>  (1) 
-4.6314578917908626

>  <r_i_glide_ecoul>  (1) 
-0.56712323361676775

>  <r_i_glide_eff_state_penalty>  (1) 
-0

>  <r_i_glide_einternal>  (1) 
0

>  <r_i_glide_emodel>  (1) 
-17.102451957925627

>  <r_i_glide_emodel_strain>  (1) 
0

>  <r_i_glide_energy>  (1) 
-12.719233760872461

>  <r_i_glide_erotb>  (1) 
0

>  <r_i_glide_esite>  (1) 
0

>  <r_i_glide_evdw>  (1) 
-12.152110527255694

>  <r_i_glide_gscore>  (1) 
-4.6314578917908626

>  <r_i_glide_gscore_strain>  (1) 
0

>  <r_i_glide_hbond>  (1) 
0

>  <r_i_glide_ligand_efficiency>  (1) 
-0.77190964863181044

>  <r_i_glide_ligand_efficiency_ln>  (1) 
-1.6589745437745393

>  <r_i_glide_ligand_efficiency_sa>  (1) 
-1.4026529183346841

>  <r_i_glide_lipo>  (1) 
-1.5785989402376932

>  <r_i_glide_metal>  (1) 
-0

>  <r_i_glide_rewards>  (1) 
-2.3601849401478687

>  <r_lp_Energy>  (1) 
6.1542199999999996

>  <r_lp_tautomer_probability>  (1) 
1

>  <s_epik_cmdline>  (1) 
J2VwaWtfcHl0aG9uJywgJy1waHQnLCAnMS4wJywgJy1waCcsICc3LjQnLCAnLXRuJywgJzgnLCAnLW1hJywgJzUwMCcsICctaW1hZScsICc8aW5maWxlLm1hZT4nLCAnLW9tYWUnLCAnPG91dGZpbGUubWFlPic=

>  <s_epik_input>  (1) 
W2NIXTFbY0hdW2NIXVtjSF1bY0hdW2NIXTE=

>  <s_glide_docking_method>  (1) 
confgen

>  <s_i_glide_gridfile>  (1) 
gpcr_5ht2c_6bqh_protein_autoprepared_prepared

>  <s_lp_Force_Field>  (1) 
S-OPLS

>  <s_lp_Variant>  (1) 
Pocket2Mol_8-1

>  <s_m_source_file>  (1) 
generated_GPCR_5HT2C_ligand_Pocket2Mol_2026-06-23_prepared.sdf

>  <GenAI_Model>  (1) 
Pocket2Mol

>  <Protein>  (1) 
GPCR_5HT2C

$$$$
Pocket2Mol_19
     RDKit          3D

  0  0  0  0  0  0  0  0  0  0999 V3000
M  V30 BEGIN CTAB
M  V30 COUNTS 10 10 0 0 1
M  V30 BEGIN ATOM
M  V30 1 C 40.386959 30.618577 50.266420 0
M  V30 2 O 40.045137 29.218976 49.862421 0
M  V30 3 C 39.596847 28.488579 50.974194 0
M  V30 4 C 40.045138 30.497549 51.719676 0
M  V30 5 C 39.620907 29.339595 52.087641 0
M  V30 6 O 39.245136 27.314046 50.967762 0
M  V30 7 H 39.760409 31.354189 49.762245 0
M  V30 8 H 40.157423 31.338230 52.387610 0
M  V30 9 H 39.322191 29.040072 53.081608 0
M  V30 10 H 41.442759 30.842924 50.112937 0
M  V30 END ATOM
M  V30 BEGIN BOND
M  V30 1 1 2 1
M  V30 2 1 3 2
M  V30 3 1 4 1
M  V30 4 1 5 3
M  V30 5 2 5 4
M  V30 6 2 6 3
M  V30 7 1 7 1
M  V30 8 1 8 4
M  V30 9 1 9 5
M  V30 10 1 10 1
M  V30 END BOND
M  V30 END CTAB
M  END
>  <i_epik_Tot_Q>  (1) 
0

>  <i_epik_Tot_abs_Q>  (1) 
0

>  <i_i_glide_confnum>  (1) 
1

>  <i_i_glide_lignum>  (1) 
22

>  <i_i_glide_posenum>  (1) 
330

>  <i_i_glide_rotatable_bonds>  (1) 
0

>  <i_lp_mmshare_version>  (1) 
72125

>  <i_m_source_file_index>  (1) 
20

>  <i_f3d_flags>  (1) 
0

>  <num_sample>  (1) 
100

>  <b_lp_Chiralities_Consistent>  (1) 
1

>  <r_epik_Charging_Adjusted_Penalty>  (1) 
0

>  <r_epik_Ionization_Penalty>  (1) 
0

>  <r_epik_Ionization_Penalty_Charging>  (1) 
0

>  <r_epik_Ionization_Penalty_Neutral>  (1) 
0

>  <r_epik_State_Penalty>  (1) 
-0

>  <r_glide_ring_energy>  (1) 
0

>  <r_i_docking_score>  (1) 
-4.6269492893786097

>  <r_i_glide_ecoul>  (1) 
0.09622745329052293

>  <r_i_glide_eff_state_penalty>  (1) 
-0

>  <r_i_glide_einternal>  (1) 
0

>  <r_i_glide_emodel>  (1) 
-21.211484748214403

>  <r_i_glide_emodel_strain>  (1) 
0

>  <r_i_glide_energy>  (1) 
-16.546897433678136

>  <r_i_glide_erotb>  (1) 
0

>  <r_i_glide_esite>  (1) 
0

>  <r_i_glide_evdw>  (1) 
-16.643124886968661

>  <r_i_glide_gscore>  (1) 
-4.6269492893786097

>  <r_i_glide_gscore_strain>  (1) 
0

>  <r_i_glide_hbond>  (1) 
0

>  <r_i_glide_ligand_efficiency>  (1) 
-0.77115821489643499

>  <r_i_glide_ligand_efficiency_ln>  (1) 
-1.6573595757008395

>  <r_i_glide_ligand_efficiency_sa>  (1) 
-1.4012874726199847

>  <r_i_glide_lipo>  (1) 
-0.84812985759762216

>  <r_i_glide_metal>  (1) 
-0

>  <r_i_glide_rewards>  (1) 
-2.9610973054261329

>  <r_lp_Energy>  (1) 
-7.0611199999999998

>  <r_lp_tautomer_probability>  (1) 
1

>  <s_epik_Chemistry_Notes>  (1) 
This compound has an ester and may undergo hydrolysis at high or low pH.

>  <s_epik_cmdline>  (1) 
J2VwaWtfcHl0aG9uJywgJy1waHQnLCAnMS4wJywgJy1waCcsICc3LjQnLCAnLXRuJywgJzgnLCAnLW1hJywgJzUwMCcsICctaW1hZScsICc8aW5maWxlLm1hZT4nLCAnLW9tYWUnLCAnPG91dGZpbGUubWFlPic=

>  <s_epik_input>  (1) 
W0NIMl0xW0NIXT1bQ0hdT0MxPU8=

>  <s_glide_docking_method>  (1) 
confgen

>  <s_i_glide_gridfile>  (1) 
gpcr_5ht2c_6bqh_protein_autoprepared_prepared

>  <s_lp_Force_Field>  (1) 
S-OPLS

>  <s_lp_Variant>  (1) 
Pocket2Mol_19-1

>  <s_m_source_file>  (1) 
generated_GPCR_5HT2C_ligand_Pocket2Mol_2026-06-23_prepared.sdf

>  <GenAI_Model>  (1) 
Pocket2Mol

>  <Protein>  (1) 
GPCR_5HT2C

$$$$
Pocket2Mol_3
     RDKit          3D

  0  0  0  0  0  0  0  0  0  0999 V3000
M  V30 BEGIN CTAB
M  V30 COUNTS 9 9 0 0 1
M  V30 BEGIN ATOM
M  V30 1 C 40.033547 29.733271 51.511366 0
M  V30 2 O 40.045138 28.789274 50.523385 0
M  V30 3 C 39.245133 27.775361 50.967760 0
M  V30 4 C 39.245140 29.336174 52.554165 0
M  V30 5 C 38.732252 28.063191 52.199544 0
M  V30 6 H 40.629450 30.613230 51.314975 0
M  V30 7 H 39.147254 26.937020 50.292919 0
M  V30 8 H 39.061722 29.894757 53.459666 0
M  V30 9 H 38.068831 27.432972 52.773705 0
M  V30 END ATOM
M  V30 BEGIN BOND
M  V30 1 1 2 1
M  V30 2 1 3 2
M  V30 3 2 4 1
M  V30 4 2 5 3
M  V30 5 1 5 4
M  V30 6 1 6 1
M  V30 7 1 7 3
M  V30 8 1 8 4
M  V30 9 1 9 5
M  V30 END BOND
M  V30 END CTAB
M  END
>  <i_epik_Tot_Q>  (1) 
0

>  <i_epik_Tot_abs_Q>  (1) 
0

>  <i_i_glide_confnum>  (1) 
1

>  <i_i_glide_lignum>  (1) 
6

>  <i_i_glide_posenum>  (1) 
221

>  <i_i_glide_rotatable_bonds>  (1) 
0

>  <i_lp_mmshare_version>  (1) 
72125

>  <i_m_source_file_index>  (1) 
4

>  <i_f3d_flags>  (1) 
0

>  <num_sample>  (1) 
100

>  <b_lp_Chiralities_Consistent>  (1) 
1

>  <r_epik_Charging_Adjusted_Penalty>  (1) 
0

>  <r_epik_Ionization_Penalty>  (1) 
0

>  <r_epik_Ionization_Penalty_Charging>  (1) 
0

>  <r_epik_Ionization_Penalty_Neutral>  (1) 
0

>  <r_epik_State_Penalty>  (1) 
-0

>  <r_glide_ring_energy>  (1) 
0

>  <r_i_docking_score>  (1) 
-4.6086261975034919

>  <r_i_glide_ecoul>  (1) 
-0.88703970315867942

>  <r_i_glide_eff_state_penalty>  (1) 
-0

>  <r_i_glide_einternal>  (1) 
0

>  <r_i_glide_emodel>  (1) 
-17.75088913128257

>  <r_i_glide_emodel_strain>  (1) 
0

>  <r_i_glide_energy>  (1) 
-13.885397716178156

>  <r_i_glide_erotb>  (1) 
0

>  <r_i_glide_esite>  (1) 
0

>  <r_i_glide_evdw>  (1) 
-12.998358013019477

>  <r_i_glide_gscore>  (1) 
-4.6086261975034919

>  <r_i_glide_gscore_strain>  (1) 
0

>  <r_i_glide_hbond>  (1) 
0

>  <r_i_glide_ligand_efficiency>  (1) 
-0.9217252395006984

>  <r_i_glide_ligand_efficiency_ln>  (1) 
-1.7661375177938361

>  <r_i_glide_ligand_efficiency_sa>  (1) 
-1.576127988991012

>  <r_i_glide_lipo>  (1) 
-1.2666019530494341

>  <r_i_glide_metal>  (1) 
-0

>  <r_i_glide_rewards>  (1) 
-2.5590503883292817

>  <r_lp_Energy>  (1) 
2.5980879999999997

>  <r_lp_tautomer_probability>  (1) 
1

>  <s_epik_cmdline>  (1) 
J2VwaWtfcHl0aG9uJywgJy1waHQnLCAnMS4wJywgJy1waCcsICc3LjQnLCAnLXRuJywgJzgnLCAnLW1hJywgJzUwMCcsICctaW1hZScsICc8aW5maWxlLm1hZT4nLCAnLW9tYWUnLCAnPG91dGZpbGUubWFlPic=

>  <s_epik_input>  (1) 
W2NIXTFvW2NIXVtjSF1bY0hdMQ==

>  <s_glide_docking_method>  (1) 
confgen

>  <s_i_glide_gridfile>  (1) 
gpcr_5ht2c_6bqh_protein_autoprepared_prepared

>  <s_lp_Force_Field>  (1) 
S-OPLS

>  <s_lp_Variant>  (1) 
Pocket2Mol_3-1

>  <s_m_source_file>  (1) 
generated_GPCR_5HT2C_ligand_Pocket2Mol_2026-06-23_prepared.sdf

>  <GenAI_Model>  (1) 
Pocket2Mol

>  <Protein>  (1) 
GPCR_5HT2C

$$$$
Pocket2Mol_99
     RDKit          3D

  0  0  0  0  0  0  0  0  0  0999 V3000
M  V30 BEGIN CTAB
M  V30 COUNTS 13 13 0 0 1
M  V30 BEGIN ATOM
M  V30 1 C 39.645137 29.981913 52.441256 0
M  V30 2 O 38.587745 29.046221 52.579962 0
M  V30 3 C 38.964370 27.879370 51.869591 0
M  V30 4 C 40.113835 29.811105 50.996271 0
M  V30 5 C 39.638862 28.417469 50.609907 0
M  V30 6 H 39.318319 30.997957 52.661543 0
M  V30 7 H 40.445128 29.737764 53.135662 0
M  V30 8 H 39.664202 27.293540 52.467930 0
M  V30 9 H 38.100087 27.253206 51.649003 0
M  V30 10 H 39.646084 30.556241 50.350706 0
M  V30 11 H 41.195576 29.922208 50.910245 0
M  V30 12 H 40.445066 27.762845 50.283417 0
M  V30 13 H 38.918202 28.490282 49.795208 0
M  V30 END ATOM
M  V30 BEGIN BOND
M  V30 1 1 2 1
M  V30 2 1 3 2
M  V30 3 1 4 1
M  V30 4 1 5 3
M  V30 5 1 5 4
M  V30 6 1 6 1
M  V30 7 1 7 1
M  V30 8 1 8 3
M  V30 9 1 9 3
M  V30 10 1 10 4
M  V30 11 1 11 4
M  V30 12 1 12 5
M  V30 13 1 13 5
M  V30 END BOND
M  V30 END CTAB
M  END
>  <i_epik_Tot_Q>  (1) 
0

>  <i_epik_Tot_abs_Q>  (1) 
0

>  <i_i_glide_confnum>  (1) 
2

>  <i_i_glide_lignum>  (1) 
104

>  <i_i_glide_posenum>  (1) 
65

>  <i_i_glide_rotatable_bonds>  (1) 
0

>  <i_lp_mmshare_version>  (1) 
72125

>  <i_m_source_file_index>  (1) 
100

>  <i_f3d_flags>  (1) 
0

>  <num_sample>  (1) 
100

>  <b_lp_Chiralities_Consistent>  (1) 
1

>  <r_epik_Charging_Adjusted_Penalty>  (1) 
0

>  <r_epik_Ionization_Penalty>  (1) 
1.3889264151150229e-11

>  <r_epik_Ionization_Penalty_Charging>  (1) 
0

>  <r_epik_Ionization_Penalty_Neutral>  (1) 
1.3889264151150229e-11

>  <r_epik_State_Penalty>  (1) 
-0

>  <r_glide_ring_energy>  (1) 
9.8467329014132268e-05

>  <r_i_docking_score>  (1) 
-4.6063588841386363

>  <r_i_glide_ecoul>  (1) 
-0.6775500354882602

>  <r_i_glide_eff_state_penalty>  (1) 
-0

>  <r_i_glide_einternal>  (1) 
0

>  <r_i_glide_emodel>  (1) 
-17.129038219962752

>  <r_i_glide_emodel_strain>  (1) 
0

>  <r_i_glide_energy>  (1) 
-13.368846638715384

>  <r_i_glide_erotb>  (1) 
0

>  <r_i_glide_esite>  (1) 
0

>  <r_i_glide_evdw>  (1) 
-12.691296603227125

>  <r_i_glide_gscore>  (1) 
-4.6063588841386363

>  <r_i_glide_gscore_strain>  (1) 
0

>  <r_i_glide_hbond>  (1) 
0

>  <r_i_glide_ligand_efficiency>  (1) 
-0.92127177682772721

>  <r_i_glide_ligand_efficiency_ln>  (1) 
-1.7652686282318153

>  <r_i_glide_ligand_efficiency_sa>  (1) 
-1.5753525787275156

>  <r_i_glide_lipo>  (1) 
-1.3200000000000001

>  <r_i_glide_metal>  (1) 
-0

>  <r_i_glide_rewards>  (1) 
-2.5501615486540405

>  <r_lp_Energy>  (1) 
3.9174029999999997

>  <r_lp_tautomer_probability>  (1) 
1

>  <s_epik_cmdline>  (1) 
J2VwaWtfcHl0aG9uJywgJy1waHQnLCAnMS4wJywgJy1waCcsICc3LjQnLCAnLXRuJywgJzgnLCAnLW1hJywgJzUwMCcsICctaW1hZScsICc8aW5maWxlLm1hZT4nLCAnLW9tYWUnLCAnPG91dGZpbGUubWFlPic=

>  <s_epik_input>  (1) 
W0NIMl0xT1tDSDJdW0NIMl1bQ0gyXTE=

>  <s_glide_docking_method>  (1) 
confgen

>  <s_i_glide_gridfile>  (1) 
gpcr_5ht2c_6bqh_protein_autoprepared_prepared

>  <s_lp_Force_Field>  (1) 
S-OPLS

>  <s_lp_Variant>  (1) 
Pocket2Mol_99-1

>  <s_m_source_file>  (1) 
generated_GPCR_5HT2C_ligand_Pocket2Mol_2026-06-23_prepared.sdf

>  <GenAI_Model>  (1) 
Pocket2Mol

>  <Protein>  (1) 
GPCR_5HT2C

$$$$
Pocket2Mol_37
     RDKit          3D

  0  0  0  0  0  0  0  0  0  0999 V3000
M  V30 BEGIN CTAB
M  V30 COUNTS 11 11 0 0 1
M  V30 BEGIN ATOM
M  V30 1 C 37.530147 34.541432 60.847682 0
M  V30 2 O 37.137873 33.325497 61.360556 0
M  V30 3 C 36.000375 32.624698 60.910830 0
M  V30 4 O 35.660361 31.536516 61.367760 0
M  V30 5 C 35.245917 33.337567 59.822351 0
M  V30 6 C 36.841644 35.141267 59.883787 0
M  V30 7 C 35.671511 34.525232 59.360899 0
M  V30 8 H 38.427960 34.924802 61.309227 0
M  V30 9 H 34.358077 32.871506 59.420118 0
M  V30 10 H 37.169472 36.094943 59.496461 0
M  V30 11 H 35.115899 35.019585 58.576924 0
M  V30 END ATOM
M  V30 BEGIN BOND
M  V30 1 1 2 1
M  V30 2 1 3 2
M  V30 3 2 4 3
M  V30 4 1 5 3
M  V30 5 2 6 1
M  V30 6 2 7 5
M  V30 7 1 7 6
M  V30 8 1 8 1
M  V30 9 1 9 5
M  V30 10 1 10 6
M  V30 11 1 11 7
M  V30 END BOND
M  V30 END CTAB
M  END
>  <i_epik_Tot_Q>  (1) 
0

>  <i_epik_Tot_abs_Q>  (1) 
0

>  <i_i_glide_confnum>  (1) 
1

>  <i_i_glide_lignum>  (1) 
40

>  <i_i_glide_posenum>  (1) 
278

>  <i_i_glide_rotatable_bonds>  (1) 
0

>  <i_lp_mmshare_version>  (1) 
72125

>  <i_m_source_file_index>  (1) 
38

>  <i_f3d_flags>  (1) 
0

>  <num_sample>  (1) 
100

>  <b_lp_Chiralities_Consistent>  (1) 
1

>  <r_epik_Charging_Adjusted_Penalty>  (1) 
0

>  <r_epik_Ionization_Penalty>  (1) 
2.4984917370333966e-09

>  <r_epik_Ionization_Penalty_Charging>  (1) 
0

>  <r_epik_Ionization_Penalty_Neutral>  (1) 
2.4984917370333966e-09

>  <r_epik_State_Penalty>  (1) 
-0

>  <r_glide_ring_energy>  (1) 
0

>  <r_i_docking_score>  (1) 
-4.6058030917312891

>  <r_i_glide_ecoul>  (1) 
-2.8517951796905452

>  <r_i_glide_eff_state_penalty>  (1) 
-0

>  <r_i_glide_einternal>  (1) 
0

>  <r_i_glide_emodel>  (1) 
-20.877393160798754

>  <r_i_glide_emodel_strain>  (1) 
0

>  <r_i_glide_energy>  (1) 
-16.004968109527521

>  <r_i_glide_erotb>  (1) 
0

>  <r_i_glide_esite>  (1) 
0

>  <r_i_glide_evdw>  (1) 
-13.153172929836975

>  <r_i_glide_gscore>  (1) 
-4.6058030917312891

>  <r_i_glide_gscore_strain>  (1) 
0

>  <r_i_glide_hbond>  (1) 
-0.32000000000000001

>  <r_i_glide_ligand_efficiency>  (1) 
-0.65797187024732706

>  <r_i_glide_ligand_efficiency_ln>  (1) 
-1.563456744669645

>  <r_i_glide_ligand_efficiency_sa>  (1) 
-1.2586549079831804

>  <r_i_glide_lipo>  (1) 
-0.28370850161919203

>  <r_i_glide_metal>  (1) 
-0

>  <r_i_glide_rewards>  (1) 
-2.9166666666666665

>  <r_lp_Energy>  (1) 
11.255118999999999

>  <r_lp_tautomer_probability>  (1) 
1

>  <s_epik_cmdline>  (1) 
J2VwaWtfcHl0aG9uJywgJy1waHQnLCAnMS4wJywgJy1waCcsICc3LjQnLCAnLXRuJywgJzgnLCAnLW1hJywgJzUwMCcsICctaW1hZScsICc8aW5maWxlLm1hZT4nLCAnLW9tYWUnLCAnPG91dGZpbGUubWFlPic=

>  <s_epik_input>  (1) 
W2NIXTFbY0hdW2NIXVtjSF1vYzE9Tw==

>  <s_glide_docking_method>  (1) 
confgen

>  <s_i_glide_gridfile>  (1) 
gpcr_5ht2c_6bqh_protein_autoprepared_prepared

>  <s_lp_Force_Field>  (1) 
S-OPLS

>  <s_lp_Variant>  (1) 
Pocket2Mol_37-1

>  <s_m_source_file>  (1) 
generated_GPCR_5HT2C_ligand_Pocket2Mol_2026-06-23_prepared.sdf

>  <GenAI_Model>  (1) 
Pocket2Mol

>  <Protein>  (1) 
GPCR_5HT2C

$$$$
Pocket2Mol_8
     RDKit          3D

  0  0  0  0  0  0  0  0  0  0999 V3000
M  V30 BEGIN CTAB
M  V30 COUNTS 12 12 0 0 1
M  V30 BEGIN ATOM
M  V30 1 C 38.389334 28.878950 54.946869 0
M  V30 2 C 39.419996 28.379212 55.767754 0
M  V30 3 C 37.645258 27.998831 54.136539 0
M  V30 4 C 37.931152 26.619586 54.147747 0
M  V30 5 C 38.962325 26.119700 54.967760 0
M  V30 6 C 39.706693 26.999349 55.777880 0
M  V30 7 H 38.169151 29.936975 54.939583 0
M  V30 8 H 39.990396 29.053929 56.389184 0
M  V30 9 H 36.854859 28.381205 53.507354 0
M  V30 10 H 37.359441 25.945363 53.526554 0
M  V30 11 H 39.181907 25.061808 54.975395 0
M  V30 12 H 40.497661 26.616106 56.406926 0
M  V30 END ATOM
M  V30 BEGIN BOND
M  V30 1 1 2 1
M  V30 2 2 3 1
M  V30 3 1 4 3
M  V30 4 2 5 4
M  V30 5 2 6 2
M  V30 6 1 6 5
M  V30 7 1 7 1
M  V30 8 1 8 2
M  V30 9 1 9 3
M  V30 10 1 10 4
M  V30 11 1 11 5
M  V30 12 1 12 6
M  V30 END BOND
M  V30 END CTAB
M  END
>  <i_epik_Tot_Q>  (1) 
0

>  <i_epik_Tot_abs_Q>  (1) 
0

>  <i_i_glide_confnum>  (1) 
1

>  <i_i_glide_lignum>  (1) 
11

>  <i_i_glide_posenum>  (1) 
296

>  <i_i_glide_rotatable_bonds>  (1) 
0

>  <i_lp_mmshare_version>  (1) 
72125

>  <i_m_source_file_index>  (1) 
9

>  <i_f3d_flags>  (1) 
0

>  <num_sample>  (1) 
100

>  <b_lp_Chiralities_Consistent>  (1) 
1

>  <r_epik_Charging_Adjusted_Penalty>  (1) 
0

>  <r_epik_Ionization_Penalty>  (1) 
0

>  <r_epik_Ionization_Penalty_Charging>  (1) 
0

>  <r_epik_Ionization_Penalty_Neutral>  (1) 
0

>  <r_epik_State_Penalty>  (1) 
-0

>  <r_glide_ring_energy>  (1) 
0

>  <r_i_docking_score>  (1) 
-4.6056380637259853

>  <r_i_glide_ecoul>  (1) 
-0.31179867325798821

>  <r_i_glide_eff_state_penalty>  (1) 
-0

>  <r_i_glide_einternal>  (1) 
0

>  <r_i_glide_emodel>  (1) 
-16.264546239963011

>  <r_i_glide_emodel_strain>  (1) 
0

>  <r_i_glide_energy>  (1) 
-11.905763964138742

>  <r_i_glide_erotb>  (1) 
0

>  <r_i_glide_esite>  (1) 
0

>  <r_i_glide_evdw>  (1) 
-11.593965290880755

>  <r_i_glide_gscore>  (1) 
-4.6056380637259853

>  <r_i_glide_gscore_strain>  (1) 
0

>  <r_i_glide_hbond>  (1) 
0

>  <r_i_glide_ligand_efficiency>  (1) 
-0.76760634395433092

>  <r_i_glide_ligand_efficiency_ln>  (1) 
-1.6497259575874146

>  <r_i_glide_ligand_efficiency_sa>  (1) 
-1.3948332947880051

>  <r_i_glide_lipo>  (1) 
-1.5543885413797425

>  <r_i_glide_metal>  (1) 
-0

>  <r_i_glide_rewards>  (1) 
-2.4247814568135073

>  <r_lp_Energy>  (1) 
6.1542199999999996

>  <r_lp_tautomer_probability>  (1) 
1

>  <s_epik_cmdline>  (1) 
J2VwaWtfcHl0aG9uJywgJy1waHQnLCAnMS4wJywgJy1waCcsICc3LjQnLCAnLXRuJywgJzgnLCAnLW1hJywgJzUwMCcsICctaW1hZScsICc8aW5maWxlLm1hZT4nLCAnLW9tYWUnLCAnPG91dGZpbGUubWFlPic=

>  <s_epik_input>  (1) 
W2NIXTFbY0hdW2NIXVtjSF1bY0hdW2NIXTE=

>  <s_glide_docking_method>  (1) 
confgen

>  <s_i_glide_gridfile>  (1) 
gpcr_5ht2c_6bqh_protein_autoprepared_prepared

>  <s_lp_Force_Field>  (1) 
S-OPLS

>  <s_lp_Variant>  (1) 
Pocket2Mol_8-1

>  <s_m_source_file>  (1) 
generated_GPCR_5HT2C_ligand_Pocket2Mol_2026-06-23_prepared.sdf

>  <GenAI_Model>  (1) 
Pocket2Mol

>  <Protein>  (1) 
GPCR_5HT2C

$$$$
Pocket2Mol_13
     RDKit          3D

  0  0  0  0  0  0  0  0  0  0999 V3000
M  V30 BEGIN CTAB
M  V30 COUNTS 11 11 0 0 1
M  V30 BEGIN ATOM
M  V30 1 C 39.644739 29.622446 52.456891 0
M  V30 2 C 38.867696 29.658628 53.540977 0
M  V30 3 C 39.244430 28.498116 51.640132 0
M  V30 4 C 37.868571 28.540249 53.533262 0
M  V30 5 N 38.228065 27.897762 52.278802 0
M  V30 6 O 39.719953 28.135941 50.567573 0
M  V30 7 H 40.440639 30.313801 52.222942 0
M  V30 8 H 38.007933 27.871706 54.383418 0
M  V30 9 H 38.926680 30.386035 54.337224 0
M  V30 10 H 36.845200 28.916444 53.515135 0
M  V30 11 H 37.753611 27.078488 51.928382 0
M  V30 END ATOM
M  V30 BEGIN BOND
M  V30 1 2 2 1
M  V30 2 1 3 1
M  V30 3 1 4 2
M  V30 4 1 5 3
M  V30 5 1 5 4
M  V30 6 2 6 3
M  V30 7 1 7 1
M  V30 8 1 8 4
M  V30 9 1 9 2
M  V30 10 1 10 4
M  V30 11 1 11 5
M  V30 END BOND
M  V30 END CTAB
M  END
>  <i_epik_Tot_Q>  (1) 
0

>  <i_epik_Tot_abs_Q>  (1) 
0

>  <i_i_glide_confnum>  (1) 
1

>  <i_i_glide_lignum>  (1) 
16

>  <i_i_glide_posenum>  (1) 
289

>  <i_i_glide_rotatable_bonds>  (1) 
0

>  <i_lp_mmshare_version>  (1) 
72125

>  <i_m_source_file_index>  (1) 
14

>  <i_f3d_flags>  (1) 
0

>  <num_sample>  (1) 
100

>  <b_lp_Chiralities_Consistent>  (1) 
1

>  <r_epik_Charging_Adjusted_Penalty>  (1) 
0

>  <r_epik_Ionization_Penalty>  (1) 
3.8544596149973334e-06

>  <r_epik_Ionization_Penalty_Charging>  (1) 
0

>  <r_epik_Ionization_Penalty_Neutral>  (1) 
3.8544596149973334e-06

>  <r_epik_State_Penalty>  (1) 
-0

>  <r_glide_ring_energy>  (1) 
0

>  <r_i_docking_score>  (1) 
-4.5856516329716328

>  <r_i_glide_ecoul>  (1) 
-0.8820088805816142

>  <r_i_glide_eff_state_penalty>  (1) 
-0

>  <r_i_glide_einternal>  (1) 
0

>  <r_i_glide_emodel>  (1) 
-21.142156104154562

>  <r_i_glide_emodel_strain>  (1) 
4.8591886070425971e-10

>  <r_i_glide_energy>  (1) 
-16.286823702649553

>  <r_i_glide_erotb>  (1) 
0

>  <r_i_glide_esite>  (1) 
0

>  <r_i_glide_evdw>  (1) 
-15.404814822067939

>  <r_i_glide_gscore>  (1) 
-4.5856516329716328

>  <r_i_glide_gscore_strain>  (1) 
0

>  <r_i_glide_hbond>  (1) 
-0.10623568018822351

>  <r_i_glide_ligand_efficiency>  (1) 
-0.7642752721619388

>  <r_i_glide_ligand_efficiency_ln>  (1) 
-1.64256687709547

>  <r_i_glide_ligand_efficiency_sa>  (1) 
-1.3887803356378472

>  <r_i_glide_lipo>  (1) 
-0.87687387959276952

>  <r_i_glide_metal>  (1) 
-0

>  <r_i_glide_rewards>  (1) 
-2.7000000000000002

>  <r_lp_Energy>  (1) 
3.204942

>  <r_lp_tautomer_probability>  (1) 
1

>  <s_epik_cmdline>  (1) 
J2VwaWtfcHl0aG9uJywgJy1waHQnLCAnMS4wJywgJy1waCcsICc3LjQnLCAnLXRuJywgJzgnLCAnLW1hJywgJzUwMCcsICctaW1hZScsICc8aW5maWxlLm1hZT4nLCAnLW9tYWUnLCAnPG91dGZpbGUubWFlPic=

>  <s_epik_input>  (1) 
Tz1DMVtDSDJdW0NIXT1bQ0hdW05IXTE=

>  <s_glide_docking_method>  (1) 
confgen

>  <s_i_glide_gridfile>  (1) 
gpcr_5ht2c_6bqh_protein_autoprepared_prepared

>  <s_lp_Force_Field>  (1) 
S-OPLS

>  <s_lp_Variant>  (1) 
Pocket2Mol_13-1

>  <s_m_source_file>  (1) 
generated_GPCR_5HT2C_ligand_Pocket2Mol_2026-06-23_prepared.sdf

>  <GenAI_Model>  (1) 
Pocket2Mol

>  <Protein>  (1) 
GPCR_5HT2C

$$$$
Pocket2Mol_46
     RDKit          3D

  0  0  0  0  0  0  0  0  0  0999 V3000
M  V30 BEGIN CTAB
M  V30 COUNTS 12 11 0 0 1
M  V30 BEGIN ATOM
M  V30 1 C 40.445138 30.357786 50.167760 0
M  V30 2 O 39.968666 29.888098 51.414296 0
M  V30 3 C 39.337992 28.703164 51.483329 0
M  V30 4 C 38.719303 28.484609 52.881187 0
M  V30 5 O 39.245137 27.882930 50.567762 0
M  V30 6 O 38.845138 29.293356 53.797947 0
M  V30 7 N 38.044961 27.337754 52.967768 0
M  V30 8 H 40.835732 31.365421 50.284409 0
M  V30 9 H 41.253539 29.737753 49.788727 0
M  V30 10 H 39.645597 30.385839 49.426318 0
M  V30 11 H 37.975987 26.732598 52.159531 0
M  V30 12 H 37.595875 27.083154 53.833810 0
M  V30 END ATOM
M  V30 BEGIN BOND
M  V30 1 1 2 1
M  V30 2 1 3 2
M  V30 3 1 4 3
M  V30 4 2 5 3
M  V30 5 2 6 4
M  V30 6 1 7 4
M  V30 7 1 8 1
M  V30 8 1 9 1
M  V30 9 1 10 1
M  V30 10 1 11 7
M  V30 11 1 12 7
M  V30 END BOND
M  V30 END CTAB
M  END
>  <i_epik_Tot_Q>  (1) 
0

>  <i_epik_Tot_abs_Q>  (1) 
0

>  <i_i_glide_confnum>  (1) 
1

>  <i_i_glide_lignum>  (1) 
49

>  <i_i_glide_posenum>  (1) 
396

>  <i_i_glide_rotatable_bonds>  (1) 
2

>  <i_lp_mmshare_version>  (1) 
72125

>  <i_m_source_file_index>  (1) 
47

>  <i_f3d_flags>  (1) 
0

>  <num_sample>  (1) 
100

>  <b_lp_Chiralities_Consistent>  (1) 
1

>  <r_epik_Charging_Adjusted_Penalty>  (1) 
0

>  <r_epik_Ionization_Penalty>  (1) 
3.9236796398539443e-05

>  <r_epik_Ionization_Penalty_Charging>  (1) 
0

>  <r_epik_Ionization_Penalty_Neutral>  (1) 
3.9236796398539443e-05

>  <r_epik_State_Penalty>  (1) 
-0

>  <r_glide_ring_energy>  (1) 
0

>  <r_i_docking_score>  (1) 
-4.5766010819092902

>  <r_i_glide_ecoul>  (1) 
-0.79531876402256985

>  <r_i_glide_eff_state_penalty>  (1) 
-0

>  <r_i_glide_einternal>  (1) 
0.24841518166204057

>  <r_i_glide_emodel>  (1) 
-26.222242936735505

>  <r_i_glide_emodel_strain>  (1) 
0

>  <r_i_glide_energy>  (1) 
-20.382202143717695

>  <r_i_glide_erotb>  (1) 
0

>  <r_i_glide_esite>  (1) 
0

>  <r_i_glide_evdw>  (1) 
-19.586883379695124

>  <r_i_glide_gscore>  (1) 
-4.5766010819092902

>  <r_i_glide_gscore_strain>  (1) 
0

>  <r_i_glide_hbond>  (1) 
0

>  <r_i_glide_ligand_efficiency>  (1) 
-0.65380015455847007

>  <r_i_glide_ligand_efficiency_ln>  (1) 
-1.553544015379051

>  <r_i_glide_ligand_efficiency_sa>  (1) 
-1.250674702956305

>  <r_i_glide_lipo>  (1) 
-0.33000000000000002

>  <r_i_glide_metal>  (1) 
-0

>  <r_i_glide_rewards>  (1) 
-3.1479590983211492

>  <r_lp_Energy>  (1) 
8.3220650000000003

>  <r_lp_tautomer_probability>  (1) 
1

>  <s_epik_Chemistry_Notes>  (1) 
This compound has an ester and may undergo hydrolysis at high or low pH.

>  <s_epik_cmdline>  (1) 
J2VwaWtfcHl0aG9uJywgJy1waHQnLCAnMS4wJywgJy1waCcsICc3LjQnLCAnLXRuJywgJzgnLCAnLW1hJywgJzUwMCcsICctaW1hZScsICc8aW5maWxlLm1hZT4nLCAnLW9tYWUnLCAnPG91dGZpbGUubWFlPic=

>  <s_epik_input>  (1) 
W0NIM11PQyg9TylDKD1PKVtOSDJd

>  <s_glide_docking_method>  (1) 
confgen

>  <s_i_glide_gridfile>  (1) 
gpcr_5ht2c_6bqh_protein_autoprepared_prepared

>  <s_lp_Force_Field>  (1) 
S-OPLS

>  <s_lp_Variant>  (1) 
Pocket2Mol_46-1

>  <s_m_source_file>  (1) 
generated_GPCR_5HT2C_ligand_Pocket2Mol_2026-06-23_prepared.sdf

>  <GenAI_Model>  (1) 
Pocket2Mol

>  <Protein>  (1) 
GPCR_5HT2C

$$$$
Pocket2Mol_13
     RDKit          3D

  0  0  0  0  0  0  0  0  0  0999 V3000
M  V30 BEGIN CTAB
M  V30 COUNTS 11 11 0 0 1
M  V30 BEGIN ATOM
M  V30 1 C 39.245212 27.941978 50.985751 0
M  V30 2 C 38.700222 27.758779 52.161561 0
M  V30 3 C 39.849162 29.202072 50.955895 0
M  V30 4 C 38.850985 28.903231 53.157181 0
M  V30 5 N 39.644985 29.737758 52.172420 0
M  V30 6 O 40.445219 29.737925 50.026751 0
M  V30 7 H 39.229584 27.236867 50.168079 0
M  V30 8 H 37.894836 29.355151 53.422436 0
M  V30 9 H 38.166810 26.861385 52.437034 0
M  V30 10 H 39.422479 28.622998 54.041840 0
M  V30 11 H 39.981104 30.656925 52.421794 0
M  V30 END ATOM
M  V30 BEGIN BOND
M  V30 1 2 2 1
M  V30 2 1 3 1
M  V30 3 1 4 2
M  V30 4 1 5 3
M  V30 5 1 5 4
M  V30 6 2 6 3
M  V30 7 1 7 1
M  V30 8 1 8 4
M  V30 9 1 9 2
M  V30 10 1 10 4
M  V30 11 1 11 5
M  V30 END BOND
M  V30 END CTAB
M  END
>  <i_epik_Tot_Q>  (1) 
0

>  <i_epik_Tot_abs_Q>  (1) 
0

>  <i_i_glide_confnum>  (1) 
1

>  <i_i_glide_lignum>  (1) 
16

>  <i_i_glide_posenum>  (1) 
205

>  <i_i_glide_rotatable_bonds>  (1) 
0

>  <i_lp_mmshare_version>  (1) 
72125

>  <i_m_source_file_index>  (1) 
14

>  <i_f3d_flags>  (1) 
0

>  <num_sample>  (1) 
100

>  <b_lp_Chiralities_Consistent>  (1) 
1

>  <r_epik_Charging_Adjusted_Penalty>  (1) 
0

>  <r_epik_Ionization_Penalty>  (1) 
3.8544596149973334e-06

>  <r_epik_Ionization_Penalty_Charging>  (1) 
0

>  <r_epik_Ionization_Penalty_Neutral>  (1) 
3.8544596149973334e-06

>  <r_epik_State_Penalty>  (1) 
-0

>  <r_glide_ring_energy>  (1) 
0

>  <r_i_docking_score>  (1) 
-4.5681888762405558

>  <r_i_glide_ecoul>  (1) 
-0.52428652447325308

>  <r_i_glide_eff_state_penalty>  (1) 
-0

>  <r_i_glide_einternal>  (1) 
0

>  <r_i_glide_emodel>  (1) 
-22.419570728796149

>  <r_i_glide_emodel_strain>  (1) 
0

>  <r_i_glide_energy>  (1) 
-17.582728062914882

>  <r_i_glide_erotb>  (1) 
0

>  <r_i_glide_esite>  (1) 
0

>  <r_i_glide_evdw>  (1) 
-17.058441538441627

>  <r_i_glide_gscore>  (1) 
-4.5681888762405558

>  <r_i_glide_gscore_strain>  (1) 
0

>  <r_i_glide_hbond>  (1) 
0

>  <r_i_glide_ligand_efficiency>  (1) 
-0.76136481270675926

>  <r_i_glide_ligand_efficiency_ln>  (1) 
-1.6363117691882312

>  <r_i_glide_ligand_efficiency_sa>  (1) 
-1.3834916798272376

>  <r_i_glide_lipo>  (1) 
-0.93662382064748595

>  <r_i_glide_metal>  (1) 
-0

>  <r_i_glide_rewards>  (1) 
-2.7000000000000002

>  <r_lp_Energy>  (1) 
3.204942

>  <r_lp_tautomer_probability>  (1) 
1

>  <s_epik_cmdline>  (1) 
J2VwaWtfcHl0aG9uJywgJy1waHQnLCAnMS4wJywgJy1waCcsICc3LjQnLCAnLXRuJywgJzgnLCAnLW1hJywgJzUwMCcsICctaW1hZScsICc8aW5maWxlLm1hZT4nLCAnLW9tYWUnLCAnPG91dGZpbGUubWFlPic=

>  <s_epik_input>  (1) 
Tz1DMVtDSDJdW0NIXT1bQ0hdW05IXTE=

>  <s_glide_docking_method>  (1) 
confgen

>  <s_i_glide_gridfile>  (1) 
gpcr_5ht2c_6bqh_protein_autoprepared_prepared

>  <s_lp_Force_Field>  (1) 
S-OPLS

>  <s_lp_Variant>  (1) 
Pocket2Mol_13-1

>  <s_m_source_file>  (1) 
generated_GPCR_5HT2C_ligand_Pocket2Mol_2026-06-23_prepared.sdf

>  <GenAI_Model>  (1) 
Pocket2Mol

>  <Protein>  (1) 
GPCR_5HT2C

$$$$
Pocket2Mol_13
     RDKit          3D

  0  0  0  0  0  0  0  0  0  0999 V3000
M  V30 BEGIN CTAB
M  V30 COUNTS 11 11 0 0 1
M  V30 BEGIN ATOM
M  V30 1 C 39.645986 29.815670 52.232995 0
M  V30 2 C 38.912836 28.844980 52.714557 0
M  V30 3 C 40.045146 29.482995 50.935847 0
M  V30 4 C 38.691234 27.653245 51.792185 0
M  V30 5 N 39.514079 28.272705 50.685857 0
M  V30 6 O 40.736593 30.137762 50.161106 0
M  V30 7 H 39.901315 30.729426 52.750155 0
M  V30 8 H 39.125999 26.730553 52.177476 0
M  V30 9 H 38.478788 28.860786 53.703765 0
M  V30 10 H 37.645201 27.527472 51.516700 0
M  V30 11 H 39.644925 27.795478 49.806465 0
M  V30 END ATOM
M  V30 BEGIN BOND
M  V30 1 2 2 1
M  V30 2 1 3 1
M  V30 3 1 4 2
M  V30 4 1 5 3
M  V30 5 1 5 4
M  V30 6 2 6 3
M  V30 7 1 7 1
M  V30 8 1 8 4
M  V30 9 1 9 2
M  V30 10 1 10 4
M  V30 11 1 11 5
M  V30 END BOND
M  V30 END CTAB
M  END
>  <i_epik_Tot_Q>  (1) 
0

>  <i_epik_Tot_abs_Q>  (1) 
0

>  <i_i_glide_confnum>  (1) 
1

>  <i_i_glide_lignum>  (1) 
16

>  <i_i_glide_posenum>  (1) 
248

>  <i_i_glide_rotatable_bonds>  (1) 
0

>  <i_lp_mmshare_version>  (1) 
72125

>  <i_m_source_file_index>  (1) 
14

>  <i_f3d_flags>  (1) 
0

>  <num_sample>  (1) 
100

>  <b_lp_Chiralities_Consistent>  (1) 
1

>  <r_epik_Charging_Adjusted_Penalty>  (1) 
0

>  <r_epik_Ionization_Penalty>  (1) 
3.8544596149973334e-06

>  <r_epik_Ionization_Penalty_Charging>  (1) 
0

>  <r_epik_Ionization_Penalty_Neutral>  (1) 
3.8544596149973334e-06

>  <r_epik_State_Penalty>  (1) 
-0

>  <r_glide_ring_energy>  (1) 
0

>  <r_i_docking_score>  (1) 
-4.5673055928832378

>  <r_i_glide_ecoul>  (1) 
-0.33418711692342185

>  <r_i_glide_eff_state_penalty>  (1) 
-0

>  <r_i_glide_einternal>  (1) 
0

>  <r_i_glide_emodel>  (1) 
-22.167111660953218

>  <r_i_glide_emodel_strain>  (1) 
0

>  <r_i_glide_energy>  (1) 
-17.33120422405317

>  <r_i_glide_erotb>  (1) 
0

>  <r_i_glide_esite>  (1) 
0

>  <r_i_glide_evdw>  (1) 
-16.99701710712975

>  <r_i_glide_gscore>  (1) 
-4.5673055928832378

>  <r_i_glide_gscore_strain>  (1) 
0

>  <r_i_glide_hbond>  (1) 
0

>  <r_i_glide_ligand_efficiency>  (1) 
-0.76121759881387296

>  <r_i_glide_ligand_efficiency_ln>  (1) 
-1.6359953796972833

>  <r_i_glide_ligand_efficiency_sa>  (1) 
-1.3832241744309228

>  <r_i_glide_lipo>  (1) 
-0.96732666998823746

>  <r_i_glide_metal>  (1) 
-0

>  <r_i_glide_rewards>  (1) 
-2.7000000000000002

>  <r_lp_Energy>  (1) 
3.204942

>  <r_lp_tautomer_probability>  (1) 
1

>  <s_epik_cmdline>  (1) 
J2VwaWtfcHl0aG9uJywgJy1waHQnLCAnMS4wJywgJy1waCcsICc3LjQnLCAnLXRuJywgJzgnLCAnLW1hJywgJzUwMCcsICctaW1hZScsICc8aW5maWxlLm1hZT4nLCAnLW9tYWUnLCAnPG91dGZpbGUubWFlPic=

>  <s_epik_input>  (1) 
Tz1DMVtDSDJdW0NIXT1bQ0hdW05IXTE=

>  <s_glide_docking_method>  (1) 
confgen

>  <s_i_glide_gridfile>  (1) 
gpcr_5ht2c_6bqh_protein_autoprepared_prepared

>  <s_lp_Force_Field>  (1) 
S-OPLS

>  <s_lp_Variant>  (1) 
Pocket2Mol_13-1

>  <s_m_source_file>  (1) 
generated_GPCR_5HT2C_ligand_Pocket2Mol_2026-06-23_prepared.sdf

>  <GenAI_Model>  (1) 
Pocket2Mol

>  <Protein>  (1) 
GPCR_5HT2C

$$$$
Pocket2Mol_60
     RDKit          3D

  0  0  0  0  0  0  0  0  0  0999 V3000
M  V30 BEGIN CTAB
M  V30 COUNTS 12 12 0 0 1
M  V30 BEGIN ATOM
M  V30 1 C 39.245137 27.739732 50.967757 0
M  V30 2 C 38.763806 27.736442 52.318704 0
M  V30 3 C 39.823406 28.963202 50.736279 0
M  V30 4 C 39.070121 28.952971 52.860932 0
M  V30 5 N 39.708117 29.685785 51.897472 0
M  V30 6 C 38.840979 29.529220 54.196445 0
M  V30 7 O 38.251112 28.831177 55.049698 0
M  V30 8 O 39.250008 30.690906 54.419208 0 CHG=-1
M  V30 9 H 39.172365 26.937755 50.248287 0
M  V30 10 H 38.254603 26.933354 52.830833 0
M  V30 11 H 40.299875 29.379843 49.861188 0
M  V30 12 H 40.045141 30.629933 52.030598 0
M  V30 END ATOM
M  V30 BEGIN BOND
M  V30 1 1 2 1
M  V30 2 2 3 1
M  V30 3 2 4 2
M  V30 4 1 5 3
M  V30 5 1 5 4
M  V30 6 1 6 4
M  V30 7 2 7 6
M  V30 8 1 8 6
M  V30 9 1 9 1
M  V30 10 1 10 2
M  V30 11 1 11 3
M  V30 12 1 12 5
M  V30 END BOND
M  V30 END CTAB
M  END
>  <i_epik_Tot_Q>  (1) 
-1

>  <i_epik_Tot_abs_Q>  (1) 
1

>  <i_i_glide_confnum>  (1) 
1

>  <i_i_glide_lignum>  (1) 
64

>  <i_i_glide_posenum>  (1) 
296

>  <i_i_glide_rotatable_bonds>  (1) 
1

>  <i_lp_mmshare_version>  (1) 
72125

>  <i_m_source_file_index>  (1) 
61

>  <i_f3d_flags>  (1) 
0

>  <num_sample>  (1) 
100

>  <b_lp_Chiralities_Consistent>  (1) 
1

>  <r_epik_Charging_Adjusted_Penalty>  (1) 
0.00021018459712964226

>  <r_epik_Ionization_Penalty>  (1) 
0.00021021235475979092

>  <r_epik_Ionization_Penalty_Charging>  (1) 
0.00021018459712964226

>  <r_epik_Ionization_Penalty_Neutral>  (1) 
2.7757630148672405e-08

>  <r_epik_State_Penalty>  (1) 
-0

>  <r_glide_ring_energy>  (1) 
0

>  <r_i_docking_score>  (1) 
-4.5671475145559945

>  <r_i_glide_ecoul>  (1) 
-0.022852200039893189

>  <r_i_glide_eff_state_penalty>  (1) 
-0

>  <r_i_glide_einternal>  (1) 
0.00079817960985339997

>  <r_i_glide_emodel>  (1) 
-20.858550436757966

>  <r_i_glide_emodel_strain>  (1) 
0

>  <r_i_glide_energy>  (1) 
-15.87291421794624

>  <r_i_glide_erotb>  (1) 
0

>  <r_i_glide_esite>  (1) 
0

>  <r_i_glide_evdw>  (1) 
-15.850062017906348

>  <r_i_glide_gscore>  (1) 
-4.5671475145559945

>  <r_i_glide_gscore_strain>  (1) 
0

>  <r_i_glide_hbond>  (1) 
0

>  <r_i_glide_ligand_efficiency>  (1) 
-0.57089343931949932

>  <r_i_glide_ligand_efficiency_ln>  (1) 
-1.4831090159498903

>  <r_i_glide_ligand_efficiency_sa>  (1) 
-1.1417868786389989

>  <r_i_glide_lipo>  (1) 
-1.2527543677369504

>  <r_i_glide_metal>  (1) 
-0

>  <r_i_glide_rewards>  (1) 
-2.5184622159177432

>  <r_lp_Energy>  (1) 
7.8081959999999997

>  <r_lp_tautomer_probability>  (1) 
1

>  <s_epik_cmdline>  (1) 
J2VwaWtfcHl0aG9uJywgJy1waHQnLCAnMS4wJywgJy1waCcsICc3LjQnLCAnLXRuJywgJzgnLCAnLW1hJywgJzUwMCcsICctaW1hZScsICc8aW5maWxlLm1hZT4nLCAnLW9tYWUnLCAnPG91dGZpbGUubWFlPic=

>  <s_epik_input>  (1) 
W25IXTFbY0hdW2NIXVtjSF1jMUMoPU8pW09IXQ==

>  <s_glide_docking_method>  (1) 
confgen

>  <s_i_glide_gridfile>  (1) 
gpcr_5ht2c_6bqh_protein_autoprepared_prepared

>  <s_lp_Force_Field>  (1) 
S-OPLS

>  <s_lp_Variant>  (1) 
Pocket2Mol_60-1

>  <s_m_source_file>  (1) 
generated_GPCR_5HT2C_ligand_Pocket2Mol_2026-06-23_prepared.sdf

>  <GenAI_Model>  (1) 
Pocket2Mol

>  <Protein>  (1) 
GPCR_5HT2C

$$$$
Pocket2Mol_5
     RDKit          3D

  0  0  0  0  0  0  0  0  0  0999 V3000
M  V30 BEGIN CTAB
M  V30 COUNTS 12 12 0 0 1
M  V30 BEGIN ATOM
M  V30 1 C 39.956442 29.146711 51.334256 0
M  V30 2 C 39.294641 28.082222 51.054840 0
M  V30 3 C 39.603296 29.773288 52.668906 0
M  V30 4 C 38.418176 28.699555 53.112826 0
M  V30 5 N 38.443564 27.737751 51.995182 0
M  V30 6 H 39.349844 27.469994 50.167764 0
M  V30 7 H 40.445113 29.770845 53.353892 0
M  V30 8 H 39.245139 30.795399 52.561134 0
M  V30 9 H 38.649761 28.206610 54.057424 0
M  V30 10 H 37.440470 29.174779 53.191778 0
M  V30 11 H 40.698180 29.589822 50.685764 0
M  V30 12 H 37.676059 27.093929 51.836470 0
M  V30 END ATOM
M  V30 BEGIN BOND
M  V30 1 2 2 1
M  V30 2 1 3 1
M  V30 3 1 4 3
M  V30 4 1 5 2
M  V30 5 1 5 4
M  V30 6 1 6 2
M  V30 7 1 7 3
M  V30 8 1 8 3
M  V30 9 1 9 4
M  V30 10 1 10 4
M  V30 11 1 11 1
M  V30 12 1 12 5
M  V30 END BOND
M  V30 END CTAB
M  END
>  <i_epik_Tot_Q>  (1) 
0

>  <i_epik_Tot_abs_Q>  (1) 
0

>  <i_i_glide_confnum>  (1) 
1

>  <i_i_glide_lignum>  (1) 
8

>  <i_i_glide_posenum>  (1) 
353

>  <i_i_glide_rotatable_bonds>  (1) 
0

>  <i_lp_mmshare_version>  (1) 
72125

>  <i_m_source_file_index>  (1) 
6

>  <i_f3d_flags>  (1) 
0

>  <num_sample>  (1) 
100

>  <b_lp_Chiralities_Consistent>  (1) 
1

>  <r_epik_Charging_Adjusted_Penalty>  (1) 
1.6042444336516156e-06

>  <r_epik_Ionization_Penalty>  (1) 
0.0023556498582944039

>  <r_epik_Ionization_Penalty_Charging>  (1) 
1.6042444336516156e-06

>  <r_epik_Ionization_Penalty_Neutral>  (1) 
0.0023540456138607521

>  <r_epik_State_Penalty>  (1) 
-0

>  <r_glide_ring_energy>  (1) 
0

>  <r_i_docking_score>  (1) 
-4.5669752642061407

>  <r_i_glide_ecoul>  (1) 
-1.4684530382612255

>  <r_i_glide_eff_state_penalty>  (1) 
-0

>  <r_i_glide_einternal>  (1) 
0

>  <r_i_glide_emodel>  (1) 
-17.923384591835788

>  <r_i_glide_emodel_strain>  (1) 
0

>  <r_i_glide_energy>  (1) 
-13.901681777921297

>  <r_i_glide_erotb>  (1) 
0

>  <r_i_glide_esite>  (1) 
0

>  <r_i_glide_evdw>  (1) 
-12.433228739660072

>  <r_i_glide_gscore>  (1) 
-4.5669752642061407

>  <r_i_glide_gscore_strain>  (1) 
0

>  <r_i_glide_hbond>  (1) 
-0.1896550719903396

>  <r_i_glide_ligand_efficiency>  (1) 
-0.91339505284122813

>  <r_i_glide_ligand_efficiency_ln>  (1) 
-1.7501758683141215

>  <r_i_glide_ligand_efficiency_sa>  (1) 
-1.5618835701719909

>  <r_i_glide_lipo>  (1) 
-1.2853907994936133

>  <r_i_glide_metal>  (1) 
-0

>  <r_i_glide_rewards>  (1) 
-2.25

>  <r_lp_Energy>  (1) 
2.9163319999999997

>  <r_lp_tautomer_probability>  (1) 
1

>  <s_epik_Chemistry_Notes>  (1) 
This compound has an imine and may undergo hydrolysis.

>  <s_epik_cmdline>  (1) 
J2VwaWtfcHl0aG9uJywgJy1waHQnLCAnMS4wJywgJy1waCcsICc3LjQnLCAnLXRuJywgJzgnLCAnLW1hJywgJzUwMCcsICctaW1hZScsICc8aW5maWxlLm1hZT4nLCAnLW9tYWUnLCAnPG91dGZpbGUubWFlPic=

>  <s_epik_input>  (1) 
W0NIMl0xW0NIXT1OW0NIMl1bQ0gyXTE=

>  <s_glide_docking_method>  (1) 
confgen

>  <s_i_glide_gridfile>  (1) 
gpcr_5ht2c_6bqh_protein_autoprepared_prepared

>  <s_lp_Force_Field>  (1) 
S-OPLS

>  <s_lp_Variant>  (1) 
Pocket2Mol_5-1

>  <s_m_source_file>  (1) 
generated_GPCR_5HT2C_ligand_Pocket2Mol_2026-06-23_prepared.sdf

>  <GenAI_Model>  (1) 
Pocket2Mol

>  <Protein>  (1) 
GPCR_5HT2C

$$$$
Pocket2Mol_46
     RDKit          3D

  0  0  0  0  0  0  0  0  0  0999 V3000
M  V30 BEGIN CTAB
M  V30 COUNTS 12 11 0 0 1
M  V30 BEGIN ATOM
M  V30 1 C 40.972751 30.537755 50.167818 0
M  V30 2 O 40.236229 29.404173 50.590568 0
M  V30 3 C 39.645142 29.413695 51.797014 0
M  V30 4 C 38.809676 28.137757 52.014444 0
M  V30 5 O 39.746486 30.301908 52.646903 0
M  V30 6 O 38.176770 27.912299 53.044102 0
M  V30 7 N 38.845145 27.310003 50.968039 0
M  V30 8 H 41.381079 30.364179 49.172287 0
M  V30 9 H 40.335341 31.421824 50.125157 0
M  V30 10 H 41.802851 30.737669 50.846507 0
M  V30 11 H 39.399247 27.559719 50.161659 0
M  V30 12 H 38.333447 26.441480 50.998749 0
M  V30 END ATOM
M  V30 BEGIN BOND
M  V30 1 1 2 1
M  V30 2 1 3 2
M  V30 3 1 4 3
M  V30 4 2 5 3
M  V30 5 2 6 4
M  V30 6 1 7 4
M  V30 7 1 8 1
M  V30 8 1 9 1
M  V30 9 1 10 1
M  V30 10 1 11 7
M  V30 11 1 12 7
M  V30 END BOND
M  V30 END CTAB
M  END
>  <i_epik_Tot_Q>  (1) 
0

>  <i_epik_Tot_abs_Q>  (1) 
0

>  <i_i_glide_confnum>  (1) 
1

>  <i_i_glide_lignum>  (1) 
49

>  <i_i_glide_posenum>  (1) 
333

>  <i_i_glide_rotatable_bonds>  (1) 
2

>  <i_lp_mmshare_version>  (1) 
72125

>  <i_m_source_file_index>  (1) 
47

>  <i_f3d_flags>  (1) 
0

>  <num_sample>  (1) 
100

>  <b_lp_Chiralities_Consistent>  (1) 
1

>  <r_epik_Charging_Adjusted_Penalty>  (1) 
0

>  <r_epik_Ionization_Penalty>  (1) 
3.9236796398539443e-05

>  <r_epik_Ionization_Penalty_Charging>  (1) 
0

>  <r_epik_Ionization_Penalty_Neutral>  (1) 
3.9236796398539443e-05

>  <r_epik_State_Penalty>  (1) 
-0

>  <r_glide_ring_energy>  (1) 
0

>  <r_i_docking_score>  (1) 
-4.5573311506622396

>  <r_i_glide_ecoul>  (1) 
-1.168828830393267

>  <r_i_glide_eff_state_penalty>  (1) 
-0

>  <r_i_glide_einternal>  (1) 
1.6095228368254801

>  <r_i_glide_emodel>  (1) 
-25.086377660007621

>  <r_i_glide_emodel_strain>  (1) 
2.9888530761468246e-08

>  <r_i_glide_energy>  (1) 
-19.952003390877813

>  <r_i_glide_erotb>  (1) 
0

>  <r_i_glide_esite>  (1) 
0

>  <r_i_glide_evdw>  (1) 
-18.783174560484547

>  <r_i_glide_gscore>  (1) 
-4.5573311506622396

>  <r_i_glide_gscore_strain>  (1) 
0

>  <r_i_glide_hbond>  (1) 
0

>  <r_i_glide_ligand_efficiency>  (1) 
-0.65104730723746285

>  <r_i_glide_ligand_efficiency_ln>  (1) 
-1.5470027665723858

>  <r_i_glide_ligand_efficiency_sa>  (1) 
-1.2454086954745387

>  <r_i_glide_lipo>  (1) 
-0.29312207902754933

>  <r_i_glide_metal>  (1) 
-0

>  <r_i_glide_rewards>  (1) 
-3.1497260190514726

>  <r_lp_Energy>  (1) 
8.3220650000000003

>  <r_lp_tautomer_probability>  (1) 
1

>  <s_epik_Chemistry_Notes>  (1) 
This compound has an ester and may undergo hydrolysis at high or low pH.

>  <s_epik_cmdline>  (1) 
J2VwaWtfcHl0aG9uJywgJy1waHQnLCAnMS4wJywgJy1waCcsICc3LjQnLCAnLXRuJywgJzgnLCAnLW1hJywgJzUwMCcsICctaW1hZScsICc8aW5maWxlLm1hZT4nLCAnLW9tYWUnLCAnPG91dGZpbGUubWFlPic=

>  <s_epik_input>  (1) 
W0NIM11PQyg9TylDKD1PKVtOSDJd

>  <s_glide_docking_method>  (1) 
confgen

>  <s_i_glide_gridfile>  (1) 
gpcr_5ht2c_6bqh_protein_autoprepared_prepared

>  <s_lp_Force_Field>  (1) 
S-OPLS

>  <s_lp_Variant>  (1) 
Pocket2Mol_46-1

>  <s_m_source_file>  (1) 
generated_GPCR_5HT2C_ligand_Pocket2Mol_2026-06-23_prepared.sdf

>  <GenAI_Model>  (1) 
Pocket2Mol

>  <Protein>  (1) 
GPCR_5HT2C

$$$$
Pocket2Mol_9
     RDKit          3D

  0  0  0  0  0  0  0  0  0  0999 V3000
M  V30 BEGIN CTAB
M  V30 COUNTS 11 11 0 0 1
M  V30 BEGIN ATOM
M  V30 1 C 38.989050 28.718490 52.658703 0
M  V30 2 C 38.832808 27.516477 51.737284 0
M  V30 3 C 39.645137 29.737861 52.167452 0
M  V30 4 C 40.045149 29.435472 50.863635 0
M  V30 5 N 39.595874 28.190813 50.620162 0
M  V30 6 O 40.677217 30.137754 50.079428 0
M  V30 7 H 38.571975 28.702661 53.655065 0
M  V30 8 H 39.747194 27.722755 49.739311 0
M  V30 9 H 39.326218 26.619961 52.113087 0
M  V30 10 H 39.845800 30.666097 52.682578 0
M  V30 11 H 37.790305 27.336591 51.479155 0
M  V30 END ATOM
M  V30 BEGIN BOND
M  V30 1 1 2 1
M  V30 2 2 3 1
M  V30 3 1 4 3
M  V30 4 1 5 2
M  V30 5 1 5 4
M  V30 6 2 6 4
M  V30 7 1 7 1
M  V30 8 1 8 5
M  V30 9 1 9 2
M  V30 10 1 10 3
M  V30 11 1 11 2
M  V30 END BOND
M  V30 END CTAB
M  END
>  <i_epik_Tot_Q>  (1) 
0

>  <i_epik_Tot_abs_Q>  (1) 
0

>  <i_i_glide_confnum>  (1) 
1

>  <i_i_glide_lignum>  (1) 
12

>  <i_i_glide_posenum>  (1) 
152

>  <i_i_glide_rotatable_bonds>  (1) 
0

>  <i_lp_mmshare_version>  (1) 
72125

>  <i_m_source_file_index>  (1) 
10

>  <i_f3d_flags>  (1) 
0

>  <num_sample>  (1) 
100

>  <b_lp_Chiralities_Consistent>  (1) 
1

>  <r_epik_Charging_Adjusted_Penalty>  (1) 
0

>  <r_epik_Ionization_Penalty>  (1) 
3.8544596149973334e-06

>  <r_epik_Ionization_Penalty_Charging>  (1) 
0

>  <r_epik_Ionization_Penalty_Neutral>  (1) 
3.8544596149973334e-06

>  <r_epik_State_Penalty>  (1) 
-0

>  <r_glide_ring_energy>  (1) 
0

>  <r_i_docking_score>  (1) 
-4.5480331719772282

>  <r_i_glide_ecoul>  (1) 
-0.26371484531139933

>  <r_i_glide_eff_state_penalty>  (1) 
-0

>  <r_i_glide_einternal>  (1) 
0

>  <r_i_glide_emodel>  (1) 
-22.231292625157295

>  <r_i_glide_emodel_strain>  (1) 
0

>  <r_i_glide_energy>  (1) 
-17.416667684146908

>  <r_i_glide_erotb>  (1) 
0

>  <r_i_glide_esite>  (1) 
0

>  <r_i_glide_evdw>  (1) 
-17.15295283883551

>  <r_i_glide_gscore>  (1) 
-4.5480331719772282

>  <r_i_glide_gscore_strain>  (1) 
0

>  <r_i_glide_hbond>  (1) 
0

>  <r_i_glide_ligand_efficiency>  (1) 
-0.75800552866287141

>  <r_i_glide_ligand_efficiency_ln>  (1) 
-1.6290920554251036

>  <r_i_glide_ligand_efficiency_sa>  (1) 
-1.3773874556139165

>  <r_i_glide_lipo>  (1) 
-0.95082830323874279

>  <r_i_glide_metal>  (1) 
-0

>  <r_i_glide_rewards>  (1) 
-2.7000000000000002

>  <r_lp_Energy>  (1) 
3.2049569999999998

>  <r_lp_tautomer_probability>  (1) 
1

>  <s_epik_cmdline>  (1) 
J2VwaWtfcHl0aG9uJywgJy1waHQnLCAnMS4wJywgJy1waCcsICc3LjQnLCAnLXRuJywgJzgnLCAnLW1hJywgJzUwMCcsICctaW1hZScsICc8aW5maWxlLm1hZT4nLCAnLW9tYWUnLCAnPG91dGZpbGUubWFlPic=

>  <s_epik_input>  (1) 
TjE9W0NIXVtDSDJdW0NIMl1DMT1P

>  <s_glide_docking_method>  (1) 
confgen

>  <s_i_glide_gridfile>  (1) 
gpcr_5ht2c_6bqh_protein_autoprepared_prepared

>  <s_lp_Force_Field>  (1) 
S-OPLS

>  <s_lp_Variant>  (1) 
Pocket2Mol_9-1

>  <s_m_source_file>  (1) 
generated_GPCR_5HT2C_ligand_Pocket2Mol_2026-06-23_prepared.sdf

>  <GenAI_Model>  (1) 
Pocket2Mol

>  <Protein>  (1) 
GPCR_5HT2C

$$$$
Pocket2Mol_15
     RDKit          3D

  0  0  0  0  0  0  0  0  0  0999 V3000
M  V30 BEGIN CTAB
M  V30 COUNTS 12 12 0 0 1
M  V30 BEGIN ATOM
M  V30 1 C 37.036874 33.736967 58.947656 0
M  V30 2 O 37.409518 32.754091 59.899724 0
M  V30 3 C 35.618044 34.145044 59.367396 0
M  V30 4 C 36.355009 32.254599 60.530077 0
M  V30 5 C 35.068412 32.931797 60.107441 0
M  V30 6 O 36.384975 31.355582 61.367758 0
M  V30 7 H 37.725682 34.580055 58.951887 0
M  V30 8 H 37.036999 33.293191 57.951333 0
M  V30 9 H 35.663653 34.995178 60.048234 0
M  V30 10 H 35.002244 34.431286 58.513788 0
M  V30 11 H 34.511217 32.273271 59.439640 0
M  V30 12 H 34.444821 33.204570 60.959139 0
M  V30 END ATOM
M  V30 BEGIN BOND
M  V30 1 1 2 1
M  V30 2 1 3 1
M  V30 3 1 4 2
M  V30 4 1 5 3
M  V30 5 1 5 4
M  V30 6 2 6 4
M  V30 7 1 7 1
M  V30 8 1 8 1
M  V30 9 1 9 3
M  V30 10 1 10 3
M  V30 11 1 11 5
M  V30 12 1 12 5
M  V30 END BOND
M  V30 END CTAB
M  END
>  <i_epik_Tot_Q>  (1) 
0

>  <i_epik_Tot_abs_Q>  (1) 
0

>  <i_i_glide_confnum>  (1) 
1

>  <i_i_glide_lignum>  (1) 
18

>  <i_i_glide_posenum>  (1) 
96

>  <i_i_glide_rotatable_bonds>  (1) 
0

>  <i_lp_mmshare_version>  (1) 
72125

>  <i_m_source_file_index>  (1) 
16

>  <i_f3d_flags>  (1) 
0

>  <num_sample>  (1) 
100

>  <b_lp_Chiralities_Consistent>  (1) 
1

>  <r_epik_Charging_Adjusted_Penalty>  (1) 
0

>  <r_epik_Ionization_Penalty>  (1) 
0

>  <r_epik_Ionization_Penalty_Charging>  (1) 
0

>  <r_epik_Ionization_Penalty_Neutral>  (1) 
0

>  <r_epik_State_Penalty>  (1) 
-0

>  <r_glide_ring_energy>  (1) 
0

>  <r_i_docking_score>  (1) 
-4.5444265315134746

>  <r_i_glide_ecoul>  (1) 
-3.8942474167650984

>  <r_i_glide_eff_state_penalty>  (1) 
-0

>  <r_i_glide_einternal>  (1) 
0

>  <r_i_glide_emodel>  (1) 
-20.030226129576306

>  <r_i_glide_emodel_strain>  (1) 
0

>  <r_i_glide_energy>  (1) 
-15.363817125183672

>  <r_i_glide_erotb>  (1) 
0

>  <r_i_glide_esite>  (1) 
-0.045226400068770593

>  <r_i_glide_evdw>  (1) 
-11.469569708418573

>  <r_i_glide_gscore>  (1) 
-4.5444265315134746

>  <r_i_glide_gscore_strain>  (1) 
0

>  <r_i_glide_hbond>  (1) 
-0.32000000000000001

>  <r_i_glide_ligand_efficiency>  (1) 
-0.75740442191891244

>  <r_i_glide_ligand_efficiency_ln>  (1) 
-1.6278001674585694

>  <r_i_glide_ligand_efficiency_sa>  (1) 
-1.3762951721709784

>  <r_i_glide_lipo>  (1) 
-0.058275073474797545

>  <r_i_glide_metal>  (1) 
-0

>  <r_i_glide_rewards>  (1) 
-2.9633094600342131

>  <r_lp_Energy>  (1) 
-1.1766760000000001

>  <r_lp_tautomer_probability>  (1) 
1

>  <s_epik_Chemistry_Notes>  (1) 
This compound has an ester and may undergo hydrolysis at high or low pH.

>  <s_epik_cmdline>  (1) 
J2VwaWtfcHl0aG9uJywgJy1waHQnLCAnMS4wJywgJy1waCcsICc3LjQnLCAnLXRuJywgJzgnLCAnLW1hJywgJzUwMCcsICctaW1hZScsICc8aW5maWxlLm1hZT4nLCAnLW9tYWUnLCAnPG91dGZpbGUubWFlPic=

>  <s_epik_input>  (1) 
W0NIMl0xW0NIMl1bQ0gyXU9DMT1P

>  <s_glide_docking_method>  (1) 
confgen

>  <s_i_glide_gridfile>  (1) 
gpcr_5ht2c_6bqh_protein_autoprepared_prepared

>  <s_lp_Force_Field>  (1) 
S-OPLS

>  <s_lp_Variant>  (1) 
Pocket2Mol_15-1

>  <s_m_source_file>  (1) 
generated_GPCR_5HT2C_ligand_Pocket2Mol_2026-06-23_prepared.sdf

>  <GenAI_Model>  (1) 
Pocket2Mol

>  <Protein>  (1) 
GPCR_5HT2C

$$$$
Pocket2Mol_18
     RDKit          3D

  0  0  0  0  0  0  0  0  0  0999 V3000
M  V30 BEGIN CTAB
M  V30 COUNTS 18 18 0 0 1
M  V30 BEGIN ATOM
M  V30 1 C 38.845682 27.355319 52.844752 0
M  V30 2 C 38.105384 26.881209 54.105446 0
M  V30 3 C 38.445137 27.766547 55.315538 0
M  V30 4 C 38.555172 28.834804 52.555060 0
M  V30 5 C 38.131393 29.243988 55.025667 0
M  V30 6 C 38.867952 29.729938 53.767716 0
M  V30 7 H 39.917723 27.202515 52.967759 0
M  V30 8 H 38.549001 26.754031 51.986313 0
M  V30 9 H 37.030030 26.906352 53.925171 0
M  V30 10 H 38.359329 25.842353 54.318369 0
M  V30 11 H 37.885398 27.432457 56.189673 0
M  V30 12 H 39.501505 27.657620 55.564966 0
M  V30 13 H 39.128834 29.165306 51.688434 0
M  V30 14 H 37.503837 28.937754 52.285197 0
M  V30 15 H 38.409092 29.860356 55.881371 0
M  V30 16 H 37.056282 29.373154 54.892463 0
M  V30 17 H 39.942573 29.737755 53.953058 0
M  V30 18 H 38.589968 30.762153 53.552874 0
M  V30 END ATOM
M  V30 BEGIN BOND
M  V30 1 1 2 1
M  V30 2 1 3 2
M  V30 3 1 4 1
M  V30 4 1 5 3
M  V30 5 1 6 4
M  V30 6 1 6 5
M  V30 7 1 7 1
M  V30 8 1 8 1
M  V30 9 1 9 2
M  V30 10 1 10 2
M  V30 11 1 11 3
M  V30 12 1 12 3
M  V30 13 1 13 4
M  V30 14 1 14 4
M  V30 15 1 15 5
M  V30 16 1 16 5
M  V30 17 1 17 6
M  V30 18 1 18 6
M  V30 END BOND
M  V30 END CTAB
M  END
>  <i_epik_Tot_Q>  (1) 
0

>  <i_epik_Tot_abs_Q>  (1) 
0

>  <i_i_glide_confnum>  (1) 
2

>  <i_i_glide_lignum>  (1) 
21

>  <i_i_glide_posenum>  (1) 
305

>  <i_i_glide_rotatable_bonds>  (1) 
0

>  <i_lp_mmshare_version>  (1) 
72125

>  <i_m_source_file_index>  (1) 
19

>  <i_f3d_flags>  (1) 
0

>  <num_sample>  (1) 
100

>  <b_lp_Chiralities_Consistent>  (1) 
1

>  <r_epik_Charging_Adjusted_Penalty>  (1) 
0

>  <r_epik_Ionization_Penalty>  (1) 
0

>  <r_epik_Ionization_Penalty_Charging>  (1) 
0

>  <r_epik_Ionization_Penalty_Neutral>  (1) 
0

>  <r_epik_State_Penalty>  (1) 
-0

>  <r_glide_ring_energy>  (1) 
0.00054248204421707515

>  <r_i_docking_score>  (1) 
-4.536270325512513

>  <r_i_glide_ecoul>  (1) 
0.076397880368984539

>  <r_i_glide_eff_state_penalty>  (1) 
-0

>  <r_i_glide_einternal>  (1) 
0

>  <r_i_glide_emodel>  (1) 
-16.928206906750596

>  <r_i_glide_emodel_strain>  (1) 
5.4387712111747533e-09

>  <r_i_glide_energy>  (1) 
-13.089519670754274

>  <r_i_glide_erotb>  (1) 
0

>  <r_i_glide_esite>  (1) 
0

>  <r_i_glide_evdw>  (1) 
-13.165917551123259

>  <r_i_glide_gscore>  (1) 
-4.536270325512513

>  <r_i_glide_gscore_strain>  (1) 
0

>  <r_i_glide_hbond>  (1) 
0

>  <r_i_glide_ligand_efficiency>  (1) 
-0.75604505425208546

>  <r_i_glide_ligand_efficiency_ln>  (1) 
-1.6248786385479084

>  <r_i_glide_ligand_efficiency_sa>  (1) 
-1.3738250371903569

>  <r_i_glide_lipo>  (1) 
-1.492850262770052

>  <r_i_glide_metal>  (1) 
-0

>  <r_i_glide_rewards>  (1) 
-2.3965838672416453

>  <r_lp_Energy>  (1) 
5.7175969999999996

>  <r_lp_tautomer_probability>  (1) 
1

>  <s_epik_cmdline>  (1) 
J2VwaWtfcHl0aG9uJywgJy1waHQnLCAnMS4wJywgJy1waCcsICc3LjQnLCAnLXRuJywgJzgnLCAnLW1hJywgJzUwMCcsICctaW1hZScsICc8aW5maWxlLm1hZT4nLCAnLW9tYWUnLCAnPG91dGZpbGUubWFlPic=

>  <s_epik_input>  (1) 
W0NIMl0xW0NIMl1bQ0gyXVtDSDJdW0NIMl1bQ0gyXTE=

>  <s_glide_docking_method>  (1) 
confgen

>  <s_i_glide_gridfile>  (1) 
gpcr_5ht2c_6bqh_protein_autoprepared_prepared

>  <s_lp_Force_Field>  (1) 
S-OPLS

>  <s_lp_Variant>  (1) 
Pocket2Mol_18-1

>  <s_m_source_file>  (1) 
generated_GPCR_5HT2C_ligand_Pocket2Mol_2026-06-23_prepared.sdf

>  <GenAI_Model>  (1) 
Pocket2Mol

>  <Protein>  (1) 
GPCR_5HT2C

$$$$
Pocket2Mol_3
     RDKit          3D

  0  0  0  0  0  0  0  0  0  0999 V3000
M  V30 BEGIN CTAB
M  V30 COUNTS 9 9 0 0 1
M  V30 BEGIN ATOM
M  V30 1 C 39.892455 29.014629 50.967509 0
M  V30 2 O 39.649877 29.702622 52.123291 0
M  V30 3 C 38.827341 28.902438 52.865557 0
M  V30 4 C 39.245137 27.812313 50.970696 0
M  V30 5 C 38.551903 27.740028 52.204550 0
M  V30 6 H 40.535312 29.517431 50.259948 0
M  V30 7 H 38.535637 29.306381 53.824287 0
M  V30 8 H 39.267015 27.076227 50.179723 0
M  V30 9 H 37.926456 26.937217 52.566095 0
M  V30 END ATOM
M  V30 BEGIN BOND
M  V30 1 1 2 1
M  V30 2 1 3 2
M  V30 3 2 4 1
M  V30 4 2 5 3
M  V30 5 1 5 4
M  V30 6 1 6 1
M  V30 7 1 7 3
M  V30 8 1 8 4
M  V30 9 1 9 5
M  V30 END BOND
M  V30 END CTAB
M  END
>  <i_epik_Tot_Q>  (1) 
0

>  <i_epik_Tot_abs_Q>  (1) 
0

>  <i_i_glide_confnum>  (1) 
1

>  <i_i_glide_lignum>  (1) 
6

>  <i_i_glide_posenum>  (1) 
291

>  <i_i_glide_rotatable_bonds>  (1) 
0

>  <i_lp_mmshare_version>  (1) 
72125

>  <i_m_source_file_index>  (1) 
4

>  <i_f3d_flags>  (1) 
0

>  <num_sample>  (1) 
100

>  <b_lp_Chiralities_Consistent>  (1) 
1

>  <r_epik_Charging_Adjusted_Penalty>  (1) 
0

>  <r_epik_Ionization_Penalty>  (1) 
0

>  <r_epik_Ionization_Penalty_Charging>  (1) 
0

>  <r_epik_Ionization_Penalty_Neutral>  (1) 
0

>  <r_epik_State_Penalty>  (1) 
-0

>  <r_glide_ring_energy>  (1) 
0

>  <r_i_docking_score>  (1) 
-4.5310674145114689

>  <r_i_glide_ecoul>  (1) 
-0.61007088556052413

>  <r_i_glide_eff_state_penalty>  (1) 
-0

>  <r_i_glide_einternal>  (1) 
0

>  <r_i_glide_emodel>  (1) 
-17.401382447188563

>  <r_i_glide_emodel_strain>  (1) 
0

>  <r_i_glide_energy>  (1) 
-13.600943565523293

>  <r_i_glide_erotb>  (1) 
0

>  <r_i_glide_esite>  (1) 
0

>  <r_i_glide_evdw>  (1) 
-12.990872679962768

>  <r_i_glide_gscore>  (1) 
-4.5310674145114689

>  <r_i_glide_gscore_strain>  (1) 
0

>  <r_i_glide_hbond>  (1) 
0

>  <r_i_glide_ligand_efficiency>  (1) 
-0.90621348290229375

>  <r_i_glide_ligand_efficiency_ln>  (1) 
-1.7364151079896206

>  <r_i_glide_ligand_efficiency_sa>  (1) 
-1.5496032583170365

>  <r_i_glide_lipo>  (1) 
-1.3041200557712533

>  <r_i_glide_metal>  (1) 
-0

>  <r_i_glide_rewards>  (1) 
-2.485893091907998

>  <r_lp_Energy>  (1) 
2.5980879999999997

>  <r_lp_tautomer_probability>  (1) 
1

>  <s_epik_cmdline>  (1) 
J2VwaWtfcHl0aG9uJywgJy1waHQnLCAnMS4wJywgJy1waCcsICc3LjQnLCAnLXRuJywgJzgnLCAnLW1hJywgJzUwMCcsICctaW1hZScsICc8aW5maWxlLm1hZT4nLCAnLW9tYWUnLCAnPG91dGZpbGUubWFlPic=

>  <s_epik_input>  (1) 
W2NIXTFvW2NIXVtjSF1bY0hdMQ==

>  <s_glide_docking_method>  (1) 
confgen

>  <s_i_glide_gridfile>  (1) 
gpcr_5ht2c_6bqh_protein_autoprepared_prepared

>  <s_lp_Force_Field>  (1) 
S-OPLS

>  <s_lp_Variant>  (1) 
Pocket2Mol_3-1

>  <s_m_source_file>  (1) 
generated_GPCR_5HT2C_ligand_Pocket2Mol_2026-06-23_prepared.sdf

>  <GenAI_Model>  (1) 
Pocket2Mol

>  <Protein>  (1) 
GPCR_5HT2C

$$$$
Pocket2Mol_13
     RDKit          3D

  0  0  0  0  0  0  0  0  0  0999 V3000
M  V30 BEGIN CTAB
M  V30 COUNTS 11 11 0 0 1
M  V30 BEGIN ATOM
M  V30 1 C 39.402152 28.369723 50.957773 0
M  V30 2 C 40.045118 29.227794 50.205675 0
M  V30 3 C 39.244882 28.912809 52.233319 0
M  V30 4 C 40.444542 30.537754 50.871580 0
M  V30 5 N 39.830659 30.124983 52.192644 0
M  V30 6 O 38.694186 28.413267 53.209822 0
M  V30 7 H 39.047043 27.398510 50.644117 0
M  V30 8 H 41.525288 30.671397 50.923489 0
M  V30 9 H 40.290108 29.044229 49.170009 0
M  V30 10 H 39.950896 31.400901 50.424446 0
M  V30 11 H 39.860508 30.739229 52.993521 0
M  V30 END ATOM
M  V30 BEGIN BOND
M  V30 1 2 2 1
M  V30 2 1 3 1
M  V30 3 1 4 2
M  V30 4 1 5 3
M  V30 5 1 5 4
M  V30 6 2 6 3
M  V30 7 1 7 1
M  V30 8 1 8 4
M  V30 9 1 9 2
M  V30 10 1 10 4
M  V30 11 1 11 5
M  V30 END BOND
M  V30 END CTAB
M  END
>  <i_epik_Tot_Q>  (1) 
0

>  <i_epik_Tot_abs_Q>  (1) 
0

>  <i_i_glide_confnum>  (1) 
1

>  <i_i_glide_lignum>  (1) 
16

>  <i_i_glide_posenum>  (1) 
270

>  <i_i_glide_rotatable_bonds>  (1) 
0

>  <i_lp_mmshare_version>  (1) 
72125

>  <i_m_source_file_index>  (1) 
14

>  <i_f3d_flags>  (1) 
0

>  <num_sample>  (1) 
100

>  <b_lp_Chiralities_Consistent>  (1) 
1

>  <r_epik_Charging_Adjusted_Penalty>  (1) 
0

>  <r_epik_Ionization_Penalty>  (1) 
3.8544596149973334e-06

>  <r_epik_Ionization_Penalty_Charging>  (1) 
0

>  <r_epik_Ionization_Penalty_Neutral>  (1) 
3.8544596149973334e-06

>  <r_epik_State_Penalty>  (1) 
-0

>  <r_glide_ring_energy>  (1) 
0

>  <r_i_docking_score>  (1) 
-4.5215700283701121

>  <r_i_glide_ecoul>  (1) 
-0.63999851164341059

>  <r_i_glide_eff_state_penalty>  (1) 
-0

>  <r_i_glide_einternal>  (1) 
0

>  <r_i_glide_emodel>  (1) 
-21.076659338441843

>  <r_i_glide_emodel_strain>  (1) 
0

>  <r_i_glide_energy>  (1) 
-16.289177160605796

>  <r_i_glide_erotb>  (1) 
0

>  <r_i_glide_esite>  (1) 
0

>  <r_i_glide_evdw>  (1) 
-15.649178648962385

>  <r_i_glide_gscore>  (1) 
-4.5215700283701121

>  <r_i_glide_gscore_strain>  (1) 
0

>  <r_i_glide_hbond>  (1) 
0

>  <r_i_glide_ligand_efficiency>  (1) 
-0.75359500472835206

>  <r_i_glide_ligand_efficiency_ln>  (1) 
-1.6196130355099554

>  <r_i_glide_ligand_efficiency_sa>  (1) 
-1.3693730017473222

>  <r_i_glide_lipo>  (1) 
-0.94311131917548141

>  <r_i_glide_metal>  (1) 
-0

>  <r_i_glide_rewards>  (1) 
-2.7000000000000002

>  <r_lp_Energy>  (1) 
3.204942

>  <r_lp_tautomer_probability>  (1) 
1

>  <s_epik_cmdline>  (1) 
J2VwaWtfcHl0aG9uJywgJy1waHQnLCAnMS4wJywgJy1waCcsICc3LjQnLCAnLXRuJywgJzgnLCAnLW1hJywgJzUwMCcsICctaW1hZScsICc8aW5maWxlLm1hZT4nLCAnLW9tYWUnLCAnPG91dGZpbGUubWFlPic=

>  <s_epik_input>  (1) 
Tz1DMVtDSDJdW0NIXT1bQ0hdW05IXTE=

>  <s_glide_docking_method>  (1) 
confgen

>  <s_i_glide_gridfile>  (1) 
gpcr_5ht2c_6bqh_protein_autoprepared_prepared

>  <s_lp_Force_Field>  (1) 
S-OPLS

>  <s_lp_Variant>  (1) 
Pocket2Mol_13-1

>  <s_m_source_file>  (1) 
generated_GPCR_5HT2C_ligand_Pocket2Mol_2026-06-23_prepared.sdf

>  <GenAI_Model>  (1) 
Pocket2Mol

>  <Protein>  (1) 
GPCR_5HT2C

$$$$
Pocket2Mol_77
     RDKit          3D

  0  0  0  0  0  0  0  0  0  0999 V3000
M  V30 BEGIN CTAB
M  V30 COUNTS 15 15 0 0 1
M  V30 BEGIN ATOM
M  V30 1 C 38.110545 29.439349 54.296447 0
M  V30 2 C 39.245137 29.998588 53.427423 0
M  V30 3 C 39.282985 29.136325 52.152768 0
M  V30 4 C 37.853817 28.028276 53.768136 0
M  V30 5 C 38.127479 28.137748 52.270695 0
M  V30 6 H 38.356346 29.447790 55.358783 0
M  V30 7 H 37.214299 30.047834 54.167761 0
M  V30 8 H 39.084640 31.053596 53.202278 0
M  V30 9 H 40.194225 29.932888 53.958391 0
M  V30 10 H 39.204763 29.737739 51.246294 0
M  V30 11 H 40.229843 28.600163 52.096387 0
M  V30 12 H 38.558715 27.330332 54.222018 0
M  V30 13 H 36.845293 27.674897 53.985753 0
M  V30 14 H 37.245187 28.537755 51.770492 0
M  V30 15 H 38.353837 27.174562 51.811923 0
M  V30 END ATOM
M  V30 BEGIN BOND
M  V30 1 1 2 1
M  V30 2 1 3 2
M  V30 3 1 4 1
M  V30 4 1 5 3
M  V30 5 1 5 4
M  V30 6 1 6 1
M  V30 7 1 7 1
M  V30 8 1 8 2
M  V30 9 1 9 2
M  V30 10 1 10 3
M  V30 11 1 11 3
M  V30 12 1 12 4
M  V30 13 1 13 4
M  V30 14 1 14 5
M  V30 15 1 15 5
M  V30 END BOND
M  V30 END CTAB
M  END
>  <i_epik_Tot_Q>  (1) 
0

>  <i_epik_Tot_abs_Q>  (1) 
0

>  <i_i_glide_confnum>  (1) 
3

>  <i_i_glide_lignum>  (1) 
82

>  <i_i_glide_posenum>  (1) 
377

>  <i_i_glide_rotatable_bonds>  (1) 
0

>  <i_lp_mmshare_version>  (1) 
72125

>  <i_m_source_file_index>  (1) 
78

>  <i_f3d_flags>  (1) 
0

>  <num_sample>  (1) 
100

>  <b_lp_Chiralities_Consistent>  (1) 
1

>  <r_epik_Charging_Adjusted_Penalty>  (1) 
0

>  <r_epik_Ionization_Penalty>  (1) 
0

>  <r_epik_Ionization_Penalty_Charging>  (1) 
0

>  <r_epik_Ionization_Penalty_Neutral>  (1) 
0

>  <r_epik_State_Penalty>  (1) 
-0

>  <r_glide_ring_energy>  (1) 
0.0011506089744752722

>  <r_i_docking_score>  (1) 
-4.521462089566584

>  <r_i_glide_ecoul>  (1) 
-0.086701676987399945

>  <r_i_glide_eff_state_penalty>  (1) 
-0

>  <r_i_glide_einternal>  (1) 
0

>  <r_i_glide_emodel>  (1) 
-15.843127136131706

>  <r_i_glide_emodel_strain>  (1) 
0

>  <r_i_glide_energy>  (1) 
-12.234016673689679

>  <r_i_glide_erotb>  (1) 
0

>  <r_i_glide_esite>  (1) 
0

>  <r_i_glide_evdw>  (1) 
-12.14731499670228

>  <r_i_glide_gscore>  (1) 
-4.521462089566584

>  <r_i_glide_gscore_strain>  (1) 
0

>  <r_i_glide_hbond>  (1) 
0

>  <r_i_glide_ligand_efficiency>  (1) 
-0.90429241791331683

>  <r_i_glide_ligand_efficiency_ln>  (1) 
-1.7327341141253425

>  <r_i_glide_ligand_efficiency_sa>  (1) 
-1.5463182833938833

>  <r_i_glide_lipo>  (1) 
-1.4177577548500264

>  <r_i_glide_metal>  (1) 
-0

>  <r_i_glide_rewards>  (1) 
-2.4833333333333334

>  <r_lp_Energy>  (1) 
13.274989999999999

>  <r_lp_tautomer_probability>  (1) 
1

>  <s_epik_cmdline>  (1) 
J2VwaWtfcHl0aG9uJywgJy1waHQnLCAnMS4wJywgJy1waCcsICc3LjQnLCAnLXRuJywgJzgnLCAnLW1hJywgJzUwMCcsICctaW1hZScsICc8aW5maWxlLm1hZT4nLCAnLW9tYWUnLCAnPG91dGZpbGUubWFlPic=

>  <s_epik_input>  (1) 
W0NIMl0xW0NIMl1bQ0gyXVtDSDJdW0NIMl0x

>  <s_glide_docking_method>  (1) 
confgen

>  <s_i_glide_gridfile>  (1) 
gpcr_5ht2c_6bqh_protein_autoprepared_prepared

>  <s_lp_Force_Field>  (1) 
S-OPLS

>  <s_lp_Variant>  (1) 
Pocket2Mol_77-1

>  <s_m_source_file>  (1) 
generated_GPCR_5HT2C_ligand_Pocket2Mol_2026-06-23_prepared.sdf

>  <GenAI_Model>  (1) 
Pocket2Mol

>  <Protein>  (1) 
GPCR_5HT2C

$$$$
Pocket2Mol_5
     RDKit          3D

  0  0  0  0  0  0  0  0  0  0999 V3000
M  V30 BEGIN CTAB
M  V30 COUNTS 12 12 0 0 1
M  V30 BEGIN ATOM
M  V30 1 C 39.645102 29.737417 52.463227 0
M  V30 2 C 38.740989 28.876149 52.768320 0
M  V30 3 C 40.294200 29.512661 51.111777 0
M  V30 4 C 39.427030 28.171531 50.666593 0
M  V30 5 N 38.568494 27.957550 51.843689 0
M  V30 6 H 38.127760 28.829942 53.657006 0
M  V30 7 H 40.126501 30.357993 50.444141 0
M  V30 8 H 41.359759 29.316381 51.213087 0
M  V30 9 H 38.845002 28.362089 49.767761 0
M  V30 10 H 40.055771 27.299160 50.496903 0
M  V30 11 H 39.929297 30.570246 53.090773 0
M  V30 12 H 37.766436 27.338647 51.810389 0
M  V30 END ATOM
M  V30 BEGIN BOND
M  V30 1 2 2 1
M  V30 2 1 3 1
M  V30 3 1 4 3
M  V30 4 1 5 2
M  V30 5 1 5 4
M  V30 6 1 6 2
M  V30 7 1 7 3
M  V30 8 1 8 3
M  V30 9 1 9 4
M  V30 10 1 10 4
M  V30 11 1 11 1
M  V30 12 1 12 5
M  V30 END BOND
M  V30 END CTAB
M  END
>  <i_epik_Tot_Q>  (1) 
0

>  <i_epik_Tot_abs_Q>  (1) 
0

>  <i_i_glide_confnum>  (1) 
1

>  <i_i_glide_lignum>  (1) 
8

>  <i_i_glide_posenum>  (1) 
200

>  <i_i_glide_rotatable_bonds>  (1) 
0

>  <i_lp_mmshare_version>  (1) 
72125

>  <i_m_source_file_index>  (1) 
6

>  <i_f3d_flags>  (1) 
0

>  <num_sample>  (1) 
100

>  <b_lp_Chiralities_Consistent>  (1) 
1

>  <r_epik_Charging_Adjusted_Penalty>  (1) 
1.6042444336516156e-06

>  <r_epik_Ionization_Penalty>  (1) 
0.0023556498582944039

>  <r_epik_Ionization_Penalty_Charging>  (1) 
1.6042444336516156e-06

>  <r_epik_Ionization_Penalty_Neutral>  (1) 
0.0023540456138607521

>  <r_epik_State_Penalty>  (1) 
-0

>  <r_glide_ring_energy>  (1) 
0

>  <r_i_docking_score>  (1) 
-4.5212319342903733

>  <r_i_glide_ecoul>  (1) 
-1.7343657689239649

>  <r_i_glide_eff_state_penalty>  (1) 
-0

>  <r_i_glide_einternal>  (1) 
0

>  <r_i_glide_emodel>  (1) 
-18.523252684665074

>  <r_i_glide_emodel_strain>  (1) 
0

>  <r_i_glide_energy>  (1) 
-14.541831691429994

>  <r_i_glide_erotb>  (1) 
0

>  <r_i_glide_esite>  (1) 
0

>  <r_i_glide_evdw>  (1) 
-12.807465922506029

>  <r_i_glide_gscore>  (1) 
-4.5212319342903733

>  <r_i_glide_gscore_strain>  (1) 
0

>  <r_i_glide_hbond>  (1) 
-0.050703772826477422

>  <r_i_glide_ligand_efficiency>  (1) 
-0.90424638685807468

>  <r_i_glide_ligand_efficiency_ln>  (1) 
-1.7326459130322587

>  <r_i_glide_ligand_efficiency_sa>  (1) 
-1.5462395713966191

>  <r_i_glide_lipo>  (1) 
-1.3200000000000001

>  <r_i_glide_metal>  (1) 
-0

>  <r_i_glide_rewards>  (1) 
-2.25

>  <r_lp_Energy>  (1) 
2.9163319999999997

>  <r_lp_tautomer_probability>  (1) 
1

>  <s_epik_Chemistry_Notes>  (1) 
This compound has an imine and may undergo hydrolysis.

>  <s_epik_cmdline>  (1) 
J2VwaWtfcHl0aG9uJywgJy1waHQnLCAnMS4wJywgJy1waCcsICc3LjQnLCAnLXRuJywgJzgnLCAnLW1hJywgJzUwMCcsICctaW1hZScsICc8aW5maWxlLm1hZT4nLCAnLW9tYWUnLCAnPG91dGZpbGUubWFlPic=

>  <s_epik_input>  (1) 
W0NIMl0xW0NIXT1OW0NIMl1bQ0gyXTE=

>  <s_glide_docking_method>  (1) 
confgen

>  <s_i_glide_gridfile>  (1) 
gpcr_5ht2c_6bqh_protein_autoprepared_prepared

>  <s_lp_Force_Field>  (1) 
S-OPLS

>  <s_lp_Variant>  (1) 
Pocket2Mol_5-1

>  <s_m_source_file>  (1) 
generated_GPCR_5HT2C_ligand_Pocket2Mol_2026-06-23_prepared.sdf

>  <GenAI_Model>  (1) 
Pocket2Mol

>  <Protein>  (1) 
GPCR_5HT2C

$$$$
Pocket2Mol_9
     RDKit          3D

  0  0  0  0  0  0  0  0  0  0999 V3000
M  V30 BEGIN CTAB
M  V30 COUNTS 11 11 0 0 1
M  V30 BEGIN ATOM
M  V30 1 C 40.045136 29.217908 50.214058 0
M  V30 2 C 40.472487 30.517438 50.881394 0
M  V30 3 C 39.384823 28.371692 50.965649 0
M  V30 4 C 39.243952 28.914566 52.243078 0
M  V30 5 N 39.856455 30.114310 52.203908 0
M  V30 6 O 38.687389 28.424145 53.219935 0
M  V30 7 H 40.280511 29.033647 49.177232 0
M  V30 8 H 39.902925 30.725832 53.007083 0
M  V30 9 H 41.556920 30.623728 50.922801 0
M  V30 10 H 39.005370 27.409268 50.648667 0
M  V30 11 H 39.996202 31.389395 50.432839 0
M  V30 END ATOM
M  V30 BEGIN BOND
M  V30 1 1 2 1
M  V30 2 2 3 1
M  V30 3 1 4 3
M  V30 4 1 5 2
M  V30 5 1 5 4
M  V30 6 2 6 4
M  V30 7 1 7 1
M  V30 8 1 8 5
M  V30 9 1 9 2
M  V30 10 1 10 3
M  V30 11 1 11 2
M  V30 END BOND
M  V30 END CTAB
M  END
>  <i_epik_Tot_Q>  (1) 
0

>  <i_epik_Tot_abs_Q>  (1) 
0

>  <i_i_glide_confnum>  (1) 
1

>  <i_i_glide_lignum>  (1) 
12

>  <i_i_glide_posenum>  (1) 
162

>  <i_i_glide_rotatable_bonds>  (1) 
0

>  <i_lp_mmshare_version>  (1) 
72125

>  <i_m_source_file_index>  (1) 
10

>  <i_f3d_flags>  (1) 
0

>  <num_sample>  (1) 
100

>  <b_lp_Chiralities_Consistent>  (1) 
1

>  <r_epik_Charging_Adjusted_Penalty>  (1) 
0

>  <r_epik_Ionization_Penalty>  (1) 
3.8544596149973334e-06

>  <r_epik_Ionization_Penalty_Charging>  (1) 
0

>  <r_epik_Ionization_Penalty_Neutral>  (1) 
3.8544596149973334e-06

>  <r_epik_State_Penalty>  (1) 
-0

>  <r_glide_ring_energy>  (1) 
0

>  <r_i_docking_score>  (1) 
-4.521013065337562

>  <r_i_glide_ecoul>  (1) 
-0.63698501795164653

>  <r_i_glide_eff_state_penalty>  (1) 
-0

>  <r_i_glide_einternal>  (1) 
0

>  <r_i_glide_emodel>  (1) 
-21.023483242563671

>  <r_i_glide_emodel_strain>  (1) 
0

>  <r_i_glide_energy>  (1) 
-16.237462244052573

>  <r_i_glide_erotb>  (1) 
0

>  <r_i_glide_esite>  (1) 
0

>  <r_i_glide_evdw>  (1) 
-15.600477226100928

>  <r_i_glide_gscore>  (1) 
-4.521013065337562

>  <r_i_glide_gscore_strain>  (1) 
0

>  <r_i_glide_hbond>  (1) 
0

>  <r_i_glide_ligand_efficiency>  (1) 
-0.75350217755626037

>  <r_i_glide_ligand_efficiency_ln>  (1) 
-1.6194135329959713

>  <r_i_glide_ligand_efficiency_sa>  (1) 
-1.36920432358134

>  <r_i_glide_lipo>  (1) 
-0.94576297864438985

>  <r_i_glide_metal>  (1) 
-0

>  <r_i_glide_rewards>  (1) 
-2.6996784726953789

>  <r_lp_Energy>  (1) 
3.2049569999999998

>  <r_lp_tautomer_probability>  (1) 
1

>  <s_epik_cmdline>  (1) 
J2VwaWtfcHl0aG9uJywgJy1waHQnLCAnMS4wJywgJy1waCcsICc3LjQnLCAnLXRuJywgJzgnLCAnLW1hJywgJzUwMCcsICctaW1hZScsICc8aW5maWxlLm1hZT4nLCAnLW9tYWUnLCAnPG91dGZpbGUubWFlPic=

>  <s_epik_input>  (1) 
TjE9W0NIXVtDSDJdW0NIMl1DMT1P

>  <s_glide_docking_method>  (1) 
confgen

>  <s_i_glide_gridfile>  (1) 
gpcr_5ht2c_6bqh_protein_autoprepared_prepared

>  <s_lp_Force_Field>  (1) 
S-OPLS

>  <s_lp_Variant>  (1) 
Pocket2Mol_9-1

>  <s_m_source_file>  (1) 
generated_GPCR_5HT2C_ligand_Pocket2Mol_2026-06-23_prepared.sdf

>  <GenAI_Model>  (1) 
Pocket2Mol

>  <Protein>  (1) 
GPCR_5HT2C

$$$$
Pocket2Mol_3
     RDKit          3D

  0  0  0  0  0  0  0  0  0  0999 V3000
M  V30 BEGIN CTAB
M  V30 COUNTS 9 9 0 0 1
M  V30 BEGIN ATOM
M  V30 1 C 38.903506 28.392730 52.247037 0
M  V30 2 O 39.348730 29.617257 52.662803 0
M  V30 3 C 40.045105 30.137754 51.606935 0
M  V30 4 C 39.304564 28.137751 50.967760 0
M  V30 5 C 40.045111 29.273420 50.550959 0
M  V30 6 H 38.325110 27.842035 52.974420 0
M  V30 7 H 40.466627 31.119323 51.772359 0
M  V30 8 H 39.088366 27.243246 50.400962 0
M  V30 9 H 40.518738 29.439894 49.595073 0
M  V30 END ATOM
M  V30 BEGIN BOND
M  V30 1 1 2 1
M  V30 2 1 3 2
M  V30 3 2 4 1
M  V30 4 2 5 3
M  V30 5 1 5 4
M  V30 6 1 6 1
M  V30 7 1 7 3
M  V30 8 1 8 4
M  V30 9 1 9 5
M  V30 END BOND
M  V30 END CTAB
M  END
>  <i_epik_Tot_Q>  (1) 
0

>  <i_epik_Tot_abs_Q>  (1) 
0

>  <i_i_glide_confnum>  (1) 
1

>  <i_i_glide_lignum>  (1) 
6

>  <i_i_glide_posenum>  (1) 
37

>  <i_i_glide_rotatable_bonds>  (1) 
0

>  <i_lp_mmshare_version>  (1) 
72125

>  <i_m_source_file_index>  (1) 
4

>  <i_f3d_flags>  (1) 
0

>  <num_sample>  (1) 
100

>  <b_lp_Chiralities_Consistent>  (1) 
1

>  <r_epik_Charging_Adjusted_Penalty>  (1) 
0

>  <r_epik_Ionization_Penalty>  (1) 
0

>  <r_epik_Ionization_Penalty_Charging>  (1) 
0

>  <r_epik_Ionization_Penalty_Neutral>  (1) 
0

>  <r_epik_State_Penalty>  (1) 
-0

>  <r_glide_ring_energy>  (1) 
0

>  <r_i_docking_score>  (1) 
-4.5147889905019793

>  <r_i_glide_ecoul>  (1) 
-0.65540200832225448

>  <r_i_glide_eff_state_penalty>  (1) 
-0

>  <r_i_glide_einternal>  (1) 
0

>  <r_i_glide_emodel>  (1) 
-17.409863046669795

>  <r_i_glide_emodel_strain>  (1) 
0

>  <r_i_glide_energy>  (1) 
-13.623077715013462

>  <r_i_glide_erotb>  (1) 
0

>  <r_i_glide_esite>  (1) 
0

>  <r_i_glide_evdw>  (1) 
-12.967675706691207

>  <r_i_glide_gscore>  (1) 
-4.5147889905019793

>  <r_i_glide_gscore_strain>  (1) 
0

>  <r_i_glide_hbond>  (1) 
0

>  <r_i_glide_ligand_efficiency>  (1) 
-0.90295779810039589

>  <r_i_glide_ligand_efficiency_ln>  (1) 
-1.7301768204519399

>  <r_i_glide_ligand_efficiency_sa>  (1) 
-1.5440361156158302

>  <r_i_glide_lipo>  (1) 
-1.3200000000000001

>  <r_i_glide_metal>  (1) 
-0

>  <r_i_glide_rewards>  (1) 
-2.4480949039190802

>  <r_lp_Energy>  (1) 
2.5980879999999997

>  <r_lp_tautomer_probability>  (1) 
1

>  <s_epik_cmdline>  (1) 
J2VwaWtfcHl0aG9uJywgJy1waHQnLCAnMS4wJywgJy1waCcsICc3LjQnLCAnLXRuJywgJzgnLCAnLW1hJywgJzUwMCcsICctaW1hZScsICc8aW5maWxlLm1hZT4nLCAnLW9tYWUnLCAnPG91dGZpbGUubWFlPic=

>  <s_epik_input>  (1) 
W2NIXTFvW2NIXVtjSF1bY0hdMQ==

>  <s_glide_docking_method>  (1) 
confgen

>  <s_i_glide_gridfile>  (1) 
gpcr_5ht2c_6bqh_protein_autoprepared_prepared

>  <s_lp_Force_Field>  (1) 
S-OPLS

>  <s_lp_Variant>  (1) 
Pocket2Mol_3-1

>  <s_m_source_file>  (1) 
generated_GPCR_5HT2C_ligand_Pocket2Mol_2026-06-23_prepared.sdf

>  <GenAI_Model>  (1) 
Pocket2Mol

>  <Protein>  (1) 
GPCR_5HT2C

$$$$
Pocket2Mol_9
     RDKit          3D

  0  0  0  0  0  0  0  0  0  0999 V3000
M  V30 BEGIN CTAB
M  V30 COUNTS 11 11 0 0 1
M  V30 BEGIN ATOM
M  V30 1 C 38.968348 28.482997 52.203320 0
M  V30 2 C 39.243642 29.691492 53.095414 0
M  V30 3 C 39.477868 28.529066 50.998471 0
M  V30 4 C 40.171462 29.733608 50.842933 0
M  V30 5 N 40.045137 30.386845 52.013377 0
M  V30 6 O 40.780650 30.137936 49.857025 0
M  V30 7 H 38.383394 27.651739 52.571053 0
M  V30 8 H 40.452525 31.297311 52.172238 0
M  V30 9 H 38.332384 30.225290 53.368192 0
M  V30 10 H 39.379210 27.763086 50.243075 0
M  V30 11 H 39.834862 29.446876 53.976913 0
M  V30 END ATOM
M  V30 BEGIN BOND
M  V30 1 1 2 1
M  V30 2 2 3 1
M  V30 3 1 4 3
M  V30 4 1 5 2
M  V30 5 1 5 4
M  V30 6 2 6 4
M  V30 7 1 7 1
M  V30 8 1 8 5
M  V30 9 1 9 2
M  V30 10 1 10 3
M  V30 11 1 11 2
M  V30 END BOND
M  V30 END CTAB
M  END
>  <i_epik_Tot_Q>  (1) 
0

>  <i_epik_Tot_abs_Q>  (1) 
0

>  <i_i_glide_confnum>  (1) 
1

>  <i_i_glide_lignum>  (1) 
12

>  <i_i_glide_posenum>  (1) 
261

>  <i_i_glide_rotatable_bonds>  (1) 
0

>  <i_lp_mmshare_version>  (1) 
72125

>  <i_m_source_file_index>  (1) 
10

>  <i_f3d_flags>  (1) 
0

>  <num_sample>  (1) 
100

>  <b_lp_Chiralities_Consistent>  (1) 
1

>  <r_epik_Charging_Adjusted_Penalty>  (1) 
0

>  <r_epik_Ionization_Penalty>  (1) 
3.8544596149973334e-06

>  <r_epik_Ionization_Penalty_Charging>  (1) 
0

>  <r_epik_Ionization_Penalty_Neutral>  (1) 
3.8544596149973334e-06

>  <r_epik_State_Penalty>  (1) 
-0

>  <r_glide_ring_energy>  (1) 
0

>  <r_i_docking_score>  (1) 
-4.5130872371226998

>  <r_i_glide_ecoul>  (1) 
-0.6737242756891233

>  <r_i_glide_eff_state_penalty>  (1) 
-0

>  <r_i_glide_einternal>  (1) 
0

>  <r_i_glide_emodel>  (1) 
-21.906622755577878

>  <r_i_glide_emodel_strain>  (1) 
0

>  <r_i_glide_energy>  (1) 
-17.128992173046278

>  <r_i_glide_erotb>  (1) 
0

>  <r_i_glide_esite>  (1) 
0

>  <r_i_glide_evdw>  (1) 
-16.455267897357153

>  <r_i_glide_gscore>  (1) 
-4.5130872371226998

>  <r_i_glide_gscore_strain>  (1) 
0

>  <r_i_glide_hbond>  (1) 
0

>  <r_i_glide_ligand_efficiency>  (1) 
-0.75218120618711659

>  <r_i_glide_ligand_efficiency_ln>  (1) 
-1.616574524728166

>  <r_i_glide_ligand_efficiency_sa>  (1) 
-1.3668039593039274

>  <r_i_glide_lipo>  (1) 
-0.8892652009014731

>  <r_i_glide_metal>  (1) 
-0

>  <r_i_glide_rewards>  (1) 
-2.7000000000000002

>  <r_lp_Energy>  (1) 
3.2049569999999998

>  <r_lp_tautomer_probability>  (1) 
1

>  <s_epik_cmdline>  (1) 
J2VwaWtfcHl0aG9uJywgJy1waHQnLCAnMS4wJywgJy1waCcsICc3LjQnLCAnLXRuJywgJzgnLCAnLW1hJywgJzUwMCcsICctaW1hZScsICc8aW5maWxlLm1hZT4nLCAnLW9tYWUnLCAnPG91dGZpbGUubWFlPic=

>  <s_epik_input>  (1) 
TjE9W0NIXVtDSDJdW0NIMl1DMT1P

>  <s_glide_docking_method>  (1) 
confgen

>  <s_i_glide_gridfile>  (1) 
gpcr_5ht2c_6bqh_protein_autoprepared_prepared

>  <s_lp_Force_Field>  (1) 
S-OPLS

>  <s_lp_Variant>  (1) 
Pocket2Mol_9-1

>  <s_m_source_file>  (1) 
generated_GPCR_5HT2C_ligand_Pocket2Mol_2026-06-23_prepared.sdf

>  <GenAI_Model>  (1) 
Pocket2Mol

>  <Protein>  (1) 
GPCR_5HT2C

$$$$
Pocket2Mol_19
     RDKit          3D

  0  0  0  0  0  0  0  0  0  0999 V3000
M  V30 BEGIN CTAB
M  V30 COUNTS 10 10 0 0 1
M  V30 BEGIN ATOM
M  V30 1 C 37.129222 33.775188 58.915708 0
M  V30 2 O 37.364671 32.566650 59.773151 0
M  V30 3 C 36.232404 32.306781 60.565569 0
M  V30 4 C 35.742864 34.093138 59.389256 0
M  V30 5 C 35.270263 33.290717 60.279637 0
M  V30 6 O 36.112303 31.383430 61.367760 0
M  V30 7 H 37.149236 33.532508 57.852839 0
M  V30 8 H 35.201875 34.939745 58.992455 0
M  V30 9 H 34.298814 33.338463 60.748844 0
M  V30 10 H 37.828648 34.579242 59.140831 0
M  V30 END ATOM
M  V30 BEGIN BOND
M  V30 1 1 2 1
M  V30 2 1 3 2
M  V30 3 1 4 1
M  V30 4 1 5 3
M  V30 5 2 5 4
M  V30 6 2 6 3
M  V30 7 1 7 1
M  V30 8 1 8 4
M  V30 9 1 9 5
M  V30 10 1 10 1
M  V30 END BOND
M  V30 END CTAB
M  END
>  <i_epik_Tot_Q>  (1) 
0

>  <i_epik_Tot_abs_Q>  (1) 
0

>  <i_i_glide_confnum>  (1) 
1

>  <i_i_glide_lignum>  (1) 
22

>  <i_i_glide_posenum>  (1) 
80

>  <i_i_glide_rotatable_bonds>  (1) 
0

>  <i_lp_mmshare_version>  (1) 
72125

>  <i_m_source_file_index>  (1) 
20

>  <i_f3d_flags>  (1) 
0

>  <num_sample>  (1) 
100

>  <b_lp_Chiralities_Consistent>  (1) 
1

>  <r_epik_Charging_Adjusted_Penalty>  (1) 
0

>  <r_epik_Ionization_Penalty>  (1) 
0

>  <r_epik_Ionization_Penalty_Charging>  (1) 
0

>  <r_epik_Ionization_Penalty_Neutral>  (1) 
0

>  <r_epik_State_Penalty>  (1) 
-0

>  <r_glide_ring_energy>  (1) 
0

>  <r_i_docking_score>  (1) 
-4.5122800936948062

>  <r_i_glide_ecoul>  (1) 
-3.9222843348339427

>  <r_i_glide_eff_state_penalty>  (1) 
-0

>  <r_i_glide_einternal>  (1) 
0

>  <r_i_glide_emodel>  (1) 
-19.6122781442503

>  <r_i_glide_emodel_strain>  (1) 
0

>  <r_i_glide_energy>  (1) 
-15.063292804601161

>  <r_i_glide_erotb>  (1) 
0

>  <r_i_glide_esite>  (1) 
-0.041285732235943444

>  <r_i_glide_evdw>  (1) 
-11.141008469767218

>  <r_i_glide_gscore>  (1) 
-4.5122800936948062

>  <r_i_glide_gscore_strain>  (1) 
0

>  <r_i_glide_hbond>  (1) 
-0.32000000000000001

>  <r_i_glide_ligand_efficiency>  (1) 
-0.75204668228246774

>  <r_i_glide_ligand_efficiency_ln>  (1) 
-1.6162854083351563

>  <r_i_glide_ligand_efficiency_sa>  (1) 
-1.3665595131465615

>  <r_i_glide_lipo>  (1) 
-0.097267954412077223

>  <r_i_glide_metal>  (1) 
-0

>  <r_i_glide_rewards>  (1) 
-2.9083333333333332

>  <r_lp_Energy>  (1) 
-7.0611199999999998

>  <r_lp_tautomer_probability>  (1) 
1

>  <s_epik_Chemistry_Notes>  (1) 
This compound has an ester and may undergo hydrolysis at high or low pH.

>  <s_epik_cmdline>  (1) 
J2VwaWtfcHl0aG9uJywgJy1waHQnLCAnMS4wJywgJy1waCcsICc3LjQnLCAnLXRuJywgJzgnLCAnLW1hJywgJzUwMCcsICctaW1hZScsICc8aW5maWxlLm1hZT4nLCAnLW9tYWUnLCAnPG91dGZpbGUubWFlPic=

>  <s_epik_input>  (1) 
W0NIMl0xW0NIXT1bQ0hdT0MxPU8=

>  <s_glide_docking_method>  (1) 
confgen

>  <s_i_glide_gridfile>  (1) 
gpcr_5ht2c_6bqh_protein_autoprepared_prepared

>  <s_lp_Force_Field>  (1) 
S-OPLS

>  <s_lp_Variant>  (1) 
Pocket2Mol_19-1

>  <s_m_source_file>  (1) 
generated_GPCR_5HT2C_ligand_Pocket2Mol_2026-06-23_prepared.sdf

>  <GenAI_Model>  (1) 
Pocket2Mol

>  <Protein>  (1) 
GPCR_5HT2C

$$$$
Pocket2Mol_15
     RDKit          3D

  0  0  0  0  0  0  0  0  0  0999 V3000
M  V30 BEGIN CTAB
M  V30 COUNTS 12 12 0 0 1
M  V30 BEGIN ATOM
M  V30 1 C 35.645067 34.137596 59.367779 0
M  V30 2 O 35.363054 33.302957 60.479535 0
M  V30 3 C 37.077751 33.756502 58.966539 0
M  V30 4 C 36.190817 32.268427 60.539310 0
M  V30 5 C 37.245138 32.322117 59.454152 0
M  V30 6 O 36.140526 31.362168 61.367602 0
M  V30 7 H 34.939938 33.910987 58.567840 0
M  V30 8 H 35.555493 35.194171 59.620010 0
M  V30 9 H 37.236310 33.852154 57.891613 0
M  V30 10 H 37.794292 34.405595 59.471121 0
M  V30 11 H 38.245038 32.118353 59.836693 0
M  V30 12 H 36.997682 31.602667 58.672597 0
M  V30 END ATOM
M  V30 BEGIN BOND
M  V30 1 1 2 1
M  V30 2 1 3 1
M  V30 3 1 4 2
M  V30 4 1 5 3
M  V30 5 1 5 4
M  V30 6 2 6 4
M  V30 7 1 7 1
M  V30 8 1 8 1
M  V30 9 1 9 3
M  V30 10 1 10 3
M  V30 11 1 11 5
M  V30 12 1 12 5
M  V30 END BOND
M  V30 END CTAB
M  END
>  <i_epik_Tot_Q>  (1) 
0

>  <i_epik_Tot_abs_Q>  (1) 
0

>  <i_i_glide_confnum>  (1) 
2

>  <i_i_glide_lignum>  (1) 
18

>  <i_i_glide_posenum>  (1) 
169

>  <i_i_glide_rotatable_bonds>  (1) 
0

>  <i_lp_mmshare_version>  (1) 
72125

>  <i_m_source_file_index>  (1) 
16

>  <i_f3d_flags>  (1) 
0

>  <num_sample>  (1) 
100

>  <b_lp_Chiralities_Consistent>  (1) 
1

>  <r_epik_Charging_Adjusted_Penalty>  (1) 
0

>  <r_epik_Ionization_Penalty>  (1) 
0

>  <r_epik_Ionization_Penalty_Charging>  (1) 
0

>  <r_epik_Ionization_Penalty_Neutral>  (1) 
0

>  <r_epik_State_Penalty>  (1) 
-0

>  <r_glide_ring_energy>  (1) 
0.00053108536261990756

>  <r_i_docking_score>  (1) 
-4.5069572753688707

>  <r_i_glide_ecoul>  (1) 
-3.9568830104864086

>  <r_i_glide_eff_state_penalty>  (1) 
-0

>  <r_i_glide_einternal>  (1) 
0

>  <r_i_glide_emodel>  (1) 
-19.808963927433879

>  <r_i_glide_emodel_strain>  (1) 
0

>  <r_i_glide_energy>  (1) 
-15.181029937005842

>  <r_i_glide_erotb>  (1) 
0

>  <r_i_glide_esite>  (1) 
-0.046001125814841642

>  <r_i_glide_evdw>  (1) 
-11.224146926519433

>  <r_i_glide_gscore>  (1) 
-4.5069572753688707

>  <r_i_glide_gscore_strain>  (1) 
0

>  <r_i_glide_hbond>  (1) 
-0.32000000000000001

>  <r_i_glide_ligand_efficiency>  (1) 
-0.75115954589481182

>  <r_i_glide_ligand_efficiency_ln>  (1) 
-1.6143787905249167

>  <r_i_glide_ligand_efficiency_sa>  (1) 
-1.3649474793479013

>  <r_i_glide_lipo>  (1) 
-0.018336166112098744

>  <r_i_glide_metal>  (1) 
-0

>  <r_i_glide_rewards>  (1) 
-2.967880185542997

>  <r_lp_Energy>  (1) 
-1.1766760000000001

>  <r_lp_tautomer_probability>  (1) 
1

>  <s_epik_Chemistry_Notes>  (1) 
This compound has an ester and may undergo hydrolysis at high or low pH.

>  <s_epik_cmdline>  (1) 
J2VwaWtfcHl0aG9uJywgJy1waHQnLCAnMS4wJywgJy1waCcsICc3LjQnLCAnLXRuJywgJzgnLCAnLW1hJywgJzUwMCcsICctaW1hZScsICc8aW5maWxlLm1hZT4nLCAnLW9tYWUnLCAnPG91dGZpbGUubWFlPic=

>  <s_epik_input>  (1) 
W0NIMl0xW0NIMl1bQ0gyXU9DMT1P

>  <s_glide_docking_method>  (1) 
confgen

>  <s_i_glide_gridfile>  (1) 
gpcr_5ht2c_6bqh_protein_autoprepared_prepared

>  <s_lp_Force_Field>  (1) 
S-OPLS

>  <s_lp_Variant>  (1) 
Pocket2Mol_15-1

>  <s_m_source_file>  (1) 
generated_GPCR_5HT2C_ligand_Pocket2Mol_2026-06-23_prepared.sdf

>  <GenAI_Model>  (1) 
Pocket2Mol

>  <Protein>  (1) 
GPCR_5HT2C

$$$$
Pocket2Mol_15
     RDKit          3D

  0  0  0  0  0  0  0  0  0  0999 V3000
M  V30 BEGIN CTAB
M  V30 COUNTS 12 12 0 0 1
M  V30 BEGIN ATOM
M  V30 1 C 36.868602 34.754411 60.504018 0
M  V30 2 O 36.877068 33.536996 61.231476 0
M  V30 3 C 35.947641 34.470526 59.309492 0
M  V30 4 C 35.881179 32.736748 60.876623 0
M  V30 5 C 35.040562 33.334512 59.768582 0
M  V30 6 O 35.644091 31.635987 61.367759 0
M  V30 7 H 36.458087 35.543446 61.135031 0
M  V30 8 H 37.873692 35.041375 60.189973 0
M  V30 9 H 35.388401 35.352649 58.996635 0
M  V30 10 H 36.541516 34.138844 58.456045 0
M  V30 11 H 34.830174 32.620666 58.973387 0
M  V30 12 H 34.102257 33.705504 60.180671 0
M  V30 END ATOM
M  V30 BEGIN BOND
M  V30 1 1 2 1
M  V30 2 1 3 1
M  V30 3 1 4 2
M  V30 4 1 5 3
M  V30 5 1 5 4
M  V30 6 2 6 4
M  V30 7 1 7 1
M  V30 8 1 8 1
M  V30 9 1 9 3
M  V30 10 1 10 3
M  V30 11 1 11 5
M  V30 12 1 12 5
M  V30 END BOND
M  V30 END CTAB
M  END
>  <i_epik_Tot_Q>  (1) 
0

>  <i_epik_Tot_abs_Q>  (1) 
0

>  <i_i_glide_confnum>  (1) 
2

>  <i_i_glide_lignum>  (1) 
18

>  <i_i_glide_posenum>  (1) 
362

>  <i_i_glide_rotatable_bonds>  (1) 
0

>  <i_lp_mmshare_version>  (1) 
72125

>  <i_m_source_file_index>  (1) 
16

>  <i_f3d_flags>  (1) 
0

>  <num_sample>  (1) 
100

>  <b_lp_Chiralities_Consistent>  (1) 
1

>  <r_epik_Charging_Adjusted_Penalty>  (1) 
0

>  <r_epik_Ionization_Penalty>  (1) 
0

>  <r_epik_Ionization_Penalty_Charging>  (1) 
0

>  <r_epik_Ionization_Penalty_Neutral>  (1) 
0

>  <r_epik_State_Penalty>  (1) 
-0

>  <r_glide_ring_energy>  (1) 
0.00053108536261990756

>  <r_i_docking_score>  (1) 
-4.4841510869949612

>  <r_i_glide_ecoul>  (1) 
-3.2016615993979212

>  <r_i_glide_eff_state_penalty>  (1) 
-0

>  <r_i_glide_einternal>  (1) 
0

>  <r_i_glide_emodel>  (1) 
-20.086962365969935

>  <r_i_glide_emodel_strain>  (1) 
0

>  <r_i_glide_energy>  (1) 
-15.482446732521792

>  <r_i_glide_erotb>  (1) 
0

>  <r_i_glide_esite>  (1) 
0

>  <r_i_glide_evdw>  (1) 
-12.280785133123871

>  <r_i_glide_gscore>  (1) 
-4.4841510869949612

>  <r_i_glide_gscore_strain>  (1) 
0

>  <r_i_glide_hbond>  (1) 
-0.32000000000000001

>  <r_i_glide_ligand_efficiency>  (1) 
-0.74735851449916024

>  <r_i_glide_ligand_efficiency_ln>  (1) 
-1.6062096811781807

>  <r_i_glide_ligand_efficiency_sa>  (1) 
-1.3580405469248613

>  <r_i_glide_lipo>  (1) 
-0.19957693591473061

>  <r_i_glide_metal>  (1) 
-0

>  <r_i_glide_rewards>  (1) 
-2.8702856545143485

>  <r_lp_Energy>  (1) 
-1.1766760000000001

>  <r_lp_tautomer_probability>  (1) 
1

>  <s_epik_Chemistry_Notes>  (1) 
This compound has an ester and may undergo hydrolysis at high or low pH.

>  <s_epik_cmdline>  (1) 
J2VwaWtfcHl0aG9uJywgJy1waHQnLCAnMS4wJywgJy1waCcsICc3LjQnLCAnLXRuJywgJzgnLCAnLW1hJywgJzUwMCcsICctaW1hZScsICc8aW5maWxlLm1hZT4nLCAnLW9tYWUnLCAnPG91dGZpbGUubWFlPic=

>  <s_epik_input>  (1) 
W0NIMl0xW0NIMl1bQ0gyXU9DMT1P

>  <s_glide_docking_method>  (1) 
confgen

>  <s_i_glide_gridfile>  (1) 
gpcr_5ht2c_6bqh_protein_autoprepared_prepared

>  <s_lp_Force_Field>  (1) 
S-OPLS

>  <s_lp_Variant>  (1) 
Pocket2Mol_15-1

>  <s_m_source_file>  (1) 
generated_GPCR_5HT2C_ligand_Pocket2Mol_2026-06-23_prepared.sdf

>  <GenAI_Model>  (1) 
Pocket2Mol

>  <Protein>  (1) 
GPCR_5HT2C

$$$$
Pocket2Mol_44
     RDKit          3D

  0  0  0  0  0  0  0  0  0  0999 V3000
M  V30 BEGIN CTAB
M  V30 COUNTS 10 9 0 0 1
M  V30 BEGIN ATOM
M  V30 1 C 39.236916 27.387352 51.188624 0
M  V30 2 O 40.170141 28.416195 51.201770 0
M  V30 3 C 39.849367 29.504044 50.348338 0
M  V30 4 O 38.045134 27.737821 51.847096 0
M  V30 5 H 39.645162 26.525850 51.714181 0
M  V30 6 H 38.996191 27.086064 50.167762 0
M  V30 7 H 40.611855 30.277170 50.445547 0
M  V30 8 H 39.818370 29.192008 49.305161 0
M  V30 9 H 38.886413 29.944283 50.601854 0
M  V30 10 H 37.378786 27.098926 51.615880 0
M  V30 END ATOM
M  V30 BEGIN BOND
M  V30 1 1 2 1
M  V30 2 1 3 2
M  V30 3 1 4 1
M  V30 4 1 5 1
M  V30 5 1 6 1
M  V30 6 1 7 3
M  V30 7 1 8 3
M  V30 8 1 9 3
M  V30 9 1 10 4
M  V30 END BOND
M  V30 END CTAB
M  END
>  <i_epik_Tot_Q>  (1) 
0

>  <i_epik_Tot_abs_Q>  (1) 
0

>  <i_i_glide_confnum>  (1) 
1

>  <i_i_glide_lignum>  (1) 
47

>  <i_i_glide_posenum>  (1) 
273

>  <i_i_glide_rotatable_bonds>  (1) 
2

>  <i_lp_mmshare_version>  (1) 
72125

>  <i_m_source_file_index>  (1) 
45

>  <i_f3d_flags>  (1) 
0

>  <num_sample>  (1) 
100

>  <b_lp_Chiralities_Consistent>  (1) 
1

>  <r_epik_Charging_Adjusted_Penalty>  (1) 
0

>  <r_epik_Ionization_Penalty>  (1) 
1.028953084229311e-06

>  <r_epik_Ionization_Penalty_Charging>  (1) 
0

>  <r_epik_Ionization_Penalty_Neutral>  (1) 
1.028953084229311e-06

>  <r_epik_State_Penalty>  (1) 
-0

>  <r_glide_ring_energy>  (1) 
0

>  <r_i_docking_score>  (1) 
-4.4837189377859037

>  <r_i_glide_ecoul>  (1) 
-4.2988881256041491

>  <r_i_glide_eff_state_penalty>  (1) 
-0

>  <r_i_glide_einternal>  (1) 
2.0194892769227817

>  <r_i_glide_emodel>  (1) 
-17.989002212077427

>  <r_i_glide_emodel_strain>  (1) 
0.0054936613496858744

>  <r_i_glide_energy>  (1) 
-14.112803500705136

>  <r_i_glide_erotb>  (1) 
0

>  <r_i_glide_esite>  (1) 
0

>  <r_i_glide_evdw>  (1) 
-9.8139153751009864

>  <r_i_glide_gscore>  (1) 
-4.4837189377859037

>  <r_i_glide_gscore_strain>  (1) 
0

>  <r_i_glide_hbond>  (1) 
-0.32000000000000001

>  <r_i_glide_ligand_efficiency>  (1) 
-1.1209297344464759

>  <r_i_glide_ligand_efficiency_ln>  (1) 
-1.8789462904658958

>  <r_i_glide_ligand_efficiency_sa>  (1) 
-1.7793650396427703

>  <r_i_glide_lipo>  (1) 
-0.328189950190232

>  <r_i_glide_metal>  (1) 
-0

>  <r_i_glide_rewards>  (1) 
-2.7000000000000002

>  <r_lp_Energy>  (1) 
5.5414079999999997

>  <r_lp_tautomer_probability>  (1) 
1

>  <s_epik_Chemistry_Notes>  (1) 
This compound contains an acetal/aminal-like group ( X-CH(R)-Y where X, Y are N, S, or O) that may be acid/base labile, releasing an aldehyde.

>  <s_epik_cmdline>  (1) 
J2VwaWtfcHl0aG9uJywgJy1waHQnLCAnMS4wJywgJy1waCcsICc3LjQnLCAnLXRuJywgJzgnLCAnLW1hJywgJzUwMCcsICctaW1hZScsICc8aW5maWxlLm1hZT4nLCAnLW9tYWUnLCAnPG91dGZpbGUubWFlPic=

>  <s_epik_input>  (1) 
W09IXVtDSDJdT1tDSDNd

>  <s_glide_docking_method>  (1) 
confgen

>  <s_i_glide_gridfile>  (1) 
gpcr_5ht2c_6bqh_protein_autoprepared_prepared

>  <s_lp_Force_Field>  (1) 
S-OPLS

>  <s_lp_Variant>  (1) 
Pocket2Mol_44-1

>  <s_m_source_file>  (1) 
generated_GPCR_5HT2C_ligand_Pocket2Mol_2026-06-23_prepared.sdf

>  <GenAI_Model>  (1) 
Pocket2Mol

>  <Protein>  (1) 
GPCR_5HT2C

$$$$
Pocket2Mol_28
     RDKit          3D

  0  0  0  0  0  0  0  0  0  0999 V3000
M  V30 BEGIN CTAB
M  V30 COUNTS 13 13 0 0 1
M  V30 BEGIN ATOM
M  V30 1 C 37.591187 34.092547 59.916427 0
M  V30 2 O 37.158376 33.109757 60.845111 0
M  V30 3 C 35.942379 32.499300 60.767528 0
M  V30 4 O 35.645076 31.468806 61.367307 0
M  V30 5 C 34.917840 33.237256 59.868964 0
M  V30 6 C 36.445104 35.028654 59.562218 0
M  V30 7 O 35.479790 34.189124 58.967779 0
M  V30 8 H 37.970694 33.600059 59.019724 0
M  V30 9 H 38.419488 34.652460 60.351249 0
M  V30 10 H 34.202132 33.737760 60.519537 0
M  V30 11 H 34.354835 32.503935 59.291002 0
M  V30 12 H 36.769668 35.785472 58.848606 0
M  V30 13 H 36.046694 35.542153 60.437499 0
M  V30 END ATOM
M  V30 BEGIN BOND
M  V30 1 1 2 1
M  V30 2 1 3 2
M  V30 3 2 4 3
M  V30 4 1 5 3
M  V30 5 1 6 1
M  V30 6 1 7 5
M  V30 7 1 7 6
M  V30 8 1 8 1
M  V30 9 1 9 1
M  V30 10 1 10 5
M  V30 11 1 11 5
M  V30 12 1 12 6
M  V30 13 1 13 6
M  V30 END BOND
M  V30 END CTAB
M  END
>  <i_epik_Tot_Q>  (1) 
0

>  <i_epik_Tot_abs_Q>  (1) 
0

>  <i_i_glide_confnum>  (1) 
2

>  <i_i_glide_lignum>  (1) 
31

>  <i_i_glide_posenum>  (1) 
148

>  <i_i_glide_rotatable_bonds>  (1) 
0

>  <i_lp_mmshare_version>  (1) 
72125

>  <i_m_source_file_index>  (1) 
29

>  <i_f3d_flags>  (1) 
0

>  <num_sample>  (1) 
100

>  <b_lp_Chiralities_Consistent>  (1) 
1

>  <r_epik_Charging_Adjusted_Penalty>  (1) 
0

>  <r_epik_Ionization_Penalty>  (1) 
1.0677269036415479e-12

>  <r_epik_Ionization_Penalty_Charging>  (1) 
0

>  <r_epik_Ionization_Penalty_Neutral>  (1) 
1.0677269036415479e-12

>  <r_epik_State_Penalty>  (1) 
-0

>  <r_glide_ring_energy>  (1) 
4.2281688740393558e-05

>  <r_i_docking_score>  (1) 
-4.4781949346934997

>  <r_i_glide_ecoul>  (1) 
-2.7554736295723612

>  <r_i_glide_eff_state_penalty>  (1) 
-0

>  <r_i_glide_einternal>  (1) 
0

>  <r_i_glide_emodel>  (1) 
-20.39501733531247

>  <r_i_glide_emodel_strain>  (1) 
0

>  <r_i_glide_energy>  (1) 
-15.765822118197768

>  <r_i_glide_erotb>  (1) 
0

>  <r_i_glide_esite>  (1) 
-0.013270119357364787

>  <r_i_glide_evdw>  (1) 
-13.010348488625407

>  <r_i_glide_gscore>  (1) 
-4.4781949346934997

>  <r_i_glide_gscore_strain>  (1) 
0

>  <r_i_glide_hbond>  (1) 
-0.32000000000000001

>  <r_i_glide_ligand_efficiency>  (1) 
-0.63974213352764286

>  <r_i_glide_ligand_efficiency_ln>  (1) 
-1.520139687943149

>  <r_i_glide_ligand_efficiency_sa>  (1) 
-1.2237826761583654

>  <r_i_glide_lipo>  (1) 
-0.23878129530664513

>  <r_i_glide_metal>  (1) 
-0

>  <r_i_glide_rewards>  (1) 
-2.8423050511623655

>  <r_lp_Energy>  (1) 
12.58291

>  <r_lp_tautomer_probability>  (1) 
1

>  <s_epik_Chemistry_Notes>  (1) 
This compound has an ester and may undergo hydrolysis at high or low pH.

>  <s_epik_cmdline>  (1) 
J2VwaWtfcHl0aG9uJywgJy1waHQnLCAnMS4wJywgJy1waCcsICc3LjQnLCAnLXRuJywgJzgnLCAnLW1hJywgJzUwMCcsICctaW1hZScsICc8aW5maWxlLm1hZT4nLCAnLW9tYWUnLCAnPG91dGZpbGUubWFlPic=

>  <s_epik_input>  (1) 
W0NIMl0xT1tDSDJdW0NIMl1PQzE9Tw==

>  <s_glide_docking_method>  (1) 
confgen

>  <s_i_glide_gridfile>  (1) 
gpcr_5ht2c_6bqh_protein_autoprepared_prepared

>  <s_lp_Force_Field>  (1) 
S-OPLS

>  <s_lp_Variant>  (1) 
Pocket2Mol_28-1

>  <s_m_source_file>  (1) 
generated_GPCR_5HT2C_ligand_Pocket2Mol_2026-06-23_prepared.sdf

>  <GenAI_Model>  (1) 
Pocket2Mol

>  <Protein>  (1) 
GPCR_5HT2C

$$$$
Pocket2Mol_12
     RDKit          3D

  0  0  0  0  0  0  0  0  0  0999 V3000
M  V30 BEGIN CTAB
M  V30 COUNTS 14 14 0 0 1
M  V30 BEGIN ATOM
M  V30 1 C 35.245203 33.201866 61.220257 0
M  V30 2 O 35.644956 31.842570 61.364209 0
M  V30 3 C 36.140744 31.337755 60.128989 0
M  V30 4 C 36.466989 34.040079 60.805890 0
M  V30 5 O 36.985757 33.540269 59.581227 0
M  V30 6 C 37.358362 32.171691 59.689739 0
M  V30 7 H 34.445093 33.289343 60.482967 0
M  V30 8 H 34.845194 33.563883 62.167757 0
M  V30 9 H 36.425829 30.293269 60.255179 0
M  V30 10 H 35.358993 31.365177 59.367776 0
M  V30 11 H 36.183917 35.083499 60.669038 0
M  V30 12 H 37.236554 34.012944 61.578647 0
M  V30 13 H 38.178445 32.062193 60.400648 0
M  V30 14 H 37.722889 31.825778 58.722244 0
M  V30 END ATOM
M  V30 BEGIN BOND
M  V30 1 1 2 1
M  V30 2 1 3 2
M  V30 3 1 4 1
M  V30 4 1 5 4
M  V30 5 1 6 3
M  V30 6 1 6 5
M  V30 7 1 7 1
M  V30 8 1 8 1
M  V30 9 1 9 3
M  V30 10 1 10 3
M  V30 11 1 11 4
M  V30 12 1 12 4
M  V30 13 1 13 6
M  V30 14 1 14 6
M  V30 END BOND
M  V30 END CTAB
M  END
>  <i_epik_Tot_Q>  (1) 
0

>  <i_epik_Tot_abs_Q>  (1) 
0

>  <i_i_glide_confnum>  (1) 
2

>  <i_i_glide_lignum>  (1) 
15

>  <i_i_glide_posenum>  (1) 
215

>  <i_i_glide_rotatable_bonds>  (1) 
0

>  <i_lp_mmshare_version>  (1) 
72125

>  <i_m_source_file_index>  (1) 
13

>  <i_f3d_flags>  (1) 
0

>  <num_sample>  (1) 
100

>  <b_lp_Chiralities_Consistent>  (1) 
1

>  <r_epik_Charging_Adjusted_Penalty>  (1) 
0

>  <r_epik_Ionization_Penalty>  (1) 
8.3894707547109138e-13

>  <r_epik_Ionization_Penalty_Charging>  (1) 
0

>  <r_epik_Ionization_Penalty_Neutral>  (1) 
8.3894707547109138e-13

>  <r_epik_State_Penalty>  (1) 
-0

>  <r_glide_ring_energy>  (1) 
0.00013676017923054334

>  <r_i_docking_score>  (1) 
-4.4683855650306556

>  <r_i_glide_ecoul>  (1) 
-1.8424616566501466

>  <r_i_glide_eff_state_penalty>  (1) 
-0

>  <r_i_glide_einternal>  (1) 
0

>  <r_i_glide_emodel>  (1) 
-17.011760080339201

>  <r_i_glide_emodel_strain>  (1) 
0

>  <r_i_glide_energy>  (1) 
-13.286724457889587

>  <r_i_glide_erotb>  (1) 
0

>  <r_i_glide_esite>  (1) 
0

>  <r_i_glide_evdw>  (1) 
-11.444262801239441

>  <r_i_glide_gscore>  (1) 
-4.4683855650306556

>  <r_i_glide_gscore_strain>  (1) 
0

>  <r_i_glide_hbond>  (1) 
-0.30388369481158301

>  <r_i_glide_ligand_efficiency>  (1) 
-0.74473092750510927

>  <r_i_glide_ligand_efficiency_ln>  (1) 
-1.6005625177537957

>  <r_i_glide_ligand_efficiency_sa>  (1) 
-1.3532659044885136

>  <r_i_glide_lipo>  (1) 
-0.33378886713010497

>  <r_i_glide_metal>  (1) 
-0

>  <r_i_glide_rewards>  (1) 
-2.9821306145294733

>  <r_lp_Energy>  (1) 
4.964817

>  <r_lp_tautomer_probability>  (1) 
1

>  <s_epik_cmdline>  (1) 
J2VwaWtfcHl0aG9uJywgJy1waHQnLCAnMS4wJywgJy1waCcsICc3LjQnLCAnLXRuJywgJzgnLCAnLW1hJywgJzUwMCcsICctaW1hZScsICc8aW5maWxlLm1hZT4nLCAnLW9tYWUnLCAnPG91dGZpbGUubWFlPic=

>  <s_epik_input>  (1) 
W0NIMl0xT1tDSDJdW0NIMl1PW0NIMl0x

>  <s_glide_docking_method>  (1) 
confgen

>  <s_i_glide_gridfile>  (1) 
gpcr_5ht2c_6bqh_protein_autoprepared_prepared

>  <s_lp_Force_Field>  (1) 
S-OPLS

>  <s_lp_Variant>  (1) 
Pocket2Mol_12-1

>  <s_m_source_file>  (1) 
generated_GPCR_5HT2C_ligand_Pocket2Mol_2026-06-23_prepared.sdf

>  <GenAI_Model>  (1) 
Pocket2Mol

>  <Protein>  (1) 
GPCR_5HT2C

$$$$
Pocket2Mol_26
     RDKit          3D

  0  0  0  0  0  0  0  0  0  0999 V3000
M  V30 BEGIN CTAB
M  V30 COUNTS 16 16 0 0 1
M  V30 BEGIN ATOM
M  V30 1 C 40.045137 29.890906 51.531824 0
M  V30 2 C 39.598149 30.160169 52.908289 0
M  V30 3 C 39.619847 28.798856 50.995035 0
M  V30 4 C 38.738952 27.962284 51.826066 0
M  V30 5 N 38.660522 28.939616 53.014505 0 CHG=1
M  V30 6 C 38.689568 28.274676 54.333654 0
M  V30 7 H 40.697193 30.588163 51.023801 0
M  V30 8 H 40.437062 30.137754 53.604997 0
M  V30 9 H 39.067611 31.108048 52.997674 0
M  V30 10 H 39.878624 28.490322 49.992511 0
M  V30 11 H 37.764764 27.789618 51.367752 0
M  V30 12 H 39.222033 27.015960 52.074093 0
M  V30 13 H 39.645137 27.781010 54.506978 0
M  V30 14 H 38.527023 28.999975 55.131981 0
M  V30 15 H 37.901807 27.522999 54.397875 0
M  V30 16 H 37.735250 29.337734 52.944171 0
M  V30 END ATOM
M  V30 BEGIN BOND
M  V30 1 1 2 1
M  V30 2 2 3 1
M  V30 3 1 4 3
M  V30 4 1 5 2
M  V30 5 1 5 4
M  V30 6 1 6 5
M  V30 7 1 7 1
M  V30 8 1 8 2
M  V30 9 1 9 2
M  V30 10 1 10 3
M  V30 11 1 11 4
M  V30 12 1 12 4
M  V30 13 1 13 6
M  V30 14 1 14 6
M  V30 15 1 15 6
M  V30 16 1 16 5
M  V30 END BOND
M  V30 END CTAB
M  END
>  <i_epik_Tot_Q>  (1) 
1

>  <i_epik_Tot_abs_Q>  (1) 
1

>  <i_i_glide_confnum>  (1) 
1

>  <i_i_glide_lignum>  (1) 
29

>  <i_i_glide_posenum>  (1) 
138

>  <i_i_glide_rotatable_bonds>  (1) 
0

>  <i_lp_mmshare_version>  (1) 
72125

>  <i_m_source_file_index>  (1) 
27

>  <i_f3d_flags>  (1) 
0

>  <num_sample>  (1) 
100

>  <b_lp_Chiralities_Consistent>  (1) 
1

>  <r_epik_Charging_Adjusted_Penalty>  (1) 
0.0014863909170882658

>  <r_epik_Ionization_Penalty>  (1) 
0.0014863909170882658

>  <r_epik_Ionization_Penalty_Charging>  (1) 
0.0014863909170882658

>  <r_epik_Ionization_Penalty_Neutral>  (1) 
0

>  <r_epik_State_Penalty>  (1) 
-0

>  <r_glide_ring_energy>  (1) 
0

>  <r_i_docking_score>  (1) 
-4.4589748846617869

>  <r_i_glide_ecoul>  (1) 
-0.43945735328895008

>  <r_i_glide_eff_state_penalty>  (1) 
-0

>  <r_i_glide_einternal>  (1) 
0

>  <r_i_glide_emodel>  (1) 
-19.338749160479825

>  <r_i_glide_emodel_strain>  (1) 
0

>  <r_i_glide_energy>  (1) 
-12.56009782409344

>  <r_i_glide_erotb>  (1) 
0

>  <r_i_glide_esite>  (1) 
0

>  <r_i_glide_evdw>  (1) 
-12.120640470804489

>  <r_i_glide_gscore>  (1) 
-4.4589748846617869

>  <r_i_glide_gscore_strain>  (1) 
0

>  <r_i_glide_hbond>  (1) 
0

>  <r_i_glide_ligand_efficiency>  (1) 
-0.74316248077696445

>  <r_i_glide_ligand_efficiency_ln>  (1) 
-1.5971916398280297

>  <r_i_glide_ligand_efficiency_sa>  (1) 
-1.3504158476400414

>  <r_i_glide_lipo>  (1) 
-1.5370242581282196

>  <r_i_glide_metal>  (1) 
-0

>  <r_i_glide_rewards>  (1) 
-2.25

>  <r_lp_Energy>  (1) 
6.8415840000000001

>  <r_lp_tautomer_probability>  (1) 
1

>  <s_epik_cmdline>  (1) 
J2VwaWtfcHl0aG9uJywgJy1waHQnLCAnMS4wJywgJy1waCcsICc3LjQnLCAnLXRuJywgJzgnLCAnLW1hJywgJzUwMCcsICctaW1hZScsICc8aW5maWxlLm1hZT4nLCAnLW9tYWUnLCAnPG91dGZpbGUubWFlPic=

>  <s_epik_input>  (1) 
W0NIMl0xW0NIXT1bQ0hdW0NIMl1OMVtDSDNd

>  <s_glide_docking_method>  (1) 
confgen

>  <s_i_glide_gridfile>  (1) 
gpcr_5ht2c_6bqh_protein_autoprepared_prepared

>  <s_lp_Force_Field>  (1) 
S-OPLS

>  <s_lp_Variant>  (1) 
Pocket2Mol_26-1

>  <s_m_source_file>  (1) 
generated_GPCR_5HT2C_ligand_Pocket2Mol_2026-06-23_prepared.sdf

>  <GenAI_Model>  (1) 
Pocket2Mol

>  <Protein>  (1) 
GPCR_5HT2C

$$$$
Pocket2Mol_19
     RDKit          3D

  0  0  0  0  0  0  0  0  0  0999 V3000
M  V30 BEGIN CTAB
M  V30 COUNTS 10 10 0 0 1
M  V30 BEGIN ATOM
M  V30 1 C 39.611799 28.401689 50.617595 0
M  V30 2 O 38.528415 27.685408 51.367759 0
M  V30 3 C 38.337691 28.272922 52.626847 0
M  V30 4 C 39.941358 29.419625 51.664777 0
M  V30 5 C 39.245075 29.337764 52.746386 0
M  V30 6 O 37.517945 27.917550 53.470454 0
M  V30 7 H 39.245137 28.868317 49.704292 0
M  V30 8 H 40.711634 30.158543 51.497458 0
M  V30 9 H 39.320161 29.969895 53.618995 0
M  V30 10 H 40.445138 27.737756 50.399732 0
M  V30 END ATOM
M  V30 BEGIN BOND
M  V30 1 1 2 1
M  V30 2 1 3 2
M  V30 3 1 4 1
M  V30 4 1 5 3
M  V30 5 2 5 4
M  V30 6 2 6 3
M  V30 7 1 7 1
M  V30 8 1 8 4
M  V30 9 1 9 5
M  V30 10 1 10 1
M  V30 END BOND
M  V30 END CTAB
M  END
>  <i_epik_Tot_Q>  (1) 
0

>  <i_epik_Tot_abs_Q>  (1) 
0

>  <i_i_glide_confnum>  (1) 
1

>  <i_i_glide_lignum>  (1) 
22

>  <i_i_glide_posenum>  (1) 
70

>  <i_i_glide_rotatable_bonds>  (1) 
0

>  <i_lp_mmshare_version>  (1) 
72125

>  <i_m_source_file_index>  (1) 
20

>  <i_f3d_flags>  (1) 
0

>  <num_sample>  (1) 
100

>  <b_lp_Chiralities_Consistent>  (1) 
1

>  <r_epik_Charging_Adjusted_Penalty>  (1) 
0

>  <r_epik_Ionization_Penalty>  (1) 
0

>  <r_epik_Ionization_Penalty_Charging>  (1) 
0

>  <r_epik_Ionization_Penalty_Neutral>  (1) 
0

>  <r_epik_State_Penalty>  (1) 
-0

>  <r_glide_ring_energy>  (1) 
0

>  <r_i_docking_score>  (1) 
-4.4584967726647999

>  <r_i_glide_ecoul>  (1) 
0.19477973744901275

>  <r_i_glide_eff_state_penalty>  (1) 
-0

>  <r_i_glide_einternal>  (1) 
0

>  <r_i_glide_emodel>  (1) 
-19.650634229283412

>  <r_i_glide_emodel_strain>  (1) 
0

>  <r_i_glide_energy>  (1) 
-15.155869712323232

>  <r_i_glide_erotb>  (1) 
0

>  <r_i_glide_esite>  (1) 
0

>  <r_i_glide_evdw>  (1) 
-15.350649449772245

>  <r_i_glide_gscore>  (1) 
-4.4584967726647999

>  <r_i_glide_gscore_strain>  (1) 
0

>  <r_i_glide_hbond>  (1) 
0

>  <r_i_glide_ligand_efficiency>  (1) 
-0.74308279544413336

>  <r_i_glide_ligand_efficiency_ln>  (1) 
-1.5970203815221988

>  <r_i_glide_ligand_efficiency_sa>  (1) 
-1.3502710497808073

>  <r_i_glide_lipo>  (1) 
-0.91427910497615628

>  <r_i_glide_metal>  (1) 
-0

>  <r_i_glide_rewards>  (1) 
-2.8059021558173836

>  <r_lp_Energy>  (1) 
-7.0611199999999998

>  <r_lp_tautomer_probability>  (1) 
1

>  <s_epik_Chemistry_Notes>  (1) 
This compound has an ester and may undergo hydrolysis at high or low pH.

>  <s_epik_cmdline>  (1) 
J2VwaWtfcHl0aG9uJywgJy1waHQnLCAnMS4wJywgJy1waCcsICc3LjQnLCAnLXRuJywgJzgnLCAnLW1hJywgJzUwMCcsICctaW1hZScsICc8aW5maWxlLm1hZT4nLCAnLW9tYWUnLCAnPG91dGZpbGUubWFlPic=

>  <s_epik_input>  (1) 
W0NIMl0xW0NIXT1bQ0hdT0MxPU8=

>  <s_glide_docking_method>  (1) 
confgen

>  <s_i_glide_gridfile>  (1) 
gpcr_5ht2c_6bqh_protein_autoprepared_prepared

>  <s_lp_Force_Field>  (1) 
S-OPLS

>  <s_lp_Variant>  (1) 
Pocket2Mol_19-1

>  <s_m_source_file>  (1) 
generated_GPCR_5HT2C_ligand_Pocket2Mol_2026-06-23_prepared.sdf

>  <GenAI_Model>  (1) 
Pocket2Mol

>  <Protein>  (1) 
GPCR_5HT2C

$$$$
Pocket2Mol_99
     RDKit          3D

  0  0  0  0  0  0  0  0  0  0999 V3000
M  V30 BEGIN CTAB
M  V30 COUNTS 13 13 0 0 1
M  V30 BEGIN ATOM
M  V30 1 C 40.109202 30.137755 50.608442 0
M  V30 2 O 40.215203 30.937751 51.778717 0
M  V30 3 C 39.645136 30.267005 52.900159 0
M  V30 4 C 39.905459 28.715898 51.115203 0
M  V30 5 C 39.096602 28.937754 52.373840 0
M  V30 6 H 39.245137 30.473190 50.037499 0
M  V30 7 H 40.991455 30.237792 49.975397 0
M  V30 8 H 40.431380 30.118720 53.640039 0
M  V30 9 H 38.867334 30.871978 53.367764 0
M  V30 10 H 39.407449 28.070812 50.390283 0
M  V30 11 H 40.866701 28.271882 51.367760 0
M  V30 12 H 39.191461 28.123663 53.092874 0
M  V30 13 H 38.041507 29.039141 52.118399 0
M  V30 END ATOM
M  V30 BEGIN BOND
M  V30 1 1 2 1
M  V30 2 1 3 2
M  V30 3 1 4 1
M  V30 4 1 5 3
M  V30 5 1 5 4
M  V30 6 1 6 1
M  V30 7 1 7 1
M  V30 8 1 8 3
M  V30 9 1 9 3
M  V30 10 1 10 4
M  V30 11 1 11 4
M  V30 12 1 12 5
M  V30 13 1 13 5
M  V30 END BOND
M  V30 END CTAB
M  END
>  <i_epik_Tot_Q>  (1) 
0

>  <i_epik_Tot_abs_Q>  (1) 
0

>  <i_i_glide_confnum>  (1) 
3

>  <i_i_glide_lignum>  (1) 
104

>  <i_i_glide_posenum>  (1) 
324

>  <i_i_glide_rotatable_bonds>  (1) 
0

>  <i_lp_mmshare_version>  (1) 
72125

>  <i_m_source_file_index>  (1) 
100

>  <i_f3d_flags>  (1) 
0

>  <num_sample>  (1) 
100

>  <b_lp_Chiralities_Consistent>  (1) 
1

>  <r_epik_Charging_Adjusted_Penalty>  (1) 
0

>  <r_epik_Ionization_Penalty>  (1) 
1.3889264151150229e-11

>  <r_epik_Ionization_Penalty_Charging>  (1) 
0

>  <r_epik_Ionization_Penalty_Neutral>  (1) 
1.3889264151150229e-11

>  <r_epik_State_Penalty>  (1) 
-0

>  <r_glide_ring_energy>  (1) 
0.22161987042107956

>  <r_i_docking_score>  (1) 
-4.4520921089962817

>  <r_i_glide_ecoul>  (1) 
0.43019288019039326

>  <r_i_glide_eff_state_penalty>  (1) 
-0

>  <r_i_glide_einternal>  (1) 
0

>  <r_i_glide_emodel>  (1) 
-16.140276879027926

>  <r_i_glide_emodel_strain>  (1) 
0

>  <r_i_glide_energy>  (1) 
-12.50601396372838

>  <r_i_glide_erotb>  (1) 
0

>  <r_i_glide_esite>  (1) 
0

>  <r_i_glide_evdw>  (1) 
-12.936206843918773

>  <r_i_glide_gscore>  (1) 
-4.4520921089962817

>  <r_i_glide_gscore_strain>  (1) 
0

>  <r_i_glide_hbond>  (1) 
0

>  <r_i_glide_ligand_efficiency>  (1) 
-0.89041842179925634

>  <r_i_glide_ligand_efficiency_ln>  (1) 
-1.7061498523424692

>  <r_i_glide_ligand_efficiency_sa>  (1) 
-1.522594083754554

>  <r_i_glide_lipo>  (1) 
-1.3107706824774983

>  <r_i_glide_metal>  (1) 
-0

>  <r_i_glide_rewards>  (1) 
-2.5590400163514038

>  <r_lp_Energy>  (1) 
3.9174029999999997

>  <r_lp_tautomer_probability>  (1) 
1

>  <s_epik_cmdline>  (1) 
J2VwaWtfcHl0aG9uJywgJy1waHQnLCAnMS4wJywgJy1waCcsICc3LjQnLCAnLXRuJywgJzgnLCAnLW1hJywgJzUwMCcsICctaW1hZScsICc8aW5maWxlLm1hZT4nLCAnLW9tYWUnLCAnPG91dGZpbGUubWFlPic=

>  <s_epik_input>  (1) 
W0NIMl0xT1tDSDJdW0NIMl1bQ0gyXTE=

>  <s_glide_docking_method>  (1) 
confgen

>  <s_i_glide_gridfile>  (1) 
gpcr_5ht2c_6bqh_protein_autoprepared_prepared

>  <s_lp_Force_Field>  (1) 
S-OPLS

>  <s_lp_Variant>  (1) 
Pocket2Mol_99-1

>  <s_m_source_file>  (1) 
generated_GPCR_5HT2C_ligand_Pocket2Mol_2026-06-23_prepared.sdf

>  <GenAI_Model>  (1) 
Pocket2Mol

>  <Protein>  (1) 
GPCR_5HT2C

$$$$
Pocket2Mol_26
     RDKit          3D

  0  0  0  0  0  0  0  0  0  0999 V3000
M  V30 BEGIN CTAB
M  V30 COUNTS 16 16 0 0 1
M  V30 BEGIN ATOM
M  V30 1 C 40.048226 29.762734 50.809619 0
M  V30 2 C 39.382306 28.453202 50.867680 0
M  V30 3 C 40.045137 30.454606 51.896888 0
M  V30 4 C 39.374367 29.845695 53.058306 0
M  V30 5 N 39.051122 28.503661 52.371382 0 CHG=1
M  V30 6 C 37.710507 27.973530 52.693142 0
M  V30 7 H 40.504053 30.102974 49.890387 0
M  V30 8 H 38.496265 28.447624 50.234535 0
M  V30 9 H 40.044799 27.627299 50.608692 0
M  V30 10 H 40.497200 31.431585 51.979320 0
M  V30 11 H 40.045352 29.736819 53.910336 0
M  V30 12 H 38.488733 30.409587 53.356651 0
M  V30 13 H 36.924271 28.537878 52.192218 0
M  V30 14 H 37.645211 26.937766 52.366107 0
M  V30 15 H 37.526524 27.996327 53.767913 0
M  V30 16 H 39.699192 27.852259 52.790062 0
M  V30 END ATOM
M  V30 BEGIN BOND
M  V30 1 1 2 1
M  V30 2 2 3 1
M  V30 3 1 4 3
M  V30 4 1 5 2
M  V30 5 1 5 4
M  V30 6 1 6 5
M  V30 7 1 7 1
M  V30 8 1 8 2
M  V30 9 1 9 2
M  V30 10 1 10 3
M  V30 11 1 11 4
M  V30 12 1 12 4
M  V30 13 1 13 6
M  V30 14 1 14 6
M  V30 15 1 15 6
M  V30 16 1 16 5
M  V30 END BOND
M  V30 END CTAB
M  END
>  <i_epik_Tot_Q>  (1) 
1

>  <i_epik_Tot_abs_Q>  (1) 
1

>  <i_i_glide_confnum>  (1) 
1

>  <i_i_glide_lignum>  (1) 
29

>  <i_i_glide_posenum>  (1) 
392

>  <i_i_glide_rotatable_bonds>  (1) 
0

>  <i_lp_mmshare_version>  (1) 
72125

>  <i_m_source_file_index>  (1) 
27

>  <i_f3d_flags>  (1) 
0

>  <num_sample>  (1) 
100

>  <b_lp_Chiralities_Consistent>  (1) 
1

>  <r_epik_Charging_Adjusted_Penalty>  (1) 
0.0014863909170882658

>  <r_epik_Ionization_Penalty>  (1) 
0.0014863909170882658

>  <r_epik_Ionization_Penalty_Charging>  (1) 
0.0014863909170882658

>  <r_epik_Ionization_Penalty_Neutral>  (1) 
0

>  <r_epik_State_Penalty>  (1) 
-0

>  <r_glide_ring_energy>  (1) 
0

>  <r_i_docking_score>  (1) 
-4.4483683196788082

>  <r_i_glide_ecoul>  (1) 
-0.88682805911034857

>  <r_i_glide_eff_state_penalty>  (1) 
-0

>  <r_i_glide_einternal>  (1) 
0

>  <r_i_glide_emodel>  (1) 
-20.228181409004133

>  <r_i_glide_emodel_strain>  (1) 
0

>  <r_i_glide_energy>  (1) 
-13.465654452717679

>  <r_i_glide_erotb>  (1) 
0

>  <r_i_glide_esite>  (1) 
0

>  <r_i_glide_evdw>  (1) 
-12.578826393607331

>  <r_i_glide_gscore>  (1) 
-4.4483683196788082

>  <r_i_glide_gscore_strain>  (1) 
0

>  <r_i_glide_hbond>  (1) 
0

>  <r_i_glide_ligand_efficiency>  (1) 
-0.74139471994646799

>  <r_i_glide_ligand_efficiency_ln>  (1) 
-1.5933923995639996

>  <r_i_glide_ligand_efficiency_sa>  (1) 
-1.3472036130317444

>  <r_i_glide_lipo>  (1) 
-1.4364027911318897

>  <r_i_glide_metal>  (1) 
-0

>  <r_i_glide_rewards>  (1) 
-2.25

>  <r_lp_Energy>  (1) 
6.8415840000000001

>  <r_lp_tautomer_probability>  (1) 
1

>  <s_epik_cmdline>  (1) 
J2VwaWtfcHl0aG9uJywgJy1waHQnLCAnMS4wJywgJy1waCcsICc3LjQnLCAnLXRuJywgJzgnLCAnLW1hJywgJzUwMCcsICctaW1hZScsICc8aW5maWxlLm1hZT4nLCAnLW9tYWUnLCAnPG91dGZpbGUubWFlPic=

>  <s_epik_input>  (1) 
W0NIMl0xW0NIXT1bQ0hdW0NIMl1OMVtDSDNd

>  <s_glide_docking_method>  (1) 
confgen

>  <s_i_glide_gridfile>  (1) 
gpcr_5ht2c_6bqh_protein_autoprepared_prepared

>  <s_lp_Force_Field>  (1) 
S-OPLS

>  <s_lp_Variant>  (1) 
Pocket2Mol_26-1

>  <s_m_source_file>  (1) 
generated_GPCR_5HT2C_ligand_Pocket2Mol_2026-06-23_prepared.sdf

>  <GenAI_Model>  (1) 
Pocket2Mol

>  <Protein>  (1) 
GPCR_5HT2C

$$$$
Pocket2Mol_23
     RDKit          3D

  0  0  0  0  0  0  0  0  0  0999 V3000
M  V30 BEGIN CTAB
M  V30 COUNTS 14 14 0 0 1
M  V30 BEGIN ATOM
M  V30 1 C 37.530766 28.001602 53.864811 0
M  V30 2 C 38.741231 27.249799 54.396764 0
M  V30 3 O 38.078028 28.755629 52.810308 0
M  V30 4 C 39.193628 28.054810 52.379247 0
M  V30 5 O 39.408515 26.950020 53.194754 0
M  V30 6 C 38.938415 27.562204 50.967761 0
M  V30 7 H 37.056694 28.641837 54.606423 0
M  V30 8 H 36.789985 27.309682 53.464280 0
M  V30 9 H 39.365579 27.891331 55.022362 0
M  V30 10 H 38.479347 26.354996 54.961434 0
M  V30 11 H 40.045132 28.731381 52.416473 0
M  V30 12 H 38.045143 26.937776 50.967760 0
M  V30 13 H 39.786712 26.978369 50.613181 0
M  V30 14 H 38.790250 28.410557 50.299446 0
M  V30 END ATOM
M  V30 BEGIN BOND
M  V30 1 1 2 1
M  V30 2 1 3 1
M  V30 3 1 4 3
M  V30 4 1 5 2
M  V30 5 1 5 4
M  V30 6 1 6 4
M  V30 7 1 7 1
M  V30 8 1 8 1
M  V30 9 1 9 2
M  V30 10 1 10 2
M  V30 11 1 11 4
M  V30 12 1 12 6
M  V30 13 1 13 6
M  V30 14 1 14 6
M  V30 END BOND
M  V30 END CTAB
M  END
>  <i_epik_Tot_Q>  (1) 
0

>  <i_epik_Tot_abs_Q>  (1) 
0

>  <i_i_glide_confnum>  (1) 
3

>  <i_i_glide_lignum>  (1) 
26

>  <i_i_glide_posenum>  (1) 
279

>  <i_i_glide_rotatable_bonds>  (1) 
0

>  <i_lp_mmshare_version>  (1) 
72125

>  <i_m_source_file_index>  (1) 
24

>  <i_f3d_flags>  (1) 
0

>  <num_sample>  (1) 
100

>  <b_lp_Chiralities_Consistent>  (1) 
1

>  <r_epik_Charging_Adjusted_Penalty>  (1) 
0

>  <r_epik_Ionization_Penalty>  (1) 
7.9724310449397378e-14

>  <r_epik_Ionization_Penalty_Charging>  (1) 
0

>  <r_epik_Ionization_Penalty_Neutral>  (1) 
7.9724310449397378e-14

>  <r_epik_State_Penalty>  (1) 
-0

>  <r_glide_ring_energy>  (1) 
1.2362365743684729

>  <r_i_docking_score>  (1) 
-4.4167371734164274

>  <r_i_glide_ecoul>  (1) 
-0.56226153439667181

>  <r_i_glide_eff_state_penalty>  (1) 
-0

>  <r_i_glide_einternal>  (1) 
0

>  <r_i_glide_emodel>  (1) 
-18.071048403613389

>  <r_i_glide_emodel_strain>  (1) 
0

>  <r_i_glide_energy>  (1) 
-13.995194553362344

>  <r_i_glide_erotb>  (1) 
0

>  <r_i_glide_esite>  (1) 
0

>  <r_i_glide_evdw>  (1) 
-13.432933018965672

>  <r_i_glide_gscore>  (1) 
-4.4167371734164274

>  <r_i_glide_gscore_strain>  (1) 
0

>  <r_i_glide_hbond>  (1) 
0

>  <r_i_glide_ligand_efficiency>  (1) 
-0.73612286223607126

>  <r_i_glide_ligand_efficiency_ln>  (1) 
-1.5820622163547966

>  <r_i_glide_ligand_efficiency_sa>  (1) 
-1.3376240118237013

>  <r_i_glide_lipo>  (1) 
-0.92007527282786949

>  <r_i_glide_metal>  (1) 
-0

>  <r_i_glide_rewards>  (1) 
-2.7406760194807722

>  <r_lp_Energy>  (1) 
-12.129052

>  <r_lp_tautomer_probability>  (1) 
1

>  <s_epik_Chemistry_Notes>  (1) 
This compound contains an acetal/aminal-like group ( X-CH(R)-Y where X, Y are N, S, or O) that may be acid/base labile, releasing an aldehyde.

>  <s_epik_cmdline>  (1) 
J2VwaWtfcHl0aG9uJywgJy1waHQnLCAnMS4wJywgJy1waCcsICc3LjQnLCAnLXRuJywgJzgnLCAnLW1hJywgJzUwMCcsICctaW1hZScsICc8aW5maWxlLm1hZT4nLCAnLW9tYWUnLCAnPG91dGZpbGUubWFlPic=

>  <s_epik_input>  (1) 
TzFbQ0gyXVtDSDJdT1tDSF0xW0NIM10=

>  <s_glide_docking_method>  (1) 
confgen

>  <s_i_glide_gridfile>  (1) 
gpcr_5ht2c_6bqh_protein_autoprepared_prepared

>  <s_lp_Force_Field>  (1) 
S-OPLS

>  <s_lp_Variant>  (1) 
Pocket2Mol_23-1

>  <s_m_source_file>  (1) 
generated_GPCR_5HT2C_ligand_Pocket2Mol_2026-06-23_prepared.sdf

>  <GenAI_Model>  (1) 
Pocket2Mol

>  <Protein>  (1) 
GPCR_5HT2C

$$$$
Pocket2Mol_3
     RDKit          3D

  0  0  0  0  0  0  0  0  0  0999 V3000
M  V30 BEGIN CTAB
M  V30 COUNTS 9 9 0 0 1
M  V30 BEGIN ATOM
M  V30 1 C 40.045129 29.290323 50.408622 0
M  V30 2 O 39.312803 28.146368 50.567740 0
M  V30 3 C 38.834149 28.185467 51.846251 0
M  V30 4 C 40.045136 30.032303 51.553703 0
M  V30 5 C 39.251529 29.316407 52.488079 0
M  V30 6 H 40.491600 29.417451 49.433481 0
M  V30 7 H 38.220435 27.343507 52.133037 0
M  V30 8 H 40.547314 30.978297 51.697791 0
M  V30 9 H 39.014680 29.593532 53.505351 0
M  V30 END ATOM
M  V30 BEGIN BOND
M  V30 1 1 2 1
M  V30 2 1 3 2
M  V30 3 2 4 1
M  V30 4 2 5 3
M  V30 5 1 5 4
M  V30 6 1 6 1
M  V30 7 1 7 3
M  V30 8 1 8 4
M  V30 9 1 9 5
M  V30 END BOND
M  V30 END CTAB
M  END
>  <i_epik_Tot_Q>  (1) 
0

>  <i_epik_Tot_abs_Q>  (1) 
0

>  <i_i_glide_confnum>  (1) 
1

>  <i_i_glide_lignum>  (1) 
6

>  <i_i_glide_posenum>  (1) 
99

>  <i_i_glide_rotatable_bonds>  (1) 
0

>  <i_lp_mmshare_version>  (1) 
72125

>  <i_m_source_file_index>  (1) 
4

>  <i_f3d_flags>  (1) 
0

>  <num_sample>  (1) 
100

>  <b_lp_Chiralities_Consistent>  (1) 
1

>  <r_epik_Charging_Adjusted_Penalty>  (1) 
0

>  <r_epik_Ionization_Penalty>  (1) 
0

>  <r_epik_Ionization_Penalty_Charging>  (1) 
0

>  <r_epik_Ionization_Penalty_Neutral>  (1) 
0

>  <r_epik_State_Penalty>  (1) 
-0

>  <r_glide_ring_energy>  (1) 
0

>  <r_i_docking_score>  (1) 
-4.4115202846208676

>  <r_i_glide_ecoul>  (1) 
-0.27419708975924023

>  <r_i_glide_eff_state_penalty>  (1) 
-0

>  <r_i_glide_einternal>  (1) 
0

>  <r_i_glide_emodel>  (1) 
-16.870456916804496

>  <r_i_glide_emodel_strain>  (1) 
0

>  <r_i_glide_energy>  (1) 
-13.170288350953257

>  <r_i_glide_erotb>  (1) 
0

>  <r_i_glide_esite>  (1) 
0

>  <r_i_glide_evdw>  (1) 
-12.896091261194016

>  <r_i_glide_gscore>  (1) 
-4.4115202846208676

>  <r_i_glide_gscore_strain>  (1) 
0

>  <r_i_glide_hbond>  (1) 
0

>  <r_i_glide_ligand_efficiency>  (1) 
-0.88230405692417357

>  <r_i_glide_ligand_efficiency_ln>  (1) 
-1.6906017436167979

>  <r_i_glide_ligand_efficiency_sa>  (1) 
-1.5087187149956041

>  <r_i_glide_lipo>  (1) 
-1.2755861580972803

>  <r_i_glide_metal>  (1) 
-0

>  <r_i_glide_rewards>  (1) 
-2.4500000000000002

>  <r_lp_Energy>  (1) 
2.5980879999999997

>  <r_lp_tautomer_probability>  (1) 
1

>  <s_epik_cmdline>  (1) 
J2VwaWtfcHl0aG9uJywgJy1waHQnLCAnMS4wJywgJy1waCcsICc3LjQnLCAnLXRuJywgJzgnLCAnLW1hJywgJzUwMCcsICctaW1hZScsICc8aW5maWxlLm1hZT4nLCAnLW9tYWUnLCAnPG91dGZpbGUubWFlPic=

>  <s_epik_input>  (1) 
W2NIXTFvW2NIXVtjSF1bY0hdMQ==

>  <s_glide_docking_method>  (1) 
confgen

>  <s_i_glide_gridfile>  (1) 
gpcr_5ht2c_6bqh_protein_autoprepared_prepared

>  <s_lp_Force_Field>  (1) 
S-OPLS

>  <s_lp_Variant>  (1) 
Pocket2Mol_3-1

>  <s_m_source_file>  (1) 
generated_GPCR_5HT2C_ligand_Pocket2Mol_2026-06-23_prepared.sdf

>  <GenAI_Model>  (1) 
Pocket2Mol

>  <Protein>  (1) 
GPCR_5HT2C

$$$$
Pocket2Mol_55
     RDKit          3D

  0  0  0  0  0  0  0  0  0  0999 V3000
M  V30 BEGIN CTAB
M  V30 COUNTS 11 11 0 0 1
M  V30 BEGIN ATOM
M  V30 1 C 39.644981 29.948338 52.314906 0
M  V30 2 O 38.662490 28.938408 52.392906 0
M  V30 3 C 40.078029 29.826511 50.861453 0
M  V30 4 O 40.045215 28.430637 50.662637 0
M  V30 5 C 39.080484 27.935177 51.530005 0
M  V30 6 H 39.245166 30.930528 52.565802 0
M  V30 7 H 40.445507 29.737771 53.012560 0
M  V30 8 H 39.354879 30.305552 50.199751 0
M  V30 9 H 41.064633 30.248895 50.668618 0
M  V30 10 H 39.508827 27.111707 52.102536 0
M  V30 11 H 38.222458 27.565003 50.967792 0
M  V30 END ATOM
M  V30 BEGIN BOND
M  V30 1 1 2 1
M  V30 2 1 3 1
M  V30 3 1 4 3
M  V30 4 1 5 2
M  V30 5 1 5 4
M  V30 6 1 6 1
M  V30 7 1 7 1
M  V30 8 1 8 3
M  V30 9 1 9 3
M  V30 10 1 10 5
M  V30 11 1 11 5
M  V30 END BOND
M  V30 END CTAB
M  END
>  <i_epik_Tot_Q>  (1) 
0

>  <i_epik_Tot_abs_Q>  (1) 
0

>  <i_i_glide_confnum>  (1) 
1

>  <i_i_glide_lignum>  (1) 
59

>  <i_i_glide_posenum>  (1) 
222

>  <i_i_glide_rotatable_bonds>  (1) 
0

>  <i_lp_mmshare_version>  (1) 
72125

>  <i_m_source_file_index>  (1) 
56

>  <i_f3d_flags>  (1) 
0

>  <num_sample>  (1) 
100

>  <b_lp_Chiralities_Consistent>  (1) 
1

>  <r_epik_Charging_Adjusted_Penalty>  (1) 
0

>  <r_epik_Ionization_Penalty>  (1) 
7.9724310449397378e-14

>  <r_epik_Ionization_Penalty_Charging>  (1) 
0

>  <r_epik_Ionization_Penalty_Neutral>  (1) 
7.9724310449397378e-14

>  <r_epik_State_Penalty>  (1) 
-0

>  <r_glide_ring_energy>  (1) 
0

>  <r_i_docking_score>  (1) 
-4.4093152396678281

>  <r_i_glide_ecoul>  (1) 
-0.91060203587083499

>  <r_i_glide_eff_state_penalty>  (1) 
-0

>  <r_i_glide_einternal>  (1) 
0

>  <r_i_glide_emodel>  (1) 
-16.799963469520151

>  <r_i_glide_emodel_strain>  (1) 
0.0016331953315713577

>  <r_i_glide_energy>  (1) 
-13.331767388281543

>  <r_i_glide_erotb>  (1) 
0

>  <r_i_glide_esite>  (1) 
0

>  <r_i_glide_evdw>  (1) 
-12.421165352410709

>  <r_i_glide_gscore>  (1) 
-4.4093152396678281

>  <r_i_glide_gscore_strain>  (1) 
0

>  <r_i_glide_hbond>  (1) 
0

>  <r_i_glide_ligand_efficiency>  (1) 
-0.88186304793356562

>  <r_i_glide_ligand_efficiency_ln>  (1) 
-1.6897567168228924

>  <r_i_glide_ligand_efficiency_sa>  (1) 
-1.5079646002293963

>  <r_i_glide_lipo>  (1) 
-0.66000000000000003

>  <r_i_glide_metal>  (1) 
-0

>  <r_i_glide_rewards>  (1) 
-2.9916666666666667

>  <r_lp_Energy>  (1) 
-12.242987999999999

>  <r_lp_tautomer_probability>  (1) 
1

>  <s_epik_Chemistry_Notes>  (1) 
This compound contains an acetal/aminal-like group ( X-CH(R)-Y where X, Y are N, S, or O) that may be acid/base labile, releasing an aldehyde.

>  <s_epik_cmdline>  (1) 
J2VwaWtfcHl0aG9uJywgJy1waHQnLCAnMS4wJywgJy1waCcsICc3LjQnLCAnLXRuJywgJzgnLCAnLW1hJywgJzUwMCcsICctaW1hZScsICc8aW5maWxlLm1hZT4nLCAnLW9tYWUnLCAnPG91dGZpbGUubWFlPic=

>  <s_epik_input>  (1) 
W0NIMl0xT1tDSDJdT1tDSDJdMQ==

>  <s_glide_docking_method>  (1) 
confgen

>  <s_i_glide_gridfile>  (1) 
gpcr_5ht2c_6bqh_protein_autoprepared_prepared

>  <s_lp_Force_Field>  (1) 
S-OPLS

>  <s_lp_Variant>  (1) 
Pocket2Mol_55-1

>  <s_m_source_file>  (1) 
generated_GPCR_5HT2C_ligand_Pocket2Mol_2026-06-23_prepared.sdf

>  <GenAI_Model>  (1) 
Pocket2Mol

>  <Protein>  (1) 
GPCR_5HT2C

$$$$
Pocket2Mol_88
     RDKit          3D

  0  0  0  0  0  0  0  0  0  0999 V3000
M  V30 BEGIN CTAB
M  V30 COUNTS 15 15 0 0 1
M  V30 BEGIN ATOM
M  V30 1 C 38.873477 28.933989 52.518019 0
M  V30 2 C 39.214613 28.071883 51.303816 0
M  V30 3 C 39.783846 30.162339 52.390411 0
M  V30 4 C 40.337103 30.131371 50.956252 0
M  V30 5 N 39.645140 29.025644 50.269556 0 CHG=1
M  V30 6 H 39.017804 28.400790 53.458535 0
M  V30 7 H 37.828043 29.239519 52.474646 0
M  V30 8 H 40.045124 27.407693 51.541816 0
M  V30 9 H 38.377365 27.457963 50.969011 0
M  V30 10 H 39.245141 31.089120 52.582077 0
M  V30 11 H 40.584098 30.137761 53.126466 0
M  V30 12 H 40.185200 31.075055 50.430228 0
M  V30 13 H 41.408048 29.925352 50.967759 0
M  V30 14 H 38.817023 29.397021 49.815278 0
M  V30 15 H 40.231310 28.586856 49.574846 0
M  V30 END ATOM
M  V30 BEGIN BOND
M  V30 1 1 2 1
M  V30 2 1 3 1
M  V30 3 1 4 3
M  V30 4 1 5 2
M  V30 5 1 5 4
M  V30 6 1 6 1
M  V30 7 1 7 1
M  V30 8 1 8 2
M  V30 9 1 9 2
M  V30 10 1 10 3
M  V30 11 1 11 3
M  V30 12 1 12 4
M  V30 13 1 13 4
M  V30 14 1 14 5
M  V30 15 1 15 5
M  V30 END BOND
M  V30 END CTAB
M  END
>  <i_epik_Tot_Q>  (1) 
1

>  <i_epik_Tot_abs_Q>  (1) 
1

>  <i_i_glide_confnum>  (1) 
1

>  <i_i_glide_lignum>  (1) 
93

>  <i_i_glide_posenum>  (1) 
330

>  <i_i_glide_rotatable_bonds>  (1) 
0

>  <i_lp_mmshare_version>  (1) 
72125

>  <i_m_source_file_index>  (1) 
89

>  <i_f3d_flags>  (1) 
0

>  <num_sample>  (1) 
100

>  <b_lp_Chiralities_Consistent>  (1) 
1

>  <r_epik_Charging_Adjusted_Penalty>  (1) 
0.00011848530527437102

>  <r_epik_Ionization_Penalty>  (1) 
0.00011848530527437102

>  <r_epik_Ionization_Penalty_Charging>  (1) 
0.00011848530527437102

>  <r_epik_Ionization_Penalty_Neutral>  (1) 
0

>  <r_epik_State_Penalty>  (1) 
-0

>  <r_glide_ring_energy>  (1) 
0

>  <r_i_docking_score>  (1) 
-4.4076425864504545

>  <r_i_glide_ecoul>  (1) 
-1.9451848506776361

>  <r_i_glide_eff_state_penalty>  (1) 
-0

>  <r_i_glide_einternal>  (1) 
0

>  <r_i_glide_emodel>  (1) 
-19.37186944272208

>  <r_i_glide_emodel_strain>  (1) 
0.39031177347732537

>  <r_i_glide_energy>  (1) 
-12.88094038615697

>  <r_i_glide_erotb>  (1) 
0

>  <r_i_glide_esite>  (1) 
0

>  <r_i_glide_evdw>  (1) 
-10.935755535479334

>  <r_i_glide_gscore>  (1) 
-4.4076425864504545

>  <r_i_glide_gscore_strain>  (1) 
0

>  <r_i_glide_hbond>  (1) 
0

>  <r_i_glide_ligand_efficiency>  (1) 
-0.88152851729009085

>  <r_i_glide_ligand_efficiency_ln>  (1) 
-1.6891157154756662

>  <r_i_glide_ligand_efficiency_sa>  (1) 
-1.5073925608756282

>  <r_i_glide_lipo>  (1) 
-1.3190770820748423

>  <r_i_glide_metal>  (1) 
-0

>  <r_i_glide_rewards>  (1) 
-2.25

>  <r_lp_Energy>  (1) 
17.726251999999999

>  <r_lp_tautomer_probability>  (1) 
1

>  <s_epik_cmdline>  (1) 
J2VwaWtfcHl0aG9uJywgJy1waHQnLCAnMS4wJywgJy1waCcsICc3LjQnLCAnLXRuJywgJzgnLCAnLW1hJywgJzUwMCcsICctaW1hZScsICc8aW5maWxlLm1hZT4nLCAnLW9tYWUnLCAnPG91dGZpbGUubWFlPic=

>  <s_epik_input>  (1) 
W0NIMl0xW0NIMl1bTkhdW0NIMl1bQ0gyXTE=

>  <s_glide_docking_method>  (1) 
confgen

>  <s_i_glide_gridfile>  (1) 
gpcr_5ht2c_6bqh_protein_autoprepared_prepared

>  <s_lp_Force_Field>  (1) 
S-OPLS

>  <s_lp_Variant>  (1) 
Pocket2Mol_88-1

>  <s_m_source_file>  (1) 
generated_GPCR_5HT2C_ligand_Pocket2Mol_2026-06-23_prepared.sdf

>  <GenAI_Model>  (1) 
Pocket2Mol

>  <Protein>  (1) 
GPCR_5HT2C

$$$$
Pocket2Mol_99
     RDKit          3D

  0  0  0  0  0  0  0  0  0  0999 V3000
M  V30 BEGIN CTAB
M  V30 COUNTS 13 13 0 0 1
M  V30 BEGIN ATOM
M  V30 1 C 39.835976 28.993084 51.357427 0
M  V30 2 O 39.537003 29.681940 52.567761 0
M  V30 3 C 38.742312 28.859445 53.418672 0
M  V30 4 C 38.970381 27.737859 51.368538 0
M  V30 5 C 38.845222 27.449272 52.845362 0
M  V30 6 H 39.649243 29.619724 50.484521 0
M  V30 7 H 40.893382 28.727006 51.367767 0
M  V30 8 H 39.077032 28.915325 54.454638 0
M  V30 9 H 37.710874 29.211939 53.375618 0
M  V30 10 H 37.984730 27.964916 50.967785 0
M  V30 11 H 39.396557 26.914864 50.794253 0
M  V30 12 H 39.744091 26.950144 53.209627 0
M  V30 13 H 37.983792 26.826112 53.087929 0
M  V30 END ATOM
M  V30 BEGIN BOND
M  V30 1 1 2 1
M  V30 2 1 3 2
M  V30 3 1 4 1
M  V30 4 1 5 3
M  V30 5 1 5 4
M  V30 6 1 6 1
M  V30 7 1 7 1
M  V30 8 1 8 3
M  V30 9 1 9 3
M  V30 10 1 10 4
M  V30 11 1 11 4
M  V30 12 1 12 5
M  V30 13 1 13 5
M  V30 END BOND
M  V30 END CTAB
M  END
>  <i_epik_Tot_Q>  (1) 
0

>  <i_epik_Tot_abs_Q>  (1) 
0

>  <i_i_glide_confnum>  (1) 
4

>  <i_i_glide_lignum>  (1) 
104

>  <i_i_glide_posenum>  (1) 
123

>  <i_i_glide_rotatable_bonds>  (1) 
0

>  <i_lp_mmshare_version>  (1) 
72125

>  <i_m_source_file_index>  (1) 
100

>  <i_f3d_flags>  (1) 
0

>  <num_sample>  (1) 
100

>  <b_lp_Chiralities_Consistent>  (1) 
1

>  <r_epik_Charging_Adjusted_Penalty>  (1) 
0

>  <r_epik_Ionization_Penalty>  (1) 
1.3889264151150229e-11

>  <r_epik_Ionization_Penalty_Charging>  (1) 
0

>  <r_epik_Ionization_Penalty_Neutral>  (1) 
1.3889264151150229e-11

>  <r_epik_State_Penalty>  (1) 
-0

>  <r_glide_ring_energy>  (1) 
0.22164722245690596

>  <r_i_docking_score>  (1) 
-4.3932302587150893

>  <r_i_glide_ecoul>  (1) 
-0.32718043579749329

>  <r_i_glide_eff_state_penalty>  (1) 
-0

>  <r_i_glide_einternal>  (1) 
0

>  <r_i_glide_emodel>  (1) 
-17.364852528753627

>  <r_i_glide_emodel_strain>  (1) 
0

>  <r_i_glide_energy>  (1) 
-13.778638807937408

>  <r_i_glide_erotb>  (1) 
0

>  <r_i_glide_esite>  (1) 
0

>  <r_i_glide_evdw>  (1) 
-13.451458372139916

>  <r_i_glide_gscore>  (1) 
-4.3932302587150893

>  <r_i_glide_gscore_strain>  (1) 
0

>  <r_i_glide_hbond>  (1) 
0

>  <r_i_glide_ligand_efficiency>  (1) 
-0.87864605174301791

>  <r_i_glide_ligand_efficiency_ln>  (1) 
-1.683592561363936

>  <r_i_glide_ligand_efficiency_sa>  (1) 
-1.502463614123009

>  <r_i_glide_lipo>  (1) 
-1.2617592177040504

>  <r_i_glide_metal>  (1) 
-0

>  <r_i_glide_rewards>  (1) 
-2.409821057034419

>  <r_lp_Energy>  (1) 
3.9174029999999997

>  <r_lp_tautomer_probability>  (1) 
1

>  <s_epik_cmdline>  (1) 
J2VwaWtfcHl0aG9uJywgJy1waHQnLCAnMS4wJywgJy1waCcsICc3LjQnLCAnLXRuJywgJzgnLCAnLW1hJywgJzUwMCcsICctaW1hZScsICc8aW5maWxlLm1hZT4nLCAnLW9tYWUnLCAnPG91dGZpbGUubWFlPic=

>  <s_epik_input>  (1) 
W0NIMl0xT1tDSDJdW0NIMl1bQ0gyXTE=

>  <s_glide_docking_method>  (1) 
confgen

>  <s_i_glide_gridfile>  (1) 
gpcr_5ht2c_6bqh_protein_autoprepared_prepared

>  <s_lp_Force_Field>  (1) 
S-OPLS

>  <s_lp_Variant>  (1) 
Pocket2Mol_99-1

>  <s_m_source_file>  (1) 
generated_GPCR_5HT2C_ligand_Pocket2Mol_2026-06-23_prepared.sdf

>  <GenAI_Model>  (1) 
Pocket2Mol

>  <Protein>  (1) 
GPCR_5HT2C

$$$$
Pocket2Mol_77
     RDKit          3D

  0  0  0  0  0  0  0  0  0  0999 V3000
M  V30 BEGIN CTAB
M  V30 COUNTS 15 15 0 0 1
M  V30 BEGIN ATOM
M  V30 1 C 38.287330 28.518738 52.246983 0
M  V30 2 C 39.252397 27.337754 52.366867 0
M  V30 3 C 39.131999 26.816386 53.806343 0
M  V30 4 C 37.491707 28.537867 53.552645 0
M  V30 5 C 38.434893 27.928573 54.583585 0
M  V30 6 H 38.854538 29.444473 52.144865 0
M  V30 7 H 37.645138 28.429228 51.371545 0
M  V30 8 H 39.027793 26.553827 51.642499 0
M  V30 9 H 40.266148 27.684020 52.167759 0
M  V30 10 H 38.497478 25.929828 53.819791 0
M  V30 11 H 40.094677 26.538225 54.236347 0
M  V30 12 H 37.162739 29.539513 53.830210 0
M  V30 13 H 36.606785 27.908547 53.448696 0
M  V30 14 H 37.912821 27.562005 55.468030 0
M  V30 15 H 39.163463 28.673380 54.906457 0
M  V30 END ATOM
M  V30 BEGIN BOND
M  V30 1 1 2 1
M  V30 2 1 3 2
M  V30 3 1 4 1
M  V30 4 1 5 3
M  V30 5 1 5 4
M  V30 6 1 6 1
M  V30 7 1 7 1
M  V30 8 1 8 2
M  V30 9 1 9 2
M  V30 10 1 10 3
M  V30 11 1 11 3
M  V30 12 1 12 4
M  V30 13 1 13 4
M  V30 14 1 14 5
M  V30 15 1 15 5
M  V30 END BOND
M  V30 END CTAB
M  END
>  <i_epik_Tot_Q>  (1) 
0

>  <i_epik_Tot_abs_Q>  (1) 
0

>  <i_i_glide_confnum>  (1) 
4

>  <i_i_glide_lignum>  (1) 
82

>  <i_i_glide_posenum>  (1) 
210

>  <i_i_glide_rotatable_bonds>  (1) 
0

>  <i_lp_mmshare_version>  (1) 
72125

>  <i_m_source_file_index>  (1) 
78

>  <i_f3d_flags>  (1) 
0

>  <num_sample>  (1) 
100

>  <b_lp_Chiralities_Consistent>  (1) 
1

>  <r_epik_Charging_Adjusted_Penalty>  (1) 
0

>  <r_epik_Ionization_Penalty>  (1) 
0

>  <r_epik_Ionization_Penalty_Charging>  (1) 
0

>  <r_epik_Ionization_Penalty_Neutral>  (1) 
0

>  <r_epik_State_Penalty>  (1) 
-0

>  <r_glide_ring_energy>  (1) 
0.0012162538604926188

>  <r_i_docking_score>  (1) 
-4.3894076453878794

>  <r_i_glide_ecoul>  (1) 
0.12563348314290351

>  <r_i_glide_eff_state_penalty>  (1) 
-0

>  <r_i_glide_einternal>  (1) 
0

>  <r_i_glide_emodel>  (1) 
-14.934527809685999

>  <r_i_glide_emodel_strain>  (1) 
0

>  <r_i_glide_energy>  (1) 
-11.430825524213342

>  <r_i_glide_erotb>  (1) 
0

>  <r_i_glide_esite>  (1) 
0

>  <r_i_glide_evdw>  (1) 
-11.556459007356246

>  <r_i_glide_gscore>  (1) 
-4.3894076453878794

>  <r_i_glide_gscore_strain>  (1) 
0

>  <r_i_glide_hbond>  (1) 
0

>  <r_i_glide_ligand_efficiency>  (1) 
-0.87788152907757588

>  <r_i_glide_ligand_efficiency_ln>  (1) 
-1.6821276430729144

>  <r_i_glide_ligand_efficiency_sa>  (1) 
-1.501156298754414

>  <r_i_glide_lipo>  (1) 
-1.3938594899028447

>  <r_i_glide_metal>  (1) 
-0

>  <r_i_glide_rewards>  (1) 
-2.4365702275886578

>  <r_lp_Energy>  (1) 
13.274989999999999

>  <r_lp_tautomer_probability>  (1) 
1

>  <s_epik_cmdline>  (1) 
J2VwaWtfcHl0aG9uJywgJy1waHQnLCAnMS4wJywgJy1waCcsICc3LjQnLCAnLXRuJywgJzgnLCAnLW1hJywgJzUwMCcsICctaW1hZScsICc8aW5maWxlLm1hZT4nLCAnLW9tYWUnLCAnPG91dGZpbGUubWFlPic=

>  <s_epik_input>  (1) 
W0NIMl0xW0NIMl1bQ0gyXVtDSDJdW0NIMl0x

>  <s_glide_docking_method>  (1) 
confgen

>  <s_i_glide_gridfile>  (1) 
gpcr_5ht2c_6bqh_protein_autoprepared_prepared

>  <s_lp_Force_Field>  (1) 
S-OPLS

>  <s_lp_Variant>  (1) 
Pocket2Mol_77-1

>  <s_m_source_file>  (1) 
generated_GPCR_5HT2C_ligand_Pocket2Mol_2026-06-23_prepared.sdf

>  <GenAI_Model>  (1) 
Pocket2Mol

>  <Protein>  (1) 
GPCR_5HT2C

$$$$
Pocket2Mol_46
     RDKit          3D

  0  0  0  0  0  0  0  0  0  0999 V3000
M  V30 BEGIN CTAB
M  V30 COUNTS 12 11 0 0 1
M  V30 BEGIN ATOM
M  V30 1 C 40.399992 30.137770 50.680965 0
M  V30 2 O 39.645162 29.731080 51.808363 0
M  V30 3 C 39.118355 28.495554 51.838924 0
M  V30 4 C 38.295183 28.276116 53.122487 0
M  V30 5 O 39.245137 27.631697 50.967613 0
M  V30 6 O 37.709777 27.225576 53.377950 0
M  V30 7 N 38.289386 29.343520 53.923746 0
M  V30 8 H 40.752441 31.159717 50.820057 0
M  V30 9 H 41.269174 29.493631 50.542047 0
M  V30 10 H 39.793525 30.106817 49.774934 0
M  V30 11 H 38.784415 30.175957 53.638037 0
M  V30 12 H 37.781247 29.313621 54.794384 0
M  V30 END ATOM
M  V30 BEGIN BOND
M  V30 1 1 2 1
M  V30 2 1 3 2
M  V30 3 1 4 3
M  V30 4 2 5 3
M  V30 5 2 6 4
M  V30 6 1 7 4
M  V30 7 1 8 1
M  V30 8 1 9 1
M  V30 9 1 10 1
M  V30 10 1 11 7
M  V30 11 1 12 7
M  V30 END BOND
M  V30 END CTAB
M  END
>  <i_epik_Tot_Q>  (1) 
0

>  <i_epik_Tot_abs_Q>  (1) 
0

>  <i_i_glide_confnum>  (1) 
1

>  <i_i_glide_lignum>  (1) 
49

>  <i_i_glide_posenum>  (1) 
331

>  <i_i_glide_rotatable_bonds>  (1) 
2

>  <i_lp_mmshare_version>  (1) 
72125

>  <i_m_source_file_index>  (1) 
47

>  <i_f3d_flags>  (1) 
0

>  <num_sample>  (1) 
100

>  <b_lp_Chiralities_Consistent>  (1) 
1

>  <r_epik_Charging_Adjusted_Penalty>  (1) 
0

>  <r_epik_Ionization_Penalty>  (1) 
3.9236796398539443e-05

>  <r_epik_Ionization_Penalty_Charging>  (1) 
0

>  <r_epik_Ionization_Penalty_Neutral>  (1) 
3.9236796398539443e-05

>  <r_epik_State_Penalty>  (1) 
-0

>  <r_glide_ring_energy>  (1) 
0

>  <r_i_docking_score>  (1) 
-4.3890332357449537

>  <r_i_glide_ecoul>  (1) 
0.54066936510913777

>  <r_i_glide_eff_state_penalty>  (1) 
-0

>  <r_i_glide_einternal>  (1) 
1.5824552813316526

>  <r_i_glide_emodel>  (1) 
-24.190622059469995

>  <r_i_glide_emodel_strain>  (1) 
0

>  <r_i_glide_energy>  (1) 
-19.262040629070825

>  <r_i_glide_erotb>  (1) 
0

>  <r_i_glide_esite>  (1) 
0

>  <r_i_glide_evdw>  (1) 
-19.802709994179963

>  <r_i_glide_gscore>  (1) 
-4.3890332357449537

>  <r_i_glide_gscore_strain>  (1) 
0

>  <r_i_glide_hbond>  (1) 
0

>  <r_i_glide_ligand_efficiency>  (1) 
-0.62700474796356487

>  <r_i_glide_ligand_efficiency_ln>  (1) 
-1.4898734223623273

>  <r_i_glide_ligand_efficiency_sa>  (1) 
-1.1994169341258458

>  <r_i_glide_lipo>  (1) 
-0.33000000000000002

>  <r_i_glide_metal>  (1) 
-0

>  <r_i_glide_rewards>  (1) 
-3.1499981408023259

>  <r_lp_Energy>  (1) 
8.3220650000000003

>  <r_lp_tautomer_probability>  (1) 
1

>  <s_epik_Chemistry_Notes>  (1) 
This compound has an ester and may undergo hydrolysis at high or low pH.

>  <s_epik_cmdline>  (1) 
J2VwaWtfcHl0aG9uJywgJy1waHQnLCAnMS4wJywgJy1waCcsICc3LjQnLCAnLXRuJywgJzgnLCAnLW1hJywgJzUwMCcsICctaW1hZScsICc8aW5maWxlLm1hZT4nLCAnLW9tYWUnLCAnPG91dGZpbGUubWFlPic=

>  <s_epik_input>  (1) 
W0NIM11PQyg9TylDKD1PKVtOSDJd

>  <s_glide_docking_method>  (1) 
confgen

>  <s_i_glide_gridfile>  (1) 
gpcr_5ht2c_6bqh_protein_autoprepared_prepared

>  <s_lp_Force_Field>  (1) 
S-OPLS

>  <s_lp_Variant>  (1) 
Pocket2Mol_46-1

>  <s_m_source_file>  (1) 
generated_GPCR_5HT2C_ligand_Pocket2Mol_2026-06-23_prepared.sdf

>  <GenAI_Model>  (1) 
Pocket2Mol

>  <Protein>  (1) 
GPCR_5HT2C

$$$$
Pocket2Mol_55
     RDKit          3D

  0  0  0  0  0  0  0  0  0  0999 V3000
M  V30 BEGIN CTAB
M  V30 COUNTS 11 11 0 0 1
M  V30 BEGIN ATOM
M  V30 1 C 40.542954 30.537513 50.326841 0
M  V30 2 O 40.201518 29.340347 49.659075 0
M  V30 3 C 40.045197 30.329387 51.756698 0
M  V30 4 O 39.084624 29.313022 51.602515 0
M  V30 5 C 39.621738 28.519559 50.609515 0
M  V30 6 H 41.616534 30.726781 50.288706 0
M  V30 7 H 40.027182 31.368385 49.845604 0
M  V30 8 H 40.845137 29.950204 52.388761 0
M  V30 9 H 39.645210 31.238686 52.206469 0
M  V30 10 H 38.845648 27.900630 50.160955 0
M  V30 11 H 40.387347 27.872182 51.037392 0
M  V30 END ATOM
M  V30 BEGIN BOND
M  V30 1 1 2 1
M  V30 2 1 3 1
M  V30 3 1 4 3
M  V30 4 1 5 2
M  V30 5 1 5 4
M  V30 6 1 6 1
M  V30 7 1 7 1
M  V30 8 1 8 3
M  V30 9 1 9 3
M  V30 10 1 10 5
M  V30 11 1 11 5
M  V30 END BOND
M  V30 END CTAB
M  END
>  <i_epik_Tot_Q>  (1) 
0

>  <i_epik_Tot_abs_Q>  (1) 
0

>  <i_i_glide_confnum>  (1) 
2

>  <i_i_glide_lignum>  (1) 
59

>  <i_i_glide_posenum>  (1) 
318

>  <i_i_glide_rotatable_bonds>  (1) 
0

>  <i_lp_mmshare_version>  (1) 
72125

>  <i_m_source_file_index>  (1) 
56

>  <i_f3d_flags>  (1) 
0

>  <num_sample>  (1) 
100

>  <b_lp_Chiralities_Consistent>  (1) 
1

>  <r_epik_Charging_Adjusted_Penalty>  (1) 
0

>  <r_epik_Ionization_Penalty>  (1) 
7.9724310449397378e-14

>  <r_epik_Ionization_Penalty_Charging>  (1) 
0

>  <r_epik_Ionization_Penalty_Neutral>  (1) 
7.9724310449397378e-14

>  <r_epik_State_Penalty>  (1) 
-0

>  <r_glide_ring_energy>  (1) 
1.1396681620093737e-05

>  <r_i_docking_score>  (1) 
-4.3871216438124447

>  <r_i_glide_ecoul>  (1) 
-0.80190712607481185

>  <r_i_glide_eff_state_penalty>  (1) 
-0

>  <r_i_glide_einternal>  (1) 
0

>  <r_i_glide_emodel>  (1) 
-16.25536437095046

>  <r_i_glide_emodel_strain>  (1) 
0.038838253027700276

>  <r_i_glide_energy>  (1) 
-12.841838188197453

>  <r_i_glide_erotb>  (1) 
0

>  <r_i_glide_esite>  (1) 
0

>  <r_i_glide_evdw>  (1) 
-12.039931062122641

>  <r_i_glide_gscore>  (1) 
-4.3871216438124447

>  <r_i_glide_gscore_strain>  (1) 
0

>  <r_i_glide_hbond>  (1) 
0

>  <r_i_glide_ligand_efficiency>  (1) 
-0.87742432876248899

>  <r_i_glide_ligand_efficiency_ln>  (1) 
-1.6812515917346005

>  <r_i_glide_ligand_efficiency_sa>  (1) 
-1.5003744972128024

>  <r_i_glide_lipo>  (1) 
-0.56483902179509049

>  <r_i_glide_metal>  (1) 
-0

>  <r_i_glide_rewards>  (1) 
-3.1000000000000001

>  <r_lp_Energy>  (1) 
-12.242987999999999

>  <r_lp_tautomer_probability>  (1) 
1

>  <s_epik_Chemistry_Notes>  (1) 
This compound contains an acetal/aminal-like group ( X-CH(R)-Y where X, Y are N, S, or O) that may be acid/base labile, releasing an aldehyde.

>  <s_epik_cmdline>  (1) 
J2VwaWtfcHl0aG9uJywgJy1waHQnLCAnMS4wJywgJy1waCcsICc3LjQnLCAnLXRuJywgJzgnLCAnLW1hJywgJzUwMCcsICctaW1hZScsICc8aW5maWxlLm1hZT4nLCAnLW9tYWUnLCAnPG91dGZpbGUubWFlPic=

>  <s_epik_input>  (1) 
W0NIMl0xT1tDSDJdT1tDSDJdMQ==

>  <s_glide_docking_method>  (1) 
confgen

>  <s_i_glide_gridfile>  (1) 
gpcr_5ht2c_6bqh_protein_autoprepared_prepared

>  <s_lp_Force_Field>  (1) 
S-OPLS

>  <s_lp_Variant>  (1) 
Pocket2Mol_55-1

>  <s_m_source_file>  (1) 
generated_GPCR_5HT2C_ligand_Pocket2Mol_2026-06-23_prepared.sdf

>  <GenAI_Model>  (1) 
Pocket2Mol

>  <Protein>  (1) 
GPCR_5HT2C

$$$$
Pocket2Mol_5
     RDKit          3D

  0  0  0  0  0  0  0  0  0  0999 V3000
M  V30 BEGIN CTAB
M  V30 COUNTS 12 12 0 0 1
M  V30 BEGIN ATOM
M  V30 1 C 40.081001 29.724015 51.331521 0
M  V30 2 C 39.645137 29.956846 52.567813 0
M  V30 3 C 39.576359 28.397230 50.824415 0
M  V30 4 C 38.775236 27.866756 52.035081 0
M  V30 5 N 38.843719 28.937765 53.023675 0
M  V30 6 H 39.851530 30.795778 53.215882 0
M  V30 7 H 38.945853 28.537753 49.946454 0
M  V30 8 H 40.404355 27.738497 50.562511 0
M  V30 9 H 37.740497 27.652236 51.767880 0
M  V30 10 H 39.217383 26.954174 52.434831 0
M  V30 11 H 40.726643 30.367969 50.752842 0
M  V30 12 H 38.702211 28.748065 54.005555 0
M  V30 END ATOM
M  V30 BEGIN BOND
M  V30 1 2 2 1
M  V30 2 1 3 1
M  V30 3 1 4 3
M  V30 4 1 5 2
M  V30 5 1 5 4
M  V30 6 1 6 2
M  V30 7 1 7 3
M  V30 8 1 8 3
M  V30 9 1 9 4
M  V30 10 1 10 4
M  V30 11 1 11 1
M  V30 12 1 12 5
M  V30 END BOND
M  V30 END CTAB
M  END
>  <i_epik_Tot_Q>  (1) 
0

>  <i_epik_Tot_abs_Q>  (1) 
0

>  <i_i_glide_confnum>  (1) 
1

>  <i_i_glide_lignum>  (1) 
8

>  <i_i_glide_posenum>  (1) 
34

>  <i_i_glide_rotatable_bonds>  (1) 
0

>  <i_lp_mmshare_version>  (1) 
72125

>  <i_m_source_file_index>  (1) 
6

>  <i_f3d_flags>  (1) 
0

>  <num_sample>  (1) 
100

>  <b_lp_Chiralities_Consistent>  (1) 
1

>  <r_epik_Charging_Adjusted_Penalty>  (1) 
1.6042444336516156e-06

>  <r_epik_Ionization_Penalty>  (1) 
0.0023556498582944039

>  <r_epik_Ionization_Penalty_Charging>  (1) 
1.6042444336516156e-06

>  <r_epik_Ionization_Penalty_Neutral>  (1) 
0.0023540456138607521

>  <r_epik_State_Penalty>  (1) 
-0

>  <r_glide_ring_energy>  (1) 
0

>  <r_i_docking_score>  (1) 
-4.3758555498021732

>  <r_i_glide_ecoul>  (1) 
-0.9716541024497598

>  <r_i_glide_eff_state_penalty>  (1) 
-0

>  <r_i_glide_einternal>  (1) 
0

>  <r_i_glide_emodel>  (1) 
-18.027204472237283

>  <r_i_glide_emodel_strain>  (1) 
9.1377557964733569e-08

>  <r_i_glide_energy>  (1) 
-14.173802791143933

>  <r_i_glide_erotb>  (1) 
0

>  <r_i_glide_esite>  (1) 
0

>  <r_i_glide_evdw>  (1) 
-13.202148688694173

>  <r_i_glide_gscore>  (1) 
-4.3758555498021732

>  <r_i_glide_gscore_strain>  (1) 
0

>  <r_i_glide_hbond>  (1) 
0

>  <r_i_glide_ligand_efficiency>  (1) 
-0.87517110996043468

>  <r_i_glide_ligand_efficiency_ln>  (1) 
-1.6769341508188431

>  <r_i_glide_ligand_efficiency_sa>  (1) 
-1.4965215472586899

>  <r_i_glide_lipo>  (1) 
-1.3200000000000001

>  <r_i_glide_metal>  (1) 
-0

>  <r_i_glide_rewards>  (1) 
-2.25

>  <r_lp_Energy>  (1) 
2.9163319999999997

>  <r_lp_tautomer_probability>  (1) 
1

>  <s_epik_Chemistry_Notes>  (1) 
This compound has an imine and may undergo hydrolysis.

>  <s_epik_cmdline>  (1) 
J2VwaWtfcHl0aG9uJywgJy1waHQnLCAnMS4wJywgJy1waCcsICc3LjQnLCAnLXRuJywgJzgnLCAnLW1hJywgJzUwMCcsICctaW1hZScsICc8aW5maWxlLm1hZT4nLCAnLW9tYWUnLCAnPG91dGZpbGUubWFlPic=

>  <s_epik_input>  (1) 
W0NIMl0xW0NIXT1OW0NIMl1bQ0gyXTE=

>  <s_glide_docking_method>  (1) 
confgen

>  <s_i_glide_gridfile>  (1) 
gpcr_5ht2c_6bqh_protein_autoprepared_prepared

>  <s_lp_Force_Field>  (1) 
S-OPLS

>  <s_lp_Variant>  (1) 
Pocket2Mol_5-1

>  <s_m_source_file>  (1) 
generated_GPCR_5HT2C_ligand_Pocket2Mol_2026-06-23_prepared.sdf

>  <GenAI_Model>  (1) 
Pocket2Mol

>  <Protein>  (1) 
GPCR_5HT2C

$$$$
Pocket2Mol_26
     RDKit          3D

  0  0  0  0  0  0  0  0  0  0999 V3000
M  V30 BEGIN CTAB
M  V30 COUNTS 16 16 0 0 1
M  V30 BEGIN ATOM
M  V30 1 C 39.353761 28.649660 51.039463 0
M  V30 2 C 39.045334 28.763829 52.473159 0
M  V30 3 C 39.952603 29.657384 50.501859 0
M  V30 4 C 40.250103 30.789743 51.390990 0
M  V30 5 N 39.806602 30.086274 52.688061 0 CHG=1
M  V30 6 C 39.227112 30.974026 53.719210 0
M  V30 7 H 39.077753 27.760273 50.490420 0
M  V30 8 H 37.969128 28.854695 52.629720 0
M  V30 9 H 39.454043 27.938824 53.057175 0
M  V30 10 H 40.227695 29.696697 49.456928 0
M  V30 11 H 41.305761 31.044712 51.367760 0
M  V30 12 H 39.645137 31.660776 51.140485 0
M  V30 13 H 38.329274 31.477530 53.367950 0
M  V30 14 H 38.969150 30.408253 54.615322 0
M  V30 15 H 39.946708 31.737754 54.011536 0
M  V30 16 H 40.680515 29.777473 53.088262 0
M  V30 END ATOM
M  V30 BEGIN BOND
M  V30 1 1 2 1
M  V30 2 2 3 1
M  V30 3 1 4 3
M  V30 4 1 5 2
M  V30 5 1 5 4
M  V30 6 1 6 5
M  V30 7 1 7 1
M  V30 8 1 8 2
M  V30 9 1 9 2
M  V30 10 1 10 3
M  V30 11 1 11 4
M  V30 12 1 12 4
M  V30 13 1 13 6
M  V30 14 1 14 6
M  V30 15 1 15 6
M  V30 16 1 16 5
M  V30 END BOND
M  V30 END CTAB
M  END
>  <i_epik_Tot_Q>  (1) 
1

>  <i_epik_Tot_abs_Q>  (1) 
1

>  <i_i_glide_confnum>  (1) 
1

>  <i_i_glide_lignum>  (1) 
29

>  <i_i_glide_posenum>  (1) 
260

>  <i_i_glide_rotatable_bonds>  (1) 
0

>  <i_lp_mmshare_version>  (1) 
72125

>  <i_m_source_file_index>  (1) 
27

>  <i_f3d_flags>  (1) 
0

>  <num_sample>  (1) 
100

>  <b_lp_Chiralities_Consistent>  (1) 
1

>  <r_epik_Charging_Adjusted_Penalty>  (1) 
0.0014863909170882658

>  <r_epik_Ionization_Penalty>  (1) 
0.0014863909170882658

>  <r_epik_Ionization_Penalty_Charging>  (1) 
0.0014863909170882658

>  <r_epik_Ionization_Penalty_Neutral>  (1) 
0

>  <r_epik_State_Penalty>  (1) 
-0

>  <r_glide_ring_energy>  (1) 
0

>  <r_i_docking_score>  (1) 
-4.360277877635669

>  <r_i_glide_ecoul>  (1) 
-0.66202069682222864

>  <r_i_glide_eff_state_penalty>  (1) 
-0

>  <r_i_glide_einternal>  (1) 
0

>  <r_i_glide_emodel>  (1) 
-19.060460514297532

>  <r_i_glide_emodel_strain>  (1) 
0

>  <r_i_glide_energy>  (1) 
-12.431850973588514

>  <r_i_glide_erotb>  (1) 
0

>  <r_i_glide_esite>  (1) 
0

>  <r_i_glide_evdw>  (1) 
-11.769830276766285

>  <r_i_glide_gscore>  (1) 
-4.360277877635669

>  <r_i_glide_gscore_strain>  (1) 
0

>  <r_i_glide_hbond>  (1) 
0

>  <r_i_glide_ligand_efficiency>  (1) 
-0.72671297960594483

>  <r_i_glide_ligand_efficiency_ln>  (1) 
-1.5618386632861758

>  <r_i_glide_ligand_efficiency_sa>  (1) 
-1.3205251203203652

>  <r_i_glide_lipo>  (1) 
-1.4224832592740209

>  <r_i_glide_metal>  (1) 
-0

>  <r_i_glide_rewards>  (1) 
-2.25

>  <r_lp_Energy>  (1) 
6.8415840000000001

>  <r_lp_tautomer_probability>  (1) 
1

>  <s_epik_cmdline>  (1) 
J2VwaWtfcHl0aG9uJywgJy1waHQnLCAnMS4wJywgJy1waCcsICc3LjQnLCAnLXRuJywgJzgnLCAnLW1hJywgJzUwMCcsICctaW1hZScsICc8aW5maWxlLm1hZT4nLCAnLW9tYWUnLCAnPG91dGZpbGUubWFlPic=

>  <s_epik_input>  (1) 
W0NIMl0xW0NIXT1bQ0hdW0NIMl1OMVtDSDNd

>  <s_glide_docking_method>  (1) 
confgen

>  <s_i_glide_gridfile>  (1) 
gpcr_5ht2c_6bqh_protein_autoprepared_prepared

>  <s_lp_Force_Field>  (1) 
S-OPLS

>  <s_lp_Variant>  (1) 
Pocket2Mol_26-1

>  <s_m_source_file>  (1) 
generated_GPCR_5HT2C_ligand_Pocket2Mol_2026-06-23_prepared.sdf

>  <GenAI_Model>  (1) 
Pocket2Mol

>  <Protein>  (1) 
GPCR_5HT2C

$$$$
Pocket2Mol_88
     RDKit          3D

  0  0  0  0  0  0  0  0  0  0999 V3000
M  V30 BEGIN CTAB
M  V30 COUNTS 15 15 0 0 1
M  V30 BEGIN ATOM
M  V30 1 C 37.828501 25.317370 56.798874 0
M  V30 2 C 39.245041 25.333748 57.367145 0
M  V30 3 C 38.075537 25.299425 55.294232 0
M  V30 4 C 39.347028 26.137689 55.114555 0
M  V30 5 N 40.045377 26.127252 56.416936 0 CHG=1
M  V30 6 H 37.297822 26.228404 57.080739 0
M  V30 7 H 37.242534 24.464545 57.144506 0
M  V30 8 H 39.295349 25.737675 58.379246 0
M  V30 9 H 39.644987 24.318348 57.381797 0
M  V30 10 H 38.259812 24.274696 54.967632 0
M  V30 11 H 37.232299 25.683529 54.719253 0
M  V30 12 H 39.984255 25.743518 54.321790 0
M  V30 13 H 39.094845 27.168221 54.860856 0
M  V30 14 H 40.978699 25.737831 56.336196 0
M  V30 15 H 40.110995 27.077712 56.753325 0
M  V30 END ATOM
M  V30 BEGIN BOND
M  V30 1 1 2 1
M  V30 2 1 3 1
M  V30 3 1 4 3
M  V30 4 1 5 2
M  V30 5 1 5 4
M  V30 6 1 6 1
M  V30 7 1 7 1
M  V30 8 1 8 2
M  V30 9 1 9 2
M  V30 10 1 10 3
M  V30 11 1 11 3
M  V30 12 1 12 4
M  V30 13 1 13 4
M  V30 14 1 14 5
M  V30 15 1 15 5
M  V30 END BOND
M  V30 END CTAB
M  END
>  <i_epik_Tot_Q>  (1) 
1

>  <i_epik_Tot_abs_Q>  (1) 
1

>  <i_i_glide_confnum>  (1) 
2

>  <i_i_glide_lignum>  (1) 
93

>  <i_i_glide_posenum>  (1) 
85

>  <i_i_glide_rotatable_bonds>  (1) 
0

>  <i_lp_mmshare_version>  (1) 
72125

>  <i_m_source_file_index>  (1) 
89

>  <i_f3d_flags>  (1) 
0

>  <num_sample>  (1) 
100

>  <b_lp_Chiralities_Consistent>  (1) 
1

>  <r_epik_Charging_Adjusted_Penalty>  (1) 
0.00011848530527437102

>  <r_epik_Ionization_Penalty>  (1) 
0.00011848530527437102

>  <r_epik_Ionization_Penalty_Charging>  (1) 
0.00011848530527437102

>  <r_epik_Ionization_Penalty_Neutral>  (1) 
0

>  <r_epik_State_Penalty>  (1) 
-0

>  <r_glide_ring_energy>  (1) 
1.2454512470311176

>  <r_i_docking_score>  (1) 
-4.3585419852672356

>  <r_i_glide_ecoul>  (1) 
-1.4813435964075123

>  <r_i_glide_eff_state_penalty>  (1) 
-0

>  <r_i_glide_einternal>  (1) 
0

>  <r_i_glide_emodel>  (1) 
-19.612737158452241

>  <r_i_glide_emodel_strain>  (1) 
0

>  <r_i_glide_energy>  (1) 
-12.808152512529693

>  <r_i_glide_erotb>  (1) 
0

>  <r_i_glide_esite>  (1) 
0

>  <r_i_glide_evdw>  (1) 
-11.326808916122181

>  <r_i_glide_gscore>  (1) 
-4.3585419852672356

>  <r_i_glide_gscore_strain>  (1) 
0

>  <r_i_glide_hbond>  (1) 
0

>  <r_i_glide_ligand_efficiency>  (1) 
-0.87170839705344716

>  <r_i_glide_ligand_efficiency_ln>  (1) 
-1.6702991722847929

>  <r_i_glide_ligand_efficiency_sa>  (1) 
-1.4906003914774943

>  <r_i_glide_lipo>  (1) 
-1.3200000000000001

>  <r_i_glide_metal>  (1) 
-0

>  <r_i_glide_rewards>  (1) 
-2.25

>  <r_lp_Energy>  (1) 
17.726251999999999

>  <r_lp_tautomer_probability>  (1) 
1

>  <s_epik_cmdline>  (1) 
J2VwaWtfcHl0aG9uJywgJy1waHQnLCAnMS4wJywgJy1waCcsICc3LjQnLCAnLXRuJywgJzgnLCAnLW1hJywgJzUwMCcsICctaW1hZScsICc8aW5maWxlLm1hZT4nLCAnLW9tYWUnLCAnPG91dGZpbGUubWFlPic=

>  <s_epik_input>  (1) 
W0NIMl0xW0NIMl1bTkhdW0NIMl1bQ0gyXTE=

>  <s_glide_docking_method>  (1) 
confgen

>  <s_i_glide_gridfile>  (1) 
gpcr_5ht2c_6bqh_protein_autoprepared_prepared

>  <s_lp_Force_Field>  (1) 
S-OPLS

>  <s_lp_Variant>  (1) 
Pocket2Mol_88-1

>  <s_m_source_file>  (1) 
generated_GPCR_5HT2C_ligand_Pocket2Mol_2026-06-23_prepared.sdf

>  <GenAI_Model>  (1) 
Pocket2Mol

>  <Protein>  (1) 
GPCR_5HT2C

$$$$
Pocket2Mol_28
     RDKit          3D

  0  0  0  0  0  0  0  0  0  0999 V3000
M  V30 BEGIN CTAB
M  V30 COUNTS 13 13 0 0 1
M  V30 BEGIN ATOM
M  V30 1 C 37.192474 34.173522 59.258284 0
M  V30 2 O 36.160526 33.517117 59.986797 0
M  V30 3 C 36.269251 32.225641 60.395989 0
M  V30 4 O 35.645633 31.737745 61.337815 0
M  V30 5 C 37.248445 31.382477 59.548670 0
M  V30 6 C 37.902360 33.240979 58.277049 0
M  V30 7 O 38.345282 32.137736 59.043213 0
M  V30 8 H 37.913341 34.572613 59.972341 0
M  V30 9 H 36.767532 35.025518 58.727562 0
M  V30 10 H 36.702749 30.933100 58.717988 0
M  V30 11 H 37.635580 30.564722 60.156541 0
M  V30 12 H 38.759610 33.737733 57.824630 0
M  V30 13 H 37.245137 32.929429 57.465234 0
M  V30 END ATOM
M  V30 BEGIN BOND
M  V30 1 1 2 1
M  V30 2 1 3 2
M  V30 3 2 4 3
M  V30 4 1 5 3
M  V30 5 1 6 1
M  V30 6 1 7 5
M  V30 7 1 7 6
M  V30 8 1 8 1
M  V30 9 1 9 1
M  V30 10 1 10 5
M  V30 11 1 11 5
M  V30 12 1 12 6
M  V30 13 1 13 6
M  V30 END BOND
M  V30 END CTAB
M  END
>  <i_epik_Tot_Q>  (1) 
0

>  <i_epik_Tot_abs_Q>  (1) 
0

>  <i_i_glide_confnum>  (1) 
2

>  <i_i_glide_lignum>  (1) 
31

>  <i_i_glide_posenum>  (1) 
336

>  <i_i_glide_rotatable_bonds>  (1) 
0

>  <i_lp_mmshare_version>  (1) 
72125

>  <i_m_source_file_index>  (1) 
29

>  <i_f3d_flags>  (1) 
0

>  <num_sample>  (1) 
100

>  <b_lp_Chiralities_Consistent>  (1) 
1

>  <r_epik_Charging_Adjusted_Penalty>  (1) 
0

>  <r_epik_Ionization_Penalty>  (1) 
1.0677269036415479e-12

>  <r_epik_Ionization_Penalty_Charging>  (1) 
0

>  <r_epik_Ionization_Penalty_Neutral>  (1) 
1.0677269036415479e-12

>  <r_epik_State_Penalty>  (1) 
-0

>  <r_glide_ring_energy>  (1) 
4.2281688740393558e-05

>  <r_i_docking_score>  (1) 
-4.356694561634729

>  <r_i_glide_ecoul>  (1) 
-3.2409753750659864

>  <r_i_glide_eff_state_penalty>  (1) 
-0

>  <r_i_glide_einternal>  (1) 
0

>  <r_i_glide_emodel>  (1) 
-20.091165688617323

>  <r_i_glide_emodel_strain>  (1) 
0

>  <r_i_glide_energy>  (1) 
-15.587567716384463

>  <r_i_glide_erotb>  (1) 
0

>  <r_i_glide_esite>  (1) 
-0.054809264264969251

>  <r_i_glide_evdw>  (1) 
-12.346592341318477

>  <r_i_glide_gscore>  (1) 
-4.356694561634729

>  <r_i_glide_gscore_strain>  (1) 
0

>  <r_i_glide_hbond>  (1) 
-0.32000000000000001

>  <r_i_glide_ligand_efficiency>  (1) 
-0.62238493737638989

>  <r_i_glide_ligand_efficiency_ln>  (1) 
-1.4788959408798745

>  <r_i_glide_ligand_efficiency_sa>  (1) 
-1.1905795543951367

>  <r_i_glide_lipo>  (1) 
0

>  <r_i_glide_metal>  (1) 
-0

>  <r_i_glide_rewards>  (1) 
-2.8784093740439372

>  <r_lp_Energy>  (1) 
12.58291

>  <r_lp_tautomer_probability>  (1) 
1

>  <s_epik_Chemistry_Notes>  (1) 
This compound has an ester and may undergo hydrolysis at high or low pH.

>  <s_epik_cmdline>  (1) 
J2VwaWtfcHl0aG9uJywgJy1waHQnLCAnMS4wJywgJy1waCcsICc3LjQnLCAnLXRuJywgJzgnLCAnLW1hJywgJzUwMCcsICctaW1hZScsICc8aW5maWxlLm1hZT4nLCAnLW9tYWUnLCAnPG91dGZpbGUubWFlPic=

>  <s_epik_input>  (1) 
W0NIMl0xT1tDSDJdW0NIMl1PQzE9Tw==

>  <s_glide_docking_method>  (1) 
confgen

>  <s_i_glide_gridfile>  (1) 
gpcr_5ht2c_6bqh_protein_autoprepared_prepared

>  <s_lp_Force_Field>  (1) 
S-OPLS

>  <s_lp_Variant>  (1) 
Pocket2Mol_28-1

>  <s_m_source_file>  (1) 
generated_GPCR_5HT2C_ligand_Pocket2Mol_2026-06-23_prepared.sdf

>  <GenAI_Model>  (1) 
Pocket2Mol

>  <Protein>  (1) 
GPCR_5HT2C

$$$$
Pocket2Mol_14
     RDKit          3D

  0  0  0  0  0  0  0  0  0  0999 V3000
M  V30 BEGIN CTAB
M  V30 COUNTS 10 10 0 0 1
M  V30 BEGIN ATOM
M  V30 1 C 38.807867 28.549050 52.654772 0
M  V30 2 C 38.996101 27.449670 51.616390 0
M  V30 3 O 39.645129 29.571802 52.163498 0
M  V30 4 O 39.634473 28.138771 50.566939 0
M  V30 5 C 40.045249 29.356666 50.913784 0
M  V30 6 O 40.680123 30.137636 50.208885 0
M  V30 7 H 39.099326 28.231785 53.656054 0
M  V30 8 H 37.776380 28.901296 52.677619 0
M  V30 9 H 39.645171 26.656714 51.987136 0
M  V30 10 H 38.052301 27.011271 51.295471 0
M  V30 END ATOM
M  V30 BEGIN BOND
M  V30 1 1 2 1
M  V30 2 1 3 1
M  V30 3 1 4 2
M  V30 4 1 5 3
M  V30 5 1 5 4
M  V30 6 2 6 5
M  V30 7 1 7 1
M  V30 8 1 8 1
M  V30 9 1 9 2
M  V30 10 1 10 2
M  V30 END BOND
M  V30 END CTAB
M  END
>  <i_epik_Tot_Q>  (1) 
0

>  <i_epik_Tot_abs_Q>  (1) 
0

>  <i_i_glide_confnum>  (1) 
1

>  <i_i_glide_lignum>  (1) 
17

>  <i_i_glide_posenum>  (1) 
388

>  <i_i_glide_rotatable_bonds>  (1) 
0

>  <i_lp_mmshare_version>  (1) 
72125

>  <i_m_source_file_index>  (1) 
15

>  <i_f3d_flags>  (1) 
0

>  <num_sample>  (1) 
100

>  <b_lp_Chiralities_Consistent>  (1) 
1

>  <r_epik_Charging_Adjusted_Penalty>  (1) 
0

>  <r_epik_Ionization_Penalty>  (1) 
0

>  <r_epik_Ionization_Penalty_Charging>  (1) 
0

>  <r_epik_Ionization_Penalty_Neutral>  (1) 
0

>  <r_epik_State_Penalty>  (1) 
-0

>  <r_glide_ring_energy>  (1) 
0

>  <r_i_docking_score>  (1) 
-4.3475669919818349

>  <r_i_glide_ecoul>  (1) 
0.085663881401746494

>  <r_i_glide_eff_state_penalty>  (1) 
-0

>  <r_i_glide_einternal>  (1) 
0

>  <r_i_glide_emodel>  (1) 
-21.72756433957073

>  <r_i_glide_emodel_strain>  (1) 
0

>  <r_i_glide_energy>  (1) 
-17.236908376642518

>  <r_i_glide_erotb>  (1) 
0

>  <r_i_glide_esite>  (1) 
0

>  <r_i_glide_evdw>  (1) 
-17.322572258044264

>  <r_i_glide_gscore>  (1) 
-4.3475669919818349

>  <r_i_glide_gscore_strain>  (1) 
0

>  <r_i_glide_hbond>  (1) 
0

>  <r_i_glide_ligand_efficiency>  (1) 
-0.72459449866363912

>  <r_i_glide_ligand_efficiency_ln>  (1) 
-1.5572856615702548

>  <r_i_glide_ligand_efficiency_sa>  (1) 
-1.3166755849745793

>  <r_i_glide_lipo>  (1) 
-0.65833417940322769

>  <r_i_glide_metal>  (1) 
-0

>  <r_i_glide_rewards>  (1) 
-2.8359537818866554

>  <r_lp_Energy>  (1) 
-6.8415979999999994

>  <r_lp_tautomer_probability>  (1) 
1

>  <s_epik_Chemistry_Notes>  (1) 
This compound has an ester and may undergo hydrolysis at high or low pH.

>  <s_epik_cmdline>  (1) 
J2VwaWtfcHl0aG9uJywgJy1waHQnLCAnMS4wJywgJy1waCcsICc3LjQnLCAnLXRuJywgJzgnLCAnLW1hJywgJzUwMCcsICctaW1hZScsICc8aW5maWxlLm1hZT4nLCAnLW9tYWUnLCAnPG91dGZpbGUubWFlPic=

>  <s_epik_input>  (1) 
TzFbQ0gyXVtDSDJdT0MxPU8=

>  <s_glide_docking_method>  (1) 
confgen

>  <s_i_glide_gridfile>  (1) 
gpcr_5ht2c_6bqh_protein_autoprepared_prepared

>  <s_lp_Force_Field>  (1) 
S-OPLS

>  <s_lp_Variant>  (1) 
Pocket2Mol_14-1

>  <s_m_source_file>  (1) 
generated_GPCR_5HT2C_ligand_Pocket2Mol_2026-06-23_prepared.sdf

>  <GenAI_Model>  (1) 
Pocket2Mol

>  <Protein>  (1) 
GPCR_5HT2C

$$$$
Pocket2Mol_5
     RDKit          3D

  0  0  0  0  0  0  0  0  0  0999 V3000
M  V30 BEGIN CTAB
M  V30 COUNTS 12 12 0 0 1
M  V30 BEGIN ATOM
M  V30 1 C 38.987287 28.388151 51.923842 0
M  V30 2 C 39.245269 29.352501 52.729984 0
M  V30 3 C 39.645116 28.515136 50.567962 0
M  V30 4 C 40.376958 29.983318 50.801691 0
M  V30 5 N 40.045135 30.262436 52.211375 0
M  V30 6 H 38.883833 29.502671 53.738728 0
M  V30 7 H 40.360980 27.711967 50.407161 0
M  V30 8 H 38.906241 28.533722 49.768224 0
M  V30 9 H 41.456160 29.932738 50.650198 0
M  V30 10 H 39.958433 30.750622 50.147913 0
M  V30 11 H 38.345398 27.550908 52.158516 0
M  V30 12 H 40.147474 31.189835 52.599600 0
M  V30 END ATOM
M  V30 BEGIN BOND
M  V30 1 2 2 1
M  V30 2 1 3 1
M  V30 3 1 4 3
M  V30 4 1 5 2
M  V30 5 1 5 4
M  V30 6 1 6 2
M  V30 7 1 7 3
M  V30 8 1 8 3
M  V30 9 1 9 4
M  V30 10 1 10 4
M  V30 11 1 11 1
M  V30 12 1 12 5
M  V30 END BOND
M  V30 END CTAB
M  END
>  <i_epik_Tot_Q>  (1) 
0

>  <i_epik_Tot_abs_Q>  (1) 
0

>  <i_i_glide_confnum>  (1) 
1

>  <i_i_glide_lignum>  (1) 
8

>  <i_i_glide_posenum>  (1) 
388

>  <i_i_glide_rotatable_bonds>  (1) 
0

>  <i_lp_mmshare_version>  (1) 
72125

>  <i_m_source_file_index>  (1) 
6

>  <i_f3d_flags>  (1) 
0

>  <num_sample>  (1) 
100

>  <b_lp_Chiralities_Consistent>  (1) 
1

>  <r_epik_Charging_Adjusted_Penalty>  (1) 
1.6042444336516156e-06

>  <r_epik_Ionization_Penalty>  (1) 
0.0023556498582944039

>  <r_epik_Ionization_Penalty_Charging>  (1) 
1.6042444336516156e-06

>  <r_epik_Ionization_Penalty_Neutral>  (1) 
0.0023540456138607521

>  <r_epik_State_Penalty>  (1) 
-0

>  <r_glide_ring_energy>  (1) 
0

>  <r_i_docking_score>  (1) 
-4.3429185380018955

>  <r_i_glide_ecoul>  (1) 
-1.2441872516378738

>  <r_i_glide_eff_state_penalty>  (1) 
-0

>  <r_i_glide_einternal>  (1) 
0

>  <r_i_glide_emodel>  (1) 
-18.280931595162969

>  <r_i_glide_emodel_strain>  (1) 
0

>  <r_i_glide_energy>  (1) 
-14.456534331229099

>  <r_i_glide_erotb>  (1) 
0

>  <r_i_glide_esite>  (1) 
0

>  <r_i_glide_evdw>  (1) 
-13.212347079591225

>  <r_i_glide_gscore>  (1) 
-4.3429185380018955

>  <r_i_glide_gscore_strain>  (1) 
0

>  <r_i_glide_hbond>  (1) 
0

>  <r_i_glide_ligand_efficiency>  (1) 
-0.86858370760037906

>  <r_i_glide_ligand_efficiency_ln>  (1) 
-1.6643118877470409

>  <r_i_glide_ligand_efficiency_sa>  (1) 
-1.4852572476719137

>  <r_i_glide_lipo>  (1) 
-1.2456730962766529

>  <r_i_glide_metal>  (1) 
-0

>  <r_i_glide_rewards>  (1) 
-2.25

>  <r_lp_Energy>  (1) 
2.9163319999999997

>  <r_lp_tautomer_probability>  (1) 
1

>  <s_epik_Chemistry_Notes>  (1) 
This compound has an imine and may undergo hydrolysis.

>  <s_epik_cmdline>  (1) 
J2VwaWtfcHl0aG9uJywgJy1waHQnLCAnMS4wJywgJy1waCcsICc3LjQnLCAnLXRuJywgJzgnLCAnLW1hJywgJzUwMCcsICctaW1hZScsICc8aW5maWxlLm1hZT4nLCAnLW9tYWUnLCAnPG91dGZpbGUubWFlPic=

>  <s_epik_input>  (1) 
W0NIMl0xW0NIXT1OW0NIMl1bQ0gyXTE=

>  <s_glide_docking_method>  (1) 
confgen

>  <s_i_glide_gridfile>  (1) 
gpcr_5ht2c_6bqh_protein_autoprepared_prepared

>  <s_lp_Force_Field>  (1) 
S-OPLS

>  <s_lp_Variant>  (1) 
Pocket2Mol_5-1

>  <s_m_source_file>  (1) 
generated_GPCR_5HT2C_ligand_Pocket2Mol_2026-06-23_prepared.sdf

>  <GenAI_Model>  (1) 
Pocket2Mol

>  <Protein>  (1) 
GPCR_5HT2C

$$$$
Pocket2Mol_46
     RDKit          3D

  0  0  0  0  0  0  0  0  0  0999 V3000
M  V30 BEGIN CTAB
M  V30 COUNTS 12 11 0 0 1
M  V30 BEGIN ATOM
M  V30 1 C 40.943464 30.537751 50.167762 0
M  V30 2 O 40.276092 29.345046 50.525088 0
M  V30 3 C 39.643322 29.269783 51.704676 0
M  V30 4 C 38.882609 27.937264 51.840205 0
M  V30 5 O 39.645929 30.137770 52.580986 0
M  V30 6 O 38.896378 27.074788 50.967760 0
M  V30 7 N 38.221748 27.840867 52.995336 0
M  V30 8 H 41.523146 30.380415 49.258846 0
M  V30 9 H 40.226611 31.338129 49.984000 0
M  V30 10 H 41.631279 30.858138 50.951367 0
M  V30 11 H 38.263783 28.599482 53.661946 0
M  V30 12 H 37.681164 27.012904 53.196815 0
M  V30 END ATOM
M  V30 BEGIN BOND
M  V30 1 1 2 1
M  V30 2 1 3 2
M  V30 3 1 4 3
M  V30 4 2 5 3
M  V30 5 2 6 4
M  V30 6 1 7 4
M  V30 7 1 8 1
M  V30 8 1 9 1
M  V30 9 1 10 1
M  V30 10 1 11 7
M  V30 11 1 12 7
M  V30 END BOND
M  V30 END CTAB
M  END
>  <i_epik_Tot_Q>  (1) 
0

>  <i_epik_Tot_abs_Q>  (1) 
0

>  <i_i_glide_confnum>  (1) 
1

>  <i_i_glide_lignum>  (1) 
49

>  <i_i_glide_posenum>  (1) 
240

>  <i_i_glide_rotatable_bonds>  (1) 
2

>  <i_lp_mmshare_version>  (1) 
72125

>  <i_m_source_file_index>  (1) 
47

>  <i_f3d_flags>  (1) 
0

>  <num_sample>  (1) 
100

>  <b_lp_Chiralities_Consistent>  (1) 
1

>  <r_epik_Charging_Adjusted_Penalty>  (1) 
0

>  <r_epik_Ionization_Penalty>  (1) 
3.9236796398539443e-05

>  <r_epik_Ionization_Penalty_Charging>  (1) 
0

>  <r_epik_Ionization_Penalty_Neutral>  (1) 
3.9236796398539443e-05

>  <r_epik_State_Penalty>  (1) 
-0

>  <r_glide_ring_energy>  (1) 
0

>  <r_i_docking_score>  (1) 
-4.334351436048256

>  <r_i_glide_ecoul>  (1) 
0.67371168281522587

>  <r_i_glide_eff_state_penalty>  (1) 
-0

>  <r_i_glide_einternal>  (1) 
0.10362040809812001

>  <r_i_glide_emodel>  (1) 
-24.513226953257949

>  <r_i_glide_emodel_strain>  (1) 
0

>  <r_i_glide_energy>  (1) 
-18.916489668719922

>  <r_i_glide_erotb>  (1) 
0

>  <r_i_glide_esite>  (1) 
0

>  <r_i_glide_evdw>  (1) 
-19.59020135153515

>  <r_i_glide_gscore>  (1) 
-4.334351436048256

>  <r_i_glide_gscore_strain>  (1) 
0

>  <r_i_glide_hbond>  (1) 
0

>  <r_i_glide_ligand_efficiency>  (1) 
-0.61919306229260795

>  <r_i_glide_ligand_efficiency_ln>  (1) 
-1.471311484988157

>  <r_i_glide_ligand_efficiency_sa>  (1) 
-1.1844737170158564

>  <r_i_glide_lipo>  (1) 
-0.30608839986099928

>  <r_i_glide_metal>  (1) 
-0

>  <r_i_glide_rewards>  (1) 
-3.1498097210327827

>  <r_lp_Energy>  (1) 
8.3220650000000003

>  <r_lp_tautomer_probability>  (1) 
1

>  <s_epik_Chemistry_Notes>  (1) 
This compound has an ester and may undergo hydrolysis at high or low pH.

>  <s_epik_cmdline>  (1) 
J2VwaWtfcHl0aG9uJywgJy1waHQnLCAnMS4wJywgJy1waCcsICc3LjQnLCAnLXRuJywgJzgnLCAnLW1hJywgJzUwMCcsICctaW1hZScsICc8aW5maWxlLm1hZT4nLCAnLW9tYWUnLCAnPG91dGZpbGUubWFlPic=

>  <s_epik_input>  (1) 
W0NIM11PQyg9TylDKD1PKVtOSDJd

>  <s_glide_docking_method>  (1) 
confgen

>  <s_i_glide_gridfile>  (1) 
gpcr_5ht2c_6bqh_protein_autoprepared_prepared

>  <s_lp_Force_Field>  (1) 
S-OPLS

>  <s_lp_Variant>  (1) 
Pocket2Mol_46-1

>  <s_m_source_file>  (1) 
generated_GPCR_5HT2C_ligand_Pocket2Mol_2026-06-23_prepared.sdf

>  <GenAI_Model>  (1) 
Pocket2Mol

>  <Protein>  (1) 
GPCR_5HT2C

$$$$
Pocket2Mol_44
     RDKit          3D

  0  0  0  0  0  0  0  0  0  0999 V3000
M  V30 BEGIN CTAB
M  V30 COUNTS 10 9 0 0 1
M  V30 BEGIN ATOM
M  V30 1 C 35.529307 32.315807 60.108522 0
M  V30 2 O 35.981814 32.208901 61.415033 0
M  V30 3 C 37.396170 32.235903 61.511620 0
M  V30 4 O 35.810798 31.153393 59.367604 0
M  V30 5 H 36.016416 33.153711 59.606817 0
M  V30 6 H 34.447800 32.462685 60.094213 0
M  V30 7 H 37.692872 32.148303 62.556611 0
M  V30 8 H 37.846316 31.406619 60.964277 0
M  V30 9 H 37.801285 33.172101 61.125022 0
M  V30 10 H 35.645108 31.339087 58.452863 0
M  V30 END ATOM
M  V30 BEGIN BOND
M  V30 1 1 2 1
M  V30 2 1 3 2
M  V30 3 1 4 1
M  V30 4 1 5 1
M  V30 5 1 6 1
M  V30 6 1 7 3
M  V30 7 1 8 3
M  V30 8 1 9 3
M  V30 9 1 10 4
M  V30 END BOND
M  V30 END CTAB
M  END
>  <i_epik_Tot_Q>  (1) 
0

>  <i_epik_Tot_abs_Q>  (1) 
0

>  <i_i_glide_confnum>  (1) 
1

>  <i_i_glide_lignum>  (1) 
47

>  <i_i_glide_posenum>  (1) 
6

>  <i_i_glide_rotatable_bonds>  (1) 
2

>  <i_lp_mmshare_version>  (1) 
72125

>  <i_m_source_file_index>  (1) 
45

>  <i_f3d_flags>  (1) 
0

>  <num_sample>  (1) 
100

>  <b_lp_Chiralities_Consistent>  (1) 
1

>  <r_epik_Charging_Adjusted_Penalty>  (1) 
0

>  <r_epik_Ionization_Penalty>  (1) 
1.028953084229311e-06

>  <r_epik_Ionization_Penalty_Charging>  (1) 
0

>  <r_epik_Ionization_Penalty_Neutral>  (1) 
1.028953084229311e-06

>  <r_epik_State_Penalty>  (1) 
-0

>  <r_glide_ring_energy>  (1) 
0

>  <r_i_docking_score>  (1) 
-4.3281622054066622

>  <r_i_glide_ecoul>  (1) 
-8.9636651025713068

>  <r_i_glide_eff_state_penalty>  (1) 
-0

>  <r_i_glide_einternal>  (1) 
1.9470863904336633

>  <r_i_glide_emodel>  (1) 
-17.711029965439735

>  <r_i_glide_emodel_strain>  (1) 
0.00035387531506225756

>  <r_i_glide_energy>  (1) 
-13.963191999567774

>  <r_i_glide_erotb>  (1) 
0

>  <r_i_glide_esite>  (1) 
-0.074752139515250879

>  <r_i_glide_evdw>  (1) 
-4.9995268969964677

>  <r_i_glide_gscore>  (1) 
-4.3281622054066622

>  <r_i_glide_gscore_strain>  (1) 
0

>  <r_i_glide_hbond>  (1) 
-0.32167440101783257

>  <r_i_glide_ligand_efficiency>  (1) 
-1.0820405513516655

>  <r_i_glide_ligand_efficiency_ln>  (1) 
-1.8137587197647529

>  <r_i_glide_ligand_efficiency_sa>  (1) 
-1.7176323094878845

>  <r_i_glide_lipo>  (1) 
-0.087209554638059406

>  <r_i_glide_metal>  (1) 
-0

>  <r_i_glide_rewards>  (1) 
-2.25

>  <r_lp_Energy>  (1) 
5.5414079999999997

>  <r_lp_tautomer_probability>  (1) 
1

>  <s_epik_Chemistry_Notes>  (1) 
This compound contains an acetal/aminal-like group ( X-CH(R)-Y where X, Y are N, S, or O) that may be acid/base labile, releasing an aldehyde.

>  <s_epik_cmdline>  (1) 
J2VwaWtfcHl0aG9uJywgJy1waHQnLCAnMS4wJywgJy1waCcsICc3LjQnLCAnLXRuJywgJzgnLCAnLW1hJywgJzUwMCcsICctaW1hZScsICc8aW5maWxlLm1hZT4nLCAnLW9tYWUnLCAnPG91dGZpbGUubWFlPic=

>  <s_epik_input>  (1) 
W09IXVtDSDJdT1tDSDNd

>  <s_glide_docking_method>  (1) 
confgen

>  <s_i_glide_gridfile>  (1) 
gpcr_5ht2c_6bqh_protein_autoprepared_prepared

>  <s_lp_Force_Field>  (1) 
S-OPLS

>  <s_lp_Variant>  (1) 
Pocket2Mol_44-1

>  <s_m_source_file>  (1) 
generated_GPCR_5HT2C_ligand_Pocket2Mol_2026-06-23_prepared.sdf

>  <GenAI_Model>  (1) 
Pocket2Mol

>  <Protein>  (1) 
GPCR_5HT2C

$$$$
Pocket2Mol_9
     RDKit          3D

  0  0  0  0  0  0  0  0  0  0999 V3000
M  V30 BEGIN CTAB
M  V30 COUNTS 11 11 0 0 1
M  V30 BEGIN ATOM
M  V30 1 C 40.045138 30.484377 51.885745 0
M  V30 2 C 40.513529 30.537754 50.436528 0
M  V30 3 C 39.489736 29.363942 52.269911 0
M  V30 4 C 39.473383 28.475142 51.195157 0
M  V30 5 N 40.045136 29.127357 50.167771 0
M  V30 6 O 39.034718 27.332105 51.162739 0
M  V30 7 H 40.177200 31.337722 52.535276 0
M  V30 8 H 40.152220 28.709387 49.256001 0
M  V30 9 H 39.977455 31.284220 49.849365 0
M  V30 10 H 39.103981 29.157785 53.257153 0
M  V30 11 H 41.594337 30.652779 50.347156 0
M  V30 END ATOM
M  V30 BEGIN BOND
M  V30 1 1 2 1
M  V30 2 2 3 1
M  V30 3 1 4 3
M  V30 4 1 5 2
M  V30 5 1 5 4
M  V30 6 2 6 4
M  V30 7 1 7 1
M  V30 8 1 8 5
M  V30 9 1 9 2
M  V30 10 1 10 3
M  V30 11 1 11 2
M  V30 END BOND
M  V30 END CTAB
M  END
>  <i_epik_Tot_Q>  (1) 
0

>  <i_epik_Tot_abs_Q>  (1) 
0

>  <i_i_glide_confnum>  (1) 
1

>  <i_i_glide_lignum>  (1) 
12

>  <i_i_glide_posenum>  (1) 
307

>  <i_i_glide_rotatable_bonds>  (1) 
0

>  <i_lp_mmshare_version>  (1) 
72125

>  <i_m_source_file_index>  (1) 
10

>  <i_f3d_flags>  (1) 
0

>  <num_sample>  (1) 
100

>  <b_lp_Chiralities_Consistent>  (1) 
1

>  <r_epik_Charging_Adjusted_Penalty>  (1) 
0

>  <r_epik_Ionization_Penalty>  (1) 
3.8544596149973334e-06

>  <r_epik_Ionization_Penalty_Charging>  (1) 
0

>  <r_epik_Ionization_Penalty_Neutral>  (1) 
3.8544596149973334e-06

>  <r_epik_State_Penalty>  (1) 
-0

>  <r_glide_ring_energy>  (1) 
0

>  <r_i_docking_score>  (1) 
-4.3144820871492229

>  <r_i_glide_ecoul>  (1) 
0.49397040659331037

>  <r_i_glide_eff_state_penalty>  (1) 
-0

>  <r_i_glide_einternal>  (1) 
0

>  <r_i_glide_emodel>  (1) 
-21.166078590698046

>  <r_i_glide_emodel_strain>  (1) 
0

>  <r_i_glide_energy>  (1) 
-16.598694783490579

>  <r_i_glide_erotb>  (1) 
0

>  <r_i_glide_esite>  (1) 
0

>  <r_i_glide_evdw>  (1) 
-17.092665190083888

>  <r_i_glide_gscore>  (1) 
-4.3144820871492229

>  <r_i_glide_gscore_strain>  (1) 
0

>  <r_i_glide_hbond>  (1) 
0

>  <r_i_glide_ligand_efficiency>  (1) 
-0.71908034785820385

>  <r_i_glide_ligand_efficiency_ln>  (1) 
-1.5454347463330047

>  <r_i_glide_ligand_efficiency_sa>  (1) 
-1.3066557079940406

>  <r_i_glide_lipo>  (1) 
-0.83394438863402509

>  <r_i_glide_metal>  (1) 
-0

>  <r_i_glide_rewards>  (1) 
-2.7000000000000002

>  <r_lp_Energy>  (1) 
3.2049569999999998

>  <r_lp_tautomer_probability>  (1) 
1

>  <s_epik_cmdline>  (1) 
J2VwaWtfcHl0aG9uJywgJy1waHQnLCAnMS4wJywgJy1waCcsICc3LjQnLCAnLXRuJywgJzgnLCAnLW1hJywgJzUwMCcsICctaW1hZScsICc8aW5maWxlLm1hZT4nLCAnLW9tYWUnLCAnPG91dGZpbGUubWFlPic=

>  <s_epik_input>  (1) 
TjE9W0NIXVtDSDJdW0NIMl1DMT1P

>  <s_glide_docking_method>  (1) 
confgen

>  <s_i_glide_gridfile>  (1) 
gpcr_5ht2c_6bqh_protein_autoprepared_prepared

>  <s_lp_Force_Field>  (1) 
S-OPLS

>  <s_lp_Variant>  (1) 
Pocket2Mol_9-1

>  <s_m_source_file>  (1) 
generated_GPCR_5HT2C_ligand_Pocket2Mol_2026-06-23_prepared.sdf

>  <GenAI_Model>  (1) 
Pocket2Mol

>  <Protein>  (1) 
GPCR_5HT2C

$$$$
Pocket2Mol_99
     RDKit          3D

  0  0  0  0  0  0  0  0  0  0999 V3000
M  V30 BEGIN CTAB
M  V30 COUNTS 13 13 0 0 1
M  V30 BEGIN ATOM
M  V30 1 C 39.245687 25.266978 57.366021 0
M  V30 2 O 38.037053 24.538222 57.563821 0
M  V30 3 C 37.175731 24.703862 56.441444 0
M  V30 4 C 39.006132 26.155667 56.149730 0
M  V30 5 C 38.037173 25.319882 55.345617 0
M  V30 6 H 39.519371 25.836862 58.254367 0
M  V30 7 H 40.045137 24.553407 57.164064 0
M  V30 8 H 36.727191 23.757654 56.137332 0
M  V30 9 H 36.370874 25.385193 56.720463 0
M  V30 10 H 38.531836 27.089980 56.453533 0
M  V30 11 H 39.922181 26.394532 55.608194 0
M  V30 12 H 38.574396 24.537960 54.808070 0
M  V30 13 H 37.459955 25.899902 54.624941 0
M  V30 END ATOM
M  V30 BEGIN BOND
M  V30 1 1 2 1
M  V30 2 1 3 2
M  V30 3 1 4 1
M  V30 4 1 5 3
M  V30 5 1 5 4
M  V30 6 1 6 1
M  V30 7 1 7 1
M  V30 8 1 8 3
M  V30 9 1 9 3
M  V30 10 1 10 4
M  V30 11 1 11 4
M  V30 12 1 12 5
M  V30 13 1 13 5
M  V30 END BOND
M  V30 END CTAB
M  END
>  <i_epik_Tot_Q>  (1) 
0

>  <i_epik_Tot_abs_Q>  (1) 
0

>  <i_i_glide_confnum>  (1) 
4

>  <i_i_glide_lignum>  (1) 
104

>  <i_i_glide_posenum>  (1) 
204

>  <i_i_glide_rotatable_bonds>  (1) 
0

>  <i_lp_mmshare_version>  (1) 
72125

>  <i_m_source_file_index>  (1) 
100

>  <i_f3d_flags>  (1) 
0

>  <num_sample>  (1) 
100

>  <b_lp_Chiralities_Consistent>  (1) 
1

>  <r_epik_Charging_Adjusted_Penalty>  (1) 
0

>  <r_epik_Ionization_Penalty>  (1) 
1.3889264151150229e-11

>  <r_epik_Ionization_Penalty_Charging>  (1) 
0

>  <r_epik_Ionization_Penalty_Neutral>  (1) 
1.3889264151150229e-11

>  <r_epik_State_Penalty>  (1) 
-0

>  <r_glide_ring_energy>  (1) 
0.22164722245690596

>  <r_i_docking_score>  (1) 
-4.3091489574408302

>  <r_i_glide_ecoul>  (1) 
-0.39854909483750051

>  <r_i_glide_eff_state_penalty>  (1) 
-0

>  <r_i_glide_einternal>  (1) 
0

>  <r_i_glide_emodel>  (1) 
-16.625293983290586

>  <r_i_glide_emodel_strain>  (1) 
0

>  <r_i_glide_energy>  (1) 
-13.107716208813773

>  <r_i_glide_erotb>  (1) 
0

>  <r_i_glide_esite>  (1) 
0

>  <r_i_glide_evdw>  (1) 
-12.709167113976273

>  <r_i_glide_gscore>  (1) 
-4.3091489574408302

>  <r_i_glide_gscore_strain>  (1) 
0

>  <r_i_glide_hbond>  (1) 
0

>  <r_i_glide_ligand_efficiency>  (1) 
-0.86182979148816607

>  <r_i_glide_ligand_efficiency_ln>  (1) 
-1.6513705641002312

>  <r_i_glide_ligand_efficiency_sa>  (1) 
-1.473708213574157

>  <r_i_glide_lipo>  (1) 
-1.2626289343612247

>  <r_i_glide_metal>  (1) 
-0

>  <r_i_glide_rewards>  (1) 
-2.3512793031551671

>  <r_lp_Energy>  (1) 
3.9174029999999997

>  <r_lp_tautomer_probability>  (1) 
1

>  <s_epik_cmdline>  (1) 
J2VwaWtfcHl0aG9uJywgJy1waHQnLCAnMS4wJywgJy1waCcsICc3LjQnLCAnLXRuJywgJzgnLCAnLW1hJywgJzUwMCcsICctaW1hZScsICc8aW5maWxlLm1hZT4nLCAnLW9tYWUnLCAnPG91dGZpbGUubWFlPic=

>  <s_epik_input>  (1) 
W0NIMl0xT1tDSDJdW0NIMl1bQ0gyXTE=

>  <s_glide_docking_method>  (1) 
confgen

>  <s_i_glide_gridfile>  (1) 
gpcr_5ht2c_6bqh_protein_autoprepared_prepared

>  <s_lp_Force_Field>  (1) 
S-OPLS

>  <s_lp_Variant>  (1) 
Pocket2Mol_99-1

>  <s_m_source_file>  (1) 
generated_GPCR_5HT2C_ligand_Pocket2Mol_2026-06-23_prepared.sdf

>  <GenAI_Model>  (1) 
Pocket2Mol

>  <Protein>  (1) 
GPCR_5HT2C

$$$$
Pocket2Mol_42
     RDKit          3D

  0  0  0  0  0  0  0  0  0  0999 V3000
M  V30 BEGIN CTAB
M  V30 COUNTS 10 9 0 0 1
M  V30 BEGIN ATOM
M  V30 1 C 38.055609 30.068280 59.326294 0
M  V30 2 O 39.112415 30.241822 60.253920 0
M  V30 3 C 38.872557 30.899522 61.408018 0
M  V30 4 C 40.172621 31.050576 62.255445 0
M  V30 5 O 37.774905 31.337757 61.767763 0
M  V30 6 O 41.209344 30.537633 61.767749 0
M  V30 7 O 40.045170 31.671576 63.334802 0 CHG=-1
M  V30 8 H 38.416623 29.528807 58.451234 0
M  V30 9 H 37.664447 31.031897 58.995868 0
M  V30 10 H 37.240202 29.494242 59.767777 0
M  V30 END ATOM
M  V30 BEGIN BOND
M  V30 1 1 2 1
M  V30 2 1 3 2
M  V30 3 1 4 3
M  V30 4 2 5 3
M  V30 5 2 6 4
M  V30 6 1 7 4
M  V30 7 1 8 1
M  V30 8 1 9 1
M  V30 9 1 10 1
M  V30 END BOND
M  V30 END CTAB
M  END
>  <i_epik_Tot_Q>  (1) 
-1

>  <i_epik_Tot_abs_Q>  (1) 
1

>  <i_i_glide_confnum>  (1) 
1

>  <i_i_glide_lignum>  (1) 
45

>  <i_i_glide_posenum>  (1) 
76

>  <i_i_glide_rotatable_bonds>  (1) 
2

>  <i_lp_mmshare_version>  (1) 
72125

>  <i_m_source_file_index>  (1) 
43

>  <i_f3d_flags>  (1) 
0

>  <num_sample>  (1) 
100

>  <b_lp_Chiralities_Consistent>  (1) 
1

>  <r_epik_Charging_Adjusted_Penalty>  (1) 
5.6581681309968728e-06

>  <r_epik_Ionization_Penalty>  (1) 
5.6581681309968728e-06

>  <r_epik_Ionization_Penalty_Charging>  (1) 
5.6581681309968728e-06

>  <r_epik_Ionization_Penalty_Neutral>  (1) 
0

>  <r_epik_State_Penalty>  (1) 
-0

>  <r_glide_ring_energy>  (1) 
0

>  <r_i_docking_score>  (1) 
-4.3077771569472079

>  <r_i_glide_ecoul>  (1) 
-5.5666860834589205

>  <r_i_glide_eff_state_penalty>  (1) 
-0

>  <r_i_glide_einternal>  (1) 
0.02908302727829204

>  <r_i_glide_emodel>  (1) 
-18.963577398880972

>  <r_i_glide_emodel_strain>  (1) 
0

>  <r_i_glide_energy>  (1) 
-14.491950995725288

>  <r_i_glide_erotb>  (1) 
0

>  <r_i_glide_esite>  (1) 
0

>  <r_i_glide_evdw>  (1) 
-8.9252649122663676

>  <r_i_glide_gscore>  (1) 
-4.3077771569472079

>  <r_i_glide_gscore_strain>  (1) 
0

>  <r_i_glide_hbond>  (1) 
-0.38133459598110819

>  <r_i_glide_ligand_efficiency>  (1) 
-0.615396736706744

>  <r_i_glide_ligand_efficiency_ln>  (1) 
-1.4622907485242258

>  <r_i_glide_ligand_efficiency_sa>  (1) 
-1.1772116074227004

>  <r_i_glide_lipo>  (1) 
-0.0058101491471131096

>  <r_i_glide_metal>  (1) 
-0

>  <r_i_glide_rewards>  (1) 
-2.6393662536868305

>  <r_lp_Energy>  (1) 
21.029133999999999

>  <r_lp_tautomer_probability>  (1) 
1

>  <s_epik_Chemistry_Notes>  (1) 
This compound has an ester and may undergo hydrolysis at high or low pH.

>  <s_epik_cmdline>  (1) 
J2VwaWtfcHl0aG9uJywgJy1waHQnLCAnMS4wJywgJy1waCcsICc3LjQnLCAnLXRuJywgJzgnLCAnLW1hJywgJzUwMCcsICctaW1hZScsICc8aW5maWxlLm1hZT4nLCAnLW9tYWUnLCAnPG91dGZpbGUubWFlPic=

>  <s_epik_input>  (1) 
W0NIM11PQyg9TylDKD1PKVtPSF0=

>  <s_glide_docking_method>  (1) 
confgen

>  <s_i_glide_gridfile>  (1) 
gpcr_5ht2c_6bqh_protein_autoprepared_prepared

>  <s_lp_Force_Field>  (1) 
S-OPLS

>  <s_lp_Variant>  (1) 
Pocket2Mol_42-1

>  <s_m_source_file>  (1) 
generated_GPCR_5HT2C_ligand_Pocket2Mol_2026-06-23_prepared.sdf

>  <GenAI_Model>  (1) 
Pocket2Mol

>  <Protein>  (1) 
GPCR_5HT2C

$$$$
Pocket2Mol_88
     RDKit          3D

  0  0  0  0  0  0  0  0  0  0999 V3000
M  V30 BEGIN CTAB
M  V30 COUNTS 15 15 0 0 1
M  V30 BEGIN ATOM
M  V30 1 C 39.960605 29.281808 51.573645 0
M  V30 2 C 39.245156 28.094951 50.924489 0
M  V30 3 C 39.245112 29.516353 52.912587 0
M  V30 4 C 38.116079 28.482074 52.966584 0
M  V30 5 N 38.481557 27.437151 51.997778 0 CHG=1
M  V30 6 H 39.931840 30.164981 50.932872 0
M  V30 7 H 41.009574 29.039469 51.745168 0
M  V30 8 H 38.550237 28.460392 50.168424 0
M  V30 9 H 39.931826 27.402247 50.436411 0
M  V30 10 H 39.934666 29.369810 53.742760 0
M  V30 11 H 38.860975 30.532326 53.002791 0
M  V30 12 H 37.964825 28.073594 53.966576 0
M  V30 13 H 37.181161 28.937755 52.643378 0
M  V30 14 H 39.087359 26.774809 52.459805 0
M  V30 15 H 37.665788 26.952383 51.639319 0
M  V30 END ATOM
M  V30 BEGIN BOND
M  V30 1 1 2 1
M  V30 2 1 3 1
M  V30 3 1 4 3
M  V30 4 1 5 2
M  V30 5 1 5 4
M  V30 6 1 6 1
M  V30 7 1 7 1
M  V30 8 1 8 2
M  V30 9 1 9 2
M  V30 10 1 10 3
M  V30 11 1 11 3
M  V30 12 1 12 4
M  V30 13 1 13 4
M  V30 14 1 14 5
M  V30 15 1 15 5
M  V30 END BOND
M  V30 END CTAB
M  END
>  <i_epik_Tot_Q>  (1) 
1

>  <i_epik_Tot_abs_Q>  (1) 
1

>  <i_i_glide_confnum>  (1) 
1

>  <i_i_glide_lignum>  (1) 
93

>  <i_i_glide_posenum>  (1) 
94

>  <i_i_glide_rotatable_bonds>  (1) 
0

>  <i_lp_mmshare_version>  (1) 
72125

>  <i_m_source_file_index>  (1) 
89

>  <i_f3d_flags>  (1) 
0

>  <num_sample>  (1) 
100

>  <b_lp_Chiralities_Consistent>  (1) 
1

>  <r_epik_Charging_Adjusted_Penalty>  (1) 
0.00011848530527437102

>  <r_epik_Ionization_Penalty>  (1) 
0.00011848530527437102

>  <r_epik_Ionization_Penalty_Charging>  (1) 
0.00011848530527437102

>  <r_epik_Ionization_Penalty_Neutral>  (1) 
0

>  <r_epik_State_Penalty>  (1) 
-0

>  <r_glide_ring_energy>  (1) 
0

>  <r_i_docking_score>  (1) 
-4.291683536098521

>  <r_i_glide_ecoul>  (1) 
-1.9012600858790369

>  <r_i_glide_eff_state_penalty>  (1) 
-0

>  <r_i_glide_einternal>  (1) 
0

>  <r_i_glide_emodel>  (1) 
-18.622124164458025

>  <r_i_glide_emodel_strain>  (1) 
0.59585522089745524

>  <r_i_glide_energy>  (1) 
-12.517774593567967

>  <r_i_glide_erotb>  (1) 
0

>  <r_i_glide_esite>  (1) 
0

>  <r_i_glide_evdw>  (1) 
-10.616514507688931

>  <r_i_glide_gscore>  (1) 
-4.291683536098521

>  <r_i_glide_gscore_strain>  (1) 
0

>  <r_i_glide_hbond>  (1) 
0

>  <r_i_glide_ligand_efficiency>  (1) 
-0.85833670721970423

>  <r_i_glide_ligand_efficiency_ln>  (1) 
-1.6446773903484873

>  <r_i_glide_ligand_efficiency_sa>  (1) 
-1.4677351234953726

>  <r_i_glide_lipo>  (1) 
-1.2256687978322187

>  <r_i_glide_metal>  (1) 
-0

>  <r_i_glide_rewards>  (1) 
-2.25

>  <r_lp_Energy>  (1) 
17.726251999999999

>  <r_lp_tautomer_probability>  (1) 
1

>  <s_epik_cmdline>  (1) 
J2VwaWtfcHl0aG9uJywgJy1waHQnLCAnMS4wJywgJy1waCcsICc3LjQnLCAnLXRuJywgJzgnLCAnLW1hJywgJzUwMCcsICctaW1hZScsICc8aW5maWxlLm1hZT4nLCAnLW9tYWUnLCAnPG91dGZpbGUubWFlPic=

>  <s_epik_input>  (1) 
W0NIMl0xW0NIMl1bTkhdW0NIMl1bQ0gyXTE=

>  <s_glide_docking_method>  (1) 
confgen

>  <s_i_glide_gridfile>  (1) 
gpcr_5ht2c_6bqh_protein_autoprepared_prepared

>  <s_lp_Force_Field>  (1) 
S-OPLS

>  <s_lp_Variant>  (1) 
Pocket2Mol_88-1

>  <s_m_source_file>  (1) 
generated_GPCR_5HT2C_ligand_Pocket2Mol_2026-06-23_prepared.sdf

>  <GenAI_Model>  (1) 
Pocket2Mol

>  <Protein>  (1) 
GPCR_5HT2C

$$$$
Pocket2Mol_14
     RDKit          3D

  0  0  0  0  0  0  0  0  0  0999 V3000
M  V30 BEGIN CTAB
M  V30 COUNTS 10 10 0 0 1
M  V30 BEGIN ATOM
M  V30 1 C 40.009066 30.506330 52.336838 0
M  V30 2 C 40.431153 30.532276 50.869084 0
M  V30 3 O 39.370929 29.254535 52.451188 0
M  V30 4 O 40.045135 29.255548 50.410028 0
M  V30 5 C 39.444231 28.519063 51.341409 0
M  V30 6 O 39.031658 27.370446 51.202183 0
M  V30 7 H 39.312991 31.313698 52.571277 0
M  V30 8 H 40.845102 30.558173 53.031048 0
M  V30 9 H 39.902516 31.311506 50.315494 0
M  V30 10 H 41.505483 30.678009 50.746972 0
M  V30 END ATOM
M  V30 BEGIN BOND
M  V30 1 1 2 1
M  V30 2 1 3 1
M  V30 3 1 4 2
M  V30 4 1 5 3
M  V30 5 1 5 4
M  V30 6 2 6 5
M  V30 7 1 7 1
M  V30 8 1 8 1
M  V30 9 1 9 2
M  V30 10 1 10 2
M  V30 END BOND
M  V30 END CTAB
M  END
>  <i_epik_Tot_Q>  (1) 
0

>  <i_epik_Tot_abs_Q>  (1) 
0

>  <i_i_glide_confnum>  (1) 
1

>  <i_i_glide_lignum>  (1) 
17

>  <i_i_glide_posenum>  (1) 
175

>  <i_i_glide_rotatable_bonds>  (1) 
0

>  <i_lp_mmshare_version>  (1) 
72125

>  <i_m_source_file_index>  (1) 
15

>  <i_f3d_flags>  (1) 
0

>  <num_sample>  (1) 
100

>  <b_lp_Chiralities_Consistent>  (1) 
1

>  <r_epik_Charging_Adjusted_Penalty>  (1) 
0

>  <r_epik_Ionization_Penalty>  (1) 
0

>  <r_epik_Ionization_Penalty_Charging>  (1) 
0

>  <r_epik_Ionization_Penalty_Neutral>  (1) 
0

>  <r_epik_State_Penalty>  (1) 
-0

>  <r_glide_ring_energy>  (1) 
0

>  <r_i_docking_score>  (1) 
-4.2899053672746712

>  <r_i_glide_ecoul>  (1) 
0.14735802013502206

>  <r_i_glide_eff_state_penalty>  (1) 
-0

>  <r_i_glide_einternal>  (1) 
0

>  <r_i_glide_emodel>  (1) 
-19.999133732433652

>  <r_i_glide_emodel_strain>  (1) 
1.097571811214948e-09

>  <r_i_glide_energy>  (1) 
-15.568037179187378

>  <r_i_glide_erotb>  (1) 
0

>  <r_i_glide_esite>  (1) 
0

>  <r_i_glide_evdw>  (1) 
-15.715395199322399

>  <r_i_glide_gscore>  (1) 
-4.2899053672746712

>  <r_i_glide_gscore_strain>  (1) 
0

>  <r_i_glide_hbond>  (1) 
0

>  <r_i_glide_ligand_efficiency>  (1) 
-0.71498422787911187

>  <r_i_glide_ligand_efficiency_ln>  (1) 
-1.5366314378297306

>  <r_i_glide_ligand_efficiency_sa>  (1) 
-1.2992125640293215

>  <r_i_glide_lipo>  (1) 
-0.52623931032880467

>  <r_i_glide_metal>  (1) 
-0

>  <r_i_glide_rewards>  (1) 
-3

>  <r_lp_Energy>  (1) 
-6.8415979999999994

>  <r_lp_tautomer_probability>  (1) 
1

>  <s_epik_Chemistry_Notes>  (1) 
This compound has an ester and may undergo hydrolysis at high or low pH.

>  <s_epik_cmdline>  (1) 
J2VwaWtfcHl0aG9uJywgJy1waHQnLCAnMS4wJywgJy1waCcsICc3LjQnLCAnLXRuJywgJzgnLCAnLW1hJywgJzUwMCcsICctaW1hZScsICc8aW5maWxlLm1hZT4nLCAnLW9tYWUnLCAnPG91dGZpbGUubWFlPic=

>  <s_epik_input>  (1) 
TzFbQ0gyXVtDSDJdT0MxPU8=

>  <s_glide_docking_method>  (1) 
confgen

>  <s_i_glide_gridfile>  (1) 
gpcr_5ht2c_6bqh_protein_autoprepared_prepared

>  <s_lp_Force_Field>  (1) 
S-OPLS

>  <s_lp_Variant>  (1) 
Pocket2Mol_14-1

>  <s_m_source_file>  (1) 
generated_GPCR_5HT2C_ligand_Pocket2Mol_2026-06-23_prepared.sdf

>  <GenAI_Model>  (1) 
Pocket2Mol

>  <Protein>  (1) 
GPCR_5HT2C

$$$$
Pocket2Mol_14
     RDKit          3D

  0  0  0  0  0  0  0  0  0  0999 V3000
M  V30 BEGIN CTAB
M  V30 COUNTS 10 10 0 0 1
M  V30 BEGIN ATOM
M  V30 1 C 40.044965 29.721823 51.299665 0
M  V30 2 C 39.633399 28.452687 50.567787 0
M  V30 3 O 39.439567 29.538453 52.560047 0
M  V30 4 O 38.632861 27.923334 51.399837 0
M  V30 5 C 38.559872 28.535305 52.575403 0
M  V30 6 O 37.817794 28.233297 53.505864 0
M  V30 7 H 39.638434 30.609611 50.815429 0
M  V30 8 H 41.126954 29.828519 51.368341 0
M  V30 9 H 39.259800 28.656886 49.564443 0
M  V30 10 H 40.445137 27.734522 50.505270 0
M  V30 END ATOM
M  V30 BEGIN BOND
M  V30 1 1 2 1
M  V30 2 1 3 1
M  V30 3 1 4 2
M  V30 4 1 5 3
M  V30 5 1 5 4
M  V30 6 2 6 5
M  V30 7 1 7 1
M  V30 8 1 8 1
M  V30 9 1 9 2
M  V30 10 1 10 2
M  V30 END BOND
M  V30 END CTAB
M  END
>  <i_epik_Tot_Q>  (1) 
0

>  <i_epik_Tot_abs_Q>  (1) 
0

>  <i_i_glide_confnum>  (1) 
2

>  <i_i_glide_lignum>  (1) 
17

>  <i_i_glide_posenum>  (1) 
219

>  <i_i_glide_rotatable_bonds>  (1) 
0

>  <i_lp_mmshare_version>  (1) 
72125

>  <i_m_source_file_index>  (1) 
15

>  <i_f3d_flags>  (1) 
0

>  <num_sample>  (1) 
100

>  <b_lp_Chiralities_Consistent>  (1) 
1

>  <r_epik_Charging_Adjusted_Penalty>  (1) 
0

>  <r_epik_Ionization_Penalty>  (1) 
0

>  <r_epik_Ionization_Penalty_Charging>  (1) 
0

>  <r_epik_Ionization_Penalty_Neutral>  (1) 
0

>  <r_epik_State_Penalty>  (1) 
-0

>  <r_glide_ring_energy>  (1) 
0.00053108536261990756

>  <r_i_docking_score>  (1) 
-4.2843574209771056

>  <r_i_glide_ecoul>  (1) 
-0.092737339842664857

>  <r_i_glide_eff_state_penalty>  (1) 
-0

>  <r_i_glide_einternal>  (1) 
0

>  <r_i_glide_emodel>  (1) 
-19.971134936255666

>  <r_i_glide_emodel_strain>  (1) 
0

>  <r_i_glide_energy>  (1) 
-15.545768924573755

>  <r_i_glide_erotb>  (1) 
0

>  <r_i_glide_esite>  (1) 
0

>  <r_i_glide_evdw>  (1) 
-15.45303158473109

>  <r_i_glide_gscore>  (1) 
-4.2843574209771056

>  <r_i_glide_gscore_strain>  (1) 
0

>  <r_i_glide_hbond>  (1) 
0

>  <r_i_glide_ligand_efficiency>  (1) 
-0.71405957016285093

>  <r_i_glide_ligand_efficiency_ln>  (1) 
-1.5346441798446793

>  <r_i_glide_ligand_efficiency_sa>  (1) 
-1.2975323494517828

>  <r_i_glide_lipo>  (1) 
-0.66000000000000003

>  <r_i_glide_metal>  (1) 
-0

>  <r_i_glide_rewards>  (1) 
-2.8377952407641516

>  <r_lp_Energy>  (1) 
-6.8415979999999994

>  <r_lp_tautomer_probability>  (1) 
1

>  <s_epik_Chemistry_Notes>  (1) 
This compound has an ester and may undergo hydrolysis at high or low pH.

>  <s_epik_cmdline>  (1) 
J2VwaWtfcHl0aG9uJywgJy1waHQnLCAnMS4wJywgJy1waCcsICc3LjQnLCAnLXRuJywgJzgnLCAnLW1hJywgJzUwMCcsICctaW1hZScsICc8aW5maWxlLm1hZT4nLCAnLW9tYWUnLCAnPG91dGZpbGUubWFlPic=

>  <s_epik_input>  (1) 
TzFbQ0gyXVtDSDJdT0MxPU8=

>  <s_glide_docking_method>  (1) 
confgen

>  <s_i_glide_gridfile>  (1) 
gpcr_5ht2c_6bqh_protein_autoprepared_prepared

>  <s_lp_Force_Field>  (1) 
S-OPLS

>  <s_lp_Variant>  (1) 
Pocket2Mol_14-1

>  <s_m_source_file>  (1) 
generated_GPCR_5HT2C_ligand_Pocket2Mol_2026-06-23_prepared.sdf

>  <GenAI_Model>  (1) 
Pocket2Mol

>  <Protein>  (1) 
GPCR_5HT2C

$$$$
Pocket2Mol_39
     RDKit          3D

  0  0  0  0  0  0  0  0  0  0999 V3000
M  V30 BEGIN CTAB
M  V30 COUNTS 15 15 0 0 1
M  V30 BEGIN ATOM
M  V30 1 C 35.331991 32.954390 60.743263 0
M  V30 2 C 36.520196 33.905390 60.955299 0
M  V30 3 O 35.767990 31.618010 60.936303 0
M  V30 4 C 36.531978 31.120389 59.884910 0
M  V30 5 O 37.333638 34.106694 59.806455 0
M  V30 6 O 37.740870 31.798204 59.700858 0
M  V30 7 C 37.594226 32.999227 59.000712 0
M  V30 8 H 34.581878 33.155829 61.508502 0
M  V30 9 H 34.842830 33.101933 59.778830 0
M  V30 10 H 37.143900 33.541579 61.771396 0
M  V30 11 H 36.153685 34.885174 61.261420 0
M  V30 12 H 35.941587 31.066199 58.967758 0
M  V30 13 H 36.788679 30.095800 60.151202 0
M  V30 14 H 38.544266 33.200726 58.505649 0
M  V30 15 H 36.845143 32.936578 58.209190 0
M  V30 END ATOM
M  V30 BEGIN BOND
M  V30 1 1 2 1
M  V30 2 1 3 1
M  V30 3 1 4 3
M  V30 4 1 5 2
M  V30 5 1 6 4
M  V30 6 1 7 5
M  V30 7 1 7 6
M  V30 8 1 8 1
M  V30 9 1 9 1
M  V30 10 1 10 2
M  V30 11 1 11 2
M  V30 12 1 12 4
M  V30 13 1 13 4
M  V30 14 1 14 7
M  V30 15 1 15 7
M  V30 END BOND
M  V30 END CTAB
M  END
>  <i_epik_Tot_Q>  (1) 
0

>  <i_epik_Tot_abs_Q>  (1) 
0

>  <i_i_glide_confnum>  (1) 
4

>  <i_i_glide_lignum>  (1) 
42

>  <i_i_glide_posenum>  (1) 
78

>  <i_i_glide_rotatable_bonds>  (1) 
0

>  <i_lp_mmshare_version>  (1) 
72125

>  <i_m_source_file_index>  (1) 
40

>  <i_f3d_flags>  (1) 
0

>  <num_sample>  (1) 
100

>  <b_lp_Chiralities_Consistent>  (1) 
1

>  <r_epik_Charging_Adjusted_Penalty>  (1) 
0

>  <r_epik_Ionization_Penalty>  (1) 
4.6834743432320728e-14

>  <r_epik_Ionization_Penalty_Charging>  (1) 
0

>  <r_epik_Ionization_Penalty_Neutral>  (1) 
4.6834743432320728e-14

>  <r_epik_State_Penalty>  (1) 
-0

>  <r_glide_ring_energy>  (1) 
0.00034554738616163878

>  <r_i_docking_score>  (1) 
-4.283626780354056

>  <r_i_glide_ecoul>  (1) 
-2.8388184141877177

>  <r_i_glide_eff_state_penalty>  (1) 
-0

>  <r_i_glide_einternal>  (1) 
0

>  <r_i_glide_emodel>  (1) 
-20.376228500369059

>  <r_i_glide_emodel_strain>  (1) 
0

>  <r_i_glide_energy>  (1) 
-15.584591458774174

>  <r_i_glide_erotb>  (1) 
0

>  <r_i_glide_esite>  (1) 
-0.13280575488855786

>  <r_i_glide_evdw>  (1) 
-12.745773044586455

>  <r_i_glide_gscore>  (1) 
-4.283626780354056

>  <r_i_glide_gscore_strain>  (1) 
0

>  <r_i_glide_hbond>  (1) 
-0.13917811380502851

>  <r_i_glide_ligand_efficiency>  (1) 
-0.61194668290772225

>  <r_i_glide_ligand_efficiency_ln>  (1) 
-1.4540928146527883

>  <r_i_glide_ligand_efficiency_sa>  (1) 
-1.1706118919283093

>  <r_i_glide_lipo>  (1) 
-0.28838397859973269

>  <r_i_glide_metal>  (1) 
-0

>  <r_i_glide_rewards>  (1) 
-2.6601475187032566

>  <r_lp_Energy>  (1) 
1.238378

>  <r_lp_tautomer_probability>  (1) 
1

>  <s_epik_Chemistry_Notes>  (1) 
This compound contains an acetal/aminal-like group ( X-CH(R)-Y where X, Y are N, S, or O) that may be acid/base labile, releasing an aldehyde.

>  <s_epik_cmdline>  (1) 
J2VwaWtfcHl0aG9uJywgJy1waHQnLCAnMS4wJywgJy1waCcsICc3LjQnLCAnLXRuJywgJzgnLCAnLW1hJywgJzUwMCcsICctaW1hZScsICc8aW5maWxlLm1hZT4nLCAnLW9tYWUnLCAnPG91dGZpbGUubWFlPic=

>  <s_epik_input>  (1) 
W0NIMl0xW0NIMl1PW0NIMl1PW0NIMl1PMQ==

>  <s_glide_docking_method>  (1) 
confgen

>  <s_i_glide_gridfile>  (1) 
gpcr_5ht2c_6bqh_protein_autoprepared_prepared

>  <s_lp_Force_Field>  (1) 
S-OPLS

>  <s_lp_Variant>  (1) 
Pocket2Mol_39-1

>  <s_m_source_file>  (1) 
generated_GPCR_5HT2C_ligand_Pocket2Mol_2026-06-23_prepared.sdf

>  <GenAI_Model>  (1) 
Pocket2Mol

>  <Protein>  (1) 
GPCR_5HT2C

$$$$
Pocket2Mol_55
     RDKit          3D

  0  0  0  0  0  0  0  0  0  0999 V3000
M  V30 BEGIN CTAB
M  V30 COUNTS 11 11 0 0 1
M  V30 BEGIN ATOM
M  V30 1 C 40.148441 30.089358 50.973907 0
M  V30 2 O 40.038086 30.274126 52.370141 0
M  V30 3 C 39.646004 28.665524 50.779295 0
M  V30 4 O 38.638233 28.594622 51.760960 0
M  V30 5 C 39.131960 29.325955 52.830630 0
M  V30 6 H 39.501044 30.809696 50.472268 0
M  V30 7 H 41.169450 30.233564 50.617629 0
M  V30 8 H 39.263981 28.485073 49.774522 0
M  V30 9 H 40.438476 27.945074 50.990136 0
M  V30 10 H 39.645095 28.653512 53.518650 0
M  V30 11 H 38.311134 29.810129 53.363770 0
M  V30 END ATOM
M  V30 BEGIN BOND
M  V30 1 1 2 1
M  V30 2 1 3 1
M  V30 3 1 4 3
M  V30 4 1 5 2
M  V30 5 1 5 4
M  V30 6 1 6 1
M  V30 7 1 7 1
M  V30 8 1 8 3
M  V30 9 1 9 3
M  V30 10 1 10 5
M  V30 11 1 11 5
M  V30 END BOND
M  V30 END CTAB
M  END
>  <i_epik_Tot_Q>  (1) 
0

>  <i_epik_Tot_abs_Q>  (1) 
0

>  <i_i_glide_confnum>  (1) 
3

>  <i_i_glide_lignum>  (1) 
59

>  <i_i_glide_posenum>  (1) 
216

>  <i_i_glide_rotatable_bonds>  (1) 
0

>  <i_lp_mmshare_version>  (1) 
72125

>  <i_m_source_file_index>  (1) 
56

>  <i_f3d_flags>  (1) 
0

>  <num_sample>  (1) 
100

>  <b_lp_Chiralities_Consistent>  (1) 
1

>  <r_epik_Charging_Adjusted_Penalty>  (1) 
0

>  <r_epik_Ionization_Penalty>  (1) 
7.9724310449397378e-14

>  <r_epik_Ionization_Penalty_Charging>  (1) 
0

>  <r_epik_Ionization_Penalty_Neutral>  (1) 
7.9724310449397378e-14

>  <r_epik_State_Penalty>  (1) 
-0

>  <r_glide_ring_energy>  (1) 
0.2805525668492585

>  <r_i_docking_score>  (1) 
-4.2774963401436308

>  <r_i_glide_ecoul>  (1) 
0.15989415561969925

>  <r_i_glide_eff_state_penalty>  (1) 
-0

>  <r_i_glide_einternal>  (1) 
0

>  <r_i_glide_emodel>  (1) 
-15.744578393831091

>  <r_i_glide_emodel_strain>  (1) 
3.2120768267418498e-09

>  <r_i_glide_energy>  (1) 
-12.378481571412191

>  <r_i_glide_erotb>  (1) 
0

>  <r_i_glide_esite>  (1) 
0

>  <r_i_glide_evdw>  (1) 
-12.538375727031891

>  <r_i_glide_gscore>  (1) 
-4.2774963401436308

>  <r_i_glide_gscore_strain>  (1) 
0

>  <r_i_glide_hbond>  (1) 
0

>  <r_i_glide_ligand_efficiency>  (1) 
-0.85549926802872611

>  <r_i_glide_ligand_efficiency_ln>  (1) 
-1.6392405122042373

>  <r_i_glide_ligand_efficiency_sa>  (1) 
-1.4628831707286423

>  <r_i_glide_lipo>  (1) 
-0.66000000000000003

>  <r_i_glide_metal>  (1) 
-0

>  <r_i_glide_rewards>  (1) 
-3.0145616771349917

>  <r_lp_Energy>  (1) 
-12.242987999999999

>  <r_lp_tautomer_probability>  (1) 
1

>  <s_epik_Chemistry_Notes>  (1) 
This compound contains an acetal/aminal-like group ( X-CH(R)-Y where X, Y are N, S, or O) that may be acid/base labile, releasing an aldehyde.

>  <s_epik_cmdline>  (1) 
J2VwaWtfcHl0aG9uJywgJy1waHQnLCAnMS4wJywgJy1waCcsICc3LjQnLCAnLXRuJywgJzgnLCAnLW1hJywgJzUwMCcsICctaW1hZScsICc8aW5maWxlLm1hZT4nLCAnLW9tYWUnLCAnPG91dGZpbGUubWFlPic=

>  <s_epik_input>  (1) 
W0NIMl0xT1tDSDJdT1tDSDJdMQ==

>  <s_glide_docking_method>  (1) 
confgen

>  <s_i_glide_gridfile>  (1) 
gpcr_5ht2c_6bqh_protein_autoprepared_prepared

>  <s_lp_Force_Field>  (1) 
S-OPLS

>  <s_lp_Variant>  (1) 
Pocket2Mol_55-1

>  <s_m_source_file>  (1) 
generated_GPCR_5HT2C_ligand_Pocket2Mol_2026-06-23_prepared.sdf

>  <GenAI_Model>  (1) 
Pocket2Mol

>  <Protein>  (1) 
GPCR_5HT2C

$$$$
Pocket2Mol_76
     RDKit          3D

  0  0  0  0  0  0  0  0  0  0999 V3000
M  V30 BEGIN CTAB
M  V30 COUNTS 12 12 0 0 1
M  V30 BEGIN ATOM
M  V30 1 C 36.338436 34.238123 59.270900 0
M  V30 2 C 37.589481 33.742278 59.769893 0
M  V30 3 C 37.385108 32.728947 60.628268 0
M  V30 4 C 35.915102 32.549674 60.693957 0
M  V30 5 C 35.329224 33.547864 59.801427 0
M  V30 6 C 38.469272 31.910762 61.398740 0
M  V30 7 O 35.301630 31.724608 61.367757 0
M  V30 8 O 38.045235 31.020660 62.167739 0 CHG=-1
M  V30 9 O 39.658602 32.230225 61.171469 0
M  V30 10 H 36.230582 35.049383 58.567822 0
M  V30 11 H 38.560118 34.128894 59.494704 0
M  V30 12 H 34.271464 33.674252 59.628126 0
M  V30 END ATOM
M  V30 BEGIN BOND
M  V30 1 1 2 1
M  V30 2 2 3 2
M  V30 3 1 4 3
M  V30 4 2 5 1
M  V30 5 1 5 4
M  V30 6 1 6 3
M  V30 7 2 7 4
M  V30 8 1 8 6
M  V30 9 2 9 6
M  V30 10 1 10 1
M  V30 11 1 11 2
M  V30 12 1 12 5
M  V30 END BOND
M  V30 END CTAB
M  END
>  <i_epik_Tot_Q>  (1) 
-1

>  <i_epik_Tot_abs_Q>  (1) 
1

>  <i_i_glide_confnum>  (1) 
1

>  <i_i_glide_lignum>  (1) 
81

>  <i_i_glide_posenum>  (1) 
317

>  <i_i_glide_rotatable_bonds>  (1) 
1

>  <i_lp_mmshare_version>  (1) 
72125

>  <i_m_source_file_index>  (1) 
77

>  <i_f3d_flags>  (1) 
0

>  <num_sample>  (1) 
100

>  <b_lp_Chiralities_Consistent>  (1) 
1

>  <r_epik_Charging_Adjusted_Penalty>  (1) 
1.3987331750313068e-05

>  <r_epik_Ionization_Penalty>  (1) 
1.3987331750313068e-05

>  <r_epik_Ionization_Penalty_Charging>  (1) 
1.3987331750313068e-05

>  <r_epik_Ionization_Penalty_Neutral>  (1) 
0

>  <r_epik_State_Penalty>  (1) 
-0

>  <r_glide_ring_energy>  (1) 
0

>  <r_i_docking_score>  (1) 
-4.2722642305272833

>  <r_i_glide_ecoul>  (1) 
-3.972389632099536

>  <r_i_glide_eff_state_penalty>  (1) 
-0

>  <r_i_glide_einternal>  (1) 
0.0093158398824436384

>  <r_i_glide_emodel>  (1) 
-23.552313988489431

>  <r_i_glide_emodel_strain>  (1) 
0

>  <r_i_glide_energy>  (1) 
-18.357161033191893

>  <r_i_glide_erotb>  (1) 
0

>  <r_i_glide_esite>  (1) 
-0.013786748970223467

>  <r_i_glide_evdw>  (1) 
-14.384771401092356

>  <r_i_glide_gscore>  (1) 
-4.2722642305272833

>  <r_i_glide_gscore_strain>  (1) 
0

>  <r_i_glide_hbond>  (1) 
-0.32245385291750928

>  <r_i_glide_ligand_efficiency>  (1) 
-0.47469602561414259

>  <r_i_glide_ligand_efficiency_ln>  (1) 
-1.3362415204773439

>  <r_i_glide_ligand_efficiency_sa>  (1) 
-0.98740752374701046

>  <r_i_glide_lipo>  (1) 
-0.040811352366344346

>  <r_i_glide_metal>  (1) 
-0

>  <r_i_glide_rewards>  (1) 
-2.580115261403658

>  <r_lp_Energy>  (1) 
9.1486529999999995

>  <r_lp_tautomer_probability>  (1) 
1

>  <s_epik_cmdline>  (1) 
J2VwaWtfcHl0aG9uJywgJy1waHQnLCAnMS4wJywgJy1waCcsICc3LjQnLCAnLXRuJywgJzgnLCAnLW1hJywgJzUwMCcsICctaW1hZScsICc8aW5maWxlLm1hZT4nLCAnLW9tYWUnLCAnPG91dGZpbGUubWFlPic=

>  <s_epik_input>  (1) 
Tz1DMVtDSF09W0NIXVtDSF09QzFDKD1PKVtPSF0=

>  <s_glide_docking_method>  (1) 
confgen

>  <s_i_glide_gridfile>  (1) 
gpcr_5ht2c_6bqh_protein_autoprepared_prepared

>  <s_lp_Force_Field>  (1) 
S-OPLS

>  <s_lp_Variant>  (1) 
Pocket2Mol_76-1

>  <s_m_source_file>  (1) 
generated_GPCR_5HT2C_ligand_Pocket2Mol_2026-06-23_prepared.sdf

>  <GenAI_Model>  (1) 
Pocket2Mol

>  <Protein>  (1) 
GPCR_5HT2C

$$$$
Pocket2Mol_51
     RDKit          3D

  0  0  0  0  0  0  0  0  0  0999 V3000
M  V30 BEGIN CTAB
M  V30 COUNTS 18 18 0 0 1
M  V30 BEGIN ATOM
M  V30 1 C 39.245138 29.356223 60.162186 0
M  V30 2 C 40.320339 28.581119 59.683499 0
M  V30 3 C 40.486411 28.384952 58.297178 0
M  V30 4 C 41.644746 27.555008 57.783488 0
M  V30 5 C 38.333841 29.936449 59.254457 0
M  V30 6 C 37.178852 30.773034 59.767912 0
M  V30 7 C 38.498978 29.737915 57.868317 0
M  V30 8 C 39.573880 28.963128 57.390030 0
M  V30 9 H 39.119685 29.506125 61.224811 0
M  V30 10 H 41.018321 28.137759 60.379552 0
M  V30 11 H 41.645141 27.504515 56.694621 0
M  V30 12 H 42.593408 27.985510 58.105511 0
M  V30 13 H 41.581431 26.537755 58.167760 0
M  V30 14 H 36.748614 31.379675 58.969156 0
M  V30 15 H 36.391801 30.134954 60.167758 0
M  V30 16 H 37.513688 31.445362 60.557976 0
M  V30 17 H 37.801076 30.181517 57.171384 0
M  V30 18 H 39.698810 28.813952 56.327478 0
M  V30 END ATOM
M  V30 BEGIN BOND
M  V30 1 2 2 1
M  V30 2 1 3 2
M  V30 3 1 4 3
M  V30 4 1 5 1
M  V30 5 1 6 5
M  V30 6 2 7 5
M  V30 7 2 8 3
M  V30 8 1 8 7
M  V30 9 1 9 1
M  V30 10 1 10 2
M  V30 11 1 11 4
M  V30 12 1 12 4
M  V30 13 1 13 4
M  V30 14 1 14 6
M  V30 15 1 15 6
M  V30 16 1 16 6
M  V30 17 1 17 7
M  V30 18 1 18 8
M  V30 END BOND
M  V30 END CTAB
M  END
>  <i_epik_Tot_Q>  (1) 
0

>  <i_epik_Tot_abs_Q>  (1) 
0

>  <i_i_glide_confnum>  (1) 
1

>  <i_i_glide_lignum>  (1) 
54

>  <i_i_glide_posenum>  (1) 
157

>  <i_i_glide_rotatable_bonds>  (1) 
0

>  <i_lp_mmshare_version>  (1) 
72125

>  <i_m_source_file_index>  (1) 
52

>  <i_f3d_flags>  (1) 
0

>  <num_sample>  (1) 
100

>  <b_lp_Chiralities_Consistent>  (1) 
1

>  <r_epik_Charging_Adjusted_Penalty>  (1) 
0

>  <r_epik_Ionization_Penalty>  (1) 
0

>  <r_epik_Ionization_Penalty_Charging>  (1) 
0

>  <r_epik_Ionization_Penalty_Neutral>  (1) 
0

>  <r_epik_State_Penalty>  (1) 
-0

>  <r_glide_ring_energy>  (1) 
0

>  <r_i_docking_score>  (1) 
-4.2580849389471807

>  <r_i_glide_ecoul>  (1) 
-1.0465038029169333

>  <r_i_glide_eff_state_penalty>  (1) 
-0

>  <r_i_glide_einternal>  (1) 
0

>  <r_i_glide_emodel>  (1) 
-19.309110802684504

>  <r_i_glide_emodel_strain>  (1) 
0.013083406186239266

>  <r_i_glide_energy>  (1) 
-14.297117630767989

>  <r_i_glide_erotb>  (1) 
0

>  <r_i_glide_esite>  (1) 
0

>  <r_i_glide_evdw>  (1) 
-13.250613827851057

>  <r_i_glide_gscore>  (1) 
-4.2580849389471807

>  <r_i_glide_gscore_strain>  (1) 
0

>  <r_i_glide_hbond>  (1) 
0

>  <r_i_glide_ligand_efficiency>  (1) 
-0.53226061736839758

>  <r_i_glide_ligand_efficiency_ln>  (1) 
-1.3827458262527674

>  <r_i_glide_ligand_efficiency_sa>  (1) 
-1.0645212347367954

>  <r_i_glide_lipo>  (1) 
-1.0567328460706278

>  <r_i_glide_metal>  (1) 
-0

>  <r_i_glide_rewards>  (1) 
-2.3818458310464603

>  <r_lp_Energy>  (1) 
3.9239269999999999

>  <r_lp_tautomer_probability>  (1) 
1

>  <s_epik_cmdline>  (1) 
J2VwaWtfcHl0aG9uJywgJy1waHQnLCAnMS4wJywgJy1waCcsICc3LjQnLCAnLXRuJywgJzgnLCAnLW1hJywgJzUwMCcsICctaW1hZScsICc8aW5maWxlLm1hZT4nLCAnLW9tYWUnLCAnPG91dGZpbGUubWFlPic=

>  <s_epik_input>  (1) 
W2NIXTFbY0hdYyhbQ0gzXSlbY0hdW2NIXWMxW0NIM10=

>  <s_glide_docking_method>  (1) 
confgen

>  <s_i_glide_gridfile>  (1) 
gpcr_5ht2c_6bqh_protein_autoprepared_prepared

>  <s_lp_Force_Field>  (1) 
S-OPLS

>  <s_lp_Variant>  (1) 
Pocket2Mol_51-1

>  <s_m_source_file>  (1) 
generated_GPCR_5HT2C_ligand_Pocket2Mol_2026-06-23_prepared.sdf

>  <GenAI_Model>  (1) 
Pocket2Mol

>  <Protein>  (1) 
GPCR_5HT2C

$$$$
Pocket2Mol_55
     RDKit          3D

  0  0  0  0  0  0  0  0  0  0999 V3000
M  V30 BEGIN CTAB
M  V30 COUNTS 11 11 0 0 1
M  V30 BEGIN ATOM
M  V30 1 C 36.392615 31.339870 60.167888 0
M  V30 2 O 35.645105 31.737732 61.297088 0
M  V30 3 C 37.038387 32.651699 59.706088 0
M  V30 4 O 36.325373 33.661333 60.396896 0
M  V30 5 C 35.245137 33.018804 60.967950 0
M  V30 6 H 37.122774 30.569409 60.415701 0
M  V30 7 H 35.718814 30.947921 59.403217 0
M  V30 8 H 38.091316 32.701263 59.985200 0
M  V30 9 H 36.959080 32.781203 58.625694 0
M  V30 10 H 34.428859 32.976832 60.242386 0
M  V30 11 H 34.902195 33.558923 61.850792 0
M  V30 END ATOM
M  V30 BEGIN BOND
M  V30 1 1 2 1
M  V30 2 1 3 1
M  V30 3 1 4 3
M  V30 4 1 5 2
M  V30 5 1 5 4
M  V30 6 1 6 1
M  V30 7 1 7 1
M  V30 8 1 8 3
M  V30 9 1 9 3
M  V30 10 1 10 5
M  V30 11 1 11 5
M  V30 END BOND
M  V30 END CTAB
M  END
>  <i_epik_Tot_Q>  (1) 
0

>  <i_epik_Tot_abs_Q>  (1) 
0

>  <i_i_glide_confnum>  (1) 
1

>  <i_i_glide_lignum>  (1) 
59

>  <i_i_glide_posenum>  (1) 
204

>  <i_i_glide_rotatable_bonds>  (1) 
0

>  <i_lp_mmshare_version>  (1) 
72125

>  <i_m_source_file_index>  (1) 
56

>  <i_f3d_flags>  (1) 
0

>  <num_sample>  (1) 
100

>  <b_lp_Chiralities_Consistent>  (1) 
1

>  <r_epik_Charging_Adjusted_Penalty>  (1) 
0

>  <r_epik_Ionization_Penalty>  (1) 
7.9724310449397378e-14

>  <r_epik_Ionization_Penalty_Charging>  (1) 
0

>  <r_epik_Ionization_Penalty_Neutral>  (1) 
7.9724310449397378e-14

>  <r_epik_State_Penalty>  (1) 
-0

>  <r_glide_ring_energy>  (1) 
0

>  <r_i_docking_score>  (1) 
-4.2577817026179918

>  <r_i_glide_ecoul>  (1) 
-2.3735840610987466

>  <r_i_glide_eff_state_penalty>  (1) 
-0

>  <r_i_glide_einternal>  (1) 
0

>  <r_i_glide_emodel>  (1) 
-15.640243453988594

>  <r_i_glide_emodel_strain>  (1) 
0.078088258409296785

>  <r_i_glide_energy>  (1) 
-12.367748957035248

>  <r_i_glide_erotb>  (1) 
0

>  <r_i_glide_esite>  (1) 
0

>  <r_i_glide_evdw>  (1) 
-9.9941648959365015

>  <r_i_glide_gscore>  (1) 
-4.2577817026179918

>  <r_i_glide_gscore_strain>  (1) 
0

>  <r_i_glide_hbond>  (1) 
-0.31232255188176278

>  <r_i_glide_ligand_efficiency>  (1) 
-0.85155634052359841

>  <r_i_glide_ligand_efficiency_ln>  (1) 
-1.6316853841700742

>  <r_i_glide_ligand_efficiency_sa>  (1) 
-1.456140859535384

>  <r_i_glide_lipo>  (1) 
0

>  <r_i_glide_metal>  (1) 
-0

>  <r_i_glide_rewards>  (1) 
-3.0897132967745926

>  <r_lp_Energy>  (1) 
-12.242987999999999

>  <r_lp_tautomer_probability>  (1) 
1

>  <s_epik_Chemistry_Notes>  (1) 
This compound contains an acetal/aminal-like group ( X-CH(R)-Y where X, Y are N, S, or O) that may be acid/base labile, releasing an aldehyde.

>  <s_epik_cmdline>  (1) 
J2VwaWtfcHl0aG9uJywgJy1waHQnLCAnMS4wJywgJy1waCcsICc3LjQnLCAnLXRuJywgJzgnLCAnLW1hJywgJzUwMCcsICctaW1hZScsICc8aW5maWxlLm1hZT4nLCAnLW9tYWUnLCAnPG91dGZpbGUubWFlPic=

>  <s_epik_input>  (1) 
W0NIMl0xT1tDSDJdT1tDSDJdMQ==

>  <s_glide_docking_method>  (1) 
confgen

>  <s_i_glide_gridfile>  (1) 
gpcr_5ht2c_6bqh_protein_autoprepared_prepared

>  <s_lp_Force_Field>  (1) 
S-OPLS

>  <s_lp_Variant>  (1) 
Pocket2Mol_55-1

>  <s_m_source_file>  (1) 
generated_GPCR_5HT2C_ligand_Pocket2Mol_2026-06-23_prepared.sdf

>  <GenAI_Model>  (1) 
Pocket2Mol

>  <Protein>  (1) 
GPCR_5HT2C

$$$$
Pocket2Mol_5
     RDKit          3D

  0  0  0  0  0  0  0  0  0  0999 V3000
M  V30 BEGIN CTAB
M  V30 COUNTS 12 12 0 0 1
M  V30 BEGIN ATOM
M  V30 1 C 40.045137 29.228100 50.442016 0
M  V30 2 C 40.422578 30.335791 50.967673 0
M  V30 3 C 39.244348 28.332608 51.367759 0
M  V30 4 C 39.222172 29.337762 52.686587 0
M  V30 5 N 40.045005 30.470152 52.219856 0
M  V30 6 H 40.981756 31.140748 50.511821 0
M  V30 7 H 38.247665 28.137610 50.971226 0
M  V30 8 H 39.761982 27.393132 51.559516 0
M  V30 9 H 38.212434 29.671939 52.925559 0
M  V30 10 H 39.645137 28.868002 53.573241 0
M  V30 11 H 40.251583 28.937849 49.422531 0
M  V30 12 H 40.043776 31.358370 52.705114 0
M  V30 END ATOM
M  V30 BEGIN BOND
M  V30 1 2 2 1
M  V30 2 1 3 1
M  V30 3 1 4 3
M  V30 4 1 5 2
M  V30 5 1 5 4
M  V30 6 1 6 2
M  V30 7 1 7 3
M  V30 8 1 8 3
M  V30 9 1 9 4
M  V30 10 1 10 4
M  V30 11 1 11 1
M  V30 12 1 12 5
M  V30 END BOND
M  V30 END CTAB
M  END
>  <i_epik_Tot_Q>  (1) 
0

>  <i_epik_Tot_abs_Q>  (1) 
0

>  <i_i_glide_confnum>  (1) 
1

>  <i_i_glide_lignum>  (1) 
8

>  <i_i_glide_posenum>  (1) 
37

>  <i_i_glide_rotatable_bonds>  (1) 
0

>  <i_lp_mmshare_version>  (1) 
72125

>  <i_m_source_file_index>  (1) 
6

>  <i_f3d_flags>  (1) 
0

>  <num_sample>  (1) 
100

>  <b_lp_Chiralities_Consistent>  (1) 
1

>  <r_epik_Charging_Adjusted_Penalty>  (1) 
1.6042444336516156e-06

>  <r_epik_Ionization_Penalty>  (1) 
0.0023556498582944039

>  <r_epik_Ionization_Penalty_Charging>  (1) 
1.6042444336516156e-06

>  <r_epik_Ionization_Penalty_Neutral>  (1) 
0.0023540456138607521

>  <r_epik_State_Penalty>  (1) 
-0

>  <r_glide_ring_energy>  (1) 
0

>  <r_i_docking_score>  (1) 
-4.255301635297025

>  <r_i_glide_ecoul>  (1) 
-0.54968794658393649

>  <r_i_glide_eff_state_penalty>  (1) 
-0

>  <r_i_glide_einternal>  (1) 
0

>  <r_i_glide_emodel>  (1) 
-17.706429314992107

>  <r_i_glide_emodel_strain>  (1) 
0

>  <r_i_glide_energy>  (1) 
-13.959187963619524

>  <r_i_glide_erotb>  (1) 
0

>  <r_i_glide_esite>  (1) 
0

>  <r_i_glide_evdw>  (1) 
-13.409500017035587

>  <r_i_glide_gscore>  (1) 
-4.255301635297025

>  <r_i_glide_gscore_strain>  (1) 
0

>  <r_i_glide_hbond>  (1) 
0

>  <r_i_glide_ligand_efficiency>  (1) 
-0.85106032705940504

>  <r_i_glide_ligand_efficiency_ln>  (1) 
-1.6307349621235678

>  <r_i_glide_ligand_efficiency_sa>  (1) 
-1.4552926884423854

>  <r_i_glide_lipo>  (1) 
-1.2523734424576554

>  <r_i_glide_metal>  (1) 
-0

>  <r_i_glide_rewards>  (1) 
-2.25

>  <r_lp_Energy>  (1) 
2.9163319999999997

>  <r_lp_tautomer_probability>  (1) 
1

>  <s_epik_Chemistry_Notes>  (1) 
This compound has an imine and may undergo hydrolysis.

>  <s_epik_cmdline>  (1) 
J2VwaWtfcHl0aG9uJywgJy1waHQnLCAnMS4wJywgJy1waCcsICc3LjQnLCAnLXRuJywgJzgnLCAnLW1hJywgJzUwMCcsICctaW1hZScsICc8aW5maWxlLm1hZT4nLCAnLW9tYWUnLCAnPG91dGZpbGUubWFlPic=

>  <s_epik_input>  (1) 
W0NIMl0xW0NIXT1OW0NIMl1bQ0gyXTE=

>  <s_glide_docking_method>  (1) 
confgen

>  <s_i_glide_gridfile>  (1) 
gpcr_5ht2c_6bqh_protein_autoprepared_prepared

>  <s_lp_Force_Field>  (1) 
S-OPLS

>  <s_lp_Variant>  (1) 
Pocket2Mol_5-1

>  <s_m_source_file>  (1) 
generated_GPCR_5HT2C_ligand_Pocket2Mol_2026-06-23_prepared.sdf

>  <GenAI_Model>  (1) 
Pocket2Mol

>  <Protein>  (1) 
GPCR_5HT2C

$$$$
Pocket2Mol_55
     RDKit          3D

  0  0  0  0  0  0  0  0  0  0999 V3000
M  V30 BEGIN CTAB
M  V30 COUNTS 11 11 0 0 1
M  V30 BEGIN ATOM
M  V30 1 C 35.425414 33.123767 60.967776 0
M  V30 2 O 35.644876 31.739794 61.187301 0
M  V30 3 C 36.377751 33.493003 59.826548 0
M  V30 4 O 37.285897 32.414844 59.832832 0
M  V30 5 C 36.489496 31.337755 60.167289 0
M  V30 6 H 34.386351 33.330543 60.709404 0
M  V30 7 H 35.668029 33.674311 61.877166 0
M  V30 8 H 35.850096 33.523773 58.871622 0
M  V30 9 H 36.876983 34.450214 59.977670 0
M  V30 10 H 37.101004 30.492868 60.483346 0
M  V30 11 H 35.896757 31.039882 59.297776 0
M  V30 END ATOM
M  V30 BEGIN BOND
M  V30 1 1 2 1
M  V30 2 1 3 1
M  V30 3 1 4 3
M  V30 4 1 5 2
M  V30 5 1 5 4
M  V30 6 1 6 1
M  V30 7 1 7 1
M  V30 8 1 8 3
M  V30 9 1 9 3
M  V30 10 1 10 5
M  V30 11 1 11 5
M  V30 END BOND
M  V30 END CTAB
M  END
>  <i_epik_Tot_Q>  (1) 
0

>  <i_epik_Tot_abs_Q>  (1) 
0

>  <i_i_glide_confnum>  (1) 
2

>  <i_i_glide_lignum>  (1) 
59

>  <i_i_glide_posenum>  (1) 
115

>  <i_i_glide_rotatable_bonds>  (1) 
0

>  <i_lp_mmshare_version>  (1) 
72125

>  <i_m_source_file_index>  (1) 
56

>  <i_f3d_flags>  (1) 
0

>  <num_sample>  (1) 
100

>  <b_lp_Chiralities_Consistent>  (1) 
1

>  <r_epik_Charging_Adjusted_Penalty>  (1) 
0

>  <r_epik_Ionization_Penalty>  (1) 
7.9724310449397378e-14

>  <r_epik_Ionization_Penalty_Charging>  (1) 
0

>  <r_epik_Ionization_Penalty_Neutral>  (1) 
7.9724310449397378e-14

>  <r_epik_State_Penalty>  (1) 
-0

>  <r_glide_ring_energy>  (1) 
1.1396681620093737e-05

>  <r_i_docking_score>  (1) 
-4.2521114459527372

>  <r_i_glide_ecoul>  (1) 
-2.1234789570077646

>  <r_i_glide_eff_state_penalty>  (1) 
-0

>  <r_i_glide_einternal>  (1) 
0

>  <r_i_glide_emodel>  (1) 
-15.410386460467315

>  <r_i_glide_emodel_strain>  (1) 
0.046401846391384005

>  <r_i_glide_energy>  (1) 
-12.110667655363288

>  <r_i_glide_erotb>  (1) 
0

>  <r_i_glide_esite>  (1) 
-0.069770491333490045

>  <r_i_glide_evdw>  (1) 
-9.9871886983555243

>  <r_i_glide_gscore>  (1) 
-4.2521114459527372

>  <r_i_glide_gscore_strain>  (1) 
0

>  <r_i_glide_hbond>  (1) 
-0.24112844521369972

>  <r_i_glide_ligand_efficiency>  (1) 
-0.85042228919054741

>  <r_i_glide_ligand_efficiency_ln>  (1) 
-1.6295124040664912

>  <r_i_glide_ligand_efficiency_sa>  (1) 
-1.4542016590335702

>  <r_i_glide_lipo>  (1) 
-0.1871384908846194

>  <r_i_glide_metal>  (1) 
-0

>  <r_i_glide_rewards>  (1) 
-2.9361927400519874

>  <r_lp_Energy>  (1) 
-12.242987999999999

>  <r_lp_tautomer_probability>  (1) 
1

>  <s_epik_Chemistry_Notes>  (1) 
This compound contains an acetal/aminal-like group ( X-CH(R)-Y where X, Y are N, S, or O) that may be acid/base labile, releasing an aldehyde.

>  <s_epik_cmdline>  (1) 
J2VwaWtfcHl0aG9uJywgJy1waHQnLCAnMS4wJywgJy1waCcsICc3LjQnLCAnLXRuJywgJzgnLCAnLW1hJywgJzUwMCcsICctaW1hZScsICc8aW5maWxlLm1hZT4nLCAnLW9tYWUnLCAnPG91dGZpbGUubWFlPic=

>  <s_epik_input>  (1) 
W0NIMl0xT1tDSDJdT1tDSDJdMQ==

>  <s_glide_docking_method>  (1) 
confgen

>  <s_i_glide_gridfile>  (1) 
gpcr_5ht2c_6bqh_protein_autoprepared_prepared

>  <s_lp_Force_Field>  (1) 
S-OPLS

>  <s_lp_Variant>  (1) 
Pocket2Mol_55-1

>  <s_m_source_file>  (1) 
generated_GPCR_5HT2C_ligand_Pocket2Mol_2026-06-23_prepared.sdf

>  <GenAI_Model>  (1) 
Pocket2Mol

>  <Protein>  (1) 
GPCR_5HT2C

$$$$
Pocket2Mol_44
     RDKit          3D

  0  0  0  0  0  0  0  0  0  0999 V3000
M  V30 BEGIN CTAB
M  V30 COUNTS 10 9 0 0 1
M  V30 BEGIN ATOM
M  V30 1 C 38.505710 28.241529 52.704693 0
M  V30 2 O 39.584322 27.768667 51.971060 0
M  V30 3 C 39.243190 27.342784 50.662706 0
M  V30 4 O 37.645136 27.211435 53.125245 0
M  V30 5 H 37.923840 28.968205 52.137104 0
M  V30 6 H 38.889073 28.726047 53.602885 0
M  V30 7 H 40.135131 26.966835 50.167775 0
M  V30 8 H 38.505588 26.539333 50.668698 0
M  V30 9 H 38.852197 28.172413 50.072802 0
M  V30 10 H 37.215275 26.849050 52.359800 0
M  V30 END ATOM
M  V30 BEGIN BOND
M  V30 1 1 2 1
M  V30 2 1 3 2
M  V30 3 1 4 1
M  V30 4 1 5 1
M  V30 5 1 6 1
M  V30 6 1 7 3
M  V30 7 1 8 3
M  V30 8 1 9 3
M  V30 9 1 10 4
M  V30 END BOND
M  V30 END CTAB
M  END
>  <i_epik_Tot_Q>  (1) 
0

>  <i_epik_Tot_abs_Q>  (1) 
0

>  <i_i_glide_confnum>  (1) 
1

>  <i_i_glide_lignum>  (1) 
47

>  <i_i_glide_posenum>  (1) 
298

>  <i_i_glide_rotatable_bonds>  (1) 
2

>  <i_lp_mmshare_version>  (1) 
72125

>  <i_m_source_file_index>  (1) 
45

>  <i_f3d_flags>  (1) 
0

>  <num_sample>  (1) 
100

>  <b_lp_Chiralities_Consistent>  (1) 
1

>  <r_epik_Charging_Adjusted_Penalty>  (1) 
0

>  <r_epik_Ionization_Penalty>  (1) 
1.028953084229311e-06

>  <r_epik_Ionization_Penalty_Charging>  (1) 
0

>  <r_epik_Ionization_Penalty_Neutral>  (1) 
1.028953084229311e-06

>  <r_epik_State_Penalty>  (1) 
-0

>  <r_glide_ring_energy>  (1) 
0

>  <r_i_docking_score>  (1) 
-4.2491915018233843

>  <r_i_glide_ecoul>  (1) 
-2.9333794753441809

>  <r_i_glide_eff_state_penalty>  (1) 
-0

>  <r_i_glide_einternal>  (1) 
0.066500881452749017

>  <r_i_glide_emodel>  (1) 
-16.719403933841409

>  <r_i_glide_emodel_strain>  (1) 
0

>  <r_i_glide_energy>  (1) 
-12.117071085779312

>  <r_i_glide_erotb>  (1) 
0

>  <r_i_glide_esite>  (1) 
0

>  <r_i_glide_evdw>  (1) 
-9.1836916104351314

>  <r_i_glide_gscore>  (1) 
-4.2491915018233843

>  <r_i_glide_gscore_strain>  (1) 
0

>  <r_i_glide_hbond>  (1) 
-0.32000000000000001

>  <r_i_glide_ligand_efficiency>  (1) 
-1.0622978754558461

>  <r_i_glide_ligand_efficiency_ln>  (1) 
-1.7806652737633062

>  <r_i_glide_ligand_efficiency_sa>  (1) 
-1.6862927650021935

>  <r_i_glide_lipo>  (1) 
-0.33000000000000002

>  <r_i_glide_metal>  (1) 
-0

>  <r_i_glide_rewards>  (1) 
-2.7000000000000002

>  <r_lp_Energy>  (1) 
5.5414079999999997

>  <r_lp_tautomer_probability>  (1) 
1

>  <s_epik_Chemistry_Notes>  (1) 
This compound contains an acetal/aminal-like group ( X-CH(R)-Y where X, Y are N, S, or O) that may be acid/base labile, releasing an aldehyde.

>  <s_epik_cmdline>  (1) 
J2VwaWtfcHl0aG9uJywgJy1waHQnLCAnMS4wJywgJy1waCcsICc3LjQnLCAnLXRuJywgJzgnLCAnLW1hJywgJzUwMCcsICctaW1hZScsICc8aW5maWxlLm1hZT4nLCAnLW9tYWUnLCAnPG91dGZpbGUubWFlPic=

>  <s_epik_input>  (1) 
W09IXVtDSDJdT1tDSDNd

>  <s_glide_docking_method>  (1) 
confgen

>  <s_i_glide_gridfile>  (1) 
gpcr_5ht2c_6bqh_protein_autoprepared_prepared

>  <s_lp_Force_Field>  (1) 
S-OPLS

>  <s_lp_Variant>  (1) 
Pocket2Mol_44-1

>  <s_m_source_file>  (1) 
generated_GPCR_5HT2C_ligand_Pocket2Mol_2026-06-23_prepared.sdf

>  <GenAI_Model>  (1) 
Pocket2Mol

>  <Protein>  (1) 
GPCR_5HT2C

$$$$
Pocket2Mol_99
     RDKit          3D

  0  0  0  0  0  0  0  0  0  0999 V3000
M  V30 BEGIN CTAB
M  V30 COUNTS 13 13 0 0 1
M  V30 BEGIN ATOM
M  V30 1 C 38.845147 27.542657 51.184468 0
M  V30 2 O 39.643505 28.515299 50.524600 0
M  V30 3 C 39.953521 29.578449 51.418104 0
M  V30 4 C 39.100696 27.743622 52.667258 0
M  V30 5 C 39.245135 29.249443 52.735618 0
M  V30 6 H 37.795326 27.737802 50.967705 0
M  V30 7 H 39.089827 26.537803 50.845259 0
M  V30 8 H 41.034951 29.596370 51.548673 0
M  V30 9 H 39.645136 30.543002 51.010338 0
M  V30 10 H 38.296722 27.353463 53.292187 0
M  V30 11 H 40.027334 27.246444 52.955527 0
M  V30 12 H 39.792384 29.594614 53.612018 0
M  V30 13 H 38.260268 29.712278 52.765893 0
M  V30 END ATOM
M  V30 BEGIN BOND
M  V30 1 1 2 1
M  V30 2 1 3 2
M  V30 3 1 4 1
M  V30 4 1 5 3
M  V30 5 1 5 4
M  V30 6 1 6 1
M  V30 7 1 7 1
M  V30 8 1 8 3
M  V30 9 1 9 3
M  V30 10 1 10 4
M  V30 11 1 11 4
M  V30 12 1 12 5
M  V30 13 1 13 5
M  V30 END BOND
M  V30 END CTAB
M  END
>  <i_epik_Tot_Q>  (1) 
0

>  <i_epik_Tot_abs_Q>  (1) 
0

>  <i_i_glide_confnum>  (1) 
3

>  <i_i_glide_lignum>  (1) 
104

>  <i_i_glide_posenum>  (1) 
148

>  <i_i_glide_rotatable_bonds>  (1) 
0

>  <i_lp_mmshare_version>  (1) 
72125

>  <i_m_source_file_index>  (1) 
100

>  <i_f3d_flags>  (1) 
0

>  <num_sample>  (1) 
100

>  <b_lp_Chiralities_Consistent>  (1) 
1

>  <r_epik_Charging_Adjusted_Penalty>  (1) 
0

>  <r_epik_Ionization_Penalty>  (1) 
1.3889264151150229e-11

>  <r_epik_Ionization_Penalty_Charging>  (1) 
0

>  <r_epik_Ionization_Penalty_Neutral>  (1) 
1.3889264151150229e-11

>  <r_epik_State_Penalty>  (1) 
-0

>  <r_glide_ring_energy>  (1) 
0.22161987042107956

>  <r_i_docking_score>  (1) 
-4.2185968998969487

>  <r_i_glide_ecoul>  (1) 
0.088229412200790031

>  <r_i_glide_eff_state_penalty>  (1) 
-0

>  <r_i_glide_einternal>  (1) 
0

>  <r_i_glide_emodel>  (1) 
-15.473595666870272

>  <r_i_glide_emodel_strain>  (1) 
9.9698613809096059e-09

>  <r_i_glide_energy>  (1) 
-12.029935956298193

>  <r_i_glide_erotb>  (1) 
0

>  <r_i_glide_esite>  (1) 
0

>  <r_i_glide_evdw>  (1) 
-12.118165368498982

>  <r_i_glide_gscore>  (1) 
-4.2185968998969487

>  <r_i_glide_gscore_strain>  (1) 
0

>  <r_i_glide_hbond>  (1) 
0

>  <r_i_glide_ligand_efficiency>  (1) 
-0.84371937997938973

>  <r_i_glide_ligand_efficiency_ln>  (1) 
-1.6166688158377427

>  <r_i_glide_ligand_efficiency_sa>  (1) 
-1.4427398455097329

>  <r_i_glide_lipo>  (1) 
-1.1925897099687846

>  <r_i_glide_metal>  (1) 
-0

>  <r_i_glide_rewards>  (1) 
-2.4333333333333336

>  <r_lp_Energy>  (1) 
3.9174029999999997

>  <r_lp_tautomer_probability>  (1) 
1

>  <s_epik_cmdline>  (1) 
J2VwaWtfcHl0aG9uJywgJy1waHQnLCAnMS4wJywgJy1waCcsICc3LjQnLCAnLXRuJywgJzgnLCAnLW1hJywgJzUwMCcsICctaW1hZScsICc8aW5maWxlLm1hZT4nLCAnLW9tYWUnLCAnPG91dGZpbGUubWFlPic=

>  <s_epik_input>  (1) 
W0NIMl0xT1tDSDJdW0NIMl1bQ0gyXTE=

>  <s_glide_docking_method>  (1) 
confgen

>  <s_i_glide_gridfile>  (1) 
gpcr_5ht2c_6bqh_protein_autoprepared_prepared

>  <s_lp_Force_Field>  (1) 
S-OPLS

>  <s_lp_Variant>  (1) 
Pocket2Mol_99-1

>  <s_m_source_file>  (1) 
generated_GPCR_5HT2C_ligand_Pocket2Mol_2026-06-23_prepared.sdf

>  <GenAI_Model>  (1) 
Pocket2Mol

>  <Protein>  (1) 
GPCR_5HT2C

$$$$
Pocket2Mol_77
     RDKit          3D

  0  0  0  0  0  0  0  0  0  0999 V3000
M  V30 BEGIN CTAB
M  V30 COUNTS 15 15 0 0 1
M  V30 BEGIN ATOM
M  V30 1 C 38.519971 28.537683 52.708800 0
M  V30 2 C 38.845137 29.602462 53.761951 0
M  V30 3 C 38.845140 28.874389 55.115231 0
M  V30 4 C 37.689445 27.505856 53.464552 0
M  V30 5 C 38.345702 27.448491 54.842939 0
M  V30 6 H 37.996982 28.937708 51.840162 0
M  V30 7 H 39.442606 28.075731 52.354027 0
M  V30 8 H 39.792525 30.102965 53.558443 0
M  V30 9 H 38.067982 30.368317 53.767639 0
M  V30 10 H 39.840377 28.858939 55.561176 0
M  V30 11 H 38.184062 29.388191 55.814853 0
M  V30 12 H 36.659889 27.853349 53.554903 0
M  V30 13 H 37.668189 26.537327 52.967126 0
M  V30 14 H 39.194949 26.764442 54.811958 0
M  V30 15 H 37.662952 27.088891 55.613370 0
M  V30 END ATOM
M  V30 BEGIN BOND
M  V30 1 1 2 1
M  V30 2 1 3 2
M  V30 3 1 4 1
M  V30 4 1 5 3
M  V30 5 1 5 4
M  V30 6 1 6 1
M  V30 7 1 7 1
M  V30 8 1 8 2
M  V30 9 1 9 2
M  V30 10 1 10 3
M  V30 11 1 11 3
M  V30 12 1 12 4
M  V30 13 1 13 4
M  V30 14 1 14 5
M  V30 15 1 15 5
M  V30 END BOND
M  V30 END CTAB
M  END
>  <i_epik_Tot_Q>  (1) 
0

>  <i_epik_Tot_abs_Q>  (1) 
0

>  <i_i_glide_confnum>  (1) 
2

>  <i_i_glide_lignum>  (1) 
82

>  <i_i_glide_posenum>  (1) 
171

>  <i_i_glide_rotatable_bonds>  (1) 
0

>  <i_lp_mmshare_version>  (1) 
72125

>  <i_m_source_file_index>  (1) 
78

>  <i_f3d_flags>  (1) 
0

>  <num_sample>  (1) 
100

>  <b_lp_Chiralities_Consistent>  (1) 
1

>  <r_epik_Charging_Adjusted_Penalty>  (1) 
0

>  <r_epik_Ionization_Penalty>  (1) 
0

>  <r_epik_Ionization_Penalty_Charging>  (1) 
0

>  <r_epik_Ionization_Penalty_Neutral>  (1) 
0

>  <r_epik_State_Penalty>  (1) 
-0

>  <r_glide_ring_energy>  (1) 
0.00028446117277806444

>  <r_i_docking_score>  (1) 
-4.1987094116908112

>  <r_i_glide_ecoul>  (1) 
0.023403951618938698

>  <r_i_glide_eff_state_penalty>  (1) 
-0

>  <r_i_glide_einternal>  (1) 
0

>  <r_i_glide_emodel>  (1) 
-14.909284998088065

>  <r_i_glide_emodel_strain>  (1) 
0

>  <r_i_glide_energy>  (1) 
-11.557801392496295

>  <r_i_glide_erotb>  (1) 
0

>  <r_i_glide_esite>  (1) 
0

>  <r_i_glide_evdw>  (1) 
-11.581205344115233

>  <r_i_glide_gscore>  (1) 
-4.1987094116908112

>  <r_i_glide_gscore_strain>  (1) 
0

>  <r_i_glide_hbond>  (1) 
0

>  <r_i_glide_ligand_efficiency>  (1) 
-0.83974188233816227

>  <r_i_glide_ligand_efficiency_ln>  (1) 
-1.6090474472236926

>  <r_i_glide_ligand_efficiency_sa>  (1) 
-1.4359384202152705

>  <r_i_glide_lipo>  (1) 
-1.2438183055511851

>  <r_i_glide_metal>  (1) 
-0

>  <r_i_glide_rewards>  (1) 
-2.3793414316767052

>  <r_lp_Energy>  (1) 
13.274989999999999

>  <r_lp_tautomer_probability>  (1) 
1

>  <s_epik_cmdline>  (1) 
J2VwaWtfcHl0aG9uJywgJy1waHQnLCAnMS4wJywgJy1waCcsICc3LjQnLCAnLXRuJywgJzgnLCAnLW1hJywgJzUwMCcsICctaW1hZScsICc8aW5maWxlLm1hZT4nLCAnLW9tYWUnLCAnPG91dGZpbGUubWFlPic=

>  <s_epik_input>  (1) 
W0NIMl0xW0NIMl1bQ0gyXVtDSDJdW0NIMl0x

>  <s_glide_docking_method>  (1) 
confgen

>  <s_i_glide_gridfile>  (1) 
gpcr_5ht2c_6bqh_protein_autoprepared_prepared

>  <s_lp_Force_Field>  (1) 
S-OPLS

>  <s_lp_Variant>  (1) 
Pocket2Mol_77-1

>  <s_m_source_file>  (1) 
generated_GPCR_5HT2C_ligand_Pocket2Mol_2026-06-23_prepared.sdf

>  <GenAI_Model>  (1) 
Pocket2Mol

>  <Protein>  (1) 
GPCR_5HT2C

$$$$
Pocket2Mol_42
     RDKit          3D

  0  0  0  0  0  0  0  0  0  0999 V3000
M  V30 BEGIN CTAB
M  V30 COUNTS 10 9 0 0 1
M  V30 BEGIN ATOM
M  V30 1 C 40.241096 28.719431 61.197195 0
M  V30 2 O 39.245136 29.706297 61.384591 0
M  V30 3 C 39.604331 31.002051 61.461549 0
M  V30 4 C 38.366903 31.919975 61.687705 0
M  V30 5 O 40.758633 31.432417 61.367762 0
M  V30 6 O 37.257571 31.337774 61.767759 0
M  V30 7 O 38.611117 33.144833 61.767760 0 CHG=-1
M  V30 8 H 39.774316 27.737755 61.147981 0
M  V30 9 H 40.951494 28.718388 62.024823 0
M  V30 10 H 40.786071 28.885367 60.266998 0
M  V30 END ATOM
M  V30 BEGIN BOND
M  V30 1 1 2 1
M  V30 2 1 3 2
M  V30 3 1 4 3
M  V30 4 2 5 3
M  V30 5 2 6 4
M  V30 6 1 7 4
M  V30 7 1 8 1
M  V30 8 1 9 1
M  V30 9 1 10 1
M  V30 END BOND
M  V30 END CTAB
M  END
>  <i_epik_Tot_Q>  (1) 
-1

>  <i_epik_Tot_abs_Q>  (1) 
1

>  <i_i_glide_confnum>  (1) 
1

>  <i_i_glide_lignum>  (1) 
45

>  <i_i_glide_posenum>  (1) 
103

>  <i_i_glide_rotatable_bonds>  (1) 
2

>  <i_lp_mmshare_version>  (1) 
72125

>  <i_m_source_file_index>  (1) 
43

>  <i_f3d_flags>  (1) 
0

>  <num_sample>  (1) 
100

>  <b_lp_Chiralities_Consistent>  (1) 
1

>  <r_epik_Charging_Adjusted_Penalty>  (1) 
5.6581681309968728e-06

>  <r_epik_Ionization_Penalty>  (1) 
5.6581681309968728e-06

>  <r_epik_Ionization_Penalty_Charging>  (1) 
5.6581681309968728e-06

>  <r_epik_Ionization_Penalty_Neutral>  (1) 
0

>  <r_epik_State_Penalty>  (1) 
-0

>  <r_glide_ring_energy>  (1) 
0

>  <r_i_docking_score>  (1) 
-4.19682163738642

>  <r_i_glide_ecoul>  (1) 
-4.3378990350902704

>  <r_i_glide_eff_state_penalty>  (1) 
-0

>  <r_i_glide_einternal>  (1) 
0.0083577166776236389

>  <r_i_glide_emodel>  (1) 
-18.384895115698541

>  <r_i_glide_emodel_strain>  (1) 
0

>  <r_i_glide_energy>  (1) 
-14.018456391883712

>  <r_i_glide_erotb>  (1) 
0

>  <r_i_glide_esite>  (1) 
0

>  <r_i_glide_evdw>  (1) 
-9.6805573567934413

>  <r_i_glide_gscore>  (1) 
-4.19682163738642

>  <r_i_glide_gscore_strain>  (1) 
0

>  <r_i_glide_hbond>  (1) 
-0.18870662105772426

>  <r_i_glide_ligand_efficiency>  (1) 
-0.59954594819805995

>  <r_i_glide_ligand_efficiency_ln>  (1) 
-1.4246264906389781

>  <r_i_glide_ligand_efficiency_sa>  (1) 
-1.1468901398129085

>  <r_i_glide_lipo>  (1) 
-0.17404859924519842

>  <r_i_glide_metal>  (1) 
-0

>  <r_i_glide_rewards>  (1) 
-2.6993536939802847

>  <r_lp_Energy>  (1) 
21.029133999999999

>  <r_lp_tautomer_probability>  (1) 
1

>  <s_epik_Chemistry_Notes>  (1) 
This compound has an ester and may undergo hydrolysis at high or low pH.

>  <s_epik_cmdline>  (1) 
J2VwaWtfcHl0aG9uJywgJy1waHQnLCAnMS4wJywgJy1waCcsICc3LjQnLCAnLXRuJywgJzgnLCAnLW1hJywgJzUwMCcsICctaW1hZScsICc8aW5maWxlLm1hZT4nLCAnLW9tYWUnLCAnPG91dGZpbGUubWFlPic=

>  <s_epik_input>  (1) 
W0NIM11PQyg9TylDKD1PKVtPSF0=

>  <s_glide_docking_method>  (1) 
confgen

>  <s_i_glide_gridfile>  (1) 
gpcr_5ht2c_6bqh_protein_autoprepared_prepared

>  <s_lp_Force_Field>  (1) 
S-OPLS

>  <s_lp_Variant>  (1) 
Pocket2Mol_42-1

>  <s_m_source_file>  (1) 
generated_GPCR_5HT2C_ligand_Pocket2Mol_2026-06-23_prepared.sdf

>  <GenAI_Model>  (1) 
Pocket2Mol

>  <Protein>  (1) 
GPCR_5HT2C

$$$$
Pocket2Mol_45
     RDKit          3D

  0  0  0  0  0  0  0  0  0  0999 V3000
M  V30 BEGIN CTAB
M  V30 COUNTS 15 15 0 0 1
M  V30 BEGIN ATOM
M  V30 1 C 34.807923 33.224763 59.803060 0
M  V30 2 O 35.405161 32.481243 60.862348 0
M  V30 3 C 36.666049 31.987506 60.745727 0
M  V30 4 O 37.245137 31.337759 61.613263 0
M  V30 5 C 37.331874 32.315031 59.400753 0
M  V30 6 C 35.760059 34.350022 59.376456 0
M  V30 7 C 37.129870 33.781755 58.967007 0
M  V30 8 H 34.581021 32.560994 58.968324 0
M  V30 9 H 33.860236 33.639249 60.147047 0
M  V30 10 H 38.393349 32.071377 59.444679 0
M  V30 11 H 36.890549 31.654285 58.652686 0
M  V30 12 H 35.323936 34.935074 58.567766 0
M  V30 13 H 35.891261 35.035920 60.213309 0
M  V30 14 H 37.923823 34.406786 59.377027 0
M  V30 15 H 37.231590 33.835325 57.882085 0
M  V30 END ATOM
M  V30 BEGIN BOND
M  V30 1 1 2 1
M  V30 2 1 3 2
M  V30 3 2 4 3
M  V30 4 1 5 3
M  V30 5 1 6 1
M  V30 6 1 7 5
M  V30 7 1 7 6
M  V30 8 1 8 1
M  V30 9 1 9 1
M  V30 10 1 10 5
M  V30 11 1 11 5
M  V30 12 1 12 6
M  V30 13 1 13 6
M  V30 14 1 14 7
M  V30 15 1 15 7
M  V30 END BOND
M  V30 END CTAB
M  END
>  <i_epik_Tot_Q>  (1) 
0

>  <i_epik_Tot_abs_Q>  (1) 
0

>  <i_i_glide_confnum>  (1) 
3

>  <i_i_glide_lignum>  (1) 
48

>  <i_i_glide_posenum>  (1) 
121

>  <i_i_glide_rotatable_bonds>  (1) 
0

>  <i_lp_mmshare_version>  (1) 
72125

>  <i_m_source_file_index>  (1) 
46

>  <i_f3d_flags>  (1) 
0

>  <num_sample>  (1) 
100

>  <b_lp_Chiralities_Consistent>  (1) 
1

>  <r_epik_Charging_Adjusted_Penalty>  (1) 
0

>  <r_epik_Ionization_Penalty>  (1) 
4.2138389519661579e-10

>  <r_epik_Ionization_Penalty_Charging>  (1) 
0

>  <r_epik_Ionization_Penalty_Neutral>  (1) 
4.2138389519661579e-10

>  <r_epik_State_Penalty>  (1) 
-0

>  <r_glide_ring_energy>  (1) 
0.70452651660711352

>  <r_i_docking_score>  (1) 
-4.1889296428453067

>  <r_i_glide_ecoul>  (1) 
-3.4202445604774576

>  <r_i_glide_eff_state_penalty>  (1) 
-0

>  <r_i_glide_einternal>  (1) 
0

>  <r_i_glide_emodel>  (1) 
-21.904997399059049

>  <r_i_glide_emodel_strain>  (1) 
0

>  <r_i_glide_energy>  (1) 
-17.186872822261591

>  <r_i_glide_erotb>  (1) 
0

>  <r_i_glide_esite>  (1) 
-0.04184963144785539

>  <r_i_glide_evdw>  (1) 
-13.766628261784135

>  <r_i_glide_gscore>  (1) 
-4.1889296428453067

>  <r_i_glide_gscore_strain>  (1) 
0

>  <r_i_glide_hbond>  (1) 
-0.32000000000000001

>  <r_i_glide_ligand_efficiency>  (1) 
-0.59841852040647237

>  <r_i_glide_ligand_efficiency_ln>  (1) 
-1.4219475241594186

>  <r_i_glide_ligand_efficiency_sa>  (1) 
-1.1447334480340563

>  <r_i_glide_lipo>  (1) 
-0.16016042471896974

>  <r_i_glide_metal>  (1) 
-0

>  <r_i_glide_rewards>  (1) 
-2.4655514895176562

>  <r_lp_Energy>  (1) 
8.5246700000000004

>  <r_lp_tautomer_probability>  (1) 
1

>  <s_epik_Chemistry_Notes>  (1) 
This compound has an ester and may undergo hydrolysis at high or low pH.

>  <s_epik_cmdline>  (1) 
J2VwaWtfcHl0aG9uJywgJy1waHQnLCAnMS4wJywgJy1waCcsICc3LjQnLCAnLXRuJywgJzgnLCAnLW1hJywgJzUwMCcsICctaW1hZScsICc8aW5maWxlLm1hZT4nLCAnLW9tYWUnLCAnPG91dGZpbGUubWFlPic=

>  <s_epik_input>  (1) 
W0NIMl0xW0NIMl1bQ0gyXVtDSDJdT0MxPU8=

>  <s_glide_docking_method>  (1) 
confgen

>  <s_i_glide_gridfile>  (1) 
gpcr_5ht2c_6bqh_protein_autoprepared_prepared

>  <s_lp_Force_Field>  (1) 
S-OPLS

>  <s_lp_Variant>  (1) 
Pocket2Mol_45-1

>  <s_m_source_file>  (1) 
generated_GPCR_5HT2C_ligand_Pocket2Mol_2026-06-23_prepared.sdf

>  <GenAI_Model>  (1) 
Pocket2Mol

>  <Protein>  (1) 
GPCR_5HT2C

$$$$
Pocket2Mol_23
     RDKit          3D

  0  0  0  0  0  0  0  0  0  0999 V3000
M  V30 BEGIN CTAB
M  V30 COUNTS 14 14 0 0 1
M  V30 BEGIN ATOM
M  V30 1 C 38.114507 27.916922 52.333481 0
M  V30 2 C 39.242601 28.936542 52.249262 0
M  V30 3 O 37.246561 28.537754 53.253450 0
M  V30 4 C 38.111143 29.082365 54.187878 0
M  V30 5 O 39.247368 29.534986 53.532537 0
M  V30 6 C 37.433338 30.262187 54.886911 0
M  V30 7 H 38.467351 26.964920 52.734361 0
M  V30 8 H 37.644051 27.735462 51.369472 0
M  V30 9 H 40.200062 28.482029 51.996197 0
M  V30 10 H 39.016728 29.699493 51.503585 0
M  V30 11 H 38.400740 28.307873 54.901407 0
M  V30 12 H 37.197928 31.044456 54.165684 0
M  V30 13 H 38.097590 30.677211 55.644707 0
M  V30 14 H 36.509189 29.939162 55.367529 0
M  V30 END ATOM
M  V30 BEGIN BOND
M  V30 1 1 2 1
M  V30 2 1 3 1
M  V30 3 1 4 3
M  V30 4 1 5 2
M  V30 5 1 5 4
M  V30 6 1 6 4
M  V30 7 1 7 1
M  V30 8 1 8 1
M  V30 9 1 9 2
M  V30 10 1 10 2
M  V30 11 1 11 4
M  V30 12 1 12 6
M  V30 13 1 13 6
M  V30 14 1 14 6
M  V30 END BOND
M  V30 END CTAB
M  END
>  <i_epik_Tot_Q>  (1) 
0

>  <i_epik_Tot_abs_Q>  (1) 
0

>  <i_i_glide_confnum>  (1) 
2

>  <i_i_glide_lignum>  (1) 
26

>  <i_i_glide_posenum>  (1) 
280

>  <i_i_glide_rotatable_bonds>  (1) 
0

>  <i_lp_mmshare_version>  (1) 
72125

>  <i_m_source_file_index>  (1) 
24

>  <i_f3d_flags>  (1) 
0

>  <num_sample>  (1) 
100

>  <b_lp_Chiralities_Consistent>  (1) 
1

>  <r_epik_Charging_Adjusted_Penalty>  (1) 
0

>  <r_epik_Ionization_Penalty>  (1) 
7.9724310449397378e-14

>  <r_epik_Ionization_Penalty_Charging>  (1) 
0

>  <r_epik_Ionization_Penalty_Neutral>  (1) 
7.9724310449397378e-14

>  <r_epik_State_Penalty>  (1) 
-0

>  <r_glide_ring_energy>  (1) 
0.8940093629212682

>  <r_i_docking_score>  (1) 
-4.1815717495485085

>  <r_i_glide_ecoul>  (1) 
-0.90956394446697542

>  <r_i_glide_eff_state_penalty>  (1) 
-0

>  <r_i_glide_einternal>  (1) 
0

>  <r_i_glide_emodel>  (1) 
-18.174610192391153

>  <r_i_glide_emodel_strain>  (1) 
0.000337431767086116

>  <r_i_glide_energy>  (1) 
-14.316109154420893

>  <r_i_glide_erotb>  (1) 
0

>  <r_i_glide_esite>  (1) 
0

>  <r_i_glide_evdw>  (1) 
-13.406545209953917

>  <r_i_glide_gscore>  (1) 
-4.1815717495485085

>  <r_i_glide_gscore_strain>  (1) 
0

>  <r_i_glide_hbond>  (1) 
0

>  <r_i_glide_ligand_efficiency>  (1) 
-0.69692862492475138

>  <r_i_glide_ligand_efficiency_ln>  (1) 
-1.4978266557844786

>  <r_i_glide_ligand_efficiency_sa>  (1) 
-1.2664033560849524

>  <r_i_glide_lipo>  (1) 
-0.64410335832435361

>  <r_i_glide_metal>  (1) 
-0

>  <r_i_glide_rewards>  (1) 
-2.730706539056412

>  <r_lp_Energy>  (1) 
-12.129052

>  <r_lp_tautomer_probability>  (1) 
1

>  <s_epik_Chemistry_Notes>  (1) 
This compound contains an acetal/aminal-like group ( X-CH(R)-Y where X, Y are N, S, or O) that may be acid/base labile, releasing an aldehyde.

>  <s_epik_cmdline>  (1) 
J2VwaWtfcHl0aG9uJywgJy1waHQnLCAnMS4wJywgJy1waCcsICc3LjQnLCAnLXRuJywgJzgnLCAnLW1hJywgJzUwMCcsICctaW1hZScsICc8aW5maWxlLm1hZT4nLCAnLW9tYWUnLCAnPG91dGZpbGUubWFlPic=

>  <s_epik_input>  (1) 
TzFbQ0gyXVtDSDJdT1tDSF0xW0NIM10=

>  <s_glide_docking_method>  (1) 
confgen

>  <s_i_glide_gridfile>  (1) 
gpcr_5ht2c_6bqh_protein_autoprepared_prepared

>  <s_lp_Force_Field>  (1) 
S-OPLS

>  <s_lp_Variant>  (1) 
Pocket2Mol_23-1

>  <s_m_source_file>  (1) 
generated_GPCR_5HT2C_ligand_Pocket2Mol_2026-06-23_prepared.sdf

>  <GenAI_Model>  (1) 
Pocket2Mol

>  <Protein>  (1) 
GPCR_5HT2C

$$$$
Pocket2Mol_51
     RDKit          3D

  0  0  0  0  0  0  0  0  0  0999 V3000
M  V30 BEGIN CTAB
M  V30 COUNTS 18 18 0 0 1
M  V30 BEGIN ATOM
M  V30 1 C 39.578222 29.426808 55.436419 0
M  V30 2 C 40.045149 28.316743 56.167761 0
M  V30 3 C 39.482578 28.009753 57.421887 0
M  V30 4 C 39.990147 26.817752 58.206120 0
M  V30 5 C 38.546214 30.230948 55.957820 0
M  V30 6 C 38.045134 31.424922 55.169499 0
M  V30 7 C 37.981360 29.923232 57.213196 0
M  V30 8 C 38.449186 28.814013 57.944767 0
M  V30 9 H 40.012540 29.661868 54.475892 0
M  V30 10 H 40.837621 27.701660 55.767760 0
M  V30 11 H 39.462874 26.709371 59.153537 0
M  V30 12 H 39.856418 25.899999 57.632809 0
M  V30 13 H 41.052738 26.937755 58.419248 0
M  V30 14 H 37.245398 31.946218 55.695791 0
M  V30 15 H 38.855400 32.133878 54.997962 0
M  V30 16 H 37.656612 31.105358 54.202576 0
M  V30 17 H 37.188753 30.537767 57.614834 0
M  V30 18 H 38.015485 28.581397 58.906104 0
M  V30 END ATOM
M  V30 BEGIN BOND
M  V30 1 2 2 1
M  V30 2 1 3 2
M  V30 3 1 4 3
M  V30 4 1 5 1
M  V30 5 1 6 5
M  V30 6 2 7 5
M  V30 7 2 8 3
M  V30 8 1 8 7
M  V30 9 1 9 1
M  V30 10 1 10 2
M  V30 11 1 11 4
M  V30 12 1 12 4
M  V30 13 1 13 4
M  V30 14 1 14 6
M  V30 15 1 15 6
M  V30 16 1 16 6
M  V30 17 1 17 7
M  V30 18 1 18 8
M  V30 END BOND
M  V30 END CTAB
M  END
>  <i_epik_Tot_Q>  (1) 
0

>  <i_epik_Tot_abs_Q>  (1) 
0

>  <i_i_glide_confnum>  (1) 
1

>  <i_i_glide_lignum>  (1) 
54

>  <i_i_glide_posenum>  (1) 
214

>  <i_i_glide_rotatable_bonds>  (1) 
0

>  <i_lp_mmshare_version>  (1) 
72125

>  <i_m_source_file_index>  (1) 
52

>  <i_f3d_flags>  (1) 
0

>  <num_sample>  (1) 
100

>  <b_lp_Chiralities_Consistent>  (1) 
1

>  <r_epik_Charging_Adjusted_Penalty>  (1) 
0

>  <r_epik_Ionization_Penalty>  (1) 
0

>  <r_epik_Ionization_Penalty_Charging>  (1) 
0

>  <r_epik_Ionization_Penalty_Neutral>  (1) 
0

>  <r_epik_State_Penalty>  (1) 
-0

>  <r_glide_ring_energy>  (1) 
0

>  <r_i_docking_score>  (1) 
-4.1773594433446473

>  <r_i_glide_ecoul>  (1) 
-0.62382478744570635

>  <r_i_glide_eff_state_penalty>  (1) 
-0

>  <r_i_glide_einternal>  (1) 
0

>  <r_i_glide_emodel>  (1) 
-18.082683673746288

>  <r_i_glide_emodel_strain>  (1) 
0

>  <r_i_glide_energy>  (1) 
-13.152873348671431

>  <r_i_glide_erotb>  (1) 
0

>  <r_i_glide_esite>  (1) 
0

>  <r_i_glide_evdw>  (1) 
-12.529048561225725

>  <r_i_glide_gscore>  (1) 
-4.1773594433446473

>  <r_i_glide_gscore_strain>  (1) 
0

>  <r_i_glide_hbond>  (1) 
0

>  <r_i_glide_ligand_efficiency>  (1) 
-0.52216993041808091

>  <r_i_glide_ligand_efficiency_ln>  (1) 
-1.3565314966381525

>  <r_i_glide_ligand_efficiency_sa>  (1) 
-1.044339860836162

>  <r_i_glide_lipo>  (1) 
-0.79804350901215082

>  <r_i_glide_metal>  (1) 
-0

>  <r_i_glide_rewards>  (1) 
-2.6592897881543536

>  <r_lp_Energy>  (1) 
3.9239269999999999

>  <r_lp_tautomer_probability>  (1) 
1

>  <s_epik_cmdline>  (1) 
J2VwaWtfcHl0aG9uJywgJy1waHQnLCAnMS4wJywgJy1waCcsICc3LjQnLCAnLXRuJywgJzgnLCAnLW1hJywgJzUwMCcsICctaW1hZScsICc8aW5maWxlLm1hZT4nLCAnLW9tYWUnLCAnPG91dGZpbGUubWFlPic=

>  <s_epik_input>  (1) 
W2NIXTFbY0hdYyhbQ0gzXSlbY0hdW2NIXWMxW0NIM10=

>  <s_glide_docking_method>  (1) 
confgen

>  <s_i_glide_gridfile>  (1) 
gpcr_5ht2c_6bqh_protein_autoprepared_prepared

>  <s_lp_Force_Field>  (1) 
S-OPLS

>  <s_lp_Variant>  (1) 
Pocket2Mol_51-1

>  <s_m_source_file>  (1) 
generated_GPCR_5HT2C_ligand_Pocket2Mol_2026-06-23_prepared.sdf

>  <GenAI_Model>  (1) 
Pocket2Mol

>  <Protein>  (1) 
GPCR_5HT2C

$$$$
Pocket2Mol_14
     RDKit          3D

  0  0  0  0  0  0  0  0  0  0999 V3000
M  V30 BEGIN CTAB
M  V30 COUNTS 10 10 0 0 1
M  V30 BEGIN ATOM
M  V30 1 C 38.594337 26.937755 53.712978 0
M  V30 2 C 37.625845 28.080334 53.431524 0
M  V30 3 O 39.418148 26.939608 52.568940 0
M  V30 4 O 38.045138 28.537755 52.167760 0
M  V30 5 C 39.087631 27.873606 51.680356 0
M  V30 6 O 39.645136 28.084523 50.606670 0
M  V30 7 H 38.075239 25.983944 53.809441 0
M  V30 8 H 39.184332 27.116275 54.612170 0
M  V30 9 H 36.592037 27.736440 53.389455 0
M  V30 10 H 37.707643 28.875238 54.173228 0
M  V30 END ATOM
M  V30 BEGIN BOND
M  V30 1 1 2 1
M  V30 2 1 3 1
M  V30 3 1 4 2
M  V30 4 1 5 3
M  V30 5 1 5 4
M  V30 6 2 6 5
M  V30 7 1 7 1
M  V30 8 1 8 1
M  V30 9 1 9 2
M  V30 10 1 10 2
M  V30 END BOND
M  V30 END CTAB
M  END
>  <i_epik_Tot_Q>  (1) 
0

>  <i_epik_Tot_abs_Q>  (1) 
0

>  <i_i_glide_confnum>  (1) 
2

>  <i_i_glide_lignum>  (1) 
17

>  <i_i_glide_posenum>  (1) 
93

>  <i_i_glide_rotatable_bonds>  (1) 
0

>  <i_lp_mmshare_version>  (1) 
72125

>  <i_m_source_file_index>  (1) 
15

>  <i_f3d_flags>  (1) 
0

>  <num_sample>  (1) 
100

>  <b_lp_Chiralities_Consistent>  (1) 
1

>  <r_epik_Charging_Adjusted_Penalty>  (1) 
0

>  <r_epik_Ionization_Penalty>  (1) 
0

>  <r_epik_Ionization_Penalty_Charging>  (1) 
0

>  <r_epik_Ionization_Penalty_Neutral>  (1) 
0

>  <r_epik_State_Penalty>  (1) 
-0

>  <r_glide_ring_energy>  (1) 
0.00053108536261990756

>  <r_i_docking_score>  (1) 
-4.1723409047845488

>  <r_i_glide_ecoul>  (1) 
-0.17662629928801621

>  <r_i_glide_eff_state_penalty>  (1) 
-0

>  <r_i_glide_einternal>  (1) 
0

>  <r_i_glide_emodel>  (1) 
-20.360343143425112

>  <r_i_glide_emodel_strain>  (1) 
0.0055275597239745622

>  <r_i_glide_energy>  (1) 
-16.056207942806207

>  <r_i_glide_erotb>  (1) 
0

>  <r_i_glide_esite>  (1) 
0

>  <r_i_glide_evdw>  (1) 
-15.879581643518192

>  <r_i_glide_gscore>  (1) 
-4.1723409047845488

>  <r_i_glide_gscore_strain>  (1) 
0

>  <r_i_glide_hbond>  (1) 
0

>  <r_i_glide_ligand_efficiency>  (1) 
-0.69539015079742483

>  <r_i_glide_ligand_efficiency_ln>  (1) 
-1.4945201944414774

>  <r_i_glide_ligand_efficiency_sa>  (1) 
-1.2636077630666478

>  <r_i_glide_lipo>  (1) 
-0.59682108170875248

>  <r_i_glide_metal>  (1) 
-0

>  <r_i_glide_rewards>  (1) 
-2.7550467960066842

>  <r_lp_Energy>  (1) 
-6.8415979999999994

>  <r_lp_tautomer_probability>  (1) 
1

>  <s_epik_Chemistry_Notes>  (1) 
This compound has an ester and may undergo hydrolysis at high or low pH.

>  <s_epik_cmdline>  (1) 
J2VwaWtfcHl0aG9uJywgJy1waHQnLCAnMS4wJywgJy1waCcsICc3LjQnLCAnLXRuJywgJzgnLCAnLW1hJywgJzUwMCcsICctaW1hZScsICc8aW5maWxlLm1hZT4nLCAnLW9tYWUnLCAnPG91dGZpbGUubWFlPic=

>  <s_epik_input>  (1) 
TzFbQ0gyXVtDSDJdT0MxPU8=

>  <s_glide_docking_method>  (1) 
confgen

>  <s_i_glide_gridfile>  (1) 
gpcr_5ht2c_6bqh_protein_autoprepared_prepared

>  <s_lp_Force_Field>  (1) 
S-OPLS

>  <s_lp_Variant>  (1) 
Pocket2Mol_14-1

>  <s_m_source_file>  (1) 
generated_GPCR_5HT2C_ligand_Pocket2Mol_2026-06-23_prepared.sdf

>  <GenAI_Model>  (1) 
Pocket2Mol

>  <Protein>  (1) 
GPCR_5HT2C

$$$$
Pocket2Mol_12
     RDKit          3D

  0  0  0  0  0  0  0  0  0  0999 V3000
M  V30 BEGIN CTAB
M  V30 COUNTS 14 14 0 0 1
M  V30 BEGIN ATOM
M  V30 1 C 39.647071 36.937832 62.977236 0
M  V30 2 O 38.845028 37.122517 61.817406 0
M  V30 3 C 38.376785 35.877286 61.312819 0
M  V30 4 C 40.852554 36.050804 62.622586 0
M  V30 5 O 40.385582 34.802402 62.126795 0
M  V30 6 C 39.580474 34.979978 60.968242 0
M  V30 7 H 39.990900 37.909632 63.332164 0
M  V30 8 H 39.057224 36.492654 63.780089 0
M  V30 9 H 37.730112 35.394251 62.046459 0
M  V30 10 H 37.772980 36.058573 60.423432 0
M  V30 11 H 41.486965 36.537755 61.880438 0
M  V30 12 H 41.469231 35.879201 63.505144 0
M  V30 13 H 39.240224 34.006169 60.616377 0
M  V30 14 H 40.175319 35.420150 60.167784 0
M  V30 END ATOM
M  V30 BEGIN BOND
M  V30 1 1 2 1
M  V30 2 1 3 2
M  V30 3 1 4 1
M  V30 4 1 5 4
M  V30 5 1 6 3
M  V30 6 1 6 5
M  V30 7 1 7 1
M  V30 8 1 8 1
M  V30 9 1 9 3
M  V30 10 1 10 3
M  V30 11 1 11 4
M  V30 12 1 12 4
M  V30 13 1 13 6
M  V30 14 1 14 6
M  V30 END BOND
M  V30 END CTAB
M  END
>  <i_epik_Tot_Q>  (1) 
0

>  <i_epik_Tot_abs_Q>  (1) 
0

>  <i_i_glide_confnum>  (1) 
1

>  <i_i_glide_lignum>  (1) 
15

>  <i_i_glide_posenum>  (1) 
282

>  <i_i_glide_rotatable_bonds>  (1) 
0

>  <i_lp_mmshare_version>  (1) 
72125

>  <i_m_source_file_index>  (1) 
13

>  <i_f3d_flags>  (1) 
0

>  <num_sample>  (1) 
100

>  <b_lp_Chiralities_Consistent>  (1) 
1

>  <r_epik_Charging_Adjusted_Penalty>  (1) 
0

>  <r_epik_Ionization_Penalty>  (1) 
8.3894707547109138e-13

>  <r_epik_Ionization_Penalty_Charging>  (1) 
0

>  <r_epik_Ionization_Penalty_Neutral>  (1) 
8.3894707547109138e-13

>  <r_epik_State_Penalty>  (1) 
-0

>  <r_glide_ring_energy>  (1) 
0

>  <r_i_docking_score>  (1) 
-4.1462804095392558

>  <r_i_glide_ecoul>  (1) 
-1.0974230066060653

>  <r_i_glide_eff_state_penalty>  (1) 
-0

>  <r_i_glide_einternal>  (1) 
0

>  <r_i_glide_emodel>  (1) 
-16.320439904184859

>  <r_i_glide_emodel_strain>  (1) 
0

>  <r_i_glide_energy>  (1) 
-12.863924793431936

>  <r_i_glide_erotb>  (1) 
0

>  <r_i_glide_esite>  (1) 
0

>  <r_i_glide_evdw>  (1) 
-11.76650178682587

>  <r_i_glide_gscore>  (1) 
-4.1462804095392558

>  <r_i_glide_gscore_strain>  (1) 
0

>  <r_i_glide_hbond>  (1) 
0

>  <r_i_glide_ligand_efficiency>  (1) 
-0.69104673492320934

>  <r_i_glide_ligand_efficiency_ln>  (1) 
-1.4851854019808295

>  <r_i_glide_ligand_efficiency_sa>  (1) 
-1.2557152526383768

>  <r_i_glide_lipo>  (1) 
-1.0223086791190603

>  <r_i_glide_metal>  (1) 
-0

>  <r_i_glide_rewards>  (1) 
-2.3710331900879922

>  <r_lp_Energy>  (1) 
4.964817

>  <r_lp_tautomer_probability>  (1) 
1

>  <s_epik_cmdline>  (1) 
J2VwaWtfcHl0aG9uJywgJy1waHQnLCAnMS4wJywgJy1waCcsICc3LjQnLCAnLXRuJywgJzgnLCAnLW1hJywgJzUwMCcsICctaW1hZScsICc8aW5maWxlLm1hZT4nLCAnLW9tYWUnLCAnPG91dGZpbGUubWFlPic=

>  <s_epik_input>  (1) 
W0NIMl0xT1tDSDJdW0NIMl1PW0NIMl0x

>  <s_glide_docking_method>  (1) 
confgen

>  <s_i_glide_gridfile>  (1) 
gpcr_5ht2c_6bqh_protein_autoprepared_prepared

>  <s_lp_Force_Field>  (1) 
S-OPLS

>  <s_lp_Variant>  (1) 
Pocket2Mol_12-1

>  <s_m_source_file>  (1) 
generated_GPCR_5HT2C_ligand_Pocket2Mol_2026-06-23_prepared.sdf

>  <GenAI_Model>  (1) 
Pocket2Mol

>  <Protein>  (1) 
GPCR_5HT2C

$$$$
Pocket2Mol_38
     RDKit          3D

  0  0  0  0  0  0  0  0  0  0999 V3000
M  V30 BEGIN CTAB
M  V30 COUNTS 17 17 0 0 1
M  V30 BEGIN ATOM
M  V30 1 C 34.855119 33.337761 59.951437 0
M  V30 2 C 35.575635 31.997038 60.167759 0
M  V30 3 C 36.925267 32.167026 60.864731 0
M  V30 4 O 37.278111 31.412732 61.767763 0
M  V30 5 C 35.777824 34.403912 59.343227 0
M  V30 6 C 37.022151 34.614481 60.215033 0
M  V30 7 C 37.820702 33.310860 60.384731 0
M  V30 8 H 33.994389 33.185497 59.298754 0
M  V30 9 H 34.458708 33.694991 60.902438 0
M  V30 10 H 35.747827 31.509291 59.207881 0
M  V30 11 H 38.640001 33.454757 61.089607 0
M  V30 12 H 34.943924 31.335830 60.758094 0
M  V30 13 H 35.242195 35.344857 59.226877 0
M  V30 14 H 36.079061 34.098558 58.339505 0
M  V30 15 H 36.726731 34.995544 61.193688 0
M  V30 16 H 37.651791 35.381949 59.766574 0
M  V30 17 H 38.263238 33.019900 59.431704 0
M  V30 END ATOM
M  V30 BEGIN BOND
M  V30 1 1 2 1
M  V30 2 1 3 2
M  V30 3 2 4 3
M  V30 4 1 5 1
M  V30 5 1 6 5
M  V30 6 1 7 3
M  V30 7 1 7 6
M  V30 8 1 8 1
M  V30 9 1 9 1
M  V30 10 1 10 2
M  V30 11 1 11 7
M  V30 12 1 12 2
M  V30 13 1 13 5
M  V30 14 1 14 5
M  V30 15 1 15 6
M  V30 16 1 16 6
M  V30 17 1 17 7
M  V30 END BOND
M  V30 END CTAB
M  END
>  <i_epik_Tot_Q>  (1) 
0

>  <i_epik_Tot_abs_Q>  (1) 
0

>  <i_i_glide_confnum>  (1) 
2

>  <i_i_glide_lignum>  (1) 
41

>  <i_i_glide_posenum>  (1) 
198

>  <i_i_glide_rotatable_bonds>  (1) 
0

>  <i_lp_mmshare_version>  (1) 
72125

>  <i_m_source_file_index>  (1) 
39

>  <i_f3d_flags>  (1) 
0

>  <num_sample>  (1) 
100

>  <b_lp_Chiralities_Consistent>  (1) 
1

>  <r_epik_Charging_Adjusted_Penalty>  (1) 
0

>  <r_epik_Ionization_Penalty>  (1) 
3.7730911281982554e-13

>  <r_epik_Ionization_Penalty_Charging>  (1) 
0

>  <r_epik_Ionization_Penalty_Neutral>  (1) 
3.7730911281982554e-13

>  <r_epik_State_Penalty>  (1) 
-0

>  <r_glide_ring_energy>  (1) 
4.2281688740393558e-05

>  <r_i_docking_score>  (1) 
-4.1352722243665774

>  <r_i_glide_ecoul>  (1) 
-2.9202620702963054

>  <r_i_glide_eff_state_penalty>  (1) 
-0

>  <r_i_glide_einternal>  (1) 
0

>  <r_i_glide_emodel>  (1) 
-20.947582572952737

>  <r_i_glide_emodel_strain>  (1) 
0

>  <r_i_glide_energy>  (1) 
-16.6349727332436

>  <r_i_glide_erotb>  (1) 
0

>  <r_i_glide_esite>  (1) 
-0.02238888513705227

>  <r_i_glide_evdw>  (1) 
-13.714710662947294

>  <r_i_glide_gscore>  (1) 
-4.1352722243665774

>  <r_i_glide_gscore_strain>  (1) 
0

>  <r_i_glide_hbond>  (1) 
-0.32000000000000001

>  <r_i_glide_ligand_efficiency>  (1) 
-0.59075317490951107

>  <r_i_glide_ligand_efficiency_ln>  (1) 
-1.4037333167451373

>  <r_i_glide_ligand_efficiency_sa>  (1) 
-1.130070169606195

>  <r_i_glide_lipo>  (1) 
-0.27744182887104746

>  <r_i_glide_metal>  (1) 
-0

>  <r_i_glide_rewards>  (1) 
-2.3916666666666666

>  <r_lp_Energy>  (1) 
-0.38638499999999998

>  <r_lp_tautomer_probability>  (1) 
1

>  <s_epik_cmdline>  (1) 
J2VwaWtfcHl0aG9uJywgJy1waHQnLCAnMS4wJywgJy1waCcsICc3LjQnLCAnLXRuJywgJzgnLCAnLW1hJywgJzUwMCcsICctaW1hZScsICc8aW5maWxlLm1hZT4nLCAnLW9tYWUnLCAnPG91dGZpbGUubWFlPic=

>  <s_epik_input>  (1) 
W0NIMl0xW0NIMl1bQ0gyXVtDSDJdW0NIXT1DMVtPSF0=

>  <s_glide_docking_method>  (1) 
confgen

>  <s_i_glide_gridfile>  (1) 
gpcr_5ht2c_6bqh_protein_autoprepared_prepared

>  <s_lp_Force_Field>  (1) 
S-OPLS

>  <s_lp_Variant>  (1) 
Pocket2Mol_38-1

>  <s_m_source_file>  (1) 
generated_GPCR_5HT2C_ligand_Pocket2Mol_2026-06-23_prepared.sdf

>  <GenAI_Model>  (1) 
Pocket2Mol

>  <Protein>  (1) 
GPCR_5HT2C

$$$$
Pocket2Mol_31
     RDKit          3D

  0  0  0  0  0  0  0  0  0  0999 V3000
M  V30 BEGIN CTAB
M  V30 COUNTS 17 17 0 0 1
M  V30 BEGIN ATOM
M  V30 1 C 37.804565 33.513543 60.279789 0
M  V30 2 C 36.967733 32.373403 60.861894 0
M  V30 3 C 35.645137 32.054773 60.167758 0
M  V30 4 O 37.344822 31.737755 61.842084 0
M  V30 5 C 36.939307 34.752337 59.990152 0
M  V30 6 C 34.845145 33.332066 59.858435 0
M  V30 7 C 35.700038 34.398533 59.154841 0
M  V30 8 H 38.610637 33.764925 60.969418 0
M  V30 9 H 38.267695 33.159562 59.358465 0
M  V30 10 H 35.868250 31.524962 59.241196 0
M  V30 11 H 35.057632 31.378467 60.788505 0
M  V30 12 H 36.630247 35.212400 60.929685 0
M  V30 13 H 37.533596 35.499682 59.464595 0
M  V30 14 H 33.985926 33.081907 59.235001 0
M  V30 15 H 34.445133 33.737755 60.787492 0
M  V30 16 H 36.013079 34.031043 58.175971 0
M  V30 17 H 35.106633 35.293578 58.967760 0
M  V30 END ATOM
M  V30 BEGIN BOND
M  V30 1 1 2 1
M  V30 2 1 3 2
M  V30 3 2 4 2
M  V30 4 1 5 1
M  V30 5 1 6 3
M  V30 6 1 7 5
M  V30 7 1 7 6
M  V30 8 1 8 1
M  V30 9 1 9 1
M  V30 10 1 10 3
M  V30 11 1 11 3
M  V30 12 1 12 5
M  V30 13 1 13 5
M  V30 14 1 14 6
M  V30 15 1 15 6
M  V30 16 1 16 7
M  V30 17 1 17 7
M  V30 END BOND
M  V30 END CTAB
M  END
>  <i_epik_Tot_Q>  (1) 
0

>  <i_epik_Tot_abs_Q>  (1) 
0

>  <i_i_glide_confnum>  (1) 
1

>  <i_i_glide_lignum>  (1) 
34

>  <i_i_glide_posenum>  (1) 
129

>  <i_i_glide_rotatable_bonds>  (1) 
0

>  <i_lp_mmshare_version>  (1) 
72125

>  <i_m_source_file_index>  (1) 
32

>  <i_f3d_flags>  (1) 
0

>  <num_sample>  (1) 
100

>  <b_lp_Chiralities_Consistent>  (1) 
1

>  <r_epik_Charging_Adjusted_Penalty>  (1) 
0

>  <r_epik_Ionization_Penalty>  (1) 
3.7730911281982554e-13

>  <r_epik_Ionization_Penalty_Charging>  (1) 
0

>  <r_epik_Ionization_Penalty_Neutral>  (1) 
3.7730911281982554e-13

>  <r_epik_State_Penalty>  (1) 
-0

>  <r_glide_ring_energy>  (1) 
0

>  <r_i_docking_score>  (1) 
-4.1193575978865766

>  <r_i_glide_ecoul>  (1) 
-2.3988905026817164

>  <r_i_glide_eff_state_penalty>  (1) 
-0

>  <r_i_glide_einternal>  (1) 
0

>  <r_i_glide_emodel>  (1) 
-20.675763248273366

>  <r_i_glide_emodel_strain>  (1) 
0

>  <r_i_glide_energy>  (1) 
-16.396074027104397

>  <r_i_glide_erotb>  (1) 
0

>  <r_i_glide_esite>  (1) 
-0.0098675359540482434

>  <r_i_glide_evdw>  (1) 
-13.997183524422679

>  <r_i_glide_gscore>  (1) 
-4.1193575978865766

>  <r_i_glide_gscore_strain>  (1) 
0

>  <r_i_glide_hbond>  (1) 
-0.32000000000000001

>  <r_i_glide_ligand_efficiency>  (1) 
-0.5884796568409395

>  <r_i_glide_ligand_efficiency_ln>  (1) 
-1.3983310384424186

>  <r_i_glide_ligand_efficiency_sa>  (1) 
-1.1257210859982281

>  <r_i_glide_lipo>  (1) 
-0.27055111516594732

>  <r_i_glide_metal>  (1) 
-0

>  <r_i_glide_rewards>  (1) 
-2.4592461951431899

>  <r_lp_Energy>  (1) 
-0.38655299999999998

>  <r_lp_tautomer_probability>  (1) 
1

>  <s_epik_cmdline>  (1) 
J2VwaWtfcHl0aG9uJywgJy1waHQnLCAnMS4wJywgJy1waCcsICc3LjQnLCAnLXRuJywgJzgnLCAnLW1hJywgJzUwMCcsICctaW1hZScsICc8aW5maWxlLm1hZT4nLCAnLW9tYWUnLCAnPG91dGZpbGUubWFlPic=

>  <s_epik_input>  (1) 
Tz1DMVtDSDJdW0NIMl1bQ0gyXVtDSDJdW0NIMl0x

>  <s_glide_docking_method>  (1) 
confgen

>  <s_i_glide_gridfile>  (1) 
gpcr_5ht2c_6bqh_protein_autoprepared_prepared

>  <s_lp_Force_Field>  (1) 
S-OPLS

>  <s_lp_Variant>  (1) 
Pocket2Mol_31-1

>  <s_m_source_file>  (1) 
generated_GPCR_5HT2C_ligand_Pocket2Mol_2026-06-23_prepared.sdf

>  <GenAI_Model>  (1) 
Pocket2Mol

>  <Protein>  (1) 
GPCR_5HT2C

$$$$
Pocket2Mol_22
     RDKit          3D

  0  0  0  0  0  0  0  0  0  0999 V3000
M  V30 BEGIN CTAB
M  V30 COUNTS 10 9 0 0 1
M  V30 BEGIN ATOM
M  V30 1 C 39.245208 27.811728 51.076726 0
M  V30 2 C 39.728773 29.232537 51.342386 0
M  V30 3 C 40.320320 30.001868 50.167725 0
M  V30 4 O 39.644604 29.737787 52.458722 0
M  V30 5 H 39.689710 27.407671 50.167761 0
M  V30 6 H 38.160668 27.799152 50.967780 0
M  V30 7 H 39.512647 27.160072 51.908560 0
M  V30 8 H 40.285736 29.408390 49.253933 0
M  V30 9 H 39.757402 30.920387 50.001737 0
M  V30 10 H 41.357384 30.267120 50.374052 0
M  V30 END ATOM
M  V30 BEGIN BOND
M  V30 1 1 2 1
M  V30 2 1 3 2
M  V30 3 2 4 2
M  V30 4 1 5 1
M  V30 5 1 6 1
M  V30 6 1 7 1
M  V30 7 1 8 3
M  V30 8 1 9 3
M  V30 9 1 10 3
M  V30 END BOND
M  V30 END CTAB
M  END
>  <i_epik_Tot_Q>  (1) 
0

>  <i_epik_Tot_abs_Q>  (1) 
0

>  <i_i_glide_confnum>  (1) 
1

>  <i_i_glide_lignum>  (1) 
25

>  <i_i_glide_posenum>  (1) 
79

>  <i_i_glide_rotatable_bonds>  (1) 
0

>  <i_lp_mmshare_version>  (1) 
72125

>  <i_m_source_file_index>  (1) 
23

>  <i_f3d_flags>  (1) 
0

>  <num_sample>  (1) 
100

>  <b_lp_Chiralities_Consistent>  (1) 
1

>  <r_epik_Charging_Adjusted_Penalty>  (1) 
0

>  <r_epik_Ionization_Penalty>  (1) 
8.9301752364709234e-13

>  <r_epik_Ionization_Penalty_Charging>  (1) 
0

>  <r_epik_Ionization_Penalty_Neutral>  (1) 
8.9301752364709234e-13

>  <r_epik_State_Penalty>  (1) 
-0

>  <r_glide_ring_energy>  (1) 
0

>  <r_i_docking_score>  (1) 
-4.0563866559211945

>  <r_i_glide_ecoul>  (1) 
-0.4647760033653961

>  <r_i_glide_eff_state_penalty>  (1) 
-0

>  <r_i_glide_einternal>  (1) 
0

>  <r_i_glide_emodel>  (1) 
-16.220608353989427

>  <r_i_glide_emodel_strain>  (1) 
0.050748860201413226

>  <r_i_glide_energy>  (1) 
-12.998181111693096

>  <r_i_glide_erotb>  (1) 
0

>  <r_i_glide_esite>  (1) 
0

>  <r_i_glide_evdw>  (1) 
-12.533405108327701

>  <r_i_glide_gscore>  (1) 
-4.0563866559211945

>  <r_i_glide_gscore_strain>  (1) 
0

>  <r_i_glide_hbond>  (1) 
0

>  <r_i_glide_ligand_efficiency>  (1) 
-1.0140966639802986

>  <r_i_glide_ligand_efficiency_ln>  (1) 
-1.6998685166475134

>  <r_i_glide_ligand_efficiency_sa>  (1) 
-1.6097781111997678

>  <r_i_glide_lipo>  (1) 
-0.66000000000000003

>  <r_i_glide_metal>  (1) 
-0

>  <r_i_glide_rewards>  (1) 
-2.7000000000000002

>  <r_lp_Energy>  (1) 
-0.55031200000000002

>  <r_lp_tautomer_probability>  (1) 
1

>  <s_epik_cmdline>  (1) 
J2VwaWtfcHl0aG9uJywgJy1waHQnLCAnMS4wJywgJy1waCcsICc3LjQnLCAnLXRuJywgJzgnLCAnLW1hJywgJzUwMCcsICctaW1hZScsICc8aW5maWxlLm1hZT4nLCAnLW9tYWUnLCAnPG91dGZpbGUubWFlPic=

>  <s_epik_input>  (1) 
W0NIM11DKD1PKVtDSDNd

>  <s_glide_docking_method>  (1) 
confgen

>  <s_i_glide_gridfile>  (1) 
gpcr_5ht2c_6bqh_protein_autoprepared_prepared

>  <s_lp_Force_Field>  (1) 
S-OPLS

>  <s_lp_Variant>  (1) 
Pocket2Mol_22-1

>  <s_m_source_file>  (1) 
generated_GPCR_5HT2C_ligand_Pocket2Mol_2026-06-23_prepared.sdf

>  <GenAI_Model>  (1) 
Pocket2Mol

>  <Protein>  (1) 
GPCR_5HT2C

$$$$
Pocket2Mol_18
     RDKit          3D

  0  0  0  0  0  0  0  0  0  0999 V3000
M  V30 BEGIN CTAB
M  V30 COUNTS 18 18 0 0 1
M  V30 BEGIN ATOM
M  V30 1 C 38.530369 31.147470 56.377298 0
M  V30 2 C 38.538135 31.742115 54.961495 0
M  V30 3 C 39.275858 30.819055 53.978171 0
M  V30 4 C 37.919567 29.737715 56.380775 0
M  V30 5 C 38.663276 29.408452 53.976102 0
M  V30 6 C 38.644900 28.809142 55.392180 0
M  V30 7 H 39.549365 31.107780 56.763905 0
M  V30 8 H 37.965597 31.797389 57.047017 0
M  V30 9 H 37.511451 31.896522 54.625171 0
M  V30 10 H 39.008087 32.725572 54.976229 0
M  V30 11 H 39.245137 31.244184 52.974478 0
M  V30 12 H 40.329620 30.761202 54.254954 0
M  V30 13 H 37.957141 29.318095 57.386261 0
M  V30 14 H 36.863406 29.805336 56.115188 0
M  V30 15 H 39.223682 28.759038 53.303073 0
M  V30 16 H 37.645256 29.452661 53.586995 0
M  V30 17 H 39.667918 28.644020 55.732839 0
M  V30 18 H 38.162505 27.831241 55.376703 0
M  V30 END ATOM
M  V30 BEGIN BOND
M  V30 1 1 2 1
M  V30 2 1 3 2
M  V30 3 1 4 1
M  V30 4 1 5 3
M  V30 5 1 6 4
M  V30 6 1 6 5
M  V30 7 1 7 1
M  V30 8 1 8 1
M  V30 9 1 9 2
M  V30 10 1 10 2
M  V30 11 1 11 3
M  V30 12 1 12 3
M  V30 13 1 13 4
M  V30 14 1 14 4
M  V30 15 1 15 5
M  V30 16 1 16 5
M  V30 17 1 17 6
M  V30 18 1 18 6
M  V30 END BOND
M  V30 END CTAB
M  END
>  <i_epik_Tot_Q>  (1) 
0

>  <i_epik_Tot_abs_Q>  (1) 
0

>  <i_i_glide_confnum>  (1) 
2

>  <i_i_glide_lignum>  (1) 
21

>  <i_i_glide_posenum>  (1) 
138

>  <i_i_glide_rotatable_bonds>  (1) 
0

>  <i_lp_mmshare_version>  (1) 
72125

>  <i_m_source_file_index>  (1) 
19

>  <i_f3d_flags>  (1) 
0

>  <num_sample>  (1) 
100

>  <b_lp_Chiralities_Consistent>  (1) 
1

>  <r_epik_Charging_Adjusted_Penalty>  (1) 
0

>  <r_epik_Ionization_Penalty>  (1) 
0

>  <r_epik_Ionization_Penalty_Charging>  (1) 
0

>  <r_epik_Ionization_Penalty_Neutral>  (1) 
0

>  <r_epik_State_Penalty>  (1) 
-0

>  <r_glide_ring_energy>  (1) 
0.00054248204421707515

>  <r_i_docking_score>  (1) 
-4.0288653515490038

>  <r_i_glide_ecoul>  (1) 
0.027629348401178783

>  <r_i_glide_eff_state_penalty>  (1) 
-0

>  <r_i_glide_einternal>  (1) 
0

>  <r_i_glide_emodel>  (1) 
-16.191124439389824

>  <r_i_glide_emodel_strain>  (1) 
0

>  <r_i_glide_energy>  (1) 
-12.781813945817387

>  <r_i_glide_erotb>  (1) 
0

>  <r_i_glide_esite>  (1) 
0

>  <r_i_glide_evdw>  (1) 
-12.809443294218566

>  <r_i_glide_gscore>  (1) 
-4.0288653515490038

>  <r_i_glide_gscore_strain>  (1) 
0

>  <r_i_glide_hbond>  (1) 
0

>  <r_i_glide_ligand_efficiency>  (1) 
-0.6714775585915006

>  <r_i_glide_ligand_efficiency_ln>  (1) 
-1.4431276748433557

>  <r_i_glide_ligand_efficiency_sa>  (1) 
-1.2201556993412657

>  <r_i_glide_lipo>  (1) 
-0.73065859170036718

>  <r_i_glide_metal>  (1) 
-0

>  <r_i_glide_rewards>  (1) 
-2.6618789973978849

>  <r_lp_Energy>  (1) 
5.7175969999999996

>  <r_lp_tautomer_probability>  (1) 
1

>  <s_epik_cmdline>  (1) 
J2VwaWtfcHl0aG9uJywgJy1waHQnLCAnMS4wJywgJy1waCcsICc3LjQnLCAnLXRuJywgJzgnLCAnLW1hJywgJzUwMCcsICctaW1hZScsICc8aW5maWxlLm1hZT4nLCAnLW9tYWUnLCAnPG91dGZpbGUubWFlPic=

>  <s_epik_input>  (1) 
W0NIMl0xW0NIMl1bQ0gyXVtDSDJdW0NIMl1bQ0gyXTE=

>  <s_glide_docking_method>  (1) 
confgen

>  <s_i_glide_gridfile>  (1) 
gpcr_5ht2c_6bqh_protein_autoprepared_prepared

>  <s_lp_Force_Field>  (1) 
S-OPLS

>  <s_lp_Variant>  (1) 
Pocket2Mol_18-1

>  <s_m_source_file>  (1) 
generated_GPCR_5HT2C_ligand_Pocket2Mol_2026-06-23_prepared.sdf

>  <GenAI_Model>  (1) 
Pocket2Mol

>  <Protein>  (1) 
GPCR_5HT2C

$$$$
Pocket2Mol_28
     RDKit          3D

  0  0  0  0  0  0  0  0  0  0999 V3000
M  V30 BEGIN CTAB
M  V30 COUNTS 13 13 0 0 1
M  V30 BEGIN ATOM
M  V30 1 C 34.836974 33.070075 59.767766 0
M  V30 2 O 35.574692 31.997976 60.342826 0
M  V30 3 C 36.764245 32.176824 60.974317 0
M  V30 4 O 37.256737 31.378016 61.767758 0
M  V30 5 C 37.487445 33.487752 60.593380 0
M  V30 6 C 35.747331 34.137831 59.167741 0
M  V30 7 O 36.603502 34.537598 60.217625 0
M  V30 8 H 34.209445 33.511176 60.542554 0
M  V30 9 H 34.168586 32.671689 59.004094 0
M  V30 10 H 38.178488 33.281122 59.775454 0
M  V30 11 H 38.086611 33.819937 61.441239 0
M  V30 12 H 35.162242 34.990230 58.823066 0
M  V30 13 H 36.313902 33.758584 58.315211 0
M  V30 END ATOM
M  V30 BEGIN BOND
M  V30 1 1 2 1
M  V30 2 1 3 2
M  V30 3 2 4 3
M  V30 4 1 5 3
M  V30 5 1 6 1
M  V30 6 1 7 5
M  V30 7 1 7 6
M  V30 8 1 8 1
M  V30 9 1 9 1
M  V30 10 1 10 5
M  V30 11 1 11 5
M  V30 12 1 12 6
M  V30 13 1 13 6
M  V30 END BOND
M  V30 END CTAB
M  END
>  <i_epik_Tot_Q>  (1) 
0

>  <i_epik_Tot_abs_Q>  (1) 
0

>  <i_i_glide_confnum>  (1) 
2

>  <i_i_glide_lignum>  (1) 
31

>  <i_i_glide_posenum>  (1) 
315

>  <i_i_glide_rotatable_bonds>  (1) 
0

>  <i_lp_mmshare_version>  (1) 
72125

>  <i_m_source_file_index>  (1) 
29

>  <i_f3d_flags>  (1) 
0

>  <num_sample>  (1) 
100

>  <b_lp_Chiralities_Consistent>  (1) 
1

>  <r_epik_Charging_Adjusted_Penalty>  (1) 
0

>  <r_epik_Ionization_Penalty>  (1) 
1.0677269036415479e-12

>  <r_epik_Ionization_Penalty_Charging>  (1) 
0

>  <r_epik_Ionization_Penalty_Neutral>  (1) 
1.0677269036415479e-12

>  <r_epik_State_Penalty>  (1) 
-0

>  <r_glide_ring_energy>  (1) 
4.2281688740393558e-05

>  <r_i_docking_score>  (1) 
-4.011189102906382

>  <r_i_glide_ecoul>  (1) 
-3.1708748740812336

>  <r_i_glide_eff_state_penalty>  (1) 
-0

>  <r_i_glide_einternal>  (1) 
0

>  <r_i_glide_emodel>  (1) 
-20.241144349544424

>  <r_i_glide_emodel_strain>  (1) 
0

>  <r_i_glide_energy>  (1) 
-16.094701936718167

>  <r_i_glide_erotb>  (1) 
0

>  <r_i_glide_esite>  (1) 
-0.032711530504707466

>  <r_i_glide_evdw>  (1) 
-12.923827062636931

>  <r_i_glide_gscore>  (1) 
-4.011189102906382

>  <r_i_glide_gscore_strain>  (1) 
0

>  <r_i_glide_hbond>  (1) 
-0.32000000000000001

>  <r_i_glide_ligand_efficiency>  (1) 
-0.57302701470091166

>  <r_i_glide_ligand_efficiency_ln>  (1) 
-1.3616128462684713

>  <r_i_glide_ligand_efficiency_sa>  (1) 
-1.0961612449923464

>  <r_i_glide_lipo>  (1) 
-0.19095602671668163

>  <r_i_glide_metal>  (1) 
-0

>  <r_i_glide_rewards>  (1) 
-2.3456989614409616

>  <r_lp_Energy>  (1) 
12.58291

>  <r_lp_tautomer_probability>  (1) 
1

>  <s_epik_Chemistry_Notes>  (1) 
This compound has an ester and may undergo hydrolysis at high or low pH.

>  <s_epik_cmdline>  (1) 
J2VwaWtfcHl0aG9uJywgJy1waHQnLCAnMS4wJywgJy1waCcsICc3LjQnLCAnLXRuJywgJzgnLCAnLW1hJywgJzUwMCcsICctaW1hZScsICc8aW5maWxlLm1hZT4nLCAnLW9tYWUnLCAnPG91dGZpbGUubWFlPic=

>  <s_epik_input>  (1) 
W0NIMl0xT1tDSDJdW0NIMl1PQzE9Tw==

>  <s_glide_docking_method>  (1) 
confgen

>  <s_i_glide_gridfile>  (1) 
gpcr_5ht2c_6bqh_protein_autoprepared_prepared

>  <s_lp_Force_Field>  (1) 
S-OPLS

>  <s_lp_Variant>  (1) 
Pocket2Mol_28-1

>  <s_m_source_file>  (1) 
generated_GPCR_5HT2C_ligand_Pocket2Mol_2026-06-23_prepared.sdf

>  <GenAI_Model>  (1) 
Pocket2Mol

>  <Protein>  (1) 
GPCR_5HT2C

$$$$
Pocket2Mol_12
     RDKit          3D

  0  0  0  0  0  0  0  0  0  0999 V3000
M  V30 BEGIN CTAB
M  V30 COUNTS 14 14 0 0 1
M  V30 BEGIN ATOM
M  V30 1 C 37.289136 31.679012 60.966879 0
M  V30 2 O 35.930704 31.817480 61.367760 0
M  V30 3 C 35.488827 33.165201 61.229937 0
M  V30 4 C 37.443698 32.137422 59.504987 0
M  V30 5 O 37.016736 33.489467 59.398841 0
M  V30 6 C 35.649617 33.617810 59.767760 0
M  V30 7 H 37.934297 32.262994 61.625154 0
M  V30 8 H 37.585623 30.634981 61.070087 0
M  V30 9 H 34.445138 33.233940 61.535235 0
M  V30 10 H 36.056241 33.815134 61.897404 0
M  V30 11 H 38.485606 32.067134 59.192351 0
M  V30 12 H 36.863361 31.501717 58.834125 0
M  V30 13 H 35.016666 33.026756 59.103633 0
M  V30 14 H 35.346364 34.658702 59.655404 0
M  V30 END ATOM
M  V30 BEGIN BOND
M  V30 1 1 2 1
M  V30 2 1 3 2
M  V30 3 1 4 1
M  V30 4 1 5 4
M  V30 5 1 6 3
M  V30 6 1 6 5
M  V30 7 1 7 1
M  V30 8 1 8 1
M  V30 9 1 9 3
M  V30 10 1 10 3
M  V30 11 1 11 4
M  V30 12 1 12 4
M  V30 13 1 13 6
M  V30 14 1 14 6
M  V30 END BOND
M  V30 END CTAB
M  END
>  <i_epik_Tot_Q>  (1) 
0

>  <i_epik_Tot_abs_Q>  (1) 
0

>  <i_i_glide_confnum>  (1) 
2

>  <i_i_glide_lignum>  (1) 
15

>  <i_i_glide_posenum>  (1) 
273

>  <i_i_glide_rotatable_bonds>  (1) 
0

>  <i_lp_mmshare_version>  (1) 
72125

>  <i_m_source_file_index>  (1) 
13

>  <i_f3d_flags>  (1) 
0

>  <num_sample>  (1) 
100

>  <b_lp_Chiralities_Consistent>  (1) 
1

>  <r_epik_Charging_Adjusted_Penalty>  (1) 
0

>  <r_epik_Ionization_Penalty>  (1) 
8.3894707547109138e-13

>  <r_epik_Ionization_Penalty_Charging>  (1) 
0

>  <r_epik_Ionization_Penalty_Neutral>  (1) 
8.3894707547109138e-13

>  <r_epik_State_Penalty>  (1) 
-0

>  <r_glide_ring_energy>  (1) 
0.00013676017923054334

>  <r_i_docking_score>  (1) 
-3.9938605965106078

>  <r_i_glide_ecoul>  (1) 
-1.8228544004259082

>  <r_i_glide_eff_state_penalty>  (1) 
-0

>  <r_i_glide_einternal>  (1) 
0

>  <r_i_glide_emodel>  (1) 
-16.579734985978089

>  <r_i_glide_emodel_strain>  (1) 
0

>  <r_i_glide_energy>  (1) 
-13.250283492461365

>  <r_i_glide_erotb>  (1) 
0

>  <r_i_glide_esite>  (1) 
0

>  <r_i_glide_evdw>  (1) 
-11.427429092035457

>  <r_i_glide_gscore>  (1) 
-3.9938605965106078

>  <r_i_glide_gscore_strain>  (1) 
0

>  <r_i_glide_hbond>  (1) 
-0.32000000000000001

>  <r_i_glide_ligand_efficiency>  (1) 
-0.66564343275176796

>  <r_i_glide_ligand_efficiency_ln>  (1) 
-1.4305890749302066

>  <r_i_glide_ligand_efficiency_sa>  (1) 
-1.2095543891367133

>  <r_i_glide_lipo>  (1) 
-0.15636089877335407

>  <r_i_glide_metal>  (1) 
-0

>  <r_i_glide_rewards>  (1) 
-2.6727000830715948

>  <r_lp_Energy>  (1) 
4.964817

>  <r_lp_tautomer_probability>  (1) 
1

>  <s_epik_cmdline>  (1) 
J2VwaWtfcHl0aG9uJywgJy1waHQnLCAnMS4wJywgJy1waCcsICc3LjQnLCAnLXRuJywgJzgnLCAnLW1hJywgJzUwMCcsICctaW1hZScsICc8aW5maWxlLm1hZT4nLCAnLW9tYWUnLCAnPG91dGZpbGUubWFlPic=

>  <s_epik_input>  (1) 
W0NIMl0xT1tDSDJdW0NIMl1PW0NIMl0x

>  <s_glide_docking_method>  (1) 
confgen

>  <s_i_glide_gridfile>  (1) 
gpcr_5ht2c_6bqh_protein_autoprepared_prepared

>  <s_lp_Force_Field>  (1) 
S-OPLS

>  <s_lp_Variant>  (1) 
Pocket2Mol_12-1

>  <s_m_source_file>  (1) 
generated_GPCR_5HT2C_ligand_Pocket2Mol_2026-06-23_prepared.sdf

>  <GenAI_Model>  (1) 
Pocket2Mol

>  <Protein>  (1) 
GPCR_5HT2C

$$$$
Pocket2Mol_14
     RDKit          3D

  0  0  0  0  0  0  0  0  0  0999 V3000
M  V30 BEGIN CTAB
M  V30 COUNTS 10 10 0 0 1
M  V30 BEGIN ATOM
M  V30 1 C 35.996161 33.908442 59.367757 0
M  V30 2 C 34.765268 33.103305 59.767760 0
M  V30 3 O 37.025185 33.247684 60.068309 0
M  V30 4 O 35.245138 32.343983 60.852909 0
M  V30 5 C 36.568356 32.382341 60.969610 0
M  V30 6 O 37.245135 31.737755 61.767758 0
M  V30 7 H 35.924197 34.941945 59.707468 0
M  V30 8 H 36.167424 33.896708 58.290953 0
M  V30 9 H 33.927228 33.737676 60.055968 0
M  V30 10 H 34.445193 32.435333 58.967797 0
M  V30 END ATOM
M  V30 BEGIN BOND
M  V30 1 1 2 1
M  V30 2 1 3 1
M  V30 3 1 4 2
M  V30 4 1 5 3
M  V30 5 1 5 4
M  V30 6 2 6 5
M  V30 7 1 7 1
M  V30 8 1 8 1
M  V30 9 1 9 2
M  V30 10 1 10 2
M  V30 END BOND
M  V30 END CTAB
M  END
>  <i_epik_Tot_Q>  (1) 
0

>  <i_epik_Tot_abs_Q>  (1) 
0

>  <i_i_glide_confnum>  (1) 
2

>  <i_i_glide_lignum>  (1) 
17

>  <i_i_glide_posenum>  (1) 
257

>  <i_i_glide_rotatable_bonds>  (1) 
0

>  <i_lp_mmshare_version>  (1) 
72125

>  <i_m_source_file_index>  (1) 
15

>  <i_f3d_flags>  (1) 
0

>  <num_sample>  (1) 
100

>  <b_lp_Chiralities_Consistent>  (1) 
1

>  <r_epik_Charging_Adjusted_Penalty>  (1) 
0

>  <r_epik_Ionization_Penalty>  (1) 
0

>  <r_epik_Ionization_Penalty_Charging>  (1) 
0

>  <r_epik_Ionization_Penalty_Neutral>  (1) 
0

>  <r_epik_State_Penalty>  (1) 
-0

>  <r_glide_ring_energy>  (1) 
0.00053108536261990756

>  <r_i_docking_score>  (1) 
-3.9728855301069044

>  <r_i_glide_ecoul>  (1) 
-3.2445461401733011

>  <r_i_glide_eff_state_penalty>  (1) 
-0

>  <r_i_glide_einternal>  (1) 
0

>  <r_i_glide_emodel>  (1) 
-19.601264341518007

>  <r_i_glide_emodel_strain>  (1) 
0

>  <r_i_glide_energy>  (1) 
-15.497621515838848

>  <r_i_glide_erotb>  (1) 
0

>  <r_i_glide_esite>  (1) 
-0.025549818314692919

>  <r_i_glide_evdw>  (1) 
-12.253075375665547

>  <r_i_glide_gscore>  (1) 
-3.9728855301069044

>  <r_i_glide_gscore_strain>  (1) 
0

>  <r_i_glide_hbond>  (1) 
-0.32000000000000001

>  <r_i_glide_ligand_efficiency>  (1) 
-0.66214758835115073

>  <r_i_glide_ligand_efficiency_ln>  (1) 
-1.4230758680673306

>  <r_i_glide_ligand_efficiency_sa>  (1) 
-1.2032020182870147

>  <r_i_glide_lipo>  (1) 
-0.17359016818933654

>  <r_i_glide_metal>  (1) 
-0

>  <r_i_glide_rewards>  (1) 
-2.354409853793602

>  <r_lp_Energy>  (1) 
-6.8415979999999994

>  <r_lp_tautomer_probability>  (1) 
1

>  <s_epik_Chemistry_Notes>  (1) 
This compound has an ester and may undergo hydrolysis at high or low pH.

>  <s_epik_cmdline>  (1) 
J2VwaWtfcHl0aG9uJywgJy1waHQnLCAnMS4wJywgJy1waCcsICc3LjQnLCAnLXRuJywgJzgnLCAnLW1hJywgJzUwMCcsICctaW1hZScsICc8aW5maWxlLm1hZT4nLCAnLW9tYWUnLCAnPG91dGZpbGUubWFlPic=

>  <s_epik_input>  (1) 
TzFbQ0gyXVtDSDJdT0MxPU8=

>  <s_glide_docking_method>  (1) 
confgen

>  <s_i_glide_gridfile>  (1) 
gpcr_5ht2c_6bqh_protein_autoprepared_prepared

>  <s_lp_Force_Field>  (1) 
S-OPLS

>  <s_lp_Variant>  (1) 
Pocket2Mol_14-1

>  <s_m_source_file>  (1) 
generated_GPCR_5HT2C_ligand_Pocket2Mol_2026-06-23_prepared.sdf

>  <GenAI_Model>  (1) 
Pocket2Mol

>  <Protein>  (1) 
GPCR_5HT2C

$$$$
Pocket2Mol_88
     RDKit          3D

  0  0  0  0  0  0  0  0  0  0999 V3000
M  V30 BEGIN CTAB
M  V30 COUNTS 15 15 0 0 1
M  V30 BEGIN ATOM
M  V30 1 C 39.037537 29.009933 56.851925 0
M  V30 2 C 37.903382 29.749939 57.566130 0
M  V30 3 C 38.954283 29.455283 55.384686 0
M  V30 4 C 37.873615 30.543268 55.341604 0
M  V30 5 N 37.645396 30.937755 56.740443 0 CHG=1
M  V30 6 H 38.954629 27.927991 56.964316 0
M  V30 7 H 39.998906 29.309184 57.271826 0
M  V30 8 H 37.001020 29.136821 57.583288 0
M  V30 9 H 38.151169 30.015524 58.594379 0
M  V30 10 H 39.916686 29.850552 55.055850 0
M  V30 11 H 38.698938 28.625854 54.723782 0
M  V30 12 H 38.152568 31.397960 54.723758 0
M  V30 13 H 36.943557 30.132885 54.944566 0
M  V30 14 H 38.303071 31.662529 56.984415 0
M  V30 15 H 36.683991 31.307594 56.870048 0
M  V30 END ATOM
M  V30 BEGIN BOND
M  V30 1 1 2 1
M  V30 2 1 3 1
M  V30 3 1 4 3
M  V30 4 1 5 2
M  V30 5 1 5 4
M  V30 6 1 6 1
M  V30 7 1 7 1
M  V30 8 1 8 2
M  V30 9 1 9 2
M  V30 10 1 10 3
M  V30 11 1 11 3
M  V30 12 1 12 4
M  V30 13 1 13 4
M  V30 14 1 14 5
M  V30 15 1 15 5
M  V30 END BOND
M  V30 END CTAB
M  END
>  <i_epik_Tot_Q>  (1) 
1

>  <i_epik_Tot_abs_Q>  (1) 
1

>  <i_i_glide_confnum>  (1) 
1

>  <i_i_glide_lignum>  (1) 
93

>  <i_i_glide_posenum>  (1) 
150

>  <i_i_glide_rotatable_bonds>  (1) 
0

>  <i_lp_mmshare_version>  (1) 
72125

>  <i_m_source_file_index>  (1) 
89

>  <i_f3d_flags>  (1) 
0

>  <num_sample>  (1) 
100

>  <b_lp_Chiralities_Consistent>  (1) 
1

>  <r_epik_Charging_Adjusted_Penalty>  (1) 
0.00011848530527437102

>  <r_epik_Ionization_Penalty>  (1) 
0.00011848530527437102

>  <r_epik_Ionization_Penalty_Charging>  (1) 
0.00011848530527437102

>  <r_epik_Ionization_Penalty_Neutral>  (1) 
0

>  <r_epik_State_Penalty>  (1) 
-0

>  <r_glide_ring_energy>  (1) 
0

>  <r_i_docking_score>  (1) 
-3.9700153823887776

>  <r_i_glide_ecoul>  (1) 
-6.2214892188783733

>  <r_i_glide_eff_state_penalty>  (1) 
-0

>  <r_i_glide_einternal>  (1) 
0

>  <r_i_glide_emodel>  (1) 
-18.403710476544358

>  <r_i_glide_emodel_strain>  (1) 
0.52919437867474883

>  <r_i_glide_energy>  (1) 
-12.734890517765688

>  <r_i_glide_erotb>  (1) 
0

>  <r_i_glide_esite>  (1) 
-0.10000000000000001

>  <r_i_glide_evdw>  (1) 
-6.5134012988873149

>  <r_i_glide_gscore>  (1) 
-3.9700153823887776

>  <r_i_glide_gscore_strain>  (1) 
0

>  <r_i_glide_hbond>  (1) 
-0.15397910557598354

>  <r_i_glide_ligand_efficiency>  (1) 
-0.79400307647775548

>  <r_i_glide_ligand_efficiency_ln>  (1) 
-1.5214063394539714

>  <r_i_glide_ligand_efficiency_sa>  (1) 
-1.3577261623642598

>  <r_i_glide_lipo>  (1) 
-0.20714282903667244

>  <r_i_glide_metal>  (1) 
-0

>  <r_i_glide_rewards>  (1) 
-2.25

>  <r_lp_Energy>  (1) 
17.726251999999999

>  <r_lp_tautomer_probability>  (1) 
1

>  <s_epik_cmdline>  (1) 
J2VwaWtfcHl0aG9uJywgJy1waHQnLCAnMS4wJywgJy1waCcsICc3LjQnLCAnLXRuJywgJzgnLCAnLW1hJywgJzUwMCcsICctaW1hZScsICc8aW5maWxlLm1hZT4nLCAnLW9tYWUnLCAnPG91dGZpbGUubWFlPic=

>  <s_epik_input>  (1) 
W0NIMl0xW0NIMl1bTkhdW0NIMl1bQ0gyXTE=

>  <s_glide_docking_method>  (1) 
confgen

>  <s_i_glide_gridfile>  (1) 
gpcr_5ht2c_6bqh_protein_autoprepared_prepared

>  <s_lp_Force_Field>  (1) 
S-OPLS

>  <s_lp_Variant>  (1) 
Pocket2Mol_88-1

>  <s_m_source_file>  (1) 
generated_GPCR_5HT2C_ligand_Pocket2Mol_2026-06-23_prepared.sdf

>  <GenAI_Model>  (1) 
Pocket2Mol

>  <Protein>  (1) 
GPCR_5HT2C

$$$$
Pocket2Mol_22
     RDKit          3D

  0  0  0  0  0  0  0  0  0  0999 V3000
M  V30 BEGIN CTAB
M  V30 COUNTS 10 9 0 0 1
M  V30 BEGIN ATOM
M  V30 1 C 39.645142 30.137758 52.635329 0
M  V30 2 C 40.032578 29.447532 51.332036 0
M  V30 3 C 40.445146 30.335702 50.167753 0
M  V30 4 O 40.010924 28.224210 51.225515 0
M  V30 5 H 39.467606 31.201329 52.476512 0
M  V30 6 H 40.444496 30.040877 53.368799 0
M  V30 7 H 38.739271 29.691661 53.045527 0
M  V30 8 H 40.355235 31.389651 50.426892 0
M  V30 9 H 41.478586 30.137765 49.882840 0
M  V30 10 H 39.804058 30.135555 49.309696 0
M  V30 END ATOM
M  V30 BEGIN BOND
M  V30 1 1 2 1
M  V30 2 1 3 2
M  V30 3 2 4 2
M  V30 4 1 5 1
M  V30 5 1 6 1
M  V30 6 1 7 1
M  V30 7 1 8 3
M  V30 8 1 9 3
M  V30 9 1 10 3
M  V30 END BOND
M  V30 END CTAB
M  END
>  <i_epik_Tot_Q>  (1) 
0

>  <i_epik_Tot_abs_Q>  (1) 
0

>  <i_i_glide_confnum>  (1) 
1

>  <i_i_glide_lignum>  (1) 
25

>  <i_i_glide_posenum>  (1) 
188

>  <i_i_glide_rotatable_bonds>  (1) 
0

>  <i_lp_mmshare_version>  (1) 
72125

>  <i_m_source_file_index>  (1) 
23

>  <i_f3d_flags>  (1) 
0

>  <num_sample>  (1) 
100

>  <b_lp_Chiralities_Consistent>  (1) 
1

>  <r_epik_Charging_Adjusted_Penalty>  (1) 
0

>  <r_epik_Ionization_Penalty>  (1) 
8.9301752364709234e-13

>  <r_epik_Ionization_Penalty_Charging>  (1) 
0

>  <r_epik_Ionization_Penalty_Neutral>  (1) 
8.9301752364709234e-13

>  <r_epik_State_Penalty>  (1) 
-0

>  <r_glide_ring_energy>  (1) 
0

>  <r_i_docking_score>  (1) 
-3.9630638502246076

>  <r_i_glide_ecoul>  (1) 
-0.28414401035739267

>  <r_i_glide_eff_state_penalty>  (1) 
-0

>  <r_i_glide_einternal>  (1) 
0

>  <r_i_glide_emodel>  (1) 
-14.622784613208632

>  <r_i_glide_emodel_strain>  (1) 
0.068076513327274824

>  <r_i_glide_energy>  (1) 
-11.492988983777362

>  <r_i_glide_erotb>  (1) 
0

>  <r_i_glide_esite>  (1) 
0

>  <r_i_glide_evdw>  (1) 
-11.20884497341997

>  <r_i_glide_gscore>  (1) 
-3.9630638502246076

>  <r_i_glide_gscore_strain>  (1) 
0

>  <r_i_glide_hbond>  (1) 
0

>  <r_i_glide_ligand_efficiency>  (1) 
-0.9907659625561519

>  <r_i_glide_ligand_efficiency_ln>  (1) 
-1.6607606818316987

>  <r_i_glide_ligand_efficiency_sa>  (1) 
-1.5727429312159211

>  <r_i_glide_lipo>  (1) 
-0.66000000000000003

>  <r_i_glide_metal>  (1) 
-0

>  <r_i_glide_rewards>  (1) 
-2.7000000000000002

>  <r_lp_Energy>  (1) 
-0.55031200000000002

>  <r_lp_tautomer_probability>  (1) 
1

>  <s_epik_cmdline>  (1) 
J2VwaWtfcHl0aG9uJywgJy1waHQnLCAnMS4wJywgJy1waCcsICc3LjQnLCAnLXRuJywgJzgnLCAnLW1hJywgJzUwMCcsICctaW1hZScsICc8aW5maWxlLm1hZT4nLCAnLW9tYWUnLCAnPG91dGZpbGUubWFlPic=

>  <s_epik_input>  (1) 
W0NIM11DKD1PKVtDSDNd

>  <s_glide_docking_method>  (1) 
confgen

>  <s_i_glide_gridfile>  (1) 
gpcr_5ht2c_6bqh_protein_autoprepared_prepared

>  <s_lp_Force_Field>  (1) 
S-OPLS

>  <s_lp_Variant>  (1) 
Pocket2Mol_22-1

>  <s_m_source_file>  (1) 
generated_GPCR_5HT2C_ligand_Pocket2Mol_2026-06-23_prepared.sdf

>  <GenAI_Model>  (1) 
Pocket2Mol

>  <Protein>  (1) 
GPCR_5HT2C

$$$$
Pocket2Mol_42
     RDKit          3D

  0  0  0  0  0  0  0  0  0  0999 V3000
M  V30 BEGIN CTAB
M  V30 COUNTS 10 9 0 0 1
M  V30 BEGIN ATOM
M  V30 1 C 36.845136 35.630895 59.767780 0
M  V30 2 O 37.532581 34.460215 60.167750 0
M  V30 3 C 36.863625 33.492968 60.832849 0
M  V30 4 C 37.788645 32.285608 61.155517 0
M  V30 5 O 35.673140 33.536973 61.157542 0
M  V30 6 O 38.978493 32.387879 60.772517 0
M  V30 7 O 37.245134 31.337758 61.767760 0 CHG=-1
M  V30 8 H 37.525456 36.304145 59.247156 0
M  V30 9 H 36.445158 36.159087 60.633679 0
M  V30 10 H 36.022658 35.387918 59.093479 0
M  V30 END ATOM
M  V30 BEGIN BOND
M  V30 1 1 2 1
M  V30 2 1 3 2
M  V30 3 1 4 3
M  V30 4 2 5 3
M  V30 5 2 6 4
M  V30 6 1 7 4
M  V30 7 1 8 1
M  V30 8 1 9 1
M  V30 9 1 10 1
M  V30 END BOND
M  V30 END CTAB
M  END
>  <i_epik_Tot_Q>  (1) 
-1

>  <i_epik_Tot_abs_Q>  (1) 
1

>  <i_i_glide_confnum>  (1) 
1

>  <i_i_glide_lignum>  (1) 
45

>  <i_i_glide_posenum>  (1) 
237

>  <i_i_glide_rotatable_bonds>  (1) 
2

>  <i_lp_mmshare_version>  (1) 
72125

>  <i_m_source_file_index>  (1) 
43

>  <i_f3d_flags>  (1) 
0

>  <num_sample>  (1) 
100

>  <b_lp_Chiralities_Consistent>  (1) 
1

>  <r_epik_Charging_Adjusted_Penalty>  (1) 
5.6581681309968728e-06

>  <r_epik_Ionization_Penalty>  (1) 
5.6581681309968728e-06

>  <r_epik_Ionization_Penalty_Charging>  (1) 
5.6581681309968728e-06

>  <r_epik_Ionization_Penalty_Neutral>  (1) 
0

>  <r_epik_State_Penalty>  (1) 
-0

>  <r_glide_ring_energy>  (1) 
0

>  <r_i_docking_score>  (1) 
-3.9618731773827691

>  <r_i_glide_ecoul>  (1) 
-3.646917233113343

>  <r_i_glide_eff_state_penalty>  (1) 
-0

>  <r_i_glide_einternal>  (1) 
0.012520823251968682

>  <r_i_glide_emodel>  (1) 
-18.202347451818152

>  <r_i_glide_emodel_strain>  (1) 
0

>  <r_i_glide_energy>  (1) 
-14.082668268328174

>  <r_i_glide_erotb>  (1) 
0

>  <r_i_glide_esite>  (1) 
0

>  <r_i_glide_evdw>  (1) 
-10.435751035214832

>  <r_i_glide_gscore>  (1) 
-3.9618731773827691

>  <r_i_glide_gscore_strain>  (1) 
0

>  <r_i_glide_hbond>  (1) 
-0.16

>  <r_i_glide_ligand_efficiency>  (1) 
-0.56598188248325276

>  <r_i_glide_ligand_efficiency_ln>  (1) 
-1.3448723745540074

>  <r_i_glide_ligand_efficiency_sa>  (1) 
-1.082684391886432

>  <r_i_glide_lipo>  (1) 
-0.1804132704175575

>  <r_i_glide_metal>  (1) 
-0

>  <r_i_glide_rewards>  (1) 
-2.5526347702374683

>  <r_lp_Energy>  (1) 
21.029133999999999

>  <r_lp_tautomer_probability>  (1) 
1

>  <s_epik_Chemistry_Notes>  (1) 
This compound has an ester and may undergo hydrolysis at high or low pH.

>  <s_epik_cmdline>  (1) 
J2VwaWtfcHl0aG9uJywgJy1waHQnLCAnMS4wJywgJy1waCcsICc3LjQnLCAnLXRuJywgJzgnLCAnLW1hJywgJzUwMCcsICctaW1hZScsICc8aW5maWxlLm1hZT4nLCAnLW9tYWUnLCAnPG91dGZpbGUubWFlPic=

>  <s_epik_input>  (1) 
W0NIM11PQyg9TylDKD1PKVtPSF0=

>  <s_glide_docking_method>  (1) 
confgen

>  <s_i_glide_gridfile>  (1) 
gpcr_5ht2c_6bqh_protein_autoprepared_prepared

>  <s_lp_Force_Field>  (1) 
S-OPLS

>  <s_lp_Variant>  (1) 
Pocket2Mol_42-1

>  <s_m_source_file>  (1) 
generated_GPCR_5HT2C_ligand_Pocket2Mol_2026-06-23_prepared.sdf

>  <GenAI_Model>  (1) 
Pocket2Mol

>  <Protein>  (1) 
GPCR_5HT2C

$$$$
Pocket2Mol_44
     RDKit          3D

  0  0  0  0  0  0  0  0  0  0999 V3000
M  V30 BEGIN CTAB
M  V30 COUNTS 10 9 0 0 1
M  V30 BEGIN ATOM
M  V30 1 C 35.917026 32.386771 60.061686 0
M  V30 2 O 36.396745 31.116250 60.345237 0
M  V30 3 C 36.734855 30.387037 59.173330 0
M  V30 4 O 34.691662 32.347608 59.374471 0
M  V30 5 H 36.631843 32.935023 59.446626 0
M  V30 6 H 35.747235 32.936949 60.992829 0
M  V30 7 H 37.101492 29.400874 59.451205 0
M  V30 8 H 35.866480 30.251162 58.528078 0
M  V30 9 H 37.518044 30.891633 58.606443 0
M  V30 10 H 34.884326 32.137327 58.444199 0
M  V30 END ATOM
M  V30 BEGIN BOND
M  V30 1 1 2 1
M  V30 2 1 3 2
M  V30 3 1 4 1
M  V30 4 1 5 1
M  V30 5 1 6 1
M  V30 6 1 7 3
M  V30 7 1 8 3
M  V30 8 1 9 3
M  V30 9 1 10 4
M  V30 END BOND
M  V30 END CTAB
M  END
>  <i_epik_Tot_Q>  (1) 
0

>  <i_epik_Tot_abs_Q>  (1) 
0

>  <i_i_glide_confnum>  (1) 
1

>  <i_i_glide_lignum>  (1) 
47

>  <i_i_glide_posenum>  (1) 
29

>  <i_i_glide_rotatable_bonds>  (1) 
2

>  <i_lp_mmshare_version>  (1) 
72125

>  <i_m_source_file_index>  (1) 
45

>  <i_f3d_flags>  (1) 
0

>  <num_sample>  (1) 
100

>  <b_lp_Chiralities_Consistent>  (1) 
1

>  <r_epik_Charging_Adjusted_Penalty>  (1) 
0

>  <r_epik_Ionization_Penalty>  (1) 
1.028953084229311e-06

>  <r_epik_Ionization_Penalty_Charging>  (1) 
0

>  <r_epik_Ionization_Penalty_Neutral>  (1) 
1.028953084229311e-06

>  <r_epik_State_Penalty>  (1) 
-0

>  <r_glide_ring_energy>  (1) 
0

>  <r_i_docking_score>  (1) 
-3.9286903498587167

>  <r_i_glide_ecoul>  (1) 
-8.1860526142147272

>  <r_i_glide_eff_state_penalty>  (1) 
-0

>  <r_i_glide_einternal>  (1) 
0.17150585855055489

>  <r_i_glide_emodel>  (1) 
-16.776688734783235

>  <r_i_glide_emodel_strain>  (1) 
0

>  <r_i_glide_energy>  (1) 
-12.576503662719976

>  <r_i_glide_erotb>  (1) 
0

>  <r_i_glide_esite>  (1) 
-0.07125990530124536

>  <r_i_glide_evdw>  (1) 
-4.3904510485052493

>  <r_i_glide_gscore>  (1) 
-3.9286903498587167

>  <r_i_glide_gscore_strain>  (1) 
0

>  <r_i_glide_hbond>  (1) 
-0.16

>  <r_i_glide_ligand_efficiency>  (1) 
-0.98217258746467917

>  <r_i_glide_ligand_efficiency_ln>  (1) 
-1.6463561301862935

>  <r_i_glide_ligand_efficiency_sa>  (1) 
-1.55910179855576

>  <r_i_glide_lipo>  (1) 
0

>  <r_i_glide_metal>  (1) 
-0

>  <r_i_glide_rewards>  (1) 
-2.25

>  <r_lp_Energy>  (1) 
5.5414079999999997

>  <r_lp_tautomer_probability>  (1) 
1

>  <s_epik_Chemistry_Notes>  (1) 
This compound contains an acetal/aminal-like group ( X-CH(R)-Y where X, Y are N, S, or O) that may be acid/base labile, releasing an aldehyde.

>  <s_epik_cmdline>  (1) 
J2VwaWtfcHl0aG9uJywgJy1waHQnLCAnMS4wJywgJy1waCcsICc3LjQnLCAnLXRuJywgJzgnLCAnLW1hJywgJzUwMCcsICctaW1hZScsICc8aW5maWxlLm1hZT4nLCAnLW9tYWUnLCAnPG91dGZpbGUubWFlPic=

>  <s_epik_input>  (1) 
W09IXVtDSDJdT1tDSDNd

>  <s_glide_docking_method>  (1) 
confgen

>  <s_i_glide_gridfile>  (1) 
gpcr_5ht2c_6bqh_protein_autoprepared_prepared

>  <s_lp_Force_Field>  (1) 
S-OPLS

>  <s_lp_Variant>  (1) 
Pocket2Mol_44-1

>  <s_m_source_file>  (1) 
generated_GPCR_5HT2C_ligand_Pocket2Mol_2026-06-23_prepared.sdf

>  <GenAI_Model>  (1) 
Pocket2Mol

>  <Protein>  (1) 
GPCR_5HT2C

$$$$
Pocket2Mol_22
     RDKit          3D

  0  0  0  0  0  0  0  0  0  0999 V3000
M  V30 BEGIN CTAB
M  V30 COUNTS 10 9 0 0 1
M  V30 BEGIN ATOM
M  V30 1 C 38.882037 28.937741 52.576348 0
M  V30 2 C 39.640682 28.881468 51.256876 0
M  V30 3 C 40.390854 30.137405 50.825390 0
M  V30 4 O 39.645121 27.865894 50.567987 0
M  V30 5 H 39.009011 29.904919 53.061830 0
M  V30 6 H 39.245135 28.162318 53.251351 0
M  V30 7 H 37.818768 28.770751 52.403087 0
M  V30 8 H 40.389670 30.890371 51.613761 0
M  V30 9 H 41.425684 29.894038 50.585648 0
M  V30 10 H 39.923980 30.565744 49.938056 0
M  V30 END ATOM
M  V30 BEGIN BOND
M  V30 1 1 2 1
M  V30 2 1 3 2
M  V30 3 2 4 2
M  V30 4 1 5 1
M  V30 5 1 6 1
M  V30 6 1 7 1
M  V30 7 1 8 3
M  V30 8 1 9 3
M  V30 9 1 10 3
M  V30 END BOND
M  V30 END CTAB
M  END
>  <i_epik_Tot_Q>  (1) 
0

>  <i_epik_Tot_abs_Q>  (1) 
0

>  <i_i_glide_confnum>  (1) 
1

>  <i_i_glide_lignum>  (1) 
25

>  <i_i_glide_posenum>  (1) 
10

>  <i_i_glide_rotatable_bonds>  (1) 
0

>  <i_lp_mmshare_version>  (1) 
72125

>  <i_m_source_file_index>  (1) 
23

>  <i_f3d_flags>  (1) 
0

>  <num_sample>  (1) 
100

>  <b_lp_Chiralities_Consistent>  (1) 
1

>  <r_epik_Charging_Adjusted_Penalty>  (1) 
0

>  <r_epik_Ionization_Penalty>  (1) 
8.9301752364709234e-13

>  <r_epik_Ionization_Penalty_Charging>  (1) 
0

>  <r_epik_Ionization_Penalty_Neutral>  (1) 
8.9301752364709234e-13

>  <r_epik_State_Penalty>  (1) 
-0

>  <r_glide_ring_energy>  (1) 
0

>  <r_i_docking_score>  (1) 
-3.9167486470392179

>  <r_i_glide_ecoul>  (1) 
0.43298072885089167

>  <r_i_glide_eff_state_penalty>  (1) 
-0

>  <r_i_glide_einternal>  (1) 
0

>  <r_i_glide_emodel>  (1) 
-15.125488830140823

>  <r_i_glide_emodel_strain>  (1) 
0.085476038031452872

>  <r_i_glide_energy>  (1) 
-12.050465350143046

>  <r_i_glide_erotb>  (1) 
0

>  <r_i_glide_esite>  (1) 
0

>  <r_i_glide_evdw>  (1) 
-12.483446078993937

>  <r_i_glide_gscore>  (1) 
-3.9167486470392179

>  <r_i_glide_gscore_strain>  (1) 
0

>  <r_i_glide_hbond>  (1) 
0

>  <r_i_glide_ligand_efficiency>  (1) 
-0.97918716175980447

>  <r_i_glide_ligand_efficiency_ln>  (1) 
-1.6413518427798166

>  <r_i_glide_ligand_efficiency_sa>  (1) 
-1.5543627306512691

>  <r_i_glide_lipo>  (1) 
-0.65752345241715449

>  <r_i_glide_metal>  (1) 
-0

>  <r_i_glide_rewards>  (1) 
-2.7000000000000002

>  <r_lp_Energy>  (1) 
-0.55031200000000002

>  <r_lp_tautomer_probability>  (1) 
1

>  <s_epik_cmdline>  (1) 
J2VwaWtfcHl0aG9uJywgJy1waHQnLCAnMS4wJywgJy1waCcsICc3LjQnLCAnLXRuJywgJzgnLCAnLW1hJywgJzUwMCcsICctaW1hZScsICc8aW5maWxlLm1hZT4nLCAnLW9tYWUnLCAnPG91dGZpbGUubWFlPic=

>  <s_epik_input>  (1) 
W0NIM11DKD1PKVtDSDNd

>  <s_glide_docking_method>  (1) 
confgen

>  <s_i_glide_gridfile>  (1) 
gpcr_5ht2c_6bqh_protein_autoprepared_prepared

>  <s_lp_Force_Field>  (1) 
S-OPLS

>  <s_lp_Variant>  (1) 
Pocket2Mol_22-1

>  <s_m_source_file>  (1) 
generated_GPCR_5HT2C_ligand_Pocket2Mol_2026-06-23_prepared.sdf

>  <GenAI_Model>  (1) 
Pocket2Mol

>  <Protein>  (1) 
GPCR_5HT2C

$$$$
Pocket2Mol_12
     RDKit          3D

  0  0  0  0  0  0  0  0  0  0999 V3000
M  V30 BEGIN CTAB
M  V30 COUNTS 14 14 0 0 1
M  V30 BEGIN ATOM
M  V30 1 C 35.951143 31.721886 60.521640 0
M  V30 2 O 36.817530 31.957211 61.626090 0
M  V30 3 C 37.763113 32.974612 61.317643 0
M  V30 4 C 35.202974 33.020071 60.167740 0
M  V30 5 O 36.148087 34.039641 59.868972 0
M  V30 6 C 37.017004 34.276334 60.967756 0
M  V30 7 H 36.519730 31.358628 59.663865 0
M  V30 8 H 35.245135 30.937769 60.792391 0
M  V30 9 H 38.413529 33.130218 62.178150 0
M  V30 10 H 38.399162 32.659030 60.489001 0
M  V30 11 H 34.561424 32.862851 59.300443 0
M  V30 12 H 34.558372 33.336336 60.989653 0
M  V30 13 H 36.444494 34.640843 61.821517 0
M  V30 14 H 37.725810 35.059662 60.698467 0
M  V30 END ATOM
M  V30 BEGIN BOND
M  V30 1 1 2 1
M  V30 2 1 3 2
M  V30 3 1 4 1
M  V30 4 1 5 4
M  V30 5 1 6 3
M  V30 6 1 6 5
M  V30 7 1 7 1
M  V30 8 1 8 1
M  V30 9 1 9 3
M  V30 10 1 10 3
M  V30 11 1 11 4
M  V30 12 1 12 4
M  V30 13 1 13 6
M  V30 14 1 14 6
M  V30 END BOND
M  V30 END CTAB
M  END
>  <i_epik_Tot_Q>  (1) 
0

>  <i_epik_Tot_abs_Q>  (1) 
0

>  <i_i_glide_confnum>  (1) 
2

>  <i_i_glide_lignum>  (1) 
15

>  <i_i_glide_posenum>  (1) 
43

>  <i_i_glide_rotatable_bonds>  (1) 
0

>  <i_lp_mmshare_version>  (1) 
72125

>  <i_m_source_file_index>  (1) 
13

>  <i_f3d_flags>  (1) 
0

>  <num_sample>  (1) 
100

>  <b_lp_Chiralities_Consistent>  (1) 
1

>  <r_epik_Charging_Adjusted_Penalty>  (1) 
0

>  <r_epik_Ionization_Penalty>  (1) 
8.3894707547109138e-13

>  <r_epik_Ionization_Penalty_Charging>  (1) 
0

>  <r_epik_Ionization_Penalty_Neutral>  (1) 
8.3894707547109138e-13

>  <r_epik_State_Penalty>  (1) 
-0

>  <r_glide_ring_energy>  (1) 
0.00013676017923054334

>  <r_i_docking_score>  (1) 
-3.869106408654309

>  <r_i_glide_ecoul>  (1) 
-1.6750015493447872

>  <r_i_glide_eff_state_penalty>  (1) 
-0

>  <r_i_glide_einternal>  (1) 
0

>  <r_i_glide_emodel>  (1) 
-16.621103551263687

>  <r_i_glide_emodel_strain>  (1) 
0

>  <r_i_glide_energy>  (1) 
-13.39565243709008

>  <r_i_glide_erotb>  (1) 
0

>  <r_i_glide_esite>  (1) 
0

>  <r_i_glide_evdw>  (1) 
-11.720650887745293

>  <r_i_glide_gscore>  (1) 
-3.869106408654309

>  <r_i_glide_gscore_strain>  (1) 
0

>  <r_i_glide_hbond>  (1) 
-0.32000000000000001

>  <r_i_glide_ligand_efficiency>  (1) 
-0.64485106810905146

>  <r_i_glide_ligand_efficiency_ln>  (1) 
-1.385902493141413

>  <r_i_glide_ligand_efficiency_sa>  (1) 
-1.1717721551707583

>  <r_i_glide_lipo>  (1) 
-0.30001056162572232

>  <r_i_glide_metal>  (1) 
-0

>  <r_i_glide_rewards>  (1) 
-2.4118130702396039

>  <r_lp_Energy>  (1) 
4.964817

>  <r_lp_tautomer_probability>  (1) 
1

>  <s_epik_cmdline>  (1) 
J2VwaWtfcHl0aG9uJywgJy1waHQnLCAnMS4wJywgJy1waCcsICc3LjQnLCAnLXRuJywgJzgnLCAnLW1hJywgJzUwMCcsICctaW1hZScsICc8aW5maWxlLm1hZT4nLCAnLW9tYWUnLCAnPG91dGZpbGUubWFlPic=

>  <s_epik_input>  (1) 
W0NIMl0xT1tDSDJdW0NIMl1PW0NIMl0x

>  <s_glide_docking_method>  (1) 
confgen

>  <s_i_glide_gridfile>  (1) 
gpcr_5ht2c_6bqh_protein_autoprepared_prepared

>  <s_lp_Force_Field>  (1) 
S-OPLS

>  <s_lp_Variant>  (1) 
Pocket2Mol_12-1

>  <s_m_source_file>  (1) 
generated_GPCR_5HT2C_ligand_Pocket2Mol_2026-06-23_prepared.sdf

>  <GenAI_Model>  (1) 
Pocket2Mol

>  <Protein>  (1) 
GPCR_5HT2C

$$$$
Pocket2Mol_22
     RDKit          3D

  0  0  0  0  0  0  0  0  0  0999 V3000
M  V30 BEGIN CTAB
M  V30 COUNTS 10 9 0 0 1
M  V30 BEGIN ATOM
M  V30 1 C 36.586960 33.983019 60.936517 0
M  V30 2 C 35.667392 32.784085 60.749144 0
M  V30 3 C 34.515739 32.937754 59.767579 0
M  V30 4 O 35.846912 31.736434 61.367736 0
M  V30 5 H 36.782143 34.466910 59.979401 0
M  V30 6 H 37.538824 33.669481 61.365494 0
M  V30 7 H 36.126033 34.708125 61.606885 0
M  V30 8 H 34.799038 33.595959 58.946310 0
M  V30 9 H 34.245382 31.969397 59.346528 0
M  V30 10 H 33.642836 33.358091 60.265254 0
M  V30 END ATOM
M  V30 BEGIN BOND
M  V30 1 1 2 1
M  V30 2 1 3 2
M  V30 3 2 4 2
M  V30 4 1 5 1
M  V30 5 1 6 1
M  V30 6 1 7 1
M  V30 7 1 8 3
M  V30 8 1 9 3
M  V30 9 1 10 3
M  V30 END BOND
M  V30 END CTAB
M  END
>  <i_epik_Tot_Q>  (1) 
0

>  <i_epik_Tot_abs_Q>  (1) 
0

>  <i_i_glide_confnum>  (1) 
1

>  <i_i_glide_lignum>  (1) 
25

>  <i_i_glide_posenum>  (1) 
263

>  <i_i_glide_rotatable_bonds>  (1) 
0

>  <i_lp_mmshare_version>  (1) 
72125

>  <i_m_source_file_index>  (1) 
23

>  <i_f3d_flags>  (1) 
0

>  <num_sample>  (1) 
100

>  <b_lp_Chiralities_Consistent>  (1) 
1

>  <r_epik_Charging_Adjusted_Penalty>  (1) 
0

>  <r_epik_Ionization_Penalty>  (1) 
8.9301752364709234e-13

>  <r_epik_Ionization_Penalty_Charging>  (1) 
0

>  <r_epik_Ionization_Penalty_Neutral>  (1) 
8.9301752364709234e-13

>  <r_epik_State_Penalty>  (1) 
-0

>  <r_glide_ring_energy>  (1) 
0

>  <r_i_docking_score>  (1) 
-3.8654184704330645

>  <r_i_glide_ecoul>  (1) 
-3.0141154133242871

>  <r_i_glide_eff_state_penalty>  (1) 
-0

>  <r_i_glide_einternal>  (1) 
0

>  <r_i_glide_emodel>  (1) 
-15.633385070569636

>  <r_i_glide_emodel_strain>  (1) 
0.0061231783381148763

>  <r_i_glide_energy>  (1) 
-12.520428033734918

>  <r_i_glide_erotb>  (1) 
0

>  <r_i_glide_esite>  (1) 
0

>  <r_i_glide_evdw>  (1) 
-9.5063126204106307

>  <r_i_glide_gscore>  (1) 
-3.8654184704330645

>  <r_i_glide_gscore_strain>  (1) 
0

>  <r_i_glide_hbond>  (1) 
-0.32000000000000001

>  <r_i_glide_ligand_efficiency>  (1) 
-0.96635461760826613

>  <r_i_glide_ligand_efficiency_ln>  (1) 
-1.6198414300484787

>  <r_i_glide_ligand_efficiency_sa>  (1) 
-1.5339923365656887

>  <r_i_glide_lipo>  (1) 
-0.28987348969089016

>  <r_i_glide_metal>  (1) 
-0

>  <r_i_glide_rewards>  (1) 
-2.3281120377229998

>  <r_lp_Energy>  (1) 
-0.55031200000000002

>  <r_lp_tautomer_probability>  (1) 
1

>  <s_epik_cmdline>  (1) 
J2VwaWtfcHl0aG9uJywgJy1waHQnLCAnMS4wJywgJy1waCcsICc3LjQnLCAnLXRuJywgJzgnLCAnLW1hJywgJzUwMCcsICctaW1hZScsICc8aW5maWxlLm1hZT4nLCAnLW9tYWUnLCAnPG91dGZpbGUubWFlPic=

>  <s_epik_input>  (1) 
W0NIM11DKD1PKVtDSDNd

>  <s_glide_docking_method>  (1) 
confgen

>  <s_i_glide_gridfile>  (1) 
gpcr_5ht2c_6bqh_protein_autoprepared_prepared

>  <s_lp_Force_Field>  (1) 
S-OPLS

>  <s_lp_Variant>  (1) 
Pocket2Mol_22-1

>  <s_m_source_file>  (1) 
generated_GPCR_5HT2C_ligand_Pocket2Mol_2026-06-23_prepared.sdf

>  <GenAI_Model>  (1) 
Pocket2Mol

>  <Protein>  (1) 
GPCR_5HT2C

$$$$
Pocket2Mol_26
     RDKit          3D

  0  0  0  0  0  0  0  0  0  0999 V3000
M  V30 BEGIN CTAB
M  V30 COUNTS 16 16 0 0 1
M  V30 BEGIN ATOM
M  V30 1 C 37.874864 29.766210 54.490545 0
M  V30 2 C 37.617776 31.195044 54.726077 0
M  V30 3 C 38.045137 29.036777 55.538525 0
M  V30 4 C 37.958986 29.726615 56.835343 0
M  V30 5 N 37.645135 31.120796 56.263414 0 CHG=1
M  V30 6 C 38.448910 32.198544 56.875086 0
M  V30 7 H 37.914426 29.377098 53.482603 0
M  V30 8 H 38.407026 31.819329 54.302443 0
M  V30 9 H 36.639822 31.502646 54.356626 0
M  V30 10 H 38.242004 27.975040 55.497412 0
M  V30 11 H 37.144094 29.345138 57.452770 0
M  V30 12 H 38.910031 29.680430 57.369192 0
M  V30 13 H 39.506193 32.077719 56.635864 0
M  V30 14 H 38.118332 33.173093 56.511625 0
M  V30 15 H 38.337154 32.193637 57.959746 0
M  V30 16 H 36.675601 31.337004 56.556785 0
M  V30 END ATOM
M  V30 BEGIN BOND
M  V30 1 1 2 1
M  V30 2 2 3 1
M  V30 3 1 4 3
M  V30 4 1 5 2
M  V30 5 1 5 4
M  V30 6 1 6 5
M  V30 7 1 7 1
M  V30 8 1 8 2
M  V30 9 1 9 2
M  V30 10 1 10 3
M  V30 11 1 11 4
M  V30 12 1 12 4
M  V30 13 1 13 6
M  V30 14 1 14 6
M  V30 15 1 15 6
M  V30 16 1 16 5
M  V30 END BOND
M  V30 END CTAB
M  END
>  <i_epik_Tot_Q>  (1) 
1

>  <i_epik_Tot_abs_Q>  (1) 
1

>  <i_i_glide_confnum>  (1) 
1

>  <i_i_glide_lignum>  (1) 
29

>  <i_i_glide_posenum>  (1) 
232

>  <i_i_glide_rotatable_bonds>  (1) 
0

>  <i_lp_mmshare_version>  (1) 
72125

>  <i_m_source_file_index>  (1) 
27

>  <i_f3d_flags>  (1) 
0

>  <num_sample>  (1) 
100

>  <b_lp_Chiralities_Consistent>  (1) 
1

>  <r_epik_Charging_Adjusted_Penalty>  (1) 
0.0014863909170882658

>  <r_epik_Ionization_Penalty>  (1) 
0.0014863909170882658

>  <r_epik_Ionization_Penalty_Charging>  (1) 
0.0014863909170882658

>  <r_epik_Ionization_Penalty_Neutral>  (1) 
0

>  <r_epik_State_Penalty>  (1) 
-0

>  <r_glide_ring_energy>  (1) 
0

>  <r_i_docking_score>  (1) 
-3.8113241234814144

>  <r_i_glide_ecoul>  (1) 
-5.427007253838978

>  <r_i_glide_eff_state_penalty>  (1) 
-0

>  <r_i_glide_einternal>  (1) 
0

>  <r_i_glide_emodel>  (1) 
-19.188429867062112

>  <r_i_glide_emodel_strain>  (1) 
0

>  <r_i_glide_energy>  (1) 
-13.394354315771228

>  <r_i_glide_erotb>  (1) 
0

>  <r_i_glide_esite>  (1) 
-0.10000000000000001

>  <r_i_glide_evdw>  (1) 
-7.9673470619322506

>  <r_i_glide_gscore>  (1) 
-3.8113241234814144

>  <r_i_glide_gscore_strain>  (1) 
0

>  <r_i_glide_hbond>  (1) 
-0.16226328559270958

>  <r_i_glide_ligand_efficiency>  (1) 
-0.63522068724690239

>  <r_i_glide_ligand_efficiency_ln>  (1) 
-1.3652050491782795

>  <r_i_glide_ligand_efficiency_sa>  (1) 
-1.1542725917893306

>  <r_i_glide_lipo>  (1) 
-0.086642396716245379

>  <r_i_glide_metal>  (1) 
-0

>  <r_i_glide_rewards>  (1) 
-2.25

>  <r_lp_Energy>  (1) 
6.8415840000000001

>  <r_lp_tautomer_probability>  (1) 
1

>  <s_epik_cmdline>  (1) 
J2VwaWtfcHl0aG9uJywgJy1waHQnLCAnMS4wJywgJy1waCcsICc3LjQnLCAnLXRuJywgJzgnLCAnLW1hJywgJzUwMCcsICctaW1hZScsICc8aW5maWxlLm1hZT4nLCAnLW9tYWUnLCAnPG91dGZpbGUubWFlPic=

>  <s_epik_input>  (1) 
W0NIMl0xW0NIXT1bQ0hdW0NIMl1OMVtDSDNd

>  <s_glide_docking_method>  (1) 
confgen

>  <s_i_glide_gridfile>  (1) 
gpcr_5ht2c_6bqh_protein_autoprepared_prepared

>  <s_lp_Force_Field>  (1) 
S-OPLS

>  <s_lp_Variant>  (1) 
Pocket2Mol_26-1

>  <s_m_source_file>  (1) 
generated_GPCR_5HT2C_ligand_Pocket2Mol_2026-06-23_prepared.sdf

>  <GenAI_Model>  (1) 
Pocket2Mol

>  <Protein>  (1) 
GPCR_5HT2C

$$$$
Pocket2Mol_22
     RDKit          3D

  0  0  0  0  0  0  0  0  0  0999 V3000
M  V30 BEGIN CTAB
M  V30 COUNTS 10 9 0 0 1
M  V30 BEGIN ATOM
M  V30 1 C 37.245186 32.584469 59.576718 0
M  V30 2 C 35.938063 32.406380 60.336711 0
M  V30 3 C 34.703506 33.091181 59.767760 0
M  V30 4 O 35.882344 31.737752 61.367760 0
M  V30 5 H 37.144187 32.188370 58.566198 0
M  V30 6 H 38.055834 32.055305 60.077348 0
M  V30 7 H 37.505427 33.640765 59.511193 0
M  V30 8 H 34.204882 32.432389 59.056315 0
M  V30 9 H 34.002950 33.338113 60.564692 0
M  V30 10 H 34.978433 34.010246 59.250083 0
M  V30 END ATOM
M  V30 BEGIN BOND
M  V30 1 1 2 1
M  V30 2 1 3 2
M  V30 3 2 4 2
M  V30 4 1 5 1
M  V30 5 1 6 1
M  V30 6 1 7 1
M  V30 7 1 8 3
M  V30 8 1 9 3
M  V30 9 1 10 3
M  V30 END BOND
M  V30 END CTAB
M  END
>  <i_epik_Tot_Q>  (1) 
0

>  <i_epik_Tot_abs_Q>  (1) 
0

>  <i_i_glide_confnum>  (1) 
1

>  <i_i_glide_lignum>  (1) 
25

>  <i_i_glide_posenum>  (1) 
282

>  <i_i_glide_rotatable_bonds>  (1) 
0

>  <i_lp_mmshare_version>  (1) 
72125

>  <i_m_source_file_index>  (1) 
23

>  <i_f3d_flags>  (1) 
0

>  <num_sample>  (1) 
100

>  <b_lp_Chiralities_Consistent>  (1) 
1

>  <r_epik_Charging_Adjusted_Penalty>  (1) 
0

>  <r_epik_Ionization_Penalty>  (1) 
8.9301752364709234e-13

>  <r_epik_Ionization_Penalty_Charging>  (1) 
0

>  <r_epik_Ionization_Penalty_Neutral>  (1) 
8.9301752364709234e-13

>  <r_epik_State_Penalty>  (1) 
-0

>  <r_glide_ring_energy>  (1) 
0

>  <r_i_docking_score>  (1) 
-3.7802790669421218

>  <r_i_glide_ecoul>  (1) 
-3.4430203911504251

>  <r_i_glide_eff_state_penalty>  (1) 
-0

>  <r_i_glide_einternal>  (1) 
0

>  <r_i_glide_emodel>  (1) 
-15.448359096422674

>  <r_i_glide_emodel_strain>  (1) 
0.0019805830099070554

>  <r_i_glide_energy>  (1) 
-12.399960079986474

>  <r_i_glide_erotb>  (1) 
0

>  <r_i_glide_esite>  (1) 
-0.051219725664948847

>  <r_i_glide_evdw>  (1) 
-8.9569396888360497

>  <r_i_glide_gscore>  (1) 
-3.7802790669421218

>  <r_i_glide_gscore_strain>  (1) 
0

>  <r_i_glide_hbond>  (1) 
-0.32000000000000001

>  <r_i_glide_ligand_efficiency>  (1) 
-0.94506976673553045

>  <r_i_glide_ligand_efficiency_ln>  (1) 
-1.5841629299949536

>  <r_i_glide_ligand_efficiency_sa>  (1) 
-1.5002047418993218

>  <r_i_glide_lipo>  (1) 
-0.1947592981628066

>  <r_i_glide_metal>  (1) 
-0

>  <r_i_glide_rewards>  (1) 
-2.25

>  <r_lp_Energy>  (1) 
-0.55031200000000002

>  <r_lp_tautomer_probability>  (1) 
1

>  <s_epik_cmdline>  (1) 
J2VwaWtfcHl0aG9uJywgJy1waHQnLCAnMS4wJywgJy1waCcsICc3LjQnLCAnLXRuJywgJzgnLCAnLW1hJywgJzUwMCcsICctaW1hZScsICc8aW5maWxlLm1hZT4nLCAnLW9tYWUnLCAnPG91dGZpbGUubWFlPic=

>  <s_epik_input>  (1) 
W0NIM11DKD1PKVtDSDNd

>  <s_glide_docking_method>  (1) 
confgen

>  <s_i_glide_gridfile>  (1) 
gpcr_5ht2c_6bqh_protein_autoprepared_prepared

>  <s_lp_Force_Field>  (1) 
S-OPLS

>  <s_lp_Variant>  (1) 
Pocket2Mol_22-1

>  <s_m_source_file>  (1) 
generated_GPCR_5HT2C_ligand_Pocket2Mol_2026-06-23_prepared.sdf

>  <GenAI_Model>  (1) 
Pocket2Mol

>  <Protein>  (1) 
GPCR_5HT2C

$$$$
Pocket2Mol_42
     RDKit          3D

  0  0  0  0  0  0  0  0  0  0999 V3000
M  V30 BEGIN CTAB
M  V30 COUNTS 10 9 0 0 1
M  V30 BEGIN ATOM
M  V30 1 C 34.856733 33.737745 59.370477 0
M  V30 2 O 36.111128 33.461307 59.964312 0
M  V30 3 C 36.207520 32.448369 60.849426 0
M  V30 4 C 37.667213 32.267995 61.347604 0
M  V30 5 O 35.272871 31.738937 61.233435 0
M  V30 6 O 38.511020 33.068385 60.880058 0
M  V30 7 O 37.844364 31.338960 62.167759 0 CHG=-1
M  V30 8 H 34.968739 34.466685 58.568011 0
M  V30 9 H 34.164454 34.137738 60.109488 0
M  V30 10 H 34.415535 32.831131 58.956123 0
M  V30 END ATOM
M  V30 BEGIN BOND
M  V30 1 1 2 1
M  V30 2 1 3 2
M  V30 3 1 4 3
M  V30 4 2 5 3
M  V30 5 2 6 4
M  V30 6 1 7 4
M  V30 7 1 8 1
M  V30 8 1 9 1
M  V30 9 1 10 1
M  V30 END BOND
M  V30 END CTAB
M  END
>  <i_epik_Tot_Q>  (1) 
-1

>  <i_epik_Tot_abs_Q>  (1) 
1

>  <i_i_glide_confnum>  (1) 
1

>  <i_i_glide_lignum>  (1) 
45

>  <i_i_glide_posenum>  (1) 
183

>  <i_i_glide_rotatable_bonds>  (1) 
2

>  <i_lp_mmshare_version>  (1) 
72125

>  <i_m_source_file_index>  (1) 
43

>  <i_f3d_flags>  (1) 
0

>  <num_sample>  (1) 
100

>  <b_lp_Chiralities_Consistent>  (1) 
1

>  <r_epik_Charging_Adjusted_Penalty>  (1) 
5.6581681309968728e-06

>  <r_epik_Ionization_Penalty>  (1) 
5.6581681309968728e-06

>  <r_epik_Ionization_Penalty_Charging>  (1) 
5.6581681309968728e-06

>  <r_epik_Ionization_Penalty_Neutral>  (1) 
0

>  <r_epik_State_Penalty>  (1) 
-0

>  <r_glide_ring_energy>  (1) 
0

>  <r_i_docking_score>  (1) 
-3.7664967721030584

>  <r_i_glide_ecoul>  (1) 
-3.1143731848555043

>  <r_i_glide_eff_state_penalty>  (1) 
-0

>  <r_i_glide_einternal>  (1) 
0.013196296126358309

>  <r_i_glide_emodel>  (1) 
-18.165179730709117

>  <r_i_glide_emodel_strain>  (1) 
0

>  <r_i_glide_energy>  (1) 
-14.24930548475122

>  <r_i_glide_erotb>  (1) 
0

>  <r_i_glide_esite>  (1) 
-0.019470430362168716

>  <r_i_glide_evdw>  (1) 
-11.134932299895716

>  <r_i_glide_gscore>  (1) 
-3.7664967721030584

>  <r_i_glide_gscore_strain>  (1) 
0

>  <r_i_glide_hbond>  (1) 
-0.27693165670343461

>  <r_i_glide_ligand_efficiency>  (1) 
-0.53807096744329408

>  <r_i_glide_ligand_efficiency_ln>  (1) 
-1.2785511375188712

>  <r_i_glide_ligand_efficiency_sa>  (1) 
-1.0292927321667842

>  <r_i_glide_lipo>  (1) 
-0.0042299062947684252

>  <r_i_glide_metal>  (1) 
-0

>  <r_i_glide_rewards>  (1) 
-2.4419621860195755

>  <r_lp_Energy>  (1) 
21.029133999999999

>  <r_lp_tautomer_probability>  (1) 
1

>  <s_epik_Chemistry_Notes>  (1) 
This compound has an ester and may undergo hydrolysis at high or low pH.

>  <s_epik_cmdline>  (1) 
J2VwaWtfcHl0aG9uJywgJy1waHQnLCAnMS4wJywgJy1waCcsICc3LjQnLCAnLXRuJywgJzgnLCAnLW1hJywgJzUwMCcsICctaW1hZScsICc8aW5maWxlLm1hZT4nLCAnLW9tYWUnLCAnPG91dGZpbGUubWFlPic=

>  <s_epik_input>  (1) 
W0NIM11PQyg9TylDKD1PKVtPSF0=

>  <s_glide_docking_method>  (1) 
confgen

>  <s_i_glide_gridfile>  (1) 
gpcr_5ht2c_6bqh_protein_autoprepared_prepared

>  <s_lp_Force_Field>  (1) 
S-OPLS

>  <s_lp_Variant>  (1) 
Pocket2Mol_42-1

>  <s_m_source_file>  (1) 
generated_GPCR_5HT2C_ligand_Pocket2Mol_2026-06-23_prepared.sdf

>  <GenAI_Model>  (1) 
Pocket2Mol

>  <Protein>  (1) 
GPCR_5HT2C

$$$$
Pocket2Mol_44
     RDKit          3D

  0  0  0  0  0  0  0  0  0  0999 V3000
M  V30 BEGIN CTAB
M  V30 COUNTS 10 9 0 0 1
M  V30 BEGIN ATOM
M  V30 1 C 36.688567 30.930372 59.938625 0
M  V30 2 O 35.799829 31.580634 60.789223 0
M  V30 3 C 35.050891 32.605931 60.150231 0
M  V30 4 O 36.045121 30.137836 58.967760 0
M  V30 5 H 37.308242 30.264178 60.538869 0
M  V30 6 H 37.339997 31.640521 59.425692 0
M  V30 7 H 34.445184 33.129985 60.889077 0
M  V30 8 H 35.702377 33.341567 59.676706 0
M  V30 9 H 34.378920 32.198932 59.393159 0
M  V30 10 H 35.710043 30.722988 58.285672 0
M  V30 END ATOM
M  V30 BEGIN BOND
M  V30 1 1 2 1
M  V30 2 1 3 2
M  V30 3 1 4 1
M  V30 4 1 5 1
M  V30 5 1 6 1
M  V30 6 1 7 3
M  V30 7 1 8 3
M  V30 8 1 9 3
M  V30 9 1 10 4
M  V30 END BOND
M  V30 END CTAB
M  END
>  <i_epik_Tot_Q>  (1) 
0

>  <i_epik_Tot_abs_Q>  (1) 
0

>  <i_i_glide_confnum>  (1) 
1

>  <i_i_glide_lignum>  (1) 
47

>  <i_i_glide_posenum>  (1) 
99

>  <i_i_glide_rotatable_bonds>  (1) 
2

>  <i_lp_mmshare_version>  (1) 
72125

>  <i_m_source_file_index>  (1) 
45

>  <i_f3d_flags>  (1) 
0

>  <num_sample>  (1) 
100

>  <b_lp_Chiralities_Consistent>  (1) 
1

>  <r_epik_Charging_Adjusted_Penalty>  (1) 
0

>  <r_epik_Ionization_Penalty>  (1) 
1.028953084229311e-06

>  <r_epik_Ionization_Penalty_Charging>  (1) 
0

>  <r_epik_Ionization_Penalty_Neutral>  (1) 
1.028953084229311e-06

>  <r_epik_State_Penalty>  (1) 
-0

>  <r_glide_ring_energy>  (1) 
0

>  <r_i_docking_score>  (1) 
-3.7501834778535441

>  <r_i_glide_ecoul>  (1) 
-5.673560972201189

>  <r_i_glide_eff_state_penalty>  (1) 
-0

>  <r_i_glide_einternal>  (1) 
0.13519170971215155

>  <r_i_glide_emodel>  (1) 
-17.174879397218362

>  <r_i_glide_emodel_strain>  (1) 
0

>  <r_i_glide_energy>  (1) 
-13.151276290491113

>  <r_i_glide_erotb>  (1) 
0

>  <r_i_glide_esite>  (1) 
-0.063090381102100634

>  <r_i_glide_evdw>  (1) 
-7.4777153182899241

>  <r_i_glide_gscore>  (1) 
-3.7501834778535441

>  <r_i_glide_gscore_strain>  (1) 
0

>  <r_i_glide_hbond>  (1) 
-0.21217318500676924

>  <r_i_glide_ligand_efficiency>  (1) 
-0.93754586946338603

>  <r_i_glide_ligand_efficiency_ln>  (1) 
-1.5715510789262304

>  <r_i_glide_ligand_efficiency_sa>  (1) 
-1.4882612994546192

>  <r_i_glide_lipo>  (1) 
0

>  <r_i_glide_metal>  (1) 
-0

>  <r_i_glide_rewards>  (1) 
-2.25

>  <r_lp_Energy>  (1) 
5.5414079999999997

>  <r_lp_tautomer_probability>  (1) 
1

>  <s_epik_Chemistry_Notes>  (1) 
This compound contains an acetal/aminal-like group ( X-CH(R)-Y where X, Y are N, S, or O) that may be acid/base labile, releasing an aldehyde.

>  <s_epik_cmdline>  (1) 
J2VwaWtfcHl0aG9uJywgJy1waHQnLCAnMS4wJywgJy1waCcsICc3LjQnLCAnLXRuJywgJzgnLCAnLW1hJywgJzUwMCcsICctaW1hZScsICc8aW5maWxlLm1hZT4nLCAnLW9tYWUnLCAnPG91dGZpbGUubWFlPic=

>  <s_epik_input>  (1) 
W09IXVtDSDJdT1tDSDNd

>  <s_glide_docking_method>  (1) 
confgen

>  <s_i_glide_gridfile>  (1) 
gpcr_5ht2c_6bqh_protein_autoprepared_prepared

>  <s_lp_Force_Field>  (1) 
S-OPLS

>  <s_lp_Variant>  (1) 
Pocket2Mol_44-1

>  <s_m_source_file>  (1) 
generated_GPCR_5HT2C_ligand_Pocket2Mol_2026-06-23_prepared.sdf

>  <GenAI_Model>  (1) 
Pocket2Mol

>  <Protein>  (1) 
GPCR_5HT2C

$$$$
Pocket2Mol_11
     RDKit          3D

  0  0  0  0  0  0  0  0  0  0999 V3000
M  V30 BEGIN CTAB
M  V30 COUNTS 7 6 0 0 1
M  V30 BEGIN ATOM
M  V30 1 C 44.232544 43.848966 64.105944 0
M  V30 2 C 43.714073 43.770528 65.535777 0
M  V30 3 O 42.811143 42.937894 65.765953 0
M  V30 4 O 44.231706 44.540790 66.373646 0 CHG=-1
M  V30 5 H 45.016022 44.601081 64.013293 0
M  V30 6 H 43.421076 44.110707 63.426822 0
M  V30 7 H 44.641766 42.885576 63.801553 0
M  V30 END ATOM
M  V30 BEGIN BOND
M  V30 1 1 2 1
M  V30 2 2 3 2
M  V30 3 1 4 2
M  V30 4 1 5 1
M  V30 5 1 6 1
M  V30 6 1 7 1
M  V30 END BOND
M  V30 END CTAB
M  END
>  <i_epik_Tot_Q>  (1) 
-1

>  <i_epik_Tot_abs_Q>  (1) 
1

>  <i_i_glide_confnum>  (1) 
1

>  <i_i_glide_lignum>  (1) 
14

>  <i_i_glide_posenum>  (1) 
151

>  <i_i_glide_rotatable_bonds>  (1) 
0

>  <i_lp_mmshare_version>  (1) 
72125

>  <i_m_source_file_index>  (1) 
12

>  <i_f3d_flags>  (1) 
0

>  <num_sample>  (1) 
100

>  <b_lp_Chiralities_Consistent>  (1) 
1

>  <r_epik_Charging_Adjusted_Penalty>  (1) 
0.001592553815962749

>  <r_epik_Ionization_Penalty>  (1) 
0.001592553815962749

>  <r_epik_Ionization_Penalty_Charging>  (1) 
0.001592553815962749

>  <r_epik_Ionization_Penalty_Neutral>  (1) 
0

>  <r_epik_State_Penalty>  (1) 
-0

>  <r_glide_ring_energy>  (1) 
0

>  <r_i_docking_score>  (1) 
-3.7271628293037349

>  <r_i_glide_ecoul>  (1) 
-6.3317679215406208

>  <r_i_glide_eff_state_penalty>  (1) 
-0

>  <r_i_glide_einternal>  (1) 
0

>  <r_i_glide_emodel>  (1) 
-13.425395255675207

>  <r_i_glide_emodel_strain>  (1) 
0

>  <r_i_glide_energy>  (1) 
-9.8310566278893372

>  <r_i_glide_erotb>  (1) 
0

>  <r_i_glide_esite>  (1) 
0

>  <r_i_glide_evdw>  (1) 
-3.4992887063487159

>  <r_i_glide_gscore>  (1) 
-3.7271628293037349

>  <r_i_glide_gscore_strain>  (1) 
0

>  <r_i_glide_hbond>  (1) 
-0.16

>  <r_i_glide_ligand_efficiency>  (1) 
-0.93179070732593372

>  <r_i_glide_ligand_efficiency_ln>  (1) 
-1.5619040509128861

>  <r_i_glide_ligand_efficiency_sa>  (1) 
-1.4791255490233799

>  <r_i_glide_lipo>  (1) 
-0.1645229742724828

>  <r_i_glide_metal>  (1) 
-0

>  <r_i_glide_rewards>  (1) 
-2.2779102314827231

>  <r_lp_Energy>  (1) 
-0.48114599999999996

>  <r_lp_tautomer_probability>  (1) 
1

>  <s_epik_cmdline>  (1) 
J2VwaWtfcHl0aG9uJywgJy1waHQnLCAnMS4wJywgJy1waCcsICc3LjQnLCAnLXRuJywgJzgnLCAnLW1hJywgJzUwMCcsICctaW1hZScsICc8aW5maWxlLm1hZT4nLCAnLW9tYWUnLCAnPG91dGZpbGUubWFlPic=

>  <s_epik_input>  (1) 
W0NIM11DKD1PKVtPSF0=

>  <s_glide_docking_method>  (1) 
confgen

>  <s_i_glide_gridfile>  (1) 
gpcr_5ht2c_6bqh_protein_autoprepared_prepared

>  <s_lp_Force_Field>  (1) 
S-OPLS

>  <s_lp_Variant>  (1) 
Pocket2Mol_11-1

>  <s_m_source_file>  (1) 
generated_GPCR_5HT2C_ligand_Pocket2Mol_2026-06-23_prepared.sdf

>  <GenAI_Model>  (1) 
Pocket2Mol

>  <Protein>  (1) 
GPCR_5HT2C

$$$$
Pocket2Mol_12
     RDKit          3D

  0  0  0  0  0  0  0  0  0  0999 V3000
M  V30 BEGIN CTAB
M  V30 COUNTS 14 14 0 0 1
M  V30 BEGIN ATOM
M  V30 1 C 35.645138 32.100176 60.115097 0
M  V30 2 O 36.213750 31.737754 61.367759 0
M  V30 3 C 37.632651 31.841702 61.335782 0
M  V30 4 C 36.045028 33.545713 59.767577 0
M  V30 5 O 37.464075 33.649035 59.742712 0
M  V30 6 C 38.029590 33.289635 60.995381 0
M  V30 7 H 35.981428 31.408803 59.341585 0
M  V30 8 H 34.560220 32.013378 60.167760 0
M  V30 9 H 38.032635 31.558112 62.309555 0
M  V30 10 H 38.044457 31.144517 60.604343 0
M  V30 11 H 35.650733 33.821485 58.789016 0
M  V30 12 H 35.628646 34.247656 60.491556 0
M  V30 13 H 37.689309 33.979823 61.767760 0
M  V30 14 H 39.114173 33.382224 60.936091 0
M  V30 END ATOM
M  V30 BEGIN BOND
M  V30 1 1 2 1
M  V30 2 1 3 2
M  V30 3 1 4 1
M  V30 4 1 5 4
M  V30 5 1 6 3
M  V30 6 1 6 5
M  V30 7 1 7 1
M  V30 8 1 8 1
M  V30 9 1 9 3
M  V30 10 1 10 3
M  V30 11 1 11 4
M  V30 12 1 12 4
M  V30 13 1 13 6
M  V30 14 1 14 6
M  V30 END BOND
M  V30 END CTAB
M  END
>  <i_epik_Tot_Q>  (1) 
0

>  <i_epik_Tot_abs_Q>  (1) 
0

>  <i_i_glide_confnum>  (1) 
2

>  <i_i_glide_lignum>  (1) 
15

>  <i_i_glide_posenum>  (1) 
87

>  <i_i_glide_rotatable_bonds>  (1) 
0

>  <i_lp_mmshare_version>  (1) 
72125

>  <i_m_source_file_index>  (1) 
13

>  <i_f3d_flags>  (1) 
0

>  <num_sample>  (1) 
100

>  <b_lp_Chiralities_Consistent>  (1) 
1

>  <r_epik_Charging_Adjusted_Penalty>  (1) 
0

>  <r_epik_Ionization_Penalty>  (1) 
8.3894707547109138e-13

>  <r_epik_Ionization_Penalty_Charging>  (1) 
0

>  <r_epik_Ionization_Penalty_Neutral>  (1) 
8.3894707547109138e-13

>  <r_epik_State_Penalty>  (1) 
-0

>  <r_glide_ring_energy>  (1) 
0.00013676017923054334

>  <r_i_docking_score>  (1) 
-3.6931520356163903

>  <r_i_glide_ecoul>  (1) 
-2.1666464983458553

>  <r_i_glide_eff_state_penalty>  (1) 
-0

>  <r_i_glide_einternal>  (1) 
0

>  <r_i_glide_emodel>  (1) 
-16.336980688879304

>  <r_i_glide_emodel_strain>  (1) 
0

>  <r_i_glide_energy>  (1) 
-13.258212598798659

>  <r_i_glide_erotb>  (1) 
0

>  <r_i_glide_esite>  (1) 
0

>  <r_i_glide_evdw>  (1) 
-11.091566100452804

>  <r_i_glide_gscore>  (1) 
-3.6931520356163903

>  <r_i_glide_gscore_strain>  (1) 
0

>  <r_i_glide_hbond>  (1) 
-0.32000000000000001

>  <r_i_glide_ligand_efficiency>  (1) 
-0.61552533926939834

>  <r_i_glide_ligand_efficiency_ln>  (1) 
-1.3228761561745783

>  <r_i_glide_ligand_efficiency_sa>  (1) 
-1.1184837693964131

>  <r_i_glide_lipo>  (1) 
-0.19056402786347834

>  <r_i_glide_metal>  (1) 
-0

>  <r_i_glide_rewards>  (1) 
-2.3030127279783934

>  <r_lp_Energy>  (1) 
4.964817

>  <r_lp_tautomer_probability>  (1) 
1

>  <s_epik_cmdline>  (1) 
J2VwaWtfcHl0aG9uJywgJy1waHQnLCAnMS4wJywgJy1waCcsICc3LjQnLCAnLXRuJywgJzgnLCAnLW1hJywgJzUwMCcsICctaW1hZScsICc8aW5maWxlLm1hZT4nLCAnLW9tYWUnLCAnPG91dGZpbGUubWFlPic=

>  <s_epik_input>  (1) 
W0NIMl0xT1tDSDJdW0NIMl1PW0NIMl0x

>  <s_glide_docking_method>  (1) 
confgen

>  <s_i_glide_gridfile>  (1) 
gpcr_5ht2c_6bqh_protein_autoprepared_prepared

>  <s_lp_Force_Field>  (1) 
S-OPLS

>  <s_lp_Variant>  (1) 
Pocket2Mol_12-1

>  <s_m_source_file>  (1) 
generated_GPCR_5HT2C_ligand_Pocket2Mol_2026-06-23_prepared.sdf

>  <GenAI_Model>  (1) 
Pocket2Mol

>  <Protein>  (1) 
GPCR_5HT2C

$$$$
Pocket2Mol_11
     RDKit          3D

  0  0  0  0  0  0  0  0  0  0999 V3000
M  V30 BEGIN CTAB
M  V30 COUNTS 7 6 0 0 1
M  V30 BEGIN ATOM
M  V30 1 C 37.111743 32.979002 59.767758 0
M  V30 2 C 37.671475 32.201348 60.951425 0
M  V30 3 O 36.845137 31.737753 61.767760 0
M  V30 4 O 38.914882 32.085183 61.019520 0 CHG=-1
M  V30 5 H 37.911641 33.337413 59.119069 0
M  V30 6 H 36.539705 33.837942 60.117812 0
M  V30 7 H 36.452235 32.342959 59.176356 0
M  V30 END ATOM
M  V30 BEGIN BOND
M  V30 1 1 2 1
M  V30 2 2 3 2
M  V30 3 1 4 2
M  V30 4 1 5 1
M  V30 5 1 6 1
M  V30 6 1 7 1
M  V30 END BOND
M  V30 END CTAB
M  END
>  <i_epik_Tot_Q>  (1) 
-1

>  <i_epik_Tot_abs_Q>  (1) 
1

>  <i_i_glide_confnum>  (1) 
1

>  <i_i_glide_lignum>  (1) 
14

>  <i_i_glide_posenum>  (1) 
279

>  <i_i_glide_rotatable_bonds>  (1) 
0

>  <i_lp_mmshare_version>  (1) 
72125

>  <i_m_source_file_index>  (1) 
12

>  <i_f3d_flags>  (1) 
0

>  <num_sample>  (1) 
100

>  <b_lp_Chiralities_Consistent>  (1) 
1

>  <r_epik_Charging_Adjusted_Penalty>  (1) 
0.001592553815962749

>  <r_epik_Ionization_Penalty>  (1) 
0.001592553815962749

>  <r_epik_Ionization_Penalty_Charging>  (1) 
0.001592553815962749

>  <r_epik_Ionization_Penalty_Neutral>  (1) 
0

>  <r_epik_State_Penalty>  (1) 
-0

>  <r_glide_ring_energy>  (1) 
0

>  <r_i_docking_score>  (1) 
-3.3219220007382111

>  <r_i_glide_ecoul>  (1) 
-3.7918247033330204

>  <r_i_glide_eff_state_penalty>  (1) 
-0

>  <r_i_glide_einternal>  (1) 
0

>  <r_i_glide_emodel>  (1) 
-11.52683066078783

>  <r_i_glide_emodel_strain>  (1) 
0

>  <r_i_glide_energy>  (1) 
-8.3232913702933526

>  <r_i_glide_erotb>  (1) 
0

>  <r_i_glide_esite>  (1) 
0

>  <r_i_glide_evdw>  (1) 
-4.5314666669603323

>  <r_i_glide_gscore>  (1) 
-3.3219220007382111

>  <r_i_glide_gscore_strain>  (1) 
0

>  <r_i_glide_hbond>  (1) 
-0.16

>  <r_i_glide_ligand_efficiency>  (1) 
-0.83048050018455277

>  <r_i_glide_ligand_efficiency_ln>  (1) 
-1.3920839167466452

>  <r_i_glide_ligand_efficiency_sa>  (1) 
-1.3183056196320355

>  <r_i_glide_lipo>  (1) 
0

>  <r_i_glide_metal>  (1) 
-0

>  <r_i_glide_rewards>  (1) 
-2.3665749618902412

>  <r_lp_Energy>  (1) 
-0.48114599999999996

>  <r_lp_tautomer_probability>  (1) 
1

>  <s_epik_cmdline>  (1) 
J2VwaWtfcHl0aG9uJywgJy1waHQnLCAnMS4wJywgJy1waCcsICc3LjQnLCAnLXRuJywgJzgnLCAnLW1hJywgJzUwMCcsICctaW1hZScsICc8aW5maWxlLm1hZT4nLCAnLW9tYWUnLCAnPG91dGZpbGUubWFlPic=

>  <s_epik_input>  (1) 
W0NIM11DKD1PKVtPSF0=

>  <s_glide_docking_method>  (1) 
confgen

>  <s_i_glide_gridfile>  (1) 
gpcr_5ht2c_6bqh_protein_autoprepared_prepared

>  <s_lp_Force_Field>  (1) 
S-OPLS

>  <s_lp_Variant>  (1) 
Pocket2Mol_11-1

>  <s_m_source_file>  (1) 
generated_GPCR_5HT2C_ligand_Pocket2Mol_2026-06-23_prepared.sdf

>  <GenAI_Model>  (1) 
Pocket2Mol

>  <Protein>  (1) 
GPCR_5HT2C

$$$$
Pocket2Mol_11
     RDKit          3D

  0  0  0  0  0  0  0  0  0  0999 V3000
M  V30 BEGIN CTAB
M  V30 COUNTS 7 6 0 0 1
M  V30 BEGIN ATOM
M  V30 1 C 35.732433 32.634574 60.185754 0
M  V30 2 C 37.032946 32.067450 60.740076 0
M  V30 3 O 36.948749 31.360991 61.767760 0
M  V30 4 O 38.086590 32.348812 60.128966 0 CHG=-1
M  V30 5 H 35.915720 33.233006 59.293065 0
M  V30 6 H 35.250595 33.266426 60.931564 0
M  V30 7 H 35.051330 31.825000 59.924357 0
M  V30 END ATOM
M  V30 BEGIN BOND
M  V30 1 1 2 1
M  V30 2 2 3 2
M  V30 3 1 4 2
M  V30 4 1 5 1
M  V30 5 1 6 1
M  V30 6 1 7 1
M  V30 END BOND
M  V30 END CTAB
M  END
>  <i_epik_Tot_Q>  (1) 
-1

>  <i_epik_Tot_abs_Q>  (1) 
1

>  <i_i_glide_confnum>  (1) 
1

>  <i_i_glide_lignum>  (1) 
14

>  <i_i_glide_posenum>  (1) 
50

>  <i_i_glide_rotatable_bonds>  (1) 
0

>  <i_lp_mmshare_version>  (1) 
72125

>  <i_m_source_file_index>  (1) 
12

>  <i_f3d_flags>  (1) 
0

>  <num_sample>  (1) 
100

>  <b_lp_Chiralities_Consistent>  (1) 
1

>  <r_epik_Charging_Adjusted_Penalty>  (1) 
0.001592553815962749

>  <r_epik_Ionization_Penalty>  (1) 
0.001592553815962749

>  <r_epik_Ionization_Penalty_Charging>  (1) 
0.001592553815962749

>  <r_epik_Ionization_Penalty_Neutral>  (1) 
0

>  <r_epik_State_Penalty>  (1) 
-0

>  <r_glide_ring_energy>  (1) 
0

>  <r_i_docking_score>  (1) 
-3.3065870476156638

>  <r_i_glide_ecoul>  (1) 
-4.1368615847900205

>  <r_i_glide_eff_state_penalty>  (1) 
-0

>  <r_i_glide_einternal>  (1) 
0

>  <r_i_glide_emodel>  (1) 
-12.46485179062579

>  <r_i_glide_emodel_strain>  (1) 
0

>  <r_i_glide_energy>  (1) 
-9.2761009644104426

>  <r_i_glide_erotb>  (1) 
0

>  <r_i_glide_esite>  (1) 
-0.01909584091613991

>  <r_i_glide_evdw>  (1) 
-5.139239379620423

>  <r_i_glide_gscore>  (1) 
-3.3065870476156638

>  <r_i_glide_gscore_strain>  (1) 
0

>  <r_i_glide_hbond>  (1) 
-0.16

>  <r_i_glide_ligand_efficiency>  (1) 
-0.82664676190391595

>  <r_i_glide_ligand_efficiency_ln>  (1) 
-1.3856576546004487

>  <r_i_glide_ligand_efficiency_sa>  (1) 
-1.3122199394523819

>  <r_i_glide_lipo>  (1) 
0

>  <r_i_glide_metal>  (1) 
-0

>  <r_i_glide_rewards>  (1) 
-2.25

>  <r_lp_Energy>  (1) 
-0.48114599999999996

>  <r_lp_tautomer_probability>  (1) 
1

>  <s_epik_cmdline>  (1) 
J2VwaWtfcHl0aG9uJywgJy1waHQnLCAnMS4wJywgJy1waCcsICc3LjQnLCAnLXRuJywgJzgnLCAnLW1hJywgJzUwMCcsICctaW1hZScsICc8aW5maWxlLm1hZT4nLCAnLW9tYWUnLCAnPG91dGZpbGUubWFlPic=

>  <s_epik_input>  (1) 
W0NIM11DKD1PKVtPSF0=

>  <s_glide_docking_method>  (1) 
confgen

>  <s_i_glide_gridfile>  (1) 
gpcr_5ht2c_6bqh_protein_autoprepared_prepared

>  <s_lp_Force_Field>  (1) 
S-OPLS

>  <s_lp_Variant>  (1) 
Pocket2Mol_11-1

>  <s_m_source_file>  (1) 
generated_GPCR_5HT2C_ligand_Pocket2Mol_2026-06-23_prepared.sdf

>  <GenAI_Model>  (1) 
Pocket2Mol

>  <Protein>  (1) 
GPCR_5HT2C

$$$$
Pocket2Mol_11
     RDKit          3D

  0  0  0  0  0  0  0  0  0  0999 V3000
M  V30 BEGIN CTAB
M  V30 COUNTS 7 6 0 0 1
M  V30 BEGIN ATOM
M  V30 1 C 34.848426 32.925339 59.791957 0
M  V30 2 C 35.775616 32.544820 60.938690 0
M  V30 3 O 36.540157 33.434504 61.368603 0
M  V30 4 O 35.701591 31.371480 61.367760 0 CHG=-1
M  V30 5 H 34.373949 32.040575 59.366840 0
M  V30 6 H 35.407952 33.422203 58.998826 0
M  V30 7 H 34.069308 33.601576 60.142588 0
M  V30 END ATOM
M  V30 BEGIN BOND
M  V30 1 1 2 1
M  V30 2 2 3 2
M  V30 3 1 4 2
M  V30 4 1 5 1
M  V30 5 1 6 1
M  V30 6 1 7 1
M  V30 END BOND
M  V30 END CTAB
M  END
>  <i_epik_Tot_Q>  (1) 
-1

>  <i_epik_Tot_abs_Q>  (1) 
1

>  <i_i_glide_confnum>  (1) 
1

>  <i_i_glide_lignum>  (1) 
14

>  <i_i_glide_posenum>  (1) 
45

>  <i_i_glide_rotatable_bonds>  (1) 
0

>  <i_lp_mmshare_version>  (1) 
72125

>  <i_m_source_file_index>  (1) 
12

>  <i_f3d_flags>  (1) 
0

>  <num_sample>  (1) 
100

>  <b_lp_Chiralities_Consistent>  (1) 
1

>  <r_epik_Charging_Adjusted_Penalty>  (1) 
0.001592553815962749

>  <r_epik_Ionization_Penalty>  (1) 
0.001592553815962749

>  <r_epik_Ionization_Penalty_Charging>  (1) 
0.001592553815962749

>  <r_epik_Ionization_Penalty_Neutral>  (1) 
0

>  <r_epik_State_Penalty>  (1) 
-0

>  <r_glide_ring_energy>  (1) 
0

>  <r_i_docking_score>  (1) 
-3.3005742829167355

>  <r_i_glide_ecoul>  (1) 
-3.3000347068988933

>  <r_i_glide_eff_state_penalty>  (1) 
-0

>  <r_i_glide_einternal>  (1) 
0

>  <r_i_glide_emodel>  (1) 
-13.126105727171142

>  <r_i_glide_emodel_strain>  (1) 
0.00015450079153497831

>  <r_i_glide_energy>  (1) 
-9.9433078906803125

>  <r_i_glide_erotb>  (1) 
0

>  <r_i_glide_esite>  (1) 
-0.010595348566417511

>  <r_i_glide_evdw>  (1) 
-6.6432731837814183

>  <r_i_glide_gscore>  (1) 
-3.3005742829167355

>  <r_i_glide_gscore_strain>  (1) 
0

>  <r_i_glide_hbond>  (1) 
-0.16

>  <r_i_glide_ligand_efficiency>  (1) 
-0.82514357072918387

>  <r_i_glide_ligand_efficiency_ln>  (1) 
-1.383137946723292

>  <r_i_glide_ligand_efficiency_sa>  (1) 
-1.3098337722003028

>  <r_i_glide_lipo>  (1) 
-0.052810069126412888

>  <r_i_glide_metal>  (1) 
-0

>  <r_i_glide_rewards>  (1) 
-2.25

>  <r_lp_Energy>  (1) 
-0.48114599999999996

>  <r_lp_tautomer_probability>  (1) 
1

>  <s_epik_cmdline>  (1) 
J2VwaWtfcHl0aG9uJywgJy1waHQnLCAnMS4wJywgJy1waCcsICc3LjQnLCAnLXRuJywgJzgnLCAnLW1hJywgJzUwMCcsICctaW1hZScsICc8aW5maWxlLm1hZT4nLCAnLW9tYWUnLCAnPG91dGZpbGUubWFlPic=

>  <s_epik_input>  (1) 
W0NIM11DKD1PKVtPSF0=

>  <s_glide_docking_method>  (1) 
confgen

>  <s_i_glide_gridfile>  (1) 
gpcr_5ht2c_6bqh_protein_autoprepared_prepared

>  <s_lp_Force_Field>  (1) 
S-OPLS

>  <s_lp_Variant>  (1) 
Pocket2Mol_11-1

>  <s_m_source_file>  (1) 
generated_GPCR_5HT2C_ligand_Pocket2Mol_2026-06-23_prepared.sdf

>  <GenAI_Model>  (1) 
Pocket2Mol

>  <Protein>  (1) 
GPCR_5HT2C

$$$$
Pocket2Mol_11
     RDKit          3D

  0  0  0  0  0  0  0  0  0  0999 V3000
M  V30 BEGIN CTAB
M  V30 COUNTS 7 6 0 0 1
M  V30 BEGIN ATOM
M  V30 1 C 35.402238 32.949568 60.035489 0
M  V30 2 C 36.049199 31.687418 60.590968 0
M  V30 3 O 36.467620 31.737798 61.767760 0
M  V30 4 O 36.114444 30.696052 59.832236 0 CHG=-1
M  V30 5 H 35.073248 32.800318 59.006849 0
M  V30 6 H 36.113560 33.775010 60.053696 0
M  V30 7 H 34.536622 33.223928 60.638034 0
M  V30 END ATOM
M  V30 BEGIN BOND
M  V30 1 1 2 1
M  V30 2 2 3 2
M  V30 3 1 4 2
M  V30 4 1 5 1
M  V30 5 1 6 1
M  V30 6 1 7 1
M  V30 END BOND
M  V30 END CTAB
M  END
>  <i_epik_Tot_Q>  (1) 
-1

>  <i_epik_Tot_abs_Q>  (1) 
1

>  <i_i_glide_confnum>  (1) 
1

>  <i_i_glide_lignum>  (1) 
14

>  <i_i_glide_posenum>  (1) 
11

>  <i_i_glide_rotatable_bonds>  (1) 
0

>  <i_lp_mmshare_version>  (1) 
72125

>  <i_m_source_file_index>  (1) 
12

>  <i_f3d_flags>  (1) 
0

>  <num_sample>  (1) 
100

>  <b_lp_Chiralities_Consistent>  (1) 
1

>  <r_epik_Charging_Adjusted_Penalty>  (1) 
0.001592553815962749

>  <r_epik_Ionization_Penalty>  (1) 
0.001592553815962749

>  <r_epik_Ionization_Penalty_Charging>  (1) 
0.001592553815962749

>  <r_epik_Ionization_Penalty_Neutral>  (1) 
0

>  <r_epik_State_Penalty>  (1) 
-0

>  <r_glide_ring_energy>  (1) 
0

>  <r_i_docking_score>  (1) 
-3.2806258232219108

>  <r_i_glide_ecoul>  (1) 
-3.4946561937468621

>  <r_i_glide_eff_state_penalty>  (1) 
-0

>  <r_i_glide_einternal>  (1) 
0

>  <r_i_glide_emodel>  (1) 
-12.345216856659766

>  <r_i_glide_emodel_strain>  (1) 
0

>  <r_i_glide_energy>  (1) 
-9.1815020795618416

>  <r_i_glide_erotb>  (1) 
0

>  <r_i_glide_esite>  (1) 
-0.062085099869132215

>  <r_i_glide_evdw>  (1) 
-5.6868458858149804

>  <r_i_glide_gscore>  (1) 
-3.2806258232219108

>  <r_i_glide_gscore_strain>  (1) 
0

>  <r_i_glide_hbond>  (1) 
-0.16

>  <r_i_glide_ligand_efficiency>  (1) 
-0.82015645580547769

>  <r_i_glide_ligand_efficiency_ln>  (1) 
-1.374778349508528

>  <r_i_glide_ligand_efficiency_sa>  (1) 
-1.3019172207241254

>  <r_i_glide_lipo>  (1) 
0

>  <r_i_glide_metal>  (1) 
-0

>  <r_i_glide_rewards>  (1) 
-2.25

>  <r_lp_Energy>  (1) 
-0.48114599999999996

>  <r_lp_tautomer_probability>  (1) 
1

>  <s_epik_cmdline>  (1) 
J2VwaWtfcHl0aG9uJywgJy1waHQnLCAnMS4wJywgJy1waCcsICc3LjQnLCAnLXRuJywgJzgnLCAnLW1hJywgJzUwMCcsICctaW1hZScsICc8aW5maWxlLm1hZT4nLCAnLW9tYWUnLCAnPG91dGZpbGUubWFlPic=

>  <s_epik_input>  (1) 
W0NIM11DKD1PKVtPSF0=

>  <s_glide_docking_method>  (1) 
confgen

>  <s_i_glide_gridfile>  (1) 
gpcr_5ht2c_6bqh_protein_autoprepared_prepared

>  <s_lp_Force_Field>  (1) 
S-OPLS

>  <s_lp_Variant>  (1) 
Pocket2Mol_11-1

>  <s_m_source_file>  (1) 
generated_GPCR_5HT2C_ligand_Pocket2Mol_2026-06-23_prepared.sdf

>  <GenAI_Model>  (1) 
Pocket2Mol

>  <Protein>  (1) 
GPCR_5HT2C

$$$$
Pocket2Mol_2
     RDKit          3D

  0  0  0  0  0  0  0  0  0  0999 V3000
M  V30 BEGIN CTAB
M  V30 COUNTS 15 14 0 0 1
M  V30 BEGIN ATOM
M  V30 1 C 39.848828 29.622806 50.330926 0
M  V30 2 C 40.201086 28.658616 51.466142 0
M  V30 3 C 40.804528 30.812942 50.250325 0
M  V30 4 C 39.330826 27.394999 51.485504 0
M  V30 5 O 38.045138 27.737753 51.938697 0
M  V30 6 H 39.832011 29.101214 49.373285 0
M  V30 7 H 38.845138 29.998221 50.506166 0
M  V30 8 H 40.108052 29.179770 52.420119 0
M  V30 9 H 41.245184 28.377922 51.367774 0
M  V30 10 H 40.467973 31.520584 49.493160 0
M  V30 11 H 40.845134 31.337761 51.204411 0
M  V30 12 H 41.817725 30.503130 49.994275 0
M  V30 13 H 39.740672 26.650257 52.167740 0
M  V30 14 H 39.272796 26.937939 50.496957 0
M  V30 15 H 37.441764 27.031840 51.732593 0
M  V30 END ATOM
M  V30 BEGIN BOND
M  V30 1 1 2 1
M  V30 2 1 3 1
M  V30 3 1 4 2
M  V30 4 1 5 4
M  V30 5 1 6 1
M  V30 6 1 7 1
M  V30 7 1 8 2
M  V30 8 1 9 2
M  V30 9 1 10 3
M  V30 10 1 11 3
M  V30 11 1 12 3
M  V30 12 1 13 4
M  V30 13 1 14 4
M  V30 14 1 15 5
M  V30 END BOND
M  V30 END CTAB
M  END
>  <i_epik_Tot_Q>  (1) 
0

>  <i_epik_Tot_abs_Q>  (1) 
0

>  <i_i_glide_confnum>  (1) 
2

>  <i_i_glide_lignum>  (1) 
5

>  <i_i_glide_posenum>  (1) 
280

>  <i_i_glide_rotatable_bonds>  (1) 
3

>  <i_lp_mmshare_version>  (1) 
72125

>  <i_m_source_file_index>  (1) 
3

>  <i_f3d_flags>  (1) 
0

>  <num_sample>  (1) 
100

>  <b_lp_Chiralities_Consistent>  (1) 
1

>  <r_epik_Charging_Adjusted_Penalty>  (1) 
0

>  <r_epik_Ionization_Penalty>  (1) 
2.9396235358890345e-07

>  <r_epik_Ionization_Penalty_Charging>  (1) 
0

>  <r_epik_Ionization_Penalty_Neutral>  (1) 
2.9396235358890345e-07

>  <r_epik_State_Penalty>  (1) 
-0

>  <r_glide_ring_energy>  (1) 
0

>  <r_i_docking_score>  (1) 
-3.2255312973422159

>  <r_i_glide_ecoul>  (1) 
-3.0811310635524229

>  <r_i_glide_eff_state_penalty>  (1) 
-0

>  <r_i_glide_einternal>  (1) 
1.9256033956922955

>  <r_i_glide_emodel>  (1) 
-16.73113655492126

>  <r_i_glide_emodel_strain>  (1) 
0.0012178067557075956

>  <r_i_glide_energy>  (1) 
-14.921710412004254

>  <r_i_glide_erotb>  (1) 
1.8982399431532129

>  <r_i_glide_esite>  (1) 
0

>  <r_i_glide_evdw>  (1) 
-11.840579348451831

>  <r_i_glide_gscore>  (1) 
-3.2255312973422159

>  <r_i_glide_gscore_strain>  (1) 
0

>  <r_i_glide_hbond>  (1) 
-0.32000000000000001

>  <r_i_glide_ligand_efficiency>  (1) 
-0.64510625946844313

>  <r_i_glide_ligand_efficiency_ln>  (1) 
-1.23610195206117

>  <r_i_glide_ligand_efficiency_sa>  (1) 
-1.1031161867416142

>  <r_i_glide_lipo>  (1) 
-1.1995726135399734

>  <r_i_glide_metal>  (1) 
-0

>  <r_i_glide_rewards>  (1) 
-2.5499999999999998

>  <r_lp_Energy>  (1) 
2.038589

>  <r_lp_tautomer_probability>  (1) 
1

>  <s_epik_cmdline>  (1) 
J2VwaWtfcHl0aG9uJywgJy1waHQnLCAnMS4wJywgJy1waCcsICc3LjQnLCAnLXRuJywgJzgnLCAnLW1hJywgJzUwMCcsICctaW1hZScsICc8aW5maWxlLm1hZT4nLCAnLW9tYWUnLCAnPG91dGZpbGUubWFlPic=

>  <s_epik_input>  (1) 
W0NIM11bQ0gyXVtDSDJdW0NIMl1bT0hd

>  <s_glide_docking_method>  (1) 
confgen

>  <s_i_glide_gridfile>  (1) 
gpcr_5ht2c_6bqh_protein_autoprepared_prepared

>  <s_lp_Force_Field>  (1) 
S-OPLS

>  <s_lp_Variant>  (1) 
Pocket2Mol_2-1

>  <s_m_source_file>  (1) 
generated_GPCR_5HT2C_ligand_Pocket2Mol_2026-06-23_prepared.sdf

>  <GenAI_Model>  (1) 
Pocket2Mol

>  <Protein>  (1) 
GPCR_5HT2C

$$$$
Pocket2Mol_2
     RDKit          3D

  0  0  0  0  0  0  0  0  0  0999 V3000
M  V30 BEGIN CTAB
M  V30 COUNTS 15 14 0 0 1
M  V30 BEGIN ATOM
M  V30 1 C 40.165606 28.880490 50.819019 0
M  V30 2 C 38.880685 28.144776 51.238825 0
M  V30 3 C 40.076732 30.410372 50.901102 0
M  V30 4 C 38.557660 28.226706 52.737813 0
M  V30 5 O 37.253004 27.737869 52.967779 0
M  V30 6 H 41.014436 28.535969 51.407806 0
M  V30 7 H 40.384463 28.614867 49.785002 0
M  V30 8 H 38.965954 27.094864 50.952527 0
M  V30 9 H 38.045138 28.537712 50.666138 0
M  V30 10 H 40.991044 30.869996 50.523840 0
M  V30 11 H 39.249656 30.791607 50.301855 0
M  V30 12 H 39.942946 30.754643 51.926167 0
M  V30 13 H 38.603866 29.252316 53.103718 0
M  V30 14 H 39.273074 27.639476 53.314144 0
M  V30 15 H 37.103771 26.979851 52.415183 0
M  V30 END ATOM
M  V30 BEGIN BOND
M  V30 1 1 2 1
M  V30 2 1 3 1
M  V30 3 1 4 2
M  V30 4 1 5 4
M  V30 5 1 6 1
M  V30 6 1 7 1
M  V30 7 1 8 2
M  V30 8 1 9 2
M  V30 9 1 10 3
M  V30 10 1 11 3
M  V30 11 1 12 3
M  V30 12 1 13 4
M  V30 13 1 14 4
M  V30 14 1 15 5
M  V30 END BOND
M  V30 END CTAB
M  END
>  <i_epik_Tot_Q>  (1) 
0

>  <i_epik_Tot_abs_Q>  (1) 
0

>  <i_i_glide_confnum>  (1) 
1

>  <i_i_glide_lignum>  (1) 
5

>  <i_i_glide_posenum>  (1) 
301

>  <i_i_glide_rotatable_bonds>  (1) 
3

>  <i_lp_mmshare_version>  (1) 
72125

>  <i_m_source_file_index>  (1) 
3

>  <i_f3d_flags>  (1) 
0

>  <num_sample>  (1) 
100

>  <b_lp_Chiralities_Consistent>  (1) 
1

>  <r_epik_Charging_Adjusted_Penalty>  (1) 
0

>  <r_epik_Ionization_Penalty>  (1) 
2.9396235358890345e-07

>  <r_epik_Ionization_Penalty_Charging>  (1) 
0

>  <r_epik_Ionization_Penalty_Neutral>  (1) 
2.9396235358890345e-07

>  <r_epik_State_Penalty>  (1) 
-0

>  <r_glide_ring_energy>  (1) 
0

>  <r_i_docking_score>  (1) 
-3.0765706633150454

>  <r_i_glide_ecoul>  (1) 
-2.6785196422540367

>  <r_i_glide_eff_state_penalty>  (1) 
-0

>  <r_i_glide_einternal>  (1) 
1.55123482527931

>  <r_i_glide_emodel>  (1) 
-15.986071286635745

>  <r_i_glide_emodel_strain>  (1) 
0.034877604917539218

>  <r_i_glide_energy>  (1) 
-14.151203190684742

>  <r_i_glide_erotb>  (1) 
1.8982399431532129

>  <r_i_glide_esite>  (1) 
0

>  <r_i_glide_evdw>  (1) 
-11.472683548430705

>  <r_i_glide_gscore>  (1) 
-3.0765706633150454

>  <r_i_glide_gscore_strain>  (1) 
0

>  <r_i_glide_hbond>  (1) 
-0.26327837210187827

>  <r_i_glide_ligand_efficiency>  (1) 
-0.61531413266300905

>  <r_i_glide_ligand_efficiency_ln>  (1) 
-1.179016618351038

>  <r_i_glide_ligand_efficiency_sa>  (1) 
-1.0521723665039797

>  <r_i_glide_lipo>  (1) 
-1.3200000000000001

>  <r_i_glide_metal>  (1) 
-0

>  <r_i_glide_rewards>  (1) 
-2.4161201106067387

>  <r_lp_Energy>  (1) 
2.038589

>  <r_lp_tautomer_probability>  (1) 
1

>  <s_epik_cmdline>  (1) 
J2VwaWtfcHl0aG9uJywgJy1waHQnLCAnMS4wJywgJy1waCcsICc3LjQnLCAnLXRuJywgJzgnLCAnLW1hJywgJzUwMCcsICctaW1hZScsICc8aW5maWxlLm1hZT4nLCAnLW9tYWUnLCAnPG91dGZpbGUubWFlPic=

>  <s_epik_input>  (1) 
W0NIM11bQ0gyXVtDSDJdW0NIMl1bT0hd

>  <s_glide_docking_method>  (1) 
confgen

>  <s_i_glide_gridfile>  (1) 
gpcr_5ht2c_6bqh_protein_autoprepared_prepared

>  <s_lp_Force_Field>  (1) 
S-OPLS

>  <s_lp_Variant>  (1) 
Pocket2Mol_2-1

>  <s_m_source_file>  (1) 
generated_GPCR_5HT2C_ligand_Pocket2Mol_2026-06-23_prepared.sdf

>  <GenAI_Model>  (1) 
Pocket2Mol

>  <Protein>  (1) 
GPCR_5HT2C

$$$$
Pocket2Mol_62
     RDKit          3D

  0  0  0  0  0  0  0  0  0  0999 V3000
M  V30 BEGIN CTAB
M  V30 COUNTS 20 19 0 0 1
M  V30 BEGIN ATOM
M  V30 1 C 39.569595 28.680278 50.799528 0
M  V30 2 C 40.417693 29.751446 50.095194 0
M  V30 3 O 39.417406 29.039745 52.170047 0
M  V30 4 C 38.631039 28.231440 53.001919 0
M  V30 5 O 39.645145 30.888095 49.778357 0
M  V30 6 O 37.293727 28.137757 52.567760 0
M  V30 7 C 38.626994 28.919377 54.372103 0
M  V30 8 C 39.230908 26.819214 53.109793 0
M  V30 9 H 38.610389 28.537779 50.302765 0
M  V30 10 H 40.107439 27.737607 50.724427 0
M  V30 11 H 40.797595 29.353342 49.153967 0
M  V30 12 H 41.279859 30.037278 50.698584 0
M  V30 13 H 38.862822 30.596541 49.322440 0
M  V30 14 H 37.245152 27.491064 51.876441 0
M  V30 15 H 38.198066 29.918805 54.286089 0
M  V30 16 H 38.033905 28.343736 55.083669 0
M  V30 17 H 39.645113 29.008784 54.751602 0
M  V30 18 H 39.245138 26.326550 52.139837 0
M  V30 19 H 40.247709 26.860300 53.492533 0
M  V30 20 H 38.633337 26.214016 53.792755 0
M  V30 END ATOM
M  V30 BEGIN BOND
M  V30 1 1 2 1
M  V30 2 1 3 1
M  V30 3 1 4 3
M  V30 4 1 5 2
M  V30 5 1 6 4
M  V30 6 1 7 4
M  V30 7 1 8 4
M  V30 8 1 9 1
M  V30 9 1 10 1
M  V30 10 1 11 2
M  V30 11 1 12 2
M  V30 12 1 13 5
M  V30 13 1 14 6
M  V30 14 1 15 7
M  V30 15 1 16 7
M  V30 16 1 17 7
M  V30 17 1 18 8
M  V30 18 1 19 8
M  V30 19 1 20 8
M  V30 END BOND
M  V30 END CTAB
M  END
>  <i_epik_Tot_Q>  (1) 
0

>  <i_epik_Tot_abs_Q>  (1) 
0

>  <i_i_glide_confnum>  (1) 
2

>  <i_i_glide_lignum>  (1) 
66

>  <i_i_glide_posenum>  (1) 
121

>  <i_i_glide_rotatable_bonds>  (1) 
5

>  <i_lp_mmshare_version>  (1) 
72125

>  <i_m_source_file_index>  (1) 
63

>  <i_f3d_flags>  (1) 
0

>  <num_sample>  (1) 
100

>  <b_lp_Chiralities_Consistent>  (1) 
1

>  <r_epik_Charging_Adjusted_Penalty>  (1) 
0

>  <r_epik_Ionization_Penalty>  (1) 
6.4082053832503559e-07

>  <r_epik_Ionization_Penalty_Charging>  (1) 
0

>  <r_epik_Ionization_Penalty_Neutral>  (1) 
6.4082053832503559e-07

>  <r_epik_State_Penalty>  (1) 
-0

>  <r_glide_ring_energy>  (1) 
0

>  <r_i_docking_score>  (1) 
-3.0726078362101381

>  <r_i_glide_ecoul>  (1) 
-5.547092313758232

>  <r_i_glide_eff_state_penalty>  (1) 
-0

>  <r_i_glide_einternal>  (1) 
2.1223823233515677

>  <r_i_glide_emodel>  (1) 
-23.211563278703359

>  <r_i_glide_emodel_strain>  (1) 
0

>  <r_i_glide_energy>  (1) 
-19.9857406858698

>  <r_i_glide_erotb>  (1) 
2.7787352151322811

>  <r_i_glide_esite>  (1) 
0

>  <r_i_glide_evdw>  (1) 
-14.438648372111567

>  <r_i_glide_gscore>  (1) 
-3.0726078362101381

>  <r_i_glide_gscore_strain>  (1) 
0

>  <r_i_glide_hbond>  (1) 
-0.51100994719721871

>  <r_i_glide_ligand_efficiency>  (1) 
-0.38407597952626726

>  <r_i_glide_ligand_efficiency_ln>  (1) 
-0.99778086208904948

>  <r_i_glide_ligand_efficiency_sa>  (1) 
-0.76815195905253464

>  <r_i_glide_lipo>  (1) 
-1.0863368384758867

>  <r_i_glide_metal>  (1) 
-0

>  <r_i_glide_rewards>  (1) 
-2.7000000000000002

>  <r_lp_Energy>  (1) 
2.7008749999999999

>  <r_lp_tautomer_probability>  (1) 
1

>  <s_epik_cmdline>  (1) 
J2VwaWtfcHl0aG9uJywgJy1waHQnLCAnMS4wJywgJy1waCcsICc3LjQnLCAnLXRuJywgJzgnLCAnLW1hJywgJzUwMCcsICctaW1hZScsICc8aW5maWxlLm1hZT4nLCAnLW9tYWUnLCAnPG91dGZpbGUubWFlPic=

>  <s_epik_input>  (1) 
W09IXVtDSDJdW0NIMl1PQyhbT0hdKShbQ0gzXSlbQ0gzXQ==

>  <s_glide_docking_method>  (1) 
confgen

>  <s_i_glide_gridfile>  (1) 
gpcr_5ht2c_6bqh_protein_autoprepared_prepared

>  <s_lp_Force_Field>  (1) 
S-OPLS

>  <s_lp_Variant>  (1) 
Pocket2Mol_62-1

>  <s_m_source_file>  (1) 
generated_GPCR_5HT2C_ligand_Pocket2Mol_2026-06-23_prepared.sdf

>  <GenAI_Model>  (1) 
Pocket2Mol

>  <Protein>  (1) 
GPCR_5HT2C

$$$$
Pocket2Mol_62
     RDKit          3D

  0  0  0  0  0  0  0  0  0  0999 V3000
M  V30 BEGIN CTAB
M  V30 COUNTS 20 19 0 0 1
M  V30 BEGIN ATOM
M  V30 1 C 39.205702 29.221692 51.851715 0
M  V30 2 C 40.254742 28.923864 50.787694 0
M  V30 3 O 39.152748 28.134129 52.764953 0
M  V30 4 C 38.072951 28.115733 53.651948 0
M  V30 5 O 40.185718 29.896369 49.767760 0
M  V30 6 O 36.845225 28.072984 52.967801 0
M  V30 7 C 38.106802 29.354478 54.569272 0
M  V30 8 C 38.206849 26.827887 54.472891 0
M  V30 9 H 39.447008 30.155507 52.359489 0
M  V30 10 H 38.239898 29.337713 51.367401 0
M  V30 11 H 40.085005 27.938385 50.352184 0
M  V30 12 H 41.245172 28.929561 51.238823 0
M  V30 13 H 39.319097 29.873156 49.382171 0
M  V30 14 H 36.845257 27.291980 52.427666 0
M  V30 15 H 37.913916 30.269087 54.008038 0
M  V30 16 H 37.335671 29.271510 55.335523 0
M  V30 17 H 39.077794 29.432935 55.058872 0
M  V30 18 H 38.182885 25.959284 53.815007 0
M  V30 19 H 39.152818 26.827696 55.015304 0
M  V30 20 H 37.387522 26.748522 55.188683 0
M  V30 END ATOM
M  V30 BEGIN BOND
M  V30 1 1 2 1
M  V30 2 1 3 1
M  V30 3 1 4 3
M  V30 4 1 5 2
M  V30 5 1 6 4
M  V30 6 1 7 4
M  V30 7 1 8 4
M  V30 8 1 9 1
M  V30 9 1 10 1
M  V30 10 1 11 2
M  V30 11 1 12 2
M  V30 12 1 13 5
M  V30 13 1 14 6
M  V30 14 1 15 7
M  V30 15 1 16 7
M  V30 16 1 17 7
M  V30 17 1 18 8
M  V30 18 1 19 8
M  V30 19 1 20 8
M  V30 END BOND
M  V30 END CTAB
M  END
>  <i_epik_Tot_Q>  (1) 
0

>  <i_epik_Tot_abs_Q>  (1) 
0

>  <i_i_glide_confnum>  (1) 
16

>  <i_i_glide_lignum>  (1) 
66

>  <i_i_glide_posenum>  (1) 
173

>  <i_i_glide_rotatable_bonds>  (1) 
5

>  <i_lp_mmshare_version>  (1) 
72125

>  <i_m_source_file_index>  (1) 
63

>  <i_f3d_flags>  (1) 
0

>  <num_sample>  (1) 
100

>  <b_lp_Chiralities_Consistent>  (1) 
1

>  <r_epik_Charging_Adjusted_Penalty>  (1) 
0

>  <r_epik_Ionization_Penalty>  (1) 
6.4082053832503559e-07

>  <r_epik_Ionization_Penalty_Charging>  (1) 
0

>  <r_epik_Ionization_Penalty_Neutral>  (1) 
6.4082053832503559e-07

>  <r_epik_State_Penalty>  (1) 
-0

>  <r_glide_ring_energy>  (1) 
0

>  <r_i_docking_score>  (1) 
-3.0120069421467415

>  <r_i_glide_ecoul>  (1) 
-4.4200574209721148

>  <r_i_glide_eff_state_penalty>  (1) 
-0

>  <r_i_glide_einternal>  (1) 
4.242568722507829

>  <r_i_glide_emodel>  (1) 
-21.19087291129885

>  <r_i_glide_emodel_strain>  (1) 
0

>  <r_i_glide_energy>  (1) 
-19.109696080633313

>  <r_i_glide_erotb>  (1) 
2.7787352151322811

>  <r_i_glide_esite>  (1) 
0

>  <r_i_glide_evdw>  (1) 
-14.689638659661199

>  <r_i_glide_gscore>  (1) 
-3.0120069421467415

>  <r_i_glide_gscore_strain>  (1) 
0

>  <r_i_glide_hbond>  (1) 
-0.57337811684459805

>  <r_i_glide_ligand_efficiency>  (1) 
-0.37650086776834268

>  <r_i_glide_ligand_efficiency_ln>  (1) 
-0.97810167895042788

>  <r_i_glide_ligand_efficiency_sa>  (1) 
-0.75300173553668548

>  <r_i_glide_lipo>  (1) 
-1.1198734943055471

>  <r_i_glide_metal>  (1) 
-0

>  <r_i_glide_rewards>  (1) 
-2.7000000000000002

>  <r_lp_Energy>  (1) 
2.7008749999999999

>  <r_lp_tautomer_probability>  (1) 
1

>  <s_epik_cmdline>  (1) 
J2VwaWtfcHl0aG9uJywgJy1waHQnLCAnMS4wJywgJy1waCcsICc3LjQnLCAnLXRuJywgJzgnLCAnLW1hJywgJzUwMCcsICctaW1hZScsICc8aW5maWxlLm1hZT4nLCAnLW9tYWUnLCAnPG91dGZpbGUubWFlPic=

>  <s_epik_input>  (1) 
W09IXVtDSDJdW0NIMl1PQyhbT0hdKShbQ0gzXSlbQ0gzXQ==

>  <s_glide_docking_method>  (1) 
confgen

>  <s_i_glide_gridfile>  (1) 
gpcr_5ht2c_6bqh_protein_autoprepared_prepared

>  <s_lp_Force_Field>  (1) 
S-OPLS

>  <s_lp_Variant>  (1) 
Pocket2Mol_62-1

>  <s_m_source_file>  (1) 
generated_GPCR_5HT2C_ligand_Pocket2Mol_2026-06-23_prepared.sdf

>  <GenAI_Model>  (1) 
Pocket2Mol

>  <Protein>  (1) 
GPCR_5HT2C

$$$$
Pocket2Mol_62
     RDKit          3D

  0  0  0  0  0  0  0  0  0  0999 V3000
M  V30 BEGIN CTAB
M  V30 COUNTS 20 19 0 0 1
M  V30 BEGIN ATOM
M  V30 1 C 39.406478 28.758424 51.444950 0
M  V30 2 C 40.118755 29.924541 50.759761 0
M  V30 3 O 39.214908 29.098799 52.812409 0
M  V30 4 C 38.397764 28.264302 53.578986 0
M  V30 5 O 40.045136 29.737766 49.367763 0
M  V30 6 O 37.105334 28.137754 53.031422 0
M  V30 7 C 38.267430 28.941166 54.948034 0
M  V30 8 C 39.037818 26.871031 53.720403 0
M  V30 9 H 38.445754 28.589487 50.957193 0
M  V30 10 H 39.997694 27.849375 51.334483 0
M  V30 11 H 41.161708 29.983523 51.071217 0
M  V30 12 H 39.645161 30.873804 51.012194 0
M  V30 13 H 39.127937 29.754956 49.107448 0
M  V30 14 H 37.152050 27.532858 52.304099 0
M  V30 15 H 37.809447 29.924996 54.837215 0
M  V30 16 H 37.645138 28.339064 55.610592 0
M  V30 17 H 39.251979 29.063594 55.400537 0
M  V30 18 H 39.106910 26.379252 52.752761 0
M  V30 19 H 40.037993 26.946291 54.147531 0
M  V30 20 H 38.429250 26.247574 54.376444 0
M  V30 END ATOM
M  V30 BEGIN BOND
M  V30 1 1 2 1
M  V30 2 1 3 1
M  V30 3 1 4 3
M  V30 4 1 5 2
M  V30 5 1 6 4
M  V30 6 1 7 4
M  V30 7 1 8 4
M  V30 8 1 9 1
M  V30 9 1 10 1
M  V30 10 1 11 2
M  V30 11 1 12 2
M  V30 12 1 13 5
M  V30 13 1 14 6
M  V30 14 1 15 7
M  V30 15 1 16 7
M  V30 16 1 17 7
M  V30 17 1 18 8
M  V30 18 1 19 8
M  V30 19 1 20 8
M  V30 END BOND
M  V30 END CTAB
M  END
>  <i_epik_Tot_Q>  (1) 
0

>  <i_epik_Tot_abs_Q>  (1) 
0

>  <i_i_glide_confnum>  (1) 
8

>  <i_i_glide_lignum>  (1) 
66

>  <i_i_glide_posenum>  (1) 
136

>  <i_i_glide_rotatable_bonds>  (1) 
5

>  <i_lp_mmshare_version>  (1) 
72125

>  <i_m_source_file_index>  (1) 
63

>  <i_f3d_flags>  (1) 
0

>  <num_sample>  (1) 
100

>  <b_lp_Chiralities_Consistent>  (1) 
1

>  <r_epik_Charging_Adjusted_Penalty>  (1) 
0

>  <r_epik_Ionization_Penalty>  (1) 
6.4082053832503559e-07

>  <r_epik_Ionization_Penalty_Charging>  (1) 
0

>  <r_epik_Ionization_Penalty_Neutral>  (1) 
6.4082053832503559e-07

>  <r_epik_State_Penalty>  (1) 
-0

>  <r_glide_ring_energy>  (1) 
0

>  <r_i_docking_score>  (1) 
-2.9927023495087113

>  <r_i_glide_ecoul>  (1) 
-5.8622650644340561

>  <r_i_glide_eff_state_penalty>  (1) 
-0

>  <r_i_glide_einternal>  (1) 
0.52595719698153376

>  <r_i_glide_emodel>  (1) 
-24.45414759838928

>  <r_i_glide_emodel_strain>  (1) 
0

>  <r_i_glide_energy>  (1) 
-20.541599471894234

>  <r_i_glide_erotb>  (1) 
2.7787352151322811

>  <r_i_glide_esite>  (1) 
0

>  <r_i_glide_evdw>  (1) 
-14.679334407460178

>  <r_i_glide_gscore>  (1) 
-2.9927023495087113

>  <r_i_glide_gscore_strain>  (1) 
0

>  <r_i_glide_hbond>  (1) 
-0.44881704598327632

>  <r_i_glide_ligand_efficiency>  (1) 
-0.37408779368858891

>  <r_i_glide_ligand_efficiency_ln>  (1) 
-0.97183281741279359

>  <r_i_glide_ligand_efficiency_sa>  (1) 
-0.74817558737717793

>  <r_i_glide_lipo>  (1) 
-1.0264632198852486

>  <r_i_glide_metal>  (1) 
-0

>  <r_i_glide_rewards>  (1) 
-2.6828508187343498

>  <r_lp_Energy>  (1) 
2.7008749999999999

>  <r_lp_tautomer_probability>  (1) 
1

>  <s_epik_cmdline>  (1) 
J2VwaWtfcHl0aG9uJywgJy1waHQnLCAnMS4wJywgJy1waCcsICc3LjQnLCAnLXRuJywgJzgnLCAnLW1hJywgJzUwMCcsICctaW1hZScsICc8aW5maWxlLm1hZT4nLCAnLW9tYWUnLCAnPG91dGZpbGUubWFlPic=

>  <s_epik_input>  (1) 
W09IXVtDSDJdW0NIMl1PQyhbT0hdKShbQ0gzXSlbQ0gzXQ==

>  <s_glide_docking_method>  (1) 
confgen

>  <s_i_glide_gridfile>  (1) 
gpcr_5ht2c_6bqh_protein_autoprepared_prepared

>  <s_lp_Force_Field>  (1) 
S-OPLS

>  <s_lp_Variant>  (1) 
Pocket2Mol_62-1

>  <s_m_source_file>  (1) 
generated_GPCR_5HT2C_ligand_Pocket2Mol_2026-06-23_prepared.sdf

>  <GenAI_Model>  (1) 
Pocket2Mol

>  <Protein>  (1) 
GPCR_5HT2C

$$$$
Pocket2Mol_25
     RDKit          3D

  0  0  0  0  0  0  0  0  0  0999 V3000
M  V30 BEGIN CTAB
M  V30 COUNTS 16 15 0 0 1
M  V30 BEGIN ATOM
M  V30 1 C 39.238126 27.324334 51.034742 0
M  V30 2 O 39.324510 27.179539 52.447450 0
M  V30 3 C 38.164538 27.588734 53.157453 0
M  V30 4 C 39.330690 28.786403 50.584997 0
M  V30 5 O 40.587669 29.313370 50.967581 0
M  V30 6 C 40.812164 30.613643 50.455620 0
M  V30 7 H 40.045036 26.764950 50.567760 0
M  V30 8 H 38.320840 26.864301 50.673248 0
M  V30 9 H 38.293943 27.368372 54.216587 0
M  V30 10 H 37.278734 27.054611 52.816222 0
M  V30 11 H 37.986509 28.660092 53.066842 0
M  V30 12 H 39.245284 28.832472 49.499907 0
M  V30 13 H 38.516409 29.375141 51.000507 0
M  V30 14 H 41.815699 30.937695 50.724631 0
M  V30 15 H 40.741893 30.628599 49.367776 0
M  V30 16 H 40.098302 31.329652 50.864924 0
M  V30 END ATOM
M  V30 BEGIN BOND
M  V30 1 1 2 1
M  V30 2 1 3 2
M  V30 3 1 4 1
M  V30 4 1 5 4
M  V30 5 1 6 5
M  V30 6 1 7 1
M  V30 7 1 8 1
M  V30 8 1 9 3
M  V30 9 1 10 3
M  V30 10 1 11 3
M  V30 11 1 12 4
M  V30 12 1 13 4
M  V30 13 1 14 6
M  V30 14 1 15 6
M  V30 15 1 16 6
M  V30 END BOND
M  V30 END CTAB
M  END
>  <i_epik_Tot_Q>  (1) 
0

>  <i_epik_Tot_abs_Q>  (1) 
0

>  <i_i_glide_confnum>  (1) 
3

>  <i_i_glide_lignum>  (1) 
28

>  <i_i_glide_posenum>  (1) 
143

>  <i_i_glide_rotatable_bonds>  (1) 
3

>  <i_lp_mmshare_version>  (1) 
72125

>  <i_m_source_file_index>  (1) 
26

>  <i_f3d_flags>  (1) 
0

>  <num_sample>  (1) 
100

>  <b_lp_Chiralities_Consistent>  (1) 
1

>  <r_epik_Charging_Adjusted_Penalty>  (1) 
0

>  <r_epik_Ionization_Penalty>  (1) 
3.8345288393749547e-12

>  <r_epik_Ionization_Penalty_Charging>  (1) 
0

>  <r_epik_Ionization_Penalty_Neutral>  (1) 
3.8345288393749547e-12

>  <r_epik_State_Penalty>  (1) 
-0

>  <r_glide_ring_energy>  (1) 
0

>  <r_i_docking_score>  (1) 
-2.992098288010554

>  <r_i_glide_ecoul>  (1) 
-1.3322605813838306

>  <r_i_glide_eff_state_penalty>  (1) 
-0

>  <r_i_glide_einternal>  (1) 
1.1574868698615874

>  <r_i_glide_emodel>  (1) 
-17.346843335401555

>  <r_i_glide_emodel_strain>  (1) 
0

>  <r_i_glide_energy>  (1) 
-15.23220641860668

>  <r_i_glide_erotb>  (1) 
1.4298651310552182

>  <r_i_glide_esite>  (1) 
0

>  <r_i_glide_evdw>  (1) 
-13.89994583722285

>  <r_i_glide_gscore>  (1) 
-2.992098288010554

>  <r_i_glide_gscore_strain>  (1) 
0

>  <r_i_glide_hbond>  (1) 
0

>  <r_i_glide_ligand_efficiency>  (1) 
-0.498683048001759

>  <r_i_glide_ligand_efficiency_ln>  (1) 
-1.0717607734443879

>  <r_i_glide_ligand_efficiency_sa>  (1) 
-0.90616723582029479

>  <r_i_glide_lipo>  (1) 
-1.2771270399970545

>  <r_i_glide_metal>  (1) 
-0

>  <r_i_glide_rewards>  (1) 
-2.25

>  <r_lp_Energy>  (1) 
5.9407059999999996

>  <r_lp_tautomer_probability>  (1) 
1

>  <s_epik_cmdline>  (1) 
J2VwaWtfcHl0aG9uJywgJy1waHQnLCAnMS4wJywgJy1waCcsICc3LjQnLCAnLXRuJywgJzgnLCAnLW1hJywgJzUwMCcsICctaW1hZScsICc8aW5maWxlLm1hZT4nLCAnLW9tYWUnLCAnPG91dGZpbGUubWFlPic=

>  <s_epik_input>  (1) 
W0NIM11PW0NIMl1bQ0gyXU9bQ0gzXQ==

>  <s_glide_docking_method>  (1) 
confgen

>  <s_i_glide_gridfile>  (1) 
gpcr_5ht2c_6bqh_protein_autoprepared_prepared

>  <s_lp_Force_Field>  (1) 
S-OPLS

>  <s_lp_Variant>  (1) 
Pocket2Mol_25-1

>  <s_m_source_file>  (1) 
generated_GPCR_5HT2C_ligand_Pocket2Mol_2026-06-23_prepared.sdf

>  <GenAI_Model>  (1) 
Pocket2Mol

>  <Protein>  (1) 
GPCR_5HT2C

$$$$
Pocket2Mol_62
     RDKit          3D

  0  0  0  0  0  0  0  0  0  0999 V3000
M  V30 BEGIN CTAB
M  V30 COUNTS 20 19 0 0 1
M  V30 BEGIN ATOM
M  V30 1 C 40.275722 29.708405 51.381889 0
M  V30 2 C 40.488967 30.229791 49.963695 0
M  V30 3 O 38.985635 29.103872 51.442711 0
M  V30 4 C 38.626225 28.386586 52.587399 0
M  V30 5 O 39.645138 31.337755 49.767758 0
M  V30 6 O 37.245138 28.137755 52.567758 0
M  V30 7 C 38.915312 29.194702 53.870184 0
M  V30 8 C 39.338834 27.030055 52.539768 0
M  V30 9 H 41.055644 28.980970 51.597501 0
M  V30 10 H 40.377077 30.525532 52.097383 0
M  V30 11 H 40.286568 29.459456 49.218814 0
M  V30 12 H 41.522144 30.555402 49.835225 0
M  V30 13 H 38.768987 31.004806 49.619029 0
M  V30 14 H 37.070313 27.505943 51.881285 0
M  V30 15 H 38.411052 30.160753 53.820679 0
M  V30 16 H 38.539494 28.654897 54.740184 0
M  V30 17 H 39.980604 29.362286 54.016548 0
M  V30 18 H 39.086979 26.537755 51.601931 0
M  V30 19 H 40.417992 27.145494 52.568087 0
M  V30 20 H 39.025759 26.406681 53.377759 0
M  V30 END ATOM
M  V30 BEGIN BOND
M  V30 1 1 2 1
M  V30 2 1 3 1
M  V30 3 1 4 3
M  V30 4 1 5 2
M  V30 5 1 6 4
M  V30 6 1 7 4
M  V30 7 1 8 4
M  V30 8 1 9 1
M  V30 9 1 10 1
M  V30 10 1 11 2
M  V30 11 1 12 2
M  V30 12 1 13 5
M  V30 13 1 14 6
M  V30 14 1 15 7
M  V30 15 1 16 7
M  V30 16 1 17 7
M  V30 17 1 18 8
M  V30 18 1 19 8
M  V30 19 1 20 8
M  V30 END BOND
M  V30 END CTAB
M  END
>  <i_epik_Tot_Q>  (1) 
0

>  <i_epik_Tot_abs_Q>  (1) 
0

>  <i_i_glide_confnum>  (1) 
14

>  <i_i_glide_lignum>  (1) 
66

>  <i_i_glide_posenum>  (1) 
29

>  <i_i_glide_rotatable_bonds>  (1) 
5

>  <i_lp_mmshare_version>  (1) 
72125

>  <i_m_source_file_index>  (1) 
63

>  <i_f3d_flags>  (1) 
0

>  <num_sample>  (1) 
100

>  <b_lp_Chiralities_Consistent>  (1) 
1

>  <r_epik_Charging_Adjusted_Penalty>  (1) 
0

>  <r_epik_Ionization_Penalty>  (1) 
6.4082053832503559e-07

>  <r_epik_Ionization_Penalty_Charging>  (1) 
0

>  <r_epik_Ionization_Penalty_Neutral>  (1) 
6.4082053832503559e-07

>  <r_epik_State_Penalty>  (1) 
-0

>  <r_glide_ring_energy>  (1) 
0

>  <r_i_docking_score>  (1) 
-2.9862093518773722

>  <r_i_glide_ecoul>  (1) 
-3.6745399993845345

>  <r_i_glide_eff_state_penalty>  (1) 
-0

>  <r_i_glide_einternal>  (1) 
3.5816123679553047

>  <r_i_glide_emodel>  (1) 
-21.298251646148884

>  <r_i_glide_emodel_strain>  (1) 
0.037863665812198022

>  <r_i_glide_energy>  (1) 
-18.960454036448994

>  <r_i_glide_erotb>  (1) 
2.7787352151322811

>  <r_i_glide_esite>  (1) 
0

>  <r_i_glide_evdw>  (1) 
-15.285914037064458

>  <r_i_glide_gscore>  (1) 
-2.9862093518773722

>  <r_i_glide_gscore_strain>  (1) 
0

>  <r_i_glide_hbond>  (1) 
-0.58629688468129826

>  <r_i_glide_ligand_efficiency>  (1) 
-0.37327616898467153

>  <r_i_glide_ligand_efficiency_ln>  (1) 
-0.96972431899077216

>  <r_i_glide_ligand_efficiency_sa>  (1) 
-0.74655233796934317

>  <r_i_glide_lipo>  (1) 
-1.1631709805674517

>  <r_i_glide_metal>  (1) 
-0

>  <r_i_glide_rewards>  (1) 
-2.7000000000000002

>  <r_lp_Energy>  (1) 
2.7008749999999999

>  <r_lp_tautomer_probability>  (1) 
1

>  <s_epik_cmdline>  (1) 
J2VwaWtfcHl0aG9uJywgJy1waHQnLCAnMS4wJywgJy1waCcsICc3LjQnLCAnLXRuJywgJzgnLCAnLW1hJywgJzUwMCcsICctaW1hZScsICc8aW5maWxlLm1hZT4nLCAnLW9tYWUnLCAnPG91dGZpbGUubWFlPic=

>  <s_epik_input>  (1) 
W09IXVtDSDJdW0NIMl1PQyhbT0hdKShbQ0gzXSlbQ0gzXQ==

>  <s_glide_docking_method>  (1) 
confgen

>  <s_i_glide_gridfile>  (1) 
gpcr_5ht2c_6bqh_protein_autoprepared_prepared

>  <s_lp_Force_Field>  (1) 
S-OPLS

>  <s_lp_Variant>  (1) 
Pocket2Mol_62-1

>  <s_m_source_file>  (1) 
generated_GPCR_5HT2C_ligand_Pocket2Mol_2026-06-23_prepared.sdf

>  <GenAI_Model>  (1) 
Pocket2Mol

>  <Protein>  (1) 
GPCR_5HT2C

$$$$
Pocket2Mol_2
     RDKit          3D

  0  0  0  0  0  0  0  0  0  0999 V3000
M  V30 BEGIN CTAB
M  V30 COUNTS 15 14 0 0 1
M  V30 BEGIN ATOM
M  V30 1 C 39.672812 30.612051 53.290238 0
M  V30 2 C 39.671891 29.752429 52.015146 0
M  V30 3 C 39.089701 29.876948 54.502104 0
M  V30 4 C 40.189697 30.525212 50.793448 0
M  V30 5 O 40.045244 29.737044 49.632750 0
M  V30 6 H 40.688655 30.936729 53.518298 0
M  V30 7 H 39.101721 31.525813 53.123013 0
M  V30 8 H 38.666069 29.375145 51.823354 0
M  V30 9 H 40.291590 28.869114 52.167759 0
M  V30 10 H 39.125826 30.507824 55.390686 0
M  V30 11 H 38.047460 29.603873 54.333640 0
M  V30 12 H 39.645073 28.964774 54.719919 0
M  V30 13 H 41.242049 30.781696 50.922558 0
M  V30 14 H 39.645140 31.459673 50.656638 0
M  V30 15 H 39.129716 29.737747 49.371543 0
M  V30 END ATOM
M  V30 BEGIN BOND
M  V30 1 1 2 1
M  V30 2 1 3 1
M  V30 3 1 4 2
M  V30 4 1 5 4
M  V30 5 1 6 1
M  V30 6 1 7 1
M  V30 7 1 8 2
M  V30 8 1 9 2
M  V30 9 1 10 3
M  V30 10 1 11 3
M  V30 11 1 12 3
M  V30 12 1 13 4
M  V30 13 1 14 4
M  V30 14 1 15 5
M  V30 END BOND
M  V30 END CTAB
M  END
>  <i_epik_Tot_Q>  (1) 
0

>  <i_epik_Tot_abs_Q>  (1) 
0

>  <i_i_glide_confnum>  (1) 
1

>  <i_i_glide_lignum>  (1) 
5

>  <i_i_glide_posenum>  (1) 
379

>  <i_i_glide_rotatable_bonds>  (1) 
3

>  <i_lp_mmshare_version>  (1) 
72125

>  <i_m_source_file_index>  (1) 
3

>  <i_f3d_flags>  (1) 
0

>  <num_sample>  (1) 
100

>  <b_lp_Chiralities_Consistent>  (1) 
1

>  <r_epik_Charging_Adjusted_Penalty>  (1) 
0

>  <r_epik_Ionization_Penalty>  (1) 
2.9396235358890345e-07

>  <r_epik_Ionization_Penalty_Charging>  (1) 
0

>  <r_epik_Ionization_Penalty_Neutral>  (1) 
2.9396235358890345e-07

>  <r_epik_State_Penalty>  (1) 
-0

>  <r_glide_ring_energy>  (1) 
0

>  <r_i_docking_score>  (1) 
-2.9433792557319927

>  <r_i_glide_ecoul>  (1) 
-3.0802889403204117

>  <r_i_glide_eff_state_penalty>  (1) 
-0

>  <r_i_glide_einternal>  (1) 
0.42206690019963178

>  <r_i_glide_emodel>  (1) 
-16.083791687259399

>  <r_i_glide_emodel_strain>  (1) 
0.00013458039382993614

>  <r_i_glide_energy>  (1) 
-13.764120103041003

>  <r_i_glide_erotb>  (1) 
1.8982399431532129

>  <r_i_glide_esite>  (1) 
0

>  <r_i_glide_evdw>  (1) 
-10.683831162720592

>  <r_i_glide_gscore>  (1) 
-2.9433792557319927

>  <r_i_glide_gscore_strain>  (1) 
0

>  <r_i_glide_hbond>  (1) 
-0.32000000000000001

>  <r_i_glide_ligand_efficiency>  (1) 
-0.58867585114639853

>  <r_i_glide_ligand_efficiency_ln>  (1) 
-1.1279744353014285

>  <r_i_glide_ligand_efficiency_sa>  (1) 
-1.0066215458497731

>  <r_i_glide_lipo>  (1) 
-1.1653650426516236

>  <r_i_glide_metal>  (1) 
-0

>  <r_i_glide_rewards>  (1) 
-2.3600192570494909

>  <r_lp_Energy>  (1) 
2.038589

>  <r_lp_tautomer_probability>  (1) 
1

>  <s_epik_cmdline>  (1) 
J2VwaWtfcHl0aG9uJywgJy1waHQnLCAnMS4wJywgJy1waCcsICc3LjQnLCAnLXRuJywgJzgnLCAnLW1hJywgJzUwMCcsICctaW1hZScsICc8aW5maWxlLm1hZT4nLCAnLW9tYWUnLCAnPG91dGZpbGUubWFlPic=

>  <s_epik_input>  (1) 
W0NIM11bQ0gyXVtDSDJdW0NIMl1bT0hd

>  <s_glide_docking_method>  (1) 
confgen

>  <s_i_glide_gridfile>  (1) 
gpcr_5ht2c_6bqh_protein_autoprepared_prepared

>  <s_lp_Force_Field>  (1) 
S-OPLS

>  <s_lp_Variant>  (1) 
Pocket2Mol_2-1

>  <s_m_source_file>  (1) 
generated_GPCR_5HT2C_ligand_Pocket2Mol_2026-06-23_prepared.sdf

>  <GenAI_Model>  (1) 
Pocket2Mol

>  <Protein>  (1) 
GPCR_5HT2C

$$$$
Pocket2Mol_25
     RDKit          3D

  0  0  0  0  0  0  0  0  0  0999 V3000
M  V30 BEGIN CTAB
M  V30 COUNTS 16 15 0 0 1
M  V30 BEGIN ATOM
M  V30 1 C 39.928107 28.874686 51.672443 0
M  V30 2 O 39.645141 29.715430 50.568050 0
M  V30 3 C 40.641906 30.701110 50.364986 0
M  V30 4 C 38.762427 27.895783 51.891266 0
M  V30 5 O 37.645135 28.537754 52.492905 0
M  V30 6 C 37.731274 28.668948 53.903571 0
M  V30 7 H 40.839004 28.316312 51.454952 0
M  V30 8 H 40.116115 29.466628 52.567755 0
M  V30 9 H 40.363081 31.337723 49.525775 0
M  V30 10 H 41.609448 30.249950 50.141698 0
M  V30 11 H 40.747462 31.337753 51.244194 0
M  V30 12 H 38.450807 27.478867 50.933647 0
M  V30 13 H 39.081230 27.048957 52.501132 0
M  V30 14 H 36.845138 29.182865 54.275327 0
M  V30 15 H 37.776264 27.691663 54.385563 0
M  V30 16 H 38.599893 29.250494 54.211061 0
M  V30 END ATOM
M  V30 BEGIN BOND
M  V30 1 1 2 1
M  V30 2 1 3 2
M  V30 3 1 4 1
M  V30 4 1 5 4
M  V30 5 1 6 5
M  V30 6 1 7 1
M  V30 7 1 8 1
M  V30 8 1 9 3
M  V30 9 1 10 3
M  V30 10 1 11 3
M  V30 11 1 12 4
M  V30 12 1 13 4
M  V30 13 1 14 6
M  V30 14 1 15 6
M  V30 15 1 16 6
M  V30 END BOND
M  V30 END CTAB
M  END
>  <i_epik_Tot_Q>  (1) 
0

>  <i_epik_Tot_abs_Q>  (1) 
0

>  <i_i_glide_confnum>  (1) 
1

>  <i_i_glide_lignum>  (1) 
28

>  <i_i_glide_posenum>  (1) 
295

>  <i_i_glide_rotatable_bonds>  (1) 
3

>  <i_lp_mmshare_version>  (1) 
72125

>  <i_m_source_file_index>  (1) 
26

>  <i_f3d_flags>  (1) 
0

>  <num_sample>  (1) 
100

>  <b_lp_Chiralities_Consistent>  (1) 
1

>  <r_epik_Charging_Adjusted_Penalty>  (1) 
0

>  <r_epik_Ionization_Penalty>  (1) 
3.8345288393749547e-12

>  <r_epik_Ionization_Penalty_Charging>  (1) 
0

>  <r_epik_Ionization_Penalty_Neutral>  (1) 
3.8345288393749547e-12

>  <r_epik_State_Penalty>  (1) 
-0

>  <r_glide_ring_energy>  (1) 
0

>  <r_i_docking_score>  (1) 
-2.8803296283966069

>  <r_i_glide_ecoul>  (1) 
-0.17728802190118995

>  <r_i_glide_eff_state_penalty>  (1) 
-0

>  <r_i_glide_einternal>  (1) 
0.88976792431428553

>  <r_i_glide_emodel>  (1) 
-16.597205366697807

>  <r_i_glide_emodel_strain>  (1) 
0

>  <r_i_glide_energy>  (1) 
-14.449319145234112

>  <r_i_glide_erotb>  (1) 
1.4298651310552182

>  <r_i_glide_esite>  (1) 
0

>  <r_i_glide_evdw>  (1) 
-14.272031123332923

>  <r_i_glide_gscore>  (1) 
-2.8803296283966069

>  <r_i_glide_gscore_strain>  (1) 
0

>  <r_i_glide_hbond>  (1) 
0

>  <r_i_glide_ligand_efficiency>  (1) 
-0.48005493806610117

>  <r_i_glide_ligand_efficiency_ln>  (1) 
-1.031725569535918

>  <r_i_glide_ligand_efficiency_sa>  (1) 
-0.8723177136506699

>  <r_i_glide_lipo>  (1) 
-1.3200000000000001

>  <r_i_glide_metal>  (1) 
-0

>  <r_i_glide_rewards>  (1) 
-2.25

>  <r_lp_Energy>  (1) 
5.9407059999999996

>  <r_lp_tautomer_probability>  (1) 
1

>  <s_epik_cmdline>  (1) 
J2VwaWtfcHl0aG9uJywgJy1waHQnLCAnMS4wJywgJy1waCcsICc3LjQnLCAnLXRuJywgJzgnLCAnLW1hJywgJzUwMCcsICctaW1hZScsICc8aW5maWxlLm1hZT4nLCAnLW9tYWUnLCAnPG91dGZpbGUubWFlPic=

>  <s_epik_input>  (1) 
W0NIM11PW0NIMl1bQ0gyXU9bQ0gzXQ==

>  <s_glide_docking_method>  (1) 
confgen

>  <s_i_glide_gridfile>  (1) 
gpcr_5ht2c_6bqh_protein_autoprepared_prepared

>  <s_lp_Force_Field>  (1) 
S-OPLS

>  <s_lp_Variant>  (1) 
Pocket2Mol_25-1

>  <s_m_source_file>  (1) 
generated_GPCR_5HT2C_ligand_Pocket2Mol_2026-06-23_prepared.sdf

>  <GenAI_Model>  (1) 
Pocket2Mol

>  <Protein>  (1) 
GPCR_5HT2C

$$$$
Pocket2Mol_66
     RDKit          3D

  0  0  0  0  0  0  0  0  0  0999 V3000
M  V30 BEGIN CTAB
M  V30 COUNTS 13 12 0 0 1
M  V30 BEGIN ATOM
M  V30 1 C 39.961786 29.202368 51.703872 0
M  V30 2 C 40.250507 30.278658 50.652537 0
M  V30 3 O 38.569129 28.937518 51.765622 0
M  V30 4 O 40.045345 29.737891 49.367820 0
M  V30 5 C 38.242043 27.925610 52.700462 0
M  V30 6 H 40.526870 28.292943 51.491815 0
M  V30 7 H 40.285454 29.580494 52.673030 0
M  V30 8 H 41.292712 30.591507 50.722683 0
M  V30 9 H 39.645104 31.172211 50.800816 0
M  V30 10 H 39.105553 29.681415 49.219850 0
M  V30 11 H 37.164238 27.761530 52.701452 0
M  V30 12 H 38.728168 26.982445 52.445611 0
M  V30 13 H 38.540497 28.212796 53.708933 0
M  V30 END ATOM
M  V30 BEGIN BOND
M  V30 1 1 2 1
M  V30 2 1 3 1
M  V30 3 1 4 2
M  V30 4 1 5 3
M  V30 5 1 6 1
M  V30 6 1 7 1
M  V30 7 1 8 2
M  V30 8 1 9 2
M  V30 9 1 10 4
M  V30 10 1 11 5
M  V30 11 1 12 5
M  V30 12 1 13 5
M  V30 END BOND
M  V30 END CTAB
M  END
>  <i_epik_Tot_Q>  (1) 
0

>  <i_epik_Tot_abs_Q>  (1) 
0

>  <i_i_glide_confnum>  (1) 
2

>  <i_i_glide_lignum>  (1) 
71

>  <i_i_glide_posenum>  (1) 
122

>  <i_i_glide_rotatable_bonds>  (1) 
3

>  <i_lp_mmshare_version>  (1) 
72125

>  <i_m_source_file_index>  (1) 
67

>  <i_f3d_flags>  (1) 
0

>  <num_sample>  (1) 
100

>  <b_lp_Chiralities_Consistent>  (1) 
1

>  <r_epik_Charging_Adjusted_Penalty>  (1) 
0

>  <r_epik_Ionization_Penalty>  (1) 
5.5888793446441707e-08

>  <r_epik_Ionization_Penalty_Charging>  (1) 
0

>  <r_epik_Ionization_Penalty_Neutral>  (1) 
5.5888793446441707e-08

>  <r_epik_State_Penalty>  (1) 
-0

>  <r_glide_ring_energy>  (1) 
0

>  <r_i_docking_score>  (1) 
-2.8202580016950307

>  <r_i_glide_ecoul>  (1) 
-3.8324127023041425

>  <r_i_glide_eff_state_penalty>  (1) 
-0

>  <r_i_glide_einternal>  (1) 
2.4300251694124819

>  <r_i_glide_emodel>  (1) 
-15.499083429247154

>  <r_i_glide_emodel_strain>  (1) 
0

>  <r_i_glide_energy>  (1) 
-14.106942837896696

>  <r_i_glide_erotb>  (1) 
1.8283304104302178

>  <r_i_glide_esite>  (1) 
0

>  <r_i_glide_evdw>  (1) 
-10.274530135592554

>  <r_i_glide_gscore>  (1) 
-2.8202580016950307

>  <r_i_glide_gscore_strain>  (1) 
0

>  <r_i_glide_hbond>  (1) 
-0.32000000000000001

>  <r_i_glide_ligand_efficiency>  (1) 
-0.56405160033900614

>  <r_i_glide_ligand_efficiency_ln>  (1) 
-1.0807913797283171

>  <r_i_glide_ligand_efficiency_sa>  (1) 
-0.96451466926419793

>  <r_i_glide_lipo>  (1) 
-0.98999999999999999

>  <r_i_glide_metal>  (1) 
-0

>  <r_i_glide_rewards>  (1) 
-2.25

>  <r_lp_Energy>  (1) 
3.7496159999999996

>  <r_lp_tautomer_probability>  (1) 
1

>  <s_epik_cmdline>  (1) 
J2VwaWtfcHl0aG9uJywgJy1waHQnLCAnMS4wJywgJy1waCcsICc3LjQnLCAnLXRuJywgJzgnLCAnLW1hJywgJzUwMCcsICctaW1hZScsICc8aW5maWxlLm1hZT4nLCAnLW9tYWUnLCAnPG91dGZpbGUubWFlPic=

>  <s_epik_input>  (1) 
W0NIM11PW0NIMl1bQ0gyXVtPSF0=

>  <s_glide_docking_method>  (1) 
confgen

>  <s_i_glide_gridfile>  (1) 
gpcr_5ht2c_6bqh_protein_autoprepared_prepared

>  <s_lp_Force_Field>  (1) 
S-OPLS

>  <s_lp_Variant>  (1) 
Pocket2Mol_66-1

>  <s_m_source_file>  (1) 
generated_GPCR_5HT2C_ligand_Pocket2Mol_2026-06-23_prepared.sdf

>  <GenAI_Model>  (1) 
Pocket2Mol

>  <Protein>  (1) 
GPCR_5HT2C

$$$$
Pocket2Mol_66
     RDKit          3D

  0  0  0  0  0  0  0  0  0  0999 V3000
M  V30 BEGIN CTAB
M  V30 COUNTS 13 12 0 0 1
M  V30 BEGIN ATOM
M  V30 1 C 40.201742 28.723421 51.326036 0
M  V30 2 C 39.285884 27.494080 51.207401 0
M  V30 3 O 40.044697 29.542390 50.179836 0
M  V30 4 O 38.045137 27.765493 51.813457 0
M  V30 5 C 40.793407 30.741095 50.265340 0
M  V30 6 H 39.997222 29.276706 52.244625 0
M  V30 7 H 41.245132 28.414114 51.367760 0
M  V30 8 H 39.701153 26.640557 51.739820 0
M  V30 9 H 39.154654 27.194092 50.168031 0
M  V30 10 H 37.427016 27.082470 51.574796 0
M  V30 11 H 40.634921 31.337584 49.367831 0
M  V30 12 H 40.478959 31.337645 51.122873 0
M  V30 13 H 41.861839 30.537909 50.350415 0
M  V30 END ATOM
M  V30 BEGIN BOND
M  V30 1 1 2 1
M  V30 2 1 3 1
M  V30 3 1 4 2
M  V30 4 1 5 3
M  V30 5 1 6 1
M  V30 6 1 7 1
M  V30 7 1 8 2
M  V30 8 1 9 2
M  V30 9 1 10 4
M  V30 10 1 11 5
M  V30 11 1 12 5
M  V30 12 1 13 5
M  V30 END BOND
M  V30 END CTAB
M  END
>  <i_epik_Tot_Q>  (1) 
0

>  <i_epik_Tot_abs_Q>  (1) 
0

>  <i_i_glide_confnum>  (1) 
2

>  <i_i_glide_lignum>  (1) 
71

>  <i_i_glide_posenum>  (1) 
6

>  <i_i_glide_rotatable_bonds>  (1) 
3

>  <i_lp_mmshare_version>  (1) 
72125

>  <i_m_source_file_index>  (1) 
67

>  <i_f3d_flags>  (1) 
0

>  <num_sample>  (1) 
100

>  <b_lp_Chiralities_Consistent>  (1) 
1

>  <r_epik_Charging_Adjusted_Penalty>  (1) 
0

>  <r_epik_Ionization_Penalty>  (1) 
5.5888793446441707e-08

>  <r_epik_Ionization_Penalty_Charging>  (1) 
0

>  <r_epik_Ionization_Penalty_Neutral>  (1) 
5.5888793446441707e-08

>  <r_epik_State_Penalty>  (1) 
-0

>  <r_glide_ring_energy>  (1) 
0

>  <r_i_docking_score>  (1) 
-2.8037755534832174

>  <r_i_glide_ecoul>  (1) 
-3.2283263782487444

>  <r_i_glide_eff_state_penalty>  (1) 
-0

>  <r_i_glide_einternal>  (1) 
2.355144833116201

>  <r_i_glide_emodel>  (1) 
-17.384344869352205

>  <r_i_glide_emodel_strain>  (1) 
0

>  <r_i_glide_energy>  (1) 
-15.970001108446922

>  <r_i_glide_erotb>  (1) 
1.8283304104302178

>  <r_i_glide_esite>  (1) 
0

>  <r_i_glide_evdw>  (1) 
-12.741674730198179

>  <r_i_glide_gscore>  (1) 
-2.8037755534832174

>  <r_i_glide_gscore_strain>  (1) 
0

>  <r_i_glide_hbond>  (1) 
-0.32000000000000001

>  <r_i_glide_ligand_efficiency>  (1) 
-0.56075511069664352

>  <r_i_glide_ligand_efficiency_ln>  (1) 
-1.074474905159877

>  <r_i_glide_ligand_efficiency_sa>  (1) 
-0.95887775126728891

>  <r_i_glide_lipo>  (1) 
-0.94077327066621519

>  <r_i_glide_metal>  (1) 
-0

>  <r_i_glide_rewards>  (1) 
-2.25

>  <r_lp_Energy>  (1) 
3.7496159999999996

>  <r_lp_tautomer_probability>  (1) 
1

>  <s_epik_cmdline>  (1) 
J2VwaWtfcHl0aG9uJywgJy1waHQnLCAnMS4wJywgJy1waCcsICc3LjQnLCAnLXRuJywgJzgnLCAnLW1hJywgJzUwMCcsICctaW1hZScsICc8aW5maWxlLm1hZT4nLCAnLW9tYWUnLCAnPG91dGZpbGUubWFlPic=

>  <s_epik_input>  (1) 
W0NIM11PW0NIMl1bQ0gyXVtPSF0=

>  <s_glide_docking_method>  (1) 
confgen

>  <s_i_glide_gridfile>  (1) 
gpcr_5ht2c_6bqh_protein_autoprepared_prepared

>  <s_lp_Force_Field>  (1) 
S-OPLS

>  <s_lp_Variant>  (1) 
Pocket2Mol_66-1

>  <s_m_source_file>  (1) 
generated_GPCR_5HT2C_ligand_Pocket2Mol_2026-06-23_prepared.sdf

>  <GenAI_Model>  (1) 
Pocket2Mol

>  <Protein>  (1) 
GPCR_5HT2C

$$$$
Pocket2Mol_25
     RDKit          3D

  0  0  0  0  0  0  0  0  0  0999 V3000
M  V30 BEGIN CTAB
M  V30 COUNTS 16 15 0 0 1
M  V30 BEGIN ATOM
M  V30 1 C 39.893964 28.529629 51.237610 0
M  V30 2 O 39.645128 29.848401 50.785780 0
M  V30 3 C 40.682588 30.352490 49.964487 0
M  V30 4 C 38.766400 28.108585 52.185014 0
M  V30 5 O 39.161253 26.945756 52.894770 0
M  V30 6 C 38.187607 26.538020 53.841564 0
M  V30 7 H 39.968551 27.836005 50.398851 0
M  V30 8 H 40.845600 28.510629 51.767720 0
M  V30 9 H 40.428536 31.360897 49.641940 0
M  V30 10 H 40.815640 29.737750 49.073836 0
M  V30 11 H 41.629642 30.401689 50.503802 0
M  V30 12 H 38.569996 28.913376 52.895326 0
M  V30 13 H 37.845838 27.930789 51.626552 0
M  V30 14 H 38.539908 25.654956 54.373988 0
M  V30 15 H 37.999331 27.318949 54.579596 0
M  V30 16 H 37.245081 26.282936 53.356483 0
M  V30 END ATOM
M  V30 BEGIN BOND
M  V30 1 1 2 1
M  V30 2 1 3 2
M  V30 3 1 4 1
M  V30 4 1 5 4
M  V30 5 1 6 5
M  V30 6 1 7 1
M  V30 7 1 8 1
M  V30 8 1 9 3
M  V30 9 1 10 3
M  V30 10 1 11 3
M  V30 11 1 12 4
M  V30 12 1 13 4
M  V30 13 1 14 6
M  V30 14 1 15 6
M  V30 15 1 16 6
M  V30 END BOND
M  V30 END CTAB
M  END
>  <i_epik_Tot_Q>  (1) 
0

>  <i_epik_Tot_abs_Q>  (1) 
0

>  <i_i_glide_confnum>  (1) 
3

>  <i_i_glide_lignum>  (1) 
28

>  <i_i_glide_posenum>  (1) 
149

>  <i_i_glide_rotatable_bonds>  (1) 
3

>  <i_lp_mmshare_version>  (1) 
72125

>  <i_m_source_file_index>  (1) 
26

>  <i_f3d_flags>  (1) 
0

>  <num_sample>  (1) 
100

>  <b_lp_Chiralities_Consistent>  (1) 
1

>  <r_epik_Charging_Adjusted_Penalty>  (1) 
0

>  <r_epik_Ionization_Penalty>  (1) 
3.8345288393749547e-12

>  <r_epik_Ionization_Penalty_Charging>  (1) 
0

>  <r_epik_Ionization_Penalty_Neutral>  (1) 
3.8345288393749547e-12

>  <r_epik_State_Penalty>  (1) 
-0

>  <r_glide_ring_energy>  (1) 
0

>  <r_i_docking_score>  (1) 
-2.7774327859682031

>  <r_i_glide_ecoul>  (1) 
-0.09267378843461678

>  <r_i_glide_eff_state_penalty>  (1) 
-0

>  <r_i_glide_einternal>  (1) 
0.55014892655076841

>  <r_i_glide_emodel>  (1) 
-16.692953628710605

>  <r_i_glide_emodel_strain>  (1) 
0

>  <r_i_glide_energy>  (1) 
-14.467881982501282

>  <r_i_glide_erotb>  (1) 
1.4298651310552182

>  <r_i_glide_esite>  (1) 
0

>  <r_i_glide_evdw>  (1) 
-14.375208194066666

>  <r_i_glide_gscore>  (1) 
-2.7774327859682031

>  <r_i_glide_gscore_strain>  (1) 
0

>  <r_i_glide_hbond>  (1) 
0

>  <r_i_glide_ligand_efficiency>  (1) 
-0.46290546432803387

>  <r_i_glide_ligand_efficiency_ln>  (1) 
-0.99486822435178723

>  <r_i_glide_ligand_efficiency_sa>  (1) 
-0.84115505176499383

>  <r_i_glide_lipo>  (1) 
-1.2246364390548956

>  <r_i_glide_metal>  (1) 
-0

>  <r_i_glide_rewards>  (1) 
-2.25

>  <r_lp_Energy>  (1) 
5.9407059999999996

>  <r_lp_tautomer_probability>  (1) 
1

>  <s_epik_cmdline>  (1) 
J2VwaWtfcHl0aG9uJywgJy1waHQnLCAnMS4wJywgJy1waCcsICc3LjQnLCAnLXRuJywgJzgnLCAnLW1hJywgJzUwMCcsICctaW1hZScsICc8aW5maWxlLm1hZT4nLCAnLW9tYWUnLCAnPG91dGZpbGUubWFlPic=

>  <s_epik_input>  (1) 
W0NIM11PW0NIMl1bQ0gyXU9bQ0gzXQ==

>  <s_glide_docking_method>  (1) 
confgen

>  <s_i_glide_gridfile>  (1) 
gpcr_5ht2c_6bqh_protein_autoprepared_prepared

>  <s_lp_Force_Field>  (1) 
S-OPLS

>  <s_lp_Variant>  (1) 
Pocket2Mol_25-1

>  <s_m_source_file>  (1) 
generated_GPCR_5HT2C_ligand_Pocket2Mol_2026-06-23_prepared.sdf

>  <GenAI_Model>  (1) 
Pocket2Mol

>  <Protein>  (1) 
GPCR_5HT2C

$$$$
Pocket2Mol_2
     RDKit          3D

  0  0  0  0  0  0  0  0  0  0999 V3000
M  V30 BEGIN CTAB
M  V30 COUNTS 15 14 0 0 1
M  V30 BEGIN ATOM
M  V30 1 C 40.064974 29.756909 49.950181 0
M  V30 2 C 39.563079 28.441570 50.568751 0
M  V30 3 C 41.173646 30.452492 50.741635 0
M  V30 4 C 38.893399 28.597210 51.940612 0
M  V30 5 O 38.445238 27.338560 52.395692 0
M  V30 6 H 40.445226 29.532336 48.956489 0
M  V30 7 H 39.245134 30.457266 49.808979 0
M  V30 8 H 40.392960 27.738322 50.640090 0
M  V30 9 H 38.845138 27.993897 49.882231 0
M  V30 10 H 41.585061 31.281046 50.166028 0
M  V30 11 H 40.799401 30.860426 51.680568 0
M  V30 12 H 41.987326 29.764793 50.967584 0
M  V30 13 H 38.046107 29.278903 51.887580 0
M  V30 14 H 39.593091 29.004602 52.670460 0
M  V30 15 H 37.766162 27.019227 51.815647 0
M  V30 END ATOM
M  V30 BEGIN BOND
M  V30 1 1 2 1
M  V30 2 1 3 1
M  V30 3 1 4 2
M  V30 4 1 5 4
M  V30 5 1 6 1
M  V30 6 1 7 1
M  V30 7 1 8 2
M  V30 8 1 9 2
M  V30 9 1 10 3
M  V30 10 1 11 3
M  V30 11 1 12 3
M  V30 12 1 13 4
M  V30 13 1 14 4
M  V30 14 1 15 5
M  V30 END BOND
M  V30 END CTAB
M  END
>  <i_epik_Tot_Q>  (1) 
0

>  <i_epik_Tot_abs_Q>  (1) 
0

>  <i_i_glide_confnum>  (1) 
1

>  <i_i_glide_lignum>  (1) 
5

>  <i_i_glide_posenum>  (1) 
246

>  <i_i_glide_rotatable_bonds>  (1) 
3

>  <i_lp_mmshare_version>  (1) 
72125

>  <i_m_source_file_index>  (1) 
3

>  <i_f3d_flags>  (1) 
0

>  <num_sample>  (1) 
100

>  <b_lp_Chiralities_Consistent>  (1) 
1

>  <r_epik_Charging_Adjusted_Penalty>  (1) 
0

>  <r_epik_Ionization_Penalty>  (1) 
2.9396235358890345e-07

>  <r_epik_Ionization_Penalty_Charging>  (1) 
0

>  <r_epik_Ionization_Penalty_Neutral>  (1) 
2.9396235358890345e-07

>  <r_epik_State_Penalty>  (1) 
-0

>  <r_glide_ring_energy>  (1) 
0

>  <r_i_docking_score>  (1) 
-2.7608677509801942

>  <r_i_glide_ecoul>  (1) 
-1.6052030122921099

>  <r_i_glide_eff_state_penalty>  (1) 
-0

>  <r_i_glide_einternal>  (1) 
0.97889660623854624

>  <r_i_glide_emodel>  (1) 
-15.264263492177973

>  <r_i_glide_emodel_strain>  (1) 
0

>  <r_i_glide_energy>  (1) 
-13.379803145382564

>  <r_i_glide_erotb>  (1) 
1.8982399431532129

>  <r_i_glide_esite>  (1) 
0

>  <r_i_glide_evdw>  (1) 
-11.774600133090454

>  <r_i_glide_gscore>  (1) 
-2.7608677509801942

>  <r_i_glide_gscore_strain>  (1) 
0

>  <r_i_glide_hbond>  (1) 
-0.1544090870105273

>  <r_i_glide_ligand_efficiency>  (1) 
-0.55217355019603886

>  <r_i_glide_ligand_efficiency_ln>  (1) 
-1.0580315928670014

>  <r_i_glide_ligand_efficiency_sa>  (1) 
-0.94420348922630415

>  <r_i_glide_lipo>  (1) 
-1.1335214819578736

>  <r_i_glide_metal>  (1) 
-0

>  <r_i_glide_rewards>  (1) 
-2.5416666666666665

>  <r_lp_Energy>  (1) 
2.038589

>  <r_lp_tautomer_probability>  (1) 
1

>  <s_epik_cmdline>  (1) 
J2VwaWtfcHl0aG9uJywgJy1waHQnLCAnMS4wJywgJy1waCcsICc3LjQnLCAnLXRuJywgJzgnLCAnLW1hJywgJzUwMCcsICctaW1hZScsICc8aW5maWxlLm1hZT4nLCAnLW9tYWUnLCAnPG91dGZpbGUubWFlPic=

>  <s_epik_input>  (1) 
W0NIM11bQ0gyXVtDSDJdW0NIMl1bT0hd

>  <s_glide_docking_method>  (1) 
confgen

>  <s_i_glide_gridfile>  (1) 
gpcr_5ht2c_6bqh_protein_autoprepared_prepared

>  <s_lp_Force_Field>  (1) 
S-OPLS

>  <s_lp_Variant>  (1) 
Pocket2Mol_2-1

>  <s_m_source_file>  (1) 
generated_GPCR_5HT2C_ligand_Pocket2Mol_2026-06-23_prepared.sdf

>  <GenAI_Model>  (1) 
Pocket2Mol

>  <Protein>  (1) 
GPCR_5HT2C

$$$$
Pocket2Mol_66
     RDKit          3D

  0  0  0  0  0  0  0  0  0  0999 V3000
M  V30 BEGIN CTAB
M  V30 COUNTS 13 12 0 0 1
M  V30 BEGIN ATOM
M  V30 1 C 39.303942 29.068470 51.525171 0
M  V30 2 C 39.240202 27.584395 51.888971 0
M  V30 3 O 40.445151 29.323943 50.729973 0
M  V30 4 O 38.045137 27.335194 52.591111 0
M  V30 5 C 40.553149 30.688128 50.360235 0
M  V30 6 H 38.413043 29.337752 50.967760 0
M  V30 7 H 39.327288 29.678685 52.429799 0
M  V30 8 H 40.078462 27.309147 52.525519 0
M  V30 9 H 39.276567 26.955776 50.997915 0
M  V30 10 H 37.374023 27.070995 51.972256 0
M  V30 11 H 41.453216 30.838144 49.763763 0
M  V30 12 H 39.696535 31.005446 49.764095 0
M  V30 13 H 40.623260 31.331108 51.238814 0
M  V30 END ATOM
M  V30 BEGIN BOND
M  V30 1 1 2 1
M  V30 2 1 3 1
M  V30 3 1 4 2
M  V30 4 1 5 3
M  V30 5 1 6 1
M  V30 6 1 7 1
M  V30 7 1 8 2
M  V30 8 1 9 2
M  V30 9 1 10 4
M  V30 10 1 11 5
M  V30 11 1 12 5
M  V30 12 1 13 5
M  V30 END BOND
M  V30 END CTAB
M  END
>  <i_epik_Tot_Q>  (1) 
0

>  <i_epik_Tot_abs_Q>  (1) 
0

>  <i_i_glide_confnum>  (1) 
1

>  <i_i_glide_lignum>  (1) 
71

>  <i_i_glide_posenum>  (1) 
310

>  <i_i_glide_rotatable_bonds>  (1) 
3

>  <i_lp_mmshare_version>  (1) 
72125

>  <i_m_source_file_index>  (1) 
67

>  <i_f3d_flags>  (1) 
0

>  <num_sample>  (1) 
100

>  <b_lp_Chiralities_Consistent>  (1) 
1

>  <r_epik_Charging_Adjusted_Penalty>  (1) 
0

>  <r_epik_Ionization_Penalty>  (1) 
5.5888793446441707e-08

>  <r_epik_Ionization_Penalty_Charging>  (1) 
0

>  <r_epik_Ionization_Penalty_Neutral>  (1) 
5.5888793446441707e-08

>  <r_epik_State_Penalty>  (1) 
-0

>  <r_glide_ring_energy>  (1) 
0

>  <r_i_docking_score>  (1) 
-2.7548489727352115

>  <r_i_glide_ecoul>  (1) 
-2.6737901206557111

>  <r_i_glide_eff_state_penalty>  (1) 
-0

>  <r_i_glide_einternal>  (1) 
0.60608304400051616

>  <r_i_glide_emodel>  (1) 
-17.134528718878272

>  <r_i_glide_emodel_strain>  (1) 
0.22512377663806293

>  <r_i_glide_energy>  (1) 
-15.116007421997162

>  <r_i_glide_erotb>  (1) 
1.8283304104302178

>  <r_i_glide_esite>  (1) 
0

>  <r_i_glide_evdw>  (1) 
-12.442217301341451

>  <r_i_glide_gscore>  (1) 
-2.7548489727352115

>  <r_i_glide_gscore_strain>  (1) 
0

>  <r_i_glide_hbond>  (1) 
-0.32000000000000001

>  <r_i_glide_ligand_efficiency>  (1) 
-0.55096979454704231

>  <r_i_glide_ligand_efficiency_ln>  (1) 
-1.0557250508273142

>  <r_i_glide_ligand_efficiency_sa>  (1) 
-0.94214509602084384

>  <r_i_glide_lipo>  (1) 
-0.98999999999999999

>  <r_i_glide_metal>  (1) 
-0

>  <r_i_glide_rewards>  (1) 
-2.25

>  <r_lp_Energy>  (1) 
3.7496159999999996

>  <r_lp_tautomer_probability>  (1) 
1

>  <s_epik_cmdline>  (1) 
J2VwaWtfcHl0aG9uJywgJy1waHQnLCAnMS4wJywgJy1waCcsICc3LjQnLCAnLXRuJywgJzgnLCAnLW1hJywgJzUwMCcsICctaW1hZScsICc8aW5maWxlLm1hZT4nLCAnLW9tYWUnLCAnPG91dGZpbGUubWFlPic=

>  <s_epik_input>  (1) 
W0NIM11PW0NIMl1bQ0gyXVtPSF0=

>  <s_glide_docking_method>  (1) 
confgen

>  <s_i_glide_gridfile>  (1) 
gpcr_5ht2c_6bqh_protein_autoprepared_prepared

>  <s_lp_Force_Field>  (1) 
S-OPLS

>  <s_lp_Variant>  (1) 
Pocket2Mol_66-1

>  <s_m_source_file>  (1) 
generated_GPCR_5HT2C_ligand_Pocket2Mol_2026-06-23_prepared.sdf

>  <GenAI_Model>  (1) 
Pocket2Mol

>  <Protein>  (1) 
GPCR_5HT2C

$$$$
Pocket2Mol_62
     RDKit          3D

  0  0  0  0  0  0  0  0  0  0999 V3000
M  V30 BEGIN CTAB
M  V30 COUNTS 20 19 0 0 1
M  V30 BEGIN ATOM
M  V30 1 C 39.229430 27.107508 54.287548 0
M  V30 2 C 39.199075 25.715531 54.928531 0
M  V30 3 O 39.425151 26.953811 52.882300 0
M  V30 4 C 38.951905 27.969961 52.044914 0
M  V30 5 O 39.258103 25.811674 56.335810 0
M  V30 6 O 37.563440 28.137790 52.168377 0
M  V30 7 C 39.245155 27.520792 50.610455 0
M  V30 8 C 39.646239 29.311589 52.343509 0
M  V30 9 H 38.301859 27.628741 54.525101 0
M  V30 10 H 40.044429 27.695766 54.706494 0
M  V30 11 H 40.045286 25.124663 54.586503 0
M  V30 12 H 38.294941 25.179164 54.638052 0
M  V30 13 H 40.101508 26.165989 56.578039 0
M  V30 14 H 37.145014 27.363694 51.809410 0
M  V30 15 H 38.787827 26.548579 50.426792 0
M  V30 16 H 38.845140 28.244656 49.900513 0
M  V30 17 H 40.317607 27.433110 50.448647 0
M  V30 18 H 39.470842 29.635491 53.369564 0
M  V30 19 H 40.718100 29.237193 52.167735 0
M  V30 20 H 39.256806 30.078662 51.674005 0
M  V30 END ATOM
M  V30 BEGIN BOND
M  V30 1 1 2 1
M  V30 2 1 3 1
M  V30 3 1 4 3
M  V30 4 1 5 2
M  V30 5 1 6 4
M  V30 6 1 7 4
M  V30 7 1 8 4
M  V30 8 1 9 1
M  V30 9 1 10 1
M  V30 10 1 11 2
M  V30 11 1 12 2
M  V30 12 1 13 5
M  V30 13 1 14 6
M  V30 14 1 15 7
M  V30 15 1 16 7
M  V30 16 1 17 7
M  V30 17 1 18 8
M  V30 18 1 19 8
M  V30 19 1 20 8
M  V30 END BOND
M  V30 END CTAB
M  END
>  <i_epik_Tot_Q>  (1) 
0

>  <i_epik_Tot_abs_Q>  (1) 
0

>  <i_i_glide_confnum>  (1) 
1

>  <i_i_glide_lignum>  (1) 
66

>  <i_i_glide_posenum>  (1) 
322

>  <i_i_glide_rotatable_bonds>  (1) 
5

>  <i_lp_mmshare_version>  (1) 
72125

>  <i_m_source_file_index>  (1) 
63

>  <i_f3d_flags>  (1) 
0

>  <num_sample>  (1) 
100

>  <b_lp_Chiralities_Consistent>  (1) 
1

>  <r_epik_Charging_Adjusted_Penalty>  (1) 
0

>  <r_epik_Ionization_Penalty>  (1) 
6.4082053832503559e-07

>  <r_epik_Ionization_Penalty_Charging>  (1) 
0

>  <r_epik_Ionization_Penalty_Neutral>  (1) 
6.4082053832503559e-07

>  <r_epik_State_Penalty>  (1) 
-0

>  <r_glide_ring_energy>  (1) 
0

>  <r_i_docking_score>  (1) 
-2.7348619273841308

>  <r_i_glide_ecoul>  (1) 
-3.9144836884038003

>  <r_i_glide_eff_state_penalty>  (1) 
-0

>  <r_i_glide_einternal>  (1) 
0.78552809605047402

>  <r_i_glide_emodel>  (1) 
-21.497045018875852

>  <r_i_glide_emodel_strain>  (1) 
0.015578196100325292

>  <r_i_glide_energy>  (1) 
-18.089608834915076

>  <r_i_glide_erotb>  (1) 
2.7787352151322811

>  <r_i_glide_esite>  (1) 
0

>  <r_i_glide_evdw>  (1) 
-14.175125146511274

>  <r_i_glide_gscore>  (1) 
-2.7348619273841308

>  <r_i_glide_gscore_strain>  (1) 
0

>  <r_i_glide_hbond>  (1) 
-0.32000000000000001

>  <r_i_glide_ligand_efficiency>  (1) 
-0.34185774092301635

>  <r_i_glide_ligand_efficiency_ln>  (1) 
-0.88810321299110073

>  <r_i_glide_ligand_efficiency_sa>  (1) 
-0.68371548184603281

>  <r_i_glide_lipo>  (1) 
-1.1976683319302781

>  <r_i_glide_metal>  (1) 
-0

>  <r_i_glide_rewards>  (1) 
-2.7000000000000002

>  <r_lp_Energy>  (1) 
2.7008749999999999

>  <r_lp_tautomer_probability>  (1) 
1

>  <s_epik_cmdline>  (1) 
J2VwaWtfcHl0aG9uJywgJy1waHQnLCAnMS4wJywgJy1waCcsICc3LjQnLCAnLXRuJywgJzgnLCAnLW1hJywgJzUwMCcsICctaW1hZScsICc8aW5maWxlLm1hZT4nLCAnLW9tYWUnLCAnPG91dGZpbGUubWFlPic=

>  <s_epik_input>  (1) 
W09IXVtDSDJdW0NIMl1PQyhbT0hdKShbQ0gzXSlbQ0gzXQ==

>  <s_glide_docking_method>  (1) 
confgen

>  <s_i_glide_gridfile>  (1) 
gpcr_5ht2c_6bqh_protein_autoprepared_prepared

>  <s_lp_Force_Field>  (1) 
S-OPLS

>  <s_lp_Variant>  (1) 
Pocket2Mol_62-1

>  <s_m_source_file>  (1) 
generated_GPCR_5HT2C_ligand_Pocket2Mol_2026-06-23_prepared.sdf

>  <GenAI_Model>  (1) 
Pocket2Mol

>  <Protein>  (1) 
GPCR_5HT2C

$$$$
Pocket2Mol_25
     RDKit          3D

  0  0  0  0  0  0  0  0  0  0999 V3000
M  V30 BEGIN CTAB
M  V30 COUNTS 16 15 0 0 1
M  V30 BEGIN ATOM
M  V30 1 C 39.216158 29.140448 51.773165 0
M  V30 2 O 40.045728 30.283130 51.649070 0
M  V30 3 C 40.429570 30.536760 50.308597 0
M  V30 4 C 38.554770 29.150510 53.160997 0
M  V30 5 O 37.426263 28.288897 53.208422 0
M  V30 6 C 37.766372 26.921804 53.366300 0
M  V30 7 H 38.445165 29.164183 51.003432 0
M  V30 8 H 39.800398 28.232835 51.617318 0
M  V30 9 H 41.180942 31.324990 50.280451 0
M  V30 10 H 39.575995 30.867978 49.716992 0
M  V30 11 H 40.849603 29.648969 49.837573 0
M  V30 12 H 39.272466 28.921634 53.949929 0
M  V30 13 H 38.184629 30.154431 53.367570 0
M  V30 14 H 36.860151 26.316852 53.367761 0
M  V30 15 H 38.398463 26.568462 52.552372 0
M  V30 16 H 38.287180 26.751752 54.309028 0
M  V30 END ATOM
M  V30 BEGIN BOND
M  V30 1 1 2 1
M  V30 2 1 3 2
M  V30 3 1 4 1
M  V30 4 1 5 4
M  V30 5 1 6 5
M  V30 6 1 7 1
M  V30 7 1 8 1
M  V30 8 1 9 3
M  V30 9 1 10 3
M  V30 10 1 11 3
M  V30 11 1 12 4
M  V30 12 1 13 4
M  V30 13 1 14 6
M  V30 14 1 15 6
M  V30 15 1 16 6
M  V30 END BOND
M  V30 END CTAB
M  END
>  <i_epik_Tot_Q>  (1) 
0

>  <i_epik_Tot_abs_Q>  (1) 
0

>  <i_i_glide_confnum>  (1) 
3

>  <i_i_glide_lignum>  (1) 
28

>  <i_i_glide_posenum>  (1) 
276

>  <i_i_glide_rotatable_bonds>  (1) 
3

>  <i_lp_mmshare_version>  (1) 
72125

>  <i_m_source_file_index>  (1) 
26

>  <i_f3d_flags>  (1) 
0

>  <num_sample>  (1) 
100

>  <b_lp_Chiralities_Consistent>  (1) 
1

>  <r_epik_Charging_Adjusted_Penalty>  (1) 
0

>  <r_epik_Ionization_Penalty>  (1) 
3.8345288393749547e-12

>  <r_epik_Ionization_Penalty_Charging>  (1) 
0

>  <r_epik_Ionization_Penalty_Neutral>  (1) 
3.8345288393749547e-12

>  <r_epik_State_Penalty>  (1) 
-0

>  <r_glide_ring_energy>  (1) 
0

>  <r_i_docking_score>  (1) 
-2.7290561022109938

>  <r_i_glide_ecoul>  (1) 
-0.58033899921799792

>  <r_i_glide_eff_state_penalty>  (1) 
-0

>  <r_i_glide_einternal>  (1) 
1.5624658811540775

>  <r_i_glide_emodel>  (1) 
-15.70908523324357

>  <r_i_glide_emodel_strain>  (1) 
2.5751401011575581e-11

>  <r_i_glide_energy>  (1) 
-14.033719032733455

>  <r_i_glide_erotb>  (1) 
1.4298651310552182

>  <r_i_glide_esite>  (1) 
0

>  <r_i_glide_evdw>  (1) 
-13.453380033515456

>  <r_i_glide_gscore>  (1) 
-2.7290561022109938

>  <r_i_glide_gscore_strain>  (1) 
0

>  <r_i_glide_hbond>  (1) 
0

>  <r_i_glide_ligand_efficiency>  (1) 
-0.45484268370183228

>  <r_i_glide_ligand_efficiency_ln>  (1) 
-0.97753983904838371

>  <r_i_glide_ligand_efficiency_sa>  (1) 
-0.82650400705363503

>  <r_i_glide_lipo>  (1) 
-1.1492013817077398

>  <r_i_glide_metal>  (1) 
-0

>  <r_i_glide_rewards>  (1) 
-2.25

>  <r_lp_Energy>  (1) 
5.9407059999999996

>  <r_lp_tautomer_probability>  (1) 
1

>  <s_epik_cmdline>  (1) 
J2VwaWtfcHl0aG9uJywgJy1waHQnLCAnMS4wJywgJy1waCcsICc3LjQnLCAnLXRuJywgJzgnLCAnLW1hJywgJzUwMCcsICctaW1hZScsICc8aW5maWxlLm1hZT4nLCAnLW9tYWUnLCAnPG91dGZpbGUubWFlPic=

>  <s_epik_input>  (1) 
W0NIM11PW0NIMl1bQ0gyXU9bQ0gzXQ==

>  <s_glide_docking_method>  (1) 
confgen

>  <s_i_glide_gridfile>  (1) 
gpcr_5ht2c_6bqh_protein_autoprepared_prepared

>  <s_lp_Force_Field>  (1) 
S-OPLS

>  <s_lp_Variant>  (1) 
Pocket2Mol_25-1

>  <s_m_source_file>  (1) 
generated_GPCR_5HT2C_ligand_Pocket2Mol_2026-06-23_prepared.sdf

>  <GenAI_Model>  (1) 
Pocket2Mol

>  <Protein>  (1) 
GPCR_5HT2C

$$$$
Pocket2Mol_66
     RDKit          3D

  0  0  0  0  0  0  0  0  0  0999 V3000
M  V30 BEGIN CTAB
M  V30 COUNTS 13 12 0 0 1
M  V30 BEGIN ATOM
M  V30 1 C 39.646829 29.686929 51.783250 0
M  V30 2 C 40.189349 30.490183 50.596277 0
M  V30 3 O 39.645142 30.516972 52.932637 0
M  V30 4 O 40.045304 29.738017 49.410919 0
M  V30 5 C 39.083635 29.881574 54.067133 0
M  V30 6 H 38.634619 29.336610 51.571672 0
M  V30 7 H 40.266084 28.805209 51.952937 0
M  V30 8 H 41.239952 30.739757 50.749306 0
M  V30 9 H 39.645144 31.428880 50.487285 0
M  V30 10 H 39.123648 29.737463 49.167660 0
M  V30 11 H 39.108644 30.563067 54.917281 0
M  V30 12 H 38.042869 29.607308 53.888768 0
M  V30 13 H 39.643589 28.984685 54.335453 0
M  V30 END ATOM
M  V30 BEGIN BOND
M  V30 1 1 2 1
M  V30 2 1 3 1
M  V30 3 1 4 2
M  V30 4 1 5 3
M  V30 5 1 6 1
M  V30 6 1 7 1
M  V30 7 1 8 2
M  V30 8 1 9 2
M  V30 9 1 10 4
M  V30 10 1 11 5
M  V30 11 1 12 5
M  V30 12 1 13 5
M  V30 END BOND
M  V30 END CTAB
M  END
>  <i_epik_Tot_Q>  (1) 
0

>  <i_epik_Tot_abs_Q>  (1) 
0

>  <i_i_glide_confnum>  (1) 
1

>  <i_i_glide_lignum>  (1) 
71

>  <i_i_glide_posenum>  (1) 
290

>  <i_i_glide_rotatable_bonds>  (1) 
3

>  <i_lp_mmshare_version>  (1) 
72125

>  <i_m_source_file_index>  (1) 
67

>  <i_f3d_flags>  (1) 
0

>  <num_sample>  (1) 
100

>  <b_lp_Chiralities_Consistent>  (1) 
1

>  <r_epik_Charging_Adjusted_Penalty>  (1) 
0

>  <r_epik_Ionization_Penalty>  (1) 
5.5888793446441707e-08

>  <r_epik_Ionization_Penalty_Charging>  (1) 
0

>  <r_epik_Ionization_Penalty_Neutral>  (1) 
5.5888793446441707e-08

>  <r_epik_State_Penalty>  (1) 
-0

>  <r_glide_ring_energy>  (1) 
0

>  <r_i_docking_score>  (1) 
-2.6553069099628965

>  <r_i_glide_ecoul>  (1) 
-3.4961483110227864

>  <r_i_glide_eff_state_penalty>  (1) 
-0

>  <r_i_glide_einternal>  (1) 
0.3421094234963879

>  <r_i_glide_emodel>  (1) 
-15.921724778664654

>  <r_i_glide_emodel_strain>  (1) 
0.0016325360093027985

>  <r_i_glide_energy>  (1) 
-13.639745879014951

>  <r_i_glide_erotb>  (1) 
1.8283304104302178

>  <r_i_glide_esite>  (1) 
0

>  <r_i_glide_evdw>  (1) 
-10.143597567992165

>  <r_i_glide_gscore>  (1) 
-2.6553069099628965

>  <r_i_glide_gscore_strain>  (1) 
0

>  <r_i_glide_hbond>  (1) 
-0.32000000000000001

>  <r_i_glide_ligand_efficiency>  (1) 
-0.53106138199257935

>  <r_i_glide_ligand_efficiency_ln>  (1) 
-1.0175781141640612

>  <r_i_glide_ligand_efficiency_sa>  (1) 
-0.9081021894161958

>  <r_i_glide_lipo>  (1) 
-0.88203519534008812

>  <r_i_glide_metal>  (1) 
-0

>  <r_i_glide_rewards>  (1) 
-2.25

>  <r_lp_Energy>  (1) 
3.7496159999999996

>  <r_lp_tautomer_probability>  (1) 
1

>  <s_epik_cmdline>  (1) 
J2VwaWtfcHl0aG9uJywgJy1waHQnLCAnMS4wJywgJy1waCcsICc3LjQnLCAnLXRuJywgJzgnLCAnLW1hJywgJzUwMCcsICctaW1hZScsICc8aW5maWxlLm1hZT4nLCAnLW9tYWUnLCAnPG91dGZpbGUubWFlPic=

>  <s_epik_input>  (1) 
W0NIM11PW0NIMl1bQ0gyXVtPSF0=

>  <s_glide_docking_method>  (1) 
confgen

>  <s_i_glide_gridfile>  (1) 
gpcr_5ht2c_6bqh_protein_autoprepared_prepared

>  <s_lp_Force_Field>  (1) 
S-OPLS

>  <s_lp_Variant>  (1) 
Pocket2Mol_66-1

>  <s_m_source_file>  (1) 
generated_GPCR_5HT2C_ligand_Pocket2Mol_2026-06-23_prepared.sdf

>  <GenAI_Model>  (1) 
Pocket2Mol

>  <Protein>  (1) 
GPCR_5HT2C

$$$$
Pocket2Mol_2
     RDKit          3D

  0  0  0  0  0  0  0  0  0  0999 V3000
M  V30 BEGIN CTAB
M  V30 COUNTS 15 14 0 0 1
M  V30 BEGIN ATOM
M  V30 1 C 40.488802 29.433853 51.140464 0
M  V30 2 C 39.314971 28.461161 50.937144 0
M  V30 3 C 40.741746 30.319022 49.919181 0
M  V30 4 C 38.918461 27.668843 52.190407 0
M  V30 5 O 38.402342 28.534160 53.180946 0
M  V30 6 H 40.300375 30.083852 51.994089 0
M  V30 7 H 41.395062 28.875157 51.367735 0
M  V30 8 H 39.587020 27.744235 50.164175 0
M  V30 9 H 38.445447 29.001667 50.567761 0
M  V30 10 H 41.625529 30.937332 50.074104 0
M  V30 11 H 40.908021 29.735205 49.012740 0
M  V30 12 H 39.896000 30.986874 49.749003 0
M  V30 13 H 39.771797 27.112503 52.577498 0
M  V30 14 H 38.146538 26.938588 51.939360 0
M  V30 15 H 39.087154 29.127293 53.454771 0
M  V30 END ATOM
M  V30 BEGIN BOND
M  V30 1 1 2 1
M  V30 2 1 3 1
M  V30 3 1 4 2
M  V30 4 1 5 4
M  V30 5 1 6 1
M  V30 6 1 7 1
M  V30 7 1 8 2
M  V30 8 1 9 2
M  V30 9 1 10 3
M  V30 10 1 11 3
M  V30 11 1 12 3
M  V30 12 1 13 4
M  V30 13 1 14 4
M  V30 14 1 15 5
M  V30 END BOND
M  V30 END CTAB
M  END
>  <i_epik_Tot_Q>  (1) 
0

>  <i_epik_Tot_abs_Q>  (1) 
0

>  <i_i_glide_confnum>  (1) 
3

>  <i_i_glide_lignum>  (1) 
5

>  <i_i_glide_posenum>  (1) 
110

>  <i_i_glide_rotatable_bonds>  (1) 
3

>  <i_lp_mmshare_version>  (1) 
72125

>  <i_m_source_file_index>  (1) 
3

>  <i_f3d_flags>  (1) 
0

>  <num_sample>  (1) 
100

>  <b_lp_Chiralities_Consistent>  (1) 
1

>  <r_epik_Charging_Adjusted_Penalty>  (1) 
0

>  <r_epik_Ionization_Penalty>  (1) 
2.9396235358890345e-07

>  <r_epik_Ionization_Penalty_Charging>  (1) 
0

>  <r_epik_Ionization_Penalty_Neutral>  (1) 
2.9396235358890345e-07

>  <r_epik_State_Penalty>  (1) 
-0

>  <r_glide_ring_energy>  (1) 
0

>  <r_i_docking_score>  (1) 
-2.5740955752074681

>  <r_i_glide_ecoul>  (1) 
-0.39293402161514551

>  <r_i_glide_eff_state_penalty>  (1) 
-0

>  <r_i_glide_einternal>  (1) 
1.3201039317724768

>  <r_i_glide_emodel>  (1) 
-14.660096999471586

>  <r_i_glide_emodel_strain>  (1) 
0

>  <r_i_glide_energy>  (1) 
-13.106834781973761

>  <r_i_glide_erotb>  (1) 
1.8982399431532129

>  <r_i_glide_esite>  (1) 
0

>  <r_i_glide_evdw>  (1) 
-12.713900760358616

>  <r_i_glide_gscore>  (1) 
-2.5740955752074681

>  <r_i_glide_gscore_strain>  (1) 
0

>  <r_i_glide_hbond>  (1) 
0

>  <r_i_glide_ligand_efficiency>  (1) 
-0.51481911504149358

>  <r_i_glide_ligand_efficiency_ln>  (1) 
-0.9864559577914368

>  <r_i_glide_ligand_efficiency_sa>  (1) 
-0.88032830361033743

>  <r_i_glide_lipo>  (1) 
-1.3200000000000001

>  <r_i_glide_metal>  (1) 
-0

>  <r_i_glide_rewards>  (1) 
-2.457700377100478

>  <r_lp_Energy>  (1) 
2.038589

>  <r_lp_tautomer_probability>  (1) 
1

>  <s_epik_cmdline>  (1) 
J2VwaWtfcHl0aG9uJywgJy1waHQnLCAnMS4wJywgJy1waCcsICc3LjQnLCAnLXRuJywgJzgnLCAnLW1hJywgJzUwMCcsICctaW1hZScsICc8aW5maWxlLm1hZT4nLCAnLW9tYWUnLCAnPG91dGZpbGUubWFlPic=

>  <s_epik_input>  (1) 
W0NIM11bQ0gyXVtDSDJdW0NIMl1bT0hd

>  <s_glide_docking_method>  (1) 
confgen

>  <s_i_glide_gridfile>  (1) 
gpcr_5ht2c_6bqh_protein_autoprepared_prepared

>  <s_lp_Force_Field>  (1) 
S-OPLS

>  <s_lp_Variant>  (1) 
Pocket2Mol_2-1

>  <s_m_source_file>  (1) 
generated_GPCR_5HT2C_ligand_Pocket2Mol_2026-06-23_prepared.sdf

>  <GenAI_Model>  (1) 
Pocket2Mol

>  <Protein>  (1) 
GPCR_5HT2C

$$$$
Pocket2Mol_25
     RDKit          3D

  0  0  0  0  0  0  0  0  0  0999 V3000
M  V30 BEGIN CTAB
M  V30 COUNTS 16 15 0 0 1
M  V30 BEGIN ATOM
M  V30 1 C 38.128041 28.032643 52.536685 0
M  V30 2 O 39.156059 27.337742 51.843391 0
M  V30 3 C 39.647171 28.018751 50.700098 0
M  V30 4 C 38.684410 29.198991 53.367771 0
M  V30 5 O 37.645135 29.737754 54.167797 0
M  V30 6 C 38.063536 30.878204 54.899899 0
M  V30 7 H 37.353352 28.372545 51.848001 0
M  V30 8 H 37.650351 27.317144 53.206629 0
M  V30 9 H 40.341948 27.370324 50.167762 0
M  V30 10 H 40.184754 28.927545 50.970295 0
M  V30 11 H 38.845142 28.278393 50.010684 0
M  V30 12 H 39.490317 28.846343 54.012451 0
M  V30 13 H 39.096894 29.971471 52.717911 0
M  V30 14 H 37.245137 31.243852 55.517684 0
M  V30 15 H 38.899806 30.641299 55.559083 0
M  V30 16 H 38.362339 31.686923 54.231459 0
M  V30 END ATOM
M  V30 BEGIN BOND
M  V30 1 1 2 1
M  V30 2 1 3 2
M  V30 3 1 4 1
M  V30 4 1 5 4
M  V30 5 1 6 5
M  V30 6 1 7 1
M  V30 7 1 8 1
M  V30 8 1 9 3
M  V30 9 1 10 3
M  V30 10 1 11 3
M  V30 11 1 12 4
M  V30 12 1 13 4
M  V30 13 1 14 6
M  V30 14 1 15 6
M  V30 15 1 16 6
M  V30 END BOND
M  V30 END CTAB
M  END
>  <i_epik_Tot_Q>  (1) 
0

>  <i_epik_Tot_abs_Q>  (1) 
0

>  <i_i_glide_confnum>  (1) 
3

>  <i_i_glide_lignum>  (1) 
28

>  <i_i_glide_posenum>  (1) 
177

>  <i_i_glide_rotatable_bonds>  (1) 
3

>  <i_lp_mmshare_version>  (1) 
72125

>  <i_m_source_file_index>  (1) 
26

>  <i_f3d_flags>  (1) 
0

>  <num_sample>  (1) 
100

>  <b_lp_Chiralities_Consistent>  (1) 
1

>  <r_epik_Charging_Adjusted_Penalty>  (1) 
0

>  <r_epik_Ionization_Penalty>  (1) 
3.8345288393749547e-12

>  <r_epik_Ionization_Penalty_Charging>  (1) 
0

>  <r_epik_Ionization_Penalty_Neutral>  (1) 
3.8345288393749547e-12

>  <r_epik_State_Penalty>  (1) 
-0

>  <r_glide_ring_energy>  (1) 
0

>  <r_i_docking_score>  (1) 
-2.5073260985530381

>  <r_i_glide_ecoul>  (1) 
-0.60863803411849093

>  <r_i_glide_eff_state_penalty>  (1) 
-0

>  <r_i_glide_einternal>  (1) 
1.2348340038417844

>  <r_i_glide_emodel>  (1) 
-15.252165464523413

>  <r_i_glide_emodel_strain>  (1) 
0

>  <r_i_glide_energy>  (1) 
-13.612576780410535

>  <r_i_glide_erotb>  (1) 
1.4298651310552182

>  <r_i_glide_esite>  (1) 
0

>  <r_i_glide_evdw>  (1) 
-13.003938746292045

>  <r_i_glide_gscore>  (1) 
-2.5073260985530381

>  <r_i_glide_gscore_strain>  (1) 
0

>  <r_i_glide_hbond>  (1) 
0

>  <r_i_glide_ligand_efficiency>  (1) 
-0.417887683092173

>  <r_i_glide_ligand_efficiency_ln>  (1) 
-0.89811680633300939

>  <r_i_glide_ligand_efficiency_sa>  (1) 
-0.75935231443769879

>  <r_i_glide_lipo>  (1) 
-0.94569858717588029

>  <r_i_glide_metal>  (1) 
-0

>  <r_i_glide_rewards>  (1) 
-2.25

>  <r_lp_Energy>  (1) 
5.9407059999999996

>  <r_lp_tautomer_probability>  (1) 
1

>  <s_epik_cmdline>  (1) 
J2VwaWtfcHl0aG9uJywgJy1waHQnLCAnMS4wJywgJy1waCcsICc3LjQnLCAnLXRuJywgJzgnLCAnLW1hJywgJzUwMCcsICctaW1hZScsICc8aW5maWxlLm1hZT4nLCAnLW9tYWUnLCAnPG91dGZpbGUubWFlPic=

>  <s_epik_input>  (1) 
W0NIM11PW0NIMl1bQ0gyXU9bQ0gzXQ==

>  <s_glide_docking_method>  (1) 
confgen

>  <s_i_glide_gridfile>  (1) 
gpcr_5ht2c_6bqh_protein_autoprepared_prepared

>  <s_lp_Force_Field>  (1) 
S-OPLS

>  <s_lp_Variant>  (1) 
Pocket2Mol_25-1

>  <s_m_source_file>  (1) 
generated_GPCR_5HT2C_ligand_Pocket2Mol_2026-06-23_prepared.sdf

>  <GenAI_Model>  (1) 
Pocket2Mol

>  <Protein>  (1) 
GPCR_5HT2C

$$$$
Pocket2Mol_6
     RDKit          3D

  0  0  0  0  0  0  0  0  0  0999 V3000
M  V30 BEGIN CTAB
M  V30 COUNTS 11 10 0 0 1
M  V30 BEGIN ATOM
M  V30 1 C 37.992267 33.155136 61.062370 0
M  V30 2 O 36.785289 33.458492 60.385709 0
M  V30 3 C 35.701598 32.695918 60.594724 0
M  V30 4 O 35.646748 31.737755 61.367710 0
M  V30 5 C 34.501060 33.132494 59.767024 0
M  V30 6 H 38.761385 33.878937 60.791967 0
M  V30 7 H 38.349205 32.161174 60.789309 0
M  V30 8 H 37.853528 33.191230 62.143625 0
M  V30 9 H 34.728108 34.031573 59.193224 0
M  V30 10 H 34.221270 32.343737 59.068244 0
M  V30 11 H 33.649135 33.340329 60.412588 0
M  V30 END ATOM
M  V30 BEGIN BOND
M  V30 1 1 2 1
M  V30 2 1 3 2
M  V30 3 2 4 3
M  V30 4 1 5 3
M  V30 5 1 6 1
M  V30 6 1 7 1
M  V30 7 1 8 1
M  V30 8 1 9 5
M  V30 9 1 10 5
M  V30 10 1 11 5
M  V30 END BOND
M  V30 END CTAB
M  END
>  <i_epik_Tot_Q>  (1) 
0

>  <i_epik_Tot_abs_Q>  (1) 
0

>  <i_i_glide_confnum>  (1) 
1

>  <i_i_glide_lignum>  (1) 
9

>  <i_i_glide_posenum>  (1) 
350

>  <i_i_glide_rotatable_bonds>  (1) 
1

>  <i_lp_mmshare_version>  (1) 
72125

>  <i_m_source_file_index>  (1) 
7

>  <i_f3d_flags>  (1) 
0

>  <num_sample>  (1) 
100

>  <b_lp_Chiralities_Consistent>  (1) 
1

>  <r_epik_Charging_Adjusted_Penalty>  (1) 
0

>  <r_epik_Ionization_Penalty>  (1) 
0

>  <r_epik_Ionization_Penalty_Charging>  (1) 
0

>  <r_epik_Ionization_Penalty_Neutral>  (1) 
0

>  <r_epik_State_Penalty>  (1) 
-0

>  <r_glide_ring_energy>  (1) 
0

>  <r_i_docking_score>  (1) 
-2.4244635867532036

>  <r_i_glide_ecoul>  (1) 
-2.301060916386982

>  <r_i_glide_eff_state_penalty>  (1) 
-0

>  <r_i_glide_einternal>  (1) 
0.0014792894119020072

>  <r_i_glide_emodel>  (1) 
-15.141940855801666

>  <r_i_glide_emodel_strain>  (1) 
0.051158069168115272

>  <r_i_glide_energy>  (1) 
-12.914247062747366

>  <r_i_glide_erotb>  (1) 
1.8998339649575009

>  <r_i_glide_esite>  (1) 
-0.0070941195327657042

>  <r_i_glide_evdw>  (1) 
-10.613186146360384

>  <r_i_glide_gscore>  (1) 
-2.4244635867532036

>  <r_i_glide_gscore_strain>  (1) 
0

>  <r_i_glide_hbond>  (1) 
-0.32000000000000001

>  <r_i_glide_ligand_efficiency>  (1) 
-0.48489271735064071

>  <r_i_glide_ligand_efficiency_ln>  (1) 
-0.92911334475540308

>  <r_i_glide_ligand_efficiency_sa>  (1) 
-0.8291548833882979

>  <r_i_glide_lipo>  (1) 
-0.37138754008311747

>  <r_i_glide_metal>  (1) 
-0

>  <r_i_glide_rewards>  (1) 
-2.749997447318755

>  <r_lp_Energy>  (1) 
-0.092307

>  <r_lp_tautomer_probability>  (1) 
1

>  <s_epik_Chemistry_Notes>  (1) 
This compound has an ester and may undergo hydrolysis at high or low pH.

>  <s_epik_cmdline>  (1) 
J2VwaWtfcHl0aG9uJywgJy1waHQnLCAnMS4wJywgJy1waCcsICc3LjQnLCAnLXRuJywgJzgnLCAnLW1hJywgJzUwMCcsICctaW1hZScsICc8aW5maWxlLm1hZT4nLCAnLW9tYWUnLCAnPG91dGZpbGUubWFlPic=

>  <s_epik_input>  (1) 
W0NIM11PQyg9TylbQ0gzXQ==

>  <s_glide_docking_method>  (1) 
confgen

>  <s_i_glide_gridfile>  (1) 
gpcr_5ht2c_6bqh_protein_autoprepared_prepared

>  <s_lp_Force_Field>  (1) 
S-OPLS

>  <s_lp_Variant>  (1) 
Pocket2Mol_6-1

>  <s_m_source_file>  (1) 
generated_GPCR_5HT2C_ligand_Pocket2Mol_2026-06-23_prepared.sdf

>  <GenAI_Model>  (1) 
Pocket2Mol

>  <Protein>  (1) 
GPCR_5HT2C

$$$$
Pocket2Mol_66
     RDKit          3D

  0  0  0  0  0  0  0  0  0  0999 V3000
M  V30 BEGIN CTAB
M  V30 COUNTS 13 12 0 0 1
M  V30 BEGIN ATOM
M  V30 1 C 39.904691 28.331108 50.847176 0
M  V30 2 C 38.773731 28.554475 51.861935 0
M  V30 3 O 40.045212 29.420340 49.947336 0
M  V30 4 O 38.443096 27.337783 52.496843 0
M  V30 5 C 40.660820 30.564875 50.513799 0
M  V30 6 H 40.845264 28.137783 51.361579 0
M  V30 7 H 39.682427 27.448655 50.245959 0
M  V30 8 H 37.883779 28.937712 51.367750 0
M  V30 9 H 39.067212 29.283754 52.616872 0
M  V30 10 H 37.892085 26.831833 51.913847 0
M  V30 11 H 40.754435 31.337703 49.752198 0
M  V30 12 H 40.076870 30.980696 51.334887 0
M  V30 13 H 41.662350 30.334057 50.875109 0
M  V30 END ATOM
M  V30 BEGIN BOND
M  V30 1 1 2 1
M  V30 2 1 3 1
M  V30 3 1 4 2
M  V30 4 1 5 3
M  V30 5 1 6 1
M  V30 6 1 7 1
M  V30 7 1 8 2
M  V30 8 1 9 2
M  V30 9 1 10 4
M  V30 10 1 11 5
M  V30 11 1 12 5
M  V30 12 1 13 5
M  V30 END BOND
M  V30 END CTAB
M  END
>  <i_epik_Tot_Q>  (1) 
0

>  <i_epik_Tot_abs_Q>  (1) 
0

>  <i_i_glide_confnum>  (1) 
1

>  <i_i_glide_lignum>  (1) 
71

>  <i_i_glide_posenum>  (1) 
78

>  <i_i_glide_rotatable_bonds>  (1) 
3

>  <i_lp_mmshare_version>  (1) 
72125

>  <i_m_source_file_index>  (1) 
67

>  <i_f3d_flags>  (1) 
0

>  <num_sample>  (1) 
100

>  <b_lp_Chiralities_Consistent>  (1) 
1

>  <r_epik_Charging_Adjusted_Penalty>  (1) 
0

>  <r_epik_Ionization_Penalty>  (1) 
5.5888793446441707e-08

>  <r_epik_Ionization_Penalty_Charging>  (1) 
0

>  <r_epik_Ionization_Penalty_Neutral>  (1) 
5.5888793446441707e-08

>  <r_epik_State_Penalty>  (1) 
-0

>  <r_glide_ring_energy>  (1) 
0

>  <r_i_docking_score>  (1) 
-2.3515691454224017

>  <r_i_glide_ecoul>  (1) 
-1.3504451304196083

>  <r_i_glide_eff_state_penalty>  (1) 
-0

>  <r_i_glide_einternal>  (1) 
0.98216333163394065

>  <r_i_glide_emodel>  (1) 
-16.07212153098186

>  <r_i_glide_emodel_strain>  (1) 
0.014546446487745834

>  <r_i_glide_energy>  (1) 
-14.403870174627977

>  <r_i_glide_erotb>  (1) 
1.8283304104302178

>  <r_i_glide_esite>  (1) 
0

>  <r_i_glide_evdw>  (1) 
-13.053425044208369

>  <r_i_glide_gscore>  (1) 
-2.3515691454224017

>  <r_i_glide_gscore_strain>  (1) 
0

>  <r_i_glide_hbond>  (1) 
-0.084661534079260387

>  <r_i_glide_ligand_efficiency>  (1) 
-0.47031382908448033

>  <r_i_glide_ligand_efficiency_ln>  (1) 
-0.90117842398819248

>  <r_i_glide_ligand_efficiency_sa>  (1) 
-0.80422533512387651

>  <r_i_glide_lipo>  (1) 
-0.98999999999999999

>  <r_i_glide_metal>  (1) 
-0

>  <r_i_glide_rewards>  (1) 
-2.25

>  <r_lp_Energy>  (1) 
3.7496159999999996

>  <r_lp_tautomer_probability>  (1) 
1

>  <s_epik_cmdline>  (1) 
J2VwaWtfcHl0aG9uJywgJy1waHQnLCAnMS4wJywgJy1waCcsICc3LjQnLCAnLXRuJywgJzgnLCAnLW1hJywgJzUwMCcsICctaW1hZScsICc8aW5maWxlLm1hZT4nLCAnLW9tYWUnLCAnPG91dGZpbGUubWFlPic=

>  <s_epik_input>  (1) 
W0NIM11PW0NIMl1bQ0gyXVtPSF0=

>  <s_glide_docking_method>  (1) 
confgen

>  <s_i_glide_gridfile>  (1) 
gpcr_5ht2c_6bqh_protein_autoprepared_prepared

>  <s_lp_Force_Field>  (1) 
S-OPLS

>  <s_lp_Variant>  (1) 
Pocket2Mol_66-1

>  <s_m_source_file>  (1) 
generated_GPCR_5HT2C_ligand_Pocket2Mol_2026-06-23_prepared.sdf

>  <GenAI_Model>  (1) 
Pocket2Mol

>  <Protein>  (1) 
GPCR_5HT2C

$$$$
Pocket2Mol_6
     RDKit          3D

  0  0  0  0  0  0  0  0  0  0999 V3000
M  V30 BEGIN CTAB
M  V30 COUNTS 11 10 0 0 1
M  V30 BEGIN ATOM
M  V30 1 C 38.109549 31.260029 60.198213 0
M  V30 2 O 37.158832 32.215286 59.760666 0
M  V30 3 C 35.977946 32.304324 60.388552 0
M  V30 4 O 35.645137 31.638424 61.367760 0
M  V30 5 C 35.050266 33.337759 59.767761 0
M  V30 6 H 38.998265 31.305813 59.569217 0
M  V30 7 H 37.702245 30.249771 60.137383 0
M  V30 8 H 38.410258 31.453287 61.228598 0
M  V30 9 H 35.495348 33.771106 58.871286 0
M  V30 10 H 34.105613 32.872123 59.487058 0
M  V30 11 H 34.845983 34.137744 60.478196 0
M  V30 END ATOM
M  V30 BEGIN BOND
M  V30 1 1 2 1
M  V30 2 1 3 2
M  V30 3 2 4 3
M  V30 4 1 5 3
M  V30 5 1 6 1
M  V30 6 1 7 1
M  V30 7 1 8 1
M  V30 8 1 9 5
M  V30 9 1 10 5
M  V30 10 1 11 5
M  V30 END BOND
M  V30 END CTAB
M  END
>  <i_epik_Tot_Q>  (1) 
0

>  <i_epik_Tot_abs_Q>  (1) 
0

>  <i_i_glide_confnum>  (1) 
1

>  <i_i_glide_lignum>  (1) 
9

>  <i_i_glide_posenum>  (1) 
155

>  <i_i_glide_rotatable_bonds>  (1) 
1

>  <i_lp_mmshare_version>  (1) 
72125

>  <i_m_source_file_index>  (1) 
7

>  <i_f3d_flags>  (1) 
0

>  <num_sample>  (1) 
100

>  <b_lp_Chiralities_Consistent>  (1) 
1

>  <r_epik_Charging_Adjusted_Penalty>  (1) 
0

>  <r_epik_Ionization_Penalty>  (1) 
0

>  <r_epik_Ionization_Penalty_Charging>  (1) 
0

>  <r_epik_Ionization_Penalty_Neutral>  (1) 
0

>  <r_epik_State_Penalty>  (1) 
-0

>  <r_glide_ring_energy>  (1) 
0

>  <r_i_docking_score>  (1) 
-2.1279428860675571

>  <r_i_glide_ecoul>  (1) 
-2.2709975393301436

>  <r_i_glide_eff_state_penalty>  (1) 
-0

>  <r_i_glide_einternal>  (1) 
0.024134684983700083

>  <r_i_glide_emodel>  (1) 
-14.306616887217373

>  <r_i_glide_emodel_strain>  (1) 
0.051770550059134557

>  <r_i_glide_energy>  (1) 
-12.369665592084829

>  <r_i_glide_erotb>  (1) 
1.8998339649575009

>  <r_i_glide_esite>  (1) 
-0.054827684375029044

>  <r_i_glide_evdw>  (1) 
-10.098668052754684

>  <r_i_glide_gscore>  (1) 
-2.1279428860675571

>  <r_i_glide_gscore_strain>  (1) 
0

>  <r_i_glide_hbond>  (1) 
-0.32000000000000001

>  <r_i_glide_ligand_efficiency>  (1) 
-0.4255885772135114

>  <r_i_glide_ligand_efficiency_ln>  (1) 
-0.81547940877527847

>  <r_i_glide_ligand_efficiency_sa>  (1) 
-0.7277462302154627

>  <r_i_glide_lipo>  (1) 
-0.057378008182369954

>  <r_i_glide_metal>  (1) 
-0

>  <r_i_glide_rewards>  (1) 
-2.749988124930403

>  <r_lp_Energy>  (1) 
-0.092307

>  <r_lp_tautomer_probability>  (1) 
1

>  <s_epik_Chemistry_Notes>  (1) 
This compound has an ester and may undergo hydrolysis at high or low pH.

>  <s_epik_cmdline>  (1) 
J2VwaWtfcHl0aG9uJywgJy1waHQnLCAnMS4wJywgJy1waCcsICc3LjQnLCAnLXRuJywgJzgnLCAnLW1hJywgJzUwMCcsICctaW1hZScsICc8aW5maWxlLm1hZT4nLCAnLW9tYWUnLCAnPG91dGZpbGUubWFlPic=

>  <s_epik_input>  (1) 
W0NIM11PQyg9TylbQ0gzXQ==

>  <s_glide_docking_method>  (1) 
confgen

>  <s_i_glide_gridfile>  (1) 
gpcr_5ht2c_6bqh_protein_autoprepared_prepared

>  <s_lp_Force_Field>  (1) 
S-OPLS

>  <s_lp_Variant>  (1) 
Pocket2Mol_6-1

>  <s_m_source_file>  (1) 
generated_GPCR_5HT2C_ligand_Pocket2Mol_2026-06-23_prepared.sdf

>  <GenAI_Model>  (1) 
Pocket2Mol

>  <Protein>  (1) 
GPCR_5HT2C

$$$$
Pocket2Mol_33
     RDKit          3D

  0  0  0  0  0  0  0  0  0  0999 V3000
M  V30 BEGIN CTAB
M  V30 COUNTS 10 9 0 0 1
M  V30 BEGIN ATOM
M  V30 1 C 35.824036 34.699286 59.667774 0
M  V30 2 O 36.444855 35.932657 59.366903 0
M  V30 3 C 36.711267 33.541445 59.204976 0
M  V30 4 O 36.006102 32.332204 59.367331 0
M  V30 5 H 35.663929 34.628222 60.744428 0
M  V30 6 H 34.847034 34.658733 59.175349 0
M  V30 7 H 36.468965 36.014069 58.419070 0
M  V30 8 H 36.979283 33.648230 58.149865 0
M  V30 9 H 37.637489 33.521588 59.781895 0
M  V30 10 H 35.645125 32.134261 58.489063 0
M  V30 END ATOM
M  V30 BEGIN BOND
M  V30 1 1 2 1
M  V30 2 1 3 1
M  V30 3 1 4 3
M  V30 4 1 5 1
M  V30 5 1 6 1
M  V30 6 1 7 2
M  V30 7 1 8 3
M  V30 8 1 9 3
M  V30 9 1 10 4
M  V30 END BOND
M  V30 END CTAB
M  END
>  <i_epik_Tot_Q>  (1) 
0

>  <i_epik_Tot_abs_Q>  (1) 
0

>  <i_i_glide_confnum>  (1) 
3

>  <i_i_glide_lignum>  (1) 
36

>  <i_i_glide_posenum>  (1) 
215

>  <i_i_glide_rotatable_bonds>  (1) 
3

>  <i_lp_mmshare_version>  (1) 
72125

>  <i_m_source_file_index>  (1) 
34

>  <i_f3d_flags>  (1) 
0

>  <num_sample>  (1) 
100

>  <b_lp_Chiralities_Consistent>  (1) 
1

>  <r_epik_Charging_Adjusted_Penalty>  (1) 
0

>  <r_epik_Ionization_Penalty>  (1) 
1.0539797431440594e-07

>  <r_epik_Ionization_Penalty_Charging>  (1) 
0

>  <r_epik_Ionization_Penalty_Neutral>  (1) 
1.0539797431440594e-07

>  <r_epik_State_Penalty>  (1) 
-0

>  <r_glide_ring_energy>  (1) 
0

>  <r_i_docking_score>  (1) 
-1.9621781535702034

>  <r_i_glide_ecoul>  (1) 
-9.5917898144035796

>  <r_i_glide_eff_state_penalty>  (1) 
-0

>  <r_i_glide_einternal>  (1) 
0.7467085433616476

>  <r_i_glide_emodel>  (1) 
-15.731605813949576

>  <r_i_glide_emodel_strain>  (1) 
0.39570734268358004

>  <r_i_glide_energy>  (1) 
-14.208417613502043

>  <r_i_glide_erotb>  (1) 
2.43552256463113

>  <r_i_glide_esite>  (1) 
0

>  <r_i_glide_evdw>  (1) 
-4.6166277990984632

>  <r_i_glide_gscore>  (1) 
-1.9621781535702034

>  <r_i_glide_gscore_strain>  (1) 
0

>  <r_i_glide_hbond>  (1) 
-0.45599999999999996

>  <r_i_glide_ligand_efficiency>  (1) 
-0.49054453839255086

>  <r_i_glide_ligand_efficiency_ln>  (1) 
-0.82226995359003019

>  <r_i_glide_ligand_efficiency_sa>  (1) 
-0.77869091628159004

>  <r_i_glide_lipo>  (1) 
-0.022100856085873859

>  <r_i_glide_metal>  (1) 
-0

>  <r_i_glide_rewards>  (1) 
-2.25

>  <r_lp_Energy>  (1) 
2.5073979999999998

>  <r_lp_tautomer_probability>  (1) 
1

>  <s_epik_cmdline>  (1) 
J2VwaWtfcHl0aG9uJywgJy1waHQnLCAnMS4wJywgJy1waCcsICc3LjQnLCAnLXRuJywgJzgnLCAnLW1hJywgJzUwMCcsICctaW1hZScsICc8aW5maWxlLm1hZT4nLCAnLW9tYWUnLCAnPG91dGZpbGUubWFlPic=

>  <s_epik_input>  (1) 
W09IXVtDSDJdW0NIMl1bT0hd

>  <s_glide_docking_method>  (1) 
confgen

>  <s_i_glide_gridfile>  (1) 
gpcr_5ht2c_6bqh_protein_autoprepared_prepared

>  <s_lp_Force_Field>  (1) 
S-OPLS

>  <s_lp_Variant>  (1) 
Pocket2Mol_33-1

>  <s_m_source_file>  (1) 
generated_GPCR_5HT2C_ligand_Pocket2Mol_2026-06-23_prepared.sdf

>  <GenAI_Model>  (1) 
Pocket2Mol

>  <Protein>  (1) 
GPCR_5HT2C

$$$$
Pocket2Mol_6
     RDKit          3D

  0  0  0  0  0  0  0  0  0  0999 V3000
M  V30 BEGIN CTAB
M  V30 COUNTS 11 10 0 0 1
M  V30 BEGIN ATOM
M  V30 1 C 34.461901 33.337728 59.767817 0
M  V30 2 O 35.830014 33.583475 60.038684 0
M  V30 3 C 36.511034 32.733358 60.819229 0
M  V30 4 O 36.036913 31.737765 61.367744 0
M  V30 5 C 37.975585 33.118095 60.979022 0
M  V30 6 H 34.066469 34.113829 59.112749 0
M  V30 7 H 33.879086 33.337818 60.688654 0
M  V30 8 H 34.329401 32.374698 59.272524 0
M  V30 9 H 38.203509 34.024859 60.418016 0
M  V30 10 H 38.205047 33.293533 62.029864 0
M  V30 11 H 38.615789 32.315443 60.613435 0
M  V30 END ATOM
M  V30 BEGIN BOND
M  V30 1 1 2 1
M  V30 2 1 3 2
M  V30 3 2 4 3
M  V30 4 1 5 3
M  V30 5 1 6 1
M  V30 6 1 7 1
M  V30 7 1 8 1
M  V30 8 1 9 5
M  V30 9 1 10 5
M  V30 10 1 11 5
M  V30 END BOND
M  V30 END CTAB
M  END
>  <i_epik_Tot_Q>  (1) 
0

>  <i_epik_Tot_abs_Q>  (1) 
0

>  <i_i_glide_confnum>  (1) 
1

>  <i_i_glide_lignum>  (1) 
9

>  <i_i_glide_posenum>  (1) 
162

>  <i_i_glide_rotatable_bonds>  (1) 
1

>  <i_lp_mmshare_version>  (1) 
72125

>  <i_m_source_file_index>  (1) 
7

>  <i_f3d_flags>  (1) 
0

>  <num_sample>  (1) 
100

>  <b_lp_Chiralities_Consistent>  (1) 
1

>  <r_epik_Charging_Adjusted_Penalty>  (1) 
0

>  <r_epik_Ionization_Penalty>  (1) 
0

>  <r_epik_Ionization_Penalty_Charging>  (1) 
0

>  <r_epik_Ionization_Penalty_Neutral>  (1) 
0

>  <r_epik_State_Penalty>  (1) 
-0

>  <r_glide_ring_energy>  (1) 
0

>  <r_i_docking_score>  (1) 
-1.8854086785231425

>  <r_i_glide_ecoul>  (1) 
-2.4713683683132128

>  <r_i_glide_eff_state_penalty>  (1) 
-0

>  <r_i_glide_einternal>  (1) 
0.001954439323711088

>  <r_i_glide_emodel>  (1) 
-14.766832541341296

>  <r_i_glide_emodel_strain>  (1) 
0

>  <r_i_glide_energy>  (1) 
-12.995062323535493

>  <r_i_glide_erotb>  (1) 
1.8998339649575009

>  <r_i_glide_esite>  (1) 
0

>  <r_i_glide_evdw>  (1) 
-10.52369395522228

>  <r_i_glide_gscore>  (1) 
-1.8854086785231425

>  <r_i_glide_gscore_strain>  (1) 
0

>  <r_i_glide_hbond>  (1) 
-0.32000000000000001

>  <r_i_glide_ligand_efficiency>  (1) 
-0.3770817357046285

>  <r_i_glide_ligand_efficiency_ln>  (1) 
-0.722534408478959

>  <r_i_glide_ligand_efficiency_sa>  (1) 
-0.64480069798601414

>  <r_i_glide_lipo>  (1) 
-0.31199124475302076

>  <r_i_glide_metal>  (1) 
-0

>  <r_i_glide_rewards>  (1) 
-2.2563614457195267

>  <r_lp_Energy>  (1) 
-0.092307

>  <r_lp_tautomer_probability>  (1) 
1

>  <s_epik_Chemistry_Notes>  (1) 
This compound has an ester and may undergo hydrolysis at high or low pH.

>  <s_epik_cmdline>  (1) 
J2VwaWtfcHl0aG9uJywgJy1waHQnLCAnMS4wJywgJy1waCcsICc3LjQnLCAnLXRuJywgJzgnLCAnLW1hJywgJzUwMCcsICctaW1hZScsICc8aW5maWxlLm1hZT4nLCAnLW9tYWUnLCAnPG91dGZpbGUubWFlPic=

>  <s_epik_input>  (1) 
W0NIM11PQyg9TylbQ0gzXQ==

>  <s_glide_docking_method>  (1) 
confgen

>  <s_i_glide_gridfile>  (1) 
gpcr_5ht2c_6bqh_protein_autoprepared_prepared

>  <s_lp_Force_Field>  (1) 
S-OPLS

>  <s_lp_Variant>  (1) 
Pocket2Mol_6-1

>  <s_m_source_file>  (1) 
generated_GPCR_5HT2C_ligand_Pocket2Mol_2026-06-23_prepared.sdf

>  <GenAI_Model>  (1) 
Pocket2Mol

>  <Protein>  (1) 
GPCR_5HT2C

$$$$
Pocket2Mol_33
     RDKit          3D

  0  0  0  0  0  0  0  0  0  0999 V3000
M  V30 BEGIN CTAB
M  V30 COUNTS 10 9 0 0 1
M  V30 BEGIN ATOM
M  V30 1 C 40.189215 30.386455 50.631087 0
M  V30 2 O 40.045137 29.737754 49.387347 0
M  V30 3 C 39.553604 29.524946 51.730173 0
M  V30 4 O 39.645145 30.177819 52.978450 0
M  V30 5 H 41.250111 30.546244 50.828947 0
M  V30 6 H 39.715358 31.367235 50.574875 0
M  V30 7 H 39.122837 29.737755 49.146162 0
M  V30 8 H 38.503589 29.328727 51.510779 0
M  V30 9 H 40.056373 28.559490 51.797371 0
M  V30 10 H 39.244371 31.032387 52.915291 0
M  V30 END ATOM
M  V30 BEGIN BOND
M  V30 1 1 2 1
M  V30 2 1 3 1
M  V30 3 1 4 3
M  V30 4 1 5 1
M  V30 5 1 6 1
M  V30 6 1 7 2
M  V30 7 1 8 3
M  V30 8 1 9 3
M  V30 9 1 10 4
M  V30 END BOND
M  V30 END CTAB
M  END
>  <i_epik_Tot_Q>  (1) 
0

>  <i_epik_Tot_abs_Q>  (1) 
0

>  <i_i_glide_confnum>  (1) 
3

>  <i_i_glide_lignum>  (1) 
36

>  <i_i_glide_posenum>  (1) 
9

>  <i_i_glide_rotatable_bonds>  (1) 
3

>  <i_lp_mmshare_version>  (1) 
72125

>  <i_m_source_file_index>  (1) 
34

>  <i_f3d_flags>  (1) 
0

>  <num_sample>  (1) 
100

>  <b_lp_Chiralities_Consistent>  (1) 
1

>  <r_epik_Charging_Adjusted_Penalty>  (1) 
0

>  <r_epik_Ionization_Penalty>  (1) 
1.0539797431440594e-07

>  <r_epik_Ionization_Penalty_Charging>  (1) 
0

>  <r_epik_Ionization_Penalty_Neutral>  (1) 
1.0539797431440594e-07

>  <r_epik_State_Penalty>  (1) 
-0

>  <r_glide_ring_energy>  (1) 
0

>  <r_i_docking_score>  (1) 
-1.8177351383278353

>  <r_i_glide_ecoul>  (1) 
-3.927652973058374

>  <r_i_glide_eff_state_penalty>  (1) 
-0

>  <r_i_glide_einternal>  (1) 
0.068133950994596182

>  <r_i_glide_emodel>  (1) 
-14.699290170946247

>  <r_i_glide_emodel_strain>  (1) 
0

>  <r_i_glide_energy>  (1) 
-12.609848113062565

>  <r_i_glide_erotb>  (1) 
2.43552256463113

>  <r_i_glide_esite>  (1) 
0

>  <r_i_glide_evdw>  (1) 
-8.6821951400041915

>  <r_i_glide_gscore>  (1) 
-1.8177351383278353

>  <r_i_glide_gscore_strain>  (1) 
0

>  <r_i_glide_hbond>  (1) 
-0.32000000000000001

>  <r_i_glide_ligand_efficiency>  (1) 
-0.45443378458195882

>  <r_i_glide_ligand_efficiency_ln>  (1) 
-0.76173969479388537

>  <r_i_glide_ligand_efficiency_sa>  (1) 
-0.72136866769529162

>  <r_i_glide_lipo>  (1) 
-0.66000000000000003

>  <r_i_glide_metal>  (1) 
-0

>  <r_i_glide_rewards>  (1) 
-2.25

>  <r_lp_Energy>  (1) 
2.5073979999999998

>  <r_lp_tautomer_probability>  (1) 
1

>  <s_epik_cmdline>  (1) 
J2VwaWtfcHl0aG9uJywgJy1waHQnLCAnMS4wJywgJy1waCcsICc3LjQnLCAnLXRuJywgJzgnLCAnLW1hJywgJzUwMCcsICctaW1hZScsICc8aW5maWxlLm1hZT4nLCAnLW9tYWUnLCAnPG91dGZpbGUubWFlPic=

>  <s_epik_input>  (1) 
W09IXVtDSDJdW0NIMl1bT0hd

>  <s_glide_docking_method>  (1) 
confgen

>  <s_i_glide_gridfile>  (1) 
gpcr_5ht2c_6bqh_protein_autoprepared_prepared

>  <s_lp_Force_Field>  (1) 
S-OPLS

>  <s_lp_Variant>  (1) 
Pocket2Mol_33-1

>  <s_m_source_file>  (1) 
generated_GPCR_5HT2C_ligand_Pocket2Mol_2026-06-23_prepared.sdf

>  <GenAI_Model>  (1) 
Pocket2Mol

>  <Protein>  (1) 
GPCR_5HT2C

$$$$
Pocket2Mol_33
     RDKit          3D

  0  0  0  0  0  0  0  0  0  0999 V3000
M  V30 BEGIN CTAB
M  V30 COUNTS 10 9 0 0 1
M  V30 BEGIN ATOM
M  V30 1 C 40.165829 30.512850 50.605782 0
M  V30 2 O 40.045137 29.737740 49.434132 0
M  V30 3 C 39.651688 29.701281 51.801966 0
M  V30 4 O 39.645129 30.497962 52.967733 0
M  V30 5 H 41.211684 30.788744 50.746800 0
M  V30 6 H 39.600357 31.436788 50.480060 0
M  V30 7 H 39.128036 29.732544 49.174068 0
M  V30 8 H 38.639436 29.337726 51.620658 0
M  V30 9 H 40.280806 28.825822 51.963222 0
M  V30 10 H 40.504062 30.871046 53.094876 0
M  V30 END ATOM
M  V30 BEGIN BOND
M  V30 1 1 2 1
M  V30 2 1 3 1
M  V30 3 1 4 3
M  V30 4 1 5 1
M  V30 5 1 6 1
M  V30 6 1 7 2
M  V30 7 1 8 3
M  V30 8 1 9 3
M  V30 9 1 10 4
M  V30 END BOND
M  V30 END CTAB
M  END
>  <i_epik_Tot_Q>  (1) 
0

>  <i_epik_Tot_abs_Q>  (1) 
0

>  <i_i_glide_confnum>  (1) 
3

>  <i_i_glide_lignum>  (1) 
36

>  <i_i_glide_posenum>  (1) 
127

>  <i_i_glide_rotatable_bonds>  (1) 
3

>  <i_lp_mmshare_version>  (1) 
72125

>  <i_m_source_file_index>  (1) 
34

>  <i_f3d_flags>  (1) 
0

>  <num_sample>  (1) 
100

>  <b_lp_Chiralities_Consistent>  (1) 
1

>  <r_epik_Charging_Adjusted_Penalty>  (1) 
0

>  <r_epik_Ionization_Penalty>  (1) 
1.0539797431440594e-07

>  <r_epik_Ionization_Penalty_Charging>  (1) 
0

>  <r_epik_Ionization_Penalty_Neutral>  (1) 
1.0539797431440594e-07

>  <r_epik_State_Penalty>  (1) 
-0

>  <r_glide_ring_energy>  (1) 
0

>  <r_i_docking_score>  (1) 
-1.8038696358757615

>  <r_i_glide_ecoul>  (1) 
-3.7685972821658011

>  <r_i_glide_eff_state_penalty>  (1) 
-0

>  <r_i_glide_einternal>  (1) 
0.34706772370264471

>  <r_i_glide_emodel>  (1) 
-14.584211109973348

>  <r_i_glide_emodel_strain>  (1) 
0.00021559211706734249

>  <r_i_glide_energy>  (1) 
-12.650649445806225

>  <r_i_glide_erotb>  (1) 
2.43552256463113

>  <r_i_glide_esite>  (1) 
0

>  <r_i_glide_evdw>  (1) 
-8.8820521636404237

>  <r_i_glide_gscore>  (1) 
-1.8038696358757615

>  <r_i_glide_gscore_strain>  (1) 
0

>  <r_i_glide_hbond>  (1) 
-0.32000000000000001

>  <r_i_glide_ligand_efficiency>  (1) 
-0.45096740896894039

>  <r_i_glide_ligand_efficiency_ln>  (1) 
-0.75592922032854459

>  <r_i_glide_ligand_efficiency_sa>  (1) 
-0.71586613940066923

>  <r_i_glide_lipo>  (1) 
-0.66000000000000003

>  <r_i_glide_metal>  (1) 
-0

>  <r_i_glide_rewards>  (1) 
-2.25

>  <r_lp_Energy>  (1) 
2.5073979999999998

>  <r_lp_tautomer_probability>  (1) 
1

>  <s_epik_cmdline>  (1) 
J2VwaWtfcHl0aG9uJywgJy1waHQnLCAnMS4wJywgJy1waCcsICc3LjQnLCAnLXRuJywgJzgnLCAnLW1hJywgJzUwMCcsICctaW1hZScsICc8aW5maWxlLm1hZT4nLCAnLW9tYWUnLCAnPG91dGZpbGUubWFlPic=

>  <s_epik_input>  (1) 
W09IXVtDSDJdW0NIMl1bT0hd

>  <s_glide_docking_method>  (1) 
confgen

>  <s_i_glide_gridfile>  (1) 
gpcr_5ht2c_6bqh_protein_autoprepared_prepared

>  <s_lp_Force_Field>  (1) 
S-OPLS

>  <s_lp_Variant>  (1) 
Pocket2Mol_33-1

>  <s_m_source_file>  (1) 
generated_GPCR_5HT2C_ligand_Pocket2Mol_2026-06-23_prepared.sdf

>  <GenAI_Model>  (1) 
Pocket2Mol

>  <Protein>  (1) 
GPCR_5HT2C

$$$$
Pocket2Mol_6
     RDKit          3D

  0  0  0  0  0  0  0  0  0  0999 V3000
M  V30 BEGIN CTAB
M  V30 COUNTS 11 10 0 0 1
M  V30 BEGIN ATOM
M  V30 1 C 34.848278 33.337738 60.445728 0
M  V30 2 O 35.277572 32.173649 59.767764 0
M  V30 3 C 36.271397 31.437963 60.278980 0
M  V30 4 O 36.811448 31.634678 61.367722 0
M  V30 5 C 36.693196 30.293722 59.367532 0
M  V30 6 H 34.025632 33.793983 59.896414 0
M  V30 7 H 35.660460 34.062293 60.512153 0
M  V30 8 H 34.500651 33.109737 61.454794 0
M  V30 9 H 36.090409 30.276186 58.459701 0
M  V30 10 H 37.739571 30.405745 59.085481 0
M  V30 11 H 36.569535 29.338144 59.871155 0
M  V30 END ATOM
M  V30 BEGIN BOND
M  V30 1 1 2 1
M  V30 2 1 3 2
M  V30 3 2 4 3
M  V30 4 1 5 3
M  V30 5 1 6 1
M  V30 6 1 7 1
M  V30 7 1 8 1
M  V30 8 1 9 5
M  V30 9 1 10 5
M  V30 10 1 11 5
M  V30 END BOND
M  V30 END CTAB
M  END
>  <i_epik_Tot_Q>  (1) 
0

>  <i_epik_Tot_abs_Q>  (1) 
0

>  <i_i_glide_confnum>  (1) 
1

>  <i_i_glide_lignum>  (1) 
9

>  <i_i_glide_posenum>  (1) 
221

>  <i_i_glide_rotatable_bonds>  (1) 
1

>  <i_lp_mmshare_version>  (1) 
72125

>  <i_m_source_file_index>  (1) 
7

>  <i_f3d_flags>  (1) 
0

>  <num_sample>  (1) 
100

>  <b_lp_Chiralities_Consistent>  (1) 
1

>  <r_epik_Charging_Adjusted_Penalty>  (1) 
0

>  <r_epik_Ionization_Penalty>  (1) 
0

>  <r_epik_Ionization_Penalty_Charging>  (1) 
0

>  <r_epik_Ionization_Penalty_Neutral>  (1) 
0

>  <r_epik_State_Penalty>  (1) 
-0

>  <r_glide_ring_energy>  (1) 
0

>  <r_i_docking_score>  (1) 
-1.7357231945313418

>  <r_i_glide_ecoul>  (1) 
-1.9688813707675603

>  <r_i_glide_eff_state_penalty>  (1) 
-0

>  <r_i_glide_einternal>  (1) 
0.14681441810051887

>  <r_i_glide_emodel>  (1) 
-13.720334909649051

>  <r_i_glide_emodel_strain>  (1) 
0

>  <r_i_glide_energy>  (1) 
-12.161735816665708

>  <r_i_glide_erotb>  (1) 
1.8998339649575009

>  <r_i_glide_esite>  (1) 
-0.071375416934443145

>  <r_i_glide_evdw>  (1) 
-10.192854445898147

>  <r_i_glide_gscore>  (1) 
-1.7357231945313418

>  <r_i_glide_gscore_strain>  (1) 
0

>  <r_i_glide_hbond>  (1) 
-0.32000000000000001

>  <r_i_glide_ligand_efficiency>  (1) 
-0.34714463890626834

>  <r_i_glide_ligand_efficiency_ln>  (1) 
-0.66517129465335623

>  <r_i_glide_ligand_efficiency_sa>  (1) 
-0.5936089825474864

>  <r_i_glide_lipo>  (1) 
-0.18949682698603737

>  <r_i_glide_metal>  (1) 
-0

>  <r_i_glide_rewards>  (1) 
-2.2497099876583206

>  <r_lp_Energy>  (1) 
-0.092307

>  <r_lp_tautomer_probability>  (1) 
1

>  <s_epik_Chemistry_Notes>  (1) 
This compound has an ester and may undergo hydrolysis at high or low pH.

>  <s_epik_cmdline>  (1) 
J2VwaWtfcHl0aG9uJywgJy1waHQnLCAnMS4wJywgJy1waCcsICc3LjQnLCAnLXRuJywgJzgnLCAnLW1hJywgJzUwMCcsICctaW1hZScsICc8aW5maWxlLm1hZT4nLCAnLW9tYWUnLCAnPG91dGZpbGUubWFlPic=

>  <s_epik_input>  (1) 
W0NIM11PQyg9TylbQ0gzXQ==

>  <s_glide_docking_method>  (1) 
confgen

>  <s_i_glide_gridfile>  (1) 
gpcr_5ht2c_6bqh_protein_autoprepared_prepared

>  <s_lp_Force_Field>  (1) 
S-OPLS

>  <s_lp_Variant>  (1) 
Pocket2Mol_6-1

>  <s_m_source_file>  (1) 
generated_GPCR_5HT2C_ligand_Pocket2Mol_2026-06-23_prepared.sdf

>  <GenAI_Model>  (1) 
Pocket2Mol

>  <Protein>  (1) 
GPCR_5HT2C

$$$$
Pocket2Mol_6
     RDKit          3D

  0  0  0  0  0  0  0  0  0  0999 V3000
M  V30 BEGIN CTAB
M  V30 COUNTS 11 10 0 0 1
M  V30 BEGIN ATOM
M  V30 1 C 36.082138 34.137478 60.258752 0
M  V30 2 O 36.527345 32.951512 59.625212 0
M  V30 3 C 36.371813 31.771657 60.240196 0
M  V30 4 O 35.900935 31.616323 61.367761 0
M  V30 5 C 36.847941 30.594692 59.397752 0
M  V30 6 H 36.283584 34.998297 59.620685 0
M  V30 7 H 36.597530 34.288086 61.207947 0
M  V30 8 H 35.008208 34.097453 60.445712 0
M  V30 9 H 37.227771 30.937188 58.433790 0
M  V30 10 H 37.641759 30.058739 59.916710 0
M  V30 11 H 36.021385 29.907812 59.217445 0
M  V30 END ATOM
M  V30 BEGIN BOND
M  V30 1 1 2 1
M  V30 2 1 3 2
M  V30 3 2 4 3
M  V30 4 1 5 3
M  V30 5 1 6 1
M  V30 6 1 7 1
M  V30 7 1 8 1
M  V30 8 1 9 5
M  V30 9 1 10 5
M  V30 10 1 11 5
M  V30 END BOND
M  V30 END CTAB
M  END
>  <i_epik_Tot_Q>  (1) 
0

>  <i_epik_Tot_abs_Q>  (1) 
0

>  <i_i_glide_confnum>  (1) 
1

>  <i_i_glide_lignum>  (1) 
9

>  <i_i_glide_posenum>  (1) 
187

>  <i_i_glide_rotatable_bonds>  (1) 
1

>  <i_lp_mmshare_version>  (1) 
72125

>  <i_m_source_file_index>  (1) 
7

>  <i_f3d_flags>  (1) 
0

>  <num_sample>  (1) 
100

>  <b_lp_Chiralities_Consistent>  (1) 
1

>  <r_epik_Charging_Adjusted_Penalty>  (1) 
0

>  <r_epik_Ionization_Penalty>  (1) 
0

>  <r_epik_Ionization_Penalty_Charging>  (1) 
0

>  <r_epik_Ionization_Penalty_Neutral>  (1) 
0

>  <r_epik_State_Penalty>  (1) 
-0

>  <r_glide_ring_energy>  (1) 
0

>  <r_i_docking_score>  (1) 
-1.7334380645660443

>  <r_i_glide_ecoul>  (1) 
-2.6637677665625179

>  <r_i_glide_eff_state_penalty>  (1) 
-0

>  <r_i_glide_einternal>  (1) 
0.023377357277754363

>  <r_i_glide_emodel>  (1) 
-13.919397041659924

>  <r_i_glide_emodel_strain>  (1) 
0

>  <r_i_glide_energy>  (1) 
-12.30122800193112

>  <r_i_glide_erotb>  (1) 
1.8998339649575009

>  <r_i_glide_esite>  (1) 
-0.06742886149239101

>  <r_i_glide_evdw>  (1) 
-9.6374602353686019

>  <r_i_glide_gscore>  (1) 
-1.7334380645660443

>  <r_i_glide_gscore_strain>  (1) 
0

>  <r_i_glide_hbond>  (1) 
-0.32000000000000001

>  <r_i_glide_ligand_efficiency>  (1) 
-0.34668761291320888

>  <r_i_glide_ligand_efficiency_ln>  (1) 
-0.66429557733722133

>  <r_i_glide_ligand_efficiency_sa>  (1) 
-0.59282747909234856

>  <r_i_glide_lipo>  (1) 
-0.11442594856820118

>  <r_i_glide_metal>  (1) 
-0

>  <r_i_glide_rewards>  (1) 
-2.2499790427101454

>  <r_lp_Energy>  (1) 
-0.092307

>  <r_lp_tautomer_probability>  (1) 
1

>  <s_epik_Chemistry_Notes>  (1) 
This compound has an ester and may undergo hydrolysis at high or low pH.

>  <s_epik_cmdline>  (1) 
J2VwaWtfcHl0aG9uJywgJy1waHQnLCAnMS4wJywgJy1waCcsICc3LjQnLCAnLXRuJywgJzgnLCAnLW1hJywgJzUwMCcsICctaW1hZScsICc8aW5maWxlLm1hZT4nLCAnLW9tYWUnLCAnPG91dGZpbGUubWFlPic=

>  <s_epik_input>  (1) 
W0NIM11PQyg9TylbQ0gzXQ==

>  <s_glide_docking_method>  (1) 
confgen

>  <s_i_glide_gridfile>  (1) 
gpcr_5ht2c_6bqh_protein_autoprepared_prepared

>  <s_lp_Force_Field>  (1) 
S-OPLS

>  <s_lp_Variant>  (1) 
Pocket2Mol_6-1

>  <s_m_source_file>  (1) 
generated_GPCR_5HT2C_ligand_Pocket2Mol_2026-06-23_prepared.sdf

>  <GenAI_Model>  (1) 
Pocket2Mol

>  <Protein>  (1) 
GPCR_5HT2C

$$$$
Pocket2Mol_33
     RDKit          3D

  0  0  0  0  0  0  0  0  0  0999 V3000
M  V30 BEGIN CTAB
M  V30 COUNTS 10 9 0 0 1
M  V30 BEGIN ATOM
M  V30 1 C 39.141206 27.840133 51.205967 0
M  V30 2 O 39.184589 27.337753 52.523684 0
M  V30 3 C 40.043927 29.077118 51.091642 0
M  V30 4 O 40.045137 29.563253 49.767759 0
M  V30 5 H 39.455676 27.056673 50.515147 0
M  V30 6 H 38.107890 28.094003 50.967762 0
M  V30 7 H 40.045054 26.984691 52.688268 0
M  V30 8 H 39.701929 29.866753 51.762018 0
M  V30 9 H 41.070648 28.835601 51.367780 0
M  V30 10 H 39.149783 29.737755 49.498311 0
M  V30 END ATOM
M  V30 BEGIN BOND
M  V30 1 1 2 1
M  V30 2 1 3 1
M  V30 3 1 4 3
M  V30 4 1 5 1
M  V30 5 1 6 1
M  V30 6 1 7 2
M  V30 7 1 8 3
M  V30 8 1 9 3
M  V30 9 1 10 4
M  V30 END BOND
M  V30 END CTAB
M  END
>  <i_epik_Tot_Q>  (1) 
0

>  <i_epik_Tot_abs_Q>  (1) 
0

>  <i_i_glide_confnum>  (1) 
3

>  <i_i_glide_lignum>  (1) 
36

>  <i_i_glide_posenum>  (1) 
198

>  <i_i_glide_rotatable_bonds>  (1) 
3

>  <i_lp_mmshare_version>  (1) 
72125

>  <i_m_source_file_index>  (1) 
34

>  <i_f3d_flags>  (1) 
0

>  <num_sample>  (1) 
100

>  <b_lp_Chiralities_Consistent>  (1) 
1

>  <r_epik_Charging_Adjusted_Penalty>  (1) 
0

>  <r_epik_Ionization_Penalty>  (1) 
1.0539797431440594e-07

>  <r_epik_Ionization_Penalty_Charging>  (1) 
0

>  <r_epik_Ionization_Penalty_Neutral>  (1) 
1.0539797431440594e-07

>  <r_epik_State_Penalty>  (1) 
-0

>  <r_glide_ring_energy>  (1) 
0

>  <r_i_docking_score>  (1) 
-1.6237651640711315

>  <r_i_glide_ecoul>  (1) 
-1.9113026209183792

>  <r_i_glide_eff_state_penalty>  (1) 
-0

>  <r_i_glide_einternal>  (1) 
0.57164588367952829

>  <r_i_glide_emodel>  (1) 
-14.374236408385052

>  <r_i_glide_emodel_strain>  (1) 
0

>  <r_i_glide_energy>  (1) 
-12.763149332208473

>  <r_i_glide_erotb>  (1) 
2.43552256463113

>  <r_i_glide_esite>  (1) 
0

>  <r_i_glide_evdw>  (1) 
-10.851846711290094

>  <r_i_glide_gscore>  (1) 
-1.6237651640711315

>  <r_i_glide_gscore_strain>  (1) 
0

>  <r_i_glide_hbond>  (1) 
-0.32000000000000001

>  <r_i_glide_ligand_efficiency>  (1) 
-0.40594129101778287

>  <r_i_glide_ligand_efficiency_ln>  (1) 
-0.68045467924128877

>  <r_i_glide_ligand_efficiency_sa>  (1) 
-0.64439163239895747

>  <r_i_glide_lipo>  (1) 
-0.66000000000000003

>  <r_i_glide_metal>  (1) 
-0

>  <r_i_glide_rewards>  (1) 
-2.25

>  <r_lp_Energy>  (1) 
2.5073979999999998

>  <r_lp_tautomer_probability>  (1) 
1

>  <s_epik_cmdline>  (1) 
J2VwaWtfcHl0aG9uJywgJy1waHQnLCAnMS4wJywgJy1waCcsICc3LjQnLCAnLXRuJywgJzgnLCAnLW1hJywgJzUwMCcsICctaW1hZScsICc8aW5maWxlLm1hZT4nLCAnLW9tYWUnLCAnPG91dGZpbGUubWFlPic=

>  <s_epik_input>  (1) 
W09IXVtDSDJdW0NIMl1bT0hd

>  <s_glide_docking_method>  (1) 
confgen

>  <s_i_glide_gridfile>  (1) 
gpcr_5ht2c_6bqh_protein_autoprepared_prepared

>  <s_lp_Force_Field>  (1) 
S-OPLS

>  <s_lp_Variant>  (1) 
Pocket2Mol_33-1

>  <s_m_source_file>  (1) 
generated_GPCR_5HT2C_ligand_Pocket2Mol_2026-06-23_prepared.sdf

>  <GenAI_Model>  (1) 
Pocket2Mol

>  <Protein>  (1) 
GPCR_5HT2C

$$$$
Pocket2Mol_33
     RDKit          3D

  0  0  0  0  0  0  0  0  0  0999 V3000
M  V30 BEGIN CTAB
M  V30 COUNTS 10 9 0 0 1
M  V30 BEGIN ATOM
M  V30 1 C 35.773809 33.150252 60.896286 0
M  V30 2 O 35.645130 31.743755 60.967760 0
M  V30 3 C 35.862869 33.603525 59.430856 0
M  V30 4 O 36.044745 35.003449 59.367584 0
M  V30 5 H 34.915733 33.612349 61.386016 0
M  V30 6 H 36.664043 33.451545 61.449864 0
M  V30 7 H 35.004336 31.473314 60.325695 0
M  V30 8 H 36.692825 33.113582 58.919687 0
M  V30 9 H 34.949689 33.339901 58.896528 0
M  V30 10 H 36.045170 35.265089 58.454085 0
M  V30 END ATOM
M  V30 BEGIN BOND
M  V30 1 1 2 1
M  V30 2 1 3 1
M  V30 3 1 4 3
M  V30 4 1 5 1
M  V30 5 1 6 1
M  V30 6 1 7 2
M  V30 7 1 8 3
M  V30 8 1 9 3
M  V30 9 1 10 4
M  V30 END BOND
M  V30 END CTAB
M  END
>  <i_epik_Tot_Q>  (1) 
0

>  <i_epik_Tot_abs_Q>  (1) 
0

>  <i_i_glide_confnum>  (1) 
1

>  <i_i_glide_lignum>  (1) 
36

>  <i_i_glide_posenum>  (1) 
285

>  <i_i_glide_rotatable_bonds>  (1) 
3

>  <i_lp_mmshare_version>  (1) 
72125

>  <i_m_source_file_index>  (1) 
34

>  <i_f3d_flags>  (1) 
0

>  <num_sample>  (1) 
100

>  <b_lp_Chiralities_Consistent>  (1) 
1

>  <r_epik_Charging_Adjusted_Penalty>  (1) 
0

>  <r_epik_Ionization_Penalty>  (1) 
1.0539797431440594e-07

>  <r_epik_Ionization_Penalty_Charging>  (1) 
0

>  <r_epik_Ionization_Penalty_Neutral>  (1) 
1.0539797431440594e-07

>  <r_epik_State_Penalty>  (1) 
-0

>  <r_glide_ring_energy>  (1) 
0

>  <r_i_docking_score>  (1) 
-1.4119961101586451

>  <r_i_glide_ecoul>  (1) 
-4.3190240889167146

>  <r_i_glide_eff_state_penalty>  (1) 
-0

>  <r_i_glide_einternal>  (1) 
0.68179377420482423

>  <r_i_glide_emodel>  (1) 
-13.604843586261332

>  <r_i_glide_emodel_strain>  (1) 
0.00045807450261498017

>  <r_i_glide_energy>  (1) 
-12.296680732097581

>  <r_i_glide_erotb>  (1) 
2.43552256463113

>  <r_i_glide_esite>  (1) 
0

>  <r_i_glide_evdw>  (1) 
-7.9776566431808673

>  <r_i_glide_gscore>  (1) 
-1.4119961101586451

>  <r_i_glide_gscore_strain>  (1) 
0

>  <r_i_glide_hbond>  (1) 
-0.38286552858033412

>  <r_i_glide_ligand_efficiency>  (1) 
-0.35299902753966128

>  <r_i_glide_ligand_efficiency_ln>  (1) 
-0.59171078520924536

>  <r_i_glide_ligand_efficiency_sa>  (1) 
-0.56035102766020972

>  <r_i_glide_lipo>  (1) 
-0.16791670071289067

>  <r_i_glide_metal>  (1) 
-0

>  <r_i_glide_rewards>  (1) 
-2.25

>  <r_lp_Energy>  (1) 
2.5073979999999998

>  <r_lp_tautomer_probability>  (1) 
1

>  <s_epik_cmdline>  (1) 
J2VwaWtfcHl0aG9uJywgJy1waHQnLCAnMS4wJywgJy1waCcsICc3LjQnLCAnLXRuJywgJzgnLCAnLW1hJywgJzUwMCcsICctaW1hZScsICc8aW5maWxlLm1hZT4nLCAnLW9tYWUnLCAnPG91dGZpbGUubWFlPic=

>  <s_epik_input>  (1) 
W09IXVtDSDJdW0NIMl1bT0hd

>  <s_glide_docking_method>  (1) 
confgen

>  <s_i_glide_gridfile>  (1) 
gpcr_5ht2c_6bqh_protein_autoprepared_prepared

>  <s_lp_Force_Field>  (1) 
S-OPLS

>  <s_lp_Variant>  (1) 
Pocket2Mol_33-1

>  <s_m_source_file>  (1) 
generated_GPCR_5HT2C_ligand_Pocket2Mol_2026-06-23_prepared.sdf

>  <GenAI_Model>  (1) 
Pocket2Mol

>  <Protein>  (1) 
GPCR_5HT2C

$$$$
