input/5ht2c/gpcr_5ht2c_6bqh_complex_autopreparedcut10/gpcr_5ht2c_6bqh_complex_autopreparedcut10_ligand.pdb
 OpenBabel05182600513D

 60 64  0  0  0  0  0  0  0  0999 V2000
   39.2630   36.0720   61.9060 C   0  0  0  0  0  0  0  0  0  0  0  0
   38.2910   36.4380   61.1500 N   0  0  0  0  0  0  0  0  0  0  0  0
   37.6360   33.1800   59.2610 C   0  0  0  0  0  0  0  0  0  0  0  0
   38.4250   33.1640   57.9430 C   0  0  0  0  0  0  0  0  0  0  0  0
   38.3890   32.3260   55.5450 C   0  0  0  0  0  0  0  0  0  0  0  0
   39.0440   29.0530   52.9370 C   0  0  0  0  0  0  0  0  0  0  0  0
   39.2740   28.2390   50.6680 C   0  0  0  0  0  0  0  0  0  0  0  0
   39.8410   30.1550   52.5980 C   0  0  0  0  0  0  0  0  0  0  0  0
   37.4430   29.6930   56.4980 C   0  0  0  0  0  0  0  0  0  0  0  0
   38.1770   30.6420   57.4590 C   0  0  0  0  0  0  0  0  0  0  0  0
   38.6090   27.5270   54.8880 C   0  0  0  0  0  0  0  0  0  0  0  0
   38.5080   28.8850   54.3140 C   0  0  0  0  0  0  0  0  0  0  0  0
   39.6800   25.9700   56.3870 C   0  0  0  0  0  0  0  0  0  0  0  0
   36.6690   36.1550   59.4670 C   0  0  0  0  0  0  0  0  0  0  0  0
   37.7570   35.5170   60.2960 C   0  0  0  0  0  0  0  0  0  0  0  0
   38.1970   34.2240   60.2250 C   0  0  0  0  0  0  0  0  0  0  0  0
   39.3100   33.8130   61.0940 C   0  0  0  0  0  0  0  0  0  0  0  0
   39.7820   32.6640   61.0400 O   0  0  0  0  0  0  0  0  0  0  0  0
   39.8000   34.8130   61.9180 N   0  0  0  0  0  0  0  0  0  0  0  0
   40.8580   34.6510   62.7860 C   0  0  0  0  0  0  0  0  0  0  0  0
   41.1620   35.7600   63.4910 C   0  0  0  0  0  0  0  0  0  0  0  0
   40.0930   37.1070   63.0690 S   0  0  0  0  0  0  0  0  0  0  0  0
   37.8950   32.0830   56.9850 N   0  3  0  0  0  0  0  0  0  0  0  0
   37.6980   31.3160   54.6130 C   0  0  0  0  0  0  0  0  0  0  0  0
   37.9600   29.8780   55.0650 C   0  0  0  0  0  0  0  0  0  0  0  0
   39.6730   27.1960   55.7310 C   0  0  0  0  0  0  0  0  0  0  0  0
   38.6390   25.0700   56.1840 C   0  0  0  0  0  0  0  0  0  0  0  0
   37.6050   25.3680   55.3040 C   0  0  0  0  0  0  0  0  0  0  0  0
   37.5920   26.5970   54.6500 C   0  0  0  0  0  0  0  0  0  0  0  0
   38.6200   23.9080   56.8660 F   0  0  0  0  0  0  0  0  0  0  0  0
   38.7690   28.0940   51.9520 C   0  0  0  0  0  0  0  0  0  0  0  0
   40.0270   29.3550   50.3400 C   0  0  0  0  0  0  0  0  0  0  0  0
   40.3110   30.3160   51.2990 C   0  0  0  0  0  0  0  0  0  0  0  0
   40.4940   29.5020   49.0880 F   0  0  0  0  0  0  0  0  0  0  0  0
   37.6350   32.2060   59.7530 H   0  0  0  0  0  0  0  0  0  0  0  0
   36.5880   33.3820   59.0430 H   0  0  0  0  0  0  0  0  0  0  0  0
   39.4970   33.0020   58.0720 H   0  0  0  0  0  0  0  0  0  0  0  0
   38.2490   34.1050   57.4160 H   0  0  0  0  0  0  0  0  0  0  0  0
   39.4770   32.2260   55.5400 H   0  0  0  0  0  0  0  0  0  0  0  0
   38.1060   33.3470   55.2720 H   0  0  0  0  0  0  0  0  0  0  0  0
   39.0870   27.4760   49.9320 H   0  0  0  0  0  0  0  0  0  0  0  0
   40.1120   30.8940   53.3370 H   0  0  0  0  0  0  0  0  0  0  0  0
   36.3730   29.9170   56.5220 H   0  0  0  0  0  0  0  0  0  0  0  0
   37.5350   28.6720   56.8690 H   0  0  0  0  0  0  0  0  0  0  0  0
   39.2590   30.4880   57.4720 H   0  0  0  0  0  0  0  0  0  0  0  0
   37.7920   30.5200   58.4710 H   0  0  0  0  0  0  0  0  0  0  0  0
   40.4730   25.7290   57.0780 H   0  0  0  0  0  0  0  0  0  0  0  0
   36.0410   35.4400   58.9450 H   0  0  0  0  0  0  0  0  0  0  0  0
   36.0150   36.7670   60.0840 H   0  0  0  0  0  0  0  0  0  0  0  0
   37.1180   36.8180   58.7270 H   0  0  0  0  0  0  0  0  0  0  0  0
   41.3230   33.6710   62.8350 H   0  0  0  0  0  0  0  0  0  0  0  0
   41.9280   35.8830   64.2520 H   0  0  0  0  0  0  0  0  0  0  0  0
   37.9950   31.5230   53.5930 H   0  0  0  0  0  0  0  0  0  0  0  0
   36.6200   31.4880   54.6160 H   0  0  0  0  0  0  0  0  0  0  0  0
   40.4680   27.9030   55.9190 H   0  0  0  0  0  0  0  0  0  0  0  0
   36.8040   24.6590   55.1570 H   0  0  0  0  0  0  0  0  0  0  0  0
   36.7740   26.8420   53.9860 H   0  0  0  0  0  0  0  0  0  0  0  0
   38.1770   27.2150   52.1570 H   0  0  0  0  0  0  0  0  0  0  0  0
   40.9060   31.1750   51.0330 H   0  0  0  0  0  0  0  0  0  0  0  0
   36.8640   32.1880   56.9620 H   0  0  0  0  0  0  0  0  0  0  0  0
  1  2  2  0  0  0  0
  1 19  1  0  0  0  0
  1 22  1  0  0  0  0
  2 15  1  0  0  0  0
  3  4  1  0  0  0  0
  3 16  1  0  0  0  0
  3 35  1  0  0  0  0
  3 36  1  0  0  0  0
  4 23  1  0  0  0  0
  4 37  1  0  0  0  0
  4 38  1  0  0  0  0
  5 23  1  0  0  0  0
  5 24  1  0  0  0  0
  5 39  1  0  0  0  0
  5 40  1  0  0  0  0
  6  8  2  0  0  0  0
  6 12  1  0  0  0  0
  6 31  1  0  0  0  0
  7 31  2  0  0  0  0
  7 32  1  0  0  0  0
  7 41  1  0  0  0  0
  8 33  1  0  0  0  0
  8 42  1  0  0  0  0
  9 10  1  0  0  0  0
  9 25  1  0  0  0  0
  9 43  1  0  0  0  0
  9 44  1  0  0  0  0
 10 23  1  0  0  0  0
 10 45  1  0  0  0  0
 10 46  1  0  0  0  0
 11 12  1  0  0  0  0
 11 26  1  0  0  0  0
 11 29  2  0  0  0  0
 12 25  2  0  0  0  0
 13 26  2  0  0  0  0
 13 27  1  0  0  0  0
 13 47  1  0  0  0  0
 14 15  1  0  0  0  0
 14 48  1  0  0  0  0
 14 49  1  0  0  0  0
 14 50  1  0  0  0  0
 15 16  2  0  0  0  0
 16 17  1  0  0  0  0
 17 18  2  0  0  0  0
 17 19  1  0  0  0  0
 19 20  1  0  0  0  0
 20 21  2  0  0  0  0
 20 51  1  0  0  0  0
 21 22  1  0  0  0  0
 21 52  1  0  0  0  0
 23 60  1  0  0  0  0
 24 25  1  0  0  0  0
 24 53  1  0  0  0  0
 24 54  1  0  0  0  0
 26 55  1  0  0  0  0
 27 28  2  0  0  0  0
 27 30  1  0  0  0  0
 28 29  1  0  0  0  0
 28 56  1  0  0  0  0
 29 57  1  0  0  0  0
 31 58  1  0  0  0  0
 32 33  2  0  0  0  0
 32 34  1  0  0  0  0
 33 59  1  0  0  0  0
M  CHG  1  23   1
M  END
$$$$
