DiffSBDD_0_num_sample_50
     RDKit          3D

 34 38  0  0  0  0  0  0  0  0999 V2000
   36.9620   36.4590   59.8540 C   0  0  0  0  0  0  0  0  0  0  0  0
   37.1550   35.0510   60.0250 C   0  0  0  0  0  0  0  0  0  0  0  0
   38.7150   33.0780   60.7980 C   0  0  0  0  0  0  0  0  0  0  0  0
   39.6660   29.8690   52.5000 S   0  0  0  0  0  0  0  0  0  0  0  0
   37.8210   27.1720   54.6810 O   0  0  0  0  0  0  0  0  0  0  0  0
   36.9380   30.0610   59.2990 C   0  0  0  0  0  0  0  0  0  0  0  0
   39.6130   27.6810   59.0260 C   0  0  0  0  0  0  0  0  0  0  0  0
   39.1470   35.4530   61.3410 C   0  0  0  0  0  0  0  0  0  0  0  0
   36.7900   31.5000   60.0000 C   0  0  0  0  0  0  0  0  0  0  0  0
   40.3330   29.6940   49.4290 C   0  0  0  0  0  0  0  0  0  0  0  0
   39.4080   27.8900   50.6830 C   0  0  0  0  0  0  0  0  0  0  0  0
   37.7500   38.6190   60.3110 F   0  0  0  0  0  0  0  0  0  0  0  0
   38.9170   36.8270   61.1850 C   0  0  0  0  0  0  0  0  0  0  0  0
   39.5960   27.3350   49.2990 C   0  0  0  0  0  0  0  0  0  0  0  0
   39.7610   29.2430   50.7780 C   0  0  1  0  0  0  0  0  0  0  0  0
   38.4380   31.9710   54.7980 C   0  0  0  0  0  0  0  0  0  0  0  0
   39.8400   28.8540   56.7620 C   0  0  0  0  0  0  0  0  0  0  0  0
   37.5210   32.3810   54.1750 O   0  0  0  0  0  0  0  0  0  0  0  0
   38.6010   28.1420   54.5310 C   0  0  0  0  0  0  0  0  0  0  0  0
   41.4090   27.1130   57.4660 C   0  0  0  0  0  0  0  0  0  0  0  0
   38.4900   30.5120   55.2400 C   0  0  2  0  0  0  0  0  0  0  0  0
   38.2290   32.0090   59.8910 C   0  0  1  0  0  0  0  0  0  0  0  0
   39.9860   27.5720   57.5570 C   0  0  0  0  0  0  0  0  0  0  0  0
   37.8170   31.5160   57.3970 N   0  0  1  0  0  0  0  0  0  0  0  0
   38.9520   27.4550   51.9590 C   0  0  0  0  0  0  0  0  0  0  0  0
   37.4330   30.4750   56.3730 C   0  0  2  0  0  0  0  0  0  0  0  0
   38.9710   28.3640   53.0360 C   0  0  0  0  0  0  0  0  0  0  0  0
   38.9340   29.1040   55.4950 N   0  0  0  0  0  0  0  0  0  0  0  0
   37.2060   30.3090   57.9250 C   0  0  0  0  0  0  0  0  0  0  0  0
   38.2730   34.5330   60.6710 C   0  0  0  0  0  0  0  0  0  0  0  0
   39.5350   32.6300   55.3440 O   0  0  0  0  0  0  0  0  0  0  0  0
   38.6040   32.3190   58.4070 C   0  0  0  0  0  0  0  0  0  0  0  0
   37.8890   37.3250   60.4900 C   0  0  0  0  0  0  0  0  0  0  0  0
   40.2110   28.5210   48.5180 C   0  0  0  0  0  0  0  0  0  0  0  0
  1  2  2  0
  1 33  1  0
  2 30  1  0
  4 27  1  0
  6  9  1  0
 11 15  1  0
 11 25  1  0
 12 33  1  0
 13  8  1  0
 14 11  2  0
 15 10  1  0
 15  4  1  1
 16 31  2  0
 17 23  1  0
 18 16  1  0
 19  5  2  0
 19 28  1  0
 20 23  1  0
 21 16  1  0
 21 28  1  1
 22  9  1  0
 22  3  1  1
 23  7  1  0
 24 29  1  0
 24 32  1  1
 25 27  2  0
 26 21  1  0
 26 24  1  0
 26 29  1  1
 27 19  1  0
 28 17  1  0
 29  6  1  0
 30  3  1  0
 30  8  2  0
 32 22  1  0
 33 13  2  0
 34 14  1  0
 34 10  2  0
M  CHG  2  18  -1  24   1
M  END
$$$$
DiffSBDD_1_num_sample_50
     RDKit          3D

 10  9  0  0  0  0  0  0  0  0999 V2000
   39.5110   29.1730   51.8070 C   0  0  0  0  0  0  0  0  0  0  0  0
   39.6140   30.5040   52.7000 C   0  0  0  0  0  0  0  0  0  0  0  0
   38.4340   33.1790   56.6790 C   0  0  0  0  0  0  0  0  0  0  0  0
   38.4110   32.6490   55.2150 C   0  0  0  0  0  0  0  0  0  0  0  0
   36.7510   36.7900   59.5580 N   0  0  0  0  0  0  0  0  0  0  0  0
   39.3660   31.4720   55.1890 C   0  0  0  0  0  0  0  0  0  0  0  0
   38.9200   30.3640   54.1560 C   0  0  0  0  0  0  0  0  0  0  0  0
   37.7480   34.6560   58.9110 C   0  0  0  0  0  0  0  0  0  0  0  0
   37.5970   33.6970   57.6990 N   0  0  0  0  0  0  0  0  0  0  0  0
   36.3620   35.2270   59.4610 C   0  0  0  0  0  0  0  0  0  0  0  0
  1  2  1  0
  2  7  1  0
  3  9  1  0
  4  3  1  0
  6  4  1  0
  7  6  1  0
  8 10  1  0
  9  8  1  0
 10  5  1  0
M  CHG  2   5   1   9   1
M  END
$$$$
DiffSBDD_2_num_sample_50
     RDKit          3D

 36 40  0  0  0  0  0  0  0  0999 V2000
   39.1540   31.2040   59.5190 C   0  0  0  0  0  0  0  0  0  0  0  0
   39.5330   29.1780   51.6640 C   0  0  0  0  0  0  0  0  0  0  0  0
   37.7610   28.8590   58.8570 C   0  0  0  0  0  0  0  0  0  0  0  0
   37.1110   31.4250   54.6140 C   0  0  0  0  0  0  0  0  0  0  0  0
   41.2350   30.2130   50.4860 F   0  0  0  0  0  0  0  0  0  0  0  0
   39.9550   30.0220   50.4900 C   0  0  0  0  0  0  0  0  0  0  0  0
   38.5450   31.7690   58.3020 C   0  0  0  0  0  0  0  0  0  0  0  0
   38.7690   33.4850   59.8500 C   0  0  0  0  0  0  0  0  0  0  0  0
   38.9340   32.6560   55.7450 C   0  0  0  0  0  0  0  0  0  0  0  0
   38.0210   29.4310   57.5400 C   0  0  1  0  0  0  0  0  0  0  0  0
   39.8440   32.4630   61.6530 C   0  0  0  0  0  0  0  0  0  0  0  0
   37.1980   36.6950   59.9460 C   0  0  2  0  0  0  0  0  0  0  0  0
   39.8760   25.6650   55.4280 C   0  0  0  0  0  0  0  0  0  0  0  0
   38.8960   28.9410   54.0410 C   0  0  0  0  0  0  0  0  0  0  0  0
   40.5520   31.3370   62.2350 C   0  0  0  0  0  0  0  0  0  0  0  0
   40.2380   28.7730   56.6090 C   0  0  0  0  0  0  0  0  0  0  0  0
   38.3180   29.4570   55.2790 C   0  0  2  0  0  0  0  0  0  0  0  0
   39.9850   33.6160   62.2850 C   0  0  0  0  0  0  0  0  0  0  0  0
   37.6520   37.8390   59.3160 O   0  0  0  0  0  0  0  0  0  0  0  0
   38.3230   33.8120   55.9150 O   0  0  0  0  0  0  0  0  0  0  0  0
   39.4810   26.9870   52.7130 C   0  0  0  0  0  0  0  0  0  0  0  0
   39.4060   31.1880   50.4620 F   0  0  0  0  0  0  0  0  0  0  0  0
   38.1520   37.0160   60.6100 O   0  0  0  0  0  0  0  0  0  0  0  0
   39.7010   27.8370   51.5970 C   0  0  0  0  0  0  0  0  0  0  0  0
   38.4000   36.0540   60.1680 C   0  0  1  0  0  0  0  0  0  0  0  0
   39.1970   29.7530   52.8650 C   0  0  0  0  0  0  0  0  0  0  0  0
   38.2650   31.0930   55.6490 P   0  0  0  0  0  0  0  0  0  0  0  0
   39.4860   34.7910   61.7460 C   0  0  0  0  0  0  0  0  0  0  0  0
   38.1020   30.8970   57.2400 C   0  0  2  0  0  0  0  0  0  0  0  0
   38.9040   26.7570   55.1720 C   0  0  0  0  0  0  0  0  0  0  0  0
   39.2410   32.3490   60.3740 C   0  0  2  0  0  0  0  0  0  0  0  0
   38.2930   33.1140   58.5290 N   0  0  0  0  0  0  0  0  0  0  0  0
   38.8400   28.7510   56.4700 N   0  0  2  0  0  0  0  0  0  0  0  0
   39.1410   27.5290   53.9160 C   0  0  0  0  0  0  0  0  0  0  0  0
   39.5920   29.3290   49.3950 F   0  0  0  0  0  0  0  0  0  0  0  0
   38.8480   34.7020   60.5270 C   0  0  0  0  0  0  0  0  0  0  0  0
  2 26  2  0
  5  6  1  0
  6  2  1  0
  7 32  1  0
  7  1  2  0
  8 31  1  0
  8 36  1  0
  9 20  1  0
 10  3  1  1
 11 15  1  0
 11 18  2  0
 12 19  1  6
 12 25  1  0
 12 23  1  0
 17 14  1  6
 17 27  1  0
 17 33  1  0
 21 34  1  0
 22  6  1  0
 24  2  1  0
 24 21  2  0
 25 36  1  1
 25 23  1  0
 26 14  1  0
 27  4  1  0
 27  9  1  0
 27 29  1  0
 28 18  1  0
 29 10  1  0
 29  7  1  1
 30 13  1  0
 31  1  1  6
 31 11  1  0
 32  8  2  0
 33 16  1  1
 33 10  1  0
 34 14  2  0
 34 30  1  0
 35  6  1  0
 36 28  2  0
M  CHG  1  33   1
M  END
$$$$
DiffSBDD_3_num_sample_50
     RDKit          3D

 33 36  0  0  0  0  0  0  0  0999 V2000
   37.8210   31.7020   54.7250 C   0  0  0  0  0  0  0  0  0  0  0  0
   39.2500   25.2830   55.2360 N   0  0  0  0  0  0  0  0  0  0  0  0
   37.5410   29.0650   55.1600 C   0  0  0  0  0  0  0  0  0  0  0  0
   38.3630   34.2000   61.0680 C   0  0  2  0  0  0  0  0  0  0  0  0
   38.7040   31.5170   60.8270 C   0  0  0  0  0  0  0  0  0  0  0  0
   40.1750   28.3360   49.7720 S   0  0  0  0  0  0  0  0  0  0  0  0
   39.6050   29.8850   55.7210 C   0  0  0  0  0  0  0  0  0  0  0  0
   39.2700   26.1650   54.3860 C   0  0  0  0  0  0  0  0  0  0  0  0
   38.0100   38.0980   61.3660 C   0  0  0  0  0  0  0  0  0  0  0  0
   40.1860   29.7820   49.4040 C   0  0  1  0  0  0  0  0  0  0  0  0
   38.4160   35.6420   61.1880 C   0  0  1  0  0  0  0  0  0  0  0  0
   37.0830   30.5080   55.1710 C   0  0  0  0  0  0  0  0  0  0  0  0
   38.7760   31.8770   57.2620 C   0  0  2  0  0  0  0  0  0  0  0  0
   38.4350   32.4390   59.7200 C   0  0  0  0  0  0  0  0  0  0  0  0
   39.0200   33.6030   59.8050 C   0  0  0  0  0  0  0  0  0  0  0  0
   39.9730   30.5440   50.4370 C   0  0  0  0  0  0  0  0  0  0  0  0
   38.9390   29.0470   54.6700 N   0  0  2  0  0  0  0  0  0  0  0  0
   39.3560   27.1360   53.2870 C   0  0  0  0  0  0  0  0  0  0  0  0
   37.3040   34.8810   60.4930 O   0  0  0  0  0  0  0  0  0  0  0  0
   39.7650   29.6520   52.7630 C   0  0  0  0  0  0  0  0  0  0  0  0
   39.2190   28.4520   51.2750 C   0  0  0  0  0  0  0  0  0  0  0  0
   39.2980   28.5280   53.5250 C   0  0  2  0  0  0  0  0  0  0  0  0
   40.7890   36.1890   61.9630 C   0  0  0  0  0  0  0  0  0  0  0  0
   39.5070   31.8490   62.1280 C   0  0  0  0  0  0  0  0  0  0  0  0
   37.8000   32.0620   58.3580 N   0  0  0  0  0  0  0  0  0  0  0  0
   38.6060   36.7820   61.4860 C   0  0  1  0  0  0  0  0  0  0  0  0
   38.4680   32.4680   55.8530 C   0  0  2  0  0  0  0  0  0  0  0  0
   38.9720   30.3300   57.0430 C   0  0  0  0  0  0  0  0  0  0  0  0
   39.5010   29.7700   51.5210 C   0  0  2  0  0  0  0  0  0  0  0  0
   37.8130   33.7120   56.1390 O   0  0  0  0  0  0  0  0  0  0  0  0
   39.4670   36.3550   61.4090 N   0  0  0  0  0  0  0  0  0  0  0  0
   40.4650   30.0430   48.1920 F   0  0  0  0  0  0  0  0  0  0  0  0
   36.6490   38.0530   61.0410 O   0  0  0  0  0  0  0  0  0  0  0  0
  1 12  1  0
  1 27  1  0
  3 12  1  0
  4 15  1  6
  4 11  1  0
  5 24  1  0
  6 21  1  0
  7 28  1  0
  8  2  3  0
 10 32  1  1
 10  6  1  0
 10 16  1  0
 11 19  1  6
 11 31  1  0
 11 26  1  0
 13 25  1  1
 14 15  1  0
 14  5  2  3
 16 29  1  0
 17  3  1  6
 17  7  1  0
 22 18  1  1
 18  8  1  0
 19  4  1  0
 21 29  1  0
 22 20  1  0
 22 17  1  0
 25 14  1  0
 26  9  1  6
 27 30  1  1
 27 13  1  0
 28 13  1  0
 29 20  1  1
 31 26  1  0
 31 23  1  0
 33  9  1  0
M  CHG  1  17   1
M  END
$$$$
DiffSBDD_4_num_sample_50
     RDKit          3D

 34 36  0  0  0  0  0  0  0  0999 V2000
   39.3080   29.4870   52.4820 C   0  0  0  0  0  0  0  0  0  0  0  0
   38.3570   34.4360   60.6770 C   0  0  0  0  0  0  0  0  0  0  0  0
   37.0520   36.3140   59.8390 C   0  0  0  0  0  0  0  0  0  0  0  0
   37.5200   32.8940   59.3880 N   0  0  0  0  0  0  0  0  0  0  0  0
   40.3280   26.3740   55.9600 C   0  0  0  0  0  0  0  0  0  0  0  0
   37.9430   37.1970   60.5310 C   0  0  0  0  0  0  0  0  0  0  0  0
   38.2180   33.0290   60.5440 C   0  0  0  0  0  0  0  0  0  0  0  0
   38.6530   28.8650   56.0560 N   0  0  0  0  0  0  0  0  0  0  0  0
   39.2760   32.4500   56.0920 C   0  0  0  0  0  0  0  0  0  0  0  0
   37.7790   27.7740   54.2360 C   0  0  0  0  0  0  0  0  0  0  0  0
   37.4870   30.5290   54.8740 O   0  0  0  0  0  0  0  0  0  0  0  0
   37.9720   32.0220   58.3640 C   0  0  0  0  0  0  0  0  0  0  0  0
   39.6350   28.3310   49.2240 F   0  0  0  0  0  0  0  0  0  0  0  0
   39.7010   27.4290   51.4290 C   0  0  0  0  0  0  0  0  0  0  0  0
   36.7230   33.9360   59.2050 C   0  0  0  0  0  0  0  0  0  0  0  0
   39.7960   29.2650   50.0490 C   0  0  0  0  0  0  0  0  0  0  0  0
   38.9480   27.2940   52.3320 N   0  0  0  0  0  0  0  0  0  0  0  0
   39.3030   35.3260   61.2590 C   0  0  0  0  0  0  0  0  0  0  0  0
   39.7690   31.1310   55.4980 C   0  0  0  0  0  0  0  0  0  0  0  0
   38.8870   28.2920   53.3490 C   0  0  1  0  0  0  0  0  0  0  0  0
   37.2580   34.9570   59.9690 C   0  0  0  0  0  0  0  0  0  0  0  0
   36.0830   36.7460   59.1230 O   0  0  0  0  0  0  0  0  0  0  0  0
   39.1230   36.6790   61.1920 C   0  0  0  0  0  0  0  0  0  0  0  0
   39.4810   29.0070   51.2560 C   0  0  2  0  0  0  0  0  0  0  0  0
   38.8200   26.4240   56.1940 C   0  0  0  0  0  0  0  0  0  0  0  0
   38.6410   30.1450   55.3360 C   0  0  0  0  0  0  0  0  0  0  0  0
   38.3810   27.6560   55.4860 N   0  0  0  0  0  0  0  0  0  0  0  0
   38.5590   26.6550   57.6410 C   0  0  0  0  0  0  0  0  0  0  0  0
   40.5530   34.9300   62.0360 C   0  0  0  0  0  0  0  0  0  0  0  0
   40.2690   34.0390   63.1410 N   0  0  0  0  0  0  0  0  0  0  0  0
   40.2230   30.4910   49.6460 F   0  0  0  0  0  0  0  0  0  0  0  0
   38.1100   32.1700   57.0730 C   0  0  0  0  0  0  0  0  0  0  0  0
   38.3460   25.1790   55.6980 C   0  0  0  0  0  0  0  0  0  0  0  0
   38.5430   32.1970   61.4510 O   0  0  0  0  0  0  0  0  0  0  0  0
  1 20  1  0
  2 18  1  0
  3 21  1  0
  3  6  1  0
  4  7  1  0
  5 25  1  0
  6 23  1  0
  7  2  1  0
  7 34  2  0
  9 32  1  0
 10 27  1  0
 11 26  2  0
 12  4  1  0
 13 16  1  0
 14 17  1  0
 15  4  1  0
 15 21  1  0
 17 20  1  0
 18 29  1  0
 19  9  1  0
 20 10  1  6
 21  2  2  0
 22  3  2  0
 23 18  2  0
 24 16  1  1
 24 14  1  0
 24  1  1  0
 25 28  1  0
 26 19  1  0
 26  8  1  0
 27  8  1  0
 27 25  1  0
 29 30  1  0
 31 16  1  0
 32 12  1  0
 33 25  1  0
M  CHG  2  17   1  30   1
M  END
$$$$
DiffSBDD_5_num_sample_50
     RDKit          3D

 34 36  0  0  0  0  0  0  0  0999 V2000
   38.4600   30.7190   56.7530 C   0  0  0  0  0  0  0  0  0  0  0  0
   38.9310   28.3200   55.9360 C   0  0  2  0  0  0  0  0  0  0  0  0
   36.6680   35.4640   59.2520 N   0  0  0  0  0  0  0  0  0  0  0  0
   39.3140   31.6360   48.8710 F   0  0  0  0  0  0  0  0  0  0  0  0
   38.9720   31.4600   60.3580 C   0  0  0  0  0  0  0  0  0  0  0  0
   38.4000   30.4520   58.0840 N   0  0  0  0  0  0  0  0  0  0  0  0
   38.7510   33.9130   60.9280 C   0  0  1  0  0  0  0  0  0  0  0  0
   39.9970   29.9170   49.9620 C   0  0  2  0  0  0  0  0  0  0  0  0
   38.5660   26.2290   54.8220 C   0  0  0  0  0  0  0  0  0  0  0  0
   38.5790   31.6550   58.8790 C   0  0  2  0  0  0  0  0  0  0  0  0
   38.2750   32.0060   56.4960 N   0  0  0  0  0  0  0  0  0  0  0  0
   39.9090   25.4570   54.5790 C   0  0  0  0  0  0  0  0  0  0  0  0
   38.8060   29.2630   53.2850 C   0  0  2  0  0  0  0  0  0  0  0  0
   37.4900   25.3440   54.9920 C   0  0  0  0  0  0  0  0  0  0  0  0
   39.9240   28.2720   51.3690 N   0  0  0  0  0  0  0  0  0  0  0  0
   36.4180   34.1180   59.7350 C   0  0  0  0  0  0  0  0  0  0  0  0
   38.4900   27.6310   57.2200 C   0  0  0  0  0  0  0  0  0  0  0  0
   38.4570   32.6570   57.5390 C   0  0  0  0  0  0  0  0  0  0  0  0
   38.8170   29.7130   55.7410 C   0  0  0  0  0  0  0  0  0  0  0  0
   40.2300   28.5040   50.1770 C   0  0  0  0  0  0  0  0  0  0  0  0
   37.1380   37.5430   59.8240 O   0  0  0  0  0  0  0  0  0  0  0  0
   40.4930   30.6110   48.4880 C   0  0  0  0  0  0  0  0  0  0  0  0
   36.7630   36.1300   61.6310 C   0  0  0  0  0  0  0  0  0  0  0  0
   36.8010   36.3760   60.2160 C   0  0  0  0  0  0  0  0  0  0  0  0
   39.7370   30.7430   51.2370 S   0  0  0  0  0  0  0  0  0  0  0  0
   39.1080   30.2130   54.3290 C   0  0  0  0  0  0  0  0  0  0  0  0
   37.8690   28.1530   53.6490 C   0  0  0  0  0  0  0  0  0  0  0  0
   40.8050   35.3410   61.1820 C   0  0  0  0  0  0  0  0  0  0  0  0
   39.5240   35.1460   60.4930 O   0  0  0  0  0  0  0  0  0  0  0  0
   36.8490   32.7750   61.6330 O   0  0  0  0  0  0  0  0  0  0  0  0
   38.5510   27.5760   54.7590 N   0  0  1  0  0  0  0  0  0  0  0  0
   37.3330   33.4010   60.5850 C   0  0  2  0  0  0  0  0  0  0  0  0
   39.4690   29.2720   52.0730 N   0  0  0  0  0  0  0  0  0  0  0  0
   39.7290   32.7340   60.8670 C   0  0  0  0  0  0  0  0  0  0  0  0
  1  6  2  0
  2 17  1  1
  3 16  1  0
  3 24  1  0
  5 34  1  0
  6 10  1  0
  7 34  1  6
  8 22  1  1
  8 20  1  0
  8 25  1  0
  9 14  1  0
 10  5  1  6
 11  1  1  0
 11 18  1  0
 12  9  1  0
 13 27  1  0
 13 26  1  0
 15 33  1  0
 16 32  1  0
 18 10  1  0
 19  2  1  0
 19  1  1  0
 20 15  1  0
 21 24  2  0
 22  4  1  0
 24 23  1  0
 26 19  1  0
 27 31  1  0
 29  7  1  0
 29 28  1  0
 31  9  1  1
 31  2  1  0
 32  7  1  0
 32 30  1  1
 33 25  1  0
 13 33  1  1
M  CHG  2   6   1  31   1
M  END
$$$$
DiffSBDD_6_num_sample_50
     RDKit          3D

 35 38  0  0  0  0  0  0  0  0999 V2000
   38.9200   34.7390   60.5000 N   0  0  0  0  0  0  0  0  0  0  0  0
   39.1720   31.8530   61.2340 N   0  0  0  0  0  0  0  0  0  0  0  0
   39.6060   30.5650   61.4270 C   0  0  0  0  0  0  0  0  0  0  0  0
   37.5400   38.1850   61.3220 C   0  0  0  0  0  0  0  0  0  0  0  0
   38.1890   27.7080   51.9200 C   0  0  0  0  0  0  0  0  0  0  0  0
   38.5150   30.4370   58.2060 N   0  0  0  0  0  0  0  0  0  0  0  0
   39.4400   29.7300   60.2830 N   0  0  0  0  0  0  0  0  0  0  0  0
   37.8370   31.0160   56.0970 N   0  0  0  0  0  0  0  0  0  0  0  0
   36.7740   34.8240   59.6510 C   0  0  0  0  0  0  0  0  0  0  0  0
   39.9640   28.7760   50.1600 C   0  0  0  0  0  0  0  0  0  0  0  0
   38.3980   32.9970   59.0900 N   0  0  0  0  0  0  0  0  0  0  0  0
   38.5340   29.4360   53.4040 O   0  0  0  0  0  0  0  0  0  0  0  0
   40.1210   28.6360   57.4680 C   0  0  0  0  0  0  0  0  0  0  0  0
   39.3220   25.6800   57.9430 C   0  0  0  0  0  0  0  0  0  0  0  0
   40.7310   29.2600   49.2130 F   0  0  0  0  0  0  0  0  0  0  0  0
   38.9110   30.6210   59.4080 C   0  0  0  0  0  0  0  0  0  0  0  0
   38.8600   28.8640   52.2610 C   0  0  0  0  0  0  0  0  0  0  0  0
   39.9810   36.6210   61.7110 C   0  0  0  0  0  0  0  0  0  0  0  0
   40.2180   26.2330   56.8210 C   0  0  0  0  0  0  0  0  0  0  0  0
   37.2070   27.3540   52.7430 F   0  0  0  0  0  0  0  0  0  0  0  0
   38.3790   26.9960   50.7480 C   0  0  0  0  0  0  0  0  0  0  0  0
   37.9000   32.8080   57.6870 C   0  0  0  0  0  0  0  0  0  0  0  0
   38.7410   36.0270   60.9610 C   0  0  0  0  0  0  0  0  0  0  0  0
   39.3340   27.4980   49.9220 C   0  0  0  0  0  0  0  0  0  0  0  0
   36.6140   36.1190   60.1030 C   0  0  0  0  0  0  0  0  0  0  0  0
   40.2170   27.5900   56.4210 C   0  0  0  0  0  0  0  0  0  0  0  0
   38.3120   31.4000   57.1500 C   0  0  1  0  0  0  0  0  0  0  0  0
   37.6320   36.7340   60.7460 C   0  0  0  0  0  0  0  0  0  0  0  0
   38.7250   29.0760   57.6800 O   0  0  0  0  0  0  0  0  0  0  0  0
   40.3740   30.6360   51.5950 F   0  0  0  0  0  0  0  0  0  0  0  0
   38.2090   31.5160   54.6920 C   0  0  0  0  0  0  0  0  0  0  0  0
   39.7690   29.4240   51.3570 C   0  0  0  0  0  0  0  0  0  0  0  0
   38.8000   31.8960   59.8780 C   0  0  0  0  0  0  0  0  0  0  0  0
   39.1530   30.5450   53.9990 C   0  0  0  0  0  0  0  0  0  0  0  0
   37.9270   34.1160   59.8270 C   0  0  0  0  0  0  0  0  0  0  0  0
  1 23  2  0
  2  3  1  0
  5 17  2  0
  5 20  1  0
  6 16  1  0
  7  3  1  0
  9 35  2  0
  9 25  1  0
 10 32  2  0
 11 35  1  0
 11 33  1  0
 12 34  1  0
 13 29  1  0
 15 10  1  0
 16 33  1  0
 16  7  2  0
 17 12  1  0
 19 14  1  0
 21  5  1  0
 22 11  1  0
 23 18  1  0
 24 10  1  0
 24 21  2  0
 25 28  2  0
 26 19  1  0
 26 13  1  0
 27  8  1  6
 27 22  1  0
 27  6  1  0
 28 23  1  0
 28  4  1  0
 29  6  1  0
 31  8  1  0
 32 30  1  0
 32 17  1  0
 33  2  2  0
 34 31  1  0
 35  1  1  0
M  CHG  2   2   1   7   1
M  END
$$$$
DiffSBDD_7_num_sample_50
     RDKit          3D

 47 50  0  0  0  0  0  0  0  0999 V2000
   39.3700   36.1850   61.9510 C   0  0  1  0  0  0  0  0  0  0  0  0
   39.9690   26.5650   56.9320 O   0  0  0  0  0  0  0  0  0  0  0  0
   37.4870   33.2900   60.8430 C   0  0  1  0  0  0  0  0  0  0  0  0
   37.1360   29.4840   58.3490 C   0  0  0  0  0  0  0  0  0  0  0  0
   38.2990   37.1440   63.7630 O   0  0  0  0  0  0  0  0  0  0  0  0
   39.0920   31.9200   55.1600 N   0  0  0  0  0  0  0  0  0  0  0  0
   39.0730   27.7470   53.0120 S   0  0  0  0  0  0  0  0  0  0  0  0
   40.0870   28.1680   49.4010 N   0  0  0  0  0  0  0  0  0  0  0  0
   38.1610   28.8160   59.2430 N   0  0  1  0  0  0  0  0  0  0  0  0
   38.8480   26.4710   50.5300 S   0  0  0  0  0  0  0  0  0  0  0  0
   38.0810   32.6750   54.6600 C   0  0  0  0  0  0  0  0  0  0  0  0
   34.4640   33.6380   59.6660 C   0  0  0  0  0  0  0  0  0  0  0  0
   39.1310   25.5410   57.5730 C   0  0  0  0  0  0  0  0  0  0  0  0
   39.7670   28.1300   57.1620 C   0  0  1  0  0  0  0  0  0  0  0  0
   39.2750   27.9780   51.4440 C   0  0  2  0  0  0  0  0  0  0  0  0
   37.2230   33.3110   54.2810 N   0  0  0  0  0  0  0  0  0  0  0  0
   39.0220   30.3270   56.9150 O   0  0  0  0  0  0  0  0  0  0  0  0
   38.0850   32.0150   61.2240 C   0  0  0  0  0  0  0  0  0  0  0  0
   41.3520   30.8910   49.3040 O   0  0  0  0  0  0  0  0  0  0  0  0
   36.9610   35.6650   59.5910 C   0  0  0  0  0  0  0  0  0  0  0  0
   39.4030   28.4670   55.6480 C   0  0  2  0  0  0  0  0  0  0  0  0
   40.0280   31.0400   49.4350 C   0  0  1  0  0  0  0  0  0  0  0  0
   37.1840   37.2260   61.6270 O   0  0  0  0  0  0  0  0  0  0  0  0
   40.0700   28.8770   50.5090 C   0  0  2  0  0  0  0  0  0  0  0  0
   39.6530   26.2860   48.2600 O   0  0  0  0  0  0  0  0  0  0  0  0
   38.7790   29.6120   55.6440 C   0  0  2  0  0  0  0  0  0  0  0  0
   39.2570   34.7780   61.7560 C   0  0  0  0  0  0  0  0  0  0  0  0
   38.1540   36.7890   62.4690 C   0  0  0  0  0  0  0  0  0  0  0  0
   40.2720   32.5340   61.9590 C   0  0  0  0  0  0  0  0  0  0  0  0
   39.3180   31.6300   61.4800 C   0  0  1  0  0  0  0  0  0  0  0  0
   39.5290   29.9690   61.2190 C   0  0  0  0  0  0  0  0  0  0  0  0
   39.3240   28.0590   58.3940 C   0  0  0  0  0  0  0  0  0  0  0  0
   40.3480   33.8620   61.8860 C   0  0  0  0  0  0  0  0  0  0  0  0
   39.4190   30.0600   50.2460 C   0  0  0  0  0  0  0  0  0  0  0  0
   40.5750   37.2140   62.2810 C   0  0  0  0  0  0  0  0  0  0  0  0
   36.8750   34.1190   59.2320 C   0  0  2  0  0  0  0  0  0  0  0  0
   37.7580   30.7190   57.5960 C   0  0  0  0  0  0  0  0  0  0  0  0
   39.1560   30.7350   54.6770 C   0  0  0  0  0  0  0  0  0  0  0  0
   38.2200   29.3950   60.5260 C   0  0  0  0  0  0  0  0  0  0  0  0
   37.5920   28.1300   53.2990 O   0  0  0  0  0  0  0  0  0  0  0  0
   39.1220   27.1960   54.7320 C   0  0  0  0  0  0  0  0  0  0  0  0
   39.1710   32.2960   48.9310 C   0  0  0  0  0  0  0  0  0  0  0  0
   35.7480   33.3650   60.3490 C   0  0  0  0  0  0  0  0  0  0  0  0
   39.5590   26.9440   49.1540 C   0  0  0  0  0  0  0  0  0  0  0  0
   38.5150   26.2350   54.9220 O   0  0  0  0  0  0  0  0  0  0  0  0
   39.4280   30.6500   53.5030 O   0  0  0  0  0  0  0  0  0  0  0  0
   37.9900   34.4310   61.4880 O   0  0  0  0  0  0  0  0  0  0  0  0
  1 35  1  1
  1 28  1  0
  2 13  1  0
  3 18  1  6
  3 47  1  0
  4  9  1  0
  7 40  2  0
  7 41  1  0
  8 24  1  0
  9 39  1  1
 10 15  1  0
 11  6  1  0
 14  2  1  6
 14 32  1  0
 15  7  1  1
 16 11  3  0
 17 37  1  0
 18 30  1  0
 19 22  1  0
 21 41  1  1
 21 14  1  0
 22 42  1  1
 22 34  1  0
 23 28  2  0
 24 34  1  6
 24 15  1  0
 25 44  2  0
 26 38  1  6
 26 21  1  0
 26 17  1  0
 27 33  2  0
 27  1  1  0
 28  5  1  0
 30 31  1  1
 30 29  1  0
 32  9  1  0
 33 29  1  0
 36 20  1  1
 36 43  1  0
 36  3  1  0
 37  4  1  0
 38  6  1  0
 39 31  1  0
 41 45  2  0
 43 12  1  0
 43  3  1  0
 44  8  1  0
 44 10  1  0
 46 38  2  0
 47 27  1  0
M  CHG  3   5  -1   6  -1   9   1
M  END
$$$$
DiffSBDD_8_num_sample_50
     RDKit          3D

 37 41  0  0  0  0  0  0  0  0999 V2000
   38.8030   32.4210   59.5530 C   0  0  0  0  0  0  0  0  0  0  0  0
   38.9440   30.9480   54.8740 N   0  0  0  0  0  0  0  0  0  0  0  0
   40.0020   30.4770   51.3600 C   0  0  0  0  0  0  0  0  0  0  0  0
   40.2340   30.6480   48.8790 C   0  0  0  0  0  0  0  0  0  0  0  0
   36.9630   29.9660   54.9140 C   0  0  0  0  0  0  0  0  0  0  0  0
   39.2030   25.2670   56.2960 C   0  0  0  0  0  0  0  0  0  0  0  0
   39.9290   29.8440   50.2040 C   0  0  0  0  0  0  0  0  0  0  0  0
   37.9930   25.3430   55.6330 C   0  0  0  0  0  0  0  0  0  0  0  0
   38.9750   32.5600   56.9960 C   0  0  0  0  0  0  0  0  0  0  0  0
   37.6220   26.6300   55.2010 C   0  0  0  0  0  0  0  0  0  0  0  0
   38.1800   32.5090   58.1820 N   0  0  0  0  0  0  0  0  0  0  0  0
   38.1690   29.9440   54.9820 N   0  0  0  0  0  0  0  0  0  0  0  0
   39.1120   36.2980   61.8290 C   0  0  0  0  0  0  0  0  0  0  0  0
   37.2710   36.0240   59.4220 C   0  0  0  0  0  0  0  0  0  0  0  0
   38.1940   37.1270   61.3120 N   0  0  0  0  0  0  0  0  0  0  0  0
   40.7680   34.7670   62.7860 C   0  0  0  0  0  0  0  0  0  0  0  0
   39.6720   28.4570   50.0720 C   0  0  0  0  0  0  0  0  0  0  0  0
   37.6750   32.8170   54.9560 O   0  0  0  0  0  0  0  0  0  0  0  0
   39.7730   30.5160   53.8610 C   0  0  0  0  0  0  0  0  0  0  0  0
   39.6820   29.7770   52.5640 C   0  0  0  0  0  0  0  0  0  0  0  0
   36.2730   37.8600   60.5040 O   0  0  0  0  0  0  0  0  0  0  0  0
   36.8580   36.7970   60.6780 C   0  0  1  0  0  0  0  0  0  0  0  0
   40.0750   34.1550   61.9680 N   0  0  0  0  0  0  0  0  0  0  0  0
   40.0070   29.9290   47.7510 O   0  0  0  0  0  0  0  0  0  0  0  0
   40.0360   26.3850   56.4250 C   0  0  0  0  0  0  0  0  0  0  0  0
   37.8760   28.9080   54.7230 C   0  0  1  0  0  0  0  0  0  0  0  0
   37.2020   34.5550   59.6780 C   0  0  0  0  0  0  0  0  0  0  0  0
   39.9270   36.7390   62.8600 C   0  0  0  0  0  0  0  0  0  0  0  0
   39.4320   27.7760   51.2150 C   0  0  0  0  0  0  0  0  0  0  0  0
   38.4740   32.1430   55.5730 C   0  0  0  0  0  0  0  0  0  0  0  0
   38.3950   27.7800   55.3960 C   0  0  0  0  0  0  0  0  0  0  0  0
   39.4580   24.0750   56.9480 F   0  0  0  0  0  0  0  0  0  0  0  0
   39.4110   28.4040   52.4950 C   0  0  0  0  0  0  0  0  0  0  0  0
   39.1460   34.8740   61.3350 C   0  0  0  0  0  0  0  0  0  0  0  0
   38.4210   33.7680   60.3810 C   0  0  2  0  0  0  0  0  0  0  0  0
   40.8360   35.9790   63.3290 C   0  0  0  0  0  0  0  0  0  0  0  0
   39.5960   27.6460   55.9540 C   0  0  0  0  0  0  0  0  0  0  0  0
  2 12  1  0
  2 30  1  0
  3 20  2  0
  4  7  1  0
  5 12  1  0
  6 25  2  0
  6 32  1  0
  7  3  1  0
  8  6  1  0
  9 11  1  0
 10 31  1  0
 10  8  2  0
 11  1  1  0
 13 28  1  0
 14 27  1  0
 14 22  1  0
 15 13  1  0
 16 36  1  0
 17  7  2  0
 17 29  1  0
 18 30  2  0
 19  2  1  0
 20 19  1  0
 22 21  1  6
 22 15  1  0
 23 16  2  0
 24  4  1  0
 26  5  1  0
 26 12  1  0
 26 31  1  1
 27 35  1  0
 28 36  2  0
 29 33  2  0
 30  9  1  0
 31 37  2  0
 33 20  1  0
 34 13  2  0
 34 23  1  0
 35  1  1  6
 35 34  1  0
 37 25  1  0
M  END
$$$$
DiffSBDD_9_num_sample_50
     RDKit          3D

 36 37  0  0  0  0  0  0  0  0999 V2000
   38.5010   32.2270   58.8400 C   0  0  0  0  0  0  0  0  0  0  0  0
   37.1270   37.0200   61.0390 C   0  0  0  0  0  0  0  0  0  0  0  0
   39.1450   27.6760   52.0690 C   0  0  0  0  0  0  0  0  0  0  0  0
   39.6910   29.1510   49.0270 O   0  0  0  0  0  0  0  0  0  0  0  0
   38.8570   33.6320   59.4720 C   0  0  0  0  0  0  0  0  0  0  0  0
   37.9460   26.4200   53.7540 C   0  0  0  0  0  0  0  0  0  0  0  0
   39.5830   29.1180   50.1840 C   0  0  0  0  0  0  0  0  0  0  0  0
   38.8470   36.4220   62.7360 C   0  0  0  0  0  0  0  0  0  0  0  0
   39.5980   27.1320   57.0390 C   0  0  0  0  0  0  0  0  0  0  0  0
   40.4090   30.1150   51.0100 C   0  0  0  0  0  0  0  0  0  0  0  0
   37.4740   32.4850   56.5740 O   0  0  0  0  0  0  0  0  0  0  0  0
   38.3220   27.4690   57.8190 C   0  0  0  0  0  0  0  0  0  0  0  0
   36.8110   36.2360   59.6780 C   0  0  1  0  0  0  0  0  0  0  0  0
   38.7480   25.7340   54.8550 C   0  0  1  0  0  0  0  0  0  0  0  0
   40.1910   25.7770   55.0290 C   0  0  0  0  0  0  0  0  0  0  0  0
   41.4890   30.4110   50.3740 F   0  0  0  0  0  0  0  0  0  0  0  0
   37.7210   38.2160   61.4860 C   0  0  2  0  0  0  0  0  0  0  0  0
   37.5160   36.9600   63.1930 C   0  0  0  0  0  0  0  0  0  0  0  0
   39.9890   26.8660   51.9230 O   0  0  0  0  0  0  0  0  0  0  0  0
   37.2720   32.8160   57.9060 C   0  0  0  0  0  0  0  0  0  0  0  0
   38.5950   27.8300   53.5240 C   0  0  1  0  0  0  0  0  0  0  0  0
   38.0980   34.4650   59.4680 N   0  0  0  0  0  0  0  0  0  0  0  0
   39.5300   31.1140   51.2050 F   0  0  0  0  0  0  0  0  0  0  0  0
   39.8890   33.4580   60.0920 O   0  0  0  0  0  0  0  0  0  0  0  0
   37.9790   30.9390   55.9650 P   0  0  1  0  0  0  0  0  0  0  0  0
   37.3470   36.9380   59.3630 C   0  0  0  0  0  0  0  0  0  0  0  0
   38.7510   28.4820   51.0130 N   0  0  0  0  0  0  0  0  0  0  0  0
   37.0040   30.3160   56.4560 O   0  0  0  0  0  0  0  0  0  0  0  0
   38.4410   37.0290   62.1490 C   0  0  0  0  0  0  0  0  0  0  0  0
   38.0970   30.1650   54.7000 O   0  0  0  0  0  0  0  0  0  0  0  0
   39.4060   27.9260   54.7230 O   0  0  0  0  0  0  0  0  0  0  0  0
   39.1820   26.8570   55.5840 C   0  0  1  0  0  0  0  0  0  0  0  0
   37.2520   34.9420   59.6690 C   0  0  0  0  0  0  0  0  0  0  0  0
   37.8860   38.6830   62.0730 O   0  0  0  0  0  0  0  0  0  0  0  0
   39.2360   30.5530   56.3640 O   0  0  0  0  0  0  0  0  0  0  0  0
   37.6180   29.1090   53.7750 C   0  0  0  0  0  0  0  0  0  0  0  0
  1  5  1  0
  2 17  1  0
  3 21  1  0
  4  7  2  0
  5 24  2  0
  7 10  1  0
  7 27  1  0
  9 12  1  0
 10 23  1  0
 11 20  1  0
 13 26  1  6
 13  2  1  0
 14  6  1  6
 14 15  1  0
 14 32  1  0
 15 32  1  0
 16 10  1  0
 17 34  1  1
 17 29  1  0
 19  3  2  0
 20  1  1  0
 21  6  1  0
 21 36  1  6
 21 31  1  0
 22  5  1  0
 22 33  1  0
 25 35  2  0
 25 28  1  1
 25 11  1  0
 27  3  1  0
 29  8  1  0
 29 18  1  0
 30 25  1  0
 31 32  1  0
 32  9  1  1
 33 13  1  0
 36 30  1  0
M  CHG  1  28  -1
M  END
$$$$
DiffSBDD_10_num_sample_50
     RDKit          3D

 34 36  0  0  0  0  0  0  0  0999 V2000
   37.0130   29.9020   54.9430 C   0  0  0  0  0  0  0  0  0  0  0  0
   37.3070   28.3820   55.1190 C   0  0  0  0  0  0  0  0  0  0  0  0
   39.9860   29.2390   49.5010 C   0  0  0  0  0  0  0  0  0  0  0  0
   39.1440   29.0840   53.5030 N   0  0  0  0  0  0  0  0  0  0  0  0
   38.5180   37.0630   60.7220 O   0  0  0  0  0  0  0  0  0  0  0  0
   39.8200   32.5820   56.6930 O   0  0  0  0  0  0  0  0  0  0  0  0
   39.6740   31.6230   61.2540 C   0  0  0  0  0  0  0  0  0  0  0  0
   39.9420   27.9730   50.0810 C   0  0  0  0  0  0  0  0  0  0  0  0
   39.5730   34.3620   61.5940 C   0  0  0  0  0  0  0  0  0  0  0  0
   36.5110   36.0920   61.6320 O   0  0  0  0  0  0  0  0  0  0  0  0
   38.4740   31.2800   59.3890 N   0  0  0  0  0  0  0  0  0  0  0  0
   39.7590   27.9500   51.5170 C   0  0  0  0  0  0  0  0  0  0  0  0
   37.1840   34.0410   58.6830 C   0  0  0  0  0  0  0  0  0  0  0  0
   38.9120   32.3250   60.2920 C   0  0  0  0  0  0  0  0  0  0  0  0
   38.4670   27.9530   54.1280 C   0  0  1  0  0  0  0  0  0  0  0  0
   38.6330   25.8130   55.4140 C   0  0  0  0  0  0  0  0  0  0  0  0
   39.4470   29.1770   52.1570 C   0  0  0  0  0  0  0  0  0  0  0  0
   36.6770   36.7680   59.1790 O   0  0  0  0  0  0  0  0  0  0  0  0
   39.5340   30.2850   54.3510 C   0  0  0  0  0  0  0  0  0  0  0  0
   37.9280   32.0850   55.7080 N   0  0  0  0  0  0  0  0  0  0  0  0
   39.3710   26.9780   54.8220 C   0  0  0  0  0  0  0  0  0  0  0  0
   37.3140   36.2760   60.3730 P   0  0  0  0  0  0  0  0  0  0  0  0
   41.5580   34.0630   63.4110 C   0  0  0  0  0  0  0  0  0  0  0  0
   40.5010   32.1440   62.2070 C   0  0  0  0  0  0  0  0  0  0  0  0
   38.5970   32.6400   56.7290 C   0  0  0  0  0  0  0  0  0  0  0  0
   38.0670   33.4900   57.7510 N   0  0  0  0  0  0  0  0  0  0  0  0
   39.7430   30.4620   50.1010 C   0  0  0  0  0  0  0  0  0  0  0  0
   39.8320   26.7440   52.1010 O   0  0  0  0  0  0  0  0  0  0  0  0
   40.1580   29.2990   48.1560 F   0  0  0  0  0  0  0  0  0  0  0  0
   39.4790   30.4650   51.5240 C   0  0  0  0  0  0  0  0  0  0  0  0
   38.6990   33.8290   60.6430 C   0  0  0  0  0  0  0  0  0  0  0  0
   38.2770   30.7580   55.1740 C   0  0  1  0  0  0  0  0  0  0  0  0
   37.7020   34.5850   59.9900 C   0  0  2  0  0  0  0  0  0  0  0  0
   40.4920   33.5880   62.3470 C   0  0  0  0  0  0  0  0  0  0  0  0
  1  2  1  0
  1 32  1  0
  3  8  2  0
  3 27  1  0
  4 15  1  0
  4 19  1  0
  6 25  2  0
  7 24  2  0
  8 12  1  0
  9 34  2  0
 11 14  1  0
 12 28  1  0
 12 17  2  0
 14 31  2  0
 14  7  1  0
 15 21  1  1
 15  2  1  0
 17  4  1  0
 18 22  2  0
 19 32  1  0
 20 25  1  0
 21 16  1  0
 22  5  1  0
 22 10  1  0
 24 34  1  0
 25 26  1  0
 26 13  1  0
 27 30  2  0
 29  3  1  0
 30 17  1  0
 31  9  1  0
 32 20  1  6
 33 13  1  6
 33 22  1  0
 33 31  1  0
 34 23  1  0
M  CHG  2   5  -1  10  -1
M  END
$$$$
DiffSBDD_11_num_sample_50
     RDKit          3D

 18 20  0  0  0  0  0  0  0  0999 V2000
   38.3980   31.3510   56.0190 C   0  0  0  0  0  0  0  0  0  0  0  0
   37.0470   34.0660   60.5940 C   0  0  1  0  0  0  0  0  0  0  0  0
   36.5400   36.5690   59.9400 C   0  0  2  0  0  0  0  0  0  0  0  0
   36.0660   34.1130   61.6510 O   0  0  0  0  0  0  0  0  0  0  0  0
   37.6040   35.2840   60.3000 C   0  0  1  0  0  0  0  0  0  0  0  0
   38.2930   30.6950   58.7290 C   0  0  1  0  0  0  0  0  0  0  0  0
   37.8390   32.1370   58.9810 C   0  0  0  0  0  0  0  0  0  0  0  0
   38.8270   32.7930   55.8000 C   0  0  0  0  0  0  0  0  0  0  0  0
   37.9070   32.7010   60.1590 C   0  0  1  0  0  0  0  0  0  0  0  0
   39.1360   33.1070   60.7360 N   0  0  0  0  0  0  0  0  0  0  0  0
   37.7990   36.8170   60.5560 O   0  0  0  0  0  0  0  0  0  0  0  0
   39.3740   32.5800   61.9290 O   0  0  0  0  0  0  0  0  0  0  0  0
   39.8880   34.2450   60.4970 O   0  0  0  0  0  0  0  0  0  0  0  0
   37.2690   29.6630   59.1180 C   0  0  0  0  0  0  0  0  0  0  0  0
   36.6830   35.0330   59.3370 C   0  0  1  0  0  0  0  0  0  0  0  0
   35.0780   34.6920   59.2010 C   0  0  0  0  0  0  0  0  0  0  0  0
   36.1100   37.0920   58.9380 O   0  0  0  0  0  0  0  0  0  0  0  0
   38.7290   30.9760   57.3480 N   0  0  0  0  0  0  0  0  0  0  0  0
  1 18  1  0
  2  4  1  1
  3 17  1  6
  3  5  1  0
  3 11  1  0
  5 11  1  6
  5  2  1  0
  6  7  1  0
  6 14  1  6
  8  1  1  0
  9  7  1  6
  9  2  1  0
  9 10  1  0
 10 12  2  0
 13 10  1  0
 15 16  1  1
 15  3  1  0
 15  5  1  0
 15  2  1  0
 18  6  1  0
M  CHG  3  10   1  13  -1  18   1
M  END
$$$$
DiffSBDD_12_num_sample_50
     RDKit          3D

 34 36  0  0  0  0  0  0  0  0999 V2000
   38.1230   37.0810   61.6050 C   0  0  0  0  0  0  0  0  0  0  0  0
   38.7360   28.6070   54.4870 C   0  0  0  0  0  0  0  0  0  0  0  0
   38.3390   31.4170   56.6140 C   0  0  0  0  0  0  0  0  0  0  0  0
   38.3090   32.7140   58.8030 O   0  0  0  0  0  0  0  0  0  0  0  0
   39.0220   29.8250   54.9850 N   0  0  0  0  0  0  0  0  0  0  0  0
   40.7670   29.7270   48.3080 F   0  0  0  0  0  0  0  0  0  0  0  0
   38.0310   32.8840   56.0820 N   0  0  0  0  0  0  0  0  0  0  0  0
   36.8970   35.1420   60.5360 C   0  0  0  0  0  0  0  0  0  0  0  0
   39.6800   26.3300   57.2810 C   0  0  0  0  0  0  0  0  0  0  0  0
   37.1500   36.8070   60.5080 C   0  0  0  0  0  0  0  0  0  0  0  0
   39.1490   36.1400   61.2050 C   0  0  0  0  0  0  0  0  0  0  0  0
   39.1100   33.7830   60.9430 C   0  0  0  0  0  0  0  0  0  0  0  0
   40.3540   29.4910   49.5770 C   0  0  0  0  0  0  0  0  0  0  0  0
   39.8440   30.7840   51.6090 C   0  0  0  0  0  0  0  0  0  0  0  0
   38.4780   27.8340   55.6350 N   0  0  0  0  0  0  0  0  0  0  0  0
   39.3260   30.6330   54.0020 N   0  0  0  0  0  0  0  0  0  0  0  0
   38.5220   31.5610   58.1710 C   0  0  0  0  0  0  0  0  0  0  0  0
   36.1770   34.8740   59.2060 C   0  0  0  0  0  0  0  0  0  0  0  0
   38.8660   28.1330   53.3310 N   0  0  0  0  0  0  0  0  0  0  0  0
   38.3200   31.6310   62.3770 O   0  0  0  0  0  0  0  0  0  0  0  0
   39.6060   28.0790   51.1810 C   0  0  0  0  0  0  0  0  0  0  0  0
   39.1100   30.0600   56.5080 C   0  0  0  0  0  0  0  0  0  0  0  0
   39.8640   24.8270   57.2450 O   0  0  0  0  0  0  0  0  0  0  0  0
   38.8210   32.4520   60.0670 C   0  0  1  0  0  0  0  0  0  0  0  0
   36.1050   34.5280   61.7000 C   0  0  0  0  0  0  0  0  0  0  0  0
   39.3140   28.8570   52.3420 C   0  0  0  0  0  0  0  0  0  0  0  0
   40.0250   28.3030   50.0230 C   0  0  0  0  0  0  0  0  0  0  0  0
   39.4650   30.0080   52.8040 C   0  0  0  0  0  0  0  0  0  0  0  0
   40.2300   30.5830   50.4140 C   0  0  0  0  0  0  0  0  0  0  0  0
   39.2490   30.6380   62.2900 C   0  0  0  0  0  0  0  0  0  0  0  0
   39.1250   26.6160   55.9530 C   0  0  0  0  0  0  0  0  0  0  0  0
   37.9080   31.5960   60.9550 C   0  0  0  0  0  0  0  0  0  0  0  0
   36.7110   37.6270   59.6760 O   0  0  0  0  0  0  0  0  0  0  0  0
   38.3560   35.0250   60.5220 N   0  0  0  0  0  0  0  0  0  0  0  0
  2  5  1  0
  2 15  1  0
  3 17  2  3
  4 24  1  0
  5 22  1  0
  6 13  1  0
  7  3  1  0
  8 25  1  0
 10  8  1  0
 10  1  1  0
 11  1  1  0
 13 27  2  0
 13 29  1  0
 14 28  2  0
 15 31  1  0
 16  5  1  0
 17  4  1  0
 18  8  1  0
 19  2  2  0
 21 26  2  0
 22  3  1  0
 23  9  1  0
 24 12  1  1
 24 32  1  0
 26 28  1  0
 26 19  1  0
 27 21  1  0
 28 16  1  0
 29 14  1  0
 30 20  1  0
 31  9  1  0
 32 20  1  0
 33 10  2  0
 34  8  1  0
 34 12  1  0
 34 11  1  0
M  END
$$$$
DiffSBDD_13_num_sample_50
     RDKit          3D

 35 38  0  0  0  0  0  0  0  0999 V2000
   38.0930   34.1310   57.4500 C   0  0  0  0  0  0  0  0  0  0  0  0
   39.7460   29.8310   50.8420 C   0  0  0  0  0  0  0  0  0  0  0  0
   38.2650   37.9080   61.3460 N   0  0  0  0  0  0  0  0  0  0  0  0
   39.3790   28.8550   53.4930 C   0  0  0  0  0  0  0  0  0  0  0  0
   39.6020   36.4210   62.2190 C   0  0  0  0  0  0  0  0  0  0  0  0
   37.7540   28.2320   55.3910 N   0  0  0  0  0  0  0  0  0  0  0  0
   39.0540   31.3200   48.7990 F   0  0  0  0  0  0  0  0  0  0  0  0
   37.0180   36.2880   59.8140 C   0  0  0  0  0  0  0  0  0  0  0  0
   38.0090   25.8820   54.9100 C   0  0  1  0  0  0  0  0  0  0  0  0
   36.7450   33.1150   60.7160 C   0  0  0  0  0  0  0  0  0  0  0  0
   37.0710   27.0840   54.9090 C   0  0  0  0  0  0  0  0  0  0  0  0
   38.0050   36.6780   60.8280 C   0  0  0  0  0  0  0  0  0  0  0  0
   38.4020   33.3330   58.7440 C   0  0  1  0  0  0  0  0  0  0  0  0
   37.8800   39.2240   60.8930 N   0  0  0  0  0  0  0  0  0  0  0  0
   39.2670   26.0210   55.6770 N   0  0  0  0  0  0  0  0  0  0  0  0
   36.3560   37.0850   59.2030 O   0  0  0  0  0  0  0  0  0  0  0  0
   37.8670   33.3110   56.3760 O   0  0  0  0  0  0  0  0  0  0  0  0
   39.1670   28.4460   54.9190 C   0  0  1  0  0  0  0  0  0  0  0  0
   38.3290   30.8770   57.9360 C   0  0  0  0  0  0  0  0  0  0  0  0
   39.9320   30.5830   49.5970 C   0  0  0  0  0  0  0  0  0  0  0  0
   39.2270   28.0930   52.3400 C   0  0  0  0  0  0  0  0  0  0  0  0
   37.4970   24.6150   55.5810 C   0  0  0  0  0  0  0  0  0  0  0  0
   39.4570   28.4720   50.9880 C   0  0  0  0  0  0  0  0  0  0  0  0
   37.1930   29.3990   56.0110 C   0  0  0  0  0  0  0  0  0  0  0  0
   38.8260   35.7170   61.3780 N   0  0  0  0  0  0  0  0  0  0  0  0
   38.4530   24.3460   56.6750 C   0  0  0  0  0  0  0  0  0  0  0  0
   39.7950   30.2410   53.3090 C   0  0  0  0  0  0  0  0  0  0  0  0
   39.9140   30.6520   51.8910 C   0  0  0  0  0  0  0  0  0  0  0  0
   39.2380   37.7450   62.2220 O   0  0  0  0  0  0  0  0  0  0  0  0
   37.7140   29.7390   57.4250 C   0  0  0  0  0  0  0  0  0  0  0  0
   37.6270   33.9830   59.9410 C   0  0  1  0  0  0  0  0  0  0  0  0
   36.8900   35.0240   59.4100 O   0  0  0  0  0  0  0  0  0  0  0  0
   39.9380   27.2930   55.7160 C   0  0  0  0  0  0  0  0  0  0  0  0
   38.6430   32.0780   58.2590 C   0  0  0  0  0  0  0  0  0  0  0  0
   39.7130   24.8310   56.1790 O   0  0  0  0  0  0  0  0  0  0  0  0
  2 23  2  0
  2 28  1  0
  3 29  1  0
  5 29  1  0
  6 24  1  0
  7 20  1  0
  8 12  1  0
  9 11  1  1
  9 22  1  0
  9 15  1  0
 11  6  1  0
 12  3  1  0
 12 25  2  0
 13  1  1  6
 13 31  1  0
 14  3  1  0
 15 33  1  0
 15 35  1  0
 16  8  2  0
 17  1  1  0
 18  4  1  6
 18  6  1  0
 18 33  1  0
 19 34  2  0
 20  2  1  0
 21  4  2  0
 22 26  1  0
 23 21  1  0
 24 30  1  0
 25  5  1  0
 27  4  1  0
 28 27  2  0
 30 19  2  0
 31 10  1  6
 32  8  1  0
 32 31  1  0
 34 13  1  0
 35 26  1  0
M  END
$$$$
DiffSBDD_14_num_sample_50
     RDKit          3D

 46 50  0  0  0  0  0  0  0  0999 V2000
   39.3840   27.3370   56.9510 C   0  0  1  0  0  0  0  0  0  0  0  0
   39.7000   30.1200   54.9900 O   0  0  0  0  0  0  0  0  0  0  0  0
   39.1870   25.8950   56.5100 C   0  0  1  0  0  0  0  0  0  0  0  0
   38.9000   29.0770   55.0500 C   0  0  1  0  0  0  0  0  0  0  0  0
   37.9760   37.7800   61.4980 F   0  0  0  0  0  0  0  0  0  0  0  0
   37.8780   28.5860   54.2350 C   0  0  0  0  0  0  0  0  0  0  0  0
   41.1610   28.9800   49.3480 F   0  0  0  0  0  0  0  0  0  0  0  0
   37.9780   32.4880   58.5220 C   0  0  1  0  0  0  0  0  0  0  0  0
   40.3200   25.8190   54.4010 O   0  0  0  0  0  0  0  0  0  0  0  0
   38.8720   28.1130   51.6990 C   0  0  1  0  0  0  0  0  0  0  0  0
   39.1460   28.6040   50.3360 O   0  0  0  0  0  0  0  0  0  0  0  0
   39.3200   30.2270   52.6550 C   0  0  1  0  0  0  0  0  0  0  0  0
   38.9730   35.7810   60.5820 C   0  0  2  0  0  0  0  0  0  0  0  0
   40.2070   30.7250   50.5100 C   0  0  0  0  0  0  0  0  0  0  0  0
   40.3370   27.2670   58.0600 C   0  0  0  0  0  0  0  0  0  0  0  0
   37.6720   32.3790   62.1560 O   0  0  0  0  0  0  0  0  0  0  0  0
   39.7240   31.1390   51.5810 C   0  0  0  0  0  0  0  0  0  0  0  0
   39.0800   30.8680   54.0680 C   0  0  1  0  0  0  0  0  0  0  0  0
   39.9500   27.2360   51.8480 F   0  0  0  0  0  0  0  0  0  0  0  0
   37.7390   36.6020   60.9480 C   0  0  0  0  0  0  0  0  0  0  0  0
   38.2010   33.2840   59.8470 C   0  0  2  0  0  0  0  0  0  0  0  0
   35.9420   32.2960   60.4590 O   0  0  0  0  0  0  0  0  0  0  0  0
   38.2040   31.8300   54.9650 C   0  0  0  0  0  0  0  0  0  0  0  0
   38.4270   32.8100   57.2050 C   0  0  0  0  0  0  0  0  0  0  0  0
   38.7200   31.7910   56.3820 C   0  0  2  0  0  0  0  0  0  0  0  0
   37.3490   33.0490   61.0960 S   0  0  1  0  0  0  0  0  0  0  0  0
   40.0530   36.4530   60.9140 F   0  0  0  0  0  0  0  0  0  0  0  0
   39.5310   31.0270   57.0280 O   0  0  0  0  0  0  0  0  0  0  0  0
   40.6870   27.4900   56.5100 O   0  0  0  0  0  0  0  0  0  0  0  0
   37.9950   31.2320   59.0190 F   0  0  0  0  0  0  0  0  0  0  0  0
   38.2550   28.1800   57.2970 C   0  0  0  0  0  0  0  0  0  0  0  0
   37.8820   25.6010   54.5480 C   0  0  0  0  0  0  0  0  0  0  0  0
   38.3950   24.6610   56.8030 C   0  0  0  0  0  0  0  0  0  0  0  0
   38.8430   29.2070   52.3750 O   0  0  0  0  0  0  0  0  0  0  0  0
   40.1600   29.4450   50.0550 C   0  0  0  0  0  0  0  0  0  0  0  0
   36.7060   34.4670   61.5170 O   0  0  0  0  0  0  0  0  0  0  0  0
   34.5770   32.3860   60.7560 C   0  0  0  0  0  0  0  0  0  0  0  0
   37.0500   36.8830   59.7990 F   0  0  0  0  0  0  0  0  0  0  0  0
   37.5210   24.6800   55.6340 C   0  0  0  0  0  0  0  0  0  0  0  0
   41.2980   27.3080   57.4050 O   0  0  0  0  0  0  0  0  0  0  0  0
   37.9470   35.5310   63.0190 F   0  0  0  0  0  0  0  0  0  0  0  0
   39.0880   26.3000   55.0340 C   0  0  1  0  0  0  0  0  0  0  0  0
   38.8630   34.6740   59.9360 C   0  0  0  0  0  0  0  0  0  0  0  0
   36.0960   36.4540   62.5230 F   0  0  0  0  0  0  0  0  0  0  0  0
   37.0610   35.7620   62.0030 C   0  0  0  0  0  0  0  0  0  0  0  0
   38.9610   27.8300   54.7480 C   0  0  2  0  0  0  0  0  0  0  0  0
  1 31  1  1
  1 15  1  0
  3 33  1  1
  3  1  1  0
  4  2  1  6
  6  4  1  0
  8 30  1  1
 10 19  1  1
 10 34  1  0
 11 10  1  0
 12 18  1  0
 13 27  1  6
 13 20  1  0
 14 17  1  0
 12 17  1  6
 18 23  1  1
 18  2  1  0
 20  5  1  0
 20 45  1  0
 21  8  1  0
 21 43  1  6
 21 26  1  0
 22 37  1  0
 22 26  1  0
 23 25  1  0
 24  8  1  0
 25 28  1  6
 25 24  1  0
 26 36  1  0
 26 16  1  1
 29  1  1  0
 29 40  1  0
 32 42  1  0
 32 39  1  0
 34 12  1  0
 35  7  1  0
 35 11  1  0
 35 14  1  0
 36 45  1  0
 38 20  1  0
 39 33  1  0
 40 15  1  0
 42  9  1  6
 42  3  1  0
 43 13  1  0
 45 44  1  0
 45 41  1  0
 46  6  1  1
 46 42  1  0
 46  4  1  0
M  END
$$$$
DiffSBDD_15_num_sample_50
     RDKit          3D

 23 24  0  0  0  0  0  0  0  0999 V2000
   38.1350   29.0900   55.4110 S   0  0  0  0  0  0  0  0  0  0  0  0
   39.9680   27.7020   50.6150 C   0  0  0  0  0  0  0  0  0  0  0  0
   40.0680   29.8140   49.3460 C   0  0  0  0  0  0  0  0  0  0  0  0
   40.1490   28.4140   49.4470 C   0  0  0  0  0  0  0  0  0  0  0  0
   39.4630   29.7720   58.4350 C   0  0  0  0  0  0  0  0  0  0  0  0
   38.7440   32.7760   56.7800 C   0  0  0  0  0  0  0  0  0  0  0  0
   39.7190   29.9050   51.7960 C   0  0  0  0  0  0  0  0  0  0  0  0
   40.1750   28.8630   57.6300 C   0  0  0  0  0  0  0  0  0  0  0  0
   37.6400   33.6500   57.0020 O   0  0  0  0  0  0  0  0  0  0  0  0
   38.8410   29.2750   53.7660 C   0  0  1  0  0  0  0  0  0  0  0  0
   38.8400   26.5500   53.5630 C   0  0  0  0  0  0  0  0  0  0  0  0
   38.6840   30.4820   56.0380 N   0  0  0  0  0  0  0  0  0  0  0  0
   38.4670   31.8380   55.5910 C   0  0  0  0  0  0  0  0  0  0  0  0
   41.5930   27.8500   59.2740 O   0  0  0  0  0  0  0  0  0  0  0  0
   39.4970   30.3710   53.1220 N   0  0  0  0  0  0  0  0  0  0  0  0
   39.6060   28.4530   51.8260 C   0  0  0  0  0  0  0  0  0  0  0  0
   39.8900   26.1230   58.2360 C   0  0  0  0  0  0  0  0  0  0  0  0
   39.1510   28.0190   53.0480 C   0  0  1  0  0  0  0  0  0  0  0  0
   39.9790   30.6380   50.5150 C   0  0  0  0  0  0  0  0  0  0  0  0
   40.0590   30.3510   48.0810 F   0  0  0  0  0  0  0  0  0  0  0  0
   38.3560   30.4090   57.4650 C   0  0  0  0  0  0  0  0  0  0  0  0
   41.8230   27.1240   57.0350 O   0  0  0  0  0  0  0  0  0  0  0  0
   40.8850   27.4320   57.9650 S   0  0  0  0  0  0  0  0  0  0  0  0
  1 12  1  0
  2 16  2  0
  3  4  2  0
  3 19  1  0
  4  2  1  0
  6  9  1  0
  7 16  1  0
  7 15  1  0
  8 23  1  0
  8  5  1  0
 10  1  1  1
 12 21  1  0
 13 12  1  0
 13  6  1  0
 15 10  1  0
 16 18  1  0
 18 11  1  6
 18 10  1  0
 19  7  2  0
 20  3  1  0
 21  5  1  0
 22 23  2  0
 23 17  1  0
 23 14  2  0
M  END
$$$$
DiffSBDD_16_num_sample_50
     RDKit          3D

 15 15  0  0  0  0  0  0  0  0999 V2000
   38.7260   32.8740   59.8170 C   0  0  0  0  0  0  0  0  0  0  0  0
   37.9890   34.9050   61.2100 C   0  0  0  0  0  0  0  0  0  0  0  0
   36.5460   37.5580   60.6080 C   0  0  0  0  0  0  0  0  0  0  0  0
   38.8490   31.7070   56.2040 C   0  0  0  0  0  0  0  0  0  0  0  0
   38.4210   32.5990   57.3310 C   0  0  0  0  0  0  0  0  0  0  0  0
   38.9200   34.1750   60.3210 C   0  0  0  0  0  0  0  0  0  0  0  0
   37.9090   32.2740   58.6990 C   0  0  1  0  0  0  0  0  0  0  0  0
   37.1340   37.1700   59.3680 O   0  0  0  0  0  0  0  0  0  0  0  0
   38.3130   30.2730   57.6430 N   0  0  1  0  0  0  0  0  0  0  0  0
   38.4660   36.3580   61.4570 C   0  0  0  0  0  0  0  0  0  0  0  0
   37.4830   37.4240   61.7450 C   0  0  0  0  0  0  0  0  0  0  0  0
   37.9370   30.6750   58.8590 C   0  0  2  0  0  0  0  0  0  0  0  0
   39.0770   30.3490   56.8590 C   0  0  0  0  0  0  0  0  0  0  0  0
   36.7120   29.8180   59.0640 C   0  0  0  0  0  0  0  0  0  0  0  0
   38.5830   28.9120   57.1600 C   0  0  0  0  0  0  0  0  0  0  0  0
  1  6  1  0
  2 10  1  0
  3 11  1  0
  4 13  1  0
  4  5  1  0
  5  7  1  0
  6  2  1  0
  7 12  1  0
  7  1  1  1
  8  3  1  0
  9 12  1  0
 10 11  1  0
 12 14  1  6
 13  9  1  0
  9 15  1  1
M  CHG  1   9   1
M  END
$$$$
DiffSBDD_17_num_sample_50
     RDKit          3D

 32 34  0  0  0  0  0  0  0  0999 V2000
   39.9750   26.1290   55.2560 C   0  0  0  0  0  0  0  0  0  0  0  0
   36.9470   36.3190   59.2330 S   0  0  0  0  0  0  0  0  0  0  0  0
   40.5380   30.0770   49.7500 C   0  0  0  0  0  0  0  0  0  0  0  0
   37.2410   30.9960   55.1310 O   0  0  0  0  0  0  0  0  0  0  0  0
   38.4740   31.2750   55.6780 C   0  0  0  0  0  0  0  0  0  0  0  0
   39.4420   27.7600   50.6850 C   0  0  0  0  0  0  0  0  0  0  0  0
   38.9860   30.0020   56.3890 N   0  0  0  0  0  0  0  0  0  0  0  0
   38.6940   29.0790   58.9980 C   0  0  2  0  0  0  0  0  0  0  0  0
   39.5490   27.9800   59.4460 O   0  0  0  0  0  0  0  0  0  0  0  0
   39.2860   31.8420   59.9380 C   0  0  0  0  0  0  0  0  0  0  0  0
   39.7200   33.1000   60.6930 C   0  0  0  0  0  0  0  0  0  0  0  0
   38.4130   27.1030   55.4920 C   0  0  0  0  0  0  0  0  0  0  0  0
   37.6080   30.3010   58.7370 C   0  0  0  0  0  0  0  0  0  0  0  0
   36.4750   37.2820   62.6060 O   0  0  0  0  0  0  0  0  0  0  0  0
   40.1760   29.9600   51.1940 C   0  0  0  0  0  0  0  0  0  0  0  0
   38.4120   28.8590   55.4630 C   0  0  2  0  0  0  0  0  0  0  0  0
   39.2020   29.0320   53.9250 C   0  0  0  0  0  0  0  0  0  0  0  0
   40.2780   29.0330   48.8720 C   0  0  0  0  0  0  0  0  0  0  0  0
   40.9550   28.2790   58.8130 C   0  0  0  0  0  0  0  0  0  0  0  0
   37.9470   31.8620   59.1180 N   0  0  1  0  0  0  0  0  0  0  0  0
   38.6980   34.4740   60.2720 C   0  0  1  0  0  0  0  0  0  0  0  0
   36.8400   32.6790   59.5430 C   0  0  0  0  0  0  0  0  0  0  0  0
   37.4280   36.1160   60.8400 C   0  0  2  0  0  0  0  0  0  0  0  0
   37.0270   37.6460   61.4160 C   0  0  0  0  0  0  0  0  0  0  0  0
   39.4160   28.1860   53.1740 C   0  0  0  0  0  0  0  0  0  0  0  0
   37.4660   34.3840   59.1910 C   0  0  1  0  0  0  0  0  0  0  0  0
   39.1780   28.9580   57.4230 C   0  0  0  0  0  0  0  0  0  0  0  0
   37.7940   38.5050   60.6640 O   0  0  0  0  0  0  0  0  0  0  0  0
   38.0710   35.1650   61.5420 C   0  0  0  0  0  0  0  0  0  0  0  0
   38.7760   32.9020   56.1770 S   0  0  0  0  0  0  0  0  0  0  0  0
   39.7170   28.6830   51.6720 C   0  0  0  0  0  0  0  0  0  0  0  0
   39.7460   27.8820   49.3640 C   0  0  0  0  0  0  0  0  0  0  0  0
  1 12  1  0
  2 23  1  0
  3 15  2  0
  4  5  2  0
  5 30  1  0
  5  7  1  0
  6 31  2  0
  7 27  1  0
  8 27  1  6
  8  9  1  0
 10 11  1  0
 13  8  1  0
 20 13  1  1
 15 31  1  0
 16 17  1  6
 16 12  1  0
 16  7  1  0
 18 32  2  0
 18  3  1  0
 19  9  1  0
 20 22  1  0
 20 10  1  0
 21 11  1  1
 21 29  1  0
 23 24  1  6
 23 29  1  0
 24 14  2  0
 25 17  1  0
 26  2  1  0
 26 22  1  1
 26 21  1  0
 28 24  1  0
 31 25  1  0
 32  6  1  0
M  CHG  3  20   1  28  -1  30  -1
M  END
$$$$
DiffSBDD_18_num_sample_50
     RDKit          3D

 34 36  0  0  0  0  0  0  0  0999 V2000
   36.1820   35.4440   60.2450 C   0  0  0  0  0  0  0  0  0  0  0  0
   36.5960   34.0420   60.2780 C   0  0  1  0  0  0  0  0  0  0  0  0
   37.3670   36.8840   64.0740 C   0  0  0  0  0  0  0  0  0  0  0  0
   40.0170   31.5170   48.9490 F   0  0  0  0  0  0  0  0  0  0  0  0
   39.2300   29.4150   53.1240 C   0  0  0  0  0  0  0  0  0  0  0  0
   38.4780   31.0280   56.7020 C   0  0  2  0  0  0  0  0  0  0  0  0
   38.5240   37.1980   63.1280 C   0  0  0  0  0  0  0  0  0  0  0  0
   39.3630   29.2800   51.7070 C   0  0  0  0  0  0  0  0  0  0  0  0
   38.5920   27.0200   51.7500 F   0  0  0  0  0  0  0  0  0  0  0  0
   37.6760   36.2040   60.5020 C   0  0  0  0  0  0  0  0  0  0  0  0
   39.6510   27.8920   49.6940 C   0  0  0  0  0  0  0  0  0  0  0  0
   39.1190   32.2290   56.5040 C   0  0  0  0  0  0  0  0  0  0  0  0
   39.6170   28.6400   54.1590 C   0  0  2  0  0  0  0  0  0  0  0  0
   39.7790   27.1980   54.5490 N   0  0  0  0  0  0  0  0  0  0  0  0
   37.9990   30.4660   58.0560 C   0  0  0  0  0  0  0  0  0  0  0  0
   38.2180   31.3720   59.2600 C   0  0  0  0  0  0  0  0  0  0  0  0
   38.5110   33.4950   56.0390 O   0  0  0  0  0  0  0  0  0  0  0  0
   39.9070   29.1390   48.9150 C   0  0  0  0  0  0  0  0  0  0  0  0
   39.1490   30.6160   53.3700 O   0  0  0  0  0  0  0  0  0  0  0  0
   39.6640   30.4650   51.0120 C   0  0  0  0  0  0  0  0  0  0  0  0
   36.3590   36.8480   62.6750 S   0  0  0  0  0  0  0  0  0  0  0  0
   39.6060   33.3860   58.5220 C   0  0  0  0  0  0  0  0  0  0  0  0
   38.4730   37.8930   61.6670 C   0  0  0  0  0  0  0  0  0  0  0  0
   39.2370   28.0260   51.0090 C   0  0  0  0  0  0  0  0  0  0  0  0
   35.8980   33.0620   61.2320 C   0  0  0  0  0  0  0  0  0  0  0  0
   37.0300   33.4920   59.1910 N   0  0  0  0  0  0  0  0  0  0  0  0
   37.0790   38.2320   59.7030 F   0  0  0  0  0  0  0  0  0  0  0  0
   39.5140   28.9690   55.8670 C   0  0  2  0  0  0  0  0  0  0  0  0
   39.9120   27.5540   56.1600 C   0  0  0  0  0  0  0  0  0  0  0  0
   34.6690   32.6790   60.4430 C   0  0  0  0  0  0  0  0  0  0  0  0
   38.3930   32.8130   58.8670 C   0  0  2  0  0  0  0  0  0  0  0  0
   37.2180   37.3130   61.1250 C   0  0  1  0  0  0  0  0  0  0  0  0
   39.8500   30.3890   49.6270 C   0  0  0  0  0  0  0  0  0  0  0  0
   38.8750   29.9280   56.0520 N   0  0  0  0  0  0  0  0  0  0  0  0
  1 10  1  0
  2  1  1  6
  2 25  1  0
  4 33  1  0
  5 19  2  0
  6 12  1  1
  6 15  1  0
  7  3  1  0
  8  5  1  0
 10 32  1  0
 11 24  2  0
 13  5  1  6
 13 14  1  0
 13 28  1  0
 14 29  1  0
 15 16  1  0
 17 12  1  0
 18 33  2  0
 18 11  1  0
 20  8  2  0
 21  3  1  0
 23  7  1  0
 24  8  1  0
 24  9  1  0
 26  2  1  0
 28 34  1  6
 28 29  1  0
 30 25  1  0
 31 22  1  1
 31 26  1  0
 31 16  1  0
 32 27  1  6
 32 23  1  0
 32 21  1  0
 33 20  1  0
 34  6  1  0
M  CHG  3  14   1  26   1  34   1
M  END
$$$$
DiffSBDD_19_num_sample_50
     RDKit          3D

 25 28  0  0  0  0  0  0  0  0999 V2000
   38.4010   30.6110   57.7740 N   0  0  0  0  0  0  0  0  0  0  0  0
   38.7570   32.6290   61.7620 C   0  0  0  0  0  0  0  0  0  0  0  0
   39.1320   31.8230   57.3160 C   0  0  0  0  0  0  0  0  0  0  0  0
   36.7050   33.2290   60.1980 C   0  0  0  0  0  0  0  0  0  0  0  0
   37.2770   34.5690   60.2630 N   0  0  0  0  0  0  0  0  0  0  0  0
   39.4760   33.9820   61.4360 C   0  0  0  0  0  0  0  0  0  0  0  0
   37.7130   32.2260   60.7900 C   0  0  1  0  0  0  0  0  0  0  0  0
   37.9180   33.6230   56.3420 F   0  0  0  0  0  0  0  0  0  0  0  0
   37.3490   29.7760   59.5920 O   0  0  0  0  0  0  0  0  0  0  0  0
   35.4520   33.1580   60.3280 O   0  0  0  0  0  0  0  0  0  0  0  0
   37.9470   31.6160   55.1190 N   0  0  0  0  0  0  0  0  0  0  0  0
   37.8710   38.4240   61.5100 N   0  0  0  0  0  0  0  0  0  0  0  0
   38.6390   36.3320   61.2340 C   0  0  0  0  0  0  0  0  0  0  0  0
   38.4020   31.7150   59.7030 O   0  0  0  0  0  0  0  0  0  0  0  0
   39.6210   37.2640   61.8010 C   0  0  0  0  0  0  0  0  0  0  0  0
   37.6990   32.1180   54.0070 O   0  0  0  0  0  0  0  0  0  0  0  0
   37.5220   30.3410   55.4680 C   0  0  0  0  0  0  0  0  0  0  0  0
   38.3720   34.8990   60.9170 C   0  0  0  0  0  0  0  0  0  0  0  0
   36.5870   35.5250   59.3840 C   0  0  0  0  0  0  0  0  0  0  0  0
   38.6860   32.4350   56.0190 C   0  0  2  0  0  0  0  0  0  0  0  0
   37.6320   37.1220   61.0700 C   0  0  0  0  0  0  0  0  0  0  0  0
   36.6500   36.9120   60.0660 C   0  0  0  0  0  0  0  0  0  0  0  0
   37.5010   29.9600   56.8690 C   0  0  0  0  0  0  0  0  0  0  0  0
   37.9260   30.6690   59.0670 C   0  0  0  0  0  0  0  0  0  0  0  0
   39.1430   38.4110   61.9480 C   0  0  0  0  0  0  0  0  0  0  0  0
  1 24  1  0
  3  1  1  0
  4  5  1  0
  4 10  2  0
  4  7  1  0
  5 18  1  0
  6  2  1  0
  7 14  1  6
  7  2  1  0
 11 16  1  0
 11 17  1  0
 11 20  1  0
 12 25  1  0
 13 15  2  0
 15 25  1  0
 17 23  1  0
 18 13  1  0
 18  6  1  0
 19 22  1  0
 19  5  1  0
 20  8  1  1
 20  3  1  0
 21 13  1  0
 21 12  2  0
 22 21  1  0
 23  1  1  0
 24  9  2  0
 24 14  1  0
M  CHG  1  12   1
M  END
$$$$
DiffSBDD_20_num_sample_50
     RDKit          3D

 36 40  0  0  0  0  0  0  0  0999 V2000
   39.9080   32.9350   61.0190 C   0  0  0  0  0  0  0  0  0  0  0  0
   40.0490   35.0410   62.2920 C   0  0  0  0  0  0  0  0  0  0  0  0
   38.1800   31.6650   58.2980 C   0  0  2  0  0  0  0  0  0  0  0  0
   37.6470   28.5650   52.1230 C   0  0  0  0  0  0  0  0  0  0  0  0
   38.9620   35.5010   61.4290 C   0  0  0  0  0  0  0  0  0  0  0  0
   38.9930   30.4290   54.5000 C   0  0  0  0  0  0  0  0  0  0  0  0
   36.7750   36.6460   59.8680 C   0  0  0  0  0  0  0  0  0  0  0  0
   38.5990   29.0740   54.9590 C   0  0  1  0  0  0  0  0  0  0  0  0
   39.1230   26.4990   55.0410 C   0  0  0  0  0  0  0  0  0  0  0  0
   38.7350   27.7630   54.1390 C   0  0  2  0  0  0  0  0  0  0  0  0
   38.5370   29.0440   56.4360 C   0  0  0  0  0  0  0  0  0  0  0  0
   40.8260   29.4080   48.8550 F   0  0  0  0  0  0  0  0  0  0  0  0
   38.7310   30.2500   57.0090 C   0  0  0  0  0  0  0  0  0  0  0  0
   38.4760   36.8540   61.5930 C   0  0  0  0  0  0  0  0  0  0  0  0
   37.5200   32.3900   54.7050 O   0  0  0  0  0  0  0  0  0  0  0  0
   39.7410   27.8800   52.9320 C   0  0  0  0  0  0  0  0  0  0  0  0
   38.5820   34.0520   57.5600 C   0  0  0  0  0  0  0  0  0  0  0  0
   38.6290   31.7280   55.3300 C   0  0  1  0  0  0  0  0  0  0  0  0
   38.9310   32.9760   58.6180 C   0  0  1  0  0  0  0  0  0  0  0  0
   37.2190   35.3010   59.6900 C   0  0  0  0  0  0  0  0  0  0  0  0
   38.1350   24.1280   57.5580 C   0  0  0  0  0  0  0  0  0  0  0  0
   39.5170   31.0880   49.2970 F   0  0  0  0  0  0  0  0  0  0  0  0
   37.6160   25.2310   56.6660 C   0  0  0  0  0  0  0  0  0  0  0  0
   39.1300   29.0080   50.3430 O   0  0  0  0  0  0  0  0  0  0  0  0
   40.4900   33.6780   62.0820 C   0  0  0  0  0  0  0  0  0  0  0  0
   39.0480   33.4750   60.0880 C   0  0  0  0  0  0  0  0  0  0  0  0
   38.5880   26.3640   56.4060 C   0  0  0  0  0  0  0  0  0  0  0  0
   40.9650   30.3430   51.0150 C   0  0  0  0  0  0  0  0  0  0  0  0
   39.8320   30.3260   52.0190 C   0  0  0  0  0  0  0  0  0  0  0  0
   40.1040   29.9420   49.7970 C   0  0  0  0  0  0  0  0  0  0  0  0
   38.2890   31.5240   56.7820 N   0  0  2  0  0  0  0  0  0  0  0  0
   39.0850   28.9260   51.8130 C   0  0  1  0  0  0  0  0  0  0  0  0
   37.4280   37.4120   60.8920 C   0  0  0  0  0  0  0  0  0  0  0  0
   37.4720   27.5940   53.3230 C   0  0  0  0  0  0  0  0  0  0  0  0
   36.9760   31.5680   59.0200 O   0  0  0  0  0  0  0  0  0  0  0  0
   38.3500   34.7780   60.3780 C   0  0  0  0  0  0  0  0  0  0  0  0
  1 25  2  0
  3 19  1  0
  3 35  1  6
  4 34  1  0
  5 14  1  0
  5  2  2  0
  6 18  1  0
  7 33  1  0
  8  6  1  1
  8 11  1  0
  9 27  1  0
 10  8  1  0
 10  9  1  1
 11 13  1  0
 12 30  1  0
 16 10  1  0
 18 15  1  6
 18 31  1  0
 19 17  1  6
 19 26  1  0
 20  7  2  0
 20 36  1  0
 22 30  1  0
 23 21  1  0
 24 32  1  0
 25  2  1  0
 26 36  2  0
 26  1  1  0
 27 23  1  0
 28 29  1  0
 30 24  1  0
 30 28  1  0
 31 13  1  1
 31  3  1  0
 32 29  1  1
 32  4  1  0
 32 16  1  0
 33 14  2  0
 34 10  1  0
 36  5  1  0
M  CHG  1  31   1
M  END
$$$$
DiffSBDD_21_num_sample_50
     RDKit          3D

 26 27  0  0  0  0  0  0  0  0999 V2000
   37.8690   26.6840   53.7830 C   0  0  0  0  0  0  0  0  0  0  0  0
   39.8130   30.2600   51.5320 C   0  0  0  0  0  0  0  0  0  0  0  0
   39.3550   29.7510   54.0030 C   0  0  0  0  0  0  0  0  0  0  0  0
   39.8710   27.4820   51.1700 C   0  0  0  0  0  0  0  0  0  0  0  0
   39.2660   31.7390   55.4190 C   0  0  0  0  0  0  0  0  0  0  0  0
   38.2910   32.6070   56.0170 N   0  0  0  0  0  0  0  0  0  0  0  0
   37.1540   34.3230   57.7030 O   0  0  0  0  0  0  0  0  0  0  0  0
   38.8830   25.2600   56.2930 C   0  0  0  0  0  0  0  0  0  0  0  0
   39.2280   27.0020   53.6820 C   0  0  0  0  0  0  0  0  0  0  0  0
   38.7140   32.6010   57.4940 C   0  0  0  0  0  0  0  0  0  0  0  0
   38.7420   31.0890   54.2190 C   0  0  0  0  0  0  0  0  0  0  0  0
   39.8360   29.1330   54.9270 O   0  0  0  0  0  0  0  0  0  0  0  0
   37.6600   31.2650   60.8180 O   0  0  0  0  0  0  0  0  0  0  0  0
   37.5940   33.1660   58.1830 C   0  0  0  0  0  0  0  0  0  0  0  0
   36.7000   32.0610   60.3430 C   0  0  0  0  0  0  0  0  0  0  0  0
   39.5860   27.9160   52.4440 C   0  0  0  0  0  0  0  0  0  0  0  0
   40.0590   29.8060   50.2370 C   0  0  0  0  0  0  0  0  0  0  0  0
   39.9290   25.8820   55.9020 C   0  0  0  0  0  0  0  0  0  0  0  0
   40.1160   26.5500   54.6830 C   0  0  0  0  0  0  0  0  0  0  0  0
   37.0530   32.5990   59.2230 N   0  0  0  0  0  0  0  0  0  0  0  0
   37.6730   25.2020   55.7660 C   0  0  0  0  0  0  0  0  0  0  0  0
   40.2100   30.7170   49.1880 C   0  0  0  0  0  0  0  0  0  0  0  0
   37.1930   25.8200   54.6390 C   0  0  0  0  0  0  0  0  0  0  0  0
   35.4080   32.2960   61.2410 S   0  0  0  0  0  0  0  0  0  0  0  0
   40.1040   28.3900   50.0990 C   0  0  0  0  0  0  0  0  0  0  0  0
   39.5680   29.3480   52.6690 C   0  0  0  0  0  0  0  0  0  0  0  0
  1 23  1  0
  2 26  2  0
  3 11  1  0
  3 12  2  0
  4 16  2  0
  5  6  1  0
  6 10  1  0
  7 14  2  0
  9  1  2  0
  9 19  1  0
 10 14  1  0
 11  5  1  0
 14 20  1  0
 15 13  2  0
 15 24  1  0
 16 26  1  0
 16  9  1  0
 17  2  1  0
 18  8  1  0
 19 18  2  0
 20 15  1  0
 21  8  2  0
 22 17  1  0
 23 21  1  0
 25 17  2  0
 25  4  1  0
 26  3  1  0
M  CHG  1  24  -1
M  END
$$$$
DiffSBDD_22_num_sample_50
     RDKit          3D

 34 36  0  0  0  0  0  0  0  0999 V2000
   37.7420   32.6850   60.9080 O   0  0  0  0  0  0  0  0  0  0  0  0
   38.4330   24.7640   57.4890 C   0  0  0  0  0  0  0  0  0  0  0  0
   37.9840   33.5100   58.6260 N   0  0  0  0  0  0  0  0  0  0  0  0
   35.6960   33.2710   59.9160 O   0  0  0  0  0  0  0  0  0  0  0  0
   37.6820   36.6360   62.4410 C   0  0  0  0  0  0  0  0  0  0  0  0
   38.9710   28.3890   55.4960 C   0  0  2  0  0  0  0  0  0  0  0  0
   37.9870   36.1670   59.6000 C   0  0  0  0  0  0  0  0  0  0  0  0
   38.7020   29.8740   58.0910 C   0  0  0  0  0  0  0  0  0  0  0  0
   39.3340   29.7870   51.6550 C   0  0  0  0  0  0  0  0  0  0  0  0
   38.9190   30.4890   56.8890 C   0  0  0  0  0  0  0  0  0  0  0  0
   39.2160   28.4340   51.7950 C   0  0  0  0  0  0  0  0  0  0  0  0
   39.7040   27.5610   50.8180 C   0  0  0  0  0  0  0  0  0  0  0  0
   40.3540   25.6140   54.0340 C   0  0  0  0  0  0  0  0  0  0  0  0
   39.9140   30.2850   50.3830 C   0  0  0  0  0  0  0  0  0  0  0  0
   37.7610   32.2570   58.1890 N   0  0  0  0  0  0  0  0  0  0  0  0
   38.5080   38.7460   61.6500 F   0  0  0  0  0  0  0  0  0  0  0  0
   38.7430   32.9260   55.8340 C   0  0  0  0  0  0  0  0  0  0  0  0
   36.9590   35.3970   61.8590 C   0  0  0  0  0  0  0  0  0  0  0  0
   40.2360   29.4280   49.3040 C   0  0  0  0  0  0  0  0  0  0  0  0
   40.5770   29.9150   47.7530 Cl  0  0  0  0  0  0  0  0  0  0  0  0
   38.7510   29.8430   55.5660 C   0  0  1  0  0  0  0  0  0  0  0  0
   39.2140   26.4020   54.6880 C   0  0  2  0  0  0  0  0  0  0  0  0
   37.1610   33.5490   60.0740 S   0  0  0  0  0  0  0  0  0  0  0  0
   40.1620   28.0390   49.6110 C   0  0  0  0  0  0  0  0  0  0  0  0
   38.4570   27.8790   53.1490 C   0  0  0  0  0  0  0  0  0  0  0  0
   37.5060   35.0950   60.5200 N   0  0  0  0  0  0  0  0  0  0  0  0
   37.4880   37.8150   61.4630 C   0  0  0  0  0  0  0  0  0  0  0  0
   39.0050   24.6230   56.4470 O   0  0  0  0  0  0  0  0  0  0  0  0
   39.0650   27.6640   54.3440 N   0  0  0  0  0  0  0  0  0  0  0  0
   39.7570   30.6210   54.6310 C   0  0  0  0  0  0  0  0  0  0  0  0
   38.8930   27.2230   56.8770 S   0  0  0  0  0  0  0  0  0  0  0  0
   38.9280   25.8930   55.8470 C   0  0  1  0  0  0  0  0  0  0  0  0
   38.4300   31.9720   56.9020 C   0  0  1  0  0  0  0  0  0  0  0  0
   37.3720   37.5050   60.0160 C   0  0  0  0  0  0  0  0  0  0  0  0
  3 23  1  0
  4 23  2  0
  6 21  1  0
  6 31  1  1
  7 34  1  0
  7 26  1  0
  9 11  2  0
 10 33  1  0
 10  8  2  0
 11 25  1  0
 12 11  1  0
 14  9  1  0
 15  3  1  0
 18  5  1  0
 19 24  1  0
 19 14  2  0
 20 19  1  0
 21 30  1  6
 21 10  1  0
 22 13  1  1
 22 32  1  0
 23 26  1  0
 23  1  2  0
 24 12  2  0
 25 29  1  0
 26 18  1  0
 27 16  1  0
 27  5  1  0
 28  2  1  0
 29 22  1  0
 29  6  1  0
 32 28  1  1
 32 31  1  0
 33 17  1  1
 33 15  1  0
 34 27  1  0
M  END
$$$$
DiffSBDD_23_num_sample_50
     RDKit          3D

 35 39  0  0  0  0  0  0  0  0999 V2000
   39.6800   30.4830   49.7480 C   0  0  0  0  0  0  0  0  0  0  0  0
   37.0140   36.9890   60.2200 C   0  0  0  0  0  0  0  0  0  0  0  0
   39.0140   28.6910   54.5560 C   0  0  0  0  0  0  0  0  0  0  0  0
   38.4420   30.4700   57.8520 C   0  0  1  0  0  0  0  0  0  0  0  0
   40.2710   35.0410   61.6070 S   0  0  0  0  0  0  0  0  0  0  0  0
   39.1420   29.6760   53.5280 C   0  0  0  0  0  0  0  0  0  0  0  0
   39.8930   30.5860   51.0970 C   0  0  0  0  0  0  0  0  0  0  0  0
   40.3070   37.3220   62.6260 N   0  0  0  0  0  0  0  0  0  0  0  0
   38.9290   36.0860   61.2390 C   0  0  0  0  0  0  0  0  0  0  0  0
   38.0900   38.3150   61.8930 C   0  0  0  0  0  0  0  0  0  0  0  0
   37.5280   32.3260   59.4930 S   0  0  0  0  0  0  0  0  0  0  0  0
   36.2760   31.5610   59.5150 O   0  0  0  0  0  0  0  0  0  0  0  0
   39.3840   27.0910   52.6510 C   0  0  0  0  0  0  0  0  0  0  0  0
   37.6710   35.7810   60.6430 C   0  0  2  0  0  0  0  0  0  0  0  0
   38.3480   31.8950   58.0840 N   0  0  0  0  0  0  0  0  0  0  0  0
   39.1230   27.3770   53.8860 C   0  0  0  0  0  0  0  0  0  0  0  0
   39.4600   29.4810   52.1260 C   0  0  0  0  0  0  0  0  0  0  0  0
   38.2740   32.3770   55.7220 C   0  0  0  0  0  0  0  0  0  0  0  0
   39.4920   29.5420   48.7900 C   0  0  0  0  0  0  0  0  0  0  0  0
   39.1920   29.6690   47.5130 O   0  0  0  0  0  0  0  0  0  0  0  0
   38.4330   29.1460   58.9300 Cl  0  0  0  0  0  0  0  0  0  0  0  0
   39.6480   27.8980   50.4640 C   0  0  0  0  0  0  0  0  0  0  0  0
   38.3950   28.1120   56.3090 S   0  0  0  0  0  0  0  0  0  0  0  0
   37.4040   33.8500   59.3190 N   0  0  0  0  0  0  0  0  0  0  0  0
   38.4710   31.8450   60.4610 O   0  0  0  0  0  0  0  0  0  0  0  0
   39.7400   28.2740   49.1780 N   0  0  0  0  0  0  0  0  0  0  0  0
   38.4170   32.9310   57.0260 C   0  0  0  0  0  0  0  0  0  0  0  0
   39.0690   37.3120   61.8860 C   0  0  0  0  0  0  0  0  0  0  0  0
   41.1060   36.1820   62.5020 C   0  0  0  0  0  0  0  0  0  0  0  0
   38.3920   31.1030   55.6600 O   0  0  0  0  0  0  0  0  0  0  0  0
   39.4740   28.1720   51.6420 C   0  0  0  0  0  0  0  0  0  0  0  0
   37.1530   34.6280   60.3550 N   0  0  0  0  0  0  0  0  0  0  0  0
   36.2800   36.9610   59.0090 N   0  0  0  0  0  0  0  0  0  0  0  0
   38.0510   29.9790   56.4650 C   0  0  2  0  0  0  0  0  0  0  0  0
   37.0910   38.1010   60.9770 C   0  0  0  0  0  0  0  0  0  0  0  0
  1  7  1  0
  2 33  1  0
  2 14  1  0
  2 35  1  0
  3 23  1  0
  4 15  1  0
  4 21  1  1
  5 29  1  0
  6  3  1  0
  7 17  1  0
  9  5  1  0
  9 28  2  0
 11 12  2  0
 11 25  2  0
 13 16  1  0
 14 32  1  6
 14  9  1  0
 15 11  1  0
 16  3  2  0
 17  6  2  0
 18 27  1  0
 19 26  1  0
 19  1  1  0
 20 19  2  0
 22 31  1  0
 24 11  1  0
 24 32  1  0
 26 22  2  0
 27 15  1  0
 28 10  1  0
 28  8  1  0
 29  8  2  0
 30 18  1  0
 30 34  1  0
 31 17  1  0
 31 13  2  0
 34 23  1  6
 34  4  1  0
 35 10  1  0
M  CHG  2  26   1  33   1
M  END
$$$$
DiffSBDD_24_num_sample_50
     RDKit          3D

 37 40  0  0  0  0  0  0  0  0999 V2000
   39.2830   28.3640   51.1340 C   0  0  0  0  0  0  0  0  0  0  0  0
   40.0960   26.7390   55.3930 C   0  0  0  0  0  0  0  0  0  0  0  0
   38.5710   28.6370   54.4370 C   0  0  1  0  0  0  0  0  0  0  0  0
   37.4220   30.7520   54.8300 C   0  0  0  0  0  0  0  0  0  0  0  0
   39.7540   29.4110   52.0570 C   0  0  0  0  0  0  0  0  0  0  0  0
   38.6030   31.7480   56.8380 C   0  0  0  0  0  0  0  0  0  0  0  0
   38.0520   37.8050   60.7070 S   0  0  0  0  0  0  0  0  0  0  0  0
   38.8620   27.4210   55.3230 C   0  0  1  0  0  0  0  0  0  0  0  0
   38.1220   39.1570   60.5000 O   0  0  0  0  0  0  0  0  0  0  0  0
   38.5270   32.9270   57.9300 C   0  0  0  0  0  0  0  0  0  0  0  0
   38.1790   30.7550   59.0340 C   0  0  2  0  0  0  0  0  0  0  0  0
   38.2290   34.9010   62.1540 O   0  0  0  0  0  0  0  0  0  0  0  0
   39.4640   28.5330   49.8140 C   0  0  0  0  0  0  0  0  0  0  0  0
   37.9150   26.2260   55.1600 C   0  0  0  0  0  0  0  0  0  0  0  0
   36.8530   35.1950   61.3420 P   0  0  0  0  0  0  0  0  0  0  0  0
   39.9930   29.6580   49.2310 C   0  0  0  0  0  0  0  0  0  0  0  0
   37.4910   34.6350   59.4380 C   0  0  0  0  0  0  0  0  0  0  0  0
   37.9990   29.3700   56.8390 C   0  0  0  0  0  0  0  0  0  0  0  0
   35.3970   35.5000   58.8520 C   0  0  0  0  0  0  0  0  0  0  0  0
   40.4110   30.7020   50.1650 C   0  0  0  0  0  0  0  0  0  0  0  0
   37.9390   29.6750   55.3570 C   0  0  0  0  0  0  0  0  0  0  0  0
   38.8870   25.1430   55.2030 C   0  0  0  0  0  0  0  0  0  0  0  0
   37.1240   37.1270   59.4790 O   0  0  0  0  0  0  0  0  0  0  0  0
   38.4010   32.3800   58.9810 C   0  0  2  0  0  0  0  0  0  0  0  0
   40.2680   30.5880   51.5160 C   0  0  0  0  0  0  0  0  0  0  0  0
   37.0430   37.6940   61.9430 C   0  0  0  0  0  0  0  0  0  0  0  0
   36.6870   35.7790   59.6860 C   0  0  1  0  0  0  0  0  0  0  0  0
   37.8300   30.6440   57.4820 N   0  0  2  0  0  0  0  0  0  0  0  0
   36.8750   30.2670   59.8850 C   0  0  0  0  0  0  0  0  0  0  0  0
   39.1590   27.5100   48.8430 O   0  0  0  0  0  0  0  0  0  0  0  0
   36.3220   36.4570   62.1690 C   0  0  0  0  0  0  0  0  0  0  0  0
   39.6440   29.1110   53.5460 N   0  0  0  0  0  0  0  0  0  0  0  0
   40.1200   29.7590   47.9660 F   0  0  0  0  0  0  0  0  0  0  0  0
   39.2040   37.1560   61.1990 O   0  0  0  0  0  0  0  0  0  0  0  0
   39.8700   25.5960   56.0710 O   0  0  0  0  0  0  0  0  0  0  0  0
   38.7570   26.8540   51.7380 Cl  0  0  0  0  0  0  0  0  0  0  0  0
   37.5310   33.2860   59.6380 N   0  0  0  0  0  0  0  0  0  0  0  0
  1 36  1  0
  1  5  2  0
  2 35  1  0
  3 32  1  1
  3 21  1  0
  4 21  2  0
  5 32  1  0
  6 28  1  0
  6 10  1  0
  7 34  1  0
  7 26  1  0
  8  3  1  0
  8  2  1  6
  9  7  1  0
 24 10  1  6
 11 29  1  1
 13  1  1  0
 14 22  1  0
 14  8  1  0
 15 12  1  0
 15 31  1  0
 16 13  2  0
 16 20  1  0
 17 37  2  3
 17 27  1  0
 28 18  1  6
 20 25  2  0
 21 18  1  0
 22 35  1  0
 23 27  1  0
 23  7  1  0
 24 11  1  0
 24 37  1  0
 25  5  1  0
 26 31  2  0
 27 19  1  6
 27 15  1  0
 28 11  1  0
 30 13  1  0
 33 16  1  0
M  CHG  3  28   1  30  -1  37   1
M  END
$$$$
DiffSBDD_25_num_sample_50
     RDKit          3D

 25 26  0  0  0  0  0  0  0  0999 V2000
   38.4680   27.9900   54.7810 C   0  0  2  0  0  0  0  0  0  0  0  0
   38.8060   27.8780   52.2640 C   0  0  0  0  0  0  0  0  0  0  0  0
   38.3010   36.5000   61.5460 C   0  0  0  0  0  0  0  0  0  0  0  0
   38.6650   38.0170   61.3140 C   0  0  0  0  0  0  0  0  0  0  0  0
   38.6970   32.2890   57.6250 C   0  0  1  0  0  0  0  0  0  0  0  0
   38.9380   28.6710   53.4620 C   0  0  0  0  0  0  0  0  0  0  0  0
   37.7190   28.8590   55.7260 C   0  0  0  0  0  0  0  0  0  0  0  0
   39.5520   29.9950   53.2820 C   0  0  0  0  0  0  0  0  0  0  0  0
   37.5300   33.9370   60.9670 C   0  0  0  0  0  0  0  0  0  0  0  0
   39.8750   29.5350   50.9680 C   0  0  0  0  0  0  0  0  0  0  0  0
   38.1070   31.2440   56.4800 C   0  0  1  0  0  0  0  0  0  0  0  0
   37.0260   37.4730   59.6900 C   0  0  0  0  0  0  0  0  0  0  0  0
   37.7310   32.2030   55.3560 N   0  0  0  0  0  0  0  0  0  0  0  0
   38.2460   32.9840   60.0660 C   0  0  0  0  0  0  0  0  0  0  0  0
   39.2830   28.2640   51.0240 C   0  0  0  0  0  0  0  0  0  0  0  0
   38.6220   29.8090   56.3320 C   0  0  0  0  0  0  0  0  0  0  0  0
   37.8160   38.5270   60.2180 N   0  0  0  0  0  0  0  0  0  0  0  0
   37.8590   33.0130   58.5050 N   0  0  0  0  0  0  0  0  0  0  0  0
   36.9960   36.4160   60.8550 C   0  0  1  0  0  0  0  0  0  0  0  0
   40.0130   26.0320   54.7320 C   0  0  0  0  0  0  0  0  0  0  0  0
   36.7660   35.0350   60.1910 C   0  0  0  0  0  0  0  0  0  0  0  0
   39.9890   30.4310   52.0710 C   0  0  0  0  0  0  0  0  0  0  0  0
   39.6600   27.3670   55.3420 C   0  0  0  0  0  0  0  0  0  0  0  0
   40.4250   29.9440   49.3560 Cl  0  0  0  0  0  0  0  0  0  0  0  0
   39.5660   31.4060   58.4410 O   0  0  0  0  0  0  0  0  0  0  0  0
  1 23  1  1
  1  7  1  0
  2  6  2  0
  4  3  1  0
  5 25  1  1
  5 18  1  0
  6  1  1  0
  7 16  1  0
  8  6  1  0
 10 15  2  0
 10 22  1  0
 11 13  1  6
 11  5  1  0
 12 17  1  0
 12 19  1  0
 14  9  1  0
 15  2  1  0
 16 11  1  0
 17  4  1  0
 18 14  2  3
 19 21  1  6
 19  3  1  0
 20 23  1  0
 21  9  1  0
 22  8  2  0
 24 10  1  0
M  CHG  3  13   1  17   1  18   1
M  END
$$$$
DiffSBDD_26_num_sample_50
     RDKit          3D

 44 50  0  0  0  0  0  0  0  0999 V2000
   37.7940   35.8370   59.9140 C   0  0  0  0  0  0  0  0  0  0  0  0
   39.9240   35.7640   61.5720 N   0  0  0  0  0  0  0  0  0  0  0  0
   37.6030   24.3640   55.6000 C   0  0  0  0  0  0  0  0  0  0  0  0
   39.9740   30.7740   51.3510 C   0  0  0  0  0  0  0  0  0  0  0  0
   39.1620   37.1980   63.0150 N   0  0  0  0  0  0  0  0  0  0  0  0
   38.3600   31.4950   55.7630 N   0  0  2  0  0  0  0  0  0  0  0  0
   37.5330   30.6980   59.2300 C   0  0  0  0  0  0  0  0  0  0  0  0
   38.3510   33.0380   59.6140 C   0  0  0  0  0  0  0  0  0  0  0  0
   38.4580   26.1050   54.1400 C   0  0  0  0  0  0  0  0  0  0  0  0
   38.6600   36.1000   61.1080 C   0  0  0  0  0  0  0  0  0  0  0  0
   37.2370   29.5280   55.3800 C   0  0  0  0  0  0  0  0  0  0  0  0
   37.6860   34.5170   57.7970 C   0  0  0  0  0  0  0  0  0  0  0  0
   39.0600   32.0480   49.0270 O   0  0  0  0  0  0  0  0  0  0  0  0
   39.5400   31.1080   55.0260 C   0  0  0  0  0  0  0  0  0  0  0  0
   38.6040   29.1200   55.7980 N   0  0  2  0  0  0  0  0  0  0  0  0
   40.1960   36.4980   62.7030 C   0  0  0  0  0  0  0  0  0  0  0  0
   39.3480   28.4730   51.8110 S   0  0  0  0  0  0  0  0  0  0  0  0
   39.7070   28.7850   50.1390 C   0  0  0  0  0  0  0  0  0  0  0  0
   38.4550   32.1740   57.2060 C   0  0  1  0  0  0  0  0  0  0  0  0
   41.3490   36.4140   63.3850 N   0  0  0  0  0  0  0  0  0  0  0  0
   37.8090   24.8260   54.2790 C   0  0  0  0  0  0  0  0  0  0  0  0
   38.4640   27.5390   57.6640 C   0  0  0  0  0  0  0  0  0  0  0  0
   38.1130   37.0180   62.0790 C   0  0  0  0  0  0  0  0  0  0  0  0
   38.2070   24.4110   58.0500 C   0  0  0  0  0  0  0  0  0  0  0  0
   38.5850   26.4910   56.5710 C   0  0  0  0  0  0  0  0  0  0  0  0
   36.3620   36.3000   59.8670 C   0  0  0  0  0  0  0  0  0  0  0  0
   39.2330   30.7340   53.5790 C   0  0  0  0  0  0  0  0  0  0  0  0
   39.9940   30.9560   48.8910 C   0  0  0  0  0  0  0  0  0  0  0  0
   39.9180   30.1860   50.1360 C   0  0  1  0  0  0  0  0  0  0  0  0
   37.3520   37.1320   59.2220 C   0  0  0  0  0  0  0  0  0  0  0  0
   37.1400   31.0010   55.1490 C   0  0  0  0  0  0  0  0  0  0  0  0
   38.2430   25.1310   56.7640 C   0  0  0  0  0  0  0  0  0  0  0  0
   38.8340   32.7790   60.6920 O   0  0  0  0  0  0  0  0  0  0  0  0
   39.2940   28.2300   54.9670 C   0  0  0  0  0  0  0  0  0  0  0  0
   36.3170   30.8010   60.0650 C   0  0  0  0  0  0  0  0  0  0  0  0
   36.7330   23.2500   55.6850 O   0  0  0  0  0  0  0  0  0  0  0  0
   38.3620   33.6590   56.7820 C   0  0  0  0  0  0  0  0  0  0  0  0
   36.3190   29.9870   58.8460 C   0  0  0  0  0  0  0  0  0  0  0  0
   39.4700   30.0920   52.3710 C   0  0  1  0  0  0  0  0  0  0  0  0
   41.1470   34.9640   61.2540 C   0  0  0  0  0  0  0  0  0  0  0  0
   38.0640   34.4490   59.1920 C   0  0  1  0  0  0  0  0  0  0  0  0
   38.0780   31.9670   58.7250 N   0  0  0  0  0  0  0  0  0  0  0  0
   39.0580   28.8490   57.1880 C   0  0  0  0  0  0  0  0  0  0  0  0
   38.8000   26.9230   55.2270 C   0  0  0  0  0  0  0  0  0  0  0  0
  1 10  1  0
  2 16  1  0
  3 36  1  0
  3 32  2  0
  4 39  1  0
  7 35  1  0
  8 33  2  0
  9 21  2  0
  9 44  1  0
 10  2  1  0
 10 23  2  0
 15 11  1  1
  6 14  1  1
 15 43  1  0
 16  5  2  0
 16 20  1  0
 17 39  1  0
 18 17  1  0
 19  6  1  0
 19 42  1  0
 21  3  1  0
 23  5  1  0
 25 32  1  0
 25 22  1  0
 26  1  1  0
 27 14  1  0
 28 13  1  0
 29 28  1  6
 29 18  1  0
 29  4  1  0
 30 26  1  0
 30  1  1  0
 31 11  1  0
 31  6  1  0
 32 24  1  0
 34 44  1  0
 34 15  1  0
 19 37  1  6
 37 12  1  0
 38  7  1  0
 38 35  1  0
 39 27  1  1
 40  2  1  0
 41 12  1  0
 41  8  1  0
 41  1  1  1
 42  7  1  0
 42  8  1  0
 43 22  1  0
 44 25  2  0
M  CHG  3   5   1   6   1  15   1
M  END
$$$$
DiffSBDD_27_num_sample_50
     RDKit          3D

 34 36  0  0  0  0  0  0  0  0999 V2000
   38.8330   29.5740   55.9520 C   0  0  0  0  0  0  0  0  0  0  0  0
   38.7130   28.0110   51.6740 C   0  0  0  0  0  0  0  0  0  0  0  0
   39.5800   26.9280   55.8400 C   0  0  0  0  0  0  0  0  0  0  0  0
   39.3280   28.3850   50.4200 C   0  0  0  0  0  0  0  0  0  0  0  0
   36.9970   25.2520   57.0410 O   0  0  0  0  0  0  0  0  0  0  0  0
   39.5600   29.8890   52.8650 C   0  0  0  0  0  0  0  0  0  0  0  0
   39.8830   30.9640   48.4150 N   0  0  0  0  0  0  0  0  0  0  0  0
   38.0580   31.6260   57.2250 C   0  0  1  0  0  0  0  0  0  0  0  0
   37.1640   36.9830   61.2650 C   0  0  0  0  0  0  0  0  0  0  0  0
   38.8370   33.6560   60.6360 C   0  0  0  0  0  0  0  0  0  0  0  0
   39.9860   30.4810   51.5490 C   0  0  0  0  0  0  0  0  0  0  0  0
   39.9610   35.7150   61.3740 C   0  0  0  0  0  0  0  0  0  0  0  0
   40.0340   29.6240   50.3870 C   0  0  0  0  0  0  0  0  0  0  0  0
   35.3880   33.6790   60.3060 C   0  0  0  0  0  0  0  0  0  0  0  0
   38.8420   27.8910   54.1980 O   0  0  0  0  0  0  0  0  0  0  0  0
   38.0450   31.9260   58.9110 C   0  0  0  0  0  0  0  0  0  0  0  0
   39.7140   30.7120   54.0830 C   0  0  0  0  0  0  0  0  0  0  0  0
   39.5280   30.3510   55.2620 N   0  0  0  0  0  0  0  0  0  0  0  0
   39.4670   37.1090   61.7750 C   0  0  0  0  0  0  0  0  0  0  0  0
   38.7140   34.9060   60.9380 C   0  0  0  0  0  0  0  0  0  0  0  0
   41.6710   29.5210   48.7240 O   0  0  0  0  0  0  0  0  0  0  0  0
   40.6320   30.0300   49.2430 C   0  0  0  0  0  0  0  0  0  0  0  0
   38.9550   28.6790   52.8850 C   0  0  0  0  0  0  0  0  0  0  0  0
   38.3970   32.4300   60.3140 C   0  0  0  0  0  0  0  0  0  0  0  0
   38.1340   37.3990   62.2490 C   0  0  0  0  0  0  0  0  0  0  0  0
   37.8000   33.4910   56.1200 O   0  0  0  0  0  0  0  0  0  0  0  0
   37.5770   26.3350   57.3400 C   0  0  0  0  0  0  0  0  0  0  0  0
   38.8500   32.7880   56.7620 C   0  0  0  0  0  0  0  0  0  0  0  0
   37.9550   28.0280   55.4520 C   0  0  1  0  0  0  0  0  0  0  0  0
   36.3090   37.7430   60.7780 O   0  0  0  0  0  0  0  0  0  0  0  0
   37.3210   35.5080   60.9620 C   0  0  2  0  0  0  0  0  0  0  0  0
   36.3370   34.4300   60.5250 C   0  0  0  0  0  0  0  0  0  0  0  0
   38.3170   30.2890   56.9190 N   0  0  0  0  0  0  0  0  0  0  0  0
   38.5060   27.2360   56.7820 C   0  0  2  0  0  0  0  0  0  0  0  0
  1 33  1  0
  2 23  2  0
  4  2  1  0
  5 27  2  0
  6 23  1  0
  6 17  1  0
  7 22  1  0
  8 28  1  6
  8 16  1  0
  9 25  1  0
 10 20  2  0
 11  6  2  0
 12 19  1  0
 13  4  2  0
 13 11  1  0
 14 32  3  0
 29 15  1  6
 16 24  1  0
 17 18  1  0
 18  1  2  0
 19 25  1  0
 20 31  1  0
 20 12  1  0
 21 22  2  0
 22 13  1  0
 23 15  1  0
 24 10  2  0
 26 28  1  0
 29  1  1  0
 29 34  1  0
 30  9  2  0
 31 32  1  6
 31  9  1  0
 33  8  1  0
 34  3  1  6
 34 27  1  0
M  END
$$$$
DiffSBDD_28_num_sample_50
     RDKit          3D

 44 49  0  0  0  0  0  0  0  0999 V2000
   40.9600   29.7440   45.8000 C   0  0  0  0  0  0  0  0  0  0  0  0
   39.7930   31.3620   55.4130 C   0  0  0  0  0  0  0  0  0  0  0  0
   36.7970   35.7270   62.1820 O   0  0  0  0  0  0  0  0  0  0  0  0
   38.5860   30.7410   61.0410 C   0  0  1  0  0  0  0  0  0  0  0  0
   38.7590   31.8950   56.4250 C   0  0  2  0  0  0  0  0  0  0  0  0
   40.2370   32.9040   61.4120 C   0  0  0  0  0  0  0  0  0  0  0  0
   39.8510   28.9750   50.6150 C   0  0  0  0  0  0  0  0  0  0  0  0
   36.6040   31.9080   59.6150 O   0  0  0  0  0  0  0  0  0  0  0  0
   41.6830   28.3710   46.4600 C   0  0  0  0  0  0  0  0  0  0  0  0
   37.2760   35.4620   60.9090 C   0  0  1  0  0  0  0  0  0  0  0  0
   40.3240   30.0610   50.9590 C   0  0  0  0  0  0  0  0  0  0  0  0
   38.8140   29.7450   57.5930 N   0  0  0  0  0  0  0  0  0  0  0  0
   36.5280   36.8970   59.4730 C   0  0  0  0  0  0  0  0  0  0  0  0
   41.5620   27.5270   57.9580 C   0  0  0  0  0  0  0  0  0  0  0  0
   37.6400   37.6040   60.2340 C   0  0  0  0  0  0  0  0  0  0  0  0
   39.2590   30.1360   55.1860 C   0  0  1  0  0  0  0  0  0  0  0  0
   39.0200   28.5060   51.7480 C   0  0  0  0  0  0  0  0  0  0  0  0
   39.5780   28.4670   57.1830 O   0  0  0  0  0  0  0  0  0  0  0  0
   37.3500   32.6900   58.8120 O   0  0  0  0  0  0  0  0  0  0  0  0
   37.7930   32.9470   54.5340 O   0  0  0  0  0  0  0  0  0  0  0  0
   39.9790   28.1470   49.2340 C   0  0  0  0  0  0  0  0  0  0  0  0
   39.8900   31.2820   61.6330 C   0  0  0  0  0  0  0  0  0  0  0  0
   38.7520   29.6580   59.9570 C   0  0  2  0  0  0  0  0  0  0  0  0
   35.1340   33.5440   60.5570 C   0  0  0  0  0  0  0  0  0  0  0  0
   37.2430   32.5900   61.7820 O   0  0  0  0  0  0  0  0  0  0  0  0
   39.2010   29.3650   52.7450 N   0  0  0  0  0  0  0  0  0  0  0  0
   39.9580   30.4350   52.3350 C   0  0  0  0  0  0  0  0  0  0  0  0
   38.3970   30.4190   56.4420 C   0  0  2  0  0  0  0  0  0  0  0  0
   40.1500   29.0710   59.7930 C   0  0  0  0  0  0  0  0  0  0  0  0
   38.7610   35.1820   60.5790 C   0  0  0  0  0  0  0  0  0  0  0  0
   38.4250   33.2910   55.7600 C   0  0  0  0  0  0  0  0  0  0  0  0
   40.0880   28.0030   58.5410 C   0  0  2  0  0  0  0  0  0  0  0  0
   39.4090   26.7880   58.9490 O   0  0  0  0  0  0  0  0  0  0  0  0
   37.0520   27.6260   53.7290 O   0  0  0  0  0  0  0  0  0  0  0  0
   36.4580   35.5590   59.8460 N   0  0  2  0  0  0  0  0  0  0  0  0
   37.7770   28.2350   54.4030 C   0  0  0  0  0  0  0  0  0  0  0  0
   38.6340   29.4050   54.1370 C   0  0  1  0  0  0  0  0  0  0  0  0
   38.5560   36.5710   60.7700 C   0  0  2  0  0  0  0  0  0  0  0  0
   37.8930   29.2710   58.6590 C   0  0  0  0  0  0  0  0  0  0  0  0
   35.9430   32.4140   60.6980 C   0  0  2  0  0  0  0  0  0  0  0  0
   40.5630   28.7260   47.0790 C   0  0  0  0  0  0  0  0  0  0  0  0
   35.5290   34.5180   59.3610 C   0  0  0  0  0  0  0  0  0  0  0  0
   37.5040   31.3430   61.7900 O   0  0  0  0  0  0  0  0  0  0  0  0
   40.1220   29.2810   48.2190 O   0  0  0  0  0  0  0  0  0  0  0  0
  1  9  1  0
  1 41  1  0
  2  5  1  0
  4 22  1  1
  4 43  1  0
  5 31  1  6
  5 28  1  0
  6 22  1  0
  7 11  1  0
  7 17  2  0
  8 40  1  0
  9 41  1  0
 10  3  1  6
 11 27  2  0
 12 39  1  0
 13 35  1  0
 13 15  1  0
 16 37  1  0
 16  2  1  6
 16 28  1  0
 17 26  1  0
 18 12  1  0
 18 32  1  0
 19  8  1  0
 20 31  1  0
 21  7  1  0
 23  4  1  0
 25 43  1  0
 37 26  1  6
 27 26  1  0
 28 12  1  1
 23 29  1  6
 38 30  1  6
 30 10  1  0
 32 14  1  6
 32 33  1  0
 32 29  1  0
 34 36  2  0
 35 10  1  0
 37 36  1  0
 38 15  1  0
 38 10  1  0
 39 23  1  0
 40 24  1  6
 40 25  1  0
 41 44  1  0
 35 42  1  1
 42 24  1  0
 44 21  1  0
M  CHG  1  35   1
M  END
$$$$
DiffSBDD_29_num_sample_50
     RDKit          3D

 37 39  0  0  0  0  0  0  0  0999 V2000
   39.8850   29.9380   50.7070 C   0  0  0  0  0  0  0  0  0  0  0  0
   37.9600   33.2810   57.1410 C   0  0  0  0  0  0  0  0  0  0  0  0
   39.6500   28.7970   51.3870 C   0  0  0  0  0  0  0  0  0  0  0  0
   38.9050   35.9460   61.1940 C   0  0  0  0  0  0  0  0  0  0  0  0
   39.3130   26.5280   56.6340 C   0  0  0  0  0  0  0  0  0  0  0  0
   36.4970   35.9440   59.8140 C   0  0  0  0  0  0  0  0  0  0  0  0
   37.2170   27.5140   55.1790 C   0  0  2  0  0  0  0  0  0  0  0  0
   37.7030   30.7590   57.6670 N   0  0  0  0  0  0  0  0  0  0  0  0
   39.2980   28.0690   56.6320 C   0  0  1  0  0  0  0  0  0  0  0  0
   36.9560   34.6840   59.2950 N   0  0  0  0  0  0  0  0  0  0  0  0
   38.0450   28.0580   56.5410 C   0  0  0  0  0  0  0  0  0  0  0  0
   38.1940   29.8480   58.6400 C   0  0  2  0  0  0  0  0  0  0  0  0
   38.6520   31.9350   60.4960 O   0  0  0  0  0  0  0  0  0  0  0  0
   36.8700   27.5100   53.9720 O   0  0  0  0  0  0  0  0  0  0  0  0
   39.1990   26.0590   57.6870 C   0  0  0  0  0  0  0  0  0  0  0  0
   36.7340   36.9210   62.1620 C   0  0  0  0  0  0  0  0  0  0  0  0
   39.7230   25.9150   55.4870 C   0  0  0  0  0  0  0  0  0  0  0  0
   38.3020   29.3920   53.4520 C   0  0  0  0  0  0  0  0  0  0  0  0
   38.6490   28.2360   58.3680 C   0  0  0  0  0  0  0  0  0  0  0  0
   38.8200   34.4090   60.9450 C   0  0  0  0  0  0  0  0  0  0  0  0
   40.7310   30.0670   49.4500 C   0  0  0  0  0  0  0  0  0  0  0  0
   41.1670   29.0700   48.7520 F   0  0  0  0  0  0  0  0  0  0  0  0
   39.4810   32.0460   55.7450 O   0  0  0  0  0  0  0  0  0  0  0  0
   37.7750   37.9260   60.2580 O   0  0  0  0  0  0  0  0  0  0  0  0
   40.3230   25.5570   54.2630 C   0  0  0  0  0  0  0  0  0  0  0  0
   38.1330   32.1700   58.1180 C   0  0  2  0  0  0  0  0  0  0  0  0
   41.8680   30.8470   49.6880 F   0  0  0  0  0  0  0  0  0  0  0  0
   38.8150   26.8120   58.7930 C   0  0  0  0  0  0  0  0  0  0  0  0
   38.3030   32.7420   55.7360 C   0  0  0  0  0  0  0  0  0  0  0  0
   38.0180   32.6190   59.5290 C   0  0  2  0  0  0  0  0  0  0  0  0
   38.8360   28.8380   52.5330 C   0  0  0  0  0  0  0  0  0  0  0  0
   40.0180   30.8080   48.6110 F   0  0  0  0  0  0  0  0  0  0  0  0
   38.2470   34.1140   59.6170 C   0  0  1  0  0  0  0  0  0  0  0  0
   39.4440   30.9790   51.0970 O   0  0  0  0  0  0  0  0  0  0  0  0
   37.3130   28.7850   54.4750 C   0  0  2  0  0  0  0  0  0  0  0  0
   37.4510   36.6800   60.8360 C   0  0  1  0  0  0  0  0  0  0  0  0
   37.1450   29.7390   59.7050 C   0  0  0  0  0  0  0  0  0  0  0  0
  1 34  2  0
  1  3  1  0
  3 31  1  0
  5 15  2  0
  6 36  1  0
  7 11  1  6
  8 26  1  0
  8 12  1  0
  9 11  1  6
  9  5  1  0
  9 19  1  0
 10 33  1  0
 10  6  2  0
 12 37  1  1
 35 14  1  6
 14  7  1  0
 15 28  1  0
 17  5  1  0
 19 12  1  0
 19 28  1  0
 20  4  1  0
 21 27  1  0
 21  1  1  0
 22 21  1  0
 24 36  1  0
 25 17  1  0
 26  2  1  6
 26 30  1  0
 29 23  1  0
 29  2  1  0
 30 13  1  1
 31 18  2  3
 32 21  1  0
 33 30  1  0
 33 20  1  1
 35 18  1  0
 35  7  1  0
 36  4  1  0
 36 16  1  1
M  CHG  2   8   1  10   1
M  END
$$$$
DiffSBDD_30_num_sample_50
     RDKit          3D

 25 24  0  0  0  0  0  0  0  0999 V2000
   38.8230   33.8730   60.0820 C   0  0  0  0  0  0  0  0  0  0  0  0
   38.6240   29.7270   54.8840 C   0  0  2  0  0  0  0  0  0  0  0  0
   39.8160   29.2990   55.6140 C   0  0  0  0  0  0  0  0  0  0  0  0
   39.7230   31.0110   50.1900 O   0  0  0  0  0  0  0  0  0  0  0  0
   40.9750   29.1840   49.1660 C   0  0  0  0  0  0  0  0  0  0  0  0
   38.5650   27.4260   53.9130 C   0  0  0  0  0  0  0  0  0  0  0  0
   36.6930   36.8050   59.6050 C   0  0  0  0  0  0  0  0  0  0  0  0
   40.5570   35.9770   61.6560 C   0  0  0  0  0  0  0  0  0  0  0  0
   38.8520   32.1960   55.9210 C   0  0  0  0  0  0  0  0  0  0  0  0
   38.5510   28.9590   53.5390 C   0  0  2  0  0  0  0  0  0  0  0  0
   38.3370   35.2900   60.4730 C   0  0  1  0  0  0  0  0  0  0  0  0
   39.5030   29.3940   52.4700 C   0  0  0  0  0  0  0  0  0  0  0  0
   39.1080   36.1300   61.4070 C   0  0  2  0  0  0  0  0  0  0  0  0
   38.2460   31.7120   58.3570 C   0  0  0  0  0  0  0  0  0  0  0  0
   37.6580   27.2150   55.1070 C   0  0  0  0  0  0  0  0  0  0  0  0
   38.7100   31.3890   54.6190 C   0  0  0  0  0  0  0  0  0  0  0  0
   40.0920   29.8030   50.1680 C   0  0  0  0  0  0  0  0  0  0  0  0
   39.4710   28.8670   51.1990 C   0  0  0  0  0  0  0  0  0  0  0  0
   37.8850   33.1810   58.9790 C   0  0  0  0  0  0  0  0  0  0  0  0
   38.4570   37.3830   61.9010 C   0  0  0  0  0  0  0  0  0  0  0  0
   37.3280   30.3220   56.5010 O   0  0  0  0  0  0  0  0  0  0  0  0
   37.1180   37.1770   62.7120 C   0  0  0  0  0  0  0  0  0  0  0  0
   37.8580   31.6550   56.9210 N   0  0  0  0  0  0  0  0  0  0  0  0
   38.8970   27.4740   50.8490 C   0  0  0  0  0  0  0  0  0  0  0  0
   37.1650   35.9560   59.8750 C   0  0  0  0  0  0  0  0  0  0  0  0
 11  1  1  6
  2  3  1  6
  5 17  1  0
  6 15  1  0
  7 25  2  0
  9 23  1  0
 10 12  1  6
 10  6  1  0
 10  2  1  0
 11 25  1  0
 11 13  1  0
 13  8  1  6
 13 20  1  0
 14 19  1  0
 16  2  1  0
 16  9  1  0
 17  4  2  0
 17 18  1  0
 18 24  1  0
 18 12  1  0
 19  1  1  0
 20 22  1  0
 21 23  1  0
 23 14  1  0
M  END
$$$$
DiffSBDD_31_num_sample_50
     RDKit          3D

 19 20  0  0  0  0  0  0  0  0999 V2000
   39.7970   28.8040   51.5860 C   0  0  0  0  0  0  0  0  0  0  0  0
   40.2290   30.0890   51.4590 C   0  0  0  0  0  0  0  0  0  0  0  0
   39.8220   28.4860   49.1290 C   0  0  0  0  0  0  0  0  0  0  0  0
   38.9990   28.5020   54.3810 C   0  0  0  0  0  0  0  0  0  0  0  0
   38.1010   28.7320   55.6730 C   0  0  0  0  0  0  0  0  0  0  0  0
   40.1710   30.6740   52.6060 C   0  0  0  0  0  0  0  0  0  0  0  0
   39.3360   29.9350   53.6910 C   0  0  0  0  0  0  0  0  0  0  0  0
   36.8020   30.1480   57.1620 O   0  0  0  0  0  0  0  0  0  0  0  0
   39.8300   25.9690   52.1420 O   0  0  0  0  0  0  0  0  0  0  0  0
   40.4140   29.8190   49.0480 C   0  0  0  0  0  0  0  0  0  0  0  0
   38.7970   31.2120   54.4580 C   0  0  0  0  0  0  0  0  0  0  0  0
   39.1760   27.1540   53.9670 C   0  0  2  0  0  0  0  0  0  0  0  0
   38.7850   25.9300   54.8550 C   0  0  0  0  0  0  0  0  0  0  0  0
   40.6300   30.6260   50.1660 C   0  0  0  0  0  0  0  0  0  0  0  0
   39.5550   28.0400   50.4170 C   0  0  0  0  0  0  0  0  0  0  0  0
   37.8210   27.6040   56.4610 F   0  0  0  0  0  0  0  0  0  0  0  0
   40.1290   26.7320   53.1410 N   0  0  0  0  0  0  0  0  0  0  0  0
   37.7780   31.1550   55.2880 C   0  0  0  0  0  0  0  0  0  0  0  0
   37.5410   29.8870   56.0840 C   0  0  0  0  0  0  0  0  0  0  0  0
  2  1  2  0
  2  6  1  0
  3 15  2  0
  4  5  2  0
  5 19  1  0
  5 16  1  0
  6  7  1  0
  7  4  1  0
  7 11  2  0
  9 17  1  0
 10  3  1  0
 10 14  2  0
 11 18  1  0
 12  4  1  0
 12 13  1  1
 14  2  1  0
 15  1  1  0
 17 12  1  0
 18 19  2  0
 19  8  1  0
M  END
$$$$
DiffSBDD_32_num_sample_50
     RDKit          3D

 29 32  0  0  0  0  0  0  0  0999 V2000
   38.8190   33.2600   60.4840 C   0  0  0  0  0  0  0  0  0  0  0  0
   37.5940   26.9420   52.8980 O   0  0  0  0  0  0  0  0  0  0  0  0
   37.8950   30.1580   56.7010 C   0  0  0  0  0  0  0  0  0  0  0  0
   38.2230   29.2440   54.5110 C   0  0  0  0  0  0  0  0  0  0  0  0
   40.0710   29.6380   51.2100 C   0  0  0  0  0  0  0  0  0  0  0  0
   37.1760   37.2370   60.1730 C   0  0  0  0  0  0  0  0  0  0  0  0
   39.0290   35.6280   60.7030 N   0  0  0  0  0  0  0  0  0  0  0  0
   38.8310   27.6880   51.0820 C   0  0  0  0  0  0  0  0  0  0  0  0
   37.9270   30.4280   55.3230 C   0  0  0  0  0  0  0  0  0  0  0  0
   37.7890   35.8640   60.2250 C   0  0  0  0  0  0  0  0  0  0  0  0
   38.6690   29.0940   53.1210 C   0  0  0  0  0  0  0  0  0  0  0  0
   38.8460   27.6520   59.3240 C   0  0  0  0  0  0  0  0  0  0  0  0
   39.6210   29.9250   52.4440 C   0  0  0  0  0  0  0  0  0  0  0  0
   37.9240   30.9320   57.7700 N   0  0  0  0  0  0  0  0  0  0  0  0
   37.5900   33.5030   59.8570 N   0  0  0  0  0  0  0  0  0  0  0  0
   37.9890   28.8230   56.9680 N   0  0  0  0  0  0  0  0  0  0  0  0
   39.5430   34.4090   60.8380 C   0  0  0  0  0  0  0  0  0  0  0  0
   39.7260   28.5520   50.4700 C   0  0  0  0  0  0  0  0  0  0  0  0
   37.9330   31.8670   54.8010 C   0  0  0  0  0  0  0  0  0  0  0  0
   38.3390   27.9390   52.3240 C   0  0  0  0  0  0  0  0  0  0  0  0
   37.0700   34.7130   59.7970 C   0  0  0  0  0  0  0  0  0  0  0  0
   35.9650   34.8980   59.1620 F   0  0  0  0  0  0  0  0  0  0  0  0
   38.1940   30.7620   60.2850 C   0  0  0  0  0  0  0  0  0  0  0  0
   40.9170   30.6840   50.4460 C   0  0  0  0  0  0  0  0  0  0  0  0
   38.3040   28.8490   58.4250 C   0  0  0  0  0  0  0  0  0  0  0  0
   38.1790   30.1700   58.8410 C   0  0  0  0  0  0  0  0  0  0  0  0
   39.2000   31.8370   60.5800 C   0  0  0  0  0  0  0  0  0  0  0  0
   38.1060   27.8320   55.5820 S   0  0  0  0  0  0  0  0  0  0  0  0
   40.8500   34.2890   61.3160 N   0  0  0  0  0  0  0  0  0  0  0  0
  1 27  1  0
  1 17  1  0
  3 16  1  0
  3 14  2  0
  4  9  2  0
  4 28  1  0
  5 13  2  0
  6 10  1  0
  7 17  2  0
  8 20  1  0
  9  3  1  0
 10  7  1  0
 11  4  1  0
 13 11  1  0
 14 26  1  0
 15  1  2  0
 16 25  1  0
 17 29  1  0
 18  8  2  0
 18  5  1  0
 19  9  1  0
 20  2  1  0
 20 11  2  0
 21 15  1  0
 21 10  2  0
 22 21  1  0
 23 27  1  0
 24  5  1  0
 25 26  2  0
 25 12  1  0
 26 23  1  0
 28 16  1  0
M  END
$$$$
DiffSBDD_33_num_sample_50
     RDKit          3D

 36 39  0  0  0  0  0  0  0  0999 V2000
   39.3800   29.3840   52.5970 C   0  0  0  0  0  0  0  0  0  0  0  0
   38.2150   30.1330   54.8170 C   0  0  1  0  0  0  0  0  0  0  0  0
   37.6100   33.0200   60.5300 C   0  0  0  0  0  0  0  0  0  0  0  0
   36.8060   29.8500   54.4330 C   0  0  0  0  0  0  0  0  0  0  0  0
   39.3320   36.7010   61.6870 C   0  0  0  0  0  0  0  0  0  0  0  0
   38.1330   32.8960   59.0060 C   0  0  2  0  0  0  0  0  0  0  0  0
   38.8540   31.3090   55.1220 C   0  0  0  0  0  0  0  0  0  0  0  0
   40.1180   35.5910   61.5360 C   0  0  0  0  0  0  0  0  0  0  0  0
   39.4160   27.2060   52.0270 C   0  0  0  0  0  0  0  0  0  0  0  0
   40.0430   25.7500   57.8140 O   0  0  0  0  0  0  0  0  0  0  0  0
   39.5050   27.5640   50.8570 C   0  0  0  0  0  0  0  0  0  0  0  0
   37.9710   36.8300   61.2640 C   0  0  2  0  0  0  0  0  0  0  0  0
   38.2220   34.3650   60.6860 C   0  0  2  0  0  0  0  0  0  0  0  0
   40.6930   30.2340   48.8290 C   0  0  0  0  0  0  0  0  0  0  0  0
   39.6270   28.7850   50.4170 C   0  0  0  0  0  0  0  0  0  0  0  0
   36.9200   37.1870   62.3780 C   0  0  0  0  0  0  0  0  0  0  0  0
   39.5000   29.8090   51.3360 C   0  0  0  0  0  0  0  0  0  0  0  0
   39.9540   26.6710   55.5040 C   0  0  0  0  0  0  0  0  0  0  0  0
   37.9340   27.1230   56.8910 C   0  0  0  0  0  0  0  0  0  0  0  0
   37.4290   31.5150   58.7070 O   0  0  0  0  0  0  0  0  0  0  0  0
   38.0810   32.4760   55.5510 N   0  0  0  0  0  0  0  0  0  0  0  0
   39.5920   34.4130   61.0940 C   0  0  0  0  0  0  0  0  0  0  0  0
   36.4610   35.6140   59.7360 O   0  0  0  0  0  0  0  0  0  0  0  0
   39.9070   29.0160   49.0190 O   0  0  0  0  0  0  0  0  0  0  0  0
   38.5700   28.6670   56.9320 C   0  0  2  0  0  0  0  0  0  0  0  0
   37.5760   35.6430   60.5510 C   0  0  1  0  0  0  0  0  0  0  0  0
   38.4880   31.7190   57.8600 C   0  0  1  0  0  0  0  0  0  0  0  0
   38.9960   26.1300   56.6360 C   0  0  2  0  0  0  0  0  0  0  0  0
   40.0120   26.5610   54.7040 C   0  0  0  0  0  0  0  0  0  0  0  0
   39.8480   37.7030   62.1680 O   0  0  0  0  0  0  0  0  0  0  0  0
   39.2070   27.7080   54.4560 C   0  0  2  0  0  0  0  0  0  0  0  0
   39.2270   28.1650   52.9580 C   0  0  0  0  0  0  0  0  0  0  0  0
   38.3910   32.8900   57.0210 C   0  0  0  0  0  0  0  0  0  0  0  0
   38.9880   28.9430   55.4300 C   0  0  1  0  0  0  0  0  0  0  0  0
   39.6100   28.6150   57.8430 O   0  0  0  0  0  0  0  0  0  0  0  0
   37.7200   37.8830   60.3210 O   0  0  0  0  0  0  0  0  0  0  0  0
  1 32  2  0
  2  4  1  1
  2  7  1  0
  5 30  2  0
  6  3  1  1
  7 21  1  0
  8  5  1  0
  9 32  1  0
 11  9  2  0
 12  5  1  0
 12 16  1  1
 13  3  1  1
 13 22  1  0
 14 24  1  0
 15 11  1  0
 15 17  2  0
 17  1  1  0
 18 28  1  0
 19 25  1  0
 20  6  1  0
 21 33  1  0
 22  8  2  0
 24 15  1  0
 25 35  1  1
 26 23  1  1
 26 13  1  0
 26 12  1  0
 27 33  1  6
 27 20  1  0
 27  6  1  0
 28 19  1  0
 28 10  1  1
 29 18  1  0
 31 32  1  6
 31 29  1  0
 31 34  1  0
 34  2  1  6
 34 25  1  0
 36 12  1  0
M  CHG  1  21   1
M  END
$$$$
DiffSBDD_34_num_sample_50
     RDKit          3D

 25 26  0  0  0  0  0  0  0  0999 V2000
   39.3570   28.9470   52.6640 C   0  0  0  0  0  0  0  0  0  0  0  0
   38.6820   33.9790   60.6120 C   0  0  0  0  0  0  0  0  0  0  0  0
   39.7180   28.4690   50.2510 C   0  0  0  0  0  0  0  0  0  0  0  0
   38.1340   27.1720   56.8200 C   0  0  0  0  0  0  0  0  0  0  0  0
   38.4480   32.3070   57.2840 C   0  0  0  0  0  0  0  0  0  0  0  0
   37.0760   35.8500   60.5100 C   0  0  0  0  0  0  0  0  0  0  0  0
   39.5440   28.0870   51.7200 C   0  0  0  0  0  0  0  0  0  0  0  0
   38.9490   28.3010   53.8820 C   0  0  0  0  0  0  0  0  0  0  0  0
   39.4190   26.7200   52.2440 C   0  0  0  0  0  0  0  0  0  0  0  0
   38.4610   30.6700   55.2770 C   0  0  0  0  0  0  0  0  0  0  0  0
   39.5700   30.4470   52.6100 C   0  0  0  0  0  0  0  0  0  0  0  0
   36.7660   37.3460   60.7400 C   0  0  0  0  0  0  0  0  0  0  0  0
   37.9730   38.0370   61.3050 C   0  0  0  0  0  0  0  0  0  0  0  0
   39.0930   31.1330   53.8490 C   0  0  0  0  0  0  0  0  0  0  0  0
   38.5200   35.4540   60.9570 C   0  0  0  0  0  0  0  0  0  0  0  0
   38.0700   39.2410   60.7570 O   0  0  0  0  0  0  0  0  0  0  0  0
   39.2110   33.6550   59.2310 O   0  0  0  0  0  0  0  0  0  0  0  0
   36.8870   33.8100   58.4090 O   0  0  0  0  0  0  0  0  0  0  0  0
   39.9100   29.2790   49.5380 O   0  0  0  0  0  0  0  0  0  0  0  0
   38.3390   29.1250   55.0660 C   0  0  0  0  0  0  0  0  0  0  0  0
   39.1610   26.9000   53.5480 N   0  0  0  0  0  0  0  0  0  0  0  0
   37.7720   28.3800   56.0450 C   0  0  0  0  0  0  0  0  0  0  0  0
   38.6850   32.0480   55.9170 C   0  0  1  0  0  0  0  0  0  0  0  0
   37.8860   32.8850   55.1940 O   0  0  0  0  0  0  0  0  0  0  0  0
   38.1950   33.4580   58.1880 C   0  0  0  0  0  0  0  0  0  0  0  0
  1 11  1  0
  1  8  1  0
  2 15  1  0
  3  7  1  0
  5 25  1  0
  6 12  1  0
  6 15  1  0
  7  9  2  0
  7  1  1  0
  8 20  1  0
  9 21  1  0
 10 23  1  0
 11 14  2  0
 12 13  1  0
 14 10  1  0
 16 13  1  0
 17  2  1  0
 19  3  2  0
 20 10  2  0
 20 22  1  0
 21  8  2  0
 22  4  1  0
 23 24  1  6
 23  5  1  0
 25 18  2  0
 25 17  1  0
M  END
$$$$
DiffSBDD_35_num_sample_50
     RDKit          3D

 20 19  0  0  0  0  0  0  0  0999 V2000
   38.5260   31.1040   58.6260 C   0  0  0  0  0  0  0  0  0  0  0  0
   38.2500   33.4950   57.7860 C   0  0  0  0  0  0  0  0  0  0  0  0
   37.1490   37.3290   61.6460 C   0  0  0  0  0  0  0  0  0  0  0  0
   38.7210   32.6160   58.9090 C   0  0  0  0  0  0  0  0  0  0  0  0
   40.2260   30.3560   51.2610 C   0  0  0  0  0  0  0  0  0  0  0  0
   37.1820   35.1380   59.4890 C   0  0  0  0  0  0  0  0  0  0  0  0
   38.0520   36.1240   61.7000 C   0  0  0  0  0  0  0  0  0  0  0  0
   39.2960   29.5450   52.2010 C   0  0  1  0  0  0  0  0  0  0  0  0
   36.3100   35.8390   59.2410 O   0  0  0  0  0  0  0  0  0  0  0  0
   39.9990   30.4270   49.7760 N   0  0  0  0  0  0  0  0  0  0  0  0
   38.7870   30.7190   57.2320 N   0  0  0  0  0  0  0  0  0  0  0  0
   37.6650   38.4260   60.9320 O   0  0  0  0  0  0  0  0  0  0  0  0
   38.9940   28.3420   51.0330 C   0  0  0  0  0  0  0  0  0  0  0  0
   39.2690   30.4650   53.8890 S   0  0  0  0  0  0  0  0  0  0  0  0
   37.2700   34.3910   58.3650 N   0  0  0  0  0  0  0  0  0  0  0  0
   37.9430   30.1470   56.3630 C   0  0  0  0  0  0  0  0  0  0  0  0
   38.7250   29.2610   55.0900 S   0  0  0  0  0  0  0  0  0  0  0  0
   36.8150   29.9500   56.6430 O   0  0  0  0  0  0  0  0  0  0  0  0
   40.1810   27.6770   50.7300 O   0  0  0  0  0  0  0  0  0  0  0  0
   37.8060   34.9030   60.7410 C   0  0  0  0  0  0  0  0  0  0  0  0
  1  4  1  0
  2 15  1  0
  2  4  1  0
  3  7  1  0
  8  5  1  1
  6 20  1  0
  8 13  1  0
  8 14  1  0
  9  6  2  0
 10  5  1  0
 11  1  1  0
 12  3  1  0
 14 17  1  0
 15  6  1  0
 16 18  2  0
 16 11  1  0
 17 16  1  0
 19 13  1  0
 20  7  1  0
M  CHG  1  10   1
M  END
$$$$
DiffSBDD_36_num_sample_50
     RDKit          3D

 15 14  0  0  0  0  0  0  0  0999 V2000
   38.1510   32.4180   55.2520 C   0  0  0  0  0  0  0  0  0  0  0  0
   39.1270   31.0550   54.6280 S   0  0  0  0  0  0  0  0  0  0  0  0
   38.6310   29.4300   53.7890 C   0  0  0  0  0  0  0  0  0  0  0  0
   39.6450   26.7380   52.7510 C   0  0  0  0  0  0  0  0  0  0  0  0
   39.6700   25.6320   55.2820 C   0  0  0  0  0  0  0  0  0  0  0  0
   38.8880   35.5410   60.5910 O   0  0  0  0  0  0  0  0  0  0  0  0
   38.0880   33.0890   57.7380 C   0  0  0  0  0  0  0  0  0  0  0  0
   38.6240   33.3610   56.3510 C   0  0  0  0  0  0  0  0  0  0  0  0
   37.6930   28.1890   53.1260 C   0  0  0  0  0  0  0  0  0  0  0  0
   37.5590   35.1510   59.8850 C   0  0  0  0  0  0  0  0  0  0  0  0
   39.5080   26.7550   54.3150 C   0  0  0  0  0  0  0  0  0  0  0  0
   37.8090   34.0730   58.7780 C   0  0  0  0  0  0  0  0  0  0  0  0
   36.6820   34.5450   61.0160 C   0  0  0  0  0  0  0  0  0  0  0  0
   38.6130   27.7820   51.9460 C   0  0  0  0  0  0  0  0  0  0  0  0
   36.7350   36.5250   59.5420 C   0  0  0  0  0  0  0  0  0  0  0  0
  1  8  1  0
  2  1  1  0
  3  2  1  0
  4 11  1  0
  7 12  1  0
  8  7  1  0
  9  3  1  0
 10  6  1  0
 10 13  1  0
 11  5  1  0
 12 10  1  0
 14  4  1  0
 14  9  1  0
 15 10  1  0
M  END
$$$$
DiffSBDD_37_num_sample_50
     RDKit          3D

 29 31  0  0  0  0  0  0  0  0999 V2000
   39.2920   29.9010   52.8550 C   0  0  0  0  0  0  0  0  0  0  0  0
   40.0930   31.0710   49.2100 F   0  0  0  0  0  0  0  0  0  0  0  0
   39.0210   29.9340   58.7540 C   0  0  0  0  0  0  0  0  0  0  0  0
   36.8670   29.5560   54.3150 C   0  0  0  0  0  0  0  0  0  0  0  0
   39.1660   30.9170   53.9400 C   0  0  0  0  0  0  0  0  0  0  0  0
   40.1840   29.8280   49.3500 N   0  0  0  0  0  0  0  0  0  0  0  0
   36.9600   32.8680   60.4270 C   0  0  1  0  0  0  0  0  0  0  0  0
   37.8770   27.4020   55.0420 C   0  0  0  0  0  0  0  0  0  0  0  0
   35.9570   33.9260   60.3800 C   0  0  0  0  0  0  0  0  0  0  0  0
   39.0010   27.7140   51.9060 C   0  0  0  0  0  0  0  0  0  0  0  0
   38.7840   28.6510   52.9400 C   0  0  0  0  0  0  0  0  0  0  0  0
   37.5920   28.3630   53.8770 C   0  0  2  0  0  0  0  0  0  0  0  0
   37.9240   30.9450   54.9340 S   0  0  0  0  0  0  0  0  0  0  0  0
   36.1180   34.8640   59.3950 O   0  0  0  0  0  0  0  0  0  0  0  0
   39.9490   29.4770   50.6960 C   0  0  0  0  0  0  0  0  0  0  0  0
   38.1640   33.1060   58.2340 C   0  0  0  0  0  0  0  0  0  0  0  0
   39.5920   28.1920   50.7650 C   0  0  0  0  0  0  0  0  0  0  0  0
   37.9910   32.3680   59.5150 C   0  0  1  0  0  0  0  0  0  0  0  0
   40.7330   28.2400   57.8530 C   0  0  0  0  0  0  0  0  0  0  0  0
   39.6500   25.4660   54.6930 C   0  0  0  0  0  0  0  0  0  0  0  0
   39.8690   28.8140   56.7300 C   0  0  2  0  0  0  0  0  0  0  0  0
   40.1200   26.6030   55.4930 C   0  0  0  0  0  0  0  0  0  0  0  0
   39.9270   30.3390   51.7430 C   0  0  0  0  0  0  0  0  0  0  0  0
   41.3190   29.3150   48.9130 F   0  0  0  0  0  0  0  0  0  0  0  0
   38.9300   29.8830   57.1770 C   0  0  0  0  0  0  0  0  0  0  0  0
   38.4770   33.0960   60.3380 O   0  0  0  0  0  0  0  0  0  0  0  0
   39.1660   27.6760   55.8650 N   0  0  2  0  0  0  0  0  0  0  0  0
   36.6220   31.9770   61.4060 O   0  0  0  0  0  0  0  0  0  0  0  0
   38.5340   31.1830   59.3770 C   0  0  0  0  0  0  0  0  0  0  0  0
  1 11  2  0
  1  5  1  0
  2  6  1  0
  3 29  1  0
  4 13  1  0
  5 13  1  0
  6 15  1  0
  7 28  1  1
 27  8  1  6
  9  7  1  0
 10 11  1  0
 11 12  1  0
 12  4  1  0
 12  8  1  1
 14  9  1  0
 15 17  1  0
 15 23  2  0
 17 10  2  0
 18 16  1  6
 18 26  1  0
 18  7  1  0
 20 22  1  0
 21 25  1  0
 21 19  1  1
 22 27  1  0
 23  1  1  0
 24  6  1  0
 25  3  1  0
 26  7  1  0
 27 21  1  0
 29 18  1  0
M  CHG  1  27   1
M  END
$$$$
DiffSBDD_38_num_sample_50
     RDKit          3D

 52 58  0  0  0  0  0  0  0  0999 V2000
   38.6610   35.5890   62.6690 C   0  0  0  0  0  0  0  0  0  0  0  0
   39.2060   27.9870   54.6890 C   0  0  1  0  0  0  0  0  0  0  0  0
   37.2060   26.9360   53.8450 O   0  0  0  0  0  0  0  0  0  0  0  0
   38.1800   30.1340   57.4410 C   0  0  0  0  0  0  0  0  0  0  0  0
   38.0970   33.2580   56.6810 C   0  0  0  0  0  0  0  0  0  0  0  0
   36.4390   37.2850   60.3970 C   0  0  0  0  0  0  0  0  0  0  0  0
   36.6680   32.3860   62.3620 O   0  0  0  0  0  0  0  0  0  0  0  0
   39.0660   31.4270   47.5820 C   0  0  0  0  0  0  0  0  0  0  0  0
   39.3810   31.7520   49.0030 C   0  0  0  0  0  0  0  0  0  0  0  0
   39.6080   28.0400   52.3540 C   0  0  2  0  0  0  0  0  0  0  0  0
   39.2660   31.4870   55.3580 C   0  0  0  0  0  0  0  0  0  0  0  0
   35.8520   33.1310   61.7960 C   0  0  0  0  0  0  0  0  0  0  0  0
   36.3570   36.0000   62.4170 O   0  0  0  0  0  0  0  0  0  0  0  0
   35.2120   36.7510   58.6280 O   0  0  0  0  0  0  0  0  0  0  0  0
   39.8050   30.5100   49.5080 C   0  0  1  0  0  0  0  0  0  0  0  0
   39.8260   30.2260   47.2350 C   0  0  0  0  0  0  0  0  0  0  0  0
   40.2120   34.5180   64.3190 C   0  0  0  0  0  0  0  0  0  0  0  0
   37.5760   33.3900   60.5730 C   0  0  0  0  0  0  0  0  0  0  0  0
   39.8210   29.0030   51.2550 C   0  0  0  0  0  0  0  0  0  0  0  0
   40.1100   28.2660   48.6740 C   0  0  0  0  0  0  0  0  0  0  0  0
   37.0000   30.0910   57.5390 O   0  0  0  0  0  0  0  0  0  0  0  0
   37.5600   35.8450   61.8020 C   0  0  1  0  0  0  0  0  0  0  0  0
   40.0730   25.4070   56.2170 C   0  0  0  0  0  0  0  0  0  0  0  0
   38.3120   32.7480   55.6140 C   0  0  0  0  0  0  0  0  0  0  0  0
   40.5570   35.8880   64.8170 C   0  0  0  0  0  0  0  0  0  0  0  0
   40.2950   29.6090   48.5550 C   0  0  2  0  0  0  0  0  0  0  0  0
   39.8550   30.4630   53.0300 C   0  0  0  0  0  0  0  0  0  0  0  0
   39.6060   26.4740   52.4780 C   0  0  0  0  0  0  0  0  0  0  0  0
   35.0120   33.3650   62.4490 O   0  0  0  0  0  0  0  0  0  0  0  0
   38.9010   34.0160   55.9140 C   0  0  0  0  0  0  0  0  0  0  0  0
   38.3760   26.6500   54.7190 C   0  0  1  0  0  0  0  0  0  0  0  0
   38.4500   38.2490   62.2850 S   0  0  0  0  0  0  0  0  0  0  0  0
   39.0910   34.4330   63.3850 C   0  0  0  0  0  0  0  0  0  0  0  0
   38.6250   30.1890   55.8730 N   0  0  0  0  0  0  0  0  0  0  0  0
   39.2760   29.9440   58.3720 C   0  0  0  0  0  0  0  0  0  0  0  0
   39.7520   28.5420   60.6910 C   0  0  0  0  0  0  0  0  0  0  0  0
   36.3150   33.8920   60.6450 C   0  0  2  0  0  0  0  0  0  0  0  0
   40.0220   37.0030   64.1290 N   0  0  0  0  0  0  0  0  0  0  0  0
   39.5100   30.1280   60.1530 S   0  0  0  0  0  0  0  0  0  0  0  0
   39.1170   29.0960   53.4770 C   0  0  2  0  0  0  0  0  0  0  0  0
   39.8670   30.3880   51.4140 C   0  0  0  0  0  0  0  0  0  0  0  0
   39.1030   36.8080   63.0890 C   0  0  0  0  0  0  0  0  0  0  0  0
   35.8990   35.0440   59.8420 N   0  0  0  0  0  0  0  0  0  0  0  0
   40.4390   31.1370   60.8690 C   0  0  0  0  0  0  0  0  0  0  0  0
   37.6780   37.0640   61.0760 C   0  0  2  0  0  0  0  0  0  0  0  0
   40.0300   27.8560   49.8170 C   0  0  0  0  0  0  0  0  0  0  0  0
   35.8160   36.3630   59.6140 C   0  0  0  0  0  0  0  0  0  0  0  0
   39.4230   25.4590   54.8760 C   0  0  1  0  0  0  0  0  0  0  0  0
   37.9200   30.8290   60.5410 C   0  0  0  0  0  0  0  0  0  0  0  0
   40.4420   25.8370   53.7070 C   0  0  0  0  0  0  0  0  0  0  0  0
   37.9600   32.2060   59.8490 C   0  0  0  0  0  0  0  0  0  0  0  0
   38.8520   28.9410   55.7000 C   0  0  0  0  0  0  0  0  0  0  0  0
  1 42  1  0
  1 33  2  0
  2 31  1  0
  2 52  1  1
  4 21  2  0
  4 35  1  0
  8  9  1  0
 10 28  1  6
 10 40  1  0
 11 24  1  0
 11 34  1  0
 12  7  2  0
 12 29  1  0
 14 47  2  0
 15  9  1  1
 15 41  1  0
 16  8  1  0
 17 25  2  0
 19 41  2  0
 19 10  1  0
 20 46  2  0
 22 13  1  1
 22  1  1  0
 24 30  1  0
 24  5  1  0
 26 16  1  6
 26 20  1  0
 26 15  1  0
 28 50  1  0
 30  5  1  0
 31  3  1  6
 31 48  1  0
 32 42  1  0
 33 17  1  0
 34  4  1  0
 35 39  1  0
 37 18  1  1
 37 12  1  0
 38 25  1  0
 39 49  1  0
 39 36  1  0
 39 44  1  0
 40 27  1  1
 40  2  1  0
 41 27  1  0
 42 38  2  0
 43 37  1  0
 45  6  1  1
 45 22  1  0
 45 32  1  0
 46 19  1  0
 47 43  1  0
 47  6  1  0
 48 23  1  1
 50 48  1  0
 51 49  1  0
 51 18  1  0
 52 34  1  0
M  CHG  1  29  -1
M  END
$$$$
DiffSBDD_39_num_sample_50
     RDKit          3D

 44 50  0  0  0  0  0  0  0  0999 V2000
   38.1310   28.8380   56.8870 C   0  0  2  0  0  0  0  0  0  0  0  0
   39.8750   27.1000   53.9160 C   0  0  0  0  0  0  0  0  0  0  0  0
   39.7960   32.7680   61.1950 C   0  0  0  0  0  0  0  0  0  0  0  0
   40.9610   33.2610   61.8390 C   0  0  0  0  0  0  0  0  0  0  0  0
   40.5910   27.0280   56.3730 C   0  0  0  0  0  0  0  0  0  0  0  0
   35.9100   37.2980   60.7080 O   0  0  0  0  0  0  0  0  0  0  0  0
   38.4480   27.8910   55.8240 N   0  0  2  0  0  0  0  0  0  0  0  0
   38.9460   31.8240   48.4880 C   0  0  0  0  0  0  0  0  0  0  0  0
   39.0360   33.8040   60.5250 C   0  0  2  0  0  0  0  0  0  0  0  0
   35.1830   34.7510   59.2020 C   0  0  0  0  0  0  0  0  0  0  0  0
   38.4700   32.4490   58.2830 C   0  0  2  0  0  0  0  0  0  0  0  0
   38.6880   31.0020   55.3760 S   0  0  0  0  0  0  0  0  0  0  0  0
   38.0100   26.5490   52.3960 C   0  0  0  0  0  0  0  0  0  0  0  0
   35.9080   38.0810   61.8960 C   0  0  0  0  0  0  0  0  0  0  0  0
   37.3410   37.9910   62.4860 C   0  0  0  0  0  0  0  0  0  0  0  0
   37.9900   33.0130   57.0250 O   0  0  0  0  0  0  0  0  0  0  0  0
   40.0200   30.8880   54.9710 O   0  0  0  0  0  0  0  0  0  0  0  0
   39.6790   30.0530   51.8210 C   0  0  0  0  0  0  0  0  0  0  0  0
   37.3840   34.5100   59.0040 O   0  0  0  0  0  0  0  0  0  0  0  0
   37.7790   26.7980   55.6100 C   0  0  0  0  0  0  0  0  0  0  0  0
   38.9610   30.4370   48.0980 O   0  0  0  0  0  0  0  0  0  0  0  0
   39.5810   28.6370   49.3660 C   0  0  0  0  0  0  0  0  0  0  0  0
   37.8660   29.6990   59.1170 C   0  0  0  0  0  0  0  0  0  0  0  0
   38.4470   30.3790   56.7930 C   0  0  0  0  0  0  0  0  0  0  0  0
   37.9520   28.4400   58.3200 C   0  0  0  0  0  0  0  0  0  0  0  0
   36.7220   36.0210   60.6650 C   0  0  2  0  0  0  0  0  0  0  0  0
   40.3660   35.6470   61.4870 C   0  0  0  0  0  0  0  0  0  0  0  0
   38.1010   32.8230   55.7130 C   0  0  0  0  0  0  0  0  0  0  0  0
   39.1070   32.9990   48.6730 N   0  0  0  0  0  0  0  0  0  0  0  0
   37.3880   27.6400   53.1120 C   0  0  0  0  0  0  0  0  0  0  0  0
   38.3070   37.4760   61.3990 O   0  0  0  0  0  0  0  0  0  0  0  0
   37.7650   30.2360   54.4040 O   0  0  0  0  0  0  0  0  0  0  0  0
   39.2620   35.2090   61.0020 C   0  0  2  0  0  0  0  0  0  0  0  0
   39.7100   28.1200   50.5110 C   0  0  0  0  0  0  0  0  0  0  0  0
   38.2960   30.9110   58.2210 C   0  0  0  0  0  0  0  0  0  0  0  0
   37.9900   36.1370   61.1600 C   0  0  2  0  0  0  0  0  0  0  0  0
   39.6250   30.6790   50.6190 C   0  0  0  0  0  0  0  0  0  0  0  0
   39.5130   29.9150   49.4380 C   0  0  0  0  0  0  0  0  0  0  0  0
   38.9560   27.6650   52.9480 C   0  0  0  0  0  0  0  0  0  0  0  0
   37.8800   33.1520   59.5290 C   0  0  2  0  0  0  0  0  0  0  0  0
   39.6000   27.5980   55.3190 C   0  0  2  0  0  0  0  0  0  0  0  0
   36.4760   35.4170   59.2700 C   0  0  2  0  0  0  0  0  0  0  0  0
   41.2490   34.6300   61.9660 C   0  0  0  0  0  0  0  0  0  0  0  0
   39.5470   28.5940   51.7540 C   0  0  0  0  0  0  0  0  0  0  0  0
  1  7  1  0
  1 25  1  1
  2 41  1  0
  3  4  1  0
  4 43  2  0
  6 14  1  0
  8 29  3  0
  9 33  1  0
  9  3  1  1
 11 16  1  6
 11 40  1  0
 12 28  1  0
 12 24  1  0
 13 39  1  0
 13 30  1  0
 14 15  1  0
 17 12  2  0
 19 42  1  0
  7 20  1  1
 21  8  1  0
 21 38  1  0
 22 38  2  0
 22 34  1  0
 24  1  1  0
 24 35  2  0
 25 23  1  0
 26  6  1  6
 26 36  1  0
 27 43  1  0
 28 16  1  0
 31 15  1  0
 32 12  2  0
 33 36  1  0
 33 27  1  1
 34 44  2  0
 35 11  1  0
 35 23  1  0
 36 31  1  6
 37 18  2  0
 38 37  1  0
 39 30  1  0
 39  2  1  0
 40 19  1  6
 40  9  1  0
 41  7  1  0
 41  5  1  1
 42 10  1  1
 42 26  1  0
 44 18  1  0
 44 39  1  0
M  CHG  1   7   1
M  END
$$$$
DiffSBDD_40_num_sample_50
     RDKit          3D

 30 33  0  0  0  0  0  0  0  0999 V2000
   40.0950   27.9040   52.3970 C   0  0  0  0  0  0  0  0  0  0  0  0
   39.9160   24.6750   56.3990 C   0  0  0  0  0  0  0  0  0  0  0  0
   37.6000   30.1840   57.2650 O   0  0  0  0  0  0  0  0  0  0  0  0
   39.2630   26.9940   56.5950 C   0  0  0  0  0  0  0  0  0  0  0  0
   39.8600   28.0920   55.7630 O   0  0  0  0  0  0  0  0  0  0  0  0
   43.1250   25.1480   56.4950 C   0  0  2  0  0  0  0  0  0  0  0  0
   40.5240   25.4580   55.4440 C   0  0  2  0  0  0  0  0  0  0  0  0
   39.4640   30.3540   55.9980 O   0  0  0  0  0  0  0  0  0  0  0  0
   40.6100   25.8680   55.9230 C   0  0  2  0  0  0  0  0  0  0  0  0
   38.9860   26.8620   52.5240 C   0  0  0  0  0  0  0  0  0  0  0  0
   39.8210   29.1660   56.5010 C   0  0  1  0  0  0  0  0  0  0  0  0
   42.1130   26.6650   57.6560 C   0  0  0  0  0  0  0  0  0  0  0  0
   41.6490   25.4230   56.7240 C   0  0  2  0  0  0  0  0  0  0  0  0
   43.7120   24.3850   57.6260 C   0  0  0  0  0  0  0  0  0  0  0  0
   39.1250   25.4160   52.9200 O   0  0  0  0  0  0  0  0  0  0  0  0
   40.1200   27.5590   50.0560 O   0  0  0  0  0  0  0  0  0  0  0  0
   43.6050   26.7410   57.5130 C   0  0  1  0  0  0  0  0  0  0  0  0
   37.7050   27.4930   52.1870 C   0  0  0  0  0  0  0  0  0  0  0  0
   38.3060   29.4760   56.3070 P   0  0  1  0  0  0  0  0  0  0  0  0
   40.0630   30.5190   49.5030 C   0  0  0  0  0  0  0  0  0  0  0  0
   38.9560   30.0340   49.7790 O   0  0  0  0  0  0  0  0  0  0  0  0
   39.5810   23.4510   56.5880 N   0  0  0  0  0  0  0  0  0  0  0  0
   37.8690   28.1800   50.8950 O   0  0  0  0  0  0  0  0  0  0  0  0
   39.0210   25.3270   54.3160 C   0  0  0  0  0  0  0  0  0  0  0  0
   40.0870   28.6100   51.0370 C   0  0  1  0  0  0  0  0  0  0  0  0
   44.8930   26.2880   57.3140 C   0  0  0  0  0  0  0  0  0  0  0  0
   37.3740   28.8800   55.4380 O   0  0  0  0  0  0  0  0  0  0  0  0
   38.9380   29.1580   51.0180 C   0  0  1  0  0  0  0  0  0  0  0  0
   45.2890   24.7700   57.2700 C   0  0  0  0  0  0  0  0  0  0  0  0
   40.7360   23.3800   56.8600 C   0  0  0  0  0  0  0  0  0  0  0  0
  1 10  1  0
  2 22  1  0
  5  4  1  0
  6 13  1  0
  6 17  1  0
  6 14  1  1
  7 24  1  6
  7  9  1  0
  7  2  1  0
  8 19  1  0
  8 11  1  0
  9  4  1  1
 10 15  1  0
 11  5  1  6
 13  9  1  0
 13 12  1  1
 15 24  1  0
 17 26  1  1
 17 12  1  0
 18 10  1  0
 19 27  2  0
 19 11  1  0
 19  3  1  1
 20 21  1  0
 22 30  1  0
 23 28  1  0
 23 18  1  0
 25 16  1  6
 25  1  1  0
 28 21  1  6
 28 25  1  0
 29 26  1  0
 29 14  1  0
M  CHG  1  22   1
M  END
$$$$
DiffSBDD_41_num_sample_50
     RDKit          3D

 45 49  0  0  0  0  0  0  0  0999 V2000
   38.9320   34.4690   60.6460 C   0  0  0  0  0  0  0  0  0  0  0  0
   38.0170   34.3430   59.5780 C   0  0  0  0  0  0  0  0  0  0  0  0
   39.3740   28.2500   53.8980 C   0  0  0  0  0  0  0  0  0  0  0  0
   37.3960   24.3490   58.1400 C   0  0  0  0  0  0  0  0  0  0  0  0
   37.2260   36.6260   59.6710 C   0  0  1  0  0  0  0  0  0  0  0  0
   36.7510   37.5700   58.8990 O   0  0  0  0  0  0  0  0  0  0  0  0
   38.0340   37.9870   61.3810 O   0  0  0  0  0  0  0  0  0  0  0  0
   39.2100   30.2980   48.8850 C   0  0  0  0  0  0  0  0  0  0  0  0
   38.2770   33.2440   57.2850 C   0  0  0  0  0  0  0  0  0  0  0  0
   39.1050   28.0980   51.5340 C   0  0  0  0  0  0  0  0  0  0  0  0
   40.0570   28.0720   57.7330 C   0  0  0  0  0  0  0  0  0  0  0  0
   37.7470   29.9990   57.4350 C   0  0  0  0  0  0  0  0  0  0  0  0
   38.0560   33.2010   58.7530 C   0  0  0  0  0  0  0  0  0  0  0  0
   41.3860   29.1470   49.5540 C   0  0  0  0  0  0  0  0  0  0  0  0
   39.1240   30.7310   47.6250 F   0  0  0  0  0  0  0  0  0  0  0  0
   37.8500   29.7450   54.9670 O   0  0  0  0  0  0  0  0  0  0  0  0
   40.1670   27.8780   55.2490 C   0  0  2  0  0  0  0  0  0  0  0  0
   37.8890   30.9900   58.2400 C   0  0  0  0  0  0  0  0  0  0  0  0
   37.7600   28.5200   51.6440 C   0  0  0  0  0  0  0  0  0  0  0  0
   36.9970   35.2750   59.2960 C   0  0  1  0  0  0  0  0  0  0  0  0
   35.8650   34.9590   58.6250 O   0  0  0  0  0  0  0  0  0  0  0  0
   39.6130   31.0990   49.8200 F   0  0  0  0  0  0  0  0  0  0  0  0
   39.4190   25.8510   56.5460 C   0  0  1  0  0  0  0  0  0  0  0  0
   38.5480   29.5630   56.3040 C   0  0  2  0  0  0  0  0  0  0  0  0
   41.2160   27.8280   50.2600 C   0  0  0  0  0  0  0  0  0  0  0  0
   40.7310   28.4530   58.6350 N   0  0  0  0  0  0  0  0  0  0  0  0
   37.9780   29.9180   49.1870 F   0  0  0  0  0  0  0  0  0  0  0  0
   38.5510   23.7760   57.4540 O   0  0  0  0  0  0  0  0  0  0  0  0
   39.0270   35.7330   61.3800 C   0  0  0  0  0  0  0  0  0  0  0  0
   38.1580   29.0020   53.9130 C   0  0  0  0  0  0  0  0  0  0  0  0
   40.3700   26.2420   55.4920 C   0  0  0  0  0  0  0  0  0  0  0  0
   40.5340   33.5230   62.2910 C   0  0  0  0  0  0  0  0  0  0  0  0
   39.9240   28.0330   52.6500 C   0  0  0  0  0  0  0  0  0  0  0  0
   39.7550   27.8170   50.4030 O   0  0  0  0  0  0  0  0  0  0  0  0
   39.3250   28.2730   56.4700 C   0  0  2  0  0  0  0  0  0  0  0  0
   38.1670   27.0070   56.4760 S   0  0  0  0  0  0  0  0  0  0  0  0
   40.6230   34.7850   62.9870 C   0  0  0  0  0  0  0  0  0  0  0  0
   38.4630   33.3410   56.0920 C   0  0  0  0  0  0  0  0  0  0  0  0
   38.1300   36.8910   60.8990 C   0  0  0  0  0  0  0  0  0  0  0  0
   39.2130   24.4310   56.4660 C   0  0  0  0  0  0  0  0  0  0  0  0
   37.8980   31.8660   59.2790 C   0  0  0  0  0  0  0  0  0  0  0  0
   40.1360   29.1710   48.7380 C   0  0  0  0  0  0  0  0  0  0  0  0
   37.2590   28.8410   52.8220 C   0  0  0  0  0  0  0  0  0  0  0  0
   39.7740   33.4040   61.1820 C   0  0  0  0  0  0  0  0  0  0  0  0
   39.9240   35.8890   62.4790 C   0  0  0  0  0  0  0  0  0  0  0  0
  1 44  2  0
  1 29  1  0
  2 13  1  0
  2  1  1  0
  3 30  1  0
  3 17  1  0
  5  6  1  6
  5 39  1  0
  8 27  1  0
  8 22  1  0
 10 19  2  0
 10 33  1  0
 11 26  2  0
 12 18  1  0
 13  9  1  0
 13 41  1  0
 14 25  1  0
 15  8  1  0
 16 24  1  0
 17 31  1  1
 17 35  1  0
 18 41  1  0
 19 43  1  0
 20 21  1  6
 20  2  1  0
 20  5  1  0
 23 40  1  6
 24 35  1  0
 24 12  1  1
 25 34  1  0
 28  4  1  0
 29 45  2  0
 30 16  1  0
 31 23  1  0
 32 37  2  0
 33  3  2  0
 34 10  1  0
 35 36  1  0
 35 11  1  1
 36 23  1  0
 38  9  3  0
 39 29  1  0
 39  7  2  0
 40 28  1  0
 42  8  1  0
 42 14  1  0
 43 30  2  0
 44 32  1  0
 45 37  1  0
M  END
$$$$
DiffSBDD_42_num_sample_50
     RDKit          3D

 21 23  0  0  0  0  0  0  0  0999 V2000
   36.7860   28.9330   54.1350 C   0  0  0  0  0  0  0  0  0  0  0  0
   39.6410   26.9410   48.3640 F   0  0  0  0  0  0  0  0  0  0  0  0
   38.9480   26.6410   50.7160 C   0  0  0  0  0  0  0  0  0  0  0  0
   38.2220   31.7920   57.6220 O   0  0  0  0  0  0  0  0  0  0  0  0
   38.3390   32.4760   56.2950 C   0  0  0  0  0  0  0  0  0  0  0  0
   39.9040   28.7120   49.8660 C   0  0  0  0  0  0  0  0  0  0  0  0
   37.8740   33.2920   55.5180 O   0  0  0  0  0  0  0  0  0  0  0  0
   39.8800   29.2010   51.1220 C   0  0  0  0  0  0  0  0  0  0  0  0
   38.1650   28.7120   54.6250 C   0  0  1  0  0  0  0  0  0  0  0  0
   38.8360   27.2080   52.0460 C   0  0  0  0  0  0  0  0  0  0  0  0
   37.2510   29.8230   55.1200 O   0  0  0  0  0  0  0  0  0  0  0  0
   40.4160   30.8020   51.9310 S   0  0  0  0  0  0  0  0  0  0  0  0
   39.6460   32.0220   55.6360 C   0  0  0  0  0  0  0  0  0  0  0  0
   39.6050   29.6360   52.9700 C   0  0  1  0  0  0  0  0  0  0  0  0
   39.4980   27.3840   49.7030 C   0  0  0  0  0  0  0  0  0  0  0  0
   38.2870   27.7910   55.7610 C   0  0  0  0  0  0  0  0  0  0  0  0
   39.2280   29.7660   54.1820 N   0  0  0  0  0  0  0  0  0  0  0  0
   39.6340   30.9050   54.7960 C   0  0  0  0  0  0  0  0  0  0  0  0
   38.5840   28.3160   57.1710 C   0  0  0  0  0  0  0  0  0  0  0  0
   40.5050   29.4340   48.7290 F   0  0  0  0  0  0  0  0  0  0  0  0
   39.3210   28.5390   52.1500 C   0  0  0  0  0  0  0  0  0  0  0  0
  1  9  1  0
  1 11  1  0
  2 15  1  0
  3 10  2  0
  5  4  2  0
  6  8  1  0
  7  5  1  0
  8 12  1  0
  8 21  2  0
  9 11  1  0
  9 16  1  1
 10 21  1  0
 12 14  1  0
 13  5  1  0
 14 17  1  6
 15  6  2  0
 15  3  1  0
 16 19  1  0
 17  9  1  0
 17 18  1  0
 18 13  1  0
 20  6  1  0
 21 14  1  0
M  CHG  1   7  -1
M  END
$$$$
DiffSBDD_43_num_sample_50
     RDKit          3D

 31 32  0  0  0  0  0  0  0  0999 V2000
   37.1340   35.3050   59.5190 O   0  0  0  0  0  0  0  0  0  0  0  0
   37.7450   24.7680   55.3090 C   0  0  0  0  0  0  0  0  0  0  0  0
   38.2390   31.4310   58.3440 C   0  0  0  0  0  0  0  0  0  0  0  0
   40.8490   33.3020   63.0390 C   0  0  0  0  0  0  0  0  0  0  0  0
   38.6760   33.4650   59.9010 C   0  0  1  0  0  0  0  0  0  0  0  0
   40.3120   30.3650   51.1350 C   0  0  0  0  0  0  0  0  0  0  0  0
   37.8910   27.2120   55.4560 C   0  0  0  0  0  0  0  0  0  0  0  0
   38.5680   29.3180   52.6070 O   0  0  0  0  0  0  0  0  0  0  0  0
   37.7620   26.0670   54.6750 C   0  0  0  0  0  0  0  0  0  0  0  0
   39.7450   35.3070   61.3880 C   0  0  0  0  0  0  0  0  0  0  0  0
   38.0850   25.9270   57.4520 C   0  0  0  0  0  0  0  0  0  0  0  0
   39.4980   33.9080   61.0500 C   0  0  0  0  0  0  0  0  0  0  0  0
   40.1090   32.9850   61.8550 C   0  0  0  0  0  0  0  0  0  0  0  0
   38.0970   32.0980   55.2160 C   0  0  0  0  0  0  0  0  0  0  0  0
   38.1600   33.4250   55.6510 O   0  0  0  0  0  0  0  0  0  0  0  0
   39.8630   29.2000   51.8390 C   0  0  1  0  0  0  0  0  0  0  0  0
   38.9100   32.5150   59.0110 C   0  0  0  0  0  0  0  0  0  0  0  0
   40.9260   34.6590   63.4490 C   0  0  0  0  0  0  0  0  0  0  0  0
   38.0030   27.1340   56.8090 C   0  0  0  0  0  0  0  0  0  0  0  0
   39.6880   28.0650   50.7800 C   0  0  0  0  0  0  0  0  0  0  0  0
   37.7230   29.7320   55.7740 C   0  0  0  0  0  0  0  0  0  0  0  0
   37.9450   31.7390   54.0390 O   0  0  0  0  0  0  0  0  0  0  0  0
   38.0160   28.2710   53.2820 C   0  0  0  0  0  0  0  0  0  0  0  0
   37.2850   33.9720   59.8750 C   0  0  0  0  0  0  0  0  0  0  0  0
   37.8820   31.6840   57.1680 N   0  0  0  0  0  0  0  0  0  0  0  0
   37.8900   24.7300   56.7300 C   0  0  0  0  0  0  0  0  0  0  0  0
   38.3800   31.0070   56.0930 C   0  0  2  0  0  0  0  0  0  0  0  0
   40.3790   30.3130   49.7320 C   0  0  0  0  0  0  0  0  0  0  0  0
   37.7940   28.5530   54.7930 C   0  0  1  0  0  0  0  0  0  0  0  0
   37.9900   30.2380   59.1180 O   0  0  0  0  0  0  0  0  0  0  0  0
   40.3240   35.6110   62.6040 C   0  0  0  0  0  0  0  0  0  0  0  0
  1 24  1  0
  2 26  2  0
  3 17  1  0
  3 30  2  0
  4 18  2  0
  5 17  1  1
  5 12  1  0
  6 16  1  0
  7 19  1  0
  8 23  1  0
  9  2  1  0
  9  7  2  0
 10 31  2  0
 12 10  1  0
 12 13  2  0
 13  4  1  0
 14 15  2  0
 14 27  1  0
 16 20  1  6
 16  8  1  0
 19 11  2  0
 22 14  1  0
 24  5  1  0
 25  3  1  0
 26 11  1  0
 27 21  1  6
 27 25  1  0
 28  6  1  0
 29 23  1  6
 29  7  1  0
 29 21  1  0
 31 18  1  0
M  CHG  1  22  -1
M  END
$$$$
DiffSBDD_44_num_sample_50
     RDKit          3D

 36 38  0  0  0  0  0  0  0  0999 V2000
   37.8460   26.6530   54.6560 C   0  0  0  0  0  0  0  0  0  0  0  0
   38.9970   34.7040   60.7180 C   0  0  0  0  0  0  0  0  0  0  0  0
   39.6680   30.0810   51.9950 C   0  0  0  0  0  0  0  0  0  0  0  0
   38.2820   31.9740   55.4040 O   0  0  0  0  0  0  0  0  0  0  0  0
   39.3000   25.3140   55.9780 O   0  0  0  0  0  0  0  0  0  0  0  0
   39.7530   30.7290   53.2880 C   0  0  0  0  0  0  0  0  0  0  0  0
   40.4470   30.3880   48.5210 F   0  0  0  0  0  0  0  0  0  0  0  0
   38.1030   37.1630   60.7940 C   0  0  0  0  0  0  0  0  0  0  0  0
   37.5710   32.8730   59.7100 C   0  0  2  0  0  0  0  0  0  0  0  0
   36.0400   37.3450   59.8210 O   0  0  0  0  0  0  0  0  0  0  0  0
   37.6990   27.0090   53.1980 C   0  0  0  0  0  0  0  0  0  0  0  0
   40.1530   29.8900   49.6780 C   0  0  0  0  0  0  0  0  0  0  0  0
   39.0340   25.8070   54.9250 C   0  0  0  0  0  0  0  0  0  0  0  0
   39.0570   36.2670   61.1900 C   0  0  0  0  0  0  0  0  0  0  0  0
   39.7700   33.8720   60.8240 O   0  0  0  0  0  0  0  0  0  0  0  0
   38.2420   28.2850   52.9300 O   0  0  0  0  0  0  0  0  0  0  0  0
   40.1380   28.5960   57.5830 O   0  0  0  0  0  0  0  0  0  0  0  0
   36.7930   35.1230   60.1060 C   0  0  0  0  0  0  0  0  0  0  0  0
   38.5130   33.3470   55.4890 C   0  0  0  0  0  0  0  0  0  0  0  0
   40.2250   25.7960   54.4320 C   0  0  0  0  0  0  0  0  0  0  0  0
   36.3090   32.4160   59.9970 O   0  0  0  0  0  0  0  0  0  0  0  0
   39.8630   28.4850   49.7040 C   0  0  0  0  0  0  0  0  0  0  0  0
   37.8440   34.4100   59.6940 C   0  0  1  0  0  0  0  0  0  0  0  0
   39.7840   30.1120   55.8520 C   0  0  2  0  0  0  0  0  0  0  0  0
   40.1120   30.6400   50.8020 C   0  0  0  0  0  0  0  0  0  0  0  0
   37.7870   31.2830   57.6330 C   0  0  0  0  0  0  0  0  0  0  0  0
   39.0900   28.7660   51.8820 C   0  0  0  0  0  0  0  0  0  0  0  0
   39.5580   38.3380   62.0570 C   0  0  0  0  0  0  0  0  0  0  0  0
   38.3530   31.9260   58.8210 C   0  0  0  0  0  0  0  0  0  0  0  0
   38.3540   38.5190   61.3040 O   0  0  0  0  0  0  0  0  0  0  0  0
   37.0100   36.6200   60.1930 N   0  0  0  0  0  0  0  0  0  0  0  0
   39.4930   28.8600   56.4000 O   0  0  0  0  0  0  0  0  0  0  0  0
   39.3460   27.9070   50.8170 C   0  0  0  0  0  0  0  0  0  0  0  0
   38.7770   31.1210   56.4130 C   0  0  2  0  0  0  0  0  0  0  0  0
   39.6090   29.9060   54.5150 N   0  0  0  0  0  0  0  0  0  0  0  0
   39.9050   37.0380   62.0460 C   0  0  0  0  0  0  0  0  0  0  0  0
  1 13  1  0
  2 15  2  0
  2 14  1  0
  3  6  1  0
  4 19  1  0
  4 34  1  0
  6 35  2  3
  7 12  1  0
  8 14  2  0
  8 30  1  0
  9 21  1  6
 10 31  1  0
 11  1  1  0
 12 22  2  0
 12 25  1  0
 13  5  2  0
 14 36  1  0
 16 11  1  0
 18 31  1  0
 20 13  1  0
 22 33  1  0
 23  9  1  0
 23 18  1  1
 23  2  1  0
 24 35  1  0
 24 32  1  1
 24 34  1  0
 25  3  2  0
 26 29  1  0
 27  3  1  0
 27 16  1  0
 29  9  1  0
 30 28  1  0
 31  8  1  0
 32 17  1  0
 33 27  2  0
 34 26  1  6
 36 28  2  0
M  CHG  1  35   1
M  END
$$$$
DiffSBDD_45_num_sample_50
     RDKit          3D

 15 14  0  0  0  0  0  0  0  0999 V2000
   39.2010   29.8510   53.7730 C   0  0  0  0  0  0  0  0  0  0  0  0
   39.1230   31.1220   54.6210 C   0  0  0  0  0  0  0  0  0  0  0  0
   37.5920   36.4810   59.9790 C   0  0  0  0  0  0  0  0  0  0  0  0
   37.1080   34.9780   59.5460 C   0  0  0  0  0  0  0  0  0  0  0  0
   40.3450   30.2140   49.7310 C   0  0  0  0  0  0  0  0  0  0  0  0
   39.3120   28.6660   53.3160 C   0  0  0  0  0  0  0  0  0  0  0  0
   38.0910   33.7210   59.2020 C   0  0  0  0  0  0  0  0  0  0  0  0
   36.6170   37.1700   60.6800 O   0  0  0  0  0  0  0  0  0  0  0  0
   39.8870   29.6290   50.7660 C   0  0  0  0  0  0  0  0  0  0  0  0
   37.8980   33.0070   57.7740 C   0  0  0  0  0  0  0  0  0  0  0  0
   38.9620   31.4580   55.9380 C   0  0  0  0  0  0  0  0  0  0  0  0
   39.3650   27.4190   52.3780 C   0  0  0  0  0  0  0  0  0  0  0  0
   38.9170   32.5760   56.8850 C   0  0  0  0  0  0  0  0  0  0  0  0
   36.8370   36.8620   62.1400 C   0  0  0  0  0  0  0  0  0  0  0  0
   39.4610   28.0850   50.8940 C   0  0  0  0  0  0  0  0  0  0  0  0
  1  2  1  0
  2 11  2  3
  3  8  1  0
  4  3  1  0
  5  9  2  0
  6  1  3  0
  7  4  1  0
  8 14  1  0
  9 15  1  0
 10  7  1  0
 11 13  1  0
 12  6  1  0
 13 10  1  0
 15 12  1  0
M  END
$$$$
DiffSBDD_46_num_sample_50
     RDKit          3D

 14 13  0  0  0  0  0  0  0  0999 V2000
   38.0760   28.0300   52.9390 C   0  0  0  0  0  0  0  0  0  0  0  0
   38.0060   30.4560   55.6930 C   0  0  0  0  0  0  0  0  0  0  0  0
   37.3880   34.9290   60.7000 C   0  0  0  0  0  0  0  0  0  0  0  0
   39.1110   36.3360   60.6780 O   0  0  0  0  0  0  0  0  0  0  0  0
   37.6160   33.6950   58.4730 C   0  0  0  0  0  0  0  0  0  0  0  0
   37.9540   29.0520   55.0640 C   0  0  0  0  0  0  0  0  0  0  0  0
   37.0960   36.8090   59.4740 O   0  0  0  0  0  0  0  0  0  0  0  0
   37.8040   36.2590   60.2210 C   0  0  0  0  0  0  0  0  0  0  0  0
   38.2040   33.8210   59.9400 C   0  0  0  0  0  0  0  0  0  0  0  0
   38.4100   31.3660   57.8640 C   0  0  0  0  0  0  0  0  0  0  0  0
   38.8760   26.9540   53.5300 O   0  0  0  0  0  0  0  0  0  0  0  0
   38.5410   29.1720   53.7150 C   0  0  0  0  0  0  0  0  0  0  0  0
   37.8210   30.4890   56.9900 C   0  0  0  0  0  0  0  0  0  0  0  0
   38.4540   32.8540   57.5150 C   0  0  0  0  0  0  0  0  0  0  0  0
  1 11  1  0
  1 12  1  0
  2 13  1  0
  5  9  1  0
  6  2  1  0
  7  8  1  0
  8  4  2  0
  8  3  1  0
  9  3  1  0
 12  6  1  0
 13 10  1  0
 14 10  1  0
 14  5  1  0
M  CHG  1   7  -1
M  END
$$$$
DiffSBDD_47_num_sample_50
     RDKit          3D

 25 27  0  0  0  0  0  0  0  0999 V2000
   38.7460   29.8900   53.8450 C   0  0  0  0  0  0  0  0  0  0  0  0
   39.2860   28.0610   52.0850 C   0  0  0  0  0  0  0  0  0  0  0  0
   39.9640   29.9370   50.1210 C   0  0  0  0  0  0  0  0  0  0  0  0
   38.5870   36.3060   61.5520 C   0  0  0  0  0  0  0  0  0  0  0  0
   36.9630   36.5680   59.8700 C   0  0  0  0  0  0  0  0  0  0  0  0
   37.3980   28.9260   55.6250 N   0  0  0  0  0  0  0  0  0  0  0  0
   38.3060   31.1860   55.9170 C   0  0  0  0  0  0  0  0  0  0  0  0
   37.5150   30.1230   56.3070 C   0  0  0  0  0  0  0  0  0  0  0  0
   39.0390   33.5600   61.9200 C   0  0  0  0  0  0  0  0  0  0  0  0
   37.5520   37.0680   61.0480 C   0  0  0  0  0  0  0  0  0  0  0  0
   38.6670   31.0860   58.8540 O   0  0  0  0  0  0  0  0  0  0  0  0
   38.7750   33.3110   59.1940 N   0  0  0  0  0  0  0  0  0  0  0  0
   38.3670   34.5230   59.8210 C   0  0  0  0  0  0  0  0  0  0  0  0
   39.0370   34.8810   61.0300 C   0  0  0  0  0  0  0  0  0  0  0  0
   39.5940   30.4300   51.4090 C   0  0  0  0  0  0  0  0  0  0  0  0
   40.2770   30.7450   49.1100 O   0  0  0  0  0  0  0  0  0  0  0  0
   39.6710   27.6350   50.8370 C   0  0  0  0  0  0  0  0  0  0  0  0
   38.6030   32.1830   58.3400 C   0  0  0  0  0  0  0  0  0  0  0  0
   38.9260   31.0890   54.5710 C   0  0  0  0  0  0  0  0  0  0  0  0
   38.4920   32.2890   56.7930 C   0  0  0  0  0  0  0  0  0  0  0  0
   37.2910   35.3980   59.2460 C   0  0  0  0  0  0  0  0  0  0  0  0
   39.2080   29.4450   52.4380 C   0  0  0  0  0  0  0  0  0  0  0  0
   40.0340   28.5000   49.8170 C   0  0  0  0  0  0  0  0  0  0  0  0
   37.9500   28.8130   54.4580 C   0  0  0  0  0  0  0  0  0  0  0  0
   40.6190   35.1300   60.8060 C   0  0  0  0  0  0  0  0  0  0  0  0
  1 24  2  0
  1 19  1  0
  2 22  2  0
  3 15  2  0
  5 10  1  0
  6  8  2  0
  7  8  1  0
  7 20  1  0
 10  4  2  0
 13 12  1  0
 13 14  1  0
 14  4  1  0
 14  9  1  0
 15 22  1  0
 16  3  1  0
 17  2  1  0
 18 11  2  0
 18 12  1  0
 19  7  2  0
 20 18  1  0
 21 13  1  0
 21  5  2  0
 22  1  1  0
 23  3  1  0
 23 17  2  0
 24  6  1  0
 25 14  1  0
M  END
$$$$
DiffSBDD_48_num_sample_50
     RDKit          3D

 37 40  0  0  0  0  0  0  0  0999 V2000
   38.2710   28.1990   55.8460 N   0  0  0  0  0  0  0  0  0  0  0  0
   38.6560   37.3460   61.7760 C   0  0  0  0  0  0  0  0  0  0  0  0
   36.2420   37.0500   59.1140 O   0  0  0  0  0  0  0  0  0  0  0  0
   41.0290   35.7930   63.4540 C   0  0  0  0  0  0  0  0  0  0  0  0
   38.6700   32.3150   58.4660 S   0  0  0  0  0  0  0  0  0  0  0  0
   37.4570   34.2360   59.6480 C   0  0  2  0  0  0  0  0  0  0  0  0
   39.7190   30.8570   49.1110 C   0  0  0  0  0  0  0  0  0  0  0  0
   37.8220   36.5050   60.8370 C   0  0  1  0  0  0  0  0  0  0  0  0
   38.5340   33.9570   58.7930 C   0  0  0  0  0  0  0  0  0  0  0  0
   39.6650   30.2830   51.3870 C   0  0  0  0  0  0  0  0  0  0  0  0
   37.1700   30.4750   59.5580 C   0  0  0  0  0  0  0  0  0  0  0  0
   40.2250   26.8240   58.2270 C   0  0  0  0  0  0  0  0  0  0  0  0
   39.6110   30.6850   52.7820 C   0  0  0  0  0  0  0  0  0  0  0  0
   38.1320   27.8800   54.5010 C   0  0  0  0  0  0  0  0  0  0  0  0
   38.1010   35.1270   60.7400 C   0  0  0  0  0  0  0  0  0  0  0  0
   41.0730   28.8730   48.7060 C   0  0  0  0  0  0  0  0  0  0  0  0
   39.4300   36.4590   62.5820 C   0  0  0  0  0  0  0  0  0  0  0  0
   38.8780   28.4160   53.4460 C   0  0  0  0  0  0  0  0  0  0  0  0
   40.7290   36.4030   62.3330 C   0  0  0  0  0  0  0  0  0  0  0  0
   38.7950   30.2990   55.0040 N   0  0  0  0  0  0  0  0  0  0  0  0
   37.5420   29.4740   58.4450 C   0  0  0  0  0  0  0  0  0  0  0  0
   39.3080   26.0880   57.2010 C   0  0  0  0  0  0  0  0  0  0  0  0
   37.2130   31.9600   59.3590 C   0  0  1  0  0  0  0  0  0  0  0  0
   37.3870   26.7770   54.2230 O   0  0  0  0  0  0  0  0  0  0  0  0
   38.2750   29.4660   56.0420 C   0  0  1  0  0  0  0  0  0  0  0  0
   39.4300   27.7770   51.0320 C   0  0  0  0  0  0  0  0  0  0  0  0
   39.2110   27.5630   52.4490 C   0  0  0  0  0  0  0  0  0  0  0  0
   37.0290   32.9530   59.9030 N   0  0  0  0  0  0  0  0  0  0  0  0
   38.1070   27.0300   56.8960 C   0  0  0  0  0  0  0  0  0  0  0  0
   39.5520   29.2260   50.6580 C   0  0  0  0  0  0  0  0  0  0  0  0
   36.6970   37.1800   60.2820 C   0  0  0  0  0  0  0  0  0  0  0  0
   39.7910   29.4720   49.2680 N   0  0  0  0  0  0  0  0  0  0  0  0
   40.1160   25.7430   55.9510 C   0  0  0  0  0  0  0  0  0  0  0  0
   40.0200   31.4410   50.5150 C   0  0  0  0  0  0  0  0  0  0  0  0
   37.3950   29.9730   57.2200 C   0  0  0  0  0  0  0  0  0  0  0  0
   39.1190   29.8360   53.8060 C   0  0  0  0  0  0  0  0  0  0  0  0
   36.1280   37.9990   61.0710 O   0  0  0  0  0  0  0  0  0  0  0  0
  1 25  1  0
  1 29  1  0
  2 17  1  0
  3 31  2  0
  5  9  1  0
  5 23  1  0
  6 28  1  0
  6 15  1  1
  7 32  1  0
  7 34  1  0
  8 15  1  1
  8  2  1  0
  9  6  1  0
 10 13  1  0
 13 36  1  0
 14  1  1  0
 16 32  1  0
 18 27  1  0
 18 36  1  0
 18 14  1  0
 19 17  1  0
 19  4  1  0
 20 25  1  0
 21 11  1  0
 22 12  1  0
 23 11  1  1
 23 28  1  0
 24 14  2  0
 25 35  1  6
 26 27  1  0
 29 22  1  0
 30 26  1  0
 30 10  2  0
 31  8  1  0
 31 37  1  0
 32 30  1  0
 33 22  1  0
 34 10  1  0
 35 21  1  0
 36 20  2  0
M  CHG  2  28   1  37  -1
M  END
$$$$
DiffSBDD_49_num_sample_50
     RDKit          3D

 44 51  0  0  0  0  0  0  0  0999 V2000
   41.0900   30.0980   52.1420 C   0  0  0  0  0  0  0  0  0  0  0  0
   40.1440   26.7940   54.9000 C   0  0  0  0  0  0  0  0  0  0  0  0
   39.0580   30.2650   48.9170 C   0  0  1  0  0  0  0  0  0  0  0  0
   39.8400   36.2110   63.5360 O   0  0  0  0  0  0  0  0  0  0  0  0
   37.9200   28.8270   55.2470 C   0  0  0  0  0  0  0  0  0  0  0  0
   38.2250   31.0590   57.9650 C   0  0  0  0  0  0  0  0  0  0  0  0
   38.4030   31.5210   55.8450 C   0  0  2  0  0  0  0  0  0  0  0  0
   39.4700   27.0060   56.0840 C   0  0  2  0  0  0  0  0  0  0  0  0
   38.6230   36.6070   61.4620 C   0  0  0  0  0  0  0  0  0  0  0  0
   40.0900   38.0750   62.6310 O   0  0  0  0  0  0  0  0  0  0  0  0
   39.6550   28.6810   53.3990 C   0  0  0  0  0  0  0  0  0  0  0  0
   37.4580   25.4950   55.9710 C   0  0  0  0  0  0  0  0  0  0  0  0
   39.5910   31.2850   49.8970 C   0  0  0  0  0  0  0  0  0  0  0  0
   39.6170   36.9730   62.3840 C   0  0  0  0  0  0  0  0  0  0  0  0
   40.1390   28.9060   52.0120 C   0  0  2  0  0  0  0  0  0  0  0  0
   37.7450   33.7670   56.7200 O   0  0  0  0  0  0  0  0  0  0  0  0
   38.8950   31.1210   54.3690 C   0  0  0  0  0  0  0  0  0  0  0  0
   39.2230   30.8240   47.7660 O   0  0  0  0  0  0  0  0  0  0  0  0
   38.6520   26.2220   58.2840 C   0  0  0  0  0  0  0  0  0  0  0  0
   40.3770   26.5510   52.5850 O   0  0  0  0  0  0  0  0  0  0  0  0
   39.9720   29.8820   49.8190 C   0  0  2  0  0  0  0  0  0  0  0  0
   36.7940   37.3520   60.2340 C   0  0  0  0  0  0  0  0  0  0  0  0
   39.9790   27.4650   53.7430 C   0  0  0  0  0  0  0  0  0  0  0  0
   38.4810   35.5170   61.2480 C   0  0  2  0  0  0  0  0  0  0  0  0
   38.2740   32.5330   59.8900 C   0  0  0  0  0  0  0  0  0  0  0  0
   39.8990   36.5780   64.4340 O   0  0  0  0  0  0  0  0  0  0  0  0
   38.6390   32.3280   58.2950 C   0  0  2  0  0  0  0  0  0  0  0  0
   39.6200   24.6890   56.7670 O   0  0  0  0  0  0  0  0  0  0  0  0
   38.3100   28.2340   57.5530 O   0  0  0  0  0  0  0  0  0  0  0  0
   37.3950   34.9430   60.3150 C   0  0  1  0  0  0  0  0  0  0  0  0
   38.8040   25.8220   56.8070 C   0  0  2  0  0  0  0  0  0  0  0  0
   38.6630   32.8100   56.4500 C   0  0  1  0  0  0  0  0  0  0  0  0
   38.5980   30.6020   56.7110 O   0  0  0  0  0  0  0  0  0  0  0  0
   39.0120   27.6240   58.5660 C   0  0  0  0  0  0  0  0  0  0  0  0
   38.6710   28.2510   56.3960 C   0  0  0  0  0  0  0  0  0  0  0  0
   37.5830   30.3970   58.8220 O   0  0  0  0  0  0  0  0  0  0  0  0
   39.3830   34.1810   61.2460 C   0  0  0  0  0  0  0  0  0  0  0  0
   38.6350   29.5670   54.0850 C   0  0  0  0  0  0  0  0  0  0  0  0
   36.6930   36.0340   59.7380 C   0  0  0  0  0  0  0  0  0  0  0  0
   40.5400   27.5280   51.6930 C   0  0  0  0  0  0  0  0  0  0  0  0
   41.1880   29.3430   49.5420 C   0  0  0  0  0  0  0  0  0  0  0  0
   37.8310   37.6660   61.1370 C   0  0  0  0  0  0  0  0  0  0  0  0
   39.3570   29.1090   50.9480 O   0  0  0  0  0  0  0  0  0  0  0  0
   38.4250   33.9570   60.1850 C   0  0  1  0  0  0  0  0  0  0  0  0
  3 18  1  6
  3 21  1  0
  3 13  1  0
  4 26  1  0
  5 35  2  0
  6 27  1  0
  6 36  2  0
  7 17  1  6
  7 32  1  0
  7 33  1  0
  8  2  1  6
  8 35  1  0
  8 31  1  0
  9 14  1  0
 11 23  1  0
 11 38  2  0
 14 10  2  0
 14  4  1  0
 15  1  1  1
 15 11  1  0
 19 34  1  0
 20 23  1  0
 21 41  1  6
 21 13  1  0
 21 43  1  0
 22 42  1  0
 23  2  2  0
 24 37  1  6
 24  9  1  0
 27 25  1  1
 28 31  1  0
 29 34  1  0
 30 39  1  6
 30 24  1  0
 31 12  1  6
 31 19  1  0
 32 16  1  1
 32 27  1  0
 33  6  1  0
 35 29  1  0
 38 17  1  0
 38  5  1  0
 39 22  2  0
 40 15  1  0
 40 20  1  0
 42  9  2  0
 43 15  1  0
 44 25  1  6
 44 30  1  0
 44 37  1  0
 44 24  1  0
M  CHG  1  26  -1
M  END
$$$$
