Pocket2Mol_27
     RDKit          3D

  0  0  0  0  0  0  0  0  0  0999 V3000
M  V30 BEGIN CTAB
M  V30 COUNTS 13 13 0 0 1
M  V30 BEGIN ATOM
M  V30 1 C 38.847980 27.974055 51.283978 0
M  V30 2 C 39.654663 28.995441 50.747469 0
M  V30 3 C 38.435126 28.035855 52.628045 0
M  V30 4 C 40.051009 30.078444 51.555732 0
M  V30 5 O 37.645136 27.051796 53.143064 0
M  V30 6 C 39.645137 30.137755 52.903369 0
M  V30 7 C 38.835393 29.116436 53.439593 0
M  V30 8 H 38.543573 27.144727 50.661581 0
M  V30 9 H 39.967608 28.949720 49.714868 0
M  V30 10 H 40.669254 30.863231 51.143090 0
M  V30 11 H 37.215917 26.537753 52.468235 0
M  V30 12 H 39.950874 30.967805 53.523820 0
M  V30 13 H 38.518932 29.163580 54.471585 0
M  V30 END ATOM
M  V30 BEGIN BOND
M  V30 1 1 2 1
M  V30 2 2 3 1
M  V30 3 2 4 2
M  V30 4 1 5 3
M  V30 5 1 6 4
M  V30 6 1 7 3
M  V30 7 2 7 6
M  V30 8 1 8 1
M  V30 9 1 9 2
M  V30 10 1 10 4
M  V30 11 1 11 5
M  V30 12 1 12 6
M  V30 13 1 13 7
M  V30 END BOND
M  V30 END CTAB
M  END
>  <i_epik_Tot_Q>  (1) 
0

>  <i_epik_Tot_abs_Q>  (1) 
0

>  <i_i_glide_confnum>  (1) 
1

>  <i_i_glide_lignum>  (1) 
28

>  <i_i_glide_posenum>  (1) 
238

>  <i_i_glide_rotatable_bonds>  (1) 
1

>  <i_lp_mmshare_version>  (1) 
72125

>  <i_m_source_file_index>  (1) 
28

>  <i_f3d_flags>  (1) 
0

>  <num_sample>  (1) 
50

>  <b_lp_Chiralities_Consistent>  (1) 
1

>  <r_epik_Charging_Adjusted_Penalty>  (1) 
0

>  <r_epik_Ionization_Penalty>  (1) 
0.0022482968708945868

>  <r_epik_Ionization_Penalty_Charging>  (1) 
0

>  <r_epik_Ionization_Penalty_Neutral>  (1) 
0.0022482968708945868

>  <r_epik_State_Penalty>  (1) 
-0

>  <r_glide_ring_energy>  (1) 
0

>  <r_i_docking_score>  (1) 
-6.0714173242248357

>  <r_i_glide_ecoul>  (1) 
-3.6286725756116449

>  <r_i_glide_eff_state_penalty>  (1) 
-0

>  <r_i_glide_einternal>  (1) 
0.34225379545685986

>  <r_i_glide_emodel>  (1) 
-26.40408395715351

>  <r_i_glide_emodel_strain>  (1) 
0.010562783790957653

>  <r_i_glide_energy>  (1) 
-19.518187766026461

>  <r_i_glide_erotb>  (1) 
0

>  <r_i_glide_esite>  (1) 
0

>  <r_i_glide_evdw>  (1) 
-15.889515190414818

>  <r_i_glide_gscore>  (1) 
-6.0714173242248357

>  <r_i_glide_gscore_strain>  (1) 
0

>  <r_i_glide_hbond>  (1) 
-0.32000000000000001

>  <r_i_glide_ligand_efficiency>  (1) 
-0.86734533203211939

>  <r_i_glide_ligand_efficiency_ln>  (1) 
-2.0609648689291498

>  <r_i_glide_ligand_efficiency_sa>  (1) 
-1.6591719318763127

>  <r_i_glide_lipo>  (1) 
-1.9004621745362753

>  <r_i_glide_metal>  (1) 
-0

>  <r_i_glide_rewards>  (1) 
-2.5121785038260729

>  <r_lp_Energy>  (1) 
6.6738649999999993

>  <r_lp_tautomer_probability>  (1) 
1

>  <s_epik_cmdline>  (1) 
J2VwaWtfcHl0aG9uJywgJy1waHQnLCAnMS4wJywgJy1waCcsICc3LjQnLCAnLXRuJywgJzgnLCAnLW1hJywgJzUwMCcsICctaW1hZScsICc8aW5maWxlLm1hZT4nLCAnLW9tYWUnLCAnPG91dGZpbGUubWFlPic=

>  <s_epik_input>  (1) 
W09IXWMxW2NIXVtjSF1bY0hdW2NIXVtjSF0x

>  <s_glide_docking_method>  (1) 
confgen

>  <s_i_glide_gridfile>  (1) 
gpcr_5ht2c_6bqh_protein_autoprepared_prepared

>  <s_lp_Force_Field>  (1) 
S-OPLS

>  <s_lp_Variant>  (1) 
Pocket2Mol_27-1

>  <s_m_source_file>  (1) 
generated_GPCR_5HT2C_ligand_Pocket2Mol_2026-06-23_prepared.sdf

>  <GenAI_Model>  (1) 
Pocket2Mol

>  <Protein>  (1) 
GPCR_5HT2C

$$$$
Pocket2Mol_27
     RDKit          3D

  0  0  0  0  0  0  0  0  0  0999 V3000
M  V30 BEGIN CTAB
M  V30 COUNTS 13 13 0 0 1
M  V30 BEGIN ATOM
M  V30 1 C 38.838208 29.171891 53.552945 0
M  V30 2 C 39.645137 30.164599 52.962717 0
M  V30 3 C 38.433831 28.052514 52.798701 0
M  V30 4 C 40.045137 30.038908 51.617708 0
M  V30 5 O 37.645137 27.095556 53.367720 0
M  V30 6 C 39.645209 28.917626 50.865447 0
M  V30 7 C 38.841479 27.923682 51.455583 0
M  V30 8 H 38.527120 29.270755 54.582919 0
M  V30 9 H 39.953529 31.024245 53.539980 0
M  V30 10 H 40.661181 30.802333 51.164004 0
M  V30 11 H 37.258959 26.515112 52.725551 0
M  V30 12 H 39.953063 28.821220 49.834643 0
M  V30 13 H 38.533408 27.065117 50.876340 0
M  V30 END ATOM
M  V30 BEGIN BOND
M  V30 1 1 2 1
M  V30 2 2 3 1
M  V30 3 2 4 2
M  V30 4 1 5 3
M  V30 5 1 6 4
M  V30 6 1 7 3
M  V30 7 2 7 6
M  V30 8 1 8 1
M  V30 9 1 9 2
M  V30 10 1 10 4
M  V30 11 1 11 5
M  V30 12 1 12 6
M  V30 13 1 13 7
M  V30 END BOND
M  V30 END CTAB
M  END
>  <i_epik_Tot_Q>  (1) 
0

>  <i_epik_Tot_abs_Q>  (1) 
0

>  <i_i_glide_confnum>  (1) 
1

>  <i_i_glide_lignum>  (1) 
28

>  <i_i_glide_posenum>  (1) 
57

>  <i_i_glide_rotatable_bonds>  (1) 
1

>  <i_lp_mmshare_version>  (1) 
72125

>  <i_m_source_file_index>  (1) 
28

>  <i_f3d_flags>  (1) 
0

>  <num_sample>  (1) 
50

>  <b_lp_Chiralities_Consistent>  (1) 
1

>  <r_epik_Charging_Adjusted_Penalty>  (1) 
0

>  <r_epik_Ionization_Penalty>  (1) 
0.0022482968708945868

>  <r_epik_Ionization_Penalty_Charging>  (1) 
0

>  <r_epik_Ionization_Penalty_Neutral>  (1) 
0.0022482968708945868

>  <r_epik_State_Penalty>  (1) 
-0

>  <r_glide_ring_energy>  (1) 
0

>  <r_i_docking_score>  (1) 
-5.9397342941432898

>  <r_i_glide_ecoul>  (1) 
-2.8174097512154255

>  <r_i_glide_eff_state_penalty>  (1) 
-0

>  <r_i_glide_einternal>  (1) 
0.28846678863862735

>  <r_i_glide_emodel>  (1) 
-26.302955168816336

>  <r_i_glide_emodel_strain>  (1) 
0

>  <r_i_glide_energy>  (1) 
-19.532891630018739

>  <r_i_glide_erotb>  (1) 
0

>  <r_i_glide_esite>  (1) 
0

>  <r_i_glide_evdw>  (1) 
-16.715481878803313

>  <r_i_glide_gscore>  (1) 
-5.9397342941432898

>  <r_i_glide_gscore_strain>  (1) 
0

>  <r_i_glide_hbond>  (1) 
-0.1887147074977451

>  <r_i_glide_ligand_efficiency>  (1) 
-0.84853347059189854

>  <r_i_glide_ligand_efficiency_ln>  (1) 
-2.0162645816091938

>  <r_i_glide_ligand_efficiency_sa>  (1) 
-1.6231861355213208

>  <r_i_glide_lipo>  (1) 
-1.885476105661658

>  <r_i_glide_metal>  (1) 
-0

>  <r_i_glide_rewards>  (1) 
-2.6071579243614065

>  <r_lp_Energy>  (1) 
6.6738649999999993

>  <r_lp_tautomer_probability>  (1) 
1

>  <s_epik_cmdline>  (1) 
J2VwaWtfcHl0aG9uJywgJy1waHQnLCAnMS4wJywgJy1waCcsICc3LjQnLCAnLXRuJywgJzgnLCAnLW1hJywgJzUwMCcsICctaW1hZScsICc8aW5maWxlLm1hZT4nLCAnLW9tYWUnLCAnPG91dGZpbGUubWFlPic=

>  <s_epik_input>  (1) 
W09IXWMxW2NIXVtjSF1bY0hdW2NIXVtjSF0x

>  <s_glide_docking_method>  (1) 
confgen

>  <s_i_glide_gridfile>  (1) 
gpcr_5ht2c_6bqh_protein_autoprepared_prepared

>  <s_lp_Force_Field>  (1) 
S-OPLS

>  <s_lp_Variant>  (1) 
Pocket2Mol_27-1

>  <s_m_source_file>  (1) 
generated_GPCR_5HT2C_ligand_Pocket2Mol_2026-06-23_prepared.sdf

>  <GenAI_Model>  (1) 
Pocket2Mol

>  <Protein>  (1) 
GPCR_5HT2C

$$$$
Pocket2Mol_39
     RDKit          3D

  0  0  0  0  0  0  0  0  0  0999 V3000
M  V30 BEGIN CTAB
M  V30 COUNTS 15 15 0 0 1
M  V30 BEGIN ATOM
M  V30 1 C 39.000005 29.327321 53.541640 0
M  V30 2 C 39.645138 30.231692 52.634268 0
M  V30 3 C 39.834103 29.693771 51.384337 0
M  V30 4 C 40.442765 30.345818 50.189990 0
M  V30 5 C 38.714000 28.110736 52.972040 0
M  V30 6 C 38.047517 26.937589 53.606459 0
M  V30 7 S 39.245133 28.064234 51.320884 0
M  V30 8 H 38.771149 29.599738 54.561856 0
M  V30 9 H 39.932593 31.232077 52.924418 0
M  V30 10 H 40.852054 31.324637 50.440176 0
M  V30 11 H 41.245129 29.737755 49.779202 0
M  V30 12 H 39.693901 30.486185 49.410021 0
M  V30 13 H 37.598485 27.211181 54.561505 0
M  V30 14 H 37.256887 26.544616 52.967777 0
M  V30 15 H 38.764812 26.137755 53.788612 0
M  V30 END ATOM
M  V30 BEGIN BOND
M  V30 1 1 2 1
M  V30 2 2 3 2
M  V30 3 1 4 3
M  V30 4 2 5 1
M  V30 5 1 6 5
M  V30 6 1 7 3
M  V30 7 1 7 5
M  V30 8 1 8 1
M  V30 9 1 9 2
M  V30 10 1 10 4
M  V30 11 1 11 4
M  V30 12 1 12 4
M  V30 13 1 13 6
M  V30 14 1 14 6
M  V30 15 1 15 6
M  V30 END BOND
M  V30 END CTAB
M  END
>  <i_epik_Tot_Q>  (1) 
0

>  <i_epik_Tot_abs_Q>  (1) 
0

>  <i_i_glide_confnum>  (1) 
1

>  <i_i_glide_lignum>  (1) 
40

>  <i_i_glide_posenum>  (1) 
136

>  <i_i_glide_rotatable_bonds>  (1) 
0

>  <i_lp_mmshare_version>  (1) 
72125

>  <i_m_source_file_index>  (1) 
40

>  <i_f3d_flags>  (1) 
0

>  <num_sample>  (1) 
50

>  <b_lp_Chiralities_Consistent>  (1) 
1

>  <r_epik_Charging_Adjusted_Penalty>  (1) 
0

>  <r_epik_Ionization_Penalty>  (1) 
0

>  <r_epik_Ionization_Penalty_Charging>  (1) 
0

>  <r_epik_Ionization_Penalty_Neutral>  (1) 
0

>  <r_epik_State_Penalty>  (1) 
-0

>  <r_glide_ring_energy>  (1) 
0

>  <r_i_docking_score>  (1) 
-5.8667189430469397

>  <r_i_glide_ecoul>  (1) 
-0.85625369491754488

>  <r_i_glide_eff_state_penalty>  (1) 
-0

>  <r_i_glide_einternal>  (1) 
0

>  <r_i_glide_emodel>  (1) 
-26.390961576944878

>  <r_i_glide_emodel_strain>  (1) 
0

>  <r_i_glide_energy>  (1) 
-19.565475463967129

>  <r_i_glide_erotb>  (1) 
0

>  <r_i_glide_esite>  (1) 
0

>  <r_i_glide_evdw>  (1) 
-18.709221769049584

>  <r_i_glide_gscore>  (1) 
-5.8667189430469397

>  <r_i_glide_gscore_strain>  (1) 
0

>  <r_i_glide_hbond>  (1) 
0

>  <r_i_glide_ligand_efficiency>  (1) 
-0.83810270614956284

>  <r_i_glide_ligand_efficiency_ln>  (1) 
-1.9914792530003889

>  <r_i_glide_ligand_efficiency_sa>  (1) 
-1.6032328009594234

>  <r_i_glide_lipo>  (1) 
-2.1209459919230307

>  <r_i_glide_metal>  (1) 
-0

>  <r_i_glide_rewards>  (1) 
-2.6818738084337985

>  <r_lp_Energy>  (1) 
3.6641779999999997

>  <r_lp_tautomer_probability>  (1) 
1

>  <s_epik_cmdline>  (1) 
J2VwaWtfcHl0aG9uJywgJy1waHQnLCAnMS4wJywgJy1waCcsICc3LjQnLCAnLXRuJywgJzgnLCAnLW1hJywgJzUwMCcsICctaW1hZScsICc8aW5maWxlLm1hZT4nLCAnLW9tYWUnLCAnPG91dGZpbGUubWFlPic=

>  <s_epik_input>  (1) 
W0NIM11jKHMxKVtjSF1bY0hdYzFbQ0gzXQ==

>  <s_glide_docking_method>  (1) 
confgen

>  <s_i_glide_gridfile>  (1) 
gpcr_5ht2c_6bqh_protein_autoprepared_prepared

>  <s_lp_Force_Field>  (1) 
S-OPLS

>  <s_lp_Variant>  (1) 
Pocket2Mol_39-1

>  <s_m_source_file>  (1) 
generated_GPCR_5HT2C_ligand_Pocket2Mol_2026-06-23_prepared.sdf

>  <GenAI_Model>  (1) 
Pocket2Mol

>  <Protein>  (1) 
GPCR_5HT2C

$$$$
Pocket2Mol_25
     RDKit          3D

  0  0  0  0  0  0  0  0  0  0999 V3000
M  V30 BEGIN CTAB
M  V30 COUNTS 15 15 0 0 1
M  V30 BEGIN ATOM
M  V30 1 C 39.645122 30.137406 52.658207 0
M  V30 2 C 40.211298 30.113584 51.367861 0
M  V30 3 C 40.011398 28.998805 50.532505 0
M  V30 4 C 38.872319 29.045550 53.109884 0
M  V30 5 C 39.245146 27.906133 50.983537 0
M  V30 6 C 38.256889 29.073964 54.494029 0
M  V30 7 C 38.674391 27.929082 52.270354 0
M  V30 8 H 39.798513 30.994053 53.299112 0
M  V30 9 H 40.799302 30.951031 51.020263 0
M  V30 10 H 40.445137 28.981228 49.544370 0
M  V30 11 H 39.092871 27.050893 50.340848 0
M  V30 12 H 37.691677 28.163464 54.697148 0
M  V30 13 H 39.031953 29.168930 55.254298 0
M  V30 14 H 37.578474 29.922704 54.589421 0
M  V30 15 H 38.083761 27.091467 52.612317 0
M  V30 END ATOM
M  V30 BEGIN BOND
M  V30 1 1 2 1
M  V30 2 2 3 2
M  V30 3 2 4 1
M  V30 4 1 5 3
M  V30 5 1 6 4
M  V30 6 1 7 4
M  V30 7 2 7 5
M  V30 8 1 8 1
M  V30 9 1 9 2
M  V30 10 1 10 3
M  V30 11 1 11 5
M  V30 12 1 12 6
M  V30 13 1 13 6
M  V30 14 1 14 6
M  V30 15 1 15 7
M  V30 END BOND
M  V30 END CTAB
M  END
>  <i_epik_Tot_Q>  (1) 
0

>  <i_epik_Tot_abs_Q>  (1) 
0

>  <i_i_glide_confnum>  (1) 
1

>  <i_i_glide_lignum>  (1) 
26

>  <i_i_glide_posenum>  (1) 
92

>  <i_i_glide_rotatable_bonds>  (1) 
0

>  <i_lp_mmshare_version>  (1) 
72125

>  <i_m_source_file_index>  (1) 
26

>  <i_f3d_flags>  (1) 
0

>  <num_sample>  (1) 
50

>  <b_lp_Chiralities_Consistent>  (1) 
1

>  <r_epik_Charging_Adjusted_Penalty>  (1) 
0

>  <r_epik_Ionization_Penalty>  (1) 
0

>  <r_epik_Ionization_Penalty_Charging>  (1) 
0

>  <r_epik_Ionization_Penalty_Neutral>  (1) 
0

>  <r_epik_State_Penalty>  (1) 
-0

>  <r_glide_ring_energy>  (1) 
0

>  <r_i_docking_score>  (1) 
-5.8420544415024915

>  <r_i_glide_ecoul>  (1) 
-0.8513918774666307

>  <r_i_glide_eff_state_penalty>  (1) 
-0

>  <r_i_glide_einternal>  (1) 
0

>  <r_i_glide_emodel>  (1) 
-23.339042049119563

>  <r_i_glide_emodel_strain>  (1) 
0

>  <r_i_glide_energy>  (1) 
-16.997150708218079

>  <r_i_glide_erotb>  (1) 
0

>  <r_i_glide_esite>  (1) 
0

>  <r_i_glide_evdw>  (1) 
-16.145758830751447

>  <r_i_glide_gscore>  (1) 
-5.8420544415024915

>  <r_i_glide_gscore_strain>  (1) 
0

>  <r_i_glide_hbond>  (1) 
0

>  <r_i_glide_ligand_efficiency>  (1) 
-0.83457920592892731

>  <r_i_glide_ligand_efficiency_ln>  (1) 
-1.9831067975294174

>  <r_i_glide_ligand_efficiency_sa>  (1) 
-1.5964925875148643

>  <r_i_glide_lipo>  (1) 
-2.1400314112184784

>  <r_i_glide_metal>  (1) 
-0

>  <r_i_glide_rewards>  (1) 
-2.7670263071264456

>  <r_lp_Energy>  (1) 
6.403492

>  <r_lp_tautomer_probability>  (1) 
1

>  <s_epik_cmdline>  (1) 
J2VwaWtfcHl0aG9uJywgJy1waHQnLCAnMS4wJywgJy1waCcsICc3LjQnLCAnLXRuJywgJzgnLCAnLW1hJywgJzUwMCcsICctaW1hZScsICc8aW5maWxlLm1hZT4nLCAnLW9tYWUnLCAnPG91dGZpbGUubWFlPic=

>  <s_epik_input>  (1) 
W0NIM11jMVtjSF1bY0hdW2NIXVtjSF1bY0hdMQ==

>  <s_glide_docking_method>  (1) 
confgen

>  <s_i_glide_gridfile>  (1) 
gpcr_5ht2c_6bqh_protein_autoprepared_prepared

>  <s_lp_Force_Field>  (1) 
S-OPLS

>  <s_lp_Variant>  (1) 
Pocket2Mol_25-1

>  <s_m_source_file>  (1) 
generated_GPCR_5HT2C_ligand_Pocket2Mol_2026-06-23_prepared.sdf

>  <GenAI_Model>  (1) 
Pocket2Mol

>  <Protein>  (1) 
GPCR_5HT2C

$$$$
Pocket2Mol_25
     RDKit          3D

  0  0  0  0  0  0  0  0  0  0999 V3000
M  V30 BEGIN CTAB
M  V30 COUNTS 15 15 0 0 1
M  V30 BEGIN ATOM
M  V30 1 C 39.995867 30.409820 52.433165 0
M  V30 2 C 39.245137 29.861813 53.492471 0
M  V30 3 C 38.544655 28.653034 53.308867 0
M  V30 4 C 40.045141 29.750137 51.188943 0
M  V30 5 C 38.595869 27.990993 52.066746 0
M  V30 6 C 40.845923 30.345775 50.049522 0
M  V30 7 C 39.345522 28.538059 51.006898 0
M  V30 8 H 40.529509 31.337755 52.574161 0
M  V30 9 H 39.205211 30.369671 54.444874 0
M  V30 10 H 37.968307 28.234274 54.120868 0
M  V30 11 H 38.057838 27.064500 51.925713 0
M  V30 12 H 40.789418 29.727288 49.154191 0
M  V30 13 H 40.465821 31.336855 49.799560 0
M  V30 14 H 41.893984 30.445916 50.332789 0
M  V30 15 H 39.380538 28.030624 50.055314 0
M  V30 END ATOM
M  V30 BEGIN BOND
M  V30 1 1 2 1
M  V30 2 2 3 2
M  V30 3 2 4 1
M  V30 4 1 5 3
M  V30 5 1 6 4
M  V30 6 1 7 4
M  V30 7 2 7 5
M  V30 8 1 8 1
M  V30 9 1 9 2
M  V30 10 1 10 3
M  V30 11 1 11 5
M  V30 12 1 12 6
M  V30 13 1 13 6
M  V30 14 1 14 6
M  V30 15 1 15 7
M  V30 END BOND
M  V30 END CTAB
M  END
>  <i_epik_Tot_Q>  (1) 
0

>  <i_epik_Tot_abs_Q>  (1) 
0

>  <i_i_glide_confnum>  (1) 
1

>  <i_i_glide_lignum>  (1) 
26

>  <i_i_glide_posenum>  (1) 
321

>  <i_i_glide_rotatable_bonds>  (1) 
0

>  <i_lp_mmshare_version>  (1) 
72125

>  <i_m_source_file_index>  (1) 
26

>  <i_f3d_flags>  (1) 
0

>  <num_sample>  (1) 
50

>  <b_lp_Chiralities_Consistent>  (1) 
1

>  <r_epik_Charging_Adjusted_Penalty>  (1) 
0

>  <r_epik_Ionization_Penalty>  (1) 
0

>  <r_epik_Ionization_Penalty_Charging>  (1) 
0

>  <r_epik_Ionization_Penalty_Neutral>  (1) 
0

>  <r_epik_State_Penalty>  (1) 
-0

>  <r_glide_ring_energy>  (1) 
0

>  <r_i_docking_score>  (1) 
-5.8038681298954762

>  <r_i_glide_ecoul>  (1) 
-1.0797097365125958

>  <r_i_glide_eff_state_penalty>  (1) 
-0

>  <r_i_glide_einternal>  (1) 
0

>  <r_i_glide_emodel>  (1) 
-24.354690199342144

>  <r_i_glide_emodel_strain>  (1) 
0

>  <r_i_glide_energy>  (1) 
-18.054252330219541

>  <r_i_glide_erotb>  (1) 
0

>  <r_i_glide_esite>  (1) 
0

>  <r_i_glide_evdw>  (1) 
-16.974542593706946

>  <r_i_glide_gscore>  (1) 
-5.8038681298954762

>  <r_i_glide_gscore_strain>  (1) 
0

>  <r_i_glide_hbond>  (1) 
0

>  <r_i_glide_ligand_efficiency>  (1) 
-0.82912401855649664

>  <r_i_glide_ligand_efficiency_ln>  (1) 
-1.9701443140608497

>  <r_i_glide_ligand_efficiency_sa>  (1) 
-1.5860571894822755

>  <r_i_glide_lipo>  (1) 
-2.0854660292183844

>  <r_i_glide_metal>  (1) 
-0

>  <r_i_glide_rewards>  (1) 
-2.7077185105148551

>  <r_lp_Energy>  (1) 
6.403492

>  <r_lp_tautomer_probability>  (1) 
1

>  <s_epik_cmdline>  (1) 
J2VwaWtfcHl0aG9uJywgJy1waHQnLCAnMS4wJywgJy1waCcsICc3LjQnLCAnLXRuJywgJzgnLCAnLW1hJywgJzUwMCcsICctaW1hZScsICc8aW5maWxlLm1hZT4nLCAnLW9tYWUnLCAnPG91dGZpbGUubWFlPic=

>  <s_epik_input>  (1) 
W0NIM11jMVtjSF1bY0hdW2NIXVtjSF1bY0hdMQ==

>  <s_glide_docking_method>  (1) 
confgen

>  <s_i_glide_gridfile>  (1) 
gpcr_5ht2c_6bqh_protein_autoprepared_prepared

>  <s_lp_Force_Field>  (1) 
S-OPLS

>  <s_lp_Variant>  (1) 
Pocket2Mol_25-1

>  <s_m_source_file>  (1) 
generated_GPCR_5HT2C_ligand_Pocket2Mol_2026-06-23_prepared.sdf

>  <GenAI_Model>  (1) 
Pocket2Mol

>  <Protein>  (1) 
GPCR_5HT2C

$$$$
Pocket2Mol_32
     RDKit          3D

  0  0  0  0  0  0  0  0  0  0999 V3000
M  V30 BEGIN CTAB
M  V30 COUNTS 12 12 0 0 1
M  V30 BEGIN ATOM
M  V30 1 C 40.045137 30.389052 51.796612 0
M  V30 2 C 39.505223 30.099708 53.065673 0
M  V30 3 C 38.844571 28.874634 53.286758 0
M  V30 4 C 38.725430 27.939499 52.239357 0
M  V30 5 C 39.926286 29.454407 50.750236 0
M  V30 6 F 40.444785 29.733821 49.531488 0
M  V30 7 C 39.266434 28.229575 50.971203 0
M  V30 8 H 40.551076 31.328279 51.626396 0
M  V30 9 H 39.596306 30.816857 53.868193 0
M  V30 10 H 38.429952 28.652260 54.259406 0
M  V30 11 H 38.219166 27.000184 52.408604 0
M  V30 12 H 39.175152 27.513569 50.168021 0
M  V30 END ATOM
M  V30 BEGIN BOND
M  V30 1 1 2 1
M  V30 2 2 3 2
M  V30 3 1 4 3
M  V30 4 2 5 1
M  V30 5 1 6 5
M  V30 6 2 7 4
M  V30 7 1 7 5
M  V30 8 1 8 1
M  V30 9 1 9 2
M  V30 10 1 10 3
M  V30 11 1 11 4
M  V30 12 1 12 7
M  V30 END BOND
M  V30 END CTAB
M  END
>  <i_epik_Tot_Q>  (1) 
0

>  <i_epik_Tot_abs_Q>  (1) 
0

>  <i_i_glide_confnum>  (1) 
1

>  <i_i_glide_lignum>  (1) 
33

>  <i_i_glide_posenum>  (1) 
38

>  <i_i_glide_rotatable_bonds>  (1) 
0

>  <i_lp_mmshare_version>  (1) 
72125

>  <i_m_source_file_index>  (1) 
33

>  <i_f3d_flags>  (1) 
0

>  <num_sample>  (1) 
50

>  <b_lp_Chiralities_Consistent>  (1) 
1

>  <r_epik_Charging_Adjusted_Penalty>  (1) 
0

>  <r_epik_Ionization_Penalty>  (1) 
0

>  <r_epik_Ionization_Penalty_Charging>  (1) 
0

>  <r_epik_Ionization_Penalty_Neutral>  (1) 
0

>  <r_epik_State_Penalty>  (1) 
-0

>  <r_glide_ring_energy>  (1) 
0

>  <r_i_docking_score>  (1) 
-5.8014624001635999

>  <r_i_glide_ecoul>  (1) 
-1.0366523059779924

>  <r_i_glide_eff_state_penalty>  (1) 
-0

>  <r_i_glide_einternal>  (1) 
0

>  <r_i_glide_emodel>  (1) 
-21.988628050877665

>  <r_i_glide_emodel_strain>  (1) 
0

>  <r_i_glide_energy>  (1) 
-16.269900589814227

>  <r_i_glide_erotb>  (1) 
0

>  <r_i_glide_esite>  (1) 
0

>  <r_i_glide_evdw>  (1) 
-15.233248283836234

>  <r_i_glide_gscore>  (1) 
-5.8014624001635999

>  <r_i_glide_gscore_strain>  (1) 
0

>  <r_i_glide_hbond>  (1) 
0

>  <r_i_glide_ligand_efficiency>  (1) 
-0.82878034288051428

>  <r_i_glide_ligand_efficiency_ln>  (1) 
-1.9693276802837987

>  <r_i_glide_ligand_efficiency_sa>  (1) 
-1.5853997615649285

>  <r_i_glide_lipo>  (1) 
-1.779510439423704

>  <r_i_glide_metal>  (1) 
-0

>  <r_i_glide_rewards>  (1) 
-3.104791700651385

>  <r_lp_Energy>  (1) 
8.194445

>  <r_lp_tautomer_probability>  (1) 
1

>  <s_epik_cmdline>  (1) 
J2VwaWtfcHl0aG9uJywgJy1waHQnLCAnMS4wJywgJy1waCcsICc3LjQnLCAnLXRuJywgJzgnLCAnLW1hJywgJzUwMCcsICctaW1hZScsICc8aW5maWxlLm1hZT4nLCAnLW9tYWUnLCAnPG91dGZpbGUubWFlPic=

>  <s_epik_input>  (1) 
RmMxW2NIXVtjSF1bY0hdW2NIXVtjSF0x

>  <s_glide_docking_method>  (1) 
confgen

>  <s_i_glide_gridfile>  (1) 
gpcr_5ht2c_6bqh_protein_autoprepared_prepared

>  <s_lp_Force_Field>  (1) 
S-OPLS

>  <s_lp_Variant>  (1) 
Pocket2Mol_32-1

>  <s_m_source_file>  (1) 
generated_GPCR_5HT2C_ligand_Pocket2Mol_2026-06-23_prepared.sdf

>  <GenAI_Model>  (1) 
Pocket2Mol

>  <Protein>  (1) 
GPCR_5HT2C

$$$$
Pocket2Mol_32
     RDKit          3D

  0  0  0  0  0  0  0  0  0  0999 V3000
M  V30 BEGIN CTAB
M  V30 COUNTS 12 12 0 0 1
M  V30 BEGIN ATOM
M  V30 1 C 38.679508 27.933085 52.258185 0
M  V30 2 C 39.245134 27.919129 50.967780 0
M  V30 3 C 40.010961 29.014802 50.522576 0
M  V30 4 C 40.210966 30.124176 51.367759 0
M  V30 5 C 38.879439 29.042227 53.103292 0
M  V30 6 F 38.335839 29.055413 54.343213 0
M  V30 7 C 39.645123 30.137662 52.658122 0
M  V30 8 H 38.092287 27.093825 52.600613 0
M  V30 9 H 39.091502 27.068413 50.320196 0
M  V30 10 H 40.444703 29.004282 49.533218 0
M  V30 11 H 40.797977 30.964385 51.026952 0
M  V30 12 H 39.797742 30.987460 53.306948 0
M  V30 END ATOM
M  V30 BEGIN BOND
M  V30 1 1 2 1
M  V30 2 2 3 2
M  V30 3 1 4 3
M  V30 4 2 5 1
M  V30 5 1 6 5
M  V30 6 2 7 4
M  V30 7 1 7 5
M  V30 8 1 8 1
M  V30 9 1 9 2
M  V30 10 1 10 3
M  V30 11 1 11 4
M  V30 12 1 12 7
M  V30 END BOND
M  V30 END CTAB
M  END
>  <i_epik_Tot_Q>  (1) 
0

>  <i_epik_Tot_abs_Q>  (1) 
0

>  <i_i_glide_confnum>  (1) 
1

>  <i_i_glide_lignum>  (1) 
33

>  <i_i_glide_posenum>  (1) 
1

>  <i_i_glide_rotatable_bonds>  (1) 
0

>  <i_lp_mmshare_version>  (1) 
72125

>  <i_m_source_file_index>  (1) 
33

>  <i_f3d_flags>  (1) 
0

>  <num_sample>  (1) 
50

>  <b_lp_Chiralities_Consistent>  (1) 
1

>  <r_epik_Charging_Adjusted_Penalty>  (1) 
0

>  <r_epik_Ionization_Penalty>  (1) 
0

>  <r_epik_Ionization_Penalty_Charging>  (1) 
0

>  <r_epik_Ionization_Penalty_Neutral>  (1) 
0

>  <r_epik_State_Penalty>  (1) 
-0

>  <r_glide_ring_energy>  (1) 
0

>  <r_i_docking_score>  (1) 
-5.790226426710559

>  <r_i_glide_ecoul>  (1) 
-0.65622981856119789

>  <r_i_glide_eff_state_penalty>  (1) 
-0

>  <r_i_glide_einternal>  (1) 
0

>  <r_i_glide_emodel>  (1) 
-21.706372453723297

>  <r_i_glide_emodel_strain>  (1) 
0

>  <r_i_glide_energy>  (1) 
-15.998720729345816

>  <r_i_glide_erotb>  (1) 
0

>  <r_i_glide_esite>  (1) 
0

>  <r_i_glide_evdw>  (1) 
-15.342490910784619

>  <r_i_glide_gscore>  (1) 
-5.790226426710559

>  <r_i_glide_gscore_strain>  (1) 
0

>  <r_i_glide_hbond>  (1) 
0

>  <r_i_glide_ligand_efficiency>  (1) 
-0.82717520381579412

>  <r_i_glide_ligand_efficiency_ln>  (1) 
-1.9655135879033354

>  <r_i_glide_ligand_efficiency_sa>  (1) 
-1.5823292409953391

>  <r_i_glide_lipo>  (1) 
-1.9297819407007255

>  <r_i_glide_metal>  (1) 
-0

>  <r_i_glide_rewards>  (1) 
-2.9948854676864234

>  <r_lp_Energy>  (1) 
8.194445

>  <r_lp_tautomer_probability>  (1) 
1

>  <s_epik_cmdline>  (1) 
J2VwaWtfcHl0aG9uJywgJy1waHQnLCAnMS4wJywgJy1waCcsICc3LjQnLCAnLXRuJywgJzgnLCAnLW1hJywgJzUwMCcsICctaW1hZScsICc8aW5maWxlLm1hZT4nLCAnLW9tYWUnLCAnPG91dGZpbGUubWFlPic=

>  <s_epik_input>  (1) 
RmMxW2NIXVtjSF1bY0hdW2NIXVtjSF0x

>  <s_glide_docking_method>  (1) 
confgen

>  <s_i_glide_gridfile>  (1) 
gpcr_5ht2c_6bqh_protein_autoprepared_prepared

>  <s_lp_Force_Field>  (1) 
S-OPLS

>  <s_lp_Variant>  (1) 
Pocket2Mol_32-1

>  <s_m_source_file>  (1) 
generated_GPCR_5HT2C_ligand_Pocket2Mol_2026-06-23_prepared.sdf

>  <GenAI_Model>  (1) 
Pocket2Mol

>  <Protein>  (1) 
GPCR_5HT2C

$$$$
Pocket2Mol_39
     RDKit          3D

  0  0  0  0  0  0  0  0  0  0999 V3000
M  V30 BEGIN CTAB
M  V30 COUNTS 15 15 0 0 1
M  V30 BEGIN ATOM
M  V30 1 C 39.316348 28.313737 51.079192 0
M  V30 2 C 38.588854 27.879569 52.236181 0
M  V30 3 C 38.670713 28.763243 53.284987 0
M  V30 4 C 38.044645 28.641044 54.634829 0
M  V30 5 C 39.943081 29.523271 51.261632 0
M  V30 6 C 40.776543 30.279407 50.281188 0
M  V30 7 S 39.645151 30.137755 52.859692 0
M  V30 8 H 39.350212 27.732369 50.168199 0
M  V30 9 H 38.039335 26.949957 52.255711 0
M  V30 10 H 37.472935 27.715065 54.718643 0
M  V30 11 H 38.805576 28.635903 55.415231 0
M  V30 12 H 37.367330 29.473666 54.829274 0
M  V30 13 H 40.842105 29.746800 49.332354 0
M  V30 14 H 40.344174 31.260021 50.084618 0
M  V30 15 H 41.790248 30.430217 50.650572 0
M  V30 END ATOM
M  V30 BEGIN BOND
M  V30 1 1 2 1
M  V30 2 2 3 2
M  V30 3 1 4 3
M  V30 4 2 5 1
M  V30 5 1 6 5
M  V30 6 1 7 3
M  V30 7 1 7 5
M  V30 8 1 8 1
M  V30 9 1 9 2
M  V30 10 1 10 4
M  V30 11 1 11 4
M  V30 12 1 12 4
M  V30 13 1 13 6
M  V30 14 1 14 6
M  V30 15 1 15 6
M  V30 END BOND
M  V30 END CTAB
M  END
>  <i_epik_Tot_Q>  (1) 
0

>  <i_epik_Tot_abs_Q>  (1) 
0

>  <i_i_glide_confnum>  (1) 
1

>  <i_i_glide_lignum>  (1) 
40

>  <i_i_glide_posenum>  (1) 
50

>  <i_i_glide_rotatable_bonds>  (1) 
0

>  <i_lp_mmshare_version>  (1) 
72125

>  <i_m_source_file_index>  (1) 
40

>  <i_f3d_flags>  (1) 
0

>  <num_sample>  (1) 
50

>  <b_lp_Chiralities_Consistent>  (1) 
1

>  <r_epik_Charging_Adjusted_Penalty>  (1) 
0

>  <r_epik_Ionization_Penalty>  (1) 
0

>  <r_epik_Ionization_Penalty_Charging>  (1) 
0

>  <r_epik_Ionization_Penalty_Neutral>  (1) 
0

>  <r_epik_State_Penalty>  (1) 
-0

>  <r_glide_ring_energy>  (1) 
0

>  <r_i_docking_score>  (1) 
-5.7609244739035219

>  <r_i_glide_ecoul>  (1) 
-0.83025513027877218

>  <r_i_glide_eff_state_penalty>  (1) 
-0

>  <r_i_glide_einternal>  (1) 
0

>  <r_i_glide_emodel>  (1) 
-25.911894490032587

>  <r_i_glide_emodel_strain>  (1) 
0

>  <r_i_glide_energy>  (1) 
-19.20949228255266

>  <r_i_glide_erotb>  (1) 
0

>  <r_i_glide_esite>  (1) 
0

>  <r_i_glide_evdw>  (1) 
-18.379237152273888

>  <r_i_glide_gscore>  (1) 
-5.7609244739035219

>  <r_i_glide_gscore_strain>  (1) 
0

>  <r_i_glide_hbond>  (1) 
0

>  <r_i_glide_ligand_efficiency>  (1) 
-0.82298921055764596

>  <r_i_glide_ligand_efficiency_ln>  (1) 
-1.9555669326000726

>  <r_i_glide_ligand_efficiency_sa>  (1) 
-1.5743217239609526

>  <r_i_glide_lipo>  (1) 
-2.1753658677755938

>  <r_i_glide_metal>  (1) 
-0

>  <r_i_glide_rewards>  (1) 
-2.5420584789724177

>  <r_lp_Energy>  (1) 
3.6641779999999997

>  <r_lp_tautomer_probability>  (1) 
1

>  <s_epik_cmdline>  (1) 
J2VwaWtfcHl0aG9uJywgJy1waHQnLCAnMS4wJywgJy1waCcsICc3LjQnLCAnLXRuJywgJzgnLCAnLW1hJywgJzUwMCcsICctaW1hZScsICc8aW5maWxlLm1hZT4nLCAnLW9tYWUnLCAnPG91dGZpbGUubWFlPic=

>  <s_epik_input>  (1) 
W0NIM11jKHMxKVtjSF1bY0hdYzFbQ0gzXQ==

>  <s_glide_docking_method>  (1) 
confgen

>  <s_i_glide_gridfile>  (1) 
gpcr_5ht2c_6bqh_protein_autoprepared_prepared

>  <s_lp_Force_Field>  (1) 
S-OPLS

>  <s_lp_Variant>  (1) 
Pocket2Mol_39-1

>  <s_m_source_file>  (1) 
generated_GPCR_5HT2C_ligand_Pocket2Mol_2026-06-23_prepared.sdf

>  <GenAI_Model>  (1) 
Pocket2Mol

>  <Protein>  (1) 
GPCR_5HT2C

$$$$
Pocket2Mol_32
     RDKit          3D

  0  0  0  0  0  0  0  0  0  0999 V3000
M  V30 BEGIN CTAB
M  V30 COUNTS 12 12 0 0 1
M  V30 BEGIN ATOM
M  V30 1 C 40.045132 30.179595 51.688310 0
M  V30 2 C 39.919336 29.194821 50.688481 0
M  V30 3 C 39.245143 27.989580 50.967828 0
M  V30 4 C 38.696898 27.769347 52.246923 0
M  V30 5 C 39.497010 29.959461 52.967193 0
M  V30 6 F 39.618014 30.905883 53.927775 0
M  V30 7 C 38.822954 28.754427 53.246426 0
M  V30 8 H 40.561691 31.103872 51.475422 0
M  V30 9 H 40.339807 29.364149 49.708071 0
M  V30 10 H 39.148594 27.234425 50.201373 0
M  V30 11 H 38.179959 26.845570 52.461591 0
M  V30 12 H 38.403140 28.586803 54.227289 0
M  V30 END ATOM
M  V30 BEGIN BOND
M  V30 1 1 2 1
M  V30 2 2 3 2
M  V30 3 1 4 3
M  V30 4 2 5 1
M  V30 5 1 6 5
M  V30 6 2 7 4
M  V30 7 1 7 5
M  V30 8 1 8 1
M  V30 9 1 9 2
M  V30 10 1 10 3
M  V30 11 1 11 4
M  V30 12 1 12 7
M  V30 END BOND
M  V30 END CTAB
M  END
>  <i_epik_Tot_Q>  (1) 
0

>  <i_epik_Tot_abs_Q>  (1) 
0

>  <i_i_glide_confnum>  (1) 
1

>  <i_i_glide_lignum>  (1) 
33

>  <i_i_glide_posenum>  (1) 
320

>  <i_i_glide_rotatable_bonds>  (1) 
0

>  <i_lp_mmshare_version>  (1) 
72125

>  <i_m_source_file_index>  (1) 
33

>  <i_f3d_flags>  (1) 
0

>  <num_sample>  (1) 
50

>  <b_lp_Chiralities_Consistent>  (1) 
1

>  <r_epik_Charging_Adjusted_Penalty>  (1) 
0

>  <r_epik_Ionization_Penalty>  (1) 
0

>  <r_epik_Ionization_Penalty_Charging>  (1) 
0

>  <r_epik_Ionization_Penalty_Neutral>  (1) 
0

>  <r_epik_State_Penalty>  (1) 
-0

>  <r_glide_ring_energy>  (1) 
0

>  <r_i_docking_score>  (1) 
-5.72486701543653

>  <r_i_glide_ecoul>  (1) 
-0.42010585421579266

>  <r_i_glide_eff_state_penalty>  (1) 
-0

>  <r_i_glide_einternal>  (1) 
0

>  <r_i_glide_emodel>  (1) 
-21.348055567008011

>  <r_i_glide_emodel_strain>  (1) 
0

>  <r_i_glide_energy>  (1) 
-15.704831160142954

>  <r_i_glide_erotb>  (1) 
0

>  <r_i_glide_esite>  (1) 
0

>  <r_i_glide_evdw>  (1) 
-15.284725305927161

>  <r_i_glide_gscore>  (1) 
-5.72486701543653

>  <r_i_glide_gscore_strain>  (1) 
0

>  <r_i_glide_hbond>  (1) 
0

>  <r_i_glide_ligand_efficiency>  (1) 
-0.81783814506236141

>  <r_i_glide_ligand_efficiency_ln>  (1) 
-1.9433270961344036

>  <r_i_glide_ligand_efficiency_sa>  (1) 
-1.5644680901505199

>  <r_i_glide_lipo>  (1) 
-1.8561150194511378

>  <r_i_glide_metal>  (1) 
-0

>  <r_i_glide_rewards>  (1) 
-3.0414998525566657

>  <r_lp_Energy>  (1) 
8.194445

>  <r_lp_tautomer_probability>  (1) 
1

>  <s_epik_cmdline>  (1) 
J2VwaWtfcHl0aG9uJywgJy1waHQnLCAnMS4wJywgJy1waCcsICc3LjQnLCAnLXRuJywgJzgnLCAnLW1hJywgJzUwMCcsICctaW1hZScsICc8aW5maWxlLm1hZT4nLCAnLW9tYWUnLCAnPG91dGZpbGUubWFlPic=

>  <s_epik_input>  (1) 
RmMxW2NIXVtjSF1bY0hdW2NIXVtjSF0x

>  <s_glide_docking_method>  (1) 
confgen

>  <s_i_glide_gridfile>  (1) 
gpcr_5ht2c_6bqh_protein_autoprepared_prepared

>  <s_lp_Force_Field>  (1) 
S-OPLS

>  <s_lp_Variant>  (1) 
Pocket2Mol_32-1

>  <s_m_source_file>  (1) 
generated_GPCR_5HT2C_ligand_Pocket2Mol_2026-06-23_prepared.sdf

>  <GenAI_Model>  (1) 
Pocket2Mol

>  <Protein>  (1) 
GPCR_5HT2C

$$$$
Pocket2Mol_28
     RDKit          3D

  0  0  0  0  0  0  0  0  0  0999 V3000
M  V30 BEGIN CTAB
M  V30 COUNTS 14 14 0 0 1
M  V30 BEGIN ATOM
M  V30 1 C 39.645138 30.248034 52.956861 0
M  V30 2 C 38.843876 29.250767 53.545689 0
M  V30 3 C 38.441959 28.131650 52.788791 0
M  V30 4 N 37.645137 27.148115 53.367760 0
M  V30 5 C 40.045137 30.126889 51.611035 0
M  V30 6 C 38.845137 28.009735 51.444231 0
M  V30 7 C 39.645794 29.007093 50.855746 0
M  V30 8 H 39.951853 31.106878 53.536064 0
M  V30 9 H 38.536138 29.346075 54.576890 0
M  V30 10 H 37.191061 26.459960 52.778772 0
M  V30 11 H 37.212742 27.308543 54.265783 0
M  V30 12 H 40.658542 30.893142 51.158823 0
M  V30 13 H 38.538018 27.152016 50.862957 0
M  V30 14 H 39.951652 28.914447 49.823989 0
M  V30 END ATOM
M  V30 BEGIN BOND
M  V30 1 1 2 1
M  V30 2 2 3 2
M  V30 3 1 4 3
M  V30 4 2 5 1
M  V30 5 1 6 3
M  V30 6 1 7 5
M  V30 7 2 7 6
M  V30 8 1 8 1
M  V30 9 1 9 2
M  V30 10 1 10 4
M  V30 11 1 11 4
M  V30 12 1 12 5
M  V30 13 1 13 6
M  V30 14 1 14 7
M  V30 END BOND
M  V30 END CTAB
M  END
>  <i_epik_Tot_Q>  (1) 
0

>  <i_epik_Tot_abs_Q>  (1) 
0

>  <i_i_glide_confnum>  (1) 
1

>  <i_i_glide_lignum>  (1) 
29

>  <i_i_glide_posenum>  (1) 
258

>  <i_i_glide_rotatable_bonds>  (1) 
0

>  <i_lp_mmshare_version>  (1) 
72125

>  <i_m_source_file_index>  (1) 
29

>  <i_f3d_flags>  (1) 
0

>  <num_sample>  (1) 
50

>  <b_lp_Chiralities_Consistent>  (1) 
1

>  <r_epik_Charging_Adjusted_Penalty>  (1) 
0

>  <r_epik_Ionization_Penalty>  (1) 
0.00088153335660618348

>  <r_epik_Ionization_Penalty_Charging>  (1) 
0

>  <r_epik_Ionization_Penalty_Neutral>  (1) 
0.00088153335660618348

>  <r_epik_State_Penalty>  (1) 
-0

>  <r_glide_ring_energy>  (1) 
0

>  <r_i_docking_score>  (1) 
-5.7168661548159863

>  <r_i_glide_ecoul>  (1) 
-1.870668870697267

>  <r_i_glide_eff_state_penalty>  (1) 
-0

>  <r_i_glide_einternal>  (1) 
0

>  <r_i_glide_emodel>  (1) 
-25.015123337237782

>  <r_i_glide_emodel_strain>  (1) 
0

>  <r_i_glide_energy>  (1) 
-18.70150846715995

>  <r_i_glide_erotb>  (1) 
0

>  <r_i_glide_esite>  (1) 
0

>  <r_i_glide_evdw>  (1) 
-16.830839596462685

>  <r_i_glide_gscore>  (1) 
-5.7168661548159863

>  <r_i_glide_gscore_strain>  (1) 
0

>  <r_i_glide_hbond>  (1) 
-0.17984264444114964

>  <r_i_glide_ligand_efficiency>  (1) 
-0.81669516497371231

>  <r_i_glide_ligand_efficiency_ln>  (1) 
-1.9406111746650709

>  <r_i_glide_ligand_efficiency_sa>  (1) 
-1.5622816478976551

>  <r_i_glide_lipo>  (1) 
-1.8837909243931037

>  <r_i_glide_metal>  (1) 
-0

>  <r_i_glide_rewards>  (1) 
-2.5310902755540075

>  <r_lp_Energy>  (1) 
7.0325409999999993

>  <r_lp_tautomer_probability>  (1) 
1

>  <s_epik_cmdline>  (1) 
J2VwaWtfcHl0aG9uJywgJy1waHQnLCAnMS4wJywgJy1waCcsICc3LjQnLCAnLXRuJywgJzgnLCAnLW1hJywgJzUwMCcsICctaW1hZScsICc8aW5maWxlLm1hZT4nLCAnLW9tYWUnLCAnPG91dGZpbGUubWFlPic=

>  <s_epik_input>  (1) 
W2NIXTFbY0hdW2NIXVtjSF1bY0hdYzFbTkgyXQ==

>  <s_glide_docking_method>  (1) 
confgen

>  <s_i_glide_gridfile>  (1) 
gpcr_5ht2c_6bqh_protein_autoprepared_prepared

>  <s_lp_Force_Field>  (1) 
S-OPLS

>  <s_lp_Variant>  (1) 
Pocket2Mol_28-1

>  <s_m_source_file>  (1) 
generated_GPCR_5HT2C_ligand_Pocket2Mol_2026-06-23_prepared.sdf

>  <GenAI_Model>  (1) 
Pocket2Mol

>  <Protein>  (1) 
GPCR_5HT2C

$$$$
Pocket2Mol_25
     RDKit          3D

  0  0  0  0  0  0  0  0  0  0999 V3000
M  V30 BEGIN CTAB
M  V30 COUNTS 15 15 0 0 1
M  V30 BEGIN ATOM
M  V30 1 C 40.045137 30.137739 51.781662 0
M  V30 2 C 39.961430 29.175993 50.756472 0
M  V30 3 C 39.245138 27.981472 50.967766 0
M  V30 4 C 39.412592 29.904452 53.020888 0
M  V30 5 C 38.611035 27.749135 52.203392 0
M  V30 6 C 39.504571 30.937753 54.124307 0
M  V30 7 C 38.694508 28.708829 53.230025 0
M  V30 8 H 40.594400 31.054523 51.618550 0
M  V30 9 H 40.444986 29.354866 49.807741 0
M  V30 10 H 39.180366 27.243947 50.180946 0
M  V30 11 H 38.059877 26.834817 52.363583 0
M  V30 12 H 38.969601 30.618430 55.018797 0
M  V30 13 H 40.546567 31.109253 54.396062 0
M  V30 14 H 39.070653 31.880637 53.792071 0
M  V30 15 H 38.207825 28.527880 54.177646 0
M  V30 END ATOM
M  V30 BEGIN BOND
M  V30 1 1 2 1
M  V30 2 2 3 2
M  V30 3 2 4 1
M  V30 4 1 5 3
M  V30 5 1 6 4
M  V30 6 1 7 4
M  V30 7 2 7 5
M  V30 8 1 8 1
M  V30 9 1 9 2
M  V30 10 1 10 3
M  V30 11 1 11 5
M  V30 12 1 12 6
M  V30 13 1 13 6
M  V30 14 1 14 6
M  V30 15 1 15 7
M  V30 END BOND
M  V30 END CTAB
M  END
>  <i_epik_Tot_Q>  (1) 
0

>  <i_epik_Tot_abs_Q>  (1) 
0

>  <i_i_glide_confnum>  (1) 
1

>  <i_i_glide_lignum>  (1) 
26

>  <i_i_glide_posenum>  (1) 
283

>  <i_i_glide_rotatable_bonds>  (1) 
0

>  <i_lp_mmshare_version>  (1) 
72125

>  <i_m_source_file_index>  (1) 
26

>  <i_f3d_flags>  (1) 
0

>  <num_sample>  (1) 
50

>  <b_lp_Chiralities_Consistent>  (1) 
1

>  <r_epik_Charging_Adjusted_Penalty>  (1) 
0

>  <r_epik_Ionization_Penalty>  (1) 
0

>  <r_epik_Ionization_Penalty_Charging>  (1) 
0

>  <r_epik_Ionization_Penalty_Neutral>  (1) 
0

>  <r_epik_State_Penalty>  (1) 
-0

>  <r_glide_ring_energy>  (1) 
0

>  <r_i_docking_score>  (1) 
-5.7097250673766222

>  <r_i_glide_ecoul>  (1) 
-1.0082277054232733

>  <r_i_glide_eff_state_penalty>  (1) 
-0

>  <r_i_glide_einternal>  (1) 
0

>  <r_i_glide_emodel>  (1) 
-23.569579417966807

>  <r_i_glide_emodel_strain>  (1) 
0

>  <r_i_glide_energy>  (1) 
-17.371339342269884

>  <r_i_glide_erotb>  (1) 
0

>  <r_i_glide_esite>  (1) 
0

>  <r_i_glide_evdw>  (1) 
-16.363111636846611

>  <r_i_glide_gscore>  (1) 
-5.7097250673766222

>  <r_i_glide_gscore_strain>  (1) 
0

>  <r_i_glide_hbond>  (1) 
0

>  <r_i_glide_ligand_efficiency>  (1) 
-0.81567500962523176

>  <r_i_glide_ligand_efficiency_ln>  (1) 
-1.9381871063540759

>  <r_i_glide_ligand_efficiency_sa>  (1) 
-1.5603301609202744

>  <r_i_glide_lipo>  (1) 
-2.166347363550345

>  <r_i_glide_metal>  (1) 
-0

>  <r_i_glide_rewards>  (1) 
-2.5739879661704554

>  <r_lp_Energy>  (1) 
6.403492

>  <r_lp_tautomer_probability>  (1) 
1

>  <s_epik_cmdline>  (1) 
J2VwaWtfcHl0aG9uJywgJy1waHQnLCAnMS4wJywgJy1waCcsICc3LjQnLCAnLXRuJywgJzgnLCAnLW1hJywgJzUwMCcsICctaW1hZScsICc8aW5maWxlLm1hZT4nLCAnLW9tYWUnLCAnPG91dGZpbGUubWFlPic=

>  <s_epik_input>  (1) 
W0NIM11jMVtjSF1bY0hdW2NIXVtjSF1bY0hdMQ==

>  <s_glide_docking_method>  (1) 
confgen

>  <s_i_glide_gridfile>  (1) 
gpcr_5ht2c_6bqh_protein_autoprepared_prepared

>  <s_lp_Force_Field>  (1) 
S-OPLS

>  <s_lp_Variant>  (1) 
Pocket2Mol_25-1

>  <s_m_source_file>  (1) 
generated_GPCR_5HT2C_ligand_Pocket2Mol_2026-06-23_prepared.sdf

>  <GenAI_Model>  (1) 
Pocket2Mol

>  <Protein>  (1) 
GPCR_5HT2C

$$$$
Pocket2Mol_25
     RDKit          3D

  0  0  0  0  0  0  0  0  0  0999 V3000
M  V30 BEGIN CTAB
M  V30 COUNTS 15 15 0 0 1
M  V30 BEGIN ATOM
M  V30 1 C 38.811854 27.904022 51.643662 0
M  V30 2 C 39.634551 28.826204 50.968469 0
M  V30 3 C 40.046994 30.006949 51.615283 0
M  V30 4 C 38.400132 28.163241 52.967275 0
M  V30 5 C 39.644053 30.263496 52.940613 0
M  V30 6 C 37.504919 27.178232 53.688303 0
M  V30 7 C 38.819201 29.343279 53.616304 0
M  V30 8 H 38.491709 27.000220 51.144717 0
M  V30 9 H 39.945715 28.629562 49.953288 0
M  V30 10 H 40.676528 30.715372 51.096173 0
M  V30 11 H 39.963384 31.168711 53.436631 0
M  V30 12 H 37.569445 27.301139 54.769836 0
M  V30 13 H 36.470192 27.337755 53.383890 0
M  V30 14 H 37.779873 26.151738 53.445290 0
M  V30 15 H 38.505542 29.544245 54.630667 0
M  V30 END ATOM
M  V30 BEGIN BOND
M  V30 1 1 2 1
M  V30 2 2 3 2
M  V30 3 2 4 1
M  V30 4 1 5 3
M  V30 5 1 6 4
M  V30 6 1 7 4
M  V30 7 2 7 5
M  V30 8 1 8 1
M  V30 9 1 9 2
M  V30 10 1 10 3
M  V30 11 1 11 5
M  V30 12 1 12 6
M  V30 13 1 13 6
M  V30 14 1 14 6
M  V30 15 1 15 7
M  V30 END BOND
M  V30 END CTAB
M  END
>  <i_epik_Tot_Q>  (1) 
0

>  <i_epik_Tot_abs_Q>  (1) 
0

>  <i_i_glide_confnum>  (1) 
1

>  <i_i_glide_lignum>  (1) 
26

>  <i_i_glide_posenum>  (1) 
364

>  <i_i_glide_rotatable_bonds>  (1) 
0

>  <i_lp_mmshare_version>  (1) 
72125

>  <i_m_source_file_index>  (1) 
26

>  <i_f3d_flags>  (1) 
0

>  <num_sample>  (1) 
50

>  <b_lp_Chiralities_Consistent>  (1) 
1

>  <r_epik_Charging_Adjusted_Penalty>  (1) 
0

>  <r_epik_Ionization_Penalty>  (1) 
0

>  <r_epik_Ionization_Penalty_Charging>  (1) 
0

>  <r_epik_Ionization_Penalty_Neutral>  (1) 
0

>  <r_epik_State_Penalty>  (1) 
-0

>  <r_glide_ring_energy>  (1) 
0

>  <r_i_docking_score>  (1) 
-5.6824139360537504

>  <r_i_glide_ecoul>  (1) 
-0.87711645684072947

>  <r_i_glide_eff_state_penalty>  (1) 
-0

>  <r_i_glide_einternal>  (1) 
0

>  <r_i_glide_emodel>  (1) 
-23.753080957449249

>  <r_i_glide_emodel_strain>  (1) 
0

>  <r_i_glide_energy>  (1) 
-17.584488710094409

>  <r_i_glide_erotb>  (1) 
0

>  <r_i_glide_esite>  (1) 
0

>  <r_i_glide_evdw>  (1) 
-16.707372253253681

>  <r_i_glide_gscore>  (1) 
-5.6824139360537504

>  <r_i_glide_gscore_strain>  (1) 
0

>  <r_i_glide_hbond>  (1) 
0

>  <r_i_glide_ligand_efficiency>  (1) 
-0.81177341943625003

>  <r_i_glide_ligand_efficiency_ln>  (1) 
-1.9289162427020972

>  <r_i_glide_ligand_efficiency_sa>  (1) 
-1.5528666873853727

>  <r_i_glide_lipo>  (1) 
-2.1758195695782607

>  <r_i_glide_metal>  (1) 
-0

>  <r_i_glide_rewards>  (1) 
-2.5396582852866971

>  <r_lp_Energy>  (1) 
6.403492

>  <r_lp_tautomer_probability>  (1) 
1

>  <s_epik_cmdline>  (1) 
J2VwaWtfcHl0aG9uJywgJy1waHQnLCAnMS4wJywgJy1waCcsICc3LjQnLCAnLXRuJywgJzgnLCAnLW1hJywgJzUwMCcsICctaW1hZScsICc8aW5maWxlLm1hZT4nLCAnLW9tYWUnLCAnPG91dGZpbGUubWFlPic=

>  <s_epik_input>  (1) 
W0NIM11jMVtjSF1bY0hdW2NIXVtjSF1bY0hdMQ==

>  <s_glide_docking_method>  (1) 
confgen

>  <s_i_glide_gridfile>  (1) 
gpcr_5ht2c_6bqh_protein_autoprepared_prepared

>  <s_lp_Force_Field>  (1) 
S-OPLS

>  <s_lp_Variant>  (1) 
Pocket2Mol_25-1

>  <s_m_source_file>  (1) 
generated_GPCR_5HT2C_ligand_Pocket2Mol_2026-06-23_prepared.sdf

>  <GenAI_Model>  (1) 
Pocket2Mol

>  <Protein>  (1) 
GPCR_5HT2C

$$$$
Pocket2Mol_39
     RDKit          3D

  0  0  0  0  0  0  0  0  0  0999 V3000
M  V30 BEGIN CTAB
M  V30 COUNTS 15 15 0 0 1
M  V30 BEGIN ATOM
M  V30 1 C 39.025416 27.551011 51.734278 0
M  V30 2 C 39.645136 28.492271 50.850207 0
M  V30 3 C 39.827518 29.724306 51.422398 0
M  V30 4 C 40.427139 30.936484 50.804268 0
M  V30 5 C 38.744468 28.079737 52.969834 0
M  V30 6 C 38.102704 27.401261 54.131503 0
M  V30 7 S 39.245134 29.737544 53.057558 0
M  V30 8 H 38.810495 26.537912 51.434504 0
M  V30 9 H 39.926090 28.235518 49.841031 0
M  V30 10 H 40.872962 30.710930 49.835030 0
M  V30 11 H 39.670063 31.707581 50.656308 0
M  V30 12 H 41.207315 31.337752 51.446693 0
M  V30 13 H 37.840248 26.370535 53.890762 0
M  V30 14 H 38.773305 27.389314 54.990711 0
M  V30 15 H 37.190249 27.920068 54.424234 0
M  V30 END ATOM
M  V30 BEGIN BOND
M  V30 1 1 2 1
M  V30 2 2 3 2
M  V30 3 1 4 3
M  V30 4 2 5 1
M  V30 5 1 6 5
M  V30 6 1 7 3
M  V30 7 1 7 5
M  V30 8 1 8 1
M  V30 9 1 9 2
M  V30 10 1 10 4
M  V30 11 1 11 4
M  V30 12 1 12 4
M  V30 13 1 13 6
M  V30 14 1 14 6
M  V30 15 1 15 6
M  V30 END BOND
M  V30 END CTAB
M  END
>  <i_epik_Tot_Q>  (1) 
0

>  <i_epik_Tot_abs_Q>  (1) 
0

>  <i_i_glide_confnum>  (1) 
1

>  <i_i_glide_lignum>  (1) 
40

>  <i_i_glide_posenum>  (1) 
287

>  <i_i_glide_rotatable_bonds>  (1) 
0

>  <i_lp_mmshare_version>  (1) 
72125

>  <i_m_source_file_index>  (1) 
40

>  <i_f3d_flags>  (1) 
0

>  <num_sample>  (1) 
50

>  <b_lp_Chiralities_Consistent>  (1) 
1

>  <r_epik_Charging_Adjusted_Penalty>  (1) 
0

>  <r_epik_Ionization_Penalty>  (1) 
0

>  <r_epik_Ionization_Penalty_Charging>  (1) 
0

>  <r_epik_Ionization_Penalty_Neutral>  (1) 
0

>  <r_epik_State_Penalty>  (1) 
-0

>  <r_glide_ring_energy>  (1) 
0

>  <r_i_docking_score>  (1) 
-5.6726490896230333

>  <r_i_glide_ecoul>  (1) 
-0.60952908112515225

>  <r_i_glide_eff_state_penalty>  (1) 
-0

>  <r_i_glide_einternal>  (1) 
0

>  <r_i_glide_emodel>  (1) 
-24.639891325239663

>  <r_i_glide_emodel_strain>  (1) 
0

>  <r_i_glide_energy>  (1) 
-18.040190886051931

>  <r_i_glide_erotb>  (1) 
0

>  <r_i_glide_esite>  (1) 
0

>  <r_i_glide_evdw>  (1) 
-17.430661804926778

>  <r_i_glide_gscore>  (1) 
-5.6726490896230333

>  <r_i_glide_gscore_strain>  (1) 
0

>  <r_i_glide_hbond>  (1) 
0

>  <r_i_glide_ligand_efficiency>  (1) 
-0.81037844137471904

>  <r_i_glide_ligand_efficiency_ln>  (1) 
-1.9256015297826117

>  <r_i_glide_ligand_efficiency_sa>  (1) 
-1.5501981903521866

>  <r_i_glide_lipo>  (1) 
-2.133213207945353

>  <r_i_glide_metal>  (1) 
-0

>  <r_i_glide_rewards>  (1) 
-2.5764734292625686

>  <r_lp_Energy>  (1) 
3.6641779999999997

>  <r_lp_tautomer_probability>  (1) 
1

>  <s_epik_cmdline>  (1) 
J2VwaWtfcHl0aG9uJywgJy1waHQnLCAnMS4wJywgJy1waCcsICc3LjQnLCAnLXRuJywgJzgnLCAnLW1hJywgJzUwMCcsICctaW1hZScsICc8aW5maWxlLm1hZT4nLCAnLW9tYWUnLCAnPG91dGZpbGUubWFlPic=

>  <s_epik_input>  (1) 
W0NIM11jKHMxKVtjSF1bY0hdYzFbQ0gzXQ==

>  <s_glide_docking_method>  (1) 
confgen

>  <s_i_glide_gridfile>  (1) 
gpcr_5ht2c_6bqh_protein_autoprepared_prepared

>  <s_lp_Force_Field>  (1) 
S-OPLS

>  <s_lp_Variant>  (1) 
Pocket2Mol_39-1

>  <s_m_source_file>  (1) 
generated_GPCR_5HT2C_ligand_Pocket2Mol_2026-06-23_prepared.sdf

>  <GenAI_Model>  (1) 
Pocket2Mol

>  <Protein>  (1) 
GPCR_5HT2C

$$$$
Pocket2Mol_27
     RDKit          3D

  0  0  0  0  0  0  0  0  0  0999 V3000
M  V30 BEGIN CTAB
M  V30 COUNTS 13 13 0 0 1
M  V30 BEGIN ATOM
M  V30 1 C 37.646073 28.389050 53.367762 0
M  V30 2 C 37.738917 29.424958 54.318834 0
M  V30 3 C 38.553981 28.338479 52.290359 0
M  V30 4 C 38.738033 30.410403 54.192591 0
M  V30 5 O 38.464763 27.337757 51.367786 0
M  V30 6 C 39.645149 30.360135 53.115798 0
M  V30 7 C 39.553566 29.324274 52.164806 0
M  V30 8 H 36.878869 27.634876 53.465095 0
M  V30 9 H 37.042571 29.465699 55.144156 0
M  V30 10 H 38.807167 31.205566 54.921280 0
M  V30 11 H 37.657884 26.840097 51.410957 0
M  V30 12 H 40.410363 31.116586 53.018096 0
M  V30 13 H 40.248812 29.286776 51.338560 0
M  V30 END ATOM
M  V30 BEGIN BOND
M  V30 1 1 2 1
M  V30 2 2 3 1
M  V30 3 2 4 2
M  V30 4 1 5 3
M  V30 5 1 6 4
M  V30 6 1 7 3
M  V30 7 2 7 6
M  V30 8 1 8 1
M  V30 9 1 9 2
M  V30 10 1 10 4
M  V30 11 1 11 5
M  V30 12 1 12 6
M  V30 13 1 13 7
M  V30 END BOND
M  V30 END CTAB
M  END
>  <i_epik_Tot_Q>  (1) 
0

>  <i_epik_Tot_abs_Q>  (1) 
0

>  <i_i_glide_confnum>  (1) 
1

>  <i_i_glide_lignum>  (1) 
28

>  <i_i_glide_posenum>  (1) 
224

>  <i_i_glide_rotatable_bonds>  (1) 
1

>  <i_lp_mmshare_version>  (1) 
72125

>  <i_m_source_file_index>  (1) 
28

>  <i_f3d_flags>  (1) 
0

>  <num_sample>  (1) 
50

>  <b_lp_Chiralities_Consistent>  (1) 
1

>  <r_epik_Charging_Adjusted_Penalty>  (1) 
0

>  <r_epik_Ionization_Penalty>  (1) 
0.0022482968708945868

>  <r_epik_Ionization_Penalty_Charging>  (1) 
0

>  <r_epik_Ionization_Penalty_Neutral>  (1) 
0.0022482968708945868

>  <r_epik_State_Penalty>  (1) 
-0

>  <r_glide_ring_energy>  (1) 
0

>  <r_i_docking_score>  (1) 
-5.6384472045453871

>  <r_i_glide_ecoul>  (1) 
-3.125659784925217

>  <r_i_glide_eff_state_penalty>  (1) 
-0

>  <r_i_glide_einternal>  (1) 
0.1231887873229804

>  <r_i_glide_emodel>  (1) 
-24.583357989127077

>  <r_i_glide_emodel_strain>  (1) 
0

>  <r_i_glide_energy>  (1) 
-18.081376255760333

>  <r_i_glide_erotb>  (1) 
0

>  <r_i_glide_esite>  (1) 
0

>  <r_i_glide_evdw>  (1) 
-14.955716470835117

>  <r_i_glide_gscore>  (1) 
-5.6384472045453871

>  <r_i_glide_gscore_strain>  (1) 
0

>  <r_i_glide_hbond>  (1) 
-0.32000000000000001

>  <r_i_glide_ligand_efficiency>  (1) 
-0.80549245779219814

>  <r_i_glide_ligand_efficiency_ln>  (1) 
-1.9139915745066118

>  <r_i_glide_ligand_efficiency_sa>  (1) 
-1.5408516399986685

>  <r_i_glide_lipo>  (1) 
-1.6983518323643134

>  <r_i_glide_metal>  (1) 
-0

>  <r_i_glide_rewards>  (1) 
-2.4034605809005347

>  <r_lp_Energy>  (1) 
6.6738649999999993

>  <r_lp_tautomer_probability>  (1) 
1

>  <s_epik_cmdline>  (1) 
J2VwaWtfcHl0aG9uJywgJy1waHQnLCAnMS4wJywgJy1waCcsICc3LjQnLCAnLXRuJywgJzgnLCAnLW1hJywgJzUwMCcsICctaW1hZScsICc8aW5maWxlLm1hZT4nLCAnLW9tYWUnLCAnPG91dGZpbGUubWFlPic=

>  <s_epik_input>  (1) 
W09IXWMxW2NIXVtjSF1bY0hdW2NIXVtjSF0x

>  <s_glide_docking_method>  (1) 
confgen

>  <s_i_glide_gridfile>  (1) 
gpcr_5ht2c_6bqh_protein_autoprepared_prepared

>  <s_lp_Force_Field>  (1) 
S-OPLS

>  <s_lp_Variant>  (1) 
Pocket2Mol_27-1

>  <s_m_source_file>  (1) 
generated_GPCR_5HT2C_ligand_Pocket2Mol_2026-06-23_prepared.sdf

>  <GenAI_Model>  (1) 
Pocket2Mol

>  <Protein>  (1) 
GPCR_5HT2C

$$$$
Pocket2Mol_39
     RDKit          3D

  0  0  0  0  0  0  0  0  0  0999 V3000
M  V30 BEGIN CTAB
M  V30 COUNTS 15 15 0 0 1
M  V30 BEGIN ATOM
M  V30 1 C 38.058435 27.838309 52.907924 0
M  V30 2 C 38.033141 28.777685 53.992310 0
M  V30 3 C 38.845169 29.864024 53.777074 0
M  V30 4 C 39.067614 31.035202 54.673812 0
M  V30 5 C 38.889727 28.225123 51.884783 0
M  V30 6 C 39.163950 27.514690 50.608626 0
M  V30 7 S 39.645137 29.737758 52.245345 0
M  V30 8 H 37.474052 26.929742 52.917772 0
M  V30 9 H 37.428767 28.624940 54.874303 0
M  V30 10 H 38.500643 30.936442 55.600070 0
M  V30 11 H 40.122566 31.132775 54.931512 0
M  V30 12 H 38.751380 31.958177 54.186999 0
M  V30 13 H 38.645718 26.556128 50.567756 0
M  V30 14 H 38.845164 28.128074 49.767794 0
M  V30 15 H 40.229272 27.337781 50.486923 0
M  V30 END ATOM
M  V30 BEGIN BOND
M  V30 1 1 2 1
M  V30 2 2 3 2
M  V30 3 1 4 3
M  V30 4 2 5 1
M  V30 5 1 6 5
M  V30 6 1 7 3
M  V30 7 1 7 5
M  V30 8 1 8 1
M  V30 9 1 9 2
M  V30 10 1 10 4
M  V30 11 1 11 4
M  V30 12 1 12 4
M  V30 13 1 13 6
M  V30 14 1 14 6
M  V30 15 1 15 6
M  V30 END BOND
M  V30 END CTAB
M  END
>  <i_epik_Tot_Q>  (1) 
0

>  <i_epik_Tot_abs_Q>  (1) 
0

>  <i_i_glide_confnum>  (1) 
1

>  <i_i_glide_lignum>  (1) 
40

>  <i_i_glide_posenum>  (1) 
388

>  <i_i_glide_rotatable_bonds>  (1) 
0

>  <i_lp_mmshare_version>  (1) 
72125

>  <i_m_source_file_index>  (1) 
40

>  <i_f3d_flags>  (1) 
0

>  <num_sample>  (1) 
50

>  <b_lp_Chiralities_Consistent>  (1) 
1

>  <r_epik_Charging_Adjusted_Penalty>  (1) 
0

>  <r_epik_Ionization_Penalty>  (1) 
0

>  <r_epik_Ionization_Penalty_Charging>  (1) 
0

>  <r_epik_Ionization_Penalty_Neutral>  (1) 
0

>  <r_epik_State_Penalty>  (1) 
-0

>  <r_glide_ring_energy>  (1) 
0

>  <r_i_docking_score>  (1) 
-5.6354401961996867

>  <r_i_glide_ecoul>  (1) 
-0.89552841370016145

>  <r_i_glide_eff_state_penalty>  (1) 
-0

>  <r_i_glide_einternal>  (1) 
0

>  <r_i_glide_emodel>  (1) 
-24.696670155345711

>  <r_i_glide_emodel_strain>  (1) 
0

>  <r_i_glide_energy>  (1) 
-18.140259464278827

>  <r_i_glide_erotb>  (1) 
0

>  <r_i_glide_esite>  (1) 
0

>  <r_i_glide_evdw>  (1) 
-17.244731050578665

>  <r_i_glide_gscore>  (1) 
-5.6354401961996867

>  <r_i_glide_gscore_strain>  (1) 
0

>  <r_i_glide_hbond>  (1) 
0

>  <r_i_glide_ligand_efficiency>  (1) 
-0.8050628851713838

>  <r_i_glide_ligand_efficiency_ln>  (1) 
-1.9129708344997707

>  <r_i_glide_ligand_efficiency_sa>  (1) 
-1.5400298971370474

>  <r_i_glide_lipo>  (1) 
-2.0888743816157298

>  <r_i_glide_metal>  (1) 
-0

>  <r_i_glide_rewards>  (1) 
-2.5499999999999998

>  <r_lp_Energy>  (1) 
3.6641779999999997

>  <r_lp_tautomer_probability>  (1) 
1

>  <s_epik_cmdline>  (1) 
J2VwaWtfcHl0aG9uJywgJy1waHQnLCAnMS4wJywgJy1waCcsICc3LjQnLCAnLXRuJywgJzgnLCAnLW1hJywgJzUwMCcsICctaW1hZScsICc8aW5maWxlLm1hZT4nLCAnLW9tYWUnLCAnPG91dGZpbGUubWFlPic=

>  <s_epik_input>  (1) 
W0NIM11jKHMxKVtjSF1bY0hdYzFbQ0gzXQ==

>  <s_glide_docking_method>  (1) 
confgen

>  <s_i_glide_gridfile>  (1) 
gpcr_5ht2c_6bqh_protein_autoprepared_prepared

>  <s_lp_Force_Field>  (1) 
S-OPLS

>  <s_lp_Variant>  (1) 
Pocket2Mol_39-1

>  <s_m_source_file>  (1) 
generated_GPCR_5HT2C_ligand_Pocket2Mol_2026-06-23_prepared.sdf

>  <GenAI_Model>  (1) 
Pocket2Mol

>  <Protein>  (1) 
GPCR_5HT2C

$$$$
Pocket2Mol_32
     RDKit          3D

  0  0  0  0  0  0  0  0  0  0999 V3000
M  V30 BEGIN CTAB
M  V30 COUNTS 12 12 0 0 1
M  V30 BEGIN ATOM
M  V30 1 C 38.669992 28.120175 52.044571 0
M  V30 2 C 38.200478 28.422701 53.338135 0
M  V30 3 C 38.653493 29.581865 53.998654 0
M  V30 4 C 39.575914 30.438266 53.365501 0
M  V30 5 C 39.592243 28.976379 51.411483 0
M  V30 6 F 40.043262 28.685477 50.168485 0
M  V30 7 C 40.045137 30.135315 52.071929 0
M  V30 8 H 38.323500 27.231938 51.537209 0
M  V30 9 H 37.493343 27.765842 53.823076 0
M  V30 10 H 38.293624 29.813978 54.990444 0
M  V30 11 H 39.923516 31.327021 53.871425 0
M  V30 12 H 40.752212 30.790977 51.585529 0
M  V30 END ATOM
M  V30 BEGIN BOND
M  V30 1 1 2 1
M  V30 2 2 3 2
M  V30 3 1 4 3
M  V30 4 2 5 1
M  V30 5 1 6 5
M  V30 6 2 7 4
M  V30 7 1 7 5
M  V30 8 1 8 1
M  V30 9 1 9 2
M  V30 10 1 10 3
M  V30 11 1 11 4
M  V30 12 1 12 7
M  V30 END BOND
M  V30 END CTAB
M  END
>  <i_epik_Tot_Q>  (1) 
0

>  <i_epik_Tot_abs_Q>  (1) 
0

>  <i_i_glide_confnum>  (1) 
1

>  <i_i_glide_lignum>  (1) 
33

>  <i_i_glide_posenum>  (1) 
86

>  <i_i_glide_rotatable_bonds>  (1) 
0

>  <i_lp_mmshare_version>  (1) 
72125

>  <i_m_source_file_index>  (1) 
33

>  <i_f3d_flags>  (1) 
0

>  <num_sample>  (1) 
50

>  <b_lp_Chiralities_Consistent>  (1) 
1

>  <r_epik_Charging_Adjusted_Penalty>  (1) 
0

>  <r_epik_Ionization_Penalty>  (1) 
0

>  <r_epik_Ionization_Penalty_Charging>  (1) 
0

>  <r_epik_Ionization_Penalty_Neutral>  (1) 
0

>  <r_epik_State_Penalty>  (1) 
-0

>  <r_glide_ring_energy>  (1) 
0

>  <r_i_docking_score>  (1) 
-5.6217370380815304

>  <r_i_glide_ecoul>  (1) 
-0.76700264728524137

>  <r_i_glide_eff_state_penalty>  (1) 
-0

>  <r_i_glide_einternal>  (1) 
0

>  <r_i_glide_emodel>  (1) 
-20.879007480531236

>  <r_i_glide_emodel_strain>  (1) 
0

>  <r_i_glide_energy>  (1) 
-15.337442309368928

>  <r_i_glide_erotb>  (1) 
0

>  <r_i_glide_esite>  (1) 
0

>  <r_i_glide_evdw>  (1) 
-14.570439662083686

>  <r_i_glide_gscore>  (1) 
-5.6217370380815304

>  <r_i_glide_gscore_strain>  (1) 
0

>  <r_i_glide_hbond>  (1) 
0

>  <r_i_glide_ligand_efficiency>  (1) 
-0.80310529115450435

>  <r_i_glide_ligand_efficiency_ln>  (1) 
-1.9083192472398705

>  <r_i_glide_ligand_efficiency_sa>  (1) 
-1.53628515449895

>  <r_i_glide_lipo>  (1) 
-1.8109739322974272

>  <r_i_glide_metal>  (1) 
-0

>  <r_i_glide_rewards>  (1) 
-2.9671907255871321

>  <r_lp_Energy>  (1) 
8.194445

>  <r_lp_tautomer_probability>  (1) 
1

>  <s_epik_cmdline>  (1) 
J2VwaWtfcHl0aG9uJywgJy1waHQnLCAnMS4wJywgJy1waCcsICc3LjQnLCAnLXRuJywgJzgnLCAnLW1hJywgJzUwMCcsICctaW1hZScsICc8aW5maWxlLm1hZT4nLCAnLW9tYWUnLCAnPG91dGZpbGUubWFlPic=

>  <s_epik_input>  (1) 
RmMxW2NIXVtjSF1bY0hdW2NIXVtjSF0x

>  <s_glide_docking_method>  (1) 
confgen

>  <s_i_glide_gridfile>  (1) 
gpcr_5ht2c_6bqh_protein_autoprepared_prepared

>  <s_lp_Force_Field>  (1) 
S-OPLS

>  <s_lp_Variant>  (1) 
Pocket2Mol_32-1

>  <s_m_source_file>  (1) 
generated_GPCR_5HT2C_ligand_Pocket2Mol_2026-06-23_prepared.sdf

>  <GenAI_Model>  (1) 
Pocket2Mol

>  <Protein>  (1) 
GPCR_5HT2C

$$$$
Pocket2Mol_27
     RDKit          3D

  0  0  0  0  0  0  0  0  0  0999 V3000
M  V30 BEGIN CTAB
M  V30 COUNTS 13 13 0 0 1
M  V30 BEGIN ATOM
M  V30 1 C 40.039131 30.424853 52.364111 0
M  V30 2 C 39.245137 29.742954 53.309710 0
M  V30 3 C 40.235827 29.875263 51.082408 0
M  V30 4 C 38.651811 28.510394 52.973270 0
M  V30 5 O 40.997146 30.537755 50.163850 0
M  V30 6 C 38.852591 27.959189 51.693231 0
M  V30 7 C 39.645134 28.641162 50.748604 0
M  V30 8 H 40.491171 31.367882 52.622688 0
M  V30 9 H 39.091671 30.166036 54.291946 0
M  V30 10 H 38.043597 27.988063 53.697112 0
M  V30 11 H 41.251801 31.410819 50.428092 0
M  V30 12 H 38.397007 27.013974 51.434339 0
M  V30 13 H 39.795780 28.219721 49.767760 0
M  V30 END ATOM
M  V30 BEGIN BOND
M  V30 1 1 2 1
M  V30 2 2 3 1
M  V30 3 2 4 2
M  V30 4 1 5 3
M  V30 5 1 6 4
M  V30 6 1 7 3
M  V30 7 2 7 6
M  V30 8 1 8 1
M  V30 9 1 9 2
M  V30 10 1 10 4
M  V30 11 1 11 5
M  V30 12 1 12 6
M  V30 13 1 13 7
M  V30 END BOND
M  V30 END CTAB
M  END
>  <i_epik_Tot_Q>  (1) 
0

>  <i_epik_Tot_abs_Q>  (1) 
0

>  <i_i_glide_confnum>  (1) 
1

>  <i_i_glide_lignum>  (1) 
28

>  <i_i_glide_posenum>  (1) 
41

>  <i_i_glide_rotatable_bonds>  (1) 
1

>  <i_lp_mmshare_version>  (1) 
72125

>  <i_m_source_file_index>  (1) 
28

>  <i_f3d_flags>  (1) 
0

>  <num_sample>  (1) 
50

>  <b_lp_Chiralities_Consistent>  (1) 
1

>  <r_epik_Charging_Adjusted_Penalty>  (1) 
0

>  <r_epik_Ionization_Penalty>  (1) 
0.0022482968708945868

>  <r_epik_Ionization_Penalty_Charging>  (1) 
0

>  <r_epik_Ionization_Penalty_Neutral>  (1) 
0.0022482968708945868

>  <r_epik_State_Penalty>  (1) 
-0

>  <r_glide_ring_energy>  (1) 
0

>  <r_i_docking_score>  (1) 
-5.6060428711558643

>  <r_i_glide_ecoul>  (1) 
-2.132511659133884

>  <r_i_glide_eff_state_penalty>  (1) 
-0

>  <r_i_glide_einternal>  (1) 
0.069020909306089395

>  <r_i_glide_emodel>  (1) 
-25.366975704274559

>  <r_i_glide_emodel_strain>  (1) 
0

>  <r_i_glide_energy>  (1) 
-18.875631110297743

>  <r_i_glide_erotb>  (1) 
0

>  <r_i_glide_esite>  (1) 
0

>  <r_i_glide_evdw>  (1) 
-16.74311945116386

>  <r_i_glide_gscore>  (1) 
-5.6060428711558643

>  <r_i_glide_gscore_strain>  (1) 
0

>  <r_i_glide_hbond>  (1) 
0

>  <r_i_glide_ligand_efficiency>  (1) 
-0.80086326730798063

>  <r_i_glide_ligand_efficiency_ln>  (1) 
-1.9029918047410899

>  <r_i_glide_ligand_efficiency_sa>  (1) 
-1.5319963171704154

>  <r_i_glide_lipo>  (1) 
-1.7500849898790258

>  <r_i_glide_metal>  (1) 
-0

>  <r_i_glide_rewards>  (1) 
-2.6989251598485633

>  <r_lp_Energy>  (1) 
6.6738649999999993

>  <r_lp_tautomer_probability>  (1) 
1

>  <s_epik_cmdline>  (1) 
J2VwaWtfcHl0aG9uJywgJy1waHQnLCAnMS4wJywgJy1waCcsICc3LjQnLCAnLXRuJywgJzgnLCAnLW1hJywgJzUwMCcsICctaW1hZScsICc8aW5maWxlLm1hZT4nLCAnLW9tYWUnLCAnPG91dGZpbGUubWFlPic=

>  <s_epik_input>  (1) 
W09IXWMxW2NIXVtjSF1bY0hdW2NIXVtjSF0x

>  <s_glide_docking_method>  (1) 
confgen

>  <s_i_glide_gridfile>  (1) 
gpcr_5ht2c_6bqh_protein_autoprepared_prepared

>  <s_lp_Force_Field>  (1) 
S-OPLS

>  <s_lp_Variant>  (1) 
Pocket2Mol_27-1

>  <s_m_source_file>  (1) 
generated_GPCR_5HT2C_ligand_Pocket2Mol_2026-06-23_prepared.sdf

>  <GenAI_Model>  (1) 
Pocket2Mol

>  <Protein>  (1) 
GPCR_5HT2C

$$$$
Pocket2Mol_27
     RDKit          3D

  0  0  0  0  0  0  0  0  0  0999 V3000
M  V30 BEGIN CTAB
M  V30 COUNTS 13 13 0 0 1
M  V30 BEGIN ATOM
M  V30 1 C 39.645136 28.638354 50.748442 0
M  V30 2 C 38.854899 27.953936 51.692915 0
M  V30 3 C 40.233761 29.873184 51.082623 0
M  V30 4 C 38.653909 28.504168 52.973447 0
M  V30 5 O 40.993216 30.537755 50.164095 0
M  V30 6 C 39.245137 29.737760 53.310128 0
M  V30 7 C 40.036925 30.421543 52.364652 0
M  V30 8 H 39.795799 28.218091 49.767761 0
M  V30 9 H 38.401432 27.007825 51.433783 0
M  V30 10 H 38.046974 27.980381 53.697503 0
M  V30 11 H 41.245117 31.411225 50.429308 0
M  V30 12 H 39.091552 30.160294 54.292486 0
M  V30 13 H 40.487358 31.365267 52.623530 0
M  V30 END ATOM
M  V30 BEGIN BOND
M  V30 1 1 2 1
M  V30 2 2 3 1
M  V30 3 2 4 2
M  V30 4 1 5 3
M  V30 5 1 6 4
M  V30 6 1 7 3
M  V30 7 2 7 6
M  V30 8 1 8 1
M  V30 9 1 9 2
M  V30 10 1 10 4
M  V30 11 1 11 5
M  V30 12 1 12 6
M  V30 13 1 13 7
M  V30 END BOND
M  V30 END CTAB
M  END
>  <i_epik_Tot_Q>  (1) 
0

>  <i_epik_Tot_abs_Q>  (1) 
0

>  <i_i_glide_confnum>  (1) 
1

>  <i_i_glide_lignum>  (1) 
28

>  <i_i_glide_posenum>  (1) 
372

>  <i_i_glide_rotatable_bonds>  (1) 
1

>  <i_lp_mmshare_version>  (1) 
72125

>  <i_m_source_file_index>  (1) 
28

>  <i_f3d_flags>  (1) 
0

>  <num_sample>  (1) 
50

>  <b_lp_Chiralities_Consistent>  (1) 
1

>  <r_epik_Charging_Adjusted_Penalty>  (1) 
0

>  <r_epik_Ionization_Penalty>  (1) 
0.0022482968708945868

>  <r_epik_Ionization_Penalty_Charging>  (1) 
0

>  <r_epik_Ionization_Penalty_Neutral>  (1) 
0.0022482968708945868

>  <r_epik_State_Penalty>  (1) 
-0

>  <r_glide_ring_energy>  (1) 
0

>  <r_i_docking_score>  (1) 
-5.606023220632542

>  <r_i_glide_ecoul>  (1) 
-2.1283093719466839

>  <r_i_glide_eff_state_penalty>  (1) 
-0

>  <r_i_glide_einternal>  (1) 
0.051415254704234144

>  <r_i_glide_emodel>  (1) 
-25.378662951656526

>  <r_i_glide_emodel_strain>  (1) 
0

>  <r_i_glide_energy>  (1) 
-18.878538405064145

>  <r_i_glide_erotb>  (1) 
0

>  <r_i_glide_esite>  (1) 
0

>  <r_i_glide_evdw>  (1) 
-16.75022903311746

>  <r_i_glide_gscore>  (1) 
-5.606023220632542

>  <r_i_glide_gscore_strain>  (1) 
0

>  <r_i_glide_hbond>  (1) 
0

>  <r_i_glide_ligand_efficiency>  (1) 
-0.80086046009036316

>  <r_i_glide_ligand_efficiency_ln>  (1) 
-1.9029851342989081

>  <r_i_glide_ligand_efficiency_sa>  (1) 
-1.5319909471562982

>  <r_i_glide_lipo>  (1) 
-1.7508380058746227

>  <r_i_glide_metal>  (1) 
-0

>  <r_i_glide_rewards>  (1) 
-2.6984273573100435

>  <r_lp_Energy>  (1) 
6.6738649999999993

>  <r_lp_tautomer_probability>  (1) 
1

>  <s_epik_cmdline>  (1) 
J2VwaWtfcHl0aG9uJywgJy1waHQnLCAnMS4wJywgJy1waCcsICc3LjQnLCAnLXRuJywgJzgnLCAnLW1hJywgJzUwMCcsICctaW1hZScsICc8aW5maWxlLm1hZT4nLCAnLW9tYWUnLCAnPG91dGZpbGUubWFlPic=

>  <s_epik_input>  (1) 
W09IXWMxW2NIXVtjSF1bY0hdW2NIXVtjSF0x

>  <s_glide_docking_method>  (1) 
confgen

>  <s_i_glide_gridfile>  (1) 
gpcr_5ht2c_6bqh_protein_autoprepared_prepared

>  <s_lp_Force_Field>  (1) 
S-OPLS

>  <s_lp_Variant>  (1) 
Pocket2Mol_27-1

>  <s_m_source_file>  (1) 
generated_GPCR_5HT2C_ligand_Pocket2Mol_2026-06-23_prepared.sdf

>  <GenAI_Model>  (1) 
Pocket2Mol

>  <Protein>  (1) 
GPCR_5HT2C

$$$$
Pocket2Mol_34
     RDKit          3D

  0  0  0  0  0  0  0  0  0  0999 V3000
M  V30 BEGIN CTAB
M  V30 COUNTS 19 19 0 0 1
M  V30 BEGIN ATOM
M  V30 1 C 38.931864 27.863910 51.450879 0
M  V30 2 C 38.773753 27.916195 52.977923 0
M  V30 3 C 40.119399 28.719090 50.989617 0
M  V30 4 O 37.634493 27.178152 53.367737 0
M  V30 5 C 40.020395 30.176390 51.458917 0
M  V30 6 C 39.712326 30.310126 52.967763 0
M  V30 7 C 38.600741 29.364337 53.460969 0
M  V30 8 H 39.071068 26.834673 51.117771 0
M  V30 9 H 38.025840 28.224661 50.967762 0
M  V30 10 H 39.645134 27.464110 53.451209 0
M  V30 11 H 41.044842 28.291629 51.369398 0
M  V30 12 H 40.189851 28.691192 49.901987 0
M  V30 13 H 37.437545 26.537764 52.697638 0
M  V30 14 H 40.939972 30.711720 51.220148 0
M  V30 15 H 39.245138 30.666189 50.873995 0
M  V30 16 H 40.616019 30.137756 53.547072 0
M  V30 17 H 39.433305 31.340924 53.187675 0
M  V30 18 H 37.645136 29.737740 53.107174 0
M  V30 19 H 38.548242 29.393964 54.550056 0
M  V30 END ATOM
M  V30 BEGIN BOND
M  V30 1 1 2 1
M  V30 2 1 3 1
M  V30 3 1 4 2
M  V30 4 1 5 3
M  V30 5 1 6 5
M  V30 6 1 7 2
M  V30 7 1 7 6
M  V30 8 1 8 1
M  V30 9 1 9 1
M  V30 10 1 10 2
M  V30 11 1 11 3
M  V30 12 1 12 3
M  V30 13 1 13 4
M  V30 14 1 14 5
M  V30 15 1 15 5
M  V30 16 1 16 6
M  V30 17 1 17 6
M  V30 18 1 18 7
M  V30 19 1 19 7
M  V30 END BOND
M  V30 END CTAB
M  END
>  <i_epik_Tot_Q>  (1) 
0

>  <i_epik_Tot_abs_Q>  (1) 
0

>  <i_i_glide_confnum>  (1) 
1

>  <i_i_glide_lignum>  (1) 
35

>  <i_i_glide_posenum>  (1) 
153

>  <i_i_glide_rotatable_bonds>  (1) 
1

>  <i_lp_mmshare_version>  (1) 
72125

>  <i_m_source_file_index>  (1) 
35

>  <i_f3d_flags>  (1) 
0

>  <num_sample>  (1) 
50

>  <b_lp_Chiralities_Consistent>  (1) 
1

>  <r_epik_Charging_Adjusted_Penalty>  (1) 
0

>  <r_epik_Ionization_Penalty>  (1) 
4.7751045033339745e-07

>  <r_epik_Ionization_Penalty_Charging>  (1) 
0

>  <r_epik_Ionization_Penalty_Neutral>  (1) 
4.7751045033339745e-07

>  <r_epik_State_Penalty>  (1) 
-0

>  <r_glide_ring_energy>  (1) 
0

>  <r_i_docking_score>  (1) 
-5.5915617601247734

>  <r_i_glide_ecoul>  (1) 
-1.4932810538668426

>  <r_i_glide_eff_state_penalty>  (1) 
-0

>  <r_i_glide_einternal>  (1) 
0.97971907945357617

>  <r_i_glide_emodel>  (1) 
-22.171076201459165

>  <r_i_glide_emodel_strain>  (1) 
0.34653303032426752

>  <r_i_glide_energy>  (1) 
-17.676886058928467

>  <r_i_glide_erotb>  (1) 
0

>  <r_i_glide_esite>  (1) 
0

>  <r_i_glide_evdw>  (1) 
-16.183605005061626

>  <r_i_glide_gscore>  (1) 
-5.5915617601247734

>  <r_i_glide_gscore_strain>  (1) 
0

>  <r_i_glide_hbond>  (1) 
-0.079283297274838335

>  <r_i_glide_ligand_efficiency>  (1) 
-0.79879453716068194

>  <r_i_glide_ligand_efficiency_ln>  (1) 
-1.8980761385128668

>  <r_i_glide_ligand_efficiency_sa>  (1) 
-1.5280389787629065

>  <r_i_glide_lipo>  (1) 
-1.8857455364690523

>  <r_i_glide_metal>  (1) 
-0

>  <r_i_glide_rewards>  (1) 
-2.593360518047775

>  <r_lp_Energy>  (1) 
3.8568439999999997

>  <r_lp_tautomer_probability>  (1) 
1

>  <s_epik_cmdline>  (1) 
J2VwaWtfcHl0aG9uJywgJy1waHQnLCAnMS4wJywgJy1waCcsICc3LjQnLCAnLXRuJywgJzgnLCAnLW1hJywgJzUwMCcsICctaW1hZScsICc8aW5maWxlLm1hZT4nLCAnLW9tYWUnLCAnPG91dGZpbGUubWFlPic=

>  <s_epik_input>  (1) 
W09IXVtDSF0xW0NIMl1bQ0gyXVtDSDJdW0NIMl1bQ0gyXTE=

>  <s_glide_docking_method>  (1) 
confgen

>  <s_i_glide_gridfile>  (1) 
gpcr_5ht2c_6bqh_protein_autoprepared_prepared

>  <s_lp_Force_Field>  (1) 
S-OPLS

>  <s_lp_Variant>  (1) 
Pocket2Mol_34-1

>  <s_m_source_file>  (1) 
generated_GPCR_5HT2C_ligand_Pocket2Mol_2026-06-23_prepared.sdf

>  <GenAI_Model>  (1) 
Pocket2Mol

>  <Protein>  (1) 
GPCR_5HT2C

$$$$
Pocket2Mol_25
     RDKit          3D

  0  0  0  0  0  0  0  0  0  0999 V3000
M  V30 BEGIN CTAB
M  V30 COUNTS 15 15 0 0 1
M  V30 BEGIN ATOM
M  V30 1 C 39.613215 28.554678 50.853819 0
M  V30 2 C 38.962489 27.418257 51.367771 0
M  V30 3 C 38.452943 27.430312 52.681234 0
M  V30 4 C 39.753886 29.706523 51.650875 0
M  V30 5 C 38.594548 28.580382 53.481293 0
M  V30 6 C 40.445137 30.930302 51.092494 0
M  V30 7 C 39.245137 29.718909 52.967760 0
M  V30 8 H 40.000242 28.544577 49.845636 0
M  V30 9 H 38.851642 26.537755 50.753268 0
M  V30 10 H 37.952311 26.557447 53.073824 0
M  V30 11 H 38.203354 28.589902 54.488208 0
M  V30 12 H 40.445137 31.737754 51.821722 0
M  V30 13 H 41.477877 30.701868 50.829356 0
M  V30 14 H 39.930724 31.283358 50.197947 0
M  V30 15 H 39.351559 30.601819 53.581508 0
M  V30 END ATOM
M  V30 BEGIN BOND
M  V30 1 1 2 1
M  V30 2 2 3 2
M  V30 3 2 4 1
M  V30 4 1 5 3
M  V30 5 1 6 4
M  V30 6 1 7 4
M  V30 7 2 7 5
M  V30 8 1 8 1
M  V30 9 1 9 2
M  V30 10 1 10 3
M  V30 11 1 11 5
M  V30 12 1 12 6
M  V30 13 1 13 6
M  V30 14 1 14 6
M  V30 15 1 15 7
M  V30 END BOND
M  V30 END CTAB
M  END
>  <i_epik_Tot_Q>  (1) 
0

>  <i_epik_Tot_abs_Q>  (1) 
0

>  <i_i_glide_confnum>  (1) 
1

>  <i_i_glide_lignum>  (1) 
26

>  <i_i_glide_posenum>  (1) 
63

>  <i_i_glide_rotatable_bonds>  (1) 
0

>  <i_lp_mmshare_version>  (1) 
72125

>  <i_m_source_file_index>  (1) 
26

>  <i_f3d_flags>  (1) 
0

>  <num_sample>  (1) 
50

>  <b_lp_Chiralities_Consistent>  (1) 
1

>  <r_epik_Charging_Adjusted_Penalty>  (1) 
0

>  <r_epik_Ionization_Penalty>  (1) 
0

>  <r_epik_Ionization_Penalty_Charging>  (1) 
0

>  <r_epik_Ionization_Penalty_Neutral>  (1) 
0

>  <r_epik_State_Penalty>  (1) 
-0

>  <r_glide_ring_energy>  (1) 
0

>  <r_i_docking_score>  (1) 
-5.5456902371805654

>  <r_i_glide_ecoul>  (1) 
-1.043062622711161

>  <r_i_glide_eff_state_penalty>  (1) 
-0

>  <r_i_glide_einternal>  (1) 
0

>  <r_i_glide_emodel>  (1) 
-23.564545774715707

>  <r_i_glide_emodel_strain>  (1) 
0

>  <r_i_glide_energy>  (1) 
-17.544375088758859

>  <r_i_glide_erotb>  (1) 
0

>  <r_i_glide_esite>  (1) 
0

>  <r_i_glide_evdw>  (1) 
-16.501312466047697

>  <r_i_glide_gscore>  (1) 
-5.5456902371805654

>  <r_i_glide_gscore_strain>  (1) 
0

>  <r_i_glide_hbond>  (1) 
0

>  <r_i_glide_ligand_efficiency>  (1) 
-0.79224146245436644

>  <r_i_glide_ligand_efficiency_ln>  (1) 
-1.8825048818813916

>  <r_i_glide_ligand_efficiency_sa>  (1) 
-1.5155033978141585

>  <r_i_glide_lipo>  (1) 
-2.0211235634239091

>  <r_i_glide_metal>  (1) 
-0

>  <r_i_glide_rewards>  (1) 
-2.5430416570475969

>  <r_lp_Energy>  (1) 
6.403492

>  <r_lp_tautomer_probability>  (1) 
1

>  <s_epik_cmdline>  (1) 
J2VwaWtfcHl0aG9uJywgJy1waHQnLCAnMS4wJywgJy1waCcsICc3LjQnLCAnLXRuJywgJzgnLCAnLW1hJywgJzUwMCcsICctaW1hZScsICc8aW5maWxlLm1hZT4nLCAnLW9tYWUnLCAnPG91dGZpbGUubWFlPic=

>  <s_epik_input>  (1) 
W0NIM11jMVtjSF1bY0hdW2NIXVtjSF1bY0hdMQ==

>  <s_glide_docking_method>  (1) 
confgen

>  <s_i_glide_gridfile>  (1) 
gpcr_5ht2c_6bqh_protein_autoprepared_prepared

>  <s_lp_Force_Field>  (1) 
S-OPLS

>  <s_lp_Variant>  (1) 
Pocket2Mol_25-1

>  <s_m_source_file>  (1) 
generated_GPCR_5HT2C_ligand_Pocket2Mol_2026-06-23_prepared.sdf

>  <GenAI_Model>  (1) 
Pocket2Mol

>  <Protein>  (1) 
GPCR_5HT2C

$$$$
Pocket2Mol_28
     RDKit          3D

  0  0  0  0  0  0  0  0  0  0999 V3000
M  V30 BEGIN CTAB
M  V30 COUNTS 14 14 0 0 1
M  V30 BEGIN ATOM
M  V30 1 C 40.212210 30.126770 51.375186 0
M  V30 2 C 39.645137 30.137755 52.664955 0
M  V30 3 C 38.870028 29.043160 53.104259 0
M  V30 4 N 38.301376 29.056510 54.376359 0
M  V30 5 C 40.012191 29.021225 50.528309 0
M  V30 6 C 38.672374 27.936042 52.254263 0
M  V30 7 C 39.245136 27.924995 50.967760 0
M  V30 8 H 40.801324 30.967083 51.036985 0
M  V30 9 H 39.799850 30.987832 53.314254 0
M  V30 10 H 37.631250 28.350598 54.644567 0
M  V30 11 H 38.303550 29.900585 54.933074 0
M  V30 12 H 40.445138 29.014051 49.539743 0
M  V30 13 H 38.080667 27.095454 52.587458 0
M  V30 14 H 39.092885 27.076362 50.316162 0
M  V30 END ATOM
M  V30 BEGIN BOND
M  V30 1 1 2 1
M  V30 2 2 3 2
M  V30 3 1 4 3
M  V30 4 2 5 1
M  V30 5 1 6 3
M  V30 6 1 7 5
M  V30 7 2 7 6
M  V30 8 1 8 1
M  V30 9 1 9 2
M  V30 10 1 10 4
M  V30 11 1 11 4
M  V30 12 1 12 5
M  V30 13 1 13 6
M  V30 14 1 14 7
M  V30 END BOND
M  V30 END CTAB
M  END
>  <i_epik_Tot_Q>  (1) 
0

>  <i_epik_Tot_abs_Q>  (1) 
0

>  <i_i_glide_confnum>  (1) 
1

>  <i_i_glide_lignum>  (1) 
29

>  <i_i_glide_posenum>  (1) 
236

>  <i_i_glide_rotatable_bonds>  (1) 
0

>  <i_lp_mmshare_version>  (1) 
72125

>  <i_m_source_file_index>  (1) 
29

>  <i_f3d_flags>  (1) 
0

>  <num_sample>  (1) 
50

>  <b_lp_Chiralities_Consistent>  (1) 
1

>  <r_epik_Charging_Adjusted_Penalty>  (1) 
0

>  <r_epik_Ionization_Penalty>  (1) 
0.00088153335660618348

>  <r_epik_Ionization_Penalty_Charging>  (1) 
0

>  <r_epik_Ionization_Penalty_Neutral>  (1) 
0.00088153335660618348

>  <r_epik_State_Penalty>  (1) 
-0

>  <r_glide_ring_energy>  (1) 
0

>  <r_i_docking_score>  (1) 
-5.5283877898121494

>  <r_i_glide_ecoul>  (1) 
-0.99123300378046675

>  <r_i_glide_eff_state_penalty>  (1) 
-0

>  <r_i_glide_einternal>  (1) 
0

>  <r_i_glide_emodel>  (1) 
-23.750913930242504

>  <r_i_glide_emodel_strain>  (1) 
0

>  <r_i_glide_energy>  (1) 
-17.645451529673462

>  <r_i_glide_erotb>  (1) 
0

>  <r_i_glide_esite>  (1) 
0

>  <r_i_glide_evdw>  (1) 
-16.654218525892997

>  <r_i_glide_gscore>  (1) 
-5.5283877898121494

>  <r_i_glide_gscore_strain>  (1) 
0

>  <r_i_glide_hbond>  (1) 
0

>  <r_i_glide_ligand_efficiency>  (1) 
-0.7897696842588785

>  <r_i_glide_ligand_efficiency_ln>  (1) 
-1.8766315026902562

>  <r_i_glide_ligand_efficiency_sa>  (1) 
-1.5107750562271127

>  <r_i_glide_lipo>  (1) 
-1.9317758693640397

>  <r_i_glide_metal>  (1) 
-0

>  <r_i_glide_rewards>  (1) 
-2.6152160435863898

>  <r_lp_Energy>  (1) 
7.0325409999999993

>  <r_lp_tautomer_probability>  (1) 
1

>  <s_epik_cmdline>  (1) 
J2VwaWtfcHl0aG9uJywgJy1waHQnLCAnMS4wJywgJy1waCcsICc3LjQnLCAnLXRuJywgJzgnLCAnLW1hJywgJzUwMCcsICctaW1hZScsICc8aW5maWxlLm1hZT4nLCAnLW9tYWUnLCAnPG91dGZpbGUubWFlPic=

>  <s_epik_input>  (1) 
W2NIXTFbY0hdW2NIXVtjSF1bY0hdYzFbTkgyXQ==

>  <s_glide_docking_method>  (1) 
confgen

>  <s_i_glide_gridfile>  (1) 
gpcr_5ht2c_6bqh_protein_autoprepared_prepared

>  <s_lp_Force_Field>  (1) 
S-OPLS

>  <s_lp_Variant>  (1) 
Pocket2Mol_28-1

>  <s_m_source_file>  (1) 
generated_GPCR_5HT2C_ligand_Pocket2Mol_2026-06-23_prepared.sdf

>  <GenAI_Model>  (1) 
Pocket2Mol

>  <Protein>  (1) 
GPCR_5HT2C

$$$$
Pocket2Mol_8
     RDKit          3D

  0  0  0  0  0  0  0  0  0  0999 V3000
M  V30 BEGIN CTAB
M  V30 COUNTS 12 12 0 0 1
M  V30 BEGIN ATOM
M  V30 1 C 38.776520 29.172267 53.235270 0
M  V30 2 C 39.645137 30.065454 52.524219 0
M  V30 3 C 39.984161 29.600598 51.274213 0
M  V30 4 C 40.854027 30.259312 50.256881 0
M  V30 5 C 38.468986 28.046674 52.514471 0
M  V30 6 S 39.245230 28.059408 50.967760 0
M  V30 7 H 38.413290 29.388901 54.229373 0
M  V30 8 H 39.982485 31.001661 52.946304 0
M  V30 9 H 40.560361 31.298967 50.108769 0
M  V30 10 H 41.897591 30.243317 50.567816 0
M  V30 11 H 40.784096 29.751041 49.295002 0
M  V30 12 H 37.837051 27.217779 52.799818 0
M  V30 END ATOM
M  V30 BEGIN BOND
M  V30 1 1 2 1
M  V30 2 2 3 2
M  V30 3 1 4 3
M  V30 4 2 5 1
M  V30 5 1 6 3
M  V30 6 1 6 5
M  V30 7 1 7 1
M  V30 8 1 8 2
M  V30 9 1 9 4
M  V30 10 1 10 4
M  V30 11 1 11 4
M  V30 12 1 12 5
M  V30 END BOND
M  V30 END CTAB
M  END
>  <i_epik_Tot_Q>  (1) 
0

>  <i_epik_Tot_abs_Q>  (1) 
0

>  <i_i_glide_confnum>  (1) 
1

>  <i_i_glide_lignum>  (1) 
9

>  <i_i_glide_posenum>  (1) 
208

>  <i_i_glide_rotatable_bonds>  (1) 
0

>  <i_lp_mmshare_version>  (1) 
72125

>  <i_m_source_file_index>  (1) 
9

>  <i_f3d_flags>  (1) 
0

>  <num_sample>  (1) 
50

>  <b_lp_Chiralities_Consistent>  (1) 
1

>  <r_epik_Charging_Adjusted_Penalty>  (1) 
0

>  <r_epik_Ionization_Penalty>  (1) 
0

>  <r_epik_Ionization_Penalty_Charging>  (1) 
0

>  <r_epik_Ionization_Penalty_Neutral>  (1) 
0

>  <r_epik_State_Penalty>  (1) 
-0

>  <r_glide_ring_energy>  (1) 
0

>  <r_i_docking_score>  (1) 
-5.5283714773902668

>  <r_i_glide_ecoul>  (1) 
-0.86088958004004423

>  <r_i_glide_eff_state_penalty>  (1) 
-0

>  <r_i_glide_einternal>  (1) 
0

>  <r_i_glide_emodel>  (1) 
-25.183363551330398

>  <r_i_glide_emodel_strain>  (1) 
0.026534445688667585

>  <r_i_glide_energy>  (1) 
-19.028003215430356

>  <r_i_glide_erotb>  (1) 
0

>  <r_i_glide_esite>  (1) 
0

>  <r_i_glide_evdw>  (1) 
-18.167113635390312

>  <r_i_glide_gscore>  (1) 
-5.5283714773902668

>  <r_i_glide_gscore_strain>  (1) 
0

>  <r_i_glide_hbond>  (1) 
0

>  <r_i_glide_ligand_efficiency>  (1) 
-0.9213952462317111

>  <r_i_glide_ligand_efficiency_ln>  (1) 
-1.9802463422534422

>  <r_i_glide_ligand_efficiency_sa>  (1) 
-1.6742862760652824

>  <r_i_glide_lipo>  (1) 
-1.9336650028919176

>  <r_i_glide_metal>  (1) 
-0

>  <r_i_glide_rewards>  (1) 
-2.5572173557228268

>  <r_lp_Energy>  (1) 
3.145988

>  <r_lp_tautomer_probability>  (1) 
1

>  <s_epik_cmdline>  (1) 
J2VwaWtfcHl0aG9uJywgJy1waHQnLCAnMS4wJywgJy1waCcsICc3LjQnLCAnLXRuJywgJzgnLCAnLW1hJywgJzUwMCcsICctaW1hZScsICc8aW5maWxlLm1hZT4nLCAnLW9tYWUnLCAnPG91dGZpbGUubWFlPic=

>  <s_epik_input>  (1) 
czFbY0hdW2NIXVtjSF1jMVtDSDNd

>  <s_glide_docking_method>  (1) 
confgen

>  <s_i_glide_gridfile>  (1) 
gpcr_5ht2c_6bqh_protein_autoprepared_prepared

>  <s_lp_Force_Field>  (1) 
S-OPLS

>  <s_lp_Variant>  (1) 
Pocket2Mol_8-1

>  <s_m_source_file>  (1) 
generated_GPCR_5HT2C_ligand_Pocket2Mol_2026-06-23_prepared.sdf

>  <GenAI_Model>  (1) 
Pocket2Mol

>  <Protein>  (1) 
GPCR_5HT2C

$$$$
Pocket2Mol_34
     RDKit          3D

  0  0  0  0  0  0  0  0  0  0999 V3000
M  V30 BEGIN CTAB
M  V30 COUNTS 19 19 0 0 1
M  V30 BEGIN ATOM
M  V30 1 C 40.044693 30.570514 52.007188 0
M  V30 2 C 40.019256 29.175455 51.362593 0
M  V30 3 C 39.830163 30.537118 53.535355 0
M  V30 4 O 40.045138 29.324590 49.957074 0
M  V30 5 C 38.611563 29.693163 53.947895 0
M  V30 6 C 38.627692 28.295631 53.304113 0
M  V30 7 C 38.767898 28.381050 51.776122 0
M  V30 8 H 40.979701 31.072743 51.767712 0
M  V30 9 H 39.283907 31.196790 51.552879 0
M  V30 10 H 40.913034 28.624913 51.656298 0
M  V30 11 H 40.718327 30.137755 54.023943 0
M  V30 12 H 39.710489 31.553542 53.911953 0
M  V30 13 H 39.211149 29.673815 49.667590 0
M  V30 14 H 38.584870 29.600014 55.034322 0
M  V30 15 H 37.694627 30.213868 53.675865 0
M  V30 16 H 39.451071 27.710001 53.712895 0
M  V30 17 H 37.712980 27.760947 53.563794 0
M  V30 18 H 37.877117 28.859571 51.373106 0
M  V30 19 H 38.797896 27.378995 51.346558 0
M  V30 END ATOM
M  V30 BEGIN BOND
M  V30 1 1 2 1
M  V30 2 1 3 1
M  V30 3 1 4 2
M  V30 4 1 5 3
M  V30 5 1 6 5
M  V30 6 1 7 2
M  V30 7 1 7 6
M  V30 8 1 8 1
M  V30 9 1 9 1
M  V30 10 1 10 2
M  V30 11 1 11 3
M  V30 12 1 12 3
M  V30 13 1 13 4
M  V30 14 1 14 5
M  V30 15 1 15 5
M  V30 16 1 16 6
M  V30 17 1 17 6
M  V30 18 1 18 7
M  V30 19 1 19 7
M  V30 END BOND
M  V30 END CTAB
M  END
>  <i_epik_Tot_Q>  (1) 
0

>  <i_epik_Tot_abs_Q>  (1) 
0

>  <i_i_glide_confnum>  (1) 
1

>  <i_i_glide_lignum>  (1) 
35

>  <i_i_glide_posenum>  (1) 
266

>  <i_i_glide_rotatable_bonds>  (1) 
1

>  <i_lp_mmshare_version>  (1) 
72125

>  <i_m_source_file_index>  (1) 
35

>  <i_f3d_flags>  (1) 
0

>  <num_sample>  (1) 
50

>  <b_lp_Chiralities_Consistent>  (1) 
1

>  <r_epik_Charging_Adjusted_Penalty>  (1) 
0

>  <r_epik_Ionization_Penalty>  (1) 
4.7751045033339745e-07

>  <r_epik_Ionization_Penalty_Charging>  (1) 
0

>  <r_epik_Ionization_Penalty_Neutral>  (1) 
4.7751045033339745e-07

>  <r_epik_State_Penalty>  (1) 
-0

>  <r_glide_ring_energy>  (1) 
0

>  <r_i_docking_score>  (1) 
-5.5150567220901063

>  <r_i_glide_ecoul>  (1) 
-1.6660808100419151

>  <r_i_glide_eff_state_penalty>  (1) 
-0

>  <r_i_glide_einternal>  (1) 
0.044387678192191249

>  <r_i_glide_emodel>  (1) 
-21.176299252705949

>  <r_i_glide_emodel_strain>  (1) 
3.0388444649531721e-08

>  <r_i_glide_energy>  (1) 
-15.940844672104289

>  <r_i_glide_erotb>  (1) 
0

>  <r_i_glide_esite>  (1) 
0

>  <r_i_glide_evdw>  (1) 
-14.274763862062374

>  <r_i_glide_gscore>  (1) 
-5.5150567220901063

>  <r_i_glide_gscore_strain>  (1) 
0

>  <r_i_glide_hbond>  (1) 
-0.29515472295975026

>  <r_i_glide_ligand_efficiency>  (1) 
-0.78786524601287233

>  <r_i_glide_ligand_efficiency_ln>  (1) 
-1.8721062228794247

>  <r_i_glide_ligand_efficiency_sa>  (1) 
-1.5071319969206634

>  <r_i_glide_lipo>  (1) 
-1.6299348370587992

>  <r_i_glide_metal>  (1) 
-0

>  <r_i_glide_rewards>  (1) 
-2.6263168474621517

>  <r_lp_Energy>  (1) 
3.8568439999999997

>  <r_lp_tautomer_probability>  (1) 
1

>  <s_epik_cmdline>  (1) 
J2VwaWtfcHl0aG9uJywgJy1waHQnLCAnMS4wJywgJy1waCcsICc3LjQnLCAnLXRuJywgJzgnLCAnLW1hJywgJzUwMCcsICctaW1hZScsICc8aW5maWxlLm1hZT4nLCAnLW9tYWUnLCAnPG91dGZpbGUubWFlPic=

>  <s_epik_input>  (1) 
W09IXVtDSF0xW0NIMl1bQ0gyXVtDSDJdW0NIMl1bQ0gyXTE=

>  <s_glide_docking_method>  (1) 
confgen

>  <s_i_glide_gridfile>  (1) 
gpcr_5ht2c_6bqh_protein_autoprepared_prepared

>  <s_lp_Force_Field>  (1) 
S-OPLS

>  <s_lp_Variant>  (1) 
Pocket2Mol_34-1

>  <s_m_source_file>  (1) 
generated_GPCR_5HT2C_ligand_Pocket2Mol_2026-06-23_prepared.sdf

>  <GenAI_Model>  (1) 
Pocket2Mol

>  <Protein>  (1) 
GPCR_5HT2C

$$$$
Pocket2Mol_32
     RDKit          3D

  0  0  0  0  0  0  0  0  0  0999 V3000
M  V30 BEGIN CTAB
M  V30 COUNTS 12 12 0 0 1
M  V30 BEGIN ATOM
M  V30 1 C 38.845136 29.193614 53.447446 0
M  V30 2 C 39.645143 30.137755 52.773746 0
M  V30 3 C 40.045164 29.900846 51.443698 0
M  V30 4 C 39.645137 28.719871 50.787624 0
M  V30 5 C 38.445146 28.012841 52.791539 0
M  V30 6 F 37.676419 27.105755 53.439107 0
M  V30 7 C 38.845139 27.776031 51.461744 0
M  V30 8 H 38.537844 29.374055 54.466980 0
M  V30 9 H 39.951536 31.042945 53.277155 0
M  V30 10 H 40.658536 30.624613 50.927006 0
M  V30 11 H 39.951530 28.537774 49.767998 0
M  V30 12 H 38.537840 26.870390 50.959930 0
M  V30 END ATOM
M  V30 BEGIN BOND
M  V30 1 1 2 1
M  V30 2 2 3 2
M  V30 3 1 4 3
M  V30 4 2 5 1
M  V30 5 1 6 5
M  V30 6 2 7 4
M  V30 7 1 7 5
M  V30 8 1 8 1
M  V30 9 1 9 2
M  V30 10 1 10 3
M  V30 11 1 11 4
M  V30 12 1 12 7
M  V30 END BOND
M  V30 END CTAB
M  END
>  <i_epik_Tot_Q>  (1) 
0

>  <i_epik_Tot_abs_Q>  (1) 
0

>  <i_i_glide_confnum>  (1) 
1

>  <i_i_glide_lignum>  (1) 
33

>  <i_i_glide_posenum>  (1) 
308

>  <i_i_glide_rotatable_bonds>  (1) 
0

>  <i_lp_mmshare_version>  (1) 
72125

>  <i_m_source_file_index>  (1) 
33

>  <i_f3d_flags>  (1) 
0

>  <num_sample>  (1) 
50

>  <b_lp_Chiralities_Consistent>  (1) 
1

>  <r_epik_Charging_Adjusted_Penalty>  (1) 
0

>  <r_epik_Ionization_Penalty>  (1) 
0

>  <r_epik_Ionization_Penalty_Charging>  (1) 
0

>  <r_epik_Ionization_Penalty_Neutral>  (1) 
0

>  <r_epik_State_Penalty>  (1) 
-0

>  <r_glide_ring_energy>  (1) 
0

>  <r_i_docking_score>  (1) 
-5.4868599044830146

>  <r_i_glide_ecoul>  (1) 
-0.51413964353441199

>  <r_i_glide_eff_state_penalty>  (1) 
-0

>  <r_i_glide_einternal>  (1) 
0

>  <r_i_glide_emodel>  (1) 
-21.689901863210959

>  <r_i_glide_emodel_strain>  (1) 
0

>  <r_i_glide_energy>  (1) 
-16.281290336246641

>  <r_i_glide_erotb>  (1) 
0

>  <r_i_glide_esite>  (1) 
0

>  <r_i_glide_evdw>  (1) 
-15.767150692712228

>  <r_i_glide_gscore>  (1) 
-5.4868599044830146

>  <r_i_glide_gscore_strain>  (1) 
0

>  <r_i_glide_hbond>  (1) 
0

>  <r_i_glide_ligand_efficiency>  (1) 
-0.78383712921185922

>  <r_i_glide_ligand_efficiency_ln>  (1) 
-1.8625347097712828

>  <r_i_glide_ligand_efficiency_sa>  (1) 
-1.499426486684156

>  <r_i_glide_lipo>  (1) 
-1.894794476191171

>  <r_i_glide_metal>  (1) 
-0

>  <r_i_glide_rewards>  (1) 
-2.7265869471260697

>  <r_lp_Energy>  (1) 
8.194445

>  <r_lp_tautomer_probability>  (1) 
1

>  <s_epik_cmdline>  (1) 
J2VwaWtfcHl0aG9uJywgJy1waHQnLCAnMS4wJywgJy1waCcsICc3LjQnLCAnLXRuJywgJzgnLCAnLW1hJywgJzUwMCcsICctaW1hZScsICc8aW5maWxlLm1hZT4nLCAnLW9tYWUnLCAnPG91dGZpbGUubWFlPic=

>  <s_epik_input>  (1) 
RmMxW2NIXVtjSF1bY0hdW2NIXVtjSF0x

>  <s_glide_docking_method>  (1) 
confgen

>  <s_i_glide_gridfile>  (1) 
gpcr_5ht2c_6bqh_protein_autoprepared_prepared

>  <s_lp_Force_Field>  (1) 
S-OPLS

>  <s_lp_Variant>  (1) 
Pocket2Mol_32-1

>  <s_m_source_file>  (1) 
generated_GPCR_5HT2C_ligand_Pocket2Mol_2026-06-23_prepared.sdf

>  <GenAI_Model>  (1) 
Pocket2Mol

>  <Protein>  (1) 
GPCR_5HT2C

$$$$
Pocket2Mol_8
     RDKit          3D

  0  0  0  0  0  0  0  0  0  0999 V3000
M  V30 BEGIN CTAB
M  V30 COUNTS 12 12 0 0 1
M  V30 BEGIN ATOM
M  V30 1 C 38.561564 27.903709 52.264575 0
M  V30 2 C 39.263485 28.367721 51.103209 0
M  V30 3 C 39.900428 29.569923 51.306649 0
M  V30 4 C 40.712810 30.351985 50.330215 0
M  V30 5 C 38.676290 28.758898 53.330893 0
M  V30 6 S 39.645137 30.137755 52.930586 0
M  V30 7 H 38.006822 26.976352 52.272439 0
M  V30 8 H 39.272610 27.813880 50.175569 0
M  V30 9 H 40.760573 29.843740 49.367758 0
M  V30 10 H 40.276973 31.337754 50.167125 0
M  V30 11 H 41.732801 30.489555 50.687219 0
M  V30 12 H 38.251921 28.659474 54.319495 0
M  V30 END ATOM
M  V30 BEGIN BOND
M  V30 1 1 2 1
M  V30 2 2 3 2
M  V30 3 1 4 3
M  V30 4 2 5 1
M  V30 5 1 6 3
M  V30 6 1 6 5
M  V30 7 1 7 1
M  V30 8 1 8 2
M  V30 9 1 9 4
M  V30 10 1 10 4
M  V30 11 1 11 4
M  V30 12 1 12 5
M  V30 END BOND
M  V30 END CTAB
M  END
>  <i_epik_Tot_Q>  (1) 
0

>  <i_epik_Tot_abs_Q>  (1) 
0

>  <i_i_glide_confnum>  (1) 
1

>  <i_i_glide_lignum>  (1) 
9

>  <i_i_glide_posenum>  (1) 
398

>  <i_i_glide_rotatable_bonds>  (1) 
0

>  <i_lp_mmshare_version>  (1) 
72125

>  <i_m_source_file_index>  (1) 
9

>  <i_f3d_flags>  (1) 
0

>  <num_sample>  (1) 
50

>  <b_lp_Chiralities_Consistent>  (1) 
1

>  <r_epik_Charging_Adjusted_Penalty>  (1) 
0

>  <r_epik_Ionization_Penalty>  (1) 
0

>  <r_epik_Ionization_Penalty_Charging>  (1) 
0

>  <r_epik_Ionization_Penalty_Neutral>  (1) 
0

>  <r_epik_State_Penalty>  (1) 
-0

>  <r_glide_ring_energy>  (1) 
0

>  <r_i_docking_score>  (1) 
-5.4521462678255794

>  <r_i_glide_ecoul>  (1) 
-0.89211750097848008

>  <r_i_glide_eff_state_penalty>  (1) 
-0

>  <r_i_glide_einternal>  (1) 
0

>  <r_i_glide_emodel>  (1) 
-23.871505399717691

>  <r_i_glide_emodel_strain>  (1) 
0

>  <r_i_glide_energy>  (1) 
-17.774846609805845

>  <r_i_glide_erotb>  (1) 
0

>  <r_i_glide_esite>  (1) 
0

>  <r_i_glide_evdw>  (1) 
-16.882729108827366

>  <r_i_glide_gscore>  (1) 
-5.4521462678255794

>  <r_i_glide_gscore_strain>  (1) 
0

>  <r_i_glide_hbond>  (1) 
0

>  <r_i_glide_ligand_efficiency>  (1) 
-0.90869104463759653

>  <r_i_glide_ligand_efficiency_ln>  (1) 
-1.9529426972206685

>  <r_i_glide_ligand_efficiency_sa>  (1) 
-1.6512012097331259

>  <r_i_glide_lipo>  (1) 
-1.9510548973131052

>  <r_i_glide_metal>  (1) 
-0

>  <r_i_glide_rewards>  (1) 
-2.5231372899243336

>  <r_lp_Energy>  (1) 
3.145988

>  <r_lp_tautomer_probability>  (1) 
1

>  <s_epik_cmdline>  (1) 
J2VwaWtfcHl0aG9uJywgJy1waHQnLCAnMS4wJywgJy1waCcsICc3LjQnLCAnLXRuJywgJzgnLCAnLW1hJywgJzUwMCcsICctaW1hZScsICc8aW5maWxlLm1hZT4nLCAnLW9tYWUnLCAnPG91dGZpbGUubWFlPic=

>  <s_epik_input>  (1) 
czFbY0hdW2NIXVtjSF1jMVtDSDNd

>  <s_glide_docking_method>  (1) 
confgen

>  <s_i_glide_gridfile>  (1) 
gpcr_5ht2c_6bqh_protein_autoprepared_prepared

>  <s_lp_Force_Field>  (1) 
S-OPLS

>  <s_lp_Variant>  (1) 
Pocket2Mol_8-1

>  <s_m_source_file>  (1) 
generated_GPCR_5HT2C_ligand_Pocket2Mol_2026-06-23_prepared.sdf

>  <GenAI_Model>  (1) 
Pocket2Mol

>  <Protein>  (1) 
GPCR_5HT2C

$$$$
Pocket2Mol_36
     RDKit          3D

  0  0  0  0  0  0  0  0  0  0999 V3000
M  V30 BEGIN CTAB
M  V30 COUNTS 17 17 0 0 1
M  V30 BEGIN ATOM
M  V30 1 C 40.045302 30.494112 51.589042 0
M  V30 2 C 39.645144 30.327824 53.070065 0
M  V30 3 C 38.656204 29.175680 53.288224 0
M  V30 4 O 37.691379 29.293142 54.040076 0
M  V30 5 C 40.434173 29.167948 50.930876 0
M  V30 6 C 39.315655 28.127615 51.068866 0
M  V30 7 C 38.924516 27.871152 52.534484 0
M  V30 8 H 39.245182 30.949777 51.006757 0
M  V30 9 H 40.879216 31.191241 51.520670 0
M  V30 10 H 39.204598 31.254278 53.440605 0
M  V30 11 H 39.723309 27.337580 53.047735 0
M  V30 12 H 40.526165 30.137785 53.680481 0
M  V30 13 H 41.353552 28.784076 51.370026 0
M  V30 14 H 40.643526 29.338615 49.874571 0
M  V30 15 H 39.621812 27.190342 50.602964 0
M  V30 16 H 38.445244 28.474650 50.516516 0
M  V30 17 H 38.039452 27.235407 52.582783 0
M  V30 END ATOM
M  V30 BEGIN BOND
M  V30 1 1 2 1
M  V30 2 1 3 2
M  V30 3 2 4 3
M  V30 4 1 5 1
M  V30 5 1 6 5
M  V30 6 1 7 3
M  V30 7 1 7 6
M  V30 8 1 8 1
M  V30 9 1 9 1
M  V30 10 1 10 2
M  V30 11 1 11 7
M  V30 12 1 12 2
M  V30 13 1 13 5
M  V30 14 1 14 5
M  V30 15 1 15 6
M  V30 16 1 16 6
M  V30 17 1 17 7
M  V30 END BOND
M  V30 END CTAB
M  END
>  <i_epik_Tot_Q>  (1) 
0

>  <i_epik_Tot_abs_Q>  (1) 
0

>  <i_i_glide_confnum>  (1) 
1

>  <i_i_glide_lignum>  (1) 
37

>  <i_i_glide_posenum>  (1) 
353

>  <i_i_glide_rotatable_bonds>  (1) 
0

>  <i_lp_mmshare_version>  (1) 
72125

>  <i_m_source_file_index>  (1) 
37

>  <i_f3d_flags>  (1) 
0

>  <num_sample>  (1) 
50

>  <b_lp_Chiralities_Consistent>  (1) 
1

>  <r_epik_Charging_Adjusted_Penalty>  (1) 
0

>  <r_epik_Ionization_Penalty>  (1) 
3.7730911281982554e-13

>  <r_epik_Ionization_Penalty_Charging>  (1) 
0

>  <r_epik_Ionization_Penalty_Neutral>  (1) 
3.7730911281982554e-13

>  <r_epik_State_Penalty>  (1) 
-0

>  <r_glide_ring_energy>  (1) 
0

>  <r_i_docking_score>  (1) 
-5.4339637666388532

>  <r_i_glide_ecoul>  (1) 
-0.35189343467814421

>  <r_i_glide_eff_state_penalty>  (1) 
-0

>  <r_i_glide_einternal>  (1) 
0

>  <r_i_glide_emodel>  (1) 
-21.987368828519767

>  <r_i_glide_emodel_strain>  (1) 
0

>  <r_i_glide_energy>  (1) 
-16.320374169608471

>  <r_i_glide_erotb>  (1) 
0

>  <r_i_glide_esite>  (1) 
0

>  <r_i_glide_evdw>  (1) 
-15.968480734930326

>  <r_i_glide_gscore>  (1) 
-5.4339637666388532

>  <r_i_glide_gscore_strain>  (1) 
0

>  <r_i_glide_hbond>  (1) 
0

>  <r_i_glide_ligand_efficiency>  (1) 
-0.77628053809126474

>  <r_i_glide_ligand_efficiency_ln>  (1) 
-1.8445789218593114

>  <r_i_glide_ligand_efficiency_sa>  (1) 
-1.4849712478941097

>  <r_i_glide_lipo>  (1) 
-1.5339170873115604

>  <r_i_glide_metal>  (1) 
-0

>  <r_i_glide_rewards>  (1) 
-3.048838627379054

>  <r_lp_Energy>  (1) 
-0.38638499999999998

>  <r_lp_tautomer_probability>  (1) 
1

>  <s_epik_cmdline>  (1) 
J2VwaWtfcHl0aG9uJywgJy1waHQnLCAnMS4wJywgJy1waCcsICc3LjQnLCAnLXRuJywgJzgnLCAnLW1hJywgJzUwMCcsICctaW1hZScsICc8aW5maWxlLm1hZT4nLCAnLW9tYWUnLCAnPG91dGZpbGUubWFlPic=

>  <s_epik_input>  (1) 
W0NIMl0xW0NIMl1bQ0gyXVtDSDJdW0NIXT1DMVtPSF0=

>  <s_glide_docking_method>  (1) 
confgen

>  <s_i_glide_gridfile>  (1) 
gpcr_5ht2c_6bqh_protein_autoprepared_prepared

>  <s_lp_Force_Field>  (1) 
S-OPLS

>  <s_lp_Variant>  (1) 
Pocket2Mol_36-1

>  <s_m_source_file>  (1) 
generated_GPCR_5HT2C_ligand_Pocket2Mol_2026-06-23_prepared.sdf

>  <GenAI_Model>  (1) 
Pocket2Mol

>  <Protein>  (1) 
GPCR_5HT2C

$$$$
Pocket2Mol_29
     RDKit          3D

  0  0  0  0  0  0  0  0  0  0999 V3000
M  V30 BEGIN CTAB
M  V30 COUNTS 17 17 0 0 1
M  V30 BEGIN ATOM
M  V30 1 C 39.584311 30.137825 53.126563 0
M  V30 2 C 38.602124 28.965134 53.254583 0
M  V30 3 C 38.899026 27.710925 52.432846 0
M  V30 4 O 37.622324 29.028483 53.992256 0
M  V30 5 C 40.045043 30.381152 51.674393 0
M  V30 6 C 39.310811 28.060190 50.994351 0
M  V30 7 C 40.445137 29.095050 50.953205 0
M  V30 8 H 39.117217 31.040633 53.521684 0
M  V30 9 H 40.444391 29.934235 53.761841 0
M  V30 10 H 39.695639 27.157652 52.928947 0
M  V30 11 H 38.019144 27.066265 52.425718 0
M  V30 12 H 39.251595 30.848299 51.093471 0
M  V30 13 H 40.867233 31.094254 51.664235 0
M  V30 14 H 39.614965 27.151445 50.473673 0
M  V30 15 H 38.445878 28.447670 50.456498 0
M  V30 16 H 41.343759 28.676094 51.401074 0
M  V30 17 H 40.693569 29.336885 49.919036 0
M  V30 END ATOM
M  V30 BEGIN BOND
M  V30 1 1 2 1
M  V30 2 1 3 2
M  V30 3 2 4 2
M  V30 4 1 5 1
M  V30 5 1 6 3
M  V30 6 1 7 5
M  V30 7 1 7 6
M  V30 8 1 8 1
M  V30 9 1 9 1
M  V30 10 1 10 3
M  V30 11 1 11 3
M  V30 12 1 12 5
M  V30 13 1 13 5
M  V30 14 1 14 6
M  V30 15 1 15 6
M  V30 16 1 16 7
M  V30 17 1 17 7
M  V30 END BOND
M  V30 END CTAB
M  END
>  <i_epik_Tot_Q>  (1) 
0

>  <i_epik_Tot_abs_Q>  (1) 
0

>  <i_i_glide_confnum>  (1) 
1

>  <i_i_glide_lignum>  (1) 
30

>  <i_i_glide_posenum>  (1) 
82

>  <i_i_glide_rotatable_bonds>  (1) 
0

>  <i_lp_mmshare_version>  (1) 
72125

>  <i_m_source_file_index>  (1) 
30

>  <i_f3d_flags>  (1) 
0

>  <num_sample>  (1) 
50

>  <b_lp_Chiralities_Consistent>  (1) 
1

>  <r_epik_Charging_Adjusted_Penalty>  (1) 
0

>  <r_epik_Ionization_Penalty>  (1) 
3.7730911281982554e-13

>  <r_epik_Ionization_Penalty_Charging>  (1) 
0

>  <r_epik_Ionization_Penalty_Neutral>  (1) 
3.7730911281982554e-13

>  <r_epik_State_Penalty>  (1) 
-0

>  <r_glide_ring_energy>  (1) 
0

>  <r_i_docking_score>  (1) 
-5.3974466926606013

>  <r_i_glide_ecoul>  (1) 
-0.4028324674020447

>  <r_i_glide_eff_state_penalty>  (1) 
-0

>  <r_i_glide_einternal>  (1) 
0

>  <r_i_glide_emodel>  (1) 
-21.939428259268233

>  <r_i_glide_emodel_strain>  (1) 
0

>  <r_i_glide_energy>  (1) 
-16.331904784184459

>  <r_i_glide_erotb>  (1) 
0

>  <r_i_glide_esite>  (1) 
0

>  <r_i_glide_evdw>  (1) 
-15.929072316782413

>  <r_i_glide_gscore>  (1) 
-5.3974466926606013

>  <r_i_glide_gscore_strain>  (1) 
0

>  <r_i_glide_hbond>  (1) 
0

>  <r_i_glide_ligand_efficiency>  (1) 
-0.77106381323722872

>  <r_i_glide_ligand_efficiency_ln>  (1) 
-1.8321830672233639

>  <r_i_glide_ligand_efficiency_sa>  (1) 
-1.4749920122488807

>  <r_i_glide_lipo>  (1) 
-1.5572674189192437

>  <r_i_glide_metal>  (1) 
-0

>  <r_i_glide_rewards>  (1) 
-2.9833007877919302

>  <r_lp_Energy>  (1) 
-0.38655299999999998

>  <r_lp_tautomer_probability>  (1) 
1

>  <s_epik_cmdline>  (1) 
J2VwaWtfcHl0aG9uJywgJy1waHQnLCAnMS4wJywgJy1waCcsICc3LjQnLCAnLXRuJywgJzgnLCAnLW1hJywgJzUwMCcsICctaW1hZScsICc8aW5maWxlLm1hZT4nLCAnLW9tYWUnLCAnPG91dGZpbGUubWFlPic=

>  <s_epik_input>  (1) 
Tz1DMVtDSDJdW0NIMl1bQ0gyXVtDSDJdW0NIMl0x

>  <s_glide_docking_method>  (1) 
confgen

>  <s_i_glide_gridfile>  (1) 
gpcr_5ht2c_6bqh_protein_autoprepared_prepared

>  <s_lp_Force_Field>  (1) 
S-OPLS

>  <s_lp_Variant>  (1) 
Pocket2Mol_29-1

>  <s_m_source_file>  (1) 
generated_GPCR_5HT2C_ligand_Pocket2Mol_2026-06-23_prepared.sdf

>  <GenAI_Model>  (1) 
Pocket2Mol

>  <Protein>  (1) 
GPCR_5HT2C

$$$$
Pocket2Mol_28
     RDKit          3D

  0  0  0  0  0  0  0  0  0  0999 V3000
M  V30 BEGIN CTAB
M  V30 COUNTS 14 14 0 0 1
M  V30 BEGIN ATOM
M  V30 1 C 38.840574 29.300170 53.381830 0
M  V30 2 C 39.645192 30.137753 52.585204 0
M  V30 3 C 40.047418 29.715057 51.301505 0
M  V30 4 N 40.844159 30.537755 50.511654 0
M  V30 5 C 38.438999 28.041034 52.895106 0
M  V30 6 C 39.645138 28.458869 50.817971 0
M  V30 7 C 38.843107 27.621317 51.612759 0
M  V30 8 H 38.531208 29.623707 54.365142 0
M  V30 9 H 39.953566 31.103833 52.958583 0
M  V30 10 H 40.998498 30.314614 49.540120 0
M  V30 11 H 41.006702 31.501175 50.774162 0
M  V30 12 H 37.820829 27.397790 53.504413 0
M  V30 13 H 39.951245 28.137748 49.835374 0
M  V30 14 H 38.534870 26.657741 51.237094 0
M  V30 END ATOM
M  V30 BEGIN BOND
M  V30 1 1 2 1
M  V30 2 2 3 2
M  V30 3 1 4 3
M  V30 4 2 5 1
M  V30 5 1 6 3
M  V30 6 1 7 5
M  V30 7 2 7 6
M  V30 8 1 8 1
M  V30 9 1 9 2
M  V30 10 1 10 4
M  V30 11 1 11 4
M  V30 12 1 12 5
M  V30 13 1 13 6
M  V30 14 1 14 7
M  V30 END BOND
M  V30 END CTAB
M  END
>  <i_epik_Tot_Q>  (1) 
0

>  <i_epik_Tot_abs_Q>  (1) 
0

>  <i_i_glide_confnum>  (1) 
1

>  <i_i_glide_lignum>  (1) 
29

>  <i_i_glide_posenum>  (1) 
293

>  <i_i_glide_rotatable_bonds>  (1) 
0

>  <i_lp_mmshare_version>  (1) 
72125

>  <i_m_source_file_index>  (1) 
29

>  <i_f3d_flags>  (1) 
0

>  <num_sample>  (1) 
50

>  <b_lp_Chiralities_Consistent>  (1) 
1

>  <r_epik_Charging_Adjusted_Penalty>  (1) 
0

>  <r_epik_Ionization_Penalty>  (1) 
0.00088153335660618348

>  <r_epik_Ionization_Penalty_Charging>  (1) 
0

>  <r_epik_Ionization_Penalty_Neutral>  (1) 
0.00088153335660618348

>  <r_epik_State_Penalty>  (1) 
-0

>  <r_glide_ring_energy>  (1) 
0

>  <r_i_docking_score>  (1) 
-5.3928149912554746

>  <r_i_glide_ecoul>  (1) 
-0.99990525818075582

>  <r_i_glide_eff_state_penalty>  (1) 
-0

>  <r_i_glide_einternal>  (1) 
0

>  <r_i_glide_emodel>  (1) 
-24.173596528745769

>  <r_i_glide_emodel_strain>  (1) 
0

>  <r_i_glide_energy>  (1) 
-18.217858542526436

>  <r_i_glide_erotb>  (1) 
0

>  <r_i_glide_esite>  (1) 
0

>  <r_i_glide_evdw>  (1) 
-17.217953284345679

>  <r_i_glide_gscore>  (1) 
-5.3928149912554746

>  <r_i_glide_gscore_strain>  (1) 
0

>  <r_i_glide_hbond>  (1) 
0

>  <r_i_glide_ligand_efficiency>  (1) 
-0.77040214160792497

>  <r_i_glide_ligand_efficiency_ln>  (1) 
-1.8306108192012671

>  <r_i_glide_ligand_efficiency_sa>  (1) 
-1.4737262799564295

>  <r_i_glide_lipo>  (1) 
-1.895556669913304

>  <r_i_glide_metal>  (1) 
-0

>  <r_i_glide_rewards>  (1) 
-2.4863748683977742

>  <r_lp_Energy>  (1) 
7.0325409999999993

>  <r_lp_tautomer_probability>  (1) 
1

>  <s_epik_cmdline>  (1) 
J2VwaWtfcHl0aG9uJywgJy1waHQnLCAnMS4wJywgJy1waCcsICc3LjQnLCAnLXRuJywgJzgnLCAnLW1hJywgJzUwMCcsICctaW1hZScsICc8aW5maWxlLm1hZT4nLCAnLW9tYWUnLCAnPG91dGZpbGUubWFlPic=

>  <s_epik_input>  (1) 
W2NIXTFbY0hdW2NIXVtjSF1bY0hdYzFbTkgyXQ==

>  <s_glide_docking_method>  (1) 
confgen

>  <s_i_glide_gridfile>  (1) 
gpcr_5ht2c_6bqh_protein_autoprepared_prepared

>  <s_lp_Force_Field>  (1) 
S-OPLS

>  <s_lp_Variant>  (1) 
Pocket2Mol_28-1

>  <s_m_source_file>  (1) 
generated_GPCR_5HT2C_ligand_Pocket2Mol_2026-06-23_prepared.sdf

>  <GenAI_Model>  (1) 
Pocket2Mol

>  <Protein>  (1) 
GPCR_5HT2C

$$$$
Pocket2Mol_34
     RDKit          3D

  0  0  0  0  0  0  0  0  0  0999 V3000
M  V30 BEGIN CTAB
M  V30 COUNTS 19 19 0 0 1
M  V30 BEGIN ATOM
M  V30 1 C 38.971520 27.731504 57.386006 0
M  V30 2 C 39.938768 26.538261 57.514638 0
M  V30 3 C 38.713200 28.114868 55.916499 0
M  V30 4 O 41.238734 26.937777 57.121347 0
M  V30 5 C 38.225821 26.908369 55.096056 0
M  V30 6 C 39.215154 25.737771 55.197212 0
M  V30 7 C 39.464807 25.345948 56.663404 0
M  V30 8 H 38.020423 27.472714 57.855157 0
M  V30 9 H 39.357577 28.591544 57.933406 0
M  V30 10 H 39.997292 26.228946 58.558934 0
M  V30 11 H 37.980181 28.920188 55.866105 0
M  V30 12 H 39.630236 28.508549 55.475966 0
M  V30 13 H 41.794650 26.170867 57.017724 0
M  V30 14 H 37.245278 26.590046 55.452847 0
M  V30 15 H 38.094649 27.194182 54.052833 0
M  V30 16 H 38.830701 24.879666 54.647206 0
M  V30 17 H 40.158543 26.010614 54.723611 0
M  V30 18 H 40.191605 24.537731 56.715479 0
M  V30 19 H 38.541752 24.950640 57.086511 0
M  V30 END ATOM
M  V30 BEGIN BOND
M  V30 1 1 2 1
M  V30 2 1 3 1
M  V30 3 1 4 2
M  V30 4 1 5 3
M  V30 5 1 6 5
M  V30 6 1 7 2
M  V30 7 1 7 6
M  V30 8 1 8 1
M  V30 9 1 9 1
M  V30 10 1 10 2
M  V30 11 1 11 3
M  V30 12 1 12 3
M  V30 13 1 13 4
M  V30 14 1 14 5
M  V30 15 1 15 5
M  V30 16 1 16 6
M  V30 17 1 17 6
M  V30 18 1 18 7
M  V30 19 1 19 7
M  V30 END BOND
M  V30 END CTAB
M  END
>  <i_epik_Tot_Q>  (1) 
0

>  <i_epik_Tot_abs_Q>  (1) 
0

>  <i_i_glide_confnum>  (1) 
2

>  <i_i_glide_lignum>  (1) 
35

>  <i_i_glide_posenum>  (1) 
317

>  <i_i_glide_rotatable_bonds>  (1) 
1

>  <i_lp_mmshare_version>  (1) 
72125

>  <i_m_source_file_index>  (1) 
35

>  <i_f3d_flags>  (1) 
0

>  <num_sample>  (1) 
50

>  <b_lp_Chiralities_Consistent>  (1) 
1

>  <r_epik_Charging_Adjusted_Penalty>  (1) 
0

>  <r_epik_Ionization_Penalty>  (1) 
4.7751045033339745e-07

>  <r_epik_Ionization_Penalty_Charging>  (1) 
0

>  <r_epik_Ionization_Penalty_Neutral>  (1) 
4.7751045033339745e-07

>  <r_epik_State_Penalty>  (1) 
-0

>  <r_glide_ring_energy>  (1) 
0.69137214327877039

>  <r_i_docking_score>  (1) 
-5.384503449658518

>  <r_i_glide_ecoul>  (1) 
-3.3164564302593496

>  <r_i_glide_eff_state_penalty>  (1) 
-0

>  <r_i_glide_einternal>  (1) 
0.44774272404242832

>  <r_i_glide_emodel>  (1) 
-20.881585517910999

>  <r_i_glide_emodel_strain>  (1) 
1.5547921751846161e-05

>  <r_i_glide_energy>  (1) 
-15.972283841925513

>  <r_i_glide_erotb>  (1) 
0

>  <r_i_glide_esite>  (1) 
0

>  <r_i_glide_evdw>  (1) 
-12.655827411666165

>  <r_i_glide_gscore>  (1) 
-5.384503449658518

>  <r_i_glide_gscore_strain>  (1) 
0

>  <r_i_glide_hbond>  (1) 
-0.32000000000000001

>  <r_i_glide_ligand_efficiency>  (1) 
-0.76921477852264541

>  <r_i_glide_ligand_efficiency_ln>  (1) 
-1.8277894359355142

>  <r_i_glide_ligand_efficiency_sa>  (1) 
-1.4714549360853255

>  <r_i_glide_lipo>  (1) 
-1.4759102812029743

>  <r_i_glide_metal>  (1) 
-0

>  <r_i_glide_rewards>  (1) 
-2.4583333333333335

>  <r_lp_Energy>  (1) 
3.8568439999999997

>  <r_lp_tautomer_probability>  (1) 
1

>  <s_epik_cmdline>  (1) 
J2VwaWtfcHl0aG9uJywgJy1waHQnLCAnMS4wJywgJy1waCcsICc3LjQnLCAnLXRuJywgJzgnLCAnLW1hJywgJzUwMCcsICctaW1hZScsICc8aW5maWxlLm1hZT4nLCAnLW9tYWUnLCAnPG91dGZpbGUubWFlPic=

>  <s_epik_input>  (1) 
W09IXVtDSF0xW0NIMl1bQ0gyXVtDSDJdW0NIMl1bQ0gyXTE=

>  <s_glide_docking_method>  (1) 
confgen

>  <s_i_glide_gridfile>  (1) 
gpcr_5ht2c_6bqh_protein_autoprepared_prepared

>  <s_lp_Force_Field>  (1) 
S-OPLS

>  <s_lp_Variant>  (1) 
Pocket2Mol_34-1

>  <s_m_source_file>  (1) 
generated_GPCR_5HT2C_ligand_Pocket2Mol_2026-06-23_prepared.sdf

>  <GenAI_Model>  (1) 
Pocket2Mol

>  <Protein>  (1) 
GPCR_5HT2C

$$$$
Pocket2Mol_8
     RDKit          3D

  0  0  0  0  0  0  0  0  0  0999 V3000
M  V30 BEGIN CTAB
M  V30 COUNTS 12 12 0 0 1
M  V30 BEGIN ATOM
M  V30 1 C 39.971734 28.943842 50.566713 0
M  V30 2 C 40.045133 29.963109 51.571704 0
M  V30 3 C 39.365035 29.630806 52.720355 0
M  V30 4 C 39.219923 30.439546 53.964561 0
M  V30 5 C 39.245137 27.852693 50.968064 0
M  V30 6 S 38.633508 28.061273 52.572814 0
M  V30 7 H 40.445137 29.048222 49.602658 0
M  V30 8 H 40.581158 30.888846 51.417400 0
M  V30 9 H 39.742830 31.391555 53.876129 0
M  V30 10 H 38.170040 30.651399 54.169383 0
M  V30 11 H 39.631970 29.908309 54.822596 0
M  V30 12 H 39.031181 26.947961 50.415747 0
M  V30 END ATOM
M  V30 BEGIN BOND
M  V30 1 1 2 1
M  V30 2 2 3 2
M  V30 3 1 4 3
M  V30 4 2 5 1
M  V30 5 1 6 3
M  V30 6 1 6 5
M  V30 7 1 7 1
M  V30 8 1 8 2
M  V30 9 1 9 4
M  V30 10 1 10 4
M  V30 11 1 11 4
M  V30 12 1 12 5
M  V30 END BOND
M  V30 END CTAB
M  END
>  <i_epik_Tot_Q>  (1) 
0

>  <i_epik_Tot_abs_Q>  (1) 
0

>  <i_i_glide_confnum>  (1) 
1

>  <i_i_glide_lignum>  (1) 
9

>  <i_i_glide_posenum>  (1) 
303

>  <i_i_glide_rotatable_bonds>  (1) 
0

>  <i_lp_mmshare_version>  (1) 
72125

>  <i_m_source_file_index>  (1) 
9

>  <i_f3d_flags>  (1) 
0

>  <num_sample>  (1) 
50

>  <b_lp_Chiralities_Consistent>  (1) 
1

>  <r_epik_Charging_Adjusted_Penalty>  (1) 
0

>  <r_epik_Ionization_Penalty>  (1) 
0

>  <r_epik_Ionization_Penalty_Charging>  (1) 
0

>  <r_epik_Ionization_Penalty_Neutral>  (1) 
0

>  <r_epik_State_Penalty>  (1) 
-0

>  <r_glide_ring_energy>  (1) 
0

>  <r_i_docking_score>  (1) 
-5.367552536636782

>  <r_i_glide_ecoul>  (1) 
-0.96764687969149954

>  <r_i_glide_eff_state_penalty>  (1) 
-0

>  <r_i_glide_einternal>  (1) 
0

>  <r_i_glide_emodel>  (1) 
-23.781895405751833

>  <r_i_glide_emodel_strain>  (1) 
0

>  <r_i_glide_energy>  (1) 
-17.779830394049334

>  <r_i_glide_erotb>  (1) 
0

>  <r_i_glide_esite>  (1) 
0

>  <r_i_glide_evdw>  (1) 
-16.812183514357834

>  <r_i_glide_gscore>  (1) 
-5.367552536636782

>  <r_i_glide_gscore_strain>  (1) 
0

>  <r_i_glide_hbond>  (1) 
0

>  <r_i_glide_ligand_efficiency>  (1) 
-0.89459208943946367

>  <r_i_glide_ligand_efficiency_ln>  (1) 
-1.9226414724478236

>  <r_i_glide_ligand_efficiency_sa>  (1) 
-1.6255817079051809

>  <r_i_glide_lipo>  (1) 
-1.8523672384365129

>  <r_i_glide_metal>  (1) 
-0

>  <r_i_glide_rewards>  (1) 
-2.5294290905286525

>  <r_lp_Energy>  (1) 
3.145988

>  <r_lp_tautomer_probability>  (1) 
1

>  <s_epik_cmdline>  (1) 
J2VwaWtfcHl0aG9uJywgJy1waHQnLCAnMS4wJywgJy1waCcsICc3LjQnLCAnLXRuJywgJzgnLCAnLW1hJywgJzUwMCcsICctaW1hZScsICc8aW5maWxlLm1hZT4nLCAnLW9tYWUnLCAnPG91dGZpbGUubWFlPic=

>  <s_epik_input>  (1) 
czFbY0hdW2NIXVtjSF1jMVtDSDNd

>  <s_glide_docking_method>  (1) 
confgen

>  <s_i_glide_gridfile>  (1) 
gpcr_5ht2c_6bqh_protein_autoprepared_prepared

>  <s_lp_Force_Field>  (1) 
S-OPLS

>  <s_lp_Variant>  (1) 
Pocket2Mol_8-1

>  <s_m_source_file>  (1) 
generated_GPCR_5HT2C_ligand_Pocket2Mol_2026-06-23_prepared.sdf

>  <GenAI_Model>  (1) 
Pocket2Mol

>  <Protein>  (1) 
GPCR_5HT2C

$$$$
Pocket2Mol_8
     RDKit          3D

  0  0  0  0  0  0  0  0  0  0999 V3000
M  V30 BEGIN CTAB
M  V30 COUNTS 12 12 0 0 1
M  V30 BEGIN ATOM
M  V30 1 C 38.445136 27.479380 52.396191 0
M  V30 2 C 38.472128 28.553724 53.343586 0
M  V30 3 C 39.245137 29.611903 52.930053 0
M  V30 4 C 39.505536 30.889431 53.649595 0
M  V30 5 C 39.196294 27.737616 51.277992 0
M  V30 6 S 39.942567 29.296408 51.367753 0
M  V30 7 H 37.883688 26.572548 52.567787 0
M  V30 8 H 37.933268 28.511867 54.279001 0
M  V30 9 H 38.914237 30.957050 54.563131 0
M  V30 10 H 40.558076 30.973210 53.920162 0
M  V30 11 H 39.245140 31.737756 53.019037 0
M  V30 12 H 39.349472 27.107204 50.413231 0
M  V30 END ATOM
M  V30 BEGIN BOND
M  V30 1 1 2 1
M  V30 2 2 3 2
M  V30 3 1 4 3
M  V30 4 2 5 1
M  V30 5 1 6 3
M  V30 6 1 6 5
M  V30 7 1 7 1
M  V30 8 1 8 2
M  V30 9 1 9 4
M  V30 10 1 10 4
M  V30 11 1 11 4
M  V30 12 1 12 5
M  V30 END BOND
M  V30 END CTAB
M  END
>  <i_epik_Tot_Q>  (1) 
0

>  <i_epik_Tot_abs_Q>  (1) 
0

>  <i_i_glide_confnum>  (1) 
1

>  <i_i_glide_lignum>  (1) 
9

>  <i_i_glide_posenum>  (1) 
73

>  <i_i_glide_rotatable_bonds>  (1) 
0

>  <i_lp_mmshare_version>  (1) 
72125

>  <i_m_source_file_index>  (1) 
9

>  <i_f3d_flags>  (1) 
0

>  <num_sample>  (1) 
50

>  <b_lp_Chiralities_Consistent>  (1) 
1

>  <r_epik_Charging_Adjusted_Penalty>  (1) 
0

>  <r_epik_Ionization_Penalty>  (1) 
0

>  <r_epik_Ionization_Penalty_Charging>  (1) 
0

>  <r_epik_Ionization_Penalty_Neutral>  (1) 
0

>  <r_epik_State_Penalty>  (1) 
-0

>  <r_glide_ring_energy>  (1) 
0

>  <r_i_docking_score>  (1) 
-5.3617911138891579

>  <r_i_glide_ecoul>  (1) 
-1.1790702353678464

>  <r_i_glide_eff_state_penalty>  (1) 
-0

>  <r_i_glide_einternal>  (1) 
0

>  <r_i_glide_emodel>  (1) 
-23.941148597969761

>  <r_i_glide_emodel_strain>  (1) 
0

>  <r_i_glide_energy>  (1) 
-17.945526081921493

>  <r_i_glide_erotb>  (1) 
0

>  <r_i_glide_esite>  (1) 
0

>  <r_i_glide_evdw>  (1) 
-16.766455846553647

>  <r_i_glide_gscore>  (1) 
-5.3617911138891579

>  <r_i_glide_gscore_strain>  (1) 
0

>  <r_i_glide_hbond>  (1) 
0

>  <r_i_glide_ligand_efficiency>  (1) 
-0.89363185231485964

>  <r_i_glide_ligand_efficiency_ln>  (1) 
-1.9205777478285901

>  <r_i_glide_ligand_efficiency_sa>  (1) 
-1.623836841252061

>  <r_i_glide_lipo>  (1) 
-1.8302992280139432

>  <r_i_glide_metal>  (1) 
-0

>  <r_i_glide_rewards>  (1) 
-2.5163085582423563

>  <r_lp_Energy>  (1) 
3.145988

>  <r_lp_tautomer_probability>  (1) 
1

>  <s_epik_cmdline>  (1) 
J2VwaWtfcHl0aG9uJywgJy1waHQnLCAnMS4wJywgJy1waCcsICc3LjQnLCAnLXRuJywgJzgnLCAnLW1hJywgJzUwMCcsICctaW1hZScsICc8aW5maWxlLm1hZT4nLCAnLW9tYWUnLCAnPG91dGZpbGUubWFlPic=

>  <s_epik_input>  (1) 
czFbY0hdW2NIXVtjSF1jMVtDSDNd

>  <s_glide_docking_method>  (1) 
confgen

>  <s_i_glide_gridfile>  (1) 
gpcr_5ht2c_6bqh_protein_autoprepared_prepared

>  <s_lp_Force_Field>  (1) 
S-OPLS

>  <s_lp_Variant>  (1) 
Pocket2Mol_8-1

>  <s_m_source_file>  (1) 
generated_GPCR_5HT2C_ligand_Pocket2Mol_2026-06-23_prepared.sdf

>  <GenAI_Model>  (1) 
Pocket2Mol

>  <Protein>  (1) 
GPCR_5HT2C

$$$$
Pocket2Mol_29
     RDKit          3D

  0  0  0  0  0  0  0  0  0  0999 V3000
M  V30 BEGIN CTAB
M  V30 COUNTS 17 17 0 0 1
M  V30 BEGIN ATOM
M  V30 1 C 38.592167 28.985553 53.318003 0
M  V30 2 C 39.592187 30.137831 53.169795 0
M  V30 3 C 40.045232 30.487749 51.749490 0
M  V30 4 O 40.009236 30.754383 54.147228 0
M  V30 5 C 38.993173 27.761208 52.474049 0
M  V30 6 C 40.426707 29.223471 50.967760 0
M  V30 7 C 39.338385 28.138117 51.024899 0
M  V30 8 H 38.502887 28.711113 54.369530 0
M  V30 9 H 37.613920 29.338427 52.996670 0
M  V30 10 H 39.245150 31.007251 51.225164 0
M  V30 11 H 40.883855 31.182426 51.789572 0
M  V30 12 H 39.845616 27.262593 52.934896 0
M  V30 13 H 38.181480 27.032065 52.477666 0
M  V30 14 H 40.619456 29.489115 49.928653 0
M  V30 15 H 41.359497 28.826612 51.367747 0
M  V30 16 H 38.445137 28.503052 50.522372 0
M  V30 17 H 39.659639 27.251393 50.477569 0
M  V30 END ATOM
M  V30 BEGIN BOND
M  V30 1 1 2 1
M  V30 2 1 3 2
M  V30 3 2 4 2
M  V30 4 1 5 1
M  V30 5 1 6 3
M  V30 6 1 7 5
M  V30 7 1 7 6
M  V30 8 1 8 1
M  V30 9 1 9 1
M  V30 10 1 10 3
M  V30 11 1 11 3
M  V30 12 1 12 5
M  V30 13 1 13 5
M  V30 14 1 14 6
M  V30 15 1 15 6
M  V30 16 1 16 7
M  V30 17 1 17 7
M  V30 END BOND
M  V30 END CTAB
M  END
>  <i_epik_Tot_Q>  (1) 
0

>  <i_epik_Tot_abs_Q>  (1) 
0

>  <i_i_glide_confnum>  (1) 
1

>  <i_i_glide_lignum>  (1) 
30

>  <i_i_glide_posenum>  (1) 
300

>  <i_i_glide_rotatable_bonds>  (1) 
0

>  <i_lp_mmshare_version>  (1) 
72125

>  <i_m_source_file_index>  (1) 
30

>  <i_f3d_flags>  (1) 
0

>  <num_sample>  (1) 
50

>  <b_lp_Chiralities_Consistent>  (1) 
1

>  <r_epik_Charging_Adjusted_Penalty>  (1) 
0

>  <r_epik_Ionization_Penalty>  (1) 
3.7730911281982554e-13

>  <r_epik_Ionization_Penalty_Charging>  (1) 
0

>  <r_epik_Ionization_Penalty_Neutral>  (1) 
3.7730911281982554e-13

>  <r_epik_State_Penalty>  (1) 
-0

>  <r_glide_ring_energy>  (1) 
0

>  <r_i_docking_score>  (1) 
-5.3543703985088911

>  <r_i_glide_ecoul>  (1) 
0.38789730785658028

>  <r_i_glide_eff_state_penalty>  (1) 
-0

>  <r_i_glide_einternal>  (1) 
0

>  <r_i_glide_emodel>  (1) 
-21.024076393729569

>  <r_i_glide_emodel_strain>  (1) 
0

>  <r_i_glide_energy>  (1) 
-15.461305807266964

>  <r_i_glide_erotb>  (1) 
0

>  <r_i_glide_esite>  (1) 
0

>  <r_i_glide_evdw>  (1) 
-15.849203115123544

>  <r_i_glide_gscore>  (1) 
-5.3543703985088911

>  <r_i_glide_gscore_strain>  (1) 
0

>  <r_i_glide_hbond>  (1) 
0

>  <r_i_glide_ligand_efficiency>  (1) 
-0.7649100569298416

>  <r_i_glide_ligand_efficiency_ln>  (1) 
-1.8175606612529973

>  <r_i_glide_ligand_efficiency_sa>  (1) 
-1.4632202999172974

>  <r_i_glide_lipo>  (1) 
-1.4737373257202793

>  <r_i_glide_metal>  (1) 
-0

>  <r_i_glide_rewards>  (1) 
-3.1463575132109214

>  <r_lp_Energy>  (1) 
-0.38655299999999998

>  <r_lp_tautomer_probability>  (1) 
1

>  <s_epik_cmdline>  (1) 
J2VwaWtfcHl0aG9uJywgJy1waHQnLCAnMS4wJywgJy1waCcsICc3LjQnLCAnLXRuJywgJzgnLCAnLW1hJywgJzUwMCcsICctaW1hZScsICc8aW5maWxlLm1hZT4nLCAnLW9tYWUnLCAnPG91dGZpbGUubWFlPic=

>  <s_epik_input>  (1) 
Tz1DMVtDSDJdW0NIMl1bQ0gyXVtDSDJdW0NIMl0x

>  <s_glide_docking_method>  (1) 
confgen

>  <s_i_glide_gridfile>  (1) 
gpcr_5ht2c_6bqh_protein_autoprepared_prepared

>  <s_lp_Force_Field>  (1) 
S-OPLS

>  <s_lp_Variant>  (1) 
Pocket2Mol_29-1

>  <s_m_source_file>  (1) 
generated_GPCR_5HT2C_ligand_Pocket2Mol_2026-06-23_prepared.sdf

>  <GenAI_Model>  (1) 
Pocket2Mol

>  <Protein>  (1) 
GPCR_5HT2C

$$$$
Pocket2Mol_15
     RDKit          3D

  0  0  0  0  0  0  0  0  0  0999 V3000
M  V30 BEGIN CTAB
M  V30 COUNTS 16 16 0 0 1
M  V30 BEGIN ATOM
M  V30 1 C 39.645140 29.818143 52.452824 0
M  V30 2 C 38.620808 28.934641 53.177700 0
M  V30 3 C 40.102033 29.029008 51.213814 0
M  V30 4 C 38.788868 27.537429 52.578914 0
M  V30 5 C 39.184916 27.808431 51.131231 0
M  V30 6 O 40.045170 29.790315 50.024828 0
M  V30 7 H 40.480897 30.026098 53.113713 0
M  V30 8 H 39.245137 30.795906 52.201149 0
M  V30 9 H 38.753752 28.941785 54.260065 0
M  V30 10 H 37.616480 29.300511 52.969777 0
M  V30 11 H 41.130583 28.699782 51.367763 0
M  V30 12 H 39.591908 27.003721 53.089265 0
M  V30 13 H 37.881681 26.937569 52.658556 0
M  V30 14 H 38.289165 28.062638 50.567761 0
M  V30 15 H 39.647244 26.949483 50.644084 0
M  V30 16 H 39.137476 29.935717 49.791108 0
M  V30 END ATOM
M  V30 BEGIN BOND
M  V30 1 1 2 1
M  V30 2 1 3 1
M  V30 3 1 4 2
M  V30 4 1 5 3
M  V30 5 1 5 4
M  V30 6 1 6 3
M  V30 7 1 7 1
M  V30 8 1 8 1
M  V30 9 1 9 2
M  V30 10 1 10 2
M  V30 11 1 11 3
M  V30 12 1 12 4
M  V30 13 1 13 4
M  V30 14 1 14 5
M  V30 15 1 15 5
M  V30 16 1 16 6
M  V30 END BOND
M  V30 END CTAB
M  END
>  <i_epik_Tot_Q>  (1) 
0

>  <i_epik_Tot_abs_Q>  (1) 
0

>  <i_i_glide_confnum>  (1) 
2

>  <i_i_glide_lignum>  (1) 
16

>  <i_i_glide_posenum>  (1) 
331

>  <i_i_glide_rotatable_bonds>  (1) 
1

>  <i_lp_mmshare_version>  (1) 
72125

>  <i_m_source_file_index>  (1) 
16

>  <i_f3d_flags>  (1) 
0

>  <num_sample>  (1) 
50

>  <b_lp_Chiralities_Consistent>  (1) 
1

>  <r_epik_Charging_Adjusted_Penalty>  (1) 
0

>  <r_epik_Ionization_Penalty>  (1) 
4.538991431931509e-07

>  <r_epik_Ionization_Penalty_Charging>  (1) 
0

>  <r_epik_Ionization_Penalty_Neutral>  (1) 
4.538991431931509e-07

>  <r_epik_State_Penalty>  (1) 
-0

>  <r_glide_ring_energy>  (1) 
0.076601694165865028

>  <r_i_docking_score>  (1) 
-5.3480356031949352

>  <r_i_glide_ecoul>  (1) 
-1.4598358135365788

>  <r_i_glide_eff_state_penalty>  (1) 
-0

>  <r_i_glide_einternal>  (1) 
0.11833605271652071

>  <r_i_glide_emodel>  (1) 
-21.575515834865033

>  <r_i_glide_emodel_strain>  (1) 
0.34765480891866929

>  <r_i_glide_energy>  (1) 
-16.728584338179054

>  <r_i_glide_erotb>  (1) 
0

>  <r_i_glide_esite>  (1) 
0

>  <r_i_glide_evdw>  (1) 
-15.268748524642476

>  <r_i_glide_gscore>  (1) 
-5.3480356031949352

>  <r_i_glide_gscore_strain>  (1) 
0

>  <r_i_glide_hbond>  (1) 
-0.31277694328323846

>  <r_i_glide_ligand_efficiency>  (1) 
-0.8913392671991559

>  <r_i_glide_ligand_efficiency_ln>  (1) 
-1.9156505645071609

>  <r_i_glide_ligand_efficiency_sa>  (1) 
-1.6196709376274951

>  <r_i_glide_lipo>  (1) 
-1.6409089579074796

>  <r_i_glide_metal>  (1) 
-0

>  <r_i_glide_rewards>  (1) 
-2.4119369037416072

>  <r_lp_Energy>  (1) 
8.9029089999999993

>  <r_lp_tautomer_probability>  (1) 
1

>  <s_epik_cmdline>  (1) 
J2VwaWtfcHl0aG9uJywgJy1waHQnLCAnMS4wJywgJy1waCcsICc3LjQnLCAnLXRuJywgJzgnLCAnLW1hJywgJzUwMCcsICctaW1hZScsICc8aW5maWxlLm1hZT4nLCAnLW9tYWUnLCAnPG91dGZpbGUubWFlPic=

>  <s_epik_input>  (1) 
W09IXVtDSF0xW0NIMl1bQ0gyXVtDSDJdW0NIMl0x

>  <s_glide_docking_method>  (1) 
confgen

>  <s_i_glide_gridfile>  (1) 
gpcr_5ht2c_6bqh_protein_autoprepared_prepared

>  <s_lp_Force_Field>  (1) 
S-OPLS

>  <s_lp_Variant>  (1) 
Pocket2Mol_15-1

>  <s_m_source_file>  (1) 
generated_GPCR_5HT2C_ligand_Pocket2Mol_2026-06-23_prepared.sdf

>  <GenAI_Model>  (1) 
Pocket2Mol

>  <Protein>  (1) 
GPCR_5HT2C

$$$$
Pocket2Mol_36
     RDKit          3D

  0  0  0  0  0  0  0  0  0  0999 V3000
M  V30 BEGIN CTAB
M  V30 COUNTS 17 17 0 0 1
M  V30 BEGIN ATOM
M  V30 1 C 38.994560 27.764880 52.478025 0
M  V30 2 C 38.580357 28.988712 53.316686 0
M  V30 3 C 39.583898 30.137040 53.174478 0
M  V30 4 O 39.998284 30.752080 54.154321 0
M  V30 5 C 39.337560 28.138125 51.026010 0
M  V30 6 C 40.427010 29.221582 50.967862 0
M  V30 7 C 40.045137 30.484681 51.756169 0
M  V30 8 H 39.854502 27.281296 52.940916 0
M  V30 9 H 38.191904 27.026296 52.486271 0
M  V30 10 H 38.470533 28.721046 54.368481 0
M  V30 11 H 39.257799 31.013731 51.224576 0
M  V30 12 H 37.609137 29.342872 52.976400 0
M  V30 13 H 38.444762 28.503390 50.522467 0
M  V30 14 H 39.660284 27.248157 50.483481 0
M  V30 15 H 40.631148 29.489219 49.930821 0
M  V30 16 H 41.354764 28.815359 51.367785 0
M  V30 17 H 40.887176 31.173701 51.808137 0
M  V30 END ATOM
M  V30 BEGIN BOND
M  V30 1 1 2 1
M  V30 2 1 3 2
M  V30 3 2 4 3
M  V30 4 1 5 1
M  V30 5 1 6 5
M  V30 6 1 7 3
M  V30 7 1 7 6
M  V30 8 1 8 1
M  V30 9 1 9 1
M  V30 10 1 10 2
M  V30 11 1 11 7
M  V30 12 1 12 2
M  V30 13 1 13 5
M  V30 14 1 14 5
M  V30 15 1 15 6
M  V30 16 1 16 6
M  V30 17 1 17 7
M  V30 END BOND
M  V30 END CTAB
M  END
>  <i_epik_Tot_Q>  (1) 
0

>  <i_epik_Tot_abs_Q>  (1) 
0

>  <i_i_glide_confnum>  (1) 
1

>  <i_i_glide_lignum>  (1) 
37

>  <i_i_glide_posenum>  (1) 
299

>  <i_i_glide_rotatable_bonds>  (1) 
0

>  <i_lp_mmshare_version>  (1) 
72125

>  <i_m_source_file_index>  (1) 
37

>  <i_f3d_flags>  (1) 
0

>  <num_sample>  (1) 
50

>  <b_lp_Chiralities_Consistent>  (1) 
1

>  <r_epik_Charging_Adjusted_Penalty>  (1) 
0

>  <r_epik_Ionization_Penalty>  (1) 
3.7730911281982554e-13

>  <r_epik_Ionization_Penalty_Charging>  (1) 
0

>  <r_epik_Ionization_Penalty_Neutral>  (1) 
3.7730911281982554e-13

>  <r_epik_State_Penalty>  (1) 
-0

>  <r_glide_ring_energy>  (1) 
0

>  <r_i_docking_score>  (1) 
-5.3475722730366861

>  <r_i_glide_ecoul>  (1) 
0.39732333744060355

>  <r_i_glide_eff_state_penalty>  (1) 
-0

>  <r_i_glide_einternal>  (1) 
0

>  <r_i_glide_emodel>  (1) 
-20.991838131961295

>  <r_i_glide_emodel_strain>  (1) 
0

>  <r_i_glide_energy>  (1) 
-15.414939792025212

>  <r_i_glide_erotb>  (1) 
0

>  <r_i_glide_esite>  (1) 
0

>  <r_i_glide_evdw>  (1) 
-15.812263129465816

>  <r_i_glide_gscore>  (1) 
-5.3475722730366861

>  <r_i_glide_gscore_strain>  (1) 
0

>  <r_i_glide_hbond>  (1) 
0

>  <r_i_glide_ligand_efficiency>  (1) 
-0.76393889614809807

>  <r_i_glide_ligand_efficiency_ln>  (1) 
-1.8152530126390756

>  <r_i_glide_ligand_efficiency_sa>  (1) 
-1.4613625361744145

>  <r_i_glide_lipo>  (1) 
-1.4710543619254128

>  <r_i_glide_metal>  (1) 
-0

>  <r_i_glide_rewards>  (1) 
-3.1455032552540736

>  <r_lp_Energy>  (1) 
-0.38638499999999998

>  <r_lp_tautomer_probability>  (1) 
1

>  <s_epik_cmdline>  (1) 
J2VwaWtfcHl0aG9uJywgJy1waHQnLCAnMS4wJywgJy1waCcsICc3LjQnLCAnLXRuJywgJzgnLCAnLW1hJywgJzUwMCcsICctaW1hZScsICc8aW5maWxlLm1hZT4nLCAnLW9tYWUnLCAnPG91dGZpbGUubWFlPic=

>  <s_epik_input>  (1) 
W0NIMl0xW0NIMl1bQ0gyXVtDSDJdW0NIXT1DMVtPSF0=

>  <s_glide_docking_method>  (1) 
confgen

>  <s_i_glide_gridfile>  (1) 
gpcr_5ht2c_6bqh_protein_autoprepared_prepared

>  <s_lp_Force_Field>  (1) 
S-OPLS

>  <s_lp_Variant>  (1) 
Pocket2Mol_36-1

>  <s_m_source_file>  (1) 
generated_GPCR_5HT2C_ligand_Pocket2Mol_2026-06-23_prepared.sdf

>  <GenAI_Model>  (1) 
Pocket2Mol

>  <Protein>  (1) 
GPCR_5HT2C

$$$$
Pocket2Mol_15
     RDKit          3D

  0  0  0  0  0  0  0  0  0  0999 V3000
M  V30 BEGIN CTAB
M  V30 COUNTS 16 16 0 0 1
M  V30 BEGIN ATOM
M  V30 1 C 40.045138 30.614133 51.595646 0
M  V30 2 C 39.617361 30.329398 53.036030 0
M  V30 3 C 40.166957 29.239573 50.962635 0
M  V30 4 C 38.843434 29.000866 52.997392 0
M  V30 5 C 39.051889 28.405884 51.596056 0
M  V30 6 O 40.045137 29.337764 49.563218 0
M  V30 7 H 40.973875 31.181015 51.541708 0
M  V30 8 H 39.296478 31.199393 51.063894 0
M  V30 9 H 40.492662 30.222250 53.675066 0
M  V30 10 H 39.020212 31.144035 53.448635 0
M  V30 11 H 41.136690 28.813907 51.223381 0
M  V30 12 H 39.208277 28.325627 53.773345 0
M  V30 13 H 37.780043 29.158768 53.184121 0
M  V30 14 H 38.128215 28.503643 51.024582 0
M  V30 15 H 39.300118 27.343307 51.627101 0
M  V30 16 H 39.167037 29.635421 49.351664 0
M  V30 END ATOM
M  V30 BEGIN BOND
M  V30 1 1 2 1
M  V30 2 1 3 1
M  V30 3 1 4 2
M  V30 4 1 5 3
M  V30 5 1 5 4
M  V30 6 1 6 3
M  V30 7 1 7 1
M  V30 8 1 8 1
M  V30 9 1 9 2
M  V30 10 1 10 2
M  V30 11 1 11 3
M  V30 12 1 12 4
M  V30 13 1 13 4
M  V30 14 1 14 5
M  V30 15 1 15 5
M  V30 16 1 16 6
M  V30 END BOND
M  V30 END CTAB
M  END
>  <i_epik_Tot_Q>  (1) 
0

>  <i_epik_Tot_abs_Q>  (1) 
0

>  <i_i_glide_confnum>  (1) 
1

>  <i_i_glide_lignum>  (1) 
16

>  <i_i_glide_posenum>  (1) 
132

>  <i_i_glide_rotatable_bonds>  (1) 
1

>  <i_lp_mmshare_version>  (1) 
72125

>  <i_m_source_file_index>  (1) 
16

>  <i_f3d_flags>  (1) 
0

>  <num_sample>  (1) 
50

>  <b_lp_Chiralities_Consistent>  (1) 
1

>  <r_epik_Charging_Adjusted_Penalty>  (1) 
0

>  <r_epik_Ionization_Penalty>  (1) 
4.538991431931509e-07

>  <r_epik_Ionization_Penalty_Charging>  (1) 
0

>  <r_epik_Ionization_Penalty_Neutral>  (1) 
4.538991431931509e-07

>  <r_epik_State_Penalty>  (1) 
-0

>  <r_glide_ring_energy>  (1) 
0

>  <r_i_docking_score>  (1) 
-5.337104260051043

>  <r_i_glide_ecoul>  (1) 
-2.687021231131169

>  <r_i_glide_eff_state_penalty>  (1) 
-0

>  <r_i_glide_einternal>  (1) 
0.041139649582389914

>  <r_i_glide_emodel>  (1) 
-20.913774947304404

>  <r_i_glide_emodel_strain>  (1) 
0

>  <r_i_glide_energy>  (1) 
-15.691329073092069

>  <r_i_glide_erotb>  (1) 
0

>  <r_i_glide_esite>  (1) 
0

>  <r_i_glide_evdw>  (1) 
-13.0043078419609

>  <r_i_glide_gscore>  (1) 
-5.337104260051043

>  <r_i_glide_gscore_strain>  (1) 
0

>  <r_i_glide_hbond>  (1) 
-0.32000000000000001

>  <r_i_glide_ligand_efficiency>  (1) 
-0.88951737667517383

>  <r_i_glide_ligand_efficiency_ln>  (1) 
-1.9117349896647069

>  <r_i_glide_ligand_efficiency_sa>  (1) 
-1.6163603428384818

>  <r_i_glide_lipo>  (1) 
-1.470594316482678

>  <r_i_glide_metal>  (1) 
-0

>  <r_i_glide_rewards>  (1) 
-2.4932413668006457

>  <r_lp_Energy>  (1) 
8.9029089999999993

>  <r_lp_tautomer_probability>  (1) 
1

>  <s_epik_cmdline>  (1) 
J2VwaWtfcHl0aG9uJywgJy1waHQnLCAnMS4wJywgJy1waCcsICc3LjQnLCAnLXRuJywgJzgnLCAnLW1hJywgJzUwMCcsICctaW1hZScsICc8aW5maWxlLm1hZT4nLCAnLW9tYWUnLCAnPG91dGZpbGUubWFlPic=

>  <s_epik_input>  (1) 
W09IXVtDSF0xW0NIMl1bQ0gyXVtDSDJdW0NIMl0x

>  <s_glide_docking_method>  (1) 
confgen

>  <s_i_glide_gridfile>  (1) 
gpcr_5ht2c_6bqh_protein_autoprepared_prepared

>  <s_lp_Force_Field>  (1) 
S-OPLS

>  <s_lp_Variant>  (1) 
Pocket2Mol_15-1

>  <s_m_source_file>  (1) 
generated_GPCR_5HT2C_ligand_Pocket2Mol_2026-06-23_prepared.sdf

>  <GenAI_Model>  (1) 
Pocket2Mol

>  <Protein>  (1) 
GPCR_5HT2C

$$$$
Pocket2Mol_14
     RDKit          3D

  0  0  0  0  0  0  0  0  0  0999 V3000
M  V30 BEGIN CTAB
M  V30 COUNTS 18 18 0 0 1
M  V30 BEGIN ATOM
M  V30 1 C 39.645832 29.930967 52.682692 0
M  V30 2 C 38.591328 28.937683 53.191303 0
M  V30 3 C 40.204213 29.347960 51.367746 0
M  V30 4 C 38.792924 27.664946 52.368990 0
M  V30 5 C 39.288946 28.171910 51.018398 0
M  V30 6 C 40.352945 30.374293 50.239532 0
M  V30 7 H 40.445137 30.044032 53.413732 0
M  V30 8 H 39.245137 30.934475 52.559832 0
M  V30 9 H 38.671042 28.756957 54.263546 0
M  V30 10 H 37.596498 29.337635 53.001910 0
M  V30 11 H 41.192863 28.937751 51.576920 0
M  V30 12 H 39.557835 27.040038 52.831958 0
M  V30 13 H 37.882976 27.069874 52.286233 0
M  V30 14 H 38.445138 28.524289 50.427787 0
M  V30 15 H 39.797719 27.397322 50.443967 0
M  V30 16 H 39.395558 30.829304 49.983329 0
M  V30 17 H 40.752396 29.903559 49.342416 0
M  V30 18 H 41.036583 31.173497 50.525233 0
M  V30 END ATOM
M  V30 BEGIN BOND
M  V30 1 1 2 1
M  V30 2 1 3 1
M  V30 3 1 4 2
M  V30 4 1 5 3
M  V30 5 1 5 4
M  V30 6 1 6 3
M  V30 7 1 7 1
M  V30 8 1 8 1
M  V30 9 1 9 2
M  V30 10 1 10 2
M  V30 11 1 11 3
M  V30 12 1 12 4
M  V30 13 1 13 4
M  V30 14 1 14 5
M  V30 15 1 15 5
M  V30 16 1 16 6
M  V30 17 1 17 6
M  V30 18 1 18 6
M  V30 END BOND
M  V30 END CTAB
M  END
>  <i_epik_Tot_Q>  (1) 
0

>  <i_epik_Tot_abs_Q>  (1) 
0

>  <i_i_glide_confnum>  (1) 
2

>  <i_i_glide_lignum>  (1) 
15

>  <i_i_glide_posenum>  (1) 
384

>  <i_i_glide_rotatable_bonds>  (1) 
0

>  <i_lp_mmshare_version>  (1) 
72125

>  <i_m_source_file_index>  (1) 
15

>  <i_f3d_flags>  (1) 
0

>  <num_sample>  (1) 
50

>  <b_lp_Chiralities_Consistent>  (1) 
1

>  <r_epik_Charging_Adjusted_Penalty>  (1) 
0

>  <r_epik_Ionization_Penalty>  (1) 
0

>  <r_epik_Ionization_Penalty_Charging>  (1) 
0

>  <r_epik_Ionization_Penalty_Neutral>  (1) 
0

>  <r_epik_State_Penalty>  (1) 
-0

>  <r_glide_ring_energy>  (1) 
0.2204327727677606

>  <r_i_docking_score>  (1) 
-5.326128039128065

>  <r_i_glide_ecoul>  (1) 
-0.20315906235779982

>  <r_i_glide_eff_state_penalty>  (1) 
-0

>  <r_i_glide_einternal>  (1) 
0

>  <r_i_glide_emodel>  (1) 
-21.829060950594911

>  <r_i_glide_emodel_strain>  (1) 
0.14179956744466082

>  <r_i_glide_energy>  (1) 
-16.745753519427453

>  <r_i_glide_erotb>  (1) 
0

>  <r_i_glide_esite>  (1) 
0

>  <r_i_glide_evdw>  (1) 
-16.542594457069654

>  <r_i_glide_gscore>  (1) 
-5.326128039128065

>  <r_i_glide_gscore_strain>  (1) 
0

>  <r_i_glide_hbond>  (1) 
0

>  <r_i_glide_ligand_efficiency>  (1) 
-0.88768800652134416

>  <r_i_glide_ligand_efficiency_ln>  (1) 
-1.9078033397342731

>  <r_i_glide_ligand_efficiency_sa>  (1) 
-1.6130361566600453

>  <r_i_glide_lipo>  (1) 
-1.9660309402809579

>  <r_i_glide_metal>  (1) 
-0

>  <r_i_glide_rewards>  (1) 
-2.5024935166399547

>  <r_lp_Energy>  (1) 
6.4120089999999994

>  <r_lp_tautomer_probability>  (1) 
1

>  <s_epik_cmdline>  (1) 
J2VwaWtfcHl0aG9uJywgJy1waHQnLCAnMS4wJywgJy1waCcsICc3LjQnLCAnLXRuJywgJzgnLCAnLW1hJywgJzUwMCcsICctaW1hZScsICc8aW5maWxlLm1hZT4nLCAnLW9tYWUnLCAnPG91dGZpbGUubWFlPic=

>  <s_epik_input>  (1) 
W0NIM11bQ0hdMVtDSDJdW0NIMl1bQ0gyXVtDSDJdMQ==

>  <s_glide_docking_method>  (1) 
confgen

>  <s_i_glide_gridfile>  (1) 
gpcr_5ht2c_6bqh_protein_autoprepared_prepared

>  <s_lp_Force_Field>  (1) 
S-OPLS

>  <s_lp_Variant>  (1) 
Pocket2Mol_14-1

>  <s_m_source_file>  (1) 
generated_GPCR_5HT2C_ligand_Pocket2Mol_2026-06-23_prepared.sdf

>  <GenAI_Model>  (1) 
Pocket2Mol

>  <Protein>  (1) 
GPCR_5HT2C

$$$$
Pocket2Mol_30
     RDKit          3D

  0  0  0  0  0  0  0  0  0  0999 V3000
M  V30 BEGIN CTAB
M  V30 COUNTS 15 15 0 0 1
M  V30 BEGIN ATOM
M  V30 1 C 40.129953 30.595251 50.043213 0
M  V30 2 C 40.238802 30.937768 51.528142 0
M  V30 3 O 39.930762 29.737823 52.194638 0
M  V30 4 O 40.030466 29.185820 49.999795 0
M  V30 5 C 40.250674 28.744933 51.290808 0
M  V30 6 C 39.415224 27.485389 51.580371 0
M  V30 7 O 38.045142 27.779538 51.767698 0
M  V30 8 H 41.007377 30.936980 49.493307 0
M  V30 9 H 39.245192 31.045256 49.594693 0
M  V30 10 H 41.245281 31.256104 51.767821 0
M  V30 11 H 39.573979 31.737756 51.836014 0
M  V30 12 H 41.317331 28.537782 51.367762 0
M  V30 13 H 39.793808 27.011866 52.486495 0
M  V30 14 H 39.543039 26.782545 50.756560 0
M  V30 15 H 37.520123 27.004050 51.606604 0
M  V30 END ATOM
M  V30 BEGIN BOND
M  V30 1 1 2 1
M  V30 2 1 3 2
M  V30 3 1 4 1
M  V30 4 1 5 3
M  V30 5 1 5 4
M  V30 6 1 6 5
M  V30 7 1 7 6
M  V30 8 1 8 1
M  V30 9 1 9 1
M  V30 10 1 10 2
M  V30 11 1 11 2
M  V30 12 1 12 5
M  V30 13 1 13 6
M  V30 14 1 14 6
M  V30 15 1 15 7
M  V30 END BOND
M  V30 END CTAB
M  END
>  <i_epik_Tot_Q>  (1) 
0

>  <i_epik_Tot_abs_Q>  (1) 
0

>  <i_i_glide_confnum>  (1) 
1

>  <i_i_glide_lignum>  (1) 
31

>  <i_i_glide_posenum>  (1) 
285

>  <i_i_glide_rotatable_bonds>  (1) 
2

>  <i_lp_mmshare_version>  (1) 
72125

>  <i_m_source_file_index>  (1) 
31

>  <i_f3d_flags>  (1) 
0

>  <num_sample>  (1) 
50

>  <b_lp_Chiralities_Consistent>  (1) 
1

>  <r_epik_Charging_Adjusted_Penalty>  (1) 
0

>  <r_epik_Ionization_Penalty>  (1) 
3.4422651255072934e-07

>  <r_epik_Ionization_Penalty_Charging>  (1) 
0

>  <r_epik_Ionization_Penalty_Neutral>  (1) 
3.4422651255072934e-07

>  <r_epik_State_Penalty>  (1) 
-0

>  <r_glide_ring_energy>  (1) 
0

>  <r_i_docking_score>  (1) 
-5.3147254998236937

>  <r_i_glide_ecoul>  (1) 
-3.3541223003593323

>  <r_i_glide_eff_state_penalty>  (1) 
-0

>  <r_i_glide_einternal>  (1) 
1.8499862921426231

>  <r_i_glide_emodel>  (1) 
-22.271718578905308

>  <r_i_glide_emodel_strain>  (1) 
0.46375450875671653

>  <r_i_glide_energy>  (1) 
-17.802878272250823

>  <r_i_glide_erotb>  (1) 
0

>  <r_i_glide_esite>  (1) 
0

>  <r_i_glide_evdw>  (1) 
-14.448755971891492

>  <r_i_glide_gscore>  (1) 
-5.3147254998236937

>  <r_i_glide_gscore_strain>  (1) 
0

>  <r_i_glide_hbond>  (1) 
-0.31037154759901314

>  <r_i_glide_ligand_efficiency>  (1) 
-0.75924649997481342

>  <r_i_glide_ligand_efficiency_ln>  (1) 
-1.8041030550534631

>  <r_i_glide_ligand_efficiency_sa>  (1) 
-1.4523863052126165

>  <r_i_glide_lipo>  (1) 
-0.72466006061096833

>  <r_i_glide_metal>  (1) 
-0

>  <r_i_glide_rewards>  (1) 
-3.0541377479652376

>  <r_lp_Energy>  (1) 
-10.260740999999999

>  <r_lp_tautomer_probability>  (1) 
1

>  <s_epik_Chemistry_Notes>  (1) 
This compound contains an acetal/aminal-like group ( X-CH(R)-Y where X, Y are N, S, or O) that may be acid/base labile, releasing an aldehyde.

>  <s_epik_cmdline>  (1) 
J2VwaWtfcHl0aG9uJywgJy1waHQnLCAnMS4wJywgJy1waCcsICc3LjQnLCAnLXRuJywgJzgnLCAnLW1hJywgJzUwMCcsICctaW1hZScsICc8aW5maWxlLm1hZT4nLCAnLW9tYWUnLCAnPG91dGZpbGUubWFlPic=

>  <s_epik_input>  (1) 
TzFbQ0gyXVtDSDJdT1tDSF0xW0NIMl1bT0hd

>  <s_glide_docking_method>  (1) 
confgen

>  <s_i_glide_gridfile>  (1) 
gpcr_5ht2c_6bqh_protein_autoprepared_prepared

>  <s_lp_Force_Field>  (1) 
S-OPLS

>  <s_lp_Variant>  (1) 
Pocket2Mol_30-1

>  <s_m_source_file>  (1) 
generated_GPCR_5HT2C_ligand_Pocket2Mol_2026-06-23_prepared.sdf

>  <GenAI_Model>  (1) 
Pocket2Mol

>  <Protein>  (1) 
GPCR_5HT2C

$$$$
Pocket2Mol_30
     RDKit          3D

  0  0  0  0  0  0  0  0  0  0999 V3000
M  V30 BEGIN CTAB
M  V30 COUNTS 15 15 0 0 1
M  V30 BEGIN ATOM
M  V30 1 C 38.649600 26.990907 53.558288 0
M  V30 2 C 37.939814 28.329771 53.448955 0
M  V30 3 O 37.948547 28.537741 52.055067 0
M  V30 4 O 39.645119 27.121236 52.567867 0
M  V30 5 C 39.093374 27.916188 51.570079 0
M  V30 6 C 40.116387 28.998868 51.178176 0
M  V30 7 O 40.045136 29.337759 49.807254 0
M  V30 8 H 37.973474 26.171395 53.312365 0
M  V30 9 H 39.074047 26.811247 54.546069 0
M  V30 10 H 36.929443 28.316315 53.857759 0
M  V30 11 H 38.511348 29.117920 53.941268 0
M  V30 12 H 38.831838 27.270888 50.729175 0
M  V30 13 H 41.118804 28.613472 51.367760 0
M  V30 14 H 39.988136 29.880003 51.808240 0
M  V30 15 H 39.162391 29.627888 49.607466 0
M  V30 END ATOM
M  V30 BEGIN BOND
M  V30 1 1 2 1
M  V30 2 1 3 2
M  V30 3 1 4 1
M  V30 4 1 5 3
M  V30 5 1 5 4
M  V30 6 1 6 5
M  V30 7 1 7 6
M  V30 8 1 8 1
M  V30 9 1 9 1
M  V30 10 1 10 2
M  V30 11 1 11 2
M  V30 12 1 12 5
M  V30 13 1 13 6
M  V30 14 1 14 6
M  V30 15 1 15 7
M  V30 END BOND
M  V30 END CTAB
M  END
>  <i_epik_Tot_Q>  (1) 
0

>  <i_epik_Tot_abs_Q>  (1) 
0

>  <i_i_glide_confnum>  (1) 
2

>  <i_i_glide_lignum>  (1) 
31

>  <i_i_glide_posenum>  (1) 
223

>  <i_i_glide_rotatable_bonds>  (1) 
2

>  <i_lp_mmshare_version>  (1) 
72125

>  <i_m_source_file_index>  (1) 
31

>  <i_f3d_flags>  (1) 
0

>  <num_sample>  (1) 
50

>  <b_lp_Chiralities_Consistent>  (1) 
1

>  <r_epik_Charging_Adjusted_Penalty>  (1) 
0

>  <r_epik_Ionization_Penalty>  (1) 
3.4422651255072934e-07

>  <r_epik_Ionization_Penalty_Charging>  (1) 
0

>  <r_epik_Ionization_Penalty_Neutral>  (1) 
3.4422651255072934e-07

>  <r_epik_State_Penalty>  (1) 
-0

>  <r_glide_ring_energy>  (1) 
0.8940093629212682

>  <r_i_docking_score>  (1) 
-5.3088873325633861

>  <r_i_glide_ecoul>  (1) 
-2.9318298914390812

>  <r_i_glide_eff_state_penalty>  (1) 
-0

>  <r_i_glide_einternal>  (1) 
0.093418535692169846

>  <r_i_glide_emodel>  (1) 
-23.05913774666374

>  <r_i_glide_emodel_strain>  (1) 
0

>  <r_i_glide_energy>  (1) 
-17.254693548705827

>  <r_i_glide_erotb>  (1) 
0

>  <r_i_glide_esite>  (1) 
0

>  <r_i_glide_evdw>  (1) 
-14.322863657266746

>  <r_i_glide_gscore>  (1) 
-5.3088873325633861

>  <r_i_glide_gscore_strain>  (1) 
0

>  <r_i_glide_hbond>  (1) 
-0.32000000000000001

>  <r_i_glide_ligand_efficiency>  (1) 
-0.75841247608048368

>  <r_i_glide_ligand_efficiency_ln>  (1) 
-1.802121267773841

>  <r_i_glide_ligand_efficiency_sa>  (1) 
-1.4507908748979761

>  <r_i_glide_lipo>  (1) 
-0.94130299931752015

>  <r_i_glide_metal>  (1) 
-0

>  <r_i_glide_rewards>  (1) 
-2.8916666666666666

>  <r_lp_Energy>  (1) 
-10.260740999999999

>  <r_lp_tautomer_probability>  (1) 
1

>  <s_epik_Chemistry_Notes>  (1) 
This compound contains an acetal/aminal-like group ( X-CH(R)-Y where X, Y are N, S, or O) that may be acid/base labile, releasing an aldehyde.

>  <s_epik_cmdline>  (1) 
J2VwaWtfcHl0aG9uJywgJy1waHQnLCAnMS4wJywgJy1waCcsICc3LjQnLCAnLXRuJywgJzgnLCAnLW1hJywgJzUwMCcsICctaW1hZScsICc8aW5maWxlLm1hZT4nLCAnLW9tYWUnLCAnPG91dGZpbGUubWFlPic=

>  <s_epik_input>  (1) 
TzFbQ0gyXVtDSDJdT1tDSF0xW0NIMl1bT0hd

>  <s_glide_docking_method>  (1) 
confgen

>  <s_i_glide_gridfile>  (1) 
gpcr_5ht2c_6bqh_protein_autoprepared_prepared

>  <s_lp_Force_Field>  (1) 
S-OPLS

>  <s_lp_Variant>  (1) 
Pocket2Mol_30-1

>  <s_m_source_file>  (1) 
generated_GPCR_5HT2C_ligand_Pocket2Mol_2026-06-23_prepared.sdf

>  <GenAI_Model>  (1) 
Pocket2Mol

>  <Protein>  (1) 
GPCR_5HT2C

$$$$
Pocket2Mol_34
     RDKit          3D

  0  0  0  0  0  0  0  0  0  0999 V3000
M  V30 BEGIN CTAB
M  V30 COUNTS 19 19 0 0 1
M  V30 BEGIN ATOM
M  V30 1 C 40.040851 28.373770 50.967764 0
M  V30 2 C 39.785848 29.862410 51.149649 0
M  V30 3 C 38.942083 27.527827 51.613299 0
M  V30 4 O 40.876667 30.537771 50.567760 0
M  V30 5 C 38.786547 27.833637 53.109486 0
M  V30 6 C 38.610191 29.337783 53.367818 0
M  V30 7 C 39.645187 30.221831 52.646010 0
M  V30 8 H 40.108205 28.137664 49.907104 0
M  V30 9 H 41.004779 28.137755 51.412736 0
M  V30 10 H 38.886608 30.137736 50.597586 0
M  V30 11 H 37.997944 27.705756 51.099609 0
M  V30 12 H 39.184608 26.477655 51.472113 0
M  V30 13 H 40.724116 31.471040 50.612026 0
M  V30 14 H 37.927444 27.290259 53.504969 0
M  V30 15 H 39.645140 27.460240 53.660148 0
M  V30 16 H 37.629111 29.624454 53.017623 0
M  V30 17 H 38.622032 29.541300 54.439153 0
M  V30 18 H 40.602588 30.137678 53.153203 0
M  V30 19 H 39.364305 31.270552 52.750485 0
M  V30 END ATOM
M  V30 BEGIN BOND
M  V30 1 1 2 1
M  V30 2 1 3 1
M  V30 3 1 4 2
M  V30 4 1 5 3
M  V30 5 1 6 5
M  V30 6 1 7 2
M  V30 7 1 7 6
M  V30 8 1 8 1
M  V30 9 1 9 1
M  V30 10 1 10 2
M  V30 11 1 11 3
M  V30 12 1 12 3
M  V30 13 1 13 4
M  V30 14 1 14 5
M  V30 15 1 15 5
M  V30 16 1 16 6
M  V30 17 1 17 6
M  V30 18 1 18 7
M  V30 19 1 19 7
M  V30 END BOND
M  V30 END CTAB
M  END
>  <i_epik_Tot_Q>  (1) 
0

>  <i_epik_Tot_abs_Q>  (1) 
0

>  <i_i_glide_confnum>  (1) 
1

>  <i_i_glide_lignum>  (1) 
35

>  <i_i_glide_posenum>  (1) 
339

>  <i_i_glide_rotatable_bonds>  (1) 
1

>  <i_lp_mmshare_version>  (1) 
72125

>  <i_m_source_file_index>  (1) 
35

>  <i_f3d_flags>  (1) 
0

>  <num_sample>  (1) 
50

>  <b_lp_Chiralities_Consistent>  (1) 
1

>  <r_epik_Charging_Adjusted_Penalty>  (1) 
0

>  <r_epik_Ionization_Penalty>  (1) 
4.7751045033339745e-07

>  <r_epik_Ionization_Penalty_Charging>  (1) 
0

>  <r_epik_Ionization_Penalty_Neutral>  (1) 
4.7751045033339745e-07

>  <r_epik_State_Penalty>  (1) 
-0

>  <r_glide_ring_energy>  (1) 
0

>  <r_i_docking_score>  (1) 
-5.3048117672295128

>  <r_i_glide_ecoul>  (1) 
-0.74471333629734326

>  <r_i_glide_eff_state_penalty>  (1) 
-0

>  <r_i_glide_einternal>  (1) 
0.32032515345010026

>  <r_i_glide_emodel>  (1) 
-21.090297441431836

>  <r_i_glide_emodel_strain>  (1) 
0

>  <r_i_glide_energy>  (1) 
-16.193243606536161

>  <r_i_glide_erotb>  (1) 
0

>  <r_i_glide_esite>  (1) 
0

>  <r_i_glide_evdw>  (1) 
-15.448530270238818

>  <r_i_glide_gscore>  (1) 
-5.3048117672295128

>  <r_i_glide_gscore_strain>  (1) 
0

>  <r_i_glide_hbond>  (1) 
0

>  <r_i_glide_ligand_efficiency>  (1) 
-0.75783025246135893

>  <r_i_glide_ligand_efficiency_ln>  (1) 
-1.8007378021799632

>  <r_i_glide_ligand_efficiency_sa>  (1) 
-1.4496771211816057

>  <r_i_glide_lipo>  (1) 
-1.886810377476476

>  <r_i_glide_metal>  (1) 
-0

>  <r_i_glide_rewards>  (1) 
-2.5338678757964939

>  <r_lp_Energy>  (1) 
3.8568439999999997

>  <r_lp_tautomer_probability>  (1) 
1

>  <s_epik_cmdline>  (1) 
J2VwaWtfcHl0aG9uJywgJy1waHQnLCAnMS4wJywgJy1waCcsICc3LjQnLCAnLXRuJywgJzgnLCAnLW1hJywgJzUwMCcsICctaW1hZScsICc8aW5maWxlLm1hZT4nLCAnLW9tYWUnLCAnPG91dGZpbGUubWFlPic=

>  <s_epik_input>  (1) 
W09IXVtDSF0xW0NIMl1bQ0gyXVtDSDJdW0NIMl1bQ0gyXTE=

>  <s_glide_docking_method>  (1) 
confgen

>  <s_i_glide_gridfile>  (1) 
gpcr_5ht2c_6bqh_protein_autoprepared_prepared

>  <s_lp_Force_Field>  (1) 
S-OPLS

>  <s_lp_Variant>  (1) 
Pocket2Mol_34-1

>  <s_m_source_file>  (1) 
generated_GPCR_5HT2C_ligand_Pocket2Mol_2026-06-23_prepared.sdf

>  <GenAI_Model>  (1) 
Pocket2Mol

>  <Protein>  (1) 
GPCR_5HT2C

$$$$
Pocket2Mol_28
     RDKit          3D

  0  0  0  0  0  0  0  0  0  0999 V3000
M  V30 BEGIN CTAB
M  V30 COUNTS 14 14 0 0 1
M  V30 BEGIN ATOM
M  V30 1 C 38.451293 27.827407 52.138395 0
M  V30 2 C 38.450895 28.716273 53.230422 0
M  V30 3 C 39.247134 29.878550 53.193487 0
M  V30 4 N 39.245182 30.759643 54.272677 0
M  V30 5 C 39.246785 28.099046 51.007603 0
M  V30 6 C 40.045137 30.150221 52.060925 0
M  V30 7 C 40.043604 29.260793 50.968804 0
M  V30 8 H 37.839998 26.937874 52.167523 0
M  V30 9 H 37.839001 28.506349 54.095644 0
M  V30 10 H 39.671726 31.670743 54.182354 0
M  V30 11 H 38.554121 30.668993 55.004980 0
M  V30 12 H 39.245155 27.416513 50.169842 0
M  V30 13 H 40.654598 31.042117 52.028929 0
M  V30 14 H 40.651954 29.470435 50.101652 0
M  V30 END ATOM
M  V30 BEGIN BOND
M  V30 1 1 2 1
M  V30 2 2 3 2
M  V30 3 1 4 3
M  V30 4 2 5 1
M  V30 5 1 6 3
M  V30 6 1 7 5
M  V30 7 2 7 6
M  V30 8 1 8 1
M  V30 9 1 9 2
M  V30 10 1 10 4
M  V30 11 1 11 4
M  V30 12 1 12 5
M  V30 13 1 13 6
M  V30 14 1 14 7
M  V30 END BOND
M  V30 END CTAB
M  END
>  <i_epik_Tot_Q>  (1) 
0

>  <i_epik_Tot_abs_Q>  (1) 
0

>  <i_i_glide_confnum>  (1) 
1

>  <i_i_glide_lignum>  (1) 
29

>  <i_i_glide_posenum>  (1) 
198

>  <i_i_glide_rotatable_bonds>  (1) 
0

>  <i_lp_mmshare_version>  (1) 
72125

>  <i_m_source_file_index>  (1) 
29

>  <i_f3d_flags>  (1) 
0

>  <num_sample>  (1) 
50

>  <b_lp_Chiralities_Consistent>  (1) 
1

>  <r_epik_Charging_Adjusted_Penalty>  (1) 
0

>  <r_epik_Ionization_Penalty>  (1) 
0.00088153335660618348

>  <r_epik_Ionization_Penalty_Charging>  (1) 
0

>  <r_epik_Ionization_Penalty_Neutral>  (1) 
0.00088153335660618348

>  <r_epik_State_Penalty>  (1) 
-0

>  <r_glide_ring_energy>  (1) 
0

>  <r_i_docking_score>  (1) 
-5.2881460927850323

>  <r_i_glide_ecoul>  (1) 
-1.1928468528179053

>  <r_i_glide_eff_state_penalty>  (1) 
-0

>  <r_i_glide_einternal>  (1) 
0

>  <r_i_glide_emodel>  (1) 
-23.679856333973497

>  <r_i_glide_emodel_strain>  (1) 
0

>  <r_i_glide_energy>  (1) 
-17.839712992778509

>  <r_i_glide_erotb>  (1) 
0

>  <r_i_glide_esite>  (1) 
0

>  <r_i_glide_evdw>  (1) 
-16.646866139960604

>  <r_i_glide_gscore>  (1) 
-5.2881460927850323

>  <r_i_glide_gscore_strain>  (1) 
0

>  <r_i_glide_hbond>  (1) 
0

>  <r_i_glide_ligand_efficiency>  (1) 
-0.75544944182643314

>  <r_i_glide_ligand_efficiency_ln>  (1) 
-1.7950805778923098

>  <r_i_glide_ligand_efficiency_sa>  (1) 
-1.44512279427778

>  <r_i_glide_lipo>  (1) 
-1.8108420603080142

>  <r_i_glide_metal>  (1) 
-0

>  <r_i_glide_rewards>  (1) 
-2.466033697556302

>  <r_lp_Energy>  (1) 
7.0325409999999993

>  <r_lp_tautomer_probability>  (1) 
1

>  <s_epik_cmdline>  (1) 
J2VwaWtfcHl0aG9uJywgJy1waHQnLCAnMS4wJywgJy1waCcsICc3LjQnLCAnLXRuJywgJzgnLCAnLW1hJywgJzUwMCcsICctaW1hZScsICc8aW5maWxlLm1hZT4nLCAnLW9tYWUnLCAnPG91dGZpbGUubWFlPic=

>  <s_epik_input>  (1) 
W2NIXTFbY0hdW2NIXVtjSF1bY0hdYzFbTkgyXQ==

>  <s_glide_docking_method>  (1) 
confgen

>  <s_i_glide_gridfile>  (1) 
gpcr_5ht2c_6bqh_protein_autoprepared_prepared

>  <s_lp_Force_Field>  (1) 
S-OPLS

>  <s_lp_Variant>  (1) 
Pocket2Mol_28-1

>  <s_m_source_file>  (1) 
generated_GPCR_5HT2C_ligand_Pocket2Mol_2026-06-23_prepared.sdf

>  <GenAI_Model>  (1) 
Pocket2Mol

>  <Protein>  (1) 
GPCR_5HT2C

$$$$
Pocket2Mol_8
     RDKit          3D

  0  0  0  0  0  0  0  0  0  0999 V3000
M  V30 BEGIN CTAB
M  V30 COUNTS 12 12 0 0 1
M  V30 BEGIN ATOM
M  V30 1 C 40.045156 30.360344 51.978981 0
M  V30 2 C 39.244867 29.728019 52.987466 0
M  V30 3 C 38.734789 28.516090 52.584423 0
M  V30 4 C 37.857488 27.589391 53.356364 0
M  V30 5 C 40.131823 29.619174 50.829831 0
M  V30 6 S 39.245212 28.138741 50.967763 0
M  V30 7 H 40.516533 31.320404 52.132369 0
M  V30 8 H 39.071849 30.180236 53.953462 0
M  V30 9 H 37.833503 27.859446 54.412853 0
M  V30 10 H 36.839004 27.620400 52.969650 0
M  V30 11 H 38.209413 26.560831 53.279606 0
M  V30 12 H 40.661835 29.854616 49.919441 0
M  V30 END ATOM
M  V30 BEGIN BOND
M  V30 1 1 2 1
M  V30 2 2 3 2
M  V30 3 1 4 3
M  V30 4 2 5 1
M  V30 5 1 6 3
M  V30 6 1 6 5
M  V30 7 1 7 1
M  V30 8 1 8 2
M  V30 9 1 9 4
M  V30 10 1 10 4
M  V30 11 1 11 4
M  V30 12 1 12 5
M  V30 END BOND
M  V30 END CTAB
M  END
>  <i_epik_Tot_Q>  (1) 
0

>  <i_epik_Tot_abs_Q>  (1) 
0

>  <i_i_glide_confnum>  (1) 
1

>  <i_i_glide_lignum>  (1) 
9

>  <i_i_glide_posenum>  (1) 
229

>  <i_i_glide_rotatable_bonds>  (1) 
0

>  <i_lp_mmshare_version>  (1) 
72125

>  <i_m_source_file_index>  (1) 
9

>  <i_f3d_flags>  (1) 
0

>  <num_sample>  (1) 
50

>  <b_lp_Chiralities_Consistent>  (1) 
1

>  <r_epik_Charging_Adjusted_Penalty>  (1) 
0

>  <r_epik_Ionization_Penalty>  (1) 
0

>  <r_epik_Ionization_Penalty_Charging>  (1) 
0

>  <r_epik_Ionization_Penalty_Neutral>  (1) 
0

>  <r_epik_State_Penalty>  (1) 
-0

>  <r_glide_ring_energy>  (1) 
0

>  <r_i_docking_score>  (1) 
-5.2846953382515194

>  <r_i_glide_ecoul>  (1) 
-0.45474813307909018

>  <r_i_glide_eff_state_penalty>  (1) 
-0

>  <r_i_glide_einternal>  (1) 
0

>  <r_i_glide_emodel>  (1) 
-23.602557387815953

>  <r_i_glide_emodel_strain>  (1) 
0

>  <r_i_glide_energy>  (1) 
-17.693144341418201

>  <r_i_glide_erotb>  (1) 
0

>  <r_i_glide_esite>  (1) 
0

>  <r_i_glide_evdw>  (1) 
-17.238396208339111

>  <r_i_glide_gscore>  (1) 
-5.2846953382515194

>  <r_i_glide_gscore_strain>  (1) 
0

>  <r_i_glide_hbond>  (1) 
0

>  <r_i_glide_ligand_efficiency>  (1) 
-0.88078255637525327

>  <r_i_glide_ligand_efficiency_ln>  (1) 
-1.8929622685985845

>  <r_i_glide_ligand_efficiency_sa>  (1) 
-1.6004881209968078

>  <r_i_glide_lipo>  (1) 
-1.7384396289753432

>  <r_i_glide_metal>  (1) 
-0

>  <r_i_glide_rewards>  (1) 
-2.6161236788973565

>  <r_lp_Energy>  (1) 
3.145988

>  <r_lp_tautomer_probability>  (1) 
1

>  <s_epik_cmdline>  (1) 
J2VwaWtfcHl0aG9uJywgJy1waHQnLCAnMS4wJywgJy1waCcsICc3LjQnLCAnLXRuJywgJzgnLCAnLW1hJywgJzUwMCcsICctaW1hZScsICc8aW5maWxlLm1hZT4nLCAnLW9tYWUnLCAnPG91dGZpbGUubWFlPic=

>  <s_epik_input>  (1) 
czFbY0hdW2NIXVtjSF1jMVtDSDNd

>  <s_glide_docking_method>  (1) 
confgen

>  <s_i_glide_gridfile>  (1) 
gpcr_5ht2c_6bqh_protein_autoprepared_prepared

>  <s_lp_Force_Field>  (1) 
S-OPLS

>  <s_lp_Variant>  (1) 
Pocket2Mol_8-1

>  <s_m_source_file>  (1) 
generated_GPCR_5HT2C_ligand_Pocket2Mol_2026-06-23_prepared.sdf

>  <GenAI_Model>  (1) 
Pocket2Mol

>  <Protein>  (1) 
GPCR_5HT2C

$$$$
Pocket2Mol_29
     RDKit          3D

  0  0  0  0  0  0  0  0  0  0999 V3000
M  V30 BEGIN CTAB
M  V30 COUNTS 17 17 0 0 1
M  V30 BEGIN ATOM
M  V30 1 C 39.245133 28.118342 51.155950 0
M  V30 2 C 38.845139 28.023257 52.626885 0
M  V30 3 C 38.600107 29.337765 53.366859 0
M  V30 4 O 38.724571 26.937926 53.190208 0
M  V30 5 C 40.364692 29.151200 50.949511 0
M  V30 6 C 39.671335 30.401386 53.061058 0
M  V30 7 C 40.045139 30.515849 51.567138 0
M  V30 8 H 39.557387 27.137677 50.795177 0
M  V30 9 H 38.367817 28.403922 50.578222 0
M  V30 10 H 37.631928 29.712549 53.057993 0
M  V30 11 H 38.541096 29.152501 54.439674 0
M  V30 12 H 41.293846 28.767257 51.367754 0
M  V30 13 H 40.536094 29.283812 49.881072 0
M  V30 14 H 39.330580 31.371889 53.422537 0
M  V30 15 H 40.561888 30.170752 53.642502 0
M  V30 16 H 39.245139 30.975835 50.989081 0
M  V30 17 H 40.898127 31.183682 51.452086 0
M  V30 END ATOM
M  V30 BEGIN BOND
M  V30 1 1 2 1
M  V30 2 1 3 2
M  V30 3 2 4 2
M  V30 4 1 5 1
M  V30 5 1 6 3
M  V30 6 1 7 5
M  V30 7 1 7 6
M  V30 8 1 8 1
M  V30 9 1 9 1
M  V30 10 1 10 3
M  V30 11 1 11 3
M  V30 12 1 12 5
M  V30 13 1 13 5
M  V30 14 1 14 6
M  V30 15 1 15 6
M  V30 16 1 16 7
M  V30 17 1 17 7
M  V30 END BOND
M  V30 END CTAB
M  END
>  <i_epik_Tot_Q>  (1) 
0

>  <i_epik_Tot_abs_Q>  (1) 
0

>  <i_i_glide_confnum>  (1) 
1

>  <i_i_glide_lignum>  (1) 
30

>  <i_i_glide_posenum>  (1) 
145

>  <i_i_glide_rotatable_bonds>  (1) 
0

>  <i_lp_mmshare_version>  (1) 
72125

>  <i_m_source_file_index>  (1) 
30

>  <i_f3d_flags>  (1) 
0

>  <num_sample>  (1) 
50

>  <b_lp_Chiralities_Consistent>  (1) 
1

>  <r_epik_Charging_Adjusted_Penalty>  (1) 
0

>  <r_epik_Ionization_Penalty>  (1) 
3.7730911281982554e-13

>  <r_epik_Ionization_Penalty_Charging>  (1) 
0

>  <r_epik_Ionization_Penalty_Neutral>  (1) 
3.7730911281982554e-13

>  <r_epik_State_Penalty>  (1) 
-0

>  <r_glide_ring_energy>  (1) 
0

>  <r_i_docking_score>  (1) 
-5.2702958165675797

>  <r_i_glide_ecoul>  (1) 
0.17148765706626407

>  <r_i_glide_eff_state_penalty>  (1) 
-0

>  <r_i_glide_einternal>  (1) 
0

>  <r_i_glide_emodel>  (1) 
-21.26824423728241

>  <r_i_glide_emodel_strain>  (1) 
0

>  <r_i_glide_energy>  (1) 
-15.792820542551935

>  <r_i_glide_erotb>  (1) 
0

>  <r_i_glide_esite>  (1) 
0

>  <r_i_glide_evdw>  (1) 
-15.964308199618198

>  <r_i_glide_gscore>  (1) 
-5.2702958165675797

>  <r_i_glide_gscore_strain>  (1) 
0

>  <r_i_glide_hbond>  (1) 
0

>  <r_i_glide_ligand_efficiency>  (1) 
-0.75289940236679709

>  <r_i_glide_ligand_efficiency_ln>  (1) 
-1.7890212361899918

>  <r_i_glide_ligand_efficiency_sa>  (1) 
-1.4402447442781421

>  <r_i_glide_lipo>  (1) 
-1.4766732814815113

>  <r_i_glide_metal>  (1) 
-0

>  <r_i_glide_rewards>  (1) 
-3.021130273665098

>  <r_lp_Energy>  (1) 
-0.38655299999999998

>  <r_lp_tautomer_probability>  (1) 
1

>  <s_epik_cmdline>  (1) 
J2VwaWtfcHl0aG9uJywgJy1waHQnLCAnMS4wJywgJy1waCcsICc3LjQnLCAnLXRuJywgJzgnLCAnLW1hJywgJzUwMCcsICctaW1hZScsICc8aW5maWxlLm1hZT4nLCAnLW9tYWUnLCAnPG91dGZpbGUubWFlPic=

>  <s_epik_input>  (1) 
Tz1DMVtDSDJdW0NIMl1bQ0gyXVtDSDJdW0NIMl0x

>  <s_glide_docking_method>  (1) 
confgen

>  <s_i_glide_gridfile>  (1) 
gpcr_5ht2c_6bqh_protein_autoprepared_prepared

>  <s_lp_Force_Field>  (1) 
S-OPLS

>  <s_lp_Variant>  (1) 
Pocket2Mol_29-1

>  <s_m_source_file>  (1) 
generated_GPCR_5HT2C_ligand_Pocket2Mol_2026-06-23_prepared.sdf

>  <GenAI_Model>  (1) 
Pocket2Mol

>  <Protein>  (1) 
GPCR_5HT2C

$$$$
Pocket2Mol_41
     RDKit          3D

  0  0  0  0  0  0  0  0  0  0999 V3000
M  V30 BEGIN CTAB
M  V30 COUNTS 15 15 0 0 1
M  V30 BEGIN ATOM
M  V30 1 C 39.677258 30.436847 53.025186 0
M  V30 2 O 38.438271 29.864170 53.399874 0
M  V30 3 C 38.454042 28.455439 53.531632 0
M  V30 4 C 40.045133 30.131260 51.564387 0
M  V30 5 O 40.427927 28.777794 51.367738 0
M  V30 6 C 38.450338 27.737021 52.198866 0
M  V30 7 C 39.380062 27.905195 51.241369 0
M  V30 8 H 39.571345 31.515623 53.136540 0
M  V30 9 H 40.464860 30.137727 53.714220 0
M  V30 10 H 37.547815 28.166272 54.064233 0
M  V30 11 H 39.292109 28.120115 54.143529 0
M  V30 12 H 39.245180 30.408169 50.877696 0
M  V30 13 H 40.898317 30.748438 51.282889 0
M  V30 14 H 37.645178 27.036140 52.036634 0
M  V30 15 H 39.385547 27.386691 50.293445 0
M  V30 END ATOM
M  V30 BEGIN BOND
M  V30 1 1 2 1
M  V30 2 1 3 2
M  V30 3 1 4 1
M  V30 4 1 5 4
M  V30 5 1 6 3
M  V30 6 1 7 5
M  V30 7 2 7 6
M  V30 8 1 8 1
M  V30 9 1 9 1
M  V30 10 1 10 3
M  V30 11 1 11 3
M  V30 12 1 12 4
M  V30 13 1 13 4
M  V30 14 1 14 6
M  V30 15 1 15 7
M  V30 END BOND
M  V30 END CTAB
M  END
>  <i_epik_Tot_Q>  (1) 
0

>  <i_epik_Tot_abs_Q>  (1) 
0

>  <i_i_glide_confnum>  (1) 
2

>  <i_i_glide_lignum>  (1) 
42

>  <i_i_glide_posenum>  (1) 
299

>  <i_i_glide_rotatable_bonds>  (1) 
0

>  <i_lp_mmshare_version>  (1) 
72125

>  <i_m_source_file_index>  (1) 
42

>  <i_f3d_flags>  (1) 
0

>  <num_sample>  (1) 
50

>  <b_lp_Chiralities_Consistent>  (1) 
1

>  <r_epik_Charging_Adjusted_Penalty>  (1) 
0

>  <r_epik_Ionization_Penalty>  (1) 
5.6701613537443791e-14

>  <r_epik_Ionization_Penalty_Charging>  (1) 
0

>  <r_epik_Ionization_Penalty_Neutral>  (1) 
5.6701613537443791e-14

>  <r_epik_State_Penalty>  (1) 
-0

>  <r_glide_ring_energy>  (1) 
0.00079047383587571227

>  <r_i_docking_score>  (1) 
-5.2639572914472668

>  <r_i_glide_ecoul>  (1) 
-1.4483174397631333

>  <r_i_glide_eff_state_penalty>  (1) 
-0

>  <r_i_glide_einternal>  (1) 
0

>  <r_i_glide_emodel>  (1) 
-22.354809862362764

>  <r_i_glide_emodel_strain>  (1) 
0

>  <r_i_glide_energy>  (1) 
-16.956813450951511

>  <r_i_glide_erotb>  (1) 
0

>  <r_i_glide_esite>  (1) 
0

>  <r_i_glide_evdw>  (1) 
-15.508496011188379

>  <r_i_glide_gscore>  (1) 
-5.2639572914472668

>  <r_i_glide_gscore_strain>  (1) 
0

>  <r_i_glide_hbond>  (1) 
0

>  <r_i_glide_ligand_efficiency>  (1) 
-0.75199389877818101

>  <r_i_glide_ligand_efficiency_ln>  (1) 
-1.7868696006004454

>  <r_i_glide_ligand_efficiency_sa>  (1) 
-1.438512578227366

>  <r_i_glide_lipo>  (1) 
-1.6223637884283446

>  <r_i_glide_metal>  (1) 
-0

>  <r_i_glide_rewards>  (1) 
-2.648921086495033

>  <r_lp_Energy>  (1) 
7.3473649999999999

>  <r_lp_tautomer_probability>  (1) 
1

>  <s_epik_cmdline>  (1) 
J2VwaWtfcHl0aG9uJywgJy1waHQnLCAnMS4wJywgJy1waCcsICc3LjQnLCAnLXRuJywgJzgnLCAnLW1hJywgJzUwMCcsICctaW1hZScsICc8aW5maWxlLm1hZT4nLCAnLW9tYWUnLCAnPG91dGZpbGUubWFlPic=

>  <s_epik_input>  (1) 
W0NIMl0xT1tDSDJdW0NIXT1bQ0hdT1tDSDJdMQ==

>  <s_glide_docking_method>  (1) 
confgen

>  <s_i_glide_gridfile>  (1) 
gpcr_5ht2c_6bqh_protein_autoprepared_prepared

>  <s_lp_Force_Field>  (1) 
S-OPLS

>  <s_lp_Variant>  (1) 
Pocket2Mol_41-1

>  <s_m_source_file>  (1) 
generated_GPCR_5HT2C_ligand_Pocket2Mol_2026-06-23_prepared.sdf

>  <GenAI_Model>  (1) 
Pocket2Mol

>  <Protein>  (1) 
GPCR_5HT2C

$$$$
Pocket2Mol_19
     RDKit          3D

  0  0  0  0  0  0  0  0  0  0999 V3000
M  V30 BEGIN CTAB
M  V30 COUNTS 13 13 0 0 1
M  V30 BEGIN ATOM
M  V30 1 C 38.607088 27.914875 52.270867 0
M  V30 2 C 38.854532 28.967328 53.194253 0
M  V30 3 C 39.249576 28.226131 51.106381 0
M  V30 4 C 39.645116 29.891127 52.567717 0
M  V30 5 N 39.887139 29.443742 51.280944 0
M  V30 6 C 40.674591 30.137725 50.281852 0
M  V30 7 H 38.019240 27.024021 52.439889 0
M  V30 8 H 38.493984 29.040974 54.209935 0
M  V30 9 H 39.311590 27.697807 50.167746 0
M  V30 10 H 40.055070 30.829550 52.913731 0
M  V30 11 H 40.565934 29.652911 49.311556 0
M  V30 12 H 40.332179 31.169602 50.197362 0
M  V30 13 H 41.726145 30.137737 50.567761 0
M  V30 END ATOM
M  V30 BEGIN BOND
M  V30 1 1 2 1
M  V30 2 2 3 1
M  V30 3 2 4 2
M  V30 4 1 5 3
M  V30 5 1 5 4
M  V30 6 1 6 5
M  V30 7 1 7 1
M  V30 8 1 8 2
M  V30 9 1 9 3
M  V30 10 1 10 4
M  V30 11 1 11 6
M  V30 12 1 12 6
M  V30 13 1 13 6
M  V30 END BOND
M  V30 END CTAB
M  END
>  <i_epik_Tot_Q>  (1) 
0

>  <i_epik_Tot_abs_Q>  (1) 
0

>  <i_i_glide_confnum>  (1) 
1

>  <i_i_glide_lignum>  (1) 
20

>  <i_i_glide_posenum>  (1) 
200

>  <i_i_glide_rotatable_bonds>  (1) 
0

>  <i_lp_mmshare_version>  (1) 
72125

>  <i_m_source_file_index>  (1) 
20

>  <i_f3d_flags>  (1) 
0

>  <num_sample>  (1) 
50

>  <b_lp_Chiralities_Consistent>  (1) 
1

>  <r_epik_Charging_Adjusted_Penalty>  (1) 
0

>  <r_epik_Ionization_Penalty>  (1) 
5.9248581604286784e-11

>  <r_epik_Ionization_Penalty_Charging>  (1) 
0

>  <r_epik_Ionization_Penalty_Neutral>  (1) 
5.9248581604286784e-11

>  <r_epik_State_Penalty>  (1) 
-0

>  <r_glide_ring_energy>  (1) 
0

>  <r_i_docking_score>  (1) 
-5.2569078423282827

>  <r_i_glide_ecoul>  (1) 
-1.0437475937646448

>  <r_i_glide_eff_state_penalty>  (1) 
-0

>  <r_i_glide_einternal>  (1) 
0

>  <r_i_glide_emodel>  (1) 
-22.55231997037658

>  <r_i_glide_emodel_strain>  (1) 
0.0012909195759490677

>  <r_i_glide_energy>  (1) 
-17.190738978308403

>  <r_i_glide_erotb>  (1) 
0

>  <r_i_glide_esite>  (1) 
0

>  <r_i_glide_evdw>  (1) 
-16.146991384543757

>  <r_i_glide_gscore>  (1) 
-5.2569078423282827

>  <r_i_glide_gscore_strain>  (1) 
0

>  <r_i_glide_hbond>  (1) 
0

>  <r_i_glide_ligand_efficiency>  (1) 
-0.87615130705471378

>  <r_i_glide_ligand_efficiency_ln>  (1) 
-1.8830088695935765

>  <r_i_glide_ligand_efficiency_sa>  (1) 
-1.5920725824859157

>  <r_i_glide_lipo>  (1) 
-1.5929961340363983

>  <r_i_glide_metal>  (1) 
-0

>  <r_i_glide_rewards>  (1) 
-2.7000000000000002

>  <r_lp_Energy>  (1) 
0.62146699999999999

>  <r_lp_tautomer_probability>  (1) 
1

>  <s_epik_cmdline>  (1) 
J2VwaWtfcHl0aG9uJywgJy1waHQnLCAnMS4wJywgJy1waCcsICc3LjQnLCAnLXRuJywgJzgnLCAnLW1hJywgJzUwMCcsICctaW1hZScsICc8aW5maWxlLm1hZT4nLCAnLW9tYWUnLCAnPG91dGZpbGUubWFlPic=

>  <s_epik_input>  (1) 
W2NIXTFbY0hdW2NIXVtjSF1uMVtDSDNd

>  <s_glide_docking_method>  (1) 
confgen

>  <s_i_glide_gridfile>  (1) 
gpcr_5ht2c_6bqh_protein_autoprepared_prepared

>  <s_lp_Force_Field>  (1) 
S-OPLS

>  <s_lp_Variant>  (1) 
Pocket2Mol_19-1

>  <s_m_source_file>  (1) 
generated_GPCR_5HT2C_ligand_Pocket2Mol_2026-06-23_prepared.sdf

>  <GenAI_Model>  (1) 
Pocket2Mol

>  <Protein>  (1) 
GPCR_5HT2C

$$$$
Pocket2Mol_28
     RDKit          3D

  0  0  0  0  0  0  0  0  0  0999 V3000
M  V30 BEGIN CTAB
M  V30 COUNTS 14 14 0 0 1
M  V30 BEGIN ATOM
M  V30 1 C 40.045137 30.526218 52.453003 0
M  V30 2 C 39.887906 29.455257 51.551454 0
M  V30 3 C 39.011696 28.396165 51.861833 0
M  V30 4 N 38.856839 27.337759 50.972575 0
M  V30 5 C 39.327602 30.537797 53.666391 0
M  V30 6 C 38.291826 28.409564 53.073790 0
M  V30 7 C 38.450360 29.479991 53.975998 0
M  V30 8 H 40.715836 31.337755 52.214224 0
M  V30 9 H 40.439253 29.447603 50.622562 0
M  V30 10 H 38.107884 26.669588 51.102758 0
M  V30 11 H 39.244628 27.389174 50.041721 0
M  V30 12 H 39.448570 31.359316 54.357653 0
M  V30 13 H 37.618799 27.598696 53.312376 0
M  V30 14 H 37.898724 29.490104 54.905100 0
M  V30 END ATOM
M  V30 BEGIN BOND
M  V30 1 1 2 1
M  V30 2 2 3 2
M  V30 3 1 4 3
M  V30 4 2 5 1
M  V30 5 1 6 3
M  V30 6 1 7 5
M  V30 7 2 7 6
M  V30 8 1 8 1
M  V30 9 1 9 2
M  V30 10 1 10 4
M  V30 11 1 11 4
M  V30 12 1 12 5
M  V30 13 1 13 6
M  V30 14 1 14 7
M  V30 END BOND
M  V30 END CTAB
M  END
>  <i_epik_Tot_Q>  (1) 
0

>  <i_epik_Tot_abs_Q>  (1) 
0

>  <i_i_glide_confnum>  (1) 
1

>  <i_i_glide_lignum>  (1) 
29

>  <i_i_glide_posenum>  (1) 
134

>  <i_i_glide_rotatable_bonds>  (1) 
0

>  <i_lp_mmshare_version>  (1) 
72125

>  <i_m_source_file_index>  (1) 
29

>  <i_f3d_flags>  (1) 
0

>  <num_sample>  (1) 
50

>  <b_lp_Chiralities_Consistent>  (1) 
1

>  <r_epik_Charging_Adjusted_Penalty>  (1) 
0

>  <r_epik_Ionization_Penalty>  (1) 
0.00088153335660618348

>  <r_epik_Ionization_Penalty_Charging>  (1) 
0

>  <r_epik_Ionization_Penalty_Neutral>  (1) 
0.00088153335660618348

>  <r_epik_State_Penalty>  (1) 
-0

>  <r_glide_ring_energy>  (1) 
0

>  <r_i_docking_score>  (1) 
-5.2462694447392195

>  <r_i_glide_ecoul>  (1) 
-1.7894526213363398

>  <r_i_glide_eff_state_penalty>  (1) 
-0

>  <r_i_glide_einternal>  (1) 
0

>  <r_i_glide_emodel>  (1) 
-23.100439400762394

>  <r_i_glide_emodel_strain>  (1) 
0

>  <r_i_glide_energy>  (1) 
-17.3065439549442

>  <r_i_glide_erotb>  (1) 
0

>  <r_i_glide_esite>  (1) 
0

>  <r_i_glide_evdw>  (1) 
-15.517091333607858

>  <r_i_glide_gscore>  (1) 
-5.2462694447392195

>  <r_i_glide_gscore_strain>  (1) 
0

>  <r_i_glide_hbond>  (1) 
-0.060284590894031889

>  <r_i_glide_ligand_efficiency>  (1) 
-0.74946706353417425

>  <r_i_glide_ligand_efficiency_ln>  (1) 
-1.7808653961905725

>  <r_i_glide_ligand_efficiency_sa>  (1) 
-1.4336789162953771

>  <r_i_glide_lipo>  (1) 
-1.6888914245587958

>  <r_i_glide_metal>  (1) 
-0

>  <r_i_glide_rewards>  (1) 
-2.4528209694055478

>  <r_lp_Energy>  (1) 
7.0325409999999993

>  <r_lp_tautomer_probability>  (1) 
1

>  <s_epik_cmdline>  (1) 
J2VwaWtfcHl0aG9uJywgJy1waHQnLCAnMS4wJywgJy1waCcsICc3LjQnLCAnLXRuJywgJzgnLCAnLW1hJywgJzUwMCcsICctaW1hZScsICc8aW5maWxlLm1hZT4nLCAnLW9tYWUnLCAnPG91dGZpbGUubWFlPic=

>  <s_epik_input>  (1) 
W2NIXTFbY0hdW2NIXVtjSF1bY0hdYzFbTkgyXQ==

>  <s_glide_docking_method>  (1) 
confgen

>  <s_i_glide_gridfile>  (1) 
gpcr_5ht2c_6bqh_protein_autoprepared_prepared

>  <s_lp_Force_Field>  (1) 
S-OPLS

>  <s_lp_Variant>  (1) 
Pocket2Mol_28-1

>  <s_m_source_file>  (1) 
generated_GPCR_5HT2C_ligand_Pocket2Mol_2026-06-23_prepared.sdf

>  <GenAI_Model>  (1) 
Pocket2Mol

>  <Protein>  (1) 
GPCR_5HT2C

$$$$
Pocket2Mol_38
     RDKit          3D

  0  0  0  0  0  0  0  0  0  0999 V3000
M  V30 BEGIN CTAB
M  V30 COUNTS 12 12 0 0 1
M  V30 BEGIN ATOM
M  V30 1 C 38.286003 27.737752 52.567778 0
M  V30 2 C 38.967371 28.075210 51.388409 0
M  V30 3 C 39.546207 29.189515 51.602536 0
M  V30 4 C 40.408209 29.992784 50.647483 0
M  V30 5 N 38.393913 28.585597 53.549374 0
M  V30 6 C 39.245137 29.598752 52.952728 0
M  V30 7 O 39.645138 30.626680 53.495714 0
M  V30 8 H 37.714307 26.806893 52.600976 0
M  V30 9 H 38.957757 27.460369 50.500253 0
M  V30 10 H 40.069391 31.028684 50.604477 0
M  V30 11 H 41.449593 29.983793 50.967759 0
M  V30 12 H 40.357609 29.578386 49.639967 0
M  V30 END ATOM
M  V30 BEGIN BOND
M  V30 1 1 2 1
M  V30 2 2 3 2
M  V30 3 1 4 3
M  V30 4 2 5 1
M  V30 5 1 6 3
M  V30 6 1 6 5
M  V30 7 2 7 6
M  V30 8 1 8 1
M  V30 9 1 9 2
M  V30 10 1 10 4
M  V30 11 1 11 4
M  V30 12 1 12 4
M  V30 END BOND
M  V30 END CTAB
M  END
>  <i_epik_Tot_Q>  (1) 
0

>  <i_epik_Tot_abs_Q>  (1) 
0

>  <i_i_glide_confnum>  (1) 
1

>  <i_i_glide_lignum>  (1) 
39

>  <i_i_glide_posenum>  (1) 
272

>  <i_i_glide_rotatable_bonds>  (1) 
0

>  <i_lp_mmshare_version>  (1) 
72125

>  <i_m_source_file_index>  (1) 
39

>  <i_f3d_flags>  (1) 
0

>  <num_sample>  (1) 
50

>  <b_lp_Chiralities_Consistent>  (1) 
1

>  <r_epik_Charging_Adjusted_Penalty>  (1) 
0

>  <r_epik_Ionization_Penalty>  (1) 
0

>  <r_epik_Ionization_Penalty_Charging>  (1) 
0

>  <r_epik_Ionization_Penalty_Neutral>  (1) 
0

>  <r_epik_State_Penalty>  (1) 
-0

>  <r_glide_ring_energy>  (1) 
0

>  <r_i_docking_score>  (1) 
-5.2182450432063865

>  <r_i_glide_ecoul>  (1) 
-0.63525812998686315

>  <r_i_glide_eff_state_penalty>  (1) 
-0

>  <r_i_glide_einternal>  (1) 
0

>  <r_i_glide_emodel>  (1) 
-25.591357966946269

>  <r_i_glide_emodel_strain>  (1) 
0

>  <r_i_glide_energy>  (1) 
-19.474922683254569

>  <r_i_glide_erotb>  (1) 
0

>  <r_i_glide_esite>  (1) 
0

>  <r_i_glide_evdw>  (1) 
-18.839664553267706

>  <r_i_glide_gscore>  (1) 
-5.2182450432063865

>  <r_i_glide_gscore_strain>  (1) 
0

>  <r_i_glide_hbond>  (1) 
0

>  <r_i_glide_ligand_efficiency>  (1) 
-0.74546357760091231

>  <r_i_glide_ligand_efficiency_ln>  (1) 
-1.7713524103509264

>  <r_i_glide_ligand_efficiency_sa>  (1) 
-1.4260205232138501

>  <r_i_glide_lipo>  (1) 
-0.98999999999999999

>  <r_i_glide_metal>  (1) 
-0

>  <r_i_glide_rewards>  (1) 
-3.1909730960449711

>  <r_lp_Energy>  (1) 
0.58044799999999996

>  <r_lp_tautomer_probability>  (1) 
1

>  <s_epik_Chemistry_Notes>  (1) 
This compound has an imine and may undergo hydrolysis.

>  <s_epik_cmdline>  (1) 
J2VwaWtfcHl0aG9uJywgJy1waHQnLCAnMS4wJywgJy1waCcsICc3LjQnLCAnLXRuJywgJzgnLCAnLW1hJywgJzUwMCcsICctaW1hZScsICc8aW5maWxlLm1hZT4nLCAnLW9tYWUnLCAnPG91dGZpbGUubWFlPic=

>  <s_epik_input>  (1) 
Tz1DMU49W0NIXVtDSF09QzFbQ0gzXQ==

>  <s_glide_docking_method>  (1) 
confgen

>  <s_i_glide_gridfile>  (1) 
gpcr_5ht2c_6bqh_protein_autoprepared_prepared

>  <s_lp_Force_Field>  (1) 
S-OPLS

>  <s_lp_Variant>  (1) 
Pocket2Mol_38-1

>  <s_m_source_file>  (1) 
generated_GPCR_5HT2C_ligand_Pocket2Mol_2026-06-23_prepared.sdf

>  <GenAI_Model>  (1) 
Pocket2Mol

>  <Protein>  (1) 
GPCR_5HT2C

$$$$
Pocket2Mol_36
     RDKit          3D

  0  0  0  0  0  0  0  0  0  0999 V3000
M  V30 BEGIN CTAB
M  V30 COUNTS 17 17 0 0 1
M  V30 BEGIN ATOM
M  V30 1 C 40.382045 29.192249 50.953582 0
M  V30 2 C 39.276871 28.141814 51.164136 0
M  V30 3 C 38.863708 28.047360 52.632444 0
M  V30 4 O 38.736827 26.962088 53.194670 0
M  V30 5 C 40.045163 30.552432 51.567613 0
M  V30 6 C 39.672335 30.434712 53.060769 0
M  V30 7 C 38.613922 29.361607 53.371158 0
M  V30 8 H 41.318609 28.825644 51.369366 0
M  V30 9 H 40.548480 29.327421 49.884584 0
M  V30 10 H 39.607761 27.161209 50.815979 0
M  V30 11 H 37.639973 29.733416 53.075836 0
M  V30 12 H 38.399192 28.406230 50.576268 0
M  V30 13 H 39.245137 31.004831 50.984633 0
M  V30 14 H 40.890823 31.232790 51.456527 0
M  V30 15 H 39.318376 31.400695 53.419531 0
M  V30 16 H 40.565402 30.215353 53.642252 0
M  V30 17 H 38.566693 29.174834 54.444941 0
M  V30 END ATOM
M  V30 BEGIN BOND
M  V30 1 1 2 1
M  V30 2 1 3 2
M  V30 3 2 4 3
M  V30 4 1 5 1
M  V30 5 1 6 5
M  V30 6 1 7 3
M  V30 7 1 7 6
M  V30 8 1 8 1
M  V30 9 1 9 1
M  V30 10 1 10 2
M  V30 11 1 11 7
M  V30 12 1 12 2
M  V30 13 1 13 5
M  V30 14 1 14 5
M  V30 15 1 15 6
M  V30 16 1 16 6
M  V30 17 1 17 7
M  V30 END BOND
M  V30 END CTAB
M  END
>  <i_epik_Tot_Q>  (1) 
0

>  <i_epik_Tot_abs_Q>  (1) 
0

>  <i_i_glide_confnum>  (1) 
1

>  <i_i_glide_lignum>  (1) 
37

>  <i_i_glide_posenum>  (1) 
146

>  <i_i_glide_rotatable_bonds>  (1) 
0

>  <i_lp_mmshare_version>  (1) 
72125

>  <i_m_source_file_index>  (1) 
37

>  <i_f3d_flags>  (1) 
0

>  <num_sample>  (1) 
50

>  <b_lp_Chiralities_Consistent>  (1) 
1

>  <r_epik_Charging_Adjusted_Penalty>  (1) 
0

>  <r_epik_Ionization_Penalty>  (1) 
3.7730911281982554e-13

>  <r_epik_Ionization_Penalty_Charging>  (1) 
0

>  <r_epik_Ionization_Penalty_Neutral>  (1) 
3.7730911281982554e-13

>  <r_epik_State_Penalty>  (1) 
-0

>  <r_glide_ring_energy>  (1) 
0

>  <r_i_docking_score>  (1) 
-5.2120675540203276

>  <r_i_glide_ecoul>  (1) 
0.16291180612080022

>  <r_i_glide_eff_state_penalty>  (1) 
-0

>  <r_i_glide_einternal>  (1) 
0

>  <r_i_glide_emodel>  (1) 
-21.209495531348463

>  <r_i_glide_emodel_strain>  (1) 
0

>  <r_i_glide_energy>  (1) 
-15.77391291450156

>  <r_i_glide_erotb>  (1) 
0

>  <r_i_glide_esite>  (1) 
0

>  <r_i_glide_evdw>  (1) 
-15.93682472062236

>  <r_i_glide_gscore>  (1) 
-5.2120675540203276

>  <r_i_glide_gscore_strain>  (1) 
0

>  <r_i_glide_hbond>  (1) 
0

>  <r_i_glide_ligand_efficiency>  (1) 
-0.7445810791457611

>  <r_i_glide_ligand_efficiency_ln>  (1) 
-1.7692554389996311

>  <r_i_glide_ligand_efficiency_sa>  (1) 
-1.4243323644002428

>  <r_i_glide_lipo>  (1) 
-1.459743690325402

>  <r_i_glide_metal>  (1) 
-0

>  <r_i_glide_rewards>  (1) 
-2.9799193985819272

>  <r_lp_Energy>  (1) 
-0.38638499999999998

>  <r_lp_tautomer_probability>  (1) 
1

>  <s_epik_cmdline>  (1) 
J2VwaWtfcHl0aG9uJywgJy1waHQnLCAnMS4wJywgJy1waCcsICc3LjQnLCAnLXRuJywgJzgnLCAnLW1hJywgJzUwMCcsICctaW1hZScsICc8aW5maWxlLm1hZT4nLCAnLW9tYWUnLCAnPG91dGZpbGUubWFlPic=

>  <s_epik_input>  (1) 
W0NIMl0xW0NIMl1bQ0gyXVtDSDJdW0NIXT1DMVtPSF0=

>  <s_glide_docking_method>  (1) 
confgen

>  <s_i_glide_gridfile>  (1) 
gpcr_5ht2c_6bqh_protein_autoprepared_prepared

>  <s_lp_Force_Field>  (1) 
S-OPLS

>  <s_lp_Variant>  (1) 
Pocket2Mol_36-1

>  <s_m_source_file>  (1) 
generated_GPCR_5HT2C_ligand_Pocket2Mol_2026-06-23_prepared.sdf

>  <GenAI_Model>  (1) 
Pocket2Mol

>  <Protein>  (1) 
GPCR_5HT2C

$$$$
Pocket2Mol_6
     RDKit          3D

  0  0  0  0  0  0  0  0  0  0999 V3000
M  V30 BEGIN CTAB
M  V30 COUNTS 12 12 0 0 1
M  V30 BEGIN ATOM
M  V30 1 C 38.845137 29.170417 53.468340 0
M  V30 2 C 39.645137 30.137755 52.828705 0
M  V30 3 C 38.445139 28.013788 52.770424 0
M  V30 4 C 38.845139 27.824499 51.432873 0
M  V30 5 C 39.645138 28.791838 50.793239 0
M  V30 6 C 40.045137 29.948466 51.491154 0
M  V30 7 H 38.538463 29.315542 54.493818 0
M  V30 8 H 39.951808 31.024522 53.363786 0
M  V30 9 H 37.831794 27.272147 53.260821 0
M  V30 10 H 38.538467 26.937732 50.897793 0
M  V30 11 H 39.951810 28.646713 49.767761 0
M  V30 12 H 40.658481 30.690107 51.000756 0
M  V30 END ATOM
M  V30 BEGIN BOND
M  V30 1 1 2 1
M  V30 2 2 3 1
M  V30 3 1 4 3
M  V30 4 2 5 4
M  V30 5 2 6 2
M  V30 6 1 6 5
M  V30 7 1 7 1
M  V30 8 1 8 2
M  V30 9 1 9 3
M  V30 10 1 10 4
M  V30 11 1 11 5
M  V30 12 1 12 6
M  V30 END BOND
M  V30 END CTAB
M  END
>  <i_epik_Tot_Q>  (1) 
0

>  <i_epik_Tot_abs_Q>  (1) 
0

>  <i_i_glide_confnum>  (1) 
1

>  <i_i_glide_lignum>  (1) 
7

>  <i_i_glide_posenum>  (1) 
108

>  <i_i_glide_rotatable_bonds>  (1) 
0

>  <i_lp_mmshare_version>  (1) 
72125

>  <i_m_source_file_index>  (1) 
7

>  <i_f3d_flags>  (1) 
0

>  <num_sample>  (1) 
50

>  <b_lp_Chiralities_Consistent>  (1) 
1

>  <r_epik_Charging_Adjusted_Penalty>  (1) 
0

>  <r_epik_Ionization_Penalty>  (1) 
0

>  <r_epik_Ionization_Penalty_Charging>  (1) 
0

>  <r_epik_Ionization_Penalty_Neutral>  (1) 
0

>  <r_epik_State_Penalty>  (1) 
-0

>  <r_glide_ring_energy>  (1) 
0

>  <r_i_docking_score>  (1) 
-5.2035197966450273

>  <r_i_glide_ecoul>  (1) 
-0.85536188476164143

>  <r_i_glide_eff_state_penalty>  (1) 
-0

>  <r_i_glide_einternal>  (1) 
0

>  <r_i_glide_emodel>  (1) 
-20.639788896087399

>  <r_i_glide_emodel_strain>  (1) 
0

>  <r_i_glide_energy>  (1) 
-15.715170515812854

>  <r_i_glide_erotb>  (1) 
0

>  <r_i_glide_esite>  (1) 
0

>  <r_i_glide_evdw>  (1) 
-14.859808631051212

>  <r_i_glide_gscore>  (1) 
-5.2035197966450273

>  <r_i_glide_gscore_strain>  (1) 
0

>  <r_i_glide_hbond>  (1) 
0

>  <r_i_glide_ligand_efficiency>  (1) 
-0.86725329944083784

>  <r_i_glide_ligand_efficiency_ln>  (1) 
-1.8638854292428868

>  <r_i_glide_ligand_efficiency_sa>  (1) 
-1.5759038296155647

>  <r_i_glide_lipo>  (1) 
-1.8934715124867858

>  <r_i_glide_metal>  (1) 
-0

>  <r_i_glide_rewards>  (1) 
-2.4387535698914347

>  <r_lp_Energy>  (1) 
6.1542199999999996

>  <r_lp_tautomer_probability>  (1) 
1

>  <s_epik_cmdline>  (1) 
J2VwaWtfcHl0aG9uJywgJy1waHQnLCAnMS4wJywgJy1waCcsICc3LjQnLCAnLXRuJywgJzgnLCAnLW1hJywgJzUwMCcsICctaW1hZScsICc8aW5maWxlLm1hZT4nLCAnLW9tYWUnLCAnPG91dGZpbGUubWFlPic=

>  <s_epik_input>  (1) 
W2NIXTFbY0hdW2NIXVtjSF1bY0hdW2NIXTE=

>  <s_glide_docking_method>  (1) 
confgen

>  <s_i_glide_gridfile>  (1) 
gpcr_5ht2c_6bqh_protein_autoprepared_prepared

>  <s_lp_Force_Field>  (1) 
S-OPLS

>  <s_lp_Variant>  (1) 
Pocket2Mol_6-1

>  <s_m_source_file>  (1) 
generated_GPCR_5HT2C_ligand_Pocket2Mol_2026-06-23_prepared.sdf

>  <GenAI_Model>  (1) 
Pocket2Mol

>  <Protein>  (1) 
GPCR_5HT2C

$$$$
Pocket2Mol_16
     RDKit          3D

  0  0  0  0  0  0  0  0  0  0999 V3000
M  V30 BEGIN CTAB
M  V30 COUNTS 18 18 0 0 1
M  V30 BEGIN ATOM
M  V30 1 C 39.519007 28.202857 50.848559 0
M  V30 2 C 40.550157 29.338307 50.904287 0
M  V30 3 C 40.045101 30.541114 51.691833 0
M  V30 4 C 39.109194 27.762891 52.259124 0
M  V30 5 C 39.569163 30.138717 53.099852 0
M  V30 6 C 38.577802 28.957056 53.068083 0
M  V30 7 H 38.640708 28.536145 50.297064 0
M  V30 8 H 39.926374 27.355440 50.296472 0
M  V30 9 H 41.462643 28.964625 51.367783 0
M  V30 10 H 40.822832 29.650427 49.895255 0
M  V30 11 H 40.828446 31.294854 51.767770 0
M  V30 12 H 39.245139 31.007016 51.118323 0
M  V30 13 H 38.348128 26.983169 52.199692 0
M  V30 14 H 39.966603 27.319554 52.765956 0
M  V30 15 H 39.101724 30.996087 53.584546 0
M  V30 16 H 40.430752 29.890199 53.716784 0
M  V30 17 H 37.644613 29.291586 52.619976 0
M  V30 18 H 38.335218 28.645115 54.084551 0
M  V30 END ATOM
M  V30 BEGIN BOND
M  V30 1 1 2 1
M  V30 2 1 3 2
M  V30 3 1 4 1
M  V30 4 1 5 3
M  V30 5 1 6 4
M  V30 6 1 6 5
M  V30 7 1 7 1
M  V30 8 1 8 1
M  V30 9 1 9 2
M  V30 10 1 10 2
M  V30 11 1 11 3
M  V30 12 1 12 3
M  V30 13 1 13 4
M  V30 14 1 14 4
M  V30 15 1 15 5
M  V30 16 1 16 5
M  V30 17 1 17 6
M  V30 18 1 18 6
M  V30 END BOND
M  V30 END CTAB
M  END
>  <i_epik_Tot_Q>  (1) 
0

>  <i_epik_Tot_abs_Q>  (1) 
0

>  <i_i_glide_confnum>  (1) 
2

>  <i_i_glide_lignum>  (1) 
17

>  <i_i_glide_posenum>  (1) 
334

>  <i_i_glide_rotatable_bonds>  (1) 
0

>  <i_lp_mmshare_version>  (1) 
72125

>  <i_m_source_file_index>  (1) 
17

>  <i_f3d_flags>  (1) 
0

>  <num_sample>  (1) 
50

>  <b_lp_Chiralities_Consistent>  (1) 
1

>  <r_epik_Charging_Adjusted_Penalty>  (1) 
0

>  <r_epik_Ionization_Penalty>  (1) 
0

>  <r_epik_Ionization_Penalty_Charging>  (1) 
0

>  <r_epik_Ionization_Penalty_Neutral>  (1) 
0

>  <r_epik_State_Penalty>  (1) 
-0

>  <r_glide_ring_energy>  (1) 
0.00054248204421707515

>  <r_i_docking_score>  (1) 
-5.1892961424400745

>  <r_i_glide_ecoul>  (1) 
-0.11350665769661664

>  <r_i_glide_eff_state_penalty>  (1) 
-0

>  <r_i_glide_einternal>  (1) 
0

>  <r_i_glide_emodel>  (1) 
-17.316441143339702

>  <r_i_glide_emodel_strain>  (1) 
0

>  <r_i_glide_energy>  (1) 
-12.925149737715094

>  <r_i_glide_erotb>  (1) 
0

>  <r_i_glide_esite>  (1) 
0

>  <r_i_glide_evdw>  (1) 
-12.811643080018477

>  <r_i_glide_gscore>  (1) 
-5.1892961424400745

>  <r_i_glide_gscore_strain>  (1) 
0

>  <r_i_glide_hbond>  (1) 
0

>  <r_i_glide_ligand_efficiency>  (1) 
-0.86488269040667909

>  <r_i_glide_ligand_efficiency_ln>  (1) 
-1.8587905582979749

>  <r_i_glide_ligand_efficiency_sa>  (1) 
-1.5715961471220408

>  <r_i_glide_lipo>  (1) 
-1.8244498182731068

>  <r_i_glide_metal>  (1) 
-0

>  <r_i_glide_rewards>  (1) 
-2.7072381715115519

>  <r_lp_Energy>  (1) 
5.7175969999999996

>  <r_lp_tautomer_probability>  (1) 
1

>  <s_epik_cmdline>  (1) 
J2VwaWtfcHl0aG9uJywgJy1waHQnLCAnMS4wJywgJy1waCcsICc3LjQnLCAnLXRuJywgJzgnLCAnLW1hJywgJzUwMCcsICctaW1hZScsICc8aW5maWxlLm1hZT4nLCAnLW9tYWUnLCAnPG91dGZpbGUubWFlPic=

>  <s_epik_input>  (1) 
W0NIMl0xW0NIMl1bQ0gyXVtDSDJdW0NIMl1bQ0gyXTE=

>  <s_glide_docking_method>  (1) 
confgen

>  <s_i_glide_gridfile>  (1) 
gpcr_5ht2c_6bqh_protein_autoprepared_prepared

>  <s_lp_Force_Field>  (1) 
S-OPLS

>  <s_lp_Variant>  (1) 
Pocket2Mol_16-1

>  <s_m_source_file>  (1) 
generated_GPCR_5HT2C_ligand_Pocket2Mol_2026-06-23_prepared.sdf

>  <GenAI_Model>  (1) 
Pocket2Mol

>  <Protein>  (1) 
GPCR_5HT2C

$$$$
Pocket2Mol_19
     RDKit          3D

  0  0  0  0  0  0  0  0  0  0999 V3000
M  V30 BEGIN CTAB
M  V30 COUNTS 13 13 0 0 1
M  V30 BEGIN ATOM
M  V30 1 C 39.465897 28.168946 50.967758 0
M  V30 2 C 40.045137 29.285061 50.302001 0
M  V30 3 C 39.227925 28.537096 52.261242 0
M  V30 4 C 40.144995 30.301384 51.207820 0
M  V30 5 N 39.645137 29.848351 52.415773 0
M  V30 6 C 39.570828 30.621096 53.638761 0
M  V30 7 H 39.245295 27.199416 50.543845 0
M  V30 8 H 40.354179 29.338061 49.268542 0
M  V30 9 H 38.801014 27.990350 53.089560 0
M  V30 10 H 40.525165 31.308649 51.109181 0
M  V30 11 H 39.135097 30.025633 54.441407 0
M  V30 12 H 40.571421 30.937536 53.934257 0
M  V30 13 H 38.953449 31.505174 53.477315 0
M  V30 END ATOM
M  V30 BEGIN BOND
M  V30 1 1 2 1
M  V30 2 2 3 1
M  V30 3 2 4 2
M  V30 4 1 5 3
M  V30 5 1 5 4
M  V30 6 1 6 5
M  V30 7 1 7 1
M  V30 8 1 8 2
M  V30 9 1 9 3
M  V30 10 1 10 4
M  V30 11 1 11 6
M  V30 12 1 12 6
M  V30 13 1 13 6
M  V30 END BOND
M  V30 END CTAB
M  END
>  <i_epik_Tot_Q>  (1) 
0

>  <i_epik_Tot_abs_Q>  (1) 
0

>  <i_i_glide_confnum>  (1) 
1

>  <i_i_glide_lignum>  (1) 
20

>  <i_i_glide_posenum>  (1) 
52

>  <i_i_glide_rotatable_bonds>  (1) 
0

>  <i_lp_mmshare_version>  (1) 
72125

>  <i_m_source_file_index>  (1) 
20

>  <i_f3d_flags>  (1) 
0

>  <num_sample>  (1) 
50

>  <b_lp_Chiralities_Consistent>  (1) 
1

>  <r_epik_Charging_Adjusted_Penalty>  (1) 
0

>  <r_epik_Ionization_Penalty>  (1) 
5.9248581604286784e-11

>  <r_epik_Ionization_Penalty_Charging>  (1) 
0

>  <r_epik_Ionization_Penalty_Neutral>  (1) 
5.9248581604286784e-11

>  <r_epik_State_Penalty>  (1) 
-0

>  <r_glide_ring_energy>  (1) 
0

>  <r_i_docking_score>  (1) 
-5.1835157157471059

>  <r_i_glide_ecoul>  (1) 
-0.71771243362162895

>  <r_i_glide_eff_state_penalty>  (1) 
-0

>  <r_i_glide_einternal>  (1) 
0

>  <r_i_glide_emodel>  (1) 
-21.354874000586079

>  <r_i_glide_emodel_strain>  (1) 
0

>  <r_i_glide_energy>  (1) 
-16.066873588687269

>  <r_i_glide_erotb>  (1) 
0

>  <r_i_glide_esite>  (1) 
0

>  <r_i_glide_evdw>  (1) 
-15.349161155065639

>  <r_i_glide_gscore>  (1) 
-5.1835157157471059

>  <r_i_glide_gscore_strain>  (1) 
0

>  <r_i_glide_hbond>  (1) 
0

>  <r_i_glide_ligand_efficiency>  (1) 
-0.86391928595785095

>  <r_i_glide_ligand_efficiency_ln>  (1) 
-1.8567200265216228

>  <r_i_glide_ligand_efficiency_sa>  (1) 
-1.5698455250588492

>  <r_i_glide_lipo>  (1) 
-1.6084007929505795

>  <r_i_glide_metal>  (1) 
-0

>  <r_i_glide_rewards>  (1) 
-2.7000000000000002

>  <r_lp_Energy>  (1) 
0.62146699999999999

>  <r_lp_tautomer_probability>  (1) 
1

>  <s_epik_cmdline>  (1) 
J2VwaWtfcHl0aG9uJywgJy1waHQnLCAnMS4wJywgJy1waCcsICc3LjQnLCAnLXRuJywgJzgnLCAnLW1hJywgJzUwMCcsICctaW1hZScsICc8aW5maWxlLm1hZT4nLCAnLW9tYWUnLCAnPG91dGZpbGUubWFlPic=

>  <s_epik_input>  (1) 
W2NIXTFbY0hdW2NIXVtjSF1uMVtDSDNd

>  <s_glide_docking_method>  (1) 
confgen

>  <s_i_glide_gridfile>  (1) 
gpcr_5ht2c_6bqh_protein_autoprepared_prepared

>  <s_lp_Force_Field>  (1) 
S-OPLS

>  <s_lp_Variant>  (1) 
Pocket2Mol_19-1

>  <s_m_source_file>  (1) 
generated_GPCR_5HT2C_ligand_Pocket2Mol_2026-06-23_prepared.sdf

>  <GenAI_Model>  (1) 
Pocket2Mol

>  <Protein>  (1) 
GPCR_5HT2C

$$$$
Pocket2Mol_19
     RDKit          3D

  0  0  0  0  0  0  0  0  0  0999 V3000
M  V30 BEGIN CTAB
M  V30 COUNTS 13 13 0 0 1
M  V30 BEGIN ATOM
M  V30 1 C 40.142121 30.303421 51.297013 0
M  V30 2 C 40.045137 29.337667 50.259559 0
M  V30 3 C 39.645137 29.737748 52.436890 0
M  V30 4 C 39.491669 28.208485 50.794738 0
M  V30 5 N 39.242536 28.447740 52.133090 0
M  V30 6 C 38.657224 27.503686 53.061675 0
M  V30 7 H 40.534017 31.307724 51.218145 0
M  V30 8 H 40.347092 29.456198 49.229850 0
M  V30 9 H 39.538242 30.130418 53.438101 0
M  V30 10 H 39.248680 27.254003 50.348699 0
M  V30 11 H 38.572312 27.947115 54.054430 0
M  V30 12 H 37.664242 27.215804 52.714815 0
M  V30 13 H 39.284919 26.614159 53.123308 0
M  V30 END ATOM
M  V30 BEGIN BOND
M  V30 1 1 2 1
M  V30 2 2 3 1
M  V30 3 2 4 2
M  V30 4 1 5 3
M  V30 5 1 5 4
M  V30 6 1 6 5
M  V30 7 1 7 1
M  V30 8 1 8 2
M  V30 9 1 9 3
M  V30 10 1 10 4
M  V30 11 1 11 6
M  V30 12 1 12 6
M  V30 13 1 13 6
M  V30 END BOND
M  V30 END CTAB
M  END
>  <i_epik_Tot_Q>  (1) 
0

>  <i_epik_Tot_abs_Q>  (1) 
0

>  <i_i_glide_confnum>  (1) 
1

>  <i_i_glide_lignum>  (1) 
20

>  <i_i_glide_posenum>  (1) 
128

>  <i_i_glide_rotatable_bonds>  (1) 
0

>  <i_lp_mmshare_version>  (1) 
72125

>  <i_m_source_file_index>  (1) 
20

>  <i_f3d_flags>  (1) 
0

>  <num_sample>  (1) 
50

>  <b_lp_Chiralities_Consistent>  (1) 
1

>  <r_epik_Charging_Adjusted_Penalty>  (1) 
0

>  <r_epik_Ionization_Penalty>  (1) 
5.9248581604286784e-11

>  <r_epik_Ionization_Penalty_Charging>  (1) 
0

>  <r_epik_Ionization_Penalty_Neutral>  (1) 
5.9248581604286784e-11

>  <r_epik_State_Penalty>  (1) 
-0

>  <r_glide_ring_energy>  (1) 
0

>  <r_i_docking_score>  (1) 
-5.1758746421382007

>  <r_i_glide_ecoul>  (1) 
-0.6985651657305515

>  <r_i_glide_eff_state_penalty>  (1) 
-0

>  <r_i_glide_einternal>  (1) 
0

>  <r_i_glide_emodel>  (1) 
-20.939120930031319

>  <r_i_glide_emodel_strain>  (1) 
0

>  <r_i_glide_energy>  (1) 
-15.658915613702197

>  <r_i_glide_erotb>  (1) 
0

>  <r_i_glide_esite>  (1) 
0

>  <r_i_glide_evdw>  (1) 
-14.960350447971646

>  <r_i_glide_gscore>  (1) 
-5.1758746421382007

>  <r_i_glide_gscore_strain>  (1) 
0

>  <r_i_glide_hbond>  (1) 
0

>  <r_i_glide_ligand_efficiency>  (1) 
-0.86264577368970008

>  <r_i_glide_ligand_efficiency_ln>  (1) 
-1.8539830165130142

>  <r_i_glide_ligand_efficiency_sa>  (1) 
-1.5675313996911679

>  <r_i_glide_lipo>  (1) 
-1.6230723448800355

>  <r_i_glide_metal>  (1) 
-0

>  <r_i_glide_rewards>  (1) 
-2.7000000000000002

>  <r_lp_Energy>  (1) 
0.62146699999999999

>  <r_lp_tautomer_probability>  (1) 
1

>  <s_epik_cmdline>  (1) 
J2VwaWtfcHl0aG9uJywgJy1waHQnLCAnMS4wJywgJy1waCcsICc3LjQnLCAnLXRuJywgJzgnLCAnLW1hJywgJzUwMCcsICctaW1hZScsICc8aW5maWxlLm1hZT4nLCAnLW9tYWUnLCAnPG91dGZpbGUubWFlPic=

>  <s_epik_input>  (1) 
W2NIXTFbY0hdW2NIXVtjSF1uMVtDSDNd

>  <s_glide_docking_method>  (1) 
confgen

>  <s_i_glide_gridfile>  (1) 
gpcr_5ht2c_6bqh_protein_autoprepared_prepared

>  <s_lp_Force_Field>  (1) 
S-OPLS

>  <s_lp_Variant>  (1) 
Pocket2Mol_19-1

>  <s_m_source_file>  (1) 
generated_GPCR_5HT2C_ligand_Pocket2Mol_2026-06-23_prepared.sdf

>  <GenAI_Model>  (1) 
Pocket2Mol

>  <Protein>  (1) 
GPCR_5HT2C

$$$$
Pocket2Mol_30
     RDKit          3D

  0  0  0  0  0  0  0  0  0  0999 V3000
M  V30 BEGIN CTAB
M  V30 COUNTS 15 15 0 0 1
M  V30 BEGIN ATOM
M  V30 1 C 39.895098 30.128682 51.250157 0
M  V30 2 C 40.043931 28.791672 50.550845 0
M  V30 3 O 38.846860 28.137654 50.894645 0
M  V30 4 O 39.277644 29.733124 52.454599 0
M  V30 5 C 38.486220 28.633481 52.139402 0
M  V30 6 C 38.718608 27.544848 53.194588 0
M  V30 7 O 37.546081 26.802046 53.439581 0
M  V30 8 H 39.245140 30.785029 50.670518 0
M  V30 9 H 40.843980 30.635740 51.423756 0
M  V30 10 H 40.177247 28.893612 49.473821 0
M  V30 11 H 40.868392 28.223270 50.973291 0
M  V30 12 H 37.440290 28.938487 52.101258 0
M  V30 13 H 39.001188 28.022337 54.133582 0
M  V30 14 H 39.544678 26.900089 52.892469 0
M  V30 15 H 37.206881 26.484690 52.611377 0
M  V30 END ATOM
M  V30 BEGIN BOND
M  V30 1 1 2 1
M  V30 2 1 3 2
M  V30 3 1 4 1
M  V30 4 1 5 3
M  V30 5 1 5 4
M  V30 6 1 6 5
M  V30 7 1 7 6
M  V30 8 1 8 1
M  V30 9 1 9 1
M  V30 10 1 10 2
M  V30 11 1 11 2
M  V30 12 1 12 5
M  V30 13 1 13 6
M  V30 14 1 14 6
M  V30 15 1 15 7
M  V30 END BOND
M  V30 END CTAB
M  END
>  <i_epik_Tot_Q>  (1) 
0

>  <i_epik_Tot_abs_Q>  (1) 
0

>  <i_i_glide_confnum>  (1) 
2

>  <i_i_glide_lignum>  (1) 
31

>  <i_i_glide_posenum>  (1) 
320

>  <i_i_glide_rotatable_bonds>  (1) 
2

>  <i_lp_mmshare_version>  (1) 
72125

>  <i_m_source_file_index>  (1) 
31

>  <i_f3d_flags>  (1) 
0

>  <num_sample>  (1) 
50

>  <b_lp_Chiralities_Consistent>  (1) 
1

>  <r_epik_Charging_Adjusted_Penalty>  (1) 
0

>  <r_epik_Ionization_Penalty>  (1) 
3.4422651255072934e-07

>  <r_epik_Ionization_Penalty_Charging>  (1) 
0

>  <r_epik_Ionization_Penalty_Neutral>  (1) 
3.4422651255072934e-07

>  <r_epik_State_Penalty>  (1) 
-0

>  <r_glide_ring_energy>  (1) 
0.8940093629212682

>  <r_i_docking_score>  (1) 
-5.1718826431671374

>  <r_i_glide_ecoul>  (1) 
-1.5226050245326253

>  <r_i_glide_eff_state_penalty>  (1) 
-0

>  <r_i_glide_einternal>  (1) 
0.13169360255969709

>  <r_i_glide_emodel>  (1) 
-20.590088452993868

>  <r_i_glide_emodel_strain>  (1) 
5.3290705182007514e-15

>  <r_i_glide_energy>  (1) 
-14.955780559582308

>  <r_i_glide_erotb>  (1) 
0

>  <r_i_glide_esite>  (1) 
0

>  <r_i_glide_evdw>  (1) 
-13.433175535049683

>  <r_i_glide_gscore>  (1) 
-5.1718826431671374

>  <r_i_glide_gscore_strain>  (1) 
0

>  <r_i_glide_hbond>  (1) 
-0.29319158364495662

>  <r_i_glide_ligand_efficiency>  (1) 
-0.7388403775953053

>  <r_i_glide_ligand_efficiency_ln>  (1) 
-1.7556145236899512

>  <r_i_glide_ligand_efficiency_sa>  (1) 
-1.4133507973933861

>  <r_i_glide_lipo>  (1) 
-0.97864152908980306

>  <r_i_glide_metal>  (1) 
-0

>  <r_i_glide_rewards>  (1) 
-3

>  <r_lp_Energy>  (1) 
-10.260740999999999

>  <r_lp_tautomer_probability>  (1) 
1

>  <s_epik_Chemistry_Notes>  (1) 
This compound contains an acetal/aminal-like group ( X-CH(R)-Y where X, Y are N, S, or O) that may be acid/base labile, releasing an aldehyde.

>  <s_epik_cmdline>  (1) 
J2VwaWtfcHl0aG9uJywgJy1waHQnLCAnMS4wJywgJy1waCcsICc3LjQnLCAnLXRuJywgJzgnLCAnLW1hJywgJzUwMCcsICctaW1hZScsICc8aW5maWxlLm1hZT4nLCAnLW9tYWUnLCAnPG91dGZpbGUubWFlPic=

>  <s_epik_input>  (1) 
TzFbQ0gyXVtDSDJdT1tDSF0xW0NIMl1bT0hd

>  <s_glide_docking_method>  (1) 
confgen

>  <s_i_glide_gridfile>  (1) 
gpcr_5ht2c_6bqh_protein_autoprepared_prepared

>  <s_lp_Force_Field>  (1) 
S-OPLS

>  <s_lp_Variant>  (1) 
Pocket2Mol_30-1

>  <s_m_source_file>  (1) 
generated_GPCR_5HT2C_ligand_Pocket2Mol_2026-06-23_prepared.sdf

>  <GenAI_Model>  (1) 
Pocket2Mol

>  <Protein>  (1) 
GPCR_5HT2C

$$$$
Pocket2Mol_22
     RDKit          3D

  0  0  0  0  0  0  0  0  0  0999 V3000
M  V30 BEGIN CTAB
M  V30 COUNTS 11 11 0 0 1
M  V30 BEGIN ATOM
M  V30 1 C 38.627841 27.952897 52.224559 0
M  V30 2 C 39.363039 28.302980 51.046951 0
M  V30 3 C 39.988444 29.508012 51.194420 0
M  V30 4 C 40.843490 30.241382 50.216933 0
M  V30 5 N 38.684833 28.828467 53.210615 0
M  V30 6 S 39.645135 30.137756 52.766610 0
M  V30 7 H 38.045099 27.053897 52.364078 0
M  V30 8 H 39.398732 27.677470 50.167773 0
M  V30 9 H 40.845149 29.738751 49.249631 0
M  V30 10 H 40.476165 31.257017 50.066611 0
M  V30 11 H 41.873431 30.304628 50.567759 0
M  V30 END ATOM
M  V30 BEGIN BOND
M  V30 1 1 2 1
M  V30 2 2 3 2
M  V30 3 1 4 3
M  V30 4 2 5 1
M  V30 5 1 6 3
M  V30 6 1 6 5
M  V30 7 1 7 1
M  V30 8 1 8 2
M  V30 9 1 9 4
M  V30 10 1 10 4
M  V30 11 1 11 4
M  V30 END BOND
M  V30 END CTAB
M  END
>  <i_epik_Tot_Q>  (1) 
0

>  <i_epik_Tot_abs_Q>  (1) 
0

>  <i_i_glide_confnum>  (1) 
1

>  <i_i_glide_lignum>  (1) 
23

>  <i_i_glide_posenum>  (1) 
188

>  <i_i_glide_rotatable_bonds>  (1) 
0

>  <i_lp_mmshare_version>  (1) 
72125

>  <i_m_source_file_index>  (1) 
23

>  <i_f3d_flags>  (1) 
0

>  <num_sample>  (1) 
50

>  <b_lp_Chiralities_Consistent>  (1) 
1

>  <r_epik_Charging_Adjusted_Penalty>  (1) 
0

>  <r_epik_Ionization_Penalty>  (1) 
2.7081824038816109e-08

>  <r_epik_Ionization_Penalty_Charging>  (1) 
0

>  <r_epik_Ionization_Penalty_Neutral>  (1) 
2.7081824038816109e-08

>  <r_epik_State_Penalty>  (1) 
-0

>  <r_glide_ring_energy>  (1) 
0

>  <r_i_docking_score>  (1) 
-5.1708895288166614

>  <r_i_glide_ecoul>  (1) 
-0.98140093059045663

>  <r_i_glide_eff_state_penalty>  (1) 
-0

>  <r_i_glide_einternal>  (1) 
0

>  <r_i_glide_emodel>  (1) 
-24.048776729669342

>  <r_i_glide_emodel_strain>  (1) 
0

>  <r_i_glide_energy>  (1) 
-18.27341921388744

>  <r_i_glide_erotb>  (1) 
0

>  <r_i_glide_esite>  (1) 
0

>  <r_i_glide_evdw>  (1) 
-17.292018283296983

>  <r_i_glide_gscore>  (1) 
-5.1708895288166614

>  <r_i_glide_gscore_strain>  (1) 
0

>  <r_i_glide_hbond>  (1) 
0

>  <r_i_glide_ligand_efficiency>  (1) 
-0.86181492146944361

>  <r_i_glide_ligand_efficiency_ln>  (1) 
-1.8521973636383711

>  <r_i_glide_ligand_efficiency_sa>  (1) 
-1.5660216410121395

>  <r_i_glide_lipo>  (1) 
-1.6500000000000001

>  <r_i_glide_metal>  (1) 
-0

>  <r_i_glide_rewards>  (1) 
-2.5090784750632431

>  <r_lp_Energy>  (1) 
1.924183

>  <r_lp_tautomer_probability>  (1) 
1

>  <s_epik_cmdline>  (1) 
J2VwaWtfcHl0aG9uJywgJy1waHQnLCAnMS4wJywgJy1waCcsICc3LjQnLCAnLXRuJywgJzgnLCAnLW1hJywgJzUwMCcsICctaW1hZScsICc8aW5maWxlLm1hZT4nLCAnLW9tYWUnLCAnPG91dGZpbGUubWFlPic=

>  <s_epik_input>  (1) 
czFuW2NIXVtjSF1jMVtDSDNd

>  <s_glide_docking_method>  (1) 
confgen

>  <s_i_glide_gridfile>  (1) 
gpcr_5ht2c_6bqh_protein_autoprepared_prepared

>  <s_lp_Force_Field>  (1) 
S-OPLS

>  <s_lp_Variant>  (1) 
Pocket2Mol_22-1

>  <s_m_source_file>  (1) 
generated_GPCR_5HT2C_ligand_Pocket2Mol_2026-06-23_prepared.sdf

>  <GenAI_Model>  (1) 
Pocket2Mol

>  <Protein>  (1) 
GPCR_5HT2C

$$$$
Pocket2Mol_36
     RDKit          3D

  0  0  0  0  0  0  0  0  0  0999 V3000
M  V30 BEGIN CTAB
M  V30 COUNTS 17 17 0 0 1
M  V30 BEGIN ATOM
M  V30 1 C 38.586172 29.239729 53.519554 0
M  V30 2 C 39.645138 30.217263 52.967760 0
M  V30 3 C 39.979660 29.992079 51.486262 0
M  V30 4 O 40.188284 30.933896 50.727008 0
M  V30 5 C 38.762902 27.784880 53.055291 0
M  V30 6 C 38.880458 27.704047 51.527729 0
M  V30 7 C 40.045137 28.549475 50.996233 0
M  V30 8 H 38.592041 29.277558 54.609304 0
M  V30 9 H 37.601556 29.586091 53.221953 0
M  V30 10 H 40.565499 30.137754 53.543095 0
M  V30 11 H 40.052921 28.537776 49.906033 0
M  V30 12 H 39.300994 31.243646 53.099437 0
M  V30 13 H 37.915156 27.186051 53.391036 0
M  V30 14 H 39.645137 27.347141 53.520165 0
M  V30 15 H 37.950467 28.038318 51.069074 0
M  V30 16 H 39.016094 26.666802 51.219943 0
M  V30 17 H 40.992824 28.137757 51.336621 0
M  V30 END ATOM
M  V30 BEGIN BOND
M  V30 1 1 2 1
M  V30 2 1 3 2
M  V30 3 2 4 3
M  V30 4 1 5 1
M  V30 5 1 6 5
M  V30 6 1 7 3
M  V30 7 1 7 6
M  V30 8 1 8 1
M  V30 9 1 9 1
M  V30 10 1 10 2
M  V30 11 1 11 7
M  V30 12 1 12 2
M  V30 13 1 13 5
M  V30 14 1 14 5
M  V30 15 1 15 6
M  V30 16 1 16 6
M  V30 17 1 17 7
M  V30 END BOND
M  V30 END CTAB
M  END
>  <i_epik_Tot_Q>  (1) 
0

>  <i_epik_Tot_abs_Q>  (1) 
0

>  <i_i_glide_confnum>  (1) 
2

>  <i_i_glide_lignum>  (1) 
37

>  <i_i_glide_posenum>  (1) 
111

>  <i_i_glide_rotatable_bonds>  (1) 
0

>  <i_lp_mmshare_version>  (1) 
72125

>  <i_m_source_file_index>  (1) 
37

>  <i_f3d_flags>  (1) 
0

>  <num_sample>  (1) 
50

>  <b_lp_Chiralities_Consistent>  (1) 
1

>  <r_epik_Charging_Adjusted_Penalty>  (1) 
0

>  <r_epik_Ionization_Penalty>  (1) 
3.7730911281982554e-13

>  <r_epik_Ionization_Penalty_Charging>  (1) 
0

>  <r_epik_Ionization_Penalty_Neutral>  (1) 
3.7730911281982554e-13

>  <r_epik_State_Penalty>  (1) 
-0

>  <r_glide_ring_energy>  (1) 
4.2281688740393558e-05

>  <r_i_docking_score>  (1) 
-5.1565816588190208

>  <r_i_glide_ecoul>  (1) 
0.94968322609848665

>  <r_i_glide_eff_state_penalty>  (1) 
-0

>  <r_i_glide_einternal>  (1) 
0

>  <r_i_glide_emodel>  (1) 
-21.591483187006808

>  <r_i_glide_emodel_strain>  (1) 
0

>  <r_i_glide_energy>  (1) 
-16.213765930558733

>  <r_i_glide_erotb>  (1) 
0

>  <r_i_glide_esite>  (1) 
0

>  <r_i_glide_evdw>  (1) 
-17.163449156657219

>  <r_i_glide_gscore>  (1) 
-5.1565816588190208

>  <r_i_glide_gscore_strain>  (1) 
0

>  <r_i_glide_hbond>  (1) 
0

>  <r_i_glide_ligand_efficiency>  (1) 
-0.73665452268843157

>  <r_i_glide_ligand_efficiency_ln>  (1) 
-1.7504205484585535

>  <r_i_glide_ligand_efficiency_sa>  (1) 
-1.409169407381011

>  <r_i_glide_lipo>  (1) 
-1.5735308340090057

>  <r_i_glide_metal>  (1) 
-0

>  <r_i_glide_rewards>  (1) 
-2.8673308508919271

>  <r_lp_Energy>  (1) 
-0.38638499999999998

>  <r_lp_tautomer_probability>  (1) 
1

>  <s_epik_cmdline>  (1) 
J2VwaWtfcHl0aG9uJywgJy1waHQnLCAnMS4wJywgJy1waCcsICc3LjQnLCAnLXRuJywgJzgnLCAnLW1hJywgJzUwMCcsICctaW1hZScsICc8aW5maWxlLm1hZT4nLCAnLW9tYWUnLCAnPG91dGZpbGUubWFlPic=

>  <s_epik_input>  (1) 
W0NIMl0xW0NIMl1bQ0gyXVtDSDJdW0NIXT1DMVtPSF0=

>  <s_glide_docking_method>  (1) 
confgen

>  <s_i_glide_gridfile>  (1) 
gpcr_5ht2c_6bqh_protein_autoprepared_prepared

>  <s_lp_Force_Field>  (1) 
S-OPLS

>  <s_lp_Variant>  (1) 
Pocket2Mol_36-1

>  <s_m_source_file>  (1) 
generated_GPCR_5HT2C_ligand_Pocket2Mol_2026-06-23_prepared.sdf

>  <GenAI_Model>  (1) 
Pocket2Mol

>  <Protein>  (1) 
GPCR_5HT2C

$$$$
Pocket2Mol_34
     RDKit          3D

  0  0  0  0  0  0  0  0  0  0999 V3000
M  V30 BEGIN CTAB
M  V30 COUNTS 19 19 0 0 1
M  V30 BEGIN ATOM
M  V30 1 C 38.450800 28.487655 52.311699 0
M  V30 2 C 38.454231 27.771330 53.671527 0
M  V30 3 C 39.553026 29.561113 52.228299 0
M  V30 4 O 37.346553 26.900603 53.733094 0
M  V30 5 C 39.510885 30.537754 53.425356 0
M  V30 6 C 39.484630 29.815236 54.780942 0
M  V30 7 C 38.356119 28.773288 54.835341 0
M  V30 8 H 38.582507 27.765235 51.504844 0
M  V30 9 H 37.473237 28.938758 52.149416 0
M  V30 10 H 39.365586 27.179624 53.769101 0
M  V30 11 H 40.523808 29.074674 52.167758 0
M  V30 12 H 39.452080 30.118404 51.296315 0
M  V30 13 H 37.262092 26.451012 52.902859 0
M  V30 14 H 40.364641 31.214336 53.381071 0
M  V30 15 H 38.623107 31.167745 53.367759 0
M  V30 16 H 40.445134 29.337754 54.967760 0
M  V30 17 H 39.351914 30.543425 55.581986 0
M  V30 18 H 37.393017 29.285805 54.800918 0
M  V30 19 H 38.387672 28.244181 55.788427 0
M  V30 END ATOM
M  V30 BEGIN BOND
M  V30 1 1 2 1
M  V30 2 1 3 1
M  V30 3 1 4 2
M  V30 4 1 5 3
M  V30 5 1 6 5
M  V30 6 1 7 2
M  V30 7 1 7 6
M  V30 8 1 8 1
M  V30 9 1 9 1
M  V30 10 1 10 2
M  V30 11 1 11 3
M  V30 12 1 12 3
M  V30 13 1 13 4
M  V30 14 1 14 5
M  V30 15 1 15 5
M  V30 16 1 16 6
M  V30 17 1 17 6
M  V30 18 1 18 7
M  V30 19 1 19 7
M  V30 END BOND
M  V30 END CTAB
M  END
>  <i_epik_Tot_Q>  (1) 
0

>  <i_epik_Tot_abs_Q>  (1) 
0

>  <i_i_glide_confnum>  (1) 
1

>  <i_i_glide_lignum>  (1) 
35

>  <i_i_glide_posenum>  (1) 
241

>  <i_i_glide_rotatable_bonds>  (1) 
1

>  <i_lp_mmshare_version>  (1) 
72125

>  <i_m_source_file_index>  (1) 
35

>  <i_f3d_flags>  (1) 
0

>  <num_sample>  (1) 
50

>  <b_lp_Chiralities_Consistent>  (1) 
1

>  <r_epik_Charging_Adjusted_Penalty>  (1) 
0

>  <r_epik_Ionization_Penalty>  (1) 
4.7751045033339745e-07

>  <r_epik_Ionization_Penalty_Charging>  (1) 
0

>  <r_epik_Ionization_Penalty_Neutral>  (1) 
4.7751045033339745e-07

>  <r_epik_State_Penalty>  (1) 
-0

>  <r_glide_ring_energy>  (1) 
0

>  <r_i_docking_score>  (1) 
-5.150612747171504

>  <r_i_glide_ecoul>  (1) 
-1.4808588208627216

>  <r_i_glide_eff_state_penalty>  (1) 
-0

>  <r_i_glide_einternal>  (1) 
0.66685793613037314

>  <r_i_glide_emodel>  (1) 
-20.266157368352207

>  <r_i_glide_emodel_strain>  (1) 
0.0062708264831021765

>  <r_i_glide_energy>  (1) 
-15.695642727808044

>  <r_i_glide_erotb>  (1) 
0

>  <r_i_glide_esite>  (1) 
0

>  <r_i_glide_evdw>  (1) 
-14.214783906945323

>  <r_i_glide_gscore>  (1) 
-5.150612747171504

>  <r_i_glide_gscore_strain>  (1) 
0

>  <r_i_glide_hbond>  (1) 
-0.077037508872341037

>  <r_i_glide_ligand_efficiency>  (1) 
-0.73580182102450054

>  <r_i_glide_ligand_efficiency_ln>  (1) 
-1.7483943795173755

>  <r_i_glide_ligand_efficiency_sa>  (1) 
-1.4075382477784757

>  <r_i_glide_lipo>  (1) 
-1.6427336004940416

>  <r_i_glide_metal>  (1) 
-0

>  <r_i_glide_rewards>  (1) 
-2.4979736193284463

>  <r_lp_Energy>  (1) 
3.8568439999999997

>  <r_lp_tautomer_probability>  (1) 
1

>  <s_epik_cmdline>  (1) 
J2VwaWtfcHl0aG9uJywgJy1waHQnLCAnMS4wJywgJy1waCcsICc3LjQnLCAnLXRuJywgJzgnLCAnLW1hJywgJzUwMCcsICctaW1hZScsICc8aW5maWxlLm1hZT4nLCAnLW9tYWUnLCAnPG91dGZpbGUubWFlPic=

>  <s_epik_input>  (1) 
W09IXVtDSF0xW0NIMl1bQ0gyXVtDSDJdW0NIMl1bQ0gyXTE=

>  <s_glide_docking_method>  (1) 
confgen

>  <s_i_glide_gridfile>  (1) 
gpcr_5ht2c_6bqh_protein_autoprepared_prepared

>  <s_lp_Force_Field>  (1) 
S-OPLS

>  <s_lp_Variant>  (1) 
Pocket2Mol_34-1

>  <s_m_source_file>  (1) 
generated_GPCR_5HT2C_ligand_Pocket2Mol_2026-06-23_prepared.sdf

>  <GenAI_Model>  (1) 
Pocket2Mol

>  <Protein>  (1) 
GPCR_5HT2C

$$$$
Pocket2Mol_41
     RDKit          3D

  0  0  0  0  0  0  0  0  0  0999 V3000
M  V30 BEGIN CTAB
M  V30 COUNTS 15 15 0 0 1
M  V30 BEGIN ATOM
M  V30 1 C 39.245140 27.660599 51.396249 0
M  V30 2 O 40.359720 28.537923 51.367760 0
M  V30 3 C 40.045134 29.919857 51.362189 0
M  V30 4 C 38.156008 28.119196 52.372353 0
M  V30 5 O 38.726150 28.472046 53.622655 0
M  V30 6 C 39.745837 30.466953 52.753740 0
M  V30 7 C 39.156906 29.771178 53.752811 0
M  V30 8 H 38.845139 27.567845 50.387403 0
M  V30 9 H 39.608339 26.672363 51.679083 0
M  V30 10 H 39.245138 30.155543 50.658888 0
M  V30 11 H 40.932405 30.439935 51.000138 0
M  V30 12 H 37.564644 28.937708 51.960238 0
M  V30 13 H 37.453335 27.304866 52.544915 0
M  V30 14 H 40.041917 31.488812 52.932888 0
M  V30 15 H 38.956331 30.171433 54.736160 0
M  V30 END ATOM
M  V30 BEGIN BOND
M  V30 1 1 2 1
M  V30 2 1 3 2
M  V30 3 1 4 1
M  V30 4 1 5 4
M  V30 5 1 6 3
M  V30 6 1 7 5
M  V30 7 2 7 6
M  V30 8 1 8 1
M  V30 9 1 9 1
M  V30 10 1 10 3
M  V30 11 1 11 3
M  V30 12 1 12 4
M  V30 13 1 13 4
M  V30 14 1 14 6
M  V30 15 1 15 7
M  V30 END BOND
M  V30 END CTAB
M  END
>  <i_epik_Tot_Q>  (1) 
0

>  <i_epik_Tot_abs_Q>  (1) 
0

>  <i_i_glide_confnum>  (1) 
4

>  <i_i_glide_lignum>  (1) 
42

>  <i_i_glide_posenum>  (1) 
325

>  <i_i_glide_rotatable_bonds>  (1) 
0

>  <i_lp_mmshare_version>  (1) 
72125

>  <i_m_source_file_index>  (1) 
42

>  <i_f3d_flags>  (1) 
0

>  <num_sample>  (1) 
50

>  <b_lp_Chiralities_Consistent>  (1) 
1

>  <r_epik_Charging_Adjusted_Penalty>  (1) 
0

>  <r_epik_Ionization_Penalty>  (1) 
5.6701613537443791e-14

>  <r_epik_Ionization_Penalty_Charging>  (1) 
0

>  <r_epik_Ionization_Penalty_Neutral>  (1) 
5.6701613537443791e-14

>  <r_epik_State_Penalty>  (1) 
-0

>  <r_glide_ring_energy>  (1) 
0.98544188256928789

>  <r_i_docking_score>  (1) 
-5.1493462998622315

>  <r_i_glide_ecoul>  (1) 
-1.2733023416690661

>  <r_i_glide_eff_state_penalty>  (1) 
-0

>  <r_i_glide_einternal>  (1) 
0

>  <r_i_glide_emodel>  (1) 
-22.554910970052632

>  <r_i_glide_emodel_strain>  (1) 
0

>  <r_i_glide_energy>  (1) 
-17.274443954689009

>  <r_i_glide_erotb>  (1) 
0

>  <r_i_glide_esite>  (1) 
0

>  <r_i_glide_evdw>  (1) 
-16.001141613019943

>  <r_i_glide_gscore>  (1) 
-5.1493462998622315

>  <r_i_glide_gscore_strain>  (1) 
0

>  <r_i_glide_hbond>  (1) 
0

>  <r_i_glide_ligand_efficiency>  (1) 
-0.73562089998031877

>  <r_i_glide_ligand_efficiency_ln>  (1) 
-1.7479644793353626

>  <r_i_glide_ligand_efficiency_sa>  (1) 
-1.4071921582714406

>  <r_i_glide_lipo>  (1) 
-1.5166049288292176

>  <r_i_glide_metal>  (1) 
-0

>  <r_i_glide_rewards>  (1) 
-2.6416889391316571

>  <r_lp_Energy>  (1) 
7.3473649999999999

>  <r_lp_tautomer_probability>  (1) 
1

>  <s_epik_cmdline>  (1) 
J2VwaWtfcHl0aG9uJywgJy1waHQnLCAnMS4wJywgJy1waCcsICc3LjQnLCAnLXRuJywgJzgnLCAnLW1hJywgJzUwMCcsICctaW1hZScsICc8aW5maWxlLm1hZT4nLCAnLW9tYWUnLCAnPG91dGZpbGUubWFlPic=

>  <s_epik_input>  (1) 
W0NIMl0xT1tDSDJdW0NIXT1bQ0hdT1tDSDJdMQ==

>  <s_glide_docking_method>  (1) 
confgen

>  <s_i_glide_gridfile>  (1) 
gpcr_5ht2c_6bqh_protein_autoprepared_prepared

>  <s_lp_Force_Field>  (1) 
S-OPLS

>  <s_lp_Variant>  (1) 
Pocket2Mol_41-1

>  <s_m_source_file>  (1) 
generated_GPCR_5HT2C_ligand_Pocket2Mol_2026-06-23_prepared.sdf

>  <GenAI_Model>  (1) 
Pocket2Mol

>  <Protein>  (1) 
GPCR_5HT2C

$$$$
Pocket2Mol_6
     RDKit          3D

  0  0  0  0  0  0  0  0  0  0999 V3000
M  V30 BEGIN CTAB
M  V30 COUNTS 12 12 0 0 1
M  V30 BEGIN ATOM
M  V30 1 C 38.731368 28.221876 52.148674 0
M  V30 2 C 39.585679 29.326757 51.963546 0
M  V30 3 C 37.936517 28.132563 53.308463 0
M  V30 4 C 37.995980 29.148126 54.283127 0
M  V30 5 C 38.850291 30.253004 54.098002 0
M  V30 6 C 39.645137 30.342319 52.938214 0
M  V30 7 H 38.685778 27.443260 51.401415 0
M  V30 8 H 40.195075 29.395233 51.074356 0
M  V30 9 H 37.281532 27.285471 53.450396 0
M  V30 10 H 37.386581 29.079650 55.172318 0
M  V30 11 H 38.895879 31.031620 54.845260 0
M  V30 12 H 40.300124 31.189413 52.796279 0
M  V30 END ATOM
M  V30 BEGIN BOND
M  V30 1 1 2 1
M  V30 2 2 3 1
M  V30 3 1 4 3
M  V30 4 2 5 4
M  V30 5 2 6 2
M  V30 6 1 6 5
M  V30 7 1 7 1
M  V30 8 1 8 2
M  V30 9 1 9 3
M  V30 10 1 10 4
M  V30 11 1 11 5
M  V30 12 1 12 6
M  V30 END BOND
M  V30 END CTAB
M  END
>  <i_epik_Tot_Q>  (1) 
0

>  <i_epik_Tot_abs_Q>  (1) 
0

>  <i_i_glide_confnum>  (1) 
1

>  <i_i_glide_lignum>  (1) 
7

>  <i_i_glide_posenum>  (1) 
191

>  <i_i_glide_rotatable_bonds>  (1) 
0

>  <i_lp_mmshare_version>  (1) 
72125

>  <i_m_source_file_index>  (1) 
7

>  <i_f3d_flags>  (1) 
0

>  <num_sample>  (1) 
50

>  <b_lp_Chiralities_Consistent>  (1) 
1

>  <r_epik_Charging_Adjusted_Penalty>  (1) 
0

>  <r_epik_Ionization_Penalty>  (1) 
0

>  <r_epik_Ionization_Penalty_Charging>  (1) 
0

>  <r_epik_Ionization_Penalty_Neutral>  (1) 
0

>  <r_epik_State_Penalty>  (1) 
-0

>  <r_glide_ring_energy>  (1) 
0

>  <r_i_docking_score>  (1) 
-5.1448203168126714

>  <r_i_glide_ecoul>  (1) 
-0.93131061290605199

>  <r_i_glide_eff_state_penalty>  (1) 
-0

>  <r_i_glide_einternal>  (1) 
0

>  <r_i_glide_emodel>  (1) 
-18.997899623139244

>  <r_i_glide_emodel_strain>  (1) 
0

>  <r_i_glide_energy>  (1) 
-14.12883451230385

>  <r_i_glide_erotb>  (1) 
0

>  <r_i_glide_esite>  (1) 
0

>  <r_i_glide_evdw>  (1) 
-13.197523899397799

>  <r_i_glide_gscore>  (1) 
-5.1448203168126714

>  <r_i_glide_gscore_strain>  (1) 
0

>  <r_i_glide_hbond>  (1) 
0

>  <r_i_glide_ligand_efficiency>  (1) 
-0.85747005280211186

>  <r_i_glide_ligand_efficiency_ln>  (1) 
-1.8428594488604915

>  <r_i_glide_ligand_efficiency_sa>  (1) 
-1.5581264906835799

>  <r_i_glide_lipo>  (1) 
-1.7965114710939591

>  <r_i_glide_metal>  (1) 
-0

>  <r_i_glide_rewards>  (1) 
-2.548736058812914

>  <r_lp_Energy>  (1) 
6.1542199999999996

>  <r_lp_tautomer_probability>  (1) 
1

>  <s_epik_cmdline>  (1) 
J2VwaWtfcHl0aG9uJywgJy1waHQnLCAnMS4wJywgJy1waCcsICc3LjQnLCAnLXRuJywgJzgnLCAnLW1hJywgJzUwMCcsICctaW1hZScsICc8aW5maWxlLm1hZT4nLCAnLW9tYWUnLCAnPG91dGZpbGUubWFlPic=

>  <s_epik_input>  (1) 
W2NIXTFbY0hdW2NIXVtjSF1bY0hdW2NIXTE=

>  <s_glide_docking_method>  (1) 
confgen

>  <s_i_glide_gridfile>  (1) 
gpcr_5ht2c_6bqh_protein_autoprepared_prepared

>  <s_lp_Force_Field>  (1) 
S-OPLS

>  <s_lp_Variant>  (1) 
Pocket2Mol_6-1

>  <s_m_source_file>  (1) 
generated_GPCR_5HT2C_ligand_Pocket2Mol_2026-06-23_prepared.sdf

>  <GenAI_Model>  (1) 
Pocket2Mol

>  <Protein>  (1) 
GPCR_5HT2C

$$$$
Pocket2Mol_38
     RDKit          3D

  0  0  0  0  0  0  0  0  0  0999 V3000
M  V30 BEGIN CTAB
M  V30 COUNTS 12 12 0 0 1
M  V30 BEGIN ATOM
M  V30 1 C 39.247643 25.361391 57.221854 0
M  V30 2 C 39.252886 26.244088 56.131024 0
M  V30 3 C 38.207498 25.992669 55.446337 0
M  V30 4 C 37.739696 26.671222 54.171971 0
M  V30 5 N 38.240007 24.538678 57.281737 0
M  V30 6 C 37.495876 24.918592 56.093210 0
M  V30 7 O 36.445137 24.415094 55.700554 0
M  V30 8 H 40.065962 25.408378 57.945515 0
M  V30 9 H 40.028150 26.977388 55.964939 0
M  V30 10 H 37.500672 25.938872 53.402619 0
M  V30 11 H 36.847913 27.268160 54.362593 0
M  V30 12 H 38.512820 27.332600 53.780944 0
M  V30 END ATOM
M  V30 BEGIN BOND
M  V30 1 1 2 1
M  V30 2 2 3 2
M  V30 3 1 4 3
M  V30 4 2 5 1
M  V30 5 1 6 3
M  V30 6 1 6 5
M  V30 7 2 7 6
M  V30 8 1 8 1
M  V30 9 1 9 2
M  V30 10 1 10 4
M  V30 11 1 11 4
M  V30 12 1 12 4
M  V30 END BOND
M  V30 END CTAB
M  END
>  <i_epik_Tot_Q>  (1) 
0

>  <i_epik_Tot_abs_Q>  (1) 
0

>  <i_i_glide_confnum>  (1) 
1

>  <i_i_glide_lignum>  (1) 
39

>  <i_i_glide_posenum>  (1) 
189

>  <i_i_glide_rotatable_bonds>  (1) 
0

>  <i_lp_mmshare_version>  (1) 
72125

>  <i_m_source_file_index>  (1) 
39

>  <i_f3d_flags>  (1) 
0

>  <num_sample>  (1) 
50

>  <b_lp_Chiralities_Consistent>  (1) 
1

>  <r_epik_Charging_Adjusted_Penalty>  (1) 
0

>  <r_epik_Ionization_Penalty>  (1) 
0

>  <r_epik_Ionization_Penalty_Charging>  (1) 
0

>  <r_epik_Ionization_Penalty_Neutral>  (1) 
0

>  <r_epik_State_Penalty>  (1) 
-0

>  <r_glide_ring_energy>  (1) 
0

>  <r_i_docking_score>  (1) 
-5.1440854144569768

>  <r_i_glide_ecoul>  (1) 
-0.60568891468322872

>  <r_i_glide_eff_state_penalty>  (1) 
-0

>  <r_i_glide_einternal>  (1) 
0

>  <r_i_glide_emodel>  (1) 
-24.55827379400629

>  <r_i_glide_emodel_strain>  (1) 
0

>  <r_i_glide_energy>  (1) 
-18.528762862496727

>  <r_i_glide_erotb>  (1) 
0

>  <r_i_glide_esite>  (1) 
0

>  <r_i_glide_evdw>  (1) 
-17.923073947813499

>  <r_i_glide_gscore>  (1) 
-5.1440854144569768

>  <r_i_glide_gscore_strain>  (1) 
0

>  <r_i_glide_hbond>  (1) 
0

>  <r_i_glide_ligand_efficiency>  (1) 
-0.73486934492242528

>  <r_i_glide_ligand_efficiency_ln>  (1) 
-1.746178652497792

>  <r_i_glide_ligand_efficiency_sa>  (1) 
-1.4057544851656258

>  <r_i_glide_lipo>  (1) 
-0.9182500012444611

>  <r_i_glide_metal>  (1) 
-0

>  <r_i_glide_rewards>  (1) 
-3.2388283786193557

>  <r_lp_Energy>  (1) 
0.58044799999999996

>  <r_lp_tautomer_probability>  (1) 
1

>  <s_epik_Chemistry_Notes>  (1) 
This compound has an imine and may undergo hydrolysis.

>  <s_epik_cmdline>  (1) 
J2VwaWtfcHl0aG9uJywgJy1waHQnLCAnMS4wJywgJy1waCcsICc3LjQnLCAnLXRuJywgJzgnLCAnLW1hJywgJzUwMCcsICctaW1hZScsICc8aW5maWxlLm1hZT4nLCAnLW9tYWUnLCAnPG91dGZpbGUubWFlPic=

>  <s_epik_input>  (1) 
Tz1DMU49W0NIXVtDSF09QzFbQ0gzXQ==

>  <s_glide_docking_method>  (1) 
confgen

>  <s_i_glide_gridfile>  (1) 
gpcr_5ht2c_6bqh_protein_autoprepared_prepared

>  <s_lp_Force_Field>  (1) 
S-OPLS

>  <s_lp_Variant>  (1) 
Pocket2Mol_38-1

>  <s_m_source_file>  (1) 
generated_GPCR_5HT2C_ligand_Pocket2Mol_2026-06-23_prepared.sdf

>  <GenAI_Model>  (1) 
Pocket2Mol

>  <Protein>  (1) 
GPCR_5HT2C

$$$$
Pocket2Mol_39
     RDKit          3D

  0  0  0  0  0  0  0  0  0  0999 V3000
M  V30 BEGIN CTAB
M  V30 COUNTS 15 15 0 0 1
M  V30 BEGIN ATOM
M  V30 1 C 39.111011 30.386138 53.749119 0
M  V30 2 C 39.645128 29.737819 52.597243 0
M  V30 3 C 39.029815 28.545096 52.317736 0
M  V30 4 C 39.323137 27.603016 51.199763 0
M  V30 5 C 38.092789 29.682472 54.338525 0
M  V30 6 C 37.305903 30.051568 55.550133 0
M  V30 7 S 37.773688 28.199435 53.477551 0
M  V30 8 H 39.488594 31.335172 54.100473 0
M  V30 9 H 40.452817 30.164781 52.021027 0
M  V30 10 H 40.134542 27.975000 50.573736 0
M  V30 11 H 39.615830 26.626042 51.584734 0
M  V30 12 H 38.445139 27.468290 50.567844 0
M  V30 13 H 37.637266 31.006234 55.959363 0
M  V30 14 H 36.245900 30.137764 55.310729 0
M  V30 15 H 37.416591 29.295517 56.327619 0
M  V30 END ATOM
M  V30 BEGIN BOND
M  V30 1 1 2 1
M  V30 2 2 3 2
M  V30 3 1 4 3
M  V30 4 2 5 1
M  V30 5 1 6 5
M  V30 6 1 7 3
M  V30 7 1 7 5
M  V30 8 1 8 1
M  V30 9 1 9 2
M  V30 10 1 10 4
M  V30 11 1 11 4
M  V30 12 1 12 4
M  V30 13 1 13 6
M  V30 14 1 14 6
M  V30 15 1 15 6
M  V30 END BOND
M  V30 END CTAB
M  END
>  <i_epik_Tot_Q>  (1) 
0

>  <i_epik_Tot_abs_Q>  (1) 
0

>  <i_i_glide_confnum>  (1) 
1

>  <i_i_glide_lignum>  (1) 
40

>  <i_i_glide_posenum>  (1) 
205

>  <i_i_glide_rotatable_bonds>  (1) 
0

>  <i_lp_mmshare_version>  (1) 
72125

>  <i_m_source_file_index>  (1) 
40

>  <i_f3d_flags>  (1) 
0

>  <num_sample>  (1) 
50

>  <b_lp_Chiralities_Consistent>  (1) 
1

>  <r_epik_Charging_Adjusted_Penalty>  (1) 
0

>  <r_epik_Ionization_Penalty>  (1) 
0

>  <r_epik_Ionization_Penalty_Charging>  (1) 
0

>  <r_epik_Ionization_Penalty_Neutral>  (1) 
0

>  <r_epik_State_Penalty>  (1) 
-0

>  <r_glide_ring_energy>  (1) 
0

>  <r_i_docking_score>  (1) 
-5.1305644359160683

>  <r_i_glide_ecoul>  (1) 
-0.88071062227545094

>  <r_i_glide_eff_state_penalty>  (1) 
-0

>  <r_i_glide_einternal>  (1) 
0

>  <r_i_glide_emodel>  (1) 
-24.505990408898462

>  <r_i_glide_emodel_strain>  (1) 
0

>  <r_i_glide_energy>  (1) 
-18.53696468105349

>  <r_i_glide_erotb>  (1) 
0

>  <r_i_glide_esite>  (1) 
0

>  <r_i_glide_evdw>  (1) 
-17.656254058778039

>  <r_i_glide_gscore>  (1) 
-5.1305644359160683

>  <r_i_glide_gscore_strain>  (1) 
0

>  <r_i_glide_hbond>  (1) 
0

>  <r_i_glide_ligand_efficiency>  (1) 
-0.73293777655943837

>  <r_i_glide_ligand_efficiency_ln>  (1) 
-1.741588906763271

>  <r_i_glide_ligand_efficiency_sa>  (1) 
-1.4020595278124115

>  <r_i_glide_lipo>  (1) 
-1.7071238995265736

>  <r_i_glide_metal>  (1) 
-0

>  <r_i_glide_rewards>  (1) 
-2.4085212401092746

>  <r_lp_Energy>  (1) 
3.6641779999999997

>  <r_lp_tautomer_probability>  (1) 
1

>  <s_epik_cmdline>  (1) 
J2VwaWtfcHl0aG9uJywgJy1waHQnLCAnMS4wJywgJy1waCcsICc3LjQnLCAnLXRuJywgJzgnLCAnLW1hJywgJzUwMCcsICctaW1hZScsICc8aW5maWxlLm1hZT4nLCAnLW9tYWUnLCAnPG91dGZpbGUubWFlPic=

>  <s_epik_input>  (1) 
W0NIM11jKHMxKVtjSF1bY0hdYzFbQ0gzXQ==

>  <s_glide_docking_method>  (1) 
confgen

>  <s_i_glide_gridfile>  (1) 
gpcr_5ht2c_6bqh_protein_autoprepared_prepared

>  <s_lp_Force_Field>  (1) 
S-OPLS

>  <s_lp_Variant>  (1) 
Pocket2Mol_39-1

>  <s_m_source_file>  (1) 
generated_GPCR_5HT2C_ligand_Pocket2Mol_2026-06-23_prepared.sdf

>  <GenAI_Model>  (1) 
Pocket2Mol

>  <Protein>  (1) 
GPCR_5HT2C

$$$$
Pocket2Mol_29
     RDKit          3D

  0  0  0  0  0  0  0  0  0  0999 V3000
M  V30 BEGIN CTAB
M  V30 COUNTS 17 17 0 0 1
M  V30 BEGIN ATOM
M  V30 1 C 40.045140 28.503102 50.967810 0
M  V30 2 C 39.891098 29.915203 51.517324 0
M  V30 3 C 39.539444 30.053993 53.002240 0
M  V30 4 O 40.045159 30.900304 50.800632 0
M  V30 5 C 38.936600 27.558317 51.454183 0
M  V30 6 C 38.464566 29.037859 53.447265 0
M  V30 7 C 38.754266 27.604239 52.977754 0
M  V30 8 H 40.060525 28.537760 49.878287 0
M  V30 9 H 41.015125 28.137909 51.298291 0
M  V30 10 H 40.445457 29.919411 53.588327 0
M  V30 11 H 39.198926 31.071542 53.196523 0
M  V30 12 H 37.999189 27.823770 50.967779 0
M  V30 13 H 39.164694 26.539474 51.139046 0
M  V30 14 H 38.372649 29.057371 54.533495 0
M  V30 15 H 37.492542 29.337734 53.059690 0
M  V30 16 H 39.645213 27.221238 53.473799 0
M  V30 17 H 37.934758 26.946154 53.269971 0
M  V30 END ATOM
M  V30 BEGIN BOND
M  V30 1 1 2 1
M  V30 2 1 3 2
M  V30 3 2 4 2
M  V30 4 1 5 1
M  V30 5 1 6 3
M  V30 6 1 7 5
M  V30 7 1 7 6
M  V30 8 1 8 1
M  V30 9 1 9 1
M  V30 10 1 10 3
M  V30 11 1 11 3
M  V30 12 1 12 5
M  V30 13 1 13 5
M  V30 14 1 14 6
M  V30 15 1 15 6
M  V30 16 1 16 7
M  V30 17 1 17 7
M  V30 END BOND
M  V30 END CTAB
M  END
>  <i_epik_Tot_Q>  (1) 
0

>  <i_epik_Tot_abs_Q>  (1) 
0

>  <i_i_glide_confnum>  (1) 
1

>  <i_i_glide_lignum>  (1) 
30

>  <i_i_glide_posenum>  (1) 
107

>  <i_i_glide_rotatable_bonds>  (1) 
0

>  <i_lp_mmshare_version>  (1) 
72125

>  <i_m_source_file_index>  (1) 
30

>  <i_f3d_flags>  (1) 
0

>  <num_sample>  (1) 
50

>  <b_lp_Chiralities_Consistent>  (1) 
1

>  <r_epik_Charging_Adjusted_Penalty>  (1) 
0

>  <r_epik_Ionization_Penalty>  (1) 
3.7730911281982554e-13

>  <r_epik_Ionization_Penalty_Charging>  (1) 
0

>  <r_epik_Ionization_Penalty_Neutral>  (1) 
3.7730911281982554e-13

>  <r_epik_State_Penalty>  (1) 
-0

>  <r_glide_ring_energy>  (1) 
0

>  <r_i_docking_score>  (1) 
-5.1238587748111808

>  <r_i_glide_ecoul>  (1) 
0.89334093603256015

>  <r_i_glide_eff_state_penalty>  (1) 
-0

>  <r_i_glide_einternal>  (1) 
0

>  <r_i_glide_emodel>  (1) 
-21.111074467051193

>  <r_i_glide_emodel_strain>  (1) 
0

>  <r_i_glide_energy>  (1) 
-15.787787365052131

>  <r_i_glide_erotb>  (1) 
0

>  <r_i_glide_esite>  (1) 
0

>  <r_i_glide_evdw>  (1) 
-16.681128301084691

>  <r_i_glide_gscore>  (1) 
-5.1238587748111808

>  <r_i_glide_gscore_strain>  (1) 
0

>  <r_i_glide_hbond>  (1) 
0

>  <r_i_glide_ligand_efficiency>  (1) 
-0.73197982497302583

>  <r_i_glide_ligand_efficiency_ln>  (1) 
-1.7393126455178161

>  <r_i_glide_ligand_efficiency_sa>  (1) 
-1.4002270323511767

>  <r_i_glide_lipo>  (1) 
-1.5890013058335519

>  <r_i_glide_metal>  (1) 
-0

>  <r_i_glide_rewards>  (1) 
-2.8348021943282773

>  <r_lp_Energy>  (1) 
-0.38655299999999998

>  <r_lp_tautomer_probability>  (1) 
1

>  <s_epik_cmdline>  (1) 
J2VwaWtfcHl0aG9uJywgJy1waHQnLCAnMS4wJywgJy1waCcsICc3LjQnLCAnLXRuJywgJzgnLCAnLW1hJywgJzUwMCcsICctaW1hZScsICc8aW5maWxlLm1hZT4nLCAnLW9tYWUnLCAnPG91dGZpbGUubWFlPic=

>  <s_epik_input>  (1) 
Tz1DMVtDSDJdW0NIMl1bQ0gyXVtDSDJdW0NIMl0x

>  <s_glide_docking_method>  (1) 
confgen

>  <s_i_glide_gridfile>  (1) 
gpcr_5ht2c_6bqh_protein_autoprepared_prepared

>  <s_lp_Force_Field>  (1) 
S-OPLS

>  <s_lp_Variant>  (1) 
Pocket2Mol_29-1

>  <s_m_source_file>  (1) 
generated_GPCR_5HT2C_ligand_Pocket2Mol_2026-06-23_prepared.sdf

>  <GenAI_Model>  (1) 
Pocket2Mol

>  <Protein>  (1) 
GPCR_5HT2C

$$$$
Pocket2Mol_35
     RDKit          3D

  0  0  0  0  0  0  0  0  0  0999 V3000
M  V30 BEGIN CTAB
M  V30 COUNTS 11 11 0 0 1
M  V30 BEGIN ATOM
M  V30 1 C 40.045142 30.473648 52.286207 0
M  V30 2 O 39.275707 29.549832 52.958922 0
M  V30 3 C 38.845150 28.336481 52.389155 0
M  V30 4 O 38.164284 27.514224 52.997274 0
M  V30 5 C 39.300167 28.146881 50.967750 0
M  V30 6 C 40.426850 30.275653 51.030239 0
M  V30 7 C 40.044915 29.086811 50.355559 0
M  V30 8 H 40.283699 31.337754 52.884576 0
M  V30 9 H 39.012894 27.241832 50.449989 0
M  V30 10 H 41.028605 31.017002 50.523704 0
M  V30 11 H 40.357630 28.935557 49.333078 0
M  V30 END ATOM
M  V30 BEGIN BOND
M  V30 1 1 2 1
M  V30 2 1 3 2
M  V30 3 2 4 3
M  V30 4 1 5 3
M  V30 5 2 6 1
M  V30 6 2 7 5
M  V30 7 1 7 6
M  V30 8 1 8 1
M  V30 9 1 9 5
M  V30 10 1 10 6
M  V30 11 1 11 7
M  V30 END BOND
M  V30 END CTAB
M  END
>  <i_epik_Tot_Q>  (1) 
0

>  <i_epik_Tot_abs_Q>  (1) 
0

>  <i_i_glide_confnum>  (1) 
1

>  <i_i_glide_lignum>  (1) 
36

>  <i_i_glide_posenum>  (1) 
252

>  <i_i_glide_rotatable_bonds>  (1) 
0

>  <i_lp_mmshare_version>  (1) 
72125

>  <i_m_source_file_index>  (1) 
36

>  <i_f3d_flags>  (1) 
0

>  <num_sample>  (1) 
50

>  <b_lp_Chiralities_Consistent>  (1) 
1

>  <r_epik_Charging_Adjusted_Penalty>  (1) 
0

>  <r_epik_Ionization_Penalty>  (1) 
2.4984917370333966e-09

>  <r_epik_Ionization_Penalty_Charging>  (1) 
0

>  <r_epik_Ionization_Penalty_Neutral>  (1) 
2.4984917370333966e-09

>  <r_epik_State_Penalty>  (1) 
-0

>  <r_glide_ring_energy>  (1) 
0

>  <r_i_docking_score>  (1) 
-5.1135586399463557

>  <r_i_glide_ecoul>  (1) 
-0.28060283974742461

>  <r_i_glide_eff_state_penalty>  (1) 
-0

>  <r_i_glide_einternal>  (1) 
0

>  <r_i_glide_emodel>  (1) 
-23.135066296710988

>  <r_i_glide_emodel_strain>  (1) 
0

>  <r_i_glide_energy>  (1) 
-17.72549260843298

>  <r_i_glide_erotb>  (1) 
0

>  <r_i_glide_esite>  (1) 
0

>  <r_i_glide_evdw>  (1) 
-17.444889768685556

>  <r_i_glide_gscore>  (1) 
-5.1135586399463557

>  <r_i_glide_gscore_strain>  (1) 
0

>  <r_i_glide_hbond>  (1) 
0

>  <r_i_glide_ligand_efficiency>  (1) 
-0.73050837713519368

>  <r_i_glide_ligand_efficiency_ln>  (1) 
-1.7358162269769695

>  <r_i_glide_ligand_efficiency_sa>  (1) 
-1.3974122538983647

>  <r_i_glide_lipo>  (1) 
-1.5078587641080552

>  <r_i_glide_metal>  (1) 
-0

>  <r_i_glide_rewards>  (1) 
-2.6913649614419084

>  <r_lp_Energy>  (1) 
11.255118999999999

>  <r_lp_tautomer_probability>  (1) 
1

>  <s_epik_cmdline>  (1) 
J2VwaWtfcHl0aG9uJywgJy1waHQnLCAnMS4wJywgJy1waCcsICc3LjQnLCAnLXRuJywgJzgnLCAnLW1hJywgJzUwMCcsICctaW1hZScsICc8aW5maWxlLm1hZT4nLCAnLW9tYWUnLCAnPG91dGZpbGUubWFlPic=

>  <s_epik_input>  (1) 
W2NIXTFbY0hdW2NIXVtjSF1vYzE9Tw==

>  <s_glide_docking_method>  (1) 
confgen

>  <s_i_glide_gridfile>  (1) 
gpcr_5ht2c_6bqh_protein_autoprepared_prepared

>  <s_lp_Force_Field>  (1) 
S-OPLS

>  <s_lp_Variant>  (1) 
Pocket2Mol_35-1

>  <s_m_source_file>  (1) 
generated_GPCR_5HT2C_ligand_Pocket2Mol_2026-06-23_prepared.sdf

>  <GenAI_Model>  (1) 
Pocket2Mol

>  <Protein>  (1) 
GPCR_5HT2C

$$$$
Pocket2Mol_38
     RDKit          3D

  0  0  0  0  0  0  0  0  0  0999 V3000
M  V30 BEGIN CTAB
M  V30 COUNTS 12 12 0 0 1
M  V30 BEGIN ATOM
M  V30 1 C 38.845141 29.199489 53.510221 0
M  V30 2 C 39.642949 30.137763 52.835074 0
M  V30 3 C 39.873402 29.659556 51.676345 0
M  V30 4 C 40.676359 30.280245 50.556432 0
M  V30 5 N 38.548772 28.121656 52.841497 0
M  V30 6 C 39.225199 28.377337 51.581458 0
M  V30 7 O 39.245183 27.635691 50.601368 0
M  V30 8 H 38.523134 29.414978 54.532491 0
M  V30 9 H 39.960052 31.073342 53.272549 0
M  V30 10 H 40.152070 30.185430 49.604853 0
M  V30 11 H 40.844883 31.337755 50.748245 0
M  V30 12 H 41.645454 29.793541 50.475958 0
M  V30 END ATOM
M  V30 BEGIN BOND
M  V30 1 1 2 1
M  V30 2 2 3 2
M  V30 3 1 4 3
M  V30 4 2 5 1
M  V30 5 1 6 3
M  V30 6 1 6 5
M  V30 7 2 7 6
M  V30 8 1 8 1
M  V30 9 1 9 2
M  V30 10 1 10 4
M  V30 11 1 11 4
M  V30 12 1 12 4
M  V30 END BOND
M  V30 END CTAB
M  END
>  <i_epik_Tot_Q>  (1) 
0

>  <i_epik_Tot_abs_Q>  (1) 
0

>  <i_i_glide_confnum>  (1) 
1

>  <i_i_glide_lignum>  (1) 
39

>  <i_i_glide_posenum>  (1) 
279

>  <i_i_glide_rotatable_bonds>  (1) 
0

>  <i_lp_mmshare_version>  (1) 
72125

>  <i_m_source_file_index>  (1) 
39

>  <i_f3d_flags>  (1) 
0

>  <num_sample>  (1) 
50

>  <b_lp_Chiralities_Consistent>  (1) 
1

>  <r_epik_Charging_Adjusted_Penalty>  (1) 
0

>  <r_epik_Ionization_Penalty>  (1) 
0

>  <r_epik_Ionization_Penalty_Charging>  (1) 
0

>  <r_epik_Ionization_Penalty_Neutral>  (1) 
0

>  <r_epik_State_Penalty>  (1) 
-0

>  <r_glide_ring_energy>  (1) 
0

>  <r_i_docking_score>  (1) 
-5.1017827973332279

>  <r_i_glide_ecoul>  (1) 
0.29586036554945472

>  <r_i_glide_eff_state_penalty>  (1) 
-0

>  <r_i_glide_einternal>  (1) 
0

>  <r_i_glide_emodel>  (1) 
-24.776507771415243

>  <r_i_glide_emodel_strain>  (1) 
0.00027973778659884374

>  <r_i_glide_energy>  (1) 
-18.796860531267832

>  <r_i_glide_erotb>  (1) 
0

>  <r_i_glide_esite>  (1) 
0

>  <r_i_glide_evdw>  (1) 
-19.092720896817287

>  <r_i_glide_gscore>  (1) 
-5.1017827973332279

>  <r_i_glide_gscore_strain>  (1) 
0

>  <r_i_glide_hbond>  (1) 
0

>  <r_i_glide_ligand_efficiency>  (1) 
-0.72882611390474683

>  <r_i_glide_ligand_efficiency_ln>  (1) 
-1.7318188740309184

>  <r_i_glide_ligand_efficiency_sa>  (1) 
-1.3941942001072114

>  <r_i_glide_lipo>  (1) 
-0.98999999999999999

>  <r_i_glide_metal>  (1) 
-0

>  <r_i_glide_rewards>  (1) 
-3.2015258073247823

>  <r_lp_Energy>  (1) 
0.58044799999999996

>  <r_lp_tautomer_probability>  (1) 
1

>  <s_epik_Chemistry_Notes>  (1) 
This compound has an imine and may undergo hydrolysis.

>  <s_epik_cmdline>  (1) 
J2VwaWtfcHl0aG9uJywgJy1waHQnLCAnMS4wJywgJy1waCcsICc3LjQnLCAnLXRuJywgJzgnLCAnLW1hJywgJzUwMCcsICctaW1hZScsICc8aW5maWxlLm1hZT4nLCAnLW9tYWUnLCAnPG91dGZpbGUubWFlPic=

>  <s_epik_input>  (1) 
Tz1DMU49W0NIXVtDSF09QzFbQ0gzXQ==

>  <s_glide_docking_method>  (1) 
confgen

>  <s_i_glide_gridfile>  (1) 
gpcr_5ht2c_6bqh_protein_autoprepared_prepared

>  <s_lp_Force_Field>  (1) 
S-OPLS

>  <s_lp_Variant>  (1) 
Pocket2Mol_38-1

>  <s_m_source_file>  (1) 
generated_GPCR_5HT2C_ligand_Pocket2Mol_2026-06-23_prepared.sdf

>  <GenAI_Model>  (1) 
Pocket2Mol

>  <Protein>  (1) 
GPCR_5HT2C

$$$$
Pocket2Mol_6
     RDKit          3D

  0  0  0  0  0  0  0  0  0  0999 V3000
M  V30 BEGIN CTAB
M  V30 COUNTS 12 12 0 0 1
M  V30 BEGIN ATOM
M  V30 1 C 38.845274 26.072081 54.994613 0
M  V30 2 C 39.645138 26.073040 56.153873 0
M  V30 3 C 37.645138 25.334816 54.967760 0
M  V30 4 C 37.245134 24.597780 56.100117 0
M  V30 5 C 38.045087 24.599130 57.260001 0
M  V30 6 C 39.245138 25.337438 57.286510 0
M  V30 7 H 39.152086 26.636079 54.126133 0
M  V30 8 H 40.566311 26.637361 56.174477 0
M  V30 9 H 37.032190 25.333602 54.078031 0
M  V30 10 H 36.325569 24.031699 56.078733 0
M  V30 11 H 37.738824 24.033683 58.128276 0
M  V30 12 H 39.859873 25.338095 58.174453 0
M  V30 END ATOM
M  V30 BEGIN BOND
M  V30 1 1 2 1
M  V30 2 2 3 1
M  V30 3 1 4 3
M  V30 4 2 5 4
M  V30 5 2 6 2
M  V30 6 1 6 5
M  V30 7 1 7 1
M  V30 8 1 8 2
M  V30 9 1 9 3
M  V30 10 1 10 4
M  V30 11 1 11 5
M  V30 12 1 12 6
M  V30 END BOND
M  V30 END CTAB
M  END
>  <i_epik_Tot_Q>  (1) 
0

>  <i_epik_Tot_abs_Q>  (1) 
0

>  <i_i_glide_confnum>  (1) 
1

>  <i_i_glide_lignum>  (1) 
7

>  <i_i_glide_posenum>  (1) 
292

>  <i_i_glide_rotatable_bonds>  (1) 
0

>  <i_lp_mmshare_version>  (1) 
72125

>  <i_m_source_file_index>  (1) 
7

>  <i_f3d_flags>  (1) 
0

>  <num_sample>  (1) 
50

>  <b_lp_Chiralities_Consistent>  (1) 
1

>  <r_epik_Charging_Adjusted_Penalty>  (1) 
0

>  <r_epik_Ionization_Penalty>  (1) 
0

>  <r_epik_Ionization_Penalty_Charging>  (1) 
0

>  <r_epik_Ionization_Penalty_Neutral>  (1) 
0

>  <r_epik_State_Penalty>  (1) 
-0

>  <r_glide_ring_energy>  (1) 
0

>  <r_i_docking_score>  (1) 
-5.0905726372395428

>  <r_i_glide_ecoul>  (1) 
-0.085569693143408121

>  <r_i_glide_eff_state_penalty>  (1) 
-0

>  <r_i_glide_einternal>  (1) 
0

>  <r_i_glide_emodel>  (1) 
-19.197554171730761

>  <r_i_glide_emodel_strain>  (1) 
0

>  <r_i_glide_energy>  (1) 
-14.379829140371056

>  <r_i_glide_erotb>  (1) 
0

>  <r_i_glide_esite>  (1) 
0

>  <r_i_glide_evdw>  (1) 
-14.294259447227647

>  <r_i_glide_gscore>  (1) 
-5.0905726372395428

>  <r_i_glide_gscore_strain>  (1) 
0

>  <r_i_glide_hbond>  (1) 
0

>  <r_i_glide_ligand_efficiency>  (1) 
-0.84842877287325713

>  <r_i_glide_ligand_efficiency_ln>  (1) 
-1.8234280901882745

>  <r_i_glide_ligand_efficiency_sa>  (1) 
-1.541697394739298

>  <r_i_glide_lipo>  (1) 
-1.9615613109609986

>  <r_i_glide_metal>  (1) 
-0

>  <r_i_glide_rewards>  (1) 
-2.4014628999456509

>  <r_lp_Energy>  (1) 
6.1542199999999996

>  <r_lp_tautomer_probability>  (1) 
1

>  <s_epik_cmdline>  (1) 
J2VwaWtfcHl0aG9uJywgJy1waHQnLCAnMS4wJywgJy1waCcsICc3LjQnLCAnLXRuJywgJzgnLCAnLW1hJywgJzUwMCcsICctaW1hZScsICc8aW5maWxlLm1hZT4nLCAnLW9tYWUnLCAnPG91dGZpbGUubWFlPic=

>  <s_epik_input>  (1) 
W2NIXTFbY0hdW2NIXVtjSF1bY0hdW2NIXTE=

>  <s_glide_docking_method>  (1) 
confgen

>  <s_i_glide_gridfile>  (1) 
gpcr_5ht2c_6bqh_protein_autoprepared_prepared

>  <s_lp_Force_Field>  (1) 
S-OPLS

>  <s_lp_Variant>  (1) 
Pocket2Mol_6-1

>  <s_m_source_file>  (1) 
generated_GPCR_5HT2C_ligand_Pocket2Mol_2026-06-23_prepared.sdf

>  <GenAI_Model>  (1) 
Pocket2Mol

>  <Protein>  (1) 
GPCR_5HT2C

$$$$
Pocket2Mol_7
     RDKit          3D

  0  0  0  0  0  0  0  0  0  0999 V3000
M  V30 BEGIN CTAB
M  V30 COUNTS 11 11 0 0 1
M  V30 BEGIN ATOM
M  V30 1 C 39.805097 29.203205 51.716897 0
M  V30 2 C 39.249337 28.130001 50.787897 0
M  V30 3 C 39.199678 29.335790 52.870040 0
M  V30 4 C 38.150896 28.413062 52.941228 0
M  V30 5 N 38.174570 27.738357 51.778255 0
M  V30 6 O 37.354583 28.235145 53.857656 0
M  V30 7 H 40.651971 29.803501 51.415589 0
M  V30 8 H 37.504480 27.008338 51.560518 0
M  V30 9 H 38.845137 28.537925 49.862567 0
M  V30 10 H 39.463095 30.042960 53.642444 0
M  V30 11 H 39.957990 27.325313 50.591944 0
M  V30 END ATOM
M  V30 BEGIN BOND
M  V30 1 1 2 1
M  V30 2 2 3 1
M  V30 3 1 4 3
M  V30 4 1 5 2
M  V30 5 1 5 4
M  V30 6 2 6 4
M  V30 7 1 7 1
M  V30 8 1 8 5
M  V30 9 1 9 2
M  V30 10 1 10 3
M  V30 11 1 11 2
M  V30 END BOND
M  V30 END CTAB
M  END
>  <i_epik_Tot_Q>  (1) 
0

>  <i_epik_Tot_abs_Q>  (1) 
0

>  <i_i_glide_confnum>  (1) 
1

>  <i_i_glide_lignum>  (1) 
8

>  <i_i_glide_posenum>  (1) 
280

>  <i_i_glide_rotatable_bonds>  (1) 
0

>  <i_lp_mmshare_version>  (1) 
72125

>  <i_m_source_file_index>  (1) 
8

>  <i_f3d_flags>  (1) 
0

>  <num_sample>  (1) 
50

>  <b_lp_Chiralities_Consistent>  (1) 
1

>  <r_epik_Charging_Adjusted_Penalty>  (1) 
0

>  <r_epik_Ionization_Penalty>  (1) 
3.8544596149973334e-06

>  <r_epik_Ionization_Penalty_Charging>  (1) 
0

>  <r_epik_Ionization_Penalty_Neutral>  (1) 
3.8544596149973334e-06

>  <r_epik_State_Penalty>  (1) 
-0

>  <r_glide_ring_energy>  (1) 
0

>  <r_i_docking_score>  (1) 
-5.0876844362165841

>  <r_i_glide_ecoul>  (1) 
-2.8503486088050449

>  <r_i_glide_eff_state_penalty>  (1) 
-0

>  <r_i_glide_einternal>  (1) 
0

>  <r_i_glide_emodel>  (1) 
-22.954547485429231

>  <r_i_glide_emodel_strain>  (1) 
0

>  <r_i_glide_energy>  (1) 
-17.568638576600943

>  <r_i_glide_erotb>  (1) 
0

>  <r_i_glide_esite>  (1) 
0

>  <r_i_glide_evdw>  (1) 
-14.718289967795899

>  <r_i_glide_gscore>  (1) 
-5.0876844362165841

>  <r_i_glide_gscore_strain>  (1) 
0

>  <r_i_glide_hbond>  (1) 
-0.32000000000000001

>  <r_i_glide_ligand_efficiency>  (1) 
-0.84794740603609731

>  <r_i_glide_ligand_efficiency_ln>  (1) 
-1.8223935451084443

>  <r_i_glide_ligand_efficiency_sa>  (1) 
-1.5408226931467883

>  <r_i_glide_lipo>  (1) 
-0.90421764650603242

>  <r_i_glide_metal>  (1) 
-0

>  <r_i_glide_rewards>  (1) 
-2.7000000000000002

>  <r_lp_Energy>  (1) 
3.2049569999999998

>  <r_lp_tautomer_probability>  (1) 
1

>  <s_epik_cmdline>  (1) 
J2VwaWtfcHl0aG9uJywgJy1waHQnLCAnMS4wJywgJy1waCcsICc3LjQnLCAnLXRuJywgJzgnLCAnLW1hJywgJzUwMCcsICctaW1hZScsICc8aW5maWxlLm1hZT4nLCAnLW9tYWUnLCAnPG91dGZpbGUubWFlPic=

>  <s_epik_input>  (1) 
TjE9W0NIXVtDSDJdW0NIMl1DMT1P

>  <s_glide_docking_method>  (1) 
confgen

>  <s_i_glide_gridfile>  (1) 
gpcr_5ht2c_6bqh_protein_autoprepared_prepared

>  <s_lp_Force_Field>  (1) 
S-OPLS

>  <s_lp_Variant>  (1) 
Pocket2Mol_7-1

>  <s_m_source_file>  (1) 
generated_GPCR_5HT2C_ligand_Pocket2Mol_2026-06-23_prepared.sdf

>  <GenAI_Model>  (1) 
Pocket2Mol

>  <Protein>  (1) 
GPCR_5HT2C

$$$$
Pocket2Mol_19
     RDKit          3D

  0  0  0  0  0  0  0  0  0  0999 V3000
M  V30 BEGIN CTAB
M  V30 COUNTS 13 13 0 0 1
M  V30 BEGIN ATOM
M  V30 1 C 40.444950 30.530223 50.898176 0
M  V30 2 C 40.045137 30.537245 52.262284 0
M  V30 3 C 40.045138 29.341865 50.356894 0
M  V30 4 C 39.411415 29.352679 52.514479 0
M  V30 5 N 39.410394 28.612573 51.347091 0
M  V30 6 C 38.837568 27.295205 51.188630 0
M  V30 7 H 40.968383 31.313303 50.368713 0
M  V30 8 H 40.203192 31.326584 52.982844 0
M  V30 9 H 40.150232 28.944407 49.359051 0
M  V30 10 H 38.960749 28.964069 53.416658 0
M  V30 11 H 38.969695 26.937920 50.167792 0
M  V30 12 H 39.321050 26.597531 51.872373 0
M  V30 13 H 37.773066 27.337760 51.415528 0
M  V30 END ATOM
M  V30 BEGIN BOND
M  V30 1 1 2 1
M  V30 2 2 3 1
M  V30 3 2 4 2
M  V30 4 1 5 3
M  V30 5 1 5 4
M  V30 6 1 6 5
M  V30 7 1 7 1
M  V30 8 1 8 2
M  V30 9 1 9 3
M  V30 10 1 10 4
M  V30 11 1 11 6
M  V30 12 1 12 6
M  V30 13 1 13 6
M  V30 END BOND
M  V30 END CTAB
M  END
>  <i_epik_Tot_Q>  (1) 
0

>  <i_epik_Tot_abs_Q>  (1) 
0

>  <i_i_glide_confnum>  (1) 
1

>  <i_i_glide_lignum>  (1) 
20

>  <i_i_glide_posenum>  (1) 
72

>  <i_i_glide_rotatable_bonds>  (1) 
0

>  <i_lp_mmshare_version>  (1) 
72125

>  <i_m_source_file_index>  (1) 
20

>  <i_f3d_flags>  (1) 
0

>  <num_sample>  (1) 
50

>  <b_lp_Chiralities_Consistent>  (1) 
1

>  <r_epik_Charging_Adjusted_Penalty>  (1) 
0

>  <r_epik_Ionization_Penalty>  (1) 
5.9248581604286784e-11

>  <r_epik_Ionization_Penalty_Charging>  (1) 
0

>  <r_epik_Ionization_Penalty_Neutral>  (1) 
5.9248581604286784e-11

>  <r_epik_State_Penalty>  (1) 
-0

>  <r_glide_ring_energy>  (1) 
0

>  <r_i_docking_score>  (1) 
-5.0817720837951157

>  <r_i_glide_ecoul>  (1) 
-1.1536125923031144

>  <r_i_glide_eff_state_penalty>  (1) 
-0

>  <r_i_glide_einternal>  (1) 
0

>  <r_i_glide_emodel>  (1) 
-21.542046970599422

>  <r_i_glide_emodel_strain>  (1) 
0

>  <r_i_glide_energy>  (1) 
-16.357841048227428

>  <r_i_glide_erotb>  (1) 
0

>  <r_i_glide_esite>  (1) 
0

>  <r_i_glide_evdw>  (1) 
-15.204228455924314

>  <r_i_glide_gscore>  (1) 
-5.0817720837951157

>  <r_i_glide_gscore_strain>  (1) 
0

>  <r_i_glide_hbond>  (1) 
0

>  <r_i_glide_ligand_efficiency>  (1) 
-0.84696201396585258

>  <r_i_glide_ligand_efficiency_ln>  (1) 
-1.8202757579256168

>  <r_i_glide_ligand_efficiency_sa>  (1) 
-1.5390321169239332

>  <r_i_glide_lipo>  (1) 
-1.4485187721534327

>  <r_i_glide_metal>  (1) 
-0

>  <r_i_glide_rewards>  (1) 
-2.7000000000000002

>  <r_lp_Energy>  (1) 
0.62146699999999999

>  <r_lp_tautomer_probability>  (1) 
1

>  <s_epik_cmdline>  (1) 
J2VwaWtfcHl0aG9uJywgJy1waHQnLCAnMS4wJywgJy1waCcsICc3LjQnLCAnLXRuJywgJzgnLCAnLW1hJywgJzUwMCcsICctaW1hZScsICc8aW5maWxlLm1hZT4nLCAnLW9tYWUnLCAnPG91dGZpbGUubWFlPic=

>  <s_epik_input>  (1) 
W2NIXTFbY0hdW2NIXVtjSF1uMVtDSDNd

>  <s_glide_docking_method>  (1) 
confgen

>  <s_i_glide_gridfile>  (1) 
gpcr_5ht2c_6bqh_protein_autoprepared_prepared

>  <s_lp_Force_Field>  (1) 
S-OPLS

>  <s_lp_Variant>  (1) 
Pocket2Mol_19-1

>  <s_m_source_file>  (1) 
generated_GPCR_5HT2C_ligand_Pocket2Mol_2026-06-23_prepared.sdf

>  <GenAI_Model>  (1) 
Pocket2Mol

>  <Protein>  (1) 
GPCR_5HT2C

$$$$
Pocket2Mol_11
     RDKit          3D

  0  0  0  0  0  0  0  0  0  0999 V3000
M  V30 BEGIN CTAB
M  V30 COUNTS 11 11 0 0 1
M  V30 BEGIN ATOM
M  V30 1 C 39.216809 29.336943 52.870164 0
M  V30 2 C 39.826371 29.190386 51.720961 0
M  V30 3 C 38.159860 28.423262 52.943104 0
M  V30 4 C 39.265649 28.116276 50.797332 0
M  V30 5 N 38.185081 27.737755 51.786529 0
M  V30 6 O 37.356467 28.259951 53.856169 0
M  V30 7 H 39.482780 30.047617 53.638910 0
M  V30 8 H 38.866740 28.532616 49.872595 0
M  V30 9 H 40.679280 29.780901 51.418814 0
M  V30 10 H 39.972190 27.308680 50.604206 0
M  V30 11 H 37.510514 27.010502 51.571733 0
M  V30 END ATOM
M  V30 BEGIN BOND
M  V30 1 2 2 1
M  V30 2 1 3 1
M  V30 3 1 4 2
M  V30 4 1 5 3
M  V30 5 1 5 4
M  V30 6 2 6 3
M  V30 7 1 7 1
M  V30 8 1 8 4
M  V30 9 1 9 2
M  V30 10 1 10 4
M  V30 11 1 11 5
M  V30 END BOND
M  V30 END CTAB
M  END
>  <i_epik_Tot_Q>  (1) 
0

>  <i_epik_Tot_abs_Q>  (1) 
0

>  <i_i_glide_confnum>  (1) 
1

>  <i_i_glide_lignum>  (1) 
12

>  <i_i_glide_posenum>  (1) 
280

>  <i_i_glide_rotatable_bonds>  (1) 
0

>  <i_lp_mmshare_version>  (1) 
72125

>  <i_m_source_file_index>  (1) 
12

>  <i_f3d_flags>  (1) 
0

>  <num_sample>  (1) 
50

>  <b_lp_Chiralities_Consistent>  (1) 
1

>  <r_epik_Charging_Adjusted_Penalty>  (1) 
0

>  <r_epik_Ionization_Penalty>  (1) 
3.8544596149973334e-06

>  <r_epik_Ionization_Penalty_Charging>  (1) 
0

>  <r_epik_Ionization_Penalty_Neutral>  (1) 
3.8544596149973334e-06

>  <r_epik_State_Penalty>  (1) 
-0

>  <r_glide_ring_energy>  (1) 
0

>  <r_i_docking_score>  (1) 
-5.0813537221256473

>  <r_i_glide_ecoul>  (1) 
-2.8074980707381476

>  <r_i_glide_eff_state_penalty>  (1) 
-0

>  <r_i_glide_einternal>  (1) 
0

>  <r_i_glide_emodel>  (1) 
-22.937786361754362

>  <r_i_glide_emodel_strain>  (1) 
0

>  <r_i_glide_energy>  (1) 
-17.55759978246423

>  <r_i_glide_erotb>  (1) 
0

>  <r_i_glide_esite>  (1) 
0

>  <r_i_glide_evdw>  (1) 
-14.750101711726083

>  <r_i_glide_gscore>  (1) 
-5.0813537221256473

>  <r_i_glide_gscore_strain>  (1) 
0

>  <r_i_glide_hbond>  (1) 
-0.32000000000000001

>  <r_i_glide_ligand_efficiency>  (1) 
-0.84689228702094121

>  <r_i_glide_ligand_efficiency_ln>  (1) 
-1.8201259020107075

>  <r_i_glide_ligand_efficiency_sa>  (1) 
-1.5389054146564594

>  <r_i_glide_lipo>  (1) 
-0.90272392592862105

>  <r_i_glide_metal>  (1) 
-0

>  <r_i_glide_rewards>  (1) 
-2.7000000000000002

>  <r_lp_Energy>  (1) 
3.204942

>  <r_lp_tautomer_probability>  (1) 
1

>  <s_epik_cmdline>  (1) 
J2VwaWtfcHl0aG9uJywgJy1waHQnLCAnMS4wJywgJy1waCcsICc3LjQnLCAnLXRuJywgJzgnLCAnLW1hJywgJzUwMCcsICctaW1hZScsICc8aW5maWxlLm1hZT4nLCAnLW9tYWUnLCAnPG91dGZpbGUubWFlPic=

>  <s_epik_input>  (1) 
Tz1DMVtDSDJdW0NIXT1bQ0hdW05IXTE=

>  <s_glide_docking_method>  (1) 
confgen

>  <s_i_glide_gridfile>  (1) 
gpcr_5ht2c_6bqh_protein_autoprepared_prepared

>  <s_lp_Force_Field>  (1) 
S-OPLS

>  <s_lp_Variant>  (1) 
Pocket2Mol_11-1

>  <s_m_source_file>  (1) 
generated_GPCR_5HT2C_ligand_Pocket2Mol_2026-06-23_prepared.sdf

>  <GenAI_Model>  (1) 
Pocket2Mol

>  <Protein>  (1) 
GPCR_5HT2C

$$$$
Pocket2Mol_14
     RDKit          3D

  0  0  0  0  0  0  0  0  0  0999 V3000
M  V30 BEGIN CTAB
M  V30 COUNTS 18 18 0 0 1
M  V30 BEGIN ATOM
M  V30 1 C 38.845042 29.333196 53.233559 0
M  V30 2 C 39.657790 30.598767 52.941515 0
M  V30 3 C 38.927541 28.456207 51.974343 0
M  V30 4 C 40.045182 30.536011 51.457043 0
M  V30 5 C 40.045221 29.051487 51.115456 0
M  V30 6 C 39.144980 26.976092 52.285182 0
M  V30 7 H 37.806565 29.576478 53.460905 0
M  V30 8 H 39.248539 28.823527 54.109236 0
M  V30 9 H 39.109033 31.510084 53.181542 0
M  V30 10 H 40.556051 30.600305 53.558749 0
M  V30 11 H 37.992661 28.563612 51.422697 0
M  V30 12 H 39.313405 31.052402 50.835485 0
M  V30 13 H 41.011855 30.999794 51.262025 0
M  V30 14 H 41.007699 28.617214 51.388062 0
M  V30 15 H 39.892577 28.870116 50.050624 0
M  V30 16 H 40.045302 26.813363 52.877344 0
M  V30 17 H 39.245138 26.410166 51.359779 0
M  V30 18 H 38.300504 26.565911 52.840098 0
M  V30 END ATOM
M  V30 BEGIN BOND
M  V30 1 1 2 1
M  V30 2 1 3 1
M  V30 3 1 4 2
M  V30 4 1 5 3
M  V30 5 1 5 4
M  V30 6 1 6 3
M  V30 7 1 7 1
M  V30 8 1 8 1
M  V30 9 1 9 2
M  V30 10 1 10 2
M  V30 11 1 11 3
M  V30 12 1 12 4
M  V30 13 1 13 4
M  V30 14 1 14 5
M  V30 15 1 15 5
M  V30 16 1 16 6
M  V30 17 1 17 6
M  V30 18 1 18 6
M  V30 END BOND
M  V30 END CTAB
M  END
>  <i_epik_Tot_Q>  (1) 
0

>  <i_epik_Tot_abs_Q>  (1) 
0

>  <i_i_glide_confnum>  (1) 
2

>  <i_i_glide_lignum>  (1) 
15

>  <i_i_glide_posenum>  (1) 
188

>  <i_i_glide_rotatable_bonds>  (1) 
0

>  <i_lp_mmshare_version>  (1) 
72125

>  <i_m_source_file_index>  (1) 
15

>  <i_f3d_flags>  (1) 
0

>  <num_sample>  (1) 
50

>  <b_lp_Chiralities_Consistent>  (1) 
1

>  <r_epik_Charging_Adjusted_Penalty>  (1) 
0

>  <r_epik_Ionization_Penalty>  (1) 
0

>  <r_epik_Ionization_Penalty_Charging>  (1) 
0

>  <r_epik_Ionization_Penalty_Neutral>  (1) 
0

>  <r_epik_State_Penalty>  (1) 
-0

>  <r_glide_ring_energy>  (1) 
0.2204327727677606

>  <r_i_docking_score>  (1) 
-5.0797288765178834

>  <r_i_glide_ecoul>  (1) 
-0.10997932388788204

>  <r_i_glide_eff_state_penalty>  (1) 
-0

>  <r_i_glide_einternal>  (1) 
0

>  <r_i_glide_emodel>  (1) 
-19.318809794624315

>  <r_i_glide_emodel_strain>  (1) 
0.080180125425961535

>  <r_i_glide_energy>  (1) 
-14.415608614014149

>  <r_i_glide_erotb>  (1) 
0

>  <r_i_glide_esite>  (1) 
0

>  <r_i_glide_evdw>  (1) 
-14.305629290126266

>  <r_i_glide_gscore>  (1) 
-5.0797288765178834

>  <r_i_glide_gscore_strain>  (1) 
0

>  <r_i_glide_hbond>  (1) 
0

>  <r_i_glide_ligand_efficiency>  (1) 
-0.84662147941964727

>  <r_i_glide_ligand_efficiency_ln>  (1) 
-1.819543887110902

>  <r_i_glide_ligand_efficiency_sa>  (1) 
-1.5384133245874527

>  <r_i_glide_lipo>  (1) 
-1.7749102111374813

>  <r_i_glide_metal>  (1) 
-0

>  <r_i_glide_rewards>  (1) 
-2.5730403022909059

>  <r_lp_Energy>  (1) 
6.4120089999999994

>  <r_lp_tautomer_probability>  (1) 
1

>  <s_epik_cmdline>  (1) 
J2VwaWtfcHl0aG9uJywgJy1waHQnLCAnMS4wJywgJy1waCcsICc3LjQnLCAnLXRuJywgJzgnLCAnLW1hJywgJzUwMCcsICctaW1hZScsICc8aW5maWxlLm1hZT4nLCAnLW9tYWUnLCAnPG91dGZpbGUubWFlPic=

>  <s_epik_input>  (1) 
W0NIM11bQ0hdMVtDSDJdW0NIMl1bQ0gyXVtDSDJdMQ==

>  <s_glide_docking_method>  (1) 
confgen

>  <s_i_glide_gridfile>  (1) 
gpcr_5ht2c_6bqh_protein_autoprepared_prepared

>  <s_lp_Force_Field>  (1) 
S-OPLS

>  <s_lp_Variant>  (1) 
Pocket2Mol_14-1

>  <s_m_source_file>  (1) 
generated_GPCR_5HT2C_ligand_Pocket2Mol_2026-06-23_prepared.sdf

>  <GenAI_Model>  (1) 
Pocket2Mol

>  <Protein>  (1) 
GPCR_5HT2C

$$$$
Pocket2Mol_22
     RDKit          3D

  0  0  0  0  0  0  0  0  0  0999 V3000
M  V30 BEGIN CTAB
M  V30 COUNTS 11 11 0 0 1
M  V30 BEGIN ATOM
M  V30 1 C 40.045145 29.338934 50.259839 0
M  V30 2 C 40.128897 30.273814 51.339120 0
M  V30 3 C 39.645133 29.735989 52.494915 0
M  V30 4 C 39.548369 30.360656 53.845419 0
M  V30 5 N 39.538845 28.159814 50.567692 0
M  V30 6 S 39.104533 28.123867 52.188654 0
M  V30 7 H 40.360038 29.516041 49.242282 0
M  V30 8 H 40.528072 31.272049 51.226728 0
M  V30 9 H 40.029814 31.338381 53.860598 0
M  V30 10 H 38.506649 30.497709 54.136219 0
M  V30 11 H 40.030374 29.735687 54.597156 0
M  V30 END ATOM
M  V30 BEGIN BOND
M  V30 1 1 2 1
M  V30 2 2 3 2
M  V30 3 1 4 3
M  V30 4 2 5 1
M  V30 5 1 6 3
M  V30 6 1 6 5
M  V30 7 1 7 1
M  V30 8 1 8 2
M  V30 9 1 9 4
M  V30 10 1 10 4
M  V30 11 1 11 4
M  V30 END BOND
M  V30 END CTAB
M  END
>  <i_epik_Tot_Q>  (1) 
0

>  <i_epik_Tot_abs_Q>  (1) 
0

>  <i_i_glide_confnum>  (1) 
1

>  <i_i_glide_lignum>  (1) 
23

>  <i_i_glide_posenum>  (1) 
269

>  <i_i_glide_rotatable_bonds>  (1) 
0

>  <i_lp_mmshare_version>  (1) 
72125

>  <i_m_source_file_index>  (1) 
23

>  <i_f3d_flags>  (1) 
0

>  <num_sample>  (1) 
50

>  <b_lp_Chiralities_Consistent>  (1) 
1

>  <r_epik_Charging_Adjusted_Penalty>  (1) 
0

>  <r_epik_Ionization_Penalty>  (1) 
2.7081824038816109e-08

>  <r_epik_Ionization_Penalty_Charging>  (1) 
0

>  <r_epik_Ionization_Penalty_Neutral>  (1) 
2.7081824038816109e-08

>  <r_epik_State_Penalty>  (1) 
-0

>  <r_glide_ring_energy>  (1) 
0

>  <r_i_docking_score>  (1) 
-5.0779980479200768

>  <r_i_glide_ecoul>  (1) 
-0.20198545234327325

>  <r_i_glide_eff_state_penalty>  (1) 
-0

>  <r_i_glide_einternal>  (1) 
0

>  <r_i_glide_emodel>  (1) 
-23.208897867064508

>  <r_i_glide_emodel_strain>  (1) 
0

>  <r_i_glide_energy>  (1) 
-17.53729068463598

>  <r_i_glide_erotb>  (1) 
0

>  <r_i_glide_esite>  (1) 
0

>  <r_i_glide_evdw>  (1) 
-17.335305232292708

>  <r_i_glide_gscore>  (1) 
-5.0779980479200768

>  <r_i_glide_gscore_strain>  (1) 
0

>  <r_i_glide_hbond>  (1) 
0

>  <r_i_glide_ligand_efficiency>  (1) 
-0.84633300798667943

>  <r_i_glide_ligand_efficiency_ln>  (1) 
-1.8189239094169478

>  <r_i_glide_ligand_efficiency_sa>  (1) 
-1.5378891372061632

>  <r_i_glide_lipo>  (1) 
-1.5948036681241491

>  <r_i_glide_metal>  (1) 
-0

>  <r_i_glide_rewards>  (1) 
-2.586131300329801

>  <r_lp_Energy>  (1) 
1.924183

>  <r_lp_tautomer_probability>  (1) 
1

>  <s_epik_cmdline>  (1) 
J2VwaWtfcHl0aG9uJywgJy1waHQnLCAnMS4wJywgJy1waCcsICc3LjQnLCAnLXRuJywgJzgnLCAnLW1hJywgJzUwMCcsICctaW1hZScsICc8aW5maWxlLm1hZT4nLCAnLW9tYWUnLCAnPG91dGZpbGUubWFlPic=

>  <s_epik_input>  (1) 
czFuW2NIXVtjSF1jMVtDSDNd

>  <s_glide_docking_method>  (1) 
confgen

>  <s_i_glide_gridfile>  (1) 
gpcr_5ht2c_6bqh_protein_autoprepared_prepared

>  <s_lp_Force_Field>  (1) 
S-OPLS

>  <s_lp_Variant>  (1) 
Pocket2Mol_22-1

>  <s_m_source_file>  (1) 
generated_GPCR_5HT2C_ligand_Pocket2Mol_2026-06-23_prepared.sdf

>  <GenAI_Model>  (1) 
Pocket2Mol

>  <Protein>  (1) 
GPCR_5HT2C

$$$$
Pocket2Mol_37
     RDKit          3D

  0  0  0  0  0  0  0  0  0  0999 V3000
M  V30 BEGIN CTAB
M  V30 COUNTS 15 15 0 0 1
M  V30 BEGIN ATOM
M  V30 1 C 40.170308 29.044065 51.326092 0
M  V30 2 C 39.229249 27.832613 51.285925 0
M  V30 3 O 39.645237 30.137850 52.062261 0
M  V30 4 C 39.244288 29.860546 53.367560 0
M  V30 5 O 39.245176 27.233326 52.568594 0
M  V30 6 O 38.073594 29.105939 53.391594 0
M  V30 7 C 38.282413 27.725992 53.447438 0
M  V30 8 H 41.140820 28.757458 51.729259 0
M  V30 9 H 40.351198 29.393929 50.309524 0
M  V30 10 H 39.612800 27.103028 50.572181 0
M  V30 11 H 38.221182 28.098018 50.963349 0
M  V30 12 H 38.995993 30.823927 53.814040 0
M  V30 13 H 40.045128 29.427969 53.968175 0
M  V30 14 H 38.570777 27.444867 54.461045 0
M  V30 15 H 37.330623 27.241200 53.224477 0
M  V30 END ATOM
M  V30 BEGIN BOND
M  V30 1 1 2 1
M  V30 2 1 3 1
M  V30 3 1 4 3
M  V30 4 1 5 2
M  V30 5 1 6 4
M  V30 6 1 7 5
M  V30 7 1 7 6
M  V30 8 1 8 1
M  V30 9 1 9 1
M  V30 10 1 10 2
M  V30 11 1 11 2
M  V30 12 1 12 4
M  V30 13 1 13 4
M  V30 14 1 14 7
M  V30 15 1 15 7
M  V30 END BOND
M  V30 END CTAB
M  END
>  <i_epik_Tot_Q>  (1) 
0

>  <i_epik_Tot_abs_Q>  (1) 
0

>  <i_i_glide_confnum>  (1) 
6

>  <i_i_glide_lignum>  (1) 
38

>  <i_i_glide_posenum>  (1) 
389

>  <i_i_glide_rotatable_bonds>  (1) 
0

>  <i_lp_mmshare_version>  (1) 
72125

>  <i_m_source_file_index>  (1) 
38

>  <i_f3d_flags>  (1) 
0

>  <num_sample>  (1) 
50

>  <b_lp_Chiralities_Consistent>  (1) 
1

>  <r_epik_Charging_Adjusted_Penalty>  (1) 
0

>  <r_epik_Ionization_Penalty>  (1) 
4.6834743432320728e-14

>  <r_epik_Ionization_Penalty_Charging>  (1) 
0

>  <r_epik_Ionization_Penalty_Neutral>  (1) 
4.6834743432320728e-14

>  <r_epik_State_Penalty>  (1) 
-0

>  <r_glide_ring_energy>  (1) 
0.00047957236178236941

>  <r_i_docking_score>  (1) 
-5.0777627443014746

>  <r_i_glide_ecoul>  (1) 
-0.85231104824091031

>  <r_i_glide_eff_state_penalty>  (1) 
-0

>  <r_i_glide_einternal>  (1) 
0

>  <r_i_glide_emodel>  (1) 
-22.304692485501235

>  <r_i_glide_emodel_strain>  (1) 
0

>  <r_i_glide_energy>  (1) 
-16.624740122327704

>  <r_i_glide_erotb>  (1) 
0

>  <r_i_glide_esite>  (1) 
0

>  <r_i_glide_evdw>  (1) 
-15.772429074086793

>  <r_i_glide_gscore>  (1) 
-5.0777627443014746

>  <r_i_glide_gscore_strain>  (1) 
0

>  <r_i_glide_hbond>  (1) 
0

>  <r_i_glide_ligand_efficiency>  (1) 
-0.72539467775735356

>  <r_i_glide_ligand_efficiency_ln>  (1) 
-1.7236651789701725

>  <r_i_glide_ligand_efficiency_sa>  (1) 
-1.3876300988991703

>  <r_i_glide_lipo>  (1) 
-0.66000000000000003

>  <r_i_glide_metal>  (1) 
-0

>  <r_i_glide_rewards>  (1) 
-3.501294633360998

>  <r_lp_Energy>  (1) 
1.238378

>  <r_lp_tautomer_probability>  (1) 
1

>  <s_epik_Chemistry_Notes>  (1) 
This compound contains an acetal/aminal-like group ( X-CH(R)-Y where X, Y are N, S, or O) that may be acid/base labile, releasing an aldehyde.

>  <s_epik_cmdline>  (1) 
J2VwaWtfcHl0aG9uJywgJy1waHQnLCAnMS4wJywgJy1waCcsICc3LjQnLCAnLXRuJywgJzgnLCAnLW1hJywgJzUwMCcsICctaW1hZScsICc8aW5maWxlLm1hZT4nLCAnLW9tYWUnLCAnPG91dGZpbGUubWFlPic=

>  <s_epik_input>  (1) 
W0NIMl0xW0NIMl1PW0NIMl1PW0NIMl1PMQ==

>  <s_glide_docking_method>  (1) 
confgen

>  <s_i_glide_gridfile>  (1) 
gpcr_5ht2c_6bqh_protein_autoprepared_prepared

>  <s_lp_Force_Field>  (1) 
S-OPLS

>  <s_lp_Variant>  (1) 
Pocket2Mol_37-1

>  <s_m_source_file>  (1) 
generated_GPCR_5HT2C_ligand_Pocket2Mol_2026-06-23_prepared.sdf

>  <GenAI_Model>  (1) 
Pocket2Mol

>  <Protein>  (1) 
GPCR_5HT2C

$$$$
Pocket2Mol_43
     RDKit          3D

  0  0  0  0  0  0  0  0  0  0999 V3000
M  V30 BEGIN CTAB
M  V30 COUNTS 15 15 0 0 1
M  V30 BEGIN ATOM
M  V30 1 C 40.045137 30.268150 51.750433 0
M  V30 2 O 39.528372 29.954141 53.042716 0
M  V30 3 C 38.636087 28.942867 53.280838 0
M  V30 4 O 37.801632 28.949335 54.182101 0
M  V30 5 C 38.777699 27.744802 52.325473 0
M  V30 6 C 40.445125 29.034582 50.964554 0
M  V30 7 C 39.257131 28.084809 50.912580 0
M  V30 8 H 39.282122 30.803245 51.187828 0
M  V30 9 H 40.879440 30.958026 51.846471 0
M  V30 10 H 39.472855 27.043797 52.788529 0
M  V30 11 H 37.816417 27.233482 52.267978 0
M  V30 12 H 40.742592 29.337676 49.959030 0
M  V30 13 H 41.301947 28.546279 51.425210 0
M  V30 14 H 39.531927 27.168100 50.389647 0
M  V30 15 H 38.446694 28.538348 50.342659 0
M  V30 END ATOM
M  V30 BEGIN BOND
M  V30 1 1 2 1
M  V30 2 1 3 2
M  V30 3 2 4 3
M  V30 4 1 5 3
M  V30 5 1 6 1
M  V30 6 1 7 5
M  V30 7 1 7 6
M  V30 8 1 8 1
M  V30 9 1 9 1
M  V30 10 1 10 5
M  V30 11 1 11 5
M  V30 12 1 12 6
M  V30 13 1 13 6
M  V30 14 1 14 7
M  V30 15 1 15 7
M  V30 END BOND
M  V30 END CTAB
M  END
>  <i_epik_Tot_Q>  (1) 
0

>  <i_epik_Tot_abs_Q>  (1) 
0

>  <i_i_glide_confnum>  (1) 
1

>  <i_i_glide_lignum>  (1) 
44

>  <i_i_glide_posenum>  (1) 
362

>  <i_i_glide_rotatable_bonds>  (1) 
0

>  <i_lp_mmshare_version>  (1) 
72125

>  <i_m_source_file_index>  (1) 
44

>  <i_f3d_flags>  (1) 
0

>  <num_sample>  (1) 
50

>  <b_lp_Chiralities_Consistent>  (1) 
1

>  <r_epik_Charging_Adjusted_Penalty>  (1) 
0

>  <r_epik_Ionization_Penalty>  (1) 
4.2138389519661579e-10

>  <r_epik_Ionization_Penalty_Charging>  (1) 
0

>  <r_epik_Ionization_Penalty_Neutral>  (1) 
4.2138389519661579e-10

>  <r_epik_State_Penalty>  (1) 
-0

>  <r_glide_ring_energy>  (1) 
0

>  <r_i_docking_score>  (1) 
-5.071432763300435

>  <r_i_glide_ecoul>  (1) 
-0.48447697369960502

>  <r_i_glide_eff_state_penalty>  (1) 
-0

>  <r_i_glide_einternal>  (1) 
0

>  <r_i_glide_emodel>  (1) 
-22.256553950050378

>  <r_i_glide_emodel_strain>  (1) 
0

>  <r_i_glide_energy>  (1) 
-16.54443806360381

>  <r_i_glide_erotb>  (1) 
0

>  <r_i_glide_esite>  (1) 
0

>  <r_i_glide_evdw>  (1) 
-16.059961089904206

>  <r_i_glide_gscore>  (1) 
-5.071432763300435

>  <r_i_glide_gscore_strain>  (1) 
0

>  <r_i_glide_hbond>  (1) 
0

>  <r_i_glide_ligand_efficiency>  (1) 
-0.724490394757205

>  <r_i_glide_ligand_efficiency_ln>  (1) 
-1.7215164437132369

>  <r_i_glide_ligand_efficiency_sa>  (1) 
-1.3859002677501353

>  <r_i_glide_lipo>  (1) 
-1.2466358530478947

>  <r_i_glide_metal>  (1) 
-0

>  <r_i_glide_rewards>  (1) 
-2.9491273097023898

>  <r_lp_Energy>  (1) 
8.5246700000000004

>  <r_lp_tautomer_probability>  (1) 
1

>  <s_epik_Chemistry_Notes>  (1) 
This compound has an ester and may undergo hydrolysis at high or low pH.

>  <s_epik_cmdline>  (1) 
J2VwaWtfcHl0aG9uJywgJy1waHQnLCAnMS4wJywgJy1waCcsICc3LjQnLCAnLXRuJywgJzgnLCAnLW1hJywgJzUwMCcsICctaW1hZScsICc8aW5maWxlLm1hZT4nLCAnLW9tYWUnLCAnPG91dGZpbGUubWFlPic=

>  <s_epik_input>  (1) 
W0NIMl0xW0NIMl1bQ0gyXVtDSDJdT0MxPU8=

>  <s_glide_docking_method>  (1) 
confgen

>  <s_i_glide_gridfile>  (1) 
gpcr_5ht2c_6bqh_protein_autoprepared_prepared

>  <s_lp_Force_Field>  (1) 
S-OPLS

>  <s_lp_Variant>  (1) 
Pocket2Mol_43-1

>  <s_m_source_file>  (1) 
generated_GPCR_5HT2C_ligand_Pocket2Mol_2026-06-23_prepared.sdf

>  <GenAI_Model>  (1) 
Pocket2Mol

>  <Protein>  (1) 
GPCR_5HT2C

$$$$
Pocket2Mol_35
     RDKit          3D

  0  0  0  0  0  0  0  0  0  0999 V3000
M  V30 BEGIN CTAB
M  V30 COUNTS 11 11 0 0 1
M  V30 BEGIN ATOM
M  V30 1 C 39.245135 27.922243 50.994751 0
M  V30 2 O 38.710446 27.897757 52.262186 0
M  V30 3 C 38.845138 28.956718 53.180879 0
M  V30 4 O 38.356989 28.932400 54.307734 0
M  V30 5 C 39.645138 30.119453 52.647192 0
M  V30 6 C 39.937716 28.966528 50.554067 0
M  V30 7 C 40.143083 30.090083 51.399149 0
M  V30 8 H 39.035673 27.024466 50.430815 0
M  V30 9 H 39.802686 30.974702 53.288055 0
M  V30 10 H 40.343889 28.961867 49.553626 0
M  V30 11 H 40.710302 30.934396 51.033041 0
M  V30 END ATOM
M  V30 BEGIN BOND
M  V30 1 1 2 1
M  V30 2 1 3 2
M  V30 3 2 4 3
M  V30 4 1 5 3
M  V30 5 2 6 1
M  V30 6 2 7 5
M  V30 7 1 7 6
M  V30 8 1 8 1
M  V30 9 1 9 5
M  V30 10 1 10 6
M  V30 11 1 11 7
M  V30 END BOND
M  V30 END CTAB
M  END
>  <i_epik_Tot_Q>  (1) 
0

>  <i_epik_Tot_abs_Q>  (1) 
0

>  <i_i_glide_confnum>  (1) 
1

>  <i_i_glide_lignum>  (1) 
36

>  <i_i_glide_posenum>  (1) 
211

>  <i_i_glide_rotatable_bonds>  (1) 
0

>  <i_lp_mmshare_version>  (1) 
72125

>  <i_m_source_file_index>  (1) 
36

>  <i_f3d_flags>  (1) 
0

>  <num_sample>  (1) 
50

>  <b_lp_Chiralities_Consistent>  (1) 
1

>  <r_epik_Charging_Adjusted_Penalty>  (1) 
0

>  <r_epik_Ionization_Penalty>  (1) 
2.4984917370333966e-09

>  <r_epik_Ionization_Penalty_Charging>  (1) 
0

>  <r_epik_Ionization_Penalty_Neutral>  (1) 
2.4984917370333966e-09

>  <r_epik_State_Penalty>  (1) 
-0

>  <r_glide_ring_energy>  (1) 
0

>  <r_i_docking_score>  (1) 
-5.0701241141476334

>  <r_i_glide_ecoul>  (1) 
-0.33304701293549371

>  <r_i_glide_eff_state_penalty>  (1) 
-0

>  <r_i_glide_einternal>  (1) 
0

>  <r_i_glide_emodel>  (1) 
-22.317149697904277

>  <r_i_glide_emodel_strain>  (1) 
0

>  <r_i_glide_energy>  (1) 
-16.953524884855373

>  <r_i_glide_erotb>  (1) 
0

>  <r_i_glide_esite>  (1) 
0

>  <r_i_glide_evdw>  (1) 
-16.620477871919878

>  <r_i_glide_gscore>  (1) 
-5.0701241141476334

>  <r_i_glide_gscore_strain>  (1) 
0

>  <r_i_glide_hbond>  (1) 
0

>  <r_i_glide_ligand_efficiency>  (1) 
-0.72430344487823339

>  <r_i_glide_ligand_efficiency_ln>  (1) 
-1.7210722179607234

>  <r_i_glide_ligand_efficiency_sa>  (1) 
-1.385542645497035

>  <r_i_glide_lipo>  (1) 
-1.5965066484486858

>  <r_i_glide_metal>  (1) 
-0

>  <r_i_glide_rewards>  (1) 
-2.5926365201626305

>  <r_lp_Energy>  (1) 
11.255118999999999

>  <r_lp_tautomer_probability>  (1) 
1

>  <s_epik_cmdline>  (1) 
J2VwaWtfcHl0aG9uJywgJy1waHQnLCAnMS4wJywgJy1waCcsICc3LjQnLCAnLXRuJywgJzgnLCAnLW1hJywgJzUwMCcsICctaW1hZScsICc8aW5maWxlLm1hZT4nLCAnLW9tYWUnLCAnPG91dGZpbGUubWFlPic=

>  <s_epik_input>  (1) 
W2NIXTFbY0hdW2NIXVtjSF1vYzE9Tw==

>  <s_glide_docking_method>  (1) 
confgen

>  <s_i_glide_gridfile>  (1) 
gpcr_5ht2c_6bqh_protein_autoprepared_prepared

>  <s_lp_Force_Field>  (1) 
S-OPLS

>  <s_lp_Variant>  (1) 
Pocket2Mol_35-1

>  <s_m_source_file>  (1) 
generated_GPCR_5HT2C_ligand_Pocket2Mol_2026-06-23_prepared.sdf

>  <GenAI_Model>  (1) 
Pocket2Mol

>  <Protein>  (1) 
GPCR_5HT2C

$$$$
Pocket2Mol_37
     RDKit          3D

  0  0  0  0  0  0  0  0  0  0999 V3000
M  V30 BEGIN CTAB
M  V30 COUNTS 15 15 0 0 1
M  V30 BEGIN ATOM
M  V30 1 C 38.529482 27.842879 52.736864 0
M  V30 2 C 39.245135 27.714804 51.389479 0
M  V30 3 O 38.176637 29.193780 53.001279 0
M  V30 4 C 39.244881 29.969757 53.456153 0
M  V30 5 O 40.399352 28.537781 51.334338 0
M  V30 6 O 40.045152 30.551281 52.467690 0
M  V30 7 C 40.093607 29.891436 51.240614 0
M  V30 8 H 37.611318 27.256046 52.702568 0
M  V30 9 H 39.130924 27.420670 53.543794 0
M  V30 10 H 38.565417 27.940430 50.567809 0
M  V30 11 H 39.559674 26.680131 51.249868 0
M  V30 12 H 39.869477 29.414417 54.156133 0
M  V30 13 H 38.818082 30.799170 54.021799 0
M  V30 14 H 39.184713 30.073970 50.665798 0
M  V30 15 H 40.906216 30.357295 50.683568 0
M  V30 END ATOM
M  V30 BEGIN BOND
M  V30 1 1 2 1
M  V30 2 1 3 1
M  V30 3 1 4 3
M  V30 4 1 5 2
M  V30 5 1 6 4
M  V30 6 1 7 5
M  V30 7 1 7 6
M  V30 8 1 8 1
M  V30 9 1 9 1
M  V30 10 1 10 2
M  V30 11 1 11 2
M  V30 12 1 12 4
M  V30 13 1 13 4
M  V30 14 1 14 7
M  V30 15 1 15 7
M  V30 END BOND
M  V30 END CTAB
M  END
>  <i_epik_Tot_Q>  (1) 
0

>  <i_epik_Tot_abs_Q>  (1) 
0

>  <i_i_glide_confnum>  (1) 
8

>  <i_i_glide_lignum>  (1) 
38

>  <i_i_glide_posenum>  (1) 
367

>  <i_i_glide_rotatable_bonds>  (1) 
0

>  <i_lp_mmshare_version>  (1) 
72125

>  <i_m_source_file_index>  (1) 
38

>  <i_f3d_flags>  (1) 
0

>  <num_sample>  (1) 
50

>  <b_lp_Chiralities_Consistent>  (1) 
1

>  <r_epik_Charging_Adjusted_Penalty>  (1) 
0

>  <r_epik_Ionization_Penalty>  (1) 
4.6834743432320728e-14

>  <r_epik_Ionization_Penalty_Charging>  (1) 
0

>  <r_epik_Ionization_Penalty_Neutral>  (1) 
4.6834743432320728e-14

>  <r_epik_State_Penalty>  (1) 
-0

>  <r_glide_ring_energy>  (1) 
0.00055159938950669681

>  <r_i_docking_score>  (1) 
-5.0686138544473973

>  <r_i_glide_ecoul>  (1) 
-1.2825201625764553

>  <r_i_glide_eff_state_penalty>  (1) 
-0

>  <r_i_glide_einternal>  (1) 
0

>  <r_i_glide_emodel>  (1) 
-23.473034553455932

>  <r_i_glide_emodel_strain>  (1) 
0

>  <r_i_glide_energy>  (1) 
-17.803316078938465

>  <r_i_glide_erotb>  (1) 
0

>  <r_i_glide_esite>  (1) 
0

>  <r_i_glide_evdw>  (1) 
-16.520795916362008

>  <r_i_glide_gscore>  (1) 
-5.0686138544473973

>  <r_i_glide_gscore_strain>  (1) 
0

>  <r_i_glide_hbond>  (1) 
0

>  <r_i_glide_ligand_efficiency>  (1) 
-0.72408769349248536

>  <r_i_glide_ligand_efficiency_ln>  (1) 
-1.7205595547687653

>  <r_i_glide_ligand_efficiency_sa>  (1) 
-1.3851299279435112

>  <r_i_glide_lipo>  (1) 
-0.66000000000000003

>  <r_i_glide_metal>  (1) 
-0

>  <r_i_glide_rewards>  (1) 
-3.3901960342428286

>  <r_lp_Energy>  (1) 
1.238378

>  <r_lp_tautomer_probability>  (1) 
1

>  <s_epik_Chemistry_Notes>  (1) 
This compound contains an acetal/aminal-like group ( X-CH(R)-Y where X, Y are N, S, or O) that may be acid/base labile, releasing an aldehyde.

>  <s_epik_cmdline>  (1) 
J2VwaWtfcHl0aG9uJywgJy1waHQnLCAnMS4wJywgJy1waCcsICc3LjQnLCAnLXRuJywgJzgnLCAnLW1hJywgJzUwMCcsICctaW1hZScsICc8aW5maWxlLm1hZT4nLCAnLW9tYWUnLCAnPG91dGZpbGUubWFlPic=

>  <s_epik_input>  (1) 
W0NIMl0xW0NIMl1PW0NIMl1PW0NIMl1PMQ==

>  <s_glide_docking_method>  (1) 
confgen

>  <s_i_glide_gridfile>  (1) 
gpcr_5ht2c_6bqh_protein_autoprepared_prepared

>  <s_lp_Force_Field>  (1) 
S-OPLS

>  <s_lp_Variant>  (1) 
Pocket2Mol_37-1

>  <s_m_source_file>  (1) 
generated_GPCR_5HT2C_ligand_Pocket2Mol_2026-06-23_prepared.sdf

>  <GenAI_Model>  (1) 
Pocket2Mol

>  <Protein>  (1) 
GPCR_5HT2C

$$$$
Pocket2Mol_38
     RDKit          3D

  0  0  0  0  0  0  0  0  0  0999 V3000
M  V30 BEGIN CTAB
M  V30 COUNTS 12 12 0 0 1
M  V30 BEGIN ATOM
M  V30 1 C 39.645138 28.594655 50.928596 0
M  V30 2 C 39.904641 29.687732 51.767683 0
M  V30 3 C 39.245138 29.494574 52.841081 0
M  V30 4 C 39.181382 30.384200 54.068158 0
M  V30 5 N 38.845137 27.687804 51.408133 0
M  V30 6 C 38.531495 28.247904 52.710273 0
M  V30 7 O 37.788600 27.753200 53.556642 0
M  V30 8 H 40.114027 28.561189 49.942181 0
M  V30 9 H 40.552267 30.507366 51.492621 0
M  V30 10 H 38.524848 29.972361 54.835527 0
M  V30 11 H 40.176092 30.503683 54.498674 0
M  V30 12 H 38.806305 31.371748 53.796764 0
M  V30 END ATOM
M  V30 BEGIN BOND
M  V30 1 1 2 1
M  V30 2 2 3 2
M  V30 3 1 4 3
M  V30 4 2 5 1
M  V30 5 1 6 3
M  V30 6 1 6 5
M  V30 7 2 7 6
M  V30 8 1 8 1
M  V30 9 1 9 2
M  V30 10 1 10 4
M  V30 11 1 11 4
M  V30 12 1 12 4
M  V30 END BOND
M  V30 END CTAB
M  END
>  <i_epik_Tot_Q>  (1) 
0

>  <i_epik_Tot_abs_Q>  (1) 
0

>  <i_i_glide_confnum>  (1) 
1

>  <i_i_glide_lignum>  (1) 
39

>  <i_i_glide_posenum>  (1) 
58

>  <i_i_glide_rotatable_bonds>  (1) 
0

>  <i_lp_mmshare_version>  (1) 
72125

>  <i_m_source_file_index>  (1) 
39

>  <i_f3d_flags>  (1) 
0

>  <num_sample>  (1) 
50

>  <b_lp_Chiralities_Consistent>  (1) 
1

>  <r_epik_Charging_Adjusted_Penalty>  (1) 
0

>  <r_epik_Ionization_Penalty>  (1) 
0

>  <r_epik_Ionization_Penalty_Charging>  (1) 
0

>  <r_epik_Ionization_Penalty_Neutral>  (1) 
0

>  <r_epik_State_Penalty>  (1) 
-0

>  <r_glide_ring_energy>  (1) 
0

>  <r_i_docking_score>  (1) 
-5.0573032980688728

>  <r_i_glide_ecoul>  (1) 
0.45446198646910252

>  <r_i_glide_eff_state_penalty>  (1) 
-0

>  <r_i_glide_einternal>  (1) 
0

>  <r_i_glide_emodel>  (1) 
-23.564409966173258

>  <r_i_glide_emodel_strain>  (1) 
0.95286593161423383

>  <r_i_glide_energy>  (1) 
-18.589484451329842

>  <r_i_glide_erotb>  (1) 
0

>  <r_i_glide_esite>  (1) 
0

>  <r_i_glide_evdw>  (1) 
-19.043946437798944

>  <r_i_glide_gscore>  (1) 
-5.0573032980688728

>  <r_i_glide_gscore_strain>  (1) 
0

>  <r_i_glide_hbond>  (1) 
0

>  <r_i_glide_ligand_efficiency>  (1) 
-0.72247189972412473

>  <r_i_glide_ligand_efficiency_ln>  (1) 
-1.7167201449408209

>  <r_i_glide_ligand_efficiency_sa>  (1) 
-1.3820390256590849

>  <r_i_glide_lipo>  (1) 
-0.83370989374280247

>  <r_i_glide_metal>  (1) 
-0

>  <r_i_glide_rewards>  (1) 
-3.3395653804064884

>  <r_lp_Energy>  (1) 
0.58044799999999996

>  <r_lp_tautomer_probability>  (1) 
1

>  <s_epik_Chemistry_Notes>  (1) 
This compound has an imine and may undergo hydrolysis.

>  <s_epik_cmdline>  (1) 
J2VwaWtfcHl0aG9uJywgJy1waHQnLCAnMS4wJywgJy1waCcsICc3LjQnLCAnLXRuJywgJzgnLCAnLW1hJywgJzUwMCcsICctaW1hZScsICc8aW5maWxlLm1hZT4nLCAnLW9tYWUnLCAnPG91dGZpbGUubWFlPic=

>  <s_epik_input>  (1) 
Tz1DMU49W0NIXVtDSF09QzFbQ0gzXQ==

>  <s_glide_docking_method>  (1) 
confgen

>  <s_i_glide_gridfile>  (1) 
gpcr_5ht2c_6bqh_protein_autoprepared_prepared

>  <s_lp_Force_Field>  (1) 
S-OPLS

>  <s_lp_Variant>  (1) 
Pocket2Mol_38-1

>  <s_m_source_file>  (1) 
generated_GPCR_5HT2C_ligand_Pocket2Mol_2026-06-23_prepared.sdf

>  <GenAI_Model>  (1) 
Pocket2Mol

>  <Protein>  (1) 
GPCR_5HT2C

$$$$
Pocket2Mol_18
     RDKit          3D

  0  0  0  0  0  0  0  0  0  0999 V3000
M  V30 BEGIN CTAB
M  V30 COUNTS 10 10 0 0 1
M  V30 BEGIN ATOM
M  V30 1 C 39.980069 28.993084 50.967566 0
M  V30 2 C 39.245138 27.765584 50.967758 0
M  V30 3 C 39.645142 29.674267 52.105763 0
M  V30 4 C 38.486004 27.739628 52.105475 0
M  V30 5 N 38.735503 28.903707 52.789823 0
M  V30 6 O 38.160539 29.246887 53.979163 0 CHG=-1
M  V30 7 H 40.674204 29.337763 50.216458 0
M  V30 8 H 39.269712 26.989617 50.216259 0
M  V30 9 H 39.965524 30.631281 52.490809 0
M  V30 10 H 37.793138 27.005444 52.489800 0
M  V30 END ATOM
M  V30 BEGIN BOND
M  V30 1 1 2 1
M  V30 2 2 3 1
M  V30 3 2 4 2
M  V30 4 1 5 3
M  V30 5 1 5 4
M  V30 6 1 6 5
M  V30 7 1 7 1
M  V30 8 1 8 2
M  V30 9 1 9 3
M  V30 10 1 10 4
M  V30 END BOND
M  V30 END CTAB
M  END
>  <i_epik_Tot_Q>  (1) 
-1

>  <i_epik_Tot_abs_Q>  (1) 
1

>  <i_i_glide_confnum>  (1) 
1

>  <i_i_glide_lignum>  (1) 
19

>  <i_i_glide_posenum>  (1) 
260

>  <i_i_glide_rotatable_bonds>  (1) 
0

>  <i_lp_mmshare_version>  (1) 
72125

>  <i_m_source_file_index>  (1) 
19

>  <i_f3d_flags>  (1) 
0

>  <num_sample>  (1) 
50

>  <b_lp_Chiralities_Consistent>  (1) 
1

>  <r_epik_Charging_Adjusted_Penalty>  (1) 
0.038602441834166765

>  <r_epik_Ionization_Penalty>  (1) 
0.019301220976331968

>  <r_epik_Ionization_Penalty_Charging>  (1) 
0.019301220917083386

>  <r_epik_Ionization_Penalty_Neutral>  (1) 
5.9248581604286784e-11

>  <r_epik_State_Penalty>  (1) 
0.019301220917083379

>  <r_glide_ring_energy>  (1) 
0

>  <r_i_docking_score>  (1) 
-5.0499001502556222

>  <r_i_glide_ecoul>  (1) 
-0.78610065970877918

>  <r_i_glide_eff_state_penalty>  (1) 
0.019301220917083379

>  <r_i_glide_einternal>  (1) 
0

>  <r_i_glide_emodel>  (1) 
-19.508851535921018

>  <r_i_glide_emodel_strain>  (1) 
0

>  <r_i_glide_energy>  (1) 
-14.609926844990666

>  <r_i_glide_erotb>  (1) 
0

>  <r_i_glide_esite>  (1) 
0

>  <r_i_glide_evdw>  (1) 
-13.823826185281886

>  <r_i_glide_gscore>  (1) 
-5.0692013711727055

>  <r_i_glide_gscore_strain>  (1) 
0

>  <r_i_glide_hbond>  (1) 
0

>  <r_i_glide_ligand_efficiency>  (1) 
-0.84165002504260367

>  <r_i_glide_ligand_efficiency_ln>  (1) 
-1.8088593254246084

>  <r_i_glide_ligand_efficiency_sa>  (1) 
-1.5293795924626015

>  <r_i_glide_lipo>  (1) 
-1.3200000000000001

>  <r_i_glide_metal>  (1) 
-0

>  <r_i_glide_rewards>  (1) 
-2.9400949629522941

>  <r_lp_Energy>  (1) 
1.8910769999999999

>  <r_lp_tautomer_probability>  (1) 
1

>  <s_epik_cmdline>  (1) 
J2VwaWtfcHl0aG9uJywgJy1waHQnLCAnMS4wJywgJy1waCcsICc3LjQnLCAnLXRuJywgJzgnLCAnLW1hJywgJzUwMCcsICctaW1hZScsICc8aW5maWxlLm1hZT4nLCAnLW9tYWUnLCAnPG91dGZpbGUubWFlPic=

>  <s_epik_input>  (1) 
W2NIXTFbY0hdW2NIXVtjSF1uMVtPSF0=

>  <s_glide_docking_method>  (1) 
confgen

>  <s_i_glide_gridfile>  (1) 
gpcr_5ht2c_6bqh_protein_autoprepared_prepared

>  <s_lp_Force_Field>  (1) 
S-OPLS

>  <s_lp_Variant>  (1) 
Pocket2Mol_18-1

>  <s_m_source_file>  (1) 
generated_GPCR_5HT2C_ligand_Pocket2Mol_2026-06-23_prepared.sdf

>  <GenAI_Model>  (1) 
Pocket2Mol

>  <Protein>  (1) 
GPCR_5HT2C

$$$$
Pocket2Mol_19
     RDKit          3D

  0  0  0  0  0  0  0  0  0  0999 V3000
M  V30 BEGIN CTAB
M  V30 COUNTS 13 13 0 0 1
M  V30 BEGIN ATOM
M  V30 1 C 39.245137 27.806114 50.967768 0
M  V30 2 C 38.511997 27.735192 52.183569 0
M  V30 3 C 39.932279 28.987194 50.967755 0
M  V30 4 C 38.773203 28.872777 52.891965 0
M  V30 5 N 39.645078 29.647882 52.149122 0
M  V30 6 C 40.162917 30.937754 52.541946 0
M  V30 7 H 39.265326 27.071126 50.175713 0
M  V30 8 H 37.860728 26.936070 52.505346 0
M  V30 9 H 40.597770 29.423437 50.237407 0
M  V30 10 H 38.418823 29.208186 53.856207 0
M  V30 11 H 40.845138 31.321473 51.782607 0
M  V30 12 H 39.339906 31.642675 52.661526 0
M  V30 13 H 40.690666 30.853855 53.492193 0
M  V30 END ATOM
M  V30 BEGIN BOND
M  V30 1 1 2 1
M  V30 2 2 3 1
M  V30 3 2 4 2
M  V30 4 1 5 3
M  V30 5 1 5 4
M  V30 6 1 6 5
M  V30 7 1 7 1
M  V30 8 1 8 2
M  V30 9 1 9 3
M  V30 10 1 10 4
M  V30 11 1 11 6
M  V30 12 1 12 6
M  V30 13 1 13 6
M  V30 END BOND
M  V30 END CTAB
M  END
>  <i_epik_Tot_Q>  (1) 
0

>  <i_epik_Tot_abs_Q>  (1) 
0

>  <i_i_glide_confnum>  (1) 
1

>  <i_i_glide_lignum>  (1) 
20

>  <i_i_glide_posenum>  (1) 
399

>  <i_i_glide_rotatable_bonds>  (1) 
0

>  <i_lp_mmshare_version>  (1) 
72125

>  <i_m_source_file_index>  (1) 
20

>  <i_f3d_flags>  (1) 
0

>  <num_sample>  (1) 
50

>  <b_lp_Chiralities_Consistent>  (1) 
1

>  <r_epik_Charging_Adjusted_Penalty>  (1) 
0

>  <r_epik_Ionization_Penalty>  (1) 
5.9248581604286784e-11

>  <r_epik_Ionization_Penalty_Charging>  (1) 
0

>  <r_epik_Ionization_Penalty_Neutral>  (1) 
5.9248581604286784e-11

>  <r_epik_State_Penalty>  (1) 
-0

>  <r_glide_ring_energy>  (1) 
0

>  <r_i_docking_score>  (1) 
-5.0379375379004747

>  <r_i_glide_ecoul>  (1) 
-0.98671005536303791

>  <r_i_glide_eff_state_penalty>  (1) 
-0

>  <r_i_glide_einternal>  (1) 
0

>  <r_i_glide_emodel>  (1) 
-21.618846545406274

>  <r_i_glide_emodel_strain>  (1) 
0

>  <r_i_glide_energy>  (1) 
-16.479358746689634

>  <r_i_glide_erotb>  (1) 
0

>  <r_i_glide_esite>  (1) 
0

>  <r_i_glide_evdw>  (1) 
-15.492648691326597

>  <r_i_glide_gscore>  (1) 
-5.0379375379004747

>  <r_i_glide_gscore_strain>  (1) 
0

>  <r_i_glide_hbond>  (1) 
0

>  <r_i_glide_ligand_efficiency>  (1) 
-0.83965625631674579

>  <r_i_glide_ligand_efficiency_ln>  (1) 
-1.8045743529952123

>  <r_i_glide_ligand_efficiency_sa>  (1) 
-1.5257566742535003

>  <r_i_glide_lipo>  (1) 
-1.415298595029689

>  <r_i_glide_metal>  (1) 
-0

>  <r_i_glide_rewards>  (1) 
-2.7000000000000002

>  <r_lp_Energy>  (1) 
0.62146699999999999

>  <r_lp_tautomer_probability>  (1) 
1

>  <s_epik_cmdline>  (1) 
J2VwaWtfcHl0aG9uJywgJy1waHQnLCAnMS4wJywgJy1waCcsICc3LjQnLCAnLXRuJywgJzgnLCAnLW1hJywgJzUwMCcsICctaW1hZScsICc8aW5maWxlLm1hZT4nLCAnLW9tYWUnLCAnPG91dGZpbGUubWFlPic=

>  <s_epik_input>  (1) 
W2NIXTFbY0hdW2NIXVtjSF1uMVtDSDNd

>  <s_glide_docking_method>  (1) 
confgen

>  <s_i_glide_gridfile>  (1) 
gpcr_5ht2c_6bqh_protein_autoprepared_prepared

>  <s_lp_Force_Field>  (1) 
S-OPLS

>  <s_lp_Variant>  (1) 
Pocket2Mol_19-1

>  <s_m_source_file>  (1) 
generated_GPCR_5HT2C_ligand_Pocket2Mol_2026-06-23_prepared.sdf

>  <GenAI_Model>  (1) 
Pocket2Mol

>  <Protein>  (1) 
GPCR_5HT2C

$$$$
Pocket2Mol_14
     RDKit          3D

  0  0  0  0  0  0  0  0  0  0999 V3000
M  V30 BEGIN CTAB
M  V30 COUNTS 18 18 0 0 1
M  V30 BEGIN ATOM
M  V30 1 C 38.511421 27.741630 51.631193 0
M  V30 2 C 39.587130 28.417564 50.783207 0
M  V30 3 C 38.838587 28.127880 53.068854 0
M  V30 4 C 39.987390 29.681171 51.549573 0
M  V30 5 C 39.347971 29.568264 52.945907 0
M  V30 6 C 37.659372 27.976294 54.034020 0
M  V30 7 H 38.489390 26.664601 51.478297 0
M  V30 8 H 37.532673 28.137755 51.367760 0
M  V30 9 H 40.445137 27.753006 50.691948 0
M  V30 10 H 39.245129 28.636650 49.771407 0
M  V30 11 H 39.645137 27.483885 53.413306 0
M  V30 12 H 41.071976 29.738879 51.603117 0
M  V30 13 H 39.645138 30.582076 51.039135 0
M  V30 14 H 38.511989 30.260075 53.025059 0
M  V30 15 H 40.045135 29.826750 53.742890 0
M  V30 16 H 36.845137 28.641015 53.753854 0
M  V30 17 H 37.953927 28.225802 55.053692 0
M  V30 18 H 37.277266 26.955081 54.034720 0
M  V30 END ATOM
M  V30 BEGIN BOND
M  V30 1 1 2 1
M  V30 2 1 3 1
M  V30 3 1 4 2
M  V30 4 1 5 3
M  V30 5 1 5 4
M  V30 6 1 6 3
M  V30 7 1 7 1
M  V30 8 1 8 1
M  V30 9 1 9 2
M  V30 10 1 10 2
M  V30 11 1 11 3
M  V30 12 1 12 4
M  V30 13 1 13 4
M  V30 14 1 14 5
M  V30 15 1 15 5
M  V30 16 1 16 6
M  V30 17 1 17 6
M  V30 18 1 18 6
M  V30 END BOND
M  V30 END CTAB
M  END
>  <i_epik_Tot_Q>  (1) 
0

>  <i_epik_Tot_abs_Q>  (1) 
0

>  <i_i_glide_confnum>  (1) 
1

>  <i_i_glide_lignum>  (1) 
15

>  <i_i_glide_posenum>  (1) 
241

>  <i_i_glide_rotatable_bonds>  (1) 
0

>  <i_lp_mmshare_version>  (1) 
72125

>  <i_m_source_file_index>  (1) 
15

>  <i_f3d_flags>  (1) 
0

>  <num_sample>  (1) 
50

>  <b_lp_Chiralities_Consistent>  (1) 
1

>  <r_epik_Charging_Adjusted_Penalty>  (1) 
0

>  <r_epik_Ionization_Penalty>  (1) 
0

>  <r_epik_Ionization_Penalty_Charging>  (1) 
0

>  <r_epik_Ionization_Penalty_Neutral>  (1) 
0

>  <r_epik_State_Penalty>  (1) 
-0

>  <r_glide_ring_energy>  (1) 
0

>  <r_i_docking_score>  (1) 
-5.0377647357461379

>  <r_i_glide_ecoul>  (1) 
-0.0040977403148157801

>  <r_i_glide_eff_state_penalty>  (1) 
-0

>  <r_i_glide_einternal>  (1) 
0

>  <r_i_glide_emodel>  (1) 
-19.012803098914098

>  <r_i_glide_emodel_strain>  (1) 
0

>  <r_i_glide_energy>  (1) 
-14.070589996876514

>  <r_i_glide_erotb>  (1) 
0

>  <r_i_glide_esite>  (1) 
0

>  <r_i_glide_evdw>  (1) 
-14.066492256561698

>  <r_i_glide_gscore>  (1) 
-5.0377647357461379

>  <r_i_glide_gscore_strain>  (1) 
0

>  <r_i_glide_hbond>  (1) 
0

>  <r_i_glide_ligand_efficiency>  (1) 
-0.83962745595768962

>  <r_i_glide_ligand_efficiency_ln>  (1) 
-1.8045124557736782

>  <r_i_glide_ligand_efficiency_sa>  (1) 
-1.5257043405279784

>  <r_i_glide_lipo>  (1) 
-1.8269372639430819

>  <r_i_glide_metal>  (1) 
-0

>  <r_i_glide_rewards>  (1) 
-2.5068881979277493

>  <r_lp_Energy>  (1) 
6.4120089999999994

>  <r_lp_tautomer_probability>  (1) 
1

>  <s_epik_cmdline>  (1) 
J2VwaWtfcHl0aG9uJywgJy1waHQnLCAnMS4wJywgJy1waCcsICc3LjQnLCAnLXRuJywgJzgnLCAnLW1hJywgJzUwMCcsICctaW1hZScsICc8aW5maWxlLm1hZT4nLCAnLW9tYWUnLCAnPG91dGZpbGUubWFlPic=

>  <s_epik_input>  (1) 
W0NIM11bQ0hdMVtDSDJdW0NIMl1bQ0gyXVtDSDJdMQ==

>  <s_glide_docking_method>  (1) 
confgen

>  <s_i_glide_gridfile>  (1) 
gpcr_5ht2c_6bqh_protein_autoprepared_prepared

>  <s_lp_Force_Field>  (1) 
S-OPLS

>  <s_lp_Variant>  (1) 
Pocket2Mol_14-1

>  <s_m_source_file>  (1) 
generated_GPCR_5HT2C_ligand_Pocket2Mol_2026-06-23_prepared.sdf

>  <GenAI_Model>  (1) 
Pocket2Mol

>  <Protein>  (1) 
GPCR_5HT2C

$$$$
Pocket2Mol_33
     RDKit          3D

  0  0  0  0  0  0  0  0  0  0999 V3000
M  V30 BEGIN CTAB
M  V30 COUNTS 17 17 0 0 1
M  V30 BEGIN ATOM
M  V30 1 C 38.774268 27.632003 51.862943 0
M  V30 2 O 38.038806 28.593641 52.612346 0
M  V30 3 C 38.800741 29.195381 53.651322 0
M  V30 4 C 39.635539 28.283032 50.772505 0
M  V30 5 O 40.612325 29.163365 51.306487 0
M  V30 6 C 39.635111 30.405267 53.187053 0
M  V30 7 C 40.063758 30.408116 51.708889 0
M  V30 8 H 39.370985 26.982000 52.503633 0
M  V30 9 H 38.046713 26.982453 51.377289 0
M  V30 10 H 38.102805 29.530975 54.419638 0
M  V30 11 H 39.433395 28.455517 54.145002 0
M  V30 12 H 40.149289 27.504003 50.211949 0
M  V30 13 H 39.006391 28.787937 50.040566 0
M  V30 14 H 39.062613 31.315166 53.367451 0
M  V30 15 H 40.512962 30.482730 53.829070 0
M  V30 16 H 39.245139 30.699786 51.049977 0
M  V30 17 H 40.824535 31.177092 51.569241 0
M  V30 END ATOM
M  V30 BEGIN BOND
M  V30 1 1 2 1
M  V30 2 1 3 2
M  V30 3 1 4 1
M  V30 4 1 5 4
M  V30 5 1 6 3
M  V30 6 1 7 5
M  V30 7 1 7 6
M  V30 8 1 8 1
M  V30 9 1 9 1
M  V30 10 1 10 3
M  V30 11 1 11 3
M  V30 12 1 12 4
M  V30 13 1 13 4
M  V30 14 1 14 6
M  V30 15 1 15 6
M  V30 16 1 16 7
M  V30 17 1 17 7
M  V30 END BOND
M  V30 END CTAB
M  END
>  <i_epik_Tot_Q>  (1) 
0

>  <i_epik_Tot_abs_Q>  (1) 
0

>  <i_i_glide_confnum>  (1) 
8

>  <i_i_glide_lignum>  (1) 
34

>  <i_i_glide_posenum>  (1) 
83

>  <i_i_glide_rotatable_bonds>  (1) 
0

>  <i_lp_mmshare_version>  (1) 
72125

>  <i_m_source_file_index>  (1) 
34

>  <i_f3d_flags>  (1) 
0

>  <num_sample>  (1) 
50

>  <b_lp_Chiralities_Consistent>  (1) 
1

>  <r_epik_Charging_Adjusted_Penalty>  (1) 
0

>  <r_epik_Ionization_Penalty>  (1) 
3.933197540425548e-12

>  <r_epik_Ionization_Penalty_Charging>  (1) 
0

>  <r_epik_Ionization_Penalty_Neutral>  (1) 
3.933197540425548e-12

>  <r_epik_State_Penalty>  (1) 
-0

>  <r_glide_ring_energy>  (1) 
0.00055159938950669681

>  <r_i_docking_score>  (1) 
-5.0374164220609536

>  <r_i_glide_ecoul>  (1) 
-1.015991556459781

>  <r_i_glide_eff_state_penalty>  (1) 
-0

>  <r_i_glide_einternal>  (1) 
0

>  <r_i_glide_emodel>  (1) 
-22.474944411408742

>  <r_i_glide_emodel_strain>  (1) 
0

>  <r_i_glide_energy>  (1) 
-17.207388665935202

>  <r_i_glide_erotb>  (1) 
0

>  <r_i_glide_esite>  (1) 
0

>  <r_i_glide_evdw>  (1) 
-16.191397109475421

>  <r_i_glide_gscore>  (1) 
-5.0374164220609536

>  <r_i_glide_gscore_strain>  (1) 
0

>  <r_i_glide_hbond>  (1) 
0

>  <r_i_glide_ligand_efficiency>  (1) 
-0.71963091743727914

>  <r_i_glide_ligand_efficiency_ln>  (1) 
-1.7099694719733183

>  <r_i_glide_ligand_efficiency_sa>  (1) 
-1.3766044220528739

>  <r_i_glide_lipo>  (1) 
-1.4412816735055971

>  <r_i_glide_metal>  (1) 
-0

>  <r_i_glide_rewards>  (1) 
-2.6341661596126191

>  <r_lp_Energy>  (1) 
9.6410049999999998

>  <r_lp_tautomer_probability>  (1) 
1

>  <s_epik_cmdline>  (1) 
J2VwaWtfcHl0aG9uJywgJy1waHQnLCAnMS4wJywgJy1waCcsICc3LjQnLCAnLXRuJywgJzgnLCAnLW1hJywgJzUwMCcsICctaW1hZScsICc8aW5maWxlLm1hZT4nLCAnLW9tYWUnLCAnPG91dGZpbGUubWFlPic=

>  <s_epik_input>  (1) 
W0NIMl0xT1tDSDJdW0NIMl1bQ0gyXU9bQ0gyXTE=

>  <s_glide_docking_method>  (1) 
confgen

>  <s_i_glide_gridfile>  (1) 
gpcr_5ht2c_6bqh_protein_autoprepared_prepared

>  <s_lp_Force_Field>  (1) 
S-OPLS

>  <s_lp_Variant>  (1) 
Pocket2Mol_33-1

>  <s_m_source_file>  (1) 
generated_GPCR_5HT2C_ligand_Pocket2Mol_2026-06-23_prepared.sdf

>  <GenAI_Model>  (1) 
Pocket2Mol

>  <Protein>  (1) 
GPCR_5HT2C

$$$$
Pocket2Mol_38
     RDKit          3D

  0  0  0  0  0  0  0  0  0  0999 V3000
M  V30 BEGIN CTAB
M  V30 COUNTS 12 12 0 0 1
M  V30 BEGIN ATOM
M  V30 1 C 38.856356 27.452171 51.361592 0
M  V30 2 C 39.627861 28.454137 50.765422 0
M  V30 3 C 39.686556 29.414024 51.592912 0
M  V30 4 C 40.381611 30.740876 51.422904 0
M  V30 5 N 38.412343 27.708432 52.557978 0
M  V30 6 C 38.941360 29.040928 52.768196 0
M  V30 7 O 38.786299 29.737228 53.769331 0
M  V30 8 H 38.668124 26.537394 50.804949 0
M  V30 9 H 40.052585 28.367387 49.778463 0
M  V30 10 H 40.845085 31.055890 52.357910 0
M  V30 11 H 41.156445 30.681299 50.657002 0
M  V30 12 H 39.655064 31.502129 51.132223 0
M  V30 END ATOM
M  V30 BEGIN BOND
M  V30 1 1 2 1
M  V30 2 2 3 2
M  V30 3 1 4 3
M  V30 4 2 5 1
M  V30 5 1 6 3
M  V30 6 1 6 5
M  V30 7 2 7 6
M  V30 8 1 8 1
M  V30 9 1 9 2
M  V30 10 1 10 4
M  V30 11 1 11 4
M  V30 12 1 12 4
M  V30 END BOND
M  V30 END CTAB
M  END
>  <i_epik_Tot_Q>  (1) 
0

>  <i_epik_Tot_abs_Q>  (1) 
0

>  <i_i_glide_confnum>  (1) 
1

>  <i_i_glide_lignum>  (1) 
39

>  <i_i_glide_posenum>  (1) 
314

>  <i_i_glide_rotatable_bonds>  (1) 
0

>  <i_lp_mmshare_version>  (1) 
72125

>  <i_m_source_file_index>  (1) 
39

>  <i_f3d_flags>  (1) 
0

>  <num_sample>  (1) 
50

>  <b_lp_Chiralities_Consistent>  (1) 
1

>  <r_epik_Charging_Adjusted_Penalty>  (1) 
0

>  <r_epik_Ionization_Penalty>  (1) 
0

>  <r_epik_Ionization_Penalty_Charging>  (1) 
0

>  <r_epik_Ionization_Penalty_Neutral>  (1) 
0

>  <r_epik_State_Penalty>  (1) 
-0

>  <r_glide_ring_energy>  (1) 
0

>  <r_i_docking_score>  (1) 
-5.0282669749141169

>  <r_i_glide_ecoul>  (1) 
-0.18821756157289449

>  <r_i_glide_eff_state_penalty>  (1) 
-0

>  <r_i_glide_einternal>  (1) 
0

>  <r_i_glide_emodel>  (1) 
-23.18415574066896

>  <r_i_glide_emodel_strain>  (1) 
0.031559633970339007

>  <r_i_glide_energy>  (1) 
-17.32195812741567

>  <r_i_glide_erotb>  (1) 
0

>  <r_i_glide_esite>  (1) 
0

>  <r_i_glide_evdw>  (1) 
-17.133740565842775

>  <r_i_glide_gscore>  (1) 
-5.0282669749141169

>  <r_i_glide_gscore_strain>  (1) 
0

>  <r_i_glide_hbond>  (1) 
0

>  <r_i_glide_ligand_efficiency>  (1) 
-0.71832385355915951

>  <r_i_glide_ligand_efficiency_ln>  (1) 
-1.7068636585968409

>  <r_i_glide_ligand_efficiency_sa>  (1) 
-1.3741040988025435

>  <r_i_glide_lipo>  (1) 
-0.82414724681255058

>  <r_i_glide_metal>  (1) 
-0

>  <r_i_glide_rewards>  (1) 
-3.3192000655734932

>  <r_lp_Energy>  (1) 
0.58044799999999996

>  <r_lp_tautomer_probability>  (1) 
1

>  <s_epik_Chemistry_Notes>  (1) 
This compound has an imine and may undergo hydrolysis.

>  <s_epik_cmdline>  (1) 
J2VwaWtfcHl0aG9uJywgJy1waHQnLCAnMS4wJywgJy1waCcsICc3LjQnLCAnLXRuJywgJzgnLCAnLW1hJywgJzUwMCcsICctaW1hZScsICc8aW5maWxlLm1hZT4nLCAnLW9tYWUnLCAnPG91dGZpbGUubWFlPic=

>  <s_epik_input>  (1) 
Tz1DMU49W0NIXVtDSF09QzFbQ0gzXQ==

>  <s_glide_docking_method>  (1) 
confgen

>  <s_i_glide_gridfile>  (1) 
gpcr_5ht2c_6bqh_protein_autoprepared_prepared

>  <s_lp_Force_Field>  (1) 
S-OPLS

>  <s_lp_Variant>  (1) 
Pocket2Mol_38-1

>  <s_m_source_file>  (1) 
generated_GPCR_5HT2C_ligand_Pocket2Mol_2026-06-23_prepared.sdf

>  <GenAI_Model>  (1) 
Pocket2Mol

>  <Protein>  (1) 
GPCR_5HT2C

$$$$
Pocket2Mol_35
     RDKit          3D

  0  0  0  0  0  0  0  0  0  0999 V3000
M  V30 BEGIN CTAB
M  V30 COUNTS 11 11 0 0 1
M  V30 BEGIN ATOM
M  V30 1 C 40.045135 30.118240 51.877185 0
M  V30 2 O 39.290662 29.920485 53.012664 0
M  V30 3 C 38.460393 28.797114 53.207610 0
M  V30 4 O 37.778419 28.633275 54.216464 0
M  V30 5 C 38.490290 27.822585 52.062548 0
M  V30 6 C 40.045131 29.237153 50.883588 0
M  V30 7 C 39.250509 28.060661 50.979826 0
M  V30 8 H 40.608222 31.040081 51.899163 0
M  V30 9 H 37.885714 26.932542 52.130914 0
M  V30 10 H 40.643909 29.415242 50.002816 0
M  V30 11 H 39.254999 27.347987 50.168238 0
M  V30 END ATOM
M  V30 BEGIN BOND
M  V30 1 1 2 1
M  V30 2 1 3 2
M  V30 3 2 4 3
M  V30 4 1 5 3
M  V30 5 2 6 1
M  V30 6 2 7 5
M  V30 7 1 7 6
M  V30 8 1 8 1
M  V30 9 1 9 5
M  V30 10 1 10 6
M  V30 11 1 11 7
M  V30 END BOND
M  V30 END CTAB
M  END
>  <i_epik_Tot_Q>  (1) 
0

>  <i_epik_Tot_abs_Q>  (1) 
0

>  <i_i_glide_confnum>  (1) 
1

>  <i_i_glide_lignum>  (1) 
36

>  <i_i_glide_posenum>  (1) 
276

>  <i_i_glide_rotatable_bonds>  (1) 
0

>  <i_lp_mmshare_version>  (1) 
72125

>  <i_m_source_file_index>  (1) 
36

>  <i_f3d_flags>  (1) 
0

>  <num_sample>  (1) 
50

>  <b_lp_Chiralities_Consistent>  (1) 
1

>  <r_epik_Charging_Adjusted_Penalty>  (1) 
0

>  <r_epik_Ionization_Penalty>  (1) 
2.4984917370333966e-09

>  <r_epik_Ionization_Penalty_Charging>  (1) 
0

>  <r_epik_Ionization_Penalty_Neutral>  (1) 
2.4984917370333966e-09

>  <r_epik_State_Penalty>  (1) 
-0

>  <r_glide_ring_energy>  (1) 
0

>  <r_i_docking_score>  (1) 
-5.0270335280825611

>  <r_i_glide_ecoul>  (1) 
-0.84386504152772845

>  <r_i_glide_eff_state_penalty>  (1) 
-0

>  <r_i_glide_einternal>  (1) 
0

>  <r_i_glide_emodel>  (1) 
-23.55371404247478

>  <r_i_glide_emodel_strain>  (1) 
0

>  <r_i_glide_energy>  (1) 
-18.235674254846167

>  <r_i_glide_erotb>  (1) 
0

>  <r_i_glide_esite>  (1) 
0

>  <r_i_glide_evdw>  (1) 
-17.391809213318439

>  <r_i_glide_gscore>  (1) 
-5.0270335280825611

>  <r_i_glide_gscore_strain>  (1) 
0

>  <r_i_glide_hbond>  (1) 
0

>  <r_i_glide_ligand_efficiency>  (1) 
-0.71814764686893728

>  <r_i_glide_ligand_efficiency_ln>  (1) 
-1.7064449605479708

>  <r_i_glide_ligand_efficiency_sa>  (1) 
-1.3737670275302043

>  <r_i_glide_lipo>  (1) 
-1.5865507200316398

>  <r_i_glide_metal>  (1) 
-0

>  <r_i_glide_rewards>  (1) 
-2.4443125911558403

>  <r_lp_Energy>  (1) 
11.255118999999999

>  <r_lp_tautomer_probability>  (1) 
1

>  <s_epik_cmdline>  (1) 
J2VwaWtfcHl0aG9uJywgJy1waHQnLCAnMS4wJywgJy1waCcsICc3LjQnLCAnLXRuJywgJzgnLCAnLW1hJywgJzUwMCcsICctaW1hZScsICc8aW5maWxlLm1hZT4nLCAnLW9tYWUnLCAnPG91dGZpbGUubWFlPic=

>  <s_epik_input>  (1) 
W2NIXTFbY0hdW2NIXVtjSF1vYzE9Tw==

>  <s_glide_docking_method>  (1) 
confgen

>  <s_i_glide_gridfile>  (1) 
gpcr_5ht2c_6bqh_protein_autoprepared_prepared

>  <s_lp_Force_Field>  (1) 
S-OPLS

>  <s_lp_Variant>  (1) 
Pocket2Mol_35-1

>  <s_m_source_file>  (1) 
generated_GPCR_5HT2C_ligand_Pocket2Mol_2026-06-23_prepared.sdf

>  <GenAI_Model>  (1) 
Pocket2Mol

>  <Protein>  (1) 
GPCR_5HT2C

$$$$
Pocket2Mol_18
     RDKit          3D

  0  0  0  0  0  0  0  0  0  0999 V3000
M  V30 BEGIN CTAB
M  V30 COUNTS 10 10 0 0 1
M  V30 BEGIN ATOM
M  V30 1 C 38.704412 27.753437 52.275721 0
M  V30 2 C 38.956229 28.941214 53.029377 0
M  V30 3 C 39.245135 27.931930 51.031591 0
M  V30 4 C 39.645137 29.805043 52.220548 0
M  V30 5 N 39.810570 29.185381 51.006548 0
M  V30 6 O 40.445138 29.737753 49.928108 0 CHG=-1
M  V30 7 H 38.183525 26.868432 52.608531 0
M  V30 8 H 38.666003 29.139536 54.050230 0
M  V30 9 H 39.276521 27.288865 50.167758 0
M  V30 10 H 40.026495 30.800907 52.393059 0
M  V30 END ATOM
M  V30 BEGIN BOND
M  V30 1 1 2 1
M  V30 2 2 3 1
M  V30 3 2 4 2
M  V30 4 1 5 3
M  V30 5 1 5 4
M  V30 6 1 6 5
M  V30 7 1 7 1
M  V30 8 1 8 2
M  V30 9 1 9 3
M  V30 10 1 10 4
M  V30 END BOND
M  V30 END CTAB
M  END
>  <i_epik_Tot_Q>  (1) 
-1

>  <i_epik_Tot_abs_Q>  (1) 
1

>  <i_i_glide_confnum>  (1) 
1

>  <i_i_glide_lignum>  (1) 
19

>  <i_i_glide_posenum>  (1) 
91

>  <i_i_glide_rotatable_bonds>  (1) 
0

>  <i_lp_mmshare_version>  (1) 
72125

>  <i_m_source_file_index>  (1) 
19

>  <i_f3d_flags>  (1) 
0

>  <num_sample>  (1) 
50

>  <b_lp_Chiralities_Consistent>  (1) 
1

>  <r_epik_Charging_Adjusted_Penalty>  (1) 
0.038602441834166765

>  <r_epik_Ionization_Penalty>  (1) 
0.019301220976331968

>  <r_epik_Ionization_Penalty_Charging>  (1) 
0.019301220917083386

>  <r_epik_Ionization_Penalty_Neutral>  (1) 
5.9248581604286784e-11

>  <r_epik_State_Penalty>  (1) 
0.019301220917083379

>  <r_glide_ring_energy>  (1) 
0

>  <r_i_docking_score>  (1) 
-5.017657387266687

>  <r_i_glide_ecoul>  (1) 
-0.23461150935679392

>  <r_i_glide_eff_state_penalty>  (1) 
0.019301220917083379

>  <r_i_glide_einternal>  (1) 
0

>  <r_i_glide_emodel>  (1) 
-18.811787221179653

>  <r_i_glide_emodel_strain>  (1) 
0

>  <r_i_glide_energy>  (1) 
-13.944022244796951

>  <r_i_glide_erotb>  (1) 
0

>  <r_i_glide_esite>  (1) 
0

>  <r_i_glide_evdw>  (1) 
-13.709410735440157

>  <r_i_glide_gscore>  (1) 
-5.0369586081837703

>  <r_i_glide_gscore_strain>  (1) 
0

>  <r_i_glide_hbond>  (1) 
0

>  <r_i_glide_ligand_efficiency>  (1) 
-0.8362762312111145

>  <r_i_glide_ligand_efficiency_ln>  (1) 
-1.7973100629095786

>  <r_i_glide_ligand_efficiency_sa>  (1) 
-1.5196147610297681

>  <r_i_glide_lipo>  (1) 
-1.2575716687923233

>  <r_i_glide_metal>  (1) 
-0

>  <r_i_glide_rewards>  (1) 
-3.0587246762159199

>  <r_lp_Energy>  (1) 
1.8910769999999999

>  <r_lp_tautomer_probability>  (1) 
1

>  <s_epik_cmdline>  (1) 
J2VwaWtfcHl0aG9uJywgJy1waHQnLCAnMS4wJywgJy1waCcsICc3LjQnLCAnLXRuJywgJzgnLCAnLW1hJywgJzUwMCcsICctaW1hZScsICc8aW5maWxlLm1hZT4nLCAnLW9tYWUnLCAnPG91dGZpbGUubWFlPic=

>  <s_epik_input>  (1) 
W2NIXTFbY0hdW2NIXVtjSF1uMVtPSF0=

>  <s_glide_docking_method>  (1) 
confgen

>  <s_i_glide_gridfile>  (1) 
gpcr_5ht2c_6bqh_protein_autoprepared_prepared

>  <s_lp_Force_Field>  (1) 
S-OPLS

>  <s_lp_Variant>  (1) 
Pocket2Mol_18-1

>  <s_m_source_file>  (1) 
generated_GPCR_5HT2C_ligand_Pocket2Mol_2026-06-23_prepared.sdf

>  <GenAI_Model>  (1) 
Pocket2Mol

>  <Protein>  (1) 
GPCR_5HT2C

$$$$
Pocket2Mol_43
     RDKit          3D

  0  0  0  0  0  0  0  0  0  0999 V3000
M  V30 BEGIN CTAB
M  V30 COUNTS 15 15 0 0 1
M  V30 BEGIN ATOM
M  V30 1 C 39.645122 30.366049 52.979104 0
M  V30 2 O 38.678955 29.337756 53.202353 0
M  V30 3 C 38.681243 28.138128 52.557991 0
M  V30 4 O 38.248218 27.092797 53.034571 0
M  V30 5 C 39.258429 28.195968 51.132891 0
M  V30 6 C 40.045229 30.537758 51.512418 0
M  V30 7 C 40.414021 29.182365 50.946411 0
M  V30 8 H 39.248304 31.305620 53.364654 0
M  V30 9 H 40.524080 30.137754 53.579933 0
M  V30 10 H 39.570510 27.194619 50.834404 0
M  V30 11 H 38.445133 28.474943 50.465168 0
M  V30 12 H 39.245148 30.972150 50.916767 0
M  V30 13 H 40.883351 31.228852 51.432486 0
M  V30 14 H 41.314268 28.798829 51.422568 0
M  V30 15 H 40.637598 29.296081 49.885713 0
M  V30 END ATOM
M  V30 BEGIN BOND
M  V30 1 1 2 1
M  V30 2 1 3 2
M  V30 3 2 4 3
M  V30 4 1 5 3
M  V30 5 1 6 1
M  V30 6 1 7 5
M  V30 7 1 7 6
M  V30 8 1 8 1
M  V30 9 1 9 1
M  V30 10 1 10 5
M  V30 11 1 11 5
M  V30 12 1 12 6
M  V30 13 1 13 6
M  V30 14 1 14 7
M  V30 15 1 15 7
M  V30 END BOND
M  V30 END CTAB
M  END
>  <i_epik_Tot_Q>  (1) 
0

>  <i_epik_Tot_abs_Q>  (1) 
0

>  <i_i_glide_confnum>  (1) 
2

>  <i_i_glide_lignum>  (1) 
44

>  <i_i_glide_posenum>  (1) 
330

>  <i_i_glide_rotatable_bonds>  (1) 
0

>  <i_lp_mmshare_version>  (1) 
72125

>  <i_m_source_file_index>  (1) 
44

>  <i_f3d_flags>  (1) 
0

>  <num_sample>  (1) 
50

>  <b_lp_Chiralities_Consistent>  (1) 
1

>  <r_epik_Charging_Adjusted_Penalty>  (1) 
0

>  <r_epik_Ionization_Penalty>  (1) 
4.2138389519661579e-10

>  <r_epik_Ionization_Penalty_Charging>  (1) 
0

>  <r_epik_Ionization_Penalty_Neutral>  (1) 
4.2138389519661579e-10

>  <r_epik_State_Penalty>  (1) 
-0

>  <r_glide_ring_energy>  (1) 
0.00094626647336522524

>  <r_i_docking_score>  (1) 
-5.01504863047382

>  <r_i_glide_ecoul>  (1) 
0.033253604791689817

>  <r_i_glide_eff_state_penalty>  (1) 
-0

>  <r_i_glide_einternal>  (1) 
0

>  <r_i_glide_emodel>  (1) 
-21.852062712161509

>  <r_i_glide_emodel_strain>  (1) 
0

>  <r_i_glide_energy>  (1) 
-16.203454066349799

>  <r_i_glide_erotb>  (1) 
0

>  <r_i_glide_esite>  (1) 
0

>  <r_i_glide_evdw>  (1) 
-16.236707671141488

>  <r_i_glide_gscore>  (1) 
-5.01504863047382

>  <r_i_glide_gscore_strain>  (1) 
0

>  <r_i_glide_hbond>  (1) 
0

>  <r_i_glide_ligand_efficiency>  (1) 
-0.71643551863911714

>  <r_i_glide_ligand_efficiency_ln>  (1) 
-1.7023766431172493

>  <r_i_glide_ligand_efficiency_sa>  (1) 
-1.3704918440504765

>  <r_i_glide_lipo>  (1) 
-1.2169039237745882

>  <r_i_glide_metal>  (1) 
-0

>  <r_i_glide_rewards>  (1) 
-2.9912973638609106

>  <r_lp_Energy>  (1) 
8.5246700000000004

>  <r_lp_tautomer_probability>  (1) 
1

>  <s_epik_Chemistry_Notes>  (1) 
This compound has an ester and may undergo hydrolysis at high or low pH.

>  <s_epik_cmdline>  (1) 
J2VwaWtfcHl0aG9uJywgJy1waHQnLCAnMS4wJywgJy1waCcsICc3LjQnLCAnLXRuJywgJzgnLCAnLW1hJywgJzUwMCcsICctaW1hZScsICc8aW5maWxlLm1hZT4nLCAnLW9tYWUnLCAnPG91dGZpbGUubWFlPic=

>  <s_epik_input>  (1) 
W0NIMl0xW0NIMl1bQ0gyXVtDSDJdT0MxPU8=

>  <s_glide_docking_method>  (1) 
confgen

>  <s_i_glide_gridfile>  (1) 
gpcr_5ht2c_6bqh_protein_autoprepared_prepared

>  <s_lp_Force_Field>  (1) 
S-OPLS

>  <s_lp_Variant>  (1) 
Pocket2Mol_43-1

>  <s_m_source_file>  (1) 
generated_GPCR_5HT2C_ligand_Pocket2Mol_2026-06-23_prepared.sdf

>  <GenAI_Model>  (1) 
Pocket2Mol

>  <Protein>  (1) 
GPCR_5HT2C

$$$$
Pocket2Mol_33
     RDKit          3D

  0  0  0  0  0  0  0  0  0  0999 V3000
M  V30 BEGIN CTAB
M  V30 COUNTS 17 17 0 0 1
M  V30 BEGIN ATOM
M  V30 1 C 38.454676 28.432475 54.465504 0
M  V30 2 O 38.294652 29.730592 53.654917 0
M  V30 3 C 39.584126 30.137720 52.922978 0
M  V30 4 C 38.522791 27.149483 53.623080 0
M  V30 5 O 39.642491 27.127439 52.567830 0
M  V30 6 C 39.781333 29.509738 51.531176 0
M  V30 7 C 39.346856 28.041812 51.367517 0
M  V30 8 H 39.336951 28.501439 55.101849 0
M  V30 9 H 37.610507 28.344036 55.149358 0
M  V30 10 H 39.597781 31.221277 52.805434 0
M  V30 11 H 40.445133 29.911309 53.551869 0
M  V30 12 H 38.616983 26.283936 54.278867 0
M  V30 13 H 37.565730 27.026073 53.116223 0
M  V30 14 H 39.245488 30.104968 50.791804 0
M  V30 15 H 40.834315 29.602140 51.265111 0
M  V30 16 H 38.283422 27.999054 51.132190 0
M  V30 17 H 39.847235 27.641762 50.485654 0
M  V30 END ATOM
M  V30 BEGIN BOND
M  V30 1 1 2 1
M  V30 2 1 3 2
M  V30 3 1 4 1
M  V30 4 1 5 4
M  V30 5 1 6 3
M  V30 6 1 7 5
M  V30 7 1 7 6
M  V30 8 1 8 1
M  V30 9 1 9 1
M  V30 10 1 10 3
M  V30 11 1 11 3
M  V30 12 1 12 4
M  V30 13 1 13 4
M  V30 14 1 14 6
M  V30 15 1 15 6
M  V30 16 1 16 7
M  V30 17 1 17 7
M  V30 END BOND
M  V30 END CTAB
M  END
>  <i_epik_Tot_Q>  (1) 
0

>  <i_epik_Tot_abs_Q>  (1) 
0

>  <i_i_glide_confnum>  (1) 
8

>  <i_i_glide_lignum>  (1) 
34

>  <i_i_glide_posenum>  (1) 
301

>  <i_i_glide_rotatable_bonds>  (1) 
0

>  <i_lp_mmshare_version>  (1) 
72125

>  <i_m_source_file_index>  (1) 
34

>  <i_f3d_flags>  (1) 
0

>  <num_sample>  (1) 
50

>  <b_lp_Chiralities_Consistent>  (1) 
1

>  <r_epik_Charging_Adjusted_Penalty>  (1) 
0

>  <r_epik_Ionization_Penalty>  (1) 
3.933197540425548e-12

>  <r_epik_Ionization_Penalty_Charging>  (1) 
0

>  <r_epik_Ionization_Penalty_Neutral>  (1) 
3.933197540425548e-12

>  <r_epik_State_Penalty>  (1) 
-0

>  <r_glide_ring_energy>  (1) 
0.00055159938950669681

>  <r_i_docking_score>  (1) 
-5.0147216229924423

>  <r_i_glide_ecoul>  (1) 
-1.0584269325662741

>  <r_i_glide_eff_state_penalty>  (1) 
-0

>  <r_i_glide_einternal>  (1) 
0

>  <r_i_glide_emodel>  (1) 
-21.624291182515659

>  <r_i_glide_emodel_strain>  (1) 
7.8266708669616492e-09

>  <r_i_glide_energy>  (1) 
-16.380467078152503

>  <r_i_glide_erotb>  (1) 
0

>  <r_i_glide_esite>  (1) 
0

>  <r_i_glide_evdw>  (1) 
-15.322040145586229

>  <r_i_glide_gscore>  (1) 
-5.0147216229924423

>  <r_i_glide_gscore_strain>  (1) 
0

>  <r_i_glide_hbond>  (1) 
0

>  <r_i_glide_ligand_efficiency>  (1) 
-0.71638880328463461

>  <r_i_glide_ligand_efficiency_ln>  (1) 
-1.7022656392288644

>  <r_i_glide_ligand_efficiency_sa>  (1) 
-1.3704024807921726

>  <r_i_glide_lipo>  (1) 
-1.5311121961802154

>  <r_i_glide_metal>  (1) 
-0

>  <r_i_glide_rewards>  (1) 
-2.5587433796479737

>  <r_lp_Energy>  (1) 
9.6410049999999998

>  <r_lp_tautomer_probability>  (1) 
1

>  <s_epik_cmdline>  (1) 
J2VwaWtfcHl0aG9uJywgJy1waHQnLCAnMS4wJywgJy1waCcsICc3LjQnLCAnLXRuJywgJzgnLCAnLW1hJywgJzUwMCcsICctaW1hZScsICc8aW5maWxlLm1hZT4nLCAnLW9tYWUnLCAnPG91dGZpbGUubWFlPic=

>  <s_epik_input>  (1) 
W0NIMl0xT1tDSDJdW0NIMl1bQ0gyXU9bQ0gyXTE=

>  <s_glide_docking_method>  (1) 
confgen

>  <s_i_glide_gridfile>  (1) 
gpcr_5ht2c_6bqh_protein_autoprepared_prepared

>  <s_lp_Force_Field>  (1) 
S-OPLS

>  <s_lp_Variant>  (1) 
Pocket2Mol_33-1

>  <s_m_source_file>  (1) 
generated_GPCR_5HT2C_ligand_Pocket2Mol_2026-06-23_prepared.sdf

>  <GenAI_Model>  (1) 
Pocket2Mol

>  <Protein>  (1) 
GPCR_5HT2C

$$$$
Pocket2Mol_43
     RDKit          3D

  0  0  0  0  0  0  0  0  0  0999 V3000
M  V30 BEGIN CTAB
M  V30 COUNTS 15 15 0 0 1
M  V30 BEGIN ATOM
M  V30 1 C 39.973038 28.708621 51.192571 0
M  V30 2 O 38.669999 28.220193 51.491668 0
M  V30 3 C 38.052279 28.501092 52.670148 0
M  V30 4 O 36.918574 28.137732 52.967763 0
M  V30 5 C 38.910159 29.337636 53.631174 0
M  V30 6 C 40.045160 30.211918 51.486386 0
M  V30 7 C 39.651753 30.506043 52.949006 0
M  V30 8 H 40.717297 28.159030 51.767750 0
M  V30 9 H 40.181909 28.521479 50.139399 0
M  V30 10 H 38.288399 29.711920 54.444941 0
M  V30 11 H 39.638092 28.665473 54.085938 0
M  V30 12 H 41.037931 30.605441 51.267915 0
M  V30 13 H 39.367059 30.725402 50.804712 0
M  V30 14 H 39.053811 31.416594 52.996934 0
M  V30 15 H 40.548192 30.723282 53.529493 0
M  V30 END ATOM
M  V30 BEGIN BOND
M  V30 1 1 2 1
M  V30 2 1 3 2
M  V30 3 2 4 3
M  V30 4 1 5 3
M  V30 5 1 6 1
M  V30 6 1 7 5
M  V30 7 1 7 6
M  V30 8 1 8 1
M  V30 9 1 9 1
M  V30 10 1 10 5
M  V30 11 1 11 5
M  V30 12 1 12 6
M  V30 13 1 13 6
M  V30 14 1 14 7
M  V30 15 1 15 7
M  V30 END BOND
M  V30 END CTAB
M  END
>  <i_epik_Tot_Q>  (1) 
0

>  <i_epik_Tot_abs_Q>  (1) 
0

>  <i_i_glide_confnum>  (1) 
3

>  <i_i_glide_lignum>  (1) 
44

>  <i_i_glide_posenum>  (1) 
73

>  <i_i_glide_rotatable_bonds>  (1) 
0

>  <i_lp_mmshare_version>  (1) 
72125

>  <i_m_source_file_index>  (1) 
44

>  <i_f3d_flags>  (1) 
0

>  <num_sample>  (1) 
50

>  <b_lp_Chiralities_Consistent>  (1) 
1

>  <r_epik_Charging_Adjusted_Penalty>  (1) 
0

>  <r_epik_Ionization_Penalty>  (1) 
4.2138389519661579e-10

>  <r_epik_Ionization_Penalty_Charging>  (1) 
0

>  <r_epik_Ionization_Penalty_Neutral>  (1) 
4.2138389519661579e-10

>  <r_epik_State_Penalty>  (1) 
-0

>  <r_glide_ring_energy>  (1) 
0.70452651660711352

>  <r_i_docking_score>  (1) 
-5.0135982224153368

>  <r_i_glide_ecoul>  (1) 
0.11842542306538204

>  <r_i_glide_eff_state_penalty>  (1) 
-0

>  <r_i_glide_einternal>  (1) 
0

>  <r_i_glide_emodel>  (1) 
-22.124705499827741

>  <r_i_glide_emodel_strain>  (1) 
5.4637030899584715e-08

>  <r_i_glide_energy>  (1) 
-16.477730549341871

>  <r_i_glide_erotb>  (1) 
0

>  <r_i_glide_esite>  (1) 
0

>  <r_i_glide_evdw>  (1) 
-16.596155972407253

>  <r_i_glide_gscore>  (1) 
-5.0135982224153368

>  <r_i_glide_gscore_strain>  (1) 
0

>  <r_i_glide_hbond>  (1) 
0

>  <r_i_glide_ligand_efficiency>  (1) 
-0.71622831748790527

>  <r_i_glide_ligand_efficiency_ln>  (1) 
-1.7018842967845045

>  <r_i_glide_ligand_efficiency_sa>  (1) 
-1.3700954825072169

>  <r_i_glide_lipo>  (1) 
-1.2044777807272835

>  <r_i_glide_metal>  (1) 
-0

>  <r_i_glide_rewards>  (1) 
-2.9970764565274979

>  <r_lp_Energy>  (1) 
8.5246700000000004

>  <r_lp_tautomer_probability>  (1) 
1

>  <s_epik_Chemistry_Notes>  (1) 
This compound has an ester and may undergo hydrolysis at high or low pH.

>  <s_epik_cmdline>  (1) 
J2VwaWtfcHl0aG9uJywgJy1waHQnLCAnMS4wJywgJy1waCcsICc3LjQnLCAnLXRuJywgJzgnLCAnLW1hJywgJzUwMCcsICctaW1hZScsICc8aW5maWxlLm1hZT4nLCAnLW9tYWUnLCAnPG91dGZpbGUubWFlPic=

>  <s_epik_input>  (1) 
W0NIMl0xW0NIMl1bQ0gyXVtDSDJdT0MxPU8=

>  <s_glide_docking_method>  (1) 
confgen

>  <s_i_glide_gridfile>  (1) 
gpcr_5ht2c_6bqh_protein_autoprepared_prepared

>  <s_lp_Force_Field>  (1) 
S-OPLS

>  <s_lp_Variant>  (1) 
Pocket2Mol_43-1

>  <s_m_source_file>  (1) 
generated_GPCR_5HT2C_ligand_Pocket2Mol_2026-06-23_prepared.sdf

>  <GenAI_Model>  (1) 
Pocket2Mol

>  <Protein>  (1) 
GPCR_5HT2C

$$$$
Pocket2Mol_15
     RDKit          3D

  0  0  0  0  0  0  0  0  0  0999 V3000
M  V30 BEGIN CTAB
M  V30 COUNTS 16 16 0 0 1
M  V30 BEGIN ATOM
M  V30 1 C 39.245139 27.380077 52.230762 0
M  V30 2 C 39.577671 28.323531 51.075055 0
M  V30 3 C 38.567324 28.257227 53.280950 0
M  V30 4 C 39.787786 29.704607 51.705709 0
M  V30 5 C 39.226288 29.637079 53.138302 0
M  V30 6 O 37.196343 28.345582 52.967762 0
M  V30 7 H 40.162423 26.966067 52.646529 0
M  V30 8 H 38.634256 26.537757 51.914077 0
M  V30 9 H 40.444434 27.989376 50.505671 0
M  V30 10 H 38.733284 28.365874 50.386977 0
M  V30 11 H 38.674255 27.849290 54.286879 0
M  V30 12 H 40.845137 29.957801 51.730581 0
M  V30 13 H 39.296236 30.470736 51.106894 0
M  V30 14 H 38.535009 30.449796 53.367752 0
M  V30 15 H 40.045137 29.737056 53.850570 0
M  V30 16 H 36.870288 27.472801 52.800934 0
M  V30 END ATOM
M  V30 BEGIN BOND
M  V30 1 1 2 1
M  V30 2 1 3 1
M  V30 3 1 4 2
M  V30 4 1 5 3
M  V30 5 1 5 4
M  V30 6 1 6 3
M  V30 7 1 7 1
M  V30 8 1 8 1
M  V30 9 1 9 2
M  V30 10 1 10 2
M  V30 11 1 11 3
M  V30 12 1 12 4
M  V30 13 1 13 4
M  V30 14 1 14 5
M  V30 15 1 15 5
M  V30 16 1 16 6
M  V30 END BOND
M  V30 END CTAB
M  END
>  <i_epik_Tot_Q>  (1) 
0

>  <i_epik_Tot_abs_Q>  (1) 
0

>  <i_i_glide_confnum>  (1) 
4

>  <i_i_glide_lignum>  (1) 
16

>  <i_i_glide_posenum>  (1) 
344

>  <i_i_glide_rotatable_bonds>  (1) 
1

>  <i_lp_mmshare_version>  (1) 
72125

>  <i_m_source_file_index>  (1) 
16

>  <i_f3d_flags>  (1) 
0

>  <num_sample>  (1) 
50

>  <b_lp_Chiralities_Consistent>  (1) 
1

>  <r_epik_Charging_Adjusted_Penalty>  (1) 
0

>  <r_epik_Ionization_Penalty>  (1) 
4.538991431931509e-07

>  <r_epik_Ionization_Penalty_Charging>  (1) 
0

>  <r_epik_Ionization_Penalty_Neutral>  (1) 
4.538991431931509e-07

>  <r_epik_State_Penalty>  (1) 
-0

>  <r_glide_ring_energy>  (1) 
0.38828123220255384

>  <r_i_docking_score>  (1) 
-4.9962010255467186

>  <r_i_glide_ecoul>  (1) 
-1.4996756778129952

>  <r_i_glide_eff_state_penalty>  (1) 
-0

>  <r_i_glide_einternal>  (1) 
0.4703400382039703

>  <r_i_glide_emodel>  (1) 
-20.270006889688506

>  <r_i_glide_emodel_strain>  (1) 
0.001375535238690162

>  <r_i_glide_energy>  (1) 
-15.598430148500245

>  <r_i_glide_erotb>  (1) 
0

>  <r_i_glide_esite>  (1) 
0

>  <r_i_glide_evdw>  (1) 
-14.098754470687251

>  <r_i_glide_gscore>  (1) 
-4.9962010255467186

>  <r_i_glide_gscore_strain>  (1) 
0

>  <r_i_glide_hbond>  (1) 
-0.058430447681849754

>  <r_i_glide_ligand_efficiency>  (1) 
-0.83270017092445314

>  <r_i_glide_ligand_efficiency_ln>  (1) 
-1.7896244574853042

>  <r_i_glide_ligand_efficiency_sa>  (1) 
-1.5131166282416664

>  <r_i_glide_lipo>  (1) 
-1.5373536531007612

>  <r_i_glide_metal>  (1) 
-0

>  <r_i_glide_rewards>  (1) 
-2.4705278495577958

>  <r_lp_Energy>  (1) 
8.9029089999999993

>  <r_lp_tautomer_probability>  (1) 
1

>  <s_epik_cmdline>  (1) 
J2VwaWtfcHl0aG9uJywgJy1waHQnLCAnMS4wJywgJy1waCcsICc3LjQnLCAnLXRuJywgJzgnLCAnLW1hJywgJzUwMCcsICctaW1hZScsICc8aW5maWxlLm1hZT4nLCAnLW9tYWUnLCAnPG91dGZpbGUubWFlPic=

>  <s_epik_input>  (1) 
W09IXVtDSF0xW0NIMl1bQ0gyXVtDSDJdW0NIMl0x

>  <s_glide_docking_method>  (1) 
confgen

>  <s_i_glide_gridfile>  (1) 
gpcr_5ht2c_6bqh_protein_autoprepared_prepared

>  <s_lp_Force_Field>  (1) 
S-OPLS

>  <s_lp_Variant>  (1) 
Pocket2Mol_15-1

>  <s_m_source_file>  (1) 
generated_GPCR_5HT2C_ligand_Pocket2Mol_2026-06-23_prepared.sdf

>  <GenAI_Model>  (1) 
Pocket2Mol

>  <Protein>  (1) 
GPCR_5HT2C

$$$$
Pocket2Mol_22
     RDKit          3D

  0  0  0  0  0  0  0  0  0  0999 V3000
M  V30 BEGIN CTAB
M  V30 COUNTS 11 11 0 0 1
M  V30 BEGIN ATOM
M  V30 1 C 38.627138 28.607777 53.594333 0
M  V30 2 C 39.245137 29.737751 52.967756 0
M  V30 3 C 39.645499 29.439750 51.697576 0
M  V30 4 C 40.323205 30.319966 50.703025 0
M  V30 5 N 38.561486 27.515464 52.856811 0
M  V30 6 S 39.245042 27.798582 51.346040 0
M  V30 7 H 38.223730 28.580148 54.595857 0
M  V30 8 H 39.365692 30.692525 53.458486 0
M  V30 9 H 40.487183 31.317933 51.111173 0
M  V30 10 H 41.292874 29.910250 50.422550 0
M  V30 11 H 39.720936 30.419636 49.799673 0
M  V30 END ATOM
M  V30 BEGIN BOND
M  V30 1 1 2 1
M  V30 2 2 3 2
M  V30 3 1 4 3
M  V30 4 2 5 1
M  V30 5 1 6 3
M  V30 6 1 6 5
M  V30 7 1 7 1
M  V30 8 1 8 2
M  V30 9 1 9 4
M  V30 10 1 10 4
M  V30 11 1 11 4
M  V30 END BOND
M  V30 END CTAB
M  END
>  <i_epik_Tot_Q>  (1) 
0

>  <i_epik_Tot_abs_Q>  (1) 
0

>  <i_i_glide_confnum>  (1) 
1

>  <i_i_glide_lignum>  (1) 
23

>  <i_i_glide_posenum>  (1) 
246

>  <i_i_glide_rotatable_bonds>  (1) 
0

>  <i_lp_mmshare_version>  (1) 
72125

>  <i_m_source_file_index>  (1) 
23

>  <i_f3d_flags>  (1) 
0

>  <num_sample>  (1) 
50

>  <b_lp_Chiralities_Consistent>  (1) 
1

>  <r_epik_Charging_Adjusted_Penalty>  (1) 
0

>  <r_epik_Ionization_Penalty>  (1) 
2.7081824038816109e-08

>  <r_epik_Ionization_Penalty_Charging>  (1) 
0

>  <r_epik_Ionization_Penalty_Neutral>  (1) 
2.7081824038816109e-08

>  <r_epik_State_Penalty>  (1) 
-0

>  <r_glide_ring_energy>  (1) 
0

>  <r_i_docking_score>  (1) 
-4.995322901985622

>  <r_i_glide_ecoul>  (1) 
-0.25902923629881469

>  <r_i_glide_eff_state_penalty>  (1) 
-0

>  <r_i_glide_einternal>  (1) 
0

>  <r_i_glide_emodel>  (1) 
-23.742828181153744

>  <r_i_glide_emodel_strain>  (1) 
0

>  <r_i_glide_energy>  (1) 
-18.163560725338982

>  <r_i_glide_erotb>  (1) 
0

>  <r_i_glide_esite>  (1) 
0

>  <r_i_glide_evdw>  (1) 
-17.904531489040167

>  <r_i_glide_gscore>  (1) 
-4.995322901985622

>  <r_i_glide_gscore_strain>  (1) 
0

>  <r_i_glide_hbond>  (1) 
0

>  <r_i_glide_ligand_efficiency>  (1) 
-0.83255381699760367

>  <r_i_glide_ligand_efficiency_ln>  (1) 
-1.7893099162181301

>  <r_i_glide_ligand_efficiency_sa>  (1) 
-1.5128506855073465

>  <r_i_glide_lipo>  (1) 
-1.5111958562192562

>  <r_i_glide_metal>  (1) 
-0

>  <r_i_glide_rewards>  (1) 
-2.5500460858695355

>  <r_lp_Energy>  (1) 
1.924183

>  <r_lp_tautomer_probability>  (1) 
1

>  <s_epik_cmdline>  (1) 
J2VwaWtfcHl0aG9uJywgJy1waHQnLCAnMS4wJywgJy1waCcsICc3LjQnLCAnLXRuJywgJzgnLCAnLW1hJywgJzUwMCcsICctaW1hZScsICc8aW5maWxlLm1hZT4nLCAnLW9tYWUnLCAnPG91dGZpbGUubWFlPic=

>  <s_epik_input>  (1) 
czFuW2NIXVtjSF1jMVtDSDNd

>  <s_glide_docking_method>  (1) 
confgen

>  <s_i_glide_gridfile>  (1) 
gpcr_5ht2c_6bqh_protein_autoprepared_prepared

>  <s_lp_Force_Field>  (1) 
S-OPLS

>  <s_lp_Variant>  (1) 
Pocket2Mol_22-1

>  <s_m_source_file>  (1) 
generated_GPCR_5HT2C_ligand_Pocket2Mol_2026-06-23_prepared.sdf

>  <GenAI_Model>  (1) 
Pocket2Mol

>  <Protein>  (1) 
GPCR_5HT2C

$$$$
Pocket2Mol_18
     RDKit          3D

  0  0  0  0  0  0  0  0  0  0999 V3000
M  V30 BEGIN CTAB
M  V30 COUNTS 10 10 0 0 1
M  V30 BEGIN ATOM
M  V30 1 C 40.045085 29.337756 50.167757 0
M  V30 2 C 39.478430 28.137754 50.701231 0
M  V30 3 C 40.135077 30.241388 51.189874 0
M  V30 4 C 39.241469 28.349519 52.030946 0
M  V30 5 N 39.645138 29.630975 52.318606 0
M  V30 6 O 39.571433 30.213489 53.551042 0 CHG=-1
M  V30 7 H 40.350165 29.516632 49.147989 0
M  V30 8 H 39.267270 27.222359 50.167760 0
M  V30 9 H 40.500470 31.257497 51.220461 0
M  V30 10 H 38.825682 27.711616 52.796382 0
M  V30 END ATOM
M  V30 BEGIN BOND
M  V30 1 1 2 1
M  V30 2 2 3 1
M  V30 3 2 4 2
M  V30 4 1 5 3
M  V30 5 1 5 4
M  V30 6 1 6 5
M  V30 7 1 7 1
M  V30 8 1 8 2
M  V30 9 1 9 3
M  V30 10 1 10 4
M  V30 END BOND
M  V30 END CTAB
M  END
>  <i_epik_Tot_Q>  (1) 
-1

>  <i_epik_Tot_abs_Q>  (1) 
1

>  <i_i_glide_confnum>  (1) 
1

>  <i_i_glide_lignum>  (1) 
19

>  <i_i_glide_posenum>  (1) 
110

>  <i_i_glide_rotatable_bonds>  (1) 
0

>  <i_lp_mmshare_version>  (1) 
72125

>  <i_m_source_file_index>  (1) 
19

>  <i_f3d_flags>  (1) 
0

>  <num_sample>  (1) 
50

>  <b_lp_Chiralities_Consistent>  (1) 
1

>  <r_epik_Charging_Adjusted_Penalty>  (1) 
0.038602441834166765

>  <r_epik_Ionization_Penalty>  (1) 
0.019301220976331968

>  <r_epik_Ionization_Penalty_Charging>  (1) 
0.019301220917083386

>  <r_epik_Ionization_Penalty_Neutral>  (1) 
5.9248581604286784e-11

>  <r_epik_State_Penalty>  (1) 
0.019301220917083379

>  <r_glide_ring_energy>  (1) 
0

>  <r_i_docking_score>  (1) 
-4.990095968818113

>  <r_i_glide_ecoul>  (1) 
-0.18796641025645955

>  <r_i_glide_eff_state_penalty>  (1) 
0.019301220917083379

>  <r_i_glide_einternal>  (1) 
0

>  <r_i_glide_emodel>  (1) 
-18.626892210391215

>  <r_i_glide_emodel_strain>  (1) 
0

>  <r_i_glide_energy>  (1) 
-13.785762852416299

>  <r_i_glide_erotb>  (1) 
0

>  <r_i_glide_esite>  (1) 
0

>  <r_i_glide_evdw>  (1) 
-13.59779644215984

>  <r_i_glide_gscore>  (1) 
-5.0093971897351963

>  <r_i_glide_gscore_strain>  (1) 
0

>  <r_i_glide_hbond>  (1) 
0

>  <r_i_glide_ligand_efficiency>  (1) 
-0.8316826614696855

>  <r_i_glide_ligand_efficiency_ln>  (1) 
-1.7874376441885649

>  <r_i_glide_ligand_efficiency_sa>  (1) 
-1.5112676908580067

>  <r_i_glide_lipo>  (1) 
-1.2617866336340786

>  <r_i_glide_metal>  (1) 
-0

>  <r_i_glide_rewards>  (1) 
-3.0395257724546565

>  <r_lp_Energy>  (1) 
1.8910769999999999

>  <r_lp_tautomer_probability>  (1) 
1

>  <s_epik_cmdline>  (1) 
J2VwaWtfcHl0aG9uJywgJy1waHQnLCAnMS4wJywgJy1waCcsICc3LjQnLCAnLXRuJywgJzgnLCAnLW1hJywgJzUwMCcsICctaW1hZScsICc8aW5maWxlLm1hZT4nLCAnLW9tYWUnLCAnPG91dGZpbGUubWFlPic=

>  <s_epik_input>  (1) 
W2NIXTFbY0hdW2NIXVtjSF1uMVtPSF0=

>  <s_glide_docking_method>  (1) 
confgen

>  <s_i_glide_gridfile>  (1) 
gpcr_5ht2c_6bqh_protein_autoprepared_prepared

>  <s_lp_Force_Field>  (1) 
S-OPLS

>  <s_lp_Variant>  (1) 
Pocket2Mol_18-1

>  <s_m_source_file>  (1) 
generated_GPCR_5HT2C_ligand_Pocket2Mol_2026-06-23_prepared.sdf

>  <GenAI_Model>  (1) 
Pocket2Mol

>  <Protein>  (1) 
GPCR_5HT2C

$$$$
Pocket2Mol_41
     RDKit          3D

  0  0  0  0  0  0  0  0  0  0999 V3000
M  V30 BEGIN CTAB
M  V30 COUNTS 15 15 0 0 1
M  V30 BEGIN ATOM
M  V30 1 C 38.451390 27.584210 52.909403 0
M  V30 2 O 37.987749 28.770732 53.524702 0
M  V30 3 C 39.025664 29.667694 53.886842 0
M  V30 4 C 38.833952 27.877093 51.460666 0
M  V30 5 O 40.103584 28.498228 51.367906 0
M  V30 6 C 39.645124 30.420713 52.718520 0
M  V30 7 C 40.126504 29.848794 51.594892 0
M  V30 8 H 39.270344 27.122256 53.462889 0
M  V30 9 H 37.625312 26.873299 52.920561 0
M  V30 10 H 39.793288 29.177875 54.485844 0
M  V30 11 H 38.573831 30.415453 54.538951 0
M  V30 12 H 38.898504 26.937752 50.911217 0
M  V30 13 H 38.061809 28.468483 50.967766 0
M  V30 14 H 39.702122 31.493986 52.824355 0
M  V30 15 H 40.571344 30.394779 50.775286 0
M  V30 END ATOM
M  V30 BEGIN BOND
M  V30 1 1 2 1
M  V30 2 1 3 2
M  V30 3 1 4 1
M  V30 4 1 5 4
M  V30 5 1 6 3
M  V30 6 1 7 5
M  V30 7 2 7 6
M  V30 8 1 8 1
M  V30 9 1 9 1
M  V30 10 1 10 3
M  V30 11 1 11 3
M  V30 12 1 12 4
M  V30 13 1 13 4
M  V30 14 1 14 6
M  V30 15 1 15 7
M  V30 END BOND
M  V30 END CTAB
M  END
>  <i_epik_Tot_Q>  (1) 
0

>  <i_epik_Tot_abs_Q>  (1) 
0

>  <i_i_glide_confnum>  (1) 
1

>  <i_i_glide_lignum>  (1) 
42

>  <i_i_glide_posenum>  (1) 
43

>  <i_i_glide_rotatable_bonds>  (1) 
0

>  <i_lp_mmshare_version>  (1) 
72125

>  <i_m_source_file_index>  (1) 
42

>  <i_f3d_flags>  (1) 
0

>  <num_sample>  (1) 
50

>  <b_lp_Chiralities_Consistent>  (1) 
1

>  <r_epik_Charging_Adjusted_Penalty>  (1) 
0

>  <r_epik_Ionization_Penalty>  (1) 
5.6701613537443791e-14

>  <r_epik_Ionization_Penalty_Charging>  (1) 
0

>  <r_epik_Ionization_Penalty_Neutral>  (1) 
5.6701613537443791e-14

>  <r_epik_State_Penalty>  (1) 
-0

>  <r_glide_ring_energy>  (1) 
0

>  <r_i_docking_score>  (1) 
-4.9800603660043734

>  <r_i_glide_ecoul>  (1) 
-1.3251893926198646

>  <r_i_glide_eff_state_penalty>  (1) 
-0

>  <r_i_glide_einternal>  (1) 
0

>  <r_i_glide_emodel>  (1) 
-21.906511480799189

>  <r_i_glide_emodel_strain>  (1) 
0

>  <r_i_glide_energy>  (1) 
-16.799641022716123

>  <r_i_glide_erotb>  (1) 
0

>  <r_i_glide_esite>  (1) 
0

>  <r_i_glide_evdw>  (1) 
-15.474451630096258

>  <r_i_glide_gscore>  (1) 
-4.9800603660043734

>  <r_i_glide_gscore_strain>  (1) 
0

>  <r_i_glide_hbond>  (1) 
0

>  <r_i_glide_ligand_efficiency>  (1) 
-0.71143719514348192

>  <r_i_glide_ligand_efficiency_ln>  (1) 
-1.6904997484737836

>  <r_i_glide_ligand_efficiency_sa>  (1) 
-1.3609303951740919

>  <r_i_glide_lipo>  (1) 
-1.512730565821252

>  <r_i_glide_metal>  (1) 
-0

>  <r_i_glide_rewards>  (1) 
-2.4948288097853282

>  <r_lp_Energy>  (1) 
7.3473649999999999

>  <r_lp_tautomer_probability>  (1) 
1

>  <s_epik_cmdline>  (1) 
J2VwaWtfcHl0aG9uJywgJy1waHQnLCAnMS4wJywgJy1waCcsICc3LjQnLCAnLXRuJywgJzgnLCAnLW1hJywgJzUwMCcsICctaW1hZScsICc8aW5maWxlLm1hZT4nLCAnLW9tYWUnLCAnPG91dGZpbGUubWFlPic=

>  <s_epik_input>  (1) 
W0NIMl0xT1tDSDJdW0NIXT1bQ0hdT1tDSDJdMQ==

>  <s_glide_docking_method>  (1) 
confgen

>  <s_i_glide_gridfile>  (1) 
gpcr_5ht2c_6bqh_protein_autoprepared_prepared

>  <s_lp_Force_Field>  (1) 
S-OPLS

>  <s_lp_Variant>  (1) 
Pocket2Mol_41-1

>  <s_m_source_file>  (1) 
generated_GPCR_5HT2C_ligand_Pocket2Mol_2026-06-23_prepared.sdf

>  <GenAI_Model>  (1) 
Pocket2Mol

>  <Protein>  (1) 
GPCR_5HT2C

$$$$
Pocket2Mol_14
     RDKit          3D

  0  0  0  0  0  0  0  0  0  0999 V3000
M  V30 BEGIN CTAB
M  V30 COUNTS 18 18 0 0 1
M  V30 BEGIN ATOM
M  V30 1 C 39.038464 27.338256 52.331967 0
M  V30 2 C 38.178461 27.129409 53.585888 0
M  V30 3 C 38.925012 28.824477 52.007965 0
M  V30 4 C 37.974862 28.519436 54.207115 0
M  V30 5 C 38.845136 29.477145 53.389705 0
M  V30 6 C 40.045136 29.357483 51.103826 0
M  V30 7 H 38.731169 26.710819 51.495099 0
M  V30 8 H 40.069931 27.084630 52.567455 0
M  V30 9 H 37.214521 26.692143 53.324532 0
M  V30 10 H 38.665906 26.444543 54.280824 0
M  V30 11 H 37.971468 28.974152 51.502708 0
M  V30 12 H 36.927123 28.808749 54.117202 0
M  V30 13 H 38.227089 28.542371 55.267744 0
M  V30 14 H 39.837466 29.542453 53.835122 0
M  V30 15 H 38.439065 30.488245 53.367743 0
M  V30 16 H 41.028825 29.188861 51.539434 0
M  V30 17 H 39.934738 30.428443 50.932380 0
M  V30 18 H 40.023635 28.864189 50.131787 0
M  V30 END ATOM
M  V30 BEGIN BOND
M  V30 1 1 2 1
M  V30 2 1 3 1
M  V30 3 1 4 2
M  V30 4 1 5 3
M  V30 5 1 5 4
M  V30 6 1 6 3
M  V30 7 1 7 1
M  V30 8 1 8 1
M  V30 9 1 9 2
M  V30 10 1 10 2
M  V30 11 1 11 3
M  V30 12 1 12 4
M  V30 13 1 13 4
M  V30 14 1 14 5
M  V30 15 1 15 5
M  V30 16 1 16 6
M  V30 17 1 17 6
M  V30 18 1 18 6
M  V30 END BOND
M  V30 END CTAB
M  END
>  <i_epik_Tot_Q>  (1) 
0

>  <i_epik_Tot_abs_Q>  (1) 
0

>  <i_i_glide_confnum>  (1) 
4

>  <i_i_glide_lignum>  (1) 
15

>  <i_i_glide_posenum>  (1) 
270

>  <i_i_glide_rotatable_bonds>  (1) 
0

>  <i_lp_mmshare_version>  (1) 
72125

>  <i_m_source_file_index>  (1) 
15

>  <i_f3d_flags>  (1) 
0

>  <num_sample>  (1) 
50

>  <b_lp_Chiralities_Consistent>  (1) 
1

>  <r_epik_Charging_Adjusted_Penalty>  (1) 
0

>  <r_epik_Ionization_Penalty>  (1) 
0

>  <r_epik_Ionization_Penalty_Charging>  (1) 
0

>  <r_epik_Ionization_Penalty_Neutral>  (1) 
0

>  <r_epik_State_Penalty>  (1) 
-0

>  <r_glide_ring_energy>  (1) 
1.1090637560940064

>  <r_i_docking_score>  (1) 
-4.9775586169726687

>  <r_i_glide_ecoul>  (1) 
0.062671087840906248

>  <r_i_glide_eff_state_penalty>  (1) 
-0

>  <r_i_glide_einternal>  (1) 
0

>  <r_i_glide_emodel>  (1) 
-20.127581785268852

>  <r_i_glide_emodel_strain>  (1) 
0

>  <r_i_glide_energy>  (1) 
-15.244432868367534

>  <r_i_glide_erotb>  (1) 
0

>  <r_i_glide_esite>  (1) 
0

>  <r_i_glide_evdw>  (1) 
-15.30710395620844

>  <r_i_glide_gscore>  (1) 
-4.9775586169726687

>  <r_i_glide_gscore_strain>  (1) 
0

>  <r_i_glide_hbond>  (1) 
0

>  <r_i_glide_ligand_efficiency>  (1) 
-0.82959310282877807

>  <r_i_glide_ligand_efficiency_ln>  (1) 
-1.7829468017704999

>  <r_i_glide_ligand_efficiency_sa>  (1) 
-1.5074707108216836

>  <r_i_glide_lipo>  (1) 
-1.8113652065299444

>  <r_i_glide_metal>  (1) 
-0

>  <r_i_glide_rewards>  (1) 
-2.4102388758084379

>  <r_lp_Energy>  (1) 
6.4120089999999994

>  <r_lp_tautomer_probability>  (1) 
1

>  <s_epik_cmdline>  (1) 
J2VwaWtfcHl0aG9uJywgJy1waHQnLCAnMS4wJywgJy1waCcsICc3LjQnLCAnLXRuJywgJzgnLCAnLW1hJywgJzUwMCcsICctaW1hZScsICc8aW5maWxlLm1hZT4nLCAnLW9tYWUnLCAnPG91dGZpbGUubWFlPic=

>  <s_epik_input>  (1) 
W0NIM11bQ0hdMVtDSDJdW0NIMl1bQ0gyXVtDSDJdMQ==

>  <s_glide_docking_method>  (1) 
confgen

>  <s_i_glide_gridfile>  (1) 
gpcr_5ht2c_6bqh_protein_autoprepared_prepared

>  <s_lp_Force_Field>  (1) 
S-OPLS

>  <s_lp_Variant>  (1) 
Pocket2Mol_14-1

>  <s_m_source_file>  (1) 
generated_GPCR_5HT2C_ligand_Pocket2Mol_2026-06-23_prepared.sdf

>  <GenAI_Model>  (1) 
Pocket2Mol

>  <Protein>  (1) 
GPCR_5HT2C

$$$$
Pocket2Mol_18
     RDKit          3D

  0  0  0  0  0  0  0  0  0  0999 V3000
M  V30 BEGIN CTAB
M  V30 COUNTS 10 10 0 0 1
M  V30 BEGIN ATOM
M  V30 1 C 40.094261 30.298448 51.265241 0
M  V30 2 C 40.045134 29.289485 50.255226 0
M  V30 3 C 39.645138 29.737830 52.430574 0
M  V30 4 C 39.567453 28.145073 50.837392 0
M  V30 5 N 39.326974 28.428562 52.159016 0
M  V30 6 O 38.845077 27.535480 53.074512 0 CHG=-1
M  V30 7 H 40.423115 31.321096 51.149926 0
M  V30 8 H 40.326457 29.391250 49.217760 0
M  V30 9 H 39.522619 30.146450 53.422357 0
M  V30 10 H 39.376794 27.160335 50.436010 0
M  V30 END ATOM
M  V30 BEGIN BOND
M  V30 1 1 2 1
M  V30 2 2 3 1
M  V30 3 2 4 2
M  V30 4 1 5 3
M  V30 5 1 5 4
M  V30 6 1 6 5
M  V30 7 1 7 1
M  V30 8 1 8 2
M  V30 9 1 9 3
M  V30 10 1 10 4
M  V30 END BOND
M  V30 END CTAB
M  END
>  <i_epik_Tot_Q>  (1) 
-1

>  <i_epik_Tot_abs_Q>  (1) 
1

>  <i_i_glide_confnum>  (1) 
1

>  <i_i_glide_lignum>  (1) 
19

>  <i_i_glide_posenum>  (1) 
10

>  <i_i_glide_rotatable_bonds>  (1) 
0

>  <i_lp_mmshare_version>  (1) 
72125

>  <i_m_source_file_index>  (1) 
19

>  <i_f3d_flags>  (1) 
0

>  <num_sample>  (1) 
50

>  <b_lp_Chiralities_Consistent>  (1) 
1

>  <r_epik_Charging_Adjusted_Penalty>  (1) 
0.038602441834166765

>  <r_epik_Ionization_Penalty>  (1) 
0.019301220976331968

>  <r_epik_Ionization_Penalty_Charging>  (1) 
0.019301220917083386

>  <r_epik_Ionization_Penalty_Neutral>  (1) 
5.9248581604286784e-11

>  <r_epik_State_Penalty>  (1) 
0.019301220917083379

>  <r_glide_ring_energy>  (1) 
0

>  <r_i_docking_score>  (1) 
-4.9757454167332362

>  <r_i_glide_ecoul>  (1) 
-0.13534368597503077

>  <r_i_glide_eff_state_penalty>  (1) 
0.019301220917083379

>  <r_i_glide_einternal>  (1) 
0

>  <r_i_glide_emodel>  (1) 
-18.309353326324239

>  <r_i_glide_emodel_strain>  (1) 
0

>  <r_i_glide_energy>  (1) 
-13.482092479144116

>  <r_i_glide_erotb>  (1) 
0

>  <r_i_glide_esite>  (1) 
0

>  <r_i_glide_evdw>  (1) 
-13.346748793169086

>  <r_i_glide_gscore>  (1) 
-4.9950466376503195

>  <r_i_glide_gscore_strain>  (1) 
0

>  <r_i_glide_hbond>  (1) 
0

>  <r_i_glide_ligand_efficiency>  (1) 
-0.82929090278887274

>  <r_i_glide_ligand_efficiency_ln>  (1) 
-1.7822973187976943

>  <r_i_glide_ligand_efficiency_sa>  (1) 
-1.5069215769060169

>  <r_i_glide_lipo>  (1) 
-1.2907530488786418

>  <r_i_glide_metal>  (1) 
-0

>  <r_i_glide_rewards>  (1) 
-3.0166545962169691

>  <r_lp_Energy>  (1) 
1.8910769999999999

>  <r_lp_tautomer_probability>  (1) 
1

>  <s_epik_cmdline>  (1) 
J2VwaWtfcHl0aG9uJywgJy1waHQnLCAnMS4wJywgJy1waCcsICc3LjQnLCAnLXRuJywgJzgnLCAnLW1hJywgJzUwMCcsICctaW1hZScsICc8aW5maWxlLm1hZT4nLCAnLW9tYWUnLCAnPG91dGZpbGUubWFlPic=

>  <s_epik_input>  (1) 
W2NIXTFbY0hdW2NIXVtjSF1uMVtPSF0=

>  <s_glide_docking_method>  (1) 
confgen

>  <s_i_glide_gridfile>  (1) 
gpcr_5ht2c_6bqh_protein_autoprepared_prepared

>  <s_lp_Force_Field>  (1) 
S-OPLS

>  <s_lp_Variant>  (1) 
Pocket2Mol_18-1

>  <s_m_source_file>  (1) 
generated_GPCR_5HT2C_ligand_Pocket2Mol_2026-06-23_prepared.sdf

>  <GenAI_Model>  (1) 
Pocket2Mol

>  <Protein>  (1) 
GPCR_5HT2C

$$$$
Pocket2Mol_33
     RDKit          3D

  0  0  0  0  0  0  0  0  0  0999 V3000
M  V30 BEGIN CTAB
M  V30 COUNTS 17 17 0 0 1
M  V30 BEGIN ATOM
M  V30 1 C 38.672193 29.472812 53.880786 0
M  V30 2 O 38.886798 28.155936 53.389242 0
M  V30 3 C 38.371135 27.968798 52.078919 0
M  V30 4 C 39.665800 30.485716 53.293841 0
M  V30 5 O 39.645142 30.538073 51.871015 0
M  V30 6 C 39.392593 28.260107 50.970546 0
M  V30 7 C 40.309558 29.462999 51.221839 0
M  V30 8 H 37.642953 29.794105 53.718265 0
M  V30 9 H 38.805322 29.444909 54.962900 0
M  V30 10 H 38.048696 26.934736 51.989863 0
M  V30 11 H 37.466292 28.554169 51.918783 0
M  V30 12 H 39.398571 31.479249 53.654452 0
M  V30 13 H 40.673956 30.302485 53.663970 0
M  V30 14 H 40.011575 27.378908 50.797374 0
M  V30 15 H 38.845420 28.418580 50.041461 0
M  V30 16 H 41.199238 29.155400 51.767525 0
M  V30 17 H 40.673622 29.829541 50.260450 0
M  V30 END ATOM
M  V30 BEGIN BOND
M  V30 1 1 2 1
M  V30 2 1 3 2
M  V30 3 1 4 1
M  V30 4 1 5 4
M  V30 5 1 6 3
M  V30 6 1 7 5
M  V30 7 1 7 6
M  V30 8 1 8 1
M  V30 9 1 9 1
M  V30 10 1 10 3
M  V30 11 1 11 3
M  V30 12 1 12 4
M  V30 13 1 13 4
M  V30 14 1 14 6
M  V30 15 1 15 6
M  V30 16 1 16 7
M  V30 17 1 17 7
M  V30 END BOND
M  V30 END CTAB
M  END
>  <i_epik_Tot_Q>  (1) 
0

>  <i_epik_Tot_abs_Q>  (1) 
0

>  <i_i_glide_confnum>  (1) 
8

>  <i_i_glide_lignum>  (1) 
34

>  <i_i_glide_posenum>  (1) 
334

>  <i_i_glide_rotatable_bonds>  (1) 
0

>  <i_lp_mmshare_version>  (1) 
72125

>  <i_m_source_file_index>  (1) 
34

>  <i_f3d_flags>  (1) 
0

>  <num_sample>  (1) 
50

>  <b_lp_Chiralities_Consistent>  (1) 
1

>  <r_epik_Charging_Adjusted_Penalty>  (1) 
0

>  <r_epik_Ionization_Penalty>  (1) 
3.933197540425548e-12

>  <r_epik_Ionization_Penalty_Charging>  (1) 
0

>  <r_epik_Ionization_Penalty_Neutral>  (1) 
3.933197540425548e-12

>  <r_epik_State_Penalty>  (1) 
-0

>  <r_glide_ring_energy>  (1) 
0.00055159938950669681

>  <r_i_docking_score>  (1) 
-4.9664368852488847

>  <r_i_glide_ecoul>  (1) 
-0.46371998180527885

>  <r_i_glide_eff_state_penalty>  (1) 
-0

>  <r_i_glide_einternal>  (1) 
0

>  <r_i_glide_emodel>  (1) 
-20.769829594655299

>  <r_i_glide_emodel_strain>  (1) 
2.2738352001283602e-07

>  <r_i_glide_energy>  (1) 
-15.576496383323173

>  <r_i_glide_erotb>  (1) 
0

>  <r_i_glide_esite>  (1) 
0

>  <r_i_glide_evdw>  (1) 
-15.112776401517895

>  <r_i_glide_gscore>  (1) 
-4.9664368852488847

>  <r_i_glide_gscore_strain>  (1) 
0

>  <r_i_glide_hbond>  (1) 
0

>  <r_i_glide_ligand_efficiency>  (1) 
-0.70949098360698348

>  <r_i_glide_ligand_efficiency_ln>  (1) 
-1.6858752079867434

>  <r_i_glide_ligand_efficiency_sa>  (1) 
-1.3572074264376528

>  <r_i_glide_lipo>  (1) 
-1.550901651122623

>  <r_i_glide_metal>  (1) 
-0

>  <r_i_glide_rewards>  (1) 
-2.5903384167795758

>  <r_lp_Energy>  (1) 
9.6410049999999998

>  <r_lp_tautomer_probability>  (1) 
1

>  <s_epik_cmdline>  (1) 
J2VwaWtfcHl0aG9uJywgJy1waHQnLCAnMS4wJywgJy1waCcsICc3LjQnLCAnLXRuJywgJzgnLCAnLW1hJywgJzUwMCcsICctaW1hZScsICc8aW5maWxlLm1hZT4nLCAnLW9tYWUnLCAnPG91dGZpbGUubWFlPic=

>  <s_epik_input>  (1) 
W0NIMl0xT1tDSDJdW0NIMl1bQ0gyXU9bQ0gyXTE=

>  <s_glide_docking_method>  (1) 
confgen

>  <s_i_glide_gridfile>  (1) 
gpcr_5ht2c_6bqh_protein_autoprepared_prepared

>  <s_lp_Force_Field>  (1) 
S-OPLS

>  <s_lp_Variant>  (1) 
Pocket2Mol_33-1

>  <s_m_source_file>  (1) 
generated_GPCR_5HT2C_ligand_Pocket2Mol_2026-06-23_prepared.sdf

>  <GenAI_Model>  (1) 
Pocket2Mol

>  <Protein>  (1) 
GPCR_5HT2C

$$$$
Pocket2Mol_41
     RDKit          3D

  0  0  0  0  0  0  0  0  0  0999 V3000
M  V30 BEGIN CTAB
M  V30 COUNTS 15 15 0 0 1
M  V30 BEGIN ATOM
M  V30 1 C 38.999415 27.781458 51.206684 0
M  V30 2 O 38.878239 27.337955 52.542217 0
M  V30 3 C 38.168811 28.253004 53.358877 0
M  V30 4 C 40.071047 28.864853 51.098898 0
M  V30 5 O 39.645335 30.127650 51.588680 0
M  V30 6 C 38.998007 29.448784 53.792053 0
M  V30 7 C 39.645718 30.281684 52.952363 0
M  V30 8 H 39.299481 26.923674 50.604080 0
M  V30 9 H 38.045143 28.127076 50.812747 0
M  V30 10 H 37.882662 27.716604 54.263324 0
M  V30 11 H 37.238395 28.582291 52.891790 0
M  V30 12 H 40.998754 28.550083 51.577975 0
M  V30 13 H 40.308153 29.004801 50.044340 0
M  V30 14 H 39.045109 29.634257 54.855092 0
M  V30 15 H 40.225962 31.136735 53.267574 0
M  V30 END ATOM
M  V30 BEGIN BOND
M  V30 1 1 2 1
M  V30 2 1 3 2
M  V30 3 1 4 1
M  V30 4 1 5 4
M  V30 5 1 6 3
M  V30 6 1 7 5
M  V30 7 2 7 6
M  V30 8 1 8 1
M  V30 9 1 9 1
M  V30 10 1 10 3
M  V30 11 1 11 3
M  V30 12 1 12 4
M  V30 13 1 13 4
M  V30 14 1 14 6
M  V30 15 1 15 7
M  V30 END BOND
M  V30 END CTAB
M  END
>  <i_epik_Tot_Q>  (1) 
0

>  <i_epik_Tot_abs_Q>  (1) 
0

>  <i_i_glide_confnum>  (1) 
2

>  <i_i_glide_lignum>  (1) 
42

>  <i_i_glide_posenum>  (1) 
224

>  <i_i_glide_rotatable_bonds>  (1) 
0

>  <i_lp_mmshare_version>  (1) 
72125

>  <i_m_source_file_index>  (1) 
42

>  <i_f3d_flags>  (1) 
0

>  <num_sample>  (1) 
50

>  <b_lp_Chiralities_Consistent>  (1) 
1

>  <r_epik_Charging_Adjusted_Penalty>  (1) 
0

>  <r_epik_Ionization_Penalty>  (1) 
5.6701613537443791e-14

>  <r_epik_Ionization_Penalty_Charging>  (1) 
0

>  <r_epik_Ionization_Penalty_Neutral>  (1) 
5.6701613537443791e-14

>  <r_epik_State_Penalty>  (1) 
-0

>  <r_glide_ring_energy>  (1) 
0.00079047383587571227

>  <r_i_docking_score>  (1) 
-4.9533646170421823

>  <r_i_glide_ecoul>  (1) 
-0.29980548743692736

>  <r_i_glide_eff_state_penalty>  (1) 
-0

>  <r_i_glide_einternal>  (1) 
0

>  <r_i_glide_emodel>  (1) 
-21.574104666354422

>  <r_i_glide_emodel_strain>  (1) 
0

>  <r_i_glide_energy>  (1) 
-16.494609726179142

>  <r_i_glide_erotb>  (1) 
0

>  <r_i_glide_esite>  (1) 
0

>  <r_i_glide_evdw>  (1) 
-16.194804238742215

>  <r_i_glide_gscore>  (1) 
-4.9533646170421823

>  <r_i_glide_gscore_strain>  (1) 
0

>  <r_i_glide_hbond>  (1) 
0

>  <r_i_glide_ligand_efficiency>  (1) 
-0.70762351672031176

>  <r_i_glide_ligand_efficiency_ln>  (1) 
-1.6814377786201709

>  <r_i_glide_ligand_efficiency_sa>  (1) 
-1.3536350907973436

>  <r_i_glide_lipo>  (1) 
-1.5185590194709673

>  <r_i_glide_metal>  (1) 
-0

>  <r_i_glide_rewards>  (1) 
-2.5800945625185654

>  <r_lp_Energy>  (1) 
7.3473649999999999

>  <r_lp_tautomer_probability>  (1) 
1

>  <s_epik_cmdline>  (1) 
J2VwaWtfcHl0aG9uJywgJy1waHQnLCAnMS4wJywgJy1waCcsICc3LjQnLCAnLXRuJywgJzgnLCAnLW1hJywgJzUwMCcsICctaW1hZScsICc8aW5maWxlLm1hZT4nLCAnLW9tYWUnLCAnPG91dGZpbGUubWFlPic=

>  <s_epik_input>  (1) 
W0NIMl0xT1tDSDJdW0NIXT1bQ0hdT1tDSDJdMQ==

>  <s_glide_docking_method>  (1) 
confgen

>  <s_i_glide_gridfile>  (1) 
gpcr_5ht2c_6bqh_protein_autoprepared_prepared

>  <s_lp_Force_Field>  (1) 
S-OPLS

>  <s_lp_Variant>  (1) 
Pocket2Mol_41-1

>  <s_m_source_file>  (1) 
generated_GPCR_5HT2C_ligand_Pocket2Mol_2026-06-23_prepared.sdf

>  <GenAI_Model>  (1) 
Pocket2Mol

>  <Protein>  (1) 
GPCR_5HT2C

$$$$
Pocket2Mol_33
     RDKit          3D

  0  0  0  0  0  0  0  0  0  0999 V3000
M  V30 BEGIN CTAB
M  V30 COUNTS 17 17 0 0 1
M  V30 BEGIN ATOM
M  V30 1 C 39.285238 27.879539 51.117489 0
M  V30 2 O 38.861822 27.399020 52.385394 0
M  V30 3 C 37.813675 28.180370 52.940639 0
M  V30 4 C 40.248737 29.063699 51.247291 0
M  V30 5 O 39.645140 30.199709 51.845775 0
M  V30 6 C 38.319785 29.353711 53.794610 0
M  V30 7 C 39.535024 30.137538 53.262622 0
M  V30 8 H 39.799385 27.062440 50.611283 0
M  V30 9 H 38.445137 28.137756 50.476373 0
M  V30 10 H 37.130160 28.537743 52.168449 0
M  V30 11 H 37.212140 27.526907 53.573141 0
M  V30 12 H 41.160683 28.774923 51.767635 0
M  V30 13 H 40.558428 29.361403 50.245485 0
M  V30 14 H 37.488686 30.043518 53.943295 0
M  V30 15 H 38.567613 28.987919 54.791525 0
M  V30 16 H 39.471386 31.161955 53.630906 0
M  V30 17 H 40.445137 29.738366 53.696949 0
M  V30 END ATOM
M  V30 BEGIN BOND
M  V30 1 1 2 1
M  V30 2 1 3 2
M  V30 3 1 4 1
M  V30 4 1 5 4
M  V30 5 1 6 3
M  V30 6 1 7 5
M  V30 7 1 7 6
M  V30 8 1 8 1
M  V30 9 1 9 1
M  V30 10 1 10 3
M  V30 11 1 11 3
M  V30 12 1 12 4
M  V30 13 1 13 4
M  V30 14 1 14 6
M  V30 15 1 15 6
M  V30 16 1 16 7
M  V30 17 1 17 7
M  V30 END BOND
M  V30 END CTAB
M  END
>  <i_epik_Tot_Q>  (1) 
0

>  <i_epik_Tot_abs_Q>  (1) 
0

>  <i_i_glide_confnum>  (1) 
11

>  <i_i_glide_lignum>  (1) 
34

>  <i_i_glide_posenum>  (1) 
348

>  <i_i_glide_rotatable_bonds>  (1) 
0

>  <i_lp_mmshare_version>  (1) 
72125

>  <i_m_source_file_index>  (1) 
34

>  <i_f3d_flags>  (1) 
0

>  <num_sample>  (1) 
50

>  <b_lp_Chiralities_Consistent>  (1) 
1

>  <r_epik_Charging_Adjusted_Penalty>  (1) 
0

>  <r_epik_Ionization_Penalty>  (1) 
3.933197540425548e-12

>  <r_epik_Ionization_Penalty_Charging>  (1) 
0

>  <r_epik_Ionization_Penalty_Neutral>  (1) 
3.933197540425548e-12

>  <r_epik_State_Penalty>  (1) 
-0

>  <r_glide_ring_energy>  (1) 
0.00070385905571176553

>  <r_i_docking_score>  (1) 
-4.9486411047221637

>  <r_i_glide_ecoul>  (1) 
0.11356121813056318

>  <r_i_glide_eff_state_penalty>  (1) 
-0

>  <r_i_glide_einternal>  (1) 
0

>  <r_i_glide_emodel>  (1) 
-20.894418928838018

>  <r_i_glide_emodel_strain>  (1) 
0

>  <r_i_glide_energy>  (1) 
-15.719694288384154

>  <r_i_glide_erotb>  (1) 
0

>  <r_i_glide_esite>  (1) 
0

>  <r_i_glide_evdw>  (1) 
-15.833255506514718

>  <r_i_glide_gscore>  (1) 
-4.9486411047221637

>  <r_i_glide_gscore_strain>  (1) 
0

>  <r_i_glide_hbond>  (1) 
0

>  <r_i_glide_ligand_efficiency>  (1) 
-0.70694872924602337

>  <r_i_glide_ligand_efficiency_ln>  (1) 
-1.6798343650464291

>  <r_i_glide_ligand_efficiency_sa>  (1) 
-1.352344268796033

>  <r_i_glide_lipo>  (1) 
-1.5634758154086821

>  <r_i_glide_metal>  (1) 
-0

>  <r_i_glide_rewards>  (1) 
-2.6105366967073298

>  <r_lp_Energy>  (1) 
9.6410049999999998

>  <r_lp_tautomer_probability>  (1) 
1

>  <s_epik_cmdline>  (1) 
J2VwaWtfcHl0aG9uJywgJy1waHQnLCAnMS4wJywgJy1waCcsICc3LjQnLCAnLXRuJywgJzgnLCAnLW1hJywgJzUwMCcsICctaW1hZScsICc8aW5maWxlLm1hZT4nLCAnLW9tYWUnLCAnPG91dGZpbGUubWFlPic=

>  <s_epik_input>  (1) 
W0NIMl0xT1tDSDJdW0NIMl1bQ0gyXU9bQ0gyXTE=

>  <s_glide_docking_method>  (1) 
confgen

>  <s_i_glide_gridfile>  (1) 
gpcr_5ht2c_6bqh_protein_autoprepared_prepared

>  <s_lp_Force_Field>  (1) 
S-OPLS

>  <s_lp_Variant>  (1) 
Pocket2Mol_33-1

>  <s_m_source_file>  (1) 
generated_GPCR_5HT2C_ligand_Pocket2Mol_2026-06-23_prepared.sdf

>  <GenAI_Model>  (1) 
Pocket2Mol

>  <Protein>  (1) 
GPCR_5HT2C

$$$$
Pocket2Mol_2
     RDKit          3D

  0  0  0  0  0  0  0  0  0  0999 V3000
M  V30 BEGIN CTAB
M  V30 COUNTS 9 9 0 0 1
M  V30 BEGIN ATOM
M  V30 1 C 38.690504 28.861331 52.884126 0
M  V30 2 C 39.645133 29.577302 52.120151 0
M  V30 3 C 38.443746 27.798348 52.229729 0
M  V30 4 C 39.245880 27.862181 51.064065 0
M  V30 5 C 40.017923 28.971629 50.967760 0
M  V30 6 H 38.259312 29.158345 53.829172 0
M  V30 7 H 40.039486 30.530189 52.442608 0
M  V30 8 H 37.759582 27.008286 52.505961 0
M  V30 9 H 39.236599 27.080396 50.318268 0
M  V30 END ATOM
M  V30 BEGIN BOND
M  V30 1 1 2 1
M  V30 2 2 3 1
M  V30 3 1 4 3
M  V30 4 2 5 2
M  V30 5 2 5 4
M  V30 6 1 6 1
M  V30 7 1 7 2
M  V30 8 1 8 3
M  V30 9 1 9 4
M  V30 END BOND
M  V30 END CTAB
M  END
>  <i_epik_Tot_Q>  (1) 
0

>  <i_epik_Tot_abs_Q>  (1) 
0

>  <i_i_glide_confnum>  (1) 
1

>  <i_i_glide_lignum>  (1) 
3

>  <i_i_glide_posenum>  (1) 
144

>  <i_i_glide_rotatable_bonds>  (1) 
0

>  <i_lp_mmshare_version>  (1) 
72125

>  <i_m_source_file_index>  (1) 
3

>  <i_f3d_flags>  (1) 
0

>  <num_sample>  (1) 
50

>  <b_lp_Chiralities_Consistent>  (1) 
1

>  <r_epik_Charging_Adjusted_Penalty>  (1) 
0

>  <r_epik_Ionization_Penalty>  (1) 
0

>  <r_epik_Ionization_Penalty_Charging>  (1) 
0

>  <r_epik_Ionization_Penalty_Neutral>  (1) 
0

>  <r_epik_State_Penalty>  (1) 
-0

>  <r_glide_ring_energy>  (1) 
0

>  <r_i_docking_score>  (1) 
-4.9467934326046334

>  <r_i_glide_ecoul>  (1) 
-0.72728905707181923

>  <r_i_glide_eff_state_penalty>  (1) 
-0

>  <r_i_glide_einternal>  (1) 
0

>  <r_i_glide_emodel>  (1) 
-19.067578880837694

>  <r_i_glide_emodel_strain>  (1) 
0

>  <r_i_glide_energy>  (1) 
-14.738666899226525

>  <r_i_glide_erotb>  (1) 
0

>  <r_i_glide_esite>  (1) 
0

>  <r_i_glide_evdw>  (1) 
-14.011377842154705

>  <r_i_glide_gscore>  (1) 
-4.9467934326046334

>  <r_i_glide_gscore_strain>  (1) 
0

>  <r_i_glide_hbond>  (1) 
0

>  <r_i_glide_ligand_efficiency>  (1) 
-0.98935868652092673

>  <r_i_glide_ligand_efficiency_ln>  (1) 
-1.8957314174952846

>  <r_i_glide_ligand_efficiency_sa>  (1) 
-1.6917795565864351

>  <r_i_glide_lipo>  (1) 
-1.6500000000000001

>  <r_i_glide_metal>  (1) 
-0

>  <r_i_glide_rewards>  (1) 
-2.4871311819361259

>  <r_lp_Energy>  (1) 
-2.6088139999999997

>  <r_lp_tautomer_probability>  (1) 
1

>  <s_epik_cmdline>  (1) 
J2VwaWtfcHl0aG9uJywgJy1waHQnLCAnMS4wJywgJy1waCcsICc3LjQnLCAnLXRuJywgJzgnLCAnLW1hJywgJzUwMCcsICctaW1hZScsICc8aW5maWxlLm1hZT4nLCAnLW9tYWUnLCAnPG91dGZpbGUubWFlPic=

>  <s_epik_input>  (1) 
W0NIXTE9W0NIXVtDSF09Qz1bQ0hdMQ==

>  <s_glide_docking_method>  (1) 
confgen

>  <s_i_glide_gridfile>  (1) 
gpcr_5ht2c_6bqh_protein_autoprepared_prepared

>  <s_lp_Force_Field>  (1) 
S-OPLS

>  <s_lp_Variant>  (1) 
Pocket2Mol_2-1

>  <s_m_source_file>  (1) 
generated_GPCR_5HT2C_ligand_Pocket2Mol_2026-06-23_prepared.sdf

>  <GenAI_Model>  (1) 
Pocket2Mol

>  <Protein>  (1) 
GPCR_5HT2C

$$$$
Pocket2Mol_18
     RDKit          3D

  0  0  0  0  0  0  0  0  0  0999 V3000
M  V30 BEGIN CTAB
M  V30 COUNTS 10 10 0 0 1
M  V30 BEGIN ATOM
M  V30 1 C 40.045137 29.298854 50.156797 0
M  V30 2 C 40.454189 30.533345 50.745669 0
M  V30 3 C 39.397771 28.574208 51.119767 0
M  V30 4 C 40.045137 30.523049 52.050794 0
M  V30 5 N 39.401228 29.327564 52.267360 0
M  V30 6 O 38.844948 28.943441 53.454246 0 CHG=-1
M  V30 7 H 40.206325 28.979073 49.139461 0
M  V30 8 H 40.989607 31.337748 50.265229 0
M  V30 9 H 38.935297 27.598443 51.095257 0
M  V30 10 H 40.148760 31.251697 52.841137 0
M  V30 END ATOM
M  V30 BEGIN BOND
M  V30 1 1 2 1
M  V30 2 2 3 1
M  V30 3 2 4 2
M  V30 4 1 5 3
M  V30 5 1 5 4
M  V30 6 1 6 5
M  V30 7 1 7 1
M  V30 8 1 8 2
M  V30 9 1 9 3
M  V30 10 1 10 4
M  V30 END BOND
M  V30 END CTAB
M  END
>  <i_epik_Tot_Q>  (1) 
-1

>  <i_epik_Tot_abs_Q>  (1) 
1

>  <i_i_glide_confnum>  (1) 
1

>  <i_i_glide_lignum>  (1) 
19

>  <i_i_glide_posenum>  (1) 
198

>  <i_i_glide_rotatable_bonds>  (1) 
0

>  <i_lp_mmshare_version>  (1) 
72125

>  <i_m_source_file_index>  (1) 
19

>  <i_f3d_flags>  (1) 
0

>  <num_sample>  (1) 
50

>  <b_lp_Chiralities_Consistent>  (1) 
1

>  <r_epik_Charging_Adjusted_Penalty>  (1) 
0.038602441834166765

>  <r_epik_Ionization_Penalty>  (1) 
0.019301220976331968

>  <r_epik_Ionization_Penalty_Charging>  (1) 
0.019301220917083386

>  <r_epik_Ionization_Penalty_Neutral>  (1) 
5.9248581604286784e-11

>  <r_epik_State_Penalty>  (1) 
0.019301220917083379

>  <r_glide_ring_energy>  (1) 
0

>  <r_i_docking_score>  (1) 
-4.9341007845910827

>  <r_i_glide_ecoul>  (1) 
-0.61650960970739987

>  <r_i_glide_eff_state_penalty>  (1) 
0.019301220917083379

>  <r_i_glide_einternal>  (1) 
0

>  <r_i_glide_emodel>  (1) 
-18.390199934384711

>  <r_i_glide_emodel_strain>  (1) 
0

>  <r_i_glide_energy>  (1) 
-13.603184858028783

>  <r_i_glide_erotb>  (1) 
0

>  <r_i_glide_esite>  (1) 
0

>  <r_i_glide_evdw>  (1) 
-12.986675248321383

>  <r_i_glide_gscore>  (1) 
-4.953402005508166

>  <r_i_glide_gscore_strain>  (1) 
0

>  <r_i_glide_hbond>  (1) 
0

>  <r_i_glide_ligand_efficiency>  (1) 
-0.82235013076518049

>  <r_i_glide_ligand_efficiency_ln>  (1) 
-1.7673803345083319

>  <r_i_glide_ligand_efficiency_sa>  (1) 
-1.4943093571316124

>  <r_i_glide_lipo>  (1) 
-1.1034436658600202

>  <r_i_glide_metal>  (1) 
-0

>  <r_i_glide_rewards>  (1) 
-3.1081481357759668

>  <r_lp_Energy>  (1) 
1.8910769999999999

>  <r_lp_tautomer_probability>  (1) 
1

>  <s_epik_cmdline>  (1) 
J2VwaWtfcHl0aG9uJywgJy1waHQnLCAnMS4wJywgJy1waCcsICc3LjQnLCAnLXRuJywgJzgnLCAnLW1hJywgJzUwMCcsICctaW1hZScsICc8aW5maWxlLm1hZT4nLCAnLW9tYWUnLCAnPG91dGZpbGUubWFlPic=

>  <s_epik_input>  (1) 
W2NIXTFbY0hdW2NIXVtjSF1uMVtPSF0=

>  <s_glide_docking_method>  (1) 
confgen

>  <s_i_glide_gridfile>  (1) 
gpcr_5ht2c_6bqh_protein_autoprepared_prepared

>  <s_lp_Force_Field>  (1) 
S-OPLS

>  <s_lp_Variant>  (1) 
Pocket2Mol_18-1

>  <s_m_source_file>  (1) 
generated_GPCR_5HT2C_ligand_Pocket2Mol_2026-06-23_prepared.sdf

>  <GenAI_Model>  (1) 
Pocket2Mol

>  <Protein>  (1) 
GPCR_5HT2C

$$$$
Pocket2Mol_2
     RDKit          3D

  0  0  0  0  0  0  0  0  0  0999 V3000
M  V30 BEGIN CTAB
M  V30 COUNTS 9 9 0 0 1
M  V30 BEGIN ATOM
M  V30 1 C 40.045153 30.327221 51.994185 0
M  V30 2 C 39.245148 29.317708 52.587951 0
M  V30 3 C 40.292701 29.927994 50.812893 0
M  V30 4 C 39.645158 28.674924 50.681043 0
M  V30 5 C 38.977061 28.261292 51.783839 0
M  V30 6 H 40.376067 31.248283 52.451658 0
M  V30 7 H 38.882960 29.396021 53.603351 0
M  V30 8 H 40.876145 30.440180 50.062118 0
M  V30 9 H 39.687472 28.105464 49.767761 0
M  V30 END ATOM
M  V30 BEGIN BOND
M  V30 1 1 2 1
M  V30 2 2 3 1
M  V30 3 1 4 3
M  V30 4 2 5 2
M  V30 5 2 5 4
M  V30 6 1 6 1
M  V30 7 1 7 2
M  V30 8 1 8 3
M  V30 9 1 9 4
M  V30 END BOND
M  V30 END CTAB
M  END
>  <i_epik_Tot_Q>  (1) 
0

>  <i_epik_Tot_abs_Q>  (1) 
0

>  <i_i_glide_confnum>  (1) 
1

>  <i_i_glide_lignum>  (1) 
3

>  <i_i_glide_posenum>  (1) 
28

>  <i_i_glide_rotatable_bonds>  (1) 
0

>  <i_lp_mmshare_version>  (1) 
72125

>  <i_m_source_file_index>  (1) 
3

>  <i_f3d_flags>  (1) 
0

>  <num_sample>  (1) 
50

>  <b_lp_Chiralities_Consistent>  (1) 
1

>  <r_epik_Charging_Adjusted_Penalty>  (1) 
0

>  <r_epik_Ionization_Penalty>  (1) 
0

>  <r_epik_Ionization_Penalty_Charging>  (1) 
0

>  <r_epik_Ionization_Penalty_Neutral>  (1) 
0

>  <r_epik_State_Penalty>  (1) 
-0

>  <r_glide_ring_energy>  (1) 
0

>  <r_i_docking_score>  (1) 
-4.9270627369851177

>  <r_i_glide_ecoul>  (1) 
-0.36546909388525706

>  <r_i_glide_eff_state_penalty>  (1) 
-0

>  <r_i_glide_einternal>  (1) 
0

>  <r_i_glide_emodel>  (1) 
-18.092567541821225

>  <r_i_glide_emodel_strain>  (1) 
0

>  <r_i_glide_energy>  (1) 
-13.780921784449353

>  <r_i_glide_erotb>  (1) 
0

>  <r_i_glide_esite>  (1) 
0

>  <r_i_glide_evdw>  (1) 
-13.415452690564095

>  <r_i_glide_gscore>  (1) 
-4.9270627369851177

>  <r_i_glide_gscore_strain>  (1) 
0

>  <r_i_glide_hbond>  (1) 
0

>  <r_i_glide_ligand_efficiency>  (1) 
-0.98541254739702355

>  <r_i_glide_ligand_efficiency_ln>  (1) 
-1.8881701356094431

>  <r_i_glide_ligand_efficiency_sa>  (1) 
-1.6850317536023209

>  <r_i_glide_lipo>  (1) 
-1.4922686904661704

>  <r_i_glide_metal>  (1) 
-0

>  <r_i_glide_rewards>  (1) 
-2.7092010479079542

>  <r_lp_Energy>  (1) 
-2.6088139999999997

>  <r_lp_tautomer_probability>  (1) 
1

>  <s_epik_cmdline>  (1) 
J2VwaWtfcHl0aG9uJywgJy1waHQnLCAnMS4wJywgJy1waCcsICc3LjQnLCAnLXRuJywgJzgnLCAnLW1hJywgJzUwMCcsICctaW1hZScsICc8aW5maWxlLm1hZT4nLCAnLW9tYWUnLCAnPG91dGZpbGUubWFlPic=

>  <s_epik_input>  (1) 
W0NIXTE9W0NIXVtDSF09Qz1bQ0hdMQ==

>  <s_glide_docking_method>  (1) 
confgen

>  <s_i_glide_gridfile>  (1) 
gpcr_5ht2c_6bqh_protein_autoprepared_prepared

>  <s_lp_Force_Field>  (1) 
S-OPLS

>  <s_lp_Variant>  (1) 
Pocket2Mol_2-1

>  <s_m_source_file>  (1) 
generated_GPCR_5HT2C_ligand_Pocket2Mol_2026-06-23_prepared.sdf

>  <GenAI_Model>  (1) 
Pocket2Mol

>  <Protein>  (1) 
GPCR_5HT2C

$$$$
Pocket2Mol_22
     RDKit          3D

  0  0  0  0  0  0  0  0  0  0999 V3000
M  V30 BEGIN CTAB
M  V30 COUNTS 11 11 0 0 1
M  V30 BEGIN ATOM
M  V30 1 C 38.925109 27.738253 51.381675 0
M  V30 2 C 38.673836 28.300985 52.675614 0
M  V30 3 C 39.244877 29.534513 52.796032 0
M  V30 4 C 39.229493 30.461659 53.965890 0
M  V30 5 N 39.645690 28.486444 50.567757 0
M  V30 6 S 40.045167 29.935522 51.318881 0
M  V30 7 H 38.583500 26.776568 51.031630 0
M  V30 8 H 38.102846 27.793918 53.439345 0
M  V30 9 H 38.673123 30.031861 54.799190 0
M  V30 10 H 40.241797 30.672594 54.311761 0
M  V30 11 H 38.756293 31.408245 53.704230 0
M  V30 END ATOM
M  V30 BEGIN BOND
M  V30 1 1 2 1
M  V30 2 2 3 2
M  V30 3 1 4 3
M  V30 4 2 5 1
M  V30 5 1 6 3
M  V30 6 1 6 5
M  V30 7 1 7 1
M  V30 8 1 8 2
M  V30 9 1 9 4
M  V30 10 1 10 4
M  V30 11 1 11 4
M  V30 END BOND
M  V30 END CTAB
M  END
>  <i_epik_Tot_Q>  (1) 
0

>  <i_epik_Tot_abs_Q>  (1) 
0

>  <i_i_glide_confnum>  (1) 
1

>  <i_i_glide_lignum>  (1) 
23

>  <i_i_glide_posenum>  (1) 
33

>  <i_i_glide_rotatable_bonds>  (1) 
0

>  <i_lp_mmshare_version>  (1) 
72125

>  <i_m_source_file_index>  (1) 
23

>  <i_f3d_flags>  (1) 
0

>  <num_sample>  (1) 
50

>  <b_lp_Chiralities_Consistent>  (1) 
1

>  <r_epik_Charging_Adjusted_Penalty>  (1) 
0

>  <r_epik_Ionization_Penalty>  (1) 
2.7081824038816109e-08

>  <r_epik_Ionization_Penalty_Charging>  (1) 
0

>  <r_epik_Ionization_Penalty_Neutral>  (1) 
2.7081824038816109e-08

>  <r_epik_State_Penalty>  (1) 
-0

>  <r_glide_ring_energy>  (1) 
0

>  <r_i_docking_score>  (1) 
-4.9245031415871106

>  <r_i_glide_ecoul>  (1) 
-0.54645171068522913

>  <r_i_glide_eff_state_penalty>  (1) 
-0

>  <r_i_glide_einternal>  (1) 
0

>  <r_i_glide_emodel>  (1) 
-23.804188097860226

>  <r_i_glide_emodel_strain>  (1) 
0

>  <r_i_glide_energy>  (1) 
-18.304019109186189

>  <r_i_glide_erotb>  (1) 
0

>  <r_i_glide_esite>  (1) 
0

>  <r_i_glide_evdw>  (1) 
-17.75756739850096

>  <r_i_glide_gscore>  (1) 
-4.9245031415871106

>  <r_i_glide_gscore_strain>  (1) 
0

>  <r_i_glide_hbond>  (1) 
0

>  <r_i_glide_ligand_efficiency>  (1) 
-0.82075052359785172

>  <r_i_glide_ligand_efficiency_ln>  (1) 
-1.763942487118626

>  <r_i_glide_ligand_efficiency_sa>  (1) 
-1.4914026780074177

>  <r_i_glide_lipo>  (1) 
-1.5085505190091193

>  <r_i_glide_metal>  (1) 
-0

>  <r_i_glide_rewards>  (1) 
-2.4461064960501586

>  <r_lp_Energy>  (1) 
1.924183

>  <r_lp_tautomer_probability>  (1) 
1

>  <s_epik_cmdline>  (1) 
J2VwaWtfcHl0aG9uJywgJy1waHQnLCAnMS4wJywgJy1waCcsICc3LjQnLCAnLXRuJywgJzgnLCAnLW1hJywgJzUwMCcsICctaW1hZScsICc8aW5maWxlLm1hZT4nLCAnLW9tYWUnLCAnPG91dGZpbGUubWFlPic=

>  <s_epik_input>  (1) 
czFuW2NIXVtjSF1jMVtDSDNd

>  <s_glide_docking_method>  (1) 
confgen

>  <s_i_glide_gridfile>  (1) 
gpcr_5ht2c_6bqh_protein_autoprepared_prepared

>  <s_lp_Force_Field>  (1) 
S-OPLS

>  <s_lp_Variant>  (1) 
Pocket2Mol_22-1

>  <s_m_source_file>  (1) 
generated_GPCR_5HT2C_ligand_Pocket2Mol_2026-06-23_prepared.sdf

>  <GenAI_Model>  (1) 
Pocket2Mol

>  <Protein>  (1) 
GPCR_5HT2C

$$$$
Pocket2Mol_2
     RDKit          3D

  0  0  0  0  0  0  0  0  0  0999 V3000
M  V30 BEGIN CTAB
M  V30 COUNTS 9 9 0 0 1
M  V30 BEGIN ATOM
M  V30 1 C 39.245147 27.835582 50.967760 0
M  V30 2 C 38.612775 27.798912 52.234376 0
M  V30 3 C 39.884024 28.936006 50.926102 0
M  V30 4 C 39.645126 29.573485 52.167735 0
M  V30 5 C 38.845115 28.881461 53.014271 0
M  V30 6 H 39.194161 27.083094 50.193774 0
M  V30 7 H 37.994448 26.967944 52.542502 0
M  V30 8 H 40.484843 29.308459 50.109634 0
M  V30 9 H 40.070542 30.537006 52.409182 0
M  V30 END ATOM
M  V30 BEGIN BOND
M  V30 1 1 2 1
M  V30 2 2 3 1
M  V30 3 1 4 3
M  V30 4 2 5 2
M  V30 5 2 5 4
M  V30 6 1 6 1
M  V30 7 1 7 2
M  V30 8 1 8 3
M  V30 9 1 9 4
M  V30 END BOND
M  V30 END CTAB
M  END
>  <i_epik_Tot_Q>  (1) 
0

>  <i_epik_Tot_abs_Q>  (1) 
0

>  <i_i_glide_confnum>  (1) 
1

>  <i_i_glide_lignum>  (1) 
3

>  <i_i_glide_posenum>  (1) 
109

>  <i_i_glide_rotatable_bonds>  (1) 
0

>  <i_lp_mmshare_version>  (1) 
72125

>  <i_m_source_file_index>  (1) 
3

>  <i_f3d_flags>  (1) 
0

>  <num_sample>  (1) 
50

>  <b_lp_Chiralities_Consistent>  (1) 
1

>  <r_epik_Charging_Adjusted_Penalty>  (1) 
0

>  <r_epik_Ionization_Penalty>  (1) 
0

>  <r_epik_Ionization_Penalty_Charging>  (1) 
0

>  <r_epik_Ionization_Penalty_Neutral>  (1) 
0

>  <r_epik_State_Penalty>  (1) 
-0

>  <r_glide_ring_energy>  (1) 
0

>  <r_i_docking_score>  (1) 
-4.913426036958306

>  <r_i_glide_ecoul>  (1) 
-0.64493774886358257

>  <r_i_glide_eff_state_penalty>  (1) 
-0

>  <r_i_glide_einternal>  (1) 
0

>  <r_i_glide_emodel>  (1) 
-18.86990339841222

>  <r_i_glide_emodel_strain>  (1) 
0

>  <r_i_glide_energy>  (1) 
-14.570191042937955

>  <r_i_glide_erotb>  (1) 
0

>  <r_i_glide_esite>  (1) 
0

>  <r_i_glide_evdw>  (1) 
-13.925253294074372

>  <r_i_glide_gscore>  (1) 
-4.913426036958306

>  <r_i_glide_gscore_strain>  (1) 
0

>  <r_i_glide_hbond>  (1) 
0

>  <r_i_glide_ligand_efficiency>  (1) 
-0.98268520739166121

>  <r_i_glide_ligand_efficiency_ln>  (1) 
-1.8829442208782161

>  <r_i_glide_ligand_efficiency_sa>  (1) 
-1.6803680677947421

>  <r_i_glide_lipo>  (1) 
-1.6130883956946509

>  <r_i_glide_metal>  (1) 
-0

>  <r_i_glide_rewards>  (1) 
-2.5073343142303992

>  <r_lp_Energy>  (1) 
-2.6088139999999997

>  <r_lp_tautomer_probability>  (1) 
1

>  <s_epik_cmdline>  (1) 
J2VwaWtfcHl0aG9uJywgJy1waHQnLCAnMS4wJywgJy1waCcsICc3LjQnLCAnLXRuJywgJzgnLCAnLW1hJywgJzUwMCcsICctaW1hZScsICc8aW5maWxlLm1hZT4nLCAnLW9tYWUnLCAnPG91dGZpbGUubWFlPic=

>  <s_epik_input>  (1) 
W0NIXTE9W0NIXVtDSF09Qz1bQ0hdMQ==

>  <s_glide_docking_method>  (1) 
confgen

>  <s_i_glide_gridfile>  (1) 
gpcr_5ht2c_6bqh_protein_autoprepared_prepared

>  <s_lp_Force_Field>  (1) 
S-OPLS

>  <s_lp_Variant>  (1) 
Pocket2Mol_2-1

>  <s_m_source_file>  (1) 
generated_GPCR_5HT2C_ligand_Pocket2Mol_2026-06-23_prepared.sdf

>  <GenAI_Model>  (1) 
Pocket2Mol

>  <Protein>  (1) 
GPCR_5HT2C

$$$$
Pocket2Mol_22
     RDKit          3D

  0  0  0  0  0  0  0  0  0  0999 V3000
M  V30 BEGIN CTAB
M  V30 COUNTS 11 11 0 0 1
M  V30 BEGIN ATOM
M  V30 1 C 40.412492 30.424979 50.599532 0
M  V30 2 C 40.045137 30.468496 51.982109 0
M  V30 3 C 39.372892 29.337743 52.350668 0
M  V30 4 C 38.806995 28.980773 53.683443 0
M  V30 5 N 40.045137 29.337751 49.950493 0
M  V30 6 S 39.245143 28.283619 50.990164 0
M  V30 7 H 40.947196 31.193516 50.060637 0
M  V30 8 H 40.277393 31.302982 52.628078 0
M  V30 9 H 39.000007 29.764738 54.416367 0
M  V30 10 H 37.727647 28.841058 53.618488 0
M  V30 11 H 39.245092 28.054672 54.055880 0
M  V30 END ATOM
M  V30 BEGIN BOND
M  V30 1 1 2 1
M  V30 2 2 3 2
M  V30 3 1 4 3
M  V30 4 2 5 1
M  V30 5 1 6 3
M  V30 6 1 6 5
M  V30 7 1 7 1
M  V30 8 1 8 2
M  V30 9 1 9 4
M  V30 10 1 10 4
M  V30 11 1 11 4
M  V30 END BOND
M  V30 END CTAB
M  END
>  <i_epik_Tot_Q>  (1) 
0

>  <i_epik_Tot_abs_Q>  (1) 
0

>  <i_i_glide_confnum>  (1) 
1

>  <i_i_glide_lignum>  (1) 
23

>  <i_i_glide_posenum>  (1) 
250

>  <i_i_glide_rotatable_bonds>  (1) 
0

>  <i_lp_mmshare_version>  (1) 
72125

>  <i_m_source_file_index>  (1) 
23

>  <i_f3d_flags>  (1) 
0

>  <num_sample>  (1) 
50

>  <b_lp_Chiralities_Consistent>  (1) 
1

>  <r_epik_Charging_Adjusted_Penalty>  (1) 
0

>  <r_epik_Ionization_Penalty>  (1) 
2.7081824038816109e-08

>  <r_epik_Ionization_Penalty_Charging>  (1) 
0

>  <r_epik_Ionization_Penalty_Neutral>  (1) 
2.7081824038816109e-08

>  <r_epik_State_Penalty>  (1) 
-0

>  <r_glide_ring_energy>  (1) 
0

>  <r_i_docking_score>  (1) 
-4.8899061495381737

>  <r_i_glide_ecoul>  (1) 
-0.66742784906492947

>  <r_i_glide_eff_state_penalty>  (1) 
-0

>  <r_i_glide_einternal>  (1) 
0

>  <r_i_glide_emodel>  (1) 
-23.144722005666296

>  <r_i_glide_emodel_strain>  (1) 
0

>  <r_i_glide_energy>  (1) 
-17.683194337202206

>  <r_i_glide_erotb>  (1) 
0

>  <r_i_glide_esite>  (1) 
0

>  <r_i_glide_evdw>  (1) 
-17.015766488137277

>  <r_i_glide_gscore>  (1) 
-4.8899061495381737

>  <r_i_glide_gscore_strain>  (1) 
0

>  <r_i_glide_hbond>  (1) 
0

>  <r_i_glide_ligand_efficiency>  (1) 
-0.81498435825636228

>  <r_i_glide_ligand_efficiency_ln>  (1) 
-1.7515499467044968

>  <r_i_glide_ligand_efficiency_sa>  (1) 
-1.4809248602237222

>  <r_i_glide_lipo>  (1) 
-1.382328471742438

>  <r_i_glide_metal>  (1) 
-0

>  <r_i_glide_rewards>  (1) 
-2.5566751760291329

>  <r_lp_Energy>  (1) 
1.924183

>  <r_lp_tautomer_probability>  (1) 
1

>  <s_epik_cmdline>  (1) 
J2VwaWtfcHl0aG9uJywgJy1waHQnLCAnMS4wJywgJy1waCcsICc3LjQnLCAnLXRuJywgJzgnLCAnLW1hJywgJzUwMCcsICctaW1hZScsICc8aW5maWxlLm1hZT4nLCAnLW9tYWUnLCAnPG91dGZpbGUubWFlPic=

>  <s_epik_input>  (1) 
czFuW2NIXVtjSF1jMVtDSDNd

>  <s_glide_docking_method>  (1) 
confgen

>  <s_i_glide_gridfile>  (1) 
gpcr_5ht2c_6bqh_protein_autoprepared_prepared

>  <s_lp_Force_Field>  (1) 
S-OPLS

>  <s_lp_Variant>  (1) 
Pocket2Mol_22-1

>  <s_m_source_file>  (1) 
generated_GPCR_5HT2C_ligand_Pocket2Mol_2026-06-23_prepared.sdf

>  <GenAI_Model>  (1) 
Pocket2Mol

>  <Protein>  (1) 
GPCR_5HT2C

$$$$
Pocket2Mol_14
     RDKit          3D

  0  0  0  0  0  0  0  0  0  0999 V3000
M  V30 BEGIN CTAB
M  V30 COUNTS 18 18 0 0 1
M  V30 BEGIN ATOM
M  V30 1 C 39.546125 30.110943 52.994663 0
M  V30 2 C 39.645143 29.337767 51.666781 0
M  V30 3 C 38.543882 29.337515 53.862504 0
M  V30 4 C 38.845386 28.041153 51.850940 0
M  V30 5 C 38.642423 27.895521 53.358437 0
M  V30 6 C 38.783032 29.487509 55.370363 0
M  V30 7 H 39.245139 31.149147 52.851508 0
M  V30 8 H 40.518506 30.137690 53.482249 0
M  V30 9 H 39.248524 29.917269 50.832081 0
M  V30 10 H 40.688887 29.117554 51.438747 0
M  V30 11 H 37.542849 29.705052 53.636021 0
M  V30 12 H 37.872779 28.142040 51.367681 0
M  V30 13 H 39.340030 27.174606 51.410139 0
M  V30 14 H 39.507214 27.397336 53.799194 0
M  V30 15 H 37.758921 27.304274 53.602549 0
M  V30 16 H 39.775742 29.136721 55.654310 0
M  V30 17 H 38.050449 28.915456 55.940310 0
M  V30 18 H 38.696816 30.530622 55.676618 0
M  V30 END ATOM
M  V30 BEGIN BOND
M  V30 1 1 2 1
M  V30 2 1 3 1
M  V30 3 1 4 2
M  V30 4 1 5 3
M  V30 5 1 5 4
M  V30 6 1 6 3
M  V30 7 1 7 1
M  V30 8 1 8 1
M  V30 9 1 9 2
M  V30 10 1 10 2
M  V30 11 1 11 3
M  V30 12 1 12 4
M  V30 13 1 13 4
M  V30 14 1 14 5
M  V30 15 1 15 5
M  V30 16 1 16 6
M  V30 17 1 17 6
M  V30 18 1 18 6
M  V30 END BOND
M  V30 END CTAB
M  END
>  <i_epik_Tot_Q>  (1) 
0

>  <i_epik_Tot_abs_Q>  (1) 
0

>  <i_i_glide_confnum>  (1) 
1

>  <i_i_glide_lignum>  (1) 
15

>  <i_i_glide_posenum>  (1) 
90

>  <i_i_glide_rotatable_bonds>  (1) 
0

>  <i_lp_mmshare_version>  (1) 
72125

>  <i_m_source_file_index>  (1) 
15

>  <i_f3d_flags>  (1) 
0

>  <num_sample>  (1) 
50

>  <b_lp_Chiralities_Consistent>  (1) 
1

>  <r_epik_Charging_Adjusted_Penalty>  (1) 
0

>  <r_epik_Ionization_Penalty>  (1) 
0

>  <r_epik_Ionization_Penalty_Charging>  (1) 
0

>  <r_epik_Ionization_Penalty_Neutral>  (1) 
0

>  <r_epik_State_Penalty>  (1) 
-0

>  <r_glide_ring_energy>  (1) 
0

>  <r_i_docking_score>  (1) 
-4.8826507723714947

>  <r_i_glide_ecoul>  (1) 
-0.12957420578503648

>  <r_i_glide_eff_state_penalty>  (1) 
-0

>  <r_i_glide_einternal>  (1) 
0

>  <r_i_glide_emodel>  (1) 
-19.234887937909171

>  <r_i_glide_emodel_strain>  (1) 
0.0072127218587922926

>  <r_i_glide_energy>  (1) 
-14.452059463786171

>  <r_i_glide_erotb>  (1) 
0

>  <r_i_glide_esite>  (1) 
0

>  <r_i_glide_evdw>  (1) 
-14.322485258001134

>  <r_i_glide_gscore>  (1) 
-4.8826507723714947

>  <r_i_glide_gscore_strain>  (1) 
0

>  <r_i_glide_hbond>  (1) 
0

>  <r_i_glide_ligand_efficiency>  (1) 
-0.81377512872858249

>  <r_i_glide_ligand_efficiency_ln>  (1) 
-1.7489510920228342

>  <r_i_glide_ligand_efficiency_sa>  (1) 
-1.4787275443473327

>  <r_i_glide_lipo>  (1) 
-1.6445143767639954

>  <r_i_glide_metal>  (1) 
-0

>  <r_i_glide_rewards>  (1) 
-2.5025760018396865

>  <r_lp_Energy>  (1) 
6.4120089999999994

>  <r_lp_tautomer_probability>  (1) 
1

>  <s_epik_cmdline>  (1) 
J2VwaWtfcHl0aG9uJywgJy1waHQnLCAnMS4wJywgJy1waCcsICc3LjQnLCAnLXRuJywgJzgnLCAnLW1hJywgJzUwMCcsICctaW1hZScsICc8aW5maWxlLm1hZT4nLCAnLW9tYWUnLCAnPG91dGZpbGUubWFlPic=

>  <s_epik_input>  (1) 
W0NIM11bQ0hdMVtDSDJdW0NIMl1bQ0gyXVtDSDJdMQ==

>  <s_glide_docking_method>  (1) 
confgen

>  <s_i_glide_gridfile>  (1) 
gpcr_5ht2c_6bqh_protein_autoprepared_prepared

>  <s_lp_Force_Field>  (1) 
S-OPLS

>  <s_lp_Variant>  (1) 
Pocket2Mol_14-1

>  <s_m_source_file>  (1) 
generated_GPCR_5HT2C_ligand_Pocket2Mol_2026-06-23_prepared.sdf

>  <GenAI_Model>  (1) 
Pocket2Mol

>  <Protein>  (1) 
GPCR_5HT2C

$$$$
Pocket2Mol_2
     RDKit          3D

  0  0  0  0  0  0  0  0  0  0999 V3000
M  V30 BEGIN CTAB
M  V30 COUNTS 9 9 0 0 1
M  V30 BEGIN ATOM
M  V30 1 C 39.176093 28.381724 52.132098 0
M  V30 2 C 39.555662 29.726241 52.377626 0
M  V30 3 C 39.482179 28.147854 50.918747 0
M  V30 4 C 40.045137 29.348660 50.418724 0
M  V30 5 C 40.102282 30.362218 51.313773 0
M  V30 6 H 38.720823 27.695702 52.832108 0
M  V30 7 H 39.409615 30.198979 53.339522 0
M  V30 8 H 39.338781 27.222283 50.377545 0
M  V30 9 H 40.393813 29.437956 49.400958 0
M  V30 END ATOM
M  V30 BEGIN BOND
M  V30 1 1 2 1
M  V30 2 2 3 1
M  V30 3 1 4 3
M  V30 4 2 5 2
M  V30 5 2 5 4
M  V30 6 1 6 1
M  V30 7 1 7 2
M  V30 8 1 8 3
M  V30 9 1 9 4
M  V30 END BOND
M  V30 END CTAB
M  END
>  <i_epik_Tot_Q>  (1) 
0

>  <i_epik_Tot_abs_Q>  (1) 
0

>  <i_i_glide_confnum>  (1) 
1

>  <i_i_glide_lignum>  (1) 
3

>  <i_i_glide_posenum>  (1) 
351

>  <i_i_glide_rotatable_bonds>  (1) 
0

>  <i_lp_mmshare_version>  (1) 
72125

>  <i_m_source_file_index>  (1) 
3

>  <i_f3d_flags>  (1) 
0

>  <num_sample>  (1) 
50

>  <b_lp_Chiralities_Consistent>  (1) 
1

>  <r_epik_Charging_Adjusted_Penalty>  (1) 
0

>  <r_epik_Ionization_Penalty>  (1) 
0

>  <r_epik_Ionization_Penalty_Charging>  (1) 
0

>  <r_epik_Ionization_Penalty_Neutral>  (1) 
0

>  <r_epik_State_Penalty>  (1) 
-0

>  <r_glide_ring_energy>  (1) 
0

>  <r_i_docking_score>  (1) 
-4.8788657252659293

>  <r_i_glide_ecoul>  (1) 
-0.25279356787763596

>  <r_i_glide_eff_state_penalty>  (1) 
-0

>  <r_i_glide_einternal>  (1) 
0

>  <r_i_glide_emodel>  (1) 
-17.574816472546189

>  <r_i_glide_emodel_strain>  (1) 
0

>  <r_i_glide_energy>  (1) 
-13.305347657541446

>  <r_i_glide_erotb>  (1) 
0

>  <r_i_glide_esite>  (1) 
0

>  <r_i_glide_evdw>  (1) 
-13.052554089663811

>  <r_i_glide_gscore>  (1) 
-4.8788657252659293

>  <r_i_glide_gscore_strain>  (1) 
0

>  <r_i_glide_hbond>  (1) 
0

>  <r_i_glide_ligand_efficiency>  (1) 
-0.97577314505318591

>  <r_i_glide_ligand_efficiency_ln>  (1) 
-1.8696998698523897

>  <r_i_glide_ligand_efficiency_sa>  (1) 
-1.6685486074540195

>  <r_i_glide_lipo>  (1) 
-1.6383189856010931

>  <r_i_glide_metal>  (1) 
-0

>  <r_i_glide_rewards>  (1) 
-2.5499999999999998

>  <r_lp_Energy>  (1) 
-2.6088139999999997

>  <r_lp_tautomer_probability>  (1) 
1

>  <s_epik_cmdline>  (1) 
J2VwaWtfcHl0aG9uJywgJy1waHQnLCAnMS4wJywgJy1waCcsICc3LjQnLCAnLXRuJywgJzgnLCAnLW1hJywgJzUwMCcsICctaW1hZScsICc8aW5maWxlLm1hZT4nLCAnLW9tYWUnLCAnPG91dGZpbGUubWFlPic=

>  <s_epik_input>  (1) 
W0NIXTE9W0NIXVtDSF09Qz1bQ0hdMQ==

>  <s_glide_docking_method>  (1) 
confgen

>  <s_i_glide_gridfile>  (1) 
gpcr_5ht2c_6bqh_protein_autoprepared_prepared

>  <s_lp_Force_Field>  (1) 
S-OPLS

>  <s_lp_Variant>  (1) 
Pocket2Mol_2-1

>  <s_m_source_file>  (1) 
generated_GPCR_5HT2C_ligand_Pocket2Mol_2026-06-23_prepared.sdf

>  <GenAI_Model>  (1) 
Pocket2Mol

>  <Protein>  (1) 
GPCR_5HT2C

$$$$
Pocket2Mol_15
     RDKit          3D

  0  0  0  0  0  0  0  0  0  0999 V3000
M  V30 BEGIN CTAB
M  V30 COUNTS 16 16 0 0 1
M  V30 BEGIN ATOM
M  V30 1 C 38.846731 29.258949 53.176813 0
M  V30 2 C 39.645139 30.536043 52.868210 0
M  V30 3 C 38.918633 28.385730 51.915578 0
M  V30 4 C 40.045172 30.456137 51.385895 0
M  V30 5 C 40.046028 28.965175 51.063105 0
M  V30 6 O 39.177140 27.035768 52.230436 0
M  V30 7 H 37.810729 29.486506 53.428715 0
M  V30 8 H 39.278151 28.750946 54.041139 0
M  V30 9 H 39.086433 31.445244 53.091236 0
M  V30 10 H 40.537780 30.558530 53.493112 0
M  V30 11 H 37.976186 28.456173 51.370407 0
M  V30 12 H 39.306966 30.956543 50.757614 0
M  V30 13 H 41.006025 30.932494 51.187125 0
M  V30 14 H 41.002635 28.538528 51.367747 0
M  V30 15 H 39.913669 28.765144 49.999098 0
M  V30 16 H 39.084301 26.523206 51.441278 0
M  V30 END ATOM
M  V30 BEGIN BOND
M  V30 1 1 2 1
M  V30 2 1 3 1
M  V30 3 1 4 2
M  V30 4 1 5 3
M  V30 5 1 5 4
M  V30 6 1 6 3
M  V30 7 1 7 1
M  V30 8 1 8 1
M  V30 9 1 9 2
M  V30 10 1 10 2
M  V30 11 1 11 3
M  V30 12 1 12 4
M  V30 13 1 13 4
M  V30 14 1 14 5
M  V30 15 1 15 5
M  V30 16 1 16 6
M  V30 END BOND
M  V30 END CTAB
M  END
>  <i_epik_Tot_Q>  (1) 
0

>  <i_epik_Tot_abs_Q>  (1) 
0

>  <i_i_glide_confnum>  (1) 
2

>  <i_i_glide_lignum>  (1) 
16

>  <i_i_glide_posenum>  (1) 
322

>  <i_i_glide_rotatable_bonds>  (1) 
1

>  <i_lp_mmshare_version>  (1) 
72125

>  <i_m_source_file_index>  (1) 
16

>  <i_f3d_flags>  (1) 
0

>  <num_sample>  (1) 
50

>  <b_lp_Chiralities_Consistent>  (1) 
1

>  <r_epik_Charging_Adjusted_Penalty>  (1) 
0

>  <r_epik_Ionization_Penalty>  (1) 
4.538991431931509e-07

>  <r_epik_Ionization_Penalty_Charging>  (1) 
0

>  <r_epik_Ionization_Penalty_Neutral>  (1) 
4.538991431931509e-07

>  <r_epik_State_Penalty>  (1) 
-0

>  <r_glide_ring_energy>  (1) 
0.076601694165865028

>  <r_i_docking_score>  (1) 
-4.8671611980976515

>  <r_i_glide_ecoul>  (1) 
-0.6562079404304878

>  <r_i_glide_eff_state_penalty>  (1) 
-0

>  <r_i_glide_einternal>  (1) 
0.38477816355898981

>  <r_i_glide_emodel>  (1) 
-19.847749089380468

>  <r_i_glide_emodel_strain>  (1) 
0.13774699834258186

>  <r_i_glide_energy>  (1) 
-15.396527840170036

>  <r_i_glide_erotb>  (1) 
0

>  <r_i_glide_esite>  (1) 
0

>  <r_i_glide_evdw>  (1) 
-14.740319899739548

>  <r_i_glide_gscore>  (1) 
-4.8671611980976515

>  <r_i_glide_gscore_strain>  (1) 
0

>  <r_i_glide_hbond>  (1) 
0

>  <r_i_glide_ligand_efficiency>  (1) 
-0.81119353301627528

>  <r_i_glide_ligand_efficiency_ln>  (1) 
-1.7434027722465155

>  <r_i_glide_ligand_efficiency_sa>  (1) 
-1.474036473616132

>  <r_i_glide_lipo>  (1) 
-1.5375328337825345

>  <r_i_glide_metal>  (1) 
-0

>  <r_i_glide_rewards>  (1) 
-2.4941811782635668

>  <r_lp_Energy>  (1) 
8.9029089999999993

>  <r_lp_tautomer_probability>  (1) 
1

>  <s_epik_cmdline>  (1) 
J2VwaWtfcHl0aG9uJywgJy1waHQnLCAnMS4wJywgJy1waCcsICc3LjQnLCAnLXRuJywgJzgnLCAnLW1hJywgJzUwMCcsICctaW1hZScsICc8aW5maWxlLm1hZT4nLCAnLW9tYWUnLCAnPG91dGZpbGUubWFlPic=

>  <s_epik_input>  (1) 
W09IXVtDSF0xW0NIMl1bQ0gyXVtDSDJdW0NIMl0x

>  <s_glide_docking_method>  (1) 
confgen

>  <s_i_glide_gridfile>  (1) 
gpcr_5ht2c_6bqh_protein_autoprepared_prepared

>  <s_lp_Force_Field>  (1) 
S-OPLS

>  <s_lp_Variant>  (1) 
Pocket2Mol_15-1

>  <s_m_source_file>  (1) 
generated_GPCR_5HT2C_ligand_Pocket2Mol_2026-06-23_prepared.sdf

>  <GenAI_Model>  (1) 
Pocket2Mol

>  <Protein>  (1) 
GPCR_5HT2C

$$$$
Pocket2Mol_5
     RDKit          3D

  0  0  0  0  0  0  0  0  0  0999 V3000
M  V30 BEGIN CTAB
M  V30 COUNTS 13 13 0 0 1
M  V30 BEGIN ATOM
M  V30 1 C 39.501384 28.451710 50.920084 0
M  V30 2 C 38.759076 28.097485 52.146971 0
M  V30 3 C 40.051251 29.861382 51.435120 0
M  V30 4 C 39.645016 30.145264 52.958177 0
M  V30 5 C 38.828803 28.926543 53.145024 0
M  V30 6 H 40.297257 27.737751 50.714297 0
M  V30 7 H 38.845138 28.537754 50.055350 0
M  V30 8 H 38.188900 27.179911 52.184716 0
M  V30 9 H 39.649633 30.654620 50.803003 0
M  V30 10 H 41.133840 29.904300 51.315556 0
M  V30 11 H 39.058173 31.055096 53.083336 0
M  V30 12 H 40.490419 30.156392 53.643067 0
M  V30 13 H 38.322043 28.757437 54.084201 0
M  V30 END ATOM
M  V30 BEGIN BOND
M  V30 1 1 2 1
M  V30 2 1 3 1
M  V30 3 1 4 3
M  V30 4 2 5 2
M  V30 5 1 5 4
M  V30 6 1 6 1
M  V30 7 1 7 1
M  V30 8 1 8 2
M  V30 9 1 9 3
M  V30 10 1 10 3
M  V30 11 1 11 4
M  V30 12 1 12 4
M  V30 13 1 13 5
M  V30 END BOND
M  V30 END CTAB
M  END
>  <i_epik_Tot_Q>  (1) 
0

>  <i_epik_Tot_abs_Q>  (1) 
0

>  <i_i_glide_confnum>  (1) 
1

>  <i_i_glide_lignum>  (1) 
6

>  <i_i_glide_posenum>  (1) 
272

>  <i_i_glide_rotatable_bonds>  (1) 
0

>  <i_lp_mmshare_version>  (1) 
72125

>  <i_m_source_file_index>  (1) 
6

>  <i_f3d_flags>  (1) 
0

>  <num_sample>  (1) 
50

>  <b_lp_Chiralities_Consistent>  (1) 
1

>  <r_epik_Charging_Adjusted_Penalty>  (1) 
0

>  <r_epik_Ionization_Penalty>  (1) 
0

>  <r_epik_Ionization_Penalty_Charging>  (1) 
0

>  <r_epik_Ionization_Penalty_Neutral>  (1) 
0

>  <r_epik_State_Penalty>  (1) 
-0

>  <r_glide_ring_energy>  (1) 
0

>  <r_i_docking_score>  (1) 
-4.8548914286441764

>  <r_i_glide_ecoul>  (1) 
-0.49510615372121575

>  <r_i_glide_eff_state_penalty>  (1) 
-0

>  <r_i_glide_einternal>  (1) 
0

>  <r_i_glide_emodel>  (1) 
-17.723549027870085

>  <r_i_glide_emodel_strain>  (1) 
0

>  <r_i_glide_energy>  (1) 
-13.664531022229253

>  <r_i_glide_erotb>  (1) 
0

>  <r_i_glide_esite>  (1) 
0

>  <r_i_glide_evdw>  (1) 
-13.169424868508038

>  <r_i_glide_gscore>  (1) 
-4.8548914286441764

>  <r_i_glide_gscore_strain>  (1) 
0

>  <r_i_glide_hbond>  (1) 
0

>  <r_i_glide_ligand_efficiency>  (1) 
-0.97097828572883527

>  <r_i_glide_ligand_efficiency_ln>  (1) 
-1.8605123369712608

>  <r_i_glide_ligand_efficiency_sa>  (1) 
-1.6603495133416815

>  <r_i_glide_lipo>  (1) 
-1.6037583516748795

>  <r_i_glide_metal>  (1) 
-0

>  <r_i_glide_rewards>  (1) 
-2.518395910485713

>  <r_lp_Energy>  (1) 
-2.1713199999999997

>  <r_lp_tautomer_probability>  (1) 
1

>  <s_epik_cmdline>  (1) 
J2VwaWtfcHl0aG9uJywgJy1waHQnLCAnMS4wJywgJy1waCcsICc3LjQnLCAnLXRuJywgJzgnLCAnLW1hJywgJzUwMCcsICctaW1hZScsICc8aW5maWxlLm1hZT4nLCAnLW9tYWUnLCAnPG91dGZpbGUubWFlPic=

>  <s_epik_input>  (1) 
W0NIMl0xW0NIXT1bQ0hdW0NIMl1bQ0gyXTE=

>  <s_glide_docking_method>  (1) 
confgen

>  <s_i_glide_gridfile>  (1) 
gpcr_5ht2c_6bqh_protein_autoprepared_prepared

>  <s_lp_Force_Field>  (1) 
S-OPLS

>  <s_lp_Variant>  (1) 
Pocket2Mol_5-1

>  <s_m_source_file>  (1) 
generated_GPCR_5HT2C_ligand_Pocket2Mol_2026-06-23_prepared.sdf

>  <GenAI_Model>  (1) 
Pocket2Mol

>  <Protein>  (1) 
GPCR_5HT2C

$$$$
Pocket2Mol_16
     RDKit          3D

  0  0  0  0  0  0  0  0  0  0999 V3000
M  V30 BEGIN CTAB
M  V30 COUNTS 18 18 0 0 1
M  V30 BEGIN ATOM
M  V30 1 C 39.935287 27.030786 57.519439 0
M  V30 2 C 38.800693 26.088058 57.949681 0
M  V30 3 C 38.685044 24.883800 57.002106 0
M  V30 4 C 39.753219 27.485727 56.062829 0
M  V30 5 C 38.504146 25.337767 55.544987 0
M  V30 6 C 39.639595 26.281128 55.113206 0
M  V30 7 H 39.968919 27.898421 58.179031 0
M  V30 8 H 40.895283 26.523974 57.627121 0
M  V30 9 H 38.972959 25.741459 58.967759 0
M  V30 10 H 37.856534 26.634185 57.963789 0
M  V30 11 H 39.581995 24.268007 57.084529 0
M  V30 12 H 37.849042 24.251438 57.303056 0
M  V30 13 H 38.857127 28.102403 55.980830 0
M  V30 14 H 40.591123 28.117567 55.767760 0
M  V30 15 H 37.544823 25.845768 55.436069 0
M  V30 16 H 38.468828 24.468893 54.887757 0
M  V30 17 H 39.471086 26.624360 54.091976 0
M  V30 18 H 40.584779 25.737755 55.105066 0
M  V30 END ATOM
M  V30 BEGIN BOND
M  V30 1 1 2 1
M  V30 2 1 3 2
M  V30 3 1 4 1
M  V30 4 1 5 3
M  V30 5 1 6 4
M  V30 6 1 6 5
M  V30 7 1 7 1
M  V30 8 1 8 1
M  V30 9 1 9 2
M  V30 10 1 10 2
M  V30 11 1 11 3
M  V30 12 1 12 3
M  V30 13 1 13 4
M  V30 14 1 14 4
M  V30 15 1 15 5
M  V30 16 1 16 5
M  V30 17 1 17 6
M  V30 18 1 18 6
M  V30 END BOND
M  V30 END CTAB
M  END
>  <i_epik_Tot_Q>  (1) 
0

>  <i_epik_Tot_abs_Q>  (1) 
0

>  <i_i_glide_confnum>  (1) 
1

>  <i_i_glide_lignum>  (1) 
17

>  <i_i_glide_posenum>  (1) 
24

>  <i_i_glide_rotatable_bonds>  (1) 
0

>  <i_lp_mmshare_version>  (1) 
72125

>  <i_m_source_file_index>  (1) 
17

>  <i_f3d_flags>  (1) 
0

>  <num_sample>  (1) 
50

>  <b_lp_Chiralities_Consistent>  (1) 
1

>  <r_epik_Charging_Adjusted_Penalty>  (1) 
0

>  <r_epik_Ionization_Penalty>  (1) 
0

>  <r_epik_Ionization_Penalty_Charging>  (1) 
0

>  <r_epik_Ionization_Penalty_Neutral>  (1) 
0

>  <r_epik_State_Penalty>  (1) 
-0

>  <r_glide_ring_energy>  (1) 
0

>  <r_i_docking_score>  (1) 
-4.8526197240339801

>  <r_i_glide_ecoul>  (1) 
0.094618541792834909

>  <r_i_glide_eff_state_penalty>  (1) 
-0

>  <r_i_glide_einternal>  (1) 
0

>  <r_i_glide_emodel>  (1) 
-18.358357251130638

>  <r_i_glide_emodel_strain>  (1) 
0

>  <r_i_glide_energy>  (1) 
-14.25196850321559

>  <r_i_glide_erotb>  (1) 
0

>  <r_i_glide_esite>  (1) 
0

>  <r_i_glide_evdw>  (1) 
-14.346587045008425

>  <r_i_glide_gscore>  (1) 
-4.8526197240339801

>  <r_i_glide_gscore_strain>  (1) 
0

>  <r_i_glide_hbond>  (1) 
0

>  <r_i_glide_ligand_efficiency>  (1) 
-0.80876995400566332

>  <r_i_glide_ligand_efficiency_ln>  (1) 
-1.7381940591664835

>  <r_i_glide_ligand_efficiency_sa>  (1) 
-1.4696325382875934

>  <r_i_glide_lipo>  (1) 
-1.7425537691724993

>  <r_i_glide_metal>  (1) 
-0

>  <r_i_glide_rewards>  (1) 
-2.4069293838799855

>  <r_lp_Energy>  (1) 
5.7175969999999996

>  <r_lp_tautomer_probability>  (1) 
1

>  <s_epik_cmdline>  (1) 
J2VwaWtfcHl0aG9uJywgJy1waHQnLCAnMS4wJywgJy1waCcsICc3LjQnLCAnLXRuJywgJzgnLCAnLW1hJywgJzUwMCcsICctaW1hZScsICc8aW5maWxlLm1hZT4nLCAnLW9tYWUnLCAnPG91dGZpbGUubWFlPic=

>  <s_epik_input>  (1) 
W0NIMl0xW0NIMl1bQ0gyXVtDSDJdW0NIMl1bQ0gyXTE=

>  <s_glide_docking_method>  (1) 
confgen

>  <s_i_glide_gridfile>  (1) 
gpcr_5ht2c_6bqh_protein_autoprepared_prepared

>  <s_lp_Force_Field>  (1) 
S-OPLS

>  <s_lp_Variant>  (1) 
Pocket2Mol_16-1

>  <s_m_source_file>  (1) 
generated_GPCR_5HT2C_ligand_Pocket2Mol_2026-06-23_prepared.sdf

>  <GenAI_Model>  (1) 
Pocket2Mol

>  <Protein>  (1) 
GPCR_5HT2C

$$$$
Pocket2Mol_35
     RDKit          3D

  0  0  0  0  0  0  0  0  0  0999 V3000
M  V30 BEGIN CTAB
M  V30 COUNTS 11 11 0 0 1
M  V30 BEGIN ATOM
M  V30 1 C 39.494407 28.137755 51.048278 0
M  V30 2 O 38.553171 27.537936 51.852800 0
M  V30 3 C 38.090395 28.099576 53.057845 0
M  V30 4 O 37.245155 27.560735 53.767759 0
M  V30 5 C 38.730278 29.421301 53.389929 0
M  V30 6 C 40.036250 29.307467 51.367760 0
M  V30 7 C 39.645140 29.964316 52.567757 0
M  V30 8 H 39.723977 27.560123 50.167758 0
M  V30 9 H 38.434735 29.922539 54.300231 0
M  V30 10 H 40.773832 29.758067 50.719348 0
M  V30 11 H 40.091114 30.915188 52.822760 0
M  V30 END ATOM
M  V30 BEGIN BOND
M  V30 1 1 2 1
M  V30 2 1 3 2
M  V30 3 2 4 3
M  V30 4 1 5 3
M  V30 5 2 6 1
M  V30 6 2 7 5
M  V30 7 1 7 6
M  V30 8 1 8 1
M  V30 9 1 9 5
M  V30 10 1 10 6
M  V30 11 1 11 7
M  V30 END BOND
M  V30 END CTAB
M  END
>  <i_epik_Tot_Q>  (1) 
0

>  <i_epik_Tot_abs_Q>  (1) 
0

>  <i_i_glide_confnum>  (1) 
1

>  <i_i_glide_lignum>  (1) 
36

>  <i_i_glide_posenum>  (1) 
248

>  <i_i_glide_rotatable_bonds>  (1) 
0

>  <i_lp_mmshare_version>  (1) 
72125

>  <i_m_source_file_index>  (1) 
36

>  <i_f3d_flags>  (1) 
0

>  <num_sample>  (1) 
50

>  <b_lp_Chiralities_Consistent>  (1) 
1

>  <r_epik_Charging_Adjusted_Penalty>  (1) 
0

>  <r_epik_Ionization_Penalty>  (1) 
2.4984917370333966e-09

>  <r_epik_Ionization_Penalty_Charging>  (1) 
0

>  <r_epik_Ionization_Penalty_Neutral>  (1) 
2.4984917370333966e-09

>  <r_epik_State_Penalty>  (1) 
-0

>  <r_glide_ring_energy>  (1) 
0

>  <r_i_docking_score>  (1) 
-4.8504286138139703

>  <r_i_glide_ecoul>  (1) 
-0.2167822183640114

>  <r_i_glide_eff_state_penalty>  (1) 
-0

>  <r_i_glide_einternal>  (1) 
0

>  <r_i_glide_emodel>  (1) 
-22.672233237807454

>  <r_i_glide_emodel_strain>  (1) 
9.7006846999647678e-12

>  <r_i_glide_energy>  (1) 
-17.541021716903789

>  <r_i_glide_erotb>  (1) 
0

>  <r_i_glide_esite>  (1) 
0

>  <r_i_glide_evdw>  (1) 
-17.324239498539779

>  <r_i_glide_gscore>  (1) 
-4.8504286138139703

>  <r_i_glide_gscore_strain>  (1) 
0

>  <r_i_glide_hbond>  (1) 
0

>  <r_i_glide_ligand_efficiency>  (1) 
-0.6929183734019958

>  <r_i_glide_ligand_efficiency_ln>  (1) 
-1.6464957749540978

>  <r_i_glide_ligand_efficiency_sa>  (1) 
-1.3255051635965998

>  <r_i_glide_lipo>  (1) 
-1.569855287052708

>  <r_i_glide_metal>  (1) 
-0

>  <r_i_glide_rewards>  (1) 
-2.3818440190796717

>  <r_lp_Energy>  (1) 
11.255118999999999

>  <r_lp_tautomer_probability>  (1) 
1

>  <s_epik_cmdline>  (1) 
J2VwaWtfcHl0aG9uJywgJy1waHQnLCAnMS4wJywgJy1waCcsICc3LjQnLCAnLXRuJywgJzgnLCAnLW1hJywgJzUwMCcsICctaW1hZScsICc8aW5maWxlLm1hZT4nLCAnLW9tYWUnLCAnPG91dGZpbGUubWFlPic=

>  <s_epik_input>  (1) 
W2NIXTFbY0hdW2NIXVtjSF1vYzE9Tw==

>  <s_glide_docking_method>  (1) 
confgen

>  <s_i_glide_gridfile>  (1) 
gpcr_5ht2c_6bqh_protein_autoprepared_prepared

>  <s_lp_Force_Field>  (1) 
S-OPLS

>  <s_lp_Variant>  (1) 
Pocket2Mol_35-1

>  <s_m_source_file>  (1) 
generated_GPCR_5HT2C_ligand_Pocket2Mol_2026-06-23_prepared.sdf

>  <GenAI_Model>  (1) 
Pocket2Mol

>  <Protein>  (1) 
GPCR_5HT2C

$$$$
Pocket2Mol_5
     RDKit          3D

  0  0  0  0  0  0  0  0  0  0999 V3000
M  V30 BEGIN CTAB
M  V30 COUNTS 13 13 0 0 1
M  V30 BEGIN ATOM
M  V30 1 C 38.845887 27.987913 51.767763 0
M  V30 2 C 39.652313 28.935055 50.968779 0
M  V30 3 C 38.826804 28.849769 53.115698 0
M  V30 4 C 39.645137 30.217000 52.967760 0
M  V30 5 C 40.045102 30.025891 51.556074 0
M  V30 6 H 37.851241 27.844027 51.345986 0
M  V30 7 H 39.351695 27.028418 51.880035 0
M  V30 8 H 39.890137 28.704428 49.940572 0
M  V30 9 H 39.239752 28.260464 53.935148 0
M  V30 10 H 37.795375 29.070148 53.393826 0
M  V30 11 H 40.504343 30.270200 53.633984 0
M  V30 12 H 39.025958 31.104702 53.096505 0
M  V30 13 H 40.637765 30.780197 51.057897 0
M  V30 END ATOM
M  V30 BEGIN BOND
M  V30 1 1 2 1
M  V30 2 1 3 1
M  V30 3 1 4 3
M  V30 4 2 5 2
M  V30 5 1 5 4
M  V30 6 1 6 1
M  V30 7 1 7 1
M  V30 8 1 8 2
M  V30 9 1 9 3
M  V30 10 1 10 3
M  V30 11 1 11 4
M  V30 12 1 12 4
M  V30 13 1 13 5
M  V30 END BOND
M  V30 END CTAB
M  END
>  <i_epik_Tot_Q>  (1) 
0

>  <i_epik_Tot_abs_Q>  (1) 
0

>  <i_i_glide_confnum>  (1) 
1

>  <i_i_glide_lignum>  (1) 
6

>  <i_i_glide_posenum>  (1) 
45

>  <i_i_glide_rotatable_bonds>  (1) 
0

>  <i_lp_mmshare_version>  (1) 
72125

>  <i_m_source_file_index>  (1) 
6

>  <i_f3d_flags>  (1) 
0

>  <num_sample>  (1) 
50

>  <b_lp_Chiralities_Consistent>  (1) 
1

>  <r_epik_Charging_Adjusted_Penalty>  (1) 
0

>  <r_epik_Ionization_Penalty>  (1) 
0

>  <r_epik_Ionization_Penalty_Charging>  (1) 
0

>  <r_epik_Ionization_Penalty_Neutral>  (1) 
0

>  <r_epik_State_Penalty>  (1) 
-0

>  <r_glide_ring_energy>  (1) 
0

>  <r_i_docking_score>  (1) 
-4.8466980380843561

>  <r_i_glide_ecoul>  (1) 
-0.35170307343208607

>  <r_i_glide_eff_state_penalty>  (1) 
-0

>  <r_i_glide_einternal>  (1) 
0

>  <r_i_glide_emodel>  (1) 
-17.832192796282122

>  <r_i_glide_emodel_strain>  (1) 
0

>  <r_i_glide_energy>  (1) 
-13.780025020002416

>  <r_i_glide_erotb>  (1) 
0

>  <r_i_glide_esite>  (1) 
0

>  <r_i_glide_evdw>  (1) 
-13.42832194657033

>  <r_i_glide_gscore>  (1) 
-4.8466980380843561

>  <r_i_glide_gscore_strain>  (1) 
0

>  <r_i_glide_hbond>  (1) 
0

>  <r_i_glide_ligand_efficiency>  (1) 
-0.96933960761687121

>  <r_i_glide_ligand_efficiency_ln>  (1) 
-1.8573724306639374

>  <r_i_glide_ligand_efficiency_sa>  (1) 
-1.6575474131858774

>  <r_i_glide_lipo>  (1) 
-1.6058016378221176

>  <r_i_glide_metal>  (1) 
-0

>  <r_i_glide_rewards>  (1) 
-2.5167248419189088

>  <r_lp_Energy>  (1) 
-2.1713199999999997

>  <r_lp_tautomer_probability>  (1) 
1

>  <s_epik_cmdline>  (1) 
J2VwaWtfcHl0aG9uJywgJy1waHQnLCAnMS4wJywgJy1waCcsICc3LjQnLCAnLXRuJywgJzgnLCAnLW1hJywgJzUwMCcsICctaW1hZScsICc8aW5maWxlLm1hZT4nLCAnLW9tYWUnLCAnPG91dGZpbGUubWFlPic=

>  <s_epik_input>  (1) 
W0NIMl0xW0NIXT1bQ0hdW0NIMl1bQ0gyXTE=

>  <s_glide_docking_method>  (1) 
confgen

>  <s_i_glide_gridfile>  (1) 
gpcr_5ht2c_6bqh_protein_autoprepared_prepared

>  <s_lp_Force_Field>  (1) 
S-OPLS

>  <s_lp_Variant>  (1) 
Pocket2Mol_5-1

>  <s_m_source_file>  (1) 
generated_GPCR_5HT2C_ligand_Pocket2Mol_2026-06-23_prepared.sdf

>  <GenAI_Model>  (1) 
Pocket2Mol

>  <Protein>  (1) 
GPCR_5HT2C

$$$$
Pocket2Mol_5
     RDKit          3D

  0  0  0  0  0  0  0  0  0  0999 V3000
M  V30 BEGIN CTAB
M  V30 COUNTS 13 13 0 0 1
M  V30 BEGIN ATOM
M  V30 1 C 39.601283 28.389745 50.773361 0
M  V30 2 C 40.045143 29.669528 51.362134 0
M  V30 3 C 38.738393 27.895103 52.025289 0
M  V30 4 C 38.779425 28.942928 53.233932 0
M  V30 5 C 39.645137 29.940034 52.567757 0
M  V30 6 H 39.000246 28.537758 49.876378 0
M  V30 7 H 40.445137 27.737755 50.557129 0
M  V30 8 H 40.678264 30.333896 50.791347 0
M  V30 9 H 39.101205 26.923606 52.362241 0
M  V30 10 H 37.704644 27.737748 51.714268 0
M  V30 11 H 39.245143 28.540380 54.133414 0
M  V30 12 H 37.799290 29.358847 53.469321 0
M  V30 13 H 39.916136 30.849270 53.085423 0
M  V30 END ATOM
M  V30 BEGIN BOND
M  V30 1 1 2 1
M  V30 2 1 3 1
M  V30 3 1 4 3
M  V30 4 2 5 2
M  V30 5 1 5 4
M  V30 6 1 6 1
M  V30 7 1 7 1
M  V30 8 1 8 2
M  V30 9 1 9 3
M  V30 10 1 10 3
M  V30 11 1 11 4
M  V30 12 1 12 4
M  V30 13 1 13 5
M  V30 END BOND
M  V30 END CTAB
M  END
>  <i_epik_Tot_Q>  (1) 
0

>  <i_epik_Tot_abs_Q>  (1) 
0

>  <i_i_glide_confnum>  (1) 
1

>  <i_i_glide_lignum>  (1) 
6

>  <i_i_glide_posenum>  (1) 
219

>  <i_i_glide_rotatable_bonds>  (1) 
0

>  <i_lp_mmshare_version>  (1) 
72125

>  <i_m_source_file_index>  (1) 
6

>  <i_f3d_flags>  (1) 
0

>  <num_sample>  (1) 
50

>  <b_lp_Chiralities_Consistent>  (1) 
1

>  <r_epik_Charging_Adjusted_Penalty>  (1) 
0

>  <r_epik_Ionization_Penalty>  (1) 
0

>  <r_epik_Ionization_Penalty_Charging>  (1) 
0

>  <r_epik_Ionization_Penalty_Neutral>  (1) 
0

>  <r_epik_State_Penalty>  (1) 
-0

>  <r_glide_ring_energy>  (1) 
0

>  <r_i_docking_score>  (1) 
-4.8420164632734375

>  <r_i_glide_ecoul>  (1) 
-0.41882764201781414

>  <r_i_glide_eff_state_penalty>  (1) 
-0

>  <r_i_glide_einternal>  (1) 
0

>  <r_i_glide_emodel>  (1) 
-17.858731189126281

>  <r_i_glide_emodel_strain>  (1) 
0

>  <r_i_glide_energy>  (1) 
-13.810477526422865

>  <r_i_glide_erotb>  (1) 
0

>  <r_i_glide_esite>  (1) 
0

>  <r_i_glide_evdw>  (1) 
-13.391649884405052

>  <r_i_glide_gscore>  (1) 
-4.8420164632734375

>  <r_i_glide_gscore_strain>  (1) 
0

>  <r_i_glide_hbond>  (1) 
0

>  <r_i_glide_ligand_efficiency>  (1) 
-0.9684032926546875

>  <r_i_glide_ligand_efficiency_ln>  (1) 
-1.8555783374653176

>  <r_i_glide_ligand_efficiency_sa>  (1) 
-1.6559463371220298

>  <r_i_glide_lipo>  (1) 
-1.6060020530894992

>  <r_i_glide_metal>  (1) 
-0

>  <r_i_glide_rewards>  (1) 
-2.5036077696610137

>  <r_lp_Energy>  (1) 
-2.1713199999999997

>  <r_lp_tautomer_probability>  (1) 
1

>  <s_epik_cmdline>  (1) 
J2VwaWtfcHl0aG9uJywgJy1waHQnLCAnMS4wJywgJy1waCcsICc3LjQnLCAnLXRuJywgJzgnLCAnLW1hJywgJzUwMCcsICctaW1hZScsICc8aW5maWxlLm1hZT4nLCAnLW9tYWUnLCAnPG91dGZpbGUubWFlPic=

>  <s_epik_input>  (1) 
W0NIMl0xW0NIXT1bQ0hdW0NIMl1bQ0gyXTE=

>  <s_glide_docking_method>  (1) 
confgen

>  <s_i_glide_gridfile>  (1) 
gpcr_5ht2c_6bqh_protein_autoprepared_prepared

>  <s_lp_Force_Field>  (1) 
S-OPLS

>  <s_lp_Variant>  (1) 
Pocket2Mol_5-1

>  <s_m_source_file>  (1) 
generated_GPCR_5HT2C_ligand_Pocket2Mol_2026-06-23_prepared.sdf

>  <GenAI_Model>  (1) 
Pocket2Mol

>  <Protein>  (1) 
GPCR_5HT2C

$$$$
Pocket2Mol_43
     RDKit          3D

  0  0  0  0  0  0  0  0  0  0999 V3000
M  V30 BEGIN CTAB
M  V30 COUNTS 15 15 0 0 1
M  V30 BEGIN ATOM
M  V30 1 C 39.245136 28.403736 51.095959 0
M  V30 2 O 39.245137 27.370609 52.073471 0
M  V30 3 C 38.845137 27.617175 53.347262 0
M  V30 4 O 38.732138 26.762300 54.222218 0
M  V30 5 C 38.538390 29.099823 53.618530 0
M  V30 6 C 40.045137 29.614852 51.596117 0
M  V30 7 C 39.585309 30.055216 53.002008 0
M  V30 8 H 39.668550 28.021524 50.167759 0
M  V30 9 H 38.213634 28.686012 50.888756 0
M  V30 10 H 37.554479 29.312846 53.201836 0
M  V30 11 H 38.461920 29.266718 54.693324 0
M  V30 12 H 41.098832 29.337789 51.624008 0
M  V30 13 H 39.963805 30.441106 50.888842 0
M  V30 14 H 39.172482 31.063340 52.967760 0
M  V30 15 H 40.445137 30.137755 53.665697 0
M  V30 END ATOM
M  V30 BEGIN BOND
M  V30 1 1 2 1
M  V30 2 1 3 2
M  V30 3 2 4 3
M  V30 4 1 5 3
M  V30 5 1 6 1
M  V30 6 1 7 5
M  V30 7 1 7 6
M  V30 8 1 8 1
M  V30 9 1 9 1
M  V30 10 1 10 5
M  V30 11 1 11 5
M  V30 12 1 12 6
M  V30 13 1 13 6
M  V30 14 1 14 7
M  V30 15 1 15 7
M  V30 END BOND
M  V30 END CTAB
M  END
>  <i_epik_Tot_Q>  (1) 
0

>  <i_epik_Tot_abs_Q>  (1) 
0

>  <i_i_glide_confnum>  (1) 
4

>  <i_i_glide_lignum>  (1) 
44

>  <i_i_glide_posenum>  (1) 
165

>  <i_i_glide_rotatable_bonds>  (1) 
0

>  <i_lp_mmshare_version>  (1) 
72125

>  <i_m_source_file_index>  (1) 
44

>  <i_f3d_flags>  (1) 
0

>  <num_sample>  (1) 
50

>  <b_lp_Chiralities_Consistent>  (1) 
1

>  <r_epik_Charging_Adjusted_Penalty>  (1) 
0

>  <r_epik_Ionization_Penalty>  (1) 
4.2138389519661579e-10

>  <r_epik_Ionization_Penalty_Charging>  (1) 
0

>  <r_epik_Ionization_Penalty_Neutral>  (1) 
4.2138389519661579e-10

>  <r_epik_State_Penalty>  (1) 
-0

>  <r_glide_ring_energy>  (1) 
0.70488572220387524

>  <r_i_docking_score>  (1) 
-4.8383933737558422

>  <r_i_glide_ecoul>  (1) 
-0.037464269652930926

>  <r_i_glide_eff_state_penalty>  (1) 
-0

>  <r_i_glide_einternal>  (1) 
0

>  <r_i_glide_emodel>  (1) 
-21.961707138555546

>  <r_i_glide_emodel_strain>  (1) 
0

>  <r_i_glide_energy>  (1) 
-16.512070922315466

>  <r_i_glide_erotb>  (1) 
0

>  <r_i_glide_esite>  (1) 
0

>  <r_i_glide_evdw>  (1) 
-16.474606652662537

>  <r_i_glide_gscore>  (1) 
-4.8383933737558422

>  <r_i_glide_gscore_strain>  (1) 
0

>  <r_i_glide_hbond>  (1) 
0

>  <r_i_glide_ligand_efficiency>  (1) 
-0.6911990533936917

>  <r_i_glide_ligand_efficiency_ln>  (1) 
-1.6424103685943732

>  <r_i_glide_ligand_efficiency_sa>  (1) 
-1.3222162227395506

>  <r_i_glide_lipo>  (1) 
-1.2680079464168692

>  <r_i_glide_metal>  (1) 
-0

>  <r_i_glide_rewards>  (1) 
-2.7410354542579061

>  <r_lp_Energy>  (1) 
8.5246700000000004

>  <r_lp_tautomer_probability>  (1) 
1

>  <s_epik_Chemistry_Notes>  (1) 
This compound has an ester and may undergo hydrolysis at high or low pH.

>  <s_epik_cmdline>  (1) 
J2VwaWtfcHl0aG9uJywgJy1waHQnLCAnMS4wJywgJy1waCcsICc3LjQnLCAnLXRuJywgJzgnLCAnLW1hJywgJzUwMCcsICctaW1hZScsICc8aW5maWxlLm1hZT4nLCAnLW9tYWUnLCAnPG91dGZpbGUubWFlPic=

>  <s_epik_input>  (1) 
W0NIMl0xW0NIMl1bQ0gyXVtDSDJdT0MxPU8=

>  <s_glide_docking_method>  (1) 
confgen

>  <s_i_glide_gridfile>  (1) 
gpcr_5ht2c_6bqh_protein_autoprepared_prepared

>  <s_lp_Force_Field>  (1) 
S-OPLS

>  <s_lp_Variant>  (1) 
Pocket2Mol_43-1

>  <s_m_source_file>  (1) 
generated_GPCR_5HT2C_ligand_Pocket2Mol_2026-06-23_prepared.sdf

>  <GenAI_Model>  (1) 
Pocket2Mol

>  <Protein>  (1) 
GPCR_5HT2C

$$$$
Pocket2Mol_44
     RDKit          3D

  0  0  0  0  0  0  0  0  0  0999 V3000
M  V30 BEGIN CTAB
M  V30 COUNTS 12 11 0 0 1
M  V30 BEGIN ATOM
M  V30 1 C 39.378692 30.938630 55.038086 0
M  V30 2 O 38.663697 29.800991 54.591051 0
M  V30 3 C 38.845355 29.359660 53.334308 0
M  V30 4 C 37.908889 28.177930 53.018871 0
M  V30 5 O 39.645120 29.824095 52.516580 0
M  V30 6 O 37.126842 27.713190 53.841396 0
M  V30 7 N 38.045138 27.737788 51.767978 0
M  V30 8 H 39.089196 31.182401 56.060010 0
M  V30 9 H 40.452686 30.752537 55.021565 0
M  V30 10 H 39.165266 31.803837 54.409638 0
M  V30 11 H 38.713776 28.175880 51.150484 0
M  V30 12 H 37.466185 26.970469 51.437868 0
M  V30 END ATOM
M  V30 BEGIN BOND
M  V30 1 1 2 1
M  V30 2 1 3 2
M  V30 3 1 4 3
M  V30 4 2 5 3
M  V30 5 2 6 4
M  V30 6 1 7 4
M  V30 7 1 8 1
M  V30 8 1 9 1
M  V30 9 1 10 1
M  V30 10 1 11 7
M  V30 11 1 12 7
M  V30 END BOND
M  V30 END CTAB
M  END
>  <i_epik_Tot_Q>  (1) 
0

>  <i_epik_Tot_abs_Q>  (1) 
0

>  <i_i_glide_confnum>  (1) 
1

>  <i_i_glide_lignum>  (1) 
45

>  <i_i_glide_posenum>  (1) 
387

>  <i_i_glide_rotatable_bonds>  (1) 
2

>  <i_lp_mmshare_version>  (1) 
72125

>  <i_m_source_file_index>  (1) 
45

>  <i_f3d_flags>  (1) 
0

>  <num_sample>  (1) 
50

>  <b_lp_Chiralities_Consistent>  (1) 
1

>  <r_epik_Charging_Adjusted_Penalty>  (1) 
0

>  <r_epik_Ionization_Penalty>  (1) 
3.9236796398539443e-05

>  <r_epik_Ionization_Penalty_Charging>  (1) 
0

>  <r_epik_Ionization_Penalty_Neutral>  (1) 
3.9236796398539443e-05

>  <r_epik_State_Penalty>  (1) 
-0

>  <r_glide_ring_energy>  (1) 
0

>  <r_i_docking_score>  (1) 
-4.8366703241677955

>  <r_i_glide_ecoul>  (1) 
-3.4388953694432316

>  <r_i_glide_eff_state_penalty>  (1) 
-0

>  <r_i_glide_einternal>  (1) 
0.10787820841480755

>  <r_i_glide_emodel>  (1) 
-24.579000664812096

>  <r_i_glide_emodel_strain>  (1) 
0

>  <r_i_glide_energy>  (1) 
-18.3297679067927

>  <r_i_glide_erotb>  (1) 
0

>  <r_i_glide_esite>  (1) 
0

>  <r_i_glide_evdw>  (1) 
-14.890872537349468

>  <r_i_glide_gscore>  (1) 
-4.8366703241677955

>  <r_i_glide_gscore_strain>  (1) 
0

>  <r_i_glide_hbond>  (1) 
-0.32000000000000001

>  <r_i_glide_ligand_efficiency>  (1) 
-0.69095290345254223

>  <r_i_glide_ligand_efficiency_ln>  (1) 
-1.641825473094896

>  <r_i_glide_ligand_efficiency_sa>  (1) 
-1.3217453548414879

>  <r_i_glide_lipo>  (1) 
-0.22429841664137218

>  <r_i_glide_metal>  (1) 
-0

>  <r_i_glide_rewards>  (1) 
-3.0319939752424654

>  <r_lp_Energy>  (1) 
8.3220650000000003

>  <r_lp_tautomer_probability>  (1) 
1

>  <s_epik_Chemistry_Notes>  (1) 
This compound has an ester and may undergo hydrolysis at high or low pH.

>  <s_epik_cmdline>  (1) 
J2VwaWtfcHl0aG9uJywgJy1waHQnLCAnMS4wJywgJy1waCcsICc3LjQnLCAnLXRuJywgJzgnLCAnLW1hJywgJzUwMCcsICctaW1hZScsICc8aW5maWxlLm1hZT4nLCAnLW9tYWUnLCAnPG91dGZpbGUubWFlPic=

>  <s_epik_input>  (1) 
W0NIM11PQyg9TylDKD1PKVtOSDJd

>  <s_glide_docking_method>  (1) 
confgen

>  <s_i_glide_gridfile>  (1) 
gpcr_5ht2c_6bqh_protein_autoprepared_prepared

>  <s_lp_Force_Field>  (1) 
S-OPLS

>  <s_lp_Variant>  (1) 
Pocket2Mol_44-1

>  <s_m_source_file>  (1) 
generated_GPCR_5HT2C_ligand_Pocket2Mol_2026-06-23_prepared.sdf

>  <GenAI_Model>  (1) 
Pocket2Mol

>  <Protein>  (1) 
GPCR_5HT2C

$$$$
Pocket2Mol_15
     RDKit          3D

  0  0  0  0  0  0  0  0  0  0999 V3000
M  V30 BEGIN CTAB
M  V30 COUNTS 16 16 0 0 1
M  V30 BEGIN ATOM
M  V30 1 C 38.057984 28.151068 52.517145 0
M  V30 2 C 39.245143 27.881262 51.598080 0
M  V30 3 C 38.632977 29.102127 53.565692 0
M  V30 4 C 39.982362 29.222771 51.512984 0
M  V30 5 C 39.645138 29.982882 52.810573 0
M  V30 6 O 37.611257 29.846059 54.188411 0
M  V30 7 H 37.641238 27.240530 52.949743 0
M  V30 8 H 37.264300 28.641628 51.951509 0
M  V30 9 H 39.889600 27.136294 52.064012 0
M  V30 10 H 38.944215 27.498540 50.622269 0
M  V30 11 H 39.158416 28.519175 54.323369 0
M  V30 12 H 41.054822 29.080129 51.383248 0
M  V30 13 H 39.622738 29.788880 50.652467 0
M  V30 14 H 39.245201 30.967591 52.567583 0
M  V30 15 H 40.518978 30.167259 53.431079 0
M  V30 16 H 37.985438 30.411549 54.848751 0
M  V30 END ATOM
M  V30 BEGIN BOND
M  V30 1 1 2 1
M  V30 2 1 3 1
M  V30 3 1 4 2
M  V30 4 1 5 3
M  V30 5 1 5 4
M  V30 6 1 6 3
M  V30 7 1 7 1
M  V30 8 1 8 1
M  V30 9 1 9 2
M  V30 10 1 10 2
M  V30 11 1 11 3
M  V30 12 1 12 4
M  V30 13 1 13 4
M  V30 14 1 14 5
M  V30 15 1 15 5
M  V30 16 1 16 6
M  V30 END BOND
M  V30 END CTAB
M  END
>  <i_epik_Tot_Q>  (1) 
0

>  <i_epik_Tot_abs_Q>  (1) 
0

>  <i_i_glide_confnum>  (1) 
1

>  <i_i_glide_lignum>  (1) 
16

>  <i_i_glide_posenum>  (1) 
392

>  <i_i_glide_rotatable_bonds>  (1) 
1

>  <i_lp_mmshare_version>  (1) 
72125

>  <i_m_source_file_index>  (1) 
16

>  <i_f3d_flags>  (1) 
0

>  <num_sample>  (1) 
50

>  <b_lp_Chiralities_Consistent>  (1) 
1

>  <r_epik_Charging_Adjusted_Penalty>  (1) 
0

>  <r_epik_Ionization_Penalty>  (1) 
4.538991431931509e-07

>  <r_epik_Ionization_Penalty_Charging>  (1) 
0

>  <r_epik_Ionization_Penalty_Neutral>  (1) 
4.538991431931509e-07

>  <r_epik_State_Penalty>  (1) 
-0

>  <r_glide_ring_energy>  (1) 
0

>  <r_i_docking_score>  (1) 
-4.8348949107220758

>  <r_i_glide_ecoul>  (1) 
-0.9911720955177129

>  <r_i_glide_eff_state_penalty>  (1) 
-0

>  <r_i_glide_einternal>  (1) 
0.31318164190370135

>  <r_i_glide_emodel>  (1) 
-19.996401766403192

>  <r_i_glide_emodel_strain>  (1) 
0.12042510452746669

>  <r_i_glide_energy>  (1) 
-15.523757823010905

>  <r_i_glide_erotb>  (1) 
0

>  <r_i_glide_esite>  (1) 
0

>  <r_i_glide_evdw>  (1) 
-14.532585727493192

>  <r_i_glide_gscore>  (1) 
-4.8348949107220758

>  <r_i_glide_gscore_strain>  (1) 
0

>  <r_i_glide_hbond>  (1) 
0

>  <r_i_glide_ligand_efficiency>  (1) 
-0.80581581845367933

>  <r_i_glide_ligand_efficiency_ln>  (1) 
-1.73184508336564

>  <r_i_glide_ligand_efficiency_sa>  (1) 
-1.4642645177420657

>  <r_i_glide_lipo>  (1) 
-1.6019536089614774

>  <r_i_glide_metal>  (1) 
-0

>  <r_i_glide_rewards>  (1) 
-2.3576362010582828

>  <r_lp_Energy>  (1) 
8.9029089999999993

>  <r_lp_tautomer_probability>  (1) 
1

>  <s_epik_cmdline>  (1) 
J2VwaWtfcHl0aG9uJywgJy1waHQnLCAnMS4wJywgJy1waCcsICc3LjQnLCAnLXRuJywgJzgnLCAnLW1hJywgJzUwMCcsICctaW1hZScsICc8aW5maWxlLm1hZT4nLCAnLW9tYWUnLCAnPG91dGZpbGUubWFlPic=

>  <s_epik_input>  (1) 
W09IXVtDSF0xW0NIMl1bQ0gyXVtDSDJdW0NIMl0x

>  <s_glide_docking_method>  (1) 
confgen

>  <s_i_glide_gridfile>  (1) 
gpcr_5ht2c_6bqh_protein_autoprepared_prepared

>  <s_lp_Force_Field>  (1) 
S-OPLS

>  <s_lp_Variant>  (1) 
Pocket2Mol_15-1

>  <s_m_source_file>  (1) 
generated_GPCR_5HT2C_ligand_Pocket2Mol_2026-06-23_prepared.sdf

>  <GenAI_Model>  (1) 
Pocket2Mol

>  <Protein>  (1) 
GPCR_5HT2C

$$$$
Pocket2Mol_5
     RDKit          3D

  0  0  0  0  0  0  0  0  0  0999 V3000
M  V30 BEGIN CTAB
M  V30 COUNTS 13 13 0 0 1
M  V30 BEGIN ATOM
M  V30 1 C 38.706749 27.833049 51.868387 0
M  V30 2 C 38.927933 28.937862 52.822458 0
M  V30 3 C 39.575897 28.445102 50.672864 0
M  V30 4 C 40.168389 29.884923 51.032788 0
M  V30 5 C 39.645132 29.942093 52.414636 0
M  V30 6 H 39.100368 26.887876 52.242649 0
M  V30 7 H 37.648151 27.737609 51.622770 0
M  V30 8 H 38.499615 28.887006 53.813100 0
M  V30 9 H 38.972310 28.510887 49.767760 0
M  V30 10 H 40.394199 27.763788 50.440353 0
M  V30 11 H 39.749418 30.682233 50.417416 0
M  V30 12 H 41.256953 29.914963 51.001024 0
M  V30 13 H 39.863120 30.798312 53.037427 0
M  V30 END ATOM
M  V30 BEGIN BOND
M  V30 1 1 2 1
M  V30 2 1 3 1
M  V30 3 1 4 3
M  V30 4 2 5 2
M  V30 5 1 5 4
M  V30 6 1 6 1
M  V30 7 1 7 1
M  V30 8 1 8 2
M  V30 9 1 9 3
M  V30 10 1 10 3
M  V30 11 1 11 4
M  V30 12 1 12 4
M  V30 13 1 13 5
M  V30 END BOND
M  V30 END CTAB
M  END
>  <i_epik_Tot_Q>  (1) 
0

>  <i_epik_Tot_abs_Q>  (1) 
0

>  <i_i_glide_confnum>  (1) 
1

>  <i_i_glide_lignum>  (1) 
6

>  <i_i_glide_posenum>  (1) 
397

>  <i_i_glide_rotatable_bonds>  (1) 
0

>  <i_lp_mmshare_version>  (1) 
72125

>  <i_m_source_file_index>  (1) 
6

>  <i_f3d_flags>  (1) 
0

>  <num_sample>  (1) 
50

>  <b_lp_Chiralities_Consistent>  (1) 
1

>  <r_epik_Charging_Adjusted_Penalty>  (1) 
0

>  <r_epik_Ionization_Penalty>  (1) 
0

>  <r_epik_Ionization_Penalty_Charging>  (1) 
0

>  <r_epik_Ionization_Penalty_Neutral>  (1) 
0

>  <r_epik_State_Penalty>  (1) 
-0

>  <r_glide_ring_energy>  (1) 
0

>  <r_i_docking_score>  (1) 
-4.8317224086729063

>  <r_i_glide_ecoul>  (1) 
-0.41898916936496328

>  <r_i_glide_eff_state_penalty>  (1) 
-0

>  <r_i_glide_einternal>  (1) 
0

>  <r_i_glide_emodel>  (1) 
-17.879012834364154

>  <r_i_glide_emodel_strain>  (1) 
0

>  <r_i_glide_energy>  (1) 
-13.839365698416017

>  <r_i_glide_erotb>  (1) 
0

>  <r_i_glide_esite>  (1) 
0

>  <r_i_glide_evdw>  (1) 
-13.420376529051055

>  <r_i_glide_gscore>  (1) 
-4.8317224086729063

>  <r_i_glide_gscore_strain>  (1) 
0

>  <r_i_glide_hbond>  (1) 
0

>  <r_i_glide_ligand_efficiency>  (1) 
-0.96634448173458121

>  <r_i_glide_ligand_efficiency_ln>  (1) 
-1.851633405665454

>  <r_i_glide_ligand_efficiency_sa>  (1) 
-1.6524258199698927

>  <r_i_glide_lipo>  (1) 
-1.6178492346558442

>  <r_i_glide_metal>  (1) 
-0

>  <r_i_glide_rewards>  (1) 
-2.4800059721597649

>  <r_lp_Energy>  (1) 
-2.1713199999999997

>  <r_lp_tautomer_probability>  (1) 
1

>  <s_epik_cmdline>  (1) 
J2VwaWtfcHl0aG9uJywgJy1waHQnLCAnMS4wJywgJy1waCcsICc3LjQnLCAnLXRuJywgJzgnLCAnLW1hJywgJzUwMCcsICctaW1hZScsICc8aW5maWxlLm1hZT4nLCAnLW9tYWUnLCAnPG91dGZpbGUubWFlPic=

>  <s_epik_input>  (1) 
W0NIMl0xW0NIXT1bQ0hdW0NIMl1bQ0gyXTE=

>  <s_glide_docking_method>  (1) 
confgen

>  <s_i_glide_gridfile>  (1) 
gpcr_5ht2c_6bqh_protein_autoprepared_prepared

>  <s_lp_Force_Field>  (1) 
S-OPLS

>  <s_lp_Variant>  (1) 
Pocket2Mol_5-1

>  <s_m_source_file>  (1) 
generated_GPCR_5HT2C_ligand_Pocket2Mol_2026-06-23_prepared.sdf

>  <GenAI_Model>  (1) 
Pocket2Mol

>  <Protein>  (1) 
GPCR_5HT2C

$$$$
Pocket2Mol_2
     RDKit          3D

  0  0  0  0  0  0  0  0  0  0999 V3000
M  V30 BEGIN CTAB
M  V30 COUNTS 9 9 0 0 1
M  V30 BEGIN ATOM
M  V30 1 C 39.932794 29.844784 51.739561 0
M  V30 2 C 39.933136 28.888132 50.696258 0
M  V30 3 C 39.245131 29.335382 52.682310 0
M  V30 4 C 38.825894 28.063808 52.216778 0
M  V30 5 C 39.245168 27.753155 50.967754 0
M  V30 6 H 40.415475 30.811830 51.735395 0
M  V30 7 H 40.445135 29.060871 49.761574 0
M  V30 8 H 39.025959 29.781818 53.641739 0
M  V30 9 H 38.219096 27.402691 52.819228 0
M  V30 END ATOM
M  V30 BEGIN BOND
M  V30 1 1 2 1
M  V30 2 2 3 1
M  V30 3 1 4 3
M  V30 4 2 5 2
M  V30 5 2 5 4
M  V30 6 1 6 1
M  V30 7 1 7 2
M  V30 8 1 8 3
M  V30 9 1 9 4
M  V30 END BOND
M  V30 END CTAB
M  END
>  <i_epik_Tot_Q>  (1) 
0

>  <i_epik_Tot_abs_Q>  (1) 
0

>  <i_i_glide_confnum>  (1) 
1

>  <i_i_glide_lignum>  (1) 
3

>  <i_i_glide_posenum>  (1) 
362

>  <i_i_glide_rotatable_bonds>  (1) 
0

>  <i_lp_mmshare_version>  (1) 
72125

>  <i_m_source_file_index>  (1) 
3

>  <i_f3d_flags>  (1) 
0

>  <num_sample>  (1) 
50

>  <b_lp_Chiralities_Consistent>  (1) 
1

>  <r_epik_Charging_Adjusted_Penalty>  (1) 
0

>  <r_epik_Ionization_Penalty>  (1) 
0

>  <r_epik_Ionization_Penalty_Charging>  (1) 
0

>  <r_epik_Ionization_Penalty_Neutral>  (1) 
0

>  <r_epik_State_Penalty>  (1) 
-0

>  <r_glide_ring_energy>  (1) 
0

>  <r_i_docking_score>  (1) 
-4.8281018962157782

>  <r_i_glide_ecoul>  (1) 
-0.22544240851293543

>  <r_i_glide_eff_state_penalty>  (1) 
-0

>  <r_i_glide_einternal>  (1) 
0

>  <r_i_glide_emodel>  (1) 
-17.980406622096034

>  <r_i_glide_emodel_strain>  (1) 
0

>  <r_i_glide_energy>  (1) 
-13.755360957320134

>  <r_i_glide_erotb>  (1) 
0

>  <r_i_glide_esite>  (1) 
0

>  <r_i_glide_evdw>  (1) 
-13.529918548807199

>  <r_i_glide_gscore>  (1) 
-4.8281018962157782

>  <r_i_glide_gscore_strain>  (1) 
0

>  <r_i_glide_hbond>  (1) 
0

>  <r_i_glide_ligand_efficiency>  (1) 
-0.96562037924315569

>  <r_i_glide_ligand_efficiency_ln>  (1) 
-1.8502459373375524

>  <r_i_glide_ligand_efficiency_sa>  (1) 
-1.6511876221266262

>  <r_i_glide_lipo>  (1) 
-1.5817829473232261

>  <r_i_glide_metal>  (1) 
-0

>  <r_i_glide_rewards>  (1) 
-2.5360066601752518

>  <r_lp_Energy>  (1) 
-2.6088139999999997

>  <r_lp_tautomer_probability>  (1) 
1

>  <s_epik_cmdline>  (1) 
J2VwaWtfcHl0aG9uJywgJy1waHQnLCAnMS4wJywgJy1waCcsICc3LjQnLCAnLXRuJywgJzgnLCAnLW1hJywgJzUwMCcsICctaW1hZScsICc8aW5maWxlLm1hZT4nLCAnLW9tYWUnLCAnPG91dGZpbGUubWFlPic=

>  <s_epik_input>  (1) 
W0NIXTE9W0NIXVtDSF09Qz1bQ0hdMQ==

>  <s_glide_docking_method>  (1) 
confgen

>  <s_i_glide_gridfile>  (1) 
gpcr_5ht2c_6bqh_protein_autoprepared_prepared

>  <s_lp_Force_Field>  (1) 
S-OPLS

>  <s_lp_Variant>  (1) 
Pocket2Mol_2-1

>  <s_m_source_file>  (1) 
generated_GPCR_5HT2C_ligand_Pocket2Mol_2026-06-23_prepared.sdf

>  <GenAI_Model>  (1) 
Pocket2Mol

>  <Protein>  (1) 
GPCR_5HT2C

$$$$
Pocket2Mol_48
     RDKit          3D

  0  0  0  0  0  0  0  0  0  0999 V3000
M  V30 BEGIN CTAB
M  V30 COUNTS 15 15 0 0 1
M  V30 BEGIN ATOM
M  V30 1 C 39.897463 28.807714 51.040556 0
M  V30 2 C 40.120412 30.297357 50.791174 0
M  V30 3 C 38.938385 28.794819 52.226575 0
M  V30 4 C 39.354737 30.019392 53.051317 0
M  V30 5 N 40.045137 30.937720 52.119134 0 CHG=1
M  V30 6 H 40.839232 28.335859 51.322882 0
M  V30 7 H 39.503156 28.284611 50.167813 0
M  V30 8 H 41.067986 30.507379 50.293071 0
M  V30 9 H 39.317780 30.694377 50.167757 0
M  V30 10 H 37.914582 28.917039 51.869651 0
M  V30 11 H 38.980967 27.865548 52.796049 0
M  V30 12 H 38.497314 30.503583 53.520626 0
M  V30 13 H 40.045135 29.737755 53.845987 0
M  V30 14 H 39.555994 31.820721 52.052728 0
M  V30 15 H 40.976917 31.117848 52.462983 0
M  V30 END ATOM
M  V30 BEGIN BOND
M  V30 1 1 2 1
M  V30 2 1 3 1
M  V30 3 1 4 3
M  V30 4 1 5 2
M  V30 5 1 5 4
M  V30 6 1 6 1
M  V30 7 1 7 1
M  V30 8 1 8 2
M  V30 9 1 9 2
M  V30 10 1 10 3
M  V30 11 1 11 3
M  V30 12 1 12 4
M  V30 13 1 13 4
M  V30 14 1 14 5
M  V30 15 1 15 5
M  V30 END BOND
M  V30 END CTAB
M  END
>  <i_epik_Tot_Q>  (1) 
1

>  <i_epik_Tot_abs_Q>  (1) 
1

>  <i_i_glide_confnum>  (1) 
3

>  <i_i_glide_lignum>  (1) 
49

>  <i_i_glide_posenum>  (1) 
75

>  <i_i_glide_rotatable_bonds>  (1) 
0

>  <i_lp_mmshare_version>  (1) 
72125

>  <i_m_source_file_index>  (1) 
49

>  <i_f3d_flags>  (1) 
0

>  <num_sample>  (1) 
50

>  <b_lp_Chiralities_Consistent>  (1) 
1

>  <r_epik_Charging_Adjusted_Penalty>  (1) 
0.00011848530527437102

>  <r_epik_Ionization_Penalty>  (1) 
0.00011848530527437102

>  <r_epik_Ionization_Penalty_Charging>  (1) 
0.00011848530527437102

>  <r_epik_Ionization_Penalty_Neutral>  (1) 
0

>  <r_epik_State_Penalty>  (1) 
-0

>  <r_glide_ring_energy>  (1) 
2.3171021879061433

>  <r_i_docking_score>  (1) 
-4.8177689074726313

>  <r_i_glide_ecoul>  (1) 
-0.97192446859184711

>  <r_i_glide_eff_state_penalty>  (1) 
-0

>  <r_i_glide_einternal>  (1) 
0

>  <r_i_glide_emodel>  (1) 
-19.962545704085734

>  <r_i_glide_emodel_strain>  (1) 
8.6221874084912997e-10

>  <r_i_glide_energy>  (1) 
-12.441012943257395

>  <r_i_glide_erotb>  (1) 
0

>  <r_i_glide_esite>  (1) 
0

>  <r_i_glide_evdw>  (1) 
-11.469088474665547

>  <r_i_glide_gscore>  (1) 
-4.8177689074726313

>  <r_i_glide_gscore_strain>  (1) 
0

>  <r_i_glide_hbond>  (1) 
0

>  <r_i_glide_ligand_efficiency>  (1) 
-0.96355378149452631

>  <r_i_glide_ligand_efficiency_ln>  (1) 
-1.8462860850283982

>  <r_i_glide_ligand_efficiency_sa>  (1) 
-1.6476537896850139

>  <r_i_glide_lipo>  (1) 
-1.2566330910235977

>  <r_i_glide_metal>  (1) 
-0

>  <r_i_glide_rewards>  (1) 
-2.8418927224269792

>  <r_lp_Energy>  (1) 
17.726251999999999

>  <r_lp_tautomer_probability>  (1) 
1

>  <s_epik_cmdline>  (1) 
J2VwaWtfcHl0aG9uJywgJy1waHQnLCAnMS4wJywgJy1waCcsICc3LjQnLCAnLXRuJywgJzgnLCAnLW1hJywgJzUwMCcsICctaW1hZScsICc8aW5maWxlLm1hZT4nLCAnLW9tYWUnLCAnPG91dGZpbGUubWFlPic=

>  <s_epik_input>  (1) 
W0NIMl0xW0NIMl1bTkhdW0NIMl1bQ0gyXTE=

>  <s_glide_docking_method>  (1) 
confgen

>  <s_i_glide_gridfile>  (1) 
gpcr_5ht2c_6bqh_protein_autoprepared_prepared

>  <s_lp_Force_Field>  (1) 
S-OPLS

>  <s_lp_Variant>  (1) 
Pocket2Mol_48-1

>  <s_m_source_file>  (1) 
generated_GPCR_5HT2C_ligand_Pocket2Mol_2026-06-23_prepared.sdf

>  <GenAI_Model>  (1) 
Pocket2Mol

>  <Protein>  (1) 
GPCR_5HT2C

$$$$
Pocket2Mol_37
     RDKit          3D

  0  0  0  0  0  0  0  0  0  0999 V3000
M  V30 BEGIN CTAB
M  V30 COUNTS 15 15 0 0 1
M  V30 BEGIN ATOM
M  V30 1 C 39.383534 28.345435 51.767779 0
M  V30 2 C 39.900015 29.724830 51.326901 0
M  V30 3 O 38.055996 28.439752 52.251758 0
M  V30 4 C 37.974985 28.845081 53.578267 0
M  V30 5 O 40.045118 30.730113 52.328081 0
M  V30 6 O 38.286534 30.188313 53.767760 0
M  V30 7 C 39.642562 30.475450 53.637173 0
M  V30 8 H 39.359665 27.693091 50.894453 0
M  V30 9 H 40.045137 27.859230 52.484496 0
M  V30 10 H 39.245146 30.124459 50.553258 0
M  V30 11 H 40.874597 29.602069 50.854100 0
M  V30 12 H 38.558700 28.196025 54.234259 0
M  V30 13 H 36.930522 28.730059 53.867910 0
M  V30 14 H 39.801416 31.410036 54.174590 0
M  V30 15 H 40.276699 29.737729 54.122297 0
M  V30 END ATOM
M  V30 BEGIN BOND
M  V30 1 1 2 1
M  V30 2 1 3 1
M  V30 3 1 4 3
M  V30 4 1 5 2
M  V30 5 1 6 4
M  V30 6 1 7 5
M  V30 7 1 7 6
M  V30 8 1 8 1
M  V30 9 1 9 1
M  V30 10 1 10 2
M  V30 11 1 11 2
M  V30 12 1 12 4
M  V30 13 1 13 4
M  V30 14 1 14 7
M  V30 15 1 15 7
M  V30 END BOND
M  V30 END CTAB
M  END
>  <i_epik_Tot_Q>  (1) 
0

>  <i_epik_Tot_abs_Q>  (1) 
0

>  <i_i_glide_confnum>  (1) 
14

>  <i_i_glide_lignum>  (1) 
38

>  <i_i_glide_posenum>  (1) 
352

>  <i_i_glide_rotatable_bonds>  (1) 
0

>  <i_lp_mmshare_version>  (1) 
72125

>  <i_m_source_file_index>  (1) 
38

>  <i_f3d_flags>  (1) 
0

>  <num_sample>  (1) 
50

>  <b_lp_Chiralities_Consistent>  (1) 
1

>  <r_epik_Charging_Adjusted_Penalty>  (1) 
0

>  <r_epik_Ionization_Penalty>  (1) 
4.6834743432320728e-14

>  <r_epik_Ionization_Penalty_Charging>  (1) 
0

>  <r_epik_Ionization_Penalty_Neutral>  (1) 
4.6834743432320728e-14

>  <r_epik_State_Penalty>  (1) 
-0

>  <r_glide_ring_energy>  (1) 
0.0018681440481121299

>  <r_i_docking_score>  (1) 
-4.7985673399173656

>  <r_i_glide_ecoul>  (1) 
0.18296984001591876

>  <r_i_glide_eff_state_penalty>  (1) 
-0

>  <r_i_glide_einternal>  (1) 
0

>  <r_i_glide_emodel>  (1) 
-20.295955411522876

>  <r_i_glide_emodel_strain>  (1) 
0.33635049688504459

>  <r_i_glide_energy>  (1) 
-15.26465970776599

>  <r_i_glide_erotb>  (1) 
0

>  <r_i_glide_esite>  (1) 
0

>  <r_i_glide_evdw>  (1) 
-15.447629547781908

>  <r_i_glide_gscore>  (1) 
-4.7985673399173656

>  <r_i_glide_gscore_strain>  (1) 
0

>  <r_i_glide_hbond>  (1) 
0

>  <r_i_glide_ligand_efficiency>  (1) 
-0.68550961998819504

>  <r_i_glide_ligand_efficiency_ln>  (1) 
-1.6288912754030049

>  <r_i_glide_ligand_efficiency_sa>  (1) 
-1.3113327281658691

>  <r_i_glide_lipo>  (1) 
-0.66000000000000003

>  <r_i_glide_metal>  (1) 
-0

>  <r_i_glide_rewards>  (1) 
-3.3936313385306573

>  <r_lp_Energy>  (1) 
1.238378

>  <r_lp_tautomer_probability>  (1) 
1

>  <s_epik_Chemistry_Notes>  (1) 
This compound contains an acetal/aminal-like group ( X-CH(R)-Y where X, Y are N, S, or O) that may be acid/base labile, releasing an aldehyde.

>  <s_epik_cmdline>  (1) 
J2VwaWtfcHl0aG9uJywgJy1waHQnLCAnMS4wJywgJy1waCcsICc3LjQnLCAnLXRuJywgJzgnLCAnLW1hJywgJzUwMCcsICctaW1hZScsICc8aW5maWxlLm1hZT4nLCAnLW9tYWUnLCAnPG91dGZpbGUubWFlPic=

>  <s_epik_input>  (1) 
W0NIMl0xW0NIMl1PW0NIMl1PW0NIMl1PMQ==

>  <s_glide_docking_method>  (1) 
confgen

>  <s_i_glide_gridfile>  (1) 
gpcr_5ht2c_6bqh_protein_autoprepared_prepared

>  <s_lp_Force_Field>  (1) 
S-OPLS

>  <s_lp_Variant>  (1) 
Pocket2Mol_37-1

>  <s_m_source_file>  (1) 
generated_GPCR_5HT2C_ligand_Pocket2Mol_2026-06-23_prepared.sdf

>  <GenAI_Model>  (1) 
Pocket2Mol

>  <Protein>  (1) 
GPCR_5HT2C

$$$$
Pocket2Mol_26
     RDKit          3D

  0  0  0  0  0  0  0  0  0  0999 V3000
M  V30 BEGIN CTAB
M  V30 COUNTS 13 13 0 0 1
M  V30 BEGIN ATOM
M  V30 1 C 39.375902 28.125418 50.810021 0
M  V30 2 O 38.757437 27.532476 51.941752 0
M  V30 3 C 38.344770 28.269687 53.003976 0
M  V30 4 O 37.437491 27.944992 53.766407 0
M  V30 5 C 39.147804 29.575478 53.208527 0
M  V30 6 C 40.367123 29.213536 51.211937 0
M  V30 7 O 39.645140 30.137813 51.996587 0
M  V30 8 H 38.599155 28.537814 50.167760 0
M  V30 9 H 39.879585 27.348636 50.234861 0
M  V30 10 H 39.976969 29.379907 53.887614 0
M  V30 11 H 38.509909 30.312134 53.697533 0
M  V30 12 H 40.766725 29.716407 50.331172 0
M  V30 13 H 41.209071 28.801550 51.767155 0
M  V30 END ATOM
M  V30 BEGIN BOND
M  V30 1 1 2 1
M  V30 2 1 3 2
M  V30 3 2 4 3
M  V30 4 1 5 3
M  V30 5 1 6 1
M  V30 6 1 7 5
M  V30 7 1 7 6
M  V30 8 1 8 1
M  V30 9 1 9 1
M  V30 10 1 10 5
M  V30 11 1 11 5
M  V30 12 1 12 6
M  V30 13 1 13 6
M  V30 END BOND
M  V30 END CTAB
M  END
>  <i_epik_Tot_Q>  (1) 
0

>  <i_epik_Tot_abs_Q>  (1) 
0

>  <i_i_glide_confnum>  (1) 
2

>  <i_i_glide_lignum>  (1) 
27

>  <i_i_glide_posenum>  (1) 
378

>  <i_i_glide_rotatable_bonds>  (1) 
0

>  <i_lp_mmshare_version>  (1) 
72125

>  <i_m_source_file_index>  (1) 
27

>  <i_f3d_flags>  (1) 
0

>  <num_sample>  (1) 
50

>  <b_lp_Chiralities_Consistent>  (1) 
1

>  <r_epik_Charging_Adjusted_Penalty>  (1) 
0

>  <r_epik_Ionization_Penalty>  (1) 
1.0677269036415479e-12

>  <r_epik_Ionization_Penalty_Charging>  (1) 
0

>  <r_epik_Ionization_Penalty_Neutral>  (1) 
1.0677269036415479e-12

>  <r_epik_State_Penalty>  (1) 
-0

>  <r_glide_ring_energy>  (1) 
4.2281688740393558e-05

>  <r_i_docking_score>  (1) 
-4.7790156094881482

>  <r_i_glide_ecoul>  (1) 
0.090159851909149602

>  <r_i_glide_eff_state_penalty>  (1) 
-0

>  <r_i_glide_einternal>  (1) 
0

>  <r_i_glide_emodel>  (1) 
-21.114137454590431

>  <r_i_glide_emodel_strain>  (1) 
0

>  <r_i_glide_energy>  (1) 
-16.17397818850587

>  <r_i_glide_erotb>  (1) 
0

>  <r_i_glide_esite>  (1) 
0

>  <r_i_glide_evdw>  (1) 
-16.26413804041502

>  <r_i_glide_gscore>  (1) 
-4.7790156094881482

>  <r_i_glide_gscore_strain>  (1) 
0

>  <r_i_glide_hbond>  (1) 
0

>  <r_i_glide_ligand_efficiency>  (1) 
-0.68271651564116398

>  <r_i_glide_ligand_efficiency_ln>  (1) 
-1.6222543688308586

>  <r_i_glide_ligand_efficiency_sa>  (1) 
-1.3059897117636963

>  <r_i_glide_lipo>  (1) 
-0.87933268525376906

>  <r_i_glide_metal>  (1) 
-0

>  <r_i_glide_rewards>  (1) 
-3.1000000000000001

>  <r_lp_Energy>  (1) 
12.58291

>  <r_lp_tautomer_probability>  (1) 
1

>  <s_epik_Chemistry_Notes>  (1) 
This compound has an ester and may undergo hydrolysis at high or low pH.

>  <s_epik_cmdline>  (1) 
J2VwaWtfcHl0aG9uJywgJy1waHQnLCAnMS4wJywgJy1waCcsICc3LjQnLCAnLXRuJywgJzgnLCAnLW1hJywgJzUwMCcsICctaW1hZScsICc8aW5maWxlLm1hZT4nLCAnLW9tYWUnLCAnPG91dGZpbGUubWFlPic=

>  <s_epik_input>  (1) 
W0NIMl0xT1tDSDJdW0NIMl1PQzE9Tw==

>  <s_glide_docking_method>  (1) 
confgen

>  <s_i_glide_gridfile>  (1) 
gpcr_5ht2c_6bqh_protein_autoprepared_prepared

>  <s_lp_Force_Field>  (1) 
S-OPLS

>  <s_lp_Variant>  (1) 
Pocket2Mol_26-1

>  <s_m_source_file>  (1) 
generated_GPCR_5HT2C_ligand_Pocket2Mol_2026-06-23_prepared.sdf

>  <GenAI_Model>  (1) 
Pocket2Mol

>  <Protein>  (1) 
GPCR_5HT2C

$$$$
Pocket2Mol_17
     RDKit          3D

  0  0  0  0  0  0  0  0  0  0999 V3000
M  V30 BEGIN CTAB
M  V30 COUNTS 10 10 0 0 1
M  V30 BEGIN ATOM
M  V30 1 C 40.209761 30.466479 51.171640 0
M  V30 2 O 39.645138 29.776697 52.379703 0
M  V30 3 C 39.245137 28.469796 52.049840 0
M  V30 4 C 40.045136 29.337755 50.202106 0
M  V30 5 C 39.522816 28.265525 50.691092 0
M  V30 6 O 38.744699 27.653975 52.820060 0
M  V30 7 H 41.253759 30.738448 51.310189 0
M  V30 8 H 40.349906 29.443149 49.171450 0
M  V30 9 H 39.317251 27.344023 50.167760 0
M  V30 10 H 39.631739 31.343329 50.882806 0
M  V30 END ATOM
M  V30 BEGIN BOND
M  V30 1 1 2 1
M  V30 2 1 3 2
M  V30 3 1 4 1
M  V30 4 1 5 3
M  V30 5 2 5 4
M  V30 6 2 6 3
M  V30 7 1 7 1
M  V30 8 1 8 4
M  V30 9 1 9 5
M  V30 10 1 10 1
M  V30 END BOND
M  V30 END CTAB
M  END
>  <i_epik_Tot_Q>  (1) 
0

>  <i_epik_Tot_abs_Q>  (1) 
0

>  <i_i_glide_confnum>  (1) 
1

>  <i_i_glide_lignum>  (1) 
18

>  <i_i_glide_posenum>  (1) 
349

>  <i_i_glide_rotatable_bonds>  (1) 
0

>  <i_lp_mmshare_version>  (1) 
72125

>  <i_m_source_file_index>  (1) 
18

>  <i_f3d_flags>  (1) 
0

>  <num_sample>  (1) 
50

>  <b_lp_Chiralities_Consistent>  (1) 
1

>  <r_epik_Charging_Adjusted_Penalty>  (1) 
0

>  <r_epik_Ionization_Penalty>  (1) 
0

>  <r_epik_Ionization_Penalty_Charging>  (1) 
0

>  <r_epik_Ionization_Penalty_Neutral>  (1) 
0

>  <r_epik_State_Penalty>  (1) 
-0

>  <r_glide_ring_energy>  (1) 
0

>  <r_i_docking_score>  (1) 
-4.7759251517858896

>  <r_i_glide_ecoul>  (1) 
-0.3454443366872173

>  <r_i_glide_eff_state_penalty>  (1) 
-0

>  <r_i_glide_einternal>  (1) 
0

>  <r_i_glide_emodel>  (1) 
-20.829526790484184

>  <r_i_glide_emodel_strain>  (1) 
0

>  <r_i_glide_energy>  (1) 
-16.014751765969706

>  <r_i_glide_erotb>  (1) 
0

>  <r_i_glide_esite>  (1) 
0

>  <r_i_glide_evdw>  (1) 
-15.669307429282489

>  <r_i_glide_gscore>  (1) 
-4.7759251517858896

>  <r_i_glide_gscore_strain>  (1) 
0

>  <r_i_glide_hbond>  (1) 
0

>  <r_i_glide_ligand_efficiency>  (1) 
-0.79598752529764827

>  <r_i_glide_ligand_efficiency_ln>  (1) 
-1.7107222898061749

>  <r_i_glide_ligand_efficiency_sa>  (1) 
-1.4464053238558505

>  <r_i_glide_lipo>  (1) 
-0.94064312981868292

>  <r_i_glide_metal>  (1) 
-0

>  <r_i_glide_rewards>  (1) 
-3

>  <r_lp_Energy>  (1) 
-7.0611199999999998

>  <r_lp_tautomer_probability>  (1) 
1

>  <s_epik_Chemistry_Notes>  (1) 
This compound has an ester and may undergo hydrolysis at high or low pH.

>  <s_epik_cmdline>  (1) 
J2VwaWtfcHl0aG9uJywgJy1waHQnLCAnMS4wJywgJy1waCcsICc3LjQnLCAnLXRuJywgJzgnLCAnLW1hJywgJzUwMCcsICctaW1hZScsICc8aW5maWxlLm1hZT4nLCAnLW9tYWUnLCAnPG91dGZpbGUubWFlPic=

>  <s_epik_input>  (1) 
W0NIMl0xW0NIXT1bQ0hdT0MxPU8=

>  <s_glide_docking_method>  (1) 
confgen

>  <s_i_glide_gridfile>  (1) 
gpcr_5ht2c_6bqh_protein_autoprepared_prepared

>  <s_lp_Force_Field>  (1) 
S-OPLS

>  <s_lp_Variant>  (1) 
Pocket2Mol_17-1

>  <s_m_source_file>  (1) 
generated_GPCR_5HT2C_ligand_Pocket2Mol_2026-06-23_prepared.sdf

>  <GenAI_Model>  (1) 
Pocket2Mol

>  <Protein>  (1) 
GPCR_5HT2C

$$$$
Pocket2Mol_5
     RDKit          3D

  0  0  0  0  0  0  0  0  0  0999 V3000
M  V30 BEGIN CTAB
M  V30 COUNTS 13 13 0 0 1
M  V30 BEGIN ATOM
M  V30 1 C 40.090373 29.757552 51.381098 0
M  V30 2 C 39.258563 28.545391 51.222749 0
M  V30 3 C 39.645139 30.101076 52.882483 0
M  V30 4 C 38.582390 29.039214 53.442779 0
M  V30 5 C 38.520269 28.194296 52.231653 0
M  V30 6 H 41.151134 29.523020 51.293683 0
M  V30 7 H 39.807875 30.530193 50.665618 0
M  V30 8 H 39.281996 27.994926 50.293420 0
M  V30 9 H 39.231677 31.108391 52.926939 0
M  V30 10 H 40.508540 30.137748 53.543638 0
M  V30 11 H 37.611923 29.482485 53.668208 0
M  V30 12 H 38.951315 28.474883 54.300025 0
M  V30 13 H 37.876870 27.325905 52.212056 0
M  V30 END ATOM
M  V30 BEGIN BOND
M  V30 1 1 2 1
M  V30 2 1 3 1
M  V30 3 1 4 3
M  V30 4 2 5 2
M  V30 5 1 5 4
M  V30 6 1 6 1
M  V30 7 1 7 1
M  V30 8 1 8 2
M  V30 9 1 9 3
M  V30 10 1 10 3
M  V30 11 1 11 4
M  V30 12 1 12 4
M  V30 13 1 13 5
M  V30 END BOND
M  V30 END CTAB
M  END
>  <i_epik_Tot_Q>  (1) 
0

>  <i_epik_Tot_abs_Q>  (1) 
0

>  <i_i_glide_confnum>  (1) 
1

>  <i_i_glide_lignum>  (1) 
6

>  <i_i_glide_posenum>  (1) 
149

>  <i_i_glide_rotatable_bonds>  (1) 
0

>  <i_lp_mmshare_version>  (1) 
72125

>  <i_m_source_file_index>  (1) 
6

>  <i_f3d_flags>  (1) 
0

>  <num_sample>  (1) 
50

>  <b_lp_Chiralities_Consistent>  (1) 
1

>  <r_epik_Charging_Adjusted_Penalty>  (1) 
0

>  <r_epik_Ionization_Penalty>  (1) 
0

>  <r_epik_Ionization_Penalty_Charging>  (1) 
0

>  <r_epik_Ionization_Penalty_Neutral>  (1) 
0

>  <r_epik_State_Penalty>  (1) 
-0

>  <r_glide_ring_energy>  (1) 
0

>  <r_i_docking_score>  (1) 
-4.7676914961608396

>  <r_i_glide_ecoul>  (1) 
-0.5915486293298764

>  <r_i_glide_eff_state_penalty>  (1) 
-0

>  <r_i_glide_einternal>  (1) 
0

>  <r_i_glide_emodel>  (1) 
-17.658887817062094

>  <r_i_glide_emodel_strain>  (1) 
0

>  <r_i_glide_energy>  (1) 
-13.672774860121677

>  <r_i_glide_erotb>  (1) 
0

>  <r_i_glide_esite>  (1) 
0

>  <r_i_glide_evdw>  (1) 
-13.081226230791801

>  <r_i_glide_gscore>  (1) 
-4.7676914961608396

>  <r_i_glide_gscore_strain>  (1) 
0

>  <r_i_glide_hbond>  (1) 
0

>  <r_i_glide_ligand_efficiency>  (1) 
-0.95353829923216793

>  <r_i_glide_ligand_efficiency_ln>  (1) 
-1.8270952044662776

>  <r_i_glide_ligand_efficiency_sa>  (1) 
-1.630527555922014

>  <r_i_glide_lipo>  (1) 
-1.6126893386930923

>  <r_i_glide_metal>  (1) 
-0

>  <r_i_glide_rewards>  (1) 
-2.4122085515286753

>  <r_lp_Energy>  (1) 
-2.1713199999999997

>  <r_lp_tautomer_probability>  (1) 
1

>  <s_epik_cmdline>  (1) 
J2VwaWtfcHl0aG9uJywgJy1waHQnLCAnMS4wJywgJy1waCcsICc3LjQnLCAnLXRuJywgJzgnLCAnLW1hJywgJzUwMCcsICctaW1hZScsICc8aW5maWxlLm1hZT4nLCAnLW9tYWUnLCAnPG91dGZpbGUubWFlPic=

>  <s_epik_input>  (1) 
W0NIMl0xW0NIXT1bQ0hdW0NIMl1bQ0gyXTE=

>  <s_glide_docking_method>  (1) 
confgen

>  <s_i_glide_gridfile>  (1) 
gpcr_5ht2c_6bqh_protein_autoprepared_prepared

>  <s_lp_Force_Field>  (1) 
S-OPLS

>  <s_lp_Variant>  (1) 
Pocket2Mol_5-1

>  <s_m_source_file>  (1) 
generated_GPCR_5HT2C_ligand_Pocket2Mol_2026-06-23_prepared.sdf

>  <GenAI_Model>  (1) 
Pocket2Mol

>  <Protein>  (1) 
GPCR_5HT2C

$$$$
Pocket2Mol_21
     RDKit          3D

  0  0  0  0  0  0  0  0  0  0999 V3000
M  V30 BEGIN CTAB
M  V30 COUNTS 14 14 0 0 1
M  V30 BEGIN ATOM
M  V30 1 C 38.836869 27.355330 53.950290 0
M  V30 2 C 37.442385 27.774191 53.514937 0
M  V30 3 O 39.475699 27.112725 52.713590 0
M  V30 4 C 38.794390 27.868775 51.767075 0
M  V30 5 O 37.740452 28.537755 52.372530 0
M  V30 6 C 39.749188 28.904558 51.173189 0
M  V30 7 H 38.840832 26.477163 54.596180 0
M  V30 8 H 39.341539 28.173438 54.466572 0
M  V30 9 H 36.845147 26.904224 53.242543 0
M  V30 10 H 36.905593 28.352295 54.266396 0
M  V30 11 H 38.403989 27.192974 51.003612 0
M  V30 12 H 40.078513 29.598711 51.946192 0
M  V30 13 H 39.244172 29.461780 50.384634 0
M  V30 14 H 40.618477 28.403641 50.753045 0
M  V30 END ATOM
M  V30 BEGIN BOND
M  V30 1 1 2 1
M  V30 2 1 3 1
M  V30 3 1 4 3
M  V30 4 1 5 2
M  V30 5 1 5 4
M  V30 6 1 6 4
M  V30 7 1 7 1
M  V30 8 1 8 1
M  V30 9 1 9 2
M  V30 10 1 10 2
M  V30 11 1 11 4
M  V30 12 1 12 6
M  V30 13 1 13 6
M  V30 14 1 14 6
M  V30 END BOND
M  V30 END CTAB
M  END
>  <i_epik_Tot_Q>  (1) 
0

>  <i_epik_Tot_abs_Q>  (1) 
0

>  <i_i_glide_confnum>  (1) 
3

>  <i_i_glide_lignum>  (1) 
22

>  <i_i_glide_posenum>  (1) 
227

>  <i_i_glide_rotatable_bonds>  (1) 
0

>  <i_lp_mmshare_version>  (1) 
72125

>  <i_m_source_file_index>  (1) 
22

>  <i_f3d_flags>  (1) 
0

>  <num_sample>  (1) 
50

>  <b_lp_Chiralities_Consistent>  (1) 
1

>  <r_epik_Charging_Adjusted_Penalty>  (1) 
0

>  <r_epik_Ionization_Penalty>  (1) 
7.9724310449397378e-14

>  <r_epik_Ionization_Penalty_Charging>  (1) 
0

>  <r_epik_Ionization_Penalty_Neutral>  (1) 
7.9724310449397378e-14

>  <r_epik_State_Penalty>  (1) 
-0

>  <r_glide_ring_energy>  (1) 
1.2362365743684729

>  <r_i_docking_score>  (1) 
-4.7599889368071491

>  <r_i_glide_ecoul>  (1) 
-1.2203576068235547

>  <r_i_glide_eff_state_penalty>  (1) 
-0

>  <r_i_glide_einternal>  (1) 
0

>  <r_i_glide_emodel>  (1) 
-20.530009283279139

>  <r_i_glide_emodel_strain>  (1) 
0

>  <r_i_glide_energy>  (1) 
-16.137395805617583

>  <r_i_glide_erotb>  (1) 
0

>  <r_i_glide_esite>  (1) 
0

>  <r_i_glide_evdw>  (1) 
-14.917038198794028

>  <r_i_glide_gscore>  (1) 
-4.7599889368071491

>  <r_i_glide_gscore_strain>  (1) 
0

>  <r_i_glide_hbond>  (1) 
0

>  <r_i_glide_ligand_efficiency>  (1) 
-0.79333148946785814

>  <r_i_glide_ligand_efficiency_ln>  (1) 
-1.7050139846479417

>  <r_i_glide_ligand_efficiency_sa>  (1) 
-1.441578986454239

>  <r_i_glide_lipo>  (1) 
-0.88615612990705284

>  <r_i_glide_metal>  (1) 
-0

>  <r_i_glide_rewards>  (1) 
-2.9449272559368613

>  <r_lp_Energy>  (1) 
-12.129052

>  <r_lp_tautomer_probability>  (1) 
1

>  <s_epik_Chemistry_Notes>  (1) 
This compound contains an acetal/aminal-like group ( X-CH(R)-Y where X, Y are N, S, or O) that may be acid/base labile, releasing an aldehyde.

>  <s_epik_cmdline>  (1) 
J2VwaWtfcHl0aG9uJywgJy1waHQnLCAnMS4wJywgJy1waCcsICc3LjQnLCAnLXRuJywgJzgnLCAnLW1hJywgJzUwMCcsICctaW1hZScsICc8aW5maWxlLm1hZT4nLCAnLW9tYWUnLCAnPG91dGZpbGUubWFlPic=

>  <s_epik_input>  (1) 
TzFbQ0gyXVtDSDJdT1tDSF0xW0NIM10=

>  <s_glide_docking_method>  (1) 
confgen

>  <s_i_glide_gridfile>  (1) 
gpcr_5ht2c_6bqh_protein_autoprepared_prepared

>  <s_lp_Force_Field>  (1) 
S-OPLS

>  <s_lp_Variant>  (1) 
Pocket2Mol_21-1

>  <s_m_source_file>  (1) 
generated_GPCR_5HT2C_ligand_Pocket2Mol_2026-06-23_prepared.sdf

>  <GenAI_Model>  (1) 
Pocket2Mol

>  <Protein>  (1) 
GPCR_5HT2C

$$$$
Pocket2Mol_24
     RDKit          3D

  0  0  0  0  0  0  0  0  0  0999 V3000
M  V30 BEGIN CTAB
M  V30 COUNTS 16 16 0 0 1
M  V30 BEGIN ATOM
M  V30 1 C 38.681316 29.027815 52.830976 0
M  V30 2 C 39.699225 30.059801 52.566126 0
M  V30 3 C 38.532499 28.125409 51.922464 0
M  V30 4 C 39.402655 28.238713 50.740431 0
M  V30 5 N 40.216387 29.443177 51.247094 0 CHG=1
M  V30 6 C 40.494800 30.435232 50.185883 0
M  V30 7 H 38.100224 29.055309 53.742647 0
M  V30 8 H 39.245143 31.042635 52.440758 0
M  V30 9 H 40.448115 30.113445 53.354703 0
M  V30 10 H 37.814888 27.321828 51.997049 0
M  V30 11 H 40.012501 27.349717 50.588361 0
M  V30 12 H 38.844617 28.465637 49.833927 0
M  V30 13 H 39.582911 30.943778 49.865186 0
M  V30 14 H 41.209034 31.181023 50.531592 0
M  V30 15 H 40.926587 29.938500 49.315751 0
M  V30 16 H 41.112655 29.042307 51.485856 0
M  V30 END ATOM
M  V30 BEGIN BOND
M  V30 1 1 2 1
M  V30 2 2 3 1
M  V30 3 1 4 3
M  V30 4 1 5 2
M  V30 5 1 5 4
M  V30 6 1 6 5
M  V30 7 1 7 1
M  V30 8 1 8 2
M  V30 9 1 9 2
M  V30 10 1 10 3
M  V30 11 1 11 4
M  V30 12 1 12 4
M  V30 13 1 13 6
M  V30 14 1 14 6
M  V30 15 1 15 6
M  V30 16 1 16 5
M  V30 END BOND
M  V30 END CTAB
M  END
>  <i_epik_Tot_Q>  (1) 
1

>  <i_epik_Tot_abs_Q>  (1) 
1

>  <i_i_glide_confnum>  (1) 
1

>  <i_i_glide_lignum>  (1) 
25

>  <i_i_glide_posenum>  (1) 
26

>  <i_i_glide_rotatable_bonds>  (1) 
0

>  <i_lp_mmshare_version>  (1) 
72125

>  <i_m_source_file_index>  (1) 
25

>  <i_f3d_flags>  (1) 
0

>  <num_sample>  (1) 
50

>  <b_lp_Chiralities_Consistent>  (1) 
1

>  <r_epik_Charging_Adjusted_Penalty>  (1) 
0.0014863909170882658

>  <r_epik_Ionization_Penalty>  (1) 
0.0014863909170882658

>  <r_epik_Ionization_Penalty_Charging>  (1) 
0.0014863909170882658

>  <r_epik_Ionization_Penalty_Neutral>  (1) 
0

>  <r_epik_State_Penalty>  (1) 
-0

>  <r_glide_ring_energy>  (1) 
0

>  <r_i_docking_score>  (1) 
-4.7552747120319578

>  <r_i_glide_ecoul>  (1) 
-1.4246147710596753

>  <r_i_glide_eff_state_penalty>  (1) 
-0

>  <r_i_glide_einternal>  (1) 
0

>  <r_i_glide_emodel>  (1) 
-21.485358854775576

>  <r_i_glide_emodel_strain>  (1) 
0

>  <r_i_glide_energy>  (1) 
-14.256264698519796

>  <r_i_glide_erotb>  (1) 
0

>  <r_i_glide_esite>  (1) 
0

>  <r_i_glide_evdw>  (1) 
-12.831649927460122

>  <r_i_glide_gscore>  (1) 
-4.7552747120319578

>  <r_i_glide_gscore_strain>  (1) 
0

>  <r_i_glide_hbond>  (1) 
0

>  <r_i_glide_ligand_efficiency>  (1) 
-0.7925457853386596

>  <r_i_glide_ligand_efficiency_ln>  (1) 
-1.7033253632508789

>  <r_i_glide_ligand_efficiency_sa>  (1) 
-1.4401512673011991

>  <r_i_glide_lipo>  (1) 
-1.6500000000000001

>  <r_i_glide_metal>  (1) 
-0

>  <r_i_glide_rewards>  (1) 
-2.25

>  <r_lp_Energy>  (1) 
6.8415840000000001

>  <r_lp_tautomer_probability>  (1) 
1

>  <s_epik_cmdline>  (1) 
J2VwaWtfcHl0aG9uJywgJy1waHQnLCAnMS4wJywgJy1waCcsICc3LjQnLCAnLXRuJywgJzgnLCAnLW1hJywgJzUwMCcsICctaW1hZScsICc8aW5maWxlLm1hZT4nLCAnLW9tYWUnLCAnPG91dGZpbGUubWFlPic=

>  <s_epik_input>  (1) 
W0NIMl0xW0NIXT1bQ0hdW0NIMl1OMVtDSDNd

>  <s_glide_docking_method>  (1) 
confgen

>  <s_i_glide_gridfile>  (1) 
gpcr_5ht2c_6bqh_protein_autoprepared_prepared

>  <s_lp_Force_Field>  (1) 
S-OPLS

>  <s_lp_Variant>  (1) 
Pocket2Mol_24-1

>  <s_m_source_file>  (1) 
generated_GPCR_5HT2C_ligand_Pocket2Mol_2026-06-23_prepared.sdf

>  <GenAI_Model>  (1) 
Pocket2Mol

>  <Protein>  (1) 
GPCR_5HT2C

$$$$
Pocket2Mol_30
     RDKit          3D

  0  0  0  0  0  0  0  0  0  0999 V3000
M  V30 BEGIN CTAB
M  V30 COUNTS 15 15 0 0 1
M  V30 BEGIN ATOM
M  V30 1 C 40.134828 30.640637 49.894244 0
M  V30 2 C 40.204906 30.937750 51.387420 0
M  V30 3 O 39.645142 29.785198 51.960000 0
M  V30 4 O 40.045061 29.230388 49.826871 0
M  V30 5 C 40.078340 28.771666 51.133828 0
M  V30 6 C 39.112644 27.595344 51.283028 0
M  V30 7 O 39.299742 26.937757 52.517368 0
M  V30 8 H 41.014451 31.010857 49.367790 0
M  V30 9 H 39.245138 31.084548 49.447531 0
M  V30 10 H 41.238885 31.059142 51.704147 0
M  V30 11 H 39.645131 31.819109 51.677970 0
M  V30 12 H 41.110097 28.511413 51.375969 0
M  V30 13 H 39.302081 26.886813 50.477838 0
M  V30 14 H 38.085156 27.946419 51.181641 0
M  V30 15 H 39.090690 27.551575 53.206083 0
M  V30 END ATOM
M  V30 BEGIN BOND
M  V30 1 1 2 1
M  V30 2 1 3 2
M  V30 3 1 4 1
M  V30 4 1 5 3
M  V30 5 1 5 4
M  V30 6 1 6 5
M  V30 7 1 7 6
M  V30 8 1 8 1
M  V30 9 1 9 1
M  V30 10 1 10 2
M  V30 11 1 11 2
M  V30 12 1 12 5
M  V30 13 1 13 6
M  V30 14 1 14 6
M  V30 15 1 15 7
M  V30 END BOND
M  V30 END CTAB
M  END
>  <i_epik_Tot_Q>  (1) 
0

>  <i_epik_Tot_abs_Q>  (1) 
0

>  <i_i_glide_confnum>  (1) 
1

>  <i_i_glide_lignum>  (1) 
31

>  <i_i_glide_posenum>  (1) 
297

>  <i_i_glide_rotatable_bonds>  (1) 
2

>  <i_lp_mmshare_version>  (1) 
72125

>  <i_m_source_file_index>  (1) 
31

>  <i_f3d_flags>  (1) 
0

>  <num_sample>  (1) 
50

>  <b_lp_Chiralities_Consistent>  (1) 
1

>  <r_epik_Charging_Adjusted_Penalty>  (1) 
0

>  <r_epik_Ionization_Penalty>  (1) 
3.4422651255072934e-07

>  <r_epik_Ionization_Penalty_Charging>  (1) 
0

>  <r_epik_Ionization_Penalty_Neutral>  (1) 
3.4422651255072934e-07

>  <r_epik_State_Penalty>  (1) 
-0

>  <r_glide_ring_energy>  (1) 
0

>  <r_i_docking_score>  (1) 
-4.754241999462252

>  <r_i_glide_ecoul>  (1) 
-0.99019303840153428

>  <r_i_glide_eff_state_penalty>  (1) 
-0

>  <r_i_glide_einternal>  (1) 
0.66113198273708962

>  <r_i_glide_emodel>  (1) 
-20.839421225254256

>  <r_i_glide_emodel_strain>  (1) 
0.068866665245826297

>  <r_i_glide_energy>  (1) 
-15.998998934901287

>  <r_i_glide_erotb>  (1) 
0

>  <r_i_glide_esite>  (1) 
0

>  <r_i_glide_evdw>  (1) 
-15.008805896499753

>  <r_i_glide_gscore>  (1) 
-4.754241999462252

>  <r_i_glide_gscore_strain>  (1) 
0

>  <r_i_glide_hbond>  (1) 
0

>  <r_i_glide_ligand_efficiency>  (1) 
-0.67917742849460738

>  <r_i_glide_ligand_efficiency_ln>  (1) 
-1.6138448760858608

>  <r_i_glide_ligand_efficiency_sa>  (1) 
-1.2992196816024992

>  <r_i_glide_lipo>  (1) 
-0.75527274887703377

>  <r_i_glide_metal>  (1) 
-0

>  <r_i_glide_rewards>  (1) 
-3.1000000000000001

>  <r_lp_Energy>  (1) 
-10.260740999999999

>  <r_lp_tautomer_probability>  (1) 
1

>  <s_epik_Chemistry_Notes>  (1) 
This compound contains an acetal/aminal-like group ( X-CH(R)-Y where X, Y are N, S, or O) that may be acid/base labile, releasing an aldehyde.

>  <s_epik_cmdline>  (1) 
J2VwaWtfcHl0aG9uJywgJy1waHQnLCAnMS4wJywgJy1waCcsICc3LjQnLCAnLXRuJywgJzgnLCAnLW1hJywgJzUwMCcsICctaW1hZScsICc8aW5maWxlLm1hZT4nLCAnLW9tYWUnLCAnPG91dGZpbGUubWFlPic=

>  <s_epik_input>  (1) 
TzFbQ0gyXVtDSDJdT1tDSF0xW0NIMl1bT0hd

>  <s_glide_docking_method>  (1) 
confgen

>  <s_i_glide_gridfile>  (1) 
gpcr_5ht2c_6bqh_protein_autoprepared_prepared

>  <s_lp_Force_Field>  (1) 
S-OPLS

>  <s_lp_Variant>  (1) 
Pocket2Mol_30-1

>  <s_m_source_file>  (1) 
generated_GPCR_5HT2C_ligand_Pocket2Mol_2026-06-23_prepared.sdf

>  <GenAI_Model>  (1) 
Pocket2Mol

>  <Protein>  (1) 
GPCR_5HT2C

$$$$
Pocket2Mol_21
     RDKit          3D

  0  0  0  0  0  0  0  0  0  0999 V3000
M  V30 BEGIN CTAB
M  V30 COUNTS 14 14 0 0 1
M  V30 BEGIN ATOM
M  V30 1 C 39.826367 29.409871 51.416307 0
M  V30 2 C 39.557550 28.139830 50.615980 0
M  V30 3 O 38.928209 29.333943 52.509771 0
M  V30 4 C 38.243726 28.137185 52.370177 0
M  V30 5 O 39.002296 27.289766 51.588205 0
M  V30 6 C 38.049449 27.501991 53.747020 0
M  V30 7 H 39.674912 30.314200 50.825929 0
M  V30 8 H 40.845138 29.414337 51.797855 0
M  V30 9 H 38.845137 28.329622 49.816624 0
M  V30 10 H 40.445137 27.705264 50.167763 0
M  V30 11 H 37.289259 28.323591 51.872933 0
M  V30 12 H 39.017826 27.319931 54.213450 0
M  V30 13 H 37.519676 26.554273 53.643163 0
M  V30 14 H 37.466161 28.167662 54.383585 0
M  V30 END ATOM
M  V30 BEGIN BOND
M  V30 1 1 2 1
M  V30 2 1 3 1
M  V30 3 1 4 3
M  V30 4 1 5 2
M  V30 5 1 5 4
M  V30 6 1 6 4
M  V30 7 1 7 1
M  V30 8 1 8 1
M  V30 9 1 9 2
M  V30 10 1 10 2
M  V30 11 1 11 4
M  V30 12 1 12 6
M  V30 13 1 13 6
M  V30 14 1 14 6
M  V30 END BOND
M  V30 END CTAB
M  END
>  <i_epik_Tot_Q>  (1) 
0

>  <i_epik_Tot_abs_Q>  (1) 
0

>  <i_i_glide_confnum>  (1) 
1

>  <i_i_glide_lignum>  (1) 
22

>  <i_i_glide_posenum>  (1) 
399

>  <i_i_glide_rotatable_bonds>  (1) 
0

>  <i_lp_mmshare_version>  (1) 
72125

>  <i_m_source_file_index>  (1) 
22

>  <i_f3d_flags>  (1) 
0

>  <num_sample>  (1) 
50

>  <b_lp_Chiralities_Consistent>  (1) 
1

>  <r_epik_Charging_Adjusted_Penalty>  (1) 
0

>  <r_epik_Ionization_Penalty>  (1) 
7.9724310449397378e-14

>  <r_epik_Ionization_Penalty_Charging>  (1) 
0

>  <r_epik_Ionization_Penalty_Neutral>  (1) 
7.9724310449397378e-14

>  <r_epik_State_Penalty>  (1) 
-0

>  <r_glide_ring_energy>  (1) 
0

>  <r_i_docking_score>  (1) 
-4.737289346421985

>  <r_i_glide_ecoul>  (1) 
-0.27144278653537512

>  <r_i_glide_eff_state_penalty>  (1) 
-0

>  <r_i_glide_einternal>  (1) 
0

>  <r_i_glide_emodel>  (1) 
-19.95116818092162

>  <r_i_glide_emodel_strain>  (1) 
0.027997143210272135

>  <r_i_glide_energy>  (1) 
-15.607499484791981

>  <r_i_glide_erotb>  (1) 
0

>  <r_i_glide_esite>  (1) 
0

>  <r_i_glide_evdw>  (1) 
-15.336056698256606

>  <r_i_glide_gscore>  (1) 
-4.737289346421985

>  <r_i_glide_gscore_strain>  (1) 
0

>  <r_i_glide_hbond>  (1) 
0

>  <r_i_glide_ligand_efficiency>  (1) 
-0.78954822440366412

>  <r_i_glide_ligand_efficiency_ln>  (1) 
-1.6968830583860741

>  <r_i_glide_ligand_efficiency_sa>  (1) 
-1.4347043375979496

>  <r_i_glide_lipo>  (1) 
-0.98999999999999999

>  <r_i_glide_metal>  (1) 
-0

>  <r_i_glide_rewards>  (1) 
-2.939770093528848

>  <r_lp_Energy>  (1) 
-12.129052

>  <r_lp_tautomer_probability>  (1) 
1

>  <s_epik_Chemistry_Notes>  (1) 
This compound contains an acetal/aminal-like group ( X-CH(R)-Y where X, Y are N, S, or O) that may be acid/base labile, releasing an aldehyde.

>  <s_epik_cmdline>  (1) 
J2VwaWtfcHl0aG9uJywgJy1waHQnLCAnMS4wJywgJy1waCcsICc3LjQnLCAnLXRuJywgJzgnLCAnLW1hJywgJzUwMCcsICctaW1hZScsICc8aW5maWxlLm1hZT4nLCAnLW9tYWUnLCAnPG91dGZpbGUubWFlPic=

>  <s_epik_input>  (1) 
TzFbQ0gyXVtDSDJdT1tDSF0xW0NIM10=

>  <s_glide_docking_method>  (1) 
confgen

>  <s_i_glide_gridfile>  (1) 
gpcr_5ht2c_6bqh_protein_autoprepared_prepared

>  <s_lp_Force_Field>  (1) 
S-OPLS

>  <s_lp_Variant>  (1) 
Pocket2Mol_21-1

>  <s_m_source_file>  (1) 
generated_GPCR_5HT2C_ligand_Pocket2Mol_2026-06-23_prepared.sdf

>  <GenAI_Model>  (1) 
Pocket2Mol

>  <Protein>  (1) 
GPCR_5HT2C

$$$$
Pocket2Mol_37
     RDKit          3D

  0  0  0  0  0  0  0  0  0  0999 V3000
M  V30 BEGIN CTAB
M  V30 COUNTS 15 15 0 0 1
M  V30 BEGIN ATOM
M  V30 1 C 39.077008 28.189320 51.168720 0
M  V30 2 C 40.045135 29.318553 51.545448 0
M  V30 3 O 39.245136 27.098139 52.056408 0
M  V30 4 C 38.662294 27.280719 53.304075 0
M  V30 5 O 39.645138 30.137752 52.639939 0
M  V30 6 O 39.245137 28.307510 54.047573 0
M  V30 7 C 38.845136 29.577708 53.636170 0
M  V30 8 H 38.045121 28.532542 51.120818 0
M  V30 9 H 39.328574 27.827918 50.171348 0
M  V30 10 H 40.182733 29.980052 50.689956 0
M  V30 11 H 41.026571 28.897062 51.759398 0
M  V30 12 H 38.835809 26.359197 53.859983 0
M  V30 13 H 37.579619 27.395198 53.214707 0
M  V30 14 H 37.795093 29.602408 53.341423 0
M  V30 15 H 38.937339 30.235969 54.500566 0
M  V30 END ATOM
M  V30 BEGIN BOND
M  V30 1 1 2 1
M  V30 2 1 3 1
M  V30 3 1 4 3
M  V30 4 1 5 2
M  V30 5 1 6 4
M  V30 6 1 7 5
M  V30 7 1 7 6
M  V30 8 1 8 1
M  V30 9 1 9 1
M  V30 10 1 10 2
M  V30 11 1 11 2
M  V30 12 1 12 4
M  V30 13 1 13 4
M  V30 14 1 14 7
M  V30 15 1 15 7
M  V30 END BOND
M  V30 END CTAB
M  END
>  <i_epik_Tot_Q>  (1) 
0

>  <i_epik_Tot_abs_Q>  (1) 
0

>  <i_i_glide_confnum>  (1) 
5

>  <i_i_glide_lignum>  (1) 
38

>  <i_i_glide_posenum>  (1) 
283

>  <i_i_glide_rotatable_bonds>  (1) 
0

>  <i_lp_mmshare_version>  (1) 
72125

>  <i_m_source_file_index>  (1) 
38

>  <i_f3d_flags>  (1) 
0

>  <num_sample>  (1) 
50

>  <b_lp_Chiralities_Consistent>  (1) 
1

>  <r_epik_Charging_Adjusted_Penalty>  (1) 
0

>  <r_epik_Ionization_Penalty>  (1) 
4.6834743432320728e-14

>  <r_epik_Ionization_Penalty_Charging>  (1) 
0

>  <r_epik_Ionization_Penalty_Neutral>  (1) 
4.6834743432320728e-14

>  <r_epik_State_Penalty>  (1) 
-0

>  <r_glide_ring_energy>  (1) 
0.00038839890898634857

>  <r_i_docking_score>  (1) 
-4.7360335560346263

>  <r_i_glide_ecoul>  (1) 
-0.38559579859115173

>  <r_i_glide_eff_state_penalty>  (1) 
-0

>  <r_i_glide_einternal>  (1) 
0

>  <r_i_glide_emodel>  (1) 
-20.954814333618835

>  <r_i_glide_emodel_strain>  (1) 
0

>  <r_i_glide_energy>  (1) 
-15.657118016701101

>  <r_i_glide_erotb>  (1) 
0

>  <r_i_glide_esite>  (1) 
0

>  <r_i_glide_evdw>  (1) 
-15.271522218109951

>  <r_i_glide_gscore>  (1) 
-4.7360335560346263

>  <r_i_glide_gscore_strain>  (1) 
0

>  <r_i_glide_hbond>  (1) 
0

>  <r_i_glide_ligand_efficiency>  (1) 
-0.67657622229066094

>  <r_i_glide_ligand_efficiency_ln>  (1) 
-1.6076639532109847

>  <r_i_glide_ligand_efficiency_sa>  (1) 
-1.2942437531421489

>  <r_i_glide_lipo>  (1) 
-0.66000000000000003

>  <r_i_glide_metal>  (1) 
-0

>  <r_i_glide_rewards>  (1) 
-3.2546180753404563

>  <r_lp_Energy>  (1) 
1.238378

>  <r_lp_tautomer_probability>  (1) 
1

>  <s_epik_Chemistry_Notes>  (1) 
This compound contains an acetal/aminal-like group ( X-CH(R)-Y where X, Y are N, S, or O) that may be acid/base labile, releasing an aldehyde.

>  <s_epik_cmdline>  (1) 
J2VwaWtfcHl0aG9uJywgJy1waHQnLCAnMS4wJywgJy1waCcsICc3LjQnLCAnLXRuJywgJzgnLCAnLW1hJywgJzUwMCcsICctaW1hZScsICc8aW5maWxlLm1hZT4nLCAnLW9tYWUnLCAnPG91dGZpbGUubWFlPic=

>  <s_epik_input>  (1) 
W0NIMl0xW0NIMl1PW0NIMl1PW0NIMl1PMQ==

>  <s_glide_docking_method>  (1) 
confgen

>  <s_i_glide_gridfile>  (1) 
gpcr_5ht2c_6bqh_protein_autoprepared_prepared

>  <s_lp_Force_Field>  (1) 
S-OPLS

>  <s_lp_Variant>  (1) 
Pocket2Mol_37-1

>  <s_m_source_file>  (1) 
generated_GPCR_5HT2C_ligand_Pocket2Mol_2026-06-23_prepared.sdf

>  <GenAI_Model>  (1) 
Pocket2Mol

>  <Protein>  (1) 
GPCR_5HT2C

$$$$
Pocket2Mol_33
     RDKit          3D

  0  0  0  0  0  0  0  0  0  0999 V3000
M  V30 BEGIN CTAB
M  V30 COUNTS 17 17 0 0 1
M  V30 BEGIN ATOM
M  V30 1 C 37.302264 24.899675 57.237122 0
M  V30 2 O 38.347796 25.573721 57.930068 0
M  V30 3 C 39.645013 25.520718 57.361253 0
M  V30 4 C 37.407455 24.843354 55.701155 0
M  V30 5 O 37.695728 26.113046 55.134955 0
M  V30 6 C 39.785984 26.642286 56.322989 0
M  V30 7 C 39.089194 26.355908 54.985721 0
M  V30 8 H 37.245139 23.880736 57.621521 0
M  V30 9 H 36.367823 25.383691 57.521307 0
M  V30 10 H 40.355581 25.702417 58.167757 0
M  V30 11 H 39.884969 24.536663 56.956700 0
M  V30 12 H 38.126304 24.088834 55.379808 0
M  V30 13 H 36.446351 24.515057 55.304556 0
M  V30 14 H 39.410334 27.575596 56.743784 0
M  V30 15 H 40.845496 26.805307 56.126776 0
M  V30 16 H 39.205032 27.223928 54.336322 0
M  V30 17 H 39.575776 25.527739 54.468691 0
M  V30 END ATOM
M  V30 BEGIN BOND
M  V30 1 1 2 1
M  V30 2 1 3 2
M  V30 3 1 4 1
M  V30 4 1 5 4
M  V30 5 1 6 3
M  V30 6 1 7 5
M  V30 7 1 7 6
M  V30 8 1 8 1
M  V30 9 1 9 1
M  V30 10 1 10 3
M  V30 11 1 11 3
M  V30 12 1 12 4
M  V30 13 1 13 4
M  V30 14 1 14 6
M  V30 15 1 15 6
M  V30 16 1 16 7
M  V30 17 1 17 7
M  V30 END BOND
M  V30 END CTAB
M  END
>  <i_epik_Tot_Q>  (1) 
0

>  <i_epik_Tot_abs_Q>  (1) 
0

>  <i_i_glide_confnum>  (1) 
9

>  <i_i_glide_lignum>  (1) 
34

>  <i_i_glide_posenum>  (1) 
92

>  <i_i_glide_rotatable_bonds>  (1) 
0

>  <i_lp_mmshare_version>  (1) 
72125

>  <i_m_source_file_index>  (1) 
34

>  <i_f3d_flags>  (1) 
0

>  <num_sample>  (1) 
50

>  <b_lp_Chiralities_Consistent>  (1) 
1

>  <r_epik_Charging_Adjusted_Penalty>  (1) 
0

>  <r_epik_Ionization_Penalty>  (1) 
3.933197540425548e-12

>  <r_epik_Ionization_Penalty_Charging>  (1) 
0

>  <r_epik_Ionization_Penalty_Neutral>  (1) 
3.933197540425548e-12

>  <r_epik_State_Penalty>  (1) 
-0

>  <r_glide_ring_energy>  (1) 
0.00061177386835536518

>  <r_i_docking_score>  (1) 
-4.7305175443163812

>  <r_i_glide_ecoul>  (1) 
-0.13549093136399934

>  <r_i_glide_eff_state_penalty>  (1) 
-0

>  <r_i_glide_einternal>  (1) 
0

>  <r_i_glide_emodel>  (1) 
-21.567538943934277

>  <r_i_glide_emodel_strain>  (1) 
0

>  <r_i_glide_energy>  (1) 
-16.6209030532623

>  <r_i_glide_erotb>  (1) 
0

>  <r_i_glide_esite>  (1) 
0

>  <r_i_glide_evdw>  (1) 
-16.4854121218983

>  <r_i_glide_gscore>  (1) 
-4.7305175443163812

>  <r_i_glide_gscore_strain>  (1) 
0

>  <r_i_glide_hbond>  (1) 
0

>  <r_i_glide_ligand_efficiency>  (1) 
-0.67578822061662591

>  <r_i_glide_ligand_efficiency_ln>  (1) 
-1.6057915228111592

>  <r_i_glide_ligand_efficiency_sa>  (1) 
-1.2927363601678103

>  <r_i_glide_lipo>  (1) 
-1.5515826022209929

>  <r_i_glide_metal>  (1) 
-0

>  <r_i_glide_rewards>  (1) 
-2.3343406962958735

>  <r_lp_Energy>  (1) 
9.6410049999999998

>  <r_lp_tautomer_probability>  (1) 
1

>  <s_epik_cmdline>  (1) 
J2VwaWtfcHl0aG9uJywgJy1waHQnLCAnMS4wJywgJy1waCcsICc3LjQnLCAnLXRuJywgJzgnLCAnLW1hJywgJzUwMCcsICctaW1hZScsICc8aW5maWxlLm1hZT4nLCAnLW9tYWUnLCAnPG91dGZpbGUubWFlPic=

>  <s_epik_input>  (1) 
W0NIMl0xT1tDSDJdW0NIMl1bQ0gyXU9bQ0gyXTE=

>  <s_glide_docking_method>  (1) 
confgen

>  <s_i_glide_gridfile>  (1) 
gpcr_5ht2c_6bqh_protein_autoprepared_prepared

>  <s_lp_Force_Field>  (1) 
S-OPLS

>  <s_lp_Variant>  (1) 
Pocket2Mol_33-1

>  <s_m_source_file>  (1) 
generated_GPCR_5HT2C_ligand_Pocket2Mol_2026-06-23_prepared.sdf

>  <GenAI_Model>  (1) 
Pocket2Mol

>  <Protein>  (1) 
GPCR_5HT2C

$$$$
Pocket2Mol_47
     RDKit          3D

  0  0  0  0  0  0  0  0  0  0999 V3000
M  V30 BEGIN CTAB
M  V30 COUNTS 15 15 0 0 1
M  V30 BEGIN ATOM
M  V30 1 C 39.850880 29.426306 51.433053 0
M  V30 2 C 39.277188 28.015859 51.576899 0
M  V30 3 C 38.126766 28.177942 52.565687 0
M  V30 4 C 39.645136 30.098083 52.800632 0
M  V30 5 C 38.611911 29.243370 53.554244 0
M  V30 6 H 40.896358 29.421304 51.123123 0
M  V30 7 H 39.286498 29.968785 50.672499 0
M  V30 8 H 38.956806 27.591752 50.624140 0
M  V30 9 H 40.031579 27.353606 52.002309 0
M  V30 10 H 37.244949 28.538199 52.036809 0
M  V30 11 H 37.856527 27.240610 53.053368 0
M  V30 12 H 40.570439 30.137834 53.371758 0
M  V30 13 H 39.306240 31.128188 52.683598 0
M  V30 14 H 37.786295 29.841512 53.942427 0
M  V30 15 H 39.090878 28.761263 54.407599 0
M  V30 END ATOM
M  V30 BEGIN BOND
M  V30 1 1 2 1
M  V30 2 1 3 2
M  V30 3 1 4 1
M  V30 4 1 5 3
M  V30 5 1 5 4
M  V30 6 1 6 1
M  V30 7 1 7 1
M  V30 8 1 8 2
M  V30 9 1 9 2
M  V30 10 1 10 3
M  V30 11 1 11 3
M  V30 12 1 12 4
M  V30 13 1 13 4
M  V30 14 1 14 5
M  V30 15 1 15 5
M  V30 END BOND
M  V30 END CTAB
M  END
>  <i_epik_Tot_Q>  (1) 
0

>  <i_epik_Tot_abs_Q>  (1) 
0

>  <i_i_glide_confnum>  (1) 
1

>  <i_i_glide_lignum>  (1) 
48

>  <i_i_glide_posenum>  (1) 
338

>  <i_i_glide_rotatable_bonds>  (1) 
0

>  <i_lp_mmshare_version>  (1) 
72125

>  <i_m_source_file_index>  (1) 
48

>  <i_f3d_flags>  (1) 
0

>  <num_sample>  (1) 
50

>  <b_lp_Chiralities_Consistent>  (1) 
1

>  <r_epik_Charging_Adjusted_Penalty>  (1) 
0

>  <r_epik_Ionization_Penalty>  (1) 
0

>  <r_epik_Ionization_Penalty_Charging>  (1) 
0

>  <r_epik_Ionization_Penalty_Neutral>  (1) 
0

>  <r_epik_State_Penalty>  (1) 
-0

>  <r_glide_ring_energy>  (1) 
0

>  <r_i_docking_score>  (1) 
-4.7230858931813557

>  <r_i_glide_ecoul>  (1) 
-0.10607008626834342

>  <r_i_glide_eff_state_penalty>  (1) 
-0

>  <r_i_glide_einternal>  (1) 
0

>  <r_i_glide_emodel>  (1) 
-17.116996877856046

>  <r_i_glide_emodel_strain>  (1) 
0.00053789470504028714

>  <r_i_glide_energy>  (1) 
-13.347484648414811

>  <r_i_glide_erotb>  (1) 
0

>  <r_i_glide_esite>  (1) 
0

>  <r_i_glide_evdw>  (1) 
-13.241414562146469

>  <r_i_glide_gscore>  (1) 
-4.7230858931813557

>  <r_i_glide_gscore_strain>  (1) 
0

>  <r_i_glide_hbond>  (1) 
0

>  <r_i_glide_ligand_efficiency>  (1) 
-0.94461717863627115

>  <r_i_glide_ligand_efficiency_ln>  (1) 
-1.8100012537855827

>  <r_i_glide_ligand_efficiency_sa>  (1) 
-1.6152726542856284

>  <r_i_glide_lipo>  (1) 
-1.5924749435813272

>  <r_i_glide_metal>  (1) 
-0

>  <r_i_glide_rewards>  (1) 
-2.4526297085524544

>  <r_lp_Energy>  (1) 
13.274989999999999

>  <r_lp_tautomer_probability>  (1) 
1

>  <s_epik_cmdline>  (1) 
J2VwaWtfcHl0aG9uJywgJy1waHQnLCAnMS4wJywgJy1waCcsICc3LjQnLCAnLXRuJywgJzgnLCAnLW1hJywgJzUwMCcsICctaW1hZScsICc8aW5maWxlLm1hZT4nLCAnLW9tYWUnLCAnPG91dGZpbGUubWFlPic=

>  <s_epik_input>  (1) 
W0NIMl0xW0NIMl1bQ0gyXVtDSDJdW0NIMl0x

>  <s_glide_docking_method>  (1) 
confgen

>  <s_i_glide_gridfile>  (1) 
gpcr_5ht2c_6bqh_protein_autoprepared_prepared

>  <s_lp_Force_Field>  (1) 
S-OPLS

>  <s_lp_Variant>  (1) 
Pocket2Mol_47-1

>  <s_m_source_file>  (1) 
generated_GPCR_5HT2C_ligand_Pocket2Mol_2026-06-23_prepared.sdf

>  <GenAI_Model>  (1) 
Pocket2Mol

>  <Protein>  (1) 
GPCR_5HT2C

$$$$
Pocket2Mol_41
     RDKit          3D

  0  0  0  0  0  0  0  0  0  0999 V3000
M  V30 BEGIN CTAB
M  V30 COUNTS 15 15 0 0 1
M  V30 BEGIN ATOM
M  V30 1 C 37.913264 29.853314 54.407614 0
M  V30 2 O 37.289475 28.859734 53.415703 0
M  V30 3 C 38.214971 27.703876 53.002992 0
M  V30 4 C 39.364632 30.250709 54.098085 0
M  V30 5 O 39.645137 30.537813 52.614251 0
M  V30 6 C 39.244277 28.084616 51.950380 0
M  V30 7 C 39.823381 29.287166 51.767764 0
M  V30 8 H 37.290746 30.747513 54.438902 0
M  V30 9 H 37.876518 29.434041 55.413080 0
M  V30 10 H 37.600064 26.916118 52.567760 0
M  V30 11 H 38.710879 27.259887 53.866154 0
M  V30 12 H 39.607820 31.136132 54.685440 0
M  V30 13 H 40.045149 29.475799 54.450948 0
M  V30 14 H 39.517543 27.287522 51.274831 0
M  V30 15 H 40.506910 29.394997 50.938571 0
M  V30 END ATOM
M  V30 BEGIN BOND
M  V30 1 1 2 1
M  V30 2 1 3 2
M  V30 3 1 4 1
M  V30 4 1 5 4
M  V30 5 1 6 3
M  V30 6 1 7 5
M  V30 7 2 7 6
M  V30 8 1 8 1
M  V30 9 1 9 1
M  V30 10 1 10 3
M  V30 11 1 11 3
M  V30 12 1 12 4
M  V30 13 1 13 4
M  V30 14 1 14 6
M  V30 15 1 15 7
M  V30 END BOND
M  V30 END CTAB
M  END
>  <i_epik_Tot_Q>  (1) 
0

>  <i_epik_Tot_abs_Q>  (1) 
0

>  <i_i_glide_confnum>  (1) 
3

>  <i_i_glide_lignum>  (1) 
42

>  <i_i_glide_posenum>  (1) 
370

>  <i_i_glide_rotatable_bonds>  (1) 
0

>  <i_lp_mmshare_version>  (1) 
72125

>  <i_m_source_file_index>  (1) 
42

>  <i_f3d_flags>  (1) 
0

>  <num_sample>  (1) 
50

>  <b_lp_Chiralities_Consistent>  (1) 
1

>  <r_epik_Charging_Adjusted_Penalty>  (1) 
0

>  <r_epik_Ionization_Penalty>  (1) 
5.6701613537443791e-14

>  <r_epik_Ionization_Penalty_Charging>  (1) 
0

>  <r_epik_Ionization_Penalty_Neutral>  (1) 
5.6701613537443791e-14

>  <r_epik_State_Penalty>  (1) 
-0

>  <r_glide_ring_energy>  (1) 
0.9851884203704826

>  <r_i_docking_score>  (1) 
-4.713793547466218

>  <r_i_glide_ecoul>  (1) 
-1.1887406094273678

>  <r_i_glide_eff_state_penalty>  (1) 
-0

>  <r_i_glide_einternal>  (1) 
0

>  <r_i_glide_emodel>  (1) 
-21.271425642821292

>  <r_i_glide_emodel_strain>  (1) 
1.42683729720261e-07

>  <r_i_glide_energy>  (1) 
-16.437602248467865

>  <r_i_glide_erotb>  (1) 
0

>  <r_i_glide_esite>  (1) 
0

>  <r_i_glide_evdw>  (1) 
-15.248861639040499

>  <r_i_glide_gscore>  (1) 
-4.713793547466218

>  <r_i_glide_gscore_strain>  (1) 
0

>  <r_i_glide_hbond>  (1) 
0

>  <r_i_glide_ligand_efficiency>  (1) 
-0.67339907820945977

>  <r_i_glide_ligand_efficiency_ln>  (1) 
-1.6001145007690831

>  <r_i_glide_ligand_efficiency_sa>  (1) 
-1.2881660951570584

>  <r_i_glide_lipo>  (1) 
-1.2777433819893098

>  <r_i_glide_metal>  (1) 
-0

>  <r_i_glide_rewards>  (1) 
-2.4952959921107776

>  <r_lp_Energy>  (1) 
7.3473649999999999

>  <r_lp_tautomer_probability>  (1) 
1

>  <s_epik_cmdline>  (1) 
J2VwaWtfcHl0aG9uJywgJy1waHQnLCAnMS4wJywgJy1waCcsICc3LjQnLCAnLXRuJywgJzgnLCAnLW1hJywgJzUwMCcsICctaW1hZScsICc8aW5maWxlLm1hZT4nLCAnLW9tYWUnLCAnPG91dGZpbGUubWFlPic=

>  <s_epik_input>  (1) 
W0NIMl0xT1tDSDJdW0NIXT1bQ0hdT1tDSDJdMQ==

>  <s_glide_docking_method>  (1) 
confgen

>  <s_i_glide_gridfile>  (1) 
gpcr_5ht2c_6bqh_protein_autoprepared_prepared

>  <s_lp_Force_Field>  (1) 
S-OPLS

>  <s_lp_Variant>  (1) 
Pocket2Mol_41-1

>  <s_m_source_file>  (1) 
generated_GPCR_5HT2C_ligand_Pocket2Mol_2026-06-23_prepared.sdf

>  <GenAI_Model>  (1) 
Pocket2Mol

>  <Protein>  (1) 
GPCR_5HT2C

$$$$
Pocket2Mol_13
     RDKit          3D

  0  0  0  0  0  0  0  0  0  0999 V3000
M  V30 BEGIN CTAB
M  V30 COUNTS 12 12 0 0 1
M  V30 BEGIN ATOM
M  V30 1 C 39.845324 29.535809 51.750164 0
M  V30 2 O 38.883142 29.337756 52.774745 0
M  V30 3 C 39.552155 28.420458 50.738222 0
M  V30 4 C 38.318187 28.141961 52.703668 0
M  V30 5 C 38.845139 27.337760 51.537234 0
M  V30 6 O 37.463384 27.710333 53.473145 0
M  V30 7 H 39.761436 30.527951 51.305625 0
M  V30 8 H 40.845138 29.428117 52.167762 0
M  V30 9 H 38.880566 28.786158 49.963372 0
M  V30 10 H 40.445137 28.049399 50.243277 0
M  V30 11 H 39.537569 26.576676 51.896864 0
M  V30 12 H 38.045143 26.866077 50.968240 0
M  V30 END ATOM
M  V30 BEGIN BOND
M  V30 1 1 2 1
M  V30 2 1 3 1
M  V30 3 1 4 2
M  V30 4 1 5 3
M  V30 5 1 5 4
M  V30 6 2 6 4
M  V30 7 1 7 1
M  V30 8 1 8 1
M  V30 9 1 9 3
M  V30 10 1 10 3
M  V30 11 1 11 5
M  V30 12 1 12 5
M  V30 END BOND
M  V30 END CTAB
M  END
>  <i_epik_Tot_Q>  (1) 
0

>  <i_epik_Tot_abs_Q>  (1) 
0

>  <i_i_glide_confnum>  (1) 
1

>  <i_i_glide_lignum>  (1) 
14

>  <i_i_glide_posenum>  (1) 
106

>  <i_i_glide_rotatable_bonds>  (1) 
0

>  <i_lp_mmshare_version>  (1) 
72125

>  <i_m_source_file_index>  (1) 
14

>  <i_f3d_flags>  (1) 
0

>  <num_sample>  (1) 
50

>  <b_lp_Chiralities_Consistent>  (1) 
1

>  <r_epik_Charging_Adjusted_Penalty>  (1) 
0

>  <r_epik_Ionization_Penalty>  (1) 
0

>  <r_epik_Ionization_Penalty_Charging>  (1) 
0

>  <r_epik_Ionization_Penalty_Neutral>  (1) 
0

>  <r_epik_State_Penalty>  (1) 
-0

>  <r_glide_ring_energy>  (1) 
0

>  <r_i_docking_score>  (1) 
-4.7019624364510726

>  <r_i_glide_ecoul>  (1) 
-0.55128066307524448

>  <r_i_glide_eff_state_penalty>  (1) 
-0

>  <r_i_glide_einternal>  (1) 
0

>  <r_i_glide_emodel>  (1) 
-20.464860924792536

>  <r_i_glide_emodel_strain>  (1) 
0

>  <r_i_glide_energy>  (1) 
-15.636687402870969

>  <r_i_glide_erotb>  (1) 
0

>  <r_i_glide_esite>  (1) 
0

>  <r_i_glide_evdw>  (1) 
-15.085406739795724

>  <r_i_glide_gscore>  (1) 
-4.7019624364510726

>  <r_i_glide_gscore_strain>  (1) 
0

>  <r_i_glide_hbond>  (1) 
0

>  <r_i_glide_ligand_efficiency>  (1) 
-0.78366040607517873

>  <r_i_glide_ligand_efficiency_ln>  (1) 
-1.6842290635271686

>  <r_i_glide_ligand_efficiency_sa>  (1) 
-1.4240054616664044

>  <r_i_glide_lipo>  (1) 
-0.98999999999999999

>  <r_i_glide_metal>  (1) 
-0

>  <r_i_glide_rewards>  (1) 
-2.875

>  <r_lp_Energy>  (1) 
-1.1766760000000001

>  <r_lp_tautomer_probability>  (1) 
1

>  <s_epik_Chemistry_Notes>  (1) 
This compound has an ester and may undergo hydrolysis at high or low pH.

>  <s_epik_cmdline>  (1) 
J2VwaWtfcHl0aG9uJywgJy1waHQnLCAnMS4wJywgJy1waCcsICc3LjQnLCAnLXRuJywgJzgnLCAnLW1hJywgJzUwMCcsICctaW1hZScsICc8aW5maWxlLm1hZT4nLCAnLW9tYWUnLCAnPG91dGZpbGUubWFlPic=

>  <s_epik_input>  (1) 
W0NIMl0xW0NIMl1bQ0gyXU9DMT1P

>  <s_glide_docking_method>  (1) 
confgen

>  <s_i_glide_gridfile>  (1) 
gpcr_5ht2c_6bqh_protein_autoprepared_prepared

>  <s_lp_Force_Field>  (1) 
S-OPLS

>  <s_lp_Variant>  (1) 
Pocket2Mol_13-1

>  <s_m_source_file>  (1) 
generated_GPCR_5HT2C_ligand_Pocket2Mol_2026-06-23_prepared.sdf

>  <GenAI_Model>  (1) 
Pocket2Mol

>  <Protein>  (1) 
GPCR_5HT2C

$$$$
Pocket2Mol_26
     RDKit          3D

  0  0  0  0  0  0  0  0  0  0999 V3000
M  V30 BEGIN CTAB
M  V30 COUNTS 13 13 0 0 1
M  V30 BEGIN ATOM
M  V30 1 C 39.998620 30.280932 52.039430 0
M  V30 2 O 39.245054 29.651920 53.076340 0
M  V30 3 C 38.457086 28.555945 52.868569 0
M  V30 4 O 37.530751 28.214477 53.600286 0
M  V30 5 C 38.845575 27.737636 51.622357 0
M  V30 6 C 40.464442 29.297392 50.974083 0
M  V30 7 O 39.341604 28.547053 50.567759 0
M  V30 8 H 40.845125 30.806805 52.477888 0
M  V30 9 H 39.387393 31.048337 51.570115 0
M  V30 10 H 37.975565 27.191104 51.263796 0
M  V30 11 H 39.594166 26.995381 51.901152 0
M  V30 12 H 41.243975 28.642226 51.367716 0
M  V30 13 H 40.881496 29.830159 50.119356 0
M  V30 END ATOM
M  V30 BEGIN BOND
M  V30 1 1 2 1
M  V30 2 1 3 2
M  V30 3 2 4 3
M  V30 4 1 5 3
M  V30 5 1 6 1
M  V30 6 1 7 5
M  V30 7 1 7 6
M  V30 8 1 8 1
M  V30 9 1 9 1
M  V30 10 1 10 5
M  V30 11 1 11 5
M  V30 12 1 12 6
M  V30 13 1 13 6
M  V30 END BOND
M  V30 END CTAB
M  END
>  <i_epik_Tot_Q>  (1) 
0

>  <i_epik_Tot_abs_Q>  (1) 
0

>  <i_i_glide_confnum>  (1) 
1

>  <i_i_glide_lignum>  (1) 
27

>  <i_i_glide_posenum>  (1) 
210

>  <i_i_glide_rotatable_bonds>  (1) 
0

>  <i_lp_mmshare_version>  (1) 
72125

>  <i_m_source_file_index>  (1) 
27

>  <i_f3d_flags>  (1) 
0

>  <num_sample>  (1) 
50

>  <b_lp_Chiralities_Consistent>  (1) 
1

>  <r_epik_Charging_Adjusted_Penalty>  (1) 
0

>  <r_epik_Ionization_Penalty>  (1) 
1.0677269036415479e-12

>  <r_epik_Ionization_Penalty_Charging>  (1) 
0

>  <r_epik_Ionization_Penalty_Neutral>  (1) 
1.0677269036415479e-12

>  <r_epik_State_Penalty>  (1) 
-0

>  <r_glide_ring_energy>  (1) 
0

>  <r_i_docking_score>  (1) 
-4.6801604916035791

>  <r_i_glide_ecoul>  (1) 
-0.12033053857278048

>  <r_i_glide_eff_state_penalty>  (1) 
-0

>  <r_i_glide_einternal>  (1) 
0

>  <r_i_glide_emodel>  (1) 
-21.196584457779068

>  <r_i_glide_emodel_strain>  (1) 
0

>  <r_i_glide_energy>  (1) 
-16.358613605904278

>  <r_i_glide_erotb>  (1) 
0

>  <r_i_glide_esite>  (1) 
0

>  <r_i_glide_evdw>  (1) 
-16.238283067331498

>  <r_i_glide_gscore>  (1) 
-4.6801604916035791

>  <r_i_glide_gscore_strain>  (1) 
0

>  <r_i_glide_hbond>  (1) 
0

>  <r_i_glide_ligand_efficiency>  (1) 
-0.66859435594336847

>  <r_i_glide_ligand_efficiency_ln>  (1) 
-1.5886976366554832

>  <r_i_glide_ligand_efficiency_sa>  (1) 
-1.2789749921096916

>  <r_i_glide_lipo>  (1) 
-0.90986173084736777

>  <r_i_glide_metal>  (1) 
-0

>  <r_i_glide_rewards>  (1) 
-2.9403350266037194

>  <r_lp_Energy>  (1) 
12.58291

>  <r_lp_tautomer_probability>  (1) 
1

>  <s_epik_Chemistry_Notes>  (1) 
This compound has an ester and may undergo hydrolysis at high or low pH.

>  <s_epik_cmdline>  (1) 
J2VwaWtfcHl0aG9uJywgJy1waHQnLCAnMS4wJywgJy1waCcsICc3LjQnLCAnLXRuJywgJzgnLCAnLW1hJywgJzUwMCcsICctaW1hZScsICc8aW5maWxlLm1hZT4nLCAnLW9tYWUnLCAnPG91dGZpbGUubWFlPic=

>  <s_epik_input>  (1) 
W0NIMl0xT1tDSDJdW0NIMl1PQzE9Tw==

>  <s_glide_docking_method>  (1) 
confgen

>  <s_i_glide_gridfile>  (1) 
gpcr_5ht2c_6bqh_protein_autoprepared_prepared

>  <s_lp_Force_Field>  (1) 
S-OPLS

>  <s_lp_Variant>  (1) 
Pocket2Mol_26-1

>  <s_m_source_file>  (1) 
generated_GPCR_5HT2C_ligand_Pocket2Mol_2026-06-23_prepared.sdf

>  <GenAI_Model>  (1) 
Pocket2Mol

>  <Protein>  (1) 
GPCR_5HT2C

$$$$
Pocket2Mol_40
     RDKit          3D

  0  0  0  0  0  0  0  0  0  0999 V3000
M  V30 BEGIN CTAB
M  V30 COUNTS 10 9 0 0 1
M  V30 BEGIN ATOM
M  V30 1 C 39.640284 28.533743 59.898881 0
M  V30 2 O 38.925641 29.557908 60.570405 0
M  V30 3 C 39.615659 30.488488 61.263425 0
M  V30 4 C 38.664482 31.523069 61.932182 0
M  V30 5 O 40.845179 30.537288 61.367997 0
M  V30 6 O 37.435452 31.329538 61.767759 0
M  V30 7 O 39.229444 32.441738 62.567124 0 CHG=-1
M  V30 8 H 38.948705 27.862740 59.391264 0
M  V30 9 H 40.229994 27.941548 60.599371 0
M  V30 10 H 40.315415 28.952026 59.152033 0
M  V30 END ATOM
M  V30 BEGIN BOND
M  V30 1 1 2 1
M  V30 2 1 3 2
M  V30 3 1 4 3
M  V30 4 2 5 3
M  V30 5 2 6 4
M  V30 6 1 7 4
M  V30 7 1 8 1
M  V30 8 1 9 1
M  V30 9 1 10 1
M  V30 END BOND
M  V30 END CTAB
M  END
>  <i_epik_Tot_Q>  (1) 
-1

>  <i_epik_Tot_abs_Q>  (1) 
1

>  <i_i_glide_confnum>  (1) 
1

>  <i_i_glide_lignum>  (1) 
41

>  <i_i_glide_posenum>  (1) 
29

>  <i_i_glide_rotatable_bonds>  (1) 
2

>  <i_lp_mmshare_version>  (1) 
72125

>  <i_m_source_file_index>  (1) 
41

>  <i_f3d_flags>  (1) 
0

>  <num_sample>  (1) 
50

>  <b_lp_Chiralities_Consistent>  (1) 
1

>  <r_epik_Charging_Adjusted_Penalty>  (1) 
5.6581681309968728e-06

>  <r_epik_Ionization_Penalty>  (1) 
5.6581681309968728e-06

>  <r_epik_Ionization_Penalty_Charging>  (1) 
5.6581681309968728e-06

>  <r_epik_Ionization_Penalty_Neutral>  (1) 
0

>  <r_epik_State_Penalty>  (1) 
-0

>  <r_glide_ring_energy>  (1) 
0

>  <r_i_docking_score>  (1) 
-4.6787144454445455

>  <r_i_glide_ecoul>  (1) 
-5.0656541848938543

>  <r_i_glide_eff_state_penalty>  (1) 
-0

>  <r_i_glide_einternal>  (1) 
0.024559851423275436

>  <r_i_glide_emodel>  (1) 
-18.670365412888437

>  <r_i_glide_emodel_strain>  (1) 
0

>  <r_i_glide_energy>  (1) 
-13.810179128701591

>  <r_i_glide_erotb>  (1) 
0

>  <r_i_glide_esite>  (1) 
0

>  <r_i_glide_evdw>  (1) 
-8.7445249438077362

>  <r_i_glide_gscore>  (1) 
-4.6787144454445455

>  <r_i_glide_gscore_strain>  (1) 
0

>  <r_i_glide_hbond>  (1) 
-0.47999999999999998

>  <r_i_glide_ligand_efficiency>  (1) 
-0.66838777792064941

>  <r_i_glide_ligand_efficiency_ln>  (1) 
-1.5882067709854977

>  <r_i_glide_ligand_efficiency_sa>  (1) 
-1.2785798225683567

>  <r_i_glide_lipo>  (1) 
-0.27234799332941262

>  <r_i_glide_metal>  (1) 
-0

>  <r_i_glide_rewards>  (1) 
-2.7292920771906686

>  <r_lp_Energy>  (1) 
21.029133999999999

>  <r_lp_tautomer_probability>  (1) 
1

>  <s_epik_Chemistry_Notes>  (1) 
This compound has an ester and may undergo hydrolysis at high or low pH.

>  <s_epik_cmdline>  (1) 
J2VwaWtfcHl0aG9uJywgJy1waHQnLCAnMS4wJywgJy1waCcsICc3LjQnLCAnLXRuJywgJzgnLCAnLW1hJywgJzUwMCcsICctaW1hZScsICc8aW5maWxlLm1hZT4nLCAnLW9tYWUnLCAnPG91dGZpbGUubWFlPic=

>  <s_epik_input>  (1) 
W0NIM11PQyg9TylDKD1PKVtPSF0=

>  <s_glide_docking_method>  (1) 
confgen

>  <s_i_glide_gridfile>  (1) 
gpcr_5ht2c_6bqh_protein_autoprepared_prepared

>  <s_lp_Force_Field>  (1) 
S-OPLS

>  <s_lp_Variant>  (1) 
Pocket2Mol_40-1

>  <s_m_source_file>  (1) 
generated_GPCR_5HT2C_ligand_Pocket2Mol_2026-06-23_prepared.sdf

>  <GenAI_Model>  (1) 
Pocket2Mol

>  <Protein>  (1) 
GPCR_5HT2C

$$$$
Pocket2Mol_13
     RDKit          3D

  0  0  0  0  0  0  0  0  0  0999 V3000
M  V30 BEGIN CTAB
M  V30 COUNTS 12 12 0 0 1
M  V30 BEGIN ATOM
M  V30 1 C 40.045152 29.829960 51.228516 0
M  V30 2 O 39.645139 29.901819 52.587597 0
M  V30 3 C 39.600986 28.436274 50.761214 0
M  V30 4 C 38.835761 28.911441 52.935852 0
M  V30 5 C 38.598542 27.945642 51.797782 0
M  V30 6 O 38.322185 28.766483 54.041883 0
M  V30 7 H 39.539920 30.612459 50.661108 0
M  V30 8 H 41.121110 29.969305 51.121392 0
M  V30 9 H 39.161000 28.479291 49.767697 0
M  V30 10 H 40.445136 27.751867 50.715877 0
M  V30 11 H 38.780115 26.914302 52.098993 0
M  V30 12 H 37.572454 28.040271 51.445074 0
M  V30 END ATOM
M  V30 BEGIN BOND
M  V30 1 1 2 1
M  V30 2 1 3 1
M  V30 3 1 4 2
M  V30 4 1 5 3
M  V30 5 1 5 4
M  V30 6 2 6 4
M  V30 7 1 7 1
M  V30 8 1 8 1
M  V30 9 1 9 3
M  V30 10 1 10 3
M  V30 11 1 11 5
M  V30 12 1 12 5
M  V30 END BOND
M  V30 END CTAB
M  END
>  <i_epik_Tot_Q>  (1) 
0

>  <i_epik_Tot_abs_Q>  (1) 
0

>  <i_i_glide_confnum>  (1) 
2

>  <i_i_glide_lignum>  (1) 
14

>  <i_i_glide_posenum>  (1) 
187

>  <i_i_glide_rotatable_bonds>  (1) 
0

>  <i_lp_mmshare_version>  (1) 
72125

>  <i_m_source_file_index>  (1) 
14

>  <i_f3d_flags>  (1) 
0

>  <num_sample>  (1) 
50

>  <b_lp_Chiralities_Consistent>  (1) 
1

>  <r_epik_Charging_Adjusted_Penalty>  (1) 
0

>  <r_epik_Ionization_Penalty>  (1) 
0

>  <r_epik_Ionization_Penalty_Charging>  (1) 
0

>  <r_epik_Ionization_Penalty_Neutral>  (1) 
0

>  <r_epik_State_Penalty>  (1) 
-0

>  <r_glide_ring_energy>  (1) 
0.00053108536261990756

>  <r_i_docking_score>  (1) 
-4.6646150198093741

>  <r_i_glide_ecoul>  (1) 
-0.30544335915631166

>  <r_i_glide_eff_state_penalty>  (1) 
-0

>  <r_i_glide_einternal>  (1) 
0

>  <r_i_glide_emodel>  (1) 
-20.32801849845767

>  <r_i_glide_emodel_strain>  (1) 
0

>  <r_i_glide_energy>  (1) 
-15.538194880555695

>  <r_i_glide_erotb>  (1) 
0

>  <r_i_glide_esite>  (1) 
0

>  <r_i_glide_evdw>  (1) 
-15.232751521399383

>  <r_i_glide_gscore>  (1) 
-4.6646150198093741

>  <r_i_glide_gscore_strain>  (1) 
0

>  <r_i_glide_hbond>  (1) 
0

>  <r_i_glide_ligand_efficiency>  (1) 
-0.77743583663489568

>  <r_i_glide_ligand_efficiency_ln>  (1) 
-1.6708513291437601

>  <r_i_glide_ligand_efficiency_sa>  (1) 
-1.4126946683549524

>  <r_i_glide_lipo>  (1) 
-0.98999999999999999

>  <r_i_glide_metal>  (1) 
-0

>  <r_i_glide_rewards>  (1) 
-2.867160939865959

>  <r_lp_Energy>  (1) 
-1.1766760000000001

>  <r_lp_tautomer_probability>  (1) 
1

>  <s_epik_Chemistry_Notes>  (1) 
This compound has an ester and may undergo hydrolysis at high or low pH.

>  <s_epik_cmdline>  (1) 
J2VwaWtfcHl0aG9uJywgJy1waHQnLCAnMS4wJywgJy1waCcsICc3LjQnLCAnLXRuJywgJzgnLCAnLW1hJywgJzUwMCcsICctaW1hZScsICc8aW5maWxlLm1hZT4nLCAnLW9tYWUnLCAnPG91dGZpbGUubWFlPic=

>  <s_epik_input>  (1) 
W0NIMl0xW0NIMl1bQ0gyXU9DMT1P

>  <s_glide_docking_method>  (1) 
confgen

>  <s_i_glide_gridfile>  (1) 
gpcr_5ht2c_6bqh_protein_autoprepared_prepared

>  <s_lp_Force_Field>  (1) 
S-OPLS

>  <s_lp_Variant>  (1) 
Pocket2Mol_13-1

>  <s_m_source_file>  (1) 
generated_GPCR_5HT2C_ligand_Pocket2Mol_2026-06-23_prepared.sdf

>  <GenAI_Model>  (1) 
Pocket2Mol

>  <Protein>  (1) 
GPCR_5HT2C

$$$$
Pocket2Mol_16
     RDKit          3D

  0  0  0  0  0  0  0  0  0  0999 V3000
M  V30 BEGIN CTAB
M  V30 COUNTS 18 18 0 0 1
M  V30 BEGIN ATOM
M  V30 1 C 39.311147 26.468247 57.962794 0
M  V30 2 C 38.444722 27.645068 57.484374 0
M  V30 3 C 38.843155 28.090635 56.066617 0
M  V30 4 C 39.245450 25.294286 56.971483 0
M  V30 5 C 38.782473 26.917315 55.074647 0
M  V30 6 C 39.645135 25.738839 55.554551 0
M  V30 7 H 40.346415 26.796053 58.069117 0
M  V30 8 H 38.987759 26.144696 58.953421 0
M  V30 9 H 37.393736 27.351751 57.492971 0
M  V30 10 H 38.537306 28.482449 58.176993 0
M  V30 11 H 38.188248 28.896151 55.731865 0
M  V30 12 H 39.853842 28.501506 56.082329 0
M  V30 13 H 39.902432 24.491283 57.306340 0
M  V30 14 H 38.235446 24.882710 56.956705 0
M  V30 15 H 39.115535 27.245899 54.089578 0
M  V30 16 H 37.748106 26.590918 54.957738 0
M  V30 17 H 40.697287 26.026981 55.545739 0
M  V30 18 H 39.550921 24.902135 54.862749 0
M  V30 END ATOM
M  V30 BEGIN BOND
M  V30 1 1 2 1
M  V30 2 1 3 2
M  V30 3 1 4 1
M  V30 4 1 5 3
M  V30 5 1 6 4
M  V30 6 1 6 5
M  V30 7 1 7 1
M  V30 8 1 8 1
M  V30 9 1 9 2
M  V30 10 1 10 2
M  V30 11 1 11 3
M  V30 12 1 12 3
M  V30 13 1 13 4
M  V30 14 1 14 4
M  V30 15 1 15 5
M  V30 16 1 16 5
M  V30 17 1 17 6
M  V30 18 1 18 6
M  V30 END BOND
M  V30 END CTAB
M  END
>  <i_epik_Tot_Q>  (1) 
0

>  <i_epik_Tot_abs_Q>  (1) 
0

>  <i_i_glide_confnum>  (1) 
2

>  <i_i_glide_lignum>  (1) 
17

>  <i_i_glide_posenum>  (1) 
275

>  <i_i_glide_rotatable_bonds>  (1) 
0

>  <i_lp_mmshare_version>  (1) 
72125

>  <i_m_source_file_index>  (1) 
17

>  <i_f3d_flags>  (1) 
0

>  <num_sample>  (1) 
50

>  <b_lp_Chiralities_Consistent>  (1) 
1

>  <r_epik_Charging_Adjusted_Penalty>  (1) 
0

>  <r_epik_Ionization_Penalty>  (1) 
0

>  <r_epik_Ionization_Penalty_Charging>  (1) 
0

>  <r_epik_Ionization_Penalty_Neutral>  (1) 
0

>  <r_epik_State_Penalty>  (1) 
-0

>  <r_glide_ring_energy>  (1) 
0.00054248204421707515

>  <r_i_docking_score>  (1) 
-4.6578131434177079

>  <r_i_glide_ecoul>  (1) 
0.081785705675193415

>  <r_i_glide_eff_state_penalty>  (1) 
-0

>  <r_i_glide_einternal>  (1) 
0

>  <r_i_glide_emodel>  (1) 
-17.228827756726929

>  <r_i_glide_emodel_strain>  (1) 
6.0136340351846229e-10

>  <r_i_glide_energy>  (1) 
-13.28728843017055

>  <r_i_glide_erotb>  (1) 
0

>  <r_i_glide_esite>  (1) 
0

>  <r_i_glide_evdw>  (1) 
-13.369074135845743

>  <r_i_glide_gscore>  (1) 
-4.6578131434177079

>  <r_i_glide_gscore_strain>  (1) 
0

>  <r_i_glide_hbond>  (1) 
0

>  <r_i_glide_ligand_efficiency>  (1) 
-0.77630219056961802

>  <r_i_glide_ligand_efficiency_ln>  (1) 
-1.6684149171008749

>  <r_i_glide_ligand_efficiency_sa>  (1) 
-1.4106346967447529

>  <r_i_glide_lipo>  (1) 
-1.5181432568144215

>  <r_i_glide_metal>  (1) 
-0

>  <r_i_glide_rewards>  (1) 
-2.4834840356622778

>  <r_lp_Energy>  (1) 
5.7175969999999996

>  <r_lp_tautomer_probability>  (1) 
1

>  <s_epik_cmdline>  (1) 
J2VwaWtfcHl0aG9uJywgJy1waHQnLCAnMS4wJywgJy1waCcsICc3LjQnLCAnLXRuJywgJzgnLCAnLW1hJywgJzUwMCcsICctaW1hZScsICc8aW5maWxlLm1hZT4nLCAnLW9tYWUnLCAnPG91dGZpbGUubWFlPic=

>  <s_epik_input>  (1) 
W0NIMl0xW0NIMl1bQ0gyXVtDSDJdW0NIMl1bQ0gyXTE=

>  <s_glide_docking_method>  (1) 
confgen

>  <s_i_glide_gridfile>  (1) 
gpcr_5ht2c_6bqh_protein_autoprepared_prepared

>  <s_lp_Force_Field>  (1) 
S-OPLS

>  <s_lp_Variant>  (1) 
Pocket2Mol_16-1

>  <s_m_source_file>  (1) 
generated_GPCR_5HT2C_ligand_Pocket2Mol_2026-06-23_prepared.sdf

>  <GenAI_Model>  (1) 
Pocket2Mol

>  <Protein>  (1) 
GPCR_5HT2C

$$$$
Pocket2Mol_21
     RDKit          3D

  0  0  0  0  0  0  0  0  0  0999 V3000
M  V30 BEGIN CTAB
M  V30 COUNTS 14 14 0 0 1
M  V30 BEGIN ATOM
M  V30 1 C 40.133167 30.555512 49.958114 0
M  V30 2 C 40.189670 30.842038 51.450908 0
M  V30 3 O 40.045074 29.149199 49.868996 0
M  V30 4 C 40.044852 28.675196 51.168772 0
M  V30 5 O 39.629942 29.682708 52.014304 0
M  V30 6 C 39.067377 27.506057 51.273919 0
M  V30 7 H 41.013078 30.937095 49.438927 0
M  V30 8 H 39.245186 30.999983 49.509413 0
M  V30 9 H 41.222829 30.960436 51.767325 0
M  V30 10 H 39.645138 31.737746 51.738166 0
M  V30 11 H 41.063217 28.390304 51.434895 0
M  V30 12 H 38.058357 27.838757 51.027057 0
M  V30 13 H 39.072221 27.103643 52.286782 0
M  V30 14 H 39.357030 26.719428 50.578192 0
M  V30 END ATOM
M  V30 BEGIN BOND
M  V30 1 1 2 1
M  V30 2 1 3 1
M  V30 3 1 4 3
M  V30 4 1 5 2
M  V30 5 1 5 4
M  V30 6 1 6 4
M  V30 7 1 7 1
M  V30 8 1 8 1
M  V30 9 1 9 2
M  V30 10 1 10 2
M  V30 11 1 11 4
M  V30 12 1 12 6
M  V30 13 1 13 6
M  V30 14 1 14 6
M  V30 END BOND
M  V30 END CTAB
M  END
>  <i_epik_Tot_Q>  (1) 
0

>  <i_epik_Tot_abs_Q>  (1) 
0

>  <i_i_glide_confnum>  (1) 
1

>  <i_i_glide_lignum>  (1) 
22

>  <i_i_glide_posenum>  (1) 
322

>  <i_i_glide_rotatable_bonds>  (1) 
0

>  <i_lp_mmshare_version>  (1) 
72125

>  <i_m_source_file_index>  (1) 
22

>  <i_f3d_flags>  (1) 
0

>  <num_sample>  (1) 
50

>  <b_lp_Chiralities_Consistent>  (1) 
1

>  <r_epik_Charging_Adjusted_Penalty>  (1) 
0

>  <r_epik_Ionization_Penalty>  (1) 
7.9724310449397378e-14

>  <r_epik_Ionization_Penalty_Charging>  (1) 
0

>  <r_epik_Ionization_Penalty_Neutral>  (1) 
7.9724310449397378e-14

>  <r_epik_State_Penalty>  (1) 
-0

>  <r_glide_ring_energy>  (1) 
0

>  <r_i_docking_score>  (1) 
-4.6546329201352323

>  <r_i_glide_ecoul>  (1) 
-0.67392632813571562

>  <r_i_glide_eff_state_penalty>  (1) 
-0

>  <r_i_glide_einternal>  (1) 
0

>  <r_i_glide_emodel>  (1) 
-18.497916537709788

>  <r_i_glide_emodel_strain>  (1) 
0.042071248144337936

>  <r_i_glide_energy>  (1) 
-14.244598958276782

>  <r_i_glide_erotb>  (1) 
0

>  <r_i_glide_esite>  (1) 
0

>  <r_i_glide_evdw>  (1) 
-13.570672630141067

>  <r_i_glide_gscore>  (1) 
-4.6546329201352323

>  <r_i_glide_gscore_strain>  (1) 
0

>  <r_i_glide_hbond>  (1) 
0

>  <r_i_glide_ligand_efficiency>  (1) 
-0.77577215335587202

>  <r_i_glide_ligand_efficiency_ln>  (1) 
-1.6672757705097989

>  <r_i_glide_ligand_efficiency_sa>  (1) 
-1.409671555208688

>  <r_i_glide_lipo>  (1) 
-0.76545023168470505

>  <r_i_glide_metal>  (1) 
-0

>  <r_i_glide_rewards>  (1) 
-3.1095601077231163

>  <r_lp_Energy>  (1) 
-12.129052

>  <r_lp_tautomer_probability>  (1) 
1

>  <s_epik_Chemistry_Notes>  (1) 
This compound contains an acetal/aminal-like group ( X-CH(R)-Y where X, Y are N, S, or O) that may be acid/base labile, releasing an aldehyde.

>  <s_epik_cmdline>  (1) 
J2VwaWtfcHl0aG9uJywgJy1waHQnLCAnMS4wJywgJy1waCcsICc3LjQnLCAnLXRuJywgJzgnLCAnLW1hJywgJzUwMCcsICctaW1hZScsICc8aW5maWxlLm1hZT4nLCAnLW9tYWUnLCAnPG91dGZpbGUubWFlPic=

>  <s_epik_input>  (1) 
TzFbQ0gyXVtDSDJdT1tDSF0xW0NIM10=

>  <s_glide_docking_method>  (1) 
confgen

>  <s_i_glide_gridfile>  (1) 
gpcr_5ht2c_6bqh_protein_autoprepared_prepared

>  <s_lp_Force_Field>  (1) 
S-OPLS

>  <s_lp_Variant>  (1) 
Pocket2Mol_21-1

>  <s_m_source_file>  (1) 
generated_GPCR_5HT2C_ligand_Pocket2Mol_2026-06-23_prepared.sdf

>  <GenAI_Model>  (1) 
Pocket2Mol

>  <Protein>  (1) 
GPCR_5HT2C

$$$$
Pocket2Mol_47
     RDKit          3D

  0  0  0  0  0  0  0  0  0  0999 V3000
M  V30 BEGIN CTAB
M  V30 COUNTS 15 15 0 0 1
M  V30 BEGIN ATOM
M  V30 1 C 37.955355 25.805741 55.153038 0
M  V30 2 C 37.223608 24.903448 56.154901 0
M  V30 3 C 38.154414 24.759351 57.367755 0
M  V30 4 C 39.415642 25.813628 55.603748 0
M  V30 5 C 39.327626 25.710167 57.123879 0
M  V30 6 H 37.836800 25.465341 54.125011 0
M  V30 7 H 37.552467 26.817912 55.210450 0
M  V30 8 H 36.263480 25.337014 56.437474 0
M  V30 9 H 37.021902 23.924495 55.717874 0
M  V30 10 H 37.645130 24.970886 58.307773 0
M  V30 11 H 38.527445 23.737765 57.425087 0
M  V30 12 H 39.929325 24.937935 55.205764 0
M  V30 13 H 39.956840 26.700143 55.271287 0
M  V30 14 H 39.103164 26.690292 57.547135 0
M  V30 15 H 40.254863 25.357106 57.576610 0
M  V30 END ATOM
M  V30 BEGIN BOND
M  V30 1 1 2 1
M  V30 2 1 3 2
M  V30 3 1 4 1
M  V30 4 1 5 3
M  V30 5 1 5 4
M  V30 6 1 6 1
M  V30 7 1 7 1
M  V30 8 1 8 2
M  V30 9 1 9 2
M  V30 10 1 10 3
M  V30 11 1 11 3
M  V30 12 1 12 4
M  V30 13 1 13 4
M  V30 14 1 14 5
M  V30 15 1 15 5
M  V30 END BOND
M  V30 END CTAB
M  END
>  <i_epik_Tot_Q>  (1) 
0

>  <i_epik_Tot_abs_Q>  (1) 
0

>  <i_i_glide_confnum>  (1) 
3

>  <i_i_glide_lignum>  (1) 
48

>  <i_i_glide_posenum>  (1) 
387

>  <i_i_glide_rotatable_bonds>  (1) 
0

>  <i_lp_mmshare_version>  (1) 
72125

>  <i_m_source_file_index>  (1) 
48

>  <i_f3d_flags>  (1) 
0

>  <num_sample>  (1) 
50

>  <b_lp_Chiralities_Consistent>  (1) 
1

>  <r_epik_Charging_Adjusted_Penalty>  (1) 
0

>  <r_epik_Ionization_Penalty>  (1) 
0

>  <r_epik_Ionization_Penalty_Charging>  (1) 
0

>  <r_epik_Ionization_Penalty_Neutral>  (1) 
0

>  <r_epik_State_Penalty>  (1) 
-0

>  <r_glide_ring_energy>  (1) 
0.0011506089744752722

>  <r_i_docking_score>  (1) 
-4.6524257898912564

>  <r_i_glide_ecoul>  (1) 
0.11070753340210912

>  <r_i_glide_eff_state_penalty>  (1) 
-0

>  <r_i_glide_einternal>  (1) 
0

>  <r_i_glide_emodel>  (1) 
-17.003163513048751

>  <r_i_glide_emodel_strain>  (1) 
0

>  <r_i_glide_energy>  (1) 
-13.289515524541299

>  <r_i_glide_erotb>  (1) 
0

>  <r_i_glide_esite>  (1) 
0

>  <r_i_glide_evdw>  (1) 
-13.400223057943409

>  <r_i_glide_gscore>  (1) 
-4.6524257898912564

>  <r_i_glide_gscore_strain>  (1) 
0

>  <r_i_glide_hbond>  (1) 
0

>  <r_i_glide_ligand_efficiency>  (1) 
-0.93048515797825126

>  <r_i_glide_ligand_efficiency_ln>  (1) 
-1.782922585635097

>  <r_i_glide_ligand_efficiency_sa>  (1) 
-1.5911072388824763

>  <r_i_glide_lipo>  (1) 
-1.6500000000000001

>  <r_i_glide_metal>  (1) 
-0

>  <r_i_glide_rewards>  (1) 
-2.3490207670044012

>  <r_lp_Energy>  (1) 
13.274989999999999

>  <r_lp_tautomer_probability>  (1) 
1

>  <s_epik_cmdline>  (1) 
J2VwaWtfcHl0aG9uJywgJy1waHQnLCAnMS4wJywgJy1waCcsICc3LjQnLCAnLXRuJywgJzgnLCAnLW1hJywgJzUwMCcsICctaW1hZScsICc8aW5maWxlLm1hZT4nLCAnLW9tYWUnLCAnPG91dGZpbGUubWFlPic=

>  <s_epik_input>  (1) 
W0NIMl0xW0NIMl1bQ0gyXVtDSDJdW0NIMl0x

>  <s_glide_docking_method>  (1) 
confgen

>  <s_i_glide_gridfile>  (1) 
gpcr_5ht2c_6bqh_protein_autoprepared_prepared

>  <s_lp_Force_Field>  (1) 
S-OPLS

>  <s_lp_Variant>  (1) 
Pocket2Mol_47-1

>  <s_m_source_file>  (1) 
generated_GPCR_5HT2C_ligand_Pocket2Mol_2026-06-23_prepared.sdf

>  <GenAI_Model>  (1) 
Pocket2Mol

>  <Protein>  (1) 
GPCR_5HT2C

$$$$
Pocket2Mol_1
     RDKit          3D

  0  0  0  0  0  0  0  0  0  0999 V3000
M  V30 BEGIN CTAB
M  V30 COUNTS 9 9 0 0 1
M  V30 BEGIN ATOM
M  V30 1 C 40.390094 30.498874 50.450105 0
M  V30 2 O 40.146632 29.373080 49.715877 0
M  V30 3 C 39.645060 28.456268 50.595338 0
M  V30 4 C 40.045141 30.310768 51.757157 0
M  V30 5 C 39.559885 28.982342 51.851096 0
M  V30 6 H 40.801625 31.330167 49.895624 0
M  V30 7 H 39.399263 27.494876 50.167764 0
M  V30 8 H 40.133613 31.041582 52.548176 0
M  V30 9 H 39.193678 28.471785 52.729993 0
M  V30 END ATOM
M  V30 BEGIN BOND
M  V30 1 1 2 1
M  V30 2 1 3 2
M  V30 3 2 4 1
M  V30 4 2 5 3
M  V30 5 1 5 4
M  V30 6 1 6 1
M  V30 7 1 7 3
M  V30 8 1 8 4
M  V30 9 1 9 5
M  V30 END BOND
M  V30 END CTAB
M  END
>  <i_epik_Tot_Q>  (1) 
0

>  <i_epik_Tot_abs_Q>  (1) 
0

>  <i_i_glide_confnum>  (1) 
1

>  <i_i_glide_lignum>  (1) 
2

>  <i_i_glide_posenum>  (1) 
199

>  <i_i_glide_rotatable_bonds>  (1) 
0

>  <i_lp_mmshare_version>  (1) 
72125

>  <i_m_source_file_index>  (1) 
2

>  <i_f3d_flags>  (1) 
0

>  <num_sample>  (1) 
50

>  <b_lp_Chiralities_Consistent>  (1) 
1

>  <r_epik_Charging_Adjusted_Penalty>  (1) 
0

>  <r_epik_Ionization_Penalty>  (1) 
0

>  <r_epik_Ionization_Penalty_Charging>  (1) 
0

>  <r_epik_Ionization_Penalty_Neutral>  (1) 
0

>  <r_epik_State_Penalty>  (1) 
-0

>  <r_glide_ring_energy>  (1) 
0

>  <r_i_docking_score>  (1) 
-4.6446931207165569

>  <r_i_glide_ecoul>  (1) 
-0.82374745545928141

>  <r_i_glide_eff_state_penalty>  (1) 
-0

>  <r_i_glide_einternal>  (1) 
0

>  <r_i_glide_emodel>  (1) 
-17.523535778657727

>  <r_i_glide_emodel_strain>  (1) 
0

>  <r_i_glide_energy>  (1) 
-13.627793183250416

>  <r_i_glide_erotb>  (1) 
0

>  <r_i_glide_esite>  (1) 
0

>  <r_i_glide_evdw>  (1) 
-12.804045727791134

>  <r_i_glide_gscore>  (1) 
-4.6446931207165569

>  <r_i_glide_gscore_strain>  (1) 
0

>  <r_i_glide_hbond>  (1) 
0

>  <r_i_glide_ligand_efficiency>  (1) 
-0.92893862414331141

>  <r_i_glide_ligand_efficiency_ln>  (1) 
-1.7799592389550121

>  <r_i_glide_ligand_efficiency_sa>  (1) 
-1.5884627032240073

>  <r_i_glide_lipo>  (1) 
-1.2309287160081079

>  <r_i_glide_metal>  (1) 
-0

>  <r_i_glide_rewards>  (1) 
-2.6499999999999999

>  <r_lp_Energy>  (1) 
2.5980879999999997

>  <r_lp_tautomer_probability>  (1) 
1

>  <s_epik_cmdline>  (1) 
J2VwaWtfcHl0aG9uJywgJy1waHQnLCAnMS4wJywgJy1waCcsICc3LjQnLCAnLXRuJywgJzgnLCAnLW1hJywgJzUwMCcsICctaW1hZScsICc8aW5maWxlLm1hZT4nLCAnLW9tYWUnLCAnPG91dGZpbGUubWFlPic=

>  <s_epik_input>  (1) 
W2NIXTFvW2NIXVtjSF1bY0hdMQ==

>  <s_glide_docking_method>  (1) 
confgen

>  <s_i_glide_gridfile>  (1) 
gpcr_5ht2c_6bqh_protein_autoprepared_prepared

>  <s_lp_Force_Field>  (1) 
S-OPLS

>  <s_lp_Variant>  (1) 
Pocket2Mol_1-1

>  <s_m_source_file>  (1) 
generated_GPCR_5HT2C_ligand_Pocket2Mol_2026-06-23_prepared.sdf

>  <GenAI_Model>  (1) 
Pocket2Mol

>  <Protein>  (1) 
GPCR_5HT2C

$$$$
Pocket2Mol_17
     RDKit          3D

  0  0  0  0  0  0  0  0  0  0999 V3000
M  V30 BEGIN CTAB
M  V30 COUNTS 10 10 0 0 1
M  V30 BEGIN ATOM
M  V30 1 C 39.997528 30.537782 52.434989 0
M  V30 2 O 39.302375 29.213003 52.551569 0
M  V30 3 C 39.360035 28.526217 51.326585 0
M  V30 4 C 40.398308 30.429771 50.993687 0
M  V30 5 C 40.045222 29.338839 50.407756 0
M  V30 6 O 38.894333 27.411916 51.104234 0
M  V30 7 H 40.845104 30.616362 53.113090 0
M  V30 8 H 40.941152 31.227054 50.508310 0
M  V30 9 H 40.229760 29.062318 49.380597 0
M  V30 10 H 39.313399 31.370752 52.599619 0
M  V30 END ATOM
M  V30 BEGIN BOND
M  V30 1 1 2 1
M  V30 2 1 3 2
M  V30 3 1 4 1
M  V30 4 1 5 3
M  V30 5 2 5 4
M  V30 6 2 6 3
M  V30 7 1 7 1
M  V30 8 1 8 4
M  V30 9 1 9 5
M  V30 10 1 10 1
M  V30 END BOND
M  V30 END CTAB
M  END
>  <i_epik_Tot_Q>  (1) 
0

>  <i_epik_Tot_abs_Q>  (1) 
0

>  <i_i_glide_confnum>  (1) 
1

>  <i_i_glide_lignum>  (1) 
18

>  <i_i_glide_posenum>  (1) 
196

>  <i_i_glide_rotatable_bonds>  (1) 
0

>  <i_lp_mmshare_version>  (1) 
72125

>  <i_m_source_file_index>  (1) 
18

>  <i_f3d_flags>  (1) 
0

>  <num_sample>  (1) 
50

>  <b_lp_Chiralities_Consistent>  (1) 
1

>  <r_epik_Charging_Adjusted_Penalty>  (1) 
0

>  <r_epik_Ionization_Penalty>  (1) 
0

>  <r_epik_Ionization_Penalty_Charging>  (1) 
0

>  <r_epik_Ionization_Penalty_Neutral>  (1) 
0

>  <r_epik_State_Penalty>  (1) 
-0

>  <r_glide_ring_energy>  (1) 
0

>  <r_i_docking_score>  (1) 
-4.6405532626867307

>  <r_i_glide_ecoul>  (1) 
0.20476034598650408

>  <r_i_glide_eff_state_penalty>  (1) 
-0

>  <r_i_glide_einternal>  (1) 
0

>  <r_i_glide_emodel>  (1) 
-20.064369462814366

>  <r_i_glide_emodel_strain>  (1) 
0

>  <r_i_glide_energy>  (1) 
-15.386067513136968

>  <r_i_glide_erotb>  (1) 
0

>  <r_i_glide_esite>  (1) 
0

>  <r_i_glide_evdw>  (1) 
-15.590827859123472

>  <r_i_glide_gscore>  (1) 
-4.6405532626867307

>  <r_i_glide_gscore_strain>  (1) 
0

>  <r_i_glide_hbond>  (1) 
0

>  <r_i_glide_ligand_efficiency>  (1) 
-0.77342554378112183

>  <r_i_glide_ligand_efficiency_ln>  (1) 
-1.6622324787779381

>  <r_i_glide_ligand_efficiency_sa>  (1) 
-1.4054074826270722

>  <r_i_glide_lipo>  (1) 
-0.85704102714611596

>  <r_i_glide_metal>  (1) 
-0

>  <r_i_glide_rewards>  (1) 
-3.0346848944824165

>  <r_lp_Energy>  (1) 
-7.0611199999999998

>  <r_lp_tautomer_probability>  (1) 
1

>  <s_epik_Chemistry_Notes>  (1) 
This compound has an ester and may undergo hydrolysis at high or low pH.

>  <s_epik_cmdline>  (1) 
J2VwaWtfcHl0aG9uJywgJy1waHQnLCAnMS4wJywgJy1waCcsICc3LjQnLCAnLXRuJywgJzgnLCAnLW1hJywgJzUwMCcsICctaW1hZScsICc8aW5maWxlLm1hZT4nLCAnLW9tYWUnLCAnPG91dGZpbGUubWFlPic=

>  <s_epik_input>  (1) 
W0NIMl0xW0NIXT1bQ0hdT0MxPU8=

>  <s_glide_docking_method>  (1) 
confgen

>  <s_i_glide_gridfile>  (1) 
gpcr_5ht2c_6bqh_protein_autoprepared_prepared

>  <s_lp_Force_Field>  (1) 
S-OPLS

>  <s_lp_Variant>  (1) 
Pocket2Mol_17-1

>  <s_m_source_file>  (1) 
generated_GPCR_5HT2C_ligand_Pocket2Mol_2026-06-23_prepared.sdf

>  <GenAI_Model>  (1) 
Pocket2Mol

>  <Protein>  (1) 
GPCR_5HT2C

$$$$
Pocket2Mol_30
     RDKit          3D

  0  0  0  0  0  0  0  0  0  0999 V3000
M  V30 BEGIN CTAB
M  V30 COUNTS 15 15 0 0 1
M  V30 BEGIN ATOM
M  V30 1 C 40.136132 30.680049 49.903794 0
M  V30 2 C 40.210770 30.958300 51.399953 0
M  V30 3 O 39.645006 29.805928 51.960794 0
M  V30 4 O 40.045168 29.270204 49.821558 0
M  V30 5 C 40.061396 28.794842 51.124045 0
M  V30 6 C 39.068515 27.637772 51.251370 0
M  V30 7 O 39.244779 26.937708 52.463406 0
M  V30 8 H 41.007938 31.063090 49.372188 0
M  V30 9 H 39.245140 31.130609 49.468537 0
M  V30 10 H 41.245137 31.074259 51.718627 0
M  V30 11 H 39.644958 31.832572 51.701885 0
M  V30 12 H 41.086150 28.509118 51.367697 0
M  V30 13 H 39.233519 26.944464 50.425672 0
M  V30 14 H 38.050702 28.020987 51.175658 0
M  V30 15 H 40.100295 26.539060 52.462488 0
M  V30 END ATOM
M  V30 BEGIN BOND
M  V30 1 1 2 1
M  V30 2 1 3 2
M  V30 3 1 4 1
M  V30 4 1 5 3
M  V30 5 1 5 4
M  V30 6 1 6 5
M  V30 7 1 7 6
M  V30 8 1 8 1
M  V30 9 1 9 1
M  V30 10 1 10 2
M  V30 11 1 11 2
M  V30 12 1 12 5
M  V30 13 1 13 6
M  V30 14 1 14 6
M  V30 15 1 15 7
M  V30 END BOND
M  V30 END CTAB
M  END
>  <i_epik_Tot_Q>  (1) 
0

>  <i_epik_Tot_abs_Q>  (1) 
0

>  <i_i_glide_confnum>  (1) 
1

>  <i_i_glide_lignum>  (1) 
31

>  <i_i_glide_posenum>  (1) 
389

>  <i_i_glide_rotatable_bonds>  (1) 
2

>  <i_lp_mmshare_version>  (1) 
72125

>  <i_m_source_file_index>  (1) 
31

>  <i_f3d_flags>  (1) 
0

>  <num_sample>  (1) 
50

>  <b_lp_Chiralities_Consistent>  (1) 
1

>  <r_epik_Charging_Adjusted_Penalty>  (1) 
0

>  <r_epik_Ionization_Penalty>  (1) 
3.4422651255072934e-07

>  <r_epik_Ionization_Penalty_Charging>  (1) 
0

>  <r_epik_Ionization_Penalty_Neutral>  (1) 
3.4422651255072934e-07

>  <r_epik_State_Penalty>  (1) 
-0

>  <r_glide_ring_energy>  (1) 
0

>  <r_i_docking_score>  (1) 
-4.6382077807341897

>  <r_i_glide_ecoul>  (1) 
-0.22166208706660173

>  <r_i_glide_eff_state_penalty>  (1) 
-0

>  <r_i_glide_einternal>  (1) 
0.75311984252095909

>  <r_i_glide_emodel>  (1) 
-19.984988433822849

>  <r_i_glide_emodel_strain>  (1) 
0.052986774800444891

>  <r_i_glide_energy>  (1) 
-15.302566494780347

>  <r_i_glide_erotb>  (1) 
0

>  <r_i_glide_esite>  (1) 
0

>  <r_i_glide_evdw>  (1) 
-15.080904407713746

>  <r_i_glide_gscore>  (1) 
-4.6382077807341897

>  <r_i_glide_gscore_strain>  (1) 
0

>  <r_i_glide_hbond>  (1) 
0

>  <r_i_glide_ligand_efficiency>  (1) 
-0.66260111153345569

>  <r_i_glide_ligand_efficiency_ln>  (1) 
-1.5744566351494318

>  <r_i_glide_ligand_efficiency_sa>  (1) 
-1.267510327991993

>  <r_i_glide_lipo>  (1) 
-0.75091324728851172

>  <r_i_glide_metal>  (1) 
-0

>  <r_i_glide_rewards>  (1) 
-3.1000000000000001

>  <r_lp_Energy>  (1) 
-10.260740999999999

>  <r_lp_tautomer_probability>  (1) 
1

>  <s_epik_Chemistry_Notes>  (1) 
This compound contains an acetal/aminal-like group ( X-CH(R)-Y where X, Y are N, S, or O) that may be acid/base labile, releasing an aldehyde.

>  <s_epik_cmdline>  (1) 
J2VwaWtfcHl0aG9uJywgJy1waHQnLCAnMS4wJywgJy1waCcsICc3LjQnLCAnLXRuJywgJzgnLCAnLW1hJywgJzUwMCcsICctaW1hZScsICc8aW5maWxlLm1hZT4nLCAnLW9tYWUnLCAnPG91dGZpbGUubWFlPic=

>  <s_epik_input>  (1) 
TzFbQ0gyXVtDSDJdT1tDSF0xW0NIMl1bT0hd

>  <s_glide_docking_method>  (1) 
confgen

>  <s_i_glide_gridfile>  (1) 
gpcr_5ht2c_6bqh_protein_autoprepared_prepared

>  <s_lp_Force_Field>  (1) 
S-OPLS

>  <s_lp_Variant>  (1) 
Pocket2Mol_30-1

>  <s_m_source_file>  (1) 
generated_GPCR_5HT2C_ligand_Pocket2Mol_2026-06-23_prepared.sdf

>  <GenAI_Model>  (1) 
Pocket2Mol

>  <Protein>  (1) 
GPCR_5HT2C

$$$$
Pocket2Mol_6
     RDKit          3D

  0  0  0  0  0  0  0  0  0  0999 V3000
M  V30 BEGIN CTAB
M  V30 COUNTS 12 12 0 0 1
M  V30 BEGIN ATOM
M  V30 1 C 38.044737 26.991096 53.764072 0
M  V30 2 C 38.445141 27.588066 52.552544 0
M  V30 3 C 38.045138 27.744179 54.954084 0
M  V30 4 C 38.444560 29.095009 54.933020 0
M  V30 5 C 38.845137 29.691874 53.721980 0
M  V30 6 C 38.845546 28.937753 52.531336 0
M  V30 7 H 37.736272 25.955960 53.779821 0
M  V30 8 H 38.443322 27.010247 51.639266 0
M  V30 9 H 37.737638 27.286418 55.882864 0
M  V30 10 H 38.442922 29.673314 55.845675 0
M  V30 11 H 39.151445 30.727995 53.705773 0
M  V30 12 H 39.152467 29.395089 51.602023 0
M  V30 END ATOM
M  V30 BEGIN BOND
M  V30 1 1 2 1
M  V30 2 2 3 1
M  V30 3 1 4 3
M  V30 4 2 5 4
M  V30 5 2 6 2
M  V30 6 1 6 5
M  V30 7 1 7 1
M  V30 8 1 8 2
M  V30 9 1 9 3
M  V30 10 1 10 4
M  V30 11 1 11 5
M  V30 12 1 12 6
M  V30 END BOND
M  V30 END CTAB
M  END
>  <i_epik_Tot_Q>  (1) 
0

>  <i_epik_Tot_abs_Q>  (1) 
0

>  <i_i_glide_confnum>  (1) 
1

>  <i_i_glide_lignum>  (1) 
7

>  <i_i_glide_posenum>  (1) 
267

>  <i_i_glide_rotatable_bonds>  (1) 
0

>  <i_lp_mmshare_version>  (1) 
72125

>  <i_m_source_file_index>  (1) 
7

>  <i_f3d_flags>  (1) 
0

>  <num_sample>  (1) 
50

>  <b_lp_Chiralities_Consistent>  (1) 
1

>  <r_epik_Charging_Adjusted_Penalty>  (1) 
0

>  <r_epik_Ionization_Penalty>  (1) 
0

>  <r_epik_Ionization_Penalty_Charging>  (1) 
0

>  <r_epik_Ionization_Penalty_Neutral>  (1) 
0

>  <r_epik_State_Penalty>  (1) 
-0

>  <r_glide_ring_energy>  (1) 
0

>  <r_i_docking_score>  (1) 
-4.6314578917908626

>  <r_i_glide_ecoul>  (1) 
-0.56712323361676775

>  <r_i_glide_eff_state_penalty>  (1) 
-0

>  <r_i_glide_einternal>  (1) 
0

>  <r_i_glide_emodel>  (1) 
-17.102451957925627

>  <r_i_glide_emodel_strain>  (1) 
0

>  <r_i_glide_energy>  (1) 
-12.719233760872461

>  <r_i_glide_erotb>  (1) 
0

>  <r_i_glide_esite>  (1) 
0

>  <r_i_glide_evdw>  (1) 
-12.152110527255694

>  <r_i_glide_gscore>  (1) 
-4.6314578917908626

>  <r_i_glide_gscore_strain>  (1) 
0

>  <r_i_glide_hbond>  (1) 
0

>  <r_i_glide_ligand_efficiency>  (1) 
-0.77190964863181044

>  <r_i_glide_ligand_efficiency_ln>  (1) 
-1.6589745437745393

>  <r_i_glide_ligand_efficiency_sa>  (1) 
-1.4026529183346841

>  <r_i_glide_lipo>  (1) 
-1.5785989402376932

>  <r_i_glide_metal>  (1) 
-0

>  <r_i_glide_rewards>  (1) 
-2.3601849401478687

>  <r_lp_Energy>  (1) 
6.1542199999999996

>  <r_lp_tautomer_probability>  (1) 
1

>  <s_epik_cmdline>  (1) 
J2VwaWtfcHl0aG9uJywgJy1waHQnLCAnMS4wJywgJy1waCcsICc3LjQnLCAnLXRuJywgJzgnLCAnLW1hJywgJzUwMCcsICctaW1hZScsICc8aW5maWxlLm1hZT4nLCAnLW9tYWUnLCAnPG91dGZpbGUubWFlPic=

>  <s_epik_input>  (1) 
W2NIXTFbY0hdW2NIXVtjSF1bY0hdW2NIXTE=

>  <s_glide_docking_method>  (1) 
confgen

>  <s_i_glide_gridfile>  (1) 
gpcr_5ht2c_6bqh_protein_autoprepared_prepared

>  <s_lp_Force_Field>  (1) 
S-OPLS

>  <s_lp_Variant>  (1) 
Pocket2Mol_6-1

>  <s_m_source_file>  (1) 
generated_GPCR_5HT2C_ligand_Pocket2Mol_2026-06-23_prepared.sdf

>  <GenAI_Model>  (1) 
Pocket2Mol

>  <Protein>  (1) 
GPCR_5HT2C

$$$$
Pocket2Mol_17
     RDKit          3D

  0  0  0  0  0  0  0  0  0  0999 V3000
M  V30 BEGIN CTAB
M  V30 COUNTS 10 10 0 0 1
M  V30 BEGIN ATOM
M  V30 1 C 40.386959 30.618577 50.266420 0
M  V30 2 O 40.045137 29.218976 49.862421 0
M  V30 3 C 39.596847 28.488579 50.974194 0
M  V30 4 C 40.045138 30.497549 51.719676 0
M  V30 5 C 39.620907 29.339595 52.087641 0
M  V30 6 O 39.245136 27.314046 50.967762 0
M  V30 7 H 39.760409 31.354189 49.762245 0
M  V30 8 H 40.157423 31.338230 52.387610 0
M  V30 9 H 39.322191 29.040072 53.081608 0
M  V30 10 H 41.442759 30.842924 50.112937 0
M  V30 END ATOM
M  V30 BEGIN BOND
M  V30 1 1 2 1
M  V30 2 1 3 2
M  V30 3 1 4 1
M  V30 4 1 5 3
M  V30 5 2 5 4
M  V30 6 2 6 3
M  V30 7 1 7 1
M  V30 8 1 8 4
M  V30 9 1 9 5
M  V30 10 1 10 1
M  V30 END BOND
M  V30 END CTAB
M  END
>  <i_epik_Tot_Q>  (1) 
0

>  <i_epik_Tot_abs_Q>  (1) 
0

>  <i_i_glide_confnum>  (1) 
1

>  <i_i_glide_lignum>  (1) 
18

>  <i_i_glide_posenum>  (1) 
330

>  <i_i_glide_rotatable_bonds>  (1) 
0

>  <i_lp_mmshare_version>  (1) 
72125

>  <i_m_source_file_index>  (1) 
18

>  <i_f3d_flags>  (1) 
0

>  <num_sample>  (1) 
50

>  <b_lp_Chiralities_Consistent>  (1) 
1

>  <r_epik_Charging_Adjusted_Penalty>  (1) 
0

>  <r_epik_Ionization_Penalty>  (1) 
0

>  <r_epik_Ionization_Penalty_Charging>  (1) 
0

>  <r_epik_Ionization_Penalty_Neutral>  (1) 
0

>  <r_epik_State_Penalty>  (1) 
-0

>  <r_glide_ring_energy>  (1) 
0

>  <r_i_docking_score>  (1) 
-4.6269492893786097

>  <r_i_glide_ecoul>  (1) 
0.09622745329052293

>  <r_i_glide_eff_state_penalty>  (1) 
-0

>  <r_i_glide_einternal>  (1) 
0

>  <r_i_glide_emodel>  (1) 
-21.211484748214403

>  <r_i_glide_emodel_strain>  (1) 
0

>  <r_i_glide_energy>  (1) 
-16.546897433678136

>  <r_i_glide_erotb>  (1) 
0

>  <r_i_glide_esite>  (1) 
0

>  <r_i_glide_evdw>  (1) 
-16.643124886968661

>  <r_i_glide_gscore>  (1) 
-4.6269492893786097

>  <r_i_glide_gscore_strain>  (1) 
0

>  <r_i_glide_hbond>  (1) 
0

>  <r_i_glide_ligand_efficiency>  (1) 
-0.77115821489643499

>  <r_i_glide_ligand_efficiency_ln>  (1) 
-1.6573595757008395

>  <r_i_glide_ligand_efficiency_sa>  (1) 
-1.4012874726199847

>  <r_i_glide_lipo>  (1) 
-0.84812985759762216

>  <r_i_glide_metal>  (1) 
-0

>  <r_i_glide_rewards>  (1) 
-2.9610973054261329

>  <r_lp_Energy>  (1) 
-7.0611199999999998

>  <r_lp_tautomer_probability>  (1) 
1

>  <s_epik_Chemistry_Notes>  (1) 
This compound has an ester and may undergo hydrolysis at high or low pH.

>  <s_epik_cmdline>  (1) 
J2VwaWtfcHl0aG9uJywgJy1waHQnLCAnMS4wJywgJy1waCcsICc3LjQnLCAnLXRuJywgJzgnLCAnLW1hJywgJzUwMCcsICctaW1hZScsICc8aW5maWxlLm1hZT4nLCAnLW9tYWUnLCAnPG91dGZpbGUubWFlPic=

>  <s_epik_input>  (1) 
W0NIMl0xW0NIXT1bQ0hdT0MxPU8=

>  <s_glide_docking_method>  (1) 
confgen

>  <s_i_glide_gridfile>  (1) 
gpcr_5ht2c_6bqh_protein_autoprepared_prepared

>  <s_lp_Force_Field>  (1) 
S-OPLS

>  <s_lp_Variant>  (1) 
Pocket2Mol_17-1

>  <s_m_source_file>  (1) 
generated_GPCR_5HT2C_ligand_Pocket2Mol_2026-06-23_prepared.sdf

>  <GenAI_Model>  (1) 
Pocket2Mol

>  <Protein>  (1) 
GPCR_5HT2C

$$$$
Pocket2Mol_1
     RDKit          3D

  0  0  0  0  0  0  0  0  0  0999 V3000
M  V30 BEGIN CTAB
M  V30 COUNTS 9 9 0 0 1
M  V30 BEGIN ATOM
M  V30 1 C 40.033547 29.733271 51.511366 0
M  V30 2 O 40.045138 28.789274 50.523385 0
M  V30 3 C 39.245133 27.775361 50.967760 0
M  V30 4 C 39.245140 29.336174 52.554165 0
M  V30 5 C 38.732252 28.063191 52.199544 0
M  V30 6 H 40.629450 30.613230 51.314975 0
M  V30 7 H 39.147254 26.937020 50.292919 0
M  V30 8 H 39.061722 29.894757 53.459666 0
M  V30 9 H 38.068831 27.432972 52.773705 0
M  V30 END ATOM
M  V30 BEGIN BOND
M  V30 1 1 2 1
M  V30 2 1 3 2
M  V30 3 2 4 1
M  V30 4 2 5 3
M  V30 5 1 5 4
M  V30 6 1 6 1
M  V30 7 1 7 3
M  V30 8 1 8 4
M  V30 9 1 9 5
M  V30 END BOND
M  V30 END CTAB
M  END
>  <i_epik_Tot_Q>  (1) 
0

>  <i_epik_Tot_abs_Q>  (1) 
0

>  <i_i_glide_confnum>  (1) 
1

>  <i_i_glide_lignum>  (1) 
2

>  <i_i_glide_posenum>  (1) 
221

>  <i_i_glide_rotatable_bonds>  (1) 
0

>  <i_lp_mmshare_version>  (1) 
72125

>  <i_m_source_file_index>  (1) 
2

>  <i_f3d_flags>  (1) 
0

>  <num_sample>  (1) 
50

>  <b_lp_Chiralities_Consistent>  (1) 
1

>  <r_epik_Charging_Adjusted_Penalty>  (1) 
0

>  <r_epik_Ionization_Penalty>  (1) 
0

>  <r_epik_Ionization_Penalty_Charging>  (1) 
0

>  <r_epik_Ionization_Penalty_Neutral>  (1) 
0

>  <r_epik_State_Penalty>  (1) 
-0

>  <r_glide_ring_energy>  (1) 
0

>  <r_i_docking_score>  (1) 
-4.6086261975034919

>  <r_i_glide_ecoul>  (1) 
-0.88703970315867942

>  <r_i_glide_eff_state_penalty>  (1) 
-0

>  <r_i_glide_einternal>  (1) 
0

>  <r_i_glide_emodel>  (1) 
-17.75088913128257

>  <r_i_glide_emodel_strain>  (1) 
0

>  <r_i_glide_energy>  (1) 
-13.885397716178156

>  <r_i_glide_erotb>  (1) 
0

>  <r_i_glide_esite>  (1) 
0

>  <r_i_glide_evdw>  (1) 
-12.998358013019477

>  <r_i_glide_gscore>  (1) 
-4.6086261975034919

>  <r_i_glide_gscore_strain>  (1) 
0

>  <r_i_glide_hbond>  (1) 
0

>  <r_i_glide_ligand_efficiency>  (1) 
-0.9217252395006984

>  <r_i_glide_ligand_efficiency_ln>  (1) 
-1.7661375177938361

>  <r_i_glide_ligand_efficiency_sa>  (1) 
-1.576127988991012

>  <r_i_glide_lipo>  (1) 
-1.2666019530494341

>  <r_i_glide_metal>  (1) 
-0

>  <r_i_glide_rewards>  (1) 
-2.5590503883292817

>  <r_lp_Energy>  (1) 
2.5980879999999997

>  <r_lp_tautomer_probability>  (1) 
1

>  <s_epik_cmdline>  (1) 
J2VwaWtfcHl0aG9uJywgJy1waHQnLCAnMS4wJywgJy1waCcsICc3LjQnLCAnLXRuJywgJzgnLCAnLW1hJywgJzUwMCcsICctaW1hZScsICc8aW5maWxlLm1hZT4nLCAnLW9tYWUnLCAnPG91dGZpbGUubWFlPic=

>  <s_epik_input>  (1) 
W2NIXTFvW2NIXVtjSF1bY0hdMQ==

>  <s_glide_docking_method>  (1) 
confgen

>  <s_i_glide_gridfile>  (1) 
gpcr_5ht2c_6bqh_protein_autoprepared_prepared

>  <s_lp_Force_Field>  (1) 
S-OPLS

>  <s_lp_Variant>  (1) 
Pocket2Mol_1-1

>  <s_m_source_file>  (1) 
generated_GPCR_5HT2C_ligand_Pocket2Mol_2026-06-23_prepared.sdf

>  <GenAI_Model>  (1) 
Pocket2Mol

>  <Protein>  (1) 
GPCR_5HT2C

$$$$
Pocket2Mol_49
     RDKit          3D

  0  0  0  0  0  0  0  0  0  0999 V3000
M  V30 BEGIN CTAB
M  V30 COUNTS 13 13 0 0 1
M  V30 BEGIN ATOM
M  V30 1 C 39.645137 29.981913 52.441256 0
M  V30 2 O 38.587745 29.046221 52.579962 0
M  V30 3 C 38.964370 27.879370 51.869591 0
M  V30 4 C 40.113835 29.811105 50.996271 0
M  V30 5 C 39.638862 28.417469 50.609907 0
M  V30 6 H 39.318319 30.997957 52.661543 0
M  V30 7 H 40.445128 29.737764 53.135662 0
M  V30 8 H 39.664202 27.293540 52.467930 0
M  V30 9 H 38.100087 27.253206 51.649003 0
M  V30 10 H 39.646084 30.556241 50.350706 0
M  V30 11 H 41.195576 29.922208 50.910245 0
M  V30 12 H 40.445066 27.762845 50.283417 0
M  V30 13 H 38.918202 28.490282 49.795208 0
M  V30 END ATOM
M  V30 BEGIN BOND
M  V30 1 1 2 1
M  V30 2 1 3 2
M  V30 3 1 4 1
M  V30 4 1 5 3
M  V30 5 1 5 4
M  V30 6 1 6 1
M  V30 7 1 7 1
M  V30 8 1 8 3
M  V30 9 1 9 3
M  V30 10 1 10 4
M  V30 11 1 11 4
M  V30 12 1 12 5
M  V30 13 1 13 5
M  V30 END BOND
M  V30 END CTAB
M  END
>  <i_epik_Tot_Q>  (1) 
0

>  <i_epik_Tot_abs_Q>  (1) 
0

>  <i_i_glide_confnum>  (1) 
2

>  <i_i_glide_lignum>  (1) 
50

>  <i_i_glide_posenum>  (1) 
65

>  <i_i_glide_rotatable_bonds>  (1) 
0

>  <i_lp_mmshare_version>  (1) 
72125

>  <i_m_source_file_index>  (1) 
50

>  <i_f3d_flags>  (1) 
0

>  <num_sample>  (1) 
50

>  <b_lp_Chiralities_Consistent>  (1) 
1

>  <r_epik_Charging_Adjusted_Penalty>  (1) 
0

>  <r_epik_Ionization_Penalty>  (1) 
1.3889264151150229e-11

>  <r_epik_Ionization_Penalty_Charging>  (1) 
0

>  <r_epik_Ionization_Penalty_Neutral>  (1) 
1.3889264151150229e-11

>  <r_epik_State_Penalty>  (1) 
-0

>  <r_glide_ring_energy>  (1) 
9.8467329014132268e-05

>  <r_i_docking_score>  (1) 
-4.6063588841386363

>  <r_i_glide_ecoul>  (1) 
-0.6775500354882602

>  <r_i_glide_eff_state_penalty>  (1) 
-0

>  <r_i_glide_einternal>  (1) 
0

>  <r_i_glide_emodel>  (1) 
-17.129038219962752

>  <r_i_glide_emodel_strain>  (1) 
0

>  <r_i_glide_energy>  (1) 
-13.368846638715384

>  <r_i_glide_erotb>  (1) 
0

>  <r_i_glide_esite>  (1) 
0

>  <r_i_glide_evdw>  (1) 
-12.691296603227125

>  <r_i_glide_gscore>  (1) 
-4.6063588841386363

>  <r_i_glide_gscore_strain>  (1) 
0

>  <r_i_glide_hbond>  (1) 
0

>  <r_i_glide_ligand_efficiency>  (1) 
-0.92127177682772721

>  <r_i_glide_ligand_efficiency_ln>  (1) 
-1.7652686282318153

>  <r_i_glide_ligand_efficiency_sa>  (1) 
-1.5753525787275156

>  <r_i_glide_lipo>  (1) 
-1.3200000000000001

>  <r_i_glide_metal>  (1) 
-0

>  <r_i_glide_rewards>  (1) 
-2.5501615486540405

>  <r_lp_Energy>  (1) 
3.9174029999999997

>  <r_lp_tautomer_probability>  (1) 
1

>  <s_epik_cmdline>  (1) 
J2VwaWtfcHl0aG9uJywgJy1waHQnLCAnMS4wJywgJy1waCcsICc3LjQnLCAnLXRuJywgJzgnLCAnLW1hJywgJzUwMCcsICctaW1hZScsICc8aW5maWxlLm1hZT4nLCAnLW9tYWUnLCAnPG91dGZpbGUubWFlPic=

>  <s_epik_input>  (1) 
W0NIMl0xT1tDSDJdW0NIMl1bQ0gyXTE=

>  <s_glide_docking_method>  (1) 
confgen

>  <s_i_glide_gridfile>  (1) 
gpcr_5ht2c_6bqh_protein_autoprepared_prepared

>  <s_lp_Force_Field>  (1) 
S-OPLS

>  <s_lp_Variant>  (1) 
Pocket2Mol_49-1

>  <s_m_source_file>  (1) 
generated_GPCR_5HT2C_ligand_Pocket2Mol_2026-06-23_prepared.sdf

>  <GenAI_Model>  (1) 
Pocket2Mol

>  <Protein>  (1) 
GPCR_5HT2C

$$$$
Pocket2Mol_35
     RDKit          3D

  0  0  0  0  0  0  0  0  0  0999 V3000
M  V30 BEGIN CTAB
M  V30 COUNTS 11 11 0 0 1
M  V30 BEGIN ATOM
M  V30 1 C 37.530147 34.541432 60.847682 0
M  V30 2 O 37.137873 33.325497 61.360556 0
M  V30 3 C 36.000375 32.624698 60.910830 0
M  V30 4 O 35.660361 31.536516 61.367760 0
M  V30 5 C 35.245917 33.337567 59.822351 0
M  V30 6 C 36.841644 35.141267 59.883787 0
M  V30 7 C 35.671511 34.525232 59.360899 0
M  V30 8 H 38.427960 34.924802 61.309227 0
M  V30 9 H 34.358077 32.871506 59.420118 0
M  V30 10 H 37.169472 36.094943 59.496461 0
M  V30 11 H 35.115899 35.019585 58.576924 0
M  V30 END ATOM
M  V30 BEGIN BOND
M  V30 1 1 2 1
M  V30 2 1 3 2
M  V30 3 2 4 3
M  V30 4 1 5 3
M  V30 5 2 6 1
M  V30 6 2 7 5
M  V30 7 1 7 6
M  V30 8 1 8 1
M  V30 9 1 9 5
M  V30 10 1 10 6
M  V30 11 1 11 7
M  V30 END BOND
M  V30 END CTAB
M  END
>  <i_epik_Tot_Q>  (1) 
0

>  <i_epik_Tot_abs_Q>  (1) 
0

>  <i_i_glide_confnum>  (1) 
1

>  <i_i_glide_lignum>  (1) 
36

>  <i_i_glide_posenum>  (1) 
278

>  <i_i_glide_rotatable_bonds>  (1) 
0

>  <i_lp_mmshare_version>  (1) 
72125

>  <i_m_source_file_index>  (1) 
36

>  <i_f3d_flags>  (1) 
0

>  <num_sample>  (1) 
50

>  <b_lp_Chiralities_Consistent>  (1) 
1

>  <r_epik_Charging_Adjusted_Penalty>  (1) 
0

>  <r_epik_Ionization_Penalty>  (1) 
2.4984917370333966e-09

>  <r_epik_Ionization_Penalty_Charging>  (1) 
0

>  <r_epik_Ionization_Penalty_Neutral>  (1) 
2.4984917370333966e-09

>  <r_epik_State_Penalty>  (1) 
-0

>  <r_glide_ring_energy>  (1) 
0

>  <r_i_docking_score>  (1) 
-4.6058030917312891

>  <r_i_glide_ecoul>  (1) 
-2.8517951796905452

>  <r_i_glide_eff_state_penalty>  (1) 
-0

>  <r_i_glide_einternal>  (1) 
0

>  <r_i_glide_emodel>  (1) 
-20.877393160798754

>  <r_i_glide_emodel_strain>  (1) 
0

>  <r_i_glide_energy>  (1) 
-16.004968109527521

>  <r_i_glide_erotb>  (1) 
0

>  <r_i_glide_esite>  (1) 
0

>  <r_i_glide_evdw>  (1) 
-13.153172929836975

>  <r_i_glide_gscore>  (1) 
-4.6058030917312891

>  <r_i_glide_gscore_strain>  (1) 
0

>  <r_i_glide_hbond>  (1) 
-0.32000000000000001

>  <r_i_glide_ligand_efficiency>  (1) 
-0.65797187024732706

>  <r_i_glide_ligand_efficiency_ln>  (1) 
-1.563456744669645

>  <r_i_glide_ligand_efficiency_sa>  (1) 
-1.2586549079831804

>  <r_i_glide_lipo>  (1) 
-0.28370850161919203

>  <r_i_glide_metal>  (1) 
-0

>  <r_i_glide_rewards>  (1) 
-2.9166666666666665

>  <r_lp_Energy>  (1) 
11.255118999999999

>  <r_lp_tautomer_probability>  (1) 
1

>  <s_epik_cmdline>  (1) 
J2VwaWtfcHl0aG9uJywgJy1waHQnLCAnMS4wJywgJy1waCcsICc3LjQnLCAnLXRuJywgJzgnLCAnLW1hJywgJzUwMCcsICctaW1hZScsICc8aW5maWxlLm1hZT4nLCAnLW9tYWUnLCAnPG91dGZpbGUubWFlPic=

>  <s_epik_input>  (1) 
W2NIXTFbY0hdW2NIXVtjSF1vYzE9Tw==

>  <s_glide_docking_method>  (1) 
confgen

>  <s_i_glide_gridfile>  (1) 
gpcr_5ht2c_6bqh_protein_autoprepared_prepared

>  <s_lp_Force_Field>  (1) 
S-OPLS

>  <s_lp_Variant>  (1) 
Pocket2Mol_35-1

>  <s_m_source_file>  (1) 
generated_GPCR_5HT2C_ligand_Pocket2Mol_2026-06-23_prepared.sdf

>  <GenAI_Model>  (1) 
Pocket2Mol

>  <Protein>  (1) 
GPCR_5HT2C

$$$$
Pocket2Mol_6
     RDKit          3D

  0  0  0  0  0  0  0  0  0  0999 V3000
M  V30 BEGIN CTAB
M  V30 COUNTS 12 12 0 0 1
M  V30 BEGIN ATOM
M  V30 1 C 38.389334 28.878950 54.946869 0
M  V30 2 C 39.419996 28.379212 55.767754 0
M  V30 3 C 37.645258 27.998831 54.136539 0
M  V30 4 C 37.931152 26.619586 54.147747 0
M  V30 5 C 38.962325 26.119700 54.967760 0
M  V30 6 C 39.706693 26.999349 55.777880 0
M  V30 7 H 38.169151 29.936975 54.939583 0
M  V30 8 H 39.990396 29.053929 56.389184 0
M  V30 9 H 36.854859 28.381205 53.507354 0
M  V30 10 H 37.359441 25.945363 53.526554 0
M  V30 11 H 39.181907 25.061808 54.975395 0
M  V30 12 H 40.497661 26.616106 56.406926 0
M  V30 END ATOM
M  V30 BEGIN BOND
M  V30 1 1 2 1
M  V30 2 2 3 1
M  V30 3 1 4 3
M  V30 4 2 5 4
M  V30 5 2 6 2
M  V30 6 1 6 5
M  V30 7 1 7 1
M  V30 8 1 8 2
M  V30 9 1 9 3
M  V30 10 1 10 4
M  V30 11 1 11 5
M  V30 12 1 12 6
M  V30 END BOND
M  V30 END CTAB
M  END
>  <i_epik_Tot_Q>  (1) 
0

>  <i_epik_Tot_abs_Q>  (1) 
0

>  <i_i_glide_confnum>  (1) 
1

>  <i_i_glide_lignum>  (1) 
7

>  <i_i_glide_posenum>  (1) 
296

>  <i_i_glide_rotatable_bonds>  (1) 
0

>  <i_lp_mmshare_version>  (1) 
72125

>  <i_m_source_file_index>  (1) 
7

>  <i_f3d_flags>  (1) 
0

>  <num_sample>  (1) 
50

>  <b_lp_Chiralities_Consistent>  (1) 
1

>  <r_epik_Charging_Adjusted_Penalty>  (1) 
0

>  <r_epik_Ionization_Penalty>  (1) 
0

>  <r_epik_Ionization_Penalty_Charging>  (1) 
0

>  <r_epik_Ionization_Penalty_Neutral>  (1) 
0

>  <r_epik_State_Penalty>  (1) 
-0

>  <r_glide_ring_energy>  (1) 
0

>  <r_i_docking_score>  (1) 
-4.6056380637259853

>  <r_i_glide_ecoul>  (1) 
-0.31179867325798821

>  <r_i_glide_eff_state_penalty>  (1) 
-0

>  <r_i_glide_einternal>  (1) 
0

>  <r_i_glide_emodel>  (1) 
-16.264546239963011

>  <r_i_glide_emodel_strain>  (1) 
0

>  <r_i_glide_energy>  (1) 
-11.905763964138742

>  <r_i_glide_erotb>  (1) 
0

>  <r_i_glide_esite>  (1) 
0

>  <r_i_glide_evdw>  (1) 
-11.593965290880755

>  <r_i_glide_gscore>  (1) 
-4.6056380637259853

>  <r_i_glide_gscore_strain>  (1) 
0

>  <r_i_glide_hbond>  (1) 
0

>  <r_i_glide_ligand_efficiency>  (1) 
-0.76760634395433092

>  <r_i_glide_ligand_efficiency_ln>  (1) 
-1.6497259575874146

>  <r_i_glide_ligand_efficiency_sa>  (1) 
-1.3948332947880051

>  <r_i_glide_lipo>  (1) 
-1.5543885413797425

>  <r_i_glide_metal>  (1) 
-0

>  <r_i_glide_rewards>  (1) 
-2.4247814568135073

>  <r_lp_Energy>  (1) 
6.1542199999999996

>  <r_lp_tautomer_probability>  (1) 
1

>  <s_epik_cmdline>  (1) 
J2VwaWtfcHl0aG9uJywgJy1waHQnLCAnMS4wJywgJy1waCcsICc3LjQnLCAnLXRuJywgJzgnLCAnLW1hJywgJzUwMCcsICctaW1hZScsICc8aW5maWxlLm1hZT4nLCAnLW9tYWUnLCAnPG91dGZpbGUubWFlPic=

>  <s_epik_input>  (1) 
W2NIXTFbY0hdW2NIXVtjSF1bY0hdW2NIXTE=

>  <s_glide_docking_method>  (1) 
confgen

>  <s_i_glide_gridfile>  (1) 
gpcr_5ht2c_6bqh_protein_autoprepared_prepared

>  <s_lp_Force_Field>  (1) 
S-OPLS

>  <s_lp_Variant>  (1) 
Pocket2Mol_6-1

>  <s_m_source_file>  (1) 
generated_GPCR_5HT2C_ligand_Pocket2Mol_2026-06-23_prepared.sdf

>  <GenAI_Model>  (1) 
Pocket2Mol

>  <Protein>  (1) 
GPCR_5HT2C

$$$$
Pocket2Mol_11
     RDKit          3D

  0  0  0  0  0  0  0  0  0  0999 V3000
M  V30 BEGIN CTAB
M  V30 COUNTS 11 11 0 0 1
M  V30 BEGIN ATOM
M  V30 1 C 39.644739 29.622446 52.456891 0
M  V30 2 C 38.867696 29.658628 53.540977 0
M  V30 3 C 39.244430 28.498116 51.640132 0
M  V30 4 C 37.868571 28.540249 53.533262 0
M  V30 5 N 38.228065 27.897762 52.278802 0
M  V30 6 O 39.719953 28.135941 50.567573 0
M  V30 7 H 40.440639 30.313801 52.222942 0
M  V30 8 H 38.007933 27.871706 54.383418 0
M  V30 9 H 38.926680 30.386035 54.337224 0
M  V30 10 H 36.845200 28.916444 53.515135 0
M  V30 11 H 37.753611 27.078488 51.928382 0
M  V30 END ATOM
M  V30 BEGIN BOND
M  V30 1 2 2 1
M  V30 2 1 3 1
M  V30 3 1 4 2
M  V30 4 1 5 3
M  V30 5 1 5 4
M  V30 6 2 6 3
M  V30 7 1 7 1
M  V30 8 1 8 4
M  V30 9 1 9 2
M  V30 10 1 10 4
M  V30 11 1 11 5
M  V30 END BOND
M  V30 END CTAB
M  END
>  <i_epik_Tot_Q>  (1) 
0

>  <i_epik_Tot_abs_Q>  (1) 
0

>  <i_i_glide_confnum>  (1) 
1

>  <i_i_glide_lignum>  (1) 
12

>  <i_i_glide_posenum>  (1) 
289

>  <i_i_glide_rotatable_bonds>  (1) 
0

>  <i_lp_mmshare_version>  (1) 
72125

>  <i_m_source_file_index>  (1) 
12

>  <i_f3d_flags>  (1) 
0

>  <num_sample>  (1) 
50

>  <b_lp_Chiralities_Consistent>  (1) 
1

>  <r_epik_Charging_Adjusted_Penalty>  (1) 
0

>  <r_epik_Ionization_Penalty>  (1) 
3.8544596149973334e-06

>  <r_epik_Ionization_Penalty_Charging>  (1) 
0

>  <r_epik_Ionization_Penalty_Neutral>  (1) 
3.8544596149973334e-06

>  <r_epik_State_Penalty>  (1) 
-0

>  <r_glide_ring_energy>  (1) 
0

>  <r_i_docking_score>  (1) 
-4.5856516329716328

>  <r_i_glide_ecoul>  (1) 
-0.8820088805816142

>  <r_i_glide_eff_state_penalty>  (1) 
-0

>  <r_i_glide_einternal>  (1) 
0

>  <r_i_glide_emodel>  (1) 
-21.142156104154562

>  <r_i_glide_emodel_strain>  (1) 
4.8591886070425971e-10

>  <r_i_glide_energy>  (1) 
-16.286823702649553

>  <r_i_glide_erotb>  (1) 
0

>  <r_i_glide_esite>  (1) 
0

>  <r_i_glide_evdw>  (1) 
-15.404814822067939

>  <r_i_glide_gscore>  (1) 
-4.5856516329716328

>  <r_i_glide_gscore_strain>  (1) 
0

>  <r_i_glide_hbond>  (1) 
-0.10623568018822351

>  <r_i_glide_ligand_efficiency>  (1) 
-0.7642752721619388

>  <r_i_glide_ligand_efficiency_ln>  (1) 
-1.64256687709547

>  <r_i_glide_ligand_efficiency_sa>  (1) 
-1.3887803356378472

>  <r_i_glide_lipo>  (1) 
-0.87687387959276952

>  <r_i_glide_metal>  (1) 
-0

>  <r_i_glide_rewards>  (1) 
-2.7000000000000002

>  <r_lp_Energy>  (1) 
3.204942

>  <r_lp_tautomer_probability>  (1) 
1

>  <s_epik_cmdline>  (1) 
J2VwaWtfcHl0aG9uJywgJy1waHQnLCAnMS4wJywgJy1waCcsICc3LjQnLCAnLXRuJywgJzgnLCAnLW1hJywgJzUwMCcsICctaW1hZScsICc8aW5maWxlLm1hZT4nLCAnLW9tYWUnLCAnPG91dGZpbGUubWFlPic=

>  <s_epik_input>  (1) 
Tz1DMVtDSDJdW0NIXT1bQ0hdW05IXTE=

>  <s_glide_docking_method>  (1) 
confgen

>  <s_i_glide_gridfile>  (1) 
gpcr_5ht2c_6bqh_protein_autoprepared_prepared

>  <s_lp_Force_Field>  (1) 
S-OPLS

>  <s_lp_Variant>  (1) 
Pocket2Mol_11-1

>  <s_m_source_file>  (1) 
generated_GPCR_5HT2C_ligand_Pocket2Mol_2026-06-23_prepared.sdf

>  <GenAI_Model>  (1) 
Pocket2Mol

>  <Protein>  (1) 
GPCR_5HT2C

$$$$
Pocket2Mol_44
     RDKit          3D

  0  0  0  0  0  0  0  0  0  0999 V3000
M  V30 BEGIN CTAB
M  V30 COUNTS 12 11 0 0 1
M  V30 BEGIN ATOM
M  V30 1 C 40.445138 30.357786 50.167760 0
M  V30 2 O 39.968666 29.888098 51.414296 0
M  V30 3 C 39.337992 28.703164 51.483329 0
M  V30 4 C 38.719303 28.484609 52.881187 0
M  V30 5 O 39.245137 27.882930 50.567762 0
M  V30 6 O 38.845138 29.293356 53.797947 0
M  V30 7 N 38.044961 27.337754 52.967768 0
M  V30 8 H 40.835732 31.365421 50.284409 0
M  V30 9 H 41.253539 29.737753 49.788727 0
M  V30 10 H 39.645597 30.385839 49.426318 0
M  V30 11 H 37.975987 26.732598 52.159531 0
M  V30 12 H 37.595875 27.083154 53.833810 0
M  V30 END ATOM
M  V30 BEGIN BOND
M  V30 1 1 2 1
M  V30 2 1 3 2
M  V30 3 1 4 3
M  V30 4 2 5 3
M  V30 5 2 6 4
M  V30 6 1 7 4
M  V30 7 1 8 1
M  V30 8 1 9 1
M  V30 9 1 10 1
M  V30 10 1 11 7
M  V30 11 1 12 7
M  V30 END BOND
M  V30 END CTAB
M  END
>  <i_epik_Tot_Q>  (1) 
0

>  <i_epik_Tot_abs_Q>  (1) 
0

>  <i_i_glide_confnum>  (1) 
1

>  <i_i_glide_lignum>  (1) 
45

>  <i_i_glide_posenum>  (1) 
396

>  <i_i_glide_rotatable_bonds>  (1) 
2

>  <i_lp_mmshare_version>  (1) 
72125

>  <i_m_source_file_index>  (1) 
45

>  <i_f3d_flags>  (1) 
0

>  <num_sample>  (1) 
50

>  <b_lp_Chiralities_Consistent>  (1) 
1

>  <r_epik_Charging_Adjusted_Penalty>  (1) 
0

>  <r_epik_Ionization_Penalty>  (1) 
3.9236796398539443e-05

>  <r_epik_Ionization_Penalty_Charging>  (1) 
0

>  <r_epik_Ionization_Penalty_Neutral>  (1) 
3.9236796398539443e-05

>  <r_epik_State_Penalty>  (1) 
-0

>  <r_glide_ring_energy>  (1) 
0

>  <r_i_docking_score>  (1) 
-4.5766010819092902

>  <r_i_glide_ecoul>  (1) 
-0.79531876402256985

>  <r_i_glide_eff_state_penalty>  (1) 
-0

>  <r_i_glide_einternal>  (1) 
0.24841518166204057

>  <r_i_glide_emodel>  (1) 
-26.222242936735505

>  <r_i_glide_emodel_strain>  (1) 
0

>  <r_i_glide_energy>  (1) 
-20.382202143717695

>  <r_i_glide_erotb>  (1) 
0

>  <r_i_glide_esite>  (1) 
0

>  <r_i_glide_evdw>  (1) 
-19.586883379695124

>  <r_i_glide_gscore>  (1) 
-4.5766010819092902

>  <r_i_glide_gscore_strain>  (1) 
0

>  <r_i_glide_hbond>  (1) 
0

>  <r_i_glide_ligand_efficiency>  (1) 
-0.65380015455847007

>  <r_i_glide_ligand_efficiency_ln>  (1) 
-1.553544015379051

>  <r_i_glide_ligand_efficiency_sa>  (1) 
-1.250674702956305

>  <r_i_glide_lipo>  (1) 
-0.33000000000000002

>  <r_i_glide_metal>  (1) 
-0

>  <r_i_glide_rewards>  (1) 
-3.1479590983211492

>  <r_lp_Energy>  (1) 
8.3220650000000003

>  <r_lp_tautomer_probability>  (1) 
1

>  <s_epik_Chemistry_Notes>  (1) 
This compound has an ester and may undergo hydrolysis at high or low pH.

>  <s_epik_cmdline>  (1) 
J2VwaWtfcHl0aG9uJywgJy1waHQnLCAnMS4wJywgJy1waCcsICc3LjQnLCAnLXRuJywgJzgnLCAnLW1hJywgJzUwMCcsICctaW1hZScsICc8aW5maWxlLm1hZT4nLCAnLW9tYWUnLCAnPG91dGZpbGUubWFlPic=

>  <s_epik_input>  (1) 
W0NIM11PQyg9TylDKD1PKVtOSDJd

>  <s_glide_docking_method>  (1) 
confgen

>  <s_i_glide_gridfile>  (1) 
gpcr_5ht2c_6bqh_protein_autoprepared_prepared

>  <s_lp_Force_Field>  (1) 
S-OPLS

>  <s_lp_Variant>  (1) 
Pocket2Mol_44-1

>  <s_m_source_file>  (1) 
generated_GPCR_5HT2C_ligand_Pocket2Mol_2026-06-23_prepared.sdf

>  <GenAI_Model>  (1) 
Pocket2Mol

>  <Protein>  (1) 
GPCR_5HT2C

$$$$
Pocket2Mol_11
     RDKit          3D

  0  0  0  0  0  0  0  0  0  0999 V3000
M  V30 BEGIN CTAB
M  V30 COUNTS 11 11 0 0 1
M  V30 BEGIN ATOM
M  V30 1 C 39.245212 27.941978 50.985751 0
M  V30 2 C 38.700222 27.758779 52.161561 0
M  V30 3 C 39.849162 29.202072 50.955895 0
M  V30 4 C 38.850985 28.903231 53.157181 0
M  V30 5 N 39.644985 29.737758 52.172420 0
M  V30 6 O 40.445219 29.737925 50.026751 0
M  V30 7 H 39.229584 27.236867 50.168079 0
M  V30 8 H 37.894836 29.355151 53.422436 0
M  V30 9 H 38.166810 26.861385 52.437034 0
M  V30 10 H 39.422479 28.622998 54.041840 0
M  V30 11 H 39.981104 30.656925 52.421794 0
M  V30 END ATOM
M  V30 BEGIN BOND
M  V30 1 2 2 1
M  V30 2 1 3 1
M  V30 3 1 4 2
M  V30 4 1 5 3
M  V30 5 1 5 4
M  V30 6 2 6 3
M  V30 7 1 7 1
M  V30 8 1 8 4
M  V30 9 1 9 2
M  V30 10 1 10 4
M  V30 11 1 11 5
M  V30 END BOND
M  V30 END CTAB
M  END
>  <i_epik_Tot_Q>  (1) 
0

>  <i_epik_Tot_abs_Q>  (1) 
0

>  <i_i_glide_confnum>  (1) 
1

>  <i_i_glide_lignum>  (1) 
12

>  <i_i_glide_posenum>  (1) 
205

>  <i_i_glide_rotatable_bonds>  (1) 
0

>  <i_lp_mmshare_version>  (1) 
72125

>  <i_m_source_file_index>  (1) 
12

>  <i_f3d_flags>  (1) 
0

>  <num_sample>  (1) 
50

>  <b_lp_Chiralities_Consistent>  (1) 
1

>  <r_epik_Charging_Adjusted_Penalty>  (1) 
0

>  <r_epik_Ionization_Penalty>  (1) 
3.8544596149973334e-06

>  <r_epik_Ionization_Penalty_Charging>  (1) 
0

>  <r_epik_Ionization_Penalty_Neutral>  (1) 
3.8544596149973334e-06

>  <r_epik_State_Penalty>  (1) 
-0

>  <r_glide_ring_energy>  (1) 
0

>  <r_i_docking_score>  (1) 
-4.5681888762405558

>  <r_i_glide_ecoul>  (1) 
-0.52428652447325308

>  <r_i_glide_eff_state_penalty>  (1) 
-0

>  <r_i_glide_einternal>  (1) 
0

>  <r_i_glide_emodel>  (1) 
-22.419570728796149

>  <r_i_glide_emodel_strain>  (1) 
0

>  <r_i_glide_energy>  (1) 
-17.582728062914882

>  <r_i_glide_erotb>  (1) 
0

>  <r_i_glide_esite>  (1) 
0

>  <r_i_glide_evdw>  (1) 
-17.058441538441627

>  <r_i_glide_gscore>  (1) 
-4.5681888762405558

>  <r_i_glide_gscore_strain>  (1) 
0

>  <r_i_glide_hbond>  (1) 
0

>  <r_i_glide_ligand_efficiency>  (1) 
-0.76136481270675926

>  <r_i_glide_ligand_efficiency_ln>  (1) 
-1.6363117691882312

>  <r_i_glide_ligand_efficiency_sa>  (1) 
-1.3834916798272376

>  <r_i_glide_lipo>  (1) 
-0.93662382064748595

>  <r_i_glide_metal>  (1) 
-0

>  <r_i_glide_rewards>  (1) 
-2.7000000000000002

>  <r_lp_Energy>  (1) 
3.204942

>  <r_lp_tautomer_probability>  (1) 
1

>  <s_epik_cmdline>  (1) 
J2VwaWtfcHl0aG9uJywgJy1waHQnLCAnMS4wJywgJy1waCcsICc3LjQnLCAnLXRuJywgJzgnLCAnLW1hJywgJzUwMCcsICctaW1hZScsICc8aW5maWxlLm1hZT4nLCAnLW9tYWUnLCAnPG91dGZpbGUubWFlPic=

>  <s_epik_input>  (1) 
Tz1DMVtDSDJdW0NIXT1bQ0hdW05IXTE=

>  <s_glide_docking_method>  (1) 
confgen

>  <s_i_glide_gridfile>  (1) 
gpcr_5ht2c_6bqh_protein_autoprepared_prepared

>  <s_lp_Force_Field>  (1) 
S-OPLS

>  <s_lp_Variant>  (1) 
Pocket2Mol_11-1

>  <s_m_source_file>  (1) 
generated_GPCR_5HT2C_ligand_Pocket2Mol_2026-06-23_prepared.sdf

>  <GenAI_Model>  (1) 
Pocket2Mol

>  <Protein>  (1) 
GPCR_5HT2C

$$$$
Pocket2Mol_11
     RDKit          3D

  0  0  0  0  0  0  0  0  0  0999 V3000
M  V30 BEGIN CTAB
M  V30 COUNTS 11 11 0 0 1
M  V30 BEGIN ATOM
M  V30 1 C 39.645986 29.815670 52.232995 0
M  V30 2 C 38.912836 28.844980 52.714557 0
M  V30 3 C 40.045146 29.482995 50.935847 0
M  V30 4 C 38.691234 27.653245 51.792185 0
M  V30 5 N 39.514079 28.272705 50.685857 0
M  V30 6 O 40.736593 30.137762 50.161106 0
M  V30 7 H 39.901315 30.729426 52.750155 0
M  V30 8 H 39.125999 26.730553 52.177476 0
M  V30 9 H 38.478788 28.860786 53.703765 0
M  V30 10 H 37.645201 27.527472 51.516700 0
M  V30 11 H 39.644925 27.795478 49.806465 0
M  V30 END ATOM
M  V30 BEGIN BOND
M  V30 1 2 2 1
M  V30 2 1 3 1
M  V30 3 1 4 2
M  V30 4 1 5 3
M  V30 5 1 5 4
M  V30 6 2 6 3
M  V30 7 1 7 1
M  V30 8 1 8 4
M  V30 9 1 9 2
M  V30 10 1 10 4
M  V30 11 1 11 5
M  V30 END BOND
M  V30 END CTAB
M  END
>  <i_epik_Tot_Q>  (1) 
0

>  <i_epik_Tot_abs_Q>  (1) 
0

>  <i_i_glide_confnum>  (1) 
1

>  <i_i_glide_lignum>  (1) 
12

>  <i_i_glide_posenum>  (1) 
248

>  <i_i_glide_rotatable_bonds>  (1) 
0

>  <i_lp_mmshare_version>  (1) 
72125

>  <i_m_source_file_index>  (1) 
12

>  <i_f3d_flags>  (1) 
0

>  <num_sample>  (1) 
50

>  <b_lp_Chiralities_Consistent>  (1) 
1

>  <r_epik_Charging_Adjusted_Penalty>  (1) 
0

>  <r_epik_Ionization_Penalty>  (1) 
3.8544596149973334e-06

>  <r_epik_Ionization_Penalty_Charging>  (1) 
0

>  <r_epik_Ionization_Penalty_Neutral>  (1) 
3.8544596149973334e-06

>  <r_epik_State_Penalty>  (1) 
-0

>  <r_glide_ring_energy>  (1) 
0

>  <r_i_docking_score>  (1) 
-4.5673055928832378

>  <r_i_glide_ecoul>  (1) 
-0.33418711692342185

>  <r_i_glide_eff_state_penalty>  (1) 
-0

>  <r_i_glide_einternal>  (1) 
0

>  <r_i_glide_emodel>  (1) 
-22.167111660953218

>  <r_i_glide_emodel_strain>  (1) 
0

>  <r_i_glide_energy>  (1) 
-17.33120422405317

>  <r_i_glide_erotb>  (1) 
0

>  <r_i_glide_esite>  (1) 
0

>  <r_i_glide_evdw>  (1) 
-16.99701710712975

>  <r_i_glide_gscore>  (1) 
-4.5673055928832378

>  <r_i_glide_gscore_strain>  (1) 
0

>  <r_i_glide_hbond>  (1) 
0

>  <r_i_glide_ligand_efficiency>  (1) 
-0.76121759881387296

>  <r_i_glide_ligand_efficiency_ln>  (1) 
-1.6359953796972833

>  <r_i_glide_ligand_efficiency_sa>  (1) 
-1.3832241744309228

>  <r_i_glide_lipo>  (1) 
-0.96732666998823746

>  <r_i_glide_metal>  (1) 
-0

>  <r_i_glide_rewards>  (1) 
-2.7000000000000002

>  <r_lp_Energy>  (1) 
3.204942

>  <r_lp_tautomer_probability>  (1) 
1

>  <s_epik_cmdline>  (1) 
J2VwaWtfcHl0aG9uJywgJy1waHQnLCAnMS4wJywgJy1waCcsICc3LjQnLCAnLXRuJywgJzgnLCAnLW1hJywgJzUwMCcsICctaW1hZScsICc8aW5maWxlLm1hZT4nLCAnLW9tYWUnLCAnPG91dGZpbGUubWFlPic=

>  <s_epik_input>  (1) 
Tz1DMVtDSDJdW0NIXT1bQ0hdW05IXTE=

>  <s_glide_docking_method>  (1) 
confgen

>  <s_i_glide_gridfile>  (1) 
gpcr_5ht2c_6bqh_protein_autoprepared_prepared

>  <s_lp_Force_Field>  (1) 
S-OPLS

>  <s_lp_Variant>  (1) 
Pocket2Mol_11-1

>  <s_m_source_file>  (1) 
generated_GPCR_5HT2C_ligand_Pocket2Mol_2026-06-23_prepared.sdf

>  <GenAI_Model>  (1) 
Pocket2Mol

>  <Protein>  (1) 
GPCR_5HT2C

$$$$
Pocket2Mol_3
     RDKit          3D

  0  0  0  0  0  0  0  0  0  0999 V3000
M  V30 BEGIN CTAB
M  V30 COUNTS 12 12 0 0 1
M  V30 BEGIN ATOM
M  V30 1 C 39.956442 29.146711 51.334256 0
M  V30 2 C 39.294641 28.082222 51.054840 0
M  V30 3 C 39.603296 29.773288 52.668906 0
M  V30 4 C 38.418176 28.699555 53.112826 0
M  V30 5 N 38.443564 27.737751 51.995182 0
M  V30 6 H 39.349844 27.469994 50.167764 0
M  V30 7 H 40.445113 29.770845 53.353892 0
M  V30 8 H 39.245139 30.795399 52.561134 0
M  V30 9 H 38.649761 28.206610 54.057424 0
M  V30 10 H 37.440470 29.174779 53.191778 0
M  V30 11 H 40.698180 29.589822 50.685764 0
M  V30 12 H 37.676059 27.093929 51.836470 0
M  V30 END ATOM
M  V30 BEGIN BOND
M  V30 1 2 2 1
M  V30 2 1 3 1
M  V30 3 1 4 3
M  V30 4 1 5 2
M  V30 5 1 5 4
M  V30 6 1 6 2
M  V30 7 1 7 3
M  V30 8 1 8 3
M  V30 9 1 9 4
M  V30 10 1 10 4
M  V30 11 1 11 1
M  V30 12 1 12 5
M  V30 END BOND
M  V30 END CTAB
M  END
>  <i_epik_Tot_Q>  (1) 
0

>  <i_epik_Tot_abs_Q>  (1) 
0

>  <i_i_glide_confnum>  (1) 
1

>  <i_i_glide_lignum>  (1) 
4

>  <i_i_glide_posenum>  (1) 
353

>  <i_i_glide_rotatable_bonds>  (1) 
0

>  <i_lp_mmshare_version>  (1) 
72125

>  <i_m_source_file_index>  (1) 
4

>  <i_f3d_flags>  (1) 
0

>  <num_sample>  (1) 
50

>  <b_lp_Chiralities_Consistent>  (1) 
1

>  <r_epik_Charging_Adjusted_Penalty>  (1) 
1.6042444336516156e-06

>  <r_epik_Ionization_Penalty>  (1) 
0.0023556498582944039

>  <r_epik_Ionization_Penalty_Charging>  (1) 
1.6042444336516156e-06

>  <r_epik_Ionization_Penalty_Neutral>  (1) 
0.0023540456138607521

>  <r_epik_State_Penalty>  (1) 
-0

>  <r_glide_ring_energy>  (1) 
0

>  <r_i_docking_score>  (1) 
-4.5669752642061407

>  <r_i_glide_ecoul>  (1) 
-1.4684530382612255

>  <r_i_glide_eff_state_penalty>  (1) 
-0

>  <r_i_glide_einternal>  (1) 
0

>  <r_i_glide_emodel>  (1) 
-17.923384591835788

>  <r_i_glide_emodel_strain>  (1) 
0

>  <r_i_glide_energy>  (1) 
-13.901681777921297

>  <r_i_glide_erotb>  (1) 
0

>  <r_i_glide_esite>  (1) 
0

>  <r_i_glide_evdw>  (1) 
-12.433228739660072

>  <r_i_glide_gscore>  (1) 
-4.5669752642061407

>  <r_i_glide_gscore_strain>  (1) 
0

>  <r_i_glide_hbond>  (1) 
-0.1896550719903396

>  <r_i_glide_ligand_efficiency>  (1) 
-0.91339505284122813

>  <r_i_glide_ligand_efficiency_ln>  (1) 
-1.7501758683141215

>  <r_i_glide_ligand_efficiency_sa>  (1) 
-1.5618835701719909

>  <r_i_glide_lipo>  (1) 
-1.2853907994936133

>  <r_i_glide_metal>  (1) 
-0

>  <r_i_glide_rewards>  (1) 
-2.25

>  <r_lp_Energy>  (1) 
2.9163319999999997

>  <r_lp_tautomer_probability>  (1) 
1

>  <s_epik_Chemistry_Notes>  (1) 
This compound has an imine and may undergo hydrolysis.

>  <s_epik_cmdline>  (1) 
J2VwaWtfcHl0aG9uJywgJy1waHQnLCAnMS4wJywgJy1waCcsICc3LjQnLCAnLXRuJywgJzgnLCAnLW1hJywgJzUwMCcsICctaW1hZScsICc8aW5maWxlLm1hZT4nLCAnLW9tYWUnLCAnPG91dGZpbGUubWFlPic=

>  <s_epik_input>  (1) 
W0NIMl0xW0NIXT1OW0NIMl1bQ0gyXTE=

>  <s_glide_docking_method>  (1) 
confgen

>  <s_i_glide_gridfile>  (1) 
gpcr_5ht2c_6bqh_protein_autoprepared_prepared

>  <s_lp_Force_Field>  (1) 
S-OPLS

>  <s_lp_Variant>  (1) 
Pocket2Mol_3-1

>  <s_m_source_file>  (1) 
generated_GPCR_5HT2C_ligand_Pocket2Mol_2026-06-23_prepared.sdf

>  <GenAI_Model>  (1) 
Pocket2Mol

>  <Protein>  (1) 
GPCR_5HT2C

$$$$
Pocket2Mol_44
     RDKit          3D

  0  0  0  0  0  0  0  0  0  0999 V3000
M  V30 BEGIN CTAB
M  V30 COUNTS 12 11 0 0 1
M  V30 BEGIN ATOM
M  V30 1 C 40.972751 30.537755 50.167818 0
M  V30 2 O 40.236229 29.404173 50.590568 0
M  V30 3 C 39.645142 29.413695 51.797014 0
M  V30 4 C 38.809676 28.137757 52.014444 0
M  V30 5 O 39.746486 30.301908 52.646903 0
M  V30 6 O 38.176770 27.912299 53.044102 0
M  V30 7 N 38.845145 27.310003 50.968039 0
M  V30 8 H 41.381079 30.364179 49.172287 0
M  V30 9 H 40.335341 31.421824 50.125157 0
M  V30 10 H 41.802851 30.737669 50.846507 0
M  V30 11 H 39.399247 27.559719 50.161659 0
M  V30 12 H 38.333447 26.441480 50.998749 0
M  V30 END ATOM
M  V30 BEGIN BOND
M  V30 1 1 2 1
M  V30 2 1 3 2
M  V30 3 1 4 3
M  V30 4 2 5 3
M  V30 5 2 6 4
M  V30 6 1 7 4
M  V30 7 1 8 1
M  V30 8 1 9 1
M  V30 9 1 10 1
M  V30 10 1 11 7
M  V30 11 1 12 7
M  V30 END BOND
M  V30 END CTAB
M  END
>  <i_epik_Tot_Q>  (1) 
0

>  <i_epik_Tot_abs_Q>  (1) 
0

>  <i_i_glide_confnum>  (1) 
1

>  <i_i_glide_lignum>  (1) 
45

>  <i_i_glide_posenum>  (1) 
333

>  <i_i_glide_rotatable_bonds>  (1) 
2

>  <i_lp_mmshare_version>  (1) 
72125

>  <i_m_source_file_index>  (1) 
45

>  <i_f3d_flags>  (1) 
0

>  <num_sample>  (1) 
50

>  <b_lp_Chiralities_Consistent>  (1) 
1

>  <r_epik_Charging_Adjusted_Penalty>  (1) 
0

>  <r_epik_Ionization_Penalty>  (1) 
3.9236796398539443e-05

>  <r_epik_Ionization_Penalty_Charging>  (1) 
0

>  <r_epik_Ionization_Penalty_Neutral>  (1) 
3.9236796398539443e-05

>  <r_epik_State_Penalty>  (1) 
-0

>  <r_glide_ring_energy>  (1) 
0

>  <r_i_docking_score>  (1) 
-4.5573311506622396

>  <r_i_glide_ecoul>  (1) 
-1.168828830393267

>  <r_i_glide_eff_state_penalty>  (1) 
-0

>  <r_i_glide_einternal>  (1) 
1.6095228368254801

>  <r_i_glide_emodel>  (1) 
-25.086377660007621

>  <r_i_glide_emodel_strain>  (1) 
2.9888530761468246e-08

>  <r_i_glide_energy>  (1) 
-19.952003390877813

>  <r_i_glide_erotb>  (1) 
0

>  <r_i_glide_esite>  (1) 
0

>  <r_i_glide_evdw>  (1) 
-18.783174560484547

>  <r_i_glide_gscore>  (1) 
-4.5573311506622396

>  <r_i_glide_gscore_strain>  (1) 
0

>  <r_i_glide_hbond>  (1) 
0

>  <r_i_glide_ligand_efficiency>  (1) 
-0.65104730723746285

>  <r_i_glide_ligand_efficiency_ln>  (1) 
-1.5470027665723858

>  <r_i_glide_ligand_efficiency_sa>  (1) 
-1.2454086954745387

>  <r_i_glide_lipo>  (1) 
-0.29312207902754933

>  <r_i_glide_metal>  (1) 
-0

>  <r_i_glide_rewards>  (1) 
-3.1497260190514726

>  <r_lp_Energy>  (1) 
8.3220650000000003

>  <r_lp_tautomer_probability>  (1) 
1

>  <s_epik_Chemistry_Notes>  (1) 
This compound has an ester and may undergo hydrolysis at high or low pH.

>  <s_epik_cmdline>  (1) 
J2VwaWtfcHl0aG9uJywgJy1waHQnLCAnMS4wJywgJy1waCcsICc3LjQnLCAnLXRuJywgJzgnLCAnLW1hJywgJzUwMCcsICctaW1hZScsICc8aW5maWxlLm1hZT4nLCAnLW9tYWUnLCAnPG91dGZpbGUubWFlPic=

>  <s_epik_input>  (1) 
W0NIM11PQyg9TylDKD1PKVtOSDJd

>  <s_glide_docking_method>  (1) 
confgen

>  <s_i_glide_gridfile>  (1) 
gpcr_5ht2c_6bqh_protein_autoprepared_prepared

>  <s_lp_Force_Field>  (1) 
S-OPLS

>  <s_lp_Variant>  (1) 
Pocket2Mol_44-1

>  <s_m_source_file>  (1) 
generated_GPCR_5HT2C_ligand_Pocket2Mol_2026-06-23_prepared.sdf

>  <GenAI_Model>  (1) 
Pocket2Mol

>  <Protein>  (1) 
GPCR_5HT2C

$$$$
Pocket2Mol_7
     RDKit          3D

  0  0  0  0  0  0  0  0  0  0999 V3000
M  V30 BEGIN CTAB
M  V30 COUNTS 11 11 0 0 1
M  V30 BEGIN ATOM
M  V30 1 C 38.989050 28.718490 52.658703 0
M  V30 2 C 38.832808 27.516477 51.737284 0
M  V30 3 C 39.645137 29.737861 52.167452 0
M  V30 4 C 40.045149 29.435472 50.863635 0
M  V30 5 N 39.595874 28.190813 50.620162 0
M  V30 6 O 40.677217 30.137754 50.079428 0
M  V30 7 H 38.571975 28.702661 53.655065 0
M  V30 8 H 39.747194 27.722755 49.739311 0
M  V30 9 H 39.326218 26.619961 52.113087 0
M  V30 10 H 39.845800 30.666097 52.682578 0
M  V30 11 H 37.790305 27.336591 51.479155 0
M  V30 END ATOM
M  V30 BEGIN BOND
M  V30 1 1 2 1
M  V30 2 2 3 1
M  V30 3 1 4 3
M  V30 4 1 5 2
M  V30 5 1 5 4
M  V30 6 2 6 4
M  V30 7 1 7 1
M  V30 8 1 8 5
M  V30 9 1 9 2
M  V30 10 1 10 3
M  V30 11 1 11 2
M  V30 END BOND
M  V30 END CTAB
M  END
>  <i_epik_Tot_Q>  (1) 
0

>  <i_epik_Tot_abs_Q>  (1) 
0

>  <i_i_glide_confnum>  (1) 
1

>  <i_i_glide_lignum>  (1) 
8

>  <i_i_glide_posenum>  (1) 
152

>  <i_i_glide_rotatable_bonds>  (1) 
0

>  <i_lp_mmshare_version>  (1) 
72125

>  <i_m_source_file_index>  (1) 
8

>  <i_f3d_flags>  (1) 
0

>  <num_sample>  (1) 
50

>  <b_lp_Chiralities_Consistent>  (1) 
1

>  <r_epik_Charging_Adjusted_Penalty>  (1) 
0

>  <r_epik_Ionization_Penalty>  (1) 
3.8544596149973334e-06

>  <r_epik_Ionization_Penalty_Charging>  (1) 
0

>  <r_epik_Ionization_Penalty_Neutral>  (1) 
3.8544596149973334e-06

>  <r_epik_State_Penalty>  (1) 
-0

>  <r_glide_ring_energy>  (1) 
0

>  <r_i_docking_score>  (1) 
-4.5480331719772282

>  <r_i_glide_ecoul>  (1) 
-0.26371484531139933

>  <r_i_glide_eff_state_penalty>  (1) 
-0

>  <r_i_glide_einternal>  (1) 
0

>  <r_i_glide_emodel>  (1) 
-22.231292625157295

>  <r_i_glide_emodel_strain>  (1) 
0

>  <r_i_glide_energy>  (1) 
-17.416667684146908

>  <r_i_glide_erotb>  (1) 
0

>  <r_i_glide_esite>  (1) 
0

>  <r_i_glide_evdw>  (1) 
-17.15295283883551

>  <r_i_glide_gscore>  (1) 
-4.5480331719772282

>  <r_i_glide_gscore_strain>  (1) 
0

>  <r_i_glide_hbond>  (1) 
0

>  <r_i_glide_ligand_efficiency>  (1) 
-0.75800552866287141

>  <r_i_glide_ligand_efficiency_ln>  (1) 
-1.6290920554251036

>  <r_i_glide_ligand_efficiency_sa>  (1) 
-1.3773874556139165

>  <r_i_glide_lipo>  (1) 
-0.95082830323874279

>  <r_i_glide_metal>  (1) 
-0

>  <r_i_glide_rewards>  (1) 
-2.7000000000000002

>  <r_lp_Energy>  (1) 
3.2049569999999998

>  <r_lp_tautomer_probability>  (1) 
1

>  <s_epik_cmdline>  (1) 
J2VwaWtfcHl0aG9uJywgJy1waHQnLCAnMS4wJywgJy1waCcsICc3LjQnLCAnLXRuJywgJzgnLCAnLW1hJywgJzUwMCcsICctaW1hZScsICc8aW5maWxlLm1hZT4nLCAnLW9tYWUnLCAnPG91dGZpbGUubWFlPic=

>  <s_epik_input>  (1) 
TjE9W0NIXVtDSDJdW0NIMl1DMT1P

>  <s_glide_docking_method>  (1) 
confgen

>  <s_i_glide_gridfile>  (1) 
gpcr_5ht2c_6bqh_protein_autoprepared_prepared

>  <s_lp_Force_Field>  (1) 
S-OPLS

>  <s_lp_Variant>  (1) 
Pocket2Mol_7-1

>  <s_m_source_file>  (1) 
generated_GPCR_5HT2C_ligand_Pocket2Mol_2026-06-23_prepared.sdf

>  <GenAI_Model>  (1) 
Pocket2Mol

>  <Protein>  (1) 
GPCR_5HT2C

$$$$
Pocket2Mol_13
     RDKit          3D

  0  0  0  0  0  0  0  0  0  0999 V3000
M  V30 BEGIN CTAB
M  V30 COUNTS 12 12 0 0 1
M  V30 BEGIN ATOM
M  V30 1 C 37.036874 33.736967 58.947656 0
M  V30 2 O 37.409518 32.754091 59.899724 0
M  V30 3 C 35.618044 34.145044 59.367396 0
M  V30 4 C 36.355009 32.254599 60.530077 0
M  V30 5 C 35.068412 32.931797 60.107441 0
M  V30 6 O 36.384975 31.355582 61.367758 0
M  V30 7 H 37.725682 34.580055 58.951887 0
M  V30 8 H 37.036999 33.293191 57.951333 0
M  V30 9 H 35.663653 34.995178 60.048234 0
M  V30 10 H 35.002244 34.431286 58.513788 0
M  V30 11 H 34.511217 32.273271 59.439640 0
M  V30 12 H 34.444821 33.204570 60.959139 0
M  V30 END ATOM
M  V30 BEGIN BOND
M  V30 1 1 2 1
M  V30 2 1 3 1
M  V30 3 1 4 2
M  V30 4 1 5 3
M  V30 5 1 5 4
M  V30 6 2 6 4
M  V30 7 1 7 1
M  V30 8 1 8 1
M  V30 9 1 9 3
M  V30 10 1 10 3
M  V30 11 1 11 5
M  V30 12 1 12 5
M  V30 END BOND
M  V30 END CTAB
M  END
>  <i_epik_Tot_Q>  (1) 
0

>  <i_epik_Tot_abs_Q>  (1) 
0

>  <i_i_glide_confnum>  (1) 
1

>  <i_i_glide_lignum>  (1) 
14

>  <i_i_glide_posenum>  (1) 
96

>  <i_i_glide_rotatable_bonds>  (1) 
0

>  <i_lp_mmshare_version>  (1) 
72125

>  <i_m_source_file_index>  (1) 
14

>  <i_f3d_flags>  (1) 
0

>  <num_sample>  (1) 
50

>  <b_lp_Chiralities_Consistent>  (1) 
1

>  <r_epik_Charging_Adjusted_Penalty>  (1) 
0

>  <r_epik_Ionization_Penalty>  (1) 
0

>  <r_epik_Ionization_Penalty_Charging>  (1) 
0

>  <r_epik_Ionization_Penalty_Neutral>  (1) 
0

>  <r_epik_State_Penalty>  (1) 
-0

>  <r_glide_ring_energy>  (1) 
0

>  <r_i_docking_score>  (1) 
-4.5444265315134746

>  <r_i_glide_ecoul>  (1) 
-3.8942474167650984

>  <r_i_glide_eff_state_penalty>  (1) 
-0

>  <r_i_glide_einternal>  (1) 
0

>  <r_i_glide_emodel>  (1) 
-20.030226129576306

>  <r_i_glide_emodel_strain>  (1) 
0

>  <r_i_glide_energy>  (1) 
-15.363817125183672

>  <r_i_glide_erotb>  (1) 
0

>  <r_i_glide_esite>  (1) 
-0.045226400068770593

>  <r_i_glide_evdw>  (1) 
-11.469569708418573

>  <r_i_glide_gscore>  (1) 
-4.5444265315134746

>  <r_i_glide_gscore_strain>  (1) 
0

>  <r_i_glide_hbond>  (1) 
-0.32000000000000001

>  <r_i_glide_ligand_efficiency>  (1) 
-0.75740442191891244

>  <r_i_glide_ligand_efficiency_ln>  (1) 
-1.6278001674585694

>  <r_i_glide_ligand_efficiency_sa>  (1) 
-1.3762951721709784

>  <r_i_glide_lipo>  (1) 
-0.058275073474797545

>  <r_i_glide_metal>  (1) 
-0

>  <r_i_glide_rewards>  (1) 
-2.9633094600342131

>  <r_lp_Energy>  (1) 
-1.1766760000000001

>  <r_lp_tautomer_probability>  (1) 
1

>  <s_epik_Chemistry_Notes>  (1) 
This compound has an ester and may undergo hydrolysis at high or low pH.

>  <s_epik_cmdline>  (1) 
J2VwaWtfcHl0aG9uJywgJy1waHQnLCAnMS4wJywgJy1waCcsICc3LjQnLCAnLXRuJywgJzgnLCAnLW1hJywgJzUwMCcsICctaW1hZScsICc8aW5maWxlLm1hZT4nLCAnLW9tYWUnLCAnPG91dGZpbGUubWFlPic=

>  <s_epik_input>  (1) 
W0NIMl0xW0NIMl1bQ0gyXU9DMT1P

>  <s_glide_docking_method>  (1) 
confgen

>  <s_i_glide_gridfile>  (1) 
gpcr_5ht2c_6bqh_protein_autoprepared_prepared

>  <s_lp_Force_Field>  (1) 
S-OPLS

>  <s_lp_Variant>  (1) 
Pocket2Mol_13-1

>  <s_m_source_file>  (1) 
generated_GPCR_5HT2C_ligand_Pocket2Mol_2026-06-23_prepared.sdf

>  <GenAI_Model>  (1) 
Pocket2Mol

>  <Protein>  (1) 
GPCR_5HT2C

$$$$
Pocket2Mol_16
     RDKit          3D

  0  0  0  0  0  0  0  0  0  0999 V3000
M  V30 BEGIN CTAB
M  V30 COUNTS 18 18 0 0 1
M  V30 BEGIN ATOM
M  V30 1 C 38.845682 27.355319 52.844752 0
M  V30 2 C 38.105384 26.881209 54.105446 0
M  V30 3 C 38.445137 27.766547 55.315538 0
M  V30 4 C 38.555172 28.834804 52.555060 0
M  V30 5 C 38.131393 29.243988 55.025667 0
M  V30 6 C 38.867952 29.729938 53.767716 0
M  V30 7 H 39.917723 27.202515 52.967759 0
M  V30 8 H 38.549001 26.754031 51.986313 0
M  V30 9 H 37.030030 26.906352 53.925171 0
M  V30 10 H 38.359329 25.842353 54.318369 0
M  V30 11 H 37.885398 27.432457 56.189673 0
M  V30 12 H 39.501505 27.657620 55.564966 0
M  V30 13 H 39.128834 29.165306 51.688434 0
M  V30 14 H 37.503837 28.937754 52.285197 0
M  V30 15 H 38.409092 29.860356 55.881371 0
M  V30 16 H 37.056282 29.373154 54.892463 0
M  V30 17 H 39.942573 29.737755 53.953058 0
M  V30 18 H 38.589968 30.762153 53.552874 0
M  V30 END ATOM
M  V30 BEGIN BOND
M  V30 1 1 2 1
M  V30 2 1 3 2
M  V30 3 1 4 1
M  V30 4 1 5 3
M  V30 5 1 6 4
M  V30 6 1 6 5
M  V30 7 1 7 1
M  V30 8 1 8 1
M  V30 9 1 9 2
M  V30 10 1 10 2
M  V30 11 1 11 3
M  V30 12 1 12 3
M  V30 13 1 13 4
M  V30 14 1 14 4
M  V30 15 1 15 5
M  V30 16 1 16 5
M  V30 17 1 17 6
M  V30 18 1 18 6
M  V30 END BOND
M  V30 END CTAB
M  END
>  <i_epik_Tot_Q>  (1) 
0

>  <i_epik_Tot_abs_Q>  (1) 
0

>  <i_i_glide_confnum>  (1) 
2

>  <i_i_glide_lignum>  (1) 
17

>  <i_i_glide_posenum>  (1) 
305

>  <i_i_glide_rotatable_bonds>  (1) 
0

>  <i_lp_mmshare_version>  (1) 
72125

>  <i_m_source_file_index>  (1) 
17

>  <i_f3d_flags>  (1) 
0

>  <num_sample>  (1) 
50

>  <b_lp_Chiralities_Consistent>  (1) 
1

>  <r_epik_Charging_Adjusted_Penalty>  (1) 
0

>  <r_epik_Ionization_Penalty>  (1) 
0

>  <r_epik_Ionization_Penalty_Charging>  (1) 
0

>  <r_epik_Ionization_Penalty_Neutral>  (1) 
0

>  <r_epik_State_Penalty>  (1) 
-0

>  <r_glide_ring_energy>  (1) 
0.00054248204421707515

>  <r_i_docking_score>  (1) 
-4.536270325512513

>  <r_i_glide_ecoul>  (1) 
0.076397880368984539

>  <r_i_glide_eff_state_penalty>  (1) 
-0

>  <r_i_glide_einternal>  (1) 
0

>  <r_i_glide_emodel>  (1) 
-16.928206906750596

>  <r_i_glide_emodel_strain>  (1) 
5.4387712111747533e-09

>  <r_i_glide_energy>  (1) 
-13.089519670754274

>  <r_i_glide_erotb>  (1) 
0

>  <r_i_glide_esite>  (1) 
0

>  <r_i_glide_evdw>  (1) 
-13.165917551123259

>  <r_i_glide_gscore>  (1) 
-4.536270325512513

>  <r_i_glide_gscore_strain>  (1) 
0

>  <r_i_glide_hbond>  (1) 
0

>  <r_i_glide_ligand_efficiency>  (1) 
-0.75604505425208546

>  <r_i_glide_ligand_efficiency_ln>  (1) 
-1.6248786385479084

>  <r_i_glide_ligand_efficiency_sa>  (1) 
-1.3738250371903569

>  <r_i_glide_lipo>  (1) 
-1.492850262770052

>  <r_i_glide_metal>  (1) 
-0

>  <r_i_glide_rewards>  (1) 
-2.3965838672416453

>  <r_lp_Energy>  (1) 
5.7175969999999996

>  <r_lp_tautomer_probability>  (1) 
1

>  <s_epik_cmdline>  (1) 
J2VwaWtfcHl0aG9uJywgJy1waHQnLCAnMS4wJywgJy1waCcsICc3LjQnLCAnLXRuJywgJzgnLCAnLW1hJywgJzUwMCcsICctaW1hZScsICc8aW5maWxlLm1hZT4nLCAnLW9tYWUnLCAnPG91dGZpbGUubWFlPic=

>  <s_epik_input>  (1) 
W0NIMl0xW0NIMl1bQ0gyXVtDSDJdW0NIMl1bQ0gyXTE=

>  <s_glide_docking_method>  (1) 
confgen

>  <s_i_glide_gridfile>  (1) 
gpcr_5ht2c_6bqh_protein_autoprepared_prepared

>  <s_lp_Force_Field>  (1) 
S-OPLS

>  <s_lp_Variant>  (1) 
Pocket2Mol_16-1

>  <s_m_source_file>  (1) 
generated_GPCR_5HT2C_ligand_Pocket2Mol_2026-06-23_prepared.sdf

>  <GenAI_Model>  (1) 
Pocket2Mol

>  <Protein>  (1) 
GPCR_5HT2C

$$$$
Pocket2Mol_1
     RDKit          3D

  0  0  0  0  0  0  0  0  0  0999 V3000
M  V30 BEGIN CTAB
M  V30 COUNTS 9 9 0 0 1
M  V30 BEGIN ATOM
M  V30 1 C 39.892455 29.014629 50.967509 0
M  V30 2 O 39.649877 29.702622 52.123291 0
M  V30 3 C 38.827341 28.902438 52.865557 0
M  V30 4 C 39.245137 27.812313 50.970696 0
M  V30 5 C 38.551903 27.740028 52.204550 0
M  V30 6 H 40.535312 29.517431 50.259948 0
M  V30 7 H 38.535637 29.306381 53.824287 0
M  V30 8 H 39.267015 27.076227 50.179723 0
M  V30 9 H 37.926456 26.937217 52.566095 0
M  V30 END ATOM
M  V30 BEGIN BOND
M  V30 1 1 2 1
M  V30 2 1 3 2
M  V30 3 2 4 1
M  V30 4 2 5 3
M  V30 5 1 5 4
M  V30 6 1 6 1
M  V30 7 1 7 3
M  V30 8 1 8 4
M  V30 9 1 9 5
M  V30 END BOND
M  V30 END CTAB
M  END
>  <i_epik_Tot_Q>  (1) 
0

>  <i_epik_Tot_abs_Q>  (1) 
0

>  <i_i_glide_confnum>  (1) 
1

>  <i_i_glide_lignum>  (1) 
2

>  <i_i_glide_posenum>  (1) 
291

>  <i_i_glide_rotatable_bonds>  (1) 
0

>  <i_lp_mmshare_version>  (1) 
72125

>  <i_m_source_file_index>  (1) 
2

>  <i_f3d_flags>  (1) 
0

>  <num_sample>  (1) 
50

>  <b_lp_Chiralities_Consistent>  (1) 
1

>  <r_epik_Charging_Adjusted_Penalty>  (1) 
0

>  <r_epik_Ionization_Penalty>  (1) 
0

>  <r_epik_Ionization_Penalty_Charging>  (1) 
0

>  <r_epik_Ionization_Penalty_Neutral>  (1) 
0

>  <r_epik_State_Penalty>  (1) 
-0

>  <r_glide_ring_energy>  (1) 
0

>  <r_i_docking_score>  (1) 
-4.5310674145114689

>  <r_i_glide_ecoul>  (1) 
-0.61007088556052413

>  <r_i_glide_eff_state_penalty>  (1) 
-0

>  <r_i_glide_einternal>  (1) 
0

>  <r_i_glide_emodel>  (1) 
-17.401382447188563

>  <r_i_glide_emodel_strain>  (1) 
0

>  <r_i_glide_energy>  (1) 
-13.600943565523293

>  <r_i_glide_erotb>  (1) 
0

>  <r_i_glide_esite>  (1) 
0

>  <r_i_glide_evdw>  (1) 
-12.990872679962768

>  <r_i_glide_gscore>  (1) 
-4.5310674145114689

>  <r_i_glide_gscore_strain>  (1) 
0

>  <r_i_glide_hbond>  (1) 
0

>  <r_i_glide_ligand_efficiency>  (1) 
-0.90621348290229375

>  <r_i_glide_ligand_efficiency_ln>  (1) 
-1.7364151079896206

>  <r_i_glide_ligand_efficiency_sa>  (1) 
-1.5496032583170365

>  <r_i_glide_lipo>  (1) 
-1.3041200557712533

>  <r_i_glide_metal>  (1) 
-0

>  <r_i_glide_rewards>  (1) 
-2.485893091907998

>  <r_lp_Energy>  (1) 
2.5980879999999997

>  <r_lp_tautomer_probability>  (1) 
1

>  <s_epik_cmdline>  (1) 
J2VwaWtfcHl0aG9uJywgJy1waHQnLCAnMS4wJywgJy1waCcsICc3LjQnLCAnLXRuJywgJzgnLCAnLW1hJywgJzUwMCcsICctaW1hZScsICc8aW5maWxlLm1hZT4nLCAnLW9tYWUnLCAnPG91dGZpbGUubWFlPic=

>  <s_epik_input>  (1) 
W2NIXTFvW2NIXVtjSF1bY0hdMQ==

>  <s_glide_docking_method>  (1) 
confgen

>  <s_i_glide_gridfile>  (1) 
gpcr_5ht2c_6bqh_protein_autoprepared_prepared

>  <s_lp_Force_Field>  (1) 
S-OPLS

>  <s_lp_Variant>  (1) 
Pocket2Mol_1-1

>  <s_m_source_file>  (1) 
generated_GPCR_5HT2C_ligand_Pocket2Mol_2026-06-23_prepared.sdf

>  <GenAI_Model>  (1) 
Pocket2Mol

>  <Protein>  (1) 
GPCR_5HT2C

$$$$
Pocket2Mol_11
     RDKit          3D

  0  0  0  0  0  0  0  0  0  0999 V3000
M  V30 BEGIN CTAB
M  V30 COUNTS 11 11 0 0 1
M  V30 BEGIN ATOM
M  V30 1 C 39.402152 28.369723 50.957773 0
M  V30 2 C 40.045118 29.227794 50.205675 0
M  V30 3 C 39.244882 28.912809 52.233319 0
M  V30 4 C 40.444542 30.537754 50.871580 0
M  V30 5 N 39.830659 30.124983 52.192644 0
M  V30 6 O 38.694186 28.413267 53.209822 0
M  V30 7 H 39.047043 27.398510 50.644117 0
M  V30 8 H 41.525288 30.671397 50.923489 0
M  V30 9 H 40.290108 29.044229 49.170009 0
M  V30 10 H 39.950896 31.400901 50.424446 0
M  V30 11 H 39.860508 30.739229 52.993521 0
M  V30 END ATOM
M  V30 BEGIN BOND
M  V30 1 2 2 1
M  V30 2 1 3 1
M  V30 3 1 4 2
M  V30 4 1 5 3
M  V30 5 1 5 4
M  V30 6 2 6 3
M  V30 7 1 7 1
M  V30 8 1 8 4
M  V30 9 1 9 2
M  V30 10 1 10 4
M  V30 11 1 11 5
M  V30 END BOND
M  V30 END CTAB
M  END
>  <i_epik_Tot_Q>  (1) 
0

>  <i_epik_Tot_abs_Q>  (1) 
0

>  <i_i_glide_confnum>  (1) 
1

>  <i_i_glide_lignum>  (1) 
12

>  <i_i_glide_posenum>  (1) 
270

>  <i_i_glide_rotatable_bonds>  (1) 
0

>  <i_lp_mmshare_version>  (1) 
72125

>  <i_m_source_file_index>  (1) 
12

>  <i_f3d_flags>  (1) 
0

>  <num_sample>  (1) 
50

>  <b_lp_Chiralities_Consistent>  (1) 
1

>  <r_epik_Charging_Adjusted_Penalty>  (1) 
0

>  <r_epik_Ionization_Penalty>  (1) 
3.8544596149973334e-06

>  <r_epik_Ionization_Penalty_Charging>  (1) 
0

>  <r_epik_Ionization_Penalty_Neutral>  (1) 
3.8544596149973334e-06

>  <r_epik_State_Penalty>  (1) 
-0

>  <r_glide_ring_energy>  (1) 
0

>  <r_i_docking_score>  (1) 
-4.5215700283701121

>  <r_i_glide_ecoul>  (1) 
-0.63999851164341059

>  <r_i_glide_eff_state_penalty>  (1) 
-0

>  <r_i_glide_einternal>  (1) 
0

>  <r_i_glide_emodel>  (1) 
-21.076659338441843

>  <r_i_glide_emodel_strain>  (1) 
0

>  <r_i_glide_energy>  (1) 
-16.289177160605796

>  <r_i_glide_erotb>  (1) 
0

>  <r_i_glide_esite>  (1) 
0

>  <r_i_glide_evdw>  (1) 
-15.649178648962385

>  <r_i_glide_gscore>  (1) 
-4.5215700283701121

>  <r_i_glide_gscore_strain>  (1) 
0

>  <r_i_glide_hbond>  (1) 
0

>  <r_i_glide_ligand_efficiency>  (1) 
-0.75359500472835206

>  <r_i_glide_ligand_efficiency_ln>  (1) 
-1.6196130355099554

>  <r_i_glide_ligand_efficiency_sa>  (1) 
-1.3693730017473222

>  <r_i_glide_lipo>  (1) 
-0.94311131917548141

>  <r_i_glide_metal>  (1) 
-0

>  <r_i_glide_rewards>  (1) 
-2.7000000000000002

>  <r_lp_Energy>  (1) 
3.204942

>  <r_lp_tautomer_probability>  (1) 
1

>  <s_epik_cmdline>  (1) 
J2VwaWtfcHl0aG9uJywgJy1waHQnLCAnMS4wJywgJy1waCcsICc3LjQnLCAnLXRuJywgJzgnLCAnLW1hJywgJzUwMCcsICctaW1hZScsICc8aW5maWxlLm1hZT4nLCAnLW9tYWUnLCAnPG91dGZpbGUubWFlPic=

>  <s_epik_input>  (1) 
Tz1DMVtDSDJdW0NIXT1bQ0hdW05IXTE=

>  <s_glide_docking_method>  (1) 
confgen

>  <s_i_glide_gridfile>  (1) 
gpcr_5ht2c_6bqh_protein_autoprepared_prepared

>  <s_lp_Force_Field>  (1) 
S-OPLS

>  <s_lp_Variant>  (1) 
Pocket2Mol_11-1

>  <s_m_source_file>  (1) 
generated_GPCR_5HT2C_ligand_Pocket2Mol_2026-06-23_prepared.sdf

>  <GenAI_Model>  (1) 
Pocket2Mol

>  <Protein>  (1) 
GPCR_5HT2C

$$$$
Pocket2Mol_47
     RDKit          3D

  0  0  0  0  0  0  0  0  0  0999 V3000
M  V30 BEGIN CTAB
M  V30 COUNTS 15 15 0 0 1
M  V30 BEGIN ATOM
M  V30 1 C 38.110545 29.439349 54.296447 0
M  V30 2 C 39.245137 29.998588 53.427423 0
M  V30 3 C 39.282985 29.136325 52.152768 0
M  V30 4 C 37.853817 28.028276 53.768136 0
M  V30 5 C 38.127479 28.137748 52.270695 0
M  V30 6 H 38.356346 29.447790 55.358783 0
M  V30 7 H 37.214299 30.047834 54.167761 0
M  V30 8 H 39.084640 31.053596 53.202278 0
M  V30 9 H 40.194225 29.932888 53.958391 0
M  V30 10 H 39.204763 29.737739 51.246294 0
M  V30 11 H 40.229843 28.600163 52.096387 0
M  V30 12 H 38.558715 27.330332 54.222018 0
M  V30 13 H 36.845293 27.674897 53.985753 0
M  V30 14 H 37.245187 28.537755 51.770492 0
M  V30 15 H 38.353837 27.174562 51.811923 0
M  V30 END ATOM
M  V30 BEGIN BOND
M  V30 1 1 2 1
M  V30 2 1 3 2
M  V30 3 1 4 1
M  V30 4 1 5 3
M  V30 5 1 5 4
M  V30 6 1 6 1
M  V30 7 1 7 1
M  V30 8 1 8 2
M  V30 9 1 9 2
M  V30 10 1 10 3
M  V30 11 1 11 3
M  V30 12 1 12 4
M  V30 13 1 13 4
M  V30 14 1 14 5
M  V30 15 1 15 5
M  V30 END BOND
M  V30 END CTAB
M  END
>  <i_epik_Tot_Q>  (1) 
0

>  <i_epik_Tot_abs_Q>  (1) 
0

>  <i_i_glide_confnum>  (1) 
3

>  <i_i_glide_lignum>  (1) 
48

>  <i_i_glide_posenum>  (1) 
377

>  <i_i_glide_rotatable_bonds>  (1) 
0

>  <i_lp_mmshare_version>  (1) 
72125

>  <i_m_source_file_index>  (1) 
48

>  <i_f3d_flags>  (1) 
0

>  <num_sample>  (1) 
50

>  <b_lp_Chiralities_Consistent>  (1) 
1

>  <r_epik_Charging_Adjusted_Penalty>  (1) 
0

>  <r_epik_Ionization_Penalty>  (1) 
0

>  <r_epik_Ionization_Penalty_Charging>  (1) 
0

>  <r_epik_Ionization_Penalty_Neutral>  (1) 
0

>  <r_epik_State_Penalty>  (1) 
-0

>  <r_glide_ring_energy>  (1) 
0.0011506089744752722

>  <r_i_docking_score>  (1) 
-4.521462089566584

>  <r_i_glide_ecoul>  (1) 
-0.086701676987399945

>  <r_i_glide_eff_state_penalty>  (1) 
-0

>  <r_i_glide_einternal>  (1) 
0

>  <r_i_glide_emodel>  (1) 
-15.843127136131706

>  <r_i_glide_emodel_strain>  (1) 
0

>  <r_i_glide_energy>  (1) 
-12.234016673689679

>  <r_i_glide_erotb>  (1) 
0

>  <r_i_glide_esite>  (1) 
0

>  <r_i_glide_evdw>  (1) 
-12.14731499670228

>  <r_i_glide_gscore>  (1) 
-4.521462089566584

>  <r_i_glide_gscore_strain>  (1) 
0

>  <r_i_glide_hbond>  (1) 
0

>  <r_i_glide_ligand_efficiency>  (1) 
-0.90429241791331683

>  <r_i_glide_ligand_efficiency_ln>  (1) 
-1.7327341141253425

>  <r_i_glide_ligand_efficiency_sa>  (1) 
-1.5463182833938833

>  <r_i_glide_lipo>  (1) 
-1.4177577548500264

>  <r_i_glide_metal>  (1) 
-0

>  <r_i_glide_rewards>  (1) 
-2.4833333333333334

>  <r_lp_Energy>  (1) 
13.274989999999999

>  <r_lp_tautomer_probability>  (1) 
1

>  <s_epik_cmdline>  (1) 
J2VwaWtfcHl0aG9uJywgJy1waHQnLCAnMS4wJywgJy1waCcsICc3LjQnLCAnLXRuJywgJzgnLCAnLW1hJywgJzUwMCcsICctaW1hZScsICc8aW5maWxlLm1hZT4nLCAnLW9tYWUnLCAnPG91dGZpbGUubWFlPic=

>  <s_epik_input>  (1) 
W0NIMl0xW0NIMl1bQ0gyXVtDSDJdW0NIMl0x

>  <s_glide_docking_method>  (1) 
confgen

>  <s_i_glide_gridfile>  (1) 
gpcr_5ht2c_6bqh_protein_autoprepared_prepared

>  <s_lp_Force_Field>  (1) 
S-OPLS

>  <s_lp_Variant>  (1) 
Pocket2Mol_47-1

>  <s_m_source_file>  (1) 
generated_GPCR_5HT2C_ligand_Pocket2Mol_2026-06-23_prepared.sdf

>  <GenAI_Model>  (1) 
Pocket2Mol

>  <Protein>  (1) 
GPCR_5HT2C

$$$$
Pocket2Mol_3
     RDKit          3D

  0  0  0  0  0  0  0  0  0  0999 V3000
M  V30 BEGIN CTAB
M  V30 COUNTS 12 12 0 0 1
M  V30 BEGIN ATOM
M  V30 1 C 39.645102 29.737417 52.463227 0
M  V30 2 C 38.740989 28.876149 52.768320 0
M  V30 3 C 40.294200 29.512661 51.111777 0
M  V30 4 C 39.427030 28.171531 50.666593 0
M  V30 5 N 38.568494 27.957550 51.843689 0
M  V30 6 H 38.127760 28.829942 53.657006 0
M  V30 7 H 40.126501 30.357993 50.444141 0
M  V30 8 H 41.359759 29.316381 51.213087 0
M  V30 9 H 38.845002 28.362089 49.767761 0
M  V30 10 H 40.055771 27.299160 50.496903 0
M  V30 11 H 39.929297 30.570246 53.090773 0
M  V30 12 H 37.766436 27.338647 51.810389 0
M  V30 END ATOM
M  V30 BEGIN BOND
M  V30 1 2 2 1
M  V30 2 1 3 1
M  V30 3 1 4 3
M  V30 4 1 5 2
M  V30 5 1 5 4
M  V30 6 1 6 2
M  V30 7 1 7 3
M  V30 8 1 8 3
M  V30 9 1 9 4
M  V30 10 1 10 4
M  V30 11 1 11 1
M  V30 12 1 12 5
M  V30 END BOND
M  V30 END CTAB
M  END
>  <i_epik_Tot_Q>  (1) 
0

>  <i_epik_Tot_abs_Q>  (1) 
0

>  <i_i_glide_confnum>  (1) 
1

>  <i_i_glide_lignum>  (1) 
4

>  <i_i_glide_posenum>  (1) 
200

>  <i_i_glide_rotatable_bonds>  (1) 
0

>  <i_lp_mmshare_version>  (1) 
72125

>  <i_m_source_file_index>  (1) 
4

>  <i_f3d_flags>  (1) 
0

>  <num_sample>  (1) 
50

>  <b_lp_Chiralities_Consistent>  (1) 
1

>  <r_epik_Charging_Adjusted_Penalty>  (1) 
1.6042444336516156e-06

>  <r_epik_Ionization_Penalty>  (1) 
0.0023556498582944039

>  <r_epik_Ionization_Penalty_Charging>  (1) 
1.6042444336516156e-06

>  <r_epik_Ionization_Penalty_Neutral>  (1) 
0.0023540456138607521

>  <r_epik_State_Penalty>  (1) 
-0

>  <r_glide_ring_energy>  (1) 
0

>  <r_i_docking_score>  (1) 
-4.5212319342903733

>  <r_i_glide_ecoul>  (1) 
-1.7343657689239649

>  <r_i_glide_eff_state_penalty>  (1) 
-0

>  <r_i_glide_einternal>  (1) 
0

>  <r_i_glide_emodel>  (1) 
-18.523252684665074

>  <r_i_glide_emodel_strain>  (1) 
0

>  <r_i_glide_energy>  (1) 
-14.541831691429994

>  <r_i_glide_erotb>  (1) 
0

>  <r_i_glide_esite>  (1) 
0

>  <r_i_glide_evdw>  (1) 
-12.807465922506029

>  <r_i_glide_gscore>  (1) 
-4.5212319342903733

>  <r_i_glide_gscore_strain>  (1) 
0

>  <r_i_glide_hbond>  (1) 
-0.050703772826477422

>  <r_i_glide_ligand_efficiency>  (1) 
-0.90424638685807468

>  <r_i_glide_ligand_efficiency_ln>  (1) 
-1.7326459130322587

>  <r_i_glide_ligand_efficiency_sa>  (1) 
-1.5462395713966191

>  <r_i_glide_lipo>  (1) 
-1.3200000000000001

>  <r_i_glide_metal>  (1) 
-0

>  <r_i_glide_rewards>  (1) 
-2.25

>  <r_lp_Energy>  (1) 
2.9163319999999997

>  <r_lp_tautomer_probability>  (1) 
1

>  <s_epik_Chemistry_Notes>  (1) 
This compound has an imine and may undergo hydrolysis.

>  <s_epik_cmdline>  (1) 
J2VwaWtfcHl0aG9uJywgJy1waHQnLCAnMS4wJywgJy1waCcsICc3LjQnLCAnLXRuJywgJzgnLCAnLW1hJywgJzUwMCcsICctaW1hZScsICc8aW5maWxlLm1hZT4nLCAnLW9tYWUnLCAnPG91dGZpbGUubWFlPic=

>  <s_epik_input>  (1) 
W0NIMl0xW0NIXT1OW0NIMl1bQ0gyXTE=

>  <s_glide_docking_method>  (1) 
confgen

>  <s_i_glide_gridfile>  (1) 
gpcr_5ht2c_6bqh_protein_autoprepared_prepared

>  <s_lp_Force_Field>  (1) 
S-OPLS

>  <s_lp_Variant>  (1) 
Pocket2Mol_3-1

>  <s_m_source_file>  (1) 
generated_GPCR_5HT2C_ligand_Pocket2Mol_2026-06-23_prepared.sdf

>  <GenAI_Model>  (1) 
Pocket2Mol

>  <Protein>  (1) 
GPCR_5HT2C

$$$$
Pocket2Mol_7
     RDKit          3D

  0  0  0  0  0  0  0  0  0  0999 V3000
M  V30 BEGIN CTAB
M  V30 COUNTS 11 11 0 0 1
M  V30 BEGIN ATOM
M  V30 1 C 40.045136 29.217908 50.214058 0
M  V30 2 C 40.472487 30.517438 50.881394 0
M  V30 3 C 39.384823 28.371692 50.965649 0
M  V30 4 C 39.243952 28.914566 52.243078 0
M  V30 5 N 39.856455 30.114310 52.203908 0
M  V30 6 O 38.687389 28.424145 53.219935 0
M  V30 7 H 40.280511 29.033647 49.177232 0
M  V30 8 H 39.902925 30.725832 53.007083 0
M  V30 9 H 41.556920 30.623728 50.922801 0
M  V30 10 H 39.005370 27.409268 50.648667 0
M  V30 11 H 39.996202 31.389395 50.432839 0
M  V30 END ATOM
M  V30 BEGIN BOND
M  V30 1 1 2 1
M  V30 2 2 3 1
M  V30 3 1 4 3
M  V30 4 1 5 2
M  V30 5 1 5 4
M  V30 6 2 6 4
M  V30 7 1 7 1
M  V30 8 1 8 5
M  V30 9 1 9 2
M  V30 10 1 10 3
M  V30 11 1 11 2
M  V30 END BOND
M  V30 END CTAB
M  END
>  <i_epik_Tot_Q>  (1) 
0

>  <i_epik_Tot_abs_Q>  (1) 
0

>  <i_i_glide_confnum>  (1) 
1

>  <i_i_glide_lignum>  (1) 
8

>  <i_i_glide_posenum>  (1) 
162

>  <i_i_glide_rotatable_bonds>  (1) 
0

>  <i_lp_mmshare_version>  (1) 
72125

>  <i_m_source_file_index>  (1) 
8

>  <i_f3d_flags>  (1) 
0

>  <num_sample>  (1) 
50

>  <b_lp_Chiralities_Consistent>  (1) 
1

>  <r_epik_Charging_Adjusted_Penalty>  (1) 
0

>  <r_epik_Ionization_Penalty>  (1) 
3.8544596149973334e-06

>  <r_epik_Ionization_Penalty_Charging>  (1) 
0

>  <r_epik_Ionization_Penalty_Neutral>  (1) 
3.8544596149973334e-06

>  <r_epik_State_Penalty>  (1) 
-0

>  <r_glide_ring_energy>  (1) 
0

>  <r_i_docking_score>  (1) 
-4.521013065337562

>  <r_i_glide_ecoul>  (1) 
-0.63698501795164653

>  <r_i_glide_eff_state_penalty>  (1) 
-0

>  <r_i_glide_einternal>  (1) 
0

>  <r_i_glide_emodel>  (1) 
-21.023483242563671

>  <r_i_glide_emodel_strain>  (1) 
0

>  <r_i_glide_energy>  (1) 
-16.237462244052573

>  <r_i_glide_erotb>  (1) 
0

>  <r_i_glide_esite>  (1) 
0

>  <r_i_glide_evdw>  (1) 
-15.600477226100928

>  <r_i_glide_gscore>  (1) 
-4.521013065337562

>  <r_i_glide_gscore_strain>  (1) 
0

>  <r_i_glide_hbond>  (1) 
0

>  <r_i_glide_ligand_efficiency>  (1) 
-0.75350217755626037

>  <r_i_glide_ligand_efficiency_ln>  (1) 
-1.6194135329959713

>  <r_i_glide_ligand_efficiency_sa>  (1) 
-1.36920432358134

>  <r_i_glide_lipo>  (1) 
-0.94576297864438985

>  <r_i_glide_metal>  (1) 
-0

>  <r_i_glide_rewards>  (1) 
-2.6996784726953789

>  <r_lp_Energy>  (1) 
3.2049569999999998

>  <r_lp_tautomer_probability>  (1) 
1

>  <s_epik_cmdline>  (1) 
J2VwaWtfcHl0aG9uJywgJy1waHQnLCAnMS4wJywgJy1waCcsICc3LjQnLCAnLXRuJywgJzgnLCAnLW1hJywgJzUwMCcsICctaW1hZScsICc8aW5maWxlLm1hZT4nLCAnLW9tYWUnLCAnPG91dGZpbGUubWFlPic=

>  <s_epik_input>  (1) 
TjE9W0NIXVtDSDJdW0NIMl1DMT1P

>  <s_glide_docking_method>  (1) 
confgen

>  <s_i_glide_gridfile>  (1) 
gpcr_5ht2c_6bqh_protein_autoprepared_prepared

>  <s_lp_Force_Field>  (1) 
S-OPLS

>  <s_lp_Variant>  (1) 
Pocket2Mol_7-1

>  <s_m_source_file>  (1) 
generated_GPCR_5HT2C_ligand_Pocket2Mol_2026-06-23_prepared.sdf

>  <GenAI_Model>  (1) 
Pocket2Mol

>  <Protein>  (1) 
GPCR_5HT2C

$$$$
Pocket2Mol_1
     RDKit          3D

  0  0  0  0  0  0  0  0  0  0999 V3000
M  V30 BEGIN CTAB
M  V30 COUNTS 9 9 0 0 1
M  V30 BEGIN ATOM
M  V30 1 C 38.903506 28.392730 52.247037 0
M  V30 2 O 39.348730 29.617257 52.662803 0
M  V30 3 C 40.045105 30.137754 51.606935 0
M  V30 4 C 39.304564 28.137751 50.967760 0
M  V30 5 C 40.045111 29.273420 50.550959 0
M  V30 6 H 38.325110 27.842035 52.974420 0
M  V30 7 H 40.466627 31.119323 51.772359 0
M  V30 8 H 39.088366 27.243246 50.400962 0
M  V30 9 H 40.518738 29.439894 49.595073 0
M  V30 END ATOM
M  V30 BEGIN BOND
M  V30 1 1 2 1
M  V30 2 1 3 2
M  V30 3 2 4 1
M  V30 4 2 5 3
M  V30 5 1 5 4
M  V30 6 1 6 1
M  V30 7 1 7 3
M  V30 8 1 8 4
M  V30 9 1 9 5
M  V30 END BOND
M  V30 END CTAB
M  END
>  <i_epik_Tot_Q>  (1) 
0

>  <i_epik_Tot_abs_Q>  (1) 
0

>  <i_i_glide_confnum>  (1) 
1

>  <i_i_glide_lignum>  (1) 
2

>  <i_i_glide_posenum>  (1) 
37

>  <i_i_glide_rotatable_bonds>  (1) 
0

>  <i_lp_mmshare_version>  (1) 
72125

>  <i_m_source_file_index>  (1) 
2

>  <i_f3d_flags>  (1) 
0

>  <num_sample>  (1) 
50

>  <b_lp_Chiralities_Consistent>  (1) 
1

>  <r_epik_Charging_Adjusted_Penalty>  (1) 
0

>  <r_epik_Ionization_Penalty>  (1) 
0

>  <r_epik_Ionization_Penalty_Charging>  (1) 
0

>  <r_epik_Ionization_Penalty_Neutral>  (1) 
0

>  <r_epik_State_Penalty>  (1) 
-0

>  <r_glide_ring_energy>  (1) 
0

>  <r_i_docking_score>  (1) 
-4.5147889905019793

>  <r_i_glide_ecoul>  (1) 
-0.65540200832225448

>  <r_i_glide_eff_state_penalty>  (1) 
-0

>  <r_i_glide_einternal>  (1) 
0

>  <r_i_glide_emodel>  (1) 
-17.409863046669795

>  <r_i_glide_emodel_strain>  (1) 
0

>  <r_i_glide_energy>  (1) 
-13.623077715013462

>  <r_i_glide_erotb>  (1) 
0

>  <r_i_glide_esite>  (1) 
0

>  <r_i_glide_evdw>  (1) 
-12.967675706691207

>  <r_i_glide_gscore>  (1) 
-4.5147889905019793

>  <r_i_glide_gscore_strain>  (1) 
0

>  <r_i_glide_hbond>  (1) 
0

>  <r_i_glide_ligand_efficiency>  (1) 
-0.90295779810039589

>  <r_i_glide_ligand_efficiency_ln>  (1) 
-1.7301768204519399

>  <r_i_glide_ligand_efficiency_sa>  (1) 
-1.5440361156158302

>  <r_i_glide_lipo>  (1) 
-1.3200000000000001

>  <r_i_glide_metal>  (1) 
-0

>  <r_i_glide_rewards>  (1) 
-2.4480949039190802

>  <r_lp_Energy>  (1) 
2.5980879999999997

>  <r_lp_tautomer_probability>  (1) 
1

>  <s_epik_cmdline>  (1) 
J2VwaWtfcHl0aG9uJywgJy1waHQnLCAnMS4wJywgJy1waCcsICc3LjQnLCAnLXRuJywgJzgnLCAnLW1hJywgJzUwMCcsICctaW1hZScsICc8aW5maWxlLm1hZT4nLCAnLW9tYWUnLCAnPG91dGZpbGUubWFlPic=

>  <s_epik_input>  (1) 
W2NIXTFvW2NIXVtjSF1bY0hdMQ==

>  <s_glide_docking_method>  (1) 
confgen

>  <s_i_glide_gridfile>  (1) 
gpcr_5ht2c_6bqh_protein_autoprepared_prepared

>  <s_lp_Force_Field>  (1) 
S-OPLS

>  <s_lp_Variant>  (1) 
Pocket2Mol_1-1

>  <s_m_source_file>  (1) 
generated_GPCR_5HT2C_ligand_Pocket2Mol_2026-06-23_prepared.sdf

>  <GenAI_Model>  (1) 
Pocket2Mol

>  <Protein>  (1) 
GPCR_5HT2C

$$$$
Pocket2Mol_7
     RDKit          3D

  0  0  0  0  0  0  0  0  0  0999 V3000
M  V30 BEGIN CTAB
M  V30 COUNTS 11 11 0 0 1
M  V30 BEGIN ATOM
M  V30 1 C 38.968348 28.482997 52.203320 0
M  V30 2 C 39.243642 29.691492 53.095414 0
M  V30 3 C 39.477868 28.529066 50.998471 0
M  V30 4 C 40.171462 29.733608 50.842933 0
M  V30 5 N 40.045137 30.386845 52.013377 0
M  V30 6 O 40.780650 30.137936 49.857025 0
M  V30 7 H 38.383394 27.651739 52.571053 0
M  V30 8 H 40.452525 31.297311 52.172238 0
M  V30 9 H 38.332384 30.225290 53.368192 0
M  V30 10 H 39.379210 27.763086 50.243075 0
M  V30 11 H 39.834862 29.446876 53.976913 0
M  V30 END ATOM
M  V30 BEGIN BOND
M  V30 1 1 2 1
M  V30 2 2 3 1
M  V30 3 1 4 3
M  V30 4 1 5 2
M  V30 5 1 5 4
M  V30 6 2 6 4
M  V30 7 1 7 1
M  V30 8 1 8 5
M  V30 9 1 9 2
M  V30 10 1 10 3
M  V30 11 1 11 2
M  V30 END BOND
M  V30 END CTAB
M  END
>  <i_epik_Tot_Q>  (1) 
0

>  <i_epik_Tot_abs_Q>  (1) 
0

>  <i_i_glide_confnum>  (1) 
1

>  <i_i_glide_lignum>  (1) 
8

>  <i_i_glide_posenum>  (1) 
261

>  <i_i_glide_rotatable_bonds>  (1) 
0

>  <i_lp_mmshare_version>  (1) 
72125

>  <i_m_source_file_index>  (1) 
8

>  <i_f3d_flags>  (1) 
0

>  <num_sample>  (1) 
50

>  <b_lp_Chiralities_Consistent>  (1) 
1

>  <r_epik_Charging_Adjusted_Penalty>  (1) 
0

>  <r_epik_Ionization_Penalty>  (1) 
3.8544596149973334e-06

>  <r_epik_Ionization_Penalty_Charging>  (1) 
0

>  <r_epik_Ionization_Penalty_Neutral>  (1) 
3.8544596149973334e-06

>  <r_epik_State_Penalty>  (1) 
-0

>  <r_glide_ring_energy>  (1) 
0

>  <r_i_docking_score>  (1) 
-4.5130872371226998

>  <r_i_glide_ecoul>  (1) 
-0.6737242756891233

>  <r_i_glide_eff_state_penalty>  (1) 
-0

>  <r_i_glide_einternal>  (1) 
0

>  <r_i_glide_emodel>  (1) 
-21.906622755577878

>  <r_i_glide_emodel_strain>  (1) 
0

>  <r_i_glide_energy>  (1) 
-17.128992173046278

>  <r_i_glide_erotb>  (1) 
0

>  <r_i_glide_esite>  (1) 
0

>  <r_i_glide_evdw>  (1) 
-16.455267897357153

>  <r_i_glide_gscore>  (1) 
-4.5130872371226998

>  <r_i_glide_gscore_strain>  (1) 
0

>  <r_i_glide_hbond>  (1) 
0

>  <r_i_glide_ligand_efficiency>  (1) 
-0.75218120618711659

>  <r_i_glide_ligand_efficiency_ln>  (1) 
-1.616574524728166

>  <r_i_glide_ligand_efficiency_sa>  (1) 
-1.3668039593039274

>  <r_i_glide_lipo>  (1) 
-0.8892652009014731

>  <r_i_glide_metal>  (1) 
-0

>  <r_i_glide_rewards>  (1) 
-2.7000000000000002

>  <r_lp_Energy>  (1) 
3.2049569999999998

>  <r_lp_tautomer_probability>  (1) 
1

>  <s_epik_cmdline>  (1) 
J2VwaWtfcHl0aG9uJywgJy1waHQnLCAnMS4wJywgJy1waCcsICc3LjQnLCAnLXRuJywgJzgnLCAnLW1hJywgJzUwMCcsICctaW1hZScsICc8aW5maWxlLm1hZT4nLCAnLW9tYWUnLCAnPG91dGZpbGUubWFlPic=

>  <s_epik_input>  (1) 
TjE9W0NIXVtDSDJdW0NIMl1DMT1P

>  <s_glide_docking_method>  (1) 
confgen

>  <s_i_glide_gridfile>  (1) 
gpcr_5ht2c_6bqh_protein_autoprepared_prepared

>  <s_lp_Force_Field>  (1) 
S-OPLS

>  <s_lp_Variant>  (1) 
Pocket2Mol_7-1

>  <s_m_source_file>  (1) 
generated_GPCR_5HT2C_ligand_Pocket2Mol_2026-06-23_prepared.sdf

>  <GenAI_Model>  (1) 
Pocket2Mol

>  <Protein>  (1) 
GPCR_5HT2C

$$$$
Pocket2Mol_17
     RDKit          3D

  0  0  0  0  0  0  0  0  0  0999 V3000
M  V30 BEGIN CTAB
M  V30 COUNTS 10 10 0 0 1
M  V30 BEGIN ATOM
M  V30 1 C 37.129222 33.775188 58.915708 0
M  V30 2 O 37.364671 32.566650 59.773151 0
M  V30 3 C 36.232404 32.306781 60.565569 0
M  V30 4 C 35.742864 34.093138 59.389256 0
M  V30 5 C 35.270263 33.290717 60.279637 0
M  V30 6 O 36.112303 31.383430 61.367760 0
M  V30 7 H 37.149236 33.532508 57.852839 0
M  V30 8 H 35.201875 34.939745 58.992455 0
M  V30 9 H 34.298814 33.338463 60.748844 0
M  V30 10 H 37.828648 34.579242 59.140831 0
M  V30 END ATOM
M  V30 BEGIN BOND
M  V30 1 1 2 1
M  V30 2 1 3 2
M  V30 3 1 4 1
M  V30 4 1 5 3
M  V30 5 2 5 4
M  V30 6 2 6 3
M  V30 7 1 7 1
M  V30 8 1 8 4
M  V30 9 1 9 5
M  V30 10 1 10 1
M  V30 END BOND
M  V30 END CTAB
M  END
>  <i_epik_Tot_Q>  (1) 
0

>  <i_epik_Tot_abs_Q>  (1) 
0

>  <i_i_glide_confnum>  (1) 
1

>  <i_i_glide_lignum>  (1) 
18

>  <i_i_glide_posenum>  (1) 
80

>  <i_i_glide_rotatable_bonds>  (1) 
0

>  <i_lp_mmshare_version>  (1) 
72125

>  <i_m_source_file_index>  (1) 
18

>  <i_f3d_flags>  (1) 
0

>  <num_sample>  (1) 
50

>  <b_lp_Chiralities_Consistent>  (1) 
1

>  <r_epik_Charging_Adjusted_Penalty>  (1) 
0

>  <r_epik_Ionization_Penalty>  (1) 
0

>  <r_epik_Ionization_Penalty_Charging>  (1) 
0

>  <r_epik_Ionization_Penalty_Neutral>  (1) 
0

>  <r_epik_State_Penalty>  (1) 
-0

>  <r_glide_ring_energy>  (1) 
0

>  <r_i_docking_score>  (1) 
-4.5122800936948062

>  <r_i_glide_ecoul>  (1) 
-3.9222843348339427

>  <r_i_glide_eff_state_penalty>  (1) 
-0

>  <r_i_glide_einternal>  (1) 
0

>  <r_i_glide_emodel>  (1) 
-19.6122781442503

>  <r_i_glide_emodel_strain>  (1) 
0

>  <r_i_glide_energy>  (1) 
-15.063292804601161

>  <r_i_glide_erotb>  (1) 
0

>  <r_i_glide_esite>  (1) 
-0.041285732235943444

>  <r_i_glide_evdw>  (1) 
-11.141008469767218

>  <r_i_glide_gscore>  (1) 
-4.5122800936948062

>  <r_i_glide_gscore_strain>  (1) 
0

>  <r_i_glide_hbond>  (1) 
-0.32000000000000001

>  <r_i_glide_ligand_efficiency>  (1) 
-0.75204668228246774

>  <r_i_glide_ligand_efficiency_ln>  (1) 
-1.6162854083351563

>  <r_i_glide_ligand_efficiency_sa>  (1) 
-1.3665595131465615

>  <r_i_glide_lipo>  (1) 
-0.097267954412077223

>  <r_i_glide_metal>  (1) 
-0

>  <r_i_glide_rewards>  (1) 
-2.9083333333333332

>  <r_lp_Energy>  (1) 
-7.0611199999999998

>  <r_lp_tautomer_probability>  (1) 
1

>  <s_epik_Chemistry_Notes>  (1) 
This compound has an ester and may undergo hydrolysis at high or low pH.

>  <s_epik_cmdline>  (1) 
J2VwaWtfcHl0aG9uJywgJy1waHQnLCAnMS4wJywgJy1waCcsICc3LjQnLCAnLXRuJywgJzgnLCAnLW1hJywgJzUwMCcsICctaW1hZScsICc8aW5maWxlLm1hZT4nLCAnLW9tYWUnLCAnPG91dGZpbGUubWFlPic=

>  <s_epik_input>  (1) 
W0NIMl0xW0NIXT1bQ0hdT0MxPU8=

>  <s_glide_docking_method>  (1) 
confgen

>  <s_i_glide_gridfile>  (1) 
gpcr_5ht2c_6bqh_protein_autoprepared_prepared

>  <s_lp_Force_Field>  (1) 
S-OPLS

>  <s_lp_Variant>  (1) 
Pocket2Mol_17-1

>  <s_m_source_file>  (1) 
generated_GPCR_5HT2C_ligand_Pocket2Mol_2026-06-23_prepared.sdf

>  <GenAI_Model>  (1) 
Pocket2Mol

>  <Protein>  (1) 
GPCR_5HT2C

$$$$
Pocket2Mol_13
     RDKit          3D

  0  0  0  0  0  0  0  0  0  0999 V3000
M  V30 BEGIN CTAB
M  V30 COUNTS 12 12 0 0 1
M  V30 BEGIN ATOM
M  V30 1 C 35.645067 34.137596 59.367779 0
M  V30 2 O 35.363054 33.302957 60.479535 0
M  V30 3 C 37.077751 33.756502 58.966539 0
M  V30 4 C 36.190817 32.268427 60.539310 0
M  V30 5 C 37.245138 32.322117 59.454152 0
M  V30 6 O 36.140526 31.362168 61.367602 0
M  V30 7 H 34.939938 33.910987 58.567840 0
M  V30 8 H 35.555493 35.194171 59.620010 0
M  V30 9 H 37.236310 33.852154 57.891613 0
M  V30 10 H 37.794292 34.405595 59.471121 0
M  V30 11 H 38.245038 32.118353 59.836693 0
M  V30 12 H 36.997682 31.602667 58.672597 0
M  V30 END ATOM
M  V30 BEGIN BOND
M  V30 1 1 2 1
M  V30 2 1 3 1
M  V30 3 1 4 2
M  V30 4 1 5 3
M  V30 5 1 5 4
M  V30 6 2 6 4
M  V30 7 1 7 1
M  V30 8 1 8 1
M  V30 9 1 9 3
M  V30 10 1 10 3
M  V30 11 1 11 5
M  V30 12 1 12 5
M  V30 END BOND
M  V30 END CTAB
M  END
>  <i_epik_Tot_Q>  (1) 
0

>  <i_epik_Tot_abs_Q>  (1) 
0

>  <i_i_glide_confnum>  (1) 
2

>  <i_i_glide_lignum>  (1) 
14

>  <i_i_glide_posenum>  (1) 
169

>  <i_i_glide_rotatable_bonds>  (1) 
0

>  <i_lp_mmshare_version>  (1) 
72125

>  <i_m_source_file_index>  (1) 
14

>  <i_f3d_flags>  (1) 
0

>  <num_sample>  (1) 
50

>  <b_lp_Chiralities_Consistent>  (1) 
1

>  <r_epik_Charging_Adjusted_Penalty>  (1) 
0

>  <r_epik_Ionization_Penalty>  (1) 
0

>  <r_epik_Ionization_Penalty_Charging>  (1) 
0

>  <r_epik_Ionization_Penalty_Neutral>  (1) 
0

>  <r_epik_State_Penalty>  (1) 
-0

>  <r_glide_ring_energy>  (1) 
0.00053108536261990756

>  <r_i_docking_score>  (1) 
-4.5069572753688707

>  <r_i_glide_ecoul>  (1) 
-3.9568830104864086

>  <r_i_glide_eff_state_penalty>  (1) 
-0

>  <r_i_glide_einternal>  (1) 
0

>  <r_i_glide_emodel>  (1) 
-19.808963927433879

>  <r_i_glide_emodel_strain>  (1) 
0

>  <r_i_glide_energy>  (1) 
-15.181029937005842

>  <r_i_glide_erotb>  (1) 
0

>  <r_i_glide_esite>  (1) 
-0.046001125814841642

>  <r_i_glide_evdw>  (1) 
-11.224146926519433

>  <r_i_glide_gscore>  (1) 
-4.5069572753688707

>  <r_i_glide_gscore_strain>  (1) 
0

>  <r_i_glide_hbond>  (1) 
-0.32000000000000001

>  <r_i_glide_ligand_efficiency>  (1) 
-0.75115954589481182

>  <r_i_glide_ligand_efficiency_ln>  (1) 
-1.6143787905249167

>  <r_i_glide_ligand_efficiency_sa>  (1) 
-1.3649474793479013

>  <r_i_glide_lipo>  (1) 
-0.018336166112098744

>  <r_i_glide_metal>  (1) 
-0

>  <r_i_glide_rewards>  (1) 
-2.967880185542997

>  <r_lp_Energy>  (1) 
-1.1766760000000001

>  <r_lp_tautomer_probability>  (1) 
1

>  <s_epik_Chemistry_Notes>  (1) 
This compound has an ester and may undergo hydrolysis at high or low pH.

>  <s_epik_cmdline>  (1) 
J2VwaWtfcHl0aG9uJywgJy1waHQnLCAnMS4wJywgJy1waCcsICc3LjQnLCAnLXRuJywgJzgnLCAnLW1hJywgJzUwMCcsICctaW1hZScsICc8aW5maWxlLm1hZT4nLCAnLW9tYWUnLCAnPG91dGZpbGUubWFlPic=

>  <s_epik_input>  (1) 
W0NIMl0xW0NIMl1bQ0gyXU9DMT1P

>  <s_glide_docking_method>  (1) 
confgen

>  <s_i_glide_gridfile>  (1) 
gpcr_5ht2c_6bqh_protein_autoprepared_prepared

>  <s_lp_Force_Field>  (1) 
S-OPLS

>  <s_lp_Variant>  (1) 
Pocket2Mol_13-1

>  <s_m_source_file>  (1) 
generated_GPCR_5HT2C_ligand_Pocket2Mol_2026-06-23_prepared.sdf

>  <GenAI_Model>  (1) 
Pocket2Mol

>  <Protein>  (1) 
GPCR_5HT2C

$$$$
Pocket2Mol_13
     RDKit          3D

  0  0  0  0  0  0  0  0  0  0999 V3000
M  V30 BEGIN CTAB
M  V30 COUNTS 12 12 0 0 1
M  V30 BEGIN ATOM
M  V30 1 C 36.868602 34.754411 60.504018 0
M  V30 2 O 36.877068 33.536996 61.231476 0
M  V30 3 C 35.947641 34.470526 59.309492 0
M  V30 4 C 35.881179 32.736748 60.876623 0
M  V30 5 C 35.040562 33.334512 59.768582 0
M  V30 6 O 35.644091 31.635987 61.367759 0
M  V30 7 H 36.458087 35.543446 61.135031 0
M  V30 8 H 37.873692 35.041375 60.189973 0
M  V30 9 H 35.388401 35.352649 58.996635 0
M  V30 10 H 36.541516 34.138844 58.456045 0
M  V30 11 H 34.830174 32.620666 58.973387 0
M  V30 12 H 34.102257 33.705504 60.180671 0
M  V30 END ATOM
M  V30 BEGIN BOND
M  V30 1 1 2 1
M  V30 2 1 3 1
M  V30 3 1 4 2
M  V30 4 1 5 3
M  V30 5 1 5 4
M  V30 6 2 6 4
M  V30 7 1 7 1
M  V30 8 1 8 1
M  V30 9 1 9 3
M  V30 10 1 10 3
M  V30 11 1 11 5
M  V30 12 1 12 5
M  V30 END BOND
M  V30 END CTAB
M  END
>  <i_epik_Tot_Q>  (1) 
0

>  <i_epik_Tot_abs_Q>  (1) 
0

>  <i_i_glide_confnum>  (1) 
2

>  <i_i_glide_lignum>  (1) 
14

>  <i_i_glide_posenum>  (1) 
362

>  <i_i_glide_rotatable_bonds>  (1) 
0

>  <i_lp_mmshare_version>  (1) 
72125

>  <i_m_source_file_index>  (1) 
14

>  <i_f3d_flags>  (1) 
0

>  <num_sample>  (1) 
50

>  <b_lp_Chiralities_Consistent>  (1) 
1

>  <r_epik_Charging_Adjusted_Penalty>  (1) 
0

>  <r_epik_Ionization_Penalty>  (1) 
0

>  <r_epik_Ionization_Penalty_Charging>  (1) 
0

>  <r_epik_Ionization_Penalty_Neutral>  (1) 
0

>  <r_epik_State_Penalty>  (1) 
-0

>  <r_glide_ring_energy>  (1) 
0.00053108536261990756

>  <r_i_docking_score>  (1) 
-4.4841510869949612

>  <r_i_glide_ecoul>  (1) 
-3.2016615993979212

>  <r_i_glide_eff_state_penalty>  (1) 
-0

>  <r_i_glide_einternal>  (1) 
0

>  <r_i_glide_emodel>  (1) 
-20.086962365969935

>  <r_i_glide_emodel_strain>  (1) 
0

>  <r_i_glide_energy>  (1) 
-15.482446732521792

>  <r_i_glide_erotb>  (1) 
0

>  <r_i_glide_esite>  (1) 
0

>  <r_i_glide_evdw>  (1) 
-12.280785133123871

>  <r_i_glide_gscore>  (1) 
-4.4841510869949612

>  <r_i_glide_gscore_strain>  (1) 
0

>  <r_i_glide_hbond>  (1) 
-0.32000000000000001

>  <r_i_glide_ligand_efficiency>  (1) 
-0.74735851449916024

>  <r_i_glide_ligand_efficiency_ln>  (1) 
-1.6062096811781807

>  <r_i_glide_ligand_efficiency_sa>  (1) 
-1.3580405469248613

>  <r_i_glide_lipo>  (1) 
-0.19957693591473061

>  <r_i_glide_metal>  (1) 
-0

>  <r_i_glide_rewards>  (1) 
-2.8702856545143485

>  <r_lp_Energy>  (1) 
-1.1766760000000001

>  <r_lp_tautomer_probability>  (1) 
1

>  <s_epik_Chemistry_Notes>  (1) 
This compound has an ester and may undergo hydrolysis at high or low pH.

>  <s_epik_cmdline>  (1) 
J2VwaWtfcHl0aG9uJywgJy1waHQnLCAnMS4wJywgJy1waCcsICc3LjQnLCAnLXRuJywgJzgnLCAnLW1hJywgJzUwMCcsICctaW1hZScsICc8aW5maWxlLm1hZT4nLCAnLW9tYWUnLCAnPG91dGZpbGUubWFlPic=

>  <s_epik_input>  (1) 
W0NIMl0xW0NIMl1bQ0gyXU9DMT1P

>  <s_glide_docking_method>  (1) 
confgen

>  <s_i_glide_gridfile>  (1) 
gpcr_5ht2c_6bqh_protein_autoprepared_prepared

>  <s_lp_Force_Field>  (1) 
S-OPLS

>  <s_lp_Variant>  (1) 
Pocket2Mol_13-1

>  <s_m_source_file>  (1) 
generated_GPCR_5HT2C_ligand_Pocket2Mol_2026-06-23_prepared.sdf

>  <GenAI_Model>  (1) 
Pocket2Mol

>  <Protein>  (1) 
GPCR_5HT2C

$$$$
Pocket2Mol_42
     RDKit          3D

  0  0  0  0  0  0  0  0  0  0999 V3000
M  V30 BEGIN CTAB
M  V30 COUNTS 10 9 0 0 1
M  V30 BEGIN ATOM
M  V30 1 C 39.236916 27.387352 51.188624 0
M  V30 2 O 40.170141 28.416195 51.201770 0
M  V30 3 C 39.849367 29.504044 50.348338 0
M  V30 4 O 38.045134 27.737821 51.847096 0
M  V30 5 H 39.645162 26.525850 51.714181 0
M  V30 6 H 38.996191 27.086064 50.167762 0
M  V30 7 H 40.611855 30.277170 50.445547 0
M  V30 8 H 39.818370 29.192008 49.305161 0
M  V30 9 H 38.886413 29.944283 50.601854 0
M  V30 10 H 37.378786 27.098926 51.615880 0
M  V30 END ATOM
M  V30 BEGIN BOND
M  V30 1 1 2 1
M  V30 2 1 3 2
M  V30 3 1 4 1
M  V30 4 1 5 1
M  V30 5 1 6 1
M  V30 6 1 7 3
M  V30 7 1 8 3
M  V30 8 1 9 3
M  V30 9 1 10 4
M  V30 END BOND
M  V30 END CTAB
M  END
>  <i_epik_Tot_Q>  (1) 
0

>  <i_epik_Tot_abs_Q>  (1) 
0

>  <i_i_glide_confnum>  (1) 
1

>  <i_i_glide_lignum>  (1) 
43

>  <i_i_glide_posenum>  (1) 
273

>  <i_i_glide_rotatable_bonds>  (1) 
2

>  <i_lp_mmshare_version>  (1) 
72125

>  <i_m_source_file_index>  (1) 
43

>  <i_f3d_flags>  (1) 
0

>  <num_sample>  (1) 
50

>  <b_lp_Chiralities_Consistent>  (1) 
1

>  <r_epik_Charging_Adjusted_Penalty>  (1) 
0

>  <r_epik_Ionization_Penalty>  (1) 
1.028953084229311e-06

>  <r_epik_Ionization_Penalty_Charging>  (1) 
0

>  <r_epik_Ionization_Penalty_Neutral>  (1) 
1.028953084229311e-06

>  <r_epik_State_Penalty>  (1) 
-0

>  <r_glide_ring_energy>  (1) 
0

>  <r_i_docking_score>  (1) 
-4.4837189377859037

>  <r_i_glide_ecoul>  (1) 
-4.2988881256041491

>  <r_i_glide_eff_state_penalty>  (1) 
-0

>  <r_i_glide_einternal>  (1) 
2.0194892769227817

>  <r_i_glide_emodel>  (1) 
-17.989002212077427

>  <r_i_glide_emodel_strain>  (1) 
0.0054936613496858744

>  <r_i_glide_energy>  (1) 
-14.112803500705136

>  <r_i_glide_erotb>  (1) 
0

>  <r_i_glide_esite>  (1) 
0

>  <r_i_glide_evdw>  (1) 
-9.8139153751009864

>  <r_i_glide_gscore>  (1) 
-4.4837189377859037

>  <r_i_glide_gscore_strain>  (1) 
0

>  <r_i_glide_hbond>  (1) 
-0.32000000000000001

>  <r_i_glide_ligand_efficiency>  (1) 
-1.1209297344464759

>  <r_i_glide_ligand_efficiency_ln>  (1) 
-1.8789462904658958

>  <r_i_glide_ligand_efficiency_sa>  (1) 
-1.7793650396427703

>  <r_i_glide_lipo>  (1) 
-0.328189950190232

>  <r_i_glide_metal>  (1) 
-0

>  <r_i_glide_rewards>  (1) 
-2.7000000000000002

>  <r_lp_Energy>  (1) 
5.5414079999999997

>  <r_lp_tautomer_probability>  (1) 
1

>  <s_epik_Chemistry_Notes>  (1) 
This compound contains an acetal/aminal-like group ( X-CH(R)-Y where X, Y are N, S, or O) that may be acid/base labile, releasing an aldehyde.

>  <s_epik_cmdline>  (1) 
J2VwaWtfcHl0aG9uJywgJy1waHQnLCAnMS4wJywgJy1waCcsICc3LjQnLCAnLXRuJywgJzgnLCAnLW1hJywgJzUwMCcsICctaW1hZScsICc8aW5maWxlLm1hZT4nLCAnLW9tYWUnLCAnPG91dGZpbGUubWFlPic=

>  <s_epik_input>  (1) 
W09IXVtDSDJdT1tDSDNd

>  <s_glide_docking_method>  (1) 
confgen

>  <s_i_glide_gridfile>  (1) 
gpcr_5ht2c_6bqh_protein_autoprepared_prepared

>  <s_lp_Force_Field>  (1) 
S-OPLS

>  <s_lp_Variant>  (1) 
Pocket2Mol_42-1

>  <s_m_source_file>  (1) 
generated_GPCR_5HT2C_ligand_Pocket2Mol_2026-06-23_prepared.sdf

>  <GenAI_Model>  (1) 
Pocket2Mol

>  <Protein>  (1) 
GPCR_5HT2C

$$$$
Pocket2Mol_26
     RDKit          3D

  0  0  0  0  0  0  0  0  0  0999 V3000
M  V30 BEGIN CTAB
M  V30 COUNTS 13 13 0 0 1
M  V30 BEGIN ATOM
M  V30 1 C 37.591187 34.092547 59.916427 0
M  V30 2 O 37.158376 33.109757 60.845111 0
M  V30 3 C 35.942379 32.499300 60.767528 0
M  V30 4 O 35.645076 31.468806 61.367307 0
M  V30 5 C 34.917840 33.237256 59.868964 0
M  V30 6 C 36.445104 35.028654 59.562218 0
M  V30 7 O 35.479790 34.189124 58.967779 0
M  V30 8 H 37.970694 33.600059 59.019724 0
M  V30 9 H 38.419488 34.652460 60.351249 0
M  V30 10 H 34.202132 33.737760 60.519537 0
M  V30 11 H 34.354835 32.503935 59.291002 0
M  V30 12 H 36.769668 35.785472 58.848606 0
M  V30 13 H 36.046694 35.542153 60.437499 0
M  V30 END ATOM
M  V30 BEGIN BOND
M  V30 1 1 2 1
M  V30 2 1 3 2
M  V30 3 2 4 3
M  V30 4 1 5 3
M  V30 5 1 6 1
M  V30 6 1 7 5
M  V30 7 1 7 6
M  V30 8 1 8 1
M  V30 9 1 9 1
M  V30 10 1 10 5
M  V30 11 1 11 5
M  V30 12 1 12 6
M  V30 13 1 13 6
M  V30 END BOND
M  V30 END CTAB
M  END
>  <i_epik_Tot_Q>  (1) 
0

>  <i_epik_Tot_abs_Q>  (1) 
0

>  <i_i_glide_confnum>  (1) 
2

>  <i_i_glide_lignum>  (1) 
27

>  <i_i_glide_posenum>  (1) 
148

>  <i_i_glide_rotatable_bonds>  (1) 
0

>  <i_lp_mmshare_version>  (1) 
72125

>  <i_m_source_file_index>  (1) 
27

>  <i_f3d_flags>  (1) 
0

>  <num_sample>  (1) 
50

>  <b_lp_Chiralities_Consistent>  (1) 
1

>  <r_epik_Charging_Adjusted_Penalty>  (1) 
0

>  <r_epik_Ionization_Penalty>  (1) 
1.0677269036415479e-12

>  <r_epik_Ionization_Penalty_Charging>  (1) 
0

>  <r_epik_Ionization_Penalty_Neutral>  (1) 
1.0677269036415479e-12

>  <r_epik_State_Penalty>  (1) 
-0

>  <r_glide_ring_energy>  (1) 
4.2281688740393558e-05

>  <r_i_docking_score>  (1) 
-4.4781949346934997

>  <r_i_glide_ecoul>  (1) 
-2.7554736295723612

>  <r_i_glide_eff_state_penalty>  (1) 
-0

>  <r_i_glide_einternal>  (1) 
0

>  <r_i_glide_emodel>  (1) 
-20.39501733531247

>  <r_i_glide_emodel_strain>  (1) 
0

>  <r_i_glide_energy>  (1) 
-15.765822118197768

>  <r_i_glide_erotb>  (1) 
0

>  <r_i_glide_esite>  (1) 
-0.013270119357364787

>  <r_i_glide_evdw>  (1) 
-13.010348488625407

>  <r_i_glide_gscore>  (1) 
-4.4781949346934997

>  <r_i_glide_gscore_strain>  (1) 
0

>  <r_i_glide_hbond>  (1) 
-0.32000000000000001

>  <r_i_glide_ligand_efficiency>  (1) 
-0.63974213352764286

>  <r_i_glide_ligand_efficiency_ln>  (1) 
-1.520139687943149

>  <r_i_glide_ligand_efficiency_sa>  (1) 
-1.2237826761583654

>  <r_i_glide_lipo>  (1) 
-0.23878129530664513

>  <r_i_glide_metal>  (1) 
-0

>  <r_i_glide_rewards>  (1) 
-2.8423050511623655

>  <r_lp_Energy>  (1) 
12.58291

>  <r_lp_tautomer_probability>  (1) 
1

>  <s_epik_Chemistry_Notes>  (1) 
This compound has an ester and may undergo hydrolysis at high or low pH.

>  <s_epik_cmdline>  (1) 
J2VwaWtfcHl0aG9uJywgJy1waHQnLCAnMS4wJywgJy1waCcsICc3LjQnLCAnLXRuJywgJzgnLCAnLW1hJywgJzUwMCcsICctaW1hZScsICc8aW5maWxlLm1hZT4nLCAnLW9tYWUnLCAnPG91dGZpbGUubWFlPic=

>  <s_epik_input>  (1) 
W0NIMl0xT1tDSDJdW0NIMl1PQzE9Tw==

>  <s_glide_docking_method>  (1) 
confgen

>  <s_i_glide_gridfile>  (1) 
gpcr_5ht2c_6bqh_protein_autoprepared_prepared

>  <s_lp_Force_Field>  (1) 
S-OPLS

>  <s_lp_Variant>  (1) 
Pocket2Mol_26-1

>  <s_m_source_file>  (1) 
generated_GPCR_5HT2C_ligand_Pocket2Mol_2026-06-23_prepared.sdf

>  <GenAI_Model>  (1) 
Pocket2Mol

>  <Protein>  (1) 
GPCR_5HT2C

$$$$
Pocket2Mol_10
     RDKit          3D

  0  0  0  0  0  0  0  0  0  0999 V3000
M  V30 BEGIN CTAB
M  V30 COUNTS 14 14 0 0 1
M  V30 BEGIN ATOM
M  V30 1 C 35.245203 33.201866 61.220257 0
M  V30 2 O 35.644956 31.842570 61.364209 0
M  V30 3 C 36.140744 31.337755 60.128989 0
M  V30 4 C 36.466989 34.040079 60.805890 0
M  V30 5 O 36.985757 33.540269 59.581227 0
M  V30 6 C 37.358362 32.171691 59.689739 0
M  V30 7 H 34.445093 33.289343 60.482967 0
M  V30 8 H 34.845194 33.563883 62.167757 0
M  V30 9 H 36.425829 30.293269 60.255179 0
M  V30 10 H 35.358993 31.365177 59.367776 0
M  V30 11 H 36.183917 35.083499 60.669038 0
M  V30 12 H 37.236554 34.012944 61.578647 0
M  V30 13 H 38.178445 32.062193 60.400648 0
M  V30 14 H 37.722889 31.825778 58.722244 0
M  V30 END ATOM
M  V30 BEGIN BOND
M  V30 1 1 2 1
M  V30 2 1 3 2
M  V30 3 1 4 1
M  V30 4 1 5 4
M  V30 5 1 6 3
M  V30 6 1 6 5
M  V30 7 1 7 1
M  V30 8 1 8 1
M  V30 9 1 9 3
M  V30 10 1 10 3
M  V30 11 1 11 4
M  V30 12 1 12 4
M  V30 13 1 13 6
M  V30 14 1 14 6
M  V30 END BOND
M  V30 END CTAB
M  END
>  <i_epik_Tot_Q>  (1) 
0

>  <i_epik_Tot_abs_Q>  (1) 
0

>  <i_i_glide_confnum>  (1) 
2

>  <i_i_glide_lignum>  (1) 
11

>  <i_i_glide_posenum>  (1) 
215

>  <i_i_glide_rotatable_bonds>  (1) 
0

>  <i_lp_mmshare_version>  (1) 
72125

>  <i_m_source_file_index>  (1) 
11

>  <i_f3d_flags>  (1) 
0

>  <num_sample>  (1) 
50

>  <b_lp_Chiralities_Consistent>  (1) 
1

>  <r_epik_Charging_Adjusted_Penalty>  (1) 
0

>  <r_epik_Ionization_Penalty>  (1) 
8.3894707547109138e-13

>  <r_epik_Ionization_Penalty_Charging>  (1) 
0

>  <r_epik_Ionization_Penalty_Neutral>  (1) 
8.3894707547109138e-13

>  <r_epik_State_Penalty>  (1) 
-0

>  <r_glide_ring_energy>  (1) 
0.00013676017923054334

>  <r_i_docking_score>  (1) 
-4.4683855650306556

>  <r_i_glide_ecoul>  (1) 
-1.8424616566501466

>  <r_i_glide_eff_state_penalty>  (1) 
-0

>  <r_i_glide_einternal>  (1) 
0

>  <r_i_glide_emodel>  (1) 
-17.011760080339201

>  <r_i_glide_emodel_strain>  (1) 
0

>  <r_i_glide_energy>  (1) 
-13.286724457889587

>  <r_i_glide_erotb>  (1) 
0

>  <r_i_glide_esite>  (1) 
0

>  <r_i_glide_evdw>  (1) 
-11.444262801239441

>  <r_i_glide_gscore>  (1) 
-4.4683855650306556

>  <r_i_glide_gscore_strain>  (1) 
0

>  <r_i_glide_hbond>  (1) 
-0.30388369481158301

>  <r_i_glide_ligand_efficiency>  (1) 
-0.74473092750510927

>  <r_i_glide_ligand_efficiency_ln>  (1) 
-1.6005625177537957

>  <r_i_glide_ligand_efficiency_sa>  (1) 
-1.3532659044885136

>  <r_i_glide_lipo>  (1) 
-0.33378886713010497

>  <r_i_glide_metal>  (1) 
-0

>  <r_i_glide_rewards>  (1) 
-2.9821306145294733

>  <r_lp_Energy>  (1) 
4.964817

>  <r_lp_tautomer_probability>  (1) 
1

>  <s_epik_cmdline>  (1) 
J2VwaWtfcHl0aG9uJywgJy1waHQnLCAnMS4wJywgJy1waCcsICc3LjQnLCAnLXRuJywgJzgnLCAnLW1hJywgJzUwMCcsICctaW1hZScsICc8aW5maWxlLm1hZT4nLCAnLW9tYWUnLCAnPG91dGZpbGUubWFlPic=

>  <s_epik_input>  (1) 
W0NIMl0xT1tDSDJdW0NIMl1PW0NIMl0x

>  <s_glide_docking_method>  (1) 
confgen

>  <s_i_glide_gridfile>  (1) 
gpcr_5ht2c_6bqh_protein_autoprepared_prepared

>  <s_lp_Force_Field>  (1) 
S-OPLS

>  <s_lp_Variant>  (1) 
Pocket2Mol_10-1

>  <s_m_source_file>  (1) 
generated_GPCR_5HT2C_ligand_Pocket2Mol_2026-06-23_prepared.sdf

>  <GenAI_Model>  (1) 
Pocket2Mol

>  <Protein>  (1) 
GPCR_5HT2C

$$$$
Pocket2Mol_24
     RDKit          3D

  0  0  0  0  0  0  0  0  0  0999 V3000
M  V30 BEGIN CTAB
M  V30 COUNTS 16 16 0 0 1
M  V30 BEGIN ATOM
M  V30 1 C 40.045137 29.890906 51.531824 0
M  V30 2 C 39.598149 30.160169 52.908289 0
M  V30 3 C 39.619847 28.798856 50.995035 0
M  V30 4 C 38.738952 27.962284 51.826066 0
M  V30 5 N 38.660522 28.939616 53.014505 0 CHG=1
M  V30 6 C 38.689568 28.274676 54.333654 0
M  V30 7 H 40.697193 30.588163 51.023801 0
M  V30 8 H 40.437062 30.137754 53.604997 0
M  V30 9 H 39.067611 31.108048 52.997674 0
M  V30 10 H 39.878624 28.490322 49.992511 0
M  V30 11 H 37.764764 27.789618 51.367752 0
M  V30 12 H 39.222033 27.015960 52.074093 0
M  V30 13 H 39.645137 27.781010 54.506978 0
M  V30 14 H 38.527023 28.999975 55.131981 0
M  V30 15 H 37.901807 27.522999 54.397875 0
M  V30 16 H 37.735250 29.337734 52.944171 0
M  V30 END ATOM
M  V30 BEGIN BOND
M  V30 1 1 2 1
M  V30 2 2 3 1
M  V30 3 1 4 3
M  V30 4 1 5 2
M  V30 5 1 5 4
M  V30 6 1 6 5
M  V30 7 1 7 1
M  V30 8 1 8 2
M  V30 9 1 9 2
M  V30 10 1 10 3
M  V30 11 1 11 4
M  V30 12 1 12 4
M  V30 13 1 13 6
M  V30 14 1 14 6
M  V30 15 1 15 6
M  V30 16 1 16 5
M  V30 END BOND
M  V30 END CTAB
M  END
>  <i_epik_Tot_Q>  (1) 
1

>  <i_epik_Tot_abs_Q>  (1) 
1

>  <i_i_glide_confnum>  (1) 
1

>  <i_i_glide_lignum>  (1) 
25

>  <i_i_glide_posenum>  (1) 
138

>  <i_i_glide_rotatable_bonds>  (1) 
0

>  <i_lp_mmshare_version>  (1) 
72125

>  <i_m_source_file_index>  (1) 
25

>  <i_f3d_flags>  (1) 
0

>  <num_sample>  (1) 
50

>  <b_lp_Chiralities_Consistent>  (1) 
1

>  <r_epik_Charging_Adjusted_Penalty>  (1) 
0.0014863909170882658

>  <r_epik_Ionization_Penalty>  (1) 
0.0014863909170882658

>  <r_epik_Ionization_Penalty_Charging>  (1) 
0.0014863909170882658

>  <r_epik_Ionization_Penalty_Neutral>  (1) 
0

>  <r_epik_State_Penalty>  (1) 
-0

>  <r_glide_ring_energy>  (1) 
0

>  <r_i_docking_score>  (1) 
-4.4589748846617869

>  <r_i_glide_ecoul>  (1) 
-0.43945735328895008

>  <r_i_glide_eff_state_penalty>  (1) 
-0

>  <r_i_glide_einternal>  (1) 
0

>  <r_i_glide_emodel>  (1) 
-19.338749160479825

>  <r_i_glide_emodel_strain>  (1) 
0

>  <r_i_glide_energy>  (1) 
-12.56009782409344

>  <r_i_glide_erotb>  (1) 
0

>  <r_i_glide_esite>  (1) 
0

>  <r_i_glide_evdw>  (1) 
-12.120640470804489

>  <r_i_glide_gscore>  (1) 
-4.4589748846617869

>  <r_i_glide_gscore_strain>  (1) 
0

>  <r_i_glide_hbond>  (1) 
0

>  <r_i_glide_ligand_efficiency>  (1) 
-0.74316248077696445

>  <r_i_glide_ligand_efficiency_ln>  (1) 
-1.5971916398280297

>  <r_i_glide_ligand_efficiency_sa>  (1) 
-1.3504158476400414

>  <r_i_glide_lipo>  (1) 
-1.5370242581282196

>  <r_i_glide_metal>  (1) 
-0

>  <r_i_glide_rewards>  (1) 
-2.25

>  <r_lp_Energy>  (1) 
6.8415840000000001

>  <r_lp_tautomer_probability>  (1) 
1

>  <s_epik_cmdline>  (1) 
J2VwaWtfcHl0aG9uJywgJy1waHQnLCAnMS4wJywgJy1waCcsICc3LjQnLCAnLXRuJywgJzgnLCAnLW1hJywgJzUwMCcsICctaW1hZScsICc8aW5maWxlLm1hZT4nLCAnLW9tYWUnLCAnPG91dGZpbGUubWFlPic=

>  <s_epik_input>  (1) 
W0NIMl0xW0NIXT1bQ0hdW0NIMl1OMVtDSDNd

>  <s_glide_docking_method>  (1) 
confgen

>  <s_i_glide_gridfile>  (1) 
gpcr_5ht2c_6bqh_protein_autoprepared_prepared

>  <s_lp_Force_Field>  (1) 
S-OPLS

>  <s_lp_Variant>  (1) 
Pocket2Mol_24-1

>  <s_m_source_file>  (1) 
generated_GPCR_5HT2C_ligand_Pocket2Mol_2026-06-23_prepared.sdf

>  <GenAI_Model>  (1) 
Pocket2Mol

>  <Protein>  (1) 
GPCR_5HT2C

$$$$
Pocket2Mol_17
     RDKit          3D

  0  0  0  0  0  0  0  0  0  0999 V3000
M  V30 BEGIN CTAB
M  V30 COUNTS 10 10 0 0 1
M  V30 BEGIN ATOM
M  V30 1 C 39.611799 28.401689 50.617595 0
M  V30 2 O 38.528415 27.685408 51.367759 0
M  V30 3 C 38.337691 28.272922 52.626847 0
M  V30 4 C 39.941358 29.419625 51.664777 0
M  V30 5 C 39.245075 29.337764 52.746386 0
M  V30 6 O 37.517945 27.917550 53.470454 0
M  V30 7 H 39.245137 28.868317 49.704292 0
M  V30 8 H 40.711634 30.158543 51.497458 0
M  V30 9 H 39.320161 29.969895 53.618995 0
M  V30 10 H 40.445138 27.737756 50.399732 0
M  V30 END ATOM
M  V30 BEGIN BOND
M  V30 1 1 2 1
M  V30 2 1 3 2
M  V30 3 1 4 1
M  V30 4 1 5 3
M  V30 5 2 5 4
M  V30 6 2 6 3
M  V30 7 1 7 1
M  V30 8 1 8 4
M  V30 9 1 9 5
M  V30 10 1 10 1
M  V30 END BOND
M  V30 END CTAB
M  END
>  <i_epik_Tot_Q>  (1) 
0

>  <i_epik_Tot_abs_Q>  (1) 
0

>  <i_i_glide_confnum>  (1) 
1

>  <i_i_glide_lignum>  (1) 
18

>  <i_i_glide_posenum>  (1) 
70

>  <i_i_glide_rotatable_bonds>  (1) 
0

>  <i_lp_mmshare_version>  (1) 
72125

>  <i_m_source_file_index>  (1) 
18

>  <i_f3d_flags>  (1) 
0

>  <num_sample>  (1) 
50

>  <b_lp_Chiralities_Consistent>  (1) 
1

>  <r_epik_Charging_Adjusted_Penalty>  (1) 
0

>  <r_epik_Ionization_Penalty>  (1) 
0

>  <r_epik_Ionization_Penalty_Charging>  (1) 
0

>  <r_epik_Ionization_Penalty_Neutral>  (1) 
0

>  <r_epik_State_Penalty>  (1) 
-0

>  <r_glide_ring_energy>  (1) 
0

>  <r_i_docking_score>  (1) 
-4.4584967726647999

>  <r_i_glide_ecoul>  (1) 
0.19477973744901275

>  <r_i_glide_eff_state_penalty>  (1) 
-0

>  <r_i_glide_einternal>  (1) 
0

>  <r_i_glide_emodel>  (1) 
-19.650634229283412

>  <r_i_glide_emodel_strain>  (1) 
0

>  <r_i_glide_energy>  (1) 
-15.155869712323232

>  <r_i_glide_erotb>  (1) 
0

>  <r_i_glide_esite>  (1) 
0

>  <r_i_glide_evdw>  (1) 
-15.350649449772245

>  <r_i_glide_gscore>  (1) 
-4.4584967726647999

>  <r_i_glide_gscore_strain>  (1) 
0

>  <r_i_glide_hbond>  (1) 
0

>  <r_i_glide_ligand_efficiency>  (1) 
-0.74308279544413336

>  <r_i_glide_ligand_efficiency_ln>  (1) 
-1.5970203815221988

>  <r_i_glide_ligand_efficiency_sa>  (1) 
-1.3502710497808073

>  <r_i_glide_lipo>  (1) 
-0.91427910497615628

>  <r_i_glide_metal>  (1) 
-0

>  <r_i_glide_rewards>  (1) 
-2.8059021558173836

>  <r_lp_Energy>  (1) 
-7.0611199999999998

>  <r_lp_tautomer_probability>  (1) 
1

>  <s_epik_Chemistry_Notes>  (1) 
This compound has an ester and may undergo hydrolysis at high or low pH.

>  <s_epik_cmdline>  (1) 
J2VwaWtfcHl0aG9uJywgJy1waHQnLCAnMS4wJywgJy1waCcsICc3LjQnLCAnLXRuJywgJzgnLCAnLW1hJywgJzUwMCcsICctaW1hZScsICc8aW5maWxlLm1hZT4nLCAnLW9tYWUnLCAnPG91dGZpbGUubWFlPic=

>  <s_epik_input>  (1) 
W0NIMl0xW0NIXT1bQ0hdT0MxPU8=

>  <s_glide_docking_method>  (1) 
confgen

>  <s_i_glide_gridfile>  (1) 
gpcr_5ht2c_6bqh_protein_autoprepared_prepared

>  <s_lp_Force_Field>  (1) 
S-OPLS

>  <s_lp_Variant>  (1) 
Pocket2Mol_17-1

>  <s_m_source_file>  (1) 
generated_GPCR_5HT2C_ligand_Pocket2Mol_2026-06-23_prepared.sdf

>  <GenAI_Model>  (1) 
Pocket2Mol

>  <Protein>  (1) 
GPCR_5HT2C

$$$$
Pocket2Mol_49
     RDKit          3D

  0  0  0  0  0  0  0  0  0  0999 V3000
M  V30 BEGIN CTAB
M  V30 COUNTS 13 13 0 0 1
M  V30 BEGIN ATOM
M  V30 1 C 40.109202 30.137755 50.608442 0
M  V30 2 O 40.215203 30.937751 51.778717 0
M  V30 3 C 39.645136 30.267005 52.900159 0
M  V30 4 C 39.905459 28.715898 51.115203 0
M  V30 5 C 39.096602 28.937754 52.373840 0
M  V30 6 H 39.245137 30.473190 50.037499 0
M  V30 7 H 40.991455 30.237792 49.975397 0
M  V30 8 H 40.431380 30.118720 53.640039 0
M  V30 9 H 38.867334 30.871978 53.367764 0
M  V30 10 H 39.407449 28.070812 50.390283 0
M  V30 11 H 40.866701 28.271882 51.367760 0
M  V30 12 H 39.191461 28.123663 53.092874 0
M  V30 13 H 38.041507 29.039141 52.118399 0
M  V30 END ATOM
M  V30 BEGIN BOND
M  V30 1 1 2 1
M  V30 2 1 3 2
M  V30 3 1 4 1
M  V30 4 1 5 3
M  V30 5 1 5 4
M  V30 6 1 6 1
M  V30 7 1 7 1
M  V30 8 1 8 3
M  V30 9 1 9 3
M  V30 10 1 10 4
M  V30 11 1 11 4
M  V30 12 1 12 5
M  V30 13 1 13 5
M  V30 END BOND
M  V30 END CTAB
M  END
>  <i_epik_Tot_Q>  (1) 
0

>  <i_epik_Tot_abs_Q>  (1) 
0

>  <i_i_glide_confnum>  (1) 
3

>  <i_i_glide_lignum>  (1) 
50

>  <i_i_glide_posenum>  (1) 
324

>  <i_i_glide_rotatable_bonds>  (1) 
0

>  <i_lp_mmshare_version>  (1) 
72125

>  <i_m_source_file_index>  (1) 
50

>  <i_f3d_flags>  (1) 
0

>  <num_sample>  (1) 
50

>  <b_lp_Chiralities_Consistent>  (1) 
1

>  <r_epik_Charging_Adjusted_Penalty>  (1) 
0

>  <r_epik_Ionization_Penalty>  (1) 
1.3889264151150229e-11

>  <r_epik_Ionization_Penalty_Charging>  (1) 
0

>  <r_epik_Ionization_Penalty_Neutral>  (1) 
1.3889264151150229e-11

>  <r_epik_State_Penalty>  (1) 
-0

>  <r_glide_ring_energy>  (1) 
0.22161987042107956

>  <r_i_docking_score>  (1) 
-4.4520921089962817

>  <r_i_glide_ecoul>  (1) 
0.43019288019039326

>  <r_i_glide_eff_state_penalty>  (1) 
-0

>  <r_i_glide_einternal>  (1) 
0

>  <r_i_glide_emodel>  (1) 
-16.140276879027926

>  <r_i_glide_emodel_strain>  (1) 
0

>  <r_i_glide_energy>  (1) 
-12.50601396372838

>  <r_i_glide_erotb>  (1) 
0

>  <r_i_glide_esite>  (1) 
0

>  <r_i_glide_evdw>  (1) 
-12.936206843918773

>  <r_i_glide_gscore>  (1) 
-4.4520921089962817

>  <r_i_glide_gscore_strain>  (1) 
0

>  <r_i_glide_hbond>  (1) 
0

>  <r_i_glide_ligand_efficiency>  (1) 
-0.89041842179925634

>  <r_i_glide_ligand_efficiency_ln>  (1) 
-1.7061498523424692

>  <r_i_glide_ligand_efficiency_sa>  (1) 
-1.522594083754554

>  <r_i_glide_lipo>  (1) 
-1.3107706824774983

>  <r_i_glide_metal>  (1) 
-0

>  <r_i_glide_rewards>  (1) 
-2.5590400163514038

>  <r_lp_Energy>  (1) 
3.9174029999999997

>  <r_lp_tautomer_probability>  (1) 
1

>  <s_epik_cmdline>  (1) 
J2VwaWtfcHl0aG9uJywgJy1waHQnLCAnMS4wJywgJy1waCcsICc3LjQnLCAnLXRuJywgJzgnLCAnLW1hJywgJzUwMCcsICctaW1hZScsICc8aW5maWxlLm1hZT4nLCAnLW9tYWUnLCAnPG91dGZpbGUubWFlPic=

>  <s_epik_input>  (1) 
W0NIMl0xT1tDSDJdW0NIMl1bQ0gyXTE=

>  <s_glide_docking_method>  (1) 
confgen

>  <s_i_glide_gridfile>  (1) 
gpcr_5ht2c_6bqh_protein_autoprepared_prepared

>  <s_lp_Force_Field>  (1) 
S-OPLS

>  <s_lp_Variant>  (1) 
Pocket2Mol_49-1

>  <s_m_source_file>  (1) 
generated_GPCR_5HT2C_ligand_Pocket2Mol_2026-06-23_prepared.sdf

>  <GenAI_Model>  (1) 
Pocket2Mol

>  <Protein>  (1) 
GPCR_5HT2C

$$$$
Pocket2Mol_24
     RDKit          3D

  0  0  0  0  0  0  0  0  0  0999 V3000
M  V30 BEGIN CTAB
M  V30 COUNTS 16 16 0 0 1
M  V30 BEGIN ATOM
M  V30 1 C 40.048226 29.762734 50.809619 0
M  V30 2 C 39.382306 28.453202 50.867680 0
M  V30 3 C 40.045137 30.454606 51.896888 0
M  V30 4 C 39.374367 29.845695 53.058306 0
M  V30 5 N 39.051122 28.503661 52.371382 0 CHG=1
M  V30 6 C 37.710507 27.973530 52.693142 0
M  V30 7 H 40.504053 30.102974 49.890387 0
M  V30 8 H 38.496265 28.447624 50.234535 0
M  V30 9 H 40.044799 27.627299 50.608692 0
M  V30 10 H 40.497200 31.431585 51.979320 0
M  V30 11 H 40.045352 29.736819 53.910336 0
M  V30 12 H 38.488733 30.409587 53.356651 0
M  V30 13 H 36.924271 28.537878 52.192218 0
M  V30 14 H 37.645211 26.937766 52.366107 0
M  V30 15 H 37.526524 27.996327 53.767913 0
M  V30 16 H 39.699192 27.852259 52.790062 0
M  V30 END ATOM
M  V30 BEGIN BOND
M  V30 1 1 2 1
M  V30 2 2 3 1
M  V30 3 1 4 3
M  V30 4 1 5 2
M  V30 5 1 5 4
M  V30 6 1 6 5
M  V30 7 1 7 1
M  V30 8 1 8 2
M  V30 9 1 9 2
M  V30 10 1 10 3
M  V30 11 1 11 4
M  V30 12 1 12 4
M  V30 13 1 13 6
M  V30 14 1 14 6
M  V30 15 1 15 6
M  V30 16 1 16 5
M  V30 END BOND
M  V30 END CTAB
M  END
>  <i_epik_Tot_Q>  (1) 
1

>  <i_epik_Tot_abs_Q>  (1) 
1

>  <i_i_glide_confnum>  (1) 
1

>  <i_i_glide_lignum>  (1) 
25

>  <i_i_glide_posenum>  (1) 
392

>  <i_i_glide_rotatable_bonds>  (1) 
0

>  <i_lp_mmshare_version>  (1) 
72125

>  <i_m_source_file_index>  (1) 
25

>  <i_f3d_flags>  (1) 
0

>  <num_sample>  (1) 
50

>  <b_lp_Chiralities_Consistent>  (1) 
1

>  <r_epik_Charging_Adjusted_Penalty>  (1) 
0.0014863909170882658

>  <r_epik_Ionization_Penalty>  (1) 
0.0014863909170882658

>  <r_epik_Ionization_Penalty_Charging>  (1) 
0.0014863909170882658

>  <r_epik_Ionization_Penalty_Neutral>  (1) 
0

>  <r_epik_State_Penalty>  (1) 
-0

>  <r_glide_ring_energy>  (1) 
0

>  <r_i_docking_score>  (1) 
-4.4483683196788082

>  <r_i_glide_ecoul>  (1) 
-0.88682805911034857

>  <r_i_glide_eff_state_penalty>  (1) 
-0

>  <r_i_glide_einternal>  (1) 
0

>  <r_i_glide_emodel>  (1) 
-20.228181409004133

>  <r_i_glide_emodel_strain>  (1) 
0

>  <r_i_glide_energy>  (1) 
-13.465654452717679

>  <r_i_glide_erotb>  (1) 
0

>  <r_i_glide_esite>  (1) 
0

>  <r_i_glide_evdw>  (1) 
-12.578826393607331

>  <r_i_glide_gscore>  (1) 
-4.4483683196788082

>  <r_i_glide_gscore_strain>  (1) 
0

>  <r_i_glide_hbond>  (1) 
0

>  <r_i_glide_ligand_efficiency>  (1) 
-0.74139471994646799

>  <r_i_glide_ligand_efficiency_ln>  (1) 
-1.5933923995639996

>  <r_i_glide_ligand_efficiency_sa>  (1) 
-1.3472036130317444

>  <r_i_glide_lipo>  (1) 
-1.4364027911318897

>  <r_i_glide_metal>  (1) 
-0

>  <r_i_glide_rewards>  (1) 
-2.25

>  <r_lp_Energy>  (1) 
6.8415840000000001

>  <r_lp_tautomer_probability>  (1) 
1

>  <s_epik_cmdline>  (1) 
J2VwaWtfcHl0aG9uJywgJy1waHQnLCAnMS4wJywgJy1waCcsICc3LjQnLCAnLXRuJywgJzgnLCAnLW1hJywgJzUwMCcsICctaW1hZScsICc8aW5maWxlLm1hZT4nLCAnLW9tYWUnLCAnPG91dGZpbGUubWFlPic=

>  <s_epik_input>  (1) 
W0NIMl0xW0NIXT1bQ0hdW0NIMl1OMVtDSDNd

>  <s_glide_docking_method>  (1) 
confgen

>  <s_i_glide_gridfile>  (1) 
gpcr_5ht2c_6bqh_protein_autoprepared_prepared

>  <s_lp_Force_Field>  (1) 
S-OPLS

>  <s_lp_Variant>  (1) 
Pocket2Mol_24-1

>  <s_m_source_file>  (1) 
generated_GPCR_5HT2C_ligand_Pocket2Mol_2026-06-23_prepared.sdf

>  <GenAI_Model>  (1) 
Pocket2Mol

>  <Protein>  (1) 
GPCR_5HT2C

$$$$
Pocket2Mol_21
     RDKit          3D

  0  0  0  0  0  0  0  0  0  0999 V3000
M  V30 BEGIN CTAB
M  V30 COUNTS 14 14 0 0 1
M  V30 BEGIN ATOM
M  V30 1 C 37.530766 28.001602 53.864811 0
M  V30 2 C 38.741231 27.249799 54.396764 0
M  V30 3 O 38.078028 28.755629 52.810308 0
M  V30 4 C 39.193628 28.054810 52.379247 0
M  V30 5 O 39.408515 26.950020 53.194754 0
M  V30 6 C 38.938415 27.562204 50.967761 0
M  V30 7 H 37.056694 28.641837 54.606423 0
M  V30 8 H 36.789985 27.309682 53.464280 0
M  V30 9 H 39.365579 27.891331 55.022362 0
M  V30 10 H 38.479347 26.354996 54.961434 0
M  V30 11 H 40.045132 28.731381 52.416473 0
M  V30 12 H 38.045143 26.937776 50.967760 0
M  V30 13 H 39.786712 26.978369 50.613181 0
M  V30 14 H 38.790250 28.410557 50.299446 0
M  V30 END ATOM
M  V30 BEGIN BOND
M  V30 1 1 2 1
M  V30 2 1 3 1
M  V30 3 1 4 3
M  V30 4 1 5 2
M  V30 5 1 5 4
M  V30 6 1 6 4
M  V30 7 1 7 1
M  V30 8 1 8 1
M  V30 9 1 9 2
M  V30 10 1 10 2
M  V30 11 1 11 4
M  V30 12 1 12 6
M  V30 13 1 13 6
M  V30 14 1 14 6
M  V30 END BOND
M  V30 END CTAB
M  END
>  <i_epik_Tot_Q>  (1) 
0

>  <i_epik_Tot_abs_Q>  (1) 
0

>  <i_i_glide_confnum>  (1) 
3

>  <i_i_glide_lignum>  (1) 
22

>  <i_i_glide_posenum>  (1) 
279

>  <i_i_glide_rotatable_bonds>  (1) 
0

>  <i_lp_mmshare_version>  (1) 
72125

>  <i_m_source_file_index>  (1) 
22

>  <i_f3d_flags>  (1) 
0

>  <num_sample>  (1) 
50

>  <b_lp_Chiralities_Consistent>  (1) 
1

>  <r_epik_Charging_Adjusted_Penalty>  (1) 
0

>  <r_epik_Ionization_Penalty>  (1) 
7.9724310449397378e-14

>  <r_epik_Ionization_Penalty_Charging>  (1) 
0

>  <r_epik_Ionization_Penalty_Neutral>  (1) 
7.9724310449397378e-14

>  <r_epik_State_Penalty>  (1) 
-0

>  <r_glide_ring_energy>  (1) 
1.2362365743684729

>  <r_i_docking_score>  (1) 
-4.4167371734164274

>  <r_i_glide_ecoul>  (1) 
-0.56226153439667181

>  <r_i_glide_eff_state_penalty>  (1) 
-0

>  <r_i_glide_einternal>  (1) 
0

>  <r_i_glide_emodel>  (1) 
-18.071048403613389

>  <r_i_glide_emodel_strain>  (1) 
0

>  <r_i_glide_energy>  (1) 
-13.995194553362344

>  <r_i_glide_erotb>  (1) 
0

>  <r_i_glide_esite>  (1) 
0

>  <r_i_glide_evdw>  (1) 
-13.432933018965672

>  <r_i_glide_gscore>  (1) 
-4.4167371734164274

>  <r_i_glide_gscore_strain>  (1) 
0

>  <r_i_glide_hbond>  (1) 
0

>  <r_i_glide_ligand_efficiency>  (1) 
-0.73612286223607126

>  <r_i_glide_ligand_efficiency_ln>  (1) 
-1.5820622163547966

>  <r_i_glide_ligand_efficiency_sa>  (1) 
-1.3376240118237013

>  <r_i_glide_lipo>  (1) 
-0.92007527282786949

>  <r_i_glide_metal>  (1) 
-0

>  <r_i_glide_rewards>  (1) 
-2.7406760194807722

>  <r_lp_Energy>  (1) 
-12.129052

>  <r_lp_tautomer_probability>  (1) 
1

>  <s_epik_Chemistry_Notes>  (1) 
This compound contains an acetal/aminal-like group ( X-CH(R)-Y where X, Y are N, S, or O) that may be acid/base labile, releasing an aldehyde.

>  <s_epik_cmdline>  (1) 
J2VwaWtfcHl0aG9uJywgJy1waHQnLCAnMS4wJywgJy1waCcsICc3LjQnLCAnLXRuJywgJzgnLCAnLW1hJywgJzUwMCcsICctaW1hZScsICc8aW5maWxlLm1hZT4nLCAnLW9tYWUnLCAnPG91dGZpbGUubWFlPic=

>  <s_epik_input>  (1) 
TzFbQ0gyXVtDSDJdT1tDSF0xW0NIM10=

>  <s_glide_docking_method>  (1) 
confgen

>  <s_i_glide_gridfile>  (1) 
gpcr_5ht2c_6bqh_protein_autoprepared_prepared

>  <s_lp_Force_Field>  (1) 
S-OPLS

>  <s_lp_Variant>  (1) 
Pocket2Mol_21-1

>  <s_m_source_file>  (1) 
generated_GPCR_5HT2C_ligand_Pocket2Mol_2026-06-23_prepared.sdf

>  <GenAI_Model>  (1) 
Pocket2Mol

>  <Protein>  (1) 
GPCR_5HT2C

$$$$
Pocket2Mol_1
     RDKit          3D

  0  0  0  0  0  0  0  0  0  0999 V3000
M  V30 BEGIN CTAB
M  V30 COUNTS 9 9 0 0 1
M  V30 BEGIN ATOM
M  V30 1 C 40.045129 29.290323 50.408622 0
M  V30 2 O 39.312803 28.146368 50.567740 0
M  V30 3 C 38.834149 28.185467 51.846251 0
M  V30 4 C 40.045136 30.032303 51.553703 0
M  V30 5 C 39.251529 29.316407 52.488079 0
M  V30 6 H 40.491600 29.417451 49.433481 0
M  V30 7 H 38.220435 27.343507 52.133037 0
M  V30 8 H 40.547314 30.978297 51.697791 0
M  V30 9 H 39.014680 29.593532 53.505351 0
M  V30 END ATOM
M  V30 BEGIN BOND
M  V30 1 1 2 1
M  V30 2 1 3 2
M  V30 3 2 4 1
M  V30 4 2 5 3
M  V30 5 1 5 4
M  V30 6 1 6 1
M  V30 7 1 7 3
M  V30 8 1 8 4
M  V30 9 1 9 5
M  V30 END BOND
M  V30 END CTAB
M  END
>  <i_epik_Tot_Q>  (1) 
0

>  <i_epik_Tot_abs_Q>  (1) 
0

>  <i_i_glide_confnum>  (1) 
1

>  <i_i_glide_lignum>  (1) 
2

>  <i_i_glide_posenum>  (1) 
99

>  <i_i_glide_rotatable_bonds>  (1) 
0

>  <i_lp_mmshare_version>  (1) 
72125

>  <i_m_source_file_index>  (1) 
2

>  <i_f3d_flags>  (1) 
0

>  <num_sample>  (1) 
50

>  <b_lp_Chiralities_Consistent>  (1) 
1

>  <r_epik_Charging_Adjusted_Penalty>  (1) 
0

>  <r_epik_Ionization_Penalty>  (1) 
0

>  <r_epik_Ionization_Penalty_Charging>  (1) 
0

>  <r_epik_Ionization_Penalty_Neutral>  (1) 
0

>  <r_epik_State_Penalty>  (1) 
-0

>  <r_glide_ring_energy>  (1) 
0

>  <r_i_docking_score>  (1) 
-4.4115202846208676

>  <r_i_glide_ecoul>  (1) 
-0.27419708975924023

>  <r_i_glide_eff_state_penalty>  (1) 
-0

>  <r_i_glide_einternal>  (1) 
0

>  <r_i_glide_emodel>  (1) 
-16.870456916804496

>  <r_i_glide_emodel_strain>  (1) 
0

>  <r_i_glide_energy>  (1) 
-13.170288350953257

>  <r_i_glide_erotb>  (1) 
0

>  <r_i_glide_esite>  (1) 
0

>  <r_i_glide_evdw>  (1) 
-12.896091261194016

>  <r_i_glide_gscore>  (1) 
-4.4115202846208676

>  <r_i_glide_gscore_strain>  (1) 
0

>  <r_i_glide_hbond>  (1) 
0

>  <r_i_glide_ligand_efficiency>  (1) 
-0.88230405692417357

>  <r_i_glide_ligand_efficiency_ln>  (1) 
-1.6906017436167979

>  <r_i_glide_ligand_efficiency_sa>  (1) 
-1.5087187149956041

>  <r_i_glide_lipo>  (1) 
-1.2755861580972803

>  <r_i_glide_metal>  (1) 
-0

>  <r_i_glide_rewards>  (1) 
-2.4500000000000002

>  <r_lp_Energy>  (1) 
2.5980879999999997

>  <r_lp_tautomer_probability>  (1) 
1

>  <s_epik_cmdline>  (1) 
J2VwaWtfcHl0aG9uJywgJy1waHQnLCAnMS4wJywgJy1waCcsICc3LjQnLCAnLXRuJywgJzgnLCAnLW1hJywgJzUwMCcsICctaW1hZScsICc8aW5maWxlLm1hZT4nLCAnLW9tYWUnLCAnPG91dGZpbGUubWFlPic=

>  <s_epik_input>  (1) 
W2NIXTFvW2NIXVtjSF1bY0hdMQ==

>  <s_glide_docking_method>  (1) 
confgen

>  <s_i_glide_gridfile>  (1) 
gpcr_5ht2c_6bqh_protein_autoprepared_prepared

>  <s_lp_Force_Field>  (1) 
S-OPLS

>  <s_lp_Variant>  (1) 
Pocket2Mol_1-1

>  <s_m_source_file>  (1) 
generated_GPCR_5HT2C_ligand_Pocket2Mol_2026-06-23_prepared.sdf

>  <GenAI_Model>  (1) 
Pocket2Mol

>  <Protein>  (1) 
GPCR_5HT2C

$$$$
Pocket2Mol_45
     RDKit          3D

  0  0  0  0  0  0  0  0  0  0999 V3000
M  V30 BEGIN CTAB
M  V30 COUNTS 11 11 0 0 1
M  V30 BEGIN ATOM
M  V30 1 C 39.644981 29.948338 52.314906 0
M  V30 2 O 38.662490 28.938408 52.392906 0
M  V30 3 C 40.078029 29.826511 50.861453 0
M  V30 4 O 40.045215 28.430637 50.662637 0
M  V30 5 C 39.080484 27.935177 51.530005 0
M  V30 6 H 39.245166 30.930528 52.565802 0
M  V30 7 H 40.445507 29.737771 53.012560 0
M  V30 8 H 39.354879 30.305552 50.199751 0
M  V30 9 H 41.064633 30.248895 50.668618 0
M  V30 10 H 39.508827 27.111707 52.102536 0
M  V30 11 H 38.222458 27.565003 50.967792 0
M  V30 END ATOM
M  V30 BEGIN BOND
M  V30 1 1 2 1
M  V30 2 1 3 1
M  V30 3 1 4 3
M  V30 4 1 5 2
M  V30 5 1 5 4
M  V30 6 1 6 1
M  V30 7 1 7 1
M  V30 8 1 8 3
M  V30 9 1 9 3
M  V30 10 1 10 5
M  V30 11 1 11 5
M  V30 END BOND
M  V30 END CTAB
M  END
>  <i_epik_Tot_Q>  (1) 
0

>  <i_epik_Tot_abs_Q>  (1) 
0

>  <i_i_glide_confnum>  (1) 
1

>  <i_i_glide_lignum>  (1) 
46

>  <i_i_glide_posenum>  (1) 
222

>  <i_i_glide_rotatable_bonds>  (1) 
0

>  <i_lp_mmshare_version>  (1) 
72125

>  <i_m_source_file_index>  (1) 
46

>  <i_f3d_flags>  (1) 
0

>  <num_sample>  (1) 
50

>  <b_lp_Chiralities_Consistent>  (1) 
1

>  <r_epik_Charging_Adjusted_Penalty>  (1) 
0

>  <r_epik_Ionization_Penalty>  (1) 
7.9724310449397378e-14

>  <r_epik_Ionization_Penalty_Charging>  (1) 
0

>  <r_epik_Ionization_Penalty_Neutral>  (1) 
7.9724310449397378e-14

>  <r_epik_State_Penalty>  (1) 
-0

>  <r_glide_ring_energy>  (1) 
0

>  <r_i_docking_score>  (1) 
-4.4093152396678281

>  <r_i_glide_ecoul>  (1) 
-0.91060203587083499

>  <r_i_glide_eff_state_penalty>  (1) 
-0

>  <r_i_glide_einternal>  (1) 
0

>  <r_i_glide_emodel>  (1) 
-16.799963469520151

>  <r_i_glide_emodel_strain>  (1) 
0.0016331953315713577

>  <r_i_glide_energy>  (1) 
-13.331767388281543

>  <r_i_glide_erotb>  (1) 
0

>  <r_i_glide_esite>  (1) 
0

>  <r_i_glide_evdw>  (1) 
-12.421165352410709

>  <r_i_glide_gscore>  (1) 
-4.4093152396678281

>  <r_i_glide_gscore_strain>  (1) 
0

>  <r_i_glide_hbond>  (1) 
0

>  <r_i_glide_ligand_efficiency>  (1) 
-0.88186304793356562

>  <r_i_glide_ligand_efficiency_ln>  (1) 
-1.6897567168228924

>  <r_i_glide_ligand_efficiency_sa>  (1) 
-1.5079646002293963

>  <r_i_glide_lipo>  (1) 
-0.66000000000000003

>  <r_i_glide_metal>  (1) 
-0

>  <r_i_glide_rewards>  (1) 
-2.9916666666666667

>  <r_lp_Energy>  (1) 
-12.242987999999999

>  <r_lp_tautomer_probability>  (1) 
1

>  <s_epik_Chemistry_Notes>  (1) 
This compound contains an acetal/aminal-like group ( X-CH(R)-Y where X, Y are N, S, or O) that may be acid/base labile, releasing an aldehyde.

>  <s_epik_cmdline>  (1) 
J2VwaWtfcHl0aG9uJywgJy1waHQnLCAnMS4wJywgJy1waCcsICc3LjQnLCAnLXRuJywgJzgnLCAnLW1hJywgJzUwMCcsICctaW1hZScsICc8aW5maWxlLm1hZT4nLCAnLW9tYWUnLCAnPG91dGZpbGUubWFlPic=

>  <s_epik_input>  (1) 
W0NIMl0xT1tDSDJdT1tDSDJdMQ==

>  <s_glide_docking_method>  (1) 
confgen

>  <s_i_glide_gridfile>  (1) 
gpcr_5ht2c_6bqh_protein_autoprepared_prepared

>  <s_lp_Force_Field>  (1) 
S-OPLS

>  <s_lp_Variant>  (1) 
Pocket2Mol_45-1

>  <s_m_source_file>  (1) 
generated_GPCR_5HT2C_ligand_Pocket2Mol_2026-06-23_prepared.sdf

>  <GenAI_Model>  (1) 
Pocket2Mol

>  <Protein>  (1) 
GPCR_5HT2C

$$$$
Pocket2Mol_48
     RDKit          3D

  0  0  0  0  0  0  0  0  0  0999 V3000
M  V30 BEGIN CTAB
M  V30 COUNTS 15 15 0 0 1
M  V30 BEGIN ATOM
M  V30 1 C 38.873477 28.933989 52.518019 0
M  V30 2 C 39.214613 28.071883 51.303816 0
M  V30 3 C 39.783846 30.162339 52.390411 0
M  V30 4 C 40.337103 30.131371 50.956252 0
M  V30 5 N 39.645140 29.025644 50.269556 0 CHG=1
M  V30 6 H 39.017804 28.400790 53.458535 0
M  V30 7 H 37.828043 29.239519 52.474646 0
M  V30 8 H 40.045124 27.407693 51.541816 0
M  V30 9 H 38.377365 27.457963 50.969011 0
M  V30 10 H 39.245141 31.089120 52.582077 0
M  V30 11 H 40.584098 30.137761 53.126466 0
M  V30 12 H 40.185200 31.075055 50.430228 0
M  V30 13 H 41.408048 29.925352 50.967759 0
M  V30 14 H 38.817023 29.397021 49.815278 0
M  V30 15 H 40.231310 28.586856 49.574846 0
M  V30 END ATOM
M  V30 BEGIN BOND
M  V30 1 1 2 1
M  V30 2 1 3 1
M  V30 3 1 4 3
M  V30 4 1 5 2
M  V30 5 1 5 4
M  V30 6 1 6 1
M  V30 7 1 7 1
M  V30 8 1 8 2
M  V30 9 1 9 2
M  V30 10 1 10 3
M  V30 11 1 11 3
M  V30 12 1 12 4
M  V30 13 1 13 4
M  V30 14 1 14 5
M  V30 15 1 15 5
M  V30 END BOND
M  V30 END CTAB
M  END
>  <i_epik_Tot_Q>  (1) 
1

>  <i_epik_Tot_abs_Q>  (1) 
1

>  <i_i_glide_confnum>  (1) 
1

>  <i_i_glide_lignum>  (1) 
49

>  <i_i_glide_posenum>  (1) 
330

>  <i_i_glide_rotatable_bonds>  (1) 
0

>  <i_lp_mmshare_version>  (1) 
72125

>  <i_m_source_file_index>  (1) 
49

>  <i_f3d_flags>  (1) 
0

>  <num_sample>  (1) 
50

>  <b_lp_Chiralities_Consistent>  (1) 
1

>  <r_epik_Charging_Adjusted_Penalty>  (1) 
0.00011848530527437102

>  <r_epik_Ionization_Penalty>  (1) 
0.00011848530527437102

>  <r_epik_Ionization_Penalty_Charging>  (1) 
0.00011848530527437102

>  <r_epik_Ionization_Penalty_Neutral>  (1) 
0

>  <r_epik_State_Penalty>  (1) 
-0

>  <r_glide_ring_energy>  (1) 
0

>  <r_i_docking_score>  (1) 
-4.4076425864504545

>  <r_i_glide_ecoul>  (1) 
-1.9451848506776361

>  <r_i_glide_eff_state_penalty>  (1) 
-0

>  <r_i_glide_einternal>  (1) 
0

>  <r_i_glide_emodel>  (1) 
-19.37186944272208

>  <r_i_glide_emodel_strain>  (1) 
0.39031177347732537

>  <r_i_glide_energy>  (1) 
-12.88094038615697

>  <r_i_glide_erotb>  (1) 
0

>  <r_i_glide_esite>  (1) 
0

>  <r_i_glide_evdw>  (1) 
-10.935755535479334

>  <r_i_glide_gscore>  (1) 
-4.4076425864504545

>  <r_i_glide_gscore_strain>  (1) 
0

>  <r_i_glide_hbond>  (1) 
0

>  <r_i_glide_ligand_efficiency>  (1) 
-0.88152851729009085

>  <r_i_glide_ligand_efficiency_ln>  (1) 
-1.6891157154756662

>  <r_i_glide_ligand_efficiency_sa>  (1) 
-1.5073925608756282

>  <r_i_glide_lipo>  (1) 
-1.3190770820748423

>  <r_i_glide_metal>  (1) 
-0

>  <r_i_glide_rewards>  (1) 
-2.25

>  <r_lp_Energy>  (1) 
17.726251999999999

>  <r_lp_tautomer_probability>  (1) 
1

>  <s_epik_cmdline>  (1) 
J2VwaWtfcHl0aG9uJywgJy1waHQnLCAnMS4wJywgJy1waCcsICc3LjQnLCAnLXRuJywgJzgnLCAnLW1hJywgJzUwMCcsICctaW1hZScsICc8aW5maWxlLm1hZT4nLCAnLW9tYWUnLCAnPG91dGZpbGUubWFlPic=

>  <s_epik_input>  (1) 
W0NIMl0xW0NIMl1bTkhdW0NIMl1bQ0gyXTE=

>  <s_glide_docking_method>  (1) 
confgen

>  <s_i_glide_gridfile>  (1) 
gpcr_5ht2c_6bqh_protein_autoprepared_prepared

>  <s_lp_Force_Field>  (1) 
S-OPLS

>  <s_lp_Variant>  (1) 
Pocket2Mol_48-1

>  <s_m_source_file>  (1) 
generated_GPCR_5HT2C_ligand_Pocket2Mol_2026-06-23_prepared.sdf

>  <GenAI_Model>  (1) 
Pocket2Mol

>  <Protein>  (1) 
GPCR_5HT2C

$$$$
Pocket2Mol_49
     RDKit          3D

  0  0  0  0  0  0  0  0  0  0999 V3000
M  V30 BEGIN CTAB
M  V30 COUNTS 13 13 0 0 1
M  V30 BEGIN ATOM
M  V30 1 C 39.835976 28.993084 51.357427 0
M  V30 2 O 39.537003 29.681940 52.567761 0
M  V30 3 C 38.742312 28.859445 53.418672 0
M  V30 4 C 38.970381 27.737859 51.368538 0
M  V30 5 C 38.845222 27.449272 52.845362 0
M  V30 6 H 39.649243 29.619724 50.484521 0
M  V30 7 H 40.893382 28.727006 51.367767 0
M  V30 8 H 39.077032 28.915325 54.454638 0
M  V30 9 H 37.710874 29.211939 53.375618 0
M  V30 10 H 37.984730 27.964916 50.967785 0
M  V30 11 H 39.396557 26.914864 50.794253 0
M  V30 12 H 39.744091 26.950144 53.209627 0
M  V30 13 H 37.983792 26.826112 53.087929 0
M  V30 END ATOM
M  V30 BEGIN BOND
M  V30 1 1 2 1
M  V30 2 1 3 2
M  V30 3 1 4 1
M  V30 4 1 5 3
M  V30 5 1 5 4
M  V30 6 1 6 1
M  V30 7 1 7 1
M  V30 8 1 8 3
M  V30 9 1 9 3
M  V30 10 1 10 4
M  V30 11 1 11 4
M  V30 12 1 12 5
M  V30 13 1 13 5
M  V30 END BOND
M  V30 END CTAB
M  END
>  <i_epik_Tot_Q>  (1) 
0

>  <i_epik_Tot_abs_Q>  (1) 
0

>  <i_i_glide_confnum>  (1) 
4

>  <i_i_glide_lignum>  (1) 
50

>  <i_i_glide_posenum>  (1) 
123

>  <i_i_glide_rotatable_bonds>  (1) 
0

>  <i_lp_mmshare_version>  (1) 
72125

>  <i_m_source_file_index>  (1) 
50

>  <i_f3d_flags>  (1) 
0

>  <num_sample>  (1) 
50

>  <b_lp_Chiralities_Consistent>  (1) 
1

>  <r_epik_Charging_Adjusted_Penalty>  (1) 
0

>  <r_epik_Ionization_Penalty>  (1) 
1.3889264151150229e-11

>  <r_epik_Ionization_Penalty_Charging>  (1) 
0

>  <r_epik_Ionization_Penalty_Neutral>  (1) 
1.3889264151150229e-11

>  <r_epik_State_Penalty>  (1) 
-0

>  <r_glide_ring_energy>  (1) 
0.22164722245690596

>  <r_i_docking_score>  (1) 
-4.3932302587150893

>  <r_i_glide_ecoul>  (1) 
-0.32718043579749329

>  <r_i_glide_eff_state_penalty>  (1) 
-0

>  <r_i_glide_einternal>  (1) 
0

>  <r_i_glide_emodel>  (1) 
-17.364852528753627

>  <r_i_glide_emodel_strain>  (1) 
0

>  <r_i_glide_energy>  (1) 
-13.778638807937408

>  <r_i_glide_erotb>  (1) 
0

>  <r_i_glide_esite>  (1) 
0

>  <r_i_glide_evdw>  (1) 
-13.451458372139916

>  <r_i_glide_gscore>  (1) 
-4.3932302587150893

>  <r_i_glide_gscore_strain>  (1) 
0

>  <r_i_glide_hbond>  (1) 
0

>  <r_i_glide_ligand_efficiency>  (1) 
-0.87864605174301791

>  <r_i_glide_ligand_efficiency_ln>  (1) 
-1.683592561363936

>  <r_i_glide_ligand_efficiency_sa>  (1) 
-1.502463614123009

>  <r_i_glide_lipo>  (1) 
-1.2617592177040504

>  <r_i_glide_metal>  (1) 
-0

>  <r_i_glide_rewards>  (1) 
-2.409821057034419

>  <r_lp_Energy>  (1) 
3.9174029999999997

>  <r_lp_tautomer_probability>  (1) 
1

>  <s_epik_cmdline>  (1) 
J2VwaWtfcHl0aG9uJywgJy1waHQnLCAnMS4wJywgJy1waCcsICc3LjQnLCAnLXRuJywgJzgnLCAnLW1hJywgJzUwMCcsICctaW1hZScsICc8aW5maWxlLm1hZT4nLCAnLW9tYWUnLCAnPG91dGZpbGUubWFlPic=

>  <s_epik_input>  (1) 
W0NIMl0xT1tDSDJdW0NIMl1bQ0gyXTE=

>  <s_glide_docking_method>  (1) 
confgen

>  <s_i_glide_gridfile>  (1) 
gpcr_5ht2c_6bqh_protein_autoprepared_prepared

>  <s_lp_Force_Field>  (1) 
S-OPLS

>  <s_lp_Variant>  (1) 
Pocket2Mol_49-1

>  <s_m_source_file>  (1) 
generated_GPCR_5HT2C_ligand_Pocket2Mol_2026-06-23_prepared.sdf

>  <GenAI_Model>  (1) 
Pocket2Mol

>  <Protein>  (1) 
GPCR_5HT2C

$$$$
Pocket2Mol_47
     RDKit          3D

  0  0  0  0  0  0  0  0  0  0999 V3000
M  V30 BEGIN CTAB
M  V30 COUNTS 15 15 0 0 1
M  V30 BEGIN ATOM
M  V30 1 C 38.287330 28.518738 52.246983 0
M  V30 2 C 39.252397 27.337754 52.366867 0
M  V30 3 C 39.131999 26.816386 53.806343 0
M  V30 4 C 37.491707 28.537867 53.552645 0
M  V30 5 C 38.434893 27.928573 54.583585 0
M  V30 6 H 38.854538 29.444473 52.144865 0
M  V30 7 H 37.645138 28.429228 51.371545 0
M  V30 8 H 39.027793 26.553827 51.642499 0
M  V30 9 H 40.266148 27.684020 52.167759 0
M  V30 10 H 38.497478 25.929828 53.819791 0
M  V30 11 H 40.094677 26.538225 54.236347 0
M  V30 12 H 37.162739 29.539513 53.830210 0
M  V30 13 H 36.606785 27.908547 53.448696 0
M  V30 14 H 37.912821 27.562005 55.468030 0
M  V30 15 H 39.163463 28.673380 54.906457 0
M  V30 END ATOM
M  V30 BEGIN BOND
M  V30 1 1 2 1
M  V30 2 1 3 2
M  V30 3 1 4 1
M  V30 4 1 5 3
M  V30 5 1 5 4
M  V30 6 1 6 1
M  V30 7 1 7 1
M  V30 8 1 8 2
M  V30 9 1 9 2
M  V30 10 1 10 3
M  V30 11 1 11 3
M  V30 12 1 12 4
M  V30 13 1 13 4
M  V30 14 1 14 5
M  V30 15 1 15 5
M  V30 END BOND
M  V30 END CTAB
M  END
>  <i_epik_Tot_Q>  (1) 
0

>  <i_epik_Tot_abs_Q>  (1) 
0

>  <i_i_glide_confnum>  (1) 
4

>  <i_i_glide_lignum>  (1) 
48

>  <i_i_glide_posenum>  (1) 
210

>  <i_i_glide_rotatable_bonds>  (1) 
0

>  <i_lp_mmshare_version>  (1) 
72125

>  <i_m_source_file_index>  (1) 
48

>  <i_f3d_flags>  (1) 
0

>  <num_sample>  (1) 
50

>  <b_lp_Chiralities_Consistent>  (1) 
1

>  <r_epik_Charging_Adjusted_Penalty>  (1) 
0

>  <r_epik_Ionization_Penalty>  (1) 
0

>  <r_epik_Ionization_Penalty_Charging>  (1) 
0

>  <r_epik_Ionization_Penalty_Neutral>  (1) 
0

>  <r_epik_State_Penalty>  (1) 
-0

>  <r_glide_ring_energy>  (1) 
0.0012162538604926188

>  <r_i_docking_score>  (1) 
-4.3894076453878794

>  <r_i_glide_ecoul>  (1) 
0.12563348314290351

>  <r_i_glide_eff_state_penalty>  (1) 
-0

>  <r_i_glide_einternal>  (1) 
0

>  <r_i_glide_emodel>  (1) 
-14.934527809685999

>  <r_i_glide_emodel_strain>  (1) 
0

>  <r_i_glide_energy>  (1) 
-11.430825524213342

>  <r_i_glide_erotb>  (1) 
0

>  <r_i_glide_esite>  (1) 
0

>  <r_i_glide_evdw>  (1) 
-11.556459007356246

>  <r_i_glide_gscore>  (1) 
-4.3894076453878794

>  <r_i_glide_gscore_strain>  (1) 
0

>  <r_i_glide_hbond>  (1) 
0

>  <r_i_glide_ligand_efficiency>  (1) 
-0.87788152907757588

>  <r_i_glide_ligand_efficiency_ln>  (1) 
-1.6821276430729144

>  <r_i_glide_ligand_efficiency_sa>  (1) 
-1.501156298754414

>  <r_i_glide_lipo>  (1) 
-1.3938594899028447

>  <r_i_glide_metal>  (1) 
-0

>  <r_i_glide_rewards>  (1) 
-2.4365702275886578

>  <r_lp_Energy>  (1) 
13.274989999999999

>  <r_lp_tautomer_probability>  (1) 
1

>  <s_epik_cmdline>  (1) 
J2VwaWtfcHl0aG9uJywgJy1waHQnLCAnMS4wJywgJy1waCcsICc3LjQnLCAnLXRuJywgJzgnLCAnLW1hJywgJzUwMCcsICctaW1hZScsICc8aW5maWxlLm1hZT4nLCAnLW9tYWUnLCAnPG91dGZpbGUubWFlPic=

>  <s_epik_input>  (1) 
W0NIMl0xW0NIMl1bQ0gyXVtDSDJdW0NIMl0x

>  <s_glide_docking_method>  (1) 
confgen

>  <s_i_glide_gridfile>  (1) 
gpcr_5ht2c_6bqh_protein_autoprepared_prepared

>  <s_lp_Force_Field>  (1) 
S-OPLS

>  <s_lp_Variant>  (1) 
Pocket2Mol_47-1

>  <s_m_source_file>  (1) 
generated_GPCR_5HT2C_ligand_Pocket2Mol_2026-06-23_prepared.sdf

>  <GenAI_Model>  (1) 
Pocket2Mol

>  <Protein>  (1) 
GPCR_5HT2C

$$$$
Pocket2Mol_44
     RDKit          3D

  0  0  0  0  0  0  0  0  0  0999 V3000
M  V30 BEGIN CTAB
M  V30 COUNTS 12 11 0 0 1
M  V30 BEGIN ATOM
M  V30 1 C 40.399992 30.137770 50.680965 0
M  V30 2 O 39.645162 29.731080 51.808363 0
M  V30 3 C 39.118355 28.495554 51.838924 0
M  V30 4 C 38.295183 28.276116 53.122487 0
M  V30 5 O 39.245137 27.631697 50.967613 0
M  V30 6 O 37.709777 27.225576 53.377950 0
M  V30 7 N 38.289386 29.343520 53.923746 0
M  V30 8 H 40.752441 31.159717 50.820057 0
M  V30 9 H 41.269174 29.493631 50.542047 0
M  V30 10 H 39.793525 30.106817 49.774934 0
M  V30 11 H 38.784415 30.175957 53.638037 0
M  V30 12 H 37.781247 29.313621 54.794384 0
M  V30 END ATOM
M  V30 BEGIN BOND
M  V30 1 1 2 1
M  V30 2 1 3 2
M  V30 3 1 4 3
M  V30 4 2 5 3
M  V30 5 2 6 4
M  V30 6 1 7 4
M  V30 7 1 8 1
M  V30 8 1 9 1
M  V30 9 1 10 1
M  V30 10 1 11 7
M  V30 11 1 12 7
M  V30 END BOND
M  V30 END CTAB
M  END
>  <i_epik_Tot_Q>  (1) 
0

>  <i_epik_Tot_abs_Q>  (1) 
0

>  <i_i_glide_confnum>  (1) 
1

>  <i_i_glide_lignum>  (1) 
45

>  <i_i_glide_posenum>  (1) 
331

>  <i_i_glide_rotatable_bonds>  (1) 
2

>  <i_lp_mmshare_version>  (1) 
72125

>  <i_m_source_file_index>  (1) 
45

>  <i_f3d_flags>  (1) 
0

>  <num_sample>  (1) 
50

>  <b_lp_Chiralities_Consistent>  (1) 
1

>  <r_epik_Charging_Adjusted_Penalty>  (1) 
0

>  <r_epik_Ionization_Penalty>  (1) 
3.9236796398539443e-05

>  <r_epik_Ionization_Penalty_Charging>  (1) 
0

>  <r_epik_Ionization_Penalty_Neutral>  (1) 
3.9236796398539443e-05

>  <r_epik_State_Penalty>  (1) 
-0

>  <r_glide_ring_energy>  (1) 
0

>  <r_i_docking_score>  (1) 
-4.3890332357449537

>  <r_i_glide_ecoul>  (1) 
0.54066936510913777

>  <r_i_glide_eff_state_penalty>  (1) 
-0

>  <r_i_glide_einternal>  (1) 
1.5824552813316526

>  <r_i_glide_emodel>  (1) 
-24.190622059469995

>  <r_i_glide_emodel_strain>  (1) 
0

>  <r_i_glide_energy>  (1) 
-19.262040629070825

>  <r_i_glide_erotb>  (1) 
0

>  <r_i_glide_esite>  (1) 
0

>  <r_i_glide_evdw>  (1) 
-19.802709994179963

>  <r_i_glide_gscore>  (1) 
-4.3890332357449537

>  <r_i_glide_gscore_strain>  (1) 
0

>  <r_i_glide_hbond>  (1) 
0

>  <r_i_glide_ligand_efficiency>  (1) 
-0.62700474796356487

>  <r_i_glide_ligand_efficiency_ln>  (1) 
-1.4898734223623273

>  <r_i_glide_ligand_efficiency_sa>  (1) 
-1.1994169341258458

>  <r_i_glide_lipo>  (1) 
-0.33000000000000002

>  <r_i_glide_metal>  (1) 
-0

>  <r_i_glide_rewards>  (1) 
-3.1499981408023259

>  <r_lp_Energy>  (1) 
8.3220650000000003

>  <r_lp_tautomer_probability>  (1) 
1

>  <s_epik_Chemistry_Notes>  (1) 
This compound has an ester and may undergo hydrolysis at high or low pH.

>  <s_epik_cmdline>  (1) 
J2VwaWtfcHl0aG9uJywgJy1waHQnLCAnMS4wJywgJy1waCcsICc3LjQnLCAnLXRuJywgJzgnLCAnLW1hJywgJzUwMCcsICctaW1hZScsICc8aW5maWxlLm1hZT4nLCAnLW9tYWUnLCAnPG91dGZpbGUubWFlPic=

>  <s_epik_input>  (1) 
W0NIM11PQyg9TylDKD1PKVtOSDJd

>  <s_glide_docking_method>  (1) 
confgen

>  <s_i_glide_gridfile>  (1) 
gpcr_5ht2c_6bqh_protein_autoprepared_prepared

>  <s_lp_Force_Field>  (1) 
S-OPLS

>  <s_lp_Variant>  (1) 
Pocket2Mol_44-1

>  <s_m_source_file>  (1) 
generated_GPCR_5HT2C_ligand_Pocket2Mol_2026-06-23_prepared.sdf

>  <GenAI_Model>  (1) 
Pocket2Mol

>  <Protein>  (1) 
GPCR_5HT2C

$$$$
Pocket2Mol_45
     RDKit          3D

  0  0  0  0  0  0  0  0  0  0999 V3000
M  V30 BEGIN CTAB
M  V30 COUNTS 11 11 0 0 1
M  V30 BEGIN ATOM
M  V30 1 C 40.542954 30.537513 50.326841 0
M  V30 2 O 40.201518 29.340347 49.659075 0
M  V30 3 C 40.045197 30.329387 51.756698 0
M  V30 4 O 39.084624 29.313022 51.602515 0
M  V30 5 C 39.621738 28.519559 50.609515 0
M  V30 6 H 41.616534 30.726781 50.288706 0
M  V30 7 H 40.027182 31.368385 49.845604 0
M  V30 8 H 40.845137 29.950204 52.388761 0
M  V30 9 H 39.645210 31.238686 52.206469 0
M  V30 10 H 38.845648 27.900630 50.160955 0
M  V30 11 H 40.387347 27.872182 51.037392 0
M  V30 END ATOM
M  V30 BEGIN BOND
M  V30 1 1 2 1
M  V30 2 1 3 1
M  V30 3 1 4 3
M  V30 4 1 5 2
M  V30 5 1 5 4
M  V30 6 1 6 1
M  V30 7 1 7 1
M  V30 8 1 8 3
M  V30 9 1 9 3
M  V30 10 1 10 5
M  V30 11 1 11 5
M  V30 END BOND
M  V30 END CTAB
M  END
>  <i_epik_Tot_Q>  (1) 
0

>  <i_epik_Tot_abs_Q>  (1) 
0

>  <i_i_glide_confnum>  (1) 
2

>  <i_i_glide_lignum>  (1) 
46

>  <i_i_glide_posenum>  (1) 
318

>  <i_i_glide_rotatable_bonds>  (1) 
0

>  <i_lp_mmshare_version>  (1) 
72125

>  <i_m_source_file_index>  (1) 
46

>  <i_f3d_flags>  (1) 
0

>  <num_sample>  (1) 
50

>  <b_lp_Chiralities_Consistent>  (1) 
1

>  <r_epik_Charging_Adjusted_Penalty>  (1) 
0

>  <r_epik_Ionization_Penalty>  (1) 
7.9724310449397378e-14

>  <r_epik_Ionization_Penalty_Charging>  (1) 
0

>  <r_epik_Ionization_Penalty_Neutral>  (1) 
7.9724310449397378e-14

>  <r_epik_State_Penalty>  (1) 
-0

>  <r_glide_ring_energy>  (1) 
1.1396681620093737e-05

>  <r_i_docking_score>  (1) 
-4.3871216438124447

>  <r_i_glide_ecoul>  (1) 
-0.80190712607481185

>  <r_i_glide_eff_state_penalty>  (1) 
-0

>  <r_i_glide_einternal>  (1) 
0

>  <r_i_glide_emodel>  (1) 
-16.25536437095046

>  <r_i_glide_emodel_strain>  (1) 
0.038838253027700276

>  <r_i_glide_energy>  (1) 
-12.841838188197453

>  <r_i_glide_erotb>  (1) 
0

>  <r_i_glide_esite>  (1) 
0

>  <r_i_glide_evdw>  (1) 
-12.039931062122641

>  <r_i_glide_gscore>  (1) 
-4.3871216438124447

>  <r_i_glide_gscore_strain>  (1) 
0

>  <r_i_glide_hbond>  (1) 
0

>  <r_i_glide_ligand_efficiency>  (1) 
-0.87742432876248899

>  <r_i_glide_ligand_efficiency_ln>  (1) 
-1.6812515917346005

>  <r_i_glide_ligand_efficiency_sa>  (1) 
-1.5003744972128024

>  <r_i_glide_lipo>  (1) 
-0.56483902179509049

>  <r_i_glide_metal>  (1) 
-0

>  <r_i_glide_rewards>  (1) 
-3.1000000000000001

>  <r_lp_Energy>  (1) 
-12.242987999999999

>  <r_lp_tautomer_probability>  (1) 
1

>  <s_epik_Chemistry_Notes>  (1) 
This compound contains an acetal/aminal-like group ( X-CH(R)-Y where X, Y are N, S, or O) that may be acid/base labile, releasing an aldehyde.

>  <s_epik_cmdline>  (1) 
J2VwaWtfcHl0aG9uJywgJy1waHQnLCAnMS4wJywgJy1waCcsICc3LjQnLCAnLXRuJywgJzgnLCAnLW1hJywgJzUwMCcsICctaW1hZScsICc8aW5maWxlLm1hZT4nLCAnLW9tYWUnLCAnPG91dGZpbGUubWFlPic=

>  <s_epik_input>  (1) 
W0NIMl0xT1tDSDJdT1tDSDJdMQ==

>  <s_glide_docking_method>  (1) 
confgen

>  <s_i_glide_gridfile>  (1) 
gpcr_5ht2c_6bqh_protein_autoprepared_prepared

>  <s_lp_Force_Field>  (1) 
S-OPLS

>  <s_lp_Variant>  (1) 
Pocket2Mol_45-1

>  <s_m_source_file>  (1) 
generated_GPCR_5HT2C_ligand_Pocket2Mol_2026-06-23_prepared.sdf

>  <GenAI_Model>  (1) 
Pocket2Mol

>  <Protein>  (1) 
GPCR_5HT2C

$$$$
Pocket2Mol_3
     RDKit          3D

  0  0  0  0  0  0  0  0  0  0999 V3000
M  V30 BEGIN CTAB
M  V30 COUNTS 12 12 0 0 1
M  V30 BEGIN ATOM
M  V30 1 C 40.081001 29.724015 51.331521 0
M  V30 2 C 39.645137 29.956846 52.567813 0
M  V30 3 C 39.576359 28.397230 50.824415 0
M  V30 4 C 38.775236 27.866756 52.035081 0
M  V30 5 N 38.843719 28.937765 53.023675 0
M  V30 6 H 39.851530 30.795778 53.215882 0
M  V30 7 H 38.945853 28.537753 49.946454 0
M  V30 8 H 40.404355 27.738497 50.562511 0
M  V30 9 H 37.740497 27.652236 51.767880 0
M  V30 10 H 39.217383 26.954174 52.434831 0
M  V30 11 H 40.726643 30.367969 50.752842 0
M  V30 12 H 38.702211 28.748065 54.005555 0
M  V30 END ATOM
M  V30 BEGIN BOND
M  V30 1 2 2 1
M  V30 2 1 3 1
M  V30 3 1 4 3
M  V30 4 1 5 2
M  V30 5 1 5 4
M  V30 6 1 6 2
M  V30 7 1 7 3
M  V30 8 1 8 3
M  V30 9 1 9 4
M  V30 10 1 10 4
M  V30 11 1 11 1
M  V30 12 1 12 5
M  V30 END BOND
M  V30 END CTAB
M  END
>  <i_epik_Tot_Q>  (1) 
0

>  <i_epik_Tot_abs_Q>  (1) 
0

>  <i_i_glide_confnum>  (1) 
1

>  <i_i_glide_lignum>  (1) 
4

>  <i_i_glide_posenum>  (1) 
34

>  <i_i_glide_rotatable_bonds>  (1) 
0

>  <i_lp_mmshare_version>  (1) 
72125

>  <i_m_source_file_index>  (1) 
4

>  <i_f3d_flags>  (1) 
0

>  <num_sample>  (1) 
50

>  <b_lp_Chiralities_Consistent>  (1) 
1

>  <r_epik_Charging_Adjusted_Penalty>  (1) 
1.6042444336516156e-06

>  <r_epik_Ionization_Penalty>  (1) 
0.0023556498582944039

>  <r_epik_Ionization_Penalty_Charging>  (1) 
1.6042444336516156e-06

>  <r_epik_Ionization_Penalty_Neutral>  (1) 
0.0023540456138607521

>  <r_epik_State_Penalty>  (1) 
-0

>  <r_glide_ring_energy>  (1) 
0

>  <r_i_docking_score>  (1) 
-4.3758555498021732

>  <r_i_glide_ecoul>  (1) 
-0.9716541024497598

>  <r_i_glide_eff_state_penalty>  (1) 
-0

>  <r_i_glide_einternal>  (1) 
0

>  <r_i_glide_emodel>  (1) 
-18.027204472237283

>  <r_i_glide_emodel_strain>  (1) 
9.1377557964733569e-08

>  <r_i_glide_energy>  (1) 
-14.173802791143933

>  <r_i_glide_erotb>  (1) 
0

>  <r_i_glide_esite>  (1) 
0

>  <r_i_glide_evdw>  (1) 
-13.202148688694173

>  <r_i_glide_gscore>  (1) 
-4.3758555498021732

>  <r_i_glide_gscore_strain>  (1) 
0

>  <r_i_glide_hbond>  (1) 
0

>  <r_i_glide_ligand_efficiency>  (1) 
-0.87517110996043468

>  <r_i_glide_ligand_efficiency_ln>  (1) 
-1.6769341508188431

>  <r_i_glide_ligand_efficiency_sa>  (1) 
-1.4965215472586899

>  <r_i_glide_lipo>  (1) 
-1.3200000000000001

>  <r_i_glide_metal>  (1) 
-0

>  <r_i_glide_rewards>  (1) 
-2.25

>  <r_lp_Energy>  (1) 
2.9163319999999997

>  <r_lp_tautomer_probability>  (1) 
1

>  <s_epik_Chemistry_Notes>  (1) 
This compound has an imine and may undergo hydrolysis.

>  <s_epik_cmdline>  (1) 
J2VwaWtfcHl0aG9uJywgJy1waHQnLCAnMS4wJywgJy1waCcsICc3LjQnLCAnLXRuJywgJzgnLCAnLW1hJywgJzUwMCcsICctaW1hZScsICc8aW5maWxlLm1hZT4nLCAnLW9tYWUnLCAnPG91dGZpbGUubWFlPic=

>  <s_epik_input>  (1) 
W0NIMl0xW0NIXT1OW0NIMl1bQ0gyXTE=

>  <s_glide_docking_method>  (1) 
confgen

>  <s_i_glide_gridfile>  (1) 
gpcr_5ht2c_6bqh_protein_autoprepared_prepared

>  <s_lp_Force_Field>  (1) 
S-OPLS

>  <s_lp_Variant>  (1) 
Pocket2Mol_3-1

>  <s_m_source_file>  (1) 
generated_GPCR_5HT2C_ligand_Pocket2Mol_2026-06-23_prepared.sdf

>  <GenAI_Model>  (1) 
Pocket2Mol

>  <Protein>  (1) 
GPCR_5HT2C

$$$$
Pocket2Mol_24
     RDKit          3D

  0  0  0  0  0  0  0  0  0  0999 V3000
M  V30 BEGIN CTAB
M  V30 COUNTS 16 16 0 0 1
M  V30 BEGIN ATOM
M  V30 1 C 39.353761 28.649660 51.039463 0
M  V30 2 C 39.045334 28.763829 52.473159 0
M  V30 3 C 39.952603 29.657384 50.501859 0
M  V30 4 C 40.250103 30.789743 51.390990 0
M  V30 5 N 39.806602 30.086274 52.688061 0 CHG=1
M  V30 6 C 39.227112 30.974026 53.719210 0
M  V30 7 H 39.077753 27.760273 50.490420 0
M  V30 8 H 37.969128 28.854695 52.629720 0
M  V30 9 H 39.454043 27.938824 53.057175 0
M  V30 10 H 40.227695 29.696697 49.456928 0
M  V30 11 H 41.305761 31.044712 51.367760 0
M  V30 12 H 39.645137 31.660776 51.140485 0
M  V30 13 H 38.329274 31.477530 53.367950 0
M  V30 14 H 38.969150 30.408253 54.615322 0
M  V30 15 H 39.946708 31.737754 54.011536 0
M  V30 16 H 40.680515 29.777473 53.088262 0
M  V30 END ATOM
M  V30 BEGIN BOND
M  V30 1 1 2 1
M  V30 2 2 3 1
M  V30 3 1 4 3
M  V30 4 1 5 2
M  V30 5 1 5 4
M  V30 6 1 6 5
M  V30 7 1 7 1
M  V30 8 1 8 2
M  V30 9 1 9 2
M  V30 10 1 10 3
M  V30 11 1 11 4
M  V30 12 1 12 4
M  V30 13 1 13 6
M  V30 14 1 14 6
M  V30 15 1 15 6
M  V30 16 1 16 5
M  V30 END BOND
M  V30 END CTAB
M  END
>  <i_epik_Tot_Q>  (1) 
1

>  <i_epik_Tot_abs_Q>  (1) 
1

>  <i_i_glide_confnum>  (1) 
1

>  <i_i_glide_lignum>  (1) 
25

>  <i_i_glide_posenum>  (1) 
260

>  <i_i_glide_rotatable_bonds>  (1) 
0

>  <i_lp_mmshare_version>  (1) 
72125

>  <i_m_source_file_index>  (1) 
25

>  <i_f3d_flags>  (1) 
0

>  <num_sample>  (1) 
50

>  <b_lp_Chiralities_Consistent>  (1) 
1

>  <r_epik_Charging_Adjusted_Penalty>  (1) 
0.0014863909170882658

>  <r_epik_Ionization_Penalty>  (1) 
0.0014863909170882658

>  <r_epik_Ionization_Penalty_Charging>  (1) 
0.0014863909170882658

>  <r_epik_Ionization_Penalty_Neutral>  (1) 
0

>  <r_epik_State_Penalty>  (1) 
-0

>  <r_glide_ring_energy>  (1) 
0

>  <r_i_docking_score>  (1) 
-4.360277877635669

>  <r_i_glide_ecoul>  (1) 
-0.66202069682222864

>  <r_i_glide_eff_state_penalty>  (1) 
-0

>  <r_i_glide_einternal>  (1) 
0

>  <r_i_glide_emodel>  (1) 
-19.060460514297532

>  <r_i_glide_emodel_strain>  (1) 
0

>  <r_i_glide_energy>  (1) 
-12.431850973588514

>  <r_i_glide_erotb>  (1) 
0

>  <r_i_glide_esite>  (1) 
0

>  <r_i_glide_evdw>  (1) 
-11.769830276766285

>  <r_i_glide_gscore>  (1) 
-4.360277877635669

>  <r_i_glide_gscore_strain>  (1) 
0

>  <r_i_glide_hbond>  (1) 
0

>  <r_i_glide_ligand_efficiency>  (1) 
-0.72671297960594483

>  <r_i_glide_ligand_efficiency_ln>  (1) 
-1.5618386632861758

>  <r_i_glide_ligand_efficiency_sa>  (1) 
-1.3205251203203652

>  <r_i_glide_lipo>  (1) 
-1.4224832592740209

>  <r_i_glide_metal>  (1) 
-0

>  <r_i_glide_rewards>  (1) 
-2.25

>  <r_lp_Energy>  (1) 
6.8415840000000001

>  <r_lp_tautomer_probability>  (1) 
1

>  <s_epik_cmdline>  (1) 
J2VwaWtfcHl0aG9uJywgJy1waHQnLCAnMS4wJywgJy1waCcsICc3LjQnLCAnLXRuJywgJzgnLCAnLW1hJywgJzUwMCcsICctaW1hZScsICc8aW5maWxlLm1hZT4nLCAnLW9tYWUnLCAnPG91dGZpbGUubWFlPic=

>  <s_epik_input>  (1) 
W0NIMl0xW0NIXT1bQ0hdW0NIMl1OMVtDSDNd

>  <s_glide_docking_method>  (1) 
confgen

>  <s_i_glide_gridfile>  (1) 
gpcr_5ht2c_6bqh_protein_autoprepared_prepared

>  <s_lp_Force_Field>  (1) 
S-OPLS

>  <s_lp_Variant>  (1) 
Pocket2Mol_24-1

>  <s_m_source_file>  (1) 
generated_GPCR_5HT2C_ligand_Pocket2Mol_2026-06-23_prepared.sdf

>  <GenAI_Model>  (1) 
Pocket2Mol

>  <Protein>  (1) 
GPCR_5HT2C

$$$$
Pocket2Mol_48
     RDKit          3D

  0  0  0  0  0  0  0  0  0  0999 V3000
M  V30 BEGIN CTAB
M  V30 COUNTS 15 15 0 0 1
M  V30 BEGIN ATOM
M  V30 1 C 37.828501 25.317370 56.798874 0
M  V30 2 C 39.245041 25.333748 57.367145 0
M  V30 3 C 38.075537 25.299425 55.294232 0
M  V30 4 C 39.347028 26.137689 55.114555 0
M  V30 5 N 40.045377 26.127252 56.416936 0 CHG=1
M  V30 6 H 37.297822 26.228404 57.080739 0
M  V30 7 H 37.242534 24.464545 57.144506 0
M  V30 8 H 39.295349 25.737675 58.379246 0
M  V30 9 H 39.644987 24.318348 57.381797 0
M  V30 10 H 38.259812 24.274696 54.967632 0
M  V30 11 H 37.232299 25.683529 54.719253 0
M  V30 12 H 39.984255 25.743518 54.321790 0
M  V30 13 H 39.094845 27.168221 54.860856 0
M  V30 14 H 40.978699 25.737831 56.336196 0
M  V30 15 H 40.110995 27.077712 56.753325 0
M  V30 END ATOM
M  V30 BEGIN BOND
M  V30 1 1 2 1
M  V30 2 1 3 1
M  V30 3 1 4 3
M  V30 4 1 5 2
M  V30 5 1 5 4
M  V30 6 1 6 1
M  V30 7 1 7 1
M  V30 8 1 8 2
M  V30 9 1 9 2
M  V30 10 1 10 3
M  V30 11 1 11 3
M  V30 12 1 12 4
M  V30 13 1 13 4
M  V30 14 1 14 5
M  V30 15 1 15 5
M  V30 END BOND
M  V30 END CTAB
M  END
>  <i_epik_Tot_Q>  (1) 
1

>  <i_epik_Tot_abs_Q>  (1) 
1

>  <i_i_glide_confnum>  (1) 
2

>  <i_i_glide_lignum>  (1) 
49

>  <i_i_glide_posenum>  (1) 
85

>  <i_i_glide_rotatable_bonds>  (1) 
0

>  <i_lp_mmshare_version>  (1) 
72125

>  <i_m_source_file_index>  (1) 
49

>  <i_f3d_flags>  (1) 
0

>  <num_sample>  (1) 
50

>  <b_lp_Chiralities_Consistent>  (1) 
1

>  <r_epik_Charging_Adjusted_Penalty>  (1) 
0.00011848530527437102

>  <r_epik_Ionization_Penalty>  (1) 
0.00011848530527437102

>  <r_epik_Ionization_Penalty_Charging>  (1) 
0.00011848530527437102

>  <r_epik_Ionization_Penalty_Neutral>  (1) 
0

>  <r_epik_State_Penalty>  (1) 
-0

>  <r_glide_ring_energy>  (1) 
1.2454512470311176

>  <r_i_docking_score>  (1) 
-4.3585419852672356

>  <r_i_glide_ecoul>  (1) 
-1.4813435964075123

>  <r_i_glide_eff_state_penalty>  (1) 
-0

>  <r_i_glide_einternal>  (1) 
0

>  <r_i_glide_emodel>  (1) 
-19.612737158452241

>  <r_i_glide_emodel_strain>  (1) 
0

>  <r_i_glide_energy>  (1) 
-12.808152512529693

>  <r_i_glide_erotb>  (1) 
0

>  <r_i_glide_esite>  (1) 
0

>  <r_i_glide_evdw>  (1) 
-11.326808916122181

>  <r_i_glide_gscore>  (1) 
-4.3585419852672356

>  <r_i_glide_gscore_strain>  (1) 
0

>  <r_i_glide_hbond>  (1) 
0

>  <r_i_glide_ligand_efficiency>  (1) 
-0.87170839705344716

>  <r_i_glide_ligand_efficiency_ln>  (1) 
-1.6702991722847929

>  <r_i_glide_ligand_efficiency_sa>  (1) 
-1.4906003914774943

>  <r_i_glide_lipo>  (1) 
-1.3200000000000001

>  <r_i_glide_metal>  (1) 
-0

>  <r_i_glide_rewards>  (1) 
-2.25

>  <r_lp_Energy>  (1) 
17.726251999999999

>  <r_lp_tautomer_probability>  (1) 
1

>  <s_epik_cmdline>  (1) 
J2VwaWtfcHl0aG9uJywgJy1waHQnLCAnMS4wJywgJy1waCcsICc3LjQnLCAnLXRuJywgJzgnLCAnLW1hJywgJzUwMCcsICctaW1hZScsICc8aW5maWxlLm1hZT4nLCAnLW9tYWUnLCAnPG91dGZpbGUubWFlPic=

>  <s_epik_input>  (1) 
W0NIMl0xW0NIMl1bTkhdW0NIMl1bQ0gyXTE=

>  <s_glide_docking_method>  (1) 
confgen

>  <s_i_glide_gridfile>  (1) 
gpcr_5ht2c_6bqh_protein_autoprepared_prepared

>  <s_lp_Force_Field>  (1) 
S-OPLS

>  <s_lp_Variant>  (1) 
Pocket2Mol_48-1

>  <s_m_source_file>  (1) 
generated_GPCR_5HT2C_ligand_Pocket2Mol_2026-06-23_prepared.sdf

>  <GenAI_Model>  (1) 
Pocket2Mol

>  <Protein>  (1) 
GPCR_5HT2C

$$$$
Pocket2Mol_26
     RDKit          3D

  0  0  0  0  0  0  0  0  0  0999 V3000
M  V30 BEGIN CTAB
M  V30 COUNTS 13 13 0 0 1
M  V30 BEGIN ATOM
M  V30 1 C 37.192474 34.173522 59.258284 0
M  V30 2 O 36.160526 33.517117 59.986797 0
M  V30 3 C 36.269251 32.225641 60.395989 0
M  V30 4 O 35.645633 31.737745 61.337815 0
M  V30 5 C 37.248445 31.382477 59.548670 0
M  V30 6 C 37.902360 33.240979 58.277049 0
M  V30 7 O 38.345282 32.137736 59.043213 0
M  V30 8 H 37.913341 34.572613 59.972341 0
M  V30 9 H 36.767532 35.025518 58.727562 0
M  V30 10 H 36.702749 30.933100 58.717988 0
M  V30 11 H 37.635580 30.564722 60.156541 0
M  V30 12 H 38.759610 33.737733 57.824630 0
M  V30 13 H 37.245137 32.929429 57.465234 0
M  V30 END ATOM
M  V30 BEGIN BOND
M  V30 1 1 2 1
M  V30 2 1 3 2
M  V30 3 2 4 3
M  V30 4 1 5 3
M  V30 5 1 6 1
M  V30 6 1 7 5
M  V30 7 1 7 6
M  V30 8 1 8 1
M  V30 9 1 9 1
M  V30 10 1 10 5
M  V30 11 1 11 5
M  V30 12 1 12 6
M  V30 13 1 13 6
M  V30 END BOND
M  V30 END CTAB
M  END
>  <i_epik_Tot_Q>  (1) 
0

>  <i_epik_Tot_abs_Q>  (1) 
0

>  <i_i_glide_confnum>  (1) 
2

>  <i_i_glide_lignum>  (1) 
27

>  <i_i_glide_posenum>  (1) 
336

>  <i_i_glide_rotatable_bonds>  (1) 
0

>  <i_lp_mmshare_version>  (1) 
72125

>  <i_m_source_file_index>  (1) 
27

>  <i_f3d_flags>  (1) 
0

>  <num_sample>  (1) 
50

>  <b_lp_Chiralities_Consistent>  (1) 
1

>  <r_epik_Charging_Adjusted_Penalty>  (1) 
0

>  <r_epik_Ionization_Penalty>  (1) 
1.0677269036415479e-12

>  <r_epik_Ionization_Penalty_Charging>  (1) 
0

>  <r_epik_Ionization_Penalty_Neutral>  (1) 
1.0677269036415479e-12

>  <r_epik_State_Penalty>  (1) 
-0

>  <r_glide_ring_energy>  (1) 
4.2281688740393558e-05

>  <r_i_docking_score>  (1) 
-4.356694561634729

>  <r_i_glide_ecoul>  (1) 
-3.2409753750659864

>  <r_i_glide_eff_state_penalty>  (1) 
-0

>  <r_i_glide_einternal>  (1) 
0

>  <r_i_glide_emodel>  (1) 
-20.091165688617323

>  <r_i_glide_emodel_strain>  (1) 
0

>  <r_i_glide_energy>  (1) 
-15.587567716384463

>  <r_i_glide_erotb>  (1) 
0

>  <r_i_glide_esite>  (1) 
-0.054809264264969251

>  <r_i_glide_evdw>  (1) 
-12.346592341318477

>  <r_i_glide_gscore>  (1) 
-4.356694561634729

>  <r_i_glide_gscore_strain>  (1) 
0

>  <r_i_glide_hbond>  (1) 
-0.32000000000000001

>  <r_i_glide_ligand_efficiency>  (1) 
-0.62238493737638989

>  <r_i_glide_ligand_efficiency_ln>  (1) 
-1.4788959408798745

>  <r_i_glide_ligand_efficiency_sa>  (1) 
-1.1905795543951367

>  <r_i_glide_lipo>  (1) 
0

>  <r_i_glide_metal>  (1) 
-0

>  <r_i_glide_rewards>  (1) 
-2.8784093740439372

>  <r_lp_Energy>  (1) 
12.58291

>  <r_lp_tautomer_probability>  (1) 
1

>  <s_epik_Chemistry_Notes>  (1) 
This compound has an ester and may undergo hydrolysis at high or low pH.

>  <s_epik_cmdline>  (1) 
J2VwaWtfcHl0aG9uJywgJy1waHQnLCAnMS4wJywgJy1waCcsICc3LjQnLCAnLXRuJywgJzgnLCAnLW1hJywgJzUwMCcsICctaW1hZScsICc8aW5maWxlLm1hZT4nLCAnLW9tYWUnLCAnPG91dGZpbGUubWFlPic=

>  <s_epik_input>  (1) 
W0NIMl0xT1tDSDJdW0NIMl1PQzE9Tw==

>  <s_glide_docking_method>  (1) 
confgen

>  <s_i_glide_gridfile>  (1) 
gpcr_5ht2c_6bqh_protein_autoprepared_prepared

>  <s_lp_Force_Field>  (1) 
S-OPLS

>  <s_lp_Variant>  (1) 
Pocket2Mol_26-1

>  <s_m_source_file>  (1) 
generated_GPCR_5HT2C_ligand_Pocket2Mol_2026-06-23_prepared.sdf

>  <GenAI_Model>  (1) 
Pocket2Mol

>  <Protein>  (1) 
GPCR_5HT2C

$$$$
Pocket2Mol_12
     RDKit          3D

  0  0  0  0  0  0  0  0  0  0999 V3000
M  V30 BEGIN CTAB
M  V30 COUNTS 10 10 0 0 1
M  V30 BEGIN ATOM
M  V30 1 C 38.807867 28.549050 52.654772 0
M  V30 2 C 38.996101 27.449670 51.616390 0
M  V30 3 O 39.645129 29.571802 52.163498 0
M  V30 4 O 39.634473 28.138771 50.566939 0
M  V30 5 C 40.045249 29.356666 50.913784 0
M  V30 6 O 40.680123 30.137636 50.208885 0
M  V30 7 H 39.099326 28.231785 53.656054 0
M  V30 8 H 37.776380 28.901296 52.677619 0
M  V30 9 H 39.645171 26.656714 51.987136 0
M  V30 10 H 38.052301 27.011271 51.295471 0
M  V30 END ATOM
M  V30 BEGIN BOND
M  V30 1 1 2 1
M  V30 2 1 3 1
M  V30 3 1 4 2
M  V30 4 1 5 3
M  V30 5 1 5 4
M  V30 6 2 6 5
M  V30 7 1 7 1
M  V30 8 1 8 1
M  V30 9 1 9 2
M  V30 10 1 10 2
M  V30 END BOND
M  V30 END CTAB
M  END
>  <i_epik_Tot_Q>  (1) 
0

>  <i_epik_Tot_abs_Q>  (1) 
0

>  <i_i_glide_confnum>  (1) 
1

>  <i_i_glide_lignum>  (1) 
13

>  <i_i_glide_posenum>  (1) 
388

>  <i_i_glide_rotatable_bonds>  (1) 
0

>  <i_lp_mmshare_version>  (1) 
72125

>  <i_m_source_file_index>  (1) 
13

>  <i_f3d_flags>  (1) 
0

>  <num_sample>  (1) 
50

>  <b_lp_Chiralities_Consistent>  (1) 
1

>  <r_epik_Charging_Adjusted_Penalty>  (1) 
0

>  <r_epik_Ionization_Penalty>  (1) 
0

>  <r_epik_Ionization_Penalty_Charging>  (1) 
0

>  <r_epik_Ionization_Penalty_Neutral>  (1) 
0

>  <r_epik_State_Penalty>  (1) 
-0

>  <r_glide_ring_energy>  (1) 
0

>  <r_i_docking_score>  (1) 
-4.3475669919818349

>  <r_i_glide_ecoul>  (1) 
0.085663881401746494

>  <r_i_glide_eff_state_penalty>  (1) 
-0

>  <r_i_glide_einternal>  (1) 
0

>  <r_i_glide_emodel>  (1) 
-21.72756433957073

>  <r_i_glide_emodel_strain>  (1) 
0

>  <r_i_glide_energy>  (1) 
-17.236908376642518

>  <r_i_glide_erotb>  (1) 
0

>  <r_i_glide_esite>  (1) 
0

>  <r_i_glide_evdw>  (1) 
-17.322572258044264

>  <r_i_glide_gscore>  (1) 
-4.3475669919818349

>  <r_i_glide_gscore_strain>  (1) 
0

>  <r_i_glide_hbond>  (1) 
0

>  <r_i_glide_ligand_efficiency>  (1) 
-0.72459449866363912

>  <r_i_glide_ligand_efficiency_ln>  (1) 
-1.5572856615702548

>  <r_i_glide_ligand_efficiency_sa>  (1) 
-1.3166755849745793

>  <r_i_glide_lipo>  (1) 
-0.65833417940322769

>  <r_i_glide_metal>  (1) 
-0

>  <r_i_glide_rewards>  (1) 
-2.8359537818866554

>  <r_lp_Energy>  (1) 
-6.8415979999999994

>  <r_lp_tautomer_probability>  (1) 
1

>  <s_epik_Chemistry_Notes>  (1) 
This compound has an ester and may undergo hydrolysis at high or low pH.

>  <s_epik_cmdline>  (1) 
J2VwaWtfcHl0aG9uJywgJy1waHQnLCAnMS4wJywgJy1waCcsICc3LjQnLCAnLXRuJywgJzgnLCAnLW1hJywgJzUwMCcsICctaW1hZScsICc8aW5maWxlLm1hZT4nLCAnLW9tYWUnLCAnPG91dGZpbGUubWFlPic=

>  <s_epik_input>  (1) 
TzFbQ0gyXVtDSDJdT0MxPU8=

>  <s_glide_docking_method>  (1) 
confgen

>  <s_i_glide_gridfile>  (1) 
gpcr_5ht2c_6bqh_protein_autoprepared_prepared

>  <s_lp_Force_Field>  (1) 
S-OPLS

>  <s_lp_Variant>  (1) 
Pocket2Mol_12-1

>  <s_m_source_file>  (1) 
generated_GPCR_5HT2C_ligand_Pocket2Mol_2026-06-23_prepared.sdf

>  <GenAI_Model>  (1) 
Pocket2Mol

>  <Protein>  (1) 
GPCR_5HT2C

$$$$
Pocket2Mol_3
     RDKit          3D

  0  0  0  0  0  0  0  0  0  0999 V3000
M  V30 BEGIN CTAB
M  V30 COUNTS 12 12 0 0 1
M  V30 BEGIN ATOM
M  V30 1 C 38.987287 28.388151 51.923842 0
M  V30 2 C 39.245269 29.352501 52.729984 0
M  V30 3 C 39.645116 28.515136 50.567962 0
M  V30 4 C 40.376958 29.983318 50.801691 0
M  V30 5 N 40.045135 30.262436 52.211375 0
M  V30 6 H 38.883833 29.502671 53.738728 0
M  V30 7 H 40.360980 27.711967 50.407161 0
M  V30 8 H 38.906241 28.533722 49.768224 0
M  V30 9 H 41.456160 29.932738 50.650198 0
M  V30 10 H 39.958433 30.750622 50.147913 0
M  V30 11 H 38.345398 27.550908 52.158516 0
M  V30 12 H 40.147474 31.189835 52.599600 0
M  V30 END ATOM
M  V30 BEGIN BOND
M  V30 1 2 2 1
M  V30 2 1 3 1
M  V30 3 1 4 3
M  V30 4 1 5 2
M  V30 5 1 5 4
M  V30 6 1 6 2
M  V30 7 1 7 3
M  V30 8 1 8 3
M  V30 9 1 9 4
M  V30 10 1 10 4
M  V30 11 1 11 1
M  V30 12 1 12 5
M  V30 END BOND
M  V30 END CTAB
M  END
>  <i_epik_Tot_Q>  (1) 
0

>  <i_epik_Tot_abs_Q>  (1) 
0

>  <i_i_glide_confnum>  (1) 
1

>  <i_i_glide_lignum>  (1) 
4

>  <i_i_glide_posenum>  (1) 
388

>  <i_i_glide_rotatable_bonds>  (1) 
0

>  <i_lp_mmshare_version>  (1) 
72125

>  <i_m_source_file_index>  (1) 
4

>  <i_f3d_flags>  (1) 
0

>  <num_sample>  (1) 
50

>  <b_lp_Chiralities_Consistent>  (1) 
1

>  <r_epik_Charging_Adjusted_Penalty>  (1) 
1.6042444336516156e-06

>  <r_epik_Ionization_Penalty>  (1) 
0.0023556498582944039

>  <r_epik_Ionization_Penalty_Charging>  (1) 
1.6042444336516156e-06

>  <r_epik_Ionization_Penalty_Neutral>  (1) 
0.0023540456138607521

>  <r_epik_State_Penalty>  (1) 
-0

>  <r_glide_ring_energy>  (1) 
0

>  <r_i_docking_score>  (1) 
-4.3429185380018955

>  <r_i_glide_ecoul>  (1) 
-1.2441872516378738

>  <r_i_glide_eff_state_penalty>  (1) 
-0

>  <r_i_glide_einternal>  (1) 
0

>  <r_i_glide_emodel>  (1) 
-18.280931595162969

>  <r_i_glide_emodel_strain>  (1) 
0

>  <r_i_glide_energy>  (1) 
-14.456534331229099

>  <r_i_glide_erotb>  (1) 
0

>  <r_i_glide_esite>  (1) 
0

>  <r_i_glide_evdw>  (1) 
-13.212347079591225

>  <r_i_glide_gscore>  (1) 
-4.3429185380018955

>  <r_i_glide_gscore_strain>  (1) 
0

>  <r_i_glide_hbond>  (1) 
0

>  <r_i_glide_ligand_efficiency>  (1) 
-0.86858370760037906

>  <r_i_glide_ligand_efficiency_ln>  (1) 
-1.6643118877470409

>  <r_i_glide_ligand_efficiency_sa>  (1) 
-1.4852572476719137

>  <r_i_glide_lipo>  (1) 
-1.2456730962766529

>  <r_i_glide_metal>  (1) 
-0

>  <r_i_glide_rewards>  (1) 
-2.25

>  <r_lp_Energy>  (1) 
2.9163319999999997

>  <r_lp_tautomer_probability>  (1) 
1

>  <s_epik_Chemistry_Notes>  (1) 
This compound has an imine and may undergo hydrolysis.

>  <s_epik_cmdline>  (1) 
J2VwaWtfcHl0aG9uJywgJy1waHQnLCAnMS4wJywgJy1waCcsICc3LjQnLCAnLXRuJywgJzgnLCAnLW1hJywgJzUwMCcsICctaW1hZScsICc8aW5maWxlLm1hZT4nLCAnLW9tYWUnLCAnPG91dGZpbGUubWFlPic=

>  <s_epik_input>  (1) 
W0NIMl0xW0NIXT1OW0NIMl1bQ0gyXTE=

>  <s_glide_docking_method>  (1) 
confgen

>  <s_i_glide_gridfile>  (1) 
gpcr_5ht2c_6bqh_protein_autoprepared_prepared

>  <s_lp_Force_Field>  (1) 
S-OPLS

>  <s_lp_Variant>  (1) 
Pocket2Mol_3-1

>  <s_m_source_file>  (1) 
generated_GPCR_5HT2C_ligand_Pocket2Mol_2026-06-23_prepared.sdf

>  <GenAI_Model>  (1) 
Pocket2Mol

>  <Protein>  (1) 
GPCR_5HT2C

$$$$
Pocket2Mol_44
     RDKit          3D

  0  0  0  0  0  0  0  0  0  0999 V3000
M  V30 BEGIN CTAB
M  V30 COUNTS 12 11 0 0 1
M  V30 BEGIN ATOM
M  V30 1 C 40.943464 30.537751 50.167762 0
M  V30 2 O 40.276092 29.345046 50.525088 0
M  V30 3 C 39.643322 29.269783 51.704676 0
M  V30 4 C 38.882609 27.937264 51.840205 0
M  V30 5 O 39.645929 30.137770 52.580986 0
M  V30 6 O 38.896378 27.074788 50.967760 0
M  V30 7 N 38.221748 27.840867 52.995336 0
M  V30 8 H 41.523146 30.380415 49.258846 0
M  V30 9 H 40.226611 31.338129 49.984000 0
M  V30 10 H 41.631279 30.858138 50.951367 0
M  V30 11 H 38.263783 28.599482 53.661946 0
M  V30 12 H 37.681164 27.012904 53.196815 0
M  V30 END ATOM
M  V30 BEGIN BOND
M  V30 1 1 2 1
M  V30 2 1 3 2
M  V30 3 1 4 3
M  V30 4 2 5 3
M  V30 5 2 6 4
M  V30 6 1 7 4
M  V30 7 1 8 1
M  V30 8 1 9 1
M  V30 9 1 10 1
M  V30 10 1 11 7
M  V30 11 1 12 7
M  V30 END BOND
M  V30 END CTAB
M  END
>  <i_epik_Tot_Q>  (1) 
0

>  <i_epik_Tot_abs_Q>  (1) 
0

>  <i_i_glide_confnum>  (1) 
1

>  <i_i_glide_lignum>  (1) 
45

>  <i_i_glide_posenum>  (1) 
240

>  <i_i_glide_rotatable_bonds>  (1) 
2

>  <i_lp_mmshare_version>  (1) 
72125

>  <i_m_source_file_index>  (1) 
45

>  <i_f3d_flags>  (1) 
0

>  <num_sample>  (1) 
50

>  <b_lp_Chiralities_Consistent>  (1) 
1

>  <r_epik_Charging_Adjusted_Penalty>  (1) 
0

>  <r_epik_Ionization_Penalty>  (1) 
3.9236796398539443e-05

>  <r_epik_Ionization_Penalty_Charging>  (1) 
0

>  <r_epik_Ionization_Penalty_Neutral>  (1) 
3.9236796398539443e-05

>  <r_epik_State_Penalty>  (1) 
-0

>  <r_glide_ring_energy>  (1) 
0

>  <r_i_docking_score>  (1) 
-4.334351436048256

>  <r_i_glide_ecoul>  (1) 
0.67371168281522587

>  <r_i_glide_eff_state_penalty>  (1) 
-0

>  <r_i_glide_einternal>  (1) 
0.10362040809812001

>  <r_i_glide_emodel>  (1) 
-24.513226953257949

>  <r_i_glide_emodel_strain>  (1) 
0

>  <r_i_glide_energy>  (1) 
-18.916489668719922

>  <r_i_glide_erotb>  (1) 
0

>  <r_i_glide_esite>  (1) 
0

>  <r_i_glide_evdw>  (1) 
-19.59020135153515

>  <r_i_glide_gscore>  (1) 
-4.334351436048256

>  <r_i_glide_gscore_strain>  (1) 
0

>  <r_i_glide_hbond>  (1) 
0

>  <r_i_glide_ligand_efficiency>  (1) 
-0.61919306229260795

>  <r_i_glide_ligand_efficiency_ln>  (1) 
-1.471311484988157

>  <r_i_glide_ligand_efficiency_sa>  (1) 
-1.1844737170158564

>  <r_i_glide_lipo>  (1) 
-0.30608839986099928

>  <r_i_glide_metal>  (1) 
-0

>  <r_i_glide_rewards>  (1) 
-3.1498097210327827

>  <r_lp_Energy>  (1) 
8.3220650000000003

>  <r_lp_tautomer_probability>  (1) 
1

>  <s_epik_Chemistry_Notes>  (1) 
This compound has an ester and may undergo hydrolysis at high or low pH.

>  <s_epik_cmdline>  (1) 
J2VwaWtfcHl0aG9uJywgJy1waHQnLCAnMS4wJywgJy1waCcsICc3LjQnLCAnLXRuJywgJzgnLCAnLW1hJywgJzUwMCcsICctaW1hZScsICc8aW5maWxlLm1hZT4nLCAnLW9tYWUnLCAnPG91dGZpbGUubWFlPic=

>  <s_epik_input>  (1) 
W0NIM11PQyg9TylDKD1PKVtOSDJd

>  <s_glide_docking_method>  (1) 
confgen

>  <s_i_glide_gridfile>  (1) 
gpcr_5ht2c_6bqh_protein_autoprepared_prepared

>  <s_lp_Force_Field>  (1) 
S-OPLS

>  <s_lp_Variant>  (1) 
Pocket2Mol_44-1

>  <s_m_source_file>  (1) 
generated_GPCR_5HT2C_ligand_Pocket2Mol_2026-06-23_prepared.sdf

>  <GenAI_Model>  (1) 
Pocket2Mol

>  <Protein>  (1) 
GPCR_5HT2C

$$$$
Pocket2Mol_42
     RDKit          3D

  0  0  0  0  0  0  0  0  0  0999 V3000
M  V30 BEGIN CTAB
M  V30 COUNTS 10 9 0 0 1
M  V30 BEGIN ATOM
M  V30 1 C 35.529307 32.315807 60.108522 0
M  V30 2 O 35.981814 32.208901 61.415033 0
M  V30 3 C 37.396170 32.235903 61.511620 0
M  V30 4 O 35.810798 31.153393 59.367604 0
M  V30 5 H 36.016416 33.153711 59.606817 0
M  V30 6 H 34.447800 32.462685 60.094213 0
M  V30 7 H 37.692872 32.148303 62.556611 0
M  V30 8 H 37.846316 31.406619 60.964277 0
M  V30 9 H 37.801285 33.172101 61.125022 0
M  V30 10 H 35.645108 31.339087 58.452863 0
M  V30 END ATOM
M  V30 BEGIN BOND
M  V30 1 1 2 1
M  V30 2 1 3 2
M  V30 3 1 4 1
M  V30 4 1 5 1
M  V30 5 1 6 1
M  V30 6 1 7 3
M  V30 7 1 8 3
M  V30 8 1 9 3
M  V30 9 1 10 4
M  V30 END BOND
M  V30 END CTAB
M  END
>  <i_epik_Tot_Q>  (1) 
0

>  <i_epik_Tot_abs_Q>  (1) 
0

>  <i_i_glide_confnum>  (1) 
1

>  <i_i_glide_lignum>  (1) 
43

>  <i_i_glide_posenum>  (1) 
6

>  <i_i_glide_rotatable_bonds>  (1) 
2

>  <i_lp_mmshare_version>  (1) 
72125

>  <i_m_source_file_index>  (1) 
43

>  <i_f3d_flags>  (1) 
0

>  <num_sample>  (1) 
50

>  <b_lp_Chiralities_Consistent>  (1) 
1

>  <r_epik_Charging_Adjusted_Penalty>  (1) 
0

>  <r_epik_Ionization_Penalty>  (1) 
1.028953084229311e-06

>  <r_epik_Ionization_Penalty_Charging>  (1) 
0

>  <r_epik_Ionization_Penalty_Neutral>  (1) 
1.028953084229311e-06

>  <r_epik_State_Penalty>  (1) 
-0

>  <r_glide_ring_energy>  (1) 
0

>  <r_i_docking_score>  (1) 
-4.3281622054066622

>  <r_i_glide_ecoul>  (1) 
-8.9636651025713068

>  <r_i_glide_eff_state_penalty>  (1) 
-0

>  <r_i_glide_einternal>  (1) 
1.9470863904336633

>  <r_i_glide_emodel>  (1) 
-17.711029965439735

>  <r_i_glide_emodel_strain>  (1) 
0.00035387531506225756

>  <r_i_glide_energy>  (1) 
-13.963191999567774

>  <r_i_glide_erotb>  (1) 
0

>  <r_i_glide_esite>  (1) 
-0.074752139515250879

>  <r_i_glide_evdw>  (1) 
-4.9995268969964677

>  <r_i_glide_gscore>  (1) 
-4.3281622054066622

>  <r_i_glide_gscore_strain>  (1) 
0

>  <r_i_glide_hbond>  (1) 
-0.32167440101783257

>  <r_i_glide_ligand_efficiency>  (1) 
-1.0820405513516655

>  <r_i_glide_ligand_efficiency_ln>  (1) 
-1.8137587197647529

>  <r_i_glide_ligand_efficiency_sa>  (1) 
-1.7176323094878845

>  <r_i_glide_lipo>  (1) 
-0.087209554638059406

>  <r_i_glide_metal>  (1) 
-0

>  <r_i_glide_rewards>  (1) 
-2.25

>  <r_lp_Energy>  (1) 
5.5414079999999997

>  <r_lp_tautomer_probability>  (1) 
1

>  <s_epik_Chemistry_Notes>  (1) 
This compound contains an acetal/aminal-like group ( X-CH(R)-Y where X, Y are N, S, or O) that may be acid/base labile, releasing an aldehyde.

>  <s_epik_cmdline>  (1) 
J2VwaWtfcHl0aG9uJywgJy1waHQnLCAnMS4wJywgJy1waCcsICc3LjQnLCAnLXRuJywgJzgnLCAnLW1hJywgJzUwMCcsICctaW1hZScsICc8aW5maWxlLm1hZT4nLCAnLW9tYWUnLCAnPG91dGZpbGUubWFlPic=

>  <s_epik_input>  (1) 
W09IXVtDSDJdT1tDSDNd

>  <s_glide_docking_method>  (1) 
confgen

>  <s_i_glide_gridfile>  (1) 
gpcr_5ht2c_6bqh_protein_autoprepared_prepared

>  <s_lp_Force_Field>  (1) 
S-OPLS

>  <s_lp_Variant>  (1) 
Pocket2Mol_42-1

>  <s_m_source_file>  (1) 
generated_GPCR_5HT2C_ligand_Pocket2Mol_2026-06-23_prepared.sdf

>  <GenAI_Model>  (1) 
Pocket2Mol

>  <Protein>  (1) 
GPCR_5HT2C

$$$$
Pocket2Mol_7
     RDKit          3D

  0  0  0  0  0  0  0  0  0  0999 V3000
M  V30 BEGIN CTAB
M  V30 COUNTS 11 11 0 0 1
M  V30 BEGIN ATOM
M  V30 1 C 40.045138 30.484377 51.885745 0
M  V30 2 C 40.513529 30.537754 50.436528 0
M  V30 3 C 39.489736 29.363942 52.269911 0
M  V30 4 C 39.473383 28.475142 51.195157 0
M  V30 5 N 40.045136 29.127357 50.167771 0
M  V30 6 O 39.034718 27.332105 51.162739 0
M  V30 7 H 40.177200 31.337722 52.535276 0
M  V30 8 H 40.152220 28.709387 49.256001 0
M  V30 9 H 39.977455 31.284220 49.849365 0
M  V30 10 H 39.103981 29.157785 53.257153 0
M  V30 11 H 41.594337 30.652779 50.347156 0
M  V30 END ATOM
M  V30 BEGIN BOND
M  V30 1 1 2 1
M  V30 2 2 3 1
M  V30 3 1 4 3
M  V30 4 1 5 2
M  V30 5 1 5 4
M  V30 6 2 6 4
M  V30 7 1 7 1
M  V30 8 1 8 5
M  V30 9 1 9 2
M  V30 10 1 10 3
M  V30 11 1 11 2
M  V30 END BOND
M  V30 END CTAB
M  END
>  <i_epik_Tot_Q>  (1) 
0

>  <i_epik_Tot_abs_Q>  (1) 
0

>  <i_i_glide_confnum>  (1) 
1

>  <i_i_glide_lignum>  (1) 
8

>  <i_i_glide_posenum>  (1) 
307

>  <i_i_glide_rotatable_bonds>  (1) 
0

>  <i_lp_mmshare_version>  (1) 
72125

>  <i_m_source_file_index>  (1) 
8

>  <i_f3d_flags>  (1) 
0

>  <num_sample>  (1) 
50

>  <b_lp_Chiralities_Consistent>  (1) 
1

>  <r_epik_Charging_Adjusted_Penalty>  (1) 
0

>  <r_epik_Ionization_Penalty>  (1) 
3.8544596149973334e-06

>  <r_epik_Ionization_Penalty_Charging>  (1) 
0

>  <r_epik_Ionization_Penalty_Neutral>  (1) 
3.8544596149973334e-06

>  <r_epik_State_Penalty>  (1) 
-0

>  <r_glide_ring_energy>  (1) 
0

>  <r_i_docking_score>  (1) 
-4.3144820871492229

>  <r_i_glide_ecoul>  (1) 
0.49397040659331037

>  <r_i_glide_eff_state_penalty>  (1) 
-0

>  <r_i_glide_einternal>  (1) 
0

>  <r_i_glide_emodel>  (1) 
-21.166078590698046

>  <r_i_glide_emodel_strain>  (1) 
0

>  <r_i_glide_energy>  (1) 
-16.598694783490579

>  <r_i_glide_erotb>  (1) 
0

>  <r_i_glide_esite>  (1) 
0

>  <r_i_glide_evdw>  (1) 
-17.092665190083888

>  <r_i_glide_gscore>  (1) 
-4.3144820871492229

>  <r_i_glide_gscore_strain>  (1) 
0

>  <r_i_glide_hbond>  (1) 
0

>  <r_i_glide_ligand_efficiency>  (1) 
-0.71908034785820385

>  <r_i_glide_ligand_efficiency_ln>  (1) 
-1.5454347463330047

>  <r_i_glide_ligand_efficiency_sa>  (1) 
-1.3066557079940406

>  <r_i_glide_lipo>  (1) 
-0.83394438863402509

>  <r_i_glide_metal>  (1) 
-0

>  <r_i_glide_rewards>  (1) 
-2.7000000000000002

>  <r_lp_Energy>  (1) 
3.2049569999999998

>  <r_lp_tautomer_probability>  (1) 
1

>  <s_epik_cmdline>  (1) 
J2VwaWtfcHl0aG9uJywgJy1waHQnLCAnMS4wJywgJy1waCcsICc3LjQnLCAnLXRuJywgJzgnLCAnLW1hJywgJzUwMCcsICctaW1hZScsICc8aW5maWxlLm1hZT4nLCAnLW9tYWUnLCAnPG91dGZpbGUubWFlPic=

>  <s_epik_input>  (1) 
TjE9W0NIXVtDSDJdW0NIMl1DMT1P

>  <s_glide_docking_method>  (1) 
confgen

>  <s_i_glide_gridfile>  (1) 
gpcr_5ht2c_6bqh_protein_autoprepared_prepared

>  <s_lp_Force_Field>  (1) 
S-OPLS

>  <s_lp_Variant>  (1) 
Pocket2Mol_7-1

>  <s_m_source_file>  (1) 
generated_GPCR_5HT2C_ligand_Pocket2Mol_2026-06-23_prepared.sdf

>  <GenAI_Model>  (1) 
Pocket2Mol

>  <Protein>  (1) 
GPCR_5HT2C

$$$$
Pocket2Mol_49
     RDKit          3D

  0  0  0  0  0  0  0  0  0  0999 V3000
M  V30 BEGIN CTAB
M  V30 COUNTS 13 13 0 0 1
M  V30 BEGIN ATOM
M  V30 1 C 39.245687 25.266978 57.366021 0
M  V30 2 O 38.037053 24.538222 57.563821 0
M  V30 3 C 37.175731 24.703862 56.441444 0
M  V30 4 C 39.006132 26.155667 56.149730 0
M  V30 5 C 38.037173 25.319882 55.345617 0
M  V30 6 H 39.519371 25.836862 58.254367 0
M  V30 7 H 40.045137 24.553407 57.164064 0
M  V30 8 H 36.727191 23.757654 56.137332 0
M  V30 9 H 36.370874 25.385193 56.720463 0
M  V30 10 H 38.531836 27.089980 56.453533 0
M  V30 11 H 39.922181 26.394532 55.608194 0
M  V30 12 H 38.574396 24.537960 54.808070 0
M  V30 13 H 37.459955 25.899902 54.624941 0
M  V30 END ATOM
M  V30 BEGIN BOND
M  V30 1 1 2 1
M  V30 2 1 3 2
M  V30 3 1 4 1
M  V30 4 1 5 3
M  V30 5 1 5 4
M  V30 6 1 6 1
M  V30 7 1 7 1
M  V30 8 1 8 3
M  V30 9 1 9 3
M  V30 10 1 10 4
M  V30 11 1 11 4
M  V30 12 1 12 5
M  V30 13 1 13 5
M  V30 END BOND
M  V30 END CTAB
M  END
>  <i_epik_Tot_Q>  (1) 
0

>  <i_epik_Tot_abs_Q>  (1) 
0

>  <i_i_glide_confnum>  (1) 
4

>  <i_i_glide_lignum>  (1) 
50

>  <i_i_glide_posenum>  (1) 
204

>  <i_i_glide_rotatable_bonds>  (1) 
0

>  <i_lp_mmshare_version>  (1) 
72125

>  <i_m_source_file_index>  (1) 
50

>  <i_f3d_flags>  (1) 
0

>  <num_sample>  (1) 
50

>  <b_lp_Chiralities_Consistent>  (1) 
1

>  <r_epik_Charging_Adjusted_Penalty>  (1) 
0

>  <r_epik_Ionization_Penalty>  (1) 
1.3889264151150229e-11

>  <r_epik_Ionization_Penalty_Charging>  (1) 
0

>  <r_epik_Ionization_Penalty_Neutral>  (1) 
1.3889264151150229e-11

>  <r_epik_State_Penalty>  (1) 
-0

>  <r_glide_ring_energy>  (1) 
0.22164722245690596

>  <r_i_docking_score>  (1) 
-4.3091489574408302

>  <r_i_glide_ecoul>  (1) 
-0.39854909483750051

>  <r_i_glide_eff_state_penalty>  (1) 
-0

>  <r_i_glide_einternal>  (1) 
0

>  <r_i_glide_emodel>  (1) 
-16.625293983290586

>  <r_i_glide_emodel_strain>  (1) 
0

>  <r_i_glide_energy>  (1) 
-13.107716208813773

>  <r_i_glide_erotb>  (1) 
0

>  <r_i_glide_esite>  (1) 
0

>  <r_i_glide_evdw>  (1) 
-12.709167113976273

>  <r_i_glide_gscore>  (1) 
-4.3091489574408302

>  <r_i_glide_gscore_strain>  (1) 
0

>  <r_i_glide_hbond>  (1) 
0

>  <r_i_glide_ligand_efficiency>  (1) 
-0.86182979148816607

>  <r_i_glide_ligand_efficiency_ln>  (1) 
-1.6513705641002312

>  <r_i_glide_ligand_efficiency_sa>  (1) 
-1.473708213574157

>  <r_i_glide_lipo>  (1) 
-1.2626289343612247

>  <r_i_glide_metal>  (1) 
-0

>  <r_i_glide_rewards>  (1) 
-2.3512793031551671

>  <r_lp_Energy>  (1) 
3.9174029999999997

>  <r_lp_tautomer_probability>  (1) 
1

>  <s_epik_cmdline>  (1) 
J2VwaWtfcHl0aG9uJywgJy1waHQnLCAnMS4wJywgJy1waCcsICc3LjQnLCAnLXRuJywgJzgnLCAnLW1hJywgJzUwMCcsICctaW1hZScsICc8aW5maWxlLm1hZT4nLCAnLW9tYWUnLCAnPG91dGZpbGUubWFlPic=

>  <s_epik_input>  (1) 
W0NIMl0xT1tDSDJdW0NIMl1bQ0gyXTE=

>  <s_glide_docking_method>  (1) 
confgen

>  <s_i_glide_gridfile>  (1) 
gpcr_5ht2c_6bqh_protein_autoprepared_prepared

>  <s_lp_Force_Field>  (1) 
S-OPLS

>  <s_lp_Variant>  (1) 
Pocket2Mol_49-1

>  <s_m_source_file>  (1) 
generated_GPCR_5HT2C_ligand_Pocket2Mol_2026-06-23_prepared.sdf

>  <GenAI_Model>  (1) 
Pocket2Mol

>  <Protein>  (1) 
GPCR_5HT2C

$$$$
Pocket2Mol_40
     RDKit          3D

  0  0  0  0  0  0  0  0  0  0999 V3000
M  V30 BEGIN CTAB
M  V30 COUNTS 10 9 0 0 1
M  V30 BEGIN ATOM
M  V30 1 C 38.055609 30.068280 59.326294 0
M  V30 2 O 39.112415 30.241822 60.253920 0
M  V30 3 C 38.872557 30.899522 61.408018 0
M  V30 4 C 40.172621 31.050576 62.255445 0
M  V30 5 O 37.774905 31.337757 61.767763 0
M  V30 6 O 41.209344 30.537633 61.767749 0
M  V30 7 O 40.045170 31.671576 63.334802 0 CHG=-1
M  V30 8 H 38.416623 29.528807 58.451234 0
M  V30 9 H 37.664447 31.031897 58.995868 0
M  V30 10 H 37.240202 29.494242 59.767777 0
M  V30 END ATOM
M  V30 BEGIN BOND
M  V30 1 1 2 1
M  V30 2 1 3 2
M  V30 3 1 4 3
M  V30 4 2 5 3
M  V30 5 2 6 4
M  V30 6 1 7 4
M  V30 7 1 8 1
M  V30 8 1 9 1
M  V30 9 1 10 1
M  V30 END BOND
M  V30 END CTAB
M  END
>  <i_epik_Tot_Q>  (1) 
-1

>  <i_epik_Tot_abs_Q>  (1) 
1

>  <i_i_glide_confnum>  (1) 
1

>  <i_i_glide_lignum>  (1) 
41

>  <i_i_glide_posenum>  (1) 
76

>  <i_i_glide_rotatable_bonds>  (1) 
2

>  <i_lp_mmshare_version>  (1) 
72125

>  <i_m_source_file_index>  (1) 
41

>  <i_f3d_flags>  (1) 
0

>  <num_sample>  (1) 
50

>  <b_lp_Chiralities_Consistent>  (1) 
1

>  <r_epik_Charging_Adjusted_Penalty>  (1) 
5.6581681309968728e-06

>  <r_epik_Ionization_Penalty>  (1) 
5.6581681309968728e-06

>  <r_epik_Ionization_Penalty_Charging>  (1) 
5.6581681309968728e-06

>  <r_epik_Ionization_Penalty_Neutral>  (1) 
0

>  <r_epik_State_Penalty>  (1) 
-0

>  <r_glide_ring_energy>  (1) 
0

>  <r_i_docking_score>  (1) 
-4.3077771569472079

>  <r_i_glide_ecoul>  (1) 
-5.5666860834589205

>  <r_i_glide_eff_state_penalty>  (1) 
-0

>  <r_i_glide_einternal>  (1) 
0.02908302727829204

>  <r_i_glide_emodel>  (1) 
-18.963577398880972

>  <r_i_glide_emodel_strain>  (1) 
0

>  <r_i_glide_energy>  (1) 
-14.491950995725288

>  <r_i_glide_erotb>  (1) 
0

>  <r_i_glide_esite>  (1) 
0

>  <r_i_glide_evdw>  (1) 
-8.9252649122663676

>  <r_i_glide_gscore>  (1) 
-4.3077771569472079

>  <r_i_glide_gscore_strain>  (1) 
0

>  <r_i_glide_hbond>  (1) 
-0.38133459598110819

>  <r_i_glide_ligand_efficiency>  (1) 
-0.615396736706744

>  <r_i_glide_ligand_efficiency_ln>  (1) 
-1.4622907485242258

>  <r_i_glide_ligand_efficiency_sa>  (1) 
-1.1772116074227004

>  <r_i_glide_lipo>  (1) 
-0.0058101491471131096

>  <r_i_glide_metal>  (1) 
-0

>  <r_i_glide_rewards>  (1) 
-2.6393662536868305

>  <r_lp_Energy>  (1) 
21.029133999999999

>  <r_lp_tautomer_probability>  (1) 
1

>  <s_epik_Chemistry_Notes>  (1) 
This compound has an ester and may undergo hydrolysis at high or low pH.

>  <s_epik_cmdline>  (1) 
J2VwaWtfcHl0aG9uJywgJy1waHQnLCAnMS4wJywgJy1waCcsICc3LjQnLCAnLXRuJywgJzgnLCAnLW1hJywgJzUwMCcsICctaW1hZScsICc8aW5maWxlLm1hZT4nLCAnLW9tYWUnLCAnPG91dGZpbGUubWFlPic=

>  <s_epik_input>  (1) 
W0NIM11PQyg9TylDKD1PKVtPSF0=

>  <s_glide_docking_method>  (1) 
confgen

>  <s_i_glide_gridfile>  (1) 
gpcr_5ht2c_6bqh_protein_autoprepared_prepared

>  <s_lp_Force_Field>  (1) 
S-OPLS

>  <s_lp_Variant>  (1) 
Pocket2Mol_40-1

>  <s_m_source_file>  (1) 
generated_GPCR_5HT2C_ligand_Pocket2Mol_2026-06-23_prepared.sdf

>  <GenAI_Model>  (1) 
Pocket2Mol

>  <Protein>  (1) 
GPCR_5HT2C

$$$$
Pocket2Mol_48
     RDKit          3D

  0  0  0  0  0  0  0  0  0  0999 V3000
M  V30 BEGIN CTAB
M  V30 COUNTS 15 15 0 0 1
M  V30 BEGIN ATOM
M  V30 1 C 39.960605 29.281808 51.573645 0
M  V30 2 C 39.245156 28.094951 50.924489 0
M  V30 3 C 39.245112 29.516353 52.912587 0
M  V30 4 C 38.116079 28.482074 52.966584 0
M  V30 5 N 38.481557 27.437151 51.997778 0 CHG=1
M  V30 6 H 39.931840 30.164981 50.932872 0
M  V30 7 H 41.009574 29.039469 51.745168 0
M  V30 8 H 38.550237 28.460392 50.168424 0
M  V30 9 H 39.931826 27.402247 50.436411 0
M  V30 10 H 39.934666 29.369810 53.742760 0
M  V30 11 H 38.860975 30.532326 53.002791 0
M  V30 12 H 37.964825 28.073594 53.966576 0
M  V30 13 H 37.181161 28.937755 52.643378 0
M  V30 14 H 39.087359 26.774809 52.459805 0
M  V30 15 H 37.665788 26.952383 51.639319 0
M  V30 END ATOM
M  V30 BEGIN BOND
M  V30 1 1 2 1
M  V30 2 1 3 1
M  V30 3 1 4 3
M  V30 4 1 5 2
M  V30 5 1 5 4
M  V30 6 1 6 1
M  V30 7 1 7 1
M  V30 8 1 8 2
M  V30 9 1 9 2
M  V30 10 1 10 3
M  V30 11 1 11 3
M  V30 12 1 12 4
M  V30 13 1 13 4
M  V30 14 1 14 5
M  V30 15 1 15 5
M  V30 END BOND
M  V30 END CTAB
M  END
>  <i_epik_Tot_Q>  (1) 
1

>  <i_epik_Tot_abs_Q>  (1) 
1

>  <i_i_glide_confnum>  (1) 
1

>  <i_i_glide_lignum>  (1) 
49

>  <i_i_glide_posenum>  (1) 
94

>  <i_i_glide_rotatable_bonds>  (1) 
0

>  <i_lp_mmshare_version>  (1) 
72125

>  <i_m_source_file_index>  (1) 
49

>  <i_f3d_flags>  (1) 
0

>  <num_sample>  (1) 
50

>  <b_lp_Chiralities_Consistent>  (1) 
1

>  <r_epik_Charging_Adjusted_Penalty>  (1) 
0.00011848530527437102

>  <r_epik_Ionization_Penalty>  (1) 
0.00011848530527437102

>  <r_epik_Ionization_Penalty_Charging>  (1) 
0.00011848530527437102

>  <r_epik_Ionization_Penalty_Neutral>  (1) 
0

>  <r_epik_State_Penalty>  (1) 
-0

>  <r_glide_ring_energy>  (1) 
0

>  <r_i_docking_score>  (1) 
-4.291683536098521

>  <r_i_glide_ecoul>  (1) 
-1.9012600858790369

>  <r_i_glide_eff_state_penalty>  (1) 
-0

>  <r_i_glide_einternal>  (1) 
0

>  <r_i_glide_emodel>  (1) 
-18.622124164458025

>  <r_i_glide_emodel_strain>  (1) 
0.59585522089745524

>  <r_i_glide_energy>  (1) 
-12.517774593567967

>  <r_i_glide_erotb>  (1) 
0

>  <r_i_glide_esite>  (1) 
0

>  <r_i_glide_evdw>  (1) 
-10.616514507688931

>  <r_i_glide_gscore>  (1) 
-4.291683536098521

>  <r_i_glide_gscore_strain>  (1) 
0

>  <r_i_glide_hbond>  (1) 
0

>  <r_i_glide_ligand_efficiency>  (1) 
-0.85833670721970423

>  <r_i_glide_ligand_efficiency_ln>  (1) 
-1.6446773903484873

>  <r_i_glide_ligand_efficiency_sa>  (1) 
-1.4677351234953726

>  <r_i_glide_lipo>  (1) 
-1.2256687978322187

>  <r_i_glide_metal>  (1) 
-0

>  <r_i_glide_rewards>  (1) 
-2.25

>  <r_lp_Energy>  (1) 
17.726251999999999

>  <r_lp_tautomer_probability>  (1) 
1

>  <s_epik_cmdline>  (1) 
J2VwaWtfcHl0aG9uJywgJy1waHQnLCAnMS4wJywgJy1waCcsICc3LjQnLCAnLXRuJywgJzgnLCAnLW1hJywgJzUwMCcsICctaW1hZScsICc8aW5maWxlLm1hZT4nLCAnLW9tYWUnLCAnPG91dGZpbGUubWFlPic=

>  <s_epik_input>  (1) 
W0NIMl0xW0NIMl1bTkhdW0NIMl1bQ0gyXTE=

>  <s_glide_docking_method>  (1) 
confgen

>  <s_i_glide_gridfile>  (1) 
gpcr_5ht2c_6bqh_protein_autoprepared_prepared

>  <s_lp_Force_Field>  (1) 
S-OPLS

>  <s_lp_Variant>  (1) 
Pocket2Mol_48-1

>  <s_m_source_file>  (1) 
generated_GPCR_5HT2C_ligand_Pocket2Mol_2026-06-23_prepared.sdf

>  <GenAI_Model>  (1) 
Pocket2Mol

>  <Protein>  (1) 
GPCR_5HT2C

$$$$
Pocket2Mol_12
     RDKit          3D

  0  0  0  0  0  0  0  0  0  0999 V3000
M  V30 BEGIN CTAB
M  V30 COUNTS 10 10 0 0 1
M  V30 BEGIN ATOM
M  V30 1 C 40.009066 30.506330 52.336838 0
M  V30 2 C 40.431153 30.532276 50.869084 0
M  V30 3 O 39.370929 29.254535 52.451188 0
M  V30 4 O 40.045135 29.255548 50.410028 0
M  V30 5 C 39.444231 28.519063 51.341409 0
M  V30 6 O 39.031658 27.370446 51.202183 0
M  V30 7 H 39.312991 31.313698 52.571277 0
M  V30 8 H 40.845102 30.558173 53.031048 0
M  V30 9 H 39.902516 31.311506 50.315494 0
M  V30 10 H 41.505483 30.678009 50.746972 0
M  V30 END ATOM
M  V30 BEGIN BOND
M  V30 1 1 2 1
M  V30 2 1 3 1
M  V30 3 1 4 2
M  V30 4 1 5 3
M  V30 5 1 5 4
M  V30 6 2 6 5
M  V30 7 1 7 1
M  V30 8 1 8 1
M  V30 9 1 9 2
M  V30 10 1 10 2
M  V30 END BOND
M  V30 END CTAB
M  END
>  <i_epik_Tot_Q>  (1) 
0

>  <i_epik_Tot_abs_Q>  (1) 
0

>  <i_i_glide_confnum>  (1) 
1

>  <i_i_glide_lignum>  (1) 
13

>  <i_i_glide_posenum>  (1) 
175

>  <i_i_glide_rotatable_bonds>  (1) 
0

>  <i_lp_mmshare_version>  (1) 
72125

>  <i_m_source_file_index>  (1) 
13

>  <i_f3d_flags>  (1) 
0

>  <num_sample>  (1) 
50

>  <b_lp_Chiralities_Consistent>  (1) 
1

>  <r_epik_Charging_Adjusted_Penalty>  (1) 
0

>  <r_epik_Ionization_Penalty>  (1) 
0

>  <r_epik_Ionization_Penalty_Charging>  (1) 
0

>  <r_epik_Ionization_Penalty_Neutral>  (1) 
0

>  <r_epik_State_Penalty>  (1) 
-0

>  <r_glide_ring_energy>  (1) 
0

>  <r_i_docking_score>  (1) 
-4.2899053672746712

>  <r_i_glide_ecoul>  (1) 
0.14735802013502206

>  <r_i_glide_eff_state_penalty>  (1) 
-0

>  <r_i_glide_einternal>  (1) 
0

>  <r_i_glide_emodel>  (1) 
-19.999133732433652

>  <r_i_glide_emodel_strain>  (1) 
1.097571811214948e-09

>  <r_i_glide_energy>  (1) 
-15.568037179187378

>  <r_i_glide_erotb>  (1) 
0

>  <r_i_glide_esite>  (1) 
0

>  <r_i_glide_evdw>  (1) 
-15.715395199322399

>  <r_i_glide_gscore>  (1) 
-4.2899053672746712

>  <r_i_glide_gscore_strain>  (1) 
0

>  <r_i_glide_hbond>  (1) 
0

>  <r_i_glide_ligand_efficiency>  (1) 
-0.71498422787911187

>  <r_i_glide_ligand_efficiency_ln>  (1) 
-1.5366314378297306

>  <r_i_glide_ligand_efficiency_sa>  (1) 
-1.2992125640293215

>  <r_i_glide_lipo>  (1) 
-0.52623931032880467

>  <r_i_glide_metal>  (1) 
-0

>  <r_i_glide_rewards>  (1) 
-3

>  <r_lp_Energy>  (1) 
-6.8415979999999994

>  <r_lp_tautomer_probability>  (1) 
1

>  <s_epik_Chemistry_Notes>  (1) 
This compound has an ester and may undergo hydrolysis at high or low pH.

>  <s_epik_cmdline>  (1) 
J2VwaWtfcHl0aG9uJywgJy1waHQnLCAnMS4wJywgJy1waCcsICc3LjQnLCAnLXRuJywgJzgnLCAnLW1hJywgJzUwMCcsICctaW1hZScsICc8aW5maWxlLm1hZT4nLCAnLW9tYWUnLCAnPG91dGZpbGUubWFlPic=

>  <s_epik_input>  (1) 
TzFbQ0gyXVtDSDJdT0MxPU8=

>  <s_glide_docking_method>  (1) 
confgen

>  <s_i_glide_gridfile>  (1) 
gpcr_5ht2c_6bqh_protein_autoprepared_prepared

>  <s_lp_Force_Field>  (1) 
S-OPLS

>  <s_lp_Variant>  (1) 
Pocket2Mol_12-1

>  <s_m_source_file>  (1) 
generated_GPCR_5HT2C_ligand_Pocket2Mol_2026-06-23_prepared.sdf

>  <GenAI_Model>  (1) 
Pocket2Mol

>  <Protein>  (1) 
GPCR_5HT2C

$$$$
Pocket2Mol_12
     RDKit          3D

  0  0  0  0  0  0  0  0  0  0999 V3000
M  V30 BEGIN CTAB
M  V30 COUNTS 10 10 0 0 1
M  V30 BEGIN ATOM
M  V30 1 C 40.044965 29.721823 51.299665 0
M  V30 2 C 39.633399 28.452687 50.567787 0
M  V30 3 O 39.439567 29.538453 52.560047 0
M  V30 4 O 38.632861 27.923334 51.399837 0
M  V30 5 C 38.559872 28.535305 52.575403 0
M  V30 6 O 37.817794 28.233297 53.505864 0
M  V30 7 H 39.638434 30.609611 50.815429 0
M  V30 8 H 41.126954 29.828519 51.368341 0
M  V30 9 H 39.259800 28.656886 49.564443 0
M  V30 10 H 40.445137 27.734522 50.505270 0
M  V30 END ATOM
M  V30 BEGIN BOND
M  V30 1 1 2 1
M  V30 2 1 3 1
M  V30 3 1 4 2
M  V30 4 1 5 3
M  V30 5 1 5 4
M  V30 6 2 6 5
M  V30 7 1 7 1
M  V30 8 1 8 1
M  V30 9 1 9 2
M  V30 10 1 10 2
M  V30 END BOND
M  V30 END CTAB
M  END
>  <i_epik_Tot_Q>  (1) 
0

>  <i_epik_Tot_abs_Q>  (1) 
0

>  <i_i_glide_confnum>  (1) 
2

>  <i_i_glide_lignum>  (1) 
13

>  <i_i_glide_posenum>  (1) 
219

>  <i_i_glide_rotatable_bonds>  (1) 
0

>  <i_lp_mmshare_version>  (1) 
72125

>  <i_m_source_file_index>  (1) 
13

>  <i_f3d_flags>  (1) 
0

>  <num_sample>  (1) 
50

>  <b_lp_Chiralities_Consistent>  (1) 
1

>  <r_epik_Charging_Adjusted_Penalty>  (1) 
0

>  <r_epik_Ionization_Penalty>  (1) 
0

>  <r_epik_Ionization_Penalty_Charging>  (1) 
0

>  <r_epik_Ionization_Penalty_Neutral>  (1) 
0

>  <r_epik_State_Penalty>  (1) 
-0

>  <r_glide_ring_energy>  (1) 
0.00053108536261990756

>  <r_i_docking_score>  (1) 
-4.2843574209771056

>  <r_i_glide_ecoul>  (1) 
-0.092737339842664857

>  <r_i_glide_eff_state_penalty>  (1) 
-0

>  <r_i_glide_einternal>  (1) 
0

>  <r_i_glide_emodel>  (1) 
-19.971134936255666

>  <r_i_glide_emodel_strain>  (1) 
0

>  <r_i_glide_energy>  (1) 
-15.545768924573755

>  <r_i_glide_erotb>  (1) 
0

>  <r_i_glide_esite>  (1) 
0

>  <r_i_glide_evdw>  (1) 
-15.45303158473109

>  <r_i_glide_gscore>  (1) 
-4.2843574209771056

>  <r_i_glide_gscore_strain>  (1) 
0

>  <r_i_glide_hbond>  (1) 
0

>  <r_i_glide_ligand_efficiency>  (1) 
-0.71405957016285093

>  <r_i_glide_ligand_efficiency_ln>  (1) 
-1.5346441798446793

>  <r_i_glide_ligand_efficiency_sa>  (1) 
-1.2975323494517828

>  <r_i_glide_lipo>  (1) 
-0.66000000000000003

>  <r_i_glide_metal>  (1) 
-0

>  <r_i_glide_rewards>  (1) 
-2.8377952407641516

>  <r_lp_Energy>  (1) 
-6.8415979999999994

>  <r_lp_tautomer_probability>  (1) 
1

>  <s_epik_Chemistry_Notes>  (1) 
This compound has an ester and may undergo hydrolysis at high or low pH.

>  <s_epik_cmdline>  (1) 
J2VwaWtfcHl0aG9uJywgJy1waHQnLCAnMS4wJywgJy1waCcsICc3LjQnLCAnLXRuJywgJzgnLCAnLW1hJywgJzUwMCcsICctaW1hZScsICc8aW5maWxlLm1hZT4nLCAnLW9tYWUnLCAnPG91dGZpbGUubWFlPic=

>  <s_epik_input>  (1) 
TzFbQ0gyXVtDSDJdT0MxPU8=

>  <s_glide_docking_method>  (1) 
confgen

>  <s_i_glide_gridfile>  (1) 
gpcr_5ht2c_6bqh_protein_autoprepared_prepared

>  <s_lp_Force_Field>  (1) 
S-OPLS

>  <s_lp_Variant>  (1) 
Pocket2Mol_12-1

>  <s_m_source_file>  (1) 
generated_GPCR_5HT2C_ligand_Pocket2Mol_2026-06-23_prepared.sdf

>  <GenAI_Model>  (1) 
Pocket2Mol

>  <Protein>  (1) 
GPCR_5HT2C

$$$$
Pocket2Mol_37
     RDKit          3D

  0  0  0  0  0  0  0  0  0  0999 V3000
M  V30 BEGIN CTAB
M  V30 COUNTS 15 15 0 0 1
M  V30 BEGIN ATOM
M  V30 1 C 35.331991 32.954390 60.743263 0
M  V30 2 C 36.520196 33.905390 60.955299 0
M  V30 3 O 35.767990 31.618010 60.936303 0
M  V30 4 C 36.531978 31.120389 59.884910 0
M  V30 5 O 37.333638 34.106694 59.806455 0
M  V30 6 O 37.740870 31.798204 59.700858 0
M  V30 7 C 37.594226 32.999227 59.000712 0
M  V30 8 H 34.581878 33.155829 61.508502 0
M  V30 9 H 34.842830 33.101933 59.778830 0
M  V30 10 H 37.143900 33.541579 61.771396 0
M  V30 11 H 36.153685 34.885174 61.261420 0
M  V30 12 H 35.941587 31.066199 58.967758 0
M  V30 13 H 36.788679 30.095800 60.151202 0
M  V30 14 H 38.544266 33.200726 58.505649 0
M  V30 15 H 36.845143 32.936578 58.209190 0
M  V30 END ATOM
M  V30 BEGIN BOND
M  V30 1 1 2 1
M  V30 2 1 3 1
M  V30 3 1 4 3
M  V30 4 1 5 2
M  V30 5 1 6 4
M  V30 6 1 7 5
M  V30 7 1 7 6
M  V30 8 1 8 1
M  V30 9 1 9 1
M  V30 10 1 10 2
M  V30 11 1 11 2
M  V30 12 1 12 4
M  V30 13 1 13 4
M  V30 14 1 14 7
M  V30 15 1 15 7
M  V30 END BOND
M  V30 END CTAB
M  END
>  <i_epik_Tot_Q>  (1) 
0

>  <i_epik_Tot_abs_Q>  (1) 
0

>  <i_i_glide_confnum>  (1) 
4

>  <i_i_glide_lignum>  (1) 
38

>  <i_i_glide_posenum>  (1) 
78

>  <i_i_glide_rotatable_bonds>  (1) 
0

>  <i_lp_mmshare_version>  (1) 
72125

>  <i_m_source_file_index>  (1) 
38

>  <i_f3d_flags>  (1) 
0

>  <num_sample>  (1) 
50

>  <b_lp_Chiralities_Consistent>  (1) 
1

>  <r_epik_Charging_Adjusted_Penalty>  (1) 
0

>  <r_epik_Ionization_Penalty>  (1) 
4.6834743432320728e-14

>  <r_epik_Ionization_Penalty_Charging>  (1) 
0

>  <r_epik_Ionization_Penalty_Neutral>  (1) 
4.6834743432320728e-14

>  <r_epik_State_Penalty>  (1) 
-0

>  <r_glide_ring_energy>  (1) 
0.00034554738616163878

>  <r_i_docking_score>  (1) 
-4.283626780354056

>  <r_i_glide_ecoul>  (1) 
-2.8388184141877177

>  <r_i_glide_eff_state_penalty>  (1) 
-0

>  <r_i_glide_einternal>  (1) 
0

>  <r_i_glide_emodel>  (1) 
-20.376228500369059

>  <r_i_glide_emodel_strain>  (1) 
0

>  <r_i_glide_energy>  (1) 
-15.584591458774174

>  <r_i_glide_erotb>  (1) 
0

>  <r_i_glide_esite>  (1) 
-0.13280575488855786

>  <r_i_glide_evdw>  (1) 
-12.745773044586455

>  <r_i_glide_gscore>  (1) 
-4.283626780354056

>  <r_i_glide_gscore_strain>  (1) 
0

>  <r_i_glide_hbond>  (1) 
-0.13917811380502851

>  <r_i_glide_ligand_efficiency>  (1) 
-0.61194668290772225

>  <r_i_glide_ligand_efficiency_ln>  (1) 
-1.4540928146527883

>  <r_i_glide_ligand_efficiency_sa>  (1) 
-1.1706118919283093

>  <r_i_glide_lipo>  (1) 
-0.28838397859973269

>  <r_i_glide_metal>  (1) 
-0

>  <r_i_glide_rewards>  (1) 
-2.6601475187032566

>  <r_lp_Energy>  (1) 
1.238378

>  <r_lp_tautomer_probability>  (1) 
1

>  <s_epik_Chemistry_Notes>  (1) 
This compound contains an acetal/aminal-like group ( X-CH(R)-Y where X, Y are N, S, or O) that may be acid/base labile, releasing an aldehyde.

>  <s_epik_cmdline>  (1) 
J2VwaWtfcHl0aG9uJywgJy1waHQnLCAnMS4wJywgJy1waCcsICc3LjQnLCAnLXRuJywgJzgnLCAnLW1hJywgJzUwMCcsICctaW1hZScsICc8aW5maWxlLm1hZT4nLCAnLW9tYWUnLCAnPG91dGZpbGUubWFlPic=

>  <s_epik_input>  (1) 
W0NIMl0xW0NIMl1PW0NIMl1PW0NIMl1PMQ==

>  <s_glide_docking_method>  (1) 
confgen

>  <s_i_glide_gridfile>  (1) 
gpcr_5ht2c_6bqh_protein_autoprepared_prepared

>  <s_lp_Force_Field>  (1) 
S-OPLS

>  <s_lp_Variant>  (1) 
Pocket2Mol_37-1

>  <s_m_source_file>  (1) 
generated_GPCR_5HT2C_ligand_Pocket2Mol_2026-06-23_prepared.sdf

>  <GenAI_Model>  (1) 
Pocket2Mol

>  <Protein>  (1) 
GPCR_5HT2C

$$$$
Pocket2Mol_45
     RDKit          3D

  0  0  0  0  0  0  0  0  0  0999 V3000
M  V30 BEGIN CTAB
M  V30 COUNTS 11 11 0 0 1
M  V30 BEGIN ATOM
M  V30 1 C 40.148441 30.089358 50.973907 0
M  V30 2 O 40.038086 30.274126 52.370141 0
M  V30 3 C 39.646004 28.665524 50.779295 0
M  V30 4 O 38.638233 28.594622 51.760960 0
M  V30 5 C 39.131960 29.325955 52.830630 0
M  V30 6 H 39.501044 30.809696 50.472268 0
M  V30 7 H 41.169450 30.233564 50.617629 0
M  V30 8 H 39.263981 28.485073 49.774522 0
M  V30 9 H 40.438476 27.945074 50.990136 0
M  V30 10 H 39.645095 28.653512 53.518650 0
M  V30 11 H 38.311134 29.810129 53.363770 0
M  V30 END ATOM
M  V30 BEGIN BOND
M  V30 1 1 2 1
M  V30 2 1 3 1
M  V30 3 1 4 3
M  V30 4 1 5 2
M  V30 5 1 5 4
M  V30 6 1 6 1
M  V30 7 1 7 1
M  V30 8 1 8 3
M  V30 9 1 9 3
M  V30 10 1 10 5
M  V30 11 1 11 5
M  V30 END BOND
M  V30 END CTAB
M  END
>  <i_epik_Tot_Q>  (1) 
0

>  <i_epik_Tot_abs_Q>  (1) 
0

>  <i_i_glide_confnum>  (1) 
3

>  <i_i_glide_lignum>  (1) 
46

>  <i_i_glide_posenum>  (1) 
216

>  <i_i_glide_rotatable_bonds>  (1) 
0

>  <i_lp_mmshare_version>  (1) 
72125

>  <i_m_source_file_index>  (1) 
46

>  <i_f3d_flags>  (1) 
0

>  <num_sample>  (1) 
50

>  <b_lp_Chiralities_Consistent>  (1) 
1

>  <r_epik_Charging_Adjusted_Penalty>  (1) 
0

>  <r_epik_Ionization_Penalty>  (1) 
7.9724310449397378e-14

>  <r_epik_Ionization_Penalty_Charging>  (1) 
0

>  <r_epik_Ionization_Penalty_Neutral>  (1) 
7.9724310449397378e-14

>  <r_epik_State_Penalty>  (1) 
-0

>  <r_glide_ring_energy>  (1) 
0.2805525668492585

>  <r_i_docking_score>  (1) 
-4.2774963401436308

>  <r_i_glide_ecoul>  (1) 
0.15989415561969925

>  <r_i_glide_eff_state_penalty>  (1) 
-0

>  <r_i_glide_einternal>  (1) 
0

>  <r_i_glide_emodel>  (1) 
-15.744578393831091

>  <r_i_glide_emodel_strain>  (1) 
3.2120768267418498e-09

>  <r_i_glide_energy>  (1) 
-12.378481571412191

>  <r_i_glide_erotb>  (1) 
0

>  <r_i_glide_esite>  (1) 
0

>  <r_i_glide_evdw>  (1) 
-12.538375727031891

>  <r_i_glide_gscore>  (1) 
-4.2774963401436308

>  <r_i_glide_gscore_strain>  (1) 
0

>  <r_i_glide_hbond>  (1) 
0

>  <r_i_glide_ligand_efficiency>  (1) 
-0.85549926802872611

>  <r_i_glide_ligand_efficiency_ln>  (1) 
-1.6392405122042373

>  <r_i_glide_ligand_efficiency_sa>  (1) 
-1.4628831707286423

>  <r_i_glide_lipo>  (1) 
-0.66000000000000003

>  <r_i_glide_metal>  (1) 
-0

>  <r_i_glide_rewards>  (1) 
-3.0145616771349917

>  <r_lp_Energy>  (1) 
-12.242987999999999

>  <r_lp_tautomer_probability>  (1) 
1

>  <s_epik_Chemistry_Notes>  (1) 
This compound contains an acetal/aminal-like group ( X-CH(R)-Y where X, Y are N, S, or O) that may be acid/base labile, releasing an aldehyde.

>  <s_epik_cmdline>  (1) 
J2VwaWtfcHl0aG9uJywgJy1waHQnLCAnMS4wJywgJy1waCcsICc3LjQnLCAnLXRuJywgJzgnLCAnLW1hJywgJzUwMCcsICctaW1hZScsICc8aW5maWxlLm1hZT4nLCAnLW9tYWUnLCAnPG91dGZpbGUubWFlPic=

>  <s_epik_input>  (1) 
W0NIMl0xT1tDSDJdT1tDSDJdMQ==

>  <s_glide_docking_method>  (1) 
confgen

>  <s_i_glide_gridfile>  (1) 
gpcr_5ht2c_6bqh_protein_autoprepared_prepared

>  <s_lp_Force_Field>  (1) 
S-OPLS

>  <s_lp_Variant>  (1) 
Pocket2Mol_45-1

>  <s_m_source_file>  (1) 
generated_GPCR_5HT2C_ligand_Pocket2Mol_2026-06-23_prepared.sdf

>  <GenAI_Model>  (1) 
Pocket2Mol

>  <Protein>  (1) 
GPCR_5HT2C

$$$$
Pocket2Mol_45
     RDKit          3D

  0  0  0  0  0  0  0  0  0  0999 V3000
M  V30 BEGIN CTAB
M  V30 COUNTS 11 11 0 0 1
M  V30 BEGIN ATOM
M  V30 1 C 36.392615 31.339870 60.167888 0
M  V30 2 O 35.645105 31.737732 61.297088 0
M  V30 3 C 37.038387 32.651699 59.706088 0
M  V30 4 O 36.325373 33.661333 60.396896 0
M  V30 5 C 35.245137 33.018804 60.967950 0
M  V30 6 H 37.122774 30.569409 60.415701 0
M  V30 7 H 35.718814 30.947921 59.403217 0
M  V30 8 H 38.091316 32.701263 59.985200 0
M  V30 9 H 36.959080 32.781203 58.625694 0
M  V30 10 H 34.428859 32.976832 60.242386 0
M  V30 11 H 34.902195 33.558923 61.850792 0
M  V30 END ATOM
M  V30 BEGIN BOND
M  V30 1 1 2 1
M  V30 2 1 3 1
M  V30 3 1 4 3
M  V30 4 1 5 2
M  V30 5 1 5 4
M  V30 6 1 6 1
M  V30 7 1 7 1
M  V30 8 1 8 3
M  V30 9 1 9 3
M  V30 10 1 10 5
M  V30 11 1 11 5
M  V30 END BOND
M  V30 END CTAB
M  END
>  <i_epik_Tot_Q>  (1) 
0

>  <i_epik_Tot_abs_Q>  (1) 
0

>  <i_i_glide_confnum>  (1) 
1

>  <i_i_glide_lignum>  (1) 
46

>  <i_i_glide_posenum>  (1) 
204

>  <i_i_glide_rotatable_bonds>  (1) 
0

>  <i_lp_mmshare_version>  (1) 
72125

>  <i_m_source_file_index>  (1) 
46

>  <i_f3d_flags>  (1) 
0

>  <num_sample>  (1) 
50

>  <b_lp_Chiralities_Consistent>  (1) 
1

>  <r_epik_Charging_Adjusted_Penalty>  (1) 
0

>  <r_epik_Ionization_Penalty>  (1) 
7.9724310449397378e-14

>  <r_epik_Ionization_Penalty_Charging>  (1) 
0

>  <r_epik_Ionization_Penalty_Neutral>  (1) 
7.9724310449397378e-14

>  <r_epik_State_Penalty>  (1) 
-0

>  <r_glide_ring_energy>  (1) 
0

>  <r_i_docking_score>  (1) 
-4.2577817026179918

>  <r_i_glide_ecoul>  (1) 
-2.3735840610987466

>  <r_i_glide_eff_state_penalty>  (1) 
-0

>  <r_i_glide_einternal>  (1) 
0

>  <r_i_glide_emodel>  (1) 
-15.640243453988594

>  <r_i_glide_emodel_strain>  (1) 
0.078088258409296785

>  <r_i_glide_energy>  (1) 
-12.367748957035248

>  <r_i_glide_erotb>  (1) 
0

>  <r_i_glide_esite>  (1) 
0

>  <r_i_glide_evdw>  (1) 
-9.9941648959365015

>  <r_i_glide_gscore>  (1) 
-4.2577817026179918

>  <r_i_glide_gscore_strain>  (1) 
0

>  <r_i_glide_hbond>  (1) 
-0.31232255188176278

>  <r_i_glide_ligand_efficiency>  (1) 
-0.85155634052359841

>  <r_i_glide_ligand_efficiency_ln>  (1) 
-1.6316853841700742

>  <r_i_glide_ligand_efficiency_sa>  (1) 
-1.456140859535384

>  <r_i_glide_lipo>  (1) 
0

>  <r_i_glide_metal>  (1) 
-0

>  <r_i_glide_rewards>  (1) 
-3.0897132967745926

>  <r_lp_Energy>  (1) 
-12.242987999999999

>  <r_lp_tautomer_probability>  (1) 
1

>  <s_epik_Chemistry_Notes>  (1) 
This compound contains an acetal/aminal-like group ( X-CH(R)-Y where X, Y are N, S, or O) that may be acid/base labile, releasing an aldehyde.

>  <s_epik_cmdline>  (1) 
J2VwaWtfcHl0aG9uJywgJy1waHQnLCAnMS4wJywgJy1waCcsICc3LjQnLCAnLXRuJywgJzgnLCAnLW1hJywgJzUwMCcsICctaW1hZScsICc8aW5maWxlLm1hZT4nLCAnLW9tYWUnLCAnPG91dGZpbGUubWFlPic=

>  <s_epik_input>  (1) 
W0NIMl0xT1tDSDJdT1tDSDJdMQ==

>  <s_glide_docking_method>  (1) 
confgen

>  <s_i_glide_gridfile>  (1) 
gpcr_5ht2c_6bqh_protein_autoprepared_prepared

>  <s_lp_Force_Field>  (1) 
S-OPLS

>  <s_lp_Variant>  (1) 
Pocket2Mol_45-1

>  <s_m_source_file>  (1) 
generated_GPCR_5HT2C_ligand_Pocket2Mol_2026-06-23_prepared.sdf

>  <GenAI_Model>  (1) 
Pocket2Mol

>  <Protein>  (1) 
GPCR_5HT2C

$$$$
Pocket2Mol_3
     RDKit          3D

  0  0  0  0  0  0  0  0  0  0999 V3000
M  V30 BEGIN CTAB
M  V30 COUNTS 12 12 0 0 1
M  V30 BEGIN ATOM
M  V30 1 C 40.045137 29.228100 50.442016 0
M  V30 2 C 40.422578 30.335791 50.967673 0
M  V30 3 C 39.244348 28.332608 51.367759 0
M  V30 4 C 39.222172 29.337762 52.686587 0
M  V30 5 N 40.045005 30.470152 52.219856 0
M  V30 6 H 40.981756 31.140748 50.511821 0
M  V30 7 H 38.247665 28.137610 50.971226 0
M  V30 8 H 39.761982 27.393132 51.559516 0
M  V30 9 H 38.212434 29.671939 52.925559 0
M  V30 10 H 39.645137 28.868002 53.573241 0
M  V30 11 H 40.251583 28.937849 49.422531 0
M  V30 12 H 40.043776 31.358370 52.705114 0
M  V30 END ATOM
M  V30 BEGIN BOND
M  V30 1 2 2 1
M  V30 2 1 3 1
M  V30 3 1 4 3
M  V30 4 1 5 2
M  V30 5 1 5 4
M  V30 6 1 6 2
M  V30 7 1 7 3
M  V30 8 1 8 3
M  V30 9 1 9 4
M  V30 10 1 10 4
M  V30 11 1 11 1
M  V30 12 1 12 5
M  V30 END BOND
M  V30 END CTAB
M  END
>  <i_epik_Tot_Q>  (1) 
0

>  <i_epik_Tot_abs_Q>  (1) 
0

>  <i_i_glide_confnum>  (1) 
1

>  <i_i_glide_lignum>  (1) 
4

>  <i_i_glide_posenum>  (1) 
37

>  <i_i_glide_rotatable_bonds>  (1) 
0

>  <i_lp_mmshare_version>  (1) 
72125

>  <i_m_source_file_index>  (1) 
4

>  <i_f3d_flags>  (1) 
0

>  <num_sample>  (1) 
50

>  <b_lp_Chiralities_Consistent>  (1) 
1

>  <r_epik_Charging_Adjusted_Penalty>  (1) 
1.6042444336516156e-06

>  <r_epik_Ionization_Penalty>  (1) 
0.0023556498582944039

>  <r_epik_Ionization_Penalty_Charging>  (1) 
1.6042444336516156e-06

>  <r_epik_Ionization_Penalty_Neutral>  (1) 
0.0023540456138607521

>  <r_epik_State_Penalty>  (1) 
-0

>  <r_glide_ring_energy>  (1) 
0

>  <r_i_docking_score>  (1) 
-4.255301635297025

>  <r_i_glide_ecoul>  (1) 
-0.54968794658393649

>  <r_i_glide_eff_state_penalty>  (1) 
-0

>  <r_i_glide_einternal>  (1) 
0

>  <r_i_glide_emodel>  (1) 
-17.706429314992107

>  <r_i_glide_emodel_strain>  (1) 
0

>  <r_i_glide_energy>  (1) 
-13.959187963619524

>  <r_i_glide_erotb>  (1) 
0

>  <r_i_glide_esite>  (1) 
0

>  <r_i_glide_evdw>  (1) 
-13.409500017035587

>  <r_i_glide_gscore>  (1) 
-4.255301635297025

>  <r_i_glide_gscore_strain>  (1) 
0

>  <r_i_glide_hbond>  (1) 
0

>  <r_i_glide_ligand_efficiency>  (1) 
-0.85106032705940504

>  <r_i_glide_ligand_efficiency_ln>  (1) 
-1.6307349621235678

>  <r_i_glide_ligand_efficiency_sa>  (1) 
-1.4552926884423854

>  <r_i_glide_lipo>  (1) 
-1.2523734424576554

>  <r_i_glide_metal>  (1) 
-0

>  <r_i_glide_rewards>  (1) 
-2.25

>  <r_lp_Energy>  (1) 
2.9163319999999997

>  <r_lp_tautomer_probability>  (1) 
1

>  <s_epik_Chemistry_Notes>  (1) 
This compound has an imine and may undergo hydrolysis.

>  <s_epik_cmdline>  (1) 
J2VwaWtfcHl0aG9uJywgJy1waHQnLCAnMS4wJywgJy1waCcsICc3LjQnLCAnLXRuJywgJzgnLCAnLW1hJywgJzUwMCcsICctaW1hZScsICc8aW5maWxlLm1hZT4nLCAnLW9tYWUnLCAnPG91dGZpbGUubWFlPic=

>  <s_epik_input>  (1) 
W0NIMl0xW0NIXT1OW0NIMl1bQ0gyXTE=

>  <s_glide_docking_method>  (1) 
confgen

>  <s_i_glide_gridfile>  (1) 
gpcr_5ht2c_6bqh_protein_autoprepared_prepared

>  <s_lp_Force_Field>  (1) 
S-OPLS

>  <s_lp_Variant>  (1) 
Pocket2Mol_3-1

>  <s_m_source_file>  (1) 
generated_GPCR_5HT2C_ligand_Pocket2Mol_2026-06-23_prepared.sdf

>  <GenAI_Model>  (1) 
Pocket2Mol

>  <Protein>  (1) 
GPCR_5HT2C

$$$$
Pocket2Mol_45
     RDKit          3D

  0  0  0  0  0  0  0  0  0  0999 V3000
M  V30 BEGIN CTAB
M  V30 COUNTS 11 11 0 0 1
M  V30 BEGIN ATOM
M  V30 1 C 35.425414 33.123767 60.967776 0
M  V30 2 O 35.644876 31.739794 61.187301 0
M  V30 3 C 36.377751 33.493003 59.826548 0
M  V30 4 O 37.285897 32.414844 59.832832 0
M  V30 5 C 36.489496 31.337755 60.167289 0
M  V30 6 H 34.386351 33.330543 60.709404 0
M  V30 7 H 35.668029 33.674311 61.877166 0
M  V30 8 H 35.850096 33.523773 58.871622 0
M  V30 9 H 36.876983 34.450214 59.977670 0
M  V30 10 H 37.101004 30.492868 60.483346 0
M  V30 11 H 35.896757 31.039882 59.297776 0
M  V30 END ATOM
M  V30 BEGIN BOND
M  V30 1 1 2 1
M  V30 2 1 3 1
M  V30 3 1 4 3
M  V30 4 1 5 2
M  V30 5 1 5 4
M  V30 6 1 6 1
M  V30 7 1 7 1
M  V30 8 1 8 3
M  V30 9 1 9 3
M  V30 10 1 10 5
M  V30 11 1 11 5
M  V30 END BOND
M  V30 END CTAB
M  END
>  <i_epik_Tot_Q>  (1) 
0

>  <i_epik_Tot_abs_Q>  (1) 
0

>  <i_i_glide_confnum>  (1) 
2

>  <i_i_glide_lignum>  (1) 
46

>  <i_i_glide_posenum>  (1) 
115

>  <i_i_glide_rotatable_bonds>  (1) 
0

>  <i_lp_mmshare_version>  (1) 
72125

>  <i_m_source_file_index>  (1) 
46

>  <i_f3d_flags>  (1) 
0

>  <num_sample>  (1) 
50

>  <b_lp_Chiralities_Consistent>  (1) 
1

>  <r_epik_Charging_Adjusted_Penalty>  (1) 
0

>  <r_epik_Ionization_Penalty>  (1) 
7.9724310449397378e-14

>  <r_epik_Ionization_Penalty_Charging>  (1) 
0

>  <r_epik_Ionization_Penalty_Neutral>  (1) 
7.9724310449397378e-14

>  <r_epik_State_Penalty>  (1) 
-0

>  <r_glide_ring_energy>  (1) 
1.1396681620093737e-05

>  <r_i_docking_score>  (1) 
-4.2521114459527372

>  <r_i_glide_ecoul>  (1) 
-2.1234789570077646

>  <r_i_glide_eff_state_penalty>  (1) 
-0

>  <r_i_glide_einternal>  (1) 
0

>  <r_i_glide_emodel>  (1) 
-15.410386460467315

>  <r_i_glide_emodel_strain>  (1) 
0.046401846391384005

>  <r_i_glide_energy>  (1) 
-12.110667655363288

>  <r_i_glide_erotb>  (1) 
0

>  <r_i_glide_esite>  (1) 
-0.069770491333490045

>  <r_i_glide_evdw>  (1) 
-9.9871886983555243

>  <r_i_glide_gscore>  (1) 
-4.2521114459527372

>  <r_i_glide_gscore_strain>  (1) 
0

>  <r_i_glide_hbond>  (1) 
-0.24112844521369972

>  <r_i_glide_ligand_efficiency>  (1) 
-0.85042228919054741

>  <r_i_glide_ligand_efficiency_ln>  (1) 
-1.6295124040664912

>  <r_i_glide_ligand_efficiency_sa>  (1) 
-1.4542016590335702

>  <r_i_glide_lipo>  (1) 
-0.1871384908846194

>  <r_i_glide_metal>  (1) 
-0

>  <r_i_glide_rewards>  (1) 
-2.9361927400519874

>  <r_lp_Energy>  (1) 
-12.242987999999999

>  <r_lp_tautomer_probability>  (1) 
1

>  <s_epik_Chemistry_Notes>  (1) 
This compound contains an acetal/aminal-like group ( X-CH(R)-Y where X, Y are N, S, or O) that may be acid/base labile, releasing an aldehyde.

>  <s_epik_cmdline>  (1) 
J2VwaWtfcHl0aG9uJywgJy1waHQnLCAnMS4wJywgJy1waCcsICc3LjQnLCAnLXRuJywgJzgnLCAnLW1hJywgJzUwMCcsICctaW1hZScsICc8aW5maWxlLm1hZT4nLCAnLW9tYWUnLCAnPG91dGZpbGUubWFlPic=

>  <s_epik_input>  (1) 
W0NIMl0xT1tDSDJdT1tDSDJdMQ==

>  <s_glide_docking_method>  (1) 
confgen

>  <s_i_glide_gridfile>  (1) 
gpcr_5ht2c_6bqh_protein_autoprepared_prepared

>  <s_lp_Force_Field>  (1) 
S-OPLS

>  <s_lp_Variant>  (1) 
Pocket2Mol_45-1

>  <s_m_source_file>  (1) 
generated_GPCR_5HT2C_ligand_Pocket2Mol_2026-06-23_prepared.sdf

>  <GenAI_Model>  (1) 
Pocket2Mol

>  <Protein>  (1) 
GPCR_5HT2C

$$$$
Pocket2Mol_42
     RDKit          3D

  0  0  0  0  0  0  0  0  0  0999 V3000
M  V30 BEGIN CTAB
M  V30 COUNTS 10 9 0 0 1
M  V30 BEGIN ATOM
M  V30 1 C 38.505710 28.241529 52.704693 0
M  V30 2 O 39.584322 27.768667 51.971060 0
M  V30 3 C 39.243190 27.342784 50.662706 0
M  V30 4 O 37.645136 27.211435 53.125245 0
M  V30 5 H 37.923840 28.968205 52.137104 0
M  V30 6 H 38.889073 28.726047 53.602885 0
M  V30 7 H 40.135131 26.966835 50.167775 0
M  V30 8 H 38.505588 26.539333 50.668698 0
M  V30 9 H 38.852197 28.172413 50.072802 0
M  V30 10 H 37.215275 26.849050 52.359800 0
M  V30 END ATOM
M  V30 BEGIN BOND
M  V30 1 1 2 1
M  V30 2 1 3 2
M  V30 3 1 4 1
M  V30 4 1 5 1
M  V30 5 1 6 1
M  V30 6 1 7 3
M  V30 7 1 8 3
M  V30 8 1 9 3
M  V30 9 1 10 4
M  V30 END BOND
M  V30 END CTAB
M  END
>  <i_epik_Tot_Q>  (1) 
0

>  <i_epik_Tot_abs_Q>  (1) 
0

>  <i_i_glide_confnum>  (1) 
1

>  <i_i_glide_lignum>  (1) 
43

>  <i_i_glide_posenum>  (1) 
298

>  <i_i_glide_rotatable_bonds>  (1) 
2

>  <i_lp_mmshare_version>  (1) 
72125

>  <i_m_source_file_index>  (1) 
43

>  <i_f3d_flags>  (1) 
0

>  <num_sample>  (1) 
50

>  <b_lp_Chiralities_Consistent>  (1) 
1

>  <r_epik_Charging_Adjusted_Penalty>  (1) 
0

>  <r_epik_Ionization_Penalty>  (1) 
1.028953084229311e-06

>  <r_epik_Ionization_Penalty_Charging>  (1) 
0

>  <r_epik_Ionization_Penalty_Neutral>  (1) 
1.028953084229311e-06

>  <r_epik_State_Penalty>  (1) 
-0

>  <r_glide_ring_energy>  (1) 
0

>  <r_i_docking_score>  (1) 
-4.2491915018233843

>  <r_i_glide_ecoul>  (1) 
-2.9333794753441809

>  <r_i_glide_eff_state_penalty>  (1) 
-0

>  <r_i_glide_einternal>  (1) 
0.066500881452749017

>  <r_i_glide_emodel>  (1) 
-16.719403933841409

>  <r_i_glide_emodel_strain>  (1) 
0

>  <r_i_glide_energy>  (1) 
-12.117071085779312

>  <r_i_glide_erotb>  (1) 
0

>  <r_i_glide_esite>  (1) 
0

>  <r_i_glide_evdw>  (1) 
-9.1836916104351314

>  <r_i_glide_gscore>  (1) 
-4.2491915018233843

>  <r_i_glide_gscore_strain>  (1) 
0

>  <r_i_glide_hbond>  (1) 
-0.32000000000000001

>  <r_i_glide_ligand_efficiency>  (1) 
-1.0622978754558461

>  <r_i_glide_ligand_efficiency_ln>  (1) 
-1.7806652737633062

>  <r_i_glide_ligand_efficiency_sa>  (1) 
-1.6862927650021935

>  <r_i_glide_lipo>  (1) 
-0.33000000000000002

>  <r_i_glide_metal>  (1) 
-0

>  <r_i_glide_rewards>  (1) 
-2.7000000000000002

>  <r_lp_Energy>  (1) 
5.5414079999999997

>  <r_lp_tautomer_probability>  (1) 
1

>  <s_epik_Chemistry_Notes>  (1) 
This compound contains an acetal/aminal-like group ( X-CH(R)-Y where X, Y are N, S, or O) that may be acid/base labile, releasing an aldehyde.

>  <s_epik_cmdline>  (1) 
J2VwaWtfcHl0aG9uJywgJy1waHQnLCAnMS4wJywgJy1waCcsICc3LjQnLCAnLXRuJywgJzgnLCAnLW1hJywgJzUwMCcsICctaW1hZScsICc8aW5maWxlLm1hZT4nLCAnLW9tYWUnLCAnPG91dGZpbGUubWFlPic=

>  <s_epik_input>  (1) 
W09IXVtDSDJdT1tDSDNd

>  <s_glide_docking_method>  (1) 
confgen

>  <s_i_glide_gridfile>  (1) 
gpcr_5ht2c_6bqh_protein_autoprepared_prepared

>  <s_lp_Force_Field>  (1) 
S-OPLS

>  <s_lp_Variant>  (1) 
Pocket2Mol_42-1

>  <s_m_source_file>  (1) 
generated_GPCR_5HT2C_ligand_Pocket2Mol_2026-06-23_prepared.sdf

>  <GenAI_Model>  (1) 
Pocket2Mol

>  <Protein>  (1) 
GPCR_5HT2C

$$$$
Pocket2Mol_49
     RDKit          3D

  0  0  0  0  0  0  0  0  0  0999 V3000
M  V30 BEGIN CTAB
M  V30 COUNTS 13 13 0 0 1
M  V30 BEGIN ATOM
M  V30 1 C 38.845147 27.542657 51.184468 0
M  V30 2 O 39.643505 28.515299 50.524600 0
M  V30 3 C 39.953521 29.578449 51.418104 0
M  V30 4 C 39.100696 27.743622 52.667258 0
M  V30 5 C 39.245135 29.249443 52.735618 0
M  V30 6 H 37.795326 27.737802 50.967705 0
M  V30 7 H 39.089827 26.537803 50.845259 0
M  V30 8 H 41.034951 29.596370 51.548673 0
M  V30 9 H 39.645136 30.543002 51.010338 0
M  V30 10 H 38.296722 27.353463 53.292187 0
M  V30 11 H 40.027334 27.246444 52.955527 0
M  V30 12 H 39.792384 29.594614 53.612018 0
M  V30 13 H 38.260268 29.712278 52.765893 0
M  V30 END ATOM
M  V30 BEGIN BOND
M  V30 1 1 2 1
M  V30 2 1 3 2
M  V30 3 1 4 1
M  V30 4 1 5 3
M  V30 5 1 5 4
M  V30 6 1 6 1
M  V30 7 1 7 1
M  V30 8 1 8 3
M  V30 9 1 9 3
M  V30 10 1 10 4
M  V30 11 1 11 4
M  V30 12 1 12 5
M  V30 13 1 13 5
M  V30 END BOND
M  V30 END CTAB
M  END
>  <i_epik_Tot_Q>  (1) 
0

>  <i_epik_Tot_abs_Q>  (1) 
0

>  <i_i_glide_confnum>  (1) 
3

>  <i_i_glide_lignum>  (1) 
50

>  <i_i_glide_posenum>  (1) 
148

>  <i_i_glide_rotatable_bonds>  (1) 
0

>  <i_lp_mmshare_version>  (1) 
72125

>  <i_m_source_file_index>  (1) 
50

>  <i_f3d_flags>  (1) 
0

>  <num_sample>  (1) 
50

>  <b_lp_Chiralities_Consistent>  (1) 
1

>  <r_epik_Charging_Adjusted_Penalty>  (1) 
0

>  <r_epik_Ionization_Penalty>  (1) 
1.3889264151150229e-11

>  <r_epik_Ionization_Penalty_Charging>  (1) 
0

>  <r_epik_Ionization_Penalty_Neutral>  (1) 
1.3889264151150229e-11

>  <r_epik_State_Penalty>  (1) 
-0

>  <r_glide_ring_energy>  (1) 
0.22161987042107956

>  <r_i_docking_score>  (1) 
-4.2185968998969487

>  <r_i_glide_ecoul>  (1) 
0.088229412200790031

>  <r_i_glide_eff_state_penalty>  (1) 
-0

>  <r_i_glide_einternal>  (1) 
0

>  <r_i_glide_emodel>  (1) 
-15.473595666870272

>  <r_i_glide_emodel_strain>  (1) 
9.9698613809096059e-09

>  <r_i_glide_energy>  (1) 
-12.029935956298193

>  <r_i_glide_erotb>  (1) 
0

>  <r_i_glide_esite>  (1) 
0

>  <r_i_glide_evdw>  (1) 
-12.118165368498982

>  <r_i_glide_gscore>  (1) 
-4.2185968998969487

>  <r_i_glide_gscore_strain>  (1) 
0

>  <r_i_glide_hbond>  (1) 
0

>  <r_i_glide_ligand_efficiency>  (1) 
-0.84371937997938973

>  <r_i_glide_ligand_efficiency_ln>  (1) 
-1.6166688158377427

>  <r_i_glide_ligand_efficiency_sa>  (1) 
-1.4427398455097329

>  <r_i_glide_lipo>  (1) 
-1.1925897099687846

>  <r_i_glide_metal>  (1) 
-0

>  <r_i_glide_rewards>  (1) 
-2.4333333333333336

>  <r_lp_Energy>  (1) 
3.9174029999999997

>  <r_lp_tautomer_probability>  (1) 
1

>  <s_epik_cmdline>  (1) 
J2VwaWtfcHl0aG9uJywgJy1waHQnLCAnMS4wJywgJy1waCcsICc3LjQnLCAnLXRuJywgJzgnLCAnLW1hJywgJzUwMCcsICctaW1hZScsICc8aW5maWxlLm1hZT4nLCAnLW9tYWUnLCAnPG91dGZpbGUubWFlPic=

>  <s_epik_input>  (1) 
W0NIMl0xT1tDSDJdW0NIMl1bQ0gyXTE=

>  <s_glide_docking_method>  (1) 
confgen

>  <s_i_glide_gridfile>  (1) 
gpcr_5ht2c_6bqh_protein_autoprepared_prepared

>  <s_lp_Force_Field>  (1) 
S-OPLS

>  <s_lp_Variant>  (1) 
Pocket2Mol_49-1

>  <s_m_source_file>  (1) 
generated_GPCR_5HT2C_ligand_Pocket2Mol_2026-06-23_prepared.sdf

>  <GenAI_Model>  (1) 
Pocket2Mol

>  <Protein>  (1) 
GPCR_5HT2C

$$$$
Pocket2Mol_47
     RDKit          3D

  0  0  0  0  0  0  0  0  0  0999 V3000
M  V30 BEGIN CTAB
M  V30 COUNTS 15 15 0 0 1
M  V30 BEGIN ATOM
M  V30 1 C 38.519971 28.537683 52.708800 0
M  V30 2 C 38.845137 29.602462 53.761951 0
M  V30 3 C 38.845140 28.874389 55.115231 0
M  V30 4 C 37.689445 27.505856 53.464552 0
M  V30 5 C 38.345702 27.448491 54.842939 0
M  V30 6 H 37.996982 28.937708 51.840162 0
M  V30 7 H 39.442606 28.075731 52.354027 0
M  V30 8 H 39.792525 30.102965 53.558443 0
M  V30 9 H 38.067982 30.368317 53.767639 0
M  V30 10 H 39.840377 28.858939 55.561176 0
M  V30 11 H 38.184062 29.388191 55.814853 0
M  V30 12 H 36.659889 27.853349 53.554903 0
M  V30 13 H 37.668189 26.537327 52.967126 0
M  V30 14 H 39.194949 26.764442 54.811958 0
M  V30 15 H 37.662952 27.088891 55.613370 0
M  V30 END ATOM
M  V30 BEGIN BOND
M  V30 1 1 2 1
M  V30 2 1 3 2
M  V30 3 1 4 1
M  V30 4 1 5 3
M  V30 5 1 5 4
M  V30 6 1 6 1
M  V30 7 1 7 1
M  V30 8 1 8 2
M  V30 9 1 9 2
M  V30 10 1 10 3
M  V30 11 1 11 3
M  V30 12 1 12 4
M  V30 13 1 13 4
M  V30 14 1 14 5
M  V30 15 1 15 5
M  V30 END BOND
M  V30 END CTAB
M  END
>  <i_epik_Tot_Q>  (1) 
0

>  <i_epik_Tot_abs_Q>  (1) 
0

>  <i_i_glide_confnum>  (1) 
2

>  <i_i_glide_lignum>  (1) 
48

>  <i_i_glide_posenum>  (1) 
171

>  <i_i_glide_rotatable_bonds>  (1) 
0

>  <i_lp_mmshare_version>  (1) 
72125

>  <i_m_source_file_index>  (1) 
48

>  <i_f3d_flags>  (1) 
0

>  <num_sample>  (1) 
50

>  <b_lp_Chiralities_Consistent>  (1) 
1

>  <r_epik_Charging_Adjusted_Penalty>  (1) 
0

>  <r_epik_Ionization_Penalty>  (1) 
0

>  <r_epik_Ionization_Penalty_Charging>  (1) 
0

>  <r_epik_Ionization_Penalty_Neutral>  (1) 
0

>  <r_epik_State_Penalty>  (1) 
-0

>  <r_glide_ring_energy>  (1) 
0.00028446117277806444

>  <r_i_docking_score>  (1) 
-4.1987094116908112

>  <r_i_glide_ecoul>  (1) 
0.023403951618938698

>  <r_i_glide_eff_state_penalty>  (1) 
-0

>  <r_i_glide_einternal>  (1) 
0

>  <r_i_glide_emodel>  (1) 
-14.909284998088065

>  <r_i_glide_emodel_strain>  (1) 
0

>  <r_i_glide_energy>  (1) 
-11.557801392496295

>  <r_i_glide_erotb>  (1) 
0

>  <r_i_glide_esite>  (1) 
0

>  <r_i_glide_evdw>  (1) 
-11.581205344115233

>  <r_i_glide_gscore>  (1) 
-4.1987094116908112

>  <r_i_glide_gscore_strain>  (1) 
0

>  <r_i_glide_hbond>  (1) 
0

>  <r_i_glide_ligand_efficiency>  (1) 
-0.83974188233816227

>  <r_i_glide_ligand_efficiency_ln>  (1) 
-1.6090474472236926

>  <r_i_glide_ligand_efficiency_sa>  (1) 
-1.4359384202152705

>  <r_i_glide_lipo>  (1) 
-1.2438183055511851

>  <r_i_glide_metal>  (1) 
-0

>  <r_i_glide_rewards>  (1) 
-2.3793414316767052

>  <r_lp_Energy>  (1) 
13.274989999999999

>  <r_lp_tautomer_probability>  (1) 
1

>  <s_epik_cmdline>  (1) 
J2VwaWtfcHl0aG9uJywgJy1waHQnLCAnMS4wJywgJy1waCcsICc3LjQnLCAnLXRuJywgJzgnLCAnLW1hJywgJzUwMCcsICctaW1hZScsICc8aW5maWxlLm1hZT4nLCAnLW9tYWUnLCAnPG91dGZpbGUubWFlPic=

>  <s_epik_input>  (1) 
W0NIMl0xW0NIMl1bQ0gyXVtDSDJdW0NIMl0x

>  <s_glide_docking_method>  (1) 
confgen

>  <s_i_glide_gridfile>  (1) 
gpcr_5ht2c_6bqh_protein_autoprepared_prepared

>  <s_lp_Force_Field>  (1) 
S-OPLS

>  <s_lp_Variant>  (1) 
Pocket2Mol_47-1

>  <s_m_source_file>  (1) 
generated_GPCR_5HT2C_ligand_Pocket2Mol_2026-06-23_prepared.sdf

>  <GenAI_Model>  (1) 
Pocket2Mol

>  <Protein>  (1) 
GPCR_5HT2C

$$$$
Pocket2Mol_40
     RDKit          3D

  0  0  0  0  0  0  0  0  0  0999 V3000
M  V30 BEGIN CTAB
M  V30 COUNTS 10 9 0 0 1
M  V30 BEGIN ATOM
M  V30 1 C 40.241096 28.719431 61.197195 0
M  V30 2 O 39.245136 29.706297 61.384591 0
M  V30 3 C 39.604331 31.002051 61.461549 0
M  V30 4 C 38.366903 31.919975 61.687705 0
M  V30 5 O 40.758633 31.432417 61.367762 0
M  V30 6 O 37.257571 31.337774 61.767759 0
M  V30 7 O 38.611117 33.144833 61.767760 0 CHG=-1
M  V30 8 H 39.774316 27.737755 61.147981 0
M  V30 9 H 40.951494 28.718388 62.024823 0
M  V30 10 H 40.786071 28.885367 60.266998 0
M  V30 END ATOM
M  V30 BEGIN BOND
M  V30 1 1 2 1
M  V30 2 1 3 2
M  V30 3 1 4 3
M  V30 4 2 5 3
M  V30 5 2 6 4
M  V30 6 1 7 4
M  V30 7 1 8 1
M  V30 8 1 9 1
M  V30 9 1 10 1
M  V30 END BOND
M  V30 END CTAB
M  END
>  <i_epik_Tot_Q>  (1) 
-1

>  <i_epik_Tot_abs_Q>  (1) 
1

>  <i_i_glide_confnum>  (1) 
1

>  <i_i_glide_lignum>  (1) 
41

>  <i_i_glide_posenum>  (1) 
103

>  <i_i_glide_rotatable_bonds>  (1) 
2

>  <i_lp_mmshare_version>  (1) 
72125

>  <i_m_source_file_index>  (1) 
41

>  <i_f3d_flags>  (1) 
0

>  <num_sample>  (1) 
50

>  <b_lp_Chiralities_Consistent>  (1) 
1

>  <r_epik_Charging_Adjusted_Penalty>  (1) 
5.6581681309968728e-06

>  <r_epik_Ionization_Penalty>  (1) 
5.6581681309968728e-06

>  <r_epik_Ionization_Penalty_Charging>  (1) 
5.6581681309968728e-06

>  <r_epik_Ionization_Penalty_Neutral>  (1) 
0

>  <r_epik_State_Penalty>  (1) 
-0

>  <r_glide_ring_energy>  (1) 
0

>  <r_i_docking_score>  (1) 
-4.19682163738642

>  <r_i_glide_ecoul>  (1) 
-4.3378990350902704

>  <r_i_glide_eff_state_penalty>  (1) 
-0

>  <r_i_glide_einternal>  (1) 
0.0083577166776236389

>  <r_i_glide_emodel>  (1) 
-18.384895115698541

>  <r_i_glide_emodel_strain>  (1) 
0

>  <r_i_glide_energy>  (1) 
-14.018456391883712

>  <r_i_glide_erotb>  (1) 
0

>  <r_i_glide_esite>  (1) 
0

>  <r_i_glide_evdw>  (1) 
-9.6805573567934413

>  <r_i_glide_gscore>  (1) 
-4.19682163738642

>  <r_i_glide_gscore_strain>  (1) 
0

>  <r_i_glide_hbond>  (1) 
-0.18870662105772426

>  <r_i_glide_ligand_efficiency>  (1) 
-0.59954594819805995

>  <r_i_glide_ligand_efficiency_ln>  (1) 
-1.4246264906389781

>  <r_i_glide_ligand_efficiency_sa>  (1) 
-1.1468901398129085

>  <r_i_glide_lipo>  (1) 
-0.17404859924519842

>  <r_i_glide_metal>  (1) 
-0

>  <r_i_glide_rewards>  (1) 
-2.6993536939802847

>  <r_lp_Energy>  (1) 
21.029133999999999

>  <r_lp_tautomer_probability>  (1) 
1

>  <s_epik_Chemistry_Notes>  (1) 
This compound has an ester and may undergo hydrolysis at high or low pH.

>  <s_epik_cmdline>  (1) 
J2VwaWtfcHl0aG9uJywgJy1waHQnLCAnMS4wJywgJy1waCcsICc3LjQnLCAnLXRuJywgJzgnLCAnLW1hJywgJzUwMCcsICctaW1hZScsICc8aW5maWxlLm1hZT4nLCAnLW9tYWUnLCAnPG91dGZpbGUubWFlPic=

>  <s_epik_input>  (1) 
W0NIM11PQyg9TylDKD1PKVtPSF0=

>  <s_glide_docking_method>  (1) 
confgen

>  <s_i_glide_gridfile>  (1) 
gpcr_5ht2c_6bqh_protein_autoprepared_prepared

>  <s_lp_Force_Field>  (1) 
S-OPLS

>  <s_lp_Variant>  (1) 
Pocket2Mol_40-1

>  <s_m_source_file>  (1) 
generated_GPCR_5HT2C_ligand_Pocket2Mol_2026-06-23_prepared.sdf

>  <GenAI_Model>  (1) 
Pocket2Mol

>  <Protein>  (1) 
GPCR_5HT2C

$$$$
Pocket2Mol_43
     RDKit          3D

  0  0  0  0  0  0  0  0  0  0999 V3000
M  V30 BEGIN CTAB
M  V30 COUNTS 15 15 0 0 1
M  V30 BEGIN ATOM
M  V30 1 C 34.807923 33.224763 59.803060 0
M  V30 2 O 35.405161 32.481243 60.862348 0
M  V30 3 C 36.666049 31.987506 60.745727 0
M  V30 4 O 37.245137 31.337759 61.613263 0
M  V30 5 C 37.331874 32.315031 59.400753 0
M  V30 6 C 35.760059 34.350022 59.376456 0
M  V30 7 C 37.129870 33.781755 58.967007 0
M  V30 8 H 34.581021 32.560994 58.968324 0
M  V30 9 H 33.860236 33.639249 60.147047 0
M  V30 10 H 38.393349 32.071377 59.444679 0
M  V30 11 H 36.890549 31.654285 58.652686 0
M  V30 12 H 35.323936 34.935074 58.567766 0
M  V30 13 H 35.891261 35.035920 60.213309 0
M  V30 14 H 37.923823 34.406786 59.377027 0
M  V30 15 H 37.231590 33.835325 57.882085 0
M  V30 END ATOM
M  V30 BEGIN BOND
M  V30 1 1 2 1
M  V30 2 1 3 2
M  V30 3 2 4 3
M  V30 4 1 5 3
M  V30 5 1 6 1
M  V30 6 1 7 5
M  V30 7 1 7 6
M  V30 8 1 8 1
M  V30 9 1 9 1
M  V30 10 1 10 5
M  V30 11 1 11 5
M  V30 12 1 12 6
M  V30 13 1 13 6
M  V30 14 1 14 7
M  V30 15 1 15 7
M  V30 END BOND
M  V30 END CTAB
M  END
>  <i_epik_Tot_Q>  (1) 
0

>  <i_epik_Tot_abs_Q>  (1) 
0

>  <i_i_glide_confnum>  (1) 
3

>  <i_i_glide_lignum>  (1) 
44

>  <i_i_glide_posenum>  (1) 
121

>  <i_i_glide_rotatable_bonds>  (1) 
0

>  <i_lp_mmshare_version>  (1) 
72125

>  <i_m_source_file_index>  (1) 
44

>  <i_f3d_flags>  (1) 
0

>  <num_sample>  (1) 
50

>  <b_lp_Chiralities_Consistent>  (1) 
1

>  <r_epik_Charging_Adjusted_Penalty>  (1) 
0

>  <r_epik_Ionization_Penalty>  (1) 
4.2138389519661579e-10

>  <r_epik_Ionization_Penalty_Charging>  (1) 
0

>  <r_epik_Ionization_Penalty_Neutral>  (1) 
4.2138389519661579e-10

>  <r_epik_State_Penalty>  (1) 
-0

>  <r_glide_ring_energy>  (1) 
0.70452651660711352

>  <r_i_docking_score>  (1) 
-4.1889296428453067

>  <r_i_glide_ecoul>  (1) 
-3.4202445604774576

>  <r_i_glide_eff_state_penalty>  (1) 
-0

>  <r_i_glide_einternal>  (1) 
0

>  <r_i_glide_emodel>  (1) 
-21.904997399059049

>  <r_i_glide_emodel_strain>  (1) 
0

>  <r_i_glide_energy>  (1) 
-17.186872822261591

>  <r_i_glide_erotb>  (1) 
0

>  <r_i_glide_esite>  (1) 
-0.04184963144785539

>  <r_i_glide_evdw>  (1) 
-13.766628261784135

>  <r_i_glide_gscore>  (1) 
-4.1889296428453067

>  <r_i_glide_gscore_strain>  (1) 
0

>  <r_i_glide_hbond>  (1) 
-0.32000000000000001

>  <r_i_glide_ligand_efficiency>  (1) 
-0.59841852040647237

>  <r_i_glide_ligand_efficiency_ln>  (1) 
-1.4219475241594186

>  <r_i_glide_ligand_efficiency_sa>  (1) 
-1.1447334480340563

>  <r_i_glide_lipo>  (1) 
-0.16016042471896974

>  <r_i_glide_metal>  (1) 
-0

>  <r_i_glide_rewards>  (1) 
-2.4655514895176562

>  <r_lp_Energy>  (1) 
8.5246700000000004

>  <r_lp_tautomer_probability>  (1) 
1

>  <s_epik_Chemistry_Notes>  (1) 
This compound has an ester and may undergo hydrolysis at high or low pH.

>  <s_epik_cmdline>  (1) 
J2VwaWtfcHl0aG9uJywgJy1waHQnLCAnMS4wJywgJy1waCcsICc3LjQnLCAnLXRuJywgJzgnLCAnLW1hJywgJzUwMCcsICctaW1hZScsICc8aW5maWxlLm1hZT4nLCAnLW9tYWUnLCAnPG91dGZpbGUubWFlPic=

>  <s_epik_input>  (1) 
W0NIMl0xW0NIMl1bQ0gyXVtDSDJdT0MxPU8=

>  <s_glide_docking_method>  (1) 
confgen

>  <s_i_glide_gridfile>  (1) 
gpcr_5ht2c_6bqh_protein_autoprepared_prepared

>  <s_lp_Force_Field>  (1) 
S-OPLS

>  <s_lp_Variant>  (1) 
Pocket2Mol_43-1

>  <s_m_source_file>  (1) 
generated_GPCR_5HT2C_ligand_Pocket2Mol_2026-06-23_prepared.sdf

>  <GenAI_Model>  (1) 
Pocket2Mol

>  <Protein>  (1) 
GPCR_5HT2C

$$$$
Pocket2Mol_21
     RDKit          3D

  0  0  0  0  0  0  0  0  0  0999 V3000
M  V30 BEGIN CTAB
M  V30 COUNTS 14 14 0 0 1
M  V30 BEGIN ATOM
M  V30 1 C 38.114507 27.916922 52.333481 0
M  V30 2 C 39.242601 28.936542 52.249262 0
M  V30 3 O 37.246561 28.537754 53.253450 0
M  V30 4 C 38.111143 29.082365 54.187878 0
M  V30 5 O 39.247368 29.534986 53.532537 0
M  V30 6 C 37.433338 30.262187 54.886911 0
M  V30 7 H 38.467351 26.964920 52.734361 0
M  V30 8 H 37.644051 27.735462 51.369472 0
M  V30 9 H 40.200062 28.482029 51.996197 0
M  V30 10 H 39.016728 29.699493 51.503585 0
M  V30 11 H 38.400740 28.307873 54.901407 0
M  V30 12 H 37.197928 31.044456 54.165684 0
M  V30 13 H 38.097590 30.677211 55.644707 0
M  V30 14 H 36.509189 29.939162 55.367529 0
M  V30 END ATOM
M  V30 BEGIN BOND
M  V30 1 1 2 1
M  V30 2 1 3 1
M  V30 3 1 4 3
M  V30 4 1 5 2
M  V30 5 1 5 4
M  V30 6 1 6 4
M  V30 7 1 7 1
M  V30 8 1 8 1
M  V30 9 1 9 2
M  V30 10 1 10 2
M  V30 11 1 11 4
M  V30 12 1 12 6
M  V30 13 1 13 6
M  V30 14 1 14 6
M  V30 END BOND
M  V30 END CTAB
M  END
>  <i_epik_Tot_Q>  (1) 
0

>  <i_epik_Tot_abs_Q>  (1) 
0

>  <i_i_glide_confnum>  (1) 
2

>  <i_i_glide_lignum>  (1) 
22

>  <i_i_glide_posenum>  (1) 
280

>  <i_i_glide_rotatable_bonds>  (1) 
0

>  <i_lp_mmshare_version>  (1) 
72125

>  <i_m_source_file_index>  (1) 
22

>  <i_f3d_flags>  (1) 
0

>  <num_sample>  (1) 
50

>  <b_lp_Chiralities_Consistent>  (1) 
1

>  <r_epik_Charging_Adjusted_Penalty>  (1) 
0

>  <r_epik_Ionization_Penalty>  (1) 
7.9724310449397378e-14

>  <r_epik_Ionization_Penalty_Charging>  (1) 
0

>  <r_epik_Ionization_Penalty_Neutral>  (1) 
7.9724310449397378e-14

>  <r_epik_State_Penalty>  (1) 
-0

>  <r_glide_ring_energy>  (1) 
0.8940093629212682

>  <r_i_docking_score>  (1) 
-4.1815717495485085

>  <r_i_glide_ecoul>  (1) 
-0.90956394446697542

>  <r_i_glide_eff_state_penalty>  (1) 
-0

>  <r_i_glide_einternal>  (1) 
0

>  <r_i_glide_emodel>  (1) 
-18.174610192391153

>  <r_i_glide_emodel_strain>  (1) 
0.000337431767086116

>  <r_i_glide_energy>  (1) 
-14.316109154420893

>  <r_i_glide_erotb>  (1) 
0

>  <r_i_glide_esite>  (1) 
0

>  <r_i_glide_evdw>  (1) 
-13.406545209953917

>  <r_i_glide_gscore>  (1) 
-4.1815717495485085

>  <r_i_glide_gscore_strain>  (1) 
0

>  <r_i_glide_hbond>  (1) 
0

>  <r_i_glide_ligand_efficiency>  (1) 
-0.69692862492475138

>  <r_i_glide_ligand_efficiency_ln>  (1) 
-1.4978266557844786

>  <r_i_glide_ligand_efficiency_sa>  (1) 
-1.2664033560849524

>  <r_i_glide_lipo>  (1) 
-0.64410335832435361

>  <r_i_glide_metal>  (1) 
-0

>  <r_i_glide_rewards>  (1) 
-2.730706539056412

>  <r_lp_Energy>  (1) 
-12.129052

>  <r_lp_tautomer_probability>  (1) 
1

>  <s_epik_Chemistry_Notes>  (1) 
This compound contains an acetal/aminal-like group ( X-CH(R)-Y where X, Y are N, S, or O) that may be acid/base labile, releasing an aldehyde.

>  <s_epik_cmdline>  (1) 
J2VwaWtfcHl0aG9uJywgJy1waHQnLCAnMS4wJywgJy1waCcsICc3LjQnLCAnLXRuJywgJzgnLCAnLW1hJywgJzUwMCcsICctaW1hZScsICc8aW5maWxlLm1hZT4nLCAnLW9tYWUnLCAnPG91dGZpbGUubWFlPic=

>  <s_epik_input>  (1) 
TzFbQ0gyXVtDSDJdT1tDSF0xW0NIM10=

>  <s_glide_docking_method>  (1) 
confgen

>  <s_i_glide_gridfile>  (1) 
gpcr_5ht2c_6bqh_protein_autoprepared_prepared

>  <s_lp_Force_Field>  (1) 
S-OPLS

>  <s_lp_Variant>  (1) 
Pocket2Mol_21-1

>  <s_m_source_file>  (1) 
generated_GPCR_5HT2C_ligand_Pocket2Mol_2026-06-23_prepared.sdf

>  <GenAI_Model>  (1) 
Pocket2Mol

>  <Protein>  (1) 
GPCR_5HT2C

$$$$
Pocket2Mol_12
     RDKit          3D

  0  0  0  0  0  0  0  0  0  0999 V3000
M  V30 BEGIN CTAB
M  V30 COUNTS 10 10 0 0 1
M  V30 BEGIN ATOM
M  V30 1 C 38.594337 26.937755 53.712978 0
M  V30 2 C 37.625845 28.080334 53.431524 0
M  V30 3 O 39.418148 26.939608 52.568940 0
M  V30 4 O 38.045138 28.537755 52.167760 0
M  V30 5 C 39.087631 27.873606 51.680356 0
M  V30 6 O 39.645136 28.084523 50.606670 0
M  V30 7 H 38.075239 25.983944 53.809441 0
M  V30 8 H 39.184332 27.116275 54.612170 0
M  V30 9 H 36.592037 27.736440 53.389455 0
M  V30 10 H 37.707643 28.875238 54.173228 0
M  V30 END ATOM
M  V30 BEGIN BOND
M  V30 1 1 2 1
M  V30 2 1 3 1
M  V30 3 1 4 2
M  V30 4 1 5 3
M  V30 5 1 5 4
M  V30 6 2 6 5
M  V30 7 1 7 1
M  V30 8 1 8 1
M  V30 9 1 9 2
M  V30 10 1 10 2
M  V30 END BOND
M  V30 END CTAB
M  END
>  <i_epik_Tot_Q>  (1) 
0

>  <i_epik_Tot_abs_Q>  (1) 
0

>  <i_i_glide_confnum>  (1) 
2

>  <i_i_glide_lignum>  (1) 
13

>  <i_i_glide_posenum>  (1) 
93

>  <i_i_glide_rotatable_bonds>  (1) 
0

>  <i_lp_mmshare_version>  (1) 
72125

>  <i_m_source_file_index>  (1) 
13

>  <i_f3d_flags>  (1) 
0

>  <num_sample>  (1) 
50

>  <b_lp_Chiralities_Consistent>  (1) 
1

>  <r_epik_Charging_Adjusted_Penalty>  (1) 
0

>  <r_epik_Ionization_Penalty>  (1) 
0

>  <r_epik_Ionization_Penalty_Charging>  (1) 
0

>  <r_epik_Ionization_Penalty_Neutral>  (1) 
0

>  <r_epik_State_Penalty>  (1) 
-0

>  <r_glide_ring_energy>  (1) 
0.00053108536261990756

>  <r_i_docking_score>  (1) 
-4.1723409047845488

>  <r_i_glide_ecoul>  (1) 
-0.17662629928801621

>  <r_i_glide_eff_state_penalty>  (1) 
-0

>  <r_i_glide_einternal>  (1) 
0

>  <r_i_glide_emodel>  (1) 
-20.360343143425112

>  <r_i_glide_emodel_strain>  (1) 
0.0055275597239745622

>  <r_i_glide_energy>  (1) 
-16.056207942806207

>  <r_i_glide_erotb>  (1) 
0

>  <r_i_glide_esite>  (1) 
0

>  <r_i_glide_evdw>  (1) 
-15.879581643518192

>  <r_i_glide_gscore>  (1) 
-4.1723409047845488

>  <r_i_glide_gscore_strain>  (1) 
0

>  <r_i_glide_hbond>  (1) 
0

>  <r_i_glide_ligand_efficiency>  (1) 
-0.69539015079742483

>  <r_i_glide_ligand_efficiency_ln>  (1) 
-1.4945201944414774

>  <r_i_glide_ligand_efficiency_sa>  (1) 
-1.2636077630666478

>  <r_i_glide_lipo>  (1) 
-0.59682108170875248

>  <r_i_glide_metal>  (1) 
-0

>  <r_i_glide_rewards>  (1) 
-2.7550467960066842

>  <r_lp_Energy>  (1) 
-6.8415979999999994

>  <r_lp_tautomer_probability>  (1) 
1

>  <s_epik_Chemistry_Notes>  (1) 
This compound has an ester and may undergo hydrolysis at high or low pH.

>  <s_epik_cmdline>  (1) 
J2VwaWtfcHl0aG9uJywgJy1waHQnLCAnMS4wJywgJy1waCcsICc3LjQnLCAnLXRuJywgJzgnLCAnLW1hJywgJzUwMCcsICctaW1hZScsICc8aW5maWxlLm1hZT4nLCAnLW9tYWUnLCAnPG91dGZpbGUubWFlPic=

>  <s_epik_input>  (1) 
TzFbQ0gyXVtDSDJdT0MxPU8=

>  <s_glide_docking_method>  (1) 
confgen

>  <s_i_glide_gridfile>  (1) 
gpcr_5ht2c_6bqh_protein_autoprepared_prepared

>  <s_lp_Force_Field>  (1) 
S-OPLS

>  <s_lp_Variant>  (1) 
Pocket2Mol_12-1

>  <s_m_source_file>  (1) 
generated_GPCR_5HT2C_ligand_Pocket2Mol_2026-06-23_prepared.sdf

>  <GenAI_Model>  (1) 
Pocket2Mol

>  <Protein>  (1) 
GPCR_5HT2C

$$$$
Pocket2Mol_10
     RDKit          3D

  0  0  0  0  0  0  0  0  0  0999 V3000
M  V30 BEGIN CTAB
M  V30 COUNTS 14 14 0 0 1
M  V30 BEGIN ATOM
M  V30 1 C 39.647071 36.937832 62.977236 0
M  V30 2 O 38.845028 37.122517 61.817406 0
M  V30 3 C 38.376785 35.877286 61.312819 0
M  V30 4 C 40.852554 36.050804 62.622586 0
M  V30 5 O 40.385582 34.802402 62.126795 0
M  V30 6 C 39.580474 34.979978 60.968242 0
M  V30 7 H 39.990900 37.909632 63.332164 0
M  V30 8 H 39.057224 36.492654 63.780089 0
M  V30 9 H 37.730112 35.394251 62.046459 0
M  V30 10 H 37.772980 36.058573 60.423432 0
M  V30 11 H 41.486965 36.537755 61.880438 0
M  V30 12 H 41.469231 35.879201 63.505144 0
M  V30 13 H 39.240224 34.006169 60.616377 0
M  V30 14 H 40.175319 35.420150 60.167784 0
M  V30 END ATOM
M  V30 BEGIN BOND
M  V30 1 1 2 1
M  V30 2 1 3 2
M  V30 3 1 4 1
M  V30 4 1 5 4
M  V30 5 1 6 3
M  V30 6 1 6 5
M  V30 7 1 7 1
M  V30 8 1 8 1
M  V30 9 1 9 3
M  V30 10 1 10 3
M  V30 11 1 11 4
M  V30 12 1 12 4
M  V30 13 1 13 6
M  V30 14 1 14 6
M  V30 END BOND
M  V30 END CTAB
M  END
>  <i_epik_Tot_Q>  (1) 
0

>  <i_epik_Tot_abs_Q>  (1) 
0

>  <i_i_glide_confnum>  (1) 
1

>  <i_i_glide_lignum>  (1) 
11

>  <i_i_glide_posenum>  (1) 
282

>  <i_i_glide_rotatable_bonds>  (1) 
0

>  <i_lp_mmshare_version>  (1) 
72125

>  <i_m_source_file_index>  (1) 
11

>  <i_f3d_flags>  (1) 
0

>  <num_sample>  (1) 
50

>  <b_lp_Chiralities_Consistent>  (1) 
1

>  <r_epik_Charging_Adjusted_Penalty>  (1) 
0

>  <r_epik_Ionization_Penalty>  (1) 
8.3894707547109138e-13

>  <r_epik_Ionization_Penalty_Charging>  (1) 
0

>  <r_epik_Ionization_Penalty_Neutral>  (1) 
8.3894707547109138e-13

>  <r_epik_State_Penalty>  (1) 
-0

>  <r_glide_ring_energy>  (1) 
0

>  <r_i_docking_score>  (1) 
-4.1462804095392558

>  <r_i_glide_ecoul>  (1) 
-1.0974230066060653

>  <r_i_glide_eff_state_penalty>  (1) 
-0

>  <r_i_glide_einternal>  (1) 
0

>  <r_i_glide_emodel>  (1) 
-16.320439904184859

>  <r_i_glide_emodel_strain>  (1) 
0

>  <r_i_glide_energy>  (1) 
-12.863924793431936

>  <r_i_glide_erotb>  (1) 
0

>  <r_i_glide_esite>  (1) 
0

>  <r_i_glide_evdw>  (1) 
-11.76650178682587

>  <r_i_glide_gscore>  (1) 
-4.1462804095392558

>  <r_i_glide_gscore_strain>  (1) 
0

>  <r_i_glide_hbond>  (1) 
0

>  <r_i_glide_ligand_efficiency>  (1) 
-0.69104673492320934

>  <r_i_glide_ligand_efficiency_ln>  (1) 
-1.4851854019808295

>  <r_i_glide_ligand_efficiency_sa>  (1) 
-1.2557152526383768

>  <r_i_glide_lipo>  (1) 
-1.0223086791190603

>  <r_i_glide_metal>  (1) 
-0

>  <r_i_glide_rewards>  (1) 
-2.3710331900879922

>  <r_lp_Energy>  (1) 
4.964817

>  <r_lp_tautomer_probability>  (1) 
1

>  <s_epik_cmdline>  (1) 
J2VwaWtfcHl0aG9uJywgJy1waHQnLCAnMS4wJywgJy1waCcsICc3LjQnLCAnLXRuJywgJzgnLCAnLW1hJywgJzUwMCcsICctaW1hZScsICc8aW5maWxlLm1hZT4nLCAnLW9tYWUnLCAnPG91dGZpbGUubWFlPic=

>  <s_epik_input>  (1) 
W0NIMl0xT1tDSDJdW0NIMl1PW0NIMl0x

>  <s_glide_docking_method>  (1) 
confgen

>  <s_i_glide_gridfile>  (1) 
gpcr_5ht2c_6bqh_protein_autoprepared_prepared

>  <s_lp_Force_Field>  (1) 
S-OPLS

>  <s_lp_Variant>  (1) 
Pocket2Mol_10-1

>  <s_m_source_file>  (1) 
generated_GPCR_5HT2C_ligand_Pocket2Mol_2026-06-23_prepared.sdf

>  <GenAI_Model>  (1) 
Pocket2Mol

>  <Protein>  (1) 
GPCR_5HT2C

$$$$
Pocket2Mol_36
     RDKit          3D

  0  0  0  0  0  0  0  0  0  0999 V3000
M  V30 BEGIN CTAB
M  V30 COUNTS 17 17 0 0 1
M  V30 BEGIN ATOM
M  V30 1 C 34.855119 33.337761 59.951437 0
M  V30 2 C 35.575635 31.997038 60.167759 0
M  V30 3 C 36.925267 32.167026 60.864731 0
M  V30 4 O 37.278111 31.412732 61.767763 0
M  V30 5 C 35.777824 34.403912 59.343227 0
M  V30 6 C 37.022151 34.614481 60.215033 0
M  V30 7 C 37.820702 33.310860 60.384731 0
M  V30 8 H 33.994389 33.185497 59.298754 0
M  V30 9 H 34.458708 33.694991 60.902438 0
M  V30 10 H 35.747827 31.509291 59.207881 0
M  V30 11 H 38.640001 33.454757 61.089607 0
M  V30 12 H 34.943924 31.335830 60.758094 0
M  V30 13 H 35.242195 35.344857 59.226877 0
M  V30 14 H 36.079061 34.098558 58.339505 0
M  V30 15 H 36.726731 34.995544 61.193688 0
M  V30 16 H 37.651791 35.381949 59.766574 0
M  V30 17 H 38.263238 33.019900 59.431704 0
M  V30 END ATOM
M  V30 BEGIN BOND
M  V30 1 1 2 1
M  V30 2 1 3 2
M  V30 3 2 4 3
M  V30 4 1 5 1
M  V30 5 1 6 5
M  V30 6 1 7 3
M  V30 7 1 7 6
M  V30 8 1 8 1
M  V30 9 1 9 1
M  V30 10 1 10 2
M  V30 11 1 11 7
M  V30 12 1 12 2
M  V30 13 1 13 5
M  V30 14 1 14 5
M  V30 15 1 15 6
M  V30 16 1 16 6
M  V30 17 1 17 7
M  V30 END BOND
M  V30 END CTAB
M  END
>  <i_epik_Tot_Q>  (1) 
0

>  <i_epik_Tot_abs_Q>  (1) 
0

>  <i_i_glide_confnum>  (1) 
2

>  <i_i_glide_lignum>  (1) 
37

>  <i_i_glide_posenum>  (1) 
198

>  <i_i_glide_rotatable_bonds>  (1) 
0

>  <i_lp_mmshare_version>  (1) 
72125

>  <i_m_source_file_index>  (1) 
37

>  <i_f3d_flags>  (1) 
0

>  <num_sample>  (1) 
50

>  <b_lp_Chiralities_Consistent>  (1) 
1

>  <r_epik_Charging_Adjusted_Penalty>  (1) 
0

>  <r_epik_Ionization_Penalty>  (1) 
3.7730911281982554e-13

>  <r_epik_Ionization_Penalty_Charging>  (1) 
0

>  <r_epik_Ionization_Penalty_Neutral>  (1) 
3.7730911281982554e-13

>  <r_epik_State_Penalty>  (1) 
-0

>  <r_glide_ring_energy>  (1) 
4.2281688740393558e-05

>  <r_i_docking_score>  (1) 
-4.1352722243665774

>  <r_i_glide_ecoul>  (1) 
-2.9202620702963054

>  <r_i_glide_eff_state_penalty>  (1) 
-0

>  <r_i_glide_einternal>  (1) 
0

>  <r_i_glide_emodel>  (1) 
-20.947582572952737

>  <r_i_glide_emodel_strain>  (1) 
0

>  <r_i_glide_energy>  (1) 
-16.6349727332436

>  <r_i_glide_erotb>  (1) 
0

>  <r_i_glide_esite>  (1) 
-0.02238888513705227

>  <r_i_glide_evdw>  (1) 
-13.714710662947294

>  <r_i_glide_gscore>  (1) 
-4.1352722243665774

>  <r_i_glide_gscore_strain>  (1) 
0

>  <r_i_glide_hbond>  (1) 
-0.32000000000000001

>  <r_i_glide_ligand_efficiency>  (1) 
-0.59075317490951107

>  <r_i_glide_ligand_efficiency_ln>  (1) 
-1.4037333167451373

>  <r_i_glide_ligand_efficiency_sa>  (1) 
-1.130070169606195

>  <r_i_glide_lipo>  (1) 
-0.27744182887104746

>  <r_i_glide_metal>  (1) 
-0

>  <r_i_glide_rewards>  (1) 
-2.3916666666666666

>  <r_lp_Energy>  (1) 
-0.38638499999999998

>  <r_lp_tautomer_probability>  (1) 
1

>  <s_epik_cmdline>  (1) 
J2VwaWtfcHl0aG9uJywgJy1waHQnLCAnMS4wJywgJy1waCcsICc3LjQnLCAnLXRuJywgJzgnLCAnLW1hJywgJzUwMCcsICctaW1hZScsICc8aW5maWxlLm1hZT4nLCAnLW9tYWUnLCAnPG91dGZpbGUubWFlPic=

>  <s_epik_input>  (1) 
W0NIMl0xW0NIMl1bQ0gyXVtDSDJdW0NIXT1DMVtPSF0=

>  <s_glide_docking_method>  (1) 
confgen

>  <s_i_glide_gridfile>  (1) 
gpcr_5ht2c_6bqh_protein_autoprepared_prepared

>  <s_lp_Force_Field>  (1) 
S-OPLS

>  <s_lp_Variant>  (1) 
Pocket2Mol_36-1

>  <s_m_source_file>  (1) 
generated_GPCR_5HT2C_ligand_Pocket2Mol_2026-06-23_prepared.sdf

>  <GenAI_Model>  (1) 
Pocket2Mol

>  <Protein>  (1) 
GPCR_5HT2C

$$$$
Pocket2Mol_29
     RDKit          3D

  0  0  0  0  0  0  0  0  0  0999 V3000
M  V30 BEGIN CTAB
M  V30 COUNTS 17 17 0 0 1
M  V30 BEGIN ATOM
M  V30 1 C 37.804565 33.513543 60.279789 0
M  V30 2 C 36.967733 32.373403 60.861894 0
M  V30 3 C 35.645137 32.054773 60.167758 0
M  V30 4 O 37.344822 31.737755 61.842084 0
M  V30 5 C 36.939307 34.752337 59.990152 0
M  V30 6 C 34.845145 33.332066 59.858435 0
M  V30 7 C 35.700038 34.398533 59.154841 0
M  V30 8 H 38.610637 33.764925 60.969418 0
M  V30 9 H 38.267695 33.159562 59.358465 0
M  V30 10 H 35.868250 31.524962 59.241196 0
M  V30 11 H 35.057632 31.378467 60.788505 0
M  V30 12 H 36.630247 35.212400 60.929685 0
M  V30 13 H 37.533596 35.499682 59.464595 0
M  V30 14 H 33.985926 33.081907 59.235001 0
M  V30 15 H 34.445133 33.737755 60.787492 0
M  V30 16 H 36.013079 34.031043 58.175971 0
M  V30 17 H 35.106633 35.293578 58.967760 0
M  V30 END ATOM
M  V30 BEGIN BOND
M  V30 1 1 2 1
M  V30 2 1 3 2
M  V30 3 2 4 2
M  V30 4 1 5 1
M  V30 5 1 6 3
M  V30 6 1 7 5
M  V30 7 1 7 6
M  V30 8 1 8 1
M  V30 9 1 9 1
M  V30 10 1 10 3
M  V30 11 1 11 3
M  V30 12 1 12 5
M  V30 13 1 13 5
M  V30 14 1 14 6
M  V30 15 1 15 6
M  V30 16 1 16 7
M  V30 17 1 17 7
M  V30 END BOND
M  V30 END CTAB
M  END
>  <i_epik_Tot_Q>  (1) 
0

>  <i_epik_Tot_abs_Q>  (1) 
0

>  <i_i_glide_confnum>  (1) 
1

>  <i_i_glide_lignum>  (1) 
30

>  <i_i_glide_posenum>  (1) 
129

>  <i_i_glide_rotatable_bonds>  (1) 
0

>  <i_lp_mmshare_version>  (1) 
72125

>  <i_m_source_file_index>  (1) 
30

>  <i_f3d_flags>  (1) 
0

>  <num_sample>  (1) 
50

>  <b_lp_Chiralities_Consistent>  (1) 
1

>  <r_epik_Charging_Adjusted_Penalty>  (1) 
0

>  <r_epik_Ionization_Penalty>  (1) 
3.7730911281982554e-13

>  <r_epik_Ionization_Penalty_Charging>  (1) 
0

>  <r_epik_Ionization_Penalty_Neutral>  (1) 
3.7730911281982554e-13

>  <r_epik_State_Penalty>  (1) 
-0

>  <r_glide_ring_energy>  (1) 
0

>  <r_i_docking_score>  (1) 
-4.1193575978865766

>  <r_i_glide_ecoul>  (1) 
-2.3988905026817164

>  <r_i_glide_eff_state_penalty>  (1) 
-0

>  <r_i_glide_einternal>  (1) 
0

>  <r_i_glide_emodel>  (1) 
-20.675763248273366

>  <r_i_glide_emodel_strain>  (1) 
0

>  <r_i_glide_energy>  (1) 
-16.396074027104397

>  <r_i_glide_erotb>  (1) 
0

>  <r_i_glide_esite>  (1) 
-0.0098675359540482434

>  <r_i_glide_evdw>  (1) 
-13.997183524422679

>  <r_i_glide_gscore>  (1) 
-4.1193575978865766

>  <r_i_glide_gscore_strain>  (1) 
0

>  <r_i_glide_hbond>  (1) 
-0.32000000000000001

>  <r_i_glide_ligand_efficiency>  (1) 
-0.5884796568409395

>  <r_i_glide_ligand_efficiency_ln>  (1) 
-1.3983310384424186

>  <r_i_glide_ligand_efficiency_sa>  (1) 
-1.1257210859982281

>  <r_i_glide_lipo>  (1) 
-0.27055111516594732

>  <r_i_glide_metal>  (1) 
-0

>  <r_i_glide_rewards>  (1) 
-2.4592461951431899

>  <r_lp_Energy>  (1) 
-0.38655299999999998

>  <r_lp_tautomer_probability>  (1) 
1

>  <s_epik_cmdline>  (1) 
J2VwaWtfcHl0aG9uJywgJy1waHQnLCAnMS4wJywgJy1waCcsICc3LjQnLCAnLXRuJywgJzgnLCAnLW1hJywgJzUwMCcsICctaW1hZScsICc8aW5maWxlLm1hZT4nLCAnLW9tYWUnLCAnPG91dGZpbGUubWFlPic=

>  <s_epik_input>  (1) 
Tz1DMVtDSDJdW0NIMl1bQ0gyXVtDSDJdW0NIMl0x

>  <s_glide_docking_method>  (1) 
confgen

>  <s_i_glide_gridfile>  (1) 
gpcr_5ht2c_6bqh_protein_autoprepared_prepared

>  <s_lp_Force_Field>  (1) 
S-OPLS

>  <s_lp_Variant>  (1) 
Pocket2Mol_29-1

>  <s_m_source_file>  (1) 
generated_GPCR_5HT2C_ligand_Pocket2Mol_2026-06-23_prepared.sdf

>  <GenAI_Model>  (1) 
Pocket2Mol

>  <Protein>  (1) 
GPCR_5HT2C

$$$$
Pocket2Mol_20
     RDKit          3D

  0  0  0  0  0  0  0  0  0  0999 V3000
M  V30 BEGIN CTAB
M  V30 COUNTS 10 9 0 0 1
M  V30 BEGIN ATOM
M  V30 1 C 39.245208 27.811728 51.076726 0
M  V30 2 C 39.728773 29.232537 51.342386 0
M  V30 3 C 40.320320 30.001868 50.167725 0
M  V30 4 O 39.644604 29.737787 52.458722 0
M  V30 5 H 39.689710 27.407671 50.167761 0
M  V30 6 H 38.160668 27.799152 50.967780 0
M  V30 7 H 39.512647 27.160072 51.908560 0
M  V30 8 H 40.285736 29.408390 49.253933 0
M  V30 9 H 39.757402 30.920387 50.001737 0
M  V30 10 H 41.357384 30.267120 50.374052 0
M  V30 END ATOM
M  V30 BEGIN BOND
M  V30 1 1 2 1
M  V30 2 1 3 2
M  V30 3 2 4 2
M  V30 4 1 5 1
M  V30 5 1 6 1
M  V30 6 1 7 1
M  V30 7 1 8 3
M  V30 8 1 9 3
M  V30 9 1 10 3
M  V30 END BOND
M  V30 END CTAB
M  END
>  <i_epik_Tot_Q>  (1) 
0

>  <i_epik_Tot_abs_Q>  (1) 
0

>  <i_i_glide_confnum>  (1) 
1

>  <i_i_glide_lignum>  (1) 
21

>  <i_i_glide_posenum>  (1) 
79

>  <i_i_glide_rotatable_bonds>  (1) 
0

>  <i_lp_mmshare_version>  (1) 
72125

>  <i_m_source_file_index>  (1) 
21

>  <i_f3d_flags>  (1) 
0

>  <num_sample>  (1) 
50

>  <b_lp_Chiralities_Consistent>  (1) 
1

>  <r_epik_Charging_Adjusted_Penalty>  (1) 
0

>  <r_epik_Ionization_Penalty>  (1) 
8.9301752364709234e-13

>  <r_epik_Ionization_Penalty_Charging>  (1) 
0

>  <r_epik_Ionization_Penalty_Neutral>  (1) 
8.9301752364709234e-13

>  <r_epik_State_Penalty>  (1) 
-0

>  <r_glide_ring_energy>  (1) 
0

>  <r_i_docking_score>  (1) 
-4.0563866559211945

>  <r_i_glide_ecoul>  (1) 
-0.4647760033653961

>  <r_i_glide_eff_state_penalty>  (1) 
-0

>  <r_i_glide_einternal>  (1) 
0

>  <r_i_glide_emodel>  (1) 
-16.220608353989427

>  <r_i_glide_emodel_strain>  (1) 
0.050748860201413226

>  <r_i_glide_energy>  (1) 
-12.998181111693096

>  <r_i_glide_erotb>  (1) 
0

>  <r_i_glide_esite>  (1) 
0

>  <r_i_glide_evdw>  (1) 
-12.533405108327701

>  <r_i_glide_gscore>  (1) 
-4.0563866559211945

>  <r_i_glide_gscore_strain>  (1) 
0

>  <r_i_glide_hbond>  (1) 
0

>  <r_i_glide_ligand_efficiency>  (1) 
-1.0140966639802986

>  <r_i_glide_ligand_efficiency_ln>  (1) 
-1.6998685166475134

>  <r_i_glide_ligand_efficiency_sa>  (1) 
-1.6097781111997678

>  <r_i_glide_lipo>  (1) 
-0.66000000000000003

>  <r_i_glide_metal>  (1) 
-0

>  <r_i_glide_rewards>  (1) 
-2.7000000000000002

>  <r_lp_Energy>  (1) 
-0.55031200000000002

>  <r_lp_tautomer_probability>  (1) 
1

>  <s_epik_cmdline>  (1) 
J2VwaWtfcHl0aG9uJywgJy1waHQnLCAnMS4wJywgJy1waCcsICc3LjQnLCAnLXRuJywgJzgnLCAnLW1hJywgJzUwMCcsICctaW1hZScsICc8aW5maWxlLm1hZT4nLCAnLW9tYWUnLCAnPG91dGZpbGUubWFlPic=

>  <s_epik_input>  (1) 
W0NIM11DKD1PKVtDSDNd

>  <s_glide_docking_method>  (1) 
confgen

>  <s_i_glide_gridfile>  (1) 
gpcr_5ht2c_6bqh_protein_autoprepared_prepared

>  <s_lp_Force_Field>  (1) 
S-OPLS

>  <s_lp_Variant>  (1) 
Pocket2Mol_20-1

>  <s_m_source_file>  (1) 
generated_GPCR_5HT2C_ligand_Pocket2Mol_2026-06-23_prepared.sdf

>  <GenAI_Model>  (1) 
Pocket2Mol

>  <Protein>  (1) 
GPCR_5HT2C

$$$$
Pocket2Mol_16
     RDKit          3D

  0  0  0  0  0  0  0  0  0  0999 V3000
M  V30 BEGIN CTAB
M  V30 COUNTS 18 18 0 0 1
M  V30 BEGIN ATOM
M  V30 1 C 38.530369 31.147470 56.377298 0
M  V30 2 C 38.538135 31.742115 54.961495 0
M  V30 3 C 39.275858 30.819055 53.978171 0
M  V30 4 C 37.919567 29.737715 56.380775 0
M  V30 5 C 38.663276 29.408452 53.976102 0
M  V30 6 C 38.644900 28.809142 55.392180 0
M  V30 7 H 39.549365 31.107780 56.763905 0
M  V30 8 H 37.965597 31.797389 57.047017 0
M  V30 9 H 37.511451 31.896522 54.625171 0
M  V30 10 H 39.008087 32.725572 54.976229 0
M  V30 11 H 39.245137 31.244184 52.974478 0
M  V30 12 H 40.329620 30.761202 54.254954 0
M  V30 13 H 37.957141 29.318095 57.386261 0
M  V30 14 H 36.863406 29.805336 56.115188 0
M  V30 15 H 39.223682 28.759038 53.303073 0
M  V30 16 H 37.645256 29.452661 53.586995 0
M  V30 17 H 39.667918 28.644020 55.732839 0
M  V30 18 H 38.162505 27.831241 55.376703 0
M  V30 END ATOM
M  V30 BEGIN BOND
M  V30 1 1 2 1
M  V30 2 1 3 2
M  V30 3 1 4 1
M  V30 4 1 5 3
M  V30 5 1 6 4
M  V30 6 1 6 5
M  V30 7 1 7 1
M  V30 8 1 8 1
M  V30 9 1 9 2
M  V30 10 1 10 2
M  V30 11 1 11 3
M  V30 12 1 12 3
M  V30 13 1 13 4
M  V30 14 1 14 4
M  V30 15 1 15 5
M  V30 16 1 16 5
M  V30 17 1 17 6
M  V30 18 1 18 6
M  V30 END BOND
M  V30 END CTAB
M  END
>  <i_epik_Tot_Q>  (1) 
0

>  <i_epik_Tot_abs_Q>  (1) 
0

>  <i_i_glide_confnum>  (1) 
2

>  <i_i_glide_lignum>  (1) 
17

>  <i_i_glide_posenum>  (1) 
138

>  <i_i_glide_rotatable_bonds>  (1) 
0

>  <i_lp_mmshare_version>  (1) 
72125

>  <i_m_source_file_index>  (1) 
17

>  <i_f3d_flags>  (1) 
0

>  <num_sample>  (1) 
50

>  <b_lp_Chiralities_Consistent>  (1) 
1

>  <r_epik_Charging_Adjusted_Penalty>  (1) 
0

>  <r_epik_Ionization_Penalty>  (1) 
0

>  <r_epik_Ionization_Penalty_Charging>  (1) 
0

>  <r_epik_Ionization_Penalty_Neutral>  (1) 
0

>  <r_epik_State_Penalty>  (1) 
-0

>  <r_glide_ring_energy>  (1) 
0.00054248204421707515

>  <r_i_docking_score>  (1) 
-4.0288653515490038

>  <r_i_glide_ecoul>  (1) 
0.027629348401178783

>  <r_i_glide_eff_state_penalty>  (1) 
-0

>  <r_i_glide_einternal>  (1) 
0

>  <r_i_glide_emodel>  (1) 
-16.191124439389824

>  <r_i_glide_emodel_strain>  (1) 
0

>  <r_i_glide_energy>  (1) 
-12.781813945817387

>  <r_i_glide_erotb>  (1) 
0

>  <r_i_glide_esite>  (1) 
0

>  <r_i_glide_evdw>  (1) 
-12.809443294218566

>  <r_i_glide_gscore>  (1) 
-4.0288653515490038

>  <r_i_glide_gscore_strain>  (1) 
0

>  <r_i_glide_hbond>  (1) 
0

>  <r_i_glide_ligand_efficiency>  (1) 
-0.6714775585915006

>  <r_i_glide_ligand_efficiency_ln>  (1) 
-1.4431276748433557

>  <r_i_glide_ligand_efficiency_sa>  (1) 
-1.2201556993412657

>  <r_i_glide_lipo>  (1) 
-0.73065859170036718

>  <r_i_glide_metal>  (1) 
-0

>  <r_i_glide_rewards>  (1) 
-2.6618789973978849

>  <r_lp_Energy>  (1) 
5.7175969999999996

>  <r_lp_tautomer_probability>  (1) 
1

>  <s_epik_cmdline>  (1) 
J2VwaWtfcHl0aG9uJywgJy1waHQnLCAnMS4wJywgJy1waCcsICc3LjQnLCAnLXRuJywgJzgnLCAnLW1hJywgJzUwMCcsICctaW1hZScsICc8aW5maWxlLm1hZT4nLCAnLW9tYWUnLCAnPG91dGZpbGUubWFlPic=

>  <s_epik_input>  (1) 
W0NIMl0xW0NIMl1bQ0gyXVtDSDJdW0NIMl1bQ0gyXTE=

>  <s_glide_docking_method>  (1) 
confgen

>  <s_i_glide_gridfile>  (1) 
gpcr_5ht2c_6bqh_protein_autoprepared_prepared

>  <s_lp_Force_Field>  (1) 
S-OPLS

>  <s_lp_Variant>  (1) 
Pocket2Mol_16-1

>  <s_m_source_file>  (1) 
generated_GPCR_5HT2C_ligand_Pocket2Mol_2026-06-23_prepared.sdf

>  <GenAI_Model>  (1) 
Pocket2Mol

>  <Protein>  (1) 
GPCR_5HT2C

$$$$
Pocket2Mol_26
     RDKit          3D

  0  0  0  0  0  0  0  0  0  0999 V3000
M  V30 BEGIN CTAB
M  V30 COUNTS 13 13 0 0 1
M  V30 BEGIN ATOM
M  V30 1 C 34.836974 33.070075 59.767766 0
M  V30 2 O 35.574692 31.997976 60.342826 0
M  V30 3 C 36.764245 32.176824 60.974317 0
M  V30 4 O 37.256737 31.378016 61.767758 0
M  V30 5 C 37.487445 33.487752 60.593380 0
M  V30 6 C 35.747331 34.137831 59.167741 0
M  V30 7 O 36.603502 34.537598 60.217625 0
M  V30 8 H 34.209445 33.511176 60.542554 0
M  V30 9 H 34.168586 32.671689 59.004094 0
M  V30 10 H 38.178488 33.281122 59.775454 0
M  V30 11 H 38.086611 33.819937 61.441239 0
M  V30 12 H 35.162242 34.990230 58.823066 0
M  V30 13 H 36.313902 33.758584 58.315211 0
M  V30 END ATOM
M  V30 BEGIN BOND
M  V30 1 1 2 1
M  V30 2 1 3 2
M  V30 3 2 4 3
M  V30 4 1 5 3
M  V30 5 1 6 1
M  V30 6 1 7 5
M  V30 7 1 7 6
M  V30 8 1 8 1
M  V30 9 1 9 1
M  V30 10 1 10 5
M  V30 11 1 11 5
M  V30 12 1 12 6
M  V30 13 1 13 6
M  V30 END BOND
M  V30 END CTAB
M  END
>  <i_epik_Tot_Q>  (1) 
0

>  <i_epik_Tot_abs_Q>  (1) 
0

>  <i_i_glide_confnum>  (1) 
2

>  <i_i_glide_lignum>  (1) 
27

>  <i_i_glide_posenum>  (1) 
315

>  <i_i_glide_rotatable_bonds>  (1) 
0

>  <i_lp_mmshare_version>  (1) 
72125

>  <i_m_source_file_index>  (1) 
27

>  <i_f3d_flags>  (1) 
0

>  <num_sample>  (1) 
50

>  <b_lp_Chiralities_Consistent>  (1) 
1

>  <r_epik_Charging_Adjusted_Penalty>  (1) 
0

>  <r_epik_Ionization_Penalty>  (1) 
1.0677269036415479e-12

>  <r_epik_Ionization_Penalty_Charging>  (1) 
0

>  <r_epik_Ionization_Penalty_Neutral>  (1) 
1.0677269036415479e-12

>  <r_epik_State_Penalty>  (1) 
-0

>  <r_glide_ring_energy>  (1) 
4.2281688740393558e-05

>  <r_i_docking_score>  (1) 
-4.011189102906382

>  <r_i_glide_ecoul>  (1) 
-3.1708748740812336

>  <r_i_glide_eff_state_penalty>  (1) 
-0

>  <r_i_glide_einternal>  (1) 
0

>  <r_i_glide_emodel>  (1) 
-20.241144349544424

>  <r_i_glide_emodel_strain>  (1) 
0

>  <r_i_glide_energy>  (1) 
-16.094701936718167

>  <r_i_glide_erotb>  (1) 
0

>  <r_i_glide_esite>  (1) 
-0.032711530504707466

>  <r_i_glide_evdw>  (1) 
-12.923827062636931

>  <r_i_glide_gscore>  (1) 
-4.011189102906382

>  <r_i_glide_gscore_strain>  (1) 
0

>  <r_i_glide_hbond>  (1) 
-0.32000000000000001

>  <r_i_glide_ligand_efficiency>  (1) 
-0.57302701470091166

>  <r_i_glide_ligand_efficiency_ln>  (1) 
-1.3616128462684713

>  <r_i_glide_ligand_efficiency_sa>  (1) 
-1.0961612449923464

>  <r_i_glide_lipo>  (1) 
-0.19095602671668163

>  <r_i_glide_metal>  (1) 
-0

>  <r_i_glide_rewards>  (1) 
-2.3456989614409616

>  <r_lp_Energy>  (1) 
12.58291

>  <r_lp_tautomer_probability>  (1) 
1

>  <s_epik_Chemistry_Notes>  (1) 
This compound has an ester and may undergo hydrolysis at high or low pH.

>  <s_epik_cmdline>  (1) 
J2VwaWtfcHl0aG9uJywgJy1waHQnLCAnMS4wJywgJy1waCcsICc3LjQnLCAnLXRuJywgJzgnLCAnLW1hJywgJzUwMCcsICctaW1hZScsICc8aW5maWxlLm1hZT4nLCAnLW9tYWUnLCAnPG91dGZpbGUubWFlPic=

>  <s_epik_input>  (1) 
W0NIMl0xT1tDSDJdW0NIMl1PQzE9Tw==

>  <s_glide_docking_method>  (1) 
confgen

>  <s_i_glide_gridfile>  (1) 
gpcr_5ht2c_6bqh_protein_autoprepared_prepared

>  <s_lp_Force_Field>  (1) 
S-OPLS

>  <s_lp_Variant>  (1) 
Pocket2Mol_26-1

>  <s_m_source_file>  (1) 
generated_GPCR_5HT2C_ligand_Pocket2Mol_2026-06-23_prepared.sdf

>  <GenAI_Model>  (1) 
Pocket2Mol

>  <Protein>  (1) 
GPCR_5HT2C

$$$$
Pocket2Mol_10
     RDKit          3D

  0  0  0  0  0  0  0  0  0  0999 V3000
M  V30 BEGIN CTAB
M  V30 COUNTS 14 14 0 0 1
M  V30 BEGIN ATOM
M  V30 1 C 37.289136 31.679012 60.966879 0
M  V30 2 O 35.930704 31.817480 61.367760 0
M  V30 3 C 35.488827 33.165201 61.229937 0
M  V30 4 C 37.443698 32.137422 59.504987 0
M  V30 5 O 37.016736 33.489467 59.398841 0
M  V30 6 C 35.649617 33.617810 59.767760 0
M  V30 7 H 37.934297 32.262994 61.625154 0
M  V30 8 H 37.585623 30.634981 61.070087 0
M  V30 9 H 34.445138 33.233940 61.535235 0
M  V30 10 H 36.056241 33.815134 61.897404 0
M  V30 11 H 38.485606 32.067134 59.192351 0
M  V30 12 H 36.863361 31.501717 58.834125 0
M  V30 13 H 35.016666 33.026756 59.103633 0
M  V30 14 H 35.346364 34.658702 59.655404 0
M  V30 END ATOM
M  V30 BEGIN BOND
M  V30 1 1 2 1
M  V30 2 1 3 2
M  V30 3 1 4 1
M  V30 4 1 5 4
M  V30 5 1 6 3
M  V30 6 1 6 5
M  V30 7 1 7 1
M  V30 8 1 8 1
M  V30 9 1 9 3
M  V30 10 1 10 3
M  V30 11 1 11 4
M  V30 12 1 12 4
M  V30 13 1 13 6
M  V30 14 1 14 6
M  V30 END BOND
M  V30 END CTAB
M  END
>  <i_epik_Tot_Q>  (1) 
0

>  <i_epik_Tot_abs_Q>  (1) 
0

>  <i_i_glide_confnum>  (1) 
2

>  <i_i_glide_lignum>  (1) 
11

>  <i_i_glide_posenum>  (1) 
273

>  <i_i_glide_rotatable_bonds>  (1) 
0

>  <i_lp_mmshare_version>  (1) 
72125

>  <i_m_source_file_index>  (1) 
11

>  <i_f3d_flags>  (1) 
0

>  <num_sample>  (1) 
50

>  <b_lp_Chiralities_Consistent>  (1) 
1

>  <r_epik_Charging_Adjusted_Penalty>  (1) 
0

>  <r_epik_Ionization_Penalty>  (1) 
8.3894707547109138e-13

>  <r_epik_Ionization_Penalty_Charging>  (1) 
0

>  <r_epik_Ionization_Penalty_Neutral>  (1) 
8.3894707547109138e-13

>  <r_epik_State_Penalty>  (1) 
-0

>  <r_glide_ring_energy>  (1) 
0.00013676017923054334

>  <r_i_docking_score>  (1) 
-3.9938605965106078

>  <r_i_glide_ecoul>  (1) 
-1.8228544004259082

>  <r_i_glide_eff_state_penalty>  (1) 
-0

>  <r_i_glide_einternal>  (1) 
0

>  <r_i_glide_emodel>  (1) 
-16.579734985978089

>  <r_i_glide_emodel_strain>  (1) 
0

>  <r_i_glide_energy>  (1) 
-13.250283492461365

>  <r_i_glide_erotb>  (1) 
0

>  <r_i_glide_esite>  (1) 
0

>  <r_i_glide_evdw>  (1) 
-11.427429092035457

>  <r_i_glide_gscore>  (1) 
-3.9938605965106078

>  <r_i_glide_gscore_strain>  (1) 
0

>  <r_i_glide_hbond>  (1) 
-0.32000000000000001

>  <r_i_glide_ligand_efficiency>  (1) 
-0.66564343275176796

>  <r_i_glide_ligand_efficiency_ln>  (1) 
-1.4305890749302066

>  <r_i_glide_ligand_efficiency_sa>  (1) 
-1.2095543891367133

>  <r_i_glide_lipo>  (1) 
-0.15636089877335407

>  <r_i_glide_metal>  (1) 
-0

>  <r_i_glide_rewards>  (1) 
-2.6727000830715948

>  <r_lp_Energy>  (1) 
4.964817

>  <r_lp_tautomer_probability>  (1) 
1

>  <s_epik_cmdline>  (1) 
J2VwaWtfcHl0aG9uJywgJy1waHQnLCAnMS4wJywgJy1waCcsICc3LjQnLCAnLXRuJywgJzgnLCAnLW1hJywgJzUwMCcsICctaW1hZScsICc8aW5maWxlLm1hZT4nLCAnLW9tYWUnLCAnPG91dGZpbGUubWFlPic=

>  <s_epik_input>  (1) 
W0NIMl0xT1tDSDJdW0NIMl1PW0NIMl0x

>  <s_glide_docking_method>  (1) 
confgen

>  <s_i_glide_gridfile>  (1) 
gpcr_5ht2c_6bqh_protein_autoprepared_prepared

>  <s_lp_Force_Field>  (1) 
S-OPLS

>  <s_lp_Variant>  (1) 
Pocket2Mol_10-1

>  <s_m_source_file>  (1) 
generated_GPCR_5HT2C_ligand_Pocket2Mol_2026-06-23_prepared.sdf

>  <GenAI_Model>  (1) 
Pocket2Mol

>  <Protein>  (1) 
GPCR_5HT2C

$$$$
Pocket2Mol_12
     RDKit          3D

  0  0  0  0  0  0  0  0  0  0999 V3000
M  V30 BEGIN CTAB
M  V30 COUNTS 10 10 0 0 1
M  V30 BEGIN ATOM
M  V30 1 C 35.996161 33.908442 59.367757 0
M  V30 2 C 34.765268 33.103305 59.767760 0
M  V30 3 O 37.025185 33.247684 60.068309 0
M  V30 4 O 35.245138 32.343983 60.852909 0
M  V30 5 C 36.568356 32.382341 60.969610 0
M  V30 6 O 37.245135 31.737755 61.767758 0
M  V30 7 H 35.924197 34.941945 59.707468 0
M  V30 8 H 36.167424 33.896708 58.290953 0
M  V30 9 H 33.927228 33.737676 60.055968 0
M  V30 10 H 34.445193 32.435333 58.967797 0
M  V30 END ATOM
M  V30 BEGIN BOND
M  V30 1 1 2 1
M  V30 2 1 3 1
M  V30 3 1 4 2
M  V30 4 1 5 3
M  V30 5 1 5 4
M  V30 6 2 6 5
M  V30 7 1 7 1
M  V30 8 1 8 1
M  V30 9 1 9 2
M  V30 10 1 10 2
M  V30 END BOND
M  V30 END CTAB
M  END
>  <i_epik_Tot_Q>  (1) 
0

>  <i_epik_Tot_abs_Q>  (1) 
0

>  <i_i_glide_confnum>  (1) 
2

>  <i_i_glide_lignum>  (1) 
13

>  <i_i_glide_posenum>  (1) 
257

>  <i_i_glide_rotatable_bonds>  (1) 
0

>  <i_lp_mmshare_version>  (1) 
72125

>  <i_m_source_file_index>  (1) 
13

>  <i_f3d_flags>  (1) 
0

>  <num_sample>  (1) 
50

>  <b_lp_Chiralities_Consistent>  (1) 
1

>  <r_epik_Charging_Adjusted_Penalty>  (1) 
0

>  <r_epik_Ionization_Penalty>  (1) 
0

>  <r_epik_Ionization_Penalty_Charging>  (1) 
0

>  <r_epik_Ionization_Penalty_Neutral>  (1) 
0

>  <r_epik_State_Penalty>  (1) 
-0

>  <r_glide_ring_energy>  (1) 
0.00053108536261990756

>  <r_i_docking_score>  (1) 
-3.9728855301069044

>  <r_i_glide_ecoul>  (1) 
-3.2445461401733011

>  <r_i_glide_eff_state_penalty>  (1) 
-0

>  <r_i_glide_einternal>  (1) 
0

>  <r_i_glide_emodel>  (1) 
-19.601264341518007

>  <r_i_glide_emodel_strain>  (1) 
0

>  <r_i_glide_energy>  (1) 
-15.497621515838848

>  <r_i_glide_erotb>  (1) 
0

>  <r_i_glide_esite>  (1) 
-0.025549818314692919

>  <r_i_glide_evdw>  (1) 
-12.253075375665547

>  <r_i_glide_gscore>  (1) 
-3.9728855301069044

>  <r_i_glide_gscore_strain>  (1) 
0

>  <r_i_glide_hbond>  (1) 
-0.32000000000000001

>  <r_i_glide_ligand_efficiency>  (1) 
-0.66214758835115073

>  <r_i_glide_ligand_efficiency_ln>  (1) 
-1.4230758680673306

>  <r_i_glide_ligand_efficiency_sa>  (1) 
-1.2032020182870147

>  <r_i_glide_lipo>  (1) 
-0.17359016818933654

>  <r_i_glide_metal>  (1) 
-0

>  <r_i_glide_rewards>  (1) 
-2.354409853793602

>  <r_lp_Energy>  (1) 
-6.8415979999999994

>  <r_lp_tautomer_probability>  (1) 
1

>  <s_epik_Chemistry_Notes>  (1) 
This compound has an ester and may undergo hydrolysis at high or low pH.

>  <s_epik_cmdline>  (1) 
J2VwaWtfcHl0aG9uJywgJy1waHQnLCAnMS4wJywgJy1waCcsICc3LjQnLCAnLXRuJywgJzgnLCAnLW1hJywgJzUwMCcsICctaW1hZScsICc8aW5maWxlLm1hZT4nLCAnLW9tYWUnLCAnPG91dGZpbGUubWFlPic=

>  <s_epik_input>  (1) 
TzFbQ0gyXVtDSDJdT0MxPU8=

>  <s_glide_docking_method>  (1) 
confgen

>  <s_i_glide_gridfile>  (1) 
gpcr_5ht2c_6bqh_protein_autoprepared_prepared

>  <s_lp_Force_Field>  (1) 
S-OPLS

>  <s_lp_Variant>  (1) 
Pocket2Mol_12-1

>  <s_m_source_file>  (1) 
generated_GPCR_5HT2C_ligand_Pocket2Mol_2026-06-23_prepared.sdf

>  <GenAI_Model>  (1) 
Pocket2Mol

>  <Protein>  (1) 
GPCR_5HT2C

$$$$
Pocket2Mol_48
     RDKit          3D

  0  0  0  0  0  0  0  0  0  0999 V3000
M  V30 BEGIN CTAB
M  V30 COUNTS 15 15 0 0 1
M  V30 BEGIN ATOM
M  V30 1 C 39.037537 29.009933 56.851925 0
M  V30 2 C 37.903382 29.749939 57.566130 0
M  V30 3 C 38.954283 29.455283 55.384686 0
M  V30 4 C 37.873615 30.543268 55.341604 0
M  V30 5 N 37.645396 30.937755 56.740443 0 CHG=1
M  V30 6 H 38.954629 27.927991 56.964316 0
M  V30 7 H 39.998906 29.309184 57.271826 0
M  V30 8 H 37.001020 29.136821 57.583288 0
M  V30 9 H 38.151169 30.015524 58.594379 0
M  V30 10 H 39.916686 29.850552 55.055850 0
M  V30 11 H 38.698938 28.625854 54.723782 0
M  V30 12 H 38.152568 31.397960 54.723758 0
M  V30 13 H 36.943557 30.132885 54.944566 0
M  V30 14 H 38.303071 31.662529 56.984415 0
M  V30 15 H 36.683991 31.307594 56.870048 0
M  V30 END ATOM
M  V30 BEGIN BOND
M  V30 1 1 2 1
M  V30 2 1 3 1
M  V30 3 1 4 3
M  V30 4 1 5 2
M  V30 5 1 5 4
M  V30 6 1 6 1
M  V30 7 1 7 1
M  V30 8 1 8 2
M  V30 9 1 9 2
M  V30 10 1 10 3
M  V30 11 1 11 3
M  V30 12 1 12 4
M  V30 13 1 13 4
M  V30 14 1 14 5
M  V30 15 1 15 5
M  V30 END BOND
M  V30 END CTAB
M  END
>  <i_epik_Tot_Q>  (1) 
1

>  <i_epik_Tot_abs_Q>  (1) 
1

>  <i_i_glide_confnum>  (1) 
1

>  <i_i_glide_lignum>  (1) 
49

>  <i_i_glide_posenum>  (1) 
150

>  <i_i_glide_rotatable_bonds>  (1) 
0

>  <i_lp_mmshare_version>  (1) 
72125

>  <i_m_source_file_index>  (1) 
49

>  <i_f3d_flags>  (1) 
0

>  <num_sample>  (1) 
50

>  <b_lp_Chiralities_Consistent>  (1) 
1

>  <r_epik_Charging_Adjusted_Penalty>  (1) 
0.00011848530527437102

>  <r_epik_Ionization_Penalty>  (1) 
0.00011848530527437102

>  <r_epik_Ionization_Penalty_Charging>  (1) 
0.00011848530527437102

>  <r_epik_Ionization_Penalty_Neutral>  (1) 
0

>  <r_epik_State_Penalty>  (1) 
-0

>  <r_glide_ring_energy>  (1) 
0

>  <r_i_docking_score>  (1) 
-3.9700153823887776

>  <r_i_glide_ecoul>  (1) 
-6.2214892188783733

>  <r_i_glide_eff_state_penalty>  (1) 
-0

>  <r_i_glide_einternal>  (1) 
0

>  <r_i_glide_emodel>  (1) 
-18.403710476544358

>  <r_i_glide_emodel_strain>  (1) 
0.52919437867474883

>  <r_i_glide_energy>  (1) 
-12.734890517765688

>  <r_i_glide_erotb>  (1) 
0

>  <r_i_glide_esite>  (1) 
-0.10000000000000001

>  <r_i_glide_evdw>  (1) 
-6.5134012988873149

>  <r_i_glide_gscore>  (1) 
-3.9700153823887776

>  <r_i_glide_gscore_strain>  (1) 
0

>  <r_i_glide_hbond>  (1) 
-0.15397910557598354

>  <r_i_glide_ligand_efficiency>  (1) 
-0.79400307647775548

>  <r_i_glide_ligand_efficiency_ln>  (1) 
-1.5214063394539714

>  <r_i_glide_ligand_efficiency_sa>  (1) 
-1.3577261623642598

>  <r_i_glide_lipo>  (1) 
-0.20714282903667244

>  <r_i_glide_metal>  (1) 
-0

>  <r_i_glide_rewards>  (1) 
-2.25

>  <r_lp_Energy>  (1) 
17.726251999999999

>  <r_lp_tautomer_probability>  (1) 
1

>  <s_epik_cmdline>  (1) 
J2VwaWtfcHl0aG9uJywgJy1waHQnLCAnMS4wJywgJy1waCcsICc3LjQnLCAnLXRuJywgJzgnLCAnLW1hJywgJzUwMCcsICctaW1hZScsICc8aW5maWxlLm1hZT4nLCAnLW9tYWUnLCAnPG91dGZpbGUubWFlPic=

>  <s_epik_input>  (1) 
W0NIMl0xW0NIMl1bTkhdW0NIMl1bQ0gyXTE=

>  <s_glide_docking_method>  (1) 
confgen

>  <s_i_glide_gridfile>  (1) 
gpcr_5ht2c_6bqh_protein_autoprepared_prepared

>  <s_lp_Force_Field>  (1) 
S-OPLS

>  <s_lp_Variant>  (1) 
Pocket2Mol_48-1

>  <s_m_source_file>  (1) 
generated_GPCR_5HT2C_ligand_Pocket2Mol_2026-06-23_prepared.sdf

>  <GenAI_Model>  (1) 
Pocket2Mol

>  <Protein>  (1) 
GPCR_5HT2C

$$$$
Pocket2Mol_20
     RDKit          3D

  0  0  0  0  0  0  0  0  0  0999 V3000
M  V30 BEGIN CTAB
M  V30 COUNTS 10 9 0 0 1
M  V30 BEGIN ATOM
M  V30 1 C 39.645142 30.137758 52.635329 0
M  V30 2 C 40.032578 29.447532 51.332036 0
M  V30 3 C 40.445146 30.335702 50.167753 0
M  V30 4 O 40.010924 28.224210 51.225515 0
M  V30 5 H 39.467606 31.201329 52.476512 0
M  V30 6 H 40.444496 30.040877 53.368799 0
M  V30 7 H 38.739271 29.691661 53.045527 0
M  V30 8 H 40.355235 31.389651 50.426892 0
M  V30 9 H 41.478586 30.137765 49.882840 0
M  V30 10 H 39.804058 30.135555 49.309696 0
M  V30 END ATOM
M  V30 BEGIN BOND
M  V30 1 1 2 1
M  V30 2 1 3 2
M  V30 3 2 4 2
M  V30 4 1 5 1
M  V30 5 1 6 1
M  V30 6 1 7 1
M  V30 7 1 8 3
M  V30 8 1 9 3
M  V30 9 1 10 3
M  V30 END BOND
M  V30 END CTAB
M  END
>  <i_epik_Tot_Q>  (1) 
0

>  <i_epik_Tot_abs_Q>  (1) 
0

>  <i_i_glide_confnum>  (1) 
1

>  <i_i_glide_lignum>  (1) 
21

>  <i_i_glide_posenum>  (1) 
188

>  <i_i_glide_rotatable_bonds>  (1) 
0

>  <i_lp_mmshare_version>  (1) 
72125

>  <i_m_source_file_index>  (1) 
21

>  <i_f3d_flags>  (1) 
0

>  <num_sample>  (1) 
50

>  <b_lp_Chiralities_Consistent>  (1) 
1

>  <r_epik_Charging_Adjusted_Penalty>  (1) 
0

>  <r_epik_Ionization_Penalty>  (1) 
8.9301752364709234e-13

>  <r_epik_Ionization_Penalty_Charging>  (1) 
0

>  <r_epik_Ionization_Penalty_Neutral>  (1) 
8.9301752364709234e-13

>  <r_epik_State_Penalty>  (1) 
-0

>  <r_glide_ring_energy>  (1) 
0

>  <r_i_docking_score>  (1) 
-3.9630638502246076

>  <r_i_glide_ecoul>  (1) 
-0.28414401035739267

>  <r_i_glide_eff_state_penalty>  (1) 
-0

>  <r_i_glide_einternal>  (1) 
0

>  <r_i_glide_emodel>  (1) 
-14.622784613208632

>  <r_i_glide_emodel_strain>  (1) 
0.068076513327274824

>  <r_i_glide_energy>  (1) 
-11.492988983777362

>  <r_i_glide_erotb>  (1) 
0

>  <r_i_glide_esite>  (1) 
0

>  <r_i_glide_evdw>  (1) 
-11.20884497341997

>  <r_i_glide_gscore>  (1) 
-3.9630638502246076

>  <r_i_glide_gscore_strain>  (1) 
0

>  <r_i_glide_hbond>  (1) 
0

>  <r_i_glide_ligand_efficiency>  (1) 
-0.9907659625561519

>  <r_i_glide_ligand_efficiency_ln>  (1) 
-1.6607606818316987

>  <r_i_glide_ligand_efficiency_sa>  (1) 
-1.5727429312159211

>  <r_i_glide_lipo>  (1) 
-0.66000000000000003

>  <r_i_glide_metal>  (1) 
-0

>  <r_i_glide_rewards>  (1) 
-2.7000000000000002

>  <r_lp_Energy>  (1) 
-0.55031200000000002

>  <r_lp_tautomer_probability>  (1) 
1

>  <s_epik_cmdline>  (1) 
J2VwaWtfcHl0aG9uJywgJy1waHQnLCAnMS4wJywgJy1waCcsICc3LjQnLCAnLXRuJywgJzgnLCAnLW1hJywgJzUwMCcsICctaW1hZScsICc8aW5maWxlLm1hZT4nLCAnLW9tYWUnLCAnPG91dGZpbGUubWFlPic=

>  <s_epik_input>  (1) 
W0NIM11DKD1PKVtDSDNd

>  <s_glide_docking_method>  (1) 
confgen

>  <s_i_glide_gridfile>  (1) 
gpcr_5ht2c_6bqh_protein_autoprepared_prepared

>  <s_lp_Force_Field>  (1) 
S-OPLS

>  <s_lp_Variant>  (1) 
Pocket2Mol_20-1

>  <s_m_source_file>  (1) 
generated_GPCR_5HT2C_ligand_Pocket2Mol_2026-06-23_prepared.sdf

>  <GenAI_Model>  (1) 
Pocket2Mol

>  <Protein>  (1) 
GPCR_5HT2C

$$$$
Pocket2Mol_40
     RDKit          3D

  0  0  0  0  0  0  0  0  0  0999 V3000
M  V30 BEGIN CTAB
M  V30 COUNTS 10 9 0 0 1
M  V30 BEGIN ATOM
M  V30 1 C 36.845136 35.630895 59.767780 0
M  V30 2 O 37.532581 34.460215 60.167750 0
M  V30 3 C 36.863625 33.492968 60.832849 0
M  V30 4 C 37.788645 32.285608 61.155517 0
M  V30 5 O 35.673140 33.536973 61.157542 0
M  V30 6 O 38.978493 32.387879 60.772517 0
M  V30 7 O 37.245134 31.337758 61.767760 0 CHG=-1
M  V30 8 H 37.525456 36.304145 59.247156 0
M  V30 9 H 36.445158 36.159087 60.633679 0
M  V30 10 H 36.022658 35.387918 59.093479 0
M  V30 END ATOM
M  V30 BEGIN BOND
M  V30 1 1 2 1
M  V30 2 1 3 2
M  V30 3 1 4 3
M  V30 4 2 5 3
M  V30 5 2 6 4
M  V30 6 1 7 4
M  V30 7 1 8 1
M  V30 8 1 9 1
M  V30 9 1 10 1
M  V30 END BOND
M  V30 END CTAB
M  END
>  <i_epik_Tot_Q>  (1) 
-1

>  <i_epik_Tot_abs_Q>  (1) 
1

>  <i_i_glide_confnum>  (1) 
1

>  <i_i_glide_lignum>  (1) 
41

>  <i_i_glide_posenum>  (1) 
237

>  <i_i_glide_rotatable_bonds>  (1) 
2

>  <i_lp_mmshare_version>  (1) 
72125

>  <i_m_source_file_index>  (1) 
41

>  <i_f3d_flags>  (1) 
0

>  <num_sample>  (1) 
50

>  <b_lp_Chiralities_Consistent>  (1) 
1

>  <r_epik_Charging_Adjusted_Penalty>  (1) 
5.6581681309968728e-06

>  <r_epik_Ionization_Penalty>  (1) 
5.6581681309968728e-06

>  <r_epik_Ionization_Penalty_Charging>  (1) 
5.6581681309968728e-06

>  <r_epik_Ionization_Penalty_Neutral>  (1) 
0

>  <r_epik_State_Penalty>  (1) 
-0

>  <r_glide_ring_energy>  (1) 
0

>  <r_i_docking_score>  (1) 
-3.9618731773827691

>  <r_i_glide_ecoul>  (1) 
-3.646917233113343

>  <r_i_glide_eff_state_penalty>  (1) 
-0

>  <r_i_glide_einternal>  (1) 
0.012520823251968682

>  <r_i_glide_emodel>  (1) 
-18.202347451818152

>  <r_i_glide_emodel_strain>  (1) 
0

>  <r_i_glide_energy>  (1) 
-14.082668268328174

>  <r_i_glide_erotb>  (1) 
0

>  <r_i_glide_esite>  (1) 
0

>  <r_i_glide_evdw>  (1) 
-10.435751035214832

>  <r_i_glide_gscore>  (1) 
-3.9618731773827691

>  <r_i_glide_gscore_strain>  (1) 
0

>  <r_i_glide_hbond>  (1) 
-0.16

>  <r_i_glide_ligand_efficiency>  (1) 
-0.56598188248325276

>  <r_i_glide_ligand_efficiency_ln>  (1) 
-1.3448723745540074

>  <r_i_glide_ligand_efficiency_sa>  (1) 
-1.082684391886432

>  <r_i_glide_lipo>  (1) 
-0.1804132704175575

>  <r_i_glide_metal>  (1) 
-0

>  <r_i_glide_rewards>  (1) 
-2.5526347702374683

>  <r_lp_Energy>  (1) 
21.029133999999999

>  <r_lp_tautomer_probability>  (1) 
1

>  <s_epik_Chemistry_Notes>  (1) 
This compound has an ester and may undergo hydrolysis at high or low pH.

>  <s_epik_cmdline>  (1) 
J2VwaWtfcHl0aG9uJywgJy1waHQnLCAnMS4wJywgJy1waCcsICc3LjQnLCAnLXRuJywgJzgnLCAnLW1hJywgJzUwMCcsICctaW1hZScsICc8aW5maWxlLm1hZT4nLCAnLW9tYWUnLCAnPG91dGZpbGUubWFlPic=

>  <s_epik_input>  (1) 
W0NIM11PQyg9TylDKD1PKVtPSF0=

>  <s_glide_docking_method>  (1) 
confgen

>  <s_i_glide_gridfile>  (1) 
gpcr_5ht2c_6bqh_protein_autoprepared_prepared

>  <s_lp_Force_Field>  (1) 
S-OPLS

>  <s_lp_Variant>  (1) 
Pocket2Mol_40-1

>  <s_m_source_file>  (1) 
generated_GPCR_5HT2C_ligand_Pocket2Mol_2026-06-23_prepared.sdf

>  <GenAI_Model>  (1) 
Pocket2Mol

>  <Protein>  (1) 
GPCR_5HT2C

$$$$
Pocket2Mol_42
     RDKit          3D

  0  0  0  0  0  0  0  0  0  0999 V3000
M  V30 BEGIN CTAB
M  V30 COUNTS 10 9 0 0 1
M  V30 BEGIN ATOM
M  V30 1 C 35.917026 32.386771 60.061686 0
M  V30 2 O 36.396745 31.116250 60.345237 0
M  V30 3 C 36.734855 30.387037 59.173330 0
M  V30 4 O 34.691662 32.347608 59.374471 0
M  V30 5 H 36.631843 32.935023 59.446626 0
M  V30 6 H 35.747235 32.936949 60.992829 0
M  V30 7 H 37.101492 29.400874 59.451205 0
M  V30 8 H 35.866480 30.251162 58.528078 0
M  V30 9 H 37.518044 30.891633 58.606443 0
M  V30 10 H 34.884326 32.137327 58.444199 0
M  V30 END ATOM
M  V30 BEGIN BOND
M  V30 1 1 2 1
M  V30 2 1 3 2
M  V30 3 1 4 1
M  V30 4 1 5 1
M  V30 5 1 6 1
M  V30 6 1 7 3
M  V30 7 1 8 3
M  V30 8 1 9 3
M  V30 9 1 10 4
M  V30 END BOND
M  V30 END CTAB
M  END
>  <i_epik_Tot_Q>  (1) 
0

>  <i_epik_Tot_abs_Q>  (1) 
0

>  <i_i_glide_confnum>  (1) 
1

>  <i_i_glide_lignum>  (1) 
43

>  <i_i_glide_posenum>  (1) 
29

>  <i_i_glide_rotatable_bonds>  (1) 
2

>  <i_lp_mmshare_version>  (1) 
72125

>  <i_m_source_file_index>  (1) 
43

>  <i_f3d_flags>  (1) 
0

>  <num_sample>  (1) 
50

>  <b_lp_Chiralities_Consistent>  (1) 
1

>  <r_epik_Charging_Adjusted_Penalty>  (1) 
0

>  <r_epik_Ionization_Penalty>  (1) 
1.028953084229311e-06

>  <r_epik_Ionization_Penalty_Charging>  (1) 
0

>  <r_epik_Ionization_Penalty_Neutral>  (1) 
1.028953084229311e-06

>  <r_epik_State_Penalty>  (1) 
-0

>  <r_glide_ring_energy>  (1) 
0

>  <r_i_docking_score>  (1) 
-3.9286903498587167

>  <r_i_glide_ecoul>  (1) 
-8.1860526142147272

>  <r_i_glide_eff_state_penalty>  (1) 
-0

>  <r_i_glide_einternal>  (1) 
0.17150585855055489

>  <r_i_glide_emodel>  (1) 
-16.776688734783235

>  <r_i_glide_emodel_strain>  (1) 
0

>  <r_i_glide_energy>  (1) 
-12.576503662719976

>  <r_i_glide_erotb>  (1) 
0

>  <r_i_glide_esite>  (1) 
-0.07125990530124536

>  <r_i_glide_evdw>  (1) 
-4.3904510485052493

>  <r_i_glide_gscore>  (1) 
-3.9286903498587167

>  <r_i_glide_gscore_strain>  (1) 
0

>  <r_i_glide_hbond>  (1) 
-0.16

>  <r_i_glide_ligand_efficiency>  (1) 
-0.98217258746467917

>  <r_i_glide_ligand_efficiency_ln>  (1) 
-1.6463561301862935

>  <r_i_glide_ligand_efficiency_sa>  (1) 
-1.55910179855576

>  <r_i_glide_lipo>  (1) 
0

>  <r_i_glide_metal>  (1) 
-0

>  <r_i_glide_rewards>  (1) 
-2.25

>  <r_lp_Energy>  (1) 
5.5414079999999997

>  <r_lp_tautomer_probability>  (1) 
1

>  <s_epik_Chemistry_Notes>  (1) 
This compound contains an acetal/aminal-like group ( X-CH(R)-Y where X, Y are N, S, or O) that may be acid/base labile, releasing an aldehyde.

>  <s_epik_cmdline>  (1) 
J2VwaWtfcHl0aG9uJywgJy1waHQnLCAnMS4wJywgJy1waCcsICc3LjQnLCAnLXRuJywgJzgnLCAnLW1hJywgJzUwMCcsICctaW1hZScsICc8aW5maWxlLm1hZT4nLCAnLW9tYWUnLCAnPG91dGZpbGUubWFlPic=

>  <s_epik_input>  (1) 
W09IXVtDSDJdT1tDSDNd

>  <s_glide_docking_method>  (1) 
confgen

>  <s_i_glide_gridfile>  (1) 
gpcr_5ht2c_6bqh_protein_autoprepared_prepared

>  <s_lp_Force_Field>  (1) 
S-OPLS

>  <s_lp_Variant>  (1) 
Pocket2Mol_42-1

>  <s_m_source_file>  (1) 
generated_GPCR_5HT2C_ligand_Pocket2Mol_2026-06-23_prepared.sdf

>  <GenAI_Model>  (1) 
Pocket2Mol

>  <Protein>  (1) 
GPCR_5HT2C

$$$$
Pocket2Mol_20
     RDKit          3D

  0  0  0  0  0  0  0  0  0  0999 V3000
M  V30 BEGIN CTAB
M  V30 COUNTS 10 9 0 0 1
M  V30 BEGIN ATOM
M  V30 1 C 38.882037 28.937741 52.576348 0
M  V30 2 C 39.640682 28.881468 51.256876 0
M  V30 3 C 40.390854 30.137405 50.825390 0
M  V30 4 O 39.645121 27.865894 50.567987 0
M  V30 5 H 39.009011 29.904919 53.061830 0
M  V30 6 H 39.245135 28.162318 53.251351 0
M  V30 7 H 37.818768 28.770751 52.403087 0
M  V30 8 H 40.389670 30.890371 51.613761 0
M  V30 9 H 41.425684 29.894038 50.585648 0
M  V30 10 H 39.923980 30.565744 49.938056 0
M  V30 END ATOM
M  V30 BEGIN BOND
M  V30 1 1 2 1
M  V30 2 1 3 2
M  V30 3 2 4 2
M  V30 4 1 5 1
M  V30 5 1 6 1
M  V30 6 1 7 1
M  V30 7 1 8 3
M  V30 8 1 9 3
M  V30 9 1 10 3
M  V30 END BOND
M  V30 END CTAB
M  END
>  <i_epik_Tot_Q>  (1) 
0

>  <i_epik_Tot_abs_Q>  (1) 
0

>  <i_i_glide_confnum>  (1) 
1

>  <i_i_glide_lignum>  (1) 
21

>  <i_i_glide_posenum>  (1) 
10

>  <i_i_glide_rotatable_bonds>  (1) 
0

>  <i_lp_mmshare_version>  (1) 
72125

>  <i_m_source_file_index>  (1) 
21

>  <i_f3d_flags>  (1) 
0

>  <num_sample>  (1) 
50

>  <b_lp_Chiralities_Consistent>  (1) 
1

>  <r_epik_Charging_Adjusted_Penalty>  (1) 
0

>  <r_epik_Ionization_Penalty>  (1) 
8.9301752364709234e-13

>  <r_epik_Ionization_Penalty_Charging>  (1) 
0

>  <r_epik_Ionization_Penalty_Neutral>  (1) 
8.9301752364709234e-13

>  <r_epik_State_Penalty>  (1) 
-0

>  <r_glide_ring_energy>  (1) 
0

>  <r_i_docking_score>  (1) 
-3.9167486470392179

>  <r_i_glide_ecoul>  (1) 
0.43298072885089167

>  <r_i_glide_eff_state_penalty>  (1) 
-0

>  <r_i_glide_einternal>  (1) 
0

>  <r_i_glide_emodel>  (1) 
-15.125488830140823

>  <r_i_glide_emodel_strain>  (1) 
0.085476038031452872

>  <r_i_glide_energy>  (1) 
-12.050465350143046

>  <r_i_glide_erotb>  (1) 
0

>  <r_i_glide_esite>  (1) 
0

>  <r_i_glide_evdw>  (1) 
-12.483446078993937

>  <r_i_glide_gscore>  (1) 
-3.9167486470392179

>  <r_i_glide_gscore_strain>  (1) 
0

>  <r_i_glide_hbond>  (1) 
0

>  <r_i_glide_ligand_efficiency>  (1) 
-0.97918716175980447

>  <r_i_glide_ligand_efficiency_ln>  (1) 
-1.6413518427798166

>  <r_i_glide_ligand_efficiency_sa>  (1) 
-1.5543627306512691

>  <r_i_glide_lipo>  (1) 
-0.65752345241715449

>  <r_i_glide_metal>  (1) 
-0

>  <r_i_glide_rewards>  (1) 
-2.7000000000000002

>  <r_lp_Energy>  (1) 
-0.55031200000000002

>  <r_lp_tautomer_probability>  (1) 
1

>  <s_epik_cmdline>  (1) 
J2VwaWtfcHl0aG9uJywgJy1waHQnLCAnMS4wJywgJy1waCcsICc3LjQnLCAnLXRuJywgJzgnLCAnLW1hJywgJzUwMCcsICctaW1hZScsICc8aW5maWxlLm1hZT4nLCAnLW9tYWUnLCAnPG91dGZpbGUubWFlPic=

>  <s_epik_input>  (1) 
W0NIM11DKD1PKVtDSDNd

>  <s_glide_docking_method>  (1) 
confgen

>  <s_i_glide_gridfile>  (1) 
gpcr_5ht2c_6bqh_protein_autoprepared_prepared

>  <s_lp_Force_Field>  (1) 
S-OPLS

>  <s_lp_Variant>  (1) 
Pocket2Mol_20-1

>  <s_m_source_file>  (1) 
generated_GPCR_5HT2C_ligand_Pocket2Mol_2026-06-23_prepared.sdf

>  <GenAI_Model>  (1) 
Pocket2Mol

>  <Protein>  (1) 
GPCR_5HT2C

$$$$
Pocket2Mol_10
     RDKit          3D

  0  0  0  0  0  0  0  0  0  0999 V3000
M  V30 BEGIN CTAB
M  V30 COUNTS 14 14 0 0 1
M  V30 BEGIN ATOM
M  V30 1 C 35.951143 31.721886 60.521640 0
M  V30 2 O 36.817530 31.957211 61.626090 0
M  V30 3 C 37.763113 32.974612 61.317643 0
M  V30 4 C 35.202974 33.020071 60.167740 0
M  V30 5 O 36.148087 34.039641 59.868972 0
M  V30 6 C 37.017004 34.276334 60.967756 0
M  V30 7 H 36.519730 31.358628 59.663865 0
M  V30 8 H 35.245135 30.937769 60.792391 0
M  V30 9 H 38.413529 33.130218 62.178150 0
M  V30 10 H 38.399162 32.659030 60.489001 0
M  V30 11 H 34.561424 32.862851 59.300443 0
M  V30 12 H 34.558372 33.336336 60.989653 0
M  V30 13 H 36.444494 34.640843 61.821517 0
M  V30 14 H 37.725810 35.059662 60.698467 0
M  V30 END ATOM
M  V30 BEGIN BOND
M  V30 1 1 2 1
M  V30 2 1 3 2
M  V30 3 1 4 1
M  V30 4 1 5 4
M  V30 5 1 6 3
M  V30 6 1 6 5
M  V30 7 1 7 1
M  V30 8 1 8 1
M  V30 9 1 9 3
M  V30 10 1 10 3
M  V30 11 1 11 4
M  V30 12 1 12 4
M  V30 13 1 13 6
M  V30 14 1 14 6
M  V30 END BOND
M  V30 END CTAB
M  END
>  <i_epik_Tot_Q>  (1) 
0

>  <i_epik_Tot_abs_Q>  (1) 
0

>  <i_i_glide_confnum>  (1) 
2

>  <i_i_glide_lignum>  (1) 
11

>  <i_i_glide_posenum>  (1) 
43

>  <i_i_glide_rotatable_bonds>  (1) 
0

>  <i_lp_mmshare_version>  (1) 
72125

>  <i_m_source_file_index>  (1) 
11

>  <i_f3d_flags>  (1) 
0

>  <num_sample>  (1) 
50

>  <b_lp_Chiralities_Consistent>  (1) 
1

>  <r_epik_Charging_Adjusted_Penalty>  (1) 
0

>  <r_epik_Ionization_Penalty>  (1) 
8.3894707547109138e-13

>  <r_epik_Ionization_Penalty_Charging>  (1) 
0

>  <r_epik_Ionization_Penalty_Neutral>  (1) 
8.3894707547109138e-13

>  <r_epik_State_Penalty>  (1) 
-0

>  <r_glide_ring_energy>  (1) 
0.00013676017923054334

>  <r_i_docking_score>  (1) 
-3.869106408654309

>  <r_i_glide_ecoul>  (1) 
-1.6750015493447872

>  <r_i_glide_eff_state_penalty>  (1) 
-0

>  <r_i_glide_einternal>  (1) 
0

>  <r_i_glide_emodel>  (1) 
-16.621103551263687

>  <r_i_glide_emodel_strain>  (1) 
0

>  <r_i_glide_energy>  (1) 
-13.39565243709008

>  <r_i_glide_erotb>  (1) 
0

>  <r_i_glide_esite>  (1) 
0

>  <r_i_glide_evdw>  (1) 
-11.720650887745293

>  <r_i_glide_gscore>  (1) 
-3.869106408654309

>  <r_i_glide_gscore_strain>  (1) 
0

>  <r_i_glide_hbond>  (1) 
-0.32000000000000001

>  <r_i_glide_ligand_efficiency>  (1) 
-0.64485106810905146

>  <r_i_glide_ligand_efficiency_ln>  (1) 
-1.385902493141413

>  <r_i_glide_ligand_efficiency_sa>  (1) 
-1.1717721551707583

>  <r_i_glide_lipo>  (1) 
-0.30001056162572232

>  <r_i_glide_metal>  (1) 
-0

>  <r_i_glide_rewards>  (1) 
-2.4118130702396039

>  <r_lp_Energy>  (1) 
4.964817

>  <r_lp_tautomer_probability>  (1) 
1

>  <s_epik_cmdline>  (1) 
J2VwaWtfcHl0aG9uJywgJy1waHQnLCAnMS4wJywgJy1waCcsICc3LjQnLCAnLXRuJywgJzgnLCAnLW1hJywgJzUwMCcsICctaW1hZScsICc8aW5maWxlLm1hZT4nLCAnLW9tYWUnLCAnPG91dGZpbGUubWFlPic=

>  <s_epik_input>  (1) 
W0NIMl0xT1tDSDJdW0NIMl1PW0NIMl0x

>  <s_glide_docking_method>  (1) 
confgen

>  <s_i_glide_gridfile>  (1) 
gpcr_5ht2c_6bqh_protein_autoprepared_prepared

>  <s_lp_Force_Field>  (1) 
S-OPLS

>  <s_lp_Variant>  (1) 
Pocket2Mol_10-1

>  <s_m_source_file>  (1) 
generated_GPCR_5HT2C_ligand_Pocket2Mol_2026-06-23_prepared.sdf

>  <GenAI_Model>  (1) 
Pocket2Mol

>  <Protein>  (1) 
GPCR_5HT2C

$$$$
Pocket2Mol_20
     RDKit          3D

  0  0  0  0  0  0  0  0  0  0999 V3000
M  V30 BEGIN CTAB
M  V30 COUNTS 10 9 0 0 1
M  V30 BEGIN ATOM
M  V30 1 C 36.586960 33.983019 60.936517 0
M  V30 2 C 35.667392 32.784085 60.749144 0
M  V30 3 C 34.515739 32.937754 59.767579 0
M  V30 4 O 35.846912 31.736434 61.367736 0
M  V30 5 H 36.782143 34.466910 59.979401 0
M  V30 6 H 37.538824 33.669481 61.365494 0
M  V30 7 H 36.126033 34.708125 61.606885 0
M  V30 8 H 34.799038 33.595959 58.946310 0
M  V30 9 H 34.245382 31.969397 59.346528 0
M  V30 10 H 33.642836 33.358091 60.265254 0
M  V30 END ATOM
M  V30 BEGIN BOND
M  V30 1 1 2 1
M  V30 2 1 3 2
M  V30 3 2 4 2
M  V30 4 1 5 1
M  V30 5 1 6 1
M  V30 6 1 7 1
M  V30 7 1 8 3
M  V30 8 1 9 3
M  V30 9 1 10 3
M  V30 END BOND
M  V30 END CTAB
M  END
>  <i_epik_Tot_Q>  (1) 
0

>  <i_epik_Tot_abs_Q>  (1) 
0

>  <i_i_glide_confnum>  (1) 
1

>  <i_i_glide_lignum>  (1) 
21

>  <i_i_glide_posenum>  (1) 
263

>  <i_i_glide_rotatable_bonds>  (1) 
0

>  <i_lp_mmshare_version>  (1) 
72125

>  <i_m_source_file_index>  (1) 
21

>  <i_f3d_flags>  (1) 
0

>  <num_sample>  (1) 
50

>  <b_lp_Chiralities_Consistent>  (1) 
1

>  <r_epik_Charging_Adjusted_Penalty>  (1) 
0

>  <r_epik_Ionization_Penalty>  (1) 
8.9301752364709234e-13

>  <r_epik_Ionization_Penalty_Charging>  (1) 
0

>  <r_epik_Ionization_Penalty_Neutral>  (1) 
8.9301752364709234e-13

>  <r_epik_State_Penalty>  (1) 
-0

>  <r_glide_ring_energy>  (1) 
0

>  <r_i_docking_score>  (1) 
-3.8654184704330645

>  <r_i_glide_ecoul>  (1) 
-3.0141154133242871

>  <r_i_glide_eff_state_penalty>  (1) 
-0

>  <r_i_glide_einternal>  (1) 
0

>  <r_i_glide_emodel>  (1) 
-15.633385070569636

>  <r_i_glide_emodel_strain>  (1) 
0.0061231783381148763

>  <r_i_glide_energy>  (1) 
-12.520428033734918

>  <r_i_glide_erotb>  (1) 
0

>  <r_i_glide_esite>  (1) 
0

>  <r_i_glide_evdw>  (1) 
-9.5063126204106307

>  <r_i_glide_gscore>  (1) 
-3.8654184704330645

>  <r_i_glide_gscore_strain>  (1) 
0

>  <r_i_glide_hbond>  (1) 
-0.32000000000000001

>  <r_i_glide_ligand_efficiency>  (1) 
-0.96635461760826613

>  <r_i_glide_ligand_efficiency_ln>  (1) 
-1.6198414300484787

>  <r_i_glide_ligand_efficiency_sa>  (1) 
-1.5339923365656887

>  <r_i_glide_lipo>  (1) 
-0.28987348969089016

>  <r_i_glide_metal>  (1) 
-0

>  <r_i_glide_rewards>  (1) 
-2.3281120377229998

>  <r_lp_Energy>  (1) 
-0.55031200000000002

>  <r_lp_tautomer_probability>  (1) 
1

>  <s_epik_cmdline>  (1) 
J2VwaWtfcHl0aG9uJywgJy1waHQnLCAnMS4wJywgJy1waCcsICc3LjQnLCAnLXRuJywgJzgnLCAnLW1hJywgJzUwMCcsICctaW1hZScsICc8aW5maWxlLm1hZT4nLCAnLW9tYWUnLCAnPG91dGZpbGUubWFlPic=

>  <s_epik_input>  (1) 
W0NIM11DKD1PKVtDSDNd

>  <s_glide_docking_method>  (1) 
confgen

>  <s_i_glide_gridfile>  (1) 
gpcr_5ht2c_6bqh_protein_autoprepared_prepared

>  <s_lp_Force_Field>  (1) 
S-OPLS

>  <s_lp_Variant>  (1) 
Pocket2Mol_20-1

>  <s_m_source_file>  (1) 
generated_GPCR_5HT2C_ligand_Pocket2Mol_2026-06-23_prepared.sdf

>  <GenAI_Model>  (1) 
Pocket2Mol

>  <Protein>  (1) 
GPCR_5HT2C

$$$$
Pocket2Mol_24
     RDKit          3D

  0  0  0  0  0  0  0  0  0  0999 V3000
M  V30 BEGIN CTAB
M  V30 COUNTS 16 16 0 0 1
M  V30 BEGIN ATOM
M  V30 1 C 37.874864 29.766210 54.490545 0
M  V30 2 C 37.617776 31.195044 54.726077 0
M  V30 3 C 38.045137 29.036777 55.538525 0
M  V30 4 C 37.958986 29.726615 56.835343 0
M  V30 5 N 37.645135 31.120796 56.263414 0 CHG=1
M  V30 6 C 38.448910 32.198544 56.875086 0
M  V30 7 H 37.914426 29.377098 53.482603 0
M  V30 8 H 38.407026 31.819329 54.302443 0
M  V30 9 H 36.639822 31.502646 54.356626 0
M  V30 10 H 38.242004 27.975040 55.497412 0
M  V30 11 H 37.144094 29.345138 57.452770 0
M  V30 12 H 38.910031 29.680430 57.369192 0
M  V30 13 H 39.506193 32.077719 56.635864 0
M  V30 14 H 38.118332 33.173093 56.511625 0
M  V30 15 H 38.337154 32.193637 57.959746 0
M  V30 16 H 36.675601 31.337004 56.556785 0
M  V30 END ATOM
M  V30 BEGIN BOND
M  V30 1 1 2 1
M  V30 2 2 3 1
M  V30 3 1 4 3
M  V30 4 1 5 2
M  V30 5 1 5 4
M  V30 6 1 6 5
M  V30 7 1 7 1
M  V30 8 1 8 2
M  V30 9 1 9 2
M  V30 10 1 10 3
M  V30 11 1 11 4
M  V30 12 1 12 4
M  V30 13 1 13 6
M  V30 14 1 14 6
M  V30 15 1 15 6
M  V30 16 1 16 5
M  V30 END BOND
M  V30 END CTAB
M  END
>  <i_epik_Tot_Q>  (1) 
1

>  <i_epik_Tot_abs_Q>  (1) 
1

>  <i_i_glide_confnum>  (1) 
1

>  <i_i_glide_lignum>  (1) 
25

>  <i_i_glide_posenum>  (1) 
232

>  <i_i_glide_rotatable_bonds>  (1) 
0

>  <i_lp_mmshare_version>  (1) 
72125

>  <i_m_source_file_index>  (1) 
25

>  <i_f3d_flags>  (1) 
0

>  <num_sample>  (1) 
50

>  <b_lp_Chiralities_Consistent>  (1) 
1

>  <r_epik_Charging_Adjusted_Penalty>  (1) 
0.0014863909170882658

>  <r_epik_Ionization_Penalty>  (1) 
0.0014863909170882658

>  <r_epik_Ionization_Penalty_Charging>  (1) 
0.0014863909170882658

>  <r_epik_Ionization_Penalty_Neutral>  (1) 
0

>  <r_epik_State_Penalty>  (1) 
-0

>  <r_glide_ring_energy>  (1) 
0

>  <r_i_docking_score>  (1) 
-3.8113241234814144

>  <r_i_glide_ecoul>  (1) 
-5.427007253838978

>  <r_i_glide_eff_state_penalty>  (1) 
-0

>  <r_i_glide_einternal>  (1) 
0

>  <r_i_glide_emodel>  (1) 
-19.188429867062112

>  <r_i_glide_emodel_strain>  (1) 
0

>  <r_i_glide_energy>  (1) 
-13.394354315771228

>  <r_i_glide_erotb>  (1) 
0

>  <r_i_glide_esite>  (1) 
-0.10000000000000001

>  <r_i_glide_evdw>  (1) 
-7.9673470619322506

>  <r_i_glide_gscore>  (1) 
-3.8113241234814144

>  <r_i_glide_gscore_strain>  (1) 
0

>  <r_i_glide_hbond>  (1) 
-0.16226328559270958

>  <r_i_glide_ligand_efficiency>  (1) 
-0.63522068724690239

>  <r_i_glide_ligand_efficiency_ln>  (1) 
-1.3652050491782795

>  <r_i_glide_ligand_efficiency_sa>  (1) 
-1.1542725917893306

>  <r_i_glide_lipo>  (1) 
-0.086642396716245379

>  <r_i_glide_metal>  (1) 
-0

>  <r_i_glide_rewards>  (1) 
-2.25

>  <r_lp_Energy>  (1) 
6.8415840000000001

>  <r_lp_tautomer_probability>  (1) 
1

>  <s_epik_cmdline>  (1) 
J2VwaWtfcHl0aG9uJywgJy1waHQnLCAnMS4wJywgJy1waCcsICc3LjQnLCAnLXRuJywgJzgnLCAnLW1hJywgJzUwMCcsICctaW1hZScsICc8aW5maWxlLm1hZT4nLCAnLW9tYWUnLCAnPG91dGZpbGUubWFlPic=

>  <s_epik_input>  (1) 
W0NIMl0xW0NIXT1bQ0hdW0NIMl1OMVtDSDNd

>  <s_glide_docking_method>  (1) 
confgen

>  <s_i_glide_gridfile>  (1) 
gpcr_5ht2c_6bqh_protein_autoprepared_prepared

>  <s_lp_Force_Field>  (1) 
S-OPLS

>  <s_lp_Variant>  (1) 
Pocket2Mol_24-1

>  <s_m_source_file>  (1) 
generated_GPCR_5HT2C_ligand_Pocket2Mol_2026-06-23_prepared.sdf

>  <GenAI_Model>  (1) 
Pocket2Mol

>  <Protein>  (1) 
GPCR_5HT2C

$$$$
Pocket2Mol_20
     RDKit          3D

  0  0  0  0  0  0  0  0  0  0999 V3000
M  V30 BEGIN CTAB
M  V30 COUNTS 10 9 0 0 1
M  V30 BEGIN ATOM
M  V30 1 C 37.245186 32.584469 59.576718 0
M  V30 2 C 35.938063 32.406380 60.336711 0
M  V30 3 C 34.703506 33.091181 59.767760 0
M  V30 4 O 35.882344 31.737752 61.367760 0
M  V30 5 H 37.144187 32.188370 58.566198 0
M  V30 6 H 38.055834 32.055305 60.077348 0
M  V30 7 H 37.505427 33.640765 59.511193 0
M  V30 8 H 34.204882 32.432389 59.056315 0
M  V30 9 H 34.002950 33.338113 60.564692 0
M  V30 10 H 34.978433 34.010246 59.250083 0
M  V30 END ATOM
M  V30 BEGIN BOND
M  V30 1 1 2 1
M  V30 2 1 3 2
M  V30 3 2 4 2
M  V30 4 1 5 1
M  V30 5 1 6 1
M  V30 6 1 7 1
M  V30 7 1 8 3
M  V30 8 1 9 3
M  V30 9 1 10 3
M  V30 END BOND
M  V30 END CTAB
M  END
>  <i_epik_Tot_Q>  (1) 
0

>  <i_epik_Tot_abs_Q>  (1) 
0

>  <i_i_glide_confnum>  (1) 
1

>  <i_i_glide_lignum>  (1) 
21

>  <i_i_glide_posenum>  (1) 
282

>  <i_i_glide_rotatable_bonds>  (1) 
0

>  <i_lp_mmshare_version>  (1) 
72125

>  <i_m_source_file_index>  (1) 
21

>  <i_f3d_flags>  (1) 
0

>  <num_sample>  (1) 
50

>  <b_lp_Chiralities_Consistent>  (1) 
1

>  <r_epik_Charging_Adjusted_Penalty>  (1) 
0

>  <r_epik_Ionization_Penalty>  (1) 
8.9301752364709234e-13

>  <r_epik_Ionization_Penalty_Charging>  (1) 
0

>  <r_epik_Ionization_Penalty_Neutral>  (1) 
8.9301752364709234e-13

>  <r_epik_State_Penalty>  (1) 
-0

>  <r_glide_ring_energy>  (1) 
0

>  <r_i_docking_score>  (1) 
-3.7802790669421218

>  <r_i_glide_ecoul>  (1) 
-3.4430203911504251

>  <r_i_glide_eff_state_penalty>  (1) 
-0

>  <r_i_glide_einternal>  (1) 
0

>  <r_i_glide_emodel>  (1) 
-15.448359096422674

>  <r_i_glide_emodel_strain>  (1) 
0.0019805830099070554

>  <r_i_glide_energy>  (1) 
-12.399960079986474

>  <r_i_glide_erotb>  (1) 
0

>  <r_i_glide_esite>  (1) 
-0.051219725664948847

>  <r_i_glide_evdw>  (1) 
-8.9569396888360497

>  <r_i_glide_gscore>  (1) 
-3.7802790669421218

>  <r_i_glide_gscore_strain>  (1) 
0

>  <r_i_glide_hbond>  (1) 
-0.32000000000000001

>  <r_i_glide_ligand_efficiency>  (1) 
-0.94506976673553045

>  <r_i_glide_ligand_efficiency_ln>  (1) 
-1.5841629299949536

>  <r_i_glide_ligand_efficiency_sa>  (1) 
-1.5002047418993218

>  <r_i_glide_lipo>  (1) 
-0.1947592981628066

>  <r_i_glide_metal>  (1) 
-0

>  <r_i_glide_rewards>  (1) 
-2.25

>  <r_lp_Energy>  (1) 
-0.55031200000000002

>  <r_lp_tautomer_probability>  (1) 
1

>  <s_epik_cmdline>  (1) 
J2VwaWtfcHl0aG9uJywgJy1waHQnLCAnMS4wJywgJy1waCcsICc3LjQnLCAnLXRuJywgJzgnLCAnLW1hJywgJzUwMCcsICctaW1hZScsICc8aW5maWxlLm1hZT4nLCAnLW9tYWUnLCAnPG91dGZpbGUubWFlPic=

>  <s_epik_input>  (1) 
W0NIM11DKD1PKVtDSDNd

>  <s_glide_docking_method>  (1) 
confgen

>  <s_i_glide_gridfile>  (1) 
gpcr_5ht2c_6bqh_protein_autoprepared_prepared

>  <s_lp_Force_Field>  (1) 
S-OPLS

>  <s_lp_Variant>  (1) 
Pocket2Mol_20-1

>  <s_m_source_file>  (1) 
generated_GPCR_5HT2C_ligand_Pocket2Mol_2026-06-23_prepared.sdf

>  <GenAI_Model>  (1) 
Pocket2Mol

>  <Protein>  (1) 
GPCR_5HT2C

$$$$
Pocket2Mol_40
     RDKit          3D

  0  0  0  0  0  0  0  0  0  0999 V3000
M  V30 BEGIN CTAB
M  V30 COUNTS 10 9 0 0 1
M  V30 BEGIN ATOM
M  V30 1 C 34.856733 33.737745 59.370477 0
M  V30 2 O 36.111128 33.461307 59.964312 0
M  V30 3 C 36.207520 32.448369 60.849426 0
M  V30 4 C 37.667213 32.267995 61.347604 0
M  V30 5 O 35.272871 31.738937 61.233435 0
M  V30 6 O 38.511020 33.068385 60.880058 0
M  V30 7 O 37.844364 31.338960 62.167759 0 CHG=-1
M  V30 8 H 34.968739 34.466685 58.568011 0
M  V30 9 H 34.164454 34.137738 60.109488 0
M  V30 10 H 34.415535 32.831131 58.956123 0
M  V30 END ATOM
M  V30 BEGIN BOND
M  V30 1 1 2 1
M  V30 2 1 3 2
M  V30 3 1 4 3
M  V30 4 2 5 3
M  V30 5 2 6 4
M  V30 6 1 7 4
M  V30 7 1 8 1
M  V30 8 1 9 1
M  V30 9 1 10 1
M  V30 END BOND
M  V30 END CTAB
M  END
>  <i_epik_Tot_Q>  (1) 
-1

>  <i_epik_Tot_abs_Q>  (1) 
1

>  <i_i_glide_confnum>  (1) 
1

>  <i_i_glide_lignum>  (1) 
41

>  <i_i_glide_posenum>  (1) 
183

>  <i_i_glide_rotatable_bonds>  (1) 
2

>  <i_lp_mmshare_version>  (1) 
72125

>  <i_m_source_file_index>  (1) 
41

>  <i_f3d_flags>  (1) 
0

>  <num_sample>  (1) 
50

>  <b_lp_Chiralities_Consistent>  (1) 
1

>  <r_epik_Charging_Adjusted_Penalty>  (1) 
5.6581681309968728e-06

>  <r_epik_Ionization_Penalty>  (1) 
5.6581681309968728e-06

>  <r_epik_Ionization_Penalty_Charging>  (1) 
5.6581681309968728e-06

>  <r_epik_Ionization_Penalty_Neutral>  (1) 
0

>  <r_epik_State_Penalty>  (1) 
-0

>  <r_glide_ring_energy>  (1) 
0

>  <r_i_docking_score>  (1) 
-3.7664967721030584

>  <r_i_glide_ecoul>  (1) 
-3.1143731848555043

>  <r_i_glide_eff_state_penalty>  (1) 
-0

>  <r_i_glide_einternal>  (1) 
0.013196296126358309

>  <r_i_glide_emodel>  (1) 
-18.165179730709117

>  <r_i_glide_emodel_strain>  (1) 
0

>  <r_i_glide_energy>  (1) 
-14.24930548475122

>  <r_i_glide_erotb>  (1) 
0

>  <r_i_glide_esite>  (1) 
-0.019470430362168716

>  <r_i_glide_evdw>  (1) 
-11.134932299895716

>  <r_i_glide_gscore>  (1) 
-3.7664967721030584

>  <r_i_glide_gscore_strain>  (1) 
0

>  <r_i_glide_hbond>  (1) 
-0.27693165670343461

>  <r_i_glide_ligand_efficiency>  (1) 
-0.53807096744329408

>  <r_i_glide_ligand_efficiency_ln>  (1) 
-1.2785511375188712

>  <r_i_glide_ligand_efficiency_sa>  (1) 
-1.0292927321667842

>  <r_i_glide_lipo>  (1) 
-0.0042299062947684252

>  <r_i_glide_metal>  (1) 
-0

>  <r_i_glide_rewards>  (1) 
-2.4419621860195755

>  <r_lp_Energy>  (1) 
21.029133999999999

>  <r_lp_tautomer_probability>  (1) 
1

>  <s_epik_Chemistry_Notes>  (1) 
This compound has an ester and may undergo hydrolysis at high or low pH.

>  <s_epik_cmdline>  (1) 
J2VwaWtfcHl0aG9uJywgJy1waHQnLCAnMS4wJywgJy1waCcsICc3LjQnLCAnLXRuJywgJzgnLCAnLW1hJywgJzUwMCcsICctaW1hZScsICc8aW5maWxlLm1hZT4nLCAnLW9tYWUnLCAnPG91dGZpbGUubWFlPic=

>  <s_epik_input>  (1) 
W0NIM11PQyg9TylDKD1PKVtPSF0=

>  <s_glide_docking_method>  (1) 
confgen

>  <s_i_glide_gridfile>  (1) 
gpcr_5ht2c_6bqh_protein_autoprepared_prepared

>  <s_lp_Force_Field>  (1) 
S-OPLS

>  <s_lp_Variant>  (1) 
Pocket2Mol_40-1

>  <s_m_source_file>  (1) 
generated_GPCR_5HT2C_ligand_Pocket2Mol_2026-06-23_prepared.sdf

>  <GenAI_Model>  (1) 
Pocket2Mol

>  <Protein>  (1) 
GPCR_5HT2C

$$$$
Pocket2Mol_42
     RDKit          3D

  0  0  0  0  0  0  0  0  0  0999 V3000
M  V30 BEGIN CTAB
M  V30 COUNTS 10 9 0 0 1
M  V30 BEGIN ATOM
M  V30 1 C 36.688567 30.930372 59.938625 0
M  V30 2 O 35.799829 31.580634 60.789223 0
M  V30 3 C 35.050891 32.605931 60.150231 0
M  V30 4 O 36.045121 30.137836 58.967760 0
M  V30 5 H 37.308242 30.264178 60.538869 0
M  V30 6 H 37.339997 31.640521 59.425692 0
M  V30 7 H 34.445184 33.129985 60.889077 0
M  V30 8 H 35.702377 33.341567 59.676706 0
M  V30 9 H 34.378920 32.198932 59.393159 0
M  V30 10 H 35.710043 30.722988 58.285672 0
M  V30 END ATOM
M  V30 BEGIN BOND
M  V30 1 1 2 1
M  V30 2 1 3 2
M  V30 3 1 4 1
M  V30 4 1 5 1
M  V30 5 1 6 1
M  V30 6 1 7 3
M  V30 7 1 8 3
M  V30 8 1 9 3
M  V30 9 1 10 4
M  V30 END BOND
M  V30 END CTAB
M  END
>  <i_epik_Tot_Q>  (1) 
0

>  <i_epik_Tot_abs_Q>  (1) 
0

>  <i_i_glide_confnum>  (1) 
1

>  <i_i_glide_lignum>  (1) 
43

>  <i_i_glide_posenum>  (1) 
99

>  <i_i_glide_rotatable_bonds>  (1) 
2

>  <i_lp_mmshare_version>  (1) 
72125

>  <i_m_source_file_index>  (1) 
43

>  <i_f3d_flags>  (1) 
0

>  <num_sample>  (1) 
50

>  <b_lp_Chiralities_Consistent>  (1) 
1

>  <r_epik_Charging_Adjusted_Penalty>  (1) 
0

>  <r_epik_Ionization_Penalty>  (1) 
1.028953084229311e-06

>  <r_epik_Ionization_Penalty_Charging>  (1) 
0

>  <r_epik_Ionization_Penalty_Neutral>  (1) 
1.028953084229311e-06

>  <r_epik_State_Penalty>  (1) 
-0

>  <r_glide_ring_energy>  (1) 
0

>  <r_i_docking_score>  (1) 
-3.7501834778535441

>  <r_i_glide_ecoul>  (1) 
-5.673560972201189

>  <r_i_glide_eff_state_penalty>  (1) 
-0

>  <r_i_glide_einternal>  (1) 
0.13519170971215155

>  <r_i_glide_emodel>  (1) 
-17.174879397218362

>  <r_i_glide_emodel_strain>  (1) 
0

>  <r_i_glide_energy>  (1) 
-13.151276290491113

>  <r_i_glide_erotb>  (1) 
0

>  <r_i_glide_esite>  (1) 
-0.063090381102100634

>  <r_i_glide_evdw>  (1) 
-7.4777153182899241

>  <r_i_glide_gscore>  (1) 
-3.7501834778535441

>  <r_i_glide_gscore_strain>  (1) 
0

>  <r_i_glide_hbond>  (1) 
-0.21217318500676924

>  <r_i_glide_ligand_efficiency>  (1) 
-0.93754586946338603

>  <r_i_glide_ligand_efficiency_ln>  (1) 
-1.5715510789262304

>  <r_i_glide_ligand_efficiency_sa>  (1) 
-1.4882612994546192

>  <r_i_glide_lipo>  (1) 
0

>  <r_i_glide_metal>  (1) 
-0

>  <r_i_glide_rewards>  (1) 
-2.25

>  <r_lp_Energy>  (1) 
5.5414079999999997

>  <r_lp_tautomer_probability>  (1) 
1

>  <s_epik_Chemistry_Notes>  (1) 
This compound contains an acetal/aminal-like group ( X-CH(R)-Y where X, Y are N, S, or O) that may be acid/base labile, releasing an aldehyde.

>  <s_epik_cmdline>  (1) 
J2VwaWtfcHl0aG9uJywgJy1waHQnLCAnMS4wJywgJy1waCcsICc3LjQnLCAnLXRuJywgJzgnLCAnLW1hJywgJzUwMCcsICctaW1hZScsICc8aW5maWxlLm1hZT4nLCAnLW9tYWUnLCAnPG91dGZpbGUubWFlPic=

>  <s_epik_input>  (1) 
W09IXVtDSDJdT1tDSDNd

>  <s_glide_docking_method>  (1) 
confgen

>  <s_i_glide_gridfile>  (1) 
gpcr_5ht2c_6bqh_protein_autoprepared_prepared

>  <s_lp_Force_Field>  (1) 
S-OPLS

>  <s_lp_Variant>  (1) 
Pocket2Mol_42-1

>  <s_m_source_file>  (1) 
generated_GPCR_5HT2C_ligand_Pocket2Mol_2026-06-23_prepared.sdf

>  <GenAI_Model>  (1) 
Pocket2Mol

>  <Protein>  (1) 
GPCR_5HT2C

$$$$
Pocket2Mol_9
     RDKit          3D

  0  0  0  0  0  0  0  0  0  0999 V3000
M  V30 BEGIN CTAB
M  V30 COUNTS 7 6 0 0 1
M  V30 BEGIN ATOM
M  V30 1 C 44.232544 43.848966 64.105944 0
M  V30 2 C 43.714073 43.770528 65.535777 0
M  V30 3 O 42.811143 42.937894 65.765953 0
M  V30 4 O 44.231706 44.540790 66.373646 0 CHG=-1
M  V30 5 H 45.016022 44.601081 64.013293 0
M  V30 6 H 43.421076 44.110707 63.426822 0
M  V30 7 H 44.641766 42.885576 63.801553 0
M  V30 END ATOM
M  V30 BEGIN BOND
M  V30 1 1 2 1
M  V30 2 2 3 2
M  V30 3 1 4 2
M  V30 4 1 5 1
M  V30 5 1 6 1
M  V30 6 1 7 1
M  V30 END BOND
M  V30 END CTAB
M  END
>  <i_epik_Tot_Q>  (1) 
-1

>  <i_epik_Tot_abs_Q>  (1) 
1

>  <i_i_glide_confnum>  (1) 
1

>  <i_i_glide_lignum>  (1) 
10

>  <i_i_glide_posenum>  (1) 
151

>  <i_i_glide_rotatable_bonds>  (1) 
0

>  <i_lp_mmshare_version>  (1) 
72125

>  <i_m_source_file_index>  (1) 
10

>  <i_f3d_flags>  (1) 
0

>  <num_sample>  (1) 
50

>  <b_lp_Chiralities_Consistent>  (1) 
1

>  <r_epik_Charging_Adjusted_Penalty>  (1) 
0.001592553815962749

>  <r_epik_Ionization_Penalty>  (1) 
0.001592553815962749

>  <r_epik_Ionization_Penalty_Charging>  (1) 
0.001592553815962749

>  <r_epik_Ionization_Penalty_Neutral>  (1) 
0

>  <r_epik_State_Penalty>  (1) 
-0

>  <r_glide_ring_energy>  (1) 
0

>  <r_i_docking_score>  (1) 
-3.7271628293037349

>  <r_i_glide_ecoul>  (1) 
-6.3317679215406208

>  <r_i_glide_eff_state_penalty>  (1) 
-0

>  <r_i_glide_einternal>  (1) 
0

>  <r_i_glide_emodel>  (1) 
-13.425395255675207

>  <r_i_glide_emodel_strain>  (1) 
0

>  <r_i_glide_energy>  (1) 
-9.8310566278893372

>  <r_i_glide_erotb>  (1) 
0

>  <r_i_glide_esite>  (1) 
0

>  <r_i_glide_evdw>  (1) 
-3.4992887063487159

>  <r_i_glide_gscore>  (1) 
-3.7271628293037349

>  <r_i_glide_gscore_strain>  (1) 
0

>  <r_i_glide_hbond>  (1) 
-0.16

>  <r_i_glide_ligand_efficiency>  (1) 
-0.93179070732593372

>  <r_i_glide_ligand_efficiency_ln>  (1) 
-1.5619040509128861

>  <r_i_glide_ligand_efficiency_sa>  (1) 
-1.4791255490233799

>  <r_i_glide_lipo>  (1) 
-0.1645229742724828

>  <r_i_glide_metal>  (1) 
-0

>  <r_i_glide_rewards>  (1) 
-2.2779102314827231

>  <r_lp_Energy>  (1) 
-0.48114599999999996

>  <r_lp_tautomer_probability>  (1) 
1

>  <s_epik_cmdline>  (1) 
J2VwaWtfcHl0aG9uJywgJy1waHQnLCAnMS4wJywgJy1waCcsICc3LjQnLCAnLXRuJywgJzgnLCAnLW1hJywgJzUwMCcsICctaW1hZScsICc8aW5maWxlLm1hZT4nLCAnLW9tYWUnLCAnPG91dGZpbGUubWFlPic=

>  <s_epik_input>  (1) 
W0NIM11DKD1PKVtPSF0=

>  <s_glide_docking_method>  (1) 
confgen

>  <s_i_glide_gridfile>  (1) 
gpcr_5ht2c_6bqh_protein_autoprepared_prepared

>  <s_lp_Force_Field>  (1) 
S-OPLS

>  <s_lp_Variant>  (1) 
Pocket2Mol_9-1

>  <s_m_source_file>  (1) 
generated_GPCR_5HT2C_ligand_Pocket2Mol_2026-06-23_prepared.sdf

>  <GenAI_Model>  (1) 
Pocket2Mol

>  <Protein>  (1) 
GPCR_5HT2C

$$$$
Pocket2Mol_10
     RDKit          3D

  0  0  0  0  0  0  0  0  0  0999 V3000
M  V30 BEGIN CTAB
M  V30 COUNTS 14 14 0 0 1
M  V30 BEGIN ATOM
M  V30 1 C 35.645138 32.100176 60.115097 0
M  V30 2 O 36.213750 31.737754 61.367759 0
M  V30 3 C 37.632651 31.841702 61.335782 0
M  V30 4 C 36.045028 33.545713 59.767577 0
M  V30 5 O 37.464075 33.649035 59.742712 0
M  V30 6 C 38.029590 33.289635 60.995381 0
M  V30 7 H 35.981428 31.408803 59.341585 0
M  V30 8 H 34.560220 32.013378 60.167760 0
M  V30 9 H 38.032635 31.558112 62.309555 0
M  V30 10 H 38.044457 31.144517 60.604343 0
M  V30 11 H 35.650733 33.821485 58.789016 0
M  V30 12 H 35.628646 34.247656 60.491556 0
M  V30 13 H 37.689309 33.979823 61.767760 0
M  V30 14 H 39.114173 33.382224 60.936091 0
M  V30 END ATOM
M  V30 BEGIN BOND
M  V30 1 1 2 1
M  V30 2 1 3 2
M  V30 3 1 4 1
M  V30 4 1 5 4
M  V30 5 1 6 3
M  V30 6 1 6 5
M  V30 7 1 7 1
M  V30 8 1 8 1
M  V30 9 1 9 3
M  V30 10 1 10 3
M  V30 11 1 11 4
M  V30 12 1 12 4
M  V30 13 1 13 6
M  V30 14 1 14 6
M  V30 END BOND
M  V30 END CTAB
M  END
>  <i_epik_Tot_Q>  (1) 
0

>  <i_epik_Tot_abs_Q>  (1) 
0

>  <i_i_glide_confnum>  (1) 
2

>  <i_i_glide_lignum>  (1) 
11

>  <i_i_glide_posenum>  (1) 
87

>  <i_i_glide_rotatable_bonds>  (1) 
0

>  <i_lp_mmshare_version>  (1) 
72125

>  <i_m_source_file_index>  (1) 
11

>  <i_f3d_flags>  (1) 
0

>  <num_sample>  (1) 
50

>  <b_lp_Chiralities_Consistent>  (1) 
1

>  <r_epik_Charging_Adjusted_Penalty>  (1) 
0

>  <r_epik_Ionization_Penalty>  (1) 
8.3894707547109138e-13

>  <r_epik_Ionization_Penalty_Charging>  (1) 
0

>  <r_epik_Ionization_Penalty_Neutral>  (1) 
8.3894707547109138e-13

>  <r_epik_State_Penalty>  (1) 
-0

>  <r_glide_ring_energy>  (1) 
0.00013676017923054334

>  <r_i_docking_score>  (1) 
-3.6931520356163903

>  <r_i_glide_ecoul>  (1) 
-2.1666464983458553

>  <r_i_glide_eff_state_penalty>  (1) 
-0

>  <r_i_glide_einternal>  (1) 
0

>  <r_i_glide_emodel>  (1) 
-16.336980688879304

>  <r_i_glide_emodel_strain>  (1) 
0

>  <r_i_glide_energy>  (1) 
-13.258212598798659

>  <r_i_glide_erotb>  (1) 
0

>  <r_i_glide_esite>  (1) 
0

>  <r_i_glide_evdw>  (1) 
-11.091566100452804

>  <r_i_glide_gscore>  (1) 
-3.6931520356163903

>  <r_i_glide_gscore_strain>  (1) 
0

>  <r_i_glide_hbond>  (1) 
-0.32000000000000001

>  <r_i_glide_ligand_efficiency>  (1) 
-0.61552533926939834

>  <r_i_glide_ligand_efficiency_ln>  (1) 
-1.3228761561745783

>  <r_i_glide_ligand_efficiency_sa>  (1) 
-1.1184837693964131

>  <r_i_glide_lipo>  (1) 
-0.19056402786347834

>  <r_i_glide_metal>  (1) 
-0

>  <r_i_glide_rewards>  (1) 
-2.3030127279783934

>  <r_lp_Energy>  (1) 
4.964817

>  <r_lp_tautomer_probability>  (1) 
1

>  <s_epik_cmdline>  (1) 
J2VwaWtfcHl0aG9uJywgJy1waHQnLCAnMS4wJywgJy1waCcsICc3LjQnLCAnLXRuJywgJzgnLCAnLW1hJywgJzUwMCcsICctaW1hZScsICc8aW5maWxlLm1hZT4nLCAnLW9tYWUnLCAnPG91dGZpbGUubWFlPic=

>  <s_epik_input>  (1) 
W0NIMl0xT1tDSDJdW0NIMl1PW0NIMl0x

>  <s_glide_docking_method>  (1) 
confgen

>  <s_i_glide_gridfile>  (1) 
gpcr_5ht2c_6bqh_protein_autoprepared_prepared

>  <s_lp_Force_Field>  (1) 
S-OPLS

>  <s_lp_Variant>  (1) 
Pocket2Mol_10-1

>  <s_m_source_file>  (1) 
generated_GPCR_5HT2C_ligand_Pocket2Mol_2026-06-23_prepared.sdf

>  <GenAI_Model>  (1) 
Pocket2Mol

>  <Protein>  (1) 
GPCR_5HT2C

$$$$
Pocket2Mol_9
     RDKit          3D

  0  0  0  0  0  0  0  0  0  0999 V3000
M  V30 BEGIN CTAB
M  V30 COUNTS 7 6 0 0 1
M  V30 BEGIN ATOM
M  V30 1 C 37.111743 32.979002 59.767758 0
M  V30 2 C 37.671475 32.201348 60.951425 0
M  V30 3 O 36.845137 31.737753 61.767760 0
M  V30 4 O 38.914882 32.085183 61.019520 0 CHG=-1
M  V30 5 H 37.911641 33.337413 59.119069 0
M  V30 6 H 36.539705 33.837942 60.117812 0
M  V30 7 H 36.452235 32.342959 59.176356 0
M  V30 END ATOM
M  V30 BEGIN BOND
M  V30 1 1 2 1
M  V30 2 2 3 2
M  V30 3 1 4 2
M  V30 4 1 5 1
M  V30 5 1 6 1
M  V30 6 1 7 1
M  V30 END BOND
M  V30 END CTAB
M  END
>  <i_epik_Tot_Q>  (1) 
-1

>  <i_epik_Tot_abs_Q>  (1) 
1

>  <i_i_glide_confnum>  (1) 
1

>  <i_i_glide_lignum>  (1) 
10

>  <i_i_glide_posenum>  (1) 
279

>  <i_i_glide_rotatable_bonds>  (1) 
0

>  <i_lp_mmshare_version>  (1) 
72125

>  <i_m_source_file_index>  (1) 
10

>  <i_f3d_flags>  (1) 
0

>  <num_sample>  (1) 
50

>  <b_lp_Chiralities_Consistent>  (1) 
1

>  <r_epik_Charging_Adjusted_Penalty>  (1) 
0.001592553815962749

>  <r_epik_Ionization_Penalty>  (1) 
0.001592553815962749

>  <r_epik_Ionization_Penalty_Charging>  (1) 
0.001592553815962749

>  <r_epik_Ionization_Penalty_Neutral>  (1) 
0

>  <r_epik_State_Penalty>  (1) 
-0

>  <r_glide_ring_energy>  (1) 
0

>  <r_i_docking_score>  (1) 
-3.3219220007382111

>  <r_i_glide_ecoul>  (1) 
-3.7918247033330204

>  <r_i_glide_eff_state_penalty>  (1) 
-0

>  <r_i_glide_einternal>  (1) 
0

>  <r_i_glide_emodel>  (1) 
-11.52683066078783

>  <r_i_glide_emodel_strain>  (1) 
0

>  <r_i_glide_energy>  (1) 
-8.3232913702933526

>  <r_i_glide_erotb>  (1) 
0

>  <r_i_glide_esite>  (1) 
0

>  <r_i_glide_evdw>  (1) 
-4.5314666669603323

>  <r_i_glide_gscore>  (1) 
-3.3219220007382111

>  <r_i_glide_gscore_strain>  (1) 
0

>  <r_i_glide_hbond>  (1) 
-0.16

>  <r_i_glide_ligand_efficiency>  (1) 
-0.83048050018455277

>  <r_i_glide_ligand_efficiency_ln>  (1) 
-1.3920839167466452

>  <r_i_glide_ligand_efficiency_sa>  (1) 
-1.3183056196320355

>  <r_i_glide_lipo>  (1) 
0

>  <r_i_glide_metal>  (1) 
-0

>  <r_i_glide_rewards>  (1) 
-2.3665749618902412

>  <r_lp_Energy>  (1) 
-0.48114599999999996

>  <r_lp_tautomer_probability>  (1) 
1

>  <s_epik_cmdline>  (1) 
J2VwaWtfcHl0aG9uJywgJy1waHQnLCAnMS4wJywgJy1waCcsICc3LjQnLCAnLXRuJywgJzgnLCAnLW1hJywgJzUwMCcsICctaW1hZScsICc8aW5maWxlLm1hZT4nLCAnLW9tYWUnLCAnPG91dGZpbGUubWFlPic=

>  <s_epik_input>  (1) 
W0NIM11DKD1PKVtPSF0=

>  <s_glide_docking_method>  (1) 
confgen

>  <s_i_glide_gridfile>  (1) 
gpcr_5ht2c_6bqh_protein_autoprepared_prepared

>  <s_lp_Force_Field>  (1) 
S-OPLS

>  <s_lp_Variant>  (1) 
Pocket2Mol_9-1

>  <s_m_source_file>  (1) 
generated_GPCR_5HT2C_ligand_Pocket2Mol_2026-06-23_prepared.sdf

>  <GenAI_Model>  (1) 
Pocket2Mol

>  <Protein>  (1) 
GPCR_5HT2C

$$$$
Pocket2Mol_9
     RDKit          3D

  0  0  0  0  0  0  0  0  0  0999 V3000
M  V30 BEGIN CTAB
M  V30 COUNTS 7 6 0 0 1
M  V30 BEGIN ATOM
M  V30 1 C 35.732433 32.634574 60.185754 0
M  V30 2 C 37.032946 32.067450 60.740076 0
M  V30 3 O 36.948749 31.360991 61.767760 0
M  V30 4 O 38.086590 32.348812 60.128966 0 CHG=-1
M  V30 5 H 35.915720 33.233006 59.293065 0
M  V30 6 H 35.250595 33.266426 60.931564 0
M  V30 7 H 35.051330 31.825000 59.924357 0
M  V30 END ATOM
M  V30 BEGIN BOND
M  V30 1 1 2 1
M  V30 2 2 3 2
M  V30 3 1 4 2
M  V30 4 1 5 1
M  V30 5 1 6 1
M  V30 6 1 7 1
M  V30 END BOND
M  V30 END CTAB
M  END
>  <i_epik_Tot_Q>  (1) 
-1

>  <i_epik_Tot_abs_Q>  (1) 
1

>  <i_i_glide_confnum>  (1) 
1

>  <i_i_glide_lignum>  (1) 
10

>  <i_i_glide_posenum>  (1) 
50

>  <i_i_glide_rotatable_bonds>  (1) 
0

>  <i_lp_mmshare_version>  (1) 
72125

>  <i_m_source_file_index>  (1) 
10

>  <i_f3d_flags>  (1) 
0

>  <num_sample>  (1) 
50

>  <b_lp_Chiralities_Consistent>  (1) 
1

>  <r_epik_Charging_Adjusted_Penalty>  (1) 
0.001592553815962749

>  <r_epik_Ionization_Penalty>  (1) 
0.001592553815962749

>  <r_epik_Ionization_Penalty_Charging>  (1) 
0.001592553815962749

>  <r_epik_Ionization_Penalty_Neutral>  (1) 
0

>  <r_epik_State_Penalty>  (1) 
-0

>  <r_glide_ring_energy>  (1) 
0

>  <r_i_docking_score>  (1) 
-3.3065870476156638

>  <r_i_glide_ecoul>  (1) 
-4.1368615847900205

>  <r_i_glide_eff_state_penalty>  (1) 
-0

>  <r_i_glide_einternal>  (1) 
0

>  <r_i_glide_emodel>  (1) 
-12.46485179062579

>  <r_i_glide_emodel_strain>  (1) 
0

>  <r_i_glide_energy>  (1) 
-9.2761009644104426

>  <r_i_glide_erotb>  (1) 
0

>  <r_i_glide_esite>  (1) 
-0.01909584091613991

>  <r_i_glide_evdw>  (1) 
-5.139239379620423

>  <r_i_glide_gscore>  (1) 
-3.3065870476156638

>  <r_i_glide_gscore_strain>  (1) 
0

>  <r_i_glide_hbond>  (1) 
-0.16

>  <r_i_glide_ligand_efficiency>  (1) 
-0.82664676190391595

>  <r_i_glide_ligand_efficiency_ln>  (1) 
-1.3856576546004487

>  <r_i_glide_ligand_efficiency_sa>  (1) 
-1.3122199394523819

>  <r_i_glide_lipo>  (1) 
0

>  <r_i_glide_metal>  (1) 
-0

>  <r_i_glide_rewards>  (1) 
-2.25

>  <r_lp_Energy>  (1) 
-0.48114599999999996

>  <r_lp_tautomer_probability>  (1) 
1

>  <s_epik_cmdline>  (1) 
J2VwaWtfcHl0aG9uJywgJy1waHQnLCAnMS4wJywgJy1waCcsICc3LjQnLCAnLXRuJywgJzgnLCAnLW1hJywgJzUwMCcsICctaW1hZScsICc8aW5maWxlLm1hZT4nLCAnLW9tYWUnLCAnPG91dGZpbGUubWFlPic=

>  <s_epik_input>  (1) 
W0NIM11DKD1PKVtPSF0=

>  <s_glide_docking_method>  (1) 
confgen

>  <s_i_glide_gridfile>  (1) 
gpcr_5ht2c_6bqh_protein_autoprepared_prepared

>  <s_lp_Force_Field>  (1) 
S-OPLS

>  <s_lp_Variant>  (1) 
Pocket2Mol_9-1

>  <s_m_source_file>  (1) 
generated_GPCR_5HT2C_ligand_Pocket2Mol_2026-06-23_prepared.sdf

>  <GenAI_Model>  (1) 
Pocket2Mol

>  <Protein>  (1) 
GPCR_5HT2C

$$$$
Pocket2Mol_9
     RDKit          3D

  0  0  0  0  0  0  0  0  0  0999 V3000
M  V30 BEGIN CTAB
M  V30 COUNTS 7 6 0 0 1
M  V30 BEGIN ATOM
M  V30 1 C 34.848426 32.925339 59.791957 0
M  V30 2 C 35.775616 32.544820 60.938690 0
M  V30 3 O 36.540157 33.434504 61.368603 0
M  V30 4 O 35.701591 31.371480 61.367760 0 CHG=-1
M  V30 5 H 34.373949 32.040575 59.366840 0
M  V30 6 H 35.407952 33.422203 58.998826 0
M  V30 7 H 34.069308 33.601576 60.142588 0
M  V30 END ATOM
M  V30 BEGIN BOND
M  V30 1 1 2 1
M  V30 2 2 3 2
M  V30 3 1 4 2
M  V30 4 1 5 1
M  V30 5 1 6 1
M  V30 6 1 7 1
M  V30 END BOND
M  V30 END CTAB
M  END
>  <i_epik_Tot_Q>  (1) 
-1

>  <i_epik_Tot_abs_Q>  (1) 
1

>  <i_i_glide_confnum>  (1) 
1

>  <i_i_glide_lignum>  (1) 
10

>  <i_i_glide_posenum>  (1) 
45

>  <i_i_glide_rotatable_bonds>  (1) 
0

>  <i_lp_mmshare_version>  (1) 
72125

>  <i_m_source_file_index>  (1) 
10

>  <i_f3d_flags>  (1) 
0

>  <num_sample>  (1) 
50

>  <b_lp_Chiralities_Consistent>  (1) 
1

>  <r_epik_Charging_Adjusted_Penalty>  (1) 
0.001592553815962749

>  <r_epik_Ionization_Penalty>  (1) 
0.001592553815962749

>  <r_epik_Ionization_Penalty_Charging>  (1) 
0.001592553815962749

>  <r_epik_Ionization_Penalty_Neutral>  (1) 
0

>  <r_epik_State_Penalty>  (1) 
-0

>  <r_glide_ring_energy>  (1) 
0

>  <r_i_docking_score>  (1) 
-3.3005742829167355

>  <r_i_glide_ecoul>  (1) 
-3.3000347068988933

>  <r_i_glide_eff_state_penalty>  (1) 
-0

>  <r_i_glide_einternal>  (1) 
0

>  <r_i_glide_emodel>  (1) 
-13.126105727171142

>  <r_i_glide_emodel_strain>  (1) 
0.00015450079153497831

>  <r_i_glide_energy>  (1) 
-9.9433078906803125

>  <r_i_glide_erotb>  (1) 
0

>  <r_i_glide_esite>  (1) 
-0.010595348566417511

>  <r_i_glide_evdw>  (1) 
-6.6432731837814183

>  <r_i_glide_gscore>  (1) 
-3.3005742829167355

>  <r_i_glide_gscore_strain>  (1) 
0

>  <r_i_glide_hbond>  (1) 
-0.16

>  <r_i_glide_ligand_efficiency>  (1) 
-0.82514357072918387

>  <r_i_glide_ligand_efficiency_ln>  (1) 
-1.383137946723292

>  <r_i_glide_ligand_efficiency_sa>  (1) 
-1.3098337722003028

>  <r_i_glide_lipo>  (1) 
-0.052810069126412888

>  <r_i_glide_metal>  (1) 
-0

>  <r_i_glide_rewards>  (1) 
-2.25

>  <r_lp_Energy>  (1) 
-0.48114599999999996

>  <r_lp_tautomer_probability>  (1) 
1

>  <s_epik_cmdline>  (1) 
J2VwaWtfcHl0aG9uJywgJy1waHQnLCAnMS4wJywgJy1waCcsICc3LjQnLCAnLXRuJywgJzgnLCAnLW1hJywgJzUwMCcsICctaW1hZScsICc8aW5maWxlLm1hZT4nLCAnLW9tYWUnLCAnPG91dGZpbGUubWFlPic=

>  <s_epik_input>  (1) 
W0NIM11DKD1PKVtPSF0=

>  <s_glide_docking_method>  (1) 
confgen

>  <s_i_glide_gridfile>  (1) 
gpcr_5ht2c_6bqh_protein_autoprepared_prepared

>  <s_lp_Force_Field>  (1) 
S-OPLS

>  <s_lp_Variant>  (1) 
Pocket2Mol_9-1

>  <s_m_source_file>  (1) 
generated_GPCR_5HT2C_ligand_Pocket2Mol_2026-06-23_prepared.sdf

>  <GenAI_Model>  (1) 
Pocket2Mol

>  <Protein>  (1) 
GPCR_5HT2C

$$$$
Pocket2Mol_9
     RDKit          3D

  0  0  0  0  0  0  0  0  0  0999 V3000
M  V30 BEGIN CTAB
M  V30 COUNTS 7 6 0 0 1
M  V30 BEGIN ATOM
M  V30 1 C 35.402238 32.949568 60.035489 0
M  V30 2 C 36.049199 31.687418 60.590968 0
M  V30 3 O 36.467620 31.737798 61.767760 0
M  V30 4 O 36.114444 30.696052 59.832236 0 CHG=-1
M  V30 5 H 35.073248 32.800318 59.006849 0
M  V30 6 H 36.113560 33.775010 60.053696 0
M  V30 7 H 34.536622 33.223928 60.638034 0
M  V30 END ATOM
M  V30 BEGIN BOND
M  V30 1 1 2 1
M  V30 2 2 3 2
M  V30 3 1 4 2
M  V30 4 1 5 1
M  V30 5 1 6 1
M  V30 6 1 7 1
M  V30 END BOND
M  V30 END CTAB
M  END
>  <i_epik_Tot_Q>  (1) 
-1

>  <i_epik_Tot_abs_Q>  (1) 
1

>  <i_i_glide_confnum>  (1) 
1

>  <i_i_glide_lignum>  (1) 
10

>  <i_i_glide_posenum>  (1) 
11

>  <i_i_glide_rotatable_bonds>  (1) 
0

>  <i_lp_mmshare_version>  (1) 
72125

>  <i_m_source_file_index>  (1) 
10

>  <i_f3d_flags>  (1) 
0

>  <num_sample>  (1) 
50

>  <b_lp_Chiralities_Consistent>  (1) 
1

>  <r_epik_Charging_Adjusted_Penalty>  (1) 
0.001592553815962749

>  <r_epik_Ionization_Penalty>  (1) 
0.001592553815962749

>  <r_epik_Ionization_Penalty_Charging>  (1) 
0.001592553815962749

>  <r_epik_Ionization_Penalty_Neutral>  (1) 
0

>  <r_epik_State_Penalty>  (1) 
-0

>  <r_glide_ring_energy>  (1) 
0

>  <r_i_docking_score>  (1) 
-3.2806258232219108

>  <r_i_glide_ecoul>  (1) 
-3.4946561937468621

>  <r_i_glide_eff_state_penalty>  (1) 
-0

>  <r_i_glide_einternal>  (1) 
0

>  <r_i_glide_emodel>  (1) 
-12.345216856659766

>  <r_i_glide_emodel_strain>  (1) 
0

>  <r_i_glide_energy>  (1) 
-9.1815020795618416

>  <r_i_glide_erotb>  (1) 
0

>  <r_i_glide_esite>  (1) 
-0.062085099869132215

>  <r_i_glide_evdw>  (1) 
-5.6868458858149804

>  <r_i_glide_gscore>  (1) 
-3.2806258232219108

>  <r_i_glide_gscore_strain>  (1) 
0

>  <r_i_glide_hbond>  (1) 
-0.16

>  <r_i_glide_ligand_efficiency>  (1) 
-0.82015645580547769

>  <r_i_glide_ligand_efficiency_ln>  (1) 
-1.374778349508528

>  <r_i_glide_ligand_efficiency_sa>  (1) 
-1.3019172207241254

>  <r_i_glide_lipo>  (1) 
0

>  <r_i_glide_metal>  (1) 
-0

>  <r_i_glide_rewards>  (1) 
-2.25

>  <r_lp_Energy>  (1) 
-0.48114599999999996

>  <r_lp_tautomer_probability>  (1) 
1

>  <s_epik_cmdline>  (1) 
J2VwaWtfcHl0aG9uJywgJy1waHQnLCAnMS4wJywgJy1waCcsICc3LjQnLCAnLXRuJywgJzgnLCAnLW1hJywgJzUwMCcsICctaW1hZScsICc8aW5maWxlLm1hZT4nLCAnLW9tYWUnLCAnPG91dGZpbGUubWFlPic=

>  <s_epik_input>  (1) 
W0NIM11DKD1PKVtPSF0=

>  <s_glide_docking_method>  (1) 
confgen

>  <s_i_glide_gridfile>  (1) 
gpcr_5ht2c_6bqh_protein_autoprepared_prepared

>  <s_lp_Force_Field>  (1) 
S-OPLS

>  <s_lp_Variant>  (1) 
Pocket2Mol_9-1

>  <s_m_source_file>  (1) 
generated_GPCR_5HT2C_ligand_Pocket2Mol_2026-06-23_prepared.sdf

>  <GenAI_Model>  (1) 
Pocket2Mol

>  <Protein>  (1) 
GPCR_5HT2C

$$$$
Pocket2Mol_0
     RDKit          3D

  0  0  0  0  0  0  0  0  0  0999 V3000
M  V30 BEGIN CTAB
M  V30 COUNTS 15 14 0 0 1
M  V30 BEGIN ATOM
M  V30 1 C 39.848828 29.622806 50.330926 0
M  V30 2 C 40.201086 28.658616 51.466142 0
M  V30 3 C 40.804528 30.812942 50.250325 0
M  V30 4 C 39.330826 27.394999 51.485504 0
M  V30 5 O 38.045138 27.737753 51.938697 0
M  V30 6 H 39.832011 29.101214 49.373285 0
M  V30 7 H 38.845138 29.998221 50.506166 0
M  V30 8 H 40.108052 29.179770 52.420119 0
M  V30 9 H 41.245184 28.377922 51.367774 0
M  V30 10 H 40.467973 31.520584 49.493160 0
M  V30 11 H 40.845134 31.337761 51.204411 0
M  V30 12 H 41.817725 30.503130 49.994275 0
M  V30 13 H 39.740672 26.650257 52.167740 0
M  V30 14 H 39.272796 26.937939 50.496957 0
M  V30 15 H 37.441764 27.031840 51.732593 0
M  V30 END ATOM
M  V30 BEGIN BOND
M  V30 1 1 2 1
M  V30 2 1 3 1
M  V30 3 1 4 2
M  V30 4 1 5 4
M  V30 5 1 6 1
M  V30 6 1 7 1
M  V30 7 1 8 2
M  V30 8 1 9 2
M  V30 9 1 10 3
M  V30 10 1 11 3
M  V30 11 1 12 3
M  V30 12 1 13 4
M  V30 13 1 14 4
M  V30 14 1 15 5
M  V30 END BOND
M  V30 END CTAB
M  END
>  <i_epik_Tot_Q>  (1) 
0

>  <i_epik_Tot_abs_Q>  (1) 
0

>  <i_i_glide_confnum>  (1) 
2

>  <i_i_glide_lignum>  (1) 
1

>  <i_i_glide_posenum>  (1) 
280

>  <i_i_glide_rotatable_bonds>  (1) 
3

>  <i_lp_mmshare_version>  (1) 
72125

>  <i_m_source_file_index>  (1) 
1

>  <i_f3d_flags>  (1) 
0

>  <num_sample>  (1) 
50

>  <b_lp_Chiralities_Consistent>  (1) 
1

>  <r_epik_Charging_Adjusted_Penalty>  (1) 
0

>  <r_epik_Ionization_Penalty>  (1) 
2.9396235358890345e-07

>  <r_epik_Ionization_Penalty_Charging>  (1) 
0

>  <r_epik_Ionization_Penalty_Neutral>  (1) 
2.9396235358890345e-07

>  <r_epik_State_Penalty>  (1) 
-0

>  <r_glide_ring_energy>  (1) 
0

>  <r_i_docking_score>  (1) 
-3.2255312973422159

>  <r_i_glide_ecoul>  (1) 
-3.0811310635524229

>  <r_i_glide_eff_state_penalty>  (1) 
-0

>  <r_i_glide_einternal>  (1) 
1.9256033956922955

>  <r_i_glide_emodel>  (1) 
-16.73113655492126

>  <r_i_glide_emodel_strain>  (1) 
0.0012178067557075956

>  <r_i_glide_energy>  (1) 
-14.921710412004254

>  <r_i_glide_erotb>  (1) 
1.8982399431532129

>  <r_i_glide_esite>  (1) 
0

>  <r_i_glide_evdw>  (1) 
-11.840579348451831

>  <r_i_glide_gscore>  (1) 
-3.2255312973422159

>  <r_i_glide_gscore_strain>  (1) 
0

>  <r_i_glide_hbond>  (1) 
-0.32000000000000001

>  <r_i_glide_ligand_efficiency>  (1) 
-0.64510625946844313

>  <r_i_glide_ligand_efficiency_ln>  (1) 
-1.23610195206117

>  <r_i_glide_ligand_efficiency_sa>  (1) 
-1.1031161867416142

>  <r_i_glide_lipo>  (1) 
-1.1995726135399734

>  <r_i_glide_metal>  (1) 
-0

>  <r_i_glide_rewards>  (1) 
-2.5499999999999998

>  <r_lp_Energy>  (1) 
2.038589

>  <r_lp_tautomer_probability>  (1) 
1

>  <s_epik_cmdline>  (1) 
J2VwaWtfcHl0aG9uJywgJy1waHQnLCAnMS4wJywgJy1waCcsICc3LjQnLCAnLXRuJywgJzgnLCAnLW1hJywgJzUwMCcsICctaW1hZScsICc8aW5maWxlLm1hZT4nLCAnLW9tYWUnLCAnPG91dGZpbGUubWFlPic=

>  <s_epik_input>  (1) 
W0NIM11bQ0gyXVtDSDJdW0NIMl1bT0hd

>  <s_glide_docking_method>  (1) 
confgen

>  <s_i_glide_gridfile>  (1) 
gpcr_5ht2c_6bqh_protein_autoprepared_prepared

>  <s_lp_Force_Field>  (1) 
S-OPLS

>  <s_lp_Variant>  (1) 
Pocket2Mol_0-1

>  <s_m_source_file>  (1) 
generated_GPCR_5HT2C_ligand_Pocket2Mol_2026-06-23_prepared.sdf

>  <GenAI_Model>  (1) 
Pocket2Mol

>  <Protein>  (1) 
GPCR_5HT2C

$$$$
Pocket2Mol_0
     RDKit          3D

  0  0  0  0  0  0  0  0  0  0999 V3000
M  V30 BEGIN CTAB
M  V30 COUNTS 15 14 0 0 1
M  V30 BEGIN ATOM
M  V30 1 C 40.165606 28.880490 50.819019 0
M  V30 2 C 38.880685 28.144776 51.238825 0
M  V30 3 C 40.076732 30.410372 50.901102 0
M  V30 4 C 38.557660 28.226706 52.737813 0
M  V30 5 O 37.253004 27.737869 52.967779 0
M  V30 6 H 41.014436 28.535969 51.407806 0
M  V30 7 H 40.384463 28.614867 49.785002 0
M  V30 8 H 38.965954 27.094864 50.952527 0
M  V30 9 H 38.045138 28.537712 50.666138 0
M  V30 10 H 40.991044 30.869996 50.523840 0
M  V30 11 H 39.249656 30.791607 50.301855 0
M  V30 12 H 39.942946 30.754643 51.926167 0
M  V30 13 H 38.603866 29.252316 53.103718 0
M  V30 14 H 39.273074 27.639476 53.314144 0
M  V30 15 H 37.103771 26.979851 52.415183 0
M  V30 END ATOM
M  V30 BEGIN BOND
M  V30 1 1 2 1
M  V30 2 1 3 1
M  V30 3 1 4 2
M  V30 4 1 5 4
M  V30 5 1 6 1
M  V30 6 1 7 1
M  V30 7 1 8 2
M  V30 8 1 9 2
M  V30 9 1 10 3
M  V30 10 1 11 3
M  V30 11 1 12 3
M  V30 12 1 13 4
M  V30 13 1 14 4
M  V30 14 1 15 5
M  V30 END BOND
M  V30 END CTAB
M  END
>  <i_epik_Tot_Q>  (1) 
0

>  <i_epik_Tot_abs_Q>  (1) 
0

>  <i_i_glide_confnum>  (1) 
1

>  <i_i_glide_lignum>  (1) 
1

>  <i_i_glide_posenum>  (1) 
301

>  <i_i_glide_rotatable_bonds>  (1) 
3

>  <i_lp_mmshare_version>  (1) 
72125

>  <i_m_source_file_index>  (1) 
1

>  <i_f3d_flags>  (1) 
0

>  <num_sample>  (1) 
50

>  <b_lp_Chiralities_Consistent>  (1) 
1

>  <r_epik_Charging_Adjusted_Penalty>  (1) 
0

>  <r_epik_Ionization_Penalty>  (1) 
2.9396235358890345e-07

>  <r_epik_Ionization_Penalty_Charging>  (1) 
0

>  <r_epik_Ionization_Penalty_Neutral>  (1) 
2.9396235358890345e-07

>  <r_epik_State_Penalty>  (1) 
-0

>  <r_glide_ring_energy>  (1) 
0

>  <r_i_docking_score>  (1) 
-3.0765706633150454

>  <r_i_glide_ecoul>  (1) 
-2.6785196422540367

>  <r_i_glide_eff_state_penalty>  (1) 
-0

>  <r_i_glide_einternal>  (1) 
1.55123482527931

>  <r_i_glide_emodel>  (1) 
-15.986071286635745

>  <r_i_glide_emodel_strain>  (1) 
0.034877604917539218

>  <r_i_glide_energy>  (1) 
-14.151203190684742

>  <r_i_glide_erotb>  (1) 
1.8982399431532129

>  <r_i_glide_esite>  (1) 
0

>  <r_i_glide_evdw>  (1) 
-11.472683548430705

>  <r_i_glide_gscore>  (1) 
-3.0765706633150454

>  <r_i_glide_gscore_strain>  (1) 
0

>  <r_i_glide_hbond>  (1) 
-0.26327837210187827

>  <r_i_glide_ligand_efficiency>  (1) 
-0.61531413266300905

>  <r_i_glide_ligand_efficiency_ln>  (1) 
-1.179016618351038

>  <r_i_glide_ligand_efficiency_sa>  (1) 
-1.0521723665039797

>  <r_i_glide_lipo>  (1) 
-1.3200000000000001

>  <r_i_glide_metal>  (1) 
-0

>  <r_i_glide_rewards>  (1) 
-2.4161201106067387

>  <r_lp_Energy>  (1) 
2.038589

>  <r_lp_tautomer_probability>  (1) 
1

>  <s_epik_cmdline>  (1) 
J2VwaWtfcHl0aG9uJywgJy1waHQnLCAnMS4wJywgJy1waCcsICc3LjQnLCAnLXRuJywgJzgnLCAnLW1hJywgJzUwMCcsICctaW1hZScsICc8aW5maWxlLm1hZT4nLCAnLW9tYWUnLCAnPG91dGZpbGUubWFlPic=

>  <s_epik_input>  (1) 
W0NIM11bQ0gyXVtDSDJdW0NIMl1bT0hd

>  <s_glide_docking_method>  (1) 
confgen

>  <s_i_glide_gridfile>  (1) 
gpcr_5ht2c_6bqh_protein_autoprepared_prepared

>  <s_lp_Force_Field>  (1) 
S-OPLS

>  <s_lp_Variant>  (1) 
Pocket2Mol_0-1

>  <s_m_source_file>  (1) 
generated_GPCR_5HT2C_ligand_Pocket2Mol_2026-06-23_prepared.sdf

>  <GenAI_Model>  (1) 
Pocket2Mol

>  <Protein>  (1) 
GPCR_5HT2C

$$$$
Pocket2Mol_23
     RDKit          3D

  0  0  0  0  0  0  0  0  0  0999 V3000
M  V30 BEGIN CTAB
M  V30 COUNTS 16 15 0 0 1
M  V30 BEGIN ATOM
M  V30 1 C 39.238126 27.324334 51.034742 0
M  V30 2 O 39.324510 27.179539 52.447450 0
M  V30 3 C 38.164538 27.588734 53.157453 0
M  V30 4 C 39.330690 28.786403 50.584997 0
M  V30 5 O 40.587669 29.313370 50.967581 0
M  V30 6 C 40.812164 30.613643 50.455620 0
M  V30 7 H 40.045036 26.764950 50.567760 0
M  V30 8 H 38.320840 26.864301 50.673248 0
M  V30 9 H 38.293943 27.368372 54.216587 0
M  V30 10 H 37.278734 27.054611 52.816222 0
M  V30 11 H 37.986509 28.660092 53.066842 0
M  V30 12 H 39.245284 28.832472 49.499907 0
M  V30 13 H 38.516409 29.375141 51.000507 0
M  V30 14 H 41.815699 30.937695 50.724631 0
M  V30 15 H 40.741893 30.628599 49.367776 0
M  V30 16 H 40.098302 31.329652 50.864924 0
M  V30 END ATOM
M  V30 BEGIN BOND
M  V30 1 1 2 1
M  V30 2 1 3 2
M  V30 3 1 4 1
M  V30 4 1 5 4
M  V30 5 1 6 5
M  V30 6 1 7 1
M  V30 7 1 8 1
M  V30 8 1 9 3
M  V30 9 1 10 3
M  V30 10 1 11 3
M  V30 11 1 12 4
M  V30 12 1 13 4
M  V30 13 1 14 6
M  V30 14 1 15 6
M  V30 15 1 16 6
M  V30 END BOND
M  V30 END CTAB
M  END
>  <i_epik_Tot_Q>  (1) 
0

>  <i_epik_Tot_abs_Q>  (1) 
0

>  <i_i_glide_confnum>  (1) 
3

>  <i_i_glide_lignum>  (1) 
24

>  <i_i_glide_posenum>  (1) 
143

>  <i_i_glide_rotatable_bonds>  (1) 
3

>  <i_lp_mmshare_version>  (1) 
72125

>  <i_m_source_file_index>  (1) 
24

>  <i_f3d_flags>  (1) 
0

>  <num_sample>  (1) 
50

>  <b_lp_Chiralities_Consistent>  (1) 
1

>  <r_epik_Charging_Adjusted_Penalty>  (1) 
0

>  <r_epik_Ionization_Penalty>  (1) 
3.8345288393749547e-12

>  <r_epik_Ionization_Penalty_Charging>  (1) 
0

>  <r_epik_Ionization_Penalty_Neutral>  (1) 
3.8345288393749547e-12

>  <r_epik_State_Penalty>  (1) 
-0

>  <r_glide_ring_energy>  (1) 
0

>  <r_i_docking_score>  (1) 
-2.992098288010554

>  <r_i_glide_ecoul>  (1) 
-1.3322605813838306

>  <r_i_glide_eff_state_penalty>  (1) 
-0

>  <r_i_glide_einternal>  (1) 
1.1574868698615874

>  <r_i_glide_emodel>  (1) 
-17.346843335401555

>  <r_i_glide_emodel_strain>  (1) 
0

>  <r_i_glide_energy>  (1) 
-15.23220641860668

>  <r_i_glide_erotb>  (1) 
1.4298651310552182

>  <r_i_glide_esite>  (1) 
0

>  <r_i_glide_evdw>  (1) 
-13.89994583722285

>  <r_i_glide_gscore>  (1) 
-2.992098288010554

>  <r_i_glide_gscore_strain>  (1) 
0

>  <r_i_glide_hbond>  (1) 
0

>  <r_i_glide_ligand_efficiency>  (1) 
-0.498683048001759

>  <r_i_glide_ligand_efficiency_ln>  (1) 
-1.0717607734443879

>  <r_i_glide_ligand_efficiency_sa>  (1) 
-0.90616723582029479

>  <r_i_glide_lipo>  (1) 
-1.2771270399970545

>  <r_i_glide_metal>  (1) 
-0

>  <r_i_glide_rewards>  (1) 
-2.25

>  <r_lp_Energy>  (1) 
5.9407059999999996

>  <r_lp_tautomer_probability>  (1) 
1

>  <s_epik_cmdline>  (1) 
J2VwaWtfcHl0aG9uJywgJy1waHQnLCAnMS4wJywgJy1waCcsICc3LjQnLCAnLXRuJywgJzgnLCAnLW1hJywgJzUwMCcsICctaW1hZScsICc8aW5maWxlLm1hZT4nLCAnLW9tYWUnLCAnPG91dGZpbGUubWFlPic=

>  <s_epik_input>  (1) 
W0NIM11PW0NIMl1bQ0gyXU9bQ0gzXQ==

>  <s_glide_docking_method>  (1) 
confgen

>  <s_i_glide_gridfile>  (1) 
gpcr_5ht2c_6bqh_protein_autoprepared_prepared

>  <s_lp_Force_Field>  (1) 
S-OPLS

>  <s_lp_Variant>  (1) 
Pocket2Mol_23-1

>  <s_m_source_file>  (1) 
generated_GPCR_5HT2C_ligand_Pocket2Mol_2026-06-23_prepared.sdf

>  <GenAI_Model>  (1) 
Pocket2Mol

>  <Protein>  (1) 
GPCR_5HT2C

$$$$
Pocket2Mol_0
     RDKit          3D

  0  0  0  0  0  0  0  0  0  0999 V3000
M  V30 BEGIN CTAB
M  V30 COUNTS 15 14 0 0 1
M  V30 BEGIN ATOM
M  V30 1 C 39.672812 30.612051 53.290238 0
M  V30 2 C 39.671891 29.752429 52.015146 0
M  V30 3 C 39.089701 29.876948 54.502104 0
M  V30 4 C 40.189697 30.525212 50.793448 0
M  V30 5 O 40.045244 29.737044 49.632750 0
M  V30 6 H 40.688655 30.936729 53.518298 0
M  V30 7 H 39.101721 31.525813 53.123013 0
M  V30 8 H 38.666069 29.375145 51.823354 0
M  V30 9 H 40.291590 28.869114 52.167759 0
M  V30 10 H 39.125826 30.507824 55.390686 0
M  V30 11 H 38.047460 29.603873 54.333640 0
M  V30 12 H 39.645073 28.964774 54.719919 0
M  V30 13 H 41.242049 30.781696 50.922558 0
M  V30 14 H 39.645140 31.459673 50.656638 0
M  V30 15 H 39.129716 29.737747 49.371543 0
M  V30 END ATOM
M  V30 BEGIN BOND
M  V30 1 1 2 1
M  V30 2 1 3 1
M  V30 3 1 4 2
M  V30 4 1 5 4
M  V30 5 1 6 1
M  V30 6 1 7 1
M  V30 7 1 8 2
M  V30 8 1 9 2
M  V30 9 1 10 3
M  V30 10 1 11 3
M  V30 11 1 12 3
M  V30 12 1 13 4
M  V30 13 1 14 4
M  V30 14 1 15 5
M  V30 END BOND
M  V30 END CTAB
M  END
>  <i_epik_Tot_Q>  (1) 
0

>  <i_epik_Tot_abs_Q>  (1) 
0

>  <i_i_glide_confnum>  (1) 
1

>  <i_i_glide_lignum>  (1) 
1

>  <i_i_glide_posenum>  (1) 
379

>  <i_i_glide_rotatable_bonds>  (1) 
3

>  <i_lp_mmshare_version>  (1) 
72125

>  <i_m_source_file_index>  (1) 
1

>  <i_f3d_flags>  (1) 
0

>  <num_sample>  (1) 
50

>  <b_lp_Chiralities_Consistent>  (1) 
1

>  <r_epik_Charging_Adjusted_Penalty>  (1) 
0

>  <r_epik_Ionization_Penalty>  (1) 
2.9396235358890345e-07

>  <r_epik_Ionization_Penalty_Charging>  (1) 
0

>  <r_epik_Ionization_Penalty_Neutral>  (1) 
2.9396235358890345e-07

>  <r_epik_State_Penalty>  (1) 
-0

>  <r_glide_ring_energy>  (1) 
0

>  <r_i_docking_score>  (1) 
-2.9433792557319927

>  <r_i_glide_ecoul>  (1) 
-3.0802889403204117

>  <r_i_glide_eff_state_penalty>  (1) 
-0

>  <r_i_glide_einternal>  (1) 
0.42206690019963178

>  <r_i_glide_emodel>  (1) 
-16.083791687259399

>  <r_i_glide_emodel_strain>  (1) 
0.00013458039382993614

>  <r_i_glide_energy>  (1) 
-13.764120103041003

>  <r_i_glide_erotb>  (1) 
1.8982399431532129

>  <r_i_glide_esite>  (1) 
0

>  <r_i_glide_evdw>  (1) 
-10.683831162720592

>  <r_i_glide_gscore>  (1) 
-2.9433792557319927

>  <r_i_glide_gscore_strain>  (1) 
0

>  <r_i_glide_hbond>  (1) 
-0.32000000000000001

>  <r_i_glide_ligand_efficiency>  (1) 
-0.58867585114639853

>  <r_i_glide_ligand_efficiency_ln>  (1) 
-1.1279744353014285

>  <r_i_glide_ligand_efficiency_sa>  (1) 
-1.0066215458497731

>  <r_i_glide_lipo>  (1) 
-1.1653650426516236

>  <r_i_glide_metal>  (1) 
-0

>  <r_i_glide_rewards>  (1) 
-2.3600192570494909

>  <r_lp_Energy>  (1) 
2.038589

>  <r_lp_tautomer_probability>  (1) 
1

>  <s_epik_cmdline>  (1) 
J2VwaWtfcHl0aG9uJywgJy1waHQnLCAnMS4wJywgJy1waCcsICc3LjQnLCAnLXRuJywgJzgnLCAnLW1hJywgJzUwMCcsICctaW1hZScsICc8aW5maWxlLm1hZT4nLCAnLW9tYWUnLCAnPG91dGZpbGUubWFlPic=

>  <s_epik_input>  (1) 
W0NIM11bQ0gyXVtDSDJdW0NIMl1bT0hd

>  <s_glide_docking_method>  (1) 
confgen

>  <s_i_glide_gridfile>  (1) 
gpcr_5ht2c_6bqh_protein_autoprepared_prepared

>  <s_lp_Force_Field>  (1) 
S-OPLS

>  <s_lp_Variant>  (1) 
Pocket2Mol_0-1

>  <s_m_source_file>  (1) 
generated_GPCR_5HT2C_ligand_Pocket2Mol_2026-06-23_prepared.sdf

>  <GenAI_Model>  (1) 
Pocket2Mol

>  <Protein>  (1) 
GPCR_5HT2C

$$$$
Pocket2Mol_23
     RDKit          3D

  0  0  0  0  0  0  0  0  0  0999 V3000
M  V30 BEGIN CTAB
M  V30 COUNTS 16 15 0 0 1
M  V30 BEGIN ATOM
M  V30 1 C 39.928107 28.874686 51.672443 0
M  V30 2 O 39.645141 29.715430 50.568050 0
M  V30 3 C 40.641906 30.701110 50.364986 0
M  V30 4 C 38.762427 27.895783 51.891266 0
M  V30 5 O 37.645135 28.537754 52.492905 0
M  V30 6 C 37.731274 28.668948 53.903571 0
M  V30 7 H 40.839004 28.316312 51.454952 0
M  V30 8 H 40.116115 29.466628 52.567755 0
M  V30 9 H 40.363081 31.337723 49.525775 0
M  V30 10 H 41.609448 30.249950 50.141698 0
M  V30 11 H 40.747462 31.337753 51.244194 0
M  V30 12 H 38.450807 27.478867 50.933647 0
M  V30 13 H 39.081230 27.048957 52.501132 0
M  V30 14 H 36.845138 29.182865 54.275327 0
M  V30 15 H 37.776264 27.691663 54.385563 0
M  V30 16 H 38.599893 29.250494 54.211061 0
M  V30 END ATOM
M  V30 BEGIN BOND
M  V30 1 1 2 1
M  V30 2 1 3 2
M  V30 3 1 4 1
M  V30 4 1 5 4
M  V30 5 1 6 5
M  V30 6 1 7 1
M  V30 7 1 8 1
M  V30 8 1 9 3
M  V30 9 1 10 3
M  V30 10 1 11 3
M  V30 11 1 12 4
M  V30 12 1 13 4
M  V30 13 1 14 6
M  V30 14 1 15 6
M  V30 15 1 16 6
M  V30 END BOND
M  V30 END CTAB
M  END
>  <i_epik_Tot_Q>  (1) 
0

>  <i_epik_Tot_abs_Q>  (1) 
0

>  <i_i_glide_confnum>  (1) 
1

>  <i_i_glide_lignum>  (1) 
24

>  <i_i_glide_posenum>  (1) 
295

>  <i_i_glide_rotatable_bonds>  (1) 
3

>  <i_lp_mmshare_version>  (1) 
72125

>  <i_m_source_file_index>  (1) 
24

>  <i_f3d_flags>  (1) 
0

>  <num_sample>  (1) 
50

>  <b_lp_Chiralities_Consistent>  (1) 
1

>  <r_epik_Charging_Adjusted_Penalty>  (1) 
0

>  <r_epik_Ionization_Penalty>  (1) 
3.8345288393749547e-12

>  <r_epik_Ionization_Penalty_Charging>  (1) 
0

>  <r_epik_Ionization_Penalty_Neutral>  (1) 
3.8345288393749547e-12

>  <r_epik_State_Penalty>  (1) 
-0

>  <r_glide_ring_energy>  (1) 
0

>  <r_i_docking_score>  (1) 
-2.8803296283966069

>  <r_i_glide_ecoul>  (1) 
-0.17728802190118995

>  <r_i_glide_eff_state_penalty>  (1) 
-0

>  <r_i_glide_einternal>  (1) 
0.88976792431428553

>  <r_i_glide_emodel>  (1) 
-16.597205366697807

>  <r_i_glide_emodel_strain>  (1) 
0

>  <r_i_glide_energy>  (1) 
-14.449319145234112

>  <r_i_glide_erotb>  (1) 
1.4298651310552182

>  <r_i_glide_esite>  (1) 
0

>  <r_i_glide_evdw>  (1) 
-14.272031123332923

>  <r_i_glide_gscore>  (1) 
-2.8803296283966069

>  <r_i_glide_gscore_strain>  (1) 
0

>  <r_i_glide_hbond>  (1) 
0

>  <r_i_glide_ligand_efficiency>  (1) 
-0.48005493806610117

>  <r_i_glide_ligand_efficiency_ln>  (1) 
-1.031725569535918

>  <r_i_glide_ligand_efficiency_sa>  (1) 
-0.8723177136506699

>  <r_i_glide_lipo>  (1) 
-1.3200000000000001

>  <r_i_glide_metal>  (1) 
-0

>  <r_i_glide_rewards>  (1) 
-2.25

>  <r_lp_Energy>  (1) 
5.9407059999999996

>  <r_lp_tautomer_probability>  (1) 
1

>  <s_epik_cmdline>  (1) 
J2VwaWtfcHl0aG9uJywgJy1waHQnLCAnMS4wJywgJy1waCcsICc3LjQnLCAnLXRuJywgJzgnLCAnLW1hJywgJzUwMCcsICctaW1hZScsICc8aW5maWxlLm1hZT4nLCAnLW9tYWUnLCAnPG91dGZpbGUubWFlPic=

>  <s_epik_input>  (1) 
W0NIM11PW0NIMl1bQ0gyXU9bQ0gzXQ==

>  <s_glide_docking_method>  (1) 
confgen

>  <s_i_glide_gridfile>  (1) 
gpcr_5ht2c_6bqh_protein_autoprepared_prepared

>  <s_lp_Force_Field>  (1) 
S-OPLS

>  <s_lp_Variant>  (1) 
Pocket2Mol_23-1

>  <s_m_source_file>  (1) 
generated_GPCR_5HT2C_ligand_Pocket2Mol_2026-06-23_prepared.sdf

>  <GenAI_Model>  (1) 
Pocket2Mol

>  <Protein>  (1) 
GPCR_5HT2C

$$$$
Pocket2Mol_46
     RDKit          3D

  0  0  0  0  0  0  0  0  0  0999 V3000
M  V30 BEGIN CTAB
M  V30 COUNTS 13 12 0 0 1
M  V30 BEGIN ATOM
M  V30 1 C 39.961786 29.202368 51.703872 0
M  V30 2 C 40.250507 30.278658 50.652537 0
M  V30 3 O 38.569129 28.937518 51.765622 0
M  V30 4 O 40.045345 29.737891 49.367820 0
M  V30 5 C 38.242043 27.925610 52.700462 0
M  V30 6 H 40.526870 28.292943 51.491815 0
M  V30 7 H 40.285454 29.580494 52.673030 0
M  V30 8 H 41.292712 30.591507 50.722683 0
M  V30 9 H 39.645104 31.172211 50.800816 0
M  V30 10 H 39.105553 29.681415 49.219850 0
M  V30 11 H 37.164238 27.761530 52.701452 0
M  V30 12 H 38.728168 26.982445 52.445611 0
M  V30 13 H 38.540497 28.212796 53.708933 0
M  V30 END ATOM
M  V30 BEGIN BOND
M  V30 1 1 2 1
M  V30 2 1 3 1
M  V30 3 1 4 2
M  V30 4 1 5 3
M  V30 5 1 6 1
M  V30 6 1 7 1
M  V30 7 1 8 2
M  V30 8 1 9 2
M  V30 9 1 10 4
M  V30 10 1 11 5
M  V30 11 1 12 5
M  V30 12 1 13 5
M  V30 END BOND
M  V30 END CTAB
M  END
>  <i_epik_Tot_Q>  (1) 
0

>  <i_epik_Tot_abs_Q>  (1) 
0

>  <i_i_glide_confnum>  (1) 
2

>  <i_i_glide_lignum>  (1) 
47

>  <i_i_glide_posenum>  (1) 
122

>  <i_i_glide_rotatable_bonds>  (1) 
3

>  <i_lp_mmshare_version>  (1) 
72125

>  <i_m_source_file_index>  (1) 
47

>  <i_f3d_flags>  (1) 
0

>  <num_sample>  (1) 
50

>  <b_lp_Chiralities_Consistent>  (1) 
1

>  <r_epik_Charging_Adjusted_Penalty>  (1) 
0

>  <r_epik_Ionization_Penalty>  (1) 
5.5888793446441707e-08

>  <r_epik_Ionization_Penalty_Charging>  (1) 
0

>  <r_epik_Ionization_Penalty_Neutral>  (1) 
5.5888793446441707e-08

>  <r_epik_State_Penalty>  (1) 
-0

>  <r_glide_ring_energy>  (1) 
0

>  <r_i_docking_score>  (1) 
-2.8202580016950307

>  <r_i_glide_ecoul>  (1) 
-3.8324127023041425

>  <r_i_glide_eff_state_penalty>  (1) 
-0

>  <r_i_glide_einternal>  (1) 
2.4300251694124819

>  <r_i_glide_emodel>  (1) 
-15.499083429247154

>  <r_i_glide_emodel_strain>  (1) 
0

>  <r_i_glide_energy>  (1) 
-14.106942837896696

>  <r_i_glide_erotb>  (1) 
1.8283304104302178

>  <r_i_glide_esite>  (1) 
0

>  <r_i_glide_evdw>  (1) 
-10.274530135592554

>  <r_i_glide_gscore>  (1) 
-2.8202580016950307

>  <r_i_glide_gscore_strain>  (1) 
0

>  <r_i_glide_hbond>  (1) 
-0.32000000000000001

>  <r_i_glide_ligand_efficiency>  (1) 
-0.56405160033900614

>  <r_i_glide_ligand_efficiency_ln>  (1) 
-1.0807913797283171

>  <r_i_glide_ligand_efficiency_sa>  (1) 
-0.96451466926419793

>  <r_i_glide_lipo>  (1) 
-0.98999999999999999

>  <r_i_glide_metal>  (1) 
-0

>  <r_i_glide_rewards>  (1) 
-2.25

>  <r_lp_Energy>  (1) 
3.7496159999999996

>  <r_lp_tautomer_probability>  (1) 
1

>  <s_epik_cmdline>  (1) 
J2VwaWtfcHl0aG9uJywgJy1waHQnLCAnMS4wJywgJy1waCcsICc3LjQnLCAnLXRuJywgJzgnLCAnLW1hJywgJzUwMCcsICctaW1hZScsICc8aW5maWxlLm1hZT4nLCAnLW9tYWUnLCAnPG91dGZpbGUubWFlPic=

>  <s_epik_input>  (1) 
W0NIM11PW0NIMl1bQ0gyXVtPSF0=

>  <s_glide_docking_method>  (1) 
confgen

>  <s_i_glide_gridfile>  (1) 
gpcr_5ht2c_6bqh_protein_autoprepared_prepared

>  <s_lp_Force_Field>  (1) 
S-OPLS

>  <s_lp_Variant>  (1) 
Pocket2Mol_46-1

>  <s_m_source_file>  (1) 
generated_GPCR_5HT2C_ligand_Pocket2Mol_2026-06-23_prepared.sdf

>  <GenAI_Model>  (1) 
Pocket2Mol

>  <Protein>  (1) 
GPCR_5HT2C

$$$$
Pocket2Mol_46
     RDKit          3D

  0  0  0  0  0  0  0  0  0  0999 V3000
M  V30 BEGIN CTAB
M  V30 COUNTS 13 12 0 0 1
M  V30 BEGIN ATOM
M  V30 1 C 40.201742 28.723421 51.326036 0
M  V30 2 C 39.285884 27.494080 51.207401 0
M  V30 3 O 40.044697 29.542390 50.179836 0
M  V30 4 O 38.045137 27.765493 51.813457 0
M  V30 5 C 40.793407 30.741095 50.265340 0
M  V30 6 H 39.997222 29.276706 52.244625 0
M  V30 7 H 41.245132 28.414114 51.367760 0
M  V30 8 H 39.701153 26.640557 51.739820 0
M  V30 9 H 39.154654 27.194092 50.168031 0
M  V30 10 H 37.427016 27.082470 51.574796 0
M  V30 11 H 40.634921 31.337584 49.367831 0
M  V30 12 H 40.478959 31.337645 51.122873 0
M  V30 13 H 41.861839 30.537909 50.350415 0
M  V30 END ATOM
M  V30 BEGIN BOND
M  V30 1 1 2 1
M  V30 2 1 3 1
M  V30 3 1 4 2
M  V30 4 1 5 3
M  V30 5 1 6 1
M  V30 6 1 7 1
M  V30 7 1 8 2
M  V30 8 1 9 2
M  V30 9 1 10 4
M  V30 10 1 11 5
M  V30 11 1 12 5
M  V30 12 1 13 5
M  V30 END BOND
M  V30 END CTAB
M  END
>  <i_epik_Tot_Q>  (1) 
0

>  <i_epik_Tot_abs_Q>  (1) 
0

>  <i_i_glide_confnum>  (1) 
2

>  <i_i_glide_lignum>  (1) 
47

>  <i_i_glide_posenum>  (1) 
6

>  <i_i_glide_rotatable_bonds>  (1) 
3

>  <i_lp_mmshare_version>  (1) 
72125

>  <i_m_source_file_index>  (1) 
47

>  <i_f3d_flags>  (1) 
0

>  <num_sample>  (1) 
50

>  <b_lp_Chiralities_Consistent>  (1) 
1

>  <r_epik_Charging_Adjusted_Penalty>  (1) 
0

>  <r_epik_Ionization_Penalty>  (1) 
5.5888793446441707e-08

>  <r_epik_Ionization_Penalty_Charging>  (1) 
0

>  <r_epik_Ionization_Penalty_Neutral>  (1) 
5.5888793446441707e-08

>  <r_epik_State_Penalty>  (1) 
-0

>  <r_glide_ring_energy>  (1) 
0

>  <r_i_docking_score>  (1) 
-2.8037755534832174

>  <r_i_glide_ecoul>  (1) 
-3.2283263782487444

>  <r_i_glide_eff_state_penalty>  (1) 
-0

>  <r_i_glide_einternal>  (1) 
2.355144833116201

>  <r_i_glide_emodel>  (1) 
-17.384344869352205

>  <r_i_glide_emodel_strain>  (1) 
0

>  <r_i_glide_energy>  (1) 
-15.970001108446922

>  <r_i_glide_erotb>  (1) 
1.8283304104302178

>  <r_i_glide_esite>  (1) 
0

>  <r_i_glide_evdw>  (1) 
-12.741674730198179

>  <r_i_glide_gscore>  (1) 
-2.8037755534832174

>  <r_i_glide_gscore_strain>  (1) 
0

>  <r_i_glide_hbond>  (1) 
-0.32000000000000001

>  <r_i_glide_ligand_efficiency>  (1) 
-0.56075511069664352

>  <r_i_glide_ligand_efficiency_ln>  (1) 
-1.074474905159877

>  <r_i_glide_ligand_efficiency_sa>  (1) 
-0.95887775126728891

>  <r_i_glide_lipo>  (1) 
-0.94077327066621519

>  <r_i_glide_metal>  (1) 
-0

>  <r_i_glide_rewards>  (1) 
-2.25

>  <r_lp_Energy>  (1) 
3.7496159999999996

>  <r_lp_tautomer_probability>  (1) 
1

>  <s_epik_cmdline>  (1) 
J2VwaWtfcHl0aG9uJywgJy1waHQnLCAnMS4wJywgJy1waCcsICc3LjQnLCAnLXRuJywgJzgnLCAnLW1hJywgJzUwMCcsICctaW1hZScsICc8aW5maWxlLm1hZT4nLCAnLW9tYWUnLCAnPG91dGZpbGUubWFlPic=

>  <s_epik_input>  (1) 
W0NIM11PW0NIMl1bQ0gyXVtPSF0=

>  <s_glide_docking_method>  (1) 
confgen

>  <s_i_glide_gridfile>  (1) 
gpcr_5ht2c_6bqh_protein_autoprepared_prepared

>  <s_lp_Force_Field>  (1) 
S-OPLS

>  <s_lp_Variant>  (1) 
Pocket2Mol_46-1

>  <s_m_source_file>  (1) 
generated_GPCR_5HT2C_ligand_Pocket2Mol_2026-06-23_prepared.sdf

>  <GenAI_Model>  (1) 
Pocket2Mol

>  <Protein>  (1) 
GPCR_5HT2C

$$$$
Pocket2Mol_23
     RDKit          3D

  0  0  0  0  0  0  0  0  0  0999 V3000
M  V30 BEGIN CTAB
M  V30 COUNTS 16 15 0 0 1
M  V30 BEGIN ATOM
M  V30 1 C 39.893964 28.529629 51.237610 0
M  V30 2 O 39.645128 29.848401 50.785780 0
M  V30 3 C 40.682588 30.352490 49.964487 0
M  V30 4 C 38.766400 28.108585 52.185014 0
M  V30 5 O 39.161253 26.945756 52.894770 0
M  V30 6 C 38.187607 26.538020 53.841564 0
M  V30 7 H 39.968551 27.836005 50.398851 0
M  V30 8 H 40.845600 28.510629 51.767720 0
M  V30 9 H 40.428536 31.360897 49.641940 0
M  V30 10 H 40.815640 29.737750 49.073836 0
M  V30 11 H 41.629642 30.401689 50.503802 0
M  V30 12 H 38.569996 28.913376 52.895326 0
M  V30 13 H 37.845838 27.930789 51.626552 0
M  V30 14 H 38.539908 25.654956 54.373988 0
M  V30 15 H 37.999331 27.318949 54.579596 0
M  V30 16 H 37.245081 26.282936 53.356483 0
M  V30 END ATOM
M  V30 BEGIN BOND
M  V30 1 1 2 1
M  V30 2 1 3 2
M  V30 3 1 4 1
M  V30 4 1 5 4
M  V30 5 1 6 5
M  V30 6 1 7 1
M  V30 7 1 8 1
M  V30 8 1 9 3
M  V30 9 1 10 3
M  V30 10 1 11 3
M  V30 11 1 12 4
M  V30 12 1 13 4
M  V30 13 1 14 6
M  V30 14 1 15 6
M  V30 15 1 16 6
M  V30 END BOND
M  V30 END CTAB
M  END
>  <i_epik_Tot_Q>  (1) 
0

>  <i_epik_Tot_abs_Q>  (1) 
0

>  <i_i_glide_confnum>  (1) 
3

>  <i_i_glide_lignum>  (1) 
24

>  <i_i_glide_posenum>  (1) 
149

>  <i_i_glide_rotatable_bonds>  (1) 
3

>  <i_lp_mmshare_version>  (1) 
72125

>  <i_m_source_file_index>  (1) 
24

>  <i_f3d_flags>  (1) 
0

>  <num_sample>  (1) 
50

>  <b_lp_Chiralities_Consistent>  (1) 
1

>  <r_epik_Charging_Adjusted_Penalty>  (1) 
0

>  <r_epik_Ionization_Penalty>  (1) 
3.8345288393749547e-12

>  <r_epik_Ionization_Penalty_Charging>  (1) 
0

>  <r_epik_Ionization_Penalty_Neutral>  (1) 
3.8345288393749547e-12

>  <r_epik_State_Penalty>  (1) 
-0

>  <r_glide_ring_energy>  (1) 
0

>  <r_i_docking_score>  (1) 
-2.7774327859682031

>  <r_i_glide_ecoul>  (1) 
-0.09267378843461678

>  <r_i_glide_eff_state_penalty>  (1) 
-0

>  <r_i_glide_einternal>  (1) 
0.55014892655076841

>  <r_i_glide_emodel>  (1) 
-16.692953628710605

>  <r_i_glide_emodel_strain>  (1) 
0

>  <r_i_glide_energy>  (1) 
-14.467881982501282

>  <r_i_glide_erotb>  (1) 
1.4298651310552182

>  <r_i_glide_esite>  (1) 
0

>  <r_i_glide_evdw>  (1) 
-14.375208194066666

>  <r_i_glide_gscore>  (1) 
-2.7774327859682031

>  <r_i_glide_gscore_strain>  (1) 
0

>  <r_i_glide_hbond>  (1) 
0

>  <r_i_glide_ligand_efficiency>  (1) 
-0.46290546432803387

>  <r_i_glide_ligand_efficiency_ln>  (1) 
-0.99486822435178723

>  <r_i_glide_ligand_efficiency_sa>  (1) 
-0.84115505176499383

>  <r_i_glide_lipo>  (1) 
-1.2246364390548956

>  <r_i_glide_metal>  (1) 
-0

>  <r_i_glide_rewards>  (1) 
-2.25

>  <r_lp_Energy>  (1) 
5.9407059999999996

>  <r_lp_tautomer_probability>  (1) 
1

>  <s_epik_cmdline>  (1) 
J2VwaWtfcHl0aG9uJywgJy1waHQnLCAnMS4wJywgJy1waCcsICc3LjQnLCAnLXRuJywgJzgnLCAnLW1hJywgJzUwMCcsICctaW1hZScsICc8aW5maWxlLm1hZT4nLCAnLW9tYWUnLCAnPG91dGZpbGUubWFlPic=

>  <s_epik_input>  (1) 
W0NIM11PW0NIMl1bQ0gyXU9bQ0gzXQ==

>  <s_glide_docking_method>  (1) 
confgen

>  <s_i_glide_gridfile>  (1) 
gpcr_5ht2c_6bqh_protein_autoprepared_prepared

>  <s_lp_Force_Field>  (1) 
S-OPLS

>  <s_lp_Variant>  (1) 
Pocket2Mol_23-1

>  <s_m_source_file>  (1) 
generated_GPCR_5HT2C_ligand_Pocket2Mol_2026-06-23_prepared.sdf

>  <GenAI_Model>  (1) 
Pocket2Mol

>  <Protein>  (1) 
GPCR_5HT2C

$$$$
Pocket2Mol_0
     RDKit          3D

  0  0  0  0  0  0  0  0  0  0999 V3000
M  V30 BEGIN CTAB
M  V30 COUNTS 15 14 0 0 1
M  V30 BEGIN ATOM
M  V30 1 C 40.064974 29.756909 49.950181 0
M  V30 2 C 39.563079 28.441570 50.568751 0
M  V30 3 C 41.173646 30.452492 50.741635 0
M  V30 4 C 38.893399 28.597210 51.940612 0
M  V30 5 O 38.445238 27.338560 52.395692 0
M  V30 6 H 40.445226 29.532336 48.956489 0
M  V30 7 H 39.245134 30.457266 49.808979 0
M  V30 8 H 40.392960 27.738322 50.640090 0
M  V30 9 H 38.845138 27.993897 49.882231 0
M  V30 10 H 41.585061 31.281046 50.166028 0
M  V30 11 H 40.799401 30.860426 51.680568 0
M  V30 12 H 41.987326 29.764793 50.967584 0
M  V30 13 H 38.046107 29.278903 51.887580 0
M  V30 14 H 39.593091 29.004602 52.670460 0
M  V30 15 H 37.766162 27.019227 51.815647 0
M  V30 END ATOM
M  V30 BEGIN BOND
M  V30 1 1 2 1
M  V30 2 1 3 1
M  V30 3 1 4 2
M  V30 4 1 5 4
M  V30 5 1 6 1
M  V30 6 1 7 1
M  V30 7 1 8 2
M  V30 8 1 9 2
M  V30 9 1 10 3
M  V30 10 1 11 3
M  V30 11 1 12 3
M  V30 12 1 13 4
M  V30 13 1 14 4
M  V30 14 1 15 5
M  V30 END BOND
M  V30 END CTAB
M  END
>  <i_epik_Tot_Q>  (1) 
0

>  <i_epik_Tot_abs_Q>  (1) 
0

>  <i_i_glide_confnum>  (1) 
1

>  <i_i_glide_lignum>  (1) 
1

>  <i_i_glide_posenum>  (1) 
246

>  <i_i_glide_rotatable_bonds>  (1) 
3

>  <i_lp_mmshare_version>  (1) 
72125

>  <i_m_source_file_index>  (1) 
1

>  <i_f3d_flags>  (1) 
0

>  <num_sample>  (1) 
50

>  <b_lp_Chiralities_Consistent>  (1) 
1

>  <r_epik_Charging_Adjusted_Penalty>  (1) 
0

>  <r_epik_Ionization_Penalty>  (1) 
2.9396235358890345e-07

>  <r_epik_Ionization_Penalty_Charging>  (1) 
0

>  <r_epik_Ionization_Penalty_Neutral>  (1) 
2.9396235358890345e-07

>  <r_epik_State_Penalty>  (1) 
-0

>  <r_glide_ring_energy>  (1) 
0

>  <r_i_docking_score>  (1) 
-2.7608677509801942

>  <r_i_glide_ecoul>  (1) 
-1.6052030122921099

>  <r_i_glide_eff_state_penalty>  (1) 
-0

>  <r_i_glide_einternal>  (1) 
0.97889660623854624

>  <r_i_glide_emodel>  (1) 
-15.264263492177973

>  <r_i_glide_emodel_strain>  (1) 
0

>  <r_i_glide_energy>  (1) 
-13.379803145382564

>  <r_i_glide_erotb>  (1) 
1.8982399431532129

>  <r_i_glide_esite>  (1) 
0

>  <r_i_glide_evdw>  (1) 
-11.774600133090454

>  <r_i_glide_gscore>  (1) 
-2.7608677509801942

>  <r_i_glide_gscore_strain>  (1) 
0

>  <r_i_glide_hbond>  (1) 
-0.1544090870105273

>  <r_i_glide_ligand_efficiency>  (1) 
-0.55217355019603886

>  <r_i_glide_ligand_efficiency_ln>  (1) 
-1.0580315928670014

>  <r_i_glide_ligand_efficiency_sa>  (1) 
-0.94420348922630415

>  <r_i_glide_lipo>  (1) 
-1.1335214819578736

>  <r_i_glide_metal>  (1) 
-0

>  <r_i_glide_rewards>  (1) 
-2.5416666666666665

>  <r_lp_Energy>  (1) 
2.038589

>  <r_lp_tautomer_probability>  (1) 
1

>  <s_epik_cmdline>  (1) 
J2VwaWtfcHl0aG9uJywgJy1waHQnLCAnMS4wJywgJy1waCcsICc3LjQnLCAnLXRuJywgJzgnLCAnLW1hJywgJzUwMCcsICctaW1hZScsICc8aW5maWxlLm1hZT4nLCAnLW9tYWUnLCAnPG91dGZpbGUubWFlPic=

>  <s_epik_input>  (1) 
W0NIM11bQ0gyXVtDSDJdW0NIMl1bT0hd

>  <s_glide_docking_method>  (1) 
confgen

>  <s_i_glide_gridfile>  (1) 
gpcr_5ht2c_6bqh_protein_autoprepared_prepared

>  <s_lp_Force_Field>  (1) 
S-OPLS

>  <s_lp_Variant>  (1) 
Pocket2Mol_0-1

>  <s_m_source_file>  (1) 
generated_GPCR_5HT2C_ligand_Pocket2Mol_2026-06-23_prepared.sdf

>  <GenAI_Model>  (1) 
Pocket2Mol

>  <Protein>  (1) 
GPCR_5HT2C

$$$$
Pocket2Mol_46
     RDKit          3D

  0  0  0  0  0  0  0  0  0  0999 V3000
M  V30 BEGIN CTAB
M  V30 COUNTS 13 12 0 0 1
M  V30 BEGIN ATOM
M  V30 1 C 39.303942 29.068470 51.525171 0
M  V30 2 C 39.240202 27.584395 51.888971 0
M  V30 3 O 40.445151 29.323943 50.729973 0
M  V30 4 O 38.045137 27.335194 52.591111 0
M  V30 5 C 40.553149 30.688128 50.360235 0
M  V30 6 H 38.413043 29.337752 50.967760 0
M  V30 7 H 39.327288 29.678685 52.429799 0
M  V30 8 H 40.078462 27.309147 52.525519 0
M  V30 9 H 39.276567 26.955776 50.997915 0
M  V30 10 H 37.374023 27.070995 51.972256 0
M  V30 11 H 41.453216 30.838144 49.763763 0
M  V30 12 H 39.696535 31.005446 49.764095 0
M  V30 13 H 40.623260 31.331108 51.238814 0
M  V30 END ATOM
M  V30 BEGIN BOND
M  V30 1 1 2 1
M  V30 2 1 3 1
M  V30 3 1 4 2
M  V30 4 1 5 3
M  V30 5 1 6 1
M  V30 6 1 7 1
M  V30 7 1 8 2
M  V30 8 1 9 2
M  V30 9 1 10 4
M  V30 10 1 11 5
M  V30 11 1 12 5
M  V30 12 1 13 5
M  V30 END BOND
M  V30 END CTAB
M  END
>  <i_epik_Tot_Q>  (1) 
0

>  <i_epik_Tot_abs_Q>  (1) 
0

>  <i_i_glide_confnum>  (1) 
1

>  <i_i_glide_lignum>  (1) 
47

>  <i_i_glide_posenum>  (1) 
310

>  <i_i_glide_rotatable_bonds>  (1) 
3

>  <i_lp_mmshare_version>  (1) 
72125

>  <i_m_source_file_index>  (1) 
47

>  <i_f3d_flags>  (1) 
0

>  <num_sample>  (1) 
50

>  <b_lp_Chiralities_Consistent>  (1) 
1

>  <r_epik_Charging_Adjusted_Penalty>  (1) 
0

>  <r_epik_Ionization_Penalty>  (1) 
5.5888793446441707e-08

>  <r_epik_Ionization_Penalty_Charging>  (1) 
0

>  <r_epik_Ionization_Penalty_Neutral>  (1) 
5.5888793446441707e-08

>  <r_epik_State_Penalty>  (1) 
-0

>  <r_glide_ring_energy>  (1) 
0

>  <r_i_docking_score>  (1) 
-2.7548489727352115

>  <r_i_glide_ecoul>  (1) 
-2.6737901206557111

>  <r_i_glide_eff_state_penalty>  (1) 
-0

>  <r_i_glide_einternal>  (1) 
0.60608304400051616

>  <r_i_glide_emodel>  (1) 
-17.134528718878272

>  <r_i_glide_emodel_strain>  (1) 
0.22512377663806293

>  <r_i_glide_energy>  (1) 
-15.116007421997162

>  <r_i_glide_erotb>  (1) 
1.8283304104302178

>  <r_i_glide_esite>  (1) 
0

>  <r_i_glide_evdw>  (1) 
-12.442217301341451

>  <r_i_glide_gscore>  (1) 
-2.7548489727352115

>  <r_i_glide_gscore_strain>  (1) 
0

>  <r_i_glide_hbond>  (1) 
-0.32000000000000001

>  <r_i_glide_ligand_efficiency>  (1) 
-0.55096979454704231

>  <r_i_glide_ligand_efficiency_ln>  (1) 
-1.0557250508273142

>  <r_i_glide_ligand_efficiency_sa>  (1) 
-0.94214509602084384

>  <r_i_glide_lipo>  (1) 
-0.98999999999999999

>  <r_i_glide_metal>  (1) 
-0

>  <r_i_glide_rewards>  (1) 
-2.25

>  <r_lp_Energy>  (1) 
3.7496159999999996

>  <r_lp_tautomer_probability>  (1) 
1

>  <s_epik_cmdline>  (1) 
J2VwaWtfcHl0aG9uJywgJy1waHQnLCAnMS4wJywgJy1waCcsICc3LjQnLCAnLXRuJywgJzgnLCAnLW1hJywgJzUwMCcsICctaW1hZScsICc8aW5maWxlLm1hZT4nLCAnLW9tYWUnLCAnPG91dGZpbGUubWFlPic=

>  <s_epik_input>  (1) 
W0NIM11PW0NIMl1bQ0gyXVtPSF0=

>  <s_glide_docking_method>  (1) 
confgen

>  <s_i_glide_gridfile>  (1) 
gpcr_5ht2c_6bqh_protein_autoprepared_prepared

>  <s_lp_Force_Field>  (1) 
S-OPLS

>  <s_lp_Variant>  (1) 
Pocket2Mol_46-1

>  <s_m_source_file>  (1) 
generated_GPCR_5HT2C_ligand_Pocket2Mol_2026-06-23_prepared.sdf

>  <GenAI_Model>  (1) 
Pocket2Mol

>  <Protein>  (1) 
GPCR_5HT2C

$$$$
Pocket2Mol_23
     RDKit          3D

  0  0  0  0  0  0  0  0  0  0999 V3000
M  V30 BEGIN CTAB
M  V30 COUNTS 16 15 0 0 1
M  V30 BEGIN ATOM
M  V30 1 C 39.216158 29.140448 51.773165 0
M  V30 2 O 40.045728 30.283130 51.649070 0
M  V30 3 C 40.429570 30.536760 50.308597 0
M  V30 4 C 38.554770 29.150510 53.160997 0
M  V30 5 O 37.426263 28.288897 53.208422 0
M  V30 6 C 37.766372 26.921804 53.366300 0
M  V30 7 H 38.445165 29.164183 51.003432 0
M  V30 8 H 39.800398 28.232835 51.617318 0
M  V30 9 H 41.180942 31.324990 50.280451 0
M  V30 10 H 39.575995 30.867978 49.716992 0
M  V30 11 H 40.849603 29.648969 49.837573 0
M  V30 12 H 39.272466 28.921634 53.949929 0
M  V30 13 H 38.184629 30.154431 53.367570 0
M  V30 14 H 36.860151 26.316852 53.367761 0
M  V30 15 H 38.398463 26.568462 52.552372 0
M  V30 16 H 38.287180 26.751752 54.309028 0
M  V30 END ATOM
M  V30 BEGIN BOND
M  V30 1 1 2 1
M  V30 2 1 3 2
M  V30 3 1 4 1
M  V30 4 1 5 4
M  V30 5 1 6 5
M  V30 6 1 7 1
M  V30 7 1 8 1
M  V30 8 1 9 3
M  V30 9 1 10 3
M  V30 10 1 11 3
M  V30 11 1 12 4
M  V30 12 1 13 4
M  V30 13 1 14 6
M  V30 14 1 15 6
M  V30 15 1 16 6
M  V30 END BOND
M  V30 END CTAB
M  END
>  <i_epik_Tot_Q>  (1) 
0

>  <i_epik_Tot_abs_Q>  (1) 
0

>  <i_i_glide_confnum>  (1) 
3

>  <i_i_glide_lignum>  (1) 
24

>  <i_i_glide_posenum>  (1) 
276

>  <i_i_glide_rotatable_bonds>  (1) 
3

>  <i_lp_mmshare_version>  (1) 
72125

>  <i_m_source_file_index>  (1) 
24

>  <i_f3d_flags>  (1) 
0

>  <num_sample>  (1) 
50

>  <b_lp_Chiralities_Consistent>  (1) 
1

>  <r_epik_Charging_Adjusted_Penalty>  (1) 
0

>  <r_epik_Ionization_Penalty>  (1) 
3.8345288393749547e-12

>  <r_epik_Ionization_Penalty_Charging>  (1) 
0

>  <r_epik_Ionization_Penalty_Neutral>  (1) 
3.8345288393749547e-12

>  <r_epik_State_Penalty>  (1) 
-0

>  <r_glide_ring_energy>  (1) 
0

>  <r_i_docking_score>  (1) 
-2.7290561022109938

>  <r_i_glide_ecoul>  (1) 
-0.58033899921799792

>  <r_i_glide_eff_state_penalty>  (1) 
-0

>  <r_i_glide_einternal>  (1) 
1.5624658811540775

>  <r_i_glide_emodel>  (1) 
-15.70908523324357

>  <r_i_glide_emodel_strain>  (1) 
2.5751401011575581e-11

>  <r_i_glide_energy>  (1) 
-14.033719032733455

>  <r_i_glide_erotb>  (1) 
1.4298651310552182

>  <r_i_glide_esite>  (1) 
0

>  <r_i_glide_evdw>  (1) 
-13.453380033515456

>  <r_i_glide_gscore>  (1) 
-2.7290561022109938

>  <r_i_glide_gscore_strain>  (1) 
0

>  <r_i_glide_hbond>  (1) 
0

>  <r_i_glide_ligand_efficiency>  (1) 
-0.45484268370183228

>  <r_i_glide_ligand_efficiency_ln>  (1) 
-0.97753983904838371

>  <r_i_glide_ligand_efficiency_sa>  (1) 
-0.82650400705363503

>  <r_i_glide_lipo>  (1) 
-1.1492013817077398

>  <r_i_glide_metal>  (1) 
-0

>  <r_i_glide_rewards>  (1) 
-2.25

>  <r_lp_Energy>  (1) 
5.9407059999999996

>  <r_lp_tautomer_probability>  (1) 
1

>  <s_epik_cmdline>  (1) 
J2VwaWtfcHl0aG9uJywgJy1waHQnLCAnMS4wJywgJy1waCcsICc3LjQnLCAnLXRuJywgJzgnLCAnLW1hJywgJzUwMCcsICctaW1hZScsICc8aW5maWxlLm1hZT4nLCAnLW9tYWUnLCAnPG91dGZpbGUubWFlPic=

>  <s_epik_input>  (1) 
W0NIM11PW0NIMl1bQ0gyXU9bQ0gzXQ==

>  <s_glide_docking_method>  (1) 
confgen

>  <s_i_glide_gridfile>  (1) 
gpcr_5ht2c_6bqh_protein_autoprepared_prepared

>  <s_lp_Force_Field>  (1) 
S-OPLS

>  <s_lp_Variant>  (1) 
Pocket2Mol_23-1

>  <s_m_source_file>  (1) 
generated_GPCR_5HT2C_ligand_Pocket2Mol_2026-06-23_prepared.sdf

>  <GenAI_Model>  (1) 
Pocket2Mol

>  <Protein>  (1) 
GPCR_5HT2C

$$$$
Pocket2Mol_46
     RDKit          3D

  0  0  0  0  0  0  0  0  0  0999 V3000
M  V30 BEGIN CTAB
M  V30 COUNTS 13 12 0 0 1
M  V30 BEGIN ATOM
M  V30 1 C 39.646829 29.686929 51.783250 0
M  V30 2 C 40.189349 30.490183 50.596277 0
M  V30 3 O 39.645142 30.516972 52.932637 0
M  V30 4 O 40.045304 29.738017 49.410919 0
M  V30 5 C 39.083635 29.881574 54.067133 0
M  V30 6 H 38.634619 29.336610 51.571672 0
M  V30 7 H 40.266084 28.805209 51.952937 0
M  V30 8 H 41.239952 30.739757 50.749306 0
M  V30 9 H 39.645144 31.428880 50.487285 0
M  V30 10 H 39.123648 29.737463 49.167660 0
M  V30 11 H 39.108644 30.563067 54.917281 0
M  V30 12 H 38.042869 29.607308 53.888768 0
M  V30 13 H 39.643589 28.984685 54.335453 0
M  V30 END ATOM
M  V30 BEGIN BOND
M  V30 1 1 2 1
M  V30 2 1 3 1
M  V30 3 1 4 2
M  V30 4 1 5 3
M  V30 5 1 6 1
M  V30 6 1 7 1
M  V30 7 1 8 2
M  V30 8 1 9 2
M  V30 9 1 10 4
M  V30 10 1 11 5
M  V30 11 1 12 5
M  V30 12 1 13 5
M  V30 END BOND
M  V30 END CTAB
M  END
>  <i_epik_Tot_Q>  (1) 
0

>  <i_epik_Tot_abs_Q>  (1) 
0

>  <i_i_glide_confnum>  (1) 
1

>  <i_i_glide_lignum>  (1) 
47

>  <i_i_glide_posenum>  (1) 
290

>  <i_i_glide_rotatable_bonds>  (1) 
3

>  <i_lp_mmshare_version>  (1) 
72125

>  <i_m_source_file_index>  (1) 
47

>  <i_f3d_flags>  (1) 
0

>  <num_sample>  (1) 
50

>  <b_lp_Chiralities_Consistent>  (1) 
1

>  <r_epik_Charging_Adjusted_Penalty>  (1) 
0

>  <r_epik_Ionization_Penalty>  (1) 
5.5888793446441707e-08

>  <r_epik_Ionization_Penalty_Charging>  (1) 
0

>  <r_epik_Ionization_Penalty_Neutral>  (1) 
5.5888793446441707e-08

>  <r_epik_State_Penalty>  (1) 
-0

>  <r_glide_ring_energy>  (1) 
0

>  <r_i_docking_score>  (1) 
-2.6553069099628965

>  <r_i_glide_ecoul>  (1) 
-3.4961483110227864

>  <r_i_glide_eff_state_penalty>  (1) 
-0

>  <r_i_glide_einternal>  (1) 
0.3421094234963879

>  <r_i_glide_emodel>  (1) 
-15.921724778664654

>  <r_i_glide_emodel_strain>  (1) 
0.0016325360093027985

>  <r_i_glide_energy>  (1) 
-13.639745879014951

>  <r_i_glide_erotb>  (1) 
1.8283304104302178

>  <r_i_glide_esite>  (1) 
0

>  <r_i_glide_evdw>  (1) 
-10.143597567992165

>  <r_i_glide_gscore>  (1) 
-2.6553069099628965

>  <r_i_glide_gscore_strain>  (1) 
0

>  <r_i_glide_hbond>  (1) 
-0.32000000000000001

>  <r_i_glide_ligand_efficiency>  (1) 
-0.53106138199257935

>  <r_i_glide_ligand_efficiency_ln>  (1) 
-1.0175781141640612

>  <r_i_glide_ligand_efficiency_sa>  (1) 
-0.9081021894161958

>  <r_i_glide_lipo>  (1) 
-0.88203519534008812

>  <r_i_glide_metal>  (1) 
-0

>  <r_i_glide_rewards>  (1) 
-2.25

>  <r_lp_Energy>  (1) 
3.7496159999999996

>  <r_lp_tautomer_probability>  (1) 
1

>  <s_epik_cmdline>  (1) 
J2VwaWtfcHl0aG9uJywgJy1waHQnLCAnMS4wJywgJy1waCcsICc3LjQnLCAnLXRuJywgJzgnLCAnLW1hJywgJzUwMCcsICctaW1hZScsICc8aW5maWxlLm1hZT4nLCAnLW9tYWUnLCAnPG91dGZpbGUubWFlPic=

>  <s_epik_input>  (1) 
W0NIM11PW0NIMl1bQ0gyXVtPSF0=

>  <s_glide_docking_method>  (1) 
confgen

>  <s_i_glide_gridfile>  (1) 
gpcr_5ht2c_6bqh_protein_autoprepared_prepared

>  <s_lp_Force_Field>  (1) 
S-OPLS

>  <s_lp_Variant>  (1) 
Pocket2Mol_46-1

>  <s_m_source_file>  (1) 
generated_GPCR_5HT2C_ligand_Pocket2Mol_2026-06-23_prepared.sdf

>  <GenAI_Model>  (1) 
Pocket2Mol

>  <Protein>  (1) 
GPCR_5HT2C

$$$$
Pocket2Mol_0
     RDKit          3D

  0  0  0  0  0  0  0  0  0  0999 V3000
M  V30 BEGIN CTAB
M  V30 COUNTS 15 14 0 0 1
M  V30 BEGIN ATOM
M  V30 1 C 40.488802 29.433853 51.140464 0
M  V30 2 C 39.314971 28.461161 50.937144 0
M  V30 3 C 40.741746 30.319022 49.919181 0
M  V30 4 C 38.918461 27.668843 52.190407 0
M  V30 5 O 38.402342 28.534160 53.180946 0
M  V30 6 H 40.300375 30.083852 51.994089 0
M  V30 7 H 41.395062 28.875157 51.367735 0
M  V30 8 H 39.587020 27.744235 50.164175 0
M  V30 9 H 38.445447 29.001667 50.567761 0
M  V30 10 H 41.625529 30.937332 50.074104 0
M  V30 11 H 40.908021 29.735205 49.012740 0
M  V30 12 H 39.896000 30.986874 49.749003 0
M  V30 13 H 39.771797 27.112503 52.577498 0
M  V30 14 H 38.146538 26.938588 51.939360 0
M  V30 15 H 39.087154 29.127293 53.454771 0
M  V30 END ATOM
M  V30 BEGIN BOND
M  V30 1 1 2 1
M  V30 2 1 3 1
M  V30 3 1 4 2
M  V30 4 1 5 4
M  V30 5 1 6 1
M  V30 6 1 7 1
M  V30 7 1 8 2
M  V30 8 1 9 2
M  V30 9 1 10 3
M  V30 10 1 11 3
M  V30 11 1 12 3
M  V30 12 1 13 4
M  V30 13 1 14 4
M  V30 14 1 15 5
M  V30 END BOND
M  V30 END CTAB
M  END
>  <i_epik_Tot_Q>  (1) 
0

>  <i_epik_Tot_abs_Q>  (1) 
0

>  <i_i_glide_confnum>  (1) 
3

>  <i_i_glide_lignum>  (1) 
1

>  <i_i_glide_posenum>  (1) 
110

>  <i_i_glide_rotatable_bonds>  (1) 
3

>  <i_lp_mmshare_version>  (1) 
72125

>  <i_m_source_file_index>  (1) 
1

>  <i_f3d_flags>  (1) 
0

>  <num_sample>  (1) 
50

>  <b_lp_Chiralities_Consistent>  (1) 
1

>  <r_epik_Charging_Adjusted_Penalty>  (1) 
0

>  <r_epik_Ionization_Penalty>  (1) 
2.9396235358890345e-07

>  <r_epik_Ionization_Penalty_Charging>  (1) 
0

>  <r_epik_Ionization_Penalty_Neutral>  (1) 
2.9396235358890345e-07

>  <r_epik_State_Penalty>  (1) 
-0

>  <r_glide_ring_energy>  (1) 
0

>  <r_i_docking_score>  (1) 
-2.5740955752074681

>  <r_i_glide_ecoul>  (1) 
-0.39293402161514551

>  <r_i_glide_eff_state_penalty>  (1) 
-0

>  <r_i_glide_einternal>  (1) 
1.3201039317724768

>  <r_i_glide_emodel>  (1) 
-14.660096999471586

>  <r_i_glide_emodel_strain>  (1) 
0

>  <r_i_glide_energy>  (1) 
-13.106834781973761

>  <r_i_glide_erotb>  (1) 
1.8982399431532129

>  <r_i_glide_esite>  (1) 
0

>  <r_i_glide_evdw>  (1) 
-12.713900760358616

>  <r_i_glide_gscore>  (1) 
-2.5740955752074681

>  <r_i_glide_gscore_strain>  (1) 
0

>  <r_i_glide_hbond>  (1) 
0

>  <r_i_glide_ligand_efficiency>  (1) 
-0.51481911504149358

>  <r_i_glide_ligand_efficiency_ln>  (1) 
-0.9864559577914368

>  <r_i_glide_ligand_efficiency_sa>  (1) 
-0.88032830361033743

>  <r_i_glide_lipo>  (1) 
-1.3200000000000001

>  <r_i_glide_metal>  (1) 
-0

>  <r_i_glide_rewards>  (1) 
-2.457700377100478

>  <r_lp_Energy>  (1) 
2.038589

>  <r_lp_tautomer_probability>  (1) 
1

>  <s_epik_cmdline>  (1) 
J2VwaWtfcHl0aG9uJywgJy1waHQnLCAnMS4wJywgJy1waCcsICc3LjQnLCAnLXRuJywgJzgnLCAnLW1hJywgJzUwMCcsICctaW1hZScsICc8aW5maWxlLm1hZT4nLCAnLW9tYWUnLCAnPG91dGZpbGUubWFlPic=

>  <s_epik_input>  (1) 
W0NIM11bQ0gyXVtDSDJdW0NIMl1bT0hd

>  <s_glide_docking_method>  (1) 
confgen

>  <s_i_glide_gridfile>  (1) 
gpcr_5ht2c_6bqh_protein_autoprepared_prepared

>  <s_lp_Force_Field>  (1) 
S-OPLS

>  <s_lp_Variant>  (1) 
Pocket2Mol_0-1

>  <s_m_source_file>  (1) 
generated_GPCR_5HT2C_ligand_Pocket2Mol_2026-06-23_prepared.sdf

>  <GenAI_Model>  (1) 
Pocket2Mol

>  <Protein>  (1) 
GPCR_5HT2C

$$$$
Pocket2Mol_23
     RDKit          3D

  0  0  0  0  0  0  0  0  0  0999 V3000
M  V30 BEGIN CTAB
M  V30 COUNTS 16 15 0 0 1
M  V30 BEGIN ATOM
M  V30 1 C 38.128041 28.032643 52.536685 0
M  V30 2 O 39.156059 27.337742 51.843391 0
M  V30 3 C 39.647171 28.018751 50.700098 0
M  V30 4 C 38.684410 29.198991 53.367771 0
M  V30 5 O 37.645135 29.737754 54.167797 0
M  V30 6 C 38.063536 30.878204 54.899899 0
M  V30 7 H 37.353352 28.372545 51.848001 0
M  V30 8 H 37.650351 27.317144 53.206629 0
M  V30 9 H 40.341948 27.370324 50.167762 0
M  V30 10 H 40.184754 28.927545 50.970295 0
M  V30 11 H 38.845142 28.278393 50.010684 0
M  V30 12 H 39.490317 28.846343 54.012451 0
M  V30 13 H 39.096894 29.971471 52.717911 0
M  V30 14 H 37.245137 31.243852 55.517684 0
M  V30 15 H 38.899806 30.641299 55.559083 0
M  V30 16 H 38.362339 31.686923 54.231459 0
M  V30 END ATOM
M  V30 BEGIN BOND
M  V30 1 1 2 1
M  V30 2 1 3 2
M  V30 3 1 4 1
M  V30 4 1 5 4
M  V30 5 1 6 5
M  V30 6 1 7 1
M  V30 7 1 8 1
M  V30 8 1 9 3
M  V30 9 1 10 3
M  V30 10 1 11 3
M  V30 11 1 12 4
M  V30 12 1 13 4
M  V30 13 1 14 6
M  V30 14 1 15 6
M  V30 15 1 16 6
M  V30 END BOND
M  V30 END CTAB
M  END
>  <i_epik_Tot_Q>  (1) 
0

>  <i_epik_Tot_abs_Q>  (1) 
0

>  <i_i_glide_confnum>  (1) 
3

>  <i_i_glide_lignum>  (1) 
24

>  <i_i_glide_posenum>  (1) 
177

>  <i_i_glide_rotatable_bonds>  (1) 
3

>  <i_lp_mmshare_version>  (1) 
72125

>  <i_m_source_file_index>  (1) 
24

>  <i_f3d_flags>  (1) 
0

>  <num_sample>  (1) 
50

>  <b_lp_Chiralities_Consistent>  (1) 
1

>  <r_epik_Charging_Adjusted_Penalty>  (1) 
0

>  <r_epik_Ionization_Penalty>  (1) 
3.8345288393749547e-12

>  <r_epik_Ionization_Penalty_Charging>  (1) 
0

>  <r_epik_Ionization_Penalty_Neutral>  (1) 
3.8345288393749547e-12

>  <r_epik_State_Penalty>  (1) 
-0

>  <r_glide_ring_energy>  (1) 
0

>  <r_i_docking_score>  (1) 
-2.5073260985530381

>  <r_i_glide_ecoul>  (1) 
-0.60863803411849093

>  <r_i_glide_eff_state_penalty>  (1) 
-0

>  <r_i_glide_einternal>  (1) 
1.2348340038417844

>  <r_i_glide_emodel>  (1) 
-15.252165464523413

>  <r_i_glide_emodel_strain>  (1) 
0

>  <r_i_glide_energy>  (1) 
-13.612576780410535

>  <r_i_glide_erotb>  (1) 
1.4298651310552182

>  <r_i_glide_esite>  (1) 
0

>  <r_i_glide_evdw>  (1) 
-13.003938746292045

>  <r_i_glide_gscore>  (1) 
-2.5073260985530381

>  <r_i_glide_gscore_strain>  (1) 
0

>  <r_i_glide_hbond>  (1) 
0

>  <r_i_glide_ligand_efficiency>  (1) 
-0.417887683092173

>  <r_i_glide_ligand_efficiency_ln>  (1) 
-0.89811680633300939

>  <r_i_glide_ligand_efficiency_sa>  (1) 
-0.75935231443769879

>  <r_i_glide_lipo>  (1) 
-0.94569858717588029

>  <r_i_glide_metal>  (1) 
-0

>  <r_i_glide_rewards>  (1) 
-2.25

>  <r_lp_Energy>  (1) 
5.9407059999999996

>  <r_lp_tautomer_probability>  (1) 
1

>  <s_epik_cmdline>  (1) 
J2VwaWtfcHl0aG9uJywgJy1waHQnLCAnMS4wJywgJy1waCcsICc3LjQnLCAnLXRuJywgJzgnLCAnLW1hJywgJzUwMCcsICctaW1hZScsICc8aW5maWxlLm1hZT4nLCAnLW9tYWUnLCAnPG91dGZpbGUubWFlPic=

>  <s_epik_input>  (1) 
W0NIM11PW0NIMl1bQ0gyXU9bQ0gzXQ==

>  <s_glide_docking_method>  (1) 
confgen

>  <s_i_glide_gridfile>  (1) 
gpcr_5ht2c_6bqh_protein_autoprepared_prepared

>  <s_lp_Force_Field>  (1) 
S-OPLS

>  <s_lp_Variant>  (1) 
Pocket2Mol_23-1

>  <s_m_source_file>  (1) 
generated_GPCR_5HT2C_ligand_Pocket2Mol_2026-06-23_prepared.sdf

>  <GenAI_Model>  (1) 
Pocket2Mol

>  <Protein>  (1) 
GPCR_5HT2C

$$$$
Pocket2Mol_4
     RDKit          3D

  0  0  0  0  0  0  0  0  0  0999 V3000
M  V30 BEGIN CTAB
M  V30 COUNTS 11 10 0 0 1
M  V30 BEGIN ATOM
M  V30 1 C 37.992267 33.155136 61.062370 0
M  V30 2 O 36.785289 33.458492 60.385709 0
M  V30 3 C 35.701598 32.695918 60.594724 0
M  V30 4 O 35.646748 31.737755 61.367710 0
M  V30 5 C 34.501060 33.132494 59.767024 0
M  V30 6 H 38.761385 33.878937 60.791967 0
M  V30 7 H 38.349205 32.161174 60.789309 0
M  V30 8 H 37.853528 33.191230 62.143625 0
M  V30 9 H 34.728108 34.031573 59.193224 0
M  V30 10 H 34.221270 32.343737 59.068244 0
M  V30 11 H 33.649135 33.340329 60.412588 0
M  V30 END ATOM
M  V30 BEGIN BOND
M  V30 1 1 2 1
M  V30 2 1 3 2
M  V30 3 2 4 3
M  V30 4 1 5 3
M  V30 5 1 6 1
M  V30 6 1 7 1
M  V30 7 1 8 1
M  V30 8 1 9 5
M  V30 9 1 10 5
M  V30 10 1 11 5
M  V30 END BOND
M  V30 END CTAB
M  END
>  <i_epik_Tot_Q>  (1) 
0

>  <i_epik_Tot_abs_Q>  (1) 
0

>  <i_i_glide_confnum>  (1) 
1

>  <i_i_glide_lignum>  (1) 
5

>  <i_i_glide_posenum>  (1) 
350

>  <i_i_glide_rotatable_bonds>  (1) 
1

>  <i_lp_mmshare_version>  (1) 
72125

>  <i_m_source_file_index>  (1) 
5

>  <i_f3d_flags>  (1) 
0

>  <num_sample>  (1) 
50

>  <b_lp_Chiralities_Consistent>  (1) 
1

>  <r_epik_Charging_Adjusted_Penalty>  (1) 
0

>  <r_epik_Ionization_Penalty>  (1) 
0

>  <r_epik_Ionization_Penalty_Charging>  (1) 
0

>  <r_epik_Ionization_Penalty_Neutral>  (1) 
0

>  <r_epik_State_Penalty>  (1) 
-0

>  <r_glide_ring_energy>  (1) 
0

>  <r_i_docking_score>  (1) 
-2.4244635867532036

>  <r_i_glide_ecoul>  (1) 
-2.301060916386982

>  <r_i_glide_eff_state_penalty>  (1) 
-0

>  <r_i_glide_einternal>  (1) 
0.0014792894119020072

>  <r_i_glide_emodel>  (1) 
-15.141940855801666

>  <r_i_glide_emodel_strain>  (1) 
0.051158069168115272

>  <r_i_glide_energy>  (1) 
-12.914247062747366

>  <r_i_glide_erotb>  (1) 
1.8998339649575009

>  <r_i_glide_esite>  (1) 
-0.0070941195327657042

>  <r_i_glide_evdw>  (1) 
-10.613186146360384

>  <r_i_glide_gscore>  (1) 
-2.4244635867532036

>  <r_i_glide_gscore_strain>  (1) 
0

>  <r_i_glide_hbond>  (1) 
-0.32000000000000001

>  <r_i_glide_ligand_efficiency>  (1) 
-0.48489271735064071

>  <r_i_glide_ligand_efficiency_ln>  (1) 
-0.92911334475540308

>  <r_i_glide_ligand_efficiency_sa>  (1) 
-0.8291548833882979

>  <r_i_glide_lipo>  (1) 
-0.37138754008311747

>  <r_i_glide_metal>  (1) 
-0

>  <r_i_glide_rewards>  (1) 
-2.749997447318755

>  <r_lp_Energy>  (1) 
-0.092307

>  <r_lp_tautomer_probability>  (1) 
1

>  <s_epik_Chemistry_Notes>  (1) 
This compound has an ester and may undergo hydrolysis at high or low pH.

>  <s_epik_cmdline>  (1) 
J2VwaWtfcHl0aG9uJywgJy1waHQnLCAnMS4wJywgJy1waCcsICc3LjQnLCAnLXRuJywgJzgnLCAnLW1hJywgJzUwMCcsICctaW1hZScsICc8aW5maWxlLm1hZT4nLCAnLW9tYWUnLCAnPG91dGZpbGUubWFlPic=

>  <s_epik_input>  (1) 
W0NIM11PQyg9TylbQ0gzXQ==

>  <s_glide_docking_method>  (1) 
confgen

>  <s_i_glide_gridfile>  (1) 
gpcr_5ht2c_6bqh_protein_autoprepared_prepared

>  <s_lp_Force_Field>  (1) 
S-OPLS

>  <s_lp_Variant>  (1) 
Pocket2Mol_4-1

>  <s_m_source_file>  (1) 
generated_GPCR_5HT2C_ligand_Pocket2Mol_2026-06-23_prepared.sdf

>  <GenAI_Model>  (1) 
Pocket2Mol

>  <Protein>  (1) 
GPCR_5HT2C

$$$$
Pocket2Mol_46
     RDKit          3D

  0  0  0  0  0  0  0  0  0  0999 V3000
M  V30 BEGIN CTAB
M  V30 COUNTS 13 12 0 0 1
M  V30 BEGIN ATOM
M  V30 1 C 39.904691 28.331108 50.847176 0
M  V30 2 C 38.773731 28.554475 51.861935 0
M  V30 3 O 40.045212 29.420340 49.947336 0
M  V30 4 O 38.443096 27.337783 52.496843 0
M  V30 5 C 40.660820 30.564875 50.513799 0
M  V30 6 H 40.845264 28.137783 51.361579 0
M  V30 7 H 39.682427 27.448655 50.245959 0
M  V30 8 H 37.883779 28.937712 51.367750 0
M  V30 9 H 39.067212 29.283754 52.616872 0
M  V30 10 H 37.892085 26.831833 51.913847 0
M  V30 11 H 40.754435 31.337703 49.752198 0
M  V30 12 H 40.076870 30.980696 51.334887 0
M  V30 13 H 41.662350 30.334057 50.875109 0
M  V30 END ATOM
M  V30 BEGIN BOND
M  V30 1 1 2 1
M  V30 2 1 3 1
M  V30 3 1 4 2
M  V30 4 1 5 3
M  V30 5 1 6 1
M  V30 6 1 7 1
M  V30 7 1 8 2
M  V30 8 1 9 2
M  V30 9 1 10 4
M  V30 10 1 11 5
M  V30 11 1 12 5
M  V30 12 1 13 5
M  V30 END BOND
M  V30 END CTAB
M  END
>  <i_epik_Tot_Q>  (1) 
0

>  <i_epik_Tot_abs_Q>  (1) 
0

>  <i_i_glide_confnum>  (1) 
1

>  <i_i_glide_lignum>  (1) 
47

>  <i_i_glide_posenum>  (1) 
78

>  <i_i_glide_rotatable_bonds>  (1) 
3

>  <i_lp_mmshare_version>  (1) 
72125

>  <i_m_source_file_index>  (1) 
47

>  <i_f3d_flags>  (1) 
0

>  <num_sample>  (1) 
50

>  <b_lp_Chiralities_Consistent>  (1) 
1

>  <r_epik_Charging_Adjusted_Penalty>  (1) 
0

>  <r_epik_Ionization_Penalty>  (1) 
5.5888793446441707e-08

>  <r_epik_Ionization_Penalty_Charging>  (1) 
0

>  <r_epik_Ionization_Penalty_Neutral>  (1) 
5.5888793446441707e-08

>  <r_epik_State_Penalty>  (1) 
-0

>  <r_glide_ring_energy>  (1) 
0

>  <r_i_docking_score>  (1) 
-2.3515691454224017

>  <r_i_glide_ecoul>  (1) 
-1.3504451304196083

>  <r_i_glide_eff_state_penalty>  (1) 
-0

>  <r_i_glide_einternal>  (1) 
0.98216333163394065

>  <r_i_glide_emodel>  (1) 
-16.07212153098186

>  <r_i_glide_emodel_strain>  (1) 
0.014546446487745834

>  <r_i_glide_energy>  (1) 
-14.403870174627977

>  <r_i_glide_erotb>  (1) 
1.8283304104302178

>  <r_i_glide_esite>  (1) 
0

>  <r_i_glide_evdw>  (1) 
-13.053425044208369

>  <r_i_glide_gscore>  (1) 
-2.3515691454224017

>  <r_i_glide_gscore_strain>  (1) 
0

>  <r_i_glide_hbond>  (1) 
-0.084661534079260387

>  <r_i_glide_ligand_efficiency>  (1) 
-0.47031382908448033

>  <r_i_glide_ligand_efficiency_ln>  (1) 
-0.90117842398819248

>  <r_i_glide_ligand_efficiency_sa>  (1) 
-0.80422533512387651

>  <r_i_glide_lipo>  (1) 
-0.98999999999999999

>  <r_i_glide_metal>  (1) 
-0

>  <r_i_glide_rewards>  (1) 
-2.25

>  <r_lp_Energy>  (1) 
3.7496159999999996

>  <r_lp_tautomer_probability>  (1) 
1

>  <s_epik_cmdline>  (1) 
J2VwaWtfcHl0aG9uJywgJy1waHQnLCAnMS4wJywgJy1waCcsICc3LjQnLCAnLXRuJywgJzgnLCAnLW1hJywgJzUwMCcsICctaW1hZScsICc8aW5maWxlLm1hZT4nLCAnLW9tYWUnLCAnPG91dGZpbGUubWFlPic=

>  <s_epik_input>  (1) 
W0NIM11PW0NIMl1bQ0gyXVtPSF0=

>  <s_glide_docking_method>  (1) 
confgen

>  <s_i_glide_gridfile>  (1) 
gpcr_5ht2c_6bqh_protein_autoprepared_prepared

>  <s_lp_Force_Field>  (1) 
S-OPLS

>  <s_lp_Variant>  (1) 
Pocket2Mol_46-1

>  <s_m_source_file>  (1) 
generated_GPCR_5HT2C_ligand_Pocket2Mol_2026-06-23_prepared.sdf

>  <GenAI_Model>  (1) 
Pocket2Mol

>  <Protein>  (1) 
GPCR_5HT2C

$$$$
Pocket2Mol_4
     RDKit          3D

  0  0  0  0  0  0  0  0  0  0999 V3000
M  V30 BEGIN CTAB
M  V30 COUNTS 11 10 0 0 1
M  V30 BEGIN ATOM
M  V30 1 C 38.109549 31.260029 60.198213 0
M  V30 2 O 37.158832 32.215286 59.760666 0
M  V30 3 C 35.977946 32.304324 60.388552 0
M  V30 4 O 35.645137 31.638424 61.367760 0
M  V30 5 C 35.050266 33.337759 59.767761 0
M  V30 6 H 38.998265 31.305813 59.569217 0
M  V30 7 H 37.702245 30.249771 60.137383 0
M  V30 8 H 38.410258 31.453287 61.228598 0
M  V30 9 H 35.495348 33.771106 58.871286 0
M  V30 10 H 34.105613 32.872123 59.487058 0
M  V30 11 H 34.845983 34.137744 60.478196 0
M  V30 END ATOM
M  V30 BEGIN BOND
M  V30 1 1 2 1
M  V30 2 1 3 2
M  V30 3 2 4 3
M  V30 4 1 5 3
M  V30 5 1 6 1
M  V30 6 1 7 1
M  V30 7 1 8 1
M  V30 8 1 9 5
M  V30 9 1 10 5
M  V30 10 1 11 5
M  V30 END BOND
M  V30 END CTAB
M  END
>  <i_epik_Tot_Q>  (1) 
0

>  <i_epik_Tot_abs_Q>  (1) 
0

>  <i_i_glide_confnum>  (1) 
1

>  <i_i_glide_lignum>  (1) 
5

>  <i_i_glide_posenum>  (1) 
155

>  <i_i_glide_rotatable_bonds>  (1) 
1

>  <i_lp_mmshare_version>  (1) 
72125

>  <i_m_source_file_index>  (1) 
5

>  <i_f3d_flags>  (1) 
0

>  <num_sample>  (1) 
50

>  <b_lp_Chiralities_Consistent>  (1) 
1

>  <r_epik_Charging_Adjusted_Penalty>  (1) 
0

>  <r_epik_Ionization_Penalty>  (1) 
0

>  <r_epik_Ionization_Penalty_Charging>  (1) 
0

>  <r_epik_Ionization_Penalty_Neutral>  (1) 
0

>  <r_epik_State_Penalty>  (1) 
-0

>  <r_glide_ring_energy>  (1) 
0

>  <r_i_docking_score>  (1) 
-2.1279428860675571

>  <r_i_glide_ecoul>  (1) 
-2.2709975393301436

>  <r_i_glide_eff_state_penalty>  (1) 
-0

>  <r_i_glide_einternal>  (1) 
0.024134684983700083

>  <r_i_glide_emodel>  (1) 
-14.306616887217373

>  <r_i_glide_emodel_strain>  (1) 
0.051770550059134557

>  <r_i_glide_energy>  (1) 
-12.369665592084829

>  <r_i_glide_erotb>  (1) 
1.8998339649575009

>  <r_i_glide_esite>  (1) 
-0.054827684375029044

>  <r_i_glide_evdw>  (1) 
-10.098668052754684

>  <r_i_glide_gscore>  (1) 
-2.1279428860675571

>  <r_i_glide_gscore_strain>  (1) 
0

>  <r_i_glide_hbond>  (1) 
-0.32000000000000001

>  <r_i_glide_ligand_efficiency>  (1) 
-0.4255885772135114

>  <r_i_glide_ligand_efficiency_ln>  (1) 
-0.81547940877527847

>  <r_i_glide_ligand_efficiency_sa>  (1) 
-0.7277462302154627

>  <r_i_glide_lipo>  (1) 
-0.057378008182369954

>  <r_i_glide_metal>  (1) 
-0

>  <r_i_glide_rewards>  (1) 
-2.749988124930403

>  <r_lp_Energy>  (1) 
-0.092307

>  <r_lp_tautomer_probability>  (1) 
1

>  <s_epik_Chemistry_Notes>  (1) 
This compound has an ester and may undergo hydrolysis at high or low pH.

>  <s_epik_cmdline>  (1) 
J2VwaWtfcHl0aG9uJywgJy1waHQnLCAnMS4wJywgJy1waCcsICc3LjQnLCAnLXRuJywgJzgnLCAnLW1hJywgJzUwMCcsICctaW1hZScsICc8aW5maWxlLm1hZT4nLCAnLW9tYWUnLCAnPG91dGZpbGUubWFlPic=

>  <s_epik_input>  (1) 
W0NIM11PQyg9TylbQ0gzXQ==

>  <s_glide_docking_method>  (1) 
confgen

>  <s_i_glide_gridfile>  (1) 
gpcr_5ht2c_6bqh_protein_autoprepared_prepared

>  <s_lp_Force_Field>  (1) 
S-OPLS

>  <s_lp_Variant>  (1) 
Pocket2Mol_4-1

>  <s_m_source_file>  (1) 
generated_GPCR_5HT2C_ligand_Pocket2Mol_2026-06-23_prepared.sdf

>  <GenAI_Model>  (1) 
Pocket2Mol

>  <Protein>  (1) 
GPCR_5HT2C

$$$$
Pocket2Mol_31
     RDKit          3D

  0  0  0  0  0  0  0  0  0  0999 V3000
M  V30 BEGIN CTAB
M  V30 COUNTS 10 9 0 0 1
M  V30 BEGIN ATOM
M  V30 1 C 35.824036 34.699286 59.667774 0
M  V30 2 O 36.444855 35.932657 59.366903 0
M  V30 3 C 36.711267 33.541445 59.204976 0
M  V30 4 O 36.006102 32.332204 59.367331 0
M  V30 5 H 35.663929 34.628222 60.744428 0
M  V30 6 H 34.847034 34.658733 59.175349 0
M  V30 7 H 36.468965 36.014069 58.419070 0
M  V30 8 H 36.979283 33.648230 58.149865 0
M  V30 9 H 37.637489 33.521588 59.781895 0
M  V30 10 H 35.645125 32.134261 58.489063 0
M  V30 END ATOM
M  V30 BEGIN BOND
M  V30 1 1 2 1
M  V30 2 1 3 1
M  V30 3 1 4 3
M  V30 4 1 5 1
M  V30 5 1 6 1
M  V30 6 1 7 2
M  V30 7 1 8 3
M  V30 8 1 9 3
M  V30 9 1 10 4
M  V30 END BOND
M  V30 END CTAB
M  END
>  <i_epik_Tot_Q>  (1) 
0

>  <i_epik_Tot_abs_Q>  (1) 
0

>  <i_i_glide_confnum>  (1) 
3

>  <i_i_glide_lignum>  (1) 
32

>  <i_i_glide_posenum>  (1) 
215

>  <i_i_glide_rotatable_bonds>  (1) 
3

>  <i_lp_mmshare_version>  (1) 
72125

>  <i_m_source_file_index>  (1) 
32

>  <i_f3d_flags>  (1) 
0

>  <num_sample>  (1) 
50

>  <b_lp_Chiralities_Consistent>  (1) 
1

>  <r_epik_Charging_Adjusted_Penalty>  (1) 
0

>  <r_epik_Ionization_Penalty>  (1) 
1.0539797431440594e-07

>  <r_epik_Ionization_Penalty_Charging>  (1) 
0

>  <r_epik_Ionization_Penalty_Neutral>  (1) 
1.0539797431440594e-07

>  <r_epik_State_Penalty>  (1) 
-0

>  <r_glide_ring_energy>  (1) 
0

>  <r_i_docking_score>  (1) 
-1.9621781535702034

>  <r_i_glide_ecoul>  (1) 
-9.5917898144035796

>  <r_i_glide_eff_state_penalty>  (1) 
-0

>  <r_i_glide_einternal>  (1) 
0.7467085433616476

>  <r_i_glide_emodel>  (1) 
-15.731605813949576

>  <r_i_glide_emodel_strain>  (1) 
0.39570734268358004

>  <r_i_glide_energy>  (1) 
-14.208417613502043

>  <r_i_glide_erotb>  (1) 
2.43552256463113

>  <r_i_glide_esite>  (1) 
0

>  <r_i_glide_evdw>  (1) 
-4.6166277990984632

>  <r_i_glide_gscore>  (1) 
-1.9621781535702034

>  <r_i_glide_gscore_strain>  (1) 
0

>  <r_i_glide_hbond>  (1) 
-0.45599999999999996

>  <r_i_glide_ligand_efficiency>  (1) 
-0.49054453839255086

>  <r_i_glide_ligand_efficiency_ln>  (1) 
-0.82226995359003019

>  <r_i_glide_ligand_efficiency_sa>  (1) 
-0.77869091628159004

>  <r_i_glide_lipo>  (1) 
-0.022100856085873859

>  <r_i_glide_metal>  (1) 
-0

>  <r_i_glide_rewards>  (1) 
-2.25

>  <r_lp_Energy>  (1) 
2.5073979999999998

>  <r_lp_tautomer_probability>  (1) 
1

>  <s_epik_cmdline>  (1) 
J2VwaWtfcHl0aG9uJywgJy1waHQnLCAnMS4wJywgJy1waCcsICc3LjQnLCAnLXRuJywgJzgnLCAnLW1hJywgJzUwMCcsICctaW1hZScsICc8aW5maWxlLm1hZT4nLCAnLW9tYWUnLCAnPG91dGZpbGUubWFlPic=

>  <s_epik_input>  (1) 
W09IXVtDSDJdW0NIMl1bT0hd

>  <s_glide_docking_method>  (1) 
confgen

>  <s_i_glide_gridfile>  (1) 
gpcr_5ht2c_6bqh_protein_autoprepared_prepared

>  <s_lp_Force_Field>  (1) 
S-OPLS

>  <s_lp_Variant>  (1) 
Pocket2Mol_31-1

>  <s_m_source_file>  (1) 
generated_GPCR_5HT2C_ligand_Pocket2Mol_2026-06-23_prepared.sdf

>  <GenAI_Model>  (1) 
Pocket2Mol

>  <Protein>  (1) 
GPCR_5HT2C

$$$$
Pocket2Mol_4
     RDKit          3D

  0  0  0  0  0  0  0  0  0  0999 V3000
M  V30 BEGIN CTAB
M  V30 COUNTS 11 10 0 0 1
M  V30 BEGIN ATOM
M  V30 1 C 34.461901 33.337728 59.767817 0
M  V30 2 O 35.830014 33.583475 60.038684 0
M  V30 3 C 36.511034 32.733358 60.819229 0
M  V30 4 O 36.036913 31.737765 61.367744 0
M  V30 5 C 37.975585 33.118095 60.979022 0
M  V30 6 H 34.066469 34.113829 59.112749 0
M  V30 7 H 33.879086 33.337818 60.688654 0
M  V30 8 H 34.329401 32.374698 59.272524 0
M  V30 9 H 38.203509 34.024859 60.418016 0
M  V30 10 H 38.205047 33.293533 62.029864 0
M  V30 11 H 38.615789 32.315443 60.613435 0
M  V30 END ATOM
M  V30 BEGIN BOND
M  V30 1 1 2 1
M  V30 2 1 3 2
M  V30 3 2 4 3
M  V30 4 1 5 3
M  V30 5 1 6 1
M  V30 6 1 7 1
M  V30 7 1 8 1
M  V30 8 1 9 5
M  V30 9 1 10 5
M  V30 10 1 11 5
M  V30 END BOND
M  V30 END CTAB
M  END
>  <i_epik_Tot_Q>  (1) 
0

>  <i_epik_Tot_abs_Q>  (1) 
0

>  <i_i_glide_confnum>  (1) 
1

>  <i_i_glide_lignum>  (1) 
5

>  <i_i_glide_posenum>  (1) 
162

>  <i_i_glide_rotatable_bonds>  (1) 
1

>  <i_lp_mmshare_version>  (1) 
72125

>  <i_m_source_file_index>  (1) 
5

>  <i_f3d_flags>  (1) 
0

>  <num_sample>  (1) 
50

>  <b_lp_Chiralities_Consistent>  (1) 
1

>  <r_epik_Charging_Adjusted_Penalty>  (1) 
0

>  <r_epik_Ionization_Penalty>  (1) 
0

>  <r_epik_Ionization_Penalty_Charging>  (1) 
0

>  <r_epik_Ionization_Penalty_Neutral>  (1) 
0

>  <r_epik_State_Penalty>  (1) 
-0

>  <r_glide_ring_energy>  (1) 
0

>  <r_i_docking_score>  (1) 
-1.8854086785231425

>  <r_i_glide_ecoul>  (1) 
-2.4713683683132128

>  <r_i_glide_eff_state_penalty>  (1) 
-0

>  <r_i_glide_einternal>  (1) 
0.001954439323711088

>  <r_i_glide_emodel>  (1) 
-14.766832541341296

>  <r_i_glide_emodel_strain>  (1) 
0

>  <r_i_glide_energy>  (1) 
-12.995062323535493

>  <r_i_glide_erotb>  (1) 
1.8998339649575009

>  <r_i_glide_esite>  (1) 
0

>  <r_i_glide_evdw>  (1) 
-10.52369395522228

>  <r_i_glide_gscore>  (1) 
-1.8854086785231425

>  <r_i_glide_gscore_strain>  (1) 
0

>  <r_i_glide_hbond>  (1) 
-0.32000000000000001

>  <r_i_glide_ligand_efficiency>  (1) 
-0.3770817357046285

>  <r_i_glide_ligand_efficiency_ln>  (1) 
-0.722534408478959

>  <r_i_glide_ligand_efficiency_sa>  (1) 
-0.64480069798601414

>  <r_i_glide_lipo>  (1) 
-0.31199124475302076

>  <r_i_glide_metal>  (1) 
-0

>  <r_i_glide_rewards>  (1) 
-2.2563614457195267

>  <r_lp_Energy>  (1) 
-0.092307

>  <r_lp_tautomer_probability>  (1) 
1

>  <s_epik_Chemistry_Notes>  (1) 
This compound has an ester and may undergo hydrolysis at high or low pH.

>  <s_epik_cmdline>  (1) 
J2VwaWtfcHl0aG9uJywgJy1waHQnLCAnMS4wJywgJy1waCcsICc3LjQnLCAnLXRuJywgJzgnLCAnLW1hJywgJzUwMCcsICctaW1hZScsICc8aW5maWxlLm1hZT4nLCAnLW9tYWUnLCAnPG91dGZpbGUubWFlPic=

>  <s_epik_input>  (1) 
W0NIM11PQyg9TylbQ0gzXQ==

>  <s_glide_docking_method>  (1) 
confgen

>  <s_i_glide_gridfile>  (1) 
gpcr_5ht2c_6bqh_protein_autoprepared_prepared

>  <s_lp_Force_Field>  (1) 
S-OPLS

>  <s_lp_Variant>  (1) 
Pocket2Mol_4-1

>  <s_m_source_file>  (1) 
generated_GPCR_5HT2C_ligand_Pocket2Mol_2026-06-23_prepared.sdf

>  <GenAI_Model>  (1) 
Pocket2Mol

>  <Protein>  (1) 
GPCR_5HT2C

$$$$
Pocket2Mol_31
     RDKit          3D

  0  0  0  0  0  0  0  0  0  0999 V3000
M  V30 BEGIN CTAB
M  V30 COUNTS 10 9 0 0 1
M  V30 BEGIN ATOM
M  V30 1 C 40.189215 30.386455 50.631087 0
M  V30 2 O 40.045137 29.737754 49.387347 0
M  V30 3 C 39.553604 29.524946 51.730173 0
M  V30 4 O 39.645145 30.177819 52.978450 0
M  V30 5 H 41.250111 30.546244 50.828947 0
M  V30 6 H 39.715358 31.367235 50.574875 0
M  V30 7 H 39.122837 29.737755 49.146162 0
M  V30 8 H 38.503589 29.328727 51.510779 0
M  V30 9 H 40.056373 28.559490 51.797371 0
M  V30 10 H 39.244371 31.032387 52.915291 0
M  V30 END ATOM
M  V30 BEGIN BOND
M  V30 1 1 2 1
M  V30 2 1 3 1
M  V30 3 1 4 3
M  V30 4 1 5 1
M  V30 5 1 6 1
M  V30 6 1 7 2
M  V30 7 1 8 3
M  V30 8 1 9 3
M  V30 9 1 10 4
M  V30 END BOND
M  V30 END CTAB
M  END
>  <i_epik_Tot_Q>  (1) 
0

>  <i_epik_Tot_abs_Q>  (1) 
0

>  <i_i_glide_confnum>  (1) 
3

>  <i_i_glide_lignum>  (1) 
32

>  <i_i_glide_posenum>  (1) 
9

>  <i_i_glide_rotatable_bonds>  (1) 
3

>  <i_lp_mmshare_version>  (1) 
72125

>  <i_m_source_file_index>  (1) 
32

>  <i_f3d_flags>  (1) 
0

>  <num_sample>  (1) 
50

>  <b_lp_Chiralities_Consistent>  (1) 
1

>  <r_epik_Charging_Adjusted_Penalty>  (1) 
0

>  <r_epik_Ionization_Penalty>  (1) 
1.0539797431440594e-07

>  <r_epik_Ionization_Penalty_Charging>  (1) 
0

>  <r_epik_Ionization_Penalty_Neutral>  (1) 
1.0539797431440594e-07

>  <r_epik_State_Penalty>  (1) 
-0

>  <r_glide_ring_energy>  (1) 
0

>  <r_i_docking_score>  (1) 
-1.8177351383278353

>  <r_i_glide_ecoul>  (1) 
-3.927652973058374

>  <r_i_glide_eff_state_penalty>  (1) 
-0

>  <r_i_glide_einternal>  (1) 
0.068133950994596182

>  <r_i_glide_emodel>  (1) 
-14.699290170946247

>  <r_i_glide_emodel_strain>  (1) 
0

>  <r_i_glide_energy>  (1) 
-12.609848113062565

>  <r_i_glide_erotb>  (1) 
2.43552256463113

>  <r_i_glide_esite>  (1) 
0

>  <r_i_glide_evdw>  (1) 
-8.6821951400041915

>  <r_i_glide_gscore>  (1) 
-1.8177351383278353

>  <r_i_glide_gscore_strain>  (1) 
0

>  <r_i_glide_hbond>  (1) 
-0.32000000000000001

>  <r_i_glide_ligand_efficiency>  (1) 
-0.45443378458195882

>  <r_i_glide_ligand_efficiency_ln>  (1) 
-0.76173969479388537

>  <r_i_glide_ligand_efficiency_sa>  (1) 
-0.72136866769529162

>  <r_i_glide_lipo>  (1) 
-0.66000000000000003

>  <r_i_glide_metal>  (1) 
-0

>  <r_i_glide_rewards>  (1) 
-2.25

>  <r_lp_Energy>  (1) 
2.5073979999999998

>  <r_lp_tautomer_probability>  (1) 
1

>  <s_epik_cmdline>  (1) 
J2VwaWtfcHl0aG9uJywgJy1waHQnLCAnMS4wJywgJy1waCcsICc3LjQnLCAnLXRuJywgJzgnLCAnLW1hJywgJzUwMCcsICctaW1hZScsICc8aW5maWxlLm1hZT4nLCAnLW9tYWUnLCAnPG91dGZpbGUubWFlPic=

>  <s_epik_input>  (1) 
W09IXVtDSDJdW0NIMl1bT0hd

>  <s_glide_docking_method>  (1) 
confgen

>  <s_i_glide_gridfile>  (1) 
gpcr_5ht2c_6bqh_protein_autoprepared_prepared

>  <s_lp_Force_Field>  (1) 
S-OPLS

>  <s_lp_Variant>  (1) 
Pocket2Mol_31-1

>  <s_m_source_file>  (1) 
generated_GPCR_5HT2C_ligand_Pocket2Mol_2026-06-23_prepared.sdf

>  <GenAI_Model>  (1) 
Pocket2Mol

>  <Protein>  (1) 
GPCR_5HT2C

$$$$
Pocket2Mol_31
     RDKit          3D

  0  0  0  0  0  0  0  0  0  0999 V3000
M  V30 BEGIN CTAB
M  V30 COUNTS 10 9 0 0 1
M  V30 BEGIN ATOM
M  V30 1 C 40.165829 30.512850 50.605782 0
M  V30 2 O 40.045137 29.737740 49.434132 0
M  V30 3 C 39.651688 29.701281 51.801966 0
M  V30 4 O 39.645129 30.497962 52.967733 0
M  V30 5 H 41.211684 30.788744 50.746800 0
M  V30 6 H 39.600357 31.436788 50.480060 0
M  V30 7 H 39.128036 29.732544 49.174068 0
M  V30 8 H 38.639436 29.337726 51.620658 0
M  V30 9 H 40.280806 28.825822 51.963222 0
M  V30 10 H 40.504062 30.871046 53.094876 0
M  V30 END ATOM
M  V30 BEGIN BOND
M  V30 1 1 2 1
M  V30 2 1 3 1
M  V30 3 1 4 3
M  V30 4 1 5 1
M  V30 5 1 6 1
M  V30 6 1 7 2
M  V30 7 1 8 3
M  V30 8 1 9 3
M  V30 9 1 10 4
M  V30 END BOND
M  V30 END CTAB
M  END
>  <i_epik_Tot_Q>  (1) 
0

>  <i_epik_Tot_abs_Q>  (1) 
0

>  <i_i_glide_confnum>  (1) 
3

>  <i_i_glide_lignum>  (1) 
32

>  <i_i_glide_posenum>  (1) 
127

>  <i_i_glide_rotatable_bonds>  (1) 
3

>  <i_lp_mmshare_version>  (1) 
72125

>  <i_m_source_file_index>  (1) 
32

>  <i_f3d_flags>  (1) 
0

>  <num_sample>  (1) 
50

>  <b_lp_Chiralities_Consistent>  (1) 
1

>  <r_epik_Charging_Adjusted_Penalty>  (1) 
0

>  <r_epik_Ionization_Penalty>  (1) 
1.0539797431440594e-07

>  <r_epik_Ionization_Penalty_Charging>  (1) 
0

>  <r_epik_Ionization_Penalty_Neutral>  (1) 
1.0539797431440594e-07

>  <r_epik_State_Penalty>  (1) 
-0

>  <r_glide_ring_energy>  (1) 
0

>  <r_i_docking_score>  (1) 
-1.8038696358757615

>  <r_i_glide_ecoul>  (1) 
-3.7685972821658011

>  <r_i_glide_eff_state_penalty>  (1) 
-0

>  <r_i_glide_einternal>  (1) 
0.34706772370264471

>  <r_i_glide_emodel>  (1) 
-14.584211109973348

>  <r_i_glide_emodel_strain>  (1) 
0.00021559211706734249

>  <r_i_glide_energy>  (1) 
-12.650649445806225

>  <r_i_glide_erotb>  (1) 
2.43552256463113

>  <r_i_glide_esite>  (1) 
0

>  <r_i_glide_evdw>  (1) 
-8.8820521636404237

>  <r_i_glide_gscore>  (1) 
-1.8038696358757615

>  <r_i_glide_gscore_strain>  (1) 
0

>  <r_i_glide_hbond>  (1) 
-0.32000000000000001

>  <r_i_glide_ligand_efficiency>  (1) 
-0.45096740896894039

>  <r_i_glide_ligand_efficiency_ln>  (1) 
-0.75592922032854459

>  <r_i_glide_ligand_efficiency_sa>  (1) 
-0.71586613940066923

>  <r_i_glide_lipo>  (1) 
-0.66000000000000003

>  <r_i_glide_metal>  (1) 
-0

>  <r_i_glide_rewards>  (1) 
-2.25

>  <r_lp_Energy>  (1) 
2.5073979999999998

>  <r_lp_tautomer_probability>  (1) 
1

>  <s_epik_cmdline>  (1) 
J2VwaWtfcHl0aG9uJywgJy1waHQnLCAnMS4wJywgJy1waCcsICc3LjQnLCAnLXRuJywgJzgnLCAnLW1hJywgJzUwMCcsICctaW1hZScsICc8aW5maWxlLm1hZT4nLCAnLW9tYWUnLCAnPG91dGZpbGUubWFlPic=

>  <s_epik_input>  (1) 
W09IXVtDSDJdW0NIMl1bT0hd

>  <s_glide_docking_method>  (1) 
confgen

>  <s_i_glide_gridfile>  (1) 
gpcr_5ht2c_6bqh_protein_autoprepared_prepared

>  <s_lp_Force_Field>  (1) 
S-OPLS

>  <s_lp_Variant>  (1) 
Pocket2Mol_31-1

>  <s_m_source_file>  (1) 
generated_GPCR_5HT2C_ligand_Pocket2Mol_2026-06-23_prepared.sdf

>  <GenAI_Model>  (1) 
Pocket2Mol

>  <Protein>  (1) 
GPCR_5HT2C

$$$$
Pocket2Mol_4
     RDKit          3D

  0  0  0  0  0  0  0  0  0  0999 V3000
M  V30 BEGIN CTAB
M  V30 COUNTS 11 10 0 0 1
M  V30 BEGIN ATOM
M  V30 1 C 34.848278 33.337738 60.445728 0
M  V30 2 O 35.277572 32.173649 59.767764 0
M  V30 3 C 36.271397 31.437963 60.278980 0
M  V30 4 O 36.811448 31.634678 61.367722 0
M  V30 5 C 36.693196 30.293722 59.367532 0
M  V30 6 H 34.025632 33.793983 59.896414 0
M  V30 7 H 35.660460 34.062293 60.512153 0
M  V30 8 H 34.500651 33.109737 61.454794 0
M  V30 9 H 36.090409 30.276186 58.459701 0
M  V30 10 H 37.739571 30.405745 59.085481 0
M  V30 11 H 36.569535 29.338144 59.871155 0
M  V30 END ATOM
M  V30 BEGIN BOND
M  V30 1 1 2 1
M  V30 2 1 3 2
M  V30 3 2 4 3
M  V30 4 1 5 3
M  V30 5 1 6 1
M  V30 6 1 7 1
M  V30 7 1 8 1
M  V30 8 1 9 5
M  V30 9 1 10 5
M  V30 10 1 11 5
M  V30 END BOND
M  V30 END CTAB
M  END
>  <i_epik_Tot_Q>  (1) 
0

>  <i_epik_Tot_abs_Q>  (1) 
0

>  <i_i_glide_confnum>  (1) 
1

>  <i_i_glide_lignum>  (1) 
5

>  <i_i_glide_posenum>  (1) 
221

>  <i_i_glide_rotatable_bonds>  (1) 
1

>  <i_lp_mmshare_version>  (1) 
72125

>  <i_m_source_file_index>  (1) 
5

>  <i_f3d_flags>  (1) 
0

>  <num_sample>  (1) 
50

>  <b_lp_Chiralities_Consistent>  (1) 
1

>  <r_epik_Charging_Adjusted_Penalty>  (1) 
0

>  <r_epik_Ionization_Penalty>  (1) 
0

>  <r_epik_Ionization_Penalty_Charging>  (1) 
0

>  <r_epik_Ionization_Penalty_Neutral>  (1) 
0

>  <r_epik_State_Penalty>  (1) 
-0

>  <r_glide_ring_energy>  (1) 
0

>  <r_i_docking_score>  (1) 
-1.7357231945313418

>  <r_i_glide_ecoul>  (1) 
-1.9688813707675603

>  <r_i_glide_eff_state_penalty>  (1) 
-0

>  <r_i_glide_einternal>  (1) 
0.14681441810051887

>  <r_i_glide_emodel>  (1) 
-13.720334909649051

>  <r_i_glide_emodel_strain>  (1) 
0

>  <r_i_glide_energy>  (1) 
-12.161735816665708

>  <r_i_glide_erotb>  (1) 
1.8998339649575009

>  <r_i_glide_esite>  (1) 
-0.071375416934443145

>  <r_i_glide_evdw>  (1) 
-10.192854445898147

>  <r_i_glide_gscore>  (1) 
-1.7357231945313418

>  <r_i_glide_gscore_strain>  (1) 
0

>  <r_i_glide_hbond>  (1) 
-0.32000000000000001

>  <r_i_glide_ligand_efficiency>  (1) 
-0.34714463890626834

>  <r_i_glide_ligand_efficiency_ln>  (1) 
-0.66517129465335623

>  <r_i_glide_ligand_efficiency_sa>  (1) 
-0.5936089825474864

>  <r_i_glide_lipo>  (1) 
-0.18949682698603737

>  <r_i_glide_metal>  (1) 
-0

>  <r_i_glide_rewards>  (1) 
-2.2497099876583206

>  <r_lp_Energy>  (1) 
-0.092307

>  <r_lp_tautomer_probability>  (1) 
1

>  <s_epik_Chemistry_Notes>  (1) 
This compound has an ester and may undergo hydrolysis at high or low pH.

>  <s_epik_cmdline>  (1) 
J2VwaWtfcHl0aG9uJywgJy1waHQnLCAnMS4wJywgJy1waCcsICc3LjQnLCAnLXRuJywgJzgnLCAnLW1hJywgJzUwMCcsICctaW1hZScsICc8aW5maWxlLm1hZT4nLCAnLW9tYWUnLCAnPG91dGZpbGUubWFlPic=

>  <s_epik_input>  (1) 
W0NIM11PQyg9TylbQ0gzXQ==

>  <s_glide_docking_method>  (1) 
confgen

>  <s_i_glide_gridfile>  (1) 
gpcr_5ht2c_6bqh_protein_autoprepared_prepared

>  <s_lp_Force_Field>  (1) 
S-OPLS

>  <s_lp_Variant>  (1) 
Pocket2Mol_4-1

>  <s_m_source_file>  (1) 
generated_GPCR_5HT2C_ligand_Pocket2Mol_2026-06-23_prepared.sdf

>  <GenAI_Model>  (1) 
Pocket2Mol

>  <Protein>  (1) 
GPCR_5HT2C

$$$$
Pocket2Mol_4
     RDKit          3D

  0  0  0  0  0  0  0  0  0  0999 V3000
M  V30 BEGIN CTAB
M  V30 COUNTS 11 10 0 0 1
M  V30 BEGIN ATOM
M  V30 1 C 36.082138 34.137478 60.258752 0
M  V30 2 O 36.527345 32.951512 59.625212 0
M  V30 3 C 36.371813 31.771657 60.240196 0
M  V30 4 O 35.900935 31.616323 61.367761 0
M  V30 5 C 36.847941 30.594692 59.397752 0
M  V30 6 H 36.283584 34.998297 59.620685 0
M  V30 7 H 36.597530 34.288086 61.207947 0
M  V30 8 H 35.008208 34.097453 60.445712 0
M  V30 9 H 37.227771 30.937188 58.433790 0
M  V30 10 H 37.641759 30.058739 59.916710 0
M  V30 11 H 36.021385 29.907812 59.217445 0
M  V30 END ATOM
M  V30 BEGIN BOND
M  V30 1 1 2 1
M  V30 2 1 3 2
M  V30 3 2 4 3
M  V30 4 1 5 3
M  V30 5 1 6 1
M  V30 6 1 7 1
M  V30 7 1 8 1
M  V30 8 1 9 5
M  V30 9 1 10 5
M  V30 10 1 11 5
M  V30 END BOND
M  V30 END CTAB
M  END
>  <i_epik_Tot_Q>  (1) 
0

>  <i_epik_Tot_abs_Q>  (1) 
0

>  <i_i_glide_confnum>  (1) 
1

>  <i_i_glide_lignum>  (1) 
5

>  <i_i_glide_posenum>  (1) 
187

>  <i_i_glide_rotatable_bonds>  (1) 
1

>  <i_lp_mmshare_version>  (1) 
72125

>  <i_m_source_file_index>  (1) 
5

>  <i_f3d_flags>  (1) 
0

>  <num_sample>  (1) 
50

>  <b_lp_Chiralities_Consistent>  (1) 
1

>  <r_epik_Charging_Adjusted_Penalty>  (1) 
0

>  <r_epik_Ionization_Penalty>  (1) 
0

>  <r_epik_Ionization_Penalty_Charging>  (1) 
0

>  <r_epik_Ionization_Penalty_Neutral>  (1) 
0

>  <r_epik_State_Penalty>  (1) 
-0

>  <r_glide_ring_energy>  (1) 
0

>  <r_i_docking_score>  (1) 
-1.7334380645660443

>  <r_i_glide_ecoul>  (1) 
-2.6637677665625179

>  <r_i_glide_eff_state_penalty>  (1) 
-0

>  <r_i_glide_einternal>  (1) 
0.023377357277754363

>  <r_i_glide_emodel>  (1) 
-13.919397041659924

>  <r_i_glide_emodel_strain>  (1) 
0

>  <r_i_glide_energy>  (1) 
-12.30122800193112

>  <r_i_glide_erotb>  (1) 
1.8998339649575009

>  <r_i_glide_esite>  (1) 
-0.06742886149239101

>  <r_i_glide_evdw>  (1) 
-9.6374602353686019

>  <r_i_glide_gscore>  (1) 
-1.7334380645660443

>  <r_i_glide_gscore_strain>  (1) 
0

>  <r_i_glide_hbond>  (1) 
-0.32000000000000001

>  <r_i_glide_ligand_efficiency>  (1) 
-0.34668761291320888

>  <r_i_glide_ligand_efficiency_ln>  (1) 
-0.66429557733722133

>  <r_i_glide_ligand_efficiency_sa>  (1) 
-0.59282747909234856

>  <r_i_glide_lipo>  (1) 
-0.11442594856820118

>  <r_i_glide_metal>  (1) 
-0

>  <r_i_glide_rewards>  (1) 
-2.2499790427101454

>  <r_lp_Energy>  (1) 
-0.092307

>  <r_lp_tautomer_probability>  (1) 
1

>  <s_epik_Chemistry_Notes>  (1) 
This compound has an ester and may undergo hydrolysis at high or low pH.

>  <s_epik_cmdline>  (1) 
J2VwaWtfcHl0aG9uJywgJy1waHQnLCAnMS4wJywgJy1waCcsICc3LjQnLCAnLXRuJywgJzgnLCAnLW1hJywgJzUwMCcsICctaW1hZScsICc8aW5maWxlLm1hZT4nLCAnLW9tYWUnLCAnPG91dGZpbGUubWFlPic=

>  <s_epik_input>  (1) 
W0NIM11PQyg9TylbQ0gzXQ==

>  <s_glide_docking_method>  (1) 
confgen

>  <s_i_glide_gridfile>  (1) 
gpcr_5ht2c_6bqh_protein_autoprepared_prepared

>  <s_lp_Force_Field>  (1) 
S-OPLS

>  <s_lp_Variant>  (1) 
Pocket2Mol_4-1

>  <s_m_source_file>  (1) 
generated_GPCR_5HT2C_ligand_Pocket2Mol_2026-06-23_prepared.sdf

>  <GenAI_Model>  (1) 
Pocket2Mol

>  <Protein>  (1) 
GPCR_5HT2C

$$$$
Pocket2Mol_31
     RDKit          3D

  0  0  0  0  0  0  0  0  0  0999 V3000
M  V30 BEGIN CTAB
M  V30 COUNTS 10 9 0 0 1
M  V30 BEGIN ATOM
M  V30 1 C 39.141206 27.840133 51.205967 0
M  V30 2 O 39.184589 27.337753 52.523684 0
M  V30 3 C 40.043927 29.077118 51.091642 0
M  V30 4 O 40.045137 29.563253 49.767759 0
M  V30 5 H 39.455676 27.056673 50.515147 0
M  V30 6 H 38.107890 28.094003 50.967762 0
M  V30 7 H 40.045054 26.984691 52.688268 0
M  V30 8 H 39.701929 29.866753 51.762018 0
M  V30 9 H 41.070648 28.835601 51.367780 0
M  V30 10 H 39.149783 29.737755 49.498311 0
M  V30 END ATOM
M  V30 BEGIN BOND
M  V30 1 1 2 1
M  V30 2 1 3 1
M  V30 3 1 4 3
M  V30 4 1 5 1
M  V30 5 1 6 1
M  V30 6 1 7 2
M  V30 7 1 8 3
M  V30 8 1 9 3
M  V30 9 1 10 4
M  V30 END BOND
M  V30 END CTAB
M  END
>  <i_epik_Tot_Q>  (1) 
0

>  <i_epik_Tot_abs_Q>  (1) 
0

>  <i_i_glide_confnum>  (1) 
3

>  <i_i_glide_lignum>  (1) 
32

>  <i_i_glide_posenum>  (1) 
198

>  <i_i_glide_rotatable_bonds>  (1) 
3

>  <i_lp_mmshare_version>  (1) 
72125

>  <i_m_source_file_index>  (1) 
32

>  <i_f3d_flags>  (1) 
0

>  <num_sample>  (1) 
50

>  <b_lp_Chiralities_Consistent>  (1) 
1

>  <r_epik_Charging_Adjusted_Penalty>  (1) 
0

>  <r_epik_Ionization_Penalty>  (1) 
1.0539797431440594e-07

>  <r_epik_Ionization_Penalty_Charging>  (1) 
0

>  <r_epik_Ionization_Penalty_Neutral>  (1) 
1.0539797431440594e-07

>  <r_epik_State_Penalty>  (1) 
-0

>  <r_glide_ring_energy>  (1) 
0

>  <r_i_docking_score>  (1) 
-1.6237651640711315

>  <r_i_glide_ecoul>  (1) 
-1.9113026209183792

>  <r_i_glide_eff_state_penalty>  (1) 
-0

>  <r_i_glide_einternal>  (1) 
0.57164588367952829

>  <r_i_glide_emodel>  (1) 
-14.374236408385052

>  <r_i_glide_emodel_strain>  (1) 
0

>  <r_i_glide_energy>  (1) 
-12.763149332208473

>  <r_i_glide_erotb>  (1) 
2.43552256463113

>  <r_i_glide_esite>  (1) 
0

>  <r_i_glide_evdw>  (1) 
-10.851846711290094

>  <r_i_glide_gscore>  (1) 
-1.6237651640711315

>  <r_i_glide_gscore_strain>  (1) 
0

>  <r_i_glide_hbond>  (1) 
-0.32000000000000001

>  <r_i_glide_ligand_efficiency>  (1) 
-0.40594129101778287

>  <r_i_glide_ligand_efficiency_ln>  (1) 
-0.68045467924128877

>  <r_i_glide_ligand_efficiency_sa>  (1) 
-0.64439163239895747

>  <r_i_glide_lipo>  (1) 
-0.66000000000000003

>  <r_i_glide_metal>  (1) 
-0

>  <r_i_glide_rewards>  (1) 
-2.25

>  <r_lp_Energy>  (1) 
2.5073979999999998

>  <r_lp_tautomer_probability>  (1) 
1

>  <s_epik_cmdline>  (1) 
J2VwaWtfcHl0aG9uJywgJy1waHQnLCAnMS4wJywgJy1waCcsICc3LjQnLCAnLXRuJywgJzgnLCAnLW1hJywgJzUwMCcsICctaW1hZScsICc8aW5maWxlLm1hZT4nLCAnLW9tYWUnLCAnPG91dGZpbGUubWFlPic=

>  <s_epik_input>  (1) 
W09IXVtDSDJdW0NIMl1bT0hd

>  <s_glide_docking_method>  (1) 
confgen

>  <s_i_glide_gridfile>  (1) 
gpcr_5ht2c_6bqh_protein_autoprepared_prepared

>  <s_lp_Force_Field>  (1) 
S-OPLS

>  <s_lp_Variant>  (1) 
Pocket2Mol_31-1

>  <s_m_source_file>  (1) 
generated_GPCR_5HT2C_ligand_Pocket2Mol_2026-06-23_prepared.sdf

>  <GenAI_Model>  (1) 
Pocket2Mol

>  <Protein>  (1) 
GPCR_5HT2C

$$$$
Pocket2Mol_31
     RDKit          3D

  0  0  0  0  0  0  0  0  0  0999 V3000
M  V30 BEGIN CTAB
M  V30 COUNTS 10 9 0 0 1
M  V30 BEGIN ATOM
M  V30 1 C 35.773809 33.150252 60.896286 0
M  V30 2 O 35.645130 31.743755 60.967760 0
M  V30 3 C 35.862869 33.603525 59.430856 0
M  V30 4 O 36.044745 35.003449 59.367584 0
M  V30 5 H 34.915733 33.612349 61.386016 0
M  V30 6 H 36.664043 33.451545 61.449864 0
M  V30 7 H 35.004336 31.473314 60.325695 0
M  V30 8 H 36.692825 33.113582 58.919687 0
M  V30 9 H 34.949689 33.339901 58.896528 0
M  V30 10 H 36.045170 35.265089 58.454085 0
M  V30 END ATOM
M  V30 BEGIN BOND
M  V30 1 1 2 1
M  V30 2 1 3 1
M  V30 3 1 4 3
M  V30 4 1 5 1
M  V30 5 1 6 1
M  V30 6 1 7 2
M  V30 7 1 8 3
M  V30 8 1 9 3
M  V30 9 1 10 4
M  V30 END BOND
M  V30 END CTAB
M  END
>  <i_epik_Tot_Q>  (1) 
0

>  <i_epik_Tot_abs_Q>  (1) 
0

>  <i_i_glide_confnum>  (1) 
1

>  <i_i_glide_lignum>  (1) 
32

>  <i_i_glide_posenum>  (1) 
285

>  <i_i_glide_rotatable_bonds>  (1) 
3

>  <i_lp_mmshare_version>  (1) 
72125

>  <i_m_source_file_index>  (1) 
32

>  <i_f3d_flags>  (1) 
0

>  <num_sample>  (1) 
50

>  <b_lp_Chiralities_Consistent>  (1) 
1

>  <r_epik_Charging_Adjusted_Penalty>  (1) 
0

>  <r_epik_Ionization_Penalty>  (1) 
1.0539797431440594e-07

>  <r_epik_Ionization_Penalty_Charging>  (1) 
0

>  <r_epik_Ionization_Penalty_Neutral>  (1) 
1.0539797431440594e-07

>  <r_epik_State_Penalty>  (1) 
-0

>  <r_glide_ring_energy>  (1) 
0

>  <r_i_docking_score>  (1) 
-1.4119961101586451

>  <r_i_glide_ecoul>  (1) 
-4.3190240889167146

>  <r_i_glide_eff_state_penalty>  (1) 
-0

>  <r_i_glide_einternal>  (1) 
0.68179377420482423

>  <r_i_glide_emodel>  (1) 
-13.604843586261332

>  <r_i_glide_emodel_strain>  (1) 
0.00045807450261498017

>  <r_i_glide_energy>  (1) 
-12.296680732097581

>  <r_i_glide_erotb>  (1) 
2.43552256463113

>  <r_i_glide_esite>  (1) 
0

>  <r_i_glide_evdw>  (1) 
-7.9776566431808673

>  <r_i_glide_gscore>  (1) 
-1.4119961101586451

>  <r_i_glide_gscore_strain>  (1) 
0

>  <r_i_glide_hbond>  (1) 
-0.38286552858033412

>  <r_i_glide_ligand_efficiency>  (1) 
-0.35299902753966128

>  <r_i_glide_ligand_efficiency_ln>  (1) 
-0.59171078520924536

>  <r_i_glide_ligand_efficiency_sa>  (1) 
-0.56035102766020972

>  <r_i_glide_lipo>  (1) 
-0.16791670071289067

>  <r_i_glide_metal>  (1) 
-0

>  <r_i_glide_rewards>  (1) 
-2.25

>  <r_lp_Energy>  (1) 
2.5073979999999998

>  <r_lp_tautomer_probability>  (1) 
1

>  <s_epik_cmdline>  (1) 
J2VwaWtfcHl0aG9uJywgJy1waHQnLCAnMS4wJywgJy1waCcsICc3LjQnLCAnLXRuJywgJzgnLCAnLW1hJywgJzUwMCcsICctaW1hZScsICc8aW5maWxlLm1hZT4nLCAnLW9tYWUnLCAnPG91dGZpbGUubWFlPic=

>  <s_epik_input>  (1) 
W09IXVtDSDJdW0NIMl1bT0hd

>  <s_glide_docking_method>  (1) 
confgen

>  <s_i_glide_gridfile>  (1) 
gpcr_5ht2c_6bqh_protein_autoprepared_prepared

>  <s_lp_Force_Field>  (1) 
S-OPLS

>  <s_lp_Variant>  (1) 
Pocket2Mol_31-1

>  <s_m_source_file>  (1) 
generated_GPCR_5HT2C_ligand_Pocket2Mol_2026-06-23_prepared.sdf

>  <GenAI_Model>  (1) 
Pocket2Mol

>  <Protein>  (1) 
GPCR_5HT2C

$$$$
