Pocket2Mol_27_num_sample_50
     RDKit          3D

  0  0  0  0  0  0  0  0  0  0999 V3000
M  V30 BEGIN CTAB
M  V30 COUNTS 13 13 0 0 1
M  V30 BEGIN ATOM
M  V30 1 C 39.061637 29.319716 53.174231 0
M  V30 2 C 39.867403 30.295612 52.553283 0
M  V30 3 C 38.657308 28.177429 52.454523 0
M  V30 4 C 40.267405 30.129172 51.213146 0
M  V30 5 O 37.867419 27.237456 53.052811 0
M  V30 6 C 39.867403 28.985651 50.496000 0
M  V30 7 C 39.065007 28.008765 51.116215 0
M  V30 8 H 38.750692 29.449590 54.200636 0
M  V30 9 H 40.175051 31.172955 53.103999 0
M  V30 10 H 40.882575 30.878784 50.735940 0
M  V30 11 H 37.438627 26.661439 52.432812 0
M  V30 12 H 40.174647 28.858539 49.468540 0
M  V30 13 H 38.757898 27.132612 50.563351 0
M  V30 END ATOM
M  V30 BEGIN BOND
M  V30 1 1 2 1
M  V30 2 2 3 1
M  V30 3 2 4 2
M  V30 4 1 5 3
M  V30 5 1 6 4
M  V30 6 1 7 3
M  V30 7 2 7 6
M  V30 8 1 8 1
M  V30 9 1 9 2
M  V30 10 1 10 4
M  V30 11 1 11 5
M  V30 12 1 12 6
M  V30 13 1 13 7
M  V30 END BOND
M  V30 END CTAB
M  END
>  <i_epik_Tot_Q>  (1) 
0

>  <i_epik_Tot_abs_Q>  (1) 
0

>  <i_i_glide_confnum>  (1) 
1

>  <i_i_glide_lignum>  (1) 
28

>  <i_i_glide_posenum>  (1) 
345

>  <i_i_glide_rotatable_bonds>  (1) 
1

>  <i_lp_mmshare_version>  (1) 
72125

>  <i_m_source_file_index>  (1) 
28

>  <i_f3d_flags>  (1) 
0

>  <num_sample>  (1) 
50

>  <b_lp_Chiralities_Consistent>  (1) 
1

>  <r_epik_Charging_Adjusted_Penalty>  (1) 
0

>  <r_epik_Ionization_Penalty>  (1) 
0.0022482968708945868

>  <r_epik_Ionization_Penalty_Charging>  (1) 
0

>  <r_epik_Ionization_Penalty_Neutral>  (1) 
0.0022482968708945868

>  <r_epik_State_Penalty>  (1) 
-0

>  <r_glide_ring_energy>  (1) 
0

>  <r_i_docking_score>  (1) 
-5.9986207999382151

>  <r_i_glide_ecoul>  (1) 
-2.9012918298694994

>  <r_i_glide_eff_state_penalty>  (1) 
-0

>  <r_i_glide_einternal>  (1) 
0.28634095485855876

>  <r_i_glide_emodel>  (1) 
-26.527280966898061

>  <r_i_glide_emodel_strain>  (1) 
0.0069628268382047054

>  <r_i_glide_energy>  (1) 
-19.645823925143727

>  <r_i_glide_erotb>  (1) 
0

>  <r_i_glide_esite>  (1) 
0

>  <r_i_glide_evdw>  (1) 
-16.744532095274227

>  <r_i_glide_gscore>  (1) 
-5.9986207999382151

>  <r_i_glide_gscore_strain>  (1) 
0

>  <r_i_glide_hbond>  (1) 
-0.2272250611733555

>  <r_i_glide_ligand_efficiency>  (1) 
-0.85694582856260215

>  <r_i_glide_ligand_efficiency_ln>  (1) 
-2.036253821883141

>  <r_i_glide_ligand_efficiency_sa>  (1) 
-1.6392783974041236

>  <r_i_glide_lipo>  (1) 
-1.8726555394442057

>  <r_i_glide_metal>  (1) 
-0

>  <r_i_glide_rewards>  (1) 
-2.6263198200765174

>  <r_lp_Energy>  (1) 
6.6738649999999993

>  <r_lp_tautomer_probability>  (1) 
1

>  <s_epik_cmdline>  (1) 
J2VwaWtfcHl0aG9uJywgJy1waHQnLCAnMS4wJywgJy1waCcsICc3LjQnLCAnLXRuJywgJzgnLCAnLW1hJywgJzUwMCcsICctaW1hZScsICc8aW5maWxlLm1hZT4nLCAnLW9tYWUnLCAnPG91dGZpbGUubWFlPic=

>  <s_epik_input>  (1) 
W09IXWMxW2NIXVtjSF1bY0hdW2NIXVtjSF0x

>  <s_glide_docking_method>  (1) 
confgen

>  <s_i_glide_gridfile>  (1) 
gpcr_5ht2c_6bqh_protein_autoprepared_prepared

>  <s_lp_Force_Field>  (1) 
S-OPLS

>  <s_lp_Variant>  (1) 
Pocket2Mol_27_num_sample_50-1

>  <s_m_source_file>  (1) 
generated__ligand_Pocket2Mol_2026-05-06_prepared.sdf

>  <GenAI_Model>  (1) 
Pocket2Mol

>  <Protein>  (1) 
GPCR_5HT2C

$$$$
Pocket2Mol_27_num_sample_50
     RDKit          3D

  0  0  0  0  0  0  0  0  0  0999 V3000
M  V30 BEGIN CTAB
M  V30 COUNTS 13 13 0 0 1
M  V30 BEGIN ATOM
M  V30 1 C 39.064935 28.020705 51.114921 0
M  V30 2 C 39.867403 28.995647 50.492015 0
M  V30 3 C 38.657325 28.193233 52.452728 0
M  V30 4 C 40.267403 30.141204 51.205884 0
M  V30 5 O 37.867404 27.255256 53.053446 0
M  V30 6 C 39.867403 30.311488 52.545601 0
M  V30 7 C 39.061962 29.337372 53.169374 0
M  V30 8 H 38.757740 27.143046 50.564520 0
M  V30 9 H 40.174829 28.865519 49.465038 0
M  V30 10 H 40.882655 30.889400 50.726511 0
M  V30 11 H 37.433843 26.680948 52.435175 0
M  V30 12 H 40.175289 31.190263 53.093735 0
M  V30 13 H 38.751255 29.470198 54.195545 0
M  V30 END ATOM
M  V30 BEGIN BOND
M  V30 1 1 2 1
M  V30 2 2 3 1
M  V30 3 2 4 2
M  V30 4 1 5 3
M  V30 5 1 6 4
M  V30 6 1 7 3
M  V30 7 2 7 6
M  V30 8 1 8 1
M  V30 9 1 9 2
M  V30 10 1 10 4
M  V30 11 1 11 5
M  V30 12 1 12 6
M  V30 13 1 13 7
M  V30 END BOND
M  V30 END CTAB
M  END
>  <i_epik_Tot_Q>  (1) 
0

>  <i_epik_Tot_abs_Q>  (1) 
0

>  <i_i_glide_confnum>  (1) 
1

>  <i_i_glide_lignum>  (1) 
28

>  <i_i_glide_posenum>  (1) 
315

>  <i_i_glide_rotatable_bonds>  (1) 
1

>  <i_lp_mmshare_version>  (1) 
72125

>  <i_m_source_file_index>  (1) 
28

>  <i_f3d_flags>  (1) 
0

>  <num_sample>  (1) 
50

>  <b_lp_Chiralities_Consistent>  (1) 
1

>  <r_epik_Charging_Adjusted_Penalty>  (1) 
0

>  <r_epik_Ionization_Penalty>  (1) 
0.0022482968708945868

>  <r_epik_Ionization_Penalty_Charging>  (1) 
0

>  <r_epik_Ionization_Penalty_Neutral>  (1) 
0.0022482968708945868

>  <r_epik_State_Penalty>  (1) 
-0

>  <r_glide_ring_energy>  (1) 
0

>  <r_i_docking_score>  (1) 
-5.9943427738729973

>  <r_i_glide_ecoul>  (1) 
-2.9008118808957541

>  <r_i_glide_eff_state_penalty>  (1) 
-0

>  <r_i_glide_einternal>  (1) 
0.41636545801577834

>  <r_i_glide_emodel>  (1) 
-26.466042705644725

>  <r_i_glide_emodel_strain>  (1) 
0.0090647720665897324

>  <r_i_glide_energy>  (1) 
-19.656714567874829

>  <r_i_glide_erotb>  (1) 
0

>  <r_i_glide_esite>  (1) 
0

>  <r_i_glide_evdw>  (1) 
-16.755902686979073

>  <r_i_glide_gscore>  (1) 
-5.9943427738729973

>  <r_i_glide_gscore_strain>  (1) 
0

>  <r_i_glide_hbond>  (1) 
-0.22575696783620253

>  <r_i_glide_ligand_efficiency>  (1) 
-0.8563346819818568

>  <r_i_glide_ligand_efficiency_ln>  (1) 
-2.0348016302517737

>  <r_i_glide_ligand_efficiency_sa>  (1) 
-1.638109316052571

>  <r_i_glide_lipo>  (1) 
-1.8702607925840233

>  <r_i_glide_metal>  (1) 
-0

>  <r_i_glide_rewards>  (1) 
-2.6254080969694549

>  <r_lp_Energy>  (1) 
6.6738649999999993

>  <r_lp_tautomer_probability>  (1) 
1

>  <s_epik_cmdline>  (1) 
J2VwaWtfcHl0aG9uJywgJy1waHQnLCAnMS4wJywgJy1waCcsICc3LjQnLCAnLXRuJywgJzgnLCAnLW1hJywgJzUwMCcsICctaW1hZScsICc8aW5maWxlLm1hZT4nLCAnLW9tYWUnLCAnPG91dGZpbGUubWFlPic=

>  <s_epik_input>  (1) 
W09IXWMxW2NIXVtjSF1bY0hdW2NIXVtjSF0x

>  <s_glide_docking_method>  (1) 
confgen

>  <s_i_glide_gridfile>  (1) 
gpcr_5ht2c_6bqh_protein_autoprepared_prepared

>  <s_lp_Force_Field>  (1) 
S-OPLS

>  <s_lp_Variant>  (1) 
Pocket2Mol_27_num_sample_50-1

>  <s_m_source_file>  (1) 
generated__ligand_Pocket2Mol_2026-05-06_prepared.sdf

>  <GenAI_Model>  (1) 
Pocket2Mol

>  <Protein>  (1) 
GPCR_5HT2C

$$$$
Pocket2Mol_25_num_sample_50
     RDKit          3D

  0  0  0  0  0  0  0  0  0  0999 V3000
M  V30 BEGIN CTAB
M  V30 COUNTS 15 15 0 0 1
M  V30 BEGIN ATOM
M  V30 1 C 39.067395 29.500413 53.308096 0
M  V30 2 C 39.867403 30.421432 52.605253 0
M  V30 3 C 40.267400 30.144130 51.282948 0
M  V30 4 C 38.666247 28.299088 52.689731 0
M  V30 5 C 39.867404 28.944945 50.663499 0
M  V30 6 C 37.805423 27.309501 53.449255 0
M  V30 7 C 39.067311 28.020945 51.365352 0
M  V30 8 H 38.761357 29.715236 54.322186 0
M  V30 9 H 40.174318 31.340930 53.079571 0
M  V30 10 H 40.880657 30.852222 50.744311 0
M  V30 11 H 40.173080 28.734311 49.650176 0
M  V30 12 H 37.574205 26.430596 52.848191 0
M  V30 13 H 38.319320 26.977020 54.351813 0
M  V30 14 H 36.864722 27.775421 53.744180 0
M  V30 15 H 38.761114 27.100517 50.887518 0
M  V30 END ATOM
M  V30 BEGIN BOND
M  V30 1 1 2 1
M  V30 2 2 3 2
M  V30 3 2 4 1
M  V30 4 1 5 3
M  V30 5 1 6 4
M  V30 6 1 7 4
M  V30 7 2 7 5
M  V30 8 1 8 1
M  V30 9 1 9 2
M  V30 10 1 10 3
M  V30 11 1 11 5
M  V30 12 1 12 6
M  V30 13 1 13 6
M  V30 14 1 14 6
M  V30 15 1 15 7
M  V30 END BOND
M  V30 END CTAB
M  END
>  <i_epik_Tot_Q>  (1) 
0

>  <i_epik_Tot_abs_Q>  (1) 
0

>  <i_i_glide_confnum>  (1) 
1

>  <i_i_glide_lignum>  (1) 
26

>  <i_i_glide_posenum>  (1) 
241

>  <i_i_glide_rotatable_bonds>  (1) 
0

>  <i_lp_mmshare_version>  (1) 
72125

>  <i_m_source_file_index>  (1) 
26

>  <i_f3d_flags>  (1) 
0

>  <num_sample>  (1) 
50

>  <b_lp_Chiralities_Consistent>  (1) 
1

>  <r_epik_Charging_Adjusted_Penalty>  (1) 
0

>  <r_epik_Ionization_Penalty>  (1) 
0

>  <r_epik_Ionization_Penalty_Charging>  (1) 
0

>  <r_epik_Ionization_Penalty_Neutral>  (1) 
0

>  <r_epik_State_Penalty>  (1) 
-0

>  <r_glide_ring_energy>  (1) 
0

>  <r_i_docking_score>  (1) 
-5.8408264582248046

>  <r_i_glide_ecoul>  (1) 
-0.93158535669003828

>  <r_i_glide_eff_state_penalty>  (1) 
-0

>  <r_i_glide_einternal>  (1) 
0

>  <r_i_glide_emodel>  (1) 
-23.977982724481119

>  <r_i_glide_emodel_strain>  (1) 
0

>  <r_i_glide_energy>  (1) 
-17.525105952953975

>  <r_i_glide_erotb>  (1) 
0

>  <r_i_glide_esite>  (1) 
0

>  <r_i_glide_evdw>  (1) 
-16.593520596263936

>  <r_i_glide_gscore>  (1) 
-5.8408264582248046

>  <r_i_glide_gscore_strain>  (1) 
0

>  <r_i_glide_hbond>  (1) 
0

>  <r_i_glide_ligand_efficiency>  (1) 
-0.83440377974640068

>  <r_i_glide_ligand_efficiency_ln>  (1) 
-1.982689954103938

>  <r_i_glide_ligand_efficiency_sa>  (1) 
-1.5961570093000343

>  <r_i_glide_lipo>  (1) 
-2.1653516300536291

>  <r_i_glide_metal>  (1) 
-0

>  <r_i_glide_rewards>  (1) 
-2.7060609948544725

>  <r_lp_Energy>  (1) 
6.403492

>  <r_lp_tautomer_probability>  (1) 
1

>  <s_epik_cmdline>  (1) 
J2VwaWtfcHl0aG9uJywgJy1waHQnLCAnMS4wJywgJy1waCcsICc3LjQnLCAnLXRuJywgJzgnLCAnLW1hJywgJzUwMCcsICctaW1hZScsICc8aW5maWxlLm1hZT4nLCAnLW9tYWUnLCAnPG91dGZpbGUubWFlPic=

>  <s_epik_input>  (1) 
W0NIM11jMVtjSF1bY0hdW2NIXVtjSF1bY0hdMQ==

>  <s_glide_docking_method>  (1) 
confgen

>  <s_i_glide_gridfile>  (1) 
gpcr_5ht2c_6bqh_protein_autoprepared_prepared

>  <s_lp_Force_Field>  (1) 
S-OPLS

>  <s_lp_Variant>  (1) 
Pocket2Mol_25_num_sample_50-1

>  <s_m_source_file>  (1) 
generated__ligand_Pocket2Mol_2026-05-06_prepared.sdf

>  <GenAI_Model>  (1) 
Pocket2Mol

>  <Protein>  (1) 
GPCR_5HT2C

$$$$
Pocket2Mol_25_num_sample_50
     RDKit          3D

  0  0  0  0  0  0  0  0  0  0999 V3000
M  V30 BEGIN CTAB
M  V30 COUNTS 15 15 0 0 1
M  V30 BEGIN ATOM
M  V30 1 C 39.867401 30.281689 52.497477 0
M  V30 2 C 39.067399 29.621635 53.453446 0
M  V30 3 C 38.471920 28.384314 53.139982 0
M  V30 4 C 40.065448 29.706119 51.225551 0
M  V30 5 C 38.673086 27.807220 51.870972 0
M  V30 6 C 40.917421 30.419892 50.195481 0
M  V30 7 C 39.467452 28.467449 50.913883 0
M  V30 8 H 40.323969 31.229843 52.738703 0
M  V30 9 H 38.913430 30.064102 54.427218 0
M  V30 10 H 37.861230 27.877826 53.873159 0
M  V30 11 H 38.215892 26.858589 51.630708 0
M  V30 12 H 41.067403 29.806176 49.307000 0
M  V30 13 H 40.435241 31.347535 49.886249 0
M  V30 14 H 41.895649 30.661911 50.610809 0
M  V30 15 H 39.616181 28.024697 49.940932 0
M  V30 END ATOM
M  V30 BEGIN BOND
M  V30 1 1 2 1
M  V30 2 2 3 2
M  V30 3 2 4 1
M  V30 4 1 5 3
M  V30 5 1 6 4
M  V30 6 1 7 4
M  V30 7 2 7 5
M  V30 8 1 8 1
M  V30 9 1 9 2
M  V30 10 1 10 3
M  V30 11 1 11 5
M  V30 12 1 12 6
M  V30 13 1 13 6
M  V30 14 1 14 6
M  V30 15 1 15 7
M  V30 END BOND
M  V30 END CTAB
M  END
>  <i_epik_Tot_Q>  (1) 
0

>  <i_epik_Tot_abs_Q>  (1) 
0

>  <i_i_glide_confnum>  (1) 
1

>  <i_i_glide_lignum>  (1) 
26

>  <i_i_glide_posenum>  (1) 
112

>  <i_i_glide_rotatable_bonds>  (1) 
0

>  <i_lp_mmshare_version>  (1) 
72125

>  <i_m_source_file_index>  (1) 
26

>  <i_f3d_flags>  (1) 
0

>  <num_sample>  (1) 
50

>  <b_lp_Chiralities_Consistent>  (1) 
1

>  <r_epik_Charging_Adjusted_Penalty>  (1) 
0

>  <r_epik_Ionization_Penalty>  (1) 
0

>  <r_epik_Ionization_Penalty_Charging>  (1) 
0

>  <r_epik_Ionization_Penalty_Neutral>  (1) 
0

>  <r_epik_State_Penalty>  (1) 
-0

>  <r_glide_ring_energy>  (1) 
0

>  <r_i_docking_score>  (1) 
-5.8263289922249504

>  <r_i_glide_ecoul>  (1) 
-0.9914691543050993

>  <r_i_glide_eff_state_penalty>  (1) 
-0

>  <r_i_glide_einternal>  (1) 
0

>  <r_i_glide_emodel>  (1) 
-24.843962941581925

>  <r_i_glide_emodel_strain>  (1) 
0.0043466214866185737

>  <r_i_glide_energy>  (1) 
-18.411449422452378

>  <r_i_glide_erotb>  (1) 
0

>  <r_i_glide_esite>  (1) 
0

>  <r_i_glide_evdw>  (1) 
-17.419980268147278

>  <r_i_glide_gscore>  (1) 
-5.8263289922249504

>  <r_i_glide_gscore_strain>  (1) 
0

>  <r_i_glide_hbond>  (1) 
0

>  <r_i_glide_ligand_efficiency>  (1) 
-0.83233271317499291

>  <r_i_glide_ligand_efficiency_ln>  (1) 
-1.9777687361216099

>  <r_i_glide_ligand_efficiency_sa>  (1) 
-1.5921952014739909

>  <r_i_glide_lipo>  (1) 
-2.1811638801381763

>  <r_i_glide_metal>  (1) 
-0

>  <r_i_glide_rewards>  (1) 
-2.6254457255336461

>  <r_lp_Energy>  (1) 
6.403492

>  <r_lp_tautomer_probability>  (1) 
1

>  <s_epik_cmdline>  (1) 
J2VwaWtfcHl0aG9uJywgJy1waHQnLCAnMS4wJywgJy1waCcsICc3LjQnLCAnLXRuJywgJzgnLCAnLW1hJywgJzUwMCcsICctaW1hZScsICc8aW5maWxlLm1hZT4nLCAnLW9tYWUnLCAnPG91dGZpbGUubWFlPic=

>  <s_epik_input>  (1) 
W0NIM11jMVtjSF1bY0hdW2NIXVtjSF1bY0hdMQ==

>  <s_glide_docking_method>  (1) 
confgen

>  <s_i_glide_gridfile>  (1) 
gpcr_5ht2c_6bqh_protein_autoprepared_prepared

>  <s_lp_Force_Field>  (1) 
S-OPLS

>  <s_lp_Variant>  (1) 
Pocket2Mol_25_num_sample_50-1

>  <s_m_source_file>  (1) 
generated__ligand_Pocket2Mol_2026-05-06_prepared.sdf

>  <GenAI_Model>  (1) 
Pocket2Mol

>  <Protein>  (1) 
GPCR_5HT2C

$$$$
Pocket2Mol_39_num_sample_50
     RDKit          3D

  0  0  0  0  0  0  0  0  0  0999 V3000
M  V30 BEGIN CTAB
M  V30 COUNTS 15 15 0 0 1
M  V30 BEGIN ATOM
M  V30 1 C 38.716579 28.164418 52.245252 0
M  V30 2 C 39.467081 28.461236 51.059080 0
M  V30 3 C 40.138155 29.658643 51.134504 0
M  V30 4 C 40.998236 30.295094 50.097168 0
M  V30 5 C 38.829247 29.138031 53.208245 0
M  V30 6 C 38.188458 29.173258 54.556104 0
M  V30 7 S 39.867365 30.421429 52.668196 0
M  V30 8 H 38.127870 27.262781 52.344110 0
M  V30 9 H 39.480550 27.798833 50.206960 0
M  V30 10 H 41.031970 29.696238 49.187466 0
M  V30 11 H 40.606525 31.277133 49.834401 0
M  V30 12 H 42.018108 30.420763 50.460931 0
M  V30 13 H 37.571935 28.289962 54.727407 0
M  V30 14 H 38.944690 29.209597 55.340803 0
M  V30 15 H 37.548993 30.051499 54.659530 0
M  V30 END ATOM
M  V30 BEGIN BOND
M  V30 1 1 2 1
M  V30 2 2 3 2
M  V30 3 1 4 3
M  V30 4 2 5 1
M  V30 5 1 6 5
M  V30 6 1 7 3
M  V30 7 1 7 5
M  V30 8 1 8 1
M  V30 9 1 9 2
M  V30 10 1 10 4
M  V30 11 1 11 4
M  V30 12 1 12 4
M  V30 13 1 13 6
M  V30 14 1 14 6
M  V30 15 1 15 6
M  V30 END BOND
M  V30 END CTAB
M  END
>  <i_epik_Tot_Q>  (1) 
0

>  <i_epik_Tot_abs_Q>  (1) 
0

>  <i_i_glide_confnum>  (1) 
1

>  <i_i_glide_lignum>  (1) 
40

>  <i_i_glide_posenum>  (1) 
102

>  <i_i_glide_rotatable_bonds>  (1) 
0

>  <i_lp_mmshare_version>  (1) 
72125

>  <i_m_source_file_index>  (1) 
40

>  <i_f3d_flags>  (1) 
0

>  <num_sample>  (1) 
50

>  <b_lp_Chiralities_Consistent>  (1) 
1

>  <r_epik_Charging_Adjusted_Penalty>  (1) 
0

>  <r_epik_Ionization_Penalty>  (1) 
0

>  <r_epik_Ionization_Penalty_Charging>  (1) 
0

>  <r_epik_Ionization_Penalty_Neutral>  (1) 
0

>  <r_epik_State_Penalty>  (1) 
-0

>  <r_glide_ring_energy>  (1) 
0

>  <r_i_docking_score>  (1) 
-5.824992549208698

>  <r_i_glide_ecoul>  (1) 
-0.74695336573855164

>  <r_i_glide_eff_state_penalty>  (1) 
-0

>  <r_i_glide_einternal>  (1) 
0

>  <r_i_glide_emodel>  (1) 
-25.684755637426015

>  <r_i_glide_emodel_strain>  (1) 
0

>  <r_i_glide_energy>  (1) 
-18.89044229927902

>  <r_i_glide_erotb>  (1) 
0

>  <r_i_glide_esite>  (1) 
0

>  <r_i_glide_evdw>  (1) 
-18.143488933540468

>  <r_i_glide_gscore>  (1) 
-5.824992549208698

>  <r_i_glide_gscore_strain>  (1) 
0

>  <r_i_glide_hbond>  (1) 
0

>  <r_i_glide_ligand_efficiency>  (1) 
-0.83214179274409972

>  <r_i_glide_ligand_efficiency_ln>  (1) 
-1.9773150756402535

>  <r_i_glide_ligand_efficiency_sa>  (1) 
-1.591829983828307

>  <r_i_glide_lipo>  (1) 
-2.1463566631285169

>  <r_i_glide_metal>  (1) 
-0

>  <r_i_glide_rewards>  (1) 
-2.6594184345423746

>  <r_lp_Energy>  (1) 
3.6641779999999997

>  <r_lp_tautomer_probability>  (1) 
1

>  <s_epik_cmdline>  (1) 
J2VwaWtfcHl0aG9uJywgJy1waHQnLCAnMS4wJywgJy1waCcsICc3LjQnLCAnLXRuJywgJzgnLCAnLW1hJywgJzUwMCcsICctaW1hZScsICc8aW5maWxlLm1hZT4nLCAnLW9tYWUnLCAnPG91dGZpbGUubWFlPic=

>  <s_epik_input>  (1) 
W0NIM11jKHMxKVtjSF1bY0hdYzFbQ0gzXQ==

>  <s_glide_docking_method>  (1) 
confgen

>  <s_i_glide_gridfile>  (1) 
gpcr_5ht2c_6bqh_protein_autoprepared_prepared

>  <s_lp_Force_Field>  (1) 
S-OPLS

>  <s_lp_Variant>  (1) 
Pocket2Mol_39_num_sample_50-1

>  <s_m_source_file>  (1) 
generated__ligand_Pocket2Mol_2026-05-06_prepared.sdf

>  <GenAI_Model>  (1) 
Pocket2Mol

>  <Protein>  (1) 
GPCR_5HT2C

$$$$
Pocket2Mol_32_num_sample_50
     RDKit          3D

  0  0  0  0  0  0  0  0  0  0999 V3000
M  V30 BEGIN CTAB
M  V30 COUNTS 12 12 0 0 1
M  V30 BEGIN ATOM
M  V30 1 C 39.340619 28.316285 51.140598 0
M  V30 2 C 38.611379 27.853390 52.253796 0
M  V30 3 C 38.510205 28.651151 53.410736 0
M  V30 4 C 39.138275 29.911627 53.454261 0
M  V30 5 C 39.968595 29.576520 51.184055 0
M  V30 6 F 40.669273 30.021112 50.114253 0
M  V30 7 C 39.867403 30.374088 52.340809 0
M  V30 8 H 39.418913 27.705715 50.253180 0
M  V30 9 H 38.130082 26.887018 52.219916 0
M  V30 10 H 37.951133 28.296412 54.264334 0
M  V30 11 H 39.061022 30.523592 54.340943 0
M  V30 12 H 40.349294 31.340103 52.372932 0
M  V30 END ATOM
M  V30 BEGIN BOND
M  V30 1 1 2 1
M  V30 2 2 3 2
M  V30 3 1 4 3
M  V30 4 2 5 1
M  V30 5 1 6 5
M  V30 6 2 7 4
M  V30 7 1 7 5
M  V30 8 1 8 1
M  V30 9 1 9 2
M  V30 10 1 10 3
M  V30 11 1 11 4
M  V30 12 1 12 7
M  V30 END BOND
M  V30 END CTAB
M  END
>  <i_epik_Tot_Q>  (1) 
0

>  <i_epik_Tot_abs_Q>  (1) 
0

>  <i_i_glide_confnum>  (1) 
1

>  <i_i_glide_lignum>  (1) 
33

>  <i_i_glide_posenum>  (1) 
23

>  <i_i_glide_rotatable_bonds>  (1) 
0

>  <i_lp_mmshare_version>  (1) 
72125

>  <i_m_source_file_index>  (1) 
33

>  <i_f3d_flags>  (1) 
0

>  <num_sample>  (1) 
50

>  <b_lp_Chiralities_Consistent>  (1) 
1

>  <r_epik_Charging_Adjusted_Penalty>  (1) 
0

>  <r_epik_Ionization_Penalty>  (1) 
0

>  <r_epik_Ionization_Penalty_Charging>  (1) 
0

>  <r_epik_Ionization_Penalty_Neutral>  (1) 
0

>  <r_epik_State_Penalty>  (1) 
-0

>  <r_glide_ring_energy>  (1) 
0

>  <r_i_docking_score>  (1) 
-5.7980544582961802

>  <r_i_glide_ecoul>  (1) 
-0.81675330678192315

>  <r_i_glide_eff_state_penalty>  (1) 
-0

>  <r_i_glide_einternal>  (1) 
0

>  <r_i_glide_emodel>  (1) 
-21.830642551981011

>  <r_i_glide_emodel_strain>  (1) 
0

>  <r_i_glide_energy>  (1) 
-16.144498739712692

>  <r_i_glide_erotb>  (1) 
0

>  <r_i_glide_esite>  (1) 
0

>  <r_i_glide_evdw>  (1) 
-15.327745432930769

>  <r_i_glide_gscore>  (1) 
-5.7980544582961802

>  <r_i_glide_gscore_strain>  (1) 
0

>  <r_i_glide_hbond>  (1) 
0

>  <r_i_glide_ligand_efficiency>  (1) 
-0.82829349404231145

>  <r_i_glide_ligand_efficiency_ln>  (1) 
-1.9681708419231607

>  <r_i_glide_ligand_efficiency_sa>  (1) 
-1.5844684532410338

>  <r_i_glide_lipo>  (1) 
-1.8246612601336722

>  <r_i_glide_metal>  (1) 
-0

>  <r_i_glide_rewards>  (1) 
-3.0844929304986808

>  <r_lp_Energy>  (1) 
8.194445

>  <r_lp_tautomer_probability>  (1) 
1

>  <s_epik_cmdline>  (1) 
J2VwaWtfcHl0aG9uJywgJy1waHQnLCAnMS4wJywgJy1waCcsICc3LjQnLCAnLXRuJywgJzgnLCAnLW1hJywgJzUwMCcsICctaW1hZScsICc8aW5maWxlLm1hZT4nLCAnLW9tYWUnLCAnPG91dGZpbGUubWFlPic=

>  <s_epik_input>  (1) 
RmMxW2NIXVtjSF1bY0hdW2NIXVtjSF0x

>  <s_glide_docking_method>  (1) 
confgen

>  <s_i_glide_gridfile>  (1) 
gpcr_5ht2c_6bqh_protein_autoprepared_prepared

>  <s_lp_Force_Field>  (1) 
S-OPLS

>  <s_lp_Variant>  (1) 
Pocket2Mol_32_num_sample_50-1

>  <s_m_source_file>  (1) 
generated__ligand_Pocket2Mol_2026-05-06_prepared.sdf

>  <GenAI_Model>  (1) 
Pocket2Mol

>  <Protein>  (1) 
GPCR_5HT2C

$$$$
Pocket2Mol_32_num_sample_50
     RDKit          3D

  0  0  0  0  0  0  0  0  0  0999 V3000
M  V30 BEGIN CTAB
M  V30 COUNTS 12 12 0 0 1
M  V30 BEGIN ATOM
M  V30 1 C 39.067403 29.474419 53.313697 0
M  V30 2 C 39.867406 30.419094 52.640715 0
M  V30 3 C 40.267388 30.183213 51.310477 0
M  V30 4 C 39.867386 29.002740 50.653504 0
M  V30 5 C 38.667418 28.294150 52.656880 0
M  V30 6 F 37.898711 27.386554 53.303759 0
M  V30 7 C 39.067403 28.058367 51.326903 0
M  V30 8 H 38.760119 29.654074 54.333372 0
M  V30 9 H 40.173777 31.323894 53.144818 0
M  V30 10 H 40.880759 30.907388 50.794338 0
M  V30 11 H 40.173766 28.821434 49.633729 0
M  V30 12 H 38.760109 27.153110 50.824389 0
M  V30 END ATOM
M  V30 BEGIN BOND
M  V30 1 1 2 1
M  V30 2 2 3 2
M  V30 3 1 4 3
M  V30 4 2 5 1
M  V30 5 1 6 5
M  V30 6 2 7 4
M  V30 7 1 7 5
M  V30 8 1 8 1
M  V30 9 1 9 2
M  V30 10 1 10 3
M  V30 11 1 11 4
M  V30 12 1 12 7
M  V30 END BOND
M  V30 END CTAB
M  END
>  <i_epik_Tot_Q>  (1) 
0

>  <i_epik_Tot_abs_Q>  (1) 
0

>  <i_i_glide_confnum>  (1) 
1

>  <i_i_glide_lignum>  (1) 
33

>  <i_i_glide_posenum>  (1) 
360

>  <i_i_glide_rotatable_bonds>  (1) 
0

>  <i_lp_mmshare_version>  (1) 
72125

>  <i_m_source_file_index>  (1) 
33

>  <i_f3d_flags>  (1) 
0

>  <num_sample>  (1) 
50

>  <b_lp_Chiralities_Consistent>  (1) 
1

>  <r_epik_Charging_Adjusted_Penalty>  (1) 
0

>  <r_epik_Ionization_Penalty>  (1) 
0

>  <r_epik_Ionization_Penalty_Charging>  (1) 
0

>  <r_epik_Ionization_Penalty_Neutral>  (1) 
0

>  <r_epik_State_Penalty>  (1) 
-0

>  <r_glide_ring_energy>  (1) 
0

>  <r_i_docking_score>  (1) 
-5.7923656541768489

>  <r_i_glide_ecoul>  (1) 
-0.49497277933729761

>  <r_i_glide_eff_state_penalty>  (1) 
-0

>  <r_i_glide_einternal>  (1) 
0

>  <r_i_glide_emodel>  (1) 
-21.839633103465836

>  <r_i_glide_emodel_strain>  (1) 
0

>  <r_i_glide_energy>  (1) 
-16.159068293356775

>  <r_i_glide_erotb>  (1) 
0

>  <r_i_glide_esite>  (1) 
0

>  <r_i_glide_evdw>  (1) 
-15.664095514019476

>  <r_i_glide_gscore>  (1) 
-5.7923656541768489

>  <r_i_glide_gscore_strain>  (1) 
0

>  <r_i_glide_hbond>  (1) 
0

>  <r_i_glide_ligand_efficiency>  (1) 
-0.8274808077395498

>  <r_i_glide_ligand_efficiency_ln>  (1) 
-1.9662397565093181

>  <r_i_glide_ligand_efficiency_sa>  (1) 
-1.5829138402706691

>  <r_i_glide_lipo>  (1) 
-1.855100960566421

>  <r_i_glide_metal>  (1) 
-0

>  <r_i_glide_rewards>  (1) 
-3.0798140010088595

>  <r_lp_Energy>  (1) 
8.194445

>  <r_lp_tautomer_probability>  (1) 
1

>  <s_epik_cmdline>  (1) 
J2VwaWtfcHl0aG9uJywgJy1waHQnLCAnMS4wJywgJy1waCcsICc3LjQnLCAnLXRuJywgJzgnLCAnLW1hJywgJzUwMCcsICctaW1hZScsICc8aW5maWxlLm1hZT4nLCAnLW9tYWUnLCAnPG91dGZpbGUubWFlPic=

>  <s_epik_input>  (1) 
RmMxW2NIXVtjSF1bY0hdW2NIXVtjSF0x

>  <s_glide_docking_method>  (1) 
confgen

>  <s_i_glide_gridfile>  (1) 
gpcr_5ht2c_6bqh_protein_autoprepared_prepared

>  <s_lp_Force_Field>  (1) 
S-OPLS

>  <s_lp_Variant>  (1) 
Pocket2Mol_32_num_sample_50-1

>  <s_m_source_file>  (1) 
generated__ligand_Pocket2Mol_2026-05-06_prepared.sdf

>  <GenAI_Model>  (1) 
Pocket2Mol

>  <Protein>  (1) 
GPCR_5HT2C

$$$$
Pocket2Mol_28_num_sample_50
     RDKit          3D

  0  0  0  0  0  0  0  0  0  0999 V3000
M  V30 BEGIN CTAB
M  V30 COUNTS 14 14 0 0 1
M  V30 BEGIN ATOM
M  V30 1 C 39.867403 30.404909 52.659626 0
M  V30 2 C 39.067403 29.402649 53.243391 0
M  V30 3 C 38.664917 28.287762 52.479812 0
M  V30 4 N 37.867403 27.300123 53.053499 0
M  V30 5 C 40.267399 30.292430 51.313415 0
M  V30 6 C 39.067406 28.175010 51.134422 0
M  V30 7 C 39.867411 29.177649 50.551665 0
M  V30 8 H 40.173896 31.259167 53.244242 0
M  V30 9 H 38.761065 29.491334 54.275697 0
M  V30 10 H 37.404087 26.621662 52.458650 0
M  V30 11 H 37.434773 27.457892 53.951936 0
M  V30 12 H 40.879827 31.062209 50.865299 0
M  V30 13 H 38.760399 27.321217 50.547786 0
M  V30 14 H 40.171978 29.092544 49.519031 0
M  V30 END ATOM
M  V30 BEGIN BOND
M  V30 1 1 2 1
M  V30 2 2 3 2
M  V30 3 1 4 3
M  V30 4 2 5 1
M  V30 5 1 6 3
M  V30 6 1 7 5
M  V30 7 2 7 6
M  V30 8 1 8 1
M  V30 9 1 9 2
M  V30 10 1 10 4
M  V30 11 1 11 4
M  V30 12 1 12 5
M  V30 13 1 13 6
M  V30 14 1 14 7
M  V30 END BOND
M  V30 END CTAB
M  END
>  <i_epik_Tot_Q>  (1) 
0

>  <i_epik_Tot_abs_Q>  (1) 
0

>  <i_i_glide_confnum>  (1) 
1

>  <i_i_glide_lignum>  (1) 
29

>  <i_i_glide_posenum>  (1) 
368

>  <i_i_glide_rotatable_bonds>  (1) 
0

>  <i_lp_mmshare_version>  (1) 
72125

>  <i_m_source_file_index>  (1) 
29

>  <i_f3d_flags>  (1) 
0

>  <num_sample>  (1) 
50

>  <b_lp_Chiralities_Consistent>  (1) 
1

>  <r_epik_Charging_Adjusted_Penalty>  (1) 
0

>  <r_epik_Ionization_Penalty>  (1) 
0.00088153335660618348

>  <r_epik_Ionization_Penalty_Charging>  (1) 
0

>  <r_epik_Ionization_Penalty_Neutral>  (1) 
0.00088153335660618348

>  <r_epik_State_Penalty>  (1) 
-0

>  <r_glide_ring_energy>  (1) 
0

>  <r_i_docking_score>  (1) 
-5.7903722179765751

>  <r_i_glide_ecoul>  (1) 
-2.0784174105317734

>  <r_i_glide_eff_state_penalty>  (1) 
-0

>  <r_i_glide_einternal>  (1) 
0

>  <r_i_glide_emodel>  (1) 
-25.327444182583051

>  <r_i_glide_emodel_strain>  (1) 
0

>  <r_i_glide_energy>  (1) 
-18.893791778953343

>  <r_i_glide_erotb>  (1) 
0

>  <r_i_glide_esite>  (1) 
0

>  <r_i_glide_evdw>  (1) 
-16.815374368421569

>  <r_i_glide_gscore>  (1) 
-5.7903722179765751

>  <r_i_glide_gscore_strain>  (1) 
0

>  <r_i_glide_hbond>  (1) 
-0.22708368825652397

>  <r_i_glide_ligand_efficiency>  (1) 
-0.82719603113951068

>  <r_i_glide_ligand_efficiency_ln>  (1) 
-1.9655630772830652

>  <r_i_glide_ligand_efficiency_sa>  (1) 
-1.5823690822323304

>  <r_i_glide_lipo>  (1) 
-1.8612462325091879

>  <r_i_glide_metal>  (1) 
-0

>  <r_i_glide_rewards>  (1) 
-2.5495109672100185

>  <r_lp_Energy>  (1) 
7.0325409999999993

>  <r_lp_tautomer_probability>  (1) 
1

>  <s_epik_cmdline>  (1) 
J2VwaWtfcHl0aG9uJywgJy1waHQnLCAnMS4wJywgJy1waCcsICc3LjQnLCAnLXRuJywgJzgnLCAnLW1hJywgJzUwMCcsICctaW1hZScsICc8aW5maWxlLm1hZT4nLCAnLW9tYWUnLCAnPG91dGZpbGUubWFlPic=

>  <s_epik_input>  (1) 
W2NIXTFbY0hdW2NIXVtjSF1bY0hdYzFbTkgyXQ==

>  <s_glide_docking_method>  (1) 
confgen

>  <s_i_glide_gridfile>  (1) 
gpcr_5ht2c_6bqh_protein_autoprepared_prepared

>  <s_lp_Force_Field>  (1) 
S-OPLS

>  <s_lp_Variant>  (1) 
Pocket2Mol_28_num_sample_50-1

>  <s_m_source_file>  (1) 
generated__ligand_Pocket2Mol_2026-05-06_prepared.sdf

>  <GenAI_Model>  (1) 
Pocket2Mol

>  <Protein>  (1) 
GPCR_5HT2C

$$$$
Pocket2Mol_25_num_sample_50
     RDKit          3D

  0  0  0  0  0  0  0  0  0  0999 V3000
M  V30 BEGIN CTAB
M  V30 COUNTS 15 15 0 0 1
M  V30 BEGIN ATOM
M  V30 1 C 39.867402 30.331300 52.519525 0
M  V30 2 C 40.267387 30.132875 51.183336 0
M  V30 3 C 39.867406 28.972512 50.494079 0
M  V30 4 C 39.067403 29.368276 53.167240 0
M  V30 5 C 39.067758 28.008576 51.139676 0
M  V30 6 C 38.638721 29.584255 54.604560 0
M  V30 7 C 38.667119 28.205687 52.475394 0
M  V30 8 H 40.174886 31.221437 53.047580 0
M  V30 9 H 40.880622 30.872111 50.687317 0
M  V30 10 H 40.172451 28.821898 49.469442 0
M  V30 11 H 38.761154 27.117981 50.609442 0
M  V30 12 H 38.025969 28.760728 54.971412 0
M  V30 13 H 39.513927 29.670659 55.249035 0
M  V30 14 H 38.059778 30.504218 54.692257 0
M  V30 15 H 38.053030 27.465759 52.968090 0
M  V30 END ATOM
M  V30 BEGIN BOND
M  V30 1 1 2 1
M  V30 2 2 3 2
M  V30 3 2 4 1
M  V30 4 1 5 3
M  V30 5 1 6 4
M  V30 6 1 7 4
M  V30 7 2 7 5
M  V30 8 1 8 1
M  V30 9 1 9 2
M  V30 10 1 10 3
M  V30 11 1 11 5
M  V30 12 1 12 6
M  V30 13 1 13 6
M  V30 14 1 14 6
M  V30 15 1 15 7
M  V30 END BOND
M  V30 END CTAB
M  END
>  <i_epik_Tot_Q>  (1) 
0

>  <i_epik_Tot_abs_Q>  (1) 
0

>  <i_i_glide_confnum>  (1) 
1

>  <i_i_glide_lignum>  (1) 
26

>  <i_i_glide_posenum>  (1) 
137

>  <i_i_glide_rotatable_bonds>  (1) 
0

>  <i_lp_mmshare_version>  (1) 
72125

>  <i_m_source_file_index>  (1) 
26

>  <i_f3d_flags>  (1) 
0

>  <num_sample>  (1) 
50

>  <b_lp_Chiralities_Consistent>  (1) 
1

>  <r_epik_Charging_Adjusted_Penalty>  (1) 
0

>  <r_epik_Ionization_Penalty>  (1) 
0

>  <r_epik_Ionization_Penalty_Charging>  (1) 
0

>  <r_epik_Ionization_Penalty_Neutral>  (1) 
0

>  <r_epik_State_Penalty>  (1) 
-0

>  <r_glide_ring_energy>  (1) 
0

>  <r_i_docking_score>  (1) 
-5.7358417455261117

>  <r_i_glide_ecoul>  (1) 
-0.91958138392097499

>  <r_i_glide_eff_state_penalty>  (1) 
-0

>  <r_i_glide_einternal>  (1) 
0

>  <r_i_glide_emodel>  (1) 
-23.426680232581386

>  <r_i_glide_emodel_strain>  (1) 
0

>  <r_i_glide_energy>  (1) 
-17.089789344008338

>  <r_i_glide_erotb>  (1) 
0

>  <r_i_glide_esite>  (1) 
0

>  <r_i_glide_evdw>  (1) 
-16.170207960087364

>  <r_i_glide_gscore>  (1) 
-5.7358417455261117

>  <r_i_glide_gscore_strain>  (1) 
0

>  <r_i_glide_hbond>  (1) 
0

>  <r_i_glide_ligand_efficiency>  (1) 
-0.81940596364658735

>  <r_i_glide_ligand_efficiency_ln>  (1) 
-1.9470525084974049

>  <r_i_glide_ligand_efficiency_sa>  (1) 
-1.5674672192092158

>  <r_i_glide_lipo>  (1) 
-2.0409605212294175

>  <r_i_glide_metal>  (1) 
-0

>  <r_i_glide_rewards>  (1) 
-2.7484336187041798

>  <r_lp_Energy>  (1) 
6.403492

>  <r_lp_tautomer_probability>  (1) 
1

>  <s_epik_cmdline>  (1) 
J2VwaWtfcHl0aG9uJywgJy1waHQnLCAnMS4wJywgJy1waCcsICc3LjQnLCAnLXRuJywgJzgnLCAnLW1hJywgJzUwMCcsICctaW1hZScsICc8aW5maWxlLm1hZT4nLCAnLW9tYWUnLCAnPG91dGZpbGUubWFlPic=

>  <s_epik_input>  (1) 
W0NIM11jMVtjSF1bY0hdW2NIXVtjSF1bY0hdMQ==

>  <s_glide_docking_method>  (1) 
confgen

>  <s_i_glide_gridfile>  (1) 
gpcr_5ht2c_6bqh_protein_autoprepared_prepared

>  <s_lp_Force_Field>  (1) 
S-OPLS

>  <s_lp_Variant>  (1) 
Pocket2Mol_25_num_sample_50-1

>  <s_m_source_file>  (1) 
generated__ligand_Pocket2Mol_2026-05-06_prepared.sdf

>  <GenAI_Model>  (1) 
Pocket2Mol

>  <Protein>  (1) 
GPCR_5HT2C

$$$$
Pocket2Mol_32_num_sample_50
     RDKit          3D

  0  0  0  0  0  0  0  0  0  0999 V3000
M  V30 BEGIN CTAB
M  V30 COUNTS 12 12 0 0 1
M  V30 BEGIN ATOM
M  V30 1 C 39.867403 30.330974 52.507418 0
M  V30 2 C 40.267401 30.134975 51.170728 0
M  V30 3 C 39.867412 28.975090 50.479620 0
M  V30 4 C 39.067581 28.010933 51.124201 0
M  V30 5 C 39.067405 29.366990 53.151788 0
M  V30 6 F 38.683001 29.555315 54.435185 0
M  V30 7 C 38.667338 28.207025 52.459847 0
M  V30 8 H 40.174086 31.220668 53.038229 0
M  V30 9 H 40.881184 30.874613 50.676138 0
M  V30 10 H 40.173088 28.825186 49.454172 0
M  V30 11 H 38.760346 27.120723 50.593050 0
M  V30 12 H 38.052981 27.468574 52.953358 0
M  V30 END ATOM
M  V30 BEGIN BOND
M  V30 1 1 2 1
M  V30 2 2 3 2
M  V30 3 1 4 3
M  V30 4 2 5 1
M  V30 5 1 6 5
M  V30 6 2 7 4
M  V30 7 1 7 5
M  V30 8 1 8 1
M  V30 9 1 9 2
M  V30 10 1 10 3
M  V30 11 1 11 4
M  V30 12 1 12 7
M  V30 END BOND
M  V30 END CTAB
M  END
>  <i_epik_Tot_Q>  (1) 
0

>  <i_epik_Tot_abs_Q>  (1) 
0

>  <i_i_glide_confnum>  (1) 
1

>  <i_i_glide_lignum>  (1) 
33

>  <i_i_glide_posenum>  (1) 
154

>  <i_i_glide_rotatable_bonds>  (1) 
0

>  <i_lp_mmshare_version>  (1) 
72125

>  <i_m_source_file_index>  (1) 
33

>  <i_f3d_flags>  (1) 
0

>  <num_sample>  (1) 
50

>  <b_lp_Chiralities_Consistent>  (1) 
1

>  <r_epik_Charging_Adjusted_Penalty>  (1) 
0

>  <r_epik_Ionization_Penalty>  (1) 
0

>  <r_epik_Ionization_Penalty_Charging>  (1) 
0

>  <r_epik_Ionization_Penalty_Neutral>  (1) 
0

>  <r_epik_State_Penalty>  (1) 
-0

>  <r_glide_ring_energy>  (1) 
0

>  <r_i_docking_score>  (1) 
-5.7311047850896299

>  <r_i_glide_ecoul>  (1) 
-0.6106856204575013

>  <r_i_glide_eff_state_penalty>  (1) 
-0

>  <r_i_glide_einternal>  (1) 
0

>  <r_i_glide_emodel>  (1) 
-21.67291263750235

>  <r_i_glide_emodel_strain>  (1) 
0

>  <r_i_glide_energy>  (1) 
-16.052426275120879

>  <r_i_glide_erotb>  (1) 
0

>  <r_i_glide_esite>  (1) 
0

>  <r_i_glide_evdw>  (1) 
-15.441740654663377

>  <r_i_glide_gscore>  (1) 
-5.7311047850896299

>  <r_i_glide_gscore_strain>  (1) 
0

>  <r_i_glide_hbond>  (1) 
0

>  <r_i_glide_ligand_efficiency>  (1) 
-0.81872925501280425

>  <r_i_glide_ligand_efficiency_ln>  (1) 
-1.945444529911228

>  <r_i_glide_ligand_efficiency_sa>  (1) 
-1.5661727221620008

>  <r_i_glide_lipo>  (1) 
-1.8655153789697607

>  <r_i_glide_metal>  (1) 
-0

>  <r_i_glide_rewards>  (1) 
-3.0018995303180747

>  <r_lp_Energy>  (1) 
8.194445

>  <r_lp_tautomer_probability>  (1) 
1

>  <s_epik_cmdline>  (1) 
J2VwaWtfcHl0aG9uJywgJy1waHQnLCAnMS4wJywgJy1waCcsICc3LjQnLCAnLXRuJywgJzgnLCAnLW1hJywgJzUwMCcsICctaW1hZScsICc8aW5maWxlLm1hZT4nLCAnLW9tYWUnLCAnPG91dGZpbGUubWFlPic=

>  <s_epik_input>  (1) 
RmMxW2NIXVtjSF1bY0hdW2NIXVtjSF0x

>  <s_glide_docking_method>  (1) 
confgen

>  <s_i_glide_gridfile>  (1) 
gpcr_5ht2c_6bqh_protein_autoprepared_prepared

>  <s_lp_Force_Field>  (1) 
S-OPLS

>  <s_lp_Variant>  (1) 
Pocket2Mol_32_num_sample_50-1

>  <s_m_source_file>  (1) 
generated__ligand_Pocket2Mol_2026-05-06_prepared.sdf

>  <GenAI_Model>  (1) 
Pocket2Mol

>  <Protein>  (1) 
GPCR_5HT2C

$$$$
Pocket2Mol_32_num_sample_50
     RDKit          3D

  0  0  0  0  0  0  0  0  0  0999 V3000
M  V30 BEGIN CTAB
M  V30 COUNTS 12 12 0 0 1
M  V30 BEGIN ATOM
M  V30 1 C 38.731447 28.777000 53.301399 0
M  V30 2 C 38.566669 27.766957 52.333118 0
M  V30 3 C 39.135534 27.918412 51.053499 0
M  V30 4 C 39.867403 29.080943 50.740520 0
M  V30 5 C 39.467403 29.937494 52.990209 0
M  V30 6 F 39.629334 30.905680 53.921590 0
M  V30 7 C 40.033648 30.090073 51.708770 0
M  V30 8 H 38.295560 28.661424 54.282886 0
M  V30 9 H 38.003002 26.876390 52.571504 0
M  V30 10 H 39.009356 27.143302 50.310704 0
M  V30 11 H 40.300040 29.198722 49.757908 0
M  V30 12 H 40.595537 30.981637 51.469603 0
M  V30 END ATOM
M  V30 BEGIN BOND
M  V30 1 1 2 1
M  V30 2 2 3 2
M  V30 3 1 4 3
M  V30 4 2 5 1
M  V30 5 1 6 5
M  V30 6 2 7 4
M  V30 7 1 7 5
M  V30 8 1 8 1
M  V30 9 1 9 2
M  V30 10 1 10 3
M  V30 11 1 11 4
M  V30 12 1 12 7
M  V30 END BOND
M  V30 END CTAB
M  END
>  <i_epik_Tot_Q>  (1) 
0

>  <i_epik_Tot_abs_Q>  (1) 
0

>  <i_i_glide_confnum>  (1) 
1

>  <i_i_glide_lignum>  (1) 
33

>  <i_i_glide_posenum>  (1) 
78

>  <i_i_glide_rotatable_bonds>  (1) 
0

>  <i_lp_mmshare_version>  (1) 
72125

>  <i_m_source_file_index>  (1) 
33

>  <i_f3d_flags>  (1) 
0

>  <num_sample>  (1) 
50

>  <b_lp_Chiralities_Consistent>  (1) 
1

>  <r_epik_Charging_Adjusted_Penalty>  (1) 
0

>  <r_epik_Ionization_Penalty>  (1) 
0

>  <r_epik_Ionization_Penalty_Charging>  (1) 
0

>  <r_epik_Ionization_Penalty_Neutral>  (1) 
0

>  <r_epik_State_Penalty>  (1) 
-0

>  <r_glide_ring_energy>  (1) 
0

>  <r_i_docking_score>  (1) 
-5.7252613838679061

>  <r_i_glide_ecoul>  (1) 
-0.44556938370404164

>  <r_i_glide_eff_state_penalty>  (1) 
-0

>  <r_i_glide_einternal>  (1) 
0

>  <r_i_glide_emodel>  (1) 
-21.349795784609228

>  <r_i_glide_emodel_strain>  (1) 
0

>  <r_i_glide_energy>  (1) 
-15.735040037546826

>  <r_i_glide_erotb>  (1) 
0

>  <r_i_glide_esite>  (1) 
0

>  <r_i_glide_evdw>  (1) 
-15.289470653842784

>  <r_i_glide_gscore>  (1) 
-5.7252613838679061

>  <r_i_glide_gscore_strain>  (1) 
0

>  <r_i_glide_hbond>  (1) 
0

>  <r_i_glide_ligand_efficiency>  (1) 
-0.81789448340970083

>  <r_i_glide_ligand_efficiency_ln>  (1) 
-1.943460965944215

>  <r_i_glide_ligand_efficiency_sa>  (1) 
-1.5645758615319314

>  <r_i_glide_lipo>  (1) 
-1.840453492827099

>  <r_i_glide_metal>  (1) 
-0

>  <r_i_glide_rewards>  (1) 
-3.0534989507930614

>  <r_lp_Energy>  (1) 
8.194445

>  <r_lp_tautomer_probability>  (1) 
1

>  <s_epik_cmdline>  (1) 
J2VwaWtfcHl0aG9uJywgJy1waHQnLCAnMS4wJywgJy1waCcsICc3LjQnLCAnLXRuJywgJzgnLCAnLW1hJywgJzUwMCcsICctaW1hZScsICc8aW5maWxlLm1hZT4nLCAnLW9tYWUnLCAnPG91dGZpbGUubWFlPic=

>  <s_epik_input>  (1) 
RmMxW2NIXVtjSF1bY0hdW2NIXVtjSF0x

>  <s_glide_docking_method>  (1) 
confgen

>  <s_i_glide_gridfile>  (1) 
gpcr_5ht2c_6bqh_protein_autoprepared_prepared

>  <s_lp_Force_Field>  (1) 
S-OPLS

>  <s_lp_Variant>  (1) 
Pocket2Mol_32_num_sample_50-1

>  <s_m_source_file>  (1) 
generated__ligand_Pocket2Mol_2026-05-06_prepared.sdf

>  <GenAI_Model>  (1) 
Pocket2Mol

>  <Protein>  (1) 
GPCR_5HT2C

$$$$
Pocket2Mol_25_num_sample_50
     RDKit          3D

  0  0  0  0  0  0  0  0  0  0999 V3000
M  V30 BEGIN CTAB
M  V30 COUNTS 15 15 0 0 1
M  V30 BEGIN ATOM
M  V30 1 C 39.980743 30.103632 51.792209 0
M  V30 2 C 39.867404 29.116469 50.793727 0
M  V30 3 C 39.154274 27.930081 51.053503 0
M  V30 4 C 39.381254 29.907324 53.053499 0
M  V30 5 C 38.554472 27.731170 52.312198 0
M  V30 6 C 39.507791 30.973764 54.121803 0
M  V30 7 C 38.667406 28.717953 53.311211 0
M  V30 8 H 40.528914 31.011785 51.587571 0
M  V30 9 H 40.327583 29.269533 49.828626 0
M  V30 10 H 39.067399 27.173186 50.287862 0
M  V30 11 H 38.007503 26.821430 52.511729 0
M  V30 12 H 38.995314 30.682322 55.039067 0
M  V30 13 H 40.557560 31.147815 54.359171 0
M  V30 14 H 39.074027 31.911175 53.772861 0
M  V30 15 H 38.204185 28.557033 54.273779 0
M  V30 END ATOM
M  V30 BEGIN BOND
M  V30 1 1 2 1
M  V30 2 2 3 2
M  V30 3 2 4 1
M  V30 4 1 5 3
M  V30 5 1 6 4
M  V30 6 1 7 4
M  V30 7 2 7 5
M  V30 8 1 8 1
M  V30 9 1 9 2
M  V30 10 1 10 3
M  V30 11 1 11 5
M  V30 12 1 12 6
M  V30 13 1 13 6
M  V30 14 1 14 6
M  V30 15 1 15 7
M  V30 END BOND
M  V30 END CTAB
M  END
>  <i_epik_Tot_Q>  (1) 
0

>  <i_epik_Tot_abs_Q>  (1) 
0

>  <i_i_glide_confnum>  (1) 
1

>  <i_i_glide_lignum>  (1) 
26

>  <i_i_glide_posenum>  (1) 
254

>  <i_i_glide_rotatable_bonds>  (1) 
0

>  <i_lp_mmshare_version>  (1) 
72125

>  <i_m_source_file_index>  (1) 
26

>  <i_f3d_flags>  (1) 
0

>  <num_sample>  (1) 
50

>  <b_lp_Chiralities_Consistent>  (1) 
1

>  <r_epik_Charging_Adjusted_Penalty>  (1) 
0

>  <r_epik_Ionization_Penalty>  (1) 
0

>  <r_epik_Ionization_Penalty_Charging>  (1) 
0

>  <r_epik_Ionization_Penalty_Neutral>  (1) 
0

>  <r_epik_State_Penalty>  (1) 
-0

>  <r_glide_ring_energy>  (1) 
0

>  <r_i_docking_score>  (1) 
-5.7031076037030513

>  <r_i_glide_ecoul>  (1) 
-1.0447990779969887

>  <r_i_glide_eff_state_penalty>  (1) 
-0

>  <r_i_glide_einternal>  (1) 
0

>  <r_i_glide_emodel>  (1) 
-23.634838097510773

>  <r_i_glide_emodel_strain>  (1) 
0

>  <r_i_glide_energy>  (1) 
-17.334111506048188

>  <r_i_glide_erotb>  (1) 
0

>  <r_i_glide_esite>  (1) 
0

>  <r_i_glide_evdw>  (1) 
-16.2893124280512

>  <r_i_glide_gscore>  (1) 
-5.7031076037030513

>  <r_i_glide_gscore_strain>  (1) 
0

>  <r_i_glide_hbond>  (1) 
0

>  <r_i_glide_ligand_efficiency>  (1) 
-0.81472965767186445

>  <r_i_glide_ligand_efficiency_ln>  (1) 
-1.9359407840500187

>  <r_i_glide_ligand_efficiency_sa>  (1) 
-1.5585217676899834

>  <r_i_glide_lipo>  (1) 
-2.1416829075619526

>  <r_i_glide_metal>  (1) 
-0

>  <r_i_glide_rewards>  (1) 
-2.59023921303899

>  <r_lp_Energy>  (1) 
6.403492

>  <r_lp_tautomer_probability>  (1) 
1

>  <s_epik_cmdline>  (1) 
J2VwaWtfcHl0aG9uJywgJy1waHQnLCAnMS4wJywgJy1waCcsICc3LjQnLCAnLXRuJywgJzgnLCAnLW1hJywgJzUwMCcsICctaW1hZScsICc8aW5maWxlLm1hZT4nLCAnLW9tYWUnLCAnPG91dGZpbGUubWFlPic=

>  <s_epik_input>  (1) 
W0NIM11jMVtjSF1bY0hdW2NIXVtjSF1bY0hdMQ==

>  <s_glide_docking_method>  (1) 
confgen

>  <s_i_glide_gridfile>  (1) 
gpcr_5ht2c_6bqh_protein_autoprepared_prepared

>  <s_lp_Force_Field>  (1) 
S-OPLS

>  <s_lp_Variant>  (1) 
Pocket2Mol_25_num_sample_50-1

>  <s_m_source_file>  (1) 
generated__ligand_Pocket2Mol_2026-05-06_prepared.sdf

>  <GenAI_Model>  (1) 
Pocket2Mol

>  <Protein>  (1) 
GPCR_5HT2C

$$$$
Pocket2Mol_39_num_sample_50
     RDKit          3D

  0  0  0  0  0  0  0  0  0  0999 V3000
M  V30 BEGIN CTAB
M  V30 COUNTS 15 15 0 0 1
M  V30 BEGIN ATOM
M  V30 1 C 38.648696 29.253401 53.850181 0
M  V30 2 C 39.467400 30.131108 53.065537 0
M  V30 3 C 39.777980 29.613877 51.831141 0
M  V30 4 C 40.598872 30.240004 50.758023 0
M  V30 5 C 38.348060 28.079972 53.202613 0
M  V30 6 C 37.527839 26.942694 53.704850 0
M  V30 7 S 39.067409 28.044875 51.624105 0
M  V30 8 H 38.315313 29.511871 54.844942 0
M  V30 9 H 39.792780 31.095417 53.429458 0
M  V30 10 H 40.959065 31.221430 51.061996 0
M  V30 11 H 41.467404 29.624441 50.536255 0
M  V30 12 H 40.018578 30.360043 49.843493 0
M  V30 13 H 37.153958 27.137508 54.709537 0
M  V30 14 H 36.671710 26.779590 53.053536 0
M  V30 15 H 38.111939 26.023006 53.734769 0
M  V30 END ATOM
M  V30 BEGIN BOND
M  V30 1 1 2 1
M  V30 2 2 3 2
M  V30 3 1 4 3
M  V30 4 2 5 1
M  V30 5 1 6 5
M  V30 6 1 7 3
M  V30 7 1 7 5
M  V30 8 1 8 1
M  V30 9 1 9 2
M  V30 10 1 10 4
M  V30 11 1 11 4
M  V30 12 1 12 4
M  V30 13 1 13 6
M  V30 14 1 14 6
M  V30 15 1 15 6
M  V30 END BOND
M  V30 END CTAB
M  END
>  <i_epik_Tot_Q>  (1) 
0

>  <i_epik_Tot_abs_Q>  (1) 
0

>  <i_i_glide_confnum>  (1) 
1

>  <i_i_glide_lignum>  (1) 
40

>  <i_i_glide_posenum>  (1) 
277

>  <i_i_glide_rotatable_bonds>  (1) 
0

>  <i_lp_mmshare_version>  (1) 
72125

>  <i_m_source_file_index>  (1) 
40

>  <i_f3d_flags>  (1) 
0

>  <num_sample>  (1) 
50

>  <b_lp_Chiralities_Consistent>  (1) 
1

>  <r_epik_Charging_Adjusted_Penalty>  (1) 
0

>  <r_epik_Ionization_Penalty>  (1) 
0

>  <r_epik_Ionization_Penalty_Charging>  (1) 
0

>  <r_epik_Ionization_Penalty_Neutral>  (1) 
0

>  <r_epik_State_Penalty>  (1) 
-0

>  <r_glide_ring_energy>  (1) 
0

>  <r_i_docking_score>  (1) 
-5.6349172134555285

>  <r_i_glide_ecoul>  (1) 
-0.78763991184291826

>  <r_i_glide_eff_state_penalty>  (1) 
-0

>  <r_i_glide_einternal>  (1) 
0

>  <r_i_glide_emodel>  (1) 
-25.8467419425982

>  <r_i_glide_emodel_strain>  (1) 
0

>  <r_i_glide_energy>  (1) 
-19.27413384751387

>  <r_i_glide_erotb>  (1) 
0

>  <r_i_glide_esite>  (1) 
0

>  <r_i_glide_evdw>  (1) 
-18.48649393567095

>  <r_i_glide_gscore>  (1) 
-5.6349172134555285

>  <r_i_glide_gscore_strain>  (1) 
0

>  <r_i_glide_hbond>  (1) 
0

>  <r_i_glide_ligand_efficiency>  (1) 
-0.80498817335078976

>  <r_i_glide_ligand_efficiency_ln>  (1) 
-1.9127933060899764

>  <r_i_glide_ligand_efficiency_sa>  (1) 
-1.5398869785657114

>  <r_i_glide_lipo>  (1) 
-2.0014619660111479

>  <r_i_glide_metal>  (1) 
-0

>  <r_i_glide_rewards>  (1) 
-2.5909845638843958

>  <r_lp_Energy>  (1) 
3.6641779999999997

>  <r_lp_tautomer_probability>  (1) 
1

>  <s_epik_cmdline>  (1) 
J2VwaWtfcHl0aG9uJywgJy1waHQnLCAnMS4wJywgJy1waCcsICc3LjQnLCAnLXRuJywgJzgnLCAnLW1hJywgJzUwMCcsICctaW1hZScsICc8aW5maWxlLm1hZT4nLCAnLW9tYWUnLCAnPG91dGZpbGUubWFlPic=

>  <s_epik_input>  (1) 
W0NIM11jKHMxKVtjSF1bY0hdYzFbQ0gzXQ==

>  <s_glide_docking_method>  (1) 
confgen

>  <s_i_glide_gridfile>  (1) 
gpcr_5ht2c_6bqh_protein_autoprepared_prepared

>  <s_lp_Force_Field>  (1) 
S-OPLS

>  <s_lp_Variant>  (1) 
Pocket2Mol_39_num_sample_50-1

>  <s_m_source_file>  (1) 
generated__ligand_Pocket2Mol_2026-05-06_prepared.sdf

>  <GenAI_Model>  (1) 
Pocket2Mol

>  <Protein>  (1) 
GPCR_5HT2C

$$$$
Pocket2Mol_34_num_sample_50
     RDKit          3D

  0  0  0  0  0  0  0  0  0  0999 V3000
M  V30 BEGIN CTAB
M  V30 COUNTS 19 19 0 0 1
M  V30 BEGIN ATOM
M  V30 1 C 39.132088 27.655493 51.486193 0
M  V30 2 C 38.862693 27.711896 52.998408 0
M  V30 3 C 40.199418 28.676309 51.055568 0
M  V30 4 O 37.822155 26.821432 53.327215 0
M  V30 5 C 39.868426 30.093771 51.514085 0
M  V30 6 C 39.507216 30.170168 53.015384 0
M  V30 7 C 38.459480 29.126095 53.437883 0
M  V30 8 H 39.443411 26.651753 51.193831 0
M  V30 9 H 38.209899 27.863597 50.945061 0
M  V30 10 H 39.750988 27.394128 53.544779 0
M  V30 11 H 41.178864 28.421311 51.453502 0
M  V30 12 H 40.278030 28.661116 49.968381 0
M  V30 13 H 37.185873 26.821407 52.623411 0
M  V30 14 H 40.710235 30.756023 51.307992 0
M  V30 15 H 39.067404 30.446374 50.876522 0
M  V30 16 H 40.408116 30.021497 53.609007 0
M  V30 17 H 39.152795 31.172265 53.260013 0
M  V30 18 H 37.489847 29.374799 53.011162 0
M  V30 19 H 38.328435 29.156745 54.520344 0
M  V30 END ATOM
M  V30 BEGIN BOND
M  V30 1 1 2 1
M  V30 2 1 3 1
M  V30 3 1 4 2
M  V30 4 1 5 3
M  V30 5 1 6 5
M  V30 6 1 7 2
M  V30 7 1 7 6
M  V30 8 1 8 1
M  V30 9 1 9 1
M  V30 10 1 10 2
M  V30 11 1 11 3
M  V30 12 1 12 3
M  V30 13 1 13 4
M  V30 14 1 14 5
M  V30 15 1 15 5
M  V30 16 1 16 6
M  V30 17 1 17 6
M  V30 18 1 18 7
M  V30 19 1 19 7
M  V30 END BOND
M  V30 END CTAB
M  END
>  <i_epik_Tot_Q>  (1) 
0

>  <i_epik_Tot_abs_Q>  (1) 
0

>  <i_i_glide_confnum>  (1) 
1

>  <i_i_glide_lignum>  (1) 
35

>  <i_i_glide_posenum>  (1) 
247

>  <i_i_glide_rotatable_bonds>  (1) 
1

>  <i_lp_mmshare_version>  (1) 
72125

>  <i_m_source_file_index>  (1) 
35

>  <i_f3d_flags>  (1) 
0

>  <num_sample>  (1) 
50

>  <b_lp_Chiralities_Consistent>  (1) 
1

>  <r_epik_Charging_Adjusted_Penalty>  (1) 
0

>  <r_epik_Ionization_Penalty>  (1) 
4.7751045033339745e-07

>  <r_epik_Ionization_Penalty_Charging>  (1) 
0

>  <r_epik_Ionization_Penalty_Neutral>  (1) 
4.7751045033339745e-07

>  <r_epik_State_Penalty>  (1) 
-0

>  <r_glide_ring_energy>  (1) 
0

>  <r_i_docking_score>  (1) 
-5.623009369538237

>  <r_i_glide_ecoul>  (1) 
-1.4694575411908488

>  <r_i_glide_eff_state_penalty>  (1) 
-0

>  <r_i_glide_einternal>  (1) 
0.0010566870597331635

>  <r_i_glide_emodel>  (1) 
-22.863274919841757

>  <r_i_glide_emodel_strain>  (1) 
0.08912339093611088

>  <r_i_glide_energy>  (1) 
-16.816654132445976

>  <r_i_glide_erotb>  (1) 
0

>  <r_i_glide_esite>  (1) 
0

>  <r_i_glide_evdw>  (1) 
-15.347196591255129

>  <r_i_glide_gscore>  (1) 
-5.623009369538237

>  <r_i_glide_gscore_strain>  (1) 
0

>  <r_i_glide_hbond>  (1) 
-0.24223797754144849

>  <r_i_glide_ligand_efficiency>  (1) 
-0.80328705279117674

>  <r_i_glide_ligand_efficiency_ln>  (1) 
-1.9087511448173016

>  <r_i_glide_ligand_efficiency_sa>  (1) 
-1.5366328520015724

>  <r_i_glide_lipo>  (1) 
-1.8330390625182629

>  <r_i_glide_metal>  (1) 
-0

>  <r_i_glide_rewards>  (1) 
-2.5599538687371419

>  <r_lp_Energy>  (1) 
3.8568439999999997

>  <r_lp_tautomer_probability>  (1) 
1

>  <s_epik_cmdline>  (1) 
J2VwaWtfcHl0aG9uJywgJy1waHQnLCAnMS4wJywgJy1waCcsICc3LjQnLCAnLXRuJywgJzgnLCAnLW1hJywgJzUwMCcsICctaW1hZScsICc8aW5maWxlLm1hZT4nLCAnLW9tYWUnLCAnPG91dGZpbGUubWFlPic=

>  <s_epik_input>  (1) 
W09IXVtDSF0xW0NIMl1bQ0gyXVtDSDJdW0NIMl1bQ0gyXTE=

>  <s_glide_docking_method>  (1) 
confgen

>  <s_i_glide_gridfile>  (1) 
gpcr_5ht2c_6bqh_protein_autoprepared_prepared

>  <s_lp_Force_Field>  (1) 
S-OPLS

>  <s_lp_Variant>  (1) 
Pocket2Mol_34_num_sample_50-1

>  <s_m_source_file>  (1) 
generated__ligand_Pocket2Mol_2026-05-06_prepared.sdf

>  <GenAI_Model>  (1) 
Pocket2Mol

>  <Protein>  (1) 
GPCR_5HT2C

$$$$
Pocket2Mol_32_num_sample_50
     RDKit          3D

  0  0  0  0  0  0  0  0  0  0999 V3000
M  V30 BEGIN CTAB
M  V30 COUNTS 12 12 0 0 1
M  V30 BEGIN ATOM
M  V30 1 C 39.204486 29.818713 53.284866 0
M  V30 2 C 39.867408 30.021482 52.057414 0
M  V30 3 C 39.807684 29.035096 51.053489 0
M  V30 4 C 39.084178 27.846724 51.275639 0
M  V30 5 C 38.481011 28.630614 53.505961 0
M  V30 6 F 37.843680 28.435299 54.683557 0
M  V30 7 C 38.420679 27.645519 52.501657 0
M  V30 8 H 39.249948 30.574922 54.054965 0
M  V30 9 H 40.421086 30.933940 51.886410 0
M  V30 10 H 40.315214 29.190887 50.113094 0
M  V30 11 H 39.037715 27.089694 50.505393 0
M  V30 12 H 37.864749 26.735890 52.671736 0
M  V30 END ATOM
M  V30 BEGIN BOND
M  V30 1 1 2 1
M  V30 2 2 3 2
M  V30 3 1 4 3
M  V30 4 2 5 1
M  V30 5 1 6 5
M  V30 6 2 7 4
M  V30 7 1 7 5
M  V30 8 1 8 1
M  V30 9 1 9 2
M  V30 10 1 10 3
M  V30 11 1 11 4
M  V30 12 1 12 7
M  V30 END BOND
M  V30 END CTAB
M  END
>  <i_epik_Tot_Q>  (1) 
0

>  <i_epik_Tot_abs_Q>  (1) 
0

>  <i_i_glide_confnum>  (1) 
1

>  <i_i_glide_lignum>  (1) 
33

>  <i_i_glide_posenum>  (1) 
210

>  <i_i_glide_rotatable_bonds>  (1) 
0

>  <i_lp_mmshare_version>  (1) 
72125

>  <i_m_source_file_index>  (1) 
33

>  <i_f3d_flags>  (1) 
0

>  <num_sample>  (1) 
50

>  <b_lp_Chiralities_Consistent>  (1) 
1

>  <r_epik_Charging_Adjusted_Penalty>  (1) 
0

>  <r_epik_Ionization_Penalty>  (1) 
0

>  <r_epik_Ionization_Penalty_Charging>  (1) 
0

>  <r_epik_Ionization_Penalty_Neutral>  (1) 
0

>  <r_epik_State_Penalty>  (1) 
-0

>  <r_glide_ring_energy>  (1) 
0

>  <r_i_docking_score>  (1) 
-5.5822440568756839

>  <r_i_glide_ecoul>  (1) 
-0.8306355662476147

>  <r_i_glide_eff_state_penalty>  (1) 
-0

>  <r_i_glide_einternal>  (1) 
0

>  <r_i_glide_emodel>  (1) 
-21.25629214171208

>  <r_i_glide_emodel_strain>  (1) 
0

>  <r_i_glide_energy>  (1) 
-15.781793285089952

>  <r_i_glide_erotb>  (1) 
0

>  <r_i_glide_esite>  (1) 
0

>  <r_i_glide_evdw>  (1) 
-14.951157718842337

>  <r_i_glide_gscore>  (1) 
-5.5822440568756839

>  <r_i_glide_gscore_strain>  (1) 
0

>  <r_i_glide_hbond>  (1) 
0

>  <r_i_glide_ligand_efficiency>  (1) 
-0.79746343669652631

>  <r_i_glide_ligand_efficiency_ln>  (1) 
-1.8949132099856416

>  <r_i_glide_ligand_efficiency_sa>  (1) 
-1.5254926751776203

>  <r_i_glide_lipo>  (1) 
-1.8092346261477867

>  <r_i_glide_metal>  (1) 
-0

>  <r_i_glide_rewards>  (1) 
-2.9008562098486381

>  <r_lp_Energy>  (1) 
8.194445

>  <r_lp_tautomer_probability>  (1) 
1

>  <s_epik_cmdline>  (1) 
J2VwaWtfcHl0aG9uJywgJy1waHQnLCAnMS4wJywgJy1waCcsICc3LjQnLCAnLXRuJywgJzgnLCAnLW1hJywgJzUwMCcsICctaW1hZScsICc8aW5maWxlLm1hZT4nLCAnLW9tYWUnLCAnPG91dGZpbGUubWFlPic=

>  <s_epik_input>  (1) 
RmMxW2NIXVtjSF1bY0hdW2NIXVtjSF0x

>  <s_glide_docking_method>  (1) 
confgen

>  <s_i_glide_gridfile>  (1) 
gpcr_5ht2c_6bqh_protein_autoprepared_prepared

>  <s_lp_Force_Field>  (1) 
S-OPLS

>  <s_lp_Variant>  (1) 
Pocket2Mol_32_num_sample_50-1

>  <s_m_source_file>  (1) 
generated__ligand_Pocket2Mol_2026-05-06_prepared.sdf

>  <GenAI_Model>  (1) 
Pocket2Mol

>  <Protein>  (1) 
GPCR_5HT2C

$$$$
Pocket2Mol_25_num_sample_50
     RDKit          3D

  0  0  0  0  0  0  0  0  0  0999 V3000
M  V30 BEGIN CTAB
M  V30 COUNTS 15 15 0 0 1
M  V30 BEGIN ATOM
M  V30 1 C 39.467403 30.038249 53.022507 0
M  V30 2 C 38.743770 29.646656 54.165438 0
M  V30 3 C 38.021085 28.438376 54.161420 0
M  V30 4 C 39.467404 29.221428 51.872181 0
M  V30 5 C 38.020622 27.621409 53.014619 0
M  V30 6 C 40.243568 29.646111 50.642238 0
M  V30 7 C 38.742575 28.011781 51.869503 0
M  V30 8 H 40.021256 30.966334 53.026610 0
M  V30 9 H 38.742847 30.273696 55.045390 0
M  V30 10 H 37.467403 28.138264 55.038269 0
M  V30 11 H 37.465962 26.694643 53.012282 0
M  V30 12 H 40.145276 28.917733 49.837011 0
M  V30 13 H 39.876876 30.605813 50.276657 0
M  V30 14 H 41.301715 29.751575 50.881818 0
M  V30 15 H 38.739288 27.383314 50.990186 0
M  V30 END ATOM
M  V30 BEGIN BOND
M  V30 1 1 2 1
M  V30 2 2 3 2
M  V30 3 2 4 1
M  V30 4 1 5 3
M  V30 5 1 6 4
M  V30 6 1 7 4
M  V30 7 2 7 5
M  V30 8 1 8 1
M  V30 9 1 9 2
M  V30 10 1 10 3
M  V30 11 1 11 5
M  V30 12 1 12 6
M  V30 13 1 13 6
M  V30 14 1 14 6
M  V30 15 1 15 7
M  V30 END BOND
M  V30 END CTAB
M  END
>  <i_epik_Tot_Q>  (1) 
0

>  <i_epik_Tot_abs_Q>  (1) 
0

>  <i_i_glide_confnum>  (1) 
1

>  <i_i_glide_lignum>  (1) 
26

>  <i_i_glide_posenum>  (1) 
299

>  <i_i_glide_rotatable_bonds>  (1) 
0

>  <i_lp_mmshare_version>  (1) 
72125

>  <i_m_source_file_index>  (1) 
26

>  <i_f3d_flags>  (1) 
0

>  <num_sample>  (1) 
50

>  <b_lp_Chiralities_Consistent>  (1) 
1

>  <r_epik_Charging_Adjusted_Penalty>  (1) 
0

>  <r_epik_Ionization_Penalty>  (1) 
0

>  <r_epik_Ionization_Penalty_Charging>  (1) 
0

>  <r_epik_Ionization_Penalty_Neutral>  (1) 
0

>  <r_epik_State_Penalty>  (1) 
-0

>  <r_glide_ring_energy>  (1) 
0

>  <r_i_docking_score>  (1) 
-5.5793117651327888

>  <r_i_glide_ecoul>  (1) 
-1.0230744215788743

>  <r_i_glide_eff_state_penalty>  (1) 
-0

>  <r_i_glide_einternal>  (1) 
0

>  <r_i_glide_emodel>  (1) 
-23.490399051246939

>  <r_i_glide_emodel_strain>  (1) 
0

>  <r_i_glide_energy>  (1) 
-17.326440654634055

>  <r_i_glide_erotb>  (1) 
0

>  <r_i_glide_esite>  (1) 
0

>  <r_i_glide_evdw>  (1) 
-16.303366233055179

>  <r_i_glide_gscore>  (1) 
-5.5793117651327888

>  <r_i_glide_gscore_strain>  (1) 
0

>  <r_i_glide_hbond>  (1) 
0

>  <r_i_glide_ligand_efficiency>  (1) 
-0.79704453787611274

>  <r_i_glide_ligand_efficiency_ln>  (1) 
-1.8939178328035386

>  <r_i_glide_ligand_efficiency_sa>  (1) 
-1.5246913505616246

>  <r_i_glide_lipo>  (1) 
-2.045637758290527

>  <r_i_glide_metal>  (1) 
-0

>  <r_i_glide_rewards>  (1) 
-2.565044531952672

>  <r_lp_Energy>  (1) 
6.403492

>  <r_lp_tautomer_probability>  (1) 
1

>  <s_epik_cmdline>  (1) 
J2VwaWtfcHl0aG9uJywgJy1waHQnLCAnMS4wJywgJy1waCcsICc3LjQnLCAnLXRuJywgJzgnLCAnLW1hJywgJzUwMCcsICctaW1hZScsICc8aW5maWxlLm1hZT4nLCAnLW9tYWUnLCAnPG91dGZpbGUubWFlPic=

>  <s_epik_input>  (1) 
W0NIM11jMVtjSF1bY0hdW2NIXVtjSF1bY0hdMQ==

>  <s_glide_docking_method>  (1) 
confgen

>  <s_i_glide_gridfile>  (1) 
gpcr_5ht2c_6bqh_protein_autoprepared_prepared

>  <s_lp_Force_Field>  (1) 
S-OPLS

>  <s_lp_Variant>  (1) 
Pocket2Mol_25_num_sample_50-1

>  <s_m_source_file>  (1) 
generated__ligand_Pocket2Mol_2026-05-06_prepared.sdf

>  <GenAI_Model>  (1) 
Pocket2Mol

>  <Protein>  (1) 
GPCR_5HT2C

$$$$
Pocket2Mol_39_num_sample_50
     RDKit          3D

  0  0  0  0  0  0  0  0  0  0999 V3000
M  V30 BEGIN CTAB
M  V30 COUNTS 15 15 0 0 1
M  V30 BEGIN ATOM
M  V30 1 C 39.755557 28.407336 50.831545 0
M  V30 2 C 39.012171 27.398059 51.521699 0
M  V30 3 C 38.566748 27.808785 52.754226 0
M  V30 4 C 37.762052 27.035561 53.743619 0
M  V30 5 C 39.867399 29.571172 51.543462 0
M  V30 6 C 40.559641 30.821435 51.139350 0
M  V30 7 S 39.067403 29.435597 53.076283 0
M  V30 8 H 40.172883 28.244838 49.853504 0
M  V30 9 H 38.832185 26.424415 51.092888 0
M  V30 10 H 37.350162 26.129707 53.299186 0
M  V30 11 H 38.374982 26.744815 54.596627 0
M  V30 12 H 36.928562 27.632904 54.113830 0
M  V30 13 H 41.303839 30.632354 50.364987 0
M  V30 14 H 39.849982 31.555197 50.757536 0
M  V30 15 H 41.067402 31.251832 51.996944 0
M  V30 END ATOM
M  V30 BEGIN BOND
M  V30 1 1 2 1
M  V30 2 2 3 2
M  V30 3 1 4 3
M  V30 4 2 5 1
M  V30 5 1 6 5
M  V30 6 1 7 3
M  V30 7 1 7 5
M  V30 8 1 8 1
M  V30 9 1 9 2
M  V30 10 1 10 4
M  V30 11 1 11 4
M  V30 12 1 12 4
M  V30 13 1 13 6
M  V30 14 1 14 6
M  V30 15 1 15 6
M  V30 END BOND
M  V30 END CTAB
M  END
>  <i_epik_Tot_Q>  (1) 
0

>  <i_epik_Tot_abs_Q>  (1) 
0

>  <i_i_glide_confnum>  (1) 
1

>  <i_i_glide_lignum>  (1) 
40

>  <i_i_glide_posenum>  (1) 
269

>  <i_i_glide_rotatable_bonds>  (1) 
0

>  <i_lp_mmshare_version>  (1) 
72125

>  <i_m_source_file_index>  (1) 
40

>  <i_f3d_flags>  (1) 
0

>  <num_sample>  (1) 
50

>  <b_lp_Chiralities_Consistent>  (1) 
1

>  <r_epik_Charging_Adjusted_Penalty>  (1) 
0

>  <r_epik_Ionization_Penalty>  (1) 
0

>  <r_epik_Ionization_Penalty_Charging>  (1) 
0

>  <r_epik_Ionization_Penalty_Neutral>  (1) 
0

>  <r_epik_State_Penalty>  (1) 
-0

>  <r_glide_ring_energy>  (1) 
0

>  <r_i_docking_score>  (1) 
-5.5701314908742852

>  <r_i_glide_ecoul>  (1) 
-0.57708921932463741

>  <r_i_glide_eff_state_penalty>  (1) 
-0

>  <r_i_glide_einternal>  (1) 
0

>  <r_i_glide_emodel>  (1) 
-25.048855935156745

>  <r_i_glide_emodel_strain>  (1) 
0.0023231346137277953

>  <r_i_glide_energy>  (1) 
-18.554137508949786

>  <r_i_glide_erotb>  (1) 
0

>  <r_i_glide_esite>  (1) 
0

>  <r_i_glide_evdw>  (1) 
-17.977048289625149

>  <r_i_glide_gscore>  (1) 
-5.5701314908742852

>  <r_i_glide_gscore_strain>  (1) 
0

>  <r_i_glide_hbond>  (1) 
0

>  <r_i_glide_ligand_efficiency>  (1) 
-0.79573307012489791

>  <r_i_glide_ligand_efficiency_ln>  (1) 
-1.8908015550509916

>  <r_i_glide_ligand_efficiency_sa>  (1) 
-1.5221826030051253

>  <r_i_glide_lipo>  (1) 
-2.1153672214264305

>  <r_i_glide_metal>  (1) 
-0

>  <r_i_glide_rewards>  (1) 
-2.4693484720679009

>  <r_lp_Energy>  (1) 
3.6641779999999997

>  <r_lp_tautomer_probability>  (1) 
1

>  <s_epik_cmdline>  (1) 
J2VwaWtfcHl0aG9uJywgJy1waHQnLCAnMS4wJywgJy1waCcsICc3LjQnLCAnLXRuJywgJzgnLCAnLW1hJywgJzUwMCcsICctaW1hZScsICc8aW5maWxlLm1hZT4nLCAnLW9tYWUnLCAnPG91dGZpbGUubWFlPic=

>  <s_epik_input>  (1) 
W0NIM11jKHMxKVtjSF1bY0hdYzFbQ0gzXQ==

>  <s_glide_docking_method>  (1) 
confgen

>  <s_i_glide_gridfile>  (1) 
gpcr_5ht2c_6bqh_protein_autoprepared_prepared

>  <s_lp_Force_Field>  (1) 
S-OPLS

>  <s_lp_Variant>  (1) 
Pocket2Mol_39_num_sample_50-1

>  <s_m_source_file>  (1) 
generated__ligand_Pocket2Mol_2026-05-06_prepared.sdf

>  <GenAI_Model>  (1) 
Pocket2Mol

>  <Protein>  (1) 
GPCR_5HT2C

$$$$
Pocket2Mol_28_num_sample_50
     RDKit          3D

  0  0  0  0  0  0  0  0  0  0999 V3000
M  V30 BEGIN CTAB
M  V30 COUNTS 14 14 0 0 1
M  V30 BEGIN ATOM
M  V30 1 C 40.267403 30.133152 51.175871 0
M  V30 2 C 39.867403 30.332616 52.511749 0
M  V30 3 C 39.066935 29.370392 53.159613 0
M  V30 4 N 38.668022 29.570020 54.479552 0
M  V30 5 C 39.867404 28.972123 50.487867 0
M  V30 6 C 38.668241 28.207186 52.469906 0
M  V30 7 C 39.069206 28.008281 51.134863 0
M  V30 8 H 40.879880 30.872061 50.679183 0
M  V30 9 H 40.174549 31.223574 53.038179 0
M  V30 10 H 37.965449 28.974524 54.893700 0
M  V30 11 H 38.801621 30.467550 54.924605 0
M  V30 12 H 40.172125 28.821427 49.462895 0
M  V30 13 H 38.054453 27.467729 52.963634 0
M  V30 14 H 38.763112 27.116746 50.606643 0
M  V30 END ATOM
M  V30 BEGIN BOND
M  V30 1 1 2 1
M  V30 2 2 3 2
M  V30 3 1 4 3
M  V30 4 2 5 1
M  V30 5 1 6 3
M  V30 6 1 7 5
M  V30 7 2 7 6
M  V30 8 1 8 1
M  V30 9 1 9 2
M  V30 10 1 10 4
M  V30 11 1 11 4
M  V30 12 1 12 5
M  V30 13 1 13 6
M  V30 14 1 14 7
M  V30 END BOND
M  V30 END CTAB
M  END
>  <i_epik_Tot_Q>  (1) 
0

>  <i_epik_Tot_abs_Q>  (1) 
0

>  <i_i_glide_confnum>  (1) 
1

>  <i_i_glide_lignum>  (1) 
29

>  <i_i_glide_posenum>  (1) 
120

>  <i_i_glide_rotatable_bonds>  (1) 
0

>  <i_lp_mmshare_version>  (1) 
72125

>  <i_m_source_file_index>  (1) 
29

>  <i_f3d_flags>  (1) 
0

>  <num_sample>  (1) 
50

>  <b_lp_Chiralities_Consistent>  (1) 
1

>  <r_epik_Charging_Adjusted_Penalty>  (1) 
0

>  <r_epik_Ionization_Penalty>  (1) 
0.00088153335660618348

>  <r_epik_Ionization_Penalty_Charging>  (1) 
0

>  <r_epik_Ionization_Penalty_Neutral>  (1) 
0.00088153335660618348

>  <r_epik_State_Penalty>  (1) 
-0

>  <r_glide_ring_energy>  (1) 
0

>  <r_i_docking_score>  (1) 
-5.5358884952670513

>  <r_i_glide_ecoul>  (1) 
-1.0250388869011902

>  <r_i_glide_eff_state_penalty>  (1) 
-0

>  <r_i_glide_einternal>  (1) 
0

>  <r_i_glide_emodel>  (1) 
-23.866820253541562

>  <r_i_glide_emodel_strain>  (1) 
0

>  <r_i_glide_energy>  (1) 
-17.715923388357517

>  <r_i_glide_erotb>  (1) 
0

>  <r_i_glide_esite>  (1) 
0

>  <r_i_glide_evdw>  (1) 
-16.690884501456328

>  <r_i_glide_gscore>  (1) 
-5.5358884952670513

>  <r_i_glide_gscore_strain>  (1) 
0

>  <r_i_glide_hbond>  (1) 
0

>  <r_i_glide_ligand_efficiency>  (1) 
-0.79084121360957871

>  <r_i_glide_ligand_efficiency_ln>  (1) 
-1.8791776446550092

>  <r_i_glide_ligand_efficiency_sa>  (1) 
-1.5128248181353232

>  <r_i_glide_lipo>  (1) 
-1.8650915327687092

>  <r_i_glide_metal>  (1) 
-0

>  <r_i_glide_rewards>  (1) 
-2.682496904390347

>  <r_lp_Energy>  (1) 
7.0325409999999993

>  <r_lp_tautomer_probability>  (1) 
1

>  <s_epik_cmdline>  (1) 
J2VwaWtfcHl0aG9uJywgJy1waHQnLCAnMS4wJywgJy1waCcsICc3LjQnLCAnLXRuJywgJzgnLCAnLW1hJywgJzUwMCcsICctaW1hZScsICc8aW5maWxlLm1hZT4nLCAnLW9tYWUnLCAnPG91dGZpbGUubWFlPic=

>  <s_epik_input>  (1) 
W2NIXTFbY0hdW2NIXVtjSF1bY0hdYzFbTkgyXQ==

>  <s_glide_docking_method>  (1) 
confgen

>  <s_i_glide_gridfile>  (1) 
gpcr_5ht2c_6bqh_protein_autoprepared_prepared

>  <s_lp_Force_Field>  (1) 
S-OPLS

>  <s_lp_Variant>  (1) 
Pocket2Mol_28_num_sample_50-1

>  <s_m_source_file>  (1) 
generated__ligand_Pocket2Mol_2026-05-06_prepared.sdf

>  <GenAI_Model>  (1) 
Pocket2Mol

>  <Protein>  (1) 
GPCR_5HT2C

$$$$
Pocket2Mol_8_num_sample_50
     RDKit          3D

  0  0  0  0  0  0  0  0  0  0999 V3000
M  V30 BEGIN CTAB
M  V30 COUNTS 12 12 0 0 1
M  V30 BEGIN ATOM
M  V30 1 C 38.734459 28.134220 52.333128 0
M  V30 2 C 39.400342 28.423628 51.096159 0
M  V30 3 C 40.054238 29.633936 51.110147 0
M  V30 4 C 40.835789 30.263839 50.009419 0
M  V30 5 C 38.895276 29.126595 53.266994 0
M  V30 6 S 39.867403 30.421429 52.649215 0
M  V30 7 H 38.170367 27.225120 52.487178 0
M  V30 8 H 39.371479 27.747372 50.254021 0
M  V30 9 H 40.831990 29.635607 49.118195 0
M  V30 10 H 40.408665 31.230309 49.742000 0
M  V30 11 H 41.871279 30.422782 50.310178 0
M  V30 12 H 38.504028 29.170899 54.273239 0
M  V30 END ATOM
M  V30 BEGIN BOND
M  V30 1 1 2 1
M  V30 2 2 3 2
M  V30 3 1 4 3
M  V30 4 2 5 1
M  V30 5 1 6 3
M  V30 6 1 6 5
M  V30 7 1 7 1
M  V30 8 1 8 2
M  V30 9 1 9 4
M  V30 10 1 10 4
M  V30 11 1 11 4
M  V30 12 1 12 5
M  V30 END BOND
M  V30 END CTAB
M  END
>  <i_epik_Tot_Q>  (1) 
0

>  <i_epik_Tot_abs_Q>  (1) 
0

>  <i_i_glide_confnum>  (1) 
1

>  <i_i_glide_lignum>  (1) 
9

>  <i_i_glide_posenum>  (1) 
362

>  <i_i_glide_rotatable_bonds>  (1) 
0

>  <i_lp_mmshare_version>  (1) 
72125

>  <i_m_source_file_index>  (1) 
9

>  <i_f3d_flags>  (1) 
0

>  <num_sample>  (1) 
50

>  <b_lp_Chiralities_Consistent>  (1) 
1

>  <r_epik_Charging_Adjusted_Penalty>  (1) 
0

>  <r_epik_Ionization_Penalty>  (1) 
0

>  <r_epik_Ionization_Penalty_Charging>  (1) 
0

>  <r_epik_Ionization_Penalty_Neutral>  (1) 
0

>  <r_epik_State_Penalty>  (1) 
-0

>  <r_glide_ring_energy>  (1) 
0

>  <r_i_docking_score>  (1) 
-5.5302521306329435

>  <r_i_glide_ecoul>  (1) 
-0.70545338388287293

>  <r_i_glide_eff_state_penalty>  (1) 
-0

>  <r_i_glide_einternal>  (1) 
0

>  <r_i_glide_emodel>  (1) 
-23.478017149530746

>  <r_i_glide_emodel_strain>  (1) 
0

>  <r_i_glide_energy>  (1) 
-17.419310144999184

>  <r_i_glide_erotb>  (1) 
0

>  <r_i_glide_esite>  (1) 
0

>  <r_i_glide_evdw>  (1) 
-16.713856761116311

>  <r_i_glide_gscore>  (1) 
-5.5302521306329435

>  <r_i_glide_gscore_strain>  (1) 
0

>  <r_i_glide_hbond>  (1) 
0

>  <r_i_glide_ligand_efficiency>  (1) 
-0.92170868843882392

>  <r_i_glide_ligand_efficiency_ln>  (1) 
-1.9809199866928739

>  <r_i_glide_ligand_efficiency_sa>  (1) 
-1.6748558383544898

>  <r_i_glide_lipo>  (1) 
-1.9357599143356174

>  <r_i_glide_metal>  (1) 
-0

>  <r_i_glide_rewards>  (1) 
-2.6529813706590795

>  <r_lp_Energy>  (1) 
3.145988

>  <r_lp_tautomer_probability>  (1) 
1

>  <s_epik_cmdline>  (1) 
J2VwaWtfcHl0aG9uJywgJy1waHQnLCAnMS4wJywgJy1waCcsICc3LjQnLCAnLXRuJywgJzgnLCAnLW1hJywgJzUwMCcsICctaW1hZScsICc8aW5maWxlLm1hZT4nLCAnLW9tYWUnLCAnPG91dGZpbGUubWFlPic=

>  <s_epik_input>  (1) 
czFbY0hdW2NIXVtjSF1jMVtDSDNd

>  <s_glide_docking_method>  (1) 
confgen

>  <s_i_glide_gridfile>  (1) 
gpcr_5ht2c_6bqh_protein_autoprepared_prepared

>  <s_lp_Force_Field>  (1) 
S-OPLS

>  <s_lp_Variant>  (1) 
Pocket2Mol_8_num_sample_50-1

>  <s_m_source_file>  (1) 
generated__ligand_Pocket2Mol_2026-05-06_prepared.sdf

>  <GenAI_Model>  (1) 
Pocket2Mol

>  <Protein>  (1) 
GPCR_5HT2C

$$$$
Pocket2Mol_39_num_sample_50
     RDKit          3D

  0  0  0  0  0  0  0  0  0  0999 V3000
M  V30 BEGIN CTAB
M  V30 COUNTS 15 15 0 0 1
M  V30 BEGIN ATOM
M  V30 1 C 39.920717 29.620548 51.687049 0
M  V30 2 C 39.867403 30.640285 52.693535 0
M  V30 3 C 39.081599 30.294144 53.766898 0
M  V30 4 C 38.790290 31.100553 54.987732 0
M  V30 5 C 39.182692 28.509489 52.011224 0
M  V30 6 C 39.019068 27.260597 51.221487 0
M  V30 7 S 38.404335 28.712893 53.547749 0
M  V30 8 H 40.494667 29.736284 50.779248 0
M  V30 9 H 40.394720 31.576314 52.592539 0
M  V30 10 H 39.276975 32.074909 54.941109 0
M  V30 11 H 37.717483 31.267241 55.096840 0
M  V30 12 H 39.145350 30.590065 55.882935 0
M  V30 13 H 39.508997 27.340918 50.253545 0
M  V30 14 H 39.466240 26.421391 51.750612 0
M  V30 15 H 37.965367 27.043961 51.054057 0
M  V30 END ATOM
M  V30 BEGIN BOND
M  V30 1 1 2 1
M  V30 2 2 3 2
M  V30 3 1 4 3
M  V30 4 2 5 1
M  V30 5 1 6 5
M  V30 6 1 7 3
M  V30 7 1 7 5
M  V30 8 1 8 1
M  V30 9 1 9 2
M  V30 10 1 10 4
M  V30 11 1 11 4
M  V30 12 1 12 4
M  V30 13 1 13 6
M  V30 14 1 14 6
M  V30 15 1 15 6
M  V30 END BOND
M  V30 END CTAB
M  END
>  <i_epik_Tot_Q>  (1) 
0

>  <i_epik_Tot_abs_Q>  (1) 
0

>  <i_i_glide_confnum>  (1) 
1

>  <i_i_glide_lignum>  (1) 
40

>  <i_i_glide_posenum>  (1) 
124

>  <i_i_glide_rotatable_bonds>  (1) 
0

>  <i_lp_mmshare_version>  (1) 
72125

>  <i_m_source_file_index>  (1) 
40

>  <i_f3d_flags>  (1) 
0

>  <num_sample>  (1) 
50

>  <b_lp_Chiralities_Consistent>  (1) 
1

>  <r_epik_Charging_Adjusted_Penalty>  (1) 
0

>  <r_epik_Ionization_Penalty>  (1) 
0

>  <r_epik_Ionization_Penalty_Charging>  (1) 
0

>  <r_epik_Ionization_Penalty_Neutral>  (1) 
0

>  <r_epik_State_Penalty>  (1) 
-0

>  <r_glide_ring_energy>  (1) 
0

>  <r_i_docking_score>  (1) 
-5.5282440190831457

>  <r_i_glide_ecoul>  (1) 
-1.2258687700812734

>  <r_i_glide_eff_state_penalty>  (1) 
-0

>  <r_i_glide_einternal>  (1) 
0

>  <r_i_glide_emodel>  (1) 
-24.516055189503042

>  <r_i_glide_emodel_strain>  (1) 
0

>  <r_i_glide_energy>  (1) 
-18.067871478007923

>  <r_i_glide_erotb>  (1) 
0

>  <r_i_glide_esite>  (1) 
0

>  <r_i_glide_evdw>  (1) 
-16.84200270792665

>  <r_i_glide_gscore>  (1) 
-5.5282440190831457

>  <r_i_glide_gscore_strain>  (1) 
0

>  <r_i_glide_hbond>  (1) 
0

>  <r_i_glide_ligand_efficiency>  (1) 
-0.78974914558330656

>  <r_i_glide_ligand_efficiency_ln>  (1) 
-1.8765826991892227

>  <r_i_glide_ligand_efficiency_sa>  (1) 
-1.5107357671541584

>  <r_i_glide_lipo>  (1) 
-1.9985229946293974

>  <r_i_glide_metal>  (1) 
-0

>  <r_i_glide_rewards>  (1) 
-2.5037405735452252

>  <r_lp_Energy>  (1) 
3.6641779999999997

>  <r_lp_tautomer_probability>  (1) 
1

>  <s_epik_cmdline>  (1) 
J2VwaWtfcHl0aG9uJywgJy1waHQnLCAnMS4wJywgJy1waCcsICc3LjQnLCAnLXRuJywgJzgnLCAnLW1hJywgJzUwMCcsICctaW1hZScsICc8aW5maWxlLm1hZT4nLCAnLW9tYWUnLCAnPG91dGZpbGUubWFlPic=

>  <s_epik_input>  (1) 
W0NIM11jKHMxKVtjSF1bY0hdYzFbQ0gzXQ==

>  <s_glide_docking_method>  (1) 
confgen

>  <s_i_glide_gridfile>  (1) 
gpcr_5ht2c_6bqh_protein_autoprepared_prepared

>  <s_lp_Force_Field>  (1) 
S-OPLS

>  <s_lp_Variant>  (1) 
Pocket2Mol_39_num_sample_50-1

>  <s_m_source_file>  (1) 
generated__ligand_Pocket2Mol_2026-05-06_prepared.sdf

>  <GenAI_Model>  (1) 
Pocket2Mol

>  <Protein>  (1) 
GPCR_5HT2C

$$$$
Pocket2Mol_27_num_sample_50
     RDKit          3D

  0  0  0  0  0  0  0  0  0  0999 V3000
M  V30 BEGIN CTAB
M  V30 COUNTS 13 13 0 0 1
M  V30 BEGIN ATOM
M  V30 1 C 39.467422 28.531248 50.845688 0
M  V30 2 C 38.675239 27.853740 51.793321 0
M  V30 3 C 40.062938 29.764338 51.175737 0
M  V30 4 C 38.476085 28.409236 53.071961 0
M  V30 5 O 40.826346 30.421430 50.253762 0
M  V30 6 C 39.071371 29.641876 53.404655 0
M  V30 7 C 39.867405 30.319316 52.457096 0
M  V30 8 H 39.615379 28.106723 49.864651 0
M  V30 9 H 38.218328 26.909091 51.537546 0
M  V30 10 H 37.866599 27.889977 53.797448 0
M  V30 11 H 41.085865 31.291262 50.521885 0
M  V30 12 H 38.918529 30.068419 54.385449 0
M  V30 13 H 40.322463 31.264136 52.713261 0
M  V30 END ATOM
M  V30 BEGIN BOND
M  V30 1 1 2 1
M  V30 2 2 3 1
M  V30 3 2 4 2
M  V30 4 1 5 3
M  V30 5 1 6 4
M  V30 6 1 7 3
M  V30 7 2 7 6
M  V30 8 1 8 1
M  V30 9 1 9 2
M  V30 10 1 10 4
M  V30 11 1 11 5
M  V30 12 1 12 6
M  V30 13 1 13 7
M  V30 END BOND
M  V30 END CTAB
M  END
>  <i_epik_Tot_Q>  (1) 
0

>  <i_epik_Tot_abs_Q>  (1) 
0

>  <i_i_glide_confnum>  (1) 
1

>  <i_i_glide_lignum>  (1) 
28

>  <i_i_glide_posenum>  (1) 
173

>  <i_i_glide_rotatable_bonds>  (1) 
1

>  <i_lp_mmshare_version>  (1) 
72125

>  <i_m_source_file_index>  (1) 
28

>  <i_f3d_flags>  (1) 
0

>  <num_sample>  (1) 
50

>  <b_lp_Chiralities_Consistent>  (1) 
1

>  <r_epik_Charging_Adjusted_Penalty>  (1) 
0

>  <r_epik_Ionization_Penalty>  (1) 
0.0022482968708945868

>  <r_epik_Ionization_Penalty_Charging>  (1) 
0

>  <r_epik_Ionization_Penalty_Neutral>  (1) 
0.0022482968708945868

>  <r_epik_State_Penalty>  (1) 
-0

>  <r_glide_ring_energy>  (1) 
0

>  <r_i_docking_score>  (1) 
-5.5117281534986837

>  <r_i_glide_ecoul>  (1) 
-1.9396006418421932

>  <r_i_glide_eff_state_penalty>  (1) 
-0

>  <r_i_glide_einternal>  (1) 
0.069994336989082792

>  <r_i_glide_emodel>  (1) 
-25.479809057857317

>  <r_i_glide_emodel_strain>  (1) 
0

>  <r_i_glide_energy>  (1) 
-19.053952012256982

>  <r_i_glide_erotb>  (1) 
0

>  <r_i_glide_esite>  (1) 
0

>  <r_i_glide_evdw>  (1) 
-17.114351370414788

>  <r_i_glide_gscore>  (1) 
-5.5117281534986837

>  <r_i_glide_gscore_strain>  (1) 
0

>  <r_i_glide_hbond>  (1) 
0

>  <r_i_glide_ligand_efficiency>  (1) 
-0.78738973621409769

>  <r_i_glide_ligand_efficiency_ln>  (1) 
-1.8709763280683118

>  <r_i_glide_ligand_efficiency_sa>  (1) 
-1.5062223793988734

>  <r_i_glide_lipo>  (1) 
-1.8463014269504254

>  <r_i_glide_metal>  (1) 
-0

>  <r_i_glide_rewards>  (1) 
-2.5187690617511898

>  <r_lp_Energy>  (1) 
6.6738649999999993

>  <r_lp_tautomer_probability>  (1) 
1

>  <s_epik_cmdline>  (1) 
J2VwaWtfcHl0aG9uJywgJy1waHQnLCAnMS4wJywgJy1waCcsICc3LjQnLCAnLXRuJywgJzgnLCAnLW1hJywgJzUwMCcsICctaW1hZScsICc8aW5maWxlLm1hZT4nLCAnLW9tYWUnLCAnPG91dGZpbGUubWFlPic=

>  <s_epik_input>  (1) 
W09IXWMxW2NIXVtjSF1bY0hdW2NIXVtjSF0x

>  <s_glide_docking_method>  (1) 
confgen

>  <s_i_glide_gridfile>  (1) 
gpcr_5ht2c_6bqh_protein_autoprepared_prepared

>  <s_lp_Force_Field>  (1) 
S-OPLS

>  <s_lp_Variant>  (1) 
Pocket2Mol_27_num_sample_50-1

>  <s_m_source_file>  (1) 
generated__ligand_Pocket2Mol_2026-05-06_prepared.sdf

>  <GenAI_Model>  (1) 
Pocket2Mol

>  <Protein>  (1) 
GPCR_5HT2C

$$$$
Pocket2Mol_27_num_sample_50
     RDKit          3D

  0  0  0  0  0  0  0  0  0  0999 V3000
M  V30 BEGIN CTAB
M  V30 COUNTS 13 13 0 0 1
M  V30 BEGIN ATOM
M  V30 1 C 39.867403 30.315588 52.414547 0
M  V30 2 C 39.067403 29.621430 53.344988 0
M  V30 3 C 40.130559 29.749435 51.150945 0
M  V30 4 C 38.532537 28.361169 53.011970 0
M  V30 5 O 40.901429 30.421429 50.247081 0
M  V30 6 C 38.798002 27.795075 51.750073 0
M  V30 7 C 39.596090 28.489099 50.820414 0
M  V30 8 H 40.275099 31.281353 52.670357 0
M  V30 9 H 38.863886 30.056075 54.312674 0
M  V30 10 H 37.919190 27.828669 53.724273 0
M  V30 11 H 41.121334 31.303385 50.511270 0
M  V30 12 H 38.387716 26.828843 51.493846 0
M  V30 13 H 39.796263 28.055761 49.853504 0
M  V30 END ATOM
M  V30 BEGIN BOND
M  V30 1 1 2 1
M  V30 2 2 3 1
M  V30 3 2 4 2
M  V30 4 1 5 3
M  V30 5 1 6 4
M  V30 6 1 7 3
M  V30 7 2 7 6
M  V30 8 1 8 1
M  V30 9 1 9 2
M  V30 10 1 10 4
M  V30 11 1 11 5
M  V30 12 1 12 6
M  V30 13 1 13 7
M  V30 END BOND
M  V30 END CTAB
M  END
>  <i_epik_Tot_Q>  (1) 
0

>  <i_epik_Tot_abs_Q>  (1) 
0

>  <i_i_glide_confnum>  (1) 
1

>  <i_i_glide_lignum>  (1) 
28

>  <i_i_glide_posenum>  (1) 
285

>  <i_i_glide_rotatable_bonds>  (1) 
1

>  <i_lp_mmshare_version>  (1) 
72125

>  <i_m_source_file_index>  (1) 
28

>  <i_f3d_flags>  (1) 
0

>  <num_sample>  (1) 
50

>  <b_lp_Chiralities_Consistent>  (1) 
1

>  <r_epik_Charging_Adjusted_Penalty>  (1) 
0

>  <r_epik_Ionization_Penalty>  (1) 
0.0022482968708945868

>  <r_epik_Ionization_Penalty_Charging>  (1) 
0

>  <r_epik_Ionization_Penalty_Neutral>  (1) 
0.0022482968708945868

>  <r_epik_State_Penalty>  (1) 
-0

>  <r_glide_ring_energy>  (1) 
0

>  <r_i_docking_score>  (1) 
-5.4995121973680963

>  <r_i_glide_ecoul>  (1) 
-1.9004636514736808

>  <r_i_glide_eff_state_penalty>  (1) 
-0

>  <r_i_glide_einternal>  (1) 
0.029912637444045223

>  <r_i_glide_emodel>  (1) 
-25.4074872028668

>  <r_i_glide_emodel_strain>  (1) 
0

>  <r_i_glide_energy>  (1) 
-18.975908865615729

>  <r_i_glide_erotb>  (1) 
0

>  <r_i_glide_esite>  (1) 
0

>  <r_i_glide_evdw>  (1) 
-17.075445214142047

>  <r_i_glide_gscore>  (1) 
-5.4995121973680963

>  <r_i_glide_gscore_strain>  (1) 
0

>  <r_i_glide_hbond>  (1) 
0

>  <r_i_glide_ligand_efficiency>  (1) 
-0.78564459962401378

>  <r_i_glide_ligand_efficiency_ln>  (1) 
-1.8668295769752736

>  <r_i_glide_ligand_efficiency_sa>  (1) 
-1.5028840531975047

>  <r_i_glide_lipo>  (1) 
-1.8436133587807397

>  <r_i_glide_metal>  (1) 
-0

>  <r_i_glide_rewards>  (1) 
-2.517057030159203

>  <r_lp_Energy>  (1) 
6.6738649999999993

>  <r_lp_tautomer_probability>  (1) 
1

>  <s_epik_cmdline>  (1) 
J2VwaWtfcHl0aG9uJywgJy1waHQnLCAnMS4wJywgJy1waCcsICc3LjQnLCAnLXRuJywgJzgnLCAnLW1hJywgJzUwMCcsICctaW1hZScsICc8aW5maWxlLm1hZT4nLCAnLW9tYWUnLCAnPG91dGZpbGUubWFlPic=

>  <s_epik_input>  (1) 
W09IXWMxW2NIXVtjSF1bY0hdW2NIXVtjSF0x

>  <s_glide_docking_method>  (1) 
confgen

>  <s_i_glide_gridfile>  (1) 
gpcr_5ht2c_6bqh_protein_autoprepared_prepared

>  <s_lp_Force_Field>  (1) 
S-OPLS

>  <s_lp_Variant>  (1) 
Pocket2Mol_27_num_sample_50-1

>  <s_m_source_file>  (1) 
generated__ligand_Pocket2Mol_2026-05-06_prepared.sdf

>  <GenAI_Model>  (1) 
Pocket2Mol

>  <Protein>  (1) 
GPCR_5HT2C

$$$$
Pocket2Mol_6_num_sample_50
     RDKit          3D

  0  0  0  0  0  0  0  0  0  0999 V3000
M  V30 BEGIN CTAB
M  V30 COUNTS 12 12 0 0 1
M  V30 BEGIN ATOM
M  V30 1 C 39.867403 28.972904 50.537486 0
M  V30 2 C 40.267403 30.133824 51.228240 0
M  V30 3 C 39.067404 28.009538 51.183087 0
M  V30 4 C 38.667404 28.207091 52.519443 0
M  V30 5 C 39.067403 29.368011 53.210197 0
M  V30 6 C 39.867403 30.331377 52.564596 0
M  V30 7 H 40.174077 28.821442 49.512924 0
M  V30 8 H 40.880749 30.872420 50.733268 0
M  V30 9 H 38.760730 27.119481 50.653498 0
M  V30 10 H 38.054057 27.468494 53.014414 0
M  V30 11 H 38.760732 29.519471 54.234759 0
M  V30 12 H 40.174076 31.221434 53.094187 0
M  V30 END ATOM
M  V30 BEGIN BOND
M  V30 1 1 2 1
M  V30 2 2 3 1
M  V30 3 1 4 3
M  V30 4 2 5 4
M  V30 5 2 6 2
M  V30 6 1 6 5
M  V30 7 1 7 1
M  V30 8 1 8 2
M  V30 9 1 9 3
M  V30 10 1 10 4
M  V30 11 1 11 5
M  V30 12 1 12 6
M  V30 END BOND
M  V30 END CTAB
M  END
>  <i_epik_Tot_Q>  (1) 
0

>  <i_epik_Tot_abs_Q>  (1) 
0

>  <i_i_glide_confnum>  (1) 
1

>  <i_i_glide_lignum>  (1) 
7

>  <i_i_glide_posenum>  (1) 
383

>  <i_i_glide_rotatable_bonds>  (1) 
0

>  <i_lp_mmshare_version>  (1) 
72125

>  <i_m_source_file_index>  (1) 
7

>  <i_f3d_flags>  (1) 
0

>  <num_sample>  (1) 
50

>  <b_lp_Chiralities_Consistent>  (1) 
1

>  <r_epik_Charging_Adjusted_Penalty>  (1) 
0

>  <r_epik_Ionization_Penalty>  (1) 
0

>  <r_epik_Ionization_Penalty_Charging>  (1) 
0

>  <r_epik_Ionization_Penalty_Neutral>  (1) 
0

>  <r_epik_State_Penalty>  (1) 
-0

>  <r_glide_ring_energy>  (1) 
0

>  <r_i_docking_score>  (1) 
-5.4383678603866645

>  <r_i_glide_ecoul>  (1) 
-0.81886327902229539

>  <r_i_glide_eff_state_penalty>  (1) 
-0

>  <r_i_glide_einternal>  (1) 
0

>  <r_i_glide_emodel>  (1) 
-20.764411712195272

>  <r_i_glide_emodel_strain>  (1) 
0

>  <r_i_glide_energy>  (1) 
-15.642713411359834

>  <r_i_glide_erotb>  (1) 
0

>  <r_i_glide_esite>  (1) 
0

>  <r_i_glide_evdw>  (1) 
-14.823850132337538

>  <r_i_glide_gscore>  (1) 
-5.4383678603866645

>  <r_i_glide_gscore_strain>  (1) 
0

>  <r_i_glide_hbond>  (1) 
0

>  <r_i_glide_ligand_efficiency>  (1) 
-0.90639464339777742

>  <r_i_glide_ligand_efficiency_ln>  (1) 
-1.9480073123528865

>  <r_i_glide_ligand_efficiency_sa>  (1) 
-1.6470283717508454

>  <r_i_glide_lipo>  (1) 
-1.865236936293746

>  <r_i_glide_metal>  (1) 
-0

>  <r_i_glide_rewards>  (1) 
-2.7091089256226972

>  <r_lp_Energy>  (1) 
6.1542199999999996

>  <r_lp_tautomer_probability>  (1) 
1

>  <s_epik_cmdline>  (1) 
J2VwaWtfcHl0aG9uJywgJy1waHQnLCAnMS4wJywgJy1waCcsICc3LjQnLCAnLXRuJywgJzgnLCAnLW1hJywgJzUwMCcsICctaW1hZScsICc8aW5maWxlLm1hZT4nLCAnLW9tYWUnLCAnPG91dGZpbGUubWFlPic=

>  <s_epik_input>  (1) 
W2NIXTFbY0hdW2NIXVtjSF1bY0hdW2NIXTE=

>  <s_glide_docking_method>  (1) 
confgen

>  <s_i_glide_gridfile>  (1) 
gpcr_5ht2c_6bqh_protein_autoprepared_prepared

>  <s_lp_Force_Field>  (1) 
S-OPLS

>  <s_lp_Variant>  (1) 
Pocket2Mol_6_num_sample_50-1

>  <s_m_source_file>  (1) 
generated__ligand_Pocket2Mol_2026-05-06_prepared.sdf

>  <GenAI_Model>  (1) 
Pocket2Mol

>  <Protein>  (1) 
GPCR_5HT2C

$$$$
Pocket2Mol_28_num_sample_50
     RDKit          3D

  0  0  0  0  0  0  0  0  0  0999 V3000
M  V30 BEGIN CTAB
M  V30 COUNTS 14 14 0 0 1
M  V30 BEGIN ATOM
M  V30 1 C 39.075337 29.626782 53.452141 0
M  V30 2 C 39.867403 30.303608 52.501170 0
M  V30 3 C 40.059760 29.747754 51.220174 0
M  V30 4 N 40.831534 30.421428 50.275177 0
M  V30 5 C 38.481361 28.392638 53.123479 0
M  V30 6 C 39.467403 28.511499 50.894788 0
M  V30 7 C 38.678917 27.834732 51.845802 0
M  V30 8 H 38.924044 30.055127 54.432185 0
M  V30 9 H 40.320748 31.249767 52.753661 0
M  V30 10 H 40.828354 30.118121 49.312989 0
M  V30 11 H 41.112471 31.380355 50.433419 0
M  V30 12 H 37.874303 27.874026 53.851348 0
M  V30 13 H 39.612461 28.084006 49.914339 0
M  V30 14 H 38.223291 26.888857 51.593221 0
M  V30 END ATOM
M  V30 BEGIN BOND
M  V30 1 1 2 1
M  V30 2 2 3 2
M  V30 3 1 4 3
M  V30 4 2 5 1
M  V30 5 1 6 3
M  V30 6 1 7 5
M  V30 7 2 7 6
M  V30 8 1 8 1
M  V30 9 1 9 2
M  V30 10 1 10 4
M  V30 11 1 11 4
M  V30 12 1 12 5
M  V30 13 1 13 6
M  V30 14 1 14 7
M  V30 END BOND
M  V30 END CTAB
M  END
>  <i_epik_Tot_Q>  (1) 
0

>  <i_epik_Tot_abs_Q>  (1) 
0

>  <i_i_glide_confnum>  (1) 
1

>  <i_i_glide_lignum>  (1) 
29

>  <i_i_glide_posenum>  (1) 
243

>  <i_i_glide_rotatable_bonds>  (1) 
0

>  <i_lp_mmshare_version>  (1) 
72125

>  <i_m_source_file_index>  (1) 
29

>  <i_f3d_flags>  (1) 
0

>  <num_sample>  (1) 
50

>  <b_lp_Chiralities_Consistent>  (1) 
1

>  <r_epik_Charging_Adjusted_Penalty>  (1) 
0

>  <r_epik_Ionization_Penalty>  (1) 
0.00088153335660618348

>  <r_epik_Ionization_Penalty_Charging>  (1) 
0

>  <r_epik_Ionization_Penalty_Neutral>  (1) 
0.00088153335660618348

>  <r_epik_State_Penalty>  (1) 
-0

>  <r_glide_ring_energy>  (1) 
0

>  <r_i_docking_score>  (1) 
-5.4114273697806485

>  <r_i_glide_ecoul>  (1) 
-1.2517893855329429

>  <r_i_glide_eff_state_penalty>  (1) 
-0

>  <r_i_glide_einternal>  (1) 
0

>  <r_i_glide_emodel>  (1) 
-24.664301418521895

>  <r_i_glide_emodel_strain>  (1) 
0

>  <r_i_glide_energy>  (1) 
-18.651692661424946

>  <r_i_glide_erotb>  (1) 
0

>  <r_i_glide_esite>  (1) 
0

>  <r_i_glide_evdw>  (1) 
-17.399903275892004

>  <r_i_glide_gscore>  (1) 
-5.4114273697806485

>  <r_i_glide_gscore_strain>  (1) 
0

>  <r_i_glide_hbond>  (1) 
0

>  <r_i_glide_ligand_efficiency>  (1) 
-0.77306105282580695

>  <r_i_glide_ligand_efficiency_ln>  (1) 
-1.836928859325859

>  <r_i_glide_ligand_efficiency_sa>  (1) 
-1.4788125941373393

>  <r_i_glide_lipo>  (1) 
-1.8504781815665758

>  <r_i_glide_metal>  (1) 
-0

>  <r_i_glide_rewards>  (1) 
-2.5031856165895308

>  <r_lp_Energy>  (1) 
7.0325409999999993

>  <r_lp_tautomer_probability>  (1) 
1

>  <s_epik_cmdline>  (1) 
J2VwaWtfcHl0aG9uJywgJy1waHQnLCAnMS4wJywgJy1waCcsICc3LjQnLCAnLXRuJywgJzgnLCAnLW1hJywgJzUwMCcsICctaW1hZScsICc8aW5maWxlLm1hZT4nLCAnLW9tYWUnLCAnPG91dGZpbGUubWFlPic=

>  <s_epik_input>  (1) 
W2NIXTFbY0hdW2NIXVtjSF1bY0hdYzFbTkgyXQ==

>  <s_glide_docking_method>  (1) 
confgen

>  <s_i_glide_gridfile>  (1) 
gpcr_5ht2c_6bqh_protein_autoprepared_prepared

>  <s_lp_Force_Field>  (1) 
S-OPLS

>  <s_lp_Variant>  (1) 
Pocket2Mol_28_num_sample_50-1

>  <s_m_source_file>  (1) 
generated__ligand_Pocket2Mol_2026-05-06_prepared.sdf

>  <GenAI_Model>  (1) 
Pocket2Mol

>  <Protein>  (1) 
GPCR_5HT2C

$$$$
Pocket2Mol_8_num_sample_50
     RDKit          3D

  0  0  0  0  0  0  0  0  0  0999 V3000
M  V30 BEGIN CTAB
M  V30 COUNTS 12 12 0 0 1
M  V30 BEGIN ATOM
M  V30 1 C 38.661508 28.825186 53.356941 0
M  V30 2 C 39.467403 29.818900 52.707021 0
M  V30 3 C 39.867369 29.442957 51.445684 0
M  V30 4 C 40.697746 30.217338 50.478525 0
M  V30 5 C 38.463972 27.712943 52.580174 0
M  V30 6 S 39.262814 27.864163 51.053501 0
M  V30 7 H 38.262464 28.963750 54.351367 0
M  V30 8 H 39.716933 30.758589 53.178663 0
M  V30 9 H 40.496406 31.283887 50.564645 0
M  V30 10 H 41.761468 30.058829 50.653506 0
M  V30 11 H 40.477431 29.920834 49.453287 0
M  V30 12 H 37.899269 26.821473 52.813715 0
M  V30 END ATOM
M  V30 BEGIN BOND
M  V30 1 1 2 1
M  V30 2 2 3 2
M  V30 3 1 4 3
M  V30 4 2 5 1
M  V30 5 1 6 3
M  V30 6 1 6 5
M  V30 7 1 7 1
M  V30 8 1 8 2
M  V30 9 1 9 4
M  V30 10 1 10 4
M  V30 11 1 11 4
M  V30 12 1 12 5
M  V30 END BOND
M  V30 END CTAB
M  END
>  <i_epik_Tot_Q>  (1) 
0

>  <i_epik_Tot_abs_Q>  (1) 
0

>  <i_i_glide_confnum>  (1) 
1

>  <i_i_glide_lignum>  (1) 
9

>  <i_i_glide_posenum>  (1) 
317

>  <i_i_glide_rotatable_bonds>  (1) 
0

>  <i_lp_mmshare_version>  (1) 
72125

>  <i_m_source_file_index>  (1) 
9

>  <i_f3d_flags>  (1) 
0

>  <num_sample>  (1) 
50

>  <b_lp_Chiralities_Consistent>  (1) 
1

>  <r_epik_Charging_Adjusted_Penalty>  (1) 
0

>  <r_epik_Ionization_Penalty>  (1) 
0

>  <r_epik_Ionization_Penalty_Charging>  (1) 
0

>  <r_epik_Ionization_Penalty_Neutral>  (1) 
0

>  <r_epik_State_Penalty>  (1) 
-0

>  <r_glide_ring_energy>  (1) 
0

>  <r_i_docking_score>  (1) 
-5.3802491446651315

>  <r_i_glide_ecoul>  (1) 
-0.86256312399524915

>  <r_i_glide_eff_state_penalty>  (1) 
-0

>  <r_i_glide_einternal>  (1) 
0

>  <r_i_glide_emodel>  (1) 
-24.5757170520336

>  <r_i_glide_emodel_strain>  (1) 
0.0093107230487539105

>  <r_i_glide_energy>  (1) 
-18.690657607337979

>  <r_i_glide_erotb>  (1) 
0

>  <r_i_glide_esite>  (1) 
0

>  <r_i_glide_evdw>  (1) 
-17.828094483342731

>  <r_i_glide_gscore>  (1) 
-5.3802491446651315

>  <r_i_glide_gscore_strain>  (1) 
0

>  <r_i_glide_hbond>  (1) 
0

>  <r_i_glide_ligand_efficiency>  (1) 
-0.89670819077752195

>  <r_i_glide_ligand_efficiency_ln>  (1) 
-1.9271893599604466

>  <r_i_glide_ligand_efficiency_sa>  (1) 
-1.6294269192230861

>  <r_i_glide_lipo>  (1) 
-1.841724058838532

>  <r_i_glide_metal>  (1) 
-0

>  <r_i_glide_rewards>  (1) 
-2.5177358930601756

>  <r_lp_Energy>  (1) 
3.145988

>  <r_lp_tautomer_probability>  (1) 
1

>  <s_epik_cmdline>  (1) 
J2VwaWtfcHl0aG9uJywgJy1waHQnLCAnMS4wJywgJy1waCcsICc3LjQnLCAnLXRuJywgJzgnLCAnLW1hJywgJzUwMCcsICctaW1hZScsICc8aW5maWxlLm1hZT4nLCAnLW9tYWUnLCAnPG91dGZpbGUubWFlPic=

>  <s_epik_input>  (1) 
czFbY0hdW2NIXVtjSF1jMVtDSDNd

>  <s_glide_docking_method>  (1) 
confgen

>  <s_i_glide_gridfile>  (1) 
gpcr_5ht2c_6bqh_protein_autoprepared_prepared

>  <s_lp_Force_Field>  (1) 
S-OPLS

>  <s_lp_Variant>  (1) 
Pocket2Mol_8_num_sample_50-1

>  <s_m_source_file>  (1) 
generated__ligand_Pocket2Mol_2026-05-06_prepared.sdf

>  <GenAI_Model>  (1) 
Pocket2Mol

>  <Protein>  (1) 
GPCR_5HT2C

$$$$
Pocket2Mol_8_num_sample_50
     RDKit          3D

  0  0  0  0  0  0  0  0  0  0999 V3000
M  V30 BEGIN CTAB
M  V30 COUNTS 12 12 0 0 1
M  V30 BEGIN ATOM
M  V30 1 C 39.867405 28.791267 50.528492 0
M  V30 2 C 40.057312 29.862137 51.458793 0
M  V30 3 C 39.467398 29.622330 52.677170 0
M  V30 4 C 39.457516 30.505296 53.878262 0
M  V30 5 C 39.137946 27.754252 51.053501 0
M  V30 6 S 38.667403 28.079411 52.684703 0
M  V30 7 H 40.266145 28.821360 49.525072 0
M  V30 8 H 40.610499 30.755356 51.205898 0
M  V30 9 H 39.999525 31.430399 53.687394 0
M  V30 10 H 38.436886 30.768832 54.157363 0
M  V30 11 H 39.926371 30.010576 54.728990 0
M  V30 12 H 38.848624 26.827862 50.576425 0
M  V30 END ATOM
M  V30 BEGIN BOND
M  V30 1 1 2 1
M  V30 2 2 3 2
M  V30 3 1 4 3
M  V30 4 2 5 1
M  V30 5 1 6 3
M  V30 6 1 6 5
M  V30 7 1 7 1
M  V30 8 1 8 2
M  V30 9 1 9 4
M  V30 10 1 10 4
M  V30 11 1 11 4
M  V30 12 1 12 5
M  V30 END BOND
M  V30 END CTAB
M  END
>  <i_epik_Tot_Q>  (1) 
0

>  <i_epik_Tot_abs_Q>  (1) 
0

>  <i_i_glide_confnum>  (1) 
1

>  <i_i_glide_lignum>  (1) 
9

>  <i_i_glide_posenum>  (1) 
162

>  <i_i_glide_rotatable_bonds>  (1) 
0

>  <i_lp_mmshare_version>  (1) 
72125

>  <i_m_source_file_index>  (1) 
9

>  <i_f3d_flags>  (1) 
0

>  <num_sample>  (1) 
50

>  <b_lp_Chiralities_Consistent>  (1) 
1

>  <r_epik_Charging_Adjusted_Penalty>  (1) 
0

>  <r_epik_Ionization_Penalty>  (1) 
0

>  <r_epik_Ionization_Penalty_Charging>  (1) 
0

>  <r_epik_Ionization_Penalty_Neutral>  (1) 
0

>  <r_epik_State_Penalty>  (1) 
-0

>  <r_glide_ring_energy>  (1) 
0

>  <r_i_docking_score>  (1) 
-5.3752054538575962

>  <r_i_glide_ecoul>  (1) 
-1.0375869096344346

>  <r_i_glide_eff_state_penalty>  (1) 
-0

>  <r_i_glide_einternal>  (1) 
0

>  <r_i_glide_emodel>  (1) 
-23.923936857527085

>  <r_i_glide_emodel_strain>  (1) 
0

>  <r_i_glide_energy>  (1) 
-18.03509234107355

>  <r_i_glide_erotb>  (1) 
0

>  <r_i_glide_esite>  (1) 
0

>  <r_i_glide_evdw>  (1) 
-16.997505431439116

>  <r_i_glide_gscore>  (1) 
-5.3752054538575962

>  <r_i_glide_gscore_strain>  (1) 
0

>  <r_i_glide_hbond>  (1) 
0

>  <r_i_glide_ligand_efficiency>  (1) 
-0.89586757564293273

>  <r_i_glide_ligand_efficiency_ln>  (1) 
-1.9253827248032531

>  <r_i_glide_ligand_efficiency_sa>  (1) 
-1.6278994201513777

>  <r_i_glide_lipo>  (1) 
-1.8171218152854465

>  <r_i_glide_metal>  (1) 
-0

>  <r_i_glide_rewards>  (1) 
-2.5525703305550285

>  <r_lp_Energy>  (1) 
3.145988

>  <r_lp_tautomer_probability>  (1) 
1

>  <s_epik_cmdline>  (1) 
J2VwaWtfcHl0aG9uJywgJy1waHQnLCAnMS4wJywgJy1waCcsICc3LjQnLCAnLXRuJywgJzgnLCAnLW1hJywgJzUwMCcsICctaW1hZScsICc8aW5maWxlLm1hZT4nLCAnLW9tYWUnLCAnPG91dGZpbGUubWFlPic=

>  <s_epik_input>  (1) 
czFbY0hdW2NIXVtjSF1jMVtDSDNd

>  <s_glide_docking_method>  (1) 
confgen

>  <s_i_glide_gridfile>  (1) 
gpcr_5ht2c_6bqh_protein_autoprepared_prepared

>  <s_lp_Force_Field>  (1) 
S-OPLS

>  <s_lp_Variant>  (1) 
Pocket2Mol_8_num_sample_50-1

>  <s_m_source_file>  (1) 
generated__ligand_Pocket2Mol_2026-05-06_prepared.sdf

>  <GenAI_Model>  (1) 
Pocket2Mol

>  <Protein>  (1) 
GPCR_5HT2C

$$$$
Pocket2Mol_15_num_sample_50
     RDKit          3D

  0  0  0  0  0  0  0  0  0  0999 V3000
M  V30 BEGIN CTAB
M  V30 COUNTS 16 16 0 0 1
M  V30 BEGIN ATOM
M  V30 1 C 39.354346 27.787435 51.938919 0
M  V30 2 C 39.711008 29.239080 51.606722 0
M  V30 3 C 38.397233 27.863271 53.127873 0
M  V30 4 C 39.582527 30.020435 52.925624 0
M  V30 5 C 38.831488 29.109635 53.912743 0
M  V30 6 O 37.079291 28.021439 52.653967 0
M  V30 7 H 40.250087 27.254232 52.253721 0
M  V30 8 H 38.941043 27.249613 51.084466 0
M  V30 9 H 40.706643 29.324860 51.167823 0
M  V30 10 H 39.002704 29.629390 50.875525 0
M  V30 11 H 38.440672 26.962498 53.741447 0
M  V30 12 H 40.565563 30.275590 53.322424 0
M  V30 13 H 39.068284 30.965290 52.769855 0
M  V30 14 H 37.996085 29.622330 54.393068 0
M  V30 15 H 39.519945 28.810103 54.704959 0
M  V30 16 H 36.889316 27.314172 52.046413 0
M  V30 END ATOM
M  V30 BEGIN BOND
M  V30 1 1 2 1
M  V30 2 1 3 1
M  V30 3 1 4 2
M  V30 4 1 5 3
M  V30 5 1 5 4
M  V30 6 1 6 3
M  V30 7 1 7 1
M  V30 8 1 8 1
M  V30 9 1 9 2
M  V30 10 1 10 2
M  V30 11 1 11 3
M  V30 12 1 12 4
M  V30 13 1 13 4
M  V30 14 1 14 5
M  V30 15 1 15 5
M  V30 16 1 16 6
M  V30 END BOND
M  V30 END CTAB
M  END
>  <i_epik_Tot_Q>  (1) 
0

>  <i_epik_Tot_abs_Q>  (1) 
0

>  <i_i_glide_confnum>  (1) 
4

>  <i_i_glide_lignum>  (1) 
16

>  <i_i_glide_posenum>  (1) 
106

>  <i_i_glide_rotatable_bonds>  (1) 
1

>  <i_lp_mmshare_version>  (1) 
72125

>  <i_m_source_file_index>  (1) 
16

>  <i_f3d_flags>  (1) 
0

>  <num_sample>  (1) 
50

>  <b_lp_Chiralities_Consistent>  (1) 
1

>  <r_epik_Charging_Adjusted_Penalty>  (1) 
0

>  <r_epik_Ionization_Penalty>  (1) 
4.538991431931509e-07

>  <r_epik_Ionization_Penalty_Charging>  (1) 
0

>  <r_epik_Ionization_Penalty_Neutral>  (1) 
4.538991431931509e-07

>  <r_epik_State_Penalty>  (1) 
-0

>  <r_glide_ring_energy>  (1) 
0.38828123220255384

>  <r_i_docking_score>  (1) 
-5.3641820293458631

>  <r_i_glide_ecoul>  (1) 
-3.4993453351909194

>  <r_i_glide_eff_state_penalty>  (1) 
-0

>  <r_i_glide_einternal>  (1) 
0.33058377316873

>  <r_i_glide_emodel>  (1) 
-20.874372406114965

>  <r_i_glide_emodel_strain>  (1) 
0.0010585847558424177

>  <r_i_glide_energy>  (1) 
-15.818336375551766

>  <r_i_glide_erotb>  (1) 
0

>  <r_i_glide_esite>  (1) 
0

>  <r_i_glide_evdw>  (1) 
-12.318991040360846

>  <r_i_glide_gscore>  (1) 
-5.3641820293458631

>  <r_i_glide_gscore_strain>  (1) 
0

>  <r_i_glide_hbond>  (1) 
-0.32000000000000001

>  <r_i_glide_ligand_efficiency>  (1) 
-0.89403033822431055

>  <r_i_glide_ligand_efficiency_ln>  (1) 
-1.9214341666866825

>  <r_i_glide_ligand_efficiency_sa>  (1) 
-1.6245609382040775

>  <r_i_glide_lipo>  (1) 
-1.4783306770491835

>  <r_i_glide_metal>  (1) 
-0

>  <r_i_glide_rewards>  (1) 
-2.4249999999999998

>  <r_lp_Energy>  (1) 
8.9029089999999993

>  <r_lp_tautomer_probability>  (1) 
1

>  <s_epik_cmdline>  (1) 
J2VwaWtfcHl0aG9uJywgJy1waHQnLCAnMS4wJywgJy1waCcsICc3LjQnLCAnLXRuJywgJzgnLCAnLW1hJywgJzUwMCcsICctaW1hZScsICc8aW5maWxlLm1hZT4nLCAnLW9tYWUnLCAnPG91dGZpbGUubWFlPic=

>  <s_epik_input>  (1) 
W09IXVtDSF0xW0NIMl1bQ0gyXVtDSDJdW0NIMl0x

>  <s_glide_docking_method>  (1) 
confgen

>  <s_i_glide_gridfile>  (1) 
gpcr_5ht2c_6bqh_protein_autoprepared_prepared

>  <s_lp_Force_Field>  (1) 
S-OPLS

>  <s_lp_Variant>  (1) 
Pocket2Mol_15_num_sample_50-1

>  <s_m_source_file>  (1) 
generated__ligand_Pocket2Mol_2026-05-06_prepared.sdf

>  <GenAI_Model>  (1) 
Pocket2Mol

>  <Protein>  (1) 
GPCR_5HT2C

$$$$
Pocket2Mol_28_num_sample_50
     RDKit          3D

  0  0  0  0  0  0  0  0  0  0999 V3000
M  V30 BEGIN CTAB
M  V30 COUNTS 14 14 0 0 1
M  V30 BEGIN ATOM
M  V30 1 C 39.867399 30.445090 52.701590 0
M  V30 2 C 39.867396 29.396029 51.762511 0
M  V30 3 C 39.062595 28.260804 51.975946 0
M  V30 4 N 39.067412 27.221444 51.053499 0
M  V30 5 C 39.060816 30.361307 53.853606 0
M  V30 6 C 38.252985 28.177575 53.126172 0
M  V30 7 C 38.252364 29.227644 54.065000 0
M  V30 8 H 40.485865 31.314664 52.537917 0
M  V30 9 H 40.488161 29.462526 50.880817 0
M  V30 10 H 38.361145 26.498973 51.105669 0
M  V30 11 H 39.499625 27.344667 50.149459 0
M  V30 12 H 39.060592 31.167538 54.573274 0
M  V30 13 H 37.633529 27.307863 53.289207 0
M  V30 14 H 37.632947 29.163332 54.946827 0
M  V30 END ATOM
M  V30 BEGIN BOND
M  V30 1 1 2 1
M  V30 2 2 3 2
M  V30 3 1 4 3
M  V30 4 2 5 1
M  V30 5 1 6 3
M  V30 6 1 7 5
M  V30 7 2 7 6
M  V30 8 1 8 1
M  V30 9 1 9 2
M  V30 10 1 10 4
M  V30 11 1 11 4
M  V30 12 1 12 5
M  V30 13 1 13 6
M  V30 14 1 14 7
M  V30 END BOND
M  V30 END CTAB
M  END
>  <i_epik_Tot_Q>  (1) 
0

>  <i_epik_Tot_abs_Q>  (1) 
0

>  <i_i_glide_confnum>  (1) 
1

>  <i_i_glide_lignum>  (1) 
29

>  <i_i_glide_posenum>  (1) 
69

>  <i_i_glide_rotatable_bonds>  (1) 
0

>  <i_lp_mmshare_version>  (1) 
72125

>  <i_m_source_file_index>  (1) 
29

>  <i_f3d_flags>  (1) 
0

>  <num_sample>  (1) 
50

>  <b_lp_Chiralities_Consistent>  (1) 
1

>  <r_epik_Charging_Adjusted_Penalty>  (1) 
0

>  <r_epik_Ionization_Penalty>  (1) 
0.00088153335660618348

>  <r_epik_Ionization_Penalty_Charging>  (1) 
0

>  <r_epik_Ionization_Penalty_Neutral>  (1) 
0.00088153335660618348

>  <r_epik_State_Penalty>  (1) 
-0

>  <r_glide_ring_energy>  (1) 
0

>  <r_i_docking_score>  (1) 
-5.3370920424301236

>  <r_i_glide_ecoul>  (1) 
-1.5314553640630906

>  <r_i_glide_eff_state_penalty>  (1) 
-0

>  <r_i_glide_einternal>  (1) 
0

>  <r_i_glide_emodel>  (1) 
-23.589603578740515

>  <r_i_glide_emodel_strain>  (1) 
0

>  <r_i_glide_energy>  (1) 
-17.659588416576643

>  <r_i_glide_erotb>  (1) 
0

>  <r_i_glide_esite>  (1) 
0

>  <r_i_glide_evdw>  (1) 
-16.128133052513551

>  <r_i_glide_gscore>  (1) 
-5.3370920424301236

>  <r_i_glide_gscore_strain>  (1) 
0

>  <r_i_glide_hbond>  (1) 
0

>  <r_i_glide_ligand_efficiency>  (1) 
-0.76244172034716051

>  <r_i_glide_ligand_efficiency_ln>  (1) 
-1.8116954599384534

>  <r_i_glide_ligand_efficiency_sa>  (1) 
-1.4584985418987089

>  <r_i_glide_lipo>  (1) 
-1.8399132037732266

>  <r_i_glide_metal>  (1) 
-0

>  <r_i_glide_rewards>  (1) 
-2.4610538814217553

>  <r_lp_Energy>  (1) 
7.0325409999999993

>  <r_lp_tautomer_probability>  (1) 
1

>  <s_epik_cmdline>  (1) 
J2VwaWtfcHl0aG9uJywgJy1waHQnLCAnMS4wJywgJy1waCcsICc3LjQnLCAnLXRuJywgJzgnLCAnLW1hJywgJzUwMCcsICctaW1hZScsICc8aW5maWxlLm1hZT4nLCAnLW9tYWUnLCAnPG91dGZpbGUubWFlPic=

>  <s_epik_input>  (1) 
W2NIXTFbY0hdW2NIXVtjSF1bY0hdYzFbTkgyXQ==

>  <s_glide_docking_method>  (1) 
confgen

>  <s_i_glide_gridfile>  (1) 
gpcr_5ht2c_6bqh_protein_autoprepared_prepared

>  <s_lp_Force_Field>  (1) 
S-OPLS

>  <s_lp_Variant>  (1) 
Pocket2Mol_28_num_sample_50-1

>  <s_m_source_file>  (1) 
generated__ligand_Pocket2Mol_2026-05-06_prepared.sdf

>  <GenAI_Model>  (1) 
Pocket2Mol

>  <Protein>  (1) 
GPCR_5HT2C

$$$$
Pocket2Mol_34_num_sample_50
     RDKit          3D

  0  0  0  0  0  0  0  0  0  0999 V3000
M  V30 BEGIN CTAB
M  V30 COUNTS 19 19 0 0 1
M  V30 BEGIN ATOM
M  V30 1 C 40.114761 30.596157 52.085640 0
M  V30 2 C 40.564206 29.521187 51.084032 0
M  V30 3 C 39.467352 30.021433 53.366939 0
M  V30 4 O 40.843446 30.153525 49.853502 0
M  V30 5 C 38.476524 28.863328 53.113574 0
M  V30 6 C 39.061920 27.791534 52.190769 0
M  V30 7 C 39.523819 28.411469 50.867765 0
M  V30 8 H 40.961649 31.221423 52.365612 0
M  V30 9 H 39.467402 31.302023 51.583663 0
M  V30 10 H 41.474896 29.055801 51.453496 0
M  V30 11 H 40.254430 29.668730 54.032436 0
M  V30 12 H 38.966049 30.822355 53.911667 0
M  V30 13 H 41.396972 30.904624 50.013294 0
M  V30 14 H 38.186504 28.414860 54.064368 0
M  V30 15 H 37.553751 29.224039 52.664648 0
M  V30 16 H 39.893783 27.286982 52.680539 0
M  V30 17 H 38.311684 27.024518 51.994676 0
M  V30 18 H 38.667410 28.805568 50.323528 0
M  V30 19 H 39.952183 27.622276 50.253382 0
M  V30 END ATOM
M  V30 BEGIN BOND
M  V30 1 1 2 1
M  V30 2 1 3 1
M  V30 3 1 4 2
M  V30 4 1 5 3
M  V30 5 1 6 5
M  V30 6 1 7 2
M  V30 7 1 7 6
M  V30 8 1 8 1
M  V30 9 1 9 1
M  V30 10 1 10 2
M  V30 11 1 11 3
M  V30 12 1 12 3
M  V30 13 1 13 4
M  V30 14 1 14 5
M  V30 15 1 15 5
M  V30 16 1 16 6
M  V30 17 1 17 6
M  V30 18 1 18 7
M  V30 19 1 19 7
M  V30 END BOND
M  V30 END CTAB
M  END
>  <i_epik_Tot_Q>  (1) 
0

>  <i_epik_Tot_abs_Q>  (1) 
0

>  <i_i_glide_confnum>  (1) 
1

>  <i_i_glide_lignum>  (1) 
35

>  <i_i_glide_posenum>  (1) 
251

>  <i_i_glide_rotatable_bonds>  (1) 
1

>  <i_lp_mmshare_version>  (1) 
72125

>  <i_m_source_file_index>  (1) 
35

>  <i_f3d_flags>  (1) 
0

>  <num_sample>  (1) 
50

>  <b_lp_Chiralities_Consistent>  (1) 
1

>  <r_epik_Charging_Adjusted_Penalty>  (1) 
0

>  <r_epik_Ionization_Penalty>  (1) 
4.7751045033339745e-07

>  <r_epik_Ionization_Penalty_Charging>  (1) 
0

>  <r_epik_Ionization_Penalty_Neutral>  (1) 
4.7751045033339745e-07

>  <r_epik_State_Penalty>  (1) 
-0

>  <r_glide_ring_energy>  (1) 
0

>  <r_i_docking_score>  (1) 
-5.3234034523488676

>  <r_i_glide_ecoul>  (1) 
-0.93080161260655869

>  <r_i_glide_eff_state_penalty>  (1) 
-0

>  <r_i_glide_einternal>  (1) 
0.47835739401123412

>  <r_i_glide_emodel>  (1) 
-21.863256814918113

>  <r_i_glide_emodel_strain>  (1) 
0.0060600213904420386

>  <r_i_glide_energy>  (1) 
-16.299176682736675

>  <r_i_glide_erotb>  (1) 
0

>  <r_i_glide_esite>  (1) 
0

>  <r_i_glide_evdw>  (1) 
-15.368375070130115

>  <r_i_glide_gscore>  (1) 
-5.3234034523488676

>  <r_i_glide_gscore_strain>  (1) 
0

>  <r_i_glide_hbond>  (1) 
0

>  <r_i_glide_ligand_efficiency>  (1) 
-0.76048620747840967

>  <r_i_glide_ligand_efficiency_ln>  (1) 
-1.8070488178520863

>  <r_i_glide_ligand_efficiency_sa>  (1) 
-1.4547577803537628

>  <r_i_glide_lipo>  (1) 
-1.8200852309725848

>  <r_i_glide_metal>  (1) 
-0

>  <r_i_glide_rewards>  (1) 
-2.5952792259787931

>  <r_lp_Energy>  (1) 
3.8568439999999997

>  <r_lp_tautomer_probability>  (1) 
1

>  <s_epik_cmdline>  (1) 
J2VwaWtfcHl0aG9uJywgJy1waHQnLCAnMS4wJywgJy1waCcsICc3LjQnLCAnLXRuJywgJzgnLCAnLW1hJywgJzUwMCcsICctaW1hZScsICc8aW5maWxlLm1hZT4nLCAnLW9tYWUnLCAnPG91dGZpbGUubWFlPic=

>  <s_epik_input>  (1) 
W09IXVtDSF0xW0NIMl1bQ0gyXVtDSDJdW0NIMl1bQ0gyXTE=

>  <s_glide_docking_method>  (1) 
confgen

>  <s_i_glide_gridfile>  (1) 
gpcr_5ht2c_6bqh_protein_autoprepared_prepared

>  <s_lp_Force_Field>  (1) 
S-OPLS

>  <s_lp_Variant>  (1) 
Pocket2Mol_34_num_sample_50-1

>  <s_m_source_file>  (1) 
generated__ligand_Pocket2Mol_2026-05-06_prepared.sdf

>  <GenAI_Model>  (1) 
Pocket2Mol

>  <Protein>  (1) 
GPCR_5HT2C

$$$$
Pocket2Mol_14_num_sample_50
     RDKit          3D

  0  0  0  0  0  0  0  0  0  0999 V3000
M  V30 BEGIN CTAB
M  V30 COUNTS 18 18 0 0 1
M  V30 BEGIN ATOM
M  V30 1 C 39.834904 29.986154 52.617036 0
M  V30 2 C 38.731722 29.145833 53.277894 0
M  V30 3 C 40.279083 29.218406 51.362784 0
M  V30 4 C 38.760883 27.788945 52.572247 0
M  V30 5 C 39.240982 28.113358 51.159937 0
M  V30 6 C 40.267443 30.157308 50.159870 0
M  V30 7 H 40.667383 30.130390 53.305712 0
M  V30 8 H 39.467207 30.976058 52.346872 0
M  V30 9 H 38.868058 29.052790 54.355324 0
M  V30 10 H 37.764683 29.621440 53.114392 0
M  V30 11 H 41.290352 28.821916 51.453499 0
M  V30 12 H 39.399935 27.065555 53.078623 0
M  V30 13 H 37.755130 27.370626 52.532635 0
M  V30 14 H 38.409149 28.491475 50.565646 0
M  V30 15 H 39.647951 27.244119 50.643313 0
M  V30 16 H 39.285807 30.609927 50.016407 0
M  V30 17 H 40.524553 29.622553 49.245210 0
M  V30 18 H 40.990481 30.963330 50.287210 0
M  V30 END ATOM
M  V30 BEGIN BOND
M  V30 1 1 2 1
M  V30 2 1 3 1
M  V30 3 1 4 2
M  V30 4 1 5 3
M  V30 5 1 5 4
M  V30 6 1 6 3
M  V30 7 1 7 1
M  V30 8 1 8 1
M  V30 9 1 9 2
M  V30 10 1 10 2
M  V30 11 1 11 3
M  V30 12 1 12 4
M  V30 13 1 13 4
M  V30 14 1 14 5
M  V30 15 1 15 5
M  V30 16 1 16 6
M  V30 17 1 17 6
M  V30 18 1 18 6
M  V30 END BOND
M  V30 END CTAB
M  END
>  <i_epik_Tot_Q>  (1) 
0

>  <i_epik_Tot_abs_Q>  (1) 
0

>  <i_i_glide_confnum>  (1) 
2

>  <i_i_glide_lignum>  (1) 
15

>  <i_i_glide_posenum>  (1) 
263

>  <i_i_glide_rotatable_bonds>  (1) 
0

>  <i_lp_mmshare_version>  (1) 
72125

>  <i_m_source_file_index>  (1) 
15

>  <i_f3d_flags>  (1) 
0

>  <num_sample>  (1) 
50

>  <b_lp_Chiralities_Consistent>  (1) 
1

>  <r_epik_Charging_Adjusted_Penalty>  (1) 
0

>  <r_epik_Ionization_Penalty>  (1) 
0

>  <r_epik_Ionization_Penalty_Charging>  (1) 
0

>  <r_epik_Ionization_Penalty_Neutral>  (1) 
0

>  <r_epik_State_Penalty>  (1) 
-0

>  <r_glide_ring_energy>  (1) 
0.2204327727677606

>  <r_i_docking_score>  (1) 
-5.3129868327532606

>  <r_i_glide_ecoul>  (1) 
-0.22854869251875795

>  <r_i_glide_eff_state_penalty>  (1) 
-0

>  <r_i_glide_einternal>  (1) 
0

>  <r_i_glide_emodel>  (1) 
-21.186679364402178

>  <r_i_glide_emodel_strain>  (1) 
0.18035776517398006

>  <r_i_glide_energy>  (1) 
-16.188255622262602

>  <r_i_glide_erotb>  (1) 
0

>  <r_i_glide_esite>  (1) 
0

>  <r_i_glide_evdw>  (1) 
-15.959706929743845

>  <r_i_glide_gscore>  (1) 
-5.3129868327532606

>  <r_i_glide_gscore_strain>  (1) 
0

>  <r_i_glide_hbond>  (1) 
0

>  <r_i_glide_ligand_efficiency>  (1) 
-0.8854978054588768

>  <r_i_glide_ligand_efficiency_ln>  (1) 
-1.9030961984065002

>  <r_i_glide_ligand_efficiency_sa>  (1) 
-1.6090562972069931

>  <r_i_glide_lipo>  (1) 
-1.9294406532564834

>  <r_i_glide_metal>  (1) 
-0

>  <r_i_glide_rewards>  (1) 
-2.5512785291317708

>  <r_lp_Energy>  (1) 
6.4120089999999994

>  <r_lp_tautomer_probability>  (1) 
1

>  <s_epik_cmdline>  (1) 
J2VwaWtfcHl0aG9uJywgJy1waHQnLCAnMS4wJywgJy1waCcsICc3LjQnLCAnLXRuJywgJzgnLCAnLW1hJywgJzUwMCcsICctaW1hZScsICc8aW5maWxlLm1hZT4nLCAnLW9tYWUnLCAnPG91dGZpbGUubWFlPic=

>  <s_epik_input>  (1) 
W0NIM11bQ0hdMVtDSDJdW0NIMl1bQ0gyXVtDSDJdMQ==

>  <s_glide_docking_method>  (1) 
confgen

>  <s_i_glide_gridfile>  (1) 
gpcr_5ht2c_6bqh_protein_autoprepared_prepared

>  <s_lp_Force_Field>  (1) 
S-OPLS

>  <s_lp_Variant>  (1) 
Pocket2Mol_14_num_sample_50-1

>  <s_m_source_file>  (1) 
generated__ligand_Pocket2Mol_2026-05-06_prepared.sdf

>  <GenAI_Model>  (1) 
Pocket2Mol

>  <Protein>  (1) 
GPCR_5HT2C

$$$$
Pocket2Mol_27_num_sample_50
     RDKit          3D

  0  0  0  0  0  0  0  0  0  0999 V3000
M  V30 BEGIN CTAB
M  V30 COUNTS 13 13 0 0 1
M  V30 BEGIN ATOM
M  V30 1 C 38.699565 28.687713 53.237568 0
M  V30 2 C 38.499989 27.621450 52.341338 0
M  V30 3 C 39.467404 29.801307 52.846977 0
M  V30 4 C 39.067403 27.667904 51.053505 0
M  V30 5 O 39.663575 30.829546 53.718424 0
M  V30 6 C 39.832631 28.784302 50.659982 0
M  V30 7 C 40.032283 29.851370 51.555910 0
M  V30 8 H 38.265278 28.650954 54.225916 0
M  V30 9 H 37.911203 26.767889 52.641714 0
M  V30 10 H 38.914630 26.848017 50.365981 0
M  V30 11 H 40.115916 31.568740 53.339581 0
M  V30 12 H 40.265128 28.821395 49.671239 0
M  V30 13 H 40.619923 30.706737 51.253936 0
M  V30 END ATOM
M  V30 BEGIN BOND
M  V30 1 1 2 1
M  V30 2 2 3 1
M  V30 3 2 4 2
M  V30 4 1 5 3
M  V30 5 1 6 4
M  V30 6 1 7 3
M  V30 7 2 7 6
M  V30 8 1 8 1
M  V30 9 1 9 2
M  V30 10 1 10 4
M  V30 11 1 11 5
M  V30 12 1 12 6
M  V30 13 1 13 7
M  V30 END BOND
M  V30 END CTAB
M  END
>  <i_epik_Tot_Q>  (1) 
0

>  <i_epik_Tot_abs_Q>  (1) 
0

>  <i_i_glide_confnum>  (1) 
1

>  <i_i_glide_lignum>  (1) 
28

>  <i_i_glide_posenum>  (1) 
303

>  <i_i_glide_rotatable_bonds>  (1) 
1

>  <i_lp_mmshare_version>  (1) 
72125

>  <i_m_source_file_index>  (1) 
28

>  <i_f3d_flags>  (1) 
0

>  <num_sample>  (1) 
50

>  <b_lp_Chiralities_Consistent>  (1) 
1

>  <r_epik_Charging_Adjusted_Penalty>  (1) 
0

>  <r_epik_Ionization_Penalty>  (1) 
0.0022482968708945868

>  <r_epik_Ionization_Penalty_Charging>  (1) 
0

>  <r_epik_Ionization_Penalty_Neutral>  (1) 
0.0022482968708945868

>  <r_epik_State_Penalty>  (1) 
-0

>  <r_glide_ring_energy>  (1) 
0

>  <r_i_docking_score>  (1) 
-5.2828798916894559

>  <r_i_glide_ecoul>  (1) 
-1.373732168892378

>  <r_i_glide_eff_state_penalty>  (1) 
-0

>  <r_i_glide_einternal>  (1) 
0.029431874969310809

>  <r_i_glide_emodel>  (1) 
-24.019364913707054

>  <r_i_glide_emodel_strain>  (1) 
2.4767032869021932e-10

>  <r_i_glide_energy>  (1) 
-17.841482838579662

>  <r_i_glide_erotb>  (1) 
0

>  <r_i_glide_esite>  (1) 
0

>  <r_i_glide_evdw>  (1) 
-16.467750669687284

>  <r_i_glide_gscore>  (1) 
-5.2828798916894559

>  <r_i_glide_gscore_strain>  (1) 
0

>  <r_i_glide_hbond>  (1) 
0

>  <r_i_glide_ligand_efficiency>  (1) 
-0.75469712738420802

>  <r_i_glide_ligand_efficiency_ln>  (1) 
-1.7932929466241716

>  <r_i_glide_ligand_efficiency_sa>  (1) 
-1.4436836685219974

>  <r_i_glide_lipo>  (1) 
-1.8367658662045683

>  <r_i_glide_metal>  (1) 
-0

>  <r_i_glide_rewards>  (1) 
-2.4166666666666665

>  <r_lp_Energy>  (1) 
6.6738649999999993

>  <r_lp_tautomer_probability>  (1) 
1

>  <s_epik_cmdline>  (1) 
J2VwaWtfcHl0aG9uJywgJy1waHQnLCAnMS4wJywgJy1waCcsICc3LjQnLCAnLXRuJywgJzgnLCAnLW1hJywgJzUwMCcsICctaW1hZScsICc8aW5maWxlLm1hZT4nLCAnLW9tYWUnLCAnPG91dGZpbGUubWFlPic=

>  <s_epik_input>  (1) 
W09IXWMxW2NIXVtjSF1bY0hdW2NIXVtjSF0x

>  <s_glide_docking_method>  (1) 
confgen

>  <s_i_glide_gridfile>  (1) 
gpcr_5ht2c_6bqh_protein_autoprepared_prepared

>  <s_lp_Force_Field>  (1) 
S-OPLS

>  <s_lp_Variant>  (1) 
Pocket2Mol_27_num_sample_50-1

>  <s_m_source_file>  (1) 
generated__ligand_Pocket2Mol_2026-05-06_prepared.sdf

>  <GenAI_Model>  (1) 
Pocket2Mol

>  <Protein>  (1) 
GPCR_5HT2C

$$$$
Pocket2Mol_28_num_sample_50
     RDKit          3D

  0  0  0  0  0  0  0  0  0  0999 V3000
M  V30 BEGIN CTAB
M  V30 COUNTS 14 14 0 0 1
M  V30 BEGIN ATOM
M  V30 1 C 38.498632 27.621441 52.338815 0
M  V30 2 C 38.697769 28.666562 53.260032 0
M  V30 3 C 39.467398 29.789508 52.896532 0
M  V30 4 N 39.665636 30.821430 53.809495 0
M  V30 5 C 39.067405 27.697189 51.053495 0
M  V30 6 C 40.033860 29.867379 51.607507 0
M  V30 7 C 39.834267 28.821025 50.686937 0
M  V30 8 H 37.908337 26.761811 52.617995 0
M  V30 9 H 38.261225 28.606023 54.246185 0
M  V30 10 H 40.065471 31.698622 53.503976 0
M  V30 11 H 39.127742 30.857672 54.664381 0
M  V30 12 H 38.914218 26.893714 50.347076 0
M  V30 13 H 40.621457 30.728955 51.325316 0
M  V30 14 H 40.267360 28.880393 49.699336 0
M  V30 END ATOM
M  V30 BEGIN BOND
M  V30 1 1 2 1
M  V30 2 2 3 2
M  V30 3 1 4 3
M  V30 4 2 5 1
M  V30 5 1 6 3
M  V30 6 1 7 5
M  V30 7 2 7 6
M  V30 8 1 8 1
M  V30 9 1 9 2
M  V30 10 1 10 4
M  V30 11 1 11 4
M  V30 12 1 12 5
M  V30 13 1 13 6
M  V30 14 1 14 7
M  V30 END BOND
M  V30 END CTAB
M  END
>  <i_epik_Tot_Q>  (1) 
0

>  <i_epik_Tot_abs_Q>  (1) 
0

>  <i_i_glide_confnum>  (1) 
1

>  <i_i_glide_lignum>  (1) 
29

>  <i_i_glide_posenum>  (1) 
269

>  <i_i_glide_rotatable_bonds>  (1) 
0

>  <i_lp_mmshare_version>  (1) 
72125

>  <i_m_source_file_index>  (1) 
29

>  <i_f3d_flags>  (1) 
0

>  <num_sample>  (1) 
50

>  <b_lp_Chiralities_Consistent>  (1) 
1

>  <r_epik_Charging_Adjusted_Penalty>  (1) 
0

>  <r_epik_Ionization_Penalty>  (1) 
0.00088153335660618348

>  <r_epik_Ionization_Penalty_Charging>  (1) 
0

>  <r_epik_Ionization_Penalty_Neutral>  (1) 
0.00088153335660618348

>  <r_epik_State_Penalty>  (1) 
-0

>  <r_glide_ring_energy>  (1) 
0

>  <r_i_docking_score>  (1) 
-5.2711979210115274

>  <r_i_glide_ecoul>  (1) 
-1.2800755426209103

>  <r_i_glide_eff_state_penalty>  (1) 
-0

>  <r_i_glide_einternal>  (1) 
0

>  <r_i_glide_emodel>  (1) 
-23.709711738472002

>  <r_i_glide_emodel_strain>  (1) 
0

>  <r_i_glide_energy>  (1) 
-17.852911191308817

>  <r_i_glide_erotb>  (1) 
0

>  <r_i_glide_esite>  (1) 
0

>  <r_i_glide_evdw>  (1) 
-16.572835648687906

>  <r_i_glide_gscore>  (1) 
-5.2711979210115274

>  <r_i_glide_gscore_strain>  (1) 
0

>  <r_i_glide_hbond>  (1) 
0

>  <r_i_glide_ligand_efficiency>  (1) 
-0.75302827443021825

>  <r_i_glide_ligand_efficiency_ln>  (1) 
-1.7893274588506649

>  <r_i_glide_ligand_efficiency_sa>  (1) 
-1.4404912676668487

>  <r_i_glide_lipo>  (1) 
-1.8338781405173288

>  <r_i_glide_metal>  (1) 
-0

>  <r_i_glide_rewards>  (1) 
-2.4166666666666665

>  <r_lp_Energy>  (1) 
7.0325409999999993

>  <r_lp_tautomer_probability>  (1) 
1

>  <s_epik_cmdline>  (1) 
J2VwaWtfcHl0aG9uJywgJy1waHQnLCAnMS4wJywgJy1waCcsICc3LjQnLCAnLXRuJywgJzgnLCAnLW1hJywgJzUwMCcsICctaW1hZScsICc8aW5maWxlLm1hZT4nLCAnLW9tYWUnLCAnPG91dGZpbGUubWFlPic=

>  <s_epik_input>  (1) 
W2NIXTFbY0hdW2NIXVtjSF1bY0hdYzFbTkgyXQ==

>  <s_glide_docking_method>  (1) 
confgen

>  <s_i_glide_gridfile>  (1) 
gpcr_5ht2c_6bqh_protein_autoprepared_prepared

>  <s_lp_Force_Field>  (1) 
S-OPLS

>  <s_lp_Variant>  (1) 
Pocket2Mol_28_num_sample_50-1

>  <s_m_source_file>  (1) 
generated__ligand_Pocket2Mol_2026-05-06_prepared.sdf

>  <GenAI_Model>  (1) 
Pocket2Mol

>  <Protein>  (1) 
GPCR_5HT2C

$$$$
Pocket2Mol_36_num_sample_50
     RDKit          3D

  0  0  0  0  0  0  0  0  0  0999 V3000
M  V30 BEGIN CTAB
M  V30 COUNTS 17 17 0 0 1
M  V30 BEGIN ATOM
M  V30 1 C 39.911611 30.037996 51.382953 0
M  V30 2 C 39.699494 30.261948 52.894703 0
M  V30 3 C 38.659674 29.301999 53.486482 0
M  V30 4 O 37.796255 29.695485 54.265402 0
M  V30 5 C 40.109953 28.562910 51.031852 0
M  V30 6 C 38.955618 27.693934 51.554074 0
M  V30 7 C 38.744356 27.833761 53.068861 0
M  V30 8 H 39.067413 30.419527 50.808852 0
M  V30 9 H 40.779768 30.611750 51.056754 0
M  V30 10 H 39.388942 31.291141 53.080468 0
M  V30 11 H 39.562200 27.363501 53.613258 0
M  V30 12 H 40.641298 30.120911 53.424367 0
M  V30 13 H 41.053930 28.232025 51.460622 0
M  V30 14 H 40.196301 28.450105 49.950228 0
M  V30 15 H 39.137891 26.649749 51.301840 0
M  V30 16 H 38.029392 27.972523 51.053035 0
M  V30 17 H 37.828035 27.321744 53.367823 0
M  V30 END ATOM
M  V30 BEGIN BOND
M  V30 1 1 2 1
M  V30 2 1 3 2
M  V30 3 2 4 3
M  V30 4 1 5 1
M  V30 5 1 6 5
M  V30 6 1 7 3
M  V30 7 1 7 6
M  V30 8 1 8 1
M  V30 9 1 9 1
M  V30 10 1 10 2
M  V30 11 1 11 7
M  V30 12 1 12 2
M  V30 13 1 13 5
M  V30 14 1 14 5
M  V30 15 1 15 6
M  V30 16 1 16 6
M  V30 17 1 17 7
M  V30 END BOND
M  V30 END CTAB
M  END
>  <i_epik_Tot_Q>  (1) 
0

>  <i_epik_Tot_abs_Q>  (1) 
0

>  <i_i_glide_confnum>  (1) 
1

>  <i_i_glide_lignum>  (1) 
37

>  <i_i_glide_posenum>  (1) 
204

>  <i_i_glide_rotatable_bonds>  (1) 
0

>  <i_lp_mmshare_version>  (1) 
72125

>  <i_m_source_file_index>  (1) 
37

>  <i_f3d_flags>  (1) 
0

>  <num_sample>  (1) 
50

>  <b_lp_Chiralities_Consistent>  (1) 
1

>  <r_epik_Charging_Adjusted_Penalty>  (1) 
0

>  <r_epik_Ionization_Penalty>  (1) 
3.7730911281982554e-13

>  <r_epik_Ionization_Penalty_Charging>  (1) 
0

>  <r_epik_Ionization_Penalty_Neutral>  (1) 
3.7730911281982554e-13

>  <r_epik_State_Penalty>  (1) 
-0

>  <r_glide_ring_energy>  (1) 
0

>  <r_i_docking_score>  (1) 
-5.2687163750391512

>  <r_i_glide_ecoul>  (1) 
-0.069120232222478983

>  <r_i_glide_eff_state_penalty>  (1) 
-0

>  <r_i_glide_einternal>  (1) 
0

>  <r_i_glide_emodel>  (1) 
-21.360718268200557

>  <r_i_glide_emodel_strain>  (1) 
0

>  <r_i_glide_energy>  (1) 
-15.770853071309482

>  <r_i_glide_erotb>  (1) 
0

>  <r_i_glide_esite>  (1) 
0

>  <r_i_glide_evdw>  (1) 
-15.701732839087002

>  <r_i_glide_gscore>  (1) 
-5.2687163750391512

>  <r_i_glide_gscore_strain>  (1) 
0

>  <r_i_glide_hbond>  (1) 
0

>  <r_i_glide_ligand_efficiency>  (1) 
-0.75267376786273588

>  <r_i_glide_ligand_efficiency_ln>  (1) 
-1.7884850889728288

>  <r_i_glide_ligand_efficiency_sa>  (1) 
-1.4398131209994141

>  <r_i_glide_lipo>  (1) 
-1.6080034699802919

>  <r_i_glide_metal>  (1) 
-0

>  <r_i_glide_rewards>  (1) 
-2.8652582282711374

>  <r_lp_Energy>  (1) 
-0.38638499999999998

>  <r_lp_tautomer_probability>  (1) 
1

>  <s_epik_cmdline>  (1) 
J2VwaWtfcHl0aG9uJywgJy1waHQnLCAnMS4wJywgJy1waCcsICc3LjQnLCAnLXRuJywgJzgnLCAnLW1hJywgJzUwMCcsICctaW1hZScsICc8aW5maWxlLm1hZT4nLCAnLW9tYWUnLCAnPG91dGZpbGUubWFlPic=

>  <s_epik_input>  (1) 
W0NIMl0xW0NIMl1bQ0gyXVtDSDJdW0NIXT1DMVtPSF0=

>  <s_glide_docking_method>  (1) 
confgen

>  <s_i_glide_gridfile>  (1) 
gpcr_5ht2c_6bqh_protein_autoprepared_prepared

>  <s_lp_Force_Field>  (1) 
S-OPLS

>  <s_lp_Variant>  (1) 
Pocket2Mol_36_num_sample_50-1

>  <s_m_source_file>  (1) 
generated__ligand_Pocket2Mol_2026-05-06_prepared.sdf

>  <GenAI_Model>  (1) 
Pocket2Mol

>  <Protein>  (1) 
GPCR_5HT2C

$$$$
Pocket2Mol_29_num_sample_50
     RDKit          3D

  0  0  0  0  0  0  0  0  0  0999 V3000
M  V30 BEGIN CTAB
M  V30 COUNTS 17 17 0 0 1
M  V30 BEGIN ATOM
M  V30 1 C 39.467405 30.104263 53.049260 0
M  V30 2 C 38.489004 28.997108 53.453731 0
M  V30 3 C 38.778516 27.591421 52.935820 0
M  V30 4 O 37.515487 29.229024 54.166260 0
M  V30 5 C 39.867416 30.033934 51.555177 0
M  V30 6 C 39.067396 27.621570 51.429366 0
M  V30 7 C 40.170389 28.623192 51.054574 0
M  V30 8 H 39.031830 31.078380 53.271887 0
M  V30 9 H 40.353534 30.021365 53.676804 0
M  V30 10 H 39.632966 27.187280 53.478085 0
M  V30 11 H 37.927177 26.942710 53.145212 0
M  V30 12 H 39.068738 30.421678 50.927665 0
M  V30 13 H 40.723167 30.685379 51.374948 0
M  V30 14 H 39.343511 26.624216 51.086244 0
M  V30 15 H 38.152353 27.882878 50.900310 0
M  V30 16 H 41.131826 28.316600 51.455727 0
M  V30 17 H 40.267054 28.642982 49.968884 0
M  V30 END ATOM
M  V30 BEGIN BOND
M  V30 1 1 2 1
M  V30 2 1 3 2
M  V30 3 2 4 2
M  V30 4 1 5 1
M  V30 5 1 6 3
M  V30 6 1 7 5
M  V30 7 1 7 6
M  V30 8 1 8 1
M  V30 9 1 9 1
M  V30 10 1 10 3
M  V30 11 1 11 3
M  V30 12 1 12 5
M  V30 13 1 13 5
M  V30 14 1 14 6
M  V30 15 1 15 6
M  V30 16 1 16 7
M  V30 17 1 17 7
M  V30 END BOND
M  V30 END CTAB
M  END
>  <i_epik_Tot_Q>  (1) 
0

>  <i_epik_Tot_abs_Q>  (1) 
0

>  <i_i_glide_confnum>  (1) 
1

>  <i_i_glide_lignum>  (1) 
30

>  <i_i_glide_posenum>  (1) 
380

>  <i_i_glide_rotatable_bonds>  (1) 
0

>  <i_lp_mmshare_version>  (1) 
72125

>  <i_m_source_file_index>  (1) 
30

>  <i_f3d_flags>  (1) 
0

>  <num_sample>  (1) 
50

>  <b_lp_Chiralities_Consistent>  (1) 
1

>  <r_epik_Charging_Adjusted_Penalty>  (1) 
0

>  <r_epik_Ionization_Penalty>  (1) 
3.7730911281982554e-13

>  <r_epik_Ionization_Penalty_Charging>  (1) 
0

>  <r_epik_Ionization_Penalty_Neutral>  (1) 
3.7730911281982554e-13

>  <r_epik_State_Penalty>  (1) 
-0

>  <r_glide_ring_energy>  (1) 
0

>  <r_i_docking_score>  (1) 
-5.2684233552114366

>  <r_i_glide_ecoul>  (1) 
-0.29391361604766952

>  <r_i_glide_eff_state_penalty>  (1) 
-0

>  <r_i_glide_einternal>  (1) 
0

>  <r_i_glide_emodel>  (1) 
-22.162864715584895

>  <r_i_glide_emodel_strain>  (1) 
0

>  <r_i_glide_energy>  (1) 
-16.573328293549416

>  <r_i_glide_erotb>  (1) 
0

>  <r_i_glide_esite>  (1) 
0

>  <r_i_glide_evdw>  (1) 
-16.279414677501748

>  <r_i_glide_gscore>  (1) 
-5.2684233552114366

>  <r_i_glide_gscore_strain>  (1) 
0

>  <r_i_glide_hbond>  (1) 
0

>  <r_i_glide_ligand_efficiency>  (1) 
-0.75263190788734813

>  <r_i_glide_ligand_efficiency_ln>  (1) 
-1.7883856223180807

>  <r_i_glide_ligand_efficiency_sa>  (1) 
-1.4397330457471846

>  <r_i_glide_lipo>  (1) 
-1.5371069217908764

>  <r_i_glide_metal>  (1) 
-0

>  <r_i_glide_rewards>  (1) 
-2.8732586571383223

>  <r_lp_Energy>  (1) 
-0.38655299999999998

>  <r_lp_tautomer_probability>  (1) 
1

>  <s_epik_cmdline>  (1) 
J2VwaWtfcHl0aG9uJywgJy1waHQnLCAnMS4wJywgJy1waCcsICc3LjQnLCAnLXRuJywgJzgnLCAnLW1hJywgJzUwMCcsICctaW1hZScsICc8aW5maWxlLm1hZT4nLCAnLW9tYWUnLCAnPG91dGZpbGUubWFlPic=

>  <s_epik_input>  (1) 
Tz1DMVtDSDJdW0NIMl1bQ0gyXVtDSDJdW0NIMl0x

>  <s_glide_docking_method>  (1) 
confgen

>  <s_i_glide_gridfile>  (1) 
gpcr_5ht2c_6bqh_protein_autoprepared_prepared

>  <s_lp_Force_Field>  (1) 
S-OPLS

>  <s_lp_Variant>  (1) 
Pocket2Mol_29_num_sample_50-1

>  <s_m_source_file>  (1) 
generated__ligand_Pocket2Mol_2026-05-06_prepared.sdf

>  <GenAI_Model>  (1) 
Pocket2Mol

>  <Protein>  (1) 
GPCR_5HT2C

$$$$
Pocket2Mol_34_num_sample_50
     RDKit          3D

  0  0  0  0  0  0  0  0  0  0999 V3000
M  V30 BEGIN CTAB
M  V30 COUNTS 19 19 0 0 1
M  V30 BEGIN ATOM
M  V30 1 C 39.992256 28.415720 50.927193 0
M  V30 2 C 39.870899 29.910035 51.198774 0
M  V30 3 C 38.863032 27.596097 51.556674 0
M  V30 4 O 41.018206 30.527838 50.656324 0
M  V30 5 C 38.779177 27.829917 53.070453 0
M  V30 6 C 38.635963 29.324941 53.386706 0
M  V30 7 C 39.723270 30.195052 52.710930 0
M  V30 8 H 40.034179 28.234424 49.853502 0
M  V30 9 H 40.936641 28.071004 51.339651 0
M  V30 10 H 39.023185 30.301228 50.649813 0
M  V30 11 H 37.912173 27.846343 51.086219 0
M  V30 12 H 39.042872 26.539788 51.356852 0
M  V30 13 H 40.909636 31.468006 50.687214 0
M  V30 14 H 37.926510 27.285396 53.479069 0
M  V30 15 H 39.665684 27.424846 53.557605 0
M  V30 16 H 37.646545 29.623716 53.053491 0
M  V30 17 H 38.646259 29.486271 54.465349 0
M  V30 18 H 40.666735 30.023334 53.218888 0
M  V30 19 H 39.500120 31.250576 52.868750 0
M  V30 END ATOM
M  V30 BEGIN BOND
M  V30 1 1 2 1
M  V30 2 1 3 1
M  V30 3 1 4 2
M  V30 4 1 5 3
M  V30 5 1 6 5
M  V30 6 1 7 2
M  V30 7 1 7 6
M  V30 8 1 8 1
M  V30 9 1 9 1
M  V30 10 1 10 2
M  V30 11 1 11 3
M  V30 12 1 12 3
M  V30 13 1 13 4
M  V30 14 1 14 5
M  V30 15 1 15 5
M  V30 16 1 16 6
M  V30 17 1 17 6
M  V30 18 1 18 7
M  V30 19 1 19 7
M  V30 END BOND
M  V30 END CTAB
M  END
>  <i_epik_Tot_Q>  (1) 
0

>  <i_epik_Tot_abs_Q>  (1) 
0

>  <i_i_glide_confnum>  (1) 
1

>  <i_i_glide_lignum>  (1) 
35

>  <i_i_glide_posenum>  (1) 
42

>  <i_i_glide_rotatable_bonds>  (1) 
1

>  <i_lp_mmshare_version>  (1) 
72125

>  <i_m_source_file_index>  (1) 
35

>  <i_f3d_flags>  (1) 
0

>  <num_sample>  (1) 
50

>  <b_lp_Chiralities_Consistent>  (1) 
1

>  <r_epik_Charging_Adjusted_Penalty>  (1) 
0

>  <r_epik_Ionization_Penalty>  (1) 
4.7751045033339745e-07

>  <r_epik_Ionization_Penalty_Charging>  (1) 
0

>  <r_epik_Ionization_Penalty_Neutral>  (1) 
4.7751045033339745e-07

>  <r_epik_State_Penalty>  (1) 
-0

>  <r_glide_ring_energy>  (1) 
0

>  <r_i_docking_score>  (1) 
-5.2644674978364332

>  <r_i_glide_ecoul>  (1) 
-0.8529793282097049

>  <r_i_glide_eff_state_penalty>  (1) 
-0

>  <r_i_glide_einternal>  (1) 
0.3217058719592647

>  <r_i_glide_emodel>  (1) 
-21.382195585174522

>  <r_i_glide_emodel_strain>  (1) 
0

>  <r_i_glide_energy>  (1) 
-15.798045245112867

>  <r_i_glide_erotb>  (1) 
0

>  <r_i_glide_esite>  (1) 
0

>  <r_i_glide_evdw>  (1) 
-14.945065916903163

>  <r_i_glide_gscore>  (1) 
-5.2644674978364332

>  <r_i_glide_gscore_strain>  (1) 
0

>  <r_i_glide_hbond>  (1) 
0

>  <r_i_glide_ligand_efficiency>  (1) 
-0.75206678540520477

>  <r_i_glide_ligand_efficiency_ln>  (1) 
-1.7870427920296987

>  <r_i_glide_ligand_efficiency_sa>  (1) 
-1.4386520053290068

>  <r_i_glide_lipo>  (1) 
-1.8774994424082156

>  <r_i_glide_metal>  (1) 
-0

>  <r_i_glide_rewards>  (1) 
-2.5117678603516045

>  <r_lp_Energy>  (1) 
3.8568439999999997

>  <r_lp_tautomer_probability>  (1) 
1

>  <s_epik_cmdline>  (1) 
J2VwaWtfcHl0aG9uJywgJy1waHQnLCAnMS4wJywgJy1waCcsICc3LjQnLCAnLXRuJywgJzgnLCAnLW1hJywgJzUwMCcsICctaW1hZScsICc8aW5maWxlLm1hZT4nLCAnLW9tYWUnLCAnPG91dGZpbGUubWFlPic=

>  <s_epik_input>  (1) 
W09IXVtDSF0xW0NIMl1bQ0gyXVtDSDJdW0NIMl1bQ0gyXTE=

>  <s_glide_docking_method>  (1) 
confgen

>  <s_i_glide_gridfile>  (1) 
gpcr_5ht2c_6bqh_protein_autoprepared_prepared

>  <s_lp_Force_Field>  (1) 
S-OPLS

>  <s_lp_Variant>  (1) 
Pocket2Mol_34_num_sample_50-1

>  <s_m_source_file>  (1) 
generated__ligand_Pocket2Mol_2026-05-06_prepared.sdf

>  <GenAI_Model>  (1) 
Pocket2Mol

>  <Protein>  (1) 
GPCR_5HT2C

$$$$
Pocket2Mol_30_num_sample_50
     RDKit          3D

  0  0  0  0  0  0  0  0  0  0999 V3000
M  V30 BEGIN CTAB
M  V30 COUNTS 15 15 0 0 1
M  V30 BEGIN ATOM
M  V30 1 C 38.433964 27.097433 53.462703 0
M  V30 2 C 37.957941 28.535924 53.651951 0
M  V30 3 O 38.767256 29.221543 52.725558 0
M  V30 4 O 38.952484 27.074968 52.146282 0
M  V30 5 C 38.823507 28.358858 51.648602 0
M  V30 6 C 40.062445 28.664673 50.801501 0
M  V30 7 O 39.867390 29.724787 49.886047 0
M  V30 8 H 37.630887 26.371785 53.595070 0
M  V30 9 H 39.238688 26.856528 54.157518 0
M  V30 10 H 36.908209 28.640495 53.372558 0
M  V30 11 H 38.087562 28.902570 54.670340 0
M  V30 12 H 37.898132 28.405488 51.071948 0
M  V30 13 H 40.267403 27.767914 50.219679 0
M  V30 14 H 40.921891 28.847686 51.448386 0
M  V30 15 H 39.023395 29.622521 49.457037 0
M  V30 END ATOM
M  V30 BEGIN BOND
M  V30 1 1 2 1
M  V30 2 1 3 2
M  V30 3 1 4 1
M  V30 4 1 5 3
M  V30 5 1 5 4
M  V30 6 1 6 5
M  V30 7 1 7 6
M  V30 8 1 8 1
M  V30 9 1 9 1
M  V30 10 1 10 2
M  V30 11 1 11 2
M  V30 12 1 12 5
M  V30 13 1 13 6
M  V30 14 1 14 6
M  V30 15 1 15 7
M  V30 END BOND
M  V30 END CTAB
M  END
>  <i_epik_Tot_Q>  (1) 
0

>  <i_epik_Tot_abs_Q>  (1) 
0

>  <i_i_glide_confnum>  (1) 
1

>  <i_i_glide_lignum>  (1) 
31

>  <i_i_glide_posenum>  (1) 
207

>  <i_i_glide_rotatable_bonds>  (1) 
2

>  <i_lp_mmshare_version>  (1) 
72125

>  <i_m_source_file_index>  (1) 
31

>  <i_f3d_flags>  (1) 
0

>  <num_sample>  (1) 
50

>  <b_lp_Chiralities_Consistent>  (1) 
1

>  <r_epik_Charging_Adjusted_Penalty>  (1) 
0

>  <r_epik_Ionization_Penalty>  (1) 
3.4422651255072934e-07

>  <r_epik_Ionization_Penalty_Charging>  (1) 
0

>  <r_epik_Ionization_Penalty_Neutral>  (1) 
3.4422651255072934e-07

>  <r_epik_State_Penalty>  (1) 
-0

>  <r_glide_ring_energy>  (1) 
0

>  <r_i_docking_score>  (1) 
-5.255962959365851

>  <r_i_glide_ecoul>  (1) 
-2.7772132197550019

>  <r_i_glide_eff_state_penalty>  (1) 
-0

>  <r_i_glide_einternal>  (1) 
0.54195384905233479

>  <r_i_glide_emodel>  (1) 
-22.21259623230705

>  <r_i_glide_emodel_strain>  (1) 
0.027804602023822511

>  <r_i_glide_energy>  (1) 
-16.653912360335852

>  <r_i_glide_erotb>  (1) 
0

>  <r_i_glide_esite>  (1) 
0

>  <r_i_glide_evdw>  (1) 
-13.87669914058085

>  <r_i_glide_gscore>  (1) 
-5.255962959365851

>  <r_i_glide_gscore_strain>  (1) 
0

>  <r_i_glide_hbond>  (1) 
-0.32000000000000001

>  <r_i_glide_ligand_efficiency>  (1) 
-0.75085185133797872

>  <r_i_glide_ligand_efficiency_ln>  (1) 
-1.7841558952676542

>  <r_i_glide_ligand_efficiency_sa>  (1) 
-1.4363279200667978

>  <r_i_glide_lipo>  (1) 
-0.98115552886319235

>  <r_i_glide_metal>  (1) 
-0

>  <r_i_glide_rewards>  (1) 
-2.8443904905103654

>  <r_lp_Energy>  (1) 
-10.260740999999999

>  <r_lp_tautomer_probability>  (1) 
1

>  <s_epik_Chemistry_Notes>  (1) 
This compound contains an acetal/aminal-like group ( X-CH(R)-Y where X, Y are N, S, or O) that may be acid/base labile, releasing an aldehyde.

>  <s_epik_cmdline>  (1) 
J2VwaWtfcHl0aG9uJywgJy1waHQnLCAnMS4wJywgJy1waCcsICc3LjQnLCAnLXRuJywgJzgnLCAnLW1hJywgJzUwMCcsICctaW1hZScsICc8aW5maWxlLm1hZT4nLCAnLW9tYWUnLCAnPG91dGZpbGUubWFlPic=

>  <s_epik_input>  (1) 
TzFbQ0gyXVtDSDJdT1tDSF0xW0NIMl1bT0hd

>  <s_glide_docking_method>  (1) 
confgen

>  <s_i_glide_gridfile>  (1) 
gpcr_5ht2c_6bqh_protein_autoprepared_prepared

>  <s_lp_Force_Field>  (1) 
S-OPLS

>  <s_lp_Variant>  (1) 
Pocket2Mol_30_num_sample_50-1

>  <s_m_source_file>  (1) 
generated__ligand_Pocket2Mol_2026-05-06_prepared.sdf

>  <GenAI_Model>  (1) 
Pocket2Mol

>  <Protein>  (1) 
GPCR_5HT2C

$$$$
Pocket2Mol_41_num_sample_50
     RDKit          3D

  0  0  0  0  0  0  0  0  0  0999 V3000
M  V30 BEGIN CTAB
M  V30 COUNTS 15 15 0 0 1
M  V30 BEGIN ATOM
M  V30 1 C 39.104073 27.609197 51.570854 0
M  V30 2 O 40.230109 28.421201 51.276235 0
M  V30 3 C 39.957273 29.800467 51.115754 0
M  V30 4 C 38.165241 28.240601 52.601994 0
M  V30 5 O 38.901938 28.740443 53.707568 0
M  V30 6 C 39.867437 30.543017 52.441322 0
M  V30 7 C 39.392715 30.021429 53.595534 0
M  V30 8 H 38.556566 27.400662 50.653497 0
M  V30 9 H 39.469456 26.650336 51.937926 0
M  V30 10 H 39.074317 29.978900 50.501292 0
M  V30 11 H 40.802571 30.223649 50.572441 0
M  V30 12 H 37.544449 29.017557 52.155708 0
M  V30 13 H 37.468649 27.483821 52.963622 0
M  V30 14 H 40.221287 31.563523 52.435286 0
M  V30 15 H 39.340555 30.561546 54.529714 0
M  V30 END ATOM
M  V30 BEGIN BOND
M  V30 1 1 2 1
M  V30 2 1 3 2
M  V30 3 1 4 1
M  V30 4 1 5 4
M  V30 5 1 6 3
M  V30 6 1 7 5
M  V30 7 2 7 6
M  V30 8 1 8 1
M  V30 9 1 9 1
M  V30 10 1 10 3
M  V30 11 1 11 3
M  V30 12 1 12 4
M  V30 13 1 13 4
M  V30 14 1 14 6
M  V30 15 1 15 7
M  V30 END BOND
M  V30 END CTAB
M  END
>  <i_epik_Tot_Q>  (1) 
0

>  <i_epik_Tot_abs_Q>  (1) 
0

>  <i_i_glide_confnum>  (1) 
4

>  <i_i_glide_lignum>  (1) 
42

>  <i_i_glide_posenum>  (1) 
149

>  <i_i_glide_rotatable_bonds>  (1) 
0

>  <i_lp_mmshare_version>  (1) 
72125

>  <i_m_source_file_index>  (1) 
42

>  <i_f3d_flags>  (1) 
0

>  <num_sample>  (1) 
50

>  <b_lp_Chiralities_Consistent>  (1) 
1

>  <r_epik_Charging_Adjusted_Penalty>  (1) 
0

>  <r_epik_Ionization_Penalty>  (1) 
5.6701613537443791e-14

>  <r_epik_Ionization_Penalty_Charging>  (1) 
0

>  <r_epik_Ionization_Penalty_Neutral>  (1) 
5.6701613537443791e-14

>  <r_epik_State_Penalty>  (1) 
-0

>  <r_glide_ring_energy>  (1) 
0.98544188256928789

>  <r_i_docking_score>  (1) 
-5.2466163173922116

>  <r_i_glide_ecoul>  (1) 
-1.2380477119736462

>  <r_i_glide_eff_state_penalty>  (1) 
-0

>  <r_i_glide_einternal>  (1) 
0

>  <r_i_glide_emodel>  (1) 
-22.907273632445015

>  <r_i_glide_emodel_strain>  (1) 
0

>  <r_i_glide_energy>  (1) 
-17.302734488221805

>  <r_i_glide_erotb>  (1) 
0

>  <r_i_glide_esite>  (1) 
0

>  <r_i_glide_evdw>  (1) 
-16.064686776248159

>  <r_i_glide_gscore>  (1) 
-5.2466163173922116

>  <r_i_glide_gscore_strain>  (1) 
0

>  <r_i_glide_hbond>  (1) 
0

>  <r_i_glide_ligand_efficiency>  (1) 
-0.74951661677031589

>  <r_i_glide_ligand_efficiency_ln>  (1) 
-1.7809831433842891

>  <r_i_glide_ligand_efficiency_sa>  (1) 
-1.433773708226

>  <r_i_glide_lipo>  (1) 
-1.5486451462024391

>  <r_i_glide_metal>  (1) 
-0

>  <r_i_glide_rewards>  (1) 
-2.7090296755813186

>  <r_lp_Energy>  (1) 
7.3473649999999999

>  <r_lp_tautomer_probability>  (1) 
1

>  <s_epik_cmdline>  (1) 
J2VwaWtfcHl0aG9uJywgJy1waHQnLCAnMS4wJywgJy1waCcsICc3LjQnLCAnLXRuJywgJzgnLCAnLW1hJywgJzUwMCcsICctaW1hZScsICc8aW5maWxlLm1hZT4nLCAnLW9tYWUnLCAnPG91dGZpbGUubWFlPic=

>  <s_epik_input>  (1) 
W0NIMl0xT1tDSDJdW0NIXT1bQ0hdT1tDSDJdMQ==

>  <s_glide_docking_method>  (1) 
confgen

>  <s_i_glide_gridfile>  (1) 
gpcr_5ht2c_6bqh_protein_autoprepared_prepared

>  <s_lp_Force_Field>  (1) 
S-OPLS

>  <s_lp_Variant>  (1) 
Pocket2Mol_41_num_sample_50-1

>  <s_m_source_file>  (1) 
generated__ligand_Pocket2Mol_2026-05-06_prepared.sdf

>  <GenAI_Model>  (1) 
Pocket2Mol

>  <Protein>  (1) 
GPCR_5HT2C

$$$$
Pocket2Mol_8_num_sample_50
     RDKit          3D

  0  0  0  0  0  0  0  0  0  0999 V3000
M  V30 BEGIN CTAB
M  V30 COUNTS 12 12 0 0 1
M  V30 BEGIN ATOM
M  V30 1 C 39.067732 27.621410 51.379865 0
M  V30 2 C 39.757851 28.876753 51.426292 0
M  V30 3 C 39.467616 29.604211 52.556740 0
M  V30 4 C 39.994461 30.939946 52.944245 0
M  V30 5 C 38.267583 27.417132 52.473423 0
M  V30 6 S 38.341874 28.753147 53.567330 0
M  V30 7 H 39.182549 26.927240 50.559384 0
M  V30 8 H 40.430544 29.195097 50.643355 0
M  V30 9 H 40.545504 31.394901 52.121151 0
M  V30 10 H 39.184175 31.615719 53.220512 0
M  V30 11 H 40.667398 30.854950 53.798132 0
M  V30 12 H 37.638003 26.566914 52.693419 0
M  V30 END ATOM
M  V30 BEGIN BOND
M  V30 1 1 2 1
M  V30 2 2 3 2
M  V30 3 1 4 3
M  V30 4 2 5 1
M  V30 5 1 6 3
M  V30 6 1 6 5
M  V30 7 1 7 1
M  V30 8 1 8 2
M  V30 9 1 9 4
M  V30 10 1 10 4
M  V30 11 1 11 4
M  V30 12 1 12 5
M  V30 END BOND
M  V30 END CTAB
M  END
>  <i_epik_Tot_Q>  (1) 
0

>  <i_epik_Tot_abs_Q>  (1) 
0

>  <i_i_glide_confnum>  (1) 
1

>  <i_i_glide_lignum>  (1) 
9

>  <i_i_glide_posenum>  (1) 
257

>  <i_i_glide_rotatable_bonds>  (1) 
0

>  <i_lp_mmshare_version>  (1) 
72125

>  <i_m_source_file_index>  (1) 
9

>  <i_f3d_flags>  (1) 
0

>  <num_sample>  (1) 
50

>  <b_lp_Chiralities_Consistent>  (1) 
1

>  <r_epik_Charging_Adjusted_Penalty>  (1) 
0

>  <r_epik_Ionization_Penalty>  (1) 
0

>  <r_epik_Ionization_Penalty_Charging>  (1) 
0

>  <r_epik_Ionization_Penalty_Neutral>  (1) 
0

>  <r_epik_State_Penalty>  (1) 
-0

>  <r_glide_ring_energy>  (1) 
0

>  <r_i_docking_score>  (1) 
-5.2464995557193284

>  <r_i_glide_ecoul>  (1) 
-1.4071237423771357

>  <r_i_glide_eff_state_penalty>  (1) 
-0

>  <r_i_glide_einternal>  (1) 
0

>  <r_i_glide_emodel>  (1) 
-23.060372930512973

>  <r_i_glide_emodel_strain>  (1) 
6.2003513434660817e-10

>  <r_i_glide_energy>  (1) 
-17.312533075616262

>  <r_i_glide_erotb>  (1) 
0

>  <r_i_glide_esite>  (1) 
0

>  <r_i_glide_evdw>  (1) 
-15.905409333239126

>  <r_i_glide_gscore>  (1) 
-5.2464995557193284

>  <r_i_glide_gscore_strain>  (1) 
0

>  <r_i_glide_hbond>  (1) 
0

>  <r_i_glide_ligand_efficiency>  (1) 
-0.87441659261988802

>  <r_i_glide_ligand_efficiency_ln>  (1) 
-1.8792806520577612

>  <r_i_glide_ligand_efficiency_sa>  (1) 
-1.5889203971637107

>  <r_i_glide_lipo>  (1) 
-1.7704206978601473

>  <r_i_glide_metal>  (1) 
-0

>  <r_i_glide_rewards>  (1) 
-2.4697398298406541

>  <r_lp_Energy>  (1) 
3.145988

>  <r_lp_tautomer_probability>  (1) 
1

>  <s_epik_cmdline>  (1) 
J2VwaWtfcHl0aG9uJywgJy1waHQnLCAnMS4wJywgJy1waCcsICc3LjQnLCAnLXRuJywgJzgnLCAnLW1hJywgJzUwMCcsICctaW1hZScsICc8aW5maWxlLm1hZT4nLCAnLW9tYWUnLCAnPG91dGZpbGUubWFlPic=

>  <s_epik_input>  (1) 
czFbY0hdW2NIXVtjSF1jMVtDSDNd

>  <s_glide_docking_method>  (1) 
confgen

>  <s_i_glide_gridfile>  (1) 
gpcr_5ht2c_6bqh_protein_autoprepared_prepared

>  <s_lp_Force_Field>  (1) 
S-OPLS

>  <s_lp_Variant>  (1) 
Pocket2Mol_8_num_sample_50-1

>  <s_m_source_file>  (1) 
generated__ligand_Pocket2Mol_2026-05-06_prepared.sdf

>  <GenAI_Model>  (1) 
Pocket2Mol

>  <Protein>  (1) 
GPCR_5HT2C

$$$$
Pocket2Mol_38_num_sample_50
     RDKit          3D

  0  0  0  0  0  0  0  0  0  0999 V3000
M  V30 BEGIN CTAB
M  V30 COUNTS 12 12 0 0 1
M  V30 BEGIN ATOM
M  V30 1 C 39.067905 27.396739 51.292683 0
M  V30 2 C 39.700965 28.469470 50.653502 0
M  V30 3 C 39.709555 29.435831 51.476047 0
M  V30 4 C 40.267528 30.821391 51.269634 0
M  V30 5 N 38.659468 27.620374 52.508202 0
M  V30 6 C 39.066911 29.000512 52.688622 0
M  V30 7 O 38.897292 29.684806 53.695973 0
M  V30 8 H 38.952005 26.453216 50.753064 0
M  V30 9 H 40.083686 28.421513 49.647267 0
M  V30 10 H 40.667408 31.221427 52.201233 0
M  V30 11 H 41.068544 30.812464 50.529209 0
M  V30 12 H 39.488389 31.497916 50.918014 0
M  V30 END ATOM
M  V30 BEGIN BOND
M  V30 1 1 2 1
M  V30 2 2 3 2
M  V30 3 1 4 3
M  V30 4 2 5 1
M  V30 5 1 6 3
M  V30 6 1 6 5
M  V30 7 2 7 6
M  V30 8 1 8 1
M  V30 9 1 9 2
M  V30 10 1 10 4
M  V30 11 1 11 4
M  V30 12 1 12 4
M  V30 END BOND
M  V30 END CTAB
M  END
>  <i_epik_Tot_Q>  (1) 
0

>  <i_epik_Tot_abs_Q>  (1) 
0

>  <i_i_glide_confnum>  (1) 
1

>  <i_i_glide_lignum>  (1) 
39

>  <i_i_glide_posenum>  (1) 
343

>  <i_i_glide_rotatable_bonds>  (1) 
0

>  <i_lp_mmshare_version>  (1) 
72125

>  <i_m_source_file_index>  (1) 
39

>  <i_f3d_flags>  (1) 
0

>  <num_sample>  (1) 
50

>  <b_lp_Chiralities_Consistent>  (1) 
1

>  <r_epik_Charging_Adjusted_Penalty>  (1) 
0

>  <r_epik_Ionization_Penalty>  (1) 
0

>  <r_epik_Ionization_Penalty_Charging>  (1) 
0

>  <r_epik_Ionization_Penalty_Neutral>  (1) 
0

>  <r_epik_State_Penalty>  (1) 
-0

>  <r_glide_ring_energy>  (1) 
0

>  <r_i_docking_score>  (1) 
-5.238467182683455

>  <r_i_glide_ecoul>  (1) 
-0.20861742340742456

>  <r_i_glide_eff_state_penalty>  (1) 
-0

>  <r_i_glide_einternal>  (1) 
0

>  <r_i_glide_emodel>  (1) 
-24.057029465146837

>  <r_i_glide_emodel_strain>  (1) 
0.093903934788336585

>  <r_i_glide_energy>  (1) 
-18.015496420797465

>  <r_i_glide_erotb>  (1) 
0

>  <r_i_glide_esite>  (1) 
0

>  <r_i_glide_evdw>  (1) 
-17.80687899739004

>  <r_i_glide_gscore>  (1) 
-5.238467182683455

>  <r_i_glide_gscore_strain>  (1) 
0

>  <r_i_glide_hbond>  (1) 
0

>  <r_i_glide_ligand_efficiency>  (1) 
-0.74835245466906497

>  <r_i_glide_ligand_efficiency_ln>  (1) 
-1.77821688973213

>  <r_i_glide_ligand_efficiency_sa>  (1) 
-1.4315467462407152

>  <r_i_glide_lipo>  (1) 
-0.98409956293750367

>  <r_i_glide_metal>  (1) 
-0

>  <r_i_glide_rewards>  (1) 
-3.3327310563653354

>  <r_lp_Energy>  (1) 
0.58044799999999996

>  <r_lp_tautomer_probability>  (1) 
1

>  <s_epik_Chemistry_Notes>  (1) 
This compound has an imine and may undergo hydrolysis.

>  <s_epik_cmdline>  (1) 
J2VwaWtfcHl0aG9uJywgJy1waHQnLCAnMS4wJywgJy1waCcsICc3LjQnLCAnLXRuJywgJzgnLCAnLW1hJywgJzUwMCcsICctaW1hZScsICc8aW5maWxlLm1hZT4nLCAnLW9tYWUnLCAnPG91dGZpbGUubWFlPic=

>  <s_epik_input>  (1) 
Tz1DMU49W0NIXVtDSF09QzFbQ0gzXQ==

>  <s_glide_docking_method>  (1) 
confgen

>  <s_i_glide_gridfile>  (1) 
gpcr_5ht2c_6bqh_protein_autoprepared_prepared

>  <s_lp_Force_Field>  (1) 
S-OPLS

>  <s_lp_Variant>  (1) 
Pocket2Mol_38_num_sample_50-1

>  <s_m_source_file>  (1) 
generated__ligand_Pocket2Mol_2026-05-06_prepared.sdf

>  <GenAI_Model>  (1) 
Pocket2Mol

>  <Protein>  (1) 
GPCR_5HT2C

$$$$
Pocket2Mol_22_num_sample_50
     RDKit          3D

  0  0  0  0  0  0  0  0  0  0999 V3000
M  V30 BEGIN CTAB
M  V30 COUNTS 11 11 0 0 1
M  V30 BEGIN ATOM
M  V30 1 C 38.779146 28.235889 52.279603 0
M  V30 2 C 39.467425 28.503852 51.053499 0
M  V30 3 C 40.122735 29.700793 51.105296 0
M  V30 4 C 40.945951 30.361626 50.052284 0
M  V30 5 N 38.899126 29.162618 53.211773 0
M  V30 6 S 39.867404 30.421420 52.653525 0
M  V30 7 H 38.184396 27.359776 52.494333 0
M  V30 8 H 39.450210 27.830869 50.210263 0
M  V30 9 H 40.985768 29.757792 49.145774 0
M  V30 10 H 40.524443 31.331704 49.790433 0
M  V30 11 H 41.966589 30.520579 50.399630 0
M  V30 END ATOM
M  V30 BEGIN BOND
M  V30 1 1 2 1
M  V30 2 2 3 2
M  V30 3 1 4 3
M  V30 4 2 5 1
M  V30 5 1 6 3
M  V30 6 1 6 5
M  V30 7 1 7 1
M  V30 8 1 8 2
M  V30 9 1 9 4
M  V30 10 1 10 4
M  V30 11 1 11 4
M  V30 END BOND
M  V30 END CTAB
M  END
>  <i_epik_Tot_Q>  (1) 
0

>  <i_epik_Tot_abs_Q>  (1) 
0

>  <i_i_glide_confnum>  (1) 
1

>  <i_i_glide_lignum>  (1) 
23

>  <i_i_glide_posenum>  (1) 
3

>  <i_i_glide_rotatable_bonds>  (1) 
0

>  <i_lp_mmshare_version>  (1) 
72125

>  <i_m_source_file_index>  (1) 
23

>  <i_f3d_flags>  (1) 
0

>  <num_sample>  (1) 
50

>  <b_lp_Chiralities_Consistent>  (1) 
1

>  <r_epik_Charging_Adjusted_Penalty>  (1) 
0

>  <r_epik_Ionization_Penalty>  (1) 
2.7081824038816109e-08

>  <r_epik_Ionization_Penalty_Charging>  (1) 
0

>  <r_epik_Ionization_Penalty_Neutral>  (1) 
2.7081824038816109e-08

>  <r_epik_State_Penalty>  (1) 
-0

>  <r_glide_ring_energy>  (1) 
0

>  <r_i_docking_score>  (1) 
-5.2342431448242923

>  <r_i_glide_ecoul>  (1) 
-0.86945142454666091

>  <r_i_glide_eff_state_penalty>  (1) 
-0

>  <r_i_glide_einternal>  (1) 
0

>  <r_i_glide_emodel>  (1) 
-23.760902539949377

>  <r_i_glide_emodel_strain>  (1) 
0

>  <r_i_glide_energy>  (1) 
-17.915317475125441

>  <r_i_glide_erotb>  (1) 
0

>  <r_i_glide_esite>  (1) 
0

>  <r_i_glide_evdw>  (1) 
-17.04586605057878

>  <r_i_glide_gscore>  (1) 
-5.2342431448242923

>  <r_i_glide_gscore_strain>  (1) 
0

>  <r_i_glide_hbond>  (1) 
0

>  <r_i_glide_ligand_efficiency>  (1) 
-0.87237385747071539

>  <r_i_glide_ligand_efficiency_ln>  (1) 
-1.8748904418587338

>  <r_i_glide_ligand_efficiency_sa>  (1) 
-1.5852085010584471

>  <r_i_glide_lipo>  (1) 
-1.6500000000000001

>  <r_i_glide_metal>  (1) 
-0

>  <r_i_glide_rewards>  (1) 
-2.601532128613353

>  <r_lp_Energy>  (1) 
1.924183

>  <r_lp_tautomer_probability>  (1) 
1

>  <s_epik_cmdline>  (1) 
J2VwaWtfcHl0aG9uJywgJy1waHQnLCAnMS4wJywgJy1waCcsICc3LjQnLCAnLXRuJywgJzgnLCAnLW1hJywgJzUwMCcsICctaW1hZScsICc8aW5maWxlLm1hZT4nLCAnLW9tYWUnLCAnPG91dGZpbGUubWFlPic=

>  <s_epik_input>  (1) 
czFuW2NIXVtjSF1jMVtDSDNd

>  <s_glide_docking_method>  (1) 
confgen

>  <s_i_glide_gridfile>  (1) 
gpcr_5ht2c_6bqh_protein_autoprepared_prepared

>  <s_lp_Force_Field>  (1) 
S-OPLS

>  <s_lp_Variant>  (1) 
Pocket2Mol_22_num_sample_50-1

>  <s_m_source_file>  (1) 
generated__ligand_Pocket2Mol_2026-05-06_prepared.sdf

>  <GenAI_Model>  (1) 
Pocket2Mol

>  <Protein>  (1) 
GPCR_5HT2C

$$$$
Pocket2Mol_19_num_sample_50
     RDKit          3D

  0  0  0  0  0  0  0  0  0  0999 V3000
M  V30 BEGIN CTAB
M  V30 COUNTS 13 13 0 0 1
M  V30 BEGIN ATOM
M  V30 1 C 38.815206 28.175794 51.979644 0
M  V30 2 C 39.067403 29.215005 52.916900 0
M  V30 3 C 39.467893 28.495049 50.823061 0
M  V30 4 C 39.867403 30.139117 52.305175 0
M  V30 5 N 40.117990 29.702135 51.017606 0
M  V30 6 C 40.925571 30.395946 50.035932 0
M  V30 7 H 38.217035 27.288588 52.134909 0
M  V30 8 H 38.701198 29.281028 53.930594 0
M  V30 9 H 39.530945 27.979500 49.877244 0
M  V30 10 H 40.282955 31.070644 52.663820 0
M  V30 11 H 40.959128 29.833229 49.102625 0
M  V30 12 H 40.500348 31.380435 49.841744 0
M  V30 13 H 41.940709 30.515373 50.414549 0
M  V30 END ATOM
M  V30 BEGIN BOND
M  V30 1 1 2 1
M  V30 2 2 3 1
M  V30 3 2 4 2
M  V30 4 1 5 3
M  V30 5 1 5 4
M  V30 6 1 6 5
M  V30 7 1 7 1
M  V30 8 1 8 2
M  V30 9 1 9 3
M  V30 10 1 10 4
M  V30 11 1 11 6
M  V30 12 1 12 6
M  V30 13 1 13 6
M  V30 END BOND
M  V30 END CTAB
M  END
>  <i_epik_Tot_Q>  (1) 
0

>  <i_epik_Tot_abs_Q>  (1) 
0

>  <i_i_glide_confnum>  (1) 
1

>  <i_i_glide_lignum>  (1) 
20

>  <i_i_glide_posenum>  (1) 
258

>  <i_i_glide_rotatable_bonds>  (1) 
0

>  <i_lp_mmshare_version>  (1) 
72125

>  <i_m_source_file_index>  (1) 
20

>  <i_f3d_flags>  (1) 
0

>  <num_sample>  (1) 
50

>  <b_lp_Chiralities_Consistent>  (1) 
1

>  <r_epik_Charging_Adjusted_Penalty>  (1) 
0

>  <r_epik_Ionization_Penalty>  (1) 
5.9248581604286784e-11

>  <r_epik_Ionization_Penalty_Charging>  (1) 
0

>  <r_epik_Ionization_Penalty_Neutral>  (1) 
5.9248581604286784e-11

>  <r_epik_State_Penalty>  (1) 
-0

>  <r_glide_ring_energy>  (1) 
0

>  <r_i_docking_score>  (1) 
-5.2206917072435335

>  <r_i_glide_ecoul>  (1) 
-0.97847682799366742

>  <r_i_glide_eff_state_penalty>  (1) 
-0

>  <r_i_glide_einternal>  (1) 
0

>  <r_i_glide_emodel>  (1) 
-22.445694979304861

>  <r_i_glide_emodel_strain>  (1) 
0

>  <r_i_glide_energy>  (1) 
-17.108634590286652

>  <r_i_glide_erotb>  (1) 
0

>  <r_i_glide_esite>  (1) 
0

>  <r_i_glide_evdw>  (1) 
-16.130157762292985

>  <r_i_glide_gscore>  (1) 
-5.2206917072435335

>  <r_i_glide_gscore_strain>  (1) 
0

>  <r_i_glide_hbond>  (1) 
0

>  <r_i_glide_ligand_efficiency>  (1) 
-0.87011528454058895

>  <r_i_glide_ligand_efficiency_ln>  (1) 
-1.8700363569240794

>  <r_i_glide_ligand_efficiency_sa>  (1) 
-1.5811044016767011

>  <r_i_glide_lipo>  (1) 
-1.5674122949298341

>  <r_i_glide_metal>  (1) 
-0

>  <r_i_glide_rewards>  (1) 
-2.7000000000000002

>  <r_lp_Energy>  (1) 
0.62146699999999999

>  <r_lp_tautomer_probability>  (1) 
1

>  <s_epik_cmdline>  (1) 
J2VwaWtfcHl0aG9uJywgJy1waHQnLCAnMS4wJywgJy1waCcsICc3LjQnLCAnLXRuJywgJzgnLCAnLW1hJywgJzUwMCcsICctaW1hZScsICc8aW5maWxlLm1hZT4nLCAnLW9tYWUnLCAnPG91dGZpbGUubWFlPic=

>  <s_epik_input>  (1) 
W2NIXTFbY0hdW2NIXVtjSF1uMVtDSDNd

>  <s_glide_docking_method>  (1) 
confgen

>  <s_i_glide_gridfile>  (1) 
gpcr_5ht2c_6bqh_protein_autoprepared_prepared

>  <s_lp_Force_Field>  (1) 
S-OPLS

>  <s_lp_Variant>  (1) 
Pocket2Mol_19_num_sample_50-1

>  <s_m_source_file>  (1) 
generated__ligand_Pocket2Mol_2026-05-06_prepared.sdf

>  <GenAI_Model>  (1) 
Pocket2Mol

>  <Protein>  (1) 
GPCR_5HT2C

$$$$
Pocket2Mol_38_num_sample_50
     RDKit          3D

  0  0  0  0  0  0  0  0  0  0999 V3000
M  V30 BEGIN CTAB
M  V30 COUNTS 12 12 0 0 1
M  V30 BEGIN ATOM
M  V30 1 C 38.666786 27.663241 52.444441 0
M  V30 2 C 39.138017 28.051284 51.132156 0
M  V30 3 C 39.634758 29.271719 51.299215 0
M  V30 4 C 40.267274 30.166671 50.252596 0
M  V30 5 N 38.853007 28.551088 53.329324 0
M  V30 6 C 39.467403 29.621762 52.697452 0
M  V30 7 O 39.809435 30.678356 53.225709 0
M  V30 8 H 38.203019 26.685191 52.596818 0
M  V30 9 H 39.067775 27.430234 50.251596 0
M  V30 10 H 40.586638 31.118204 50.678898 0
M  V30 11 H 41.139531 29.678558 49.817593 0
M  V30 12 H 39.554705 30.373389 49.453958 0
M  V30 END ATOM
M  V30 BEGIN BOND
M  V30 1 1 2 1
M  V30 2 2 3 2
M  V30 3 1 4 3
M  V30 4 2 5 1
M  V30 5 1 6 3
M  V30 6 1 6 5
M  V30 7 2 7 6
M  V30 8 1 8 1
M  V30 9 1 9 2
M  V30 10 1 10 4
M  V30 11 1 11 4
M  V30 12 1 12 4
M  V30 END BOND
M  V30 END CTAB
M  END
>  <i_epik_Tot_Q>  (1) 
0

>  <i_epik_Tot_abs_Q>  (1) 
0

>  <i_i_glide_confnum>  (1) 
1

>  <i_i_glide_lignum>  (1) 
39

>  <i_i_glide_posenum>  (1) 
321

>  <i_i_glide_rotatable_bonds>  (1) 
0

>  <i_lp_mmshare_version>  (1) 
72125

>  <i_m_source_file_index>  (1) 
39

>  <i_f3d_flags>  (1) 
0

>  <num_sample>  (1) 
50

>  <b_lp_Chiralities_Consistent>  (1) 
1

>  <r_epik_Charging_Adjusted_Penalty>  (1) 
0

>  <r_epik_Ionization_Penalty>  (1) 
0

>  <r_epik_Ionization_Penalty_Charging>  (1) 
0

>  <r_epik_Ionization_Penalty_Neutral>  (1) 
0

>  <r_epik_State_Penalty>  (1) 
-0

>  <r_glide_ring_energy>  (1) 
0

>  <r_i_docking_score>  (1) 
-5.2111096413994664

>  <r_i_glide_ecoul>  (1) 
-0.62247843186095597

>  <r_i_glide_eff_state_penalty>  (1) 
-0

>  <r_i_glide_einternal>  (1) 
0

>  <r_i_glide_emodel>  (1) 
-25.244245511683211

>  <r_i_glide_emodel_strain>  (1) 
0

>  <r_i_glide_energy>  (1) 
-19.140850438049259

>  <r_i_glide_erotb>  (1) 
0

>  <r_i_glide_esite>  (1) 
0

>  <r_i_glide_evdw>  (1) 
-18.518372006188304

>  <r_i_glide_gscore>  (1) 
-5.2111096413994664

>  <r_i_glide_gscore_strain>  (1) 
0

>  <r_i_glide_hbond>  (1) 
0

>  <r_i_glide_ligand_efficiency>  (1) 
-0.74444423448563801

>  <r_i_glide_ligand_efficiency_ln>  (1) 
-1.7689302720487083

>  <r_i_glide_ligand_efficiency_sa>  (1) 
-1.4240705899826975

>  <r_i_glide_lipo>  (1) 
-0.98999999999999999

>  <r_i_glide_metal>  (1) 
-0

>  <r_i_glide_rewards>  (1) 
-3.2018192763109079

>  <r_lp_Energy>  (1) 
0.58044799999999996

>  <r_lp_tautomer_probability>  (1) 
1

>  <s_epik_Chemistry_Notes>  (1) 
This compound has an imine and may undergo hydrolysis.

>  <s_epik_cmdline>  (1) 
J2VwaWtfcHl0aG9uJywgJy1waHQnLCAnMS4wJywgJy1waCcsICc3LjQnLCAnLXRuJywgJzgnLCAnLW1hJywgJzUwMCcsICctaW1hZScsICc8aW5maWxlLm1hZT4nLCAnLW9tYWUnLCAnPG91dGZpbGUubWFlPic=

>  <s_epik_input>  (1) 
Tz1DMU49W0NIXVtDSF09QzFbQ0gzXQ==

>  <s_glide_docking_method>  (1) 
confgen

>  <s_i_glide_gridfile>  (1) 
gpcr_5ht2c_6bqh_protein_autoprepared_prepared

>  <s_lp_Force_Field>  (1) 
S-OPLS

>  <s_lp_Variant>  (1) 
Pocket2Mol_38_num_sample_50-1

>  <s_m_source_file>  (1) 
generated__ligand_Pocket2Mol_2026-05-06_prepared.sdf

>  <GenAI_Model>  (1) 
Pocket2Mol

>  <Protein>  (1) 
GPCR_5HT2C

$$$$
Pocket2Mol_29_num_sample_50
     RDKit          3D

  0  0  0  0  0  0  0  0  0  0999 V3000
M  V30 BEGIN CTAB
M  V30 COUNTS 17 17 0 0 1
M  V30 BEGIN ATOM
M  V30 1 C 38.198638 24.717629 57.453476 0
M  V30 2 C 39.179323 25.890067 57.497418 0
M  V30 3 C 39.791117 26.335302 56.168673 0
M  V30 4 O 39.467385 26.445339 58.554887 0
M  V30 5 C 37.165403 24.885181 56.325900 0
M  V30 6 C 38.715641 26.467607 55.076061 0
M  V30 7 C 37.827629 25.216375 54.979905 0
M  V30 8 H 38.774133 23.804216 57.304547 0
M  V30 9 H 37.696723 24.622726 58.416410 0
M  V30 10 H 40.315592 27.281360 56.304298 0
M  V30 11 H 40.537651 25.597547 55.873355 0
M  V30 12 H 36.581048 23.969150 56.229884 0
M  V30 13 H 36.458669 25.672271 56.590845 0
M  V30 14 H 38.094837 27.342058 55.279246 0
M  V30 15 H 39.194854 26.649723 54.113435 0
M  V30 16 H 37.067482 25.361435 54.212076 0
M  V30 17 H 38.429552 24.368064 54.653504 0
M  V30 END ATOM
M  V30 BEGIN BOND
M  V30 1 1 2 1
M  V30 2 1 3 2
M  V30 3 2 4 2
M  V30 4 1 5 1
M  V30 5 1 6 3
M  V30 6 1 7 5
M  V30 7 1 7 6
M  V30 8 1 8 1
M  V30 9 1 9 1
M  V30 10 1 10 3
M  V30 11 1 11 3
M  V30 12 1 12 5
M  V30 13 1 13 5
M  V30 14 1 14 6
M  V30 15 1 15 6
M  V30 16 1 16 7
M  V30 17 1 17 7
M  V30 END BOND
M  V30 END CTAB
M  END
>  <i_epik_Tot_Q>  (1) 
0

>  <i_epik_Tot_abs_Q>  (1) 
0

>  <i_i_glide_confnum>  (1) 
2

>  <i_i_glide_lignum>  (1) 
30

>  <i_i_glide_posenum>  (1) 
379

>  <i_i_glide_rotatable_bonds>  (1) 
0

>  <i_lp_mmshare_version>  (1) 
72125

>  <i_m_source_file_index>  (1) 
30

>  <i_f3d_flags>  (1) 
0

>  <num_sample>  (1) 
50

>  <b_lp_Chiralities_Consistent>  (1) 
1

>  <r_epik_Charging_Adjusted_Penalty>  (1) 
0

>  <r_epik_Ionization_Penalty>  (1) 
3.7730911281982554e-13

>  <r_epik_Ionization_Penalty_Charging>  (1) 
0

>  <r_epik_Ionization_Penalty_Neutral>  (1) 
3.7730911281982554e-13

>  <r_epik_State_Penalty>  (1) 
-0

>  <r_glide_ring_energy>  (1) 
4.2281688740393558e-05

>  <r_i_docking_score>  (1) 
-5.2052682695071448

>  <r_i_glide_ecoul>  (1) 
-0.16445286222563091

>  <r_i_glide_eff_state_penalty>  (1) 
-0

>  <r_i_glide_einternal>  (1) 
0

>  <r_i_glide_emodel>  (1) 
-22.457425118250509

>  <r_i_glide_emodel_strain>  (1) 
0

>  <r_i_glide_energy>  (1) 
-16.934893116319522

>  <r_i_glide_erotb>  (1) 
0

>  <r_i_glide_esite>  (1) 
0

>  <r_i_glide_evdw>  (1) 
-16.770440254093891

>  <r_i_glide_gscore>  (1) 
-5.2052682695071448

>  <r_i_glide_gscore_strain>  (1) 
0

>  <r_i_glide_hbond>  (1) 
0

>  <r_i_glide_ligand_efficiency>  (1) 
-0.74360975278673502

>  <r_i_glide_ligand_efficiency_ln>  (1) 
-1.7669473969450007

>  <r_i_glide_ligand_efficiency_sa>  (1) 
-1.4224742839194129

>  <r_i_glide_lipo>  (1) 
-1.5807235070789905

>  <r_i_glide_metal>  (1) 
-0

>  <r_i_glide_rewards>  (1) 
-2.7613548203896165

>  <r_lp_Energy>  (1) 
-0.38655299999999998

>  <r_lp_tautomer_probability>  (1) 
1

>  <s_epik_cmdline>  (1) 
J2VwaWtfcHl0aG9uJywgJy1waHQnLCAnMS4wJywgJy1waCcsICc3LjQnLCAnLXRuJywgJzgnLCAnLW1hJywgJzUwMCcsICctaW1hZScsICc8aW5maWxlLm1hZT4nLCAnLW9tYWUnLCAnPG91dGZpbGUubWFlPic=

>  <s_epik_input>  (1) 
Tz1DMVtDSDJdW0NIMl1bQ0gyXVtDSDJdW0NIMl0x

>  <s_glide_docking_method>  (1) 
confgen

>  <s_i_glide_gridfile>  (1) 
gpcr_5ht2c_6bqh_protein_autoprepared_prepared

>  <s_lp_Force_Field>  (1) 
S-OPLS

>  <s_lp_Variant>  (1) 
Pocket2Mol_29_num_sample_50-1

>  <s_m_source_file>  (1) 
generated__ligand_Pocket2Mol_2026-05-06_prepared.sdf

>  <GenAI_Model>  (1) 
Pocket2Mol

>  <Protein>  (1) 
GPCR_5HT2C

$$$$
Pocket2Mol_35_num_sample_50
     RDKit          3D

  0  0  0  0  0  0  0  0  0  0999 V3000
M  V30 BEGIN CTAB
M  V30 COUNTS 11 11 0 0 1
M  V30 BEGIN ATOM
M  V30 1 C 39.867405 30.370483 52.480421 0
M  V30 2 O 39.090446 29.452610 53.150958 0
M  V30 3 C 38.652543 28.241400 52.579992 0
M  V30 4 O 37.961854 27.425742 53.186025 0
M  V30 5 C 39.111588 28.045992 51.159538 0
M  V30 6 C 40.255705 30.166130 51.226710 0
M  V30 7 C 39.867401 28.977526 50.550848 0
M  V30 8 H 40.107804 31.236469 53.078004 0
M  V30 9 H 38.818293 27.143182 50.642921 0
M  V30 10 H 40.864425 30.902543 50.721515 0
M  V30 11 H 40.183979 28.821428 49.530489 0
M  V30 END ATOM
M  V30 BEGIN BOND
M  V30 1 1 2 1
M  V30 2 1 3 2
M  V30 3 2 4 3
M  V30 4 1 5 3
M  V30 5 2 6 1
M  V30 6 2 7 5
M  V30 7 1 7 6
M  V30 8 1 8 1
M  V30 9 1 9 5
M  V30 10 1 10 6
M  V30 11 1 11 7
M  V30 END BOND
M  V30 END CTAB
M  END
>  <i_epik_Tot_Q>  (1) 
0

>  <i_epik_Tot_abs_Q>  (1) 
0

>  <i_i_glide_confnum>  (1) 
1

>  <i_i_glide_lignum>  (1) 
36

>  <i_i_glide_posenum>  (1) 
158

>  <i_i_glide_rotatable_bonds>  (1) 
0

>  <i_lp_mmshare_version>  (1) 
72125

>  <i_m_source_file_index>  (1) 
36

>  <i_f3d_flags>  (1) 
0

>  <num_sample>  (1) 
50

>  <b_lp_Chiralities_Consistent>  (1) 
1

>  <r_epik_Charging_Adjusted_Penalty>  (1) 
0

>  <r_epik_Ionization_Penalty>  (1) 
2.4984917370333966e-09

>  <r_epik_Ionization_Penalty_Charging>  (1) 
0

>  <r_epik_Ionization_Penalty_Neutral>  (1) 
2.4984917370333966e-09

>  <r_epik_State_Penalty>  (1) 
-0

>  <r_glide_ring_energy>  (1) 
0

>  <r_i_docking_score>  (1) 
-5.2021413881270417

>  <r_i_glide_ecoul>  (1) 
-0.32350918366054693

>  <r_i_glide_eff_state_penalty>  (1) 
-0

>  <r_i_glide_einternal>  (1) 
0

>  <r_i_glide_emodel>  (1) 
-23.772809628846073

>  <r_i_glide_emodel_strain>  (1) 
0

>  <r_i_glide_energy>  (1) 
-18.160560033731819

>  <r_i_glide_erotb>  (1) 
0

>  <r_i_glide_esite>  (1) 
0

>  <r_i_glide_evdw>  (1) 
-17.837050850071272

>  <r_i_glide_gscore>  (1) 
-5.2021413881270417

>  <r_i_glide_gscore_strain>  (1) 
0

>  <r_i_glide_hbond>  (1) 
0

>  <r_i_glide_ligand_efficiency>  (1) 
-0.74316305544672023

>  <r_i_glide_ligand_efficiency_ln>  (1) 
-1.7658859655971688

>  <r_i_glide_ligand_efficiency_sa>  (1) 
-1.4216197826484371

>  <r_i_glide_lipo>  (1) 
-1.6500000000000001

>  <r_i_glide_metal>  (1) 
-0

>  <r_i_glide_rewards>  (1) 
-2.6117624680743958

>  <r_lp_Energy>  (1) 
11.255118999999999

>  <r_lp_tautomer_probability>  (1) 
1

>  <s_epik_cmdline>  (1) 
J2VwaWtfcHl0aG9uJywgJy1waHQnLCAnMS4wJywgJy1waCcsICc3LjQnLCAnLXRuJywgJzgnLCAnLW1hJywgJzUwMCcsICctaW1hZScsICc8aW5maWxlLm1hZT4nLCAnLW9tYWUnLCAnPG91dGZpbGUubWFlPic=

>  <s_epik_input>  (1) 
W2NIXTFbY0hdW2NIXVtjSF1vYzE9Tw==

>  <s_glide_docking_method>  (1) 
confgen

>  <s_i_glide_gridfile>  (1) 
gpcr_5ht2c_6bqh_protein_autoprepared_prepared

>  <s_lp_Force_Field>  (1) 
S-OPLS

>  <s_lp_Variant>  (1) 
Pocket2Mol_35_num_sample_50-1

>  <s_m_source_file>  (1) 
generated__ligand_Pocket2Mol_2026-05-06_prepared.sdf

>  <GenAI_Model>  (1) 
Pocket2Mol

>  <Protein>  (1) 
GPCR_5HT2C

$$$$
Pocket2Mol_8_num_sample_50
     RDKit          3D

  0  0  0  0  0  0  0  0  0  0999 V3000
M  V30 BEGIN CTAB
M  V30 COUNTS 12 12 0 0 1
M  V30 BEGIN ATOM
M  V30 1 C 38.346756 27.508240 52.433074 0
M  V30 2 C 38.450023 28.608766 53.343913 0
M  V30 3 C 39.248170 29.621429 52.870914 0
M  V30 4 C 39.586146 30.905986 53.543425 0
M  V30 5 C 39.067200 27.701119 51.281876 0
M  V30 6 S 39.867514 29.234855 51.292787 0
M  V30 7 H 37.757701 26.629976 52.653901 0
M  V30 8 H 37.945380 28.616850 54.298597 0
M  V30 9 H 39.137749 30.959567 54.535702 0
M  V30 10 H 40.665369 31.016237 53.651755 0
M  V30 11 H 39.210592 31.749275 52.966957 0
M  V30 12 H 39.166036 27.038260 50.432858 0
M  V30 END ATOM
M  V30 BEGIN BOND
M  V30 1 1 2 1
M  V30 2 2 3 2
M  V30 3 1 4 3
M  V30 4 2 5 1
M  V30 5 1 6 3
M  V30 6 1 6 5
M  V30 7 1 7 1
M  V30 8 1 8 2
M  V30 9 1 9 4
M  V30 10 1 10 4
M  V30 11 1 11 4
M  V30 12 1 12 5
M  V30 END BOND
M  V30 END CTAB
M  END
>  <i_epik_Tot_Q>  (1) 
0

>  <i_epik_Tot_abs_Q>  (1) 
0

>  <i_i_glide_confnum>  (1) 
1

>  <i_i_glide_lignum>  (1) 
9

>  <i_i_glide_posenum>  (1) 
369

>  <i_i_glide_rotatable_bonds>  (1) 
0

>  <i_lp_mmshare_version>  (1) 
72125

>  <i_m_source_file_index>  (1) 
9

>  <i_f3d_flags>  (1) 
0

>  <num_sample>  (1) 
50

>  <b_lp_Chiralities_Consistent>  (1) 
1

>  <r_epik_Charging_Adjusted_Penalty>  (1) 
0

>  <r_epik_Ionization_Penalty>  (1) 
0

>  <r_epik_Ionization_Penalty_Charging>  (1) 
0

>  <r_epik_Ionization_Penalty_Neutral>  (1) 
0

>  <r_epik_State_Penalty>  (1) 
-0

>  <r_glide_ring_energy>  (1) 
0

>  <r_i_docking_score>  (1) 
-5.2019060958748007

>  <r_i_glide_ecoul>  (1) 
-1.2401810637772541

>  <r_i_glide_eff_state_penalty>  (1) 
-0

>  <r_i_glide_einternal>  (1) 
0

>  <r_i_glide_emodel>  (1) 
-23.297508241097734

>  <r_i_glide_emodel_strain>  (1) 
0

>  <r_i_glide_energy>  (1) 
-17.598523067272584

>  <r_i_glide_erotb>  (1) 
0

>  <r_i_glide_esite>  (1) 
0

>  <r_i_glide_evdw>  (1) 
-16.358342003495331

>  <r_i_glide_gscore>  (1) 
-5.2019060958748007

>  <r_i_glide_gscore_strain>  (1) 
0

>  <r_i_glide_hbond>  (1) 
0

>  <r_i_glide_ligand_efficiency>  (1) 
-0.86698434931246682

>  <r_i_glide_ligand_efficiency_ln>  (1) 
-1.8633074063909854

>  <r_i_glide_ligand_efficiency_sa>  (1) 
-1.5754151147988567

>  <r_i_glide_lipo>  (1) 
-1.7565657817670335

>  <r_i_glide_metal>  (1) 
-0

>  <r_i_glide_rewards>  (1) 
-2.4413960543664128

>  <r_lp_Energy>  (1) 
3.145988

>  <r_lp_tautomer_probability>  (1) 
1

>  <s_epik_cmdline>  (1) 
J2VwaWtfcHl0aG9uJywgJy1waHQnLCAnMS4wJywgJy1waCcsICc3LjQnLCAnLXRuJywgJzgnLCAnLW1hJywgJzUwMCcsICctaW1hZScsICc8aW5maWxlLm1hZT4nLCAnLW9tYWUnLCAnPG91dGZpbGUubWFlPic=

>  <s_epik_input>  (1) 
czFbY0hdW2NIXVtjSF1jMVtDSDNd

>  <s_glide_docking_method>  (1) 
confgen

>  <s_i_glide_gridfile>  (1) 
gpcr_5ht2c_6bqh_protein_autoprepared_prepared

>  <s_lp_Force_Field>  (1) 
S-OPLS

>  <s_lp_Variant>  (1) 
Pocket2Mol_8_num_sample_50-1

>  <s_m_source_file>  (1) 
generated__ligand_Pocket2Mol_2026-05-06_prepared.sdf

>  <GenAI_Model>  (1) 
Pocket2Mol

>  <Protein>  (1) 
GPCR_5HT2C

$$$$
Pocket2Mol_19_num_sample_50
     RDKit          3D

  0  0  0  0  0  0  0  0  0  0999 V3000
M  V30 BEGIN CTAB
M  V30 COUNTS 13 13 0 0 1
M  V30 BEGIN ATOM
M  V30 1 C 40.267350 30.426525 50.991409 0
M  V30 2 C 39.867374 30.421518 52.355779 0
M  V30 3 C 39.931527 29.217284 50.457473 0
M  V30 4 C 39.300912 29.206991 52.615708 0
M  V30 5 N 39.342575 28.459585 51.452792 0
M  V30 6 C 38.852283 27.110048 51.304845 0
M  V30 7 H 40.748385 31.231308 50.456592 0
M  V30 8 H 39.982868 31.222217 53.071054 0
M  V30 9 H 40.058537 28.821294 49.461249 0
M  V30 10 H 38.873690 28.799470 53.520782 0
M  V30 11 H 38.789332 26.828466 50.253502 0
M  V30 12 H 39.525090 26.421403 51.813380 0
M  V30 13 H 37.867989 27.031980 51.759266 0
M  V30 END ATOM
M  V30 BEGIN BOND
M  V30 1 1 2 1
M  V30 2 2 3 1
M  V30 3 2 4 2
M  V30 4 1 5 3
M  V30 5 1 5 4
M  V30 6 1 6 5
M  V30 7 1 7 1
M  V30 8 1 8 2
M  V30 9 1 9 3
M  V30 10 1 10 4
M  V30 11 1 11 6
M  V30 12 1 12 6
M  V30 13 1 13 6
M  V30 END BOND
M  V30 END CTAB
M  END
>  <i_epik_Tot_Q>  (1) 
0

>  <i_epik_Tot_abs_Q>  (1) 
0

>  <i_i_glide_confnum>  (1) 
1

>  <i_i_glide_lignum>  (1) 
20

>  <i_i_glide_posenum>  (1) 
308

>  <i_i_glide_rotatable_bonds>  (1) 
0

>  <i_lp_mmshare_version>  (1) 
72125

>  <i_m_source_file_index>  (1) 
20

>  <i_f3d_flags>  (1) 
0

>  <num_sample>  (1) 
50

>  <b_lp_Chiralities_Consistent>  (1) 
1

>  <r_epik_Charging_Adjusted_Penalty>  (1) 
0

>  <r_epik_Ionization_Penalty>  (1) 
5.9248581604286784e-11

>  <r_epik_Ionization_Penalty_Charging>  (1) 
0

>  <r_epik_Ionization_Penalty_Neutral>  (1) 
5.9248581604286784e-11

>  <r_epik_State_Penalty>  (1) 
-0

>  <r_glide_ring_energy>  (1) 
0

>  <r_i_docking_score>  (1) 
-5.1884069148685814

>  <r_i_glide_ecoul>  (1) 
-1.135506982371808

>  <r_i_glide_eff_state_penalty>  (1) 
-0

>  <r_i_glide_einternal>  (1) 
0

>  <r_i_glide_emodel>  (1) 
-21.528482106830641

>  <r_i_glide_emodel_strain>  (1) 
0.00013912658633774555

>  <r_i_glide_energy>  (1) 
-16.224565261478784

>  <r_i_glide_erotb>  (1) 
0

>  <r_i_glide_esite>  (1) 
0

>  <r_i_glide_evdw>  (1) 
-15.089058279106977

>  <r_i_glide_gscore>  (1) 
-5.1884069148685814

>  <r_i_glide_gscore_strain>  (1) 
0

>  <r_i_glide_hbond>  (1) 
0

>  <r_i_glide_ligand_efficiency>  (1) 
-0.8647344858114302

>  <r_i_glide_ligand_efficiency_ln>  (1) 
-1.8584720396070582

>  <r_i_glide_ligand_efficiency_sa>  (1) 
-1.5713268415000619

>  <r_i_glide_lipo>  (1) 
-1.5636279535574611

>  <r_i_glide_metal>  (1) 
-0

>  <r_i_glide_rewards>  (1) 
-2.7000000000000002

>  <r_lp_Energy>  (1) 
0.62146699999999999

>  <r_lp_tautomer_probability>  (1) 
1

>  <s_epik_cmdline>  (1) 
J2VwaWtfcHl0aG9uJywgJy1waHQnLCAnMS4wJywgJy1waCcsICc3LjQnLCAnLXRuJywgJzgnLCAnLW1hJywgJzUwMCcsICctaW1hZScsICc8aW5maWxlLm1hZT4nLCAnLW9tYWUnLCAnPG91dGZpbGUubWFlPic=

>  <s_epik_input>  (1) 
W2NIXTFbY0hdW2NIXVtjSF1uMVtDSDNd

>  <s_glide_docking_method>  (1) 
confgen

>  <s_i_glide_gridfile>  (1) 
gpcr_5ht2c_6bqh_protein_autoprepared_prepared

>  <s_lp_Force_Field>  (1) 
S-OPLS

>  <s_lp_Variant>  (1) 
Pocket2Mol_19_num_sample_50-1

>  <s_m_source_file>  (1) 
generated__ligand_Pocket2Mol_2026-05-06_prepared.sdf

>  <GenAI_Model>  (1) 
Pocket2Mol

>  <Protein>  (1) 
GPCR_5HT2C

$$$$
Pocket2Mol_36_num_sample_50
     RDKit          3D

  0  0  0  0  0  0  0  0  0  0999 V3000
M  V30 BEGIN CTAB
M  V30 COUNTS 17 17 0 0 1
M  V30 BEGIN ATOM
M  V30 1 C 37.183696 24.855663 56.334805 0
M  V30 2 C 38.228968 24.705915 57.453467 0
M  V30 3 C 39.177048 25.905046 57.511187 0
M  V30 4 O 39.467397 26.441678 58.577727 0
M  V30 5 C 37.831727 25.221440 54.991979 0
M  V30 6 C 38.662902 26.509169 55.105293 0
M  V30 7 C 39.754590 26.400166 56.184694 0
M  V30 8 H 36.624548 23.925300 56.230777 0
M  V30 9 H 36.455653 25.619866 56.611642 0
M  V30 10 H 38.829529 23.811327 57.289206 0
M  V30 11 H 40.241398 27.364296 56.334280 0
M  V30 12 H 37.735366 24.584272 58.417450 0
M  V30 13 H 37.067374 25.341285 54.224243 0
M  V30 14 H 38.471869 24.404083 54.659240 0
M  V30 15 H 38.005660 27.349604 55.334006 0
M  V30 16 H 39.122685 26.734531 54.142698 0
M  V30 17 H 40.525869 25.697945 55.867115 0
M  V30 END ATOM
M  V30 BEGIN BOND
M  V30 1 1 2 1
M  V30 2 1 3 2
M  V30 3 2 4 3
M  V30 4 1 5 1
M  V30 5 1 6 5
M  V30 6 1 7 3
M  V30 7 1 7 6
M  V30 8 1 8 1
M  V30 9 1 9 1
M  V30 10 1 10 2
M  V30 11 1 11 7
M  V30 12 1 12 2
M  V30 13 1 13 5
M  V30 14 1 14 5
M  V30 15 1 15 6
M  V30 16 1 16 6
M  V30 17 1 17 7
M  V30 END BOND
M  V30 END CTAB
M  END
>  <i_epik_Tot_Q>  (1) 
0

>  <i_epik_Tot_abs_Q>  (1) 
0

>  <i_i_glide_confnum>  (1) 
2

>  <i_i_glide_lignum>  (1) 
37

>  <i_i_glide_posenum>  (1) 
380

>  <i_i_glide_rotatable_bonds>  (1) 
0

>  <i_lp_mmshare_version>  (1) 
72125

>  <i_m_source_file_index>  (1) 
37

>  <i_f3d_flags>  (1) 
0

>  <num_sample>  (1) 
50

>  <b_lp_Chiralities_Consistent>  (1) 
1

>  <r_epik_Charging_Adjusted_Penalty>  (1) 
0

>  <r_epik_Ionization_Penalty>  (1) 
3.7730911281982554e-13

>  <r_epik_Ionization_Penalty_Charging>  (1) 
0

>  <r_epik_Ionization_Penalty_Neutral>  (1) 
3.7730911281982554e-13

>  <r_epik_State_Penalty>  (1) 
-0

>  <r_glide_ring_energy>  (1) 
4.2281688740393558e-05

>  <r_i_docking_score>  (1) 
-5.1852508392794894

>  <r_i_glide_ecoul>  (1) 
-0.16475843710762919

>  <r_i_glide_eff_state_penalty>  (1) 
-0

>  <r_i_glide_einternal>  (1) 
0

>  <r_i_glide_emodel>  (1) 
-22.440409581250243

>  <r_i_glide_emodel_strain>  (1) 
0

>  <r_i_glide_energy>  (1) 
-16.939097470210054

>  <r_i_glide_erotb>  (1) 
0

>  <r_i_glide_esite>  (1) 
0

>  <r_i_glide_evdw>  (1) 
-16.774339033102425

>  <r_i_glide_gscore>  (1) 
-5.1852508392794894

>  <r_i_glide_gscore_strain>  (1) 
0

>  <r_i_glide_hbond>  (1) 
0

>  <r_i_glide_ligand_efficiency>  (1) 
-0.74075011989706996

>  <r_i_glide_ligand_efficiency_ln>  (1) 
-1.760152406868988

>  <r_i_glide_ligand_efficiency_sa>  (1) 
-1.4170040029934912

>  <r_i_glide_lipo>  (1) 
-1.5696896585378934

>  <r_i_glide_metal>  (1) 
-0

>  <r_i_glide_rewards>  (1) 
-2.7521304635203307

>  <r_lp_Energy>  (1) 
-0.38638499999999998

>  <r_lp_tautomer_probability>  (1) 
1

>  <s_epik_cmdline>  (1) 
J2VwaWtfcHl0aG9uJywgJy1waHQnLCAnMS4wJywgJy1waCcsICc3LjQnLCAnLXRuJywgJzgnLCAnLW1hJywgJzUwMCcsICctaW1hZScsICc8aW5maWxlLm1hZT4nLCAnLW9tYWUnLCAnPG91dGZpbGUubWFlPic=

>  <s_epik_input>  (1) 
W0NIMl0xW0NIMl1bQ0gyXVtDSDJdW0NIXT1DMVtPSF0=

>  <s_glide_docking_method>  (1) 
confgen

>  <s_i_glide_gridfile>  (1) 
gpcr_5ht2c_6bqh_protein_autoprepared_prepared

>  <s_lp_Force_Field>  (1) 
S-OPLS

>  <s_lp_Variant>  (1) 
Pocket2Mol_36_num_sample_50-1

>  <s_m_source_file>  (1) 
generated__ligand_Pocket2Mol_2026-05-06_prepared.sdf

>  <GenAI_Model>  (1) 
Pocket2Mol

>  <Protein>  (1) 
GPCR_5HT2C

$$$$
Pocket2Mol_15_num_sample_50
     RDKit          3D

  0  0  0  0  0  0  0  0  0  0999 V3000
M  V30 BEGIN CTAB
M  V30 COUNTS 16 16 0 0 1
M  V30 BEGIN ATOM
M  V30 1 C 40.129655 30.680734 51.781369 0
M  V30 2 C 39.502171 30.262258 53.120161 0
M  V30 3 C 40.299648 29.385762 50.995088 0
M  V30 4 C 38.898594 28.861988 52.910548 0
M  V30 5 C 39.154294 28.484796 51.447836 0
M  V30 6 O 40.267404 29.621425 49.603453 0
M  V30 7 H 41.067398 31.220689 51.903599 0
M  V30 8 H 39.467474 31.361026 51.249275 0
M  V30 9 H 40.267385 30.223076 53.896140 0
M  V30 10 H 38.753110 30.981967 53.453532 0
M  V30 11 H 41.248336 28.925137 51.270723 0
M  V30 12 H 39.387963 28.147621 53.573204 0
M  V30 13 H 37.833109 28.840222 53.142307 0
M  V30 14 H 38.267345 28.700385 50.858669 0
M  V30 15 H 39.376945 27.424930 51.317445 0
M  V30 16 H 39.390434 29.895567 49.364772 0
M  V30 END ATOM
M  V30 BEGIN BOND
M  V30 1 1 2 1
M  V30 2 1 3 1
M  V30 3 1 4 2
M  V30 4 1 5 3
M  V30 5 1 5 4
M  V30 6 1 6 3
M  V30 7 1 7 1
M  V30 8 1 8 1
M  V30 9 1 9 2
M  V30 10 1 10 2
M  V30 11 1 11 3
M  V30 12 1 12 4
M  V30 13 1 13 4
M  V30 14 1 14 5
M  V30 15 1 15 5
M  V30 16 1 16 6
M  V30 END BOND
M  V30 END CTAB
M  END
>  <i_epik_Tot_Q>  (1) 
0

>  <i_epik_Tot_abs_Q>  (1) 
0

>  <i_i_glide_confnum>  (1) 
1

>  <i_i_glide_lignum>  (1) 
16

>  <i_i_glide_posenum>  (1) 
58

>  <i_i_glide_rotatable_bonds>  (1) 
1

>  <i_lp_mmshare_version>  (1) 
72125

>  <i_m_source_file_index>  (1) 
16

>  <i_f3d_flags>  (1) 
0

>  <num_sample>  (1) 
50

>  <b_lp_Chiralities_Consistent>  (1) 
1

>  <r_epik_Charging_Adjusted_Penalty>  (1) 
0

>  <r_epik_Ionization_Penalty>  (1) 
4.538991431931509e-07

>  <r_epik_Ionization_Penalty_Charging>  (1) 
0

>  <r_epik_Ionization_Penalty_Neutral>  (1) 
4.538991431931509e-07

>  <r_epik_State_Penalty>  (1) 
-0

>  <r_glide_ring_energy>  (1) 
0

>  <r_i_docking_score>  (1) 
-5.1759536317410939

>  <r_i_glide_ecoul>  (1) 
-2.0235813996749932

>  <r_i_glide_eff_state_penalty>  (1) 
-0

>  <r_i_glide_einternal>  (1) 
0.054226319497499814

>  <r_i_glide_emodel>  (1) 
-20.904459850150349

>  <r_i_glide_emodel_strain>  (1) 
0

>  <r_i_glide_energy>  (1) 
-15.892439320362675

>  <r_i_glide_erotb>  (1) 
0

>  <r_i_glide_esite>  (1) 
0

>  <r_i_glide_evdw>  (1) 
-13.868857920687681

>  <r_i_glide_gscore>  (1) 
-5.1759536317410939

>  <r_i_glide_gscore_strain>  (1) 
0

>  <r_i_glide_hbond>  (1) 
-0.2733851410979718

>  <r_i_glide_ligand_efficiency>  (1) 
-0.86265893862351561

>  <r_i_glide_ligand_efficiency_ln>  (1) 
-1.8540113103555762

>  <r_i_glide_ligand_efficiency_sa>  (1) 
-1.5675553219635072

>  <r_i_glide_lipo>  (1) 
-1.4987426673264468

>  <r_i_glide_metal>  (1) 
-0

>  <r_i_glide_rewards>  (1) 
-2.4068457173310422

>  <r_lp_Energy>  (1) 
8.9029089999999993

>  <r_lp_tautomer_probability>  (1) 
1

>  <s_epik_cmdline>  (1) 
J2VwaWtfcHl0aG9uJywgJy1waHQnLCAnMS4wJywgJy1waCcsICc3LjQnLCAnLXRuJywgJzgnLCAnLW1hJywgJzUwMCcsICctaW1hZScsICc8aW5maWxlLm1hZT4nLCAnLW9tYWUnLCAnPG91dGZpbGUubWFlPic=

>  <s_epik_input>  (1) 
W09IXVtDSF0xW0NIMl1bQ0gyXVtDSDJdW0NIMl0x

>  <s_glide_docking_method>  (1) 
confgen

>  <s_i_glide_gridfile>  (1) 
gpcr_5ht2c_6bqh_protein_autoprepared_prepared

>  <s_lp_Force_Field>  (1) 
S-OPLS

>  <s_lp_Variant>  (1) 
Pocket2Mol_15_num_sample_50-1

>  <s_m_source_file>  (1) 
generated__ligand_Pocket2Mol_2026-05-06_prepared.sdf

>  <GenAI_Model>  (1) 
Pocket2Mol

>  <Protein>  (1) 
GPCR_5HT2C

$$$$
Pocket2Mol_19_num_sample_50
     RDKit          3D

  0  0  0  0  0  0  0  0  0  0999 V3000
M  V30 BEGIN CTAB
M  V30 COUNTS 13 13 0 0 1
M  V30 BEGIN ATOM
M  V30 1 C 38.651869 27.928254 52.518047 0
M  V30 2 C 39.067816 27.528364 51.219564 0
M  V30 3 C 39.067279 29.215661 52.706443 0
M  V30 4 C 39.727268 28.581188 50.653914 0
M  V30 5 N 39.729973 29.621430 51.560998 0
M  V30 6 C 40.321950 30.923007 51.344376 0
M  V30 7 H 38.104039 27.337136 53.237072 0
M  V30 8 H 38.901400 26.571063 50.747552 0
M  V30 9 H 38.953635 29.884691 53.547300 0
M  V30 10 H 40.193532 28.692123 49.686619 0
M  V30 11 H 40.266780 31.520826 52.253917 0
M  V30 12 H 41.366626 30.818683 51.051118 0
M  V30 13 H 39.785348 31.440435 50.548803 0
M  V30 END ATOM
M  V30 BEGIN BOND
M  V30 1 1 2 1
M  V30 2 2 3 1
M  V30 3 2 4 2
M  V30 4 1 5 3
M  V30 5 1 5 4
M  V30 6 1 6 5
M  V30 7 1 7 1
M  V30 8 1 8 2
M  V30 9 1 9 3
M  V30 10 1 10 4
M  V30 11 1 11 6
M  V30 12 1 12 6
M  V30 13 1 13 6
M  V30 END BOND
M  V30 END CTAB
M  END
>  <i_epik_Tot_Q>  (1) 
0

>  <i_epik_Tot_abs_Q>  (1) 
0

>  <i_i_glide_confnum>  (1) 
1

>  <i_i_glide_lignum>  (1) 
20

>  <i_i_glide_posenum>  (1) 
125

>  <i_i_glide_rotatable_bonds>  (1) 
0

>  <i_lp_mmshare_version>  (1) 
72125

>  <i_m_source_file_index>  (1) 
20

>  <i_f3d_flags>  (1) 
0

>  <num_sample>  (1) 
50

>  <b_lp_Chiralities_Consistent>  (1) 
1

>  <r_epik_Charging_Adjusted_Penalty>  (1) 
0

>  <r_epik_Ionization_Penalty>  (1) 
5.9248581604286784e-11

>  <r_epik_Ionization_Penalty_Charging>  (1) 
0

>  <r_epik_Ionization_Penalty_Neutral>  (1) 
5.9248581604286784e-11

>  <r_epik_State_Penalty>  (1) 
-0

>  <r_glide_ring_energy>  (1) 
0

>  <r_i_docking_score>  (1) 
-5.152221989098603

>  <r_i_glide_ecoul>  (1) 
-0.82845276700152659

>  <r_i_glide_eff_state_penalty>  (1) 
-0

>  <r_i_glide_einternal>  (1) 
0

>  <r_i_glide_emodel>  (1) 
-21.879544270887315

>  <r_i_glide_emodel_strain>  (1) 
0.003126896113819555

>  <r_i_glide_energy>  (1) 
-16.615606679110652

>  <r_i_glide_erotb>  (1) 
0

>  <r_i_glide_esite>  (1) 
0

>  <r_i_glide_evdw>  (1) 
-15.787153912109126

>  <r_i_glide_gscore>  (1) 
-5.152221989098603

>  <r_i_glide_gscore_strain>  (1) 
0

>  <r_i_glide_hbond>  (1) 
0

>  <r_i_glide_ligand_efficiency>  (1) 
-0.85870366484976712

>  <r_i_glide_ligand_efficiency_ln>  (1) 
-1.8455107060219753

>  <r_i_glide_ligand_efficiency_sa>  (1) 
-1.5603681125389401

>  <r_i_glide_lipo>  (1) 
-1.5385963784429173

>  <r_i_glide_metal>  (1) 
-0

>  <r_i_glide_rewards>  (1) 
-2.7000000000000002

>  <r_lp_Energy>  (1) 
0.62146699999999999

>  <r_lp_tautomer_probability>  (1) 
1

>  <s_epik_cmdline>  (1) 
J2VwaWtfcHl0aG9uJywgJy1waHQnLCAnMS4wJywgJy1waCcsICc3LjQnLCAnLXRuJywgJzgnLCAnLW1hJywgJzUwMCcsICctaW1hZScsICc8aW5maWxlLm1hZT4nLCAnLW9tYWUnLCAnPG91dGZpbGUubWFlPic=

>  <s_epik_input>  (1) 
W2NIXTFbY0hdW2NIXVtjSF1uMVtDSDNd

>  <s_glide_docking_method>  (1) 
confgen

>  <s_i_glide_gridfile>  (1) 
gpcr_5ht2c_6bqh_protein_autoprepared_prepared

>  <s_lp_Force_Field>  (1) 
S-OPLS

>  <s_lp_Variant>  (1) 
Pocket2Mol_19_num_sample_50-1

>  <s_m_source_file>  (1) 
generated__ligand_Pocket2Mol_2026-05-06_prepared.sdf

>  <GenAI_Model>  (1) 
Pocket2Mol

>  <Protein>  (1) 
GPCR_5HT2C

$$$$
Pocket2Mol_36_num_sample_50
     RDKit          3D

  0  0  0  0  0  0  0  0  0  0999 V3000
M  V30 BEGIN CTAB
M  V30 COUNTS 17 17 0 0 1
M  V30 BEGIN ATOM
M  V30 1 C 38.849589 27.571437 52.747838 0
M  V30 2 C 38.468329 28.912482 53.401856 0
M  V30 3 C 39.467403 30.021427 53.056868 0
M  V30 4 O 39.888336 30.794290 53.913892 0
M  V30 5 C 39.164450 27.719437 51.251308 0
M  V30 6 C 40.267307 28.761111 51.016511 0
M  V30 7 C 39.910271 30.130020 51.595528 0
M  V30 8 H 39.711973 27.145309 53.261874 0
M  V30 9 H 38.035001 26.858053 52.879173 0
M  V30 10 H 38.404344 28.803307 54.484707 0
M  V30 11 H 39.104200 30.547324 50.996630 0
M  V30 12 H 37.482443 29.221427 53.055323 0
M  V30 13 H 38.267478 28.020590 50.712426 0
M  V30 14 H 39.467462 26.759209 50.834274 0
M  V30 15 H 40.433402 28.866745 49.944880 0
M  V30 16 H 41.205756 28.421459 51.453486 0
M  V30 17 H 40.754397 30.815067 51.513990 0
M  V30 END ATOM
M  V30 BEGIN BOND
M  V30 1 1 2 1
M  V30 2 1 3 2
M  V30 3 2 4 3
M  V30 4 1 5 1
M  V30 5 1 6 5
M  V30 6 1 7 3
M  V30 7 1 7 6
M  V30 8 1 8 1
M  V30 9 1 9 1
M  V30 10 1 10 2
M  V30 11 1 11 7
M  V30 12 1 12 2
M  V30 13 1 13 5
M  V30 14 1 14 5
M  V30 15 1 15 6
M  V30 16 1 16 6
M  V30 17 1 17 7
M  V30 END BOND
M  V30 END CTAB
M  END
>  <i_epik_Tot_Q>  (1) 
0

>  <i_epik_Tot_abs_Q>  (1) 
0

>  <i_i_glide_confnum>  (1) 
1

>  <i_i_glide_lignum>  (1) 
37

>  <i_i_glide_posenum>  (1) 
149

>  <i_i_glide_rotatable_bonds>  (1) 
0

>  <i_lp_mmshare_version>  (1) 
72125

>  <i_m_source_file_index>  (1) 
37

>  <i_f3d_flags>  (1) 
0

>  <num_sample>  (1) 
50

>  <b_lp_Chiralities_Consistent>  (1) 
1

>  <r_epik_Charging_Adjusted_Penalty>  (1) 
0

>  <r_epik_Ionization_Penalty>  (1) 
3.7730911281982554e-13

>  <r_epik_Ionization_Penalty_Charging>  (1) 
0

>  <r_epik_Ionization_Penalty_Neutral>  (1) 
3.7730911281982554e-13

>  <r_epik_State_Penalty>  (1) 
-0

>  <r_glide_ring_energy>  (1) 
0

>  <r_i_docking_score>  (1) 
-5.152091838814477

>  <r_i_glide_ecoul>  (1) 
0.55166272009320561

>  <r_i_glide_eff_state_penalty>  (1) 
-0

>  <r_i_glide_einternal>  (1) 
0

>  <r_i_glide_emodel>  (1) 
-20.892153374921303

>  <r_i_glide_emodel_strain>  (1) 
0

>  <r_i_glide_energy>  (1) 
-15.426021434812535

>  <r_i_glide_erotb>  (1) 
0

>  <r_i_glide_esite>  (1) 
0

>  <r_i_glide_evdw>  (1) 
-15.97768415490574

>  <r_i_glide_gscore>  (1) 
-5.152091838814477

>  <r_i_glide_gscore_strain>  (1) 
0

>  <r_i_glide_hbond>  (1) 
0

>  <r_i_glide_ligand_efficiency>  (1) 
-0.73601311983063955

>  <r_i_glide_ligand_efficiency_ln>  (1) 
-1.7488964625980314

>  <r_i_glide_ligand_efficiency_sa>  (1) 
-1.4079424478536215

>  <r_i_glide_lipo>  (1) 
-1.629245026395896

>  <r_i_glide_metal>  (1) 
-0

>  <r_i_glide_rewards>  (1) 
-2.8067120126872753

>  <r_lp_Energy>  (1) 
-0.38638499999999998

>  <r_lp_tautomer_probability>  (1) 
1

>  <s_epik_cmdline>  (1) 
J2VwaWtfcHl0aG9uJywgJy1waHQnLCAnMS4wJywgJy1waCcsICc3LjQnLCAnLXRuJywgJzgnLCAnLW1hJywgJzUwMCcsICctaW1hZScsICc8aW5maWxlLm1hZT4nLCAnLW9tYWUnLCAnPG91dGZpbGUubWFlPic=

>  <s_epik_input>  (1) 
W0NIMl0xW0NIMl1bQ0gyXVtDSDJdW0NIXT1DMVtPSF0=

>  <s_glide_docking_method>  (1) 
confgen

>  <s_i_glide_gridfile>  (1) 
gpcr_5ht2c_6bqh_protein_autoprepared_prepared

>  <s_lp_Force_Field>  (1) 
S-OPLS

>  <s_lp_Variant>  (1) 
Pocket2Mol_36_num_sample_50-1

>  <s_m_source_file>  (1) 
generated__ligand_Pocket2Mol_2026-05-06_prepared.sdf

>  <GenAI_Model>  (1) 
Pocket2Mol

>  <Protein>  (1) 
GPCR_5HT2C

$$$$
Pocket2Mol_19_num_sample_50
     RDKit          3D

  0  0  0  0  0  0  0  0  0  0999 V3000
M  V30 BEGIN CTAB
M  V30 COUNTS 13 13 0 0 1
M  V30 BEGIN ATOM
M  V30 1 C 39.069526 27.698690 51.075351 0
M  V30 2 C 38.376400 27.621927 52.314202 0
M  V30 3 C 39.756551 28.879643 51.058372 0
M  V30 4 C 38.660033 28.756962 53.019239 0
M  V30 5 N 39.508914 29.534798 52.253336 0
M  V30 6 C 40.050369 30.821408 52.639811 0
M  V30 7 H 39.065806 26.966634 50.280253 0
M  V30 8 H 37.736973 26.820797 52.653324 0
M  V30 9 H 40.399760 29.318125 50.309272 0
M  V30 10 H 38.338294 29.087066 53.996460 0
M  V30 11 H 40.663997 31.228937 51.836302 0
M  V30 12 H 39.241945 31.518072 52.862774 0
M  V30 13 H 40.667350 30.707344 53.531439 0
M  V30 END ATOM
M  V30 BEGIN BOND
M  V30 1 1 2 1
M  V30 2 2 3 1
M  V30 3 2 4 2
M  V30 4 1 5 3
M  V30 5 1 5 4
M  V30 6 1 6 5
M  V30 7 1 7 1
M  V30 8 1 8 2
M  V30 9 1 9 3
M  V30 10 1 10 4
M  V30 11 1 11 6
M  V30 12 1 12 6
M  V30 13 1 13 6
M  V30 END BOND
M  V30 END CTAB
M  END
>  <i_epik_Tot_Q>  (1) 
0

>  <i_epik_Tot_abs_Q>  (1) 
0

>  <i_i_glide_confnum>  (1) 
1

>  <i_i_glide_lignum>  (1) 
20

>  <i_i_glide_posenum>  (1) 
116

>  <i_i_glide_rotatable_bonds>  (1) 
0

>  <i_lp_mmshare_version>  (1) 
72125

>  <i_m_source_file_index>  (1) 
20

>  <i_f3d_flags>  (1) 
0

>  <num_sample>  (1) 
50

>  <b_lp_Chiralities_Consistent>  (1) 
1

>  <r_epik_Charging_Adjusted_Penalty>  (1) 
0

>  <r_epik_Ionization_Penalty>  (1) 
5.9248581604286784e-11

>  <r_epik_Ionization_Penalty_Charging>  (1) 
0

>  <r_epik_Ionization_Penalty_Neutral>  (1) 
5.9248581604286784e-11

>  <r_epik_State_Penalty>  (1) 
-0

>  <r_glide_ring_energy>  (1) 
0

>  <r_i_docking_score>  (1) 
-5.1479684815959761

>  <r_i_glide_ecoul>  (1) 
-0.95019732533050771

>  <r_i_glide_eff_state_penalty>  (1) 
-0

>  <r_i_glide_einternal>  (1) 
0

>  <r_i_glide_emodel>  (1) 
-21.691105028805161

>  <r_i_glide_emodel_strain>  (1) 
0

>  <r_i_glide_energy>  (1) 
-16.42838885866253

>  <r_i_glide_erotb>  (1) 
0

>  <r_i_glide_esite>  (1) 
0

>  <r_i_glide_evdw>  (1) 
-15.478191533332021

>  <r_i_glide_gscore>  (1) 
-5.1479684815959761

>  <r_i_glide_gscore_strain>  (1) 
0

>  <r_i_glide_hbond>  (1) 
0

>  <r_i_glide_ligand_efficiency>  (1) 
-0.85799474693266264

>  <r_i_glide_ligand_efficiency_ln>  (1) 
-1.8439871121918081

>  <r_i_glide_ligand_efficiency_sa>  (1) 
-1.5590799231931418

>  <r_i_glide_lipo>  (1) 
-1.5883817676974736

>  <r_i_glide_metal>  (1) 
-0

>  <r_i_glide_rewards>  (1) 
-2.6431475384323253

>  <r_lp_Energy>  (1) 
0.62146699999999999

>  <r_lp_tautomer_probability>  (1) 
1

>  <s_epik_cmdline>  (1) 
J2VwaWtfcHl0aG9uJywgJy1waHQnLCAnMS4wJywgJy1waCcsICc3LjQnLCAnLXRuJywgJzgnLCAnLW1hJywgJzUwMCcsICctaW1hZScsICc8aW5maWxlLm1hZT4nLCAnLW9tYWUnLCAnPG91dGZpbGUubWFlPic=

>  <s_epik_input>  (1) 
W2NIXTFbY0hdW2NIXVtjSF1uMVtDSDNd

>  <s_glide_docking_method>  (1) 
confgen

>  <s_i_glide_gridfile>  (1) 
gpcr_5ht2c_6bqh_protein_autoprepared_prepared

>  <s_lp_Force_Field>  (1) 
S-OPLS

>  <s_lp_Variant>  (1) 
Pocket2Mol_19_num_sample_50-1

>  <s_m_source_file>  (1) 
generated__ligand_Pocket2Mol_2026-05-06_prepared.sdf

>  <GenAI_Model>  (1) 
Pocket2Mol

>  <Protein>  (1) 
GPCR_5HT2C

$$$$
Pocket2Mol_43_num_sample_50
     RDKit          3D

  0  0  0  0  0  0  0  0  0  0999 V3000
M  V30 BEGIN CTAB
M  V30 COUNTS 15 15 0 0 1
M  V30 BEGIN ATOM
M  V30 1 C 39.760012 30.314714 52.778742 0
M  V30 2 O 38.666490 29.685734 53.450313 0
M  V30 3 C 38.208775 28.420965 53.198860 0
M  V30 4 O 37.521184 27.764365 53.976613 0
M  V30 5 C 38.603606 27.870742 51.816082 0
M  V30 6 C 39.895327 29.936310 51.302703 0
M  V30 7 C 39.894401 28.422038 51.217951 0
M  V30 8 H 39.654455 31.395567 52.875047 0
M  V30 9 H 40.667384 30.046176 53.313949 0
M  V30 10 H 38.665976 26.786571 51.882172 0
M  V30 11 H 37.781411 28.082227 51.135174 0
M  V30 12 H 39.078744 30.341535 50.703709 0
M  V30 13 H 40.819663 30.346055 50.894590 0
M  V30 14 H 40.745360 28.021432 51.764215 0
M  V30 15 H 39.999851 28.095997 50.184136 0
M  V30 END ATOM
M  V30 BEGIN BOND
M  V30 1 1 2 1
M  V30 2 1 3 2
M  V30 3 2 4 3
M  V30 4 1 5 3
M  V30 5 1 6 1
M  V30 6 1 7 5
M  V30 7 1 7 6
M  V30 8 1 8 1
M  V30 9 1 9 1
M  V30 10 1 10 5
M  V30 11 1 11 5
M  V30 12 1 12 6
M  V30 13 1 13 6
M  V30 14 1 14 7
M  V30 15 1 15 7
M  V30 END BOND
M  V30 END CTAB
M  END
>  <i_epik_Tot_Q>  (1) 
0

>  <i_epik_Tot_abs_Q>  (1) 
0

>  <i_i_glide_confnum>  (1) 
2

>  <i_i_glide_lignum>  (1) 
44

>  <i_i_glide_posenum>  (1) 
290

>  <i_i_glide_rotatable_bonds>  (1) 
0

>  <i_lp_mmshare_version>  (1) 
72125

>  <i_m_source_file_index>  (1) 
44

>  <i_f3d_flags>  (1) 
0

>  <num_sample>  (1) 
50

>  <b_lp_Chiralities_Consistent>  (1) 
1

>  <r_epik_Charging_Adjusted_Penalty>  (1) 
0

>  <r_epik_Ionization_Penalty>  (1) 
4.2138389519661579e-10

>  <r_epik_Ionization_Penalty_Charging>  (1) 
0

>  <r_epik_Ionization_Penalty_Neutral>  (1) 
4.2138389519661579e-10

>  <r_epik_State_Penalty>  (1) 
-0

>  <r_glide_ring_energy>  (1) 
0.00094626647336522524

>  <r_i_docking_score>  (1) 
-5.1377519684133732

>  <r_i_glide_ecoul>  (1) 
-0.30033129635620409

>  <r_i_glide_eff_state_penalty>  (1) 
-0

>  <r_i_glide_einternal>  (1) 
0

>  <r_i_glide_emodel>  (1) 
-22.378379776202053

>  <r_i_glide_emodel_strain>  (1) 
0

>  <r_i_glide_energy>  (1) 
-16.612088002643102

>  <r_i_glide_erotb>  (1) 
0

>  <r_i_glide_esite>  (1) 
0

>  <r_i_glide_evdw>  (1) 
-16.311756706286896

>  <r_i_glide_gscore>  (1) 
-5.1377519684133732

>  <r_i_glide_gscore_strain>  (1) 
0

>  <r_i_glide_hbond>  (1) 
0

>  <r_i_glide_ligand_efficiency>  (1) 
-0.73396456691619616

>  <r_i_glide_ligand_efficiency_ln>  (1) 
-1.744028741019455

>  <r_i_glide_ligand_efficiency_sa>  (1) 
-1.4040237071040236

>  <r_i_glide_lipo>  (1) 
-1.3042690157543906

>  <r_i_glide_metal>  (1) 
-0

>  <r_i_glide_rewards>  (1) 
-2.9728454228912065

>  <r_lp_Energy>  (1) 
8.5246700000000004

>  <r_lp_tautomer_probability>  (1) 
1

>  <s_epik_Chemistry_Notes>  (1) 
This compound has an ester and may undergo hydrolysis at high or low pH.

>  <s_epik_cmdline>  (1) 
J2VwaWtfcHl0aG9uJywgJy1waHQnLCAnMS4wJywgJy1waCcsICc3LjQnLCAnLXRuJywgJzgnLCAnLW1hJywgJzUwMCcsICctaW1hZScsICc8aW5maWxlLm1hZT4nLCAnLW9tYWUnLCAnPG91dGZpbGUubWFlPic=

>  <s_epik_input>  (1) 
W0NIMl0xW0NIMl1bQ0gyXVtDSDJdT0MxPU8=

>  <s_glide_docking_method>  (1) 
confgen

>  <s_i_glide_gridfile>  (1) 
gpcr_5ht2c_6bqh_protein_autoprepared_prepared

>  <s_lp_Force_Field>  (1) 
S-OPLS

>  <s_lp_Variant>  (1) 
Pocket2Mol_43_num_sample_50-1

>  <s_m_source_file>  (1) 
generated__ligand_Pocket2Mol_2026-05-06_prepared.sdf

>  <GenAI_Model>  (1) 
Pocket2Mol

>  <Protein>  (1) 
GPCR_5HT2C

$$$$
Pocket2Mol_33_num_sample_50
     RDKit          3D

  0  0  0  0  0  0  0  0  0  0999 V3000
M  V30 BEGIN CTAB
M  V30 COUNTS 17 17 0 0 1
M  V30 BEGIN ATOM
M  V30 1 C 39.030638 30.593309 53.870820 0
M  V30 2 O 40.267401 30.421432 53.196380 0
M  V30 3 C 40.170734 30.421410 51.777434 0
M  V30 4 C 38.206887 29.298015 53.917712 0
M  V30 5 O 37.867408 28.821396 52.621005 0
M  V30 6 C 39.867384 29.036351 51.180673 0
M  V30 7 C 38.927722 28.123288 51.985073 0
M  V30 8 H 39.262129 30.887586 54.894665 0
M  V30 9 H 38.457921 31.421275 53.453501 0
M  V30 10 H 39.467480 31.172519 51.429022 0
M  V30 11 H 41.123720 30.760328 51.376174 0
M  V30 12 H 38.713363 28.532032 54.506814 0
M  V30 13 H 37.272321 29.505440 54.439919 0
M  V30 14 H 39.467380 29.177724 50.175958 0
M  V30 15 H 40.806562 28.499331 51.053500 0
M  V30 16 H 38.483651 27.398637 51.301501 0
M  V30 17 H 39.494561 27.530582 52.704588 0
M  V30 END ATOM
M  V30 BEGIN BOND
M  V30 1 1 2 1
M  V30 2 1 3 2
M  V30 3 1 4 1
M  V30 4 1 5 4
M  V30 5 1 6 3
M  V30 6 1 7 5
M  V30 7 1 7 6
M  V30 8 1 8 1
M  V30 9 1 9 1
M  V30 10 1 10 3
M  V30 11 1 11 3
M  V30 12 1 12 4
M  V30 13 1 13 4
M  V30 14 1 14 6
M  V30 15 1 15 6
M  V30 16 1 16 7
M  V30 17 1 17 7
M  V30 END BOND
M  V30 END CTAB
M  END
>  <i_epik_Tot_Q>  (1) 
0

>  <i_epik_Tot_abs_Q>  (1) 
0

>  <i_i_glide_confnum>  (1) 
11

>  <i_i_glide_lignum>  (1) 
34

>  <i_i_glide_posenum>  (1) 
126

>  <i_i_glide_rotatable_bonds>  (1) 
0

>  <i_lp_mmshare_version>  (1) 
72125

>  <i_m_source_file_index>  (1) 
34

>  <i_f3d_flags>  (1) 
0

>  <num_sample>  (1) 
50

>  <b_lp_Chiralities_Consistent>  (1) 
1

>  <r_epik_Charging_Adjusted_Penalty>  (1) 
0

>  <r_epik_Ionization_Penalty>  (1) 
3.933197540425548e-12

>  <r_epik_Ionization_Penalty_Charging>  (1) 
0

>  <r_epik_Ionization_Penalty_Neutral>  (1) 
3.933197540425548e-12

>  <r_epik_State_Penalty>  (1) 
-0

>  <r_glide_ring_energy>  (1) 
0.00070385905571176553

>  <r_i_docking_score>  (1) 
-5.1252218087045804

>  <r_i_glide_ecoul>  (1) 
-0.84807225434618738

>  <r_i_glide_eff_state_penalty>  (1) 
-0

>  <r_i_glide_einternal>  (1) 
0

>  <r_i_glide_emodel>  (1) 
-21.424256907663533

>  <r_i_glide_emodel_strain>  (1) 
0

>  <r_i_glide_energy>  (1) 
-16.112082605816607

>  <r_i_glide_erotb>  (1) 
0

>  <r_i_glide_esite>  (1) 
0

>  <r_i_glide_evdw>  (1) 
-15.264010351470418

>  <r_i_glide_gscore>  (1) 
-5.1252218087045804

>  <r_i_glide_gscore_strain>  (1) 
0

>  <r_i_glide_hbond>  (1) 
0

>  <r_i_glide_ligand_efficiency>  (1) 
-0.7321745441006543

>  <r_i_glide_ligand_efficiency_ln>  (1) 
-1.7397753323699037

>  <r_i_glide_ligand_efficiency_sa>  (1) 
-1.4005995166422995

>  <r_i_glide_lipo>  (1) 
-1.49153730538902

>  <r_i_glide_metal>  (1) 
-0

>  <r_i_glide_rewards>  (1) 
-2.7432731475901111

>  <r_lp_Energy>  (1) 
9.6410049999999998

>  <r_lp_tautomer_probability>  (1) 
1

>  <s_epik_cmdline>  (1) 
J2VwaWtfcHl0aG9uJywgJy1waHQnLCAnMS4wJywgJy1waCcsICc3LjQnLCAnLXRuJywgJzgnLCAnLW1hJywgJzUwMCcsICctaW1hZScsICc8aW5maWxlLm1hZT4nLCAnLW9tYWUnLCAnPG91dGZpbGUubWFlPic=

>  <s_epik_input>  (1) 
W0NIMl0xT1tDSDJdW0NIMl1bQ0gyXU9bQ0gyXTE=

>  <s_glide_docking_method>  (1) 
confgen

>  <s_i_glide_gridfile>  (1) 
gpcr_5ht2c_6bqh_protein_autoprepared_prepared

>  <s_lp_Force_Field>  (1) 
S-OPLS

>  <s_lp_Variant>  (1) 
Pocket2Mol_33_num_sample_50-1

>  <s_m_source_file>  (1) 
generated__ligand_Pocket2Mol_2026-05-06_prepared.sdf

>  <GenAI_Model>  (1) 
Pocket2Mol

>  <Protein>  (1) 
GPCR_5HT2C

$$$$
Pocket2Mol_33_num_sample_50
     RDKit          3D

  0  0  0  0  0  0  0  0  0  0999 V3000
M  V30 BEGIN CTAB
M  V30 COUNTS 17 17 0 0 1
M  V30 BEGIN ATOM
M  V30 1 C 38.649929 27.671253 52.275265 0
M  V30 2 O 38.020087 28.821429 52.824283 0
M  V30 3 C 38.875597 29.560284 53.685778 0
M  V30 4 C 39.468213 28.021423 51.032244 0
M  V30 5 O 40.576319 28.851796 51.352453 0
M  V30 6 C 39.790469 30.563764 52.959947 0
M  V30 7 C 40.221419 30.215751 51.520627 0
M  V30 8 H 39.254570 27.137580 53.010082 0
M  V30 9 H 37.867403 26.976757 51.979202 0
M  V30 10 H 38.242889 30.113357 54.380791 0
M  V30 11 H 39.467391 28.891156 54.312039 0
M  V30 12 H 39.867401 27.098086 50.612556 0
M  V30 13 H 38.841152 28.456873 50.253482 0
M  V30 14 H 39.295769 31.535058 52.931384 0
M  V30 15 H 40.667412 30.721645 53.583686 0
M  V30 16 H 39.463078 30.513461 50.797804 0
M  V30 17 H 41.090266 30.821400 51.267395 0
M  V30 END ATOM
M  V30 BEGIN BOND
M  V30 1 1 2 1
M  V30 2 1 3 2
M  V30 3 1 4 1
M  V30 4 1 5 4
M  V30 5 1 6 3
M  V30 6 1 7 5
M  V30 7 1 7 6
M  V30 8 1 8 1
M  V30 9 1 9 1
M  V30 10 1 10 3
M  V30 11 1 11 3
M  V30 12 1 12 4
M  V30 13 1 13 4
M  V30 14 1 14 6
M  V30 15 1 15 6
M  V30 16 1 16 7
M  V30 17 1 17 7
M  V30 END BOND
M  V30 END CTAB
M  END
>  <i_epik_Tot_Q>  (1) 
0

>  <i_epik_Tot_abs_Q>  (1) 
0

>  <i_i_glide_confnum>  (1) 
8

>  <i_i_glide_lignum>  (1) 
34

>  <i_i_glide_posenum>  (1) 
142

>  <i_i_glide_rotatable_bonds>  (1) 
0

>  <i_lp_mmshare_version>  (1) 
72125

>  <i_m_source_file_index>  (1) 
34

>  <i_f3d_flags>  (1) 
0

>  <num_sample>  (1) 
50

>  <b_lp_Chiralities_Consistent>  (1) 
1

>  <r_epik_Charging_Adjusted_Penalty>  (1) 
0

>  <r_epik_Ionization_Penalty>  (1) 
3.933197540425548e-12

>  <r_epik_Ionization_Penalty_Charging>  (1) 
0

>  <r_epik_Ionization_Penalty_Neutral>  (1) 
3.933197540425548e-12

>  <r_epik_State_Penalty>  (1) 
-0

>  <r_glide_ring_energy>  (1) 
0.00055159938950669681

>  <r_i_docking_score>  (1) 
-5.1251184075254548

>  <r_i_glide_ecoul>  (1) 
-1.3341875902772016

>  <r_i_glide_eff_state_penalty>  (1) 
-0

>  <r_i_glide_einternal>  (1) 
0

>  <r_i_glide_emodel>  (1) 
-23.305188362110552

>  <r_i_glide_emodel_strain>  (1) 
0

>  <r_i_glide_energy>  (1) 
-17.993121233203066

>  <r_i_glide_erotb>  (1) 
0

>  <r_i_glide_esite>  (1) 
0

>  <r_i_glide_evdw>  (1) 
-16.658933642925863

>  <r_i_glide_gscore>  (1) 
-5.1251184075254548

>  <r_i_glide_gscore_strain>  (1) 
0

>  <r_i_glide_hbond>  (1) 
0

>  <r_i_glide_ligand_efficiency>  (1) 
-0.7321597725036364

>  <r_i_glide_ligand_efficiency_ln>  (1) 
-1.7397402324605737

>  <r_i_glide_ligand_efficiency_sa>  (1) 
-1.4005712595937445

>  <r_i_glide_lipo>  (1) 
-1.542562394938541

>  <r_i_glide_metal>  (1) 
-0

>  <r_i_glide_rewards>  (1) 
-2.5494811918990399

>  <r_lp_Energy>  (1) 
9.6410049999999998

>  <r_lp_tautomer_probability>  (1) 
1

>  <s_epik_cmdline>  (1) 
J2VwaWtfcHl0aG9uJywgJy1waHQnLCAnMS4wJywgJy1waCcsICc3LjQnLCAnLXRuJywgJzgnLCAnLW1hJywgJzUwMCcsICctaW1hZScsICc8aW5maWxlLm1hZT4nLCAnLW9tYWUnLCAnPG91dGZpbGUubWFlPic=

>  <s_epik_input>  (1) 
W0NIMl0xT1tDSDJdW0NIMl1bQ0gyXU9bQ0gyXTE=

>  <s_glide_docking_method>  (1) 
confgen

>  <s_i_glide_gridfile>  (1) 
gpcr_5ht2c_6bqh_protein_autoprepared_prepared

>  <s_lp_Force_Field>  (1) 
S-OPLS

>  <s_lp_Variant>  (1) 
Pocket2Mol_33_num_sample_50-1

>  <s_m_source_file>  (1) 
generated__ligand_Pocket2Mol_2026-05-06_prepared.sdf

>  <GenAI_Model>  (1) 
Pocket2Mol

>  <Protein>  (1) 
GPCR_5HT2C

$$$$
Pocket2Mol_39_num_sample_50
     RDKit          3D

  0  0  0  0  0  0  0  0  0  0999 V3000
M  V30 BEGIN CTAB
M  V30 COUNTS 15 15 0 0 1
M  V30 BEGIN ATOM
M  V30 1 C 39.067404 30.312630 53.554378 0
M  V30 2 C 39.528182 29.602717 52.395841 0
M  V30 3 C 38.943720 28.367393 52.256352 0
M  V30 4 C 39.185246 27.353873 51.190149 0
M  V30 5 C 38.131905 29.611460 54.275092 0
M  V30 6 C 37.432047 30.033580 55.524094 0
M  V30 7 S 37.814664 28.073391 53.538309 0
M  V30 8 H 39.431705 31.297264 53.809714 0
M  V30 9 H 40.263977 30.016372 51.722011 0
M  V30 10 H 39.922582 27.703027 50.467302 0
M  V30 11 H 39.544221 26.421507 51.623999 0
M  V30 12 H 38.267401 27.125568 50.653563 0
M  V30 13 H 37.743443 31.031541 55.835534 0
M  V30 14 H 36.352074 30.058485 55.375543 0
M  V30 15 H 37.642178 29.345611 56.343191 0
M  V30 END ATOM
M  V30 BEGIN BOND
M  V30 1 1 2 1
M  V30 2 2 3 2
M  V30 3 1 4 3
M  V30 4 2 5 1
M  V30 5 1 6 5
M  V30 6 1 7 3
M  V30 7 1 7 5
M  V30 8 1 8 1
M  V30 9 1 9 2
M  V30 10 1 10 4
M  V30 11 1 11 4
M  V30 12 1 12 4
M  V30 13 1 13 6
M  V30 14 1 14 6
M  V30 15 1 15 6
M  V30 END BOND
M  V30 END CTAB
M  END
>  <i_epik_Tot_Q>  (1) 
0

>  <i_epik_Tot_abs_Q>  (1) 
0

>  <i_i_glide_confnum>  (1) 
1

>  <i_i_glide_lignum>  (1) 
40

>  <i_i_glide_posenum>  (1) 
61

>  <i_i_glide_rotatable_bonds>  (1) 
0

>  <i_lp_mmshare_version>  (1) 
72125

>  <i_m_source_file_index>  (1) 
40

>  <i_f3d_flags>  (1) 
0

>  <num_sample>  (1) 
50

>  <b_lp_Chiralities_Consistent>  (1) 
1

>  <r_epik_Charging_Adjusted_Penalty>  (1) 
0

>  <r_epik_Ionization_Penalty>  (1) 
0

>  <r_epik_Ionization_Penalty_Charging>  (1) 
0

>  <r_epik_Ionization_Penalty_Neutral>  (1) 
0

>  <r_epik_State_Penalty>  (1) 
-0

>  <r_glide_ring_energy>  (1) 
0

>  <r_i_docking_score>  (1) 
-5.1239154424197046

>  <r_i_glide_ecoul>  (1) 
-0.9704037374757859

>  <r_i_glide_eff_state_penalty>  (1) 
-0

>  <r_i_glide_einternal>  (1) 
0

>  <r_i_glide_emodel>  (1) 
-24.41678813283395

>  <r_i_glide_emodel_strain>  (1) 
0

>  <r_i_glide_energy>  (1) 
-18.440216190488922

>  <r_i_glide_erotb>  (1) 
0

>  <r_i_glide_esite>  (1) 
0

>  <r_i_glide_evdw>  (1) 
-17.469812453013137

>  <r_i_glide_gscore>  (1) 
-5.1239154424197046

>  <r_i_glide_gscore_strain>  (1) 
0

>  <r_i_glide_hbond>  (1) 
0

>  <r_i_glide_ligand_efficiency>  (1) 
-0.73198792034567206

>  <r_i_glide_ligand_efficiency_ln>  (1) 
-1.7393318815452765

>  <r_i_glide_ligand_efficiency_sa>  (1) 
-1.400242518241948

>  <r_i_glide_lipo>  (1) 
-1.6586013501662269

>  <r_i_glide_metal>  (1) 
-0

>  <r_i_glide_rewards>  (1) 
-2.4462629089814523

>  <r_lp_Energy>  (1) 
3.6641779999999997

>  <r_lp_tautomer_probability>  (1) 
1

>  <s_epik_cmdline>  (1) 
J2VwaWtfcHl0aG9uJywgJy1waHQnLCAnMS4wJywgJy1waCcsICc3LjQnLCAnLXRuJywgJzgnLCAnLW1hJywgJzUwMCcsICctaW1hZScsICc8aW5maWxlLm1hZT4nLCAnLW9tYWUnLCAnPG91dGZpbGUubWFlPic=

>  <s_epik_input>  (1) 
W0NIM11jKHMxKVtjSF1bY0hdYzFbQ0gzXQ==

>  <s_glide_docking_method>  (1) 
confgen

>  <s_i_glide_gridfile>  (1) 
gpcr_5ht2c_6bqh_protein_autoprepared_prepared

>  <s_lp_Force_Field>  (1) 
S-OPLS

>  <s_lp_Variant>  (1) 
Pocket2Mol_39_num_sample_50-1

>  <s_m_source_file>  (1) 
generated__ligand_Pocket2Mol_2026-05-06_prepared.sdf

>  <GenAI_Model>  (1) 
Pocket2Mol

>  <Protein>  (1) 
GPCR_5HT2C

$$$$
Pocket2Mol_33_num_sample_50
     RDKit          3D

  0  0  0  0  0  0  0  0  0  0999 V3000
M  V30 BEGIN CTAB
M  V30 COUNTS 17 17 0 0 1
M  V30 BEGIN ATOM
M  V30 1 C 40.031668 30.515309 51.471809 0
M  V30 2 O 39.467635 29.419609 50.764992 0
M  V30 3 C 39.625705 28.138962 51.343617 0
M  V30 4 C 39.851250 30.525016 53.007460 0
M  V30 5 O 38.599792 30.022413 53.453627 0
M  V30 6 C 38.464965 27.864435 52.305131 0
M  V30 7 C 38.568805 28.615258 53.637938 0
M  V30 8 H 41.087999 30.600878 51.222811 0
M  V30 9 H 39.566564 31.408732 51.057292 0
M  V30 10 H 39.587383 27.412293 50.533122 0
M  V30 11 H 40.599089 28.021429 51.819996 0
M  V30 12 H 40.667454 30.021401 53.516323 0
M  V30 13 H 39.905693 31.561421 53.339426 0
M  V30 14 H 37.519356 28.108279 51.820112 0
M  V30 15 H 38.426482 26.795458 52.512593 0
M  V30 16 H 37.688147 28.379660 54.237761 0
M  V30 17 H 39.427572 28.278265 54.221477 0
M  V30 END ATOM
M  V30 BEGIN BOND
M  V30 1 1 2 1
M  V30 2 1 3 2
M  V30 3 1 4 1
M  V30 4 1 5 4
M  V30 5 1 6 3
M  V30 6 1 7 5
M  V30 7 1 7 6
M  V30 8 1 8 1
M  V30 9 1 9 1
M  V30 10 1 10 3
M  V30 11 1 11 3
M  V30 12 1 12 4
M  V30 13 1 13 4
M  V30 14 1 14 6
M  V30 15 1 15 6
M  V30 16 1 16 7
M  V30 17 1 17 7
M  V30 END BOND
M  V30 END CTAB
M  END
>  <i_epik_Tot_Q>  (1) 
0

>  <i_epik_Tot_abs_Q>  (1) 
0

>  <i_i_glide_confnum>  (1) 
9

>  <i_i_glide_lignum>  (1) 
34

>  <i_i_glide_posenum>  (1) 
301

>  <i_i_glide_rotatable_bonds>  (1) 
0

>  <i_lp_mmshare_version>  (1) 
72125

>  <i_m_source_file_index>  (1) 
34

>  <i_f3d_flags>  (1) 
0

>  <num_sample>  (1) 
50

>  <b_lp_Chiralities_Consistent>  (1) 
1

>  <r_epik_Charging_Adjusted_Penalty>  (1) 
0

>  <r_epik_Ionization_Penalty>  (1) 
3.933197540425548e-12

>  <r_epik_Ionization_Penalty_Charging>  (1) 
0

>  <r_epik_Ionization_Penalty_Neutral>  (1) 
3.933197540425548e-12

>  <r_epik_State_Penalty>  (1) 
-0

>  <r_glide_ring_energy>  (1) 
0.00061177386835536518

>  <r_i_docking_score>  (1) 
-5.116513921263075

>  <r_i_glide_ecoul>  (1) 
-0.29618512984473411

>  <r_i_glide_eff_state_penalty>  (1) 
-0

>  <r_i_glide_einternal>  (1) 
0

>  <r_i_glide_emodel>  (1) 
-20.576124284201953

>  <r_i_glide_emodel_strain>  (1) 
0

>  <r_i_glide_energy>  (1) 
-15.272975507028235

>  <r_i_glide_erotb>  (1) 
0

>  <r_i_glide_esite>  (1) 
0

>  <r_i_glide_evdw>  (1) 
-14.976790377183502

>  <r_i_glide_gscore>  (1) 
-5.116513921263075

>  <r_i_glide_gscore_strain>  (1) 
0

>  <r_i_glide_hbond>  (1) 
0

>  <r_i_glide_ligand_efficiency>  (1) 
-0.73093056018043934

>  <r_i_glide_ligand_efficiency_ln>  (1) 
-1.7368194080541883

>  <r_i_glide_ligand_efficiency_sa>  (1) 
-1.3982198610104528

>  <r_i_glide_lipo>  (1) 
-1.612224401717592

>  <r_i_glide_metal>  (1) 
-0

>  <r_i_glide_rewards>  (1) 
-2.711022231209598

>  <r_lp_Energy>  (1) 
9.6410049999999998

>  <r_lp_tautomer_probability>  (1) 
1

>  <s_epik_cmdline>  (1) 
J2VwaWtfcHl0aG9uJywgJy1waHQnLCAnMS4wJywgJy1waCcsICc3LjQnLCAnLXRuJywgJzgnLCAnLW1hJywgJzUwMCcsICctaW1hZScsICc8aW5maWxlLm1hZT4nLCAnLW9tYWUnLCAnPG91dGZpbGUubWFlPic=

>  <s_epik_input>  (1) 
W0NIMl0xT1tDSDJdW0NIMl1bQ0gyXU9bQ0gyXTE=

>  <s_glide_docking_method>  (1) 
confgen

>  <s_i_glide_gridfile>  (1) 
gpcr_5ht2c_6bqh_protein_autoprepared_prepared

>  <s_lp_Force_Field>  (1) 
S-OPLS

>  <s_lp_Variant>  (1) 
Pocket2Mol_33_num_sample_50-1

>  <s_m_source_file>  (1) 
generated__ligand_Pocket2Mol_2026-05-06_prepared.sdf

>  <GenAI_Model>  (1) 
Pocket2Mol

>  <Protein>  (1) 
GPCR_5HT2C

$$$$
Pocket2Mol_35_num_sample_50
     RDKit          3D

  0  0  0  0  0  0  0  0  0  0999 V3000
M  V30 BEGIN CTAB
M  V30 COUNTS 11 11 0 0 1
M  V30 BEGIN ATOM
M  V30 1 C 40.243146 30.073085 51.279514 0
M  V30 2 O 39.867360 30.286401 52.586813 0
M  V30 3 C 39.067398 29.387840 53.319937 0
M  V30 4 O 38.731336 29.586102 54.484146 0
M  V30 5 C 38.666329 28.164065 52.538788 0
M  V30 6 C 39.867433 28.983560 50.620006 0
M  V30 7 C 39.063730 28.005694 51.264937 0
M  V30 8 H 40.852679 30.870718 50.879566 0
M  V30 9 H 38.052948 27.419829 53.024885 0
M  V30 10 H 40.172094 28.840955 49.593428 0
M  V30 11 H 38.764471 27.121143 50.721050 0
M  V30 END ATOM
M  V30 BEGIN BOND
M  V30 1 1 2 1
M  V30 2 1 3 2
M  V30 3 2 4 3
M  V30 4 1 5 3
M  V30 5 2 6 1
M  V30 6 2 7 5
M  V30 7 1 7 6
M  V30 8 1 8 1
M  V30 9 1 9 5
M  V30 10 1 10 6
M  V30 11 1 11 7
M  V30 END BOND
M  V30 END CTAB
M  END
>  <i_epik_Tot_Q>  (1) 
0

>  <i_epik_Tot_abs_Q>  (1) 
0

>  <i_i_glide_confnum>  (1) 
1

>  <i_i_glide_lignum>  (1) 
36

>  <i_i_glide_posenum>  (1) 
316

>  <i_i_glide_rotatable_bonds>  (1) 
0

>  <i_lp_mmshare_version>  (1) 
72125

>  <i_m_source_file_index>  (1) 
36

>  <i_f3d_flags>  (1) 
0

>  <num_sample>  (1) 
50

>  <b_lp_Chiralities_Consistent>  (1) 
1

>  <r_epik_Charging_Adjusted_Penalty>  (1) 
0

>  <r_epik_Ionization_Penalty>  (1) 
2.4984917370333966e-09

>  <r_epik_Ionization_Penalty_Charging>  (1) 
0

>  <r_epik_Ionization_Penalty_Neutral>  (1) 
2.4984917370333966e-09

>  <r_epik_State_Penalty>  (1) 
-0

>  <r_glide_ring_energy>  (1) 
0

>  <r_i_docking_score>  (1) 
-5.1139881531780569

>  <r_i_glide_ecoul>  (1) 
-0.23928719891265793

>  <r_i_glide_eff_state_penalty>  (1) 
-0

>  <r_i_glide_einternal>  (1) 
0

>  <r_i_glide_emodel>  (1) 
-23.071145581867327

>  <r_i_glide_emodel_strain>  (1) 
0

>  <r_i_glide_energy>  (1) 
-17.55399873776242

>  <r_i_glide_erotb>  (1) 
0

>  <r_i_glide_esite>  (1) 
0

>  <r_i_glide_evdw>  (1) 
-17.31471153884976

>  <r_i_glide_gscore>  (1) 
-5.1139881531780569

>  <r_i_glide_gscore_strain>  (1) 
0

>  <r_i_glide_hbond>  (1) 
0

>  <r_i_glide_ligand_efficiency>  (1) 
-0.73056973616829379

>  <r_i_glide_ligand_efficiency_ln>  (1) 
-1.7359620268180944

>  <r_i_glide_ligand_efficiency_sa>  (1) 
-1.3975296295061266

>  <r_i_glide_lipo>  (1) 
-1.5331723262377883

>  <r_i_glide_metal>  (1) 
-0

>  <r_i_glide_rewards>  (1) 
-2.679187170160882

>  <r_lp_Energy>  (1) 
11.255118999999999

>  <r_lp_tautomer_probability>  (1) 
1

>  <s_epik_cmdline>  (1) 
J2VwaWtfcHl0aG9uJywgJy1waHQnLCAnMS4wJywgJy1waCcsICc3LjQnLCAnLXRuJywgJzgnLCAnLW1hJywgJzUwMCcsICctaW1hZScsICc8aW5maWxlLm1hZT4nLCAnLW9tYWUnLCAnPG91dGZpbGUubWFlPic=

>  <s_epik_input>  (1) 
W2NIXTFbY0hdW2NIXVtjSF1vYzE9Tw==

>  <s_glide_docking_method>  (1) 
confgen

>  <s_i_glide_gridfile>  (1) 
gpcr_5ht2c_6bqh_protein_autoprepared_prepared

>  <s_lp_Force_Field>  (1) 
S-OPLS

>  <s_lp_Variant>  (1) 
Pocket2Mol_35_num_sample_50-1

>  <s_m_source_file>  (1) 
generated__ligand_Pocket2Mol_2026-05-06_prepared.sdf

>  <GenAI_Model>  (1) 
Pocket2Mol

>  <Protein>  (1) 
GPCR_5HT2C

$$$$
Pocket2Mol_38_num_sample_50
     RDKit          3D

  0  0  0  0  0  0  0  0  0  0999 V3000
M  V30 BEGIN CTAB
M  V30 COUNTS 12 12 0 0 1
M  V30 BEGIN ATOM
M  V30 1 C 39.467392 30.421429 53.602408 0
M  V30 2 C 39.867403 29.937908 52.347046 0
M  V30 3 C 39.189913 28.880530 52.125751 0
M  V30 4 C 39.244284 27.978802 50.911938 0
M  V30 5 N 38.550617 29.725694 54.212771 0
M  V30 6 C 38.316892 28.661864 53.252436 0
M  V30 7 O 37.516471 27.735422 53.371735 0
M  V30 8 H 39.930303 31.331551 53.992238 0
M  V30 9 H 40.616270 30.419474 51.735821 0
M  V30 10 H 38.851588 26.983876 51.126694 0
M  V30 11 H 38.667400 28.414592 50.099106 0
M  V30 12 H 40.268500 27.868732 50.562899 0
M  V30 END ATOM
M  V30 BEGIN BOND
M  V30 1 1 2 1
M  V30 2 2 3 2
M  V30 3 1 4 3
M  V30 4 2 5 1
M  V30 5 1 6 3
M  V30 6 1 6 5
M  V30 7 2 7 6
M  V30 8 1 8 1
M  V30 9 1 9 2
M  V30 10 1 10 4
M  V30 11 1 11 4
M  V30 12 1 12 4
M  V30 END BOND
M  V30 END CTAB
M  END
>  <i_epik_Tot_Q>  (1) 
0

>  <i_epik_Tot_abs_Q>  (1) 
0

>  <i_i_glide_confnum>  (1) 
1

>  <i_i_glide_lignum>  (1) 
39

>  <i_i_glide_posenum>  (1) 
378

>  <i_i_glide_rotatable_bonds>  (1) 
0

>  <i_lp_mmshare_version>  (1) 
72125

>  <i_m_source_file_index>  (1) 
39

>  <i_f3d_flags>  (1) 
0

>  <num_sample>  (1) 
50

>  <b_lp_Chiralities_Consistent>  (1) 
1

>  <r_epik_Charging_Adjusted_Penalty>  (1) 
0

>  <r_epik_Ionization_Penalty>  (1) 
0

>  <r_epik_Ionization_Penalty_Charging>  (1) 
0

>  <r_epik_Ionization_Penalty_Neutral>  (1) 
0

>  <r_epik_State_Penalty>  (1) 
-0

>  <r_glide_ring_energy>  (1) 
0

>  <r_i_docking_score>  (1) 
-5.1035610437901662

>  <r_i_glide_ecoul>  (1) 
-0.18916257087686361

>  <r_i_glide_eff_state_penalty>  (1) 
-0

>  <r_i_glide_einternal>  (1) 
0

>  <r_i_glide_emodel>  (1) 
-23.324755245466445

>  <r_i_glide_emodel_strain>  (1) 
0.3858177247776311

>  <r_i_glide_energy>  (1) 
-17.733141774938456

>  <r_i_glide_erotb>  (1) 
0

>  <r_i_glide_esite>  (1) 
0

>  <r_i_glide_evdw>  (1) 
-17.543979204061593

>  <r_i_glide_gscore>  (1) 
-5.1035610437901662

>  <r_i_glide_gscore_strain>  (1) 
0

>  <r_i_glide_hbond>  (1) 
0

>  <r_i_glide_ligand_efficiency>  (1) 
-0.72908014911288088

>  <r_i_glide_ligand_efficiency_ln>  (1) 
-1.7324225063098964

>  <r_i_glide_ligand_efficiency_sa>  (1) 
-1.3946801519783731

>  <r_i_glide_lipo>  (1) 
-0.98999999999999999

>  <r_i_glide_metal>  (1) 
-0

>  <r_i_glide_rewards>  (1) 
-3.2079876979555566

>  <r_lp_Energy>  (1) 
0.58044799999999996

>  <r_lp_tautomer_probability>  (1) 
1

>  <s_epik_Chemistry_Notes>  (1) 
This compound has an imine and may undergo hydrolysis.

>  <s_epik_cmdline>  (1) 
J2VwaWtfcHl0aG9uJywgJy1waHQnLCAnMS4wJywgJy1waCcsICc3LjQnLCAnLXRuJywgJzgnLCAnLW1hJywgJzUwMCcsICctaW1hZScsICc8aW5maWxlLm1hZT4nLCAnLW9tYWUnLCAnPG91dGZpbGUubWFlPic=

>  <s_epik_input>  (1) 
Tz1DMU49W0NIXVtDSF09QzFbQ0gzXQ==

>  <s_glide_docking_method>  (1) 
confgen

>  <s_i_glide_gridfile>  (1) 
gpcr_5ht2c_6bqh_protein_autoprepared_prepared

>  <s_lp_Force_Field>  (1) 
S-OPLS

>  <s_lp_Variant>  (1) 
Pocket2Mol_38_num_sample_50-1

>  <s_m_source_file>  (1) 
generated__ligand_Pocket2Mol_2026-05-06_prepared.sdf

>  <GenAI_Model>  (1) 
Pocket2Mol

>  <Protein>  (1) 
GPCR_5HT2C

$$$$
Pocket2Mol_41_num_sample_50
     RDKit          3D

  0  0  0  0  0  0  0  0  0  0999 V3000
M  V30 BEGIN CTAB
M  V30 COUNTS 15 15 0 0 1
M  V30 BEGIN ATOM
M  V30 1 C 38.663140 27.541175 53.563348 0
M  V30 2 O 39.467400 27.095617 52.482719 0
M  V30 3 C 39.109665 27.619539 51.215010 0
M  V30 4 C 38.307285 29.029968 53.466650 0
M  V30 5 O 39.467437 29.811605 53.219256 0
M  V30 6 C 39.712341 28.994641 50.968025 0
M  V30 7 C 39.867419 29.954872 51.908400 0
M  V30 8 H 37.748467 26.947953 53.596962 0
M  V30 9 H 39.204599 27.340624 54.488075 0
M  V30 10 H 38.030837 27.619231 51.053523 0
M  V30 11 H 39.530343 26.946351 50.468406 0
M  V30 12 H 37.540271 29.217168 52.713939 0
M  V30 13 H 37.872503 29.355650 54.411980 0
M  V30 14 H 40.038487 29.193889 49.957700 0
M  V30 15 H 40.302219 30.926179 51.718680 0
M  V30 END ATOM
M  V30 BEGIN BOND
M  V30 1 1 2 1
M  V30 2 1 3 2
M  V30 3 1 4 1
M  V30 4 1 5 4
M  V30 5 1 6 3
M  V30 6 1 7 5
M  V30 7 2 7 6
M  V30 8 1 8 1
M  V30 9 1 9 1
M  V30 10 1 10 3
M  V30 11 1 11 3
M  V30 12 1 12 4
M  V30 13 1 13 4
M  V30 14 1 14 6
M  V30 15 1 15 7
M  V30 END BOND
M  V30 END CTAB
M  END
>  <i_epik_Tot_Q>  (1) 
0

>  <i_epik_Tot_abs_Q>  (1) 
0

>  <i_i_glide_confnum>  (1) 
4

>  <i_i_glide_lignum>  (1) 
42

>  <i_i_glide_posenum>  (1) 
123

>  <i_i_glide_rotatable_bonds>  (1) 
0

>  <i_lp_mmshare_version>  (1) 
72125

>  <i_m_source_file_index>  (1) 
42

>  <i_f3d_flags>  (1) 
0

>  <num_sample>  (1) 
50

>  <b_lp_Chiralities_Consistent>  (1) 
1

>  <r_epik_Charging_Adjusted_Penalty>  (1) 
0

>  <r_epik_Ionization_Penalty>  (1) 
5.6701613537443791e-14

>  <r_epik_Ionization_Penalty_Charging>  (1) 
0

>  <r_epik_Ionization_Penalty_Neutral>  (1) 
5.6701613537443791e-14

>  <r_epik_State_Penalty>  (1) 
-0

>  <r_glide_ring_energy>  (1) 
0.98544188256928789

>  <r_i_docking_score>  (1) 
-5.097361769824678

>  <r_i_glide_ecoul>  (1) 
-0.85835473493799608

>  <r_i_glide_eff_state_penalty>  (1) 
-0

>  <r_i_glide_einternal>  (1) 
0

>  <r_i_glide_emodel>  (1) 
-23.218288152685236

>  <r_i_glide_emodel_strain>  (1) 
0

>  <r_i_glide_energy>  (1) 
-17.773185663191782

>  <r_i_glide_erotb>  (1) 
0

>  <r_i_glide_esite>  (1) 
0

>  <r_i_glide_evdw>  (1) 
-16.914830928253785

>  <r_i_glide_gscore>  (1) 
-5.097361769824678

>  <r_i_glide_gscore_strain>  (1) 
0

>  <r_i_glide_hbond>  (1) 
0

>  <r_i_glide_ligand_efficiency>  (1) 
-0.72819453854638261

>  <r_i_glide_ligand_efficiency_ln>  (1) 
-1.7303181400353593

>  <r_i_glide_ligand_efficiency_sa>  (1) 
-1.3929860399099259

>  <r_i_glide_lipo>  (1) 
-1.6077984362671052

>  <r_i_glide_metal>  (1) 
-0

>  <r_i_glide_rewards>  (1) 
-2.5150685769041843

>  <r_lp_Energy>  (1) 
7.3473649999999999

>  <r_lp_tautomer_probability>  (1) 
1

>  <s_epik_cmdline>  (1) 
J2VwaWtfcHl0aG9uJywgJy1waHQnLCAnMS4wJywgJy1waCcsICc3LjQnLCAnLXRuJywgJzgnLCAnLW1hJywgJzUwMCcsICctaW1hZScsICc8aW5maWxlLm1hZT4nLCAnLW9tYWUnLCAnPG91dGZpbGUubWFlPic=

>  <s_epik_input>  (1) 
W0NIMl0xT1tDSDJdW0NIXT1bQ0hdT1tDSDJdMQ==

>  <s_glide_docking_method>  (1) 
confgen

>  <s_i_glide_gridfile>  (1) 
gpcr_5ht2c_6bqh_protein_autoprepared_prepared

>  <s_lp_Force_Field>  (1) 
S-OPLS

>  <s_lp_Variant>  (1) 
Pocket2Mol_41_num_sample_50-1

>  <s_m_source_file>  (1) 
generated__ligand_Pocket2Mol_2026-05-06_prepared.sdf

>  <GenAI_Model>  (1) 
Pocket2Mol

>  <Protein>  (1) 
GPCR_5HT2C

$$$$
Pocket2Mol_15_num_sample_50
     RDKit          3D

  0  0  0  0  0  0  0  0  0  0999 V3000
M  V30 BEGIN CTAB
M  V30 COUNTS 16 16 0 0 1
M  V30 BEGIN ATOM
M  V30 1 C 39.815275 29.996089 52.460564 0
M  V30 2 C 38.757985 29.187605 53.235237 0
M  V30 3 C 40.205087 29.132655 51.249310 0
M  V30 4 C 38.775024 27.781172 52.631476 0
M  V30 5 C 39.154562 28.021429 51.175317 0
M  V30 6 O 40.267403 29.865668 50.043389 0
M  V30 7 H 40.667402 30.176291 53.106831 0
M  V30 8 H 39.467404 30.985490 52.169739 0
M  V30 9 H 38.946541 29.177154 54.309364 0
M  V30 10 H 37.772230 29.621433 53.084713 0
M  V30 11 H 41.182001 28.689821 51.445806 0
M  V30 12 H 39.537575 27.171978 53.118384 0
M  V30 13 H 37.819034 27.266223 52.735072 0
M  V30 14 H 38.267656 28.368844 50.645592 0
M  V30 15 H 39.516279 27.123356 50.672703 0
M  V30 16 H 39.388569 30.117933 49.794942 0
M  V30 END ATOM
M  V30 BEGIN BOND
M  V30 1 1 2 1
M  V30 2 1 3 1
M  V30 3 1 4 2
M  V30 4 1 5 3
M  V30 5 1 5 4
M  V30 6 1 6 3
M  V30 7 1 7 1
M  V30 8 1 8 1
M  V30 9 1 9 2
M  V30 10 1 10 2
M  V30 11 1 11 3
M  V30 12 1 12 4
M  V30 13 1 13 4
M  V30 14 1 14 5
M  V30 15 1 15 5
M  V30 16 1 16 6
M  V30 END BOND
M  V30 END CTAB
M  END
>  <i_epik_Tot_Q>  (1) 
0

>  <i_epik_Tot_abs_Q>  (1) 
0

>  <i_i_glide_confnum>  (1) 
2

>  <i_i_glide_lignum>  (1) 
16

>  <i_i_glide_posenum>  (1) 
48

>  <i_i_glide_rotatable_bonds>  (1) 
1

>  <i_lp_mmshare_version>  (1) 
72125

>  <i_m_source_file_index>  (1) 
16

>  <i_f3d_flags>  (1) 
0

>  <num_sample>  (1) 
50

>  <b_lp_Chiralities_Consistent>  (1) 
1

>  <r_epik_Charging_Adjusted_Penalty>  (1) 
0

>  <r_epik_Ionization_Penalty>  (1) 
4.538991431931509e-07

>  <r_epik_Ionization_Penalty_Charging>  (1) 
0

>  <r_epik_Ionization_Penalty_Neutral>  (1) 
4.538991431931509e-07

>  <r_epik_State_Penalty>  (1) 
-0

>  <r_glide_ring_energy>  (1) 
0.076601694165865028

>  <r_i_docking_score>  (1) 
-5.0932631714305954

>  <r_i_glide_ecoul>  (1) 
-1.016036052291613

>  <r_i_glide_eff_state_penalty>  (1) 
-0

>  <r_i_glide_einternal>  (1) 
0.23485302979372444

>  <r_i_glide_emodel>  (1) 
-21.169212480608465

>  <r_i_glide_emodel_strain>  (1) 
0.2468929182266244

>  <r_i_glide_energy>  (1) 
-16.574902864306406

>  <r_i_glide_erotb>  (1) 
0

>  <r_i_glide_esite>  (1) 
0

>  <r_i_glide_evdw>  (1) 
-15.558866812014791

>  <r_i_glide_gscore>  (1) 
-5.0932631714305954

>  <r_i_glide_gscore_strain>  (1) 
0

>  <r_i_glide_hbond>  (1) 
-0.13351755040993299

>  <r_i_glide_ligand_efficiency>  (1) 
-0.84887719523843252

>  <r_i_glide_ligand_efficiency_ln>  (1) 
-1.8243918315924708

>  <r_i_glide_ligand_efficiency_sa>  (1) 
-1.5425122322533447

>  <r_i_glide_lipo>  (1) 
-1.6016473831643034

>  <r_i_glide_metal>  (1) 
-0

>  <r_i_glide_rewards>  (1) 
-2.4277494894118776

>  <r_lp_Energy>  (1) 
8.9029089999999993

>  <r_lp_tautomer_probability>  (1) 
1

>  <s_epik_cmdline>  (1) 
J2VwaWtfcHl0aG9uJywgJy1waHQnLCAnMS4wJywgJy1waCcsICc3LjQnLCAnLXRuJywgJzgnLCAnLW1hJywgJzUwMCcsICctaW1hZScsICc8aW5maWxlLm1hZT4nLCAnLW9tYWUnLCAnPG91dGZpbGUubWFlPic=

>  <s_epik_input>  (1) 
W09IXVtDSF0xW0NIMl1bQ0gyXVtDSDJdW0NIMl0x

>  <s_glide_docking_method>  (1) 
confgen

>  <s_i_glide_gridfile>  (1) 
gpcr_5ht2c_6bqh_protein_autoprepared_prepared

>  <s_lp_Force_Field>  (1) 
S-OPLS

>  <s_lp_Variant>  (1) 
Pocket2Mol_15_num_sample_50-1

>  <s_m_source_file>  (1) 
generated__ligand_Pocket2Mol_2026-05-06_prepared.sdf

>  <GenAI_Model>  (1) 
Pocket2Mol

>  <Protein>  (1) 
GPCR_5HT2C

$$$$
Pocket2Mol_41_num_sample_50
     RDKit          3D

  0  0  0  0  0  0  0  0  0  0999 V3000
M  V30 BEGIN CTAB
M  V30 COUNTS 15 15 0 0 1
M  V30 BEGIN ATOM
M  V30 1 C 38.637490 27.811951 52.944241 0
M  V30 2 O 38.227331 29.095779 53.378593 0
M  V30 3 C 39.292589 30.018987 53.542319 0
M  V30 4 C 38.988511 27.851406 51.458982 0
M  V30 5 O 40.267391 28.419333 51.236517 0
M  V30 6 C 39.867407 30.549342 52.237813 0
M  V30 7 C 40.304840 29.785549 51.217902 0
M  V30 8 H 39.457618 27.417344 53.545825 0
M  V30 9 H 37.790362 27.140469 53.084457 0
M  V30 10 H 40.080696 29.621531 54.180530 0
M  V30 11 H 38.884579 30.876989 54.076397 0
M  V30 12 H 39.019769 26.831230 51.074434 0
M  V30 13 H 38.223625 28.375456 50.886485 0
M  V30 14 H 39.931735 31.621443 52.151705 0
M  V30 15 H 40.720275 30.173224 50.298755 0
M  V30 END ATOM
M  V30 BEGIN BOND
M  V30 1 1 2 1
M  V30 2 1 3 2
M  V30 3 1 4 1
M  V30 4 1 5 4
M  V30 5 1 6 3
M  V30 6 1 7 5
M  V30 7 2 7 6
M  V30 8 1 8 1
M  V30 9 1 9 1
M  V30 10 1 10 3
M  V30 11 1 11 3
M  V30 12 1 12 4
M  V30 13 1 13 4
M  V30 14 1 14 6
M  V30 15 1 15 7
M  V30 END BOND
M  V30 END CTAB
M  END
>  <i_epik_Tot_Q>  (1) 
0

>  <i_epik_Tot_abs_Q>  (1) 
0

>  <i_i_glide_confnum>  (1) 
1

>  <i_i_glide_lignum>  (1) 
42

>  <i_i_glide_posenum>  (1) 
49

>  <i_i_glide_rotatable_bonds>  (1) 
0

>  <i_lp_mmshare_version>  (1) 
72125

>  <i_m_source_file_index>  (1) 
42

>  <i_f3d_flags>  (1) 
0

>  <num_sample>  (1) 
50

>  <b_lp_Chiralities_Consistent>  (1) 
1

>  <r_epik_Charging_Adjusted_Penalty>  (1) 
0

>  <r_epik_Ionization_Penalty>  (1) 
5.6701613537443791e-14

>  <r_epik_Ionization_Penalty_Charging>  (1) 
0

>  <r_epik_Ionization_Penalty_Neutral>  (1) 
5.6701613537443791e-14

>  <r_epik_State_Penalty>  (1) 
-0

>  <r_glide_ring_energy>  (1) 
0

>  <r_i_docking_score>  (1) 
-5.0876151382449617

>  <r_i_glide_ecoul>  (1) 
-1.2879612975896664

>  <r_i_glide_eff_state_penalty>  (1) 
-0

>  <r_i_glide_einternal>  (1) 
0

>  <r_i_glide_emodel>  (1) 
-22.538991538494958

>  <r_i_glide_emodel_strain>  (1) 
0

>  <r_i_glide_energy>  (1) 
-17.104300593301353

>  <r_i_glide_erotb>  (1) 
0

>  <r_i_glide_esite>  (1) 
0

>  <r_i_glide_evdw>  (1) 
-15.816339295711686

>  <r_i_glide_gscore>  (1) 
-5.0876151382449617

>  <r_i_glide_gscore_strain>  (1) 
0

>  <r_i_glide_hbond>  (1) 
0

>  <r_i_glide_ligand_efficiency>  (1) 
-0.72680216260642305

>  <r_i_glide_ligand_efficiency_ln>  (1) 
-1.7270096102138228

>  <r_i_glide_ligand_efficiency_sa>  (1) 
-1.3903225205562353

>  <r_i_glide_lipo>  (1) 
-1.536270753552508

>  <r_i_glide_metal>  (1) 
-0

>  <r_i_glide_rewards>  (1) 
-2.5673332252684196

>  <r_lp_Energy>  (1) 
7.3473649999999999

>  <r_lp_tautomer_probability>  (1) 
1

>  <s_epik_cmdline>  (1) 
J2VwaWtfcHl0aG9uJywgJy1waHQnLCAnMS4wJywgJy1waCcsICc3LjQnLCAnLXRuJywgJzgnLCAnLW1hJywgJzUwMCcsICctaW1hZScsICc8aW5maWxlLm1hZT4nLCAnLW9tYWUnLCAnPG91dGZpbGUubWFlPic=

>  <s_epik_input>  (1) 
W0NIMl0xT1tDSDJdW0NIXT1bQ0hdT1tDSDJdMQ==

>  <s_glide_docking_method>  (1) 
confgen

>  <s_i_glide_gridfile>  (1) 
gpcr_5ht2c_6bqh_protein_autoprepared_prepared

>  <s_lp_Force_Field>  (1) 
S-OPLS

>  <s_lp_Variant>  (1) 
Pocket2Mol_41_num_sample_50-1

>  <s_m_source_file>  (1) 
generated__ligand_Pocket2Mol_2026-05-06_prepared.sdf

>  <GenAI_Model>  (1) 
Pocket2Mol

>  <Protein>  (1) 
GPCR_5HT2C

$$$$
Pocket2Mol_14_num_sample_50
     RDKit          3D

  0  0  0  0  0  0  0  0  0  0999 V3000
M  V30 BEGIN CTAB
M  V30 COUNTS 18 18 0 0 1
M  V30 BEGIN ATOM
M  V30 1 C 39.047537 29.517755 53.274075 0
M  V30 2 C 39.860279 30.794894 53.016883 0
M  V30 3 C 39.034960 28.742371 51.949558 0
M  V30 4 C 40.267403 30.761274 51.536029 0
M  V30 5 C 40.216121 29.288960 51.148524 0
M  V30 6 C 39.058829 27.222473 52.110231 0
M  V30 7 H 38.031995 29.752030 53.595017 0
M  V30 8 H 39.497934 28.933329 54.075823 0
M  V30 9 H 39.270575 31.682050 53.245367 0
M  V30 10 H 40.734380 30.817693 53.665860 0
M  V30 11 H 38.120713 29.014215 51.425081 0
M  V30 12 H 39.529065 31.310283 50.947526 0
M  V30 13 H 41.237914 31.217473 51.346854 0
M  V30 14 H 41.140900 28.797273 51.453240 0
M  V30 15 H 40.091481 29.145869 50.074923 0
M  V30 16 H 39.944052 26.887613 52.650298 0
M  V30 17 H 39.051631 26.734333 51.134824 0
M  V30 18 H 38.183330 26.874914 52.659595 0
M  V30 END ATOM
M  V30 BEGIN BOND
M  V30 1 1 2 1
M  V30 2 1 3 1
M  V30 3 1 4 2
M  V30 4 1 5 3
M  V30 5 1 5 4
M  V30 6 1 6 3
M  V30 7 1 7 1
M  V30 8 1 8 1
M  V30 9 1 9 2
M  V30 10 1 10 2
M  V30 11 1 11 3
M  V30 12 1 12 4
M  V30 13 1 13 4
M  V30 14 1 14 5
M  V30 15 1 15 5
M  V30 16 1 16 6
M  V30 17 1 17 6
M  V30 18 1 18 6
M  V30 END BOND
M  V30 END CTAB
M  END
>  <i_epik_Tot_Q>  (1) 
0

>  <i_epik_Tot_abs_Q>  (1) 
0

>  <i_i_glide_confnum>  (1) 
2

>  <i_i_glide_lignum>  (1) 
15

>  <i_i_glide_posenum>  (1) 
89

>  <i_i_glide_rotatable_bonds>  (1) 
0

>  <i_lp_mmshare_version>  (1) 
72125

>  <i_m_source_file_index>  (1) 
15

>  <i_f3d_flags>  (1) 
0

>  <num_sample>  (1) 
50

>  <b_lp_Chiralities_Consistent>  (1) 
1

>  <r_epik_Charging_Adjusted_Penalty>  (1) 
0

>  <r_epik_Ionization_Penalty>  (1) 
0

>  <r_epik_Ionization_Penalty_Charging>  (1) 
0

>  <r_epik_Ionization_Penalty_Neutral>  (1) 
0

>  <r_epik_State_Penalty>  (1) 
-0

>  <r_glide_ring_energy>  (1) 
0.2204327727677606

>  <r_i_docking_score>  (1) 
-5.0845819712667142

>  <r_i_glide_ecoul>  (1) 
-0.10888362825656638

>  <r_i_glide_eff_state_penalty>  (1) 
-0

>  <r_i_glide_einternal>  (1) 
0

>  <r_i_glide_emodel>  (1) 
-19.66032756962047

>  <r_i_glide_emodel_strain>  (1) 
0.051469653687355787

>  <r_i_glide_energy>  (1) 
-14.755651101716479

>  <r_i_glide_erotb>  (1) 
0

>  <r_i_glide_esite>  (1) 
0

>  <r_i_glide_evdw>  (1) 
-14.646767473459914

>  <r_i_glide_gscore>  (1) 
-5.0845819712667142

>  <r_i_glide_gscore_strain>  (1) 
0

>  <r_i_glide_hbond>  (1) 
0

>  <r_i_glide_ligand_efficiency>  (1) 
-0.84743032854445233

>  <r_i_glide_ligand_efficiency_ln>  (1) 
-1.8212822513225482

>  <r_i_glide_ligand_efficiency_sa>  (1) 
-1.5398831009886302

>  <r_i_glide_lipo>  (1) 
-1.7938104377767083

>  <r_i_glide_metal>  (1) 
-0

>  <r_i_glide_rewards>  (1) 
-2.5421006155785251

>  <r_lp_Energy>  (1) 
6.4120089999999994

>  <r_lp_tautomer_probability>  (1) 
1

>  <s_epik_cmdline>  (1) 
J2VwaWtfcHl0aG9uJywgJy1waHQnLCAnMS4wJywgJy1waCcsICc3LjQnLCAnLXRuJywgJzgnLCAnLW1hJywgJzUwMCcsICctaW1hZScsICc8aW5maWxlLm1hZT4nLCAnLW9tYWUnLCAnPG91dGZpbGUubWFlPic=

>  <s_epik_input>  (1) 
W0NIM11bQ0hdMVtDSDJdW0NIMl1bQ0gyXVtDSDJdMQ==

>  <s_glide_docking_method>  (1) 
confgen

>  <s_i_glide_gridfile>  (1) 
gpcr_5ht2c_6bqh_protein_autoprepared_prepared

>  <s_lp_Force_Field>  (1) 
S-OPLS

>  <s_lp_Variant>  (1) 
Pocket2Mol_14_num_sample_50-1

>  <s_m_source_file>  (1) 
generated__ligand_Pocket2Mol_2026-05-06_prepared.sdf

>  <GenAI_Model>  (1) 
Pocket2Mol

>  <Protein>  (1) 
GPCR_5HT2C

$$$$
Pocket2Mol_30_num_sample_50
     RDKit          3D

  0  0  0  0  0  0  0  0  0  0999 V3000
M  V30 BEGIN CTAB
M  V30 COUNTS 15 15 0 0 1
M  V30 BEGIN ATOM
M  V30 1 C 40.261331 30.798064 49.965295 0
M  V30 2 C 40.107405 31.050255 51.462948 0
M  V30 3 O 39.571363 29.839167 51.929937 0
M  V30 4 O 40.234558 29.388620 49.838059 0
M  V30 5 C 40.152512 28.881072 51.123753 0
M  V30 6 C 39.251167 27.643305 51.127588 0
M  V30 7 O 39.467348 26.850234 52.275049 0
M  V30 8 H 41.185664 31.221093 49.570981 0
M  V30 9 H 39.424173 31.221942 49.412394 0
M  V30 10 H 41.067403 31.221429 51.936155 0
M  V30 11 H 39.467403 31.898806 51.692295 0
M  V30 12 H 41.168040 28.658796 51.453854 0
M  V30 13 H 39.483037 27.035567 50.253502 0
M  V30 14 H 38.207280 27.950091 51.053499 0
M  V30 15 H 38.764847 26.220063 52.332685 0
M  V30 END ATOM
M  V30 BEGIN BOND
M  V30 1 1 2 1
M  V30 2 1 3 2
M  V30 3 1 4 1
M  V30 4 1 5 3
M  V30 5 1 5 4
M  V30 6 1 6 5
M  V30 7 1 7 6
M  V30 8 1 8 1
M  V30 9 1 9 1
M  V30 10 1 10 2
M  V30 11 1 11 2
M  V30 12 1 12 5
M  V30 13 1 13 6
M  V30 14 1 14 6
M  V30 15 1 15 7
M  V30 END BOND
M  V30 END CTAB
M  END
>  <i_epik_Tot_Q>  (1) 
0

>  <i_epik_Tot_abs_Q>  (1) 
0

>  <i_i_glide_confnum>  (1) 
1

>  <i_i_glide_lignum>  (1) 
31

>  <i_i_glide_posenum>  (1) 
182

>  <i_i_glide_rotatable_bonds>  (1) 
2

>  <i_lp_mmshare_version>  (1) 
72125

>  <i_m_source_file_index>  (1) 
31

>  <i_f3d_flags>  (1) 
0

>  <num_sample>  (1) 
50

>  <b_lp_Chiralities_Consistent>  (1) 
1

>  <r_epik_Charging_Adjusted_Penalty>  (1) 
0

>  <r_epik_Ionization_Penalty>  (1) 
3.4422651255072934e-07

>  <r_epik_Ionization_Penalty_Charging>  (1) 
0

>  <r_epik_Ionization_Penalty_Neutral>  (1) 
3.4422651255072934e-07

>  <r_epik_State_Penalty>  (1) 
-0

>  <r_glide_ring_energy>  (1) 
0

>  <r_i_docking_score>  (1) 
-5.081428169846645

>  <r_i_glide_ecoul>  (1) 
-1.9927890794501633

>  <r_i_glide_eff_state_penalty>  (1) 
-0

>  <r_i_glide_einternal>  (1) 
0.73451261443349392

>  <r_i_glide_emodel>  (1) 
-21.740330924976821

>  <r_i_glide_emodel_strain>  (1) 
0.067337458218133861

>  <r_i_glide_energy>  (1) 
-16.511968176057056

>  <r_i_glide_erotb>  (1) 
0

>  <r_i_glide_esite>  (1) 
0

>  <r_i_glide_evdw>  (1) 
-14.519179096606894

>  <r_i_glide_gscore>  (1) 
-5.081428169846645

>  <r_i_glide_gscore_strain>  (1) 
0

>  <r_i_glide_hbond>  (1) 
0

>  <r_i_glide_ligand_efficiency>  (1) 
-0.72591830997809215

>  <r_i_glide_ligand_efficiency_ln>  (1) 
-1.7249094211091753

>  <r_i_glide_ligand_efficiency_sa>  (1) 
-1.3886317713025256

>  <r_i_glide_lipo>  (1) 
-0.95655085309877497

>  <r_i_glide_metal>  (1) 
-0

>  <r_i_glide_rewards>  (1) 
-3.1000000000000001

>  <r_lp_Energy>  (1) 
-10.260740999999999

>  <r_lp_tautomer_probability>  (1) 
1

>  <s_epik_Chemistry_Notes>  (1) 
This compound contains an acetal/aminal-like group ( X-CH(R)-Y where X, Y are N, S, or O) that may be acid/base labile, releasing an aldehyde.

>  <s_epik_cmdline>  (1) 
J2VwaWtfcHl0aG9uJywgJy1waHQnLCAnMS4wJywgJy1waCcsICc3LjQnLCAnLXRuJywgJzgnLCAnLW1hJywgJzUwMCcsICctaW1hZScsICc8aW5maWxlLm1hZT4nLCAnLW9tYWUnLCAnPG91dGZpbGUubWFlPic=

>  <s_epik_input>  (1) 
TzFbQ0gyXVtDSDJdT1tDSF0xW0NIMl1bT0hd

>  <s_glide_docking_method>  (1) 
confgen

>  <s_i_glide_gridfile>  (1) 
gpcr_5ht2c_6bqh_protein_autoprepared_prepared

>  <s_lp_Force_Field>  (1) 
S-OPLS

>  <s_lp_Variant>  (1) 
Pocket2Mol_30_num_sample_50-1

>  <s_m_source_file>  (1) 
generated__ligand_Pocket2Mol_2026-05-06_prepared.sdf

>  <GenAI_Model>  (1) 
Pocket2Mol

>  <Protein>  (1) 
GPCR_5HT2C

$$$$
Pocket2Mol_38_num_sample_50
     RDKit          3D

  0  0  0  0  0  0  0  0  0  0999 V3000
M  V30 BEGIN CTAB
M  V30 COUNTS 12 12 0 0 1
M  V30 BEGIN ATOM
M  V30 1 C 39.067407 29.531365 53.436864 0
M  V30 2 C 39.853296 30.355576 52.613420 0
M  V30 3 C 39.942575 29.771642 51.483837 0
M  V30 4 C 40.667389 30.252695 50.243522 0
M  V30 5 N 38.643878 28.425416 52.893631 0
M  V30 6 C 39.212072 28.529722 51.560604 0
M  V30 7 O 39.096619 27.708068 50.653503 0
M  V30 8 H 38.856662 29.850778 54.460486 0
M  V30 9 H 40.263562 31.299746 52.936618 0
M  V30 10 H 40.564712 29.551035 49.415238 0
M  V30 11 H 40.255871 31.209187 49.920774 0
M  V30 12 H 41.729637 30.392902 50.447479 0
M  V30 END ATOM
M  V30 BEGIN BOND
M  V30 1 1 2 1
M  V30 2 2 3 2
M  V30 3 1 4 3
M  V30 4 2 5 1
M  V30 5 1 6 3
M  V30 6 1 6 5
M  V30 7 2 7 6
M  V30 8 1 8 1
M  V30 9 1 9 2
M  V30 10 1 10 4
M  V30 11 1 11 4
M  V30 12 1 12 4
M  V30 END BOND
M  V30 END CTAB
M  END
>  <i_epik_Tot_Q>  (1) 
0

>  <i_epik_Tot_abs_Q>  (1) 
0

>  <i_i_glide_confnum>  (1) 
1

>  <i_i_glide_lignum>  (1) 
39

>  <i_i_glide_posenum>  (1) 
377

>  <i_i_glide_rotatable_bonds>  (1) 
0

>  <i_lp_mmshare_version>  (1) 
72125

>  <i_m_source_file_index>  (1) 
39

>  <i_f3d_flags>  (1) 
0

>  <num_sample>  (1) 
50

>  <b_lp_Chiralities_Consistent>  (1) 
1

>  <r_epik_Charging_Adjusted_Penalty>  (1) 
0

>  <r_epik_Ionization_Penalty>  (1) 
0

>  <r_epik_Ionization_Penalty_Charging>  (1) 
0

>  <r_epik_Ionization_Penalty_Neutral>  (1) 
0

>  <r_epik_State_Penalty>  (1) 
-0

>  <r_glide_ring_energy>  (1) 
0

>  <r_i_docking_score>  (1) 
-5.0763239403584821

>  <r_i_glide_ecoul>  (1) 
0.14981120644776041

>  <r_i_glide_eff_state_penalty>  (1) 
-0

>  <r_i_glide_einternal>  (1) 
0

>  <r_i_glide_emodel>  (1) 
-25.104249911147672

>  <r_i_glide_emodel_strain>  (1) 
0

>  <r_i_glide_energy>  (1) 
-19.158719561217541

>  <r_i_glide_erotb>  (1) 
0

>  <r_i_glide_esite>  (1) 
0

>  <r_i_glide_evdw>  (1) 
-19.308530767665303

>  <r_i_glide_gscore>  (1) 
-5.0763239403584821

>  <r_i_glide_gscore_strain>  (1) 
0

>  <r_i_glide_hbond>  (1) 
0

>  <r_i_glide_ligand_efficiency>  (1) 
-0.725189134336926

>  <r_i_glide_ligand_efficiency_ln>  (1) 
-1.7231767716969726

>  <r_i_glide_ligand_efficiency_sa>  (1) 
-1.3872369084808209

>  <r_i_glide_lipo>  (1) 
-0.98999999999999999

>  <r_i_glide_metal>  (1) 
-0

>  <r_i_glide_rewards>  (1) 
-3.1433690829423813

>  <r_lp_Energy>  (1) 
0.58044799999999996

>  <r_lp_tautomer_probability>  (1) 
1

>  <s_epik_Chemistry_Notes>  (1) 
This compound has an imine and may undergo hydrolysis.

>  <s_epik_cmdline>  (1) 
J2VwaWtfcHl0aG9uJywgJy1waHQnLCAnMS4wJywgJy1waCcsICc3LjQnLCAnLXRuJywgJzgnLCAnLW1hJywgJzUwMCcsICctaW1hZScsICc8aW5maWxlLm1hZT4nLCAnLW9tYWUnLCAnPG91dGZpbGUubWFlPic=

>  <s_epik_input>  (1) 
Tz1DMU49W0NIXVtDSF09QzFbQ0gzXQ==

>  <s_glide_docking_method>  (1) 
confgen

>  <s_i_glide_gridfile>  (1) 
gpcr_5ht2c_6bqh_protein_autoprepared_prepared

>  <s_lp_Force_Field>  (1) 
S-OPLS

>  <s_lp_Variant>  (1) 
Pocket2Mol_38_num_sample_50-1

>  <s_m_source_file>  (1) 
generated__ligand_Pocket2Mol_2026-05-06_prepared.sdf

>  <GenAI_Model>  (1) 
Pocket2Mol

>  <Protein>  (1) 
GPCR_5HT2C

$$$$
Pocket2Mol_16_num_sample_50
     RDKit          3D

  0  0  0  0  0  0  0  0  0  0999 V3000
M  V30 BEGIN CTAB
M  V30 COUNTS 18 18 0 0 1
M  V30 BEGIN ATOM
M  V30 1 C 38.456202 28.996397 53.402841 0
M  V30 2 C 38.899098 27.611858 52.905118 0
M  V30 3 C 39.184761 27.643735 51.399096 0
M  V30 4 C 39.467403 30.105233 53.041575 0
M  V30 5 C 40.249669 28.694628 51.051317 0
M  V30 6 C 39.867994 30.086123 51.550386 0
M  V30 7 H 37.485921 29.221435 52.961264 0
M  V30 8 H 38.299947 28.974216 54.481836 0
M  V30 9 H 39.785948 27.276629 53.443386 0
M  V30 10 H 38.119458 26.878435 53.114988 0
M  V30 11 H 39.496054 26.657925 51.053680 0
M  V30 12 H 38.267358 27.876193 50.860712 0
M  V30 13 H 39.048881 31.080540 53.291561 0
M  V30 14 H 40.358646 30.021041 53.660984 0
M  V30 15 H 40.359987 28.733949 49.967865 0
M  V30 16 H 41.221824 28.421430 51.454928 0
M  V30 17 H 39.067403 30.432684 50.908220 0
M  V30 18 H 40.691793 30.781145 51.383719 0
M  V30 END ATOM
M  V30 BEGIN BOND
M  V30 1 1 2 1
M  V30 2 1 3 2
M  V30 3 1 4 1
M  V30 4 1 5 3
M  V30 5 1 6 4
M  V30 6 1 6 5
M  V30 7 1 7 1
M  V30 8 1 8 1
M  V30 9 1 9 2
M  V30 10 1 10 2
M  V30 11 1 11 3
M  V30 12 1 12 3
M  V30 13 1 13 4
M  V30 14 1 14 4
M  V30 15 1 15 5
M  V30 16 1 16 5
M  V30 17 1 17 6
M  V30 18 1 18 6
M  V30 END BOND
M  V30 END CTAB
M  END
>  <i_epik_Tot_Q>  (1) 
0

>  <i_epik_Tot_abs_Q>  (1) 
0

>  <i_i_glide_confnum>  (1) 
2

>  <i_i_glide_lignum>  (1) 
17

>  <i_i_glide_posenum>  (1) 
39

>  <i_i_glide_rotatable_bonds>  (1) 
0

>  <i_lp_mmshare_version>  (1) 
72125

>  <i_m_source_file_index>  (1) 
17

>  <i_f3d_flags>  (1) 
0

>  <num_sample>  (1) 
50

>  <b_lp_Chiralities_Consistent>  (1) 
1

>  <r_epik_Charging_Adjusted_Penalty>  (1) 
0

>  <r_epik_Ionization_Penalty>  (1) 
0

>  <r_epik_Ionization_Penalty_Charging>  (1) 
0

>  <r_epik_Ionization_Penalty_Neutral>  (1) 
0

>  <r_epik_State_Penalty>  (1) 
-0

>  <r_glide_ring_energy>  (1) 
0.00054248204421707515

>  <r_i_docking_score>  (1) 
-5.0714904279811561

>  <r_i_glide_ecoul>  (1) 
-0.05353546114752869

>  <r_i_glide_eff_state_penalty>  (1) 
-0

>  <r_i_glide_einternal>  (1) 
0

>  <r_i_glide_emodel>  (1) 
-18.248644730398507

>  <r_i_glide_emodel_strain>  (1) 
8.0334725538477869e-08

>  <r_i_glide_energy>  (1) 
-14.264509840492236

>  <r_i_glide_erotb>  (1) 
0

>  <r_i_glide_esite>  (1) 
0

>  <r_i_glide_evdw>  (1) 
-14.210974379344707

>  <r_i_glide_gscore>  (1) 
-5.0714904279811561

>  <r_i_glide_gscore_strain>  (1) 
0

>  <r_i_glide_hbond>  (1) 
0

>  <r_i_glide_ligand_efficiency>  (1) 
-0.84524840466352602

>  <r_i_glide_ligand_efficiency_ln>  (1) 
-1.8165928991667273

>  <r_i_glide_ligand_efficiency_sa>  (1) 
-1.535918282172607

>  <r_i_glide_lipo>  (1) 
-1.8440731874227054

>  <r_i_glide_metal>  (1) 
-0

>  <r_i_glide_rewards>  (1) 
-2.5088382024190858

>  <r_lp_Energy>  (1) 
5.7175969999999996

>  <r_lp_tautomer_probability>  (1) 
1

>  <s_epik_cmdline>  (1) 
J2VwaWtfcHl0aG9uJywgJy1waHQnLCAnMS4wJywgJy1waCcsICc3LjQnLCAnLXRuJywgJzgnLCAnLW1hJywgJzUwMCcsICctaW1hZScsICc8aW5maWxlLm1hZT4nLCAnLW9tYWUnLCAnPG91dGZpbGUubWFlPic=

>  <s_epik_input>  (1) 
W0NIMl0xW0NIMl1bQ0gyXVtDSDJdW0NIMl1bQ0gyXTE=

>  <s_glide_docking_method>  (1) 
confgen

>  <s_i_glide_gridfile>  (1) 
gpcr_5ht2c_6bqh_protein_autoprepared_prepared

>  <s_lp_Force_Field>  (1) 
S-OPLS

>  <s_lp_Variant>  (1) 
Pocket2Mol_16_num_sample_50-1

>  <s_m_source_file>  (1) 
generated__ligand_Pocket2Mol_2026-05-06_prepared.sdf

>  <GenAI_Model>  (1) 
Pocket2Mol

>  <Protein>  (1) 
GPCR_5HT2C

$$$$
Pocket2Mol_43_num_sample_50
     RDKit          3D

  0  0  0  0  0  0  0  0  0  0999 V3000
M  V30 BEGIN CTAB
M  V30 COUNTS 15 15 0 0 1
M  V30 BEGIN ATOM
M  V30 1 C 39.964953 28.594242 51.192670 0
M  V30 2 O 38.667024 28.157548 51.567102 0
M  V30 3 C 38.153770 28.421408 52.796939 0
M  V30 4 O 37.067457 28.020454 53.199424 0
M  V30 5 C 39.067019 29.290863 53.674777 0
M  V30 6 C 40.118382 30.095980 51.453503 0
M  V30 7 C 39.769030 30.436006 52.916299 0
M  V30 8 H 40.703512 28.029372 51.759965 0
M  V30 9 H 40.127828 28.371999 50.138215 0
M  V30 10 H 38.482785 29.701388 54.499002 0
M  V30 11 H 39.805599 28.635097 54.132476 0
M  V30 12 H 41.125380 30.428197 51.207211 0
M  V30 13 H 39.467209 30.644902 50.775390 0
M  V30 14 H 39.146062 31.330597 52.948101 0
M  V30 15 H 40.667459 30.707353 53.464770 0
M  V30 END ATOM
M  V30 BEGIN BOND
M  V30 1 1 2 1
M  V30 2 1 3 2
M  V30 3 2 4 3
M  V30 4 1 5 3
M  V30 5 1 6 1
M  V30 6 1 7 5
M  V30 7 1 7 6
M  V30 8 1 8 1
M  V30 9 1 9 1
M  V30 10 1 10 5
M  V30 11 1 11 5
M  V30 12 1 12 6
M  V30 13 1 13 6
M  V30 14 1 14 7
M  V30 15 1 15 7
M  V30 END BOND
M  V30 END CTAB
M  END
>  <i_epik_Tot_Q>  (1) 
0

>  <i_epik_Tot_abs_Q>  (1) 
0

>  <i_i_glide_confnum>  (1) 
3

>  <i_i_glide_lignum>  (1) 
44

>  <i_i_glide_posenum>  (1) 
339

>  <i_i_glide_rotatable_bonds>  (1) 
0

>  <i_lp_mmshare_version>  (1) 
72125

>  <i_m_source_file_index>  (1) 
44

>  <i_f3d_flags>  (1) 
0

>  <num_sample>  (1) 
50

>  <b_lp_Chiralities_Consistent>  (1) 
1

>  <r_epik_Charging_Adjusted_Penalty>  (1) 
0

>  <r_epik_Ionization_Penalty>  (1) 
4.2138389519661579e-10

>  <r_epik_Ionization_Penalty_Charging>  (1) 
0

>  <r_epik_Ionization_Penalty_Neutral>  (1) 
4.2138389519661579e-10

>  <r_epik_State_Penalty>  (1) 
-0

>  <r_glide_ring_energy>  (1) 
0.70452651660711352

>  <r_i_docking_score>  (1) 
-5.0624340069778677

>  <r_i_glide_ecoul>  (1) 
0.27380175631916703

>  <r_i_glide_eff_state_penalty>  (1) 
-0

>  <r_i_glide_einternal>  (1) 
0

>  <r_i_glide_emodel>  (1) 
-22.088787846929456

>  <r_i_glide_emodel_strain>  (1) 
0

>  <r_i_glide_energy>  (1) 
-16.40702824699369

>  <r_i_glide_erotb>  (1) 
0

>  <r_i_glide_esite>  (1) 
0

>  <r_i_glide_evdw>  (1) 
-16.680830003312856

>  <r_i_glide_gscore>  (1) 
-5.0624340069778677

>  <r_i_glide_gscore_strain>  (1) 
0

>  <r_i_glide_hbond>  (1) 
0

>  <r_i_glide_ligand_efficiency>  (1) 
-0.72320485813969537

>  <r_i_glide_ligand_efficiency_ln>  (1) 
-1.7184617828895004

>  <r_i_glide_ligand_efficiency_sa>  (1) 
-1.3834411246679055

>  <r_i_glide_lipo>  (1) 
-1.183762805511271

>  <r_i_glide_metal>  (1) 
-0

>  <r_i_glide_rewards>  (1) 
-3.0856999647488292

>  <r_lp_Energy>  (1) 
8.5246700000000004

>  <r_lp_tautomer_probability>  (1) 
1

>  <s_epik_Chemistry_Notes>  (1) 
This compound has an ester and may undergo hydrolysis at high or low pH.

>  <s_epik_cmdline>  (1) 
J2VwaWtfcHl0aG9uJywgJy1waHQnLCAnMS4wJywgJy1waCcsICc3LjQnLCAnLXRuJywgJzgnLCAnLW1hJywgJzUwMCcsICctaW1hZScsICc8aW5maWxlLm1hZT4nLCAnLW9tYWUnLCAnPG91dGZpbGUubWFlPic=

>  <s_epik_input>  (1) 
W0NIMl0xW0NIMl1bQ0gyXVtDSDJdT0MxPU8=

>  <s_glide_docking_method>  (1) 
confgen

>  <s_i_glide_gridfile>  (1) 
gpcr_5ht2c_6bqh_protein_autoprepared_prepared

>  <s_lp_Force_Field>  (1) 
S-OPLS

>  <s_lp_Variant>  (1) 
Pocket2Mol_43_num_sample_50-1

>  <s_m_source_file>  (1) 
generated__ligand_Pocket2Mol_2026-05-06_prepared.sdf

>  <GenAI_Model>  (1) 
Pocket2Mol

>  <Protein>  (1) 
GPCR_5HT2C

$$$$
Pocket2Mol_36_num_sample_50
     RDKit          3D

  0  0  0  0  0  0  0  0  0  0999 V3000
M  V30 BEGIN CTAB
M  V30 COUNTS 17 17 0 0 1
M  V30 BEGIN ATOM
M  V30 1 C 37.867404 27.854030 53.053081 0
M  V30 2 C 38.160381 28.746977 54.270251 0
M  V30 3 C 38.667272 30.129752 53.856603 0
M  V30 4 O 38.258247 31.150145 54.402752 0
M  V30 5 C 39.067638 27.775732 52.099800 0
M  V30 6 C 39.465784 29.176237 51.605643 0
M  V30 7 C 39.713501 30.189132 52.744102 0
M  V30 8 H 37.599751 26.851775 53.389799 0
M  V30 9 H 36.996734 28.235997 52.517877 0
M  V30 10 H 38.916467 28.281562 54.902923 0
M  V30 11 H 39.752045 31.201478 52.340244 0
M  V30 12 H 37.263163 28.862726 54.878076 0
M  V30 13 H 38.823776 27.138504 51.248153 0
M  V30 14 H 39.905885 27.301368 52.608845 0
M  V30 15 H 38.673851 29.556013 50.960236 0
M  V30 16 H 40.355394 29.105573 50.978969 0
M  V30 17 H 40.667403 30.021367 53.220518 0
M  V30 END ATOM
M  V30 BEGIN BOND
M  V30 1 1 2 1
M  V30 2 1 3 2
M  V30 3 2 4 3
M  V30 4 1 5 1
M  V30 5 1 6 5
M  V30 6 1 7 3
M  V30 7 1 7 6
M  V30 8 1 8 1
M  V30 9 1 9 1
M  V30 10 1 10 2
M  V30 11 1 11 7
M  V30 12 1 12 2
M  V30 13 1 13 5
M  V30 14 1 14 5
M  V30 15 1 15 6
M  V30 16 1 16 6
M  V30 17 1 17 7
M  V30 END BOND
M  V30 END CTAB
M  END
>  <i_epik_Tot_Q>  (1) 
0

>  <i_epik_Tot_abs_Q>  (1) 
0

>  <i_i_glide_confnum>  (1) 
2

>  <i_i_glide_lignum>  (1) 
37

>  <i_i_glide_posenum>  (1) 
374

>  <i_i_glide_rotatable_bonds>  (1) 
0

>  <i_lp_mmshare_version>  (1) 
72125

>  <i_m_source_file_index>  (1) 
37

>  <i_f3d_flags>  (1) 
0

>  <num_sample>  (1) 
50

>  <b_lp_Chiralities_Consistent>  (1) 
1

>  <r_epik_Charging_Adjusted_Penalty>  (1) 
0

>  <r_epik_Ionization_Penalty>  (1) 
3.7730911281982554e-13

>  <r_epik_Ionization_Penalty_Charging>  (1) 
0

>  <r_epik_Ionization_Penalty_Neutral>  (1) 
3.7730911281982554e-13

>  <r_epik_State_Penalty>  (1) 
-0

>  <r_glide_ring_energy>  (1) 
4.2281688740393558e-05

>  <r_i_docking_score>  (1) 
-5.0573806777055195

>  <r_i_glide_ecoul>  (1) 
0.55375432929956103

>  <r_i_glide_eff_state_penalty>  (1) 
-0

>  <r_i_glide_einternal>  (1) 
0

>  <r_i_glide_emodel>  (1) 
-20.96405816494881

>  <r_i_glide_emodel_strain>  (1) 
0

>  <r_i_glide_energy>  (1) 
-15.59841040078625

>  <r_i_glide_erotb>  (1) 
0

>  <r_i_glide_esite>  (1) 
0

>  <r_i_glide_evdw>  (1) 
-16.152164730085811

>  <r_i_glide_gscore>  (1) 
-5.0573806777055195

>  <r_i_glide_gscore_strain>  (1) 
0

>  <r_i_glide_hbond>  (1) 
0

>  <r_i_glide_ligand_efficiency>  (1) 
-0.72248295395793138

>  <r_i_glide_ligand_efficiency_ln>  (1) 
-1.7167464117421594

>  <r_i_glide_ligand_efficiency_sa>  (1) 
-1.3820601716476353

>  <r_i_glide_lipo>  (1) 
-1.5492771480513818

>  <r_i_glide_metal>  (1) 
-0

>  <r_i_glide_rewards>  (1) 
-2.7835584425447815

>  <r_lp_Energy>  (1) 
-0.38638499999999998

>  <r_lp_tautomer_probability>  (1) 
1

>  <s_epik_cmdline>  (1) 
J2VwaWtfcHl0aG9uJywgJy1waHQnLCAnMS4wJywgJy1waCcsICc3LjQnLCAnLXRuJywgJzgnLCAnLW1hJywgJzUwMCcsICctaW1hZScsICc8aW5maWxlLm1hZT4nLCAnLW9tYWUnLCAnPG91dGZpbGUubWFlPic=

>  <s_epik_input>  (1) 
W0NIMl0xW0NIMl1bQ0gyXVtDSDJdW0NIXT1DMVtPSF0=

>  <s_glide_docking_method>  (1) 
confgen

>  <s_i_glide_gridfile>  (1) 
gpcr_5ht2c_6bqh_protein_autoprepared_prepared

>  <s_lp_Force_Field>  (1) 
S-OPLS

>  <s_lp_Variant>  (1) 
Pocket2Mol_36_num_sample_50-1

>  <s_m_source_file>  (1) 
generated__ligand_Pocket2Mol_2026-05-06_prepared.sdf

>  <GenAI_Model>  (1) 
Pocket2Mol

>  <Protein>  (1) 
GPCR_5HT2C

$$$$
Pocket2Mol_18_num_sample_50
     RDKit          3D

  0  0  0  0  0  0  0  0  0  0999 V3000
M  V30 BEGIN CTAB
M  V30 COUNTS 10 10 0 0 1
M  V30 BEGIN ATOM
M  V30 1 C 40.267589 30.315086 51.079512 0
M  V30 2 C 39.867403 29.220887 50.253502 0
M  V30 3 C 39.867400 30.034370 52.357189 0
M  V30 4 C 39.234888 28.307486 51.053488 0
M  V30 5 N 39.237435 28.812149 52.329242 0
M  V30 6 O 38.693802 28.188261 53.416794 0 CHG=-1
M  V30 7 H 40.791196 31.208324 50.770920 0
M  V30 8 H 40.024267 29.117228 49.190997 0
M  V30 9 H 39.969079 30.587707 53.278861 0
M  V30 10 H 38.782388 27.351332 50.833926 0
M  V30 END ATOM
M  V30 BEGIN BOND
M  V30 1 1 2 1
M  V30 2 2 3 1
M  V30 3 2 4 2
M  V30 4 1 5 3
M  V30 5 1 5 4
M  V30 6 1 6 5
M  V30 7 1 7 1
M  V30 8 1 8 2
M  V30 9 1 9 3
M  V30 10 1 10 4
M  V30 END BOND
M  V30 END CTAB
M  END
>  <i_epik_Tot_Q>  (1) 
-1

>  <i_epik_Tot_abs_Q>  (1) 
1

>  <i_i_glide_confnum>  (1) 
1

>  <i_i_glide_lignum>  (1) 
19

>  <i_i_glide_posenum>  (1) 
243

>  <i_i_glide_rotatable_bonds>  (1) 
0

>  <i_lp_mmshare_version>  (1) 
72125

>  <i_m_source_file_index>  (1) 
19

>  <i_f3d_flags>  (1) 
0

>  <num_sample>  (1) 
50

>  <b_lp_Chiralities_Consistent>  (1) 
1

>  <r_epik_Charging_Adjusted_Penalty>  (1) 
0.038602441834166765

>  <r_epik_Ionization_Penalty>  (1) 
0.019301220976331968

>  <r_epik_Ionization_Penalty_Charging>  (1) 
0.019301220917083386

>  <r_epik_Ionization_Penalty_Neutral>  (1) 
5.9248581604286784e-11

>  <r_epik_State_Penalty>  (1) 
0.019301220917083379

>  <r_glide_ring_energy>  (1) 
0

>  <r_i_docking_score>  (1) 
-5.0459955811959958

>  <r_i_glide_ecoul>  (1) 
-0.42938608557199609

>  <r_i_glide_eff_state_penalty>  (1) 
0.019301220917083379

>  <r_i_glide_einternal>  (1) 
0

>  <r_i_glide_emodel>  (1) 
-18.603057633332234

>  <r_i_glide_emodel_strain>  (1) 
0

>  <r_i_glide_energy>  (1) 
-13.79038022821082

>  <r_i_glide_erotb>  (1) 
0

>  <r_i_glide_esite>  (1) 
0

>  <r_i_glide_evdw>  (1) 
-13.360994142638823

>  <r_i_glide_gscore>  (1) 
-5.0652968021130791

>  <r_i_glide_gscore_strain>  (1) 
0

>  <r_i_glide_hbond>  (1) 
0

>  <r_i_glide_ligand_efficiency>  (1) 
-0.84099926353266596

>  <r_i_glide_ligand_efficiency_ln>  (1) 
-1.8074607203145823

>  <r_i_glide_ligand_efficiency_sa>  (1) 
-1.528197080321871

>  <r_i_glide_lipo>  (1) 
-1.3200000000000001

>  <r_i_glide_metal>  (1) 
-0

>  <r_i_glide_rewards>  (1) 
-3.012839182145338

>  <r_lp_Energy>  (1) 
1.8910769999999999

>  <r_lp_tautomer_probability>  (1) 
1

>  <s_epik_cmdline>  (1) 
J2VwaWtfcHl0aG9uJywgJy1waHQnLCAnMS4wJywgJy1waCcsICc3LjQnLCAnLXRuJywgJzgnLCAnLW1hJywgJzUwMCcsICctaW1hZScsICc8aW5maWxlLm1hZT4nLCAnLW9tYWUnLCAnPG91dGZpbGUubWFlPic=

>  <s_epik_input>  (1) 
W2NIXTFbY0hdW2NIXVtjSF1uMVtPSF0=

>  <s_glide_docking_method>  (1) 
confgen

>  <s_i_glide_gridfile>  (1) 
gpcr_5ht2c_6bqh_protein_autoprepared_prepared

>  <s_lp_Force_Field>  (1) 
S-OPLS

>  <s_lp_Variant>  (1) 
Pocket2Mol_18_num_sample_50-1

>  <s_m_source_file>  (1) 
generated__ligand_Pocket2Mol_2026-05-06_prepared.sdf

>  <GenAI_Model>  (1) 
Pocket2Mol

>  <Protein>  (1) 
GPCR_5HT2C

$$$$
Pocket2Mol_29_num_sample_50
     RDKit          3D

  0  0  0  0  0  0  0  0  0  0999 V3000
M  V30 BEGIN CTAB
M  V30 COUNTS 17 17 0 0 1
M  V30 BEGIN ATOM
M  V30 1 C 38.218111 28.340288 52.346225 0
M  V30 2 C 39.457742 29.216217 52.137454 0
M  V30 3 C 39.634461 30.421450 53.071395 0
M  V30 4 O 40.269219 28.970830 51.249402 0
M  V30 5 C 37.884871 28.113038 53.830537 0
M  V30 6 C 39.226282 30.130769 54.527125 0
M  V30 7 C 37.867405 29.424625 54.628583 0
M  V30 8 H 37.375163 28.821450 51.853479 0
M  V30 9 H 38.363925 27.382926 51.844682 0
M  V30 10 H 40.667404 30.748591 53.042101 0
M  V30 11 H 39.067408 31.262139 52.679959 0
M  V30 12 H 36.914937 27.621255 53.911351 0
M  V30 13 H 38.611744 27.426658 54.267075 0
M  V30 14 H 39.992005 29.518456 55.005158 0
M  V30 15 H 39.194925 31.065997 55.087262 0
M  V30 16 H 37.630382 29.223406 55.674040 0
M  V30 17 H 37.078640 30.079622 54.255352 0
M  V30 END ATOM
M  V30 BEGIN BOND
M  V30 1 1 2 1
M  V30 2 1 3 2
M  V30 3 2 4 2
M  V30 4 1 5 1
M  V30 5 1 6 3
M  V30 6 1 7 5
M  V30 7 1 7 6
M  V30 8 1 8 1
M  V30 9 1 9 1
M  V30 10 1 10 3
M  V30 11 1 11 3
M  V30 12 1 12 5
M  V30 13 1 13 5
M  V30 14 1 14 6
M  V30 15 1 15 6
M  V30 16 1 16 7
M  V30 17 1 17 7
M  V30 END BOND
M  V30 END CTAB
M  END
>  <i_epik_Tot_Q>  (1) 
0

>  <i_epik_Tot_abs_Q>  (1) 
0

>  <i_i_glide_confnum>  (1) 
2

>  <i_i_glide_lignum>  (1) 
30

>  <i_i_glide_posenum>  (1) 
181

>  <i_i_glide_rotatable_bonds>  (1) 
0

>  <i_lp_mmshare_version>  (1) 
72125

>  <i_m_source_file_index>  (1) 
30

>  <i_f3d_flags>  (1) 
0

>  <num_sample>  (1) 
50

>  <b_lp_Chiralities_Consistent>  (1) 
1

>  <r_epik_Charging_Adjusted_Penalty>  (1) 
0

>  <r_epik_Ionization_Penalty>  (1) 
3.7730911281982554e-13

>  <r_epik_Ionization_Penalty_Charging>  (1) 
0

>  <r_epik_Ionization_Penalty_Neutral>  (1) 
3.7730911281982554e-13

>  <r_epik_State_Penalty>  (1) 
-0

>  <r_glide_ring_energy>  (1) 
4.2281688740393558e-05

>  <r_i_docking_score>  (1) 
-5.0405827649941974

>  <r_i_glide_ecoul>  (1) 
0.20842381167376234

>  <r_i_glide_eff_state_penalty>  (1) 
-0

>  <r_i_glide_einternal>  (1) 
0

>  <r_i_glide_emodel>  (1) 
-21.293307549165547

>  <r_i_glide_emodel_strain>  (1) 
0

>  <r_i_glide_energy>  (1) 
-15.945498716500341

>  <r_i_glide_erotb>  (1) 
0

>  <r_i_glide_esite>  (1) 
0

>  <r_i_glide_evdw>  (1) 
-16.153922528174103

>  <r_i_glide_gscore>  (1) 
-5.0405827649941974

>  <r_i_glide_gscore_strain>  (1) 
0

>  <r_i_glide_hbond>  (1) 
0

>  <r_i_glide_ligand_efficiency>  (1) 
-0.72008325214202817

>  <r_i_glide_ligand_efficiency_ln>  (1) 
-1.7110442986900323

>  <r_i_glide_ligand_efficiency_sa>  (1) 
-1.3774697072146385

>  <r_i_glide_lipo>  (1) 
-1.3239495076896506

>  <r_i_glide_metal>  (1) 
-0

>  <r_i_glide_rewards>  (1) 
-2.9402007026469055

>  <r_lp_Energy>  (1) 
-0.38655299999999998

>  <r_lp_tautomer_probability>  (1) 
1

>  <s_epik_cmdline>  (1) 
J2VwaWtfcHl0aG9uJywgJy1waHQnLCAnMS4wJywgJy1waCcsICc3LjQnLCAnLXRuJywgJzgnLCAnLW1hJywgJzUwMCcsICctaW1hZScsICc8aW5maWxlLm1hZT4nLCAnLW9tYWUnLCAnPG91dGZpbGUubWFlPic=

>  <s_epik_input>  (1) 
Tz1DMVtDSDJdW0NIMl1bQ0gyXVtDSDJdW0NIMl0x

>  <s_glide_docking_method>  (1) 
confgen

>  <s_i_glide_gridfile>  (1) 
gpcr_5ht2c_6bqh_protein_autoprepared_prepared

>  <s_lp_Force_Field>  (1) 
S-OPLS

>  <s_lp_Variant>  (1) 
Pocket2Mol_29_num_sample_50-1

>  <s_m_source_file>  (1) 
generated__ligand_Pocket2Mol_2026-05-06_prepared.sdf

>  <GenAI_Model>  (1) 
Pocket2Mol

>  <Protein>  (1) 
GPCR_5HT2C

$$$$
Pocket2Mol_29_num_sample_50
     RDKit          3D

  0  0  0  0  0  0  0  0  0  0999 V3000
M  V30 BEGIN CTAB
M  V30 COUNTS 17 17 0 0 1
M  V30 BEGIN ATOM
M  V30 1 C 38.159766 28.742054 54.256145 0
M  V30 2 C 38.667341 30.128393 53.855966 0
M  V30 3 C 39.714474 30.197601 52.744861 0
M  V30 4 O 38.257858 31.144003 54.410397 0
M  V30 5 C 37.867507 27.860921 53.030622 0
M  V30 6 C 39.463578 29.198295 51.594951 0
M  V30 7 C 39.067400 27.792624 52.075522 0
M  V30 8 H 38.914996 28.270546 54.885019 0
M  V30 9 H 37.261690 28.852449 54.864250 0
M  V30 10 H 39.758051 31.214456 52.353043 0
M  V30 11 H 40.667999 30.017876 53.220743 0
M  V30 12 H 37.599934 26.855359 53.356774 0
M  V30 13 H 36.996736 28.248211 52.499088 0
M  V30 14 H 38.668404 29.584939 50.956342 0
M  V30 15 H 40.351765 29.135598 50.965491 0
M  V30 16 H 38.824293 27.163114 51.218066 0
M  V30 17 H 39.906773 27.314534 52.579675 0
M  V30 END ATOM
M  V30 BEGIN BOND
M  V30 1 1 2 1
M  V30 2 1 3 2
M  V30 3 2 4 2
M  V30 4 1 5 1
M  V30 5 1 6 3
M  V30 6 1 7 5
M  V30 7 1 7 6
M  V30 8 1 8 1
M  V30 9 1 9 1
M  V30 10 1 10 3
M  V30 11 1 11 3
M  V30 12 1 12 5
M  V30 13 1 13 5
M  V30 14 1 14 6
M  V30 15 1 15 6
M  V30 16 1 16 7
M  V30 17 1 17 7
M  V30 END BOND
M  V30 END CTAB
M  END
>  <i_epik_Tot_Q>  (1) 
0

>  <i_epik_Tot_abs_Q>  (1) 
0

>  <i_i_glide_confnum>  (1) 
2

>  <i_i_glide_lignum>  (1) 
30

>  <i_i_glide_posenum>  (1) 
371

>  <i_i_glide_rotatable_bonds>  (1) 
0

>  <i_lp_mmshare_version>  (1) 
72125

>  <i_m_source_file_index>  (1) 
30

>  <i_f3d_flags>  (1) 
0

>  <num_sample>  (1) 
50

>  <b_lp_Chiralities_Consistent>  (1) 
1

>  <r_epik_Charging_Adjusted_Penalty>  (1) 
0

>  <r_epik_Ionization_Penalty>  (1) 
3.7730911281982554e-13

>  <r_epik_Ionization_Penalty_Charging>  (1) 
0

>  <r_epik_Ionization_Penalty_Neutral>  (1) 
3.7730911281982554e-13

>  <r_epik_State_Penalty>  (1) 
-0

>  <r_glide_ring_energy>  (1) 
4.2281688740393558e-05

>  <r_i_docking_score>  (1) 
-5.0404655817998076

>  <r_i_glide_ecoul>  (1) 
0.55781099118418287

>  <r_i_glide_eff_state_penalty>  (1) 
-0

>  <r_i_glide_einternal>  (1) 
0

>  <r_i_glide_emodel>  (1) 
-20.908383248590596

>  <r_i_glide_emodel_strain>  (1) 
0

>  <r_i_glide_energy>  (1) 
-15.560698741494718

>  <r_i_glide_erotb>  (1) 
0

>  <r_i_glide_esite>  (1) 
0

>  <r_i_glide_evdw>  (1) 
-16.118509732678902

>  <r_i_glide_gscore>  (1) 
-5.0404655817998076

>  <r_i_glide_gscore_strain>  (1) 
0

>  <r_i_glide_hbond>  (1) 
0

>  <r_i_glide_ligand_efficiency>  (1) 
-0.72006651168568681

>  <r_i_glide_ligand_efficiency_ln>  (1) 
-1.7110045204250952

>  <r_i_glide_ligand_efficiency_sa>  (1) 
-1.3774376838736893

>  <r_i_glide_lipo>  (1) 
-1.5513023738866634

>  <r_i_glide_metal>  (1) 
-0

>  <r_i_glide_rewards>  (1) 
-2.7669093699568261

>  <r_lp_Energy>  (1) 
-0.38655299999999998

>  <r_lp_tautomer_probability>  (1) 
1

>  <s_epik_cmdline>  (1) 
J2VwaWtfcHl0aG9uJywgJy1waHQnLCAnMS4wJywgJy1waCcsICc3LjQnLCAnLXRuJywgJzgnLCAnLW1hJywgJzUwMCcsICctaW1hZScsICc8aW5maWxlLm1hZT4nLCAnLW9tYWUnLCAnPG91dGZpbGUubWFlPic=

>  <s_epik_input>  (1) 
Tz1DMVtDSDJdW0NIMl1bQ0gyXVtDSDJdW0NIMl0x

>  <s_glide_docking_method>  (1) 
confgen

>  <s_i_glide_gridfile>  (1) 
gpcr_5ht2c_6bqh_protein_autoprepared_prepared

>  <s_lp_Force_Field>  (1) 
S-OPLS

>  <s_lp_Variant>  (1) 
Pocket2Mol_29_num_sample_50-1

>  <s_m_source_file>  (1) 
generated__ligand_Pocket2Mol_2026-05-06_prepared.sdf

>  <GenAI_Model>  (1) 
Pocket2Mol

>  <Protein>  (1) 
GPCR_5HT2C

$$$$
Pocket2Mol_18_num_sample_50
     RDKit          3D

  0  0  0  0  0  0  0  0  0  0999 V3000
M  V30 BEGIN CTAB
M  V30 COUNTS 10 10 0 0 1
M  V30 BEGIN ATOM
M  V30 1 C 39.067424 29.059890 53.113092 0
M  V30 2 C 38.649290 27.874517 52.431811 0
M  V30 3 C 39.730471 29.843428 52.207159 0
M  V30 4 C 39.066848 27.976508 51.132818 0
M  V30 5 N 39.717282 29.178257 51.006131 0
M  V30 6 O 40.267409 29.646019 49.851872 0 CHG=-1
M  V30 7 H 38.901647 29.309099 54.150394 0
M  V30 8 H 38.101149 27.041956 52.847240 0
M  V30 9 H 40.202164 30.810372 52.302046 0
M  V30 10 H 38.957879 27.311931 50.288632 0
M  V30 END ATOM
M  V30 BEGIN BOND
M  V30 1 1 2 1
M  V30 2 2 3 1
M  V30 3 2 4 2
M  V30 4 1 5 3
M  V30 5 1 5 4
M  V30 6 1 6 5
M  V30 7 1 7 1
M  V30 8 1 8 2
M  V30 9 1 9 3
M  V30 10 1 10 4
M  V30 END BOND
M  V30 END CTAB
M  END
>  <i_epik_Tot_Q>  (1) 
-1

>  <i_epik_Tot_abs_Q>  (1) 
1

>  <i_i_glide_confnum>  (1) 
1

>  <i_i_glide_lignum>  (1) 
19

>  <i_i_glide_posenum>  (1) 
212

>  <i_i_glide_rotatable_bonds>  (1) 
0

>  <i_lp_mmshare_version>  (1) 
72125

>  <i_m_source_file_index>  (1) 
19

>  <i_f3d_flags>  (1) 
0

>  <num_sample>  (1) 
50

>  <b_lp_Chiralities_Consistent>  (1) 
1

>  <r_epik_Charging_Adjusted_Penalty>  (1) 
0.038602441834166765

>  <r_epik_Ionization_Penalty>  (1) 
0.019301220976331968

>  <r_epik_Ionization_Penalty_Charging>  (1) 
0.019301220917083386

>  <r_epik_Ionization_Penalty_Neutral>  (1) 
5.9248581604286784e-11

>  <r_epik_State_Penalty>  (1) 
0.019301220917083379

>  <r_glide_ring_energy>  (1) 
0

>  <r_i_docking_score>  (1) 
-5.0391082309265007

>  <r_i_glide_ecoul>  (1) 
-0.095572427350327893

>  <r_i_glide_eff_state_penalty>  (1) 
0.019301220917083379

>  <r_i_glide_einternal>  (1) 
0

>  <r_i_glide_emodel>  (1) 
-18.104695949815252

>  <r_i_glide_emodel_strain>  (1) 
0

>  <r_i_glide_energy>  (1) 
-13.298562405067296

>  <r_i_glide_erotb>  (1) 
0

>  <r_i_glide_esite>  (1) 
0

>  <r_i_glide_evdw>  (1) 
-13.202989977716967

>  <r_i_glide_gscore>  (1) 
-5.058409451843584

>  <r_i_glide_gscore_strain>  (1) 
0

>  <r_i_glide_hbond>  (1) 
0

>  <r_i_glide_ligand_efficiency>  (1) 
-0.83985137182108349

>  <r_i_glide_ligand_efficiency_ln>  (1) 
-1.8049936917809959

>  <r_i_glide_ligand_efficiency_sa>  (1) 
-1.5261112226544131

>  <r_i_glide_lipo>  (1) 
-1.2516816099827035

>  <r_i_glide_metal>  (1) 
-0

>  <r_i_glide_rewards>  (1) 
-3.1322424788724823

>  <r_lp_Energy>  (1) 
1.8910769999999999

>  <r_lp_tautomer_probability>  (1) 
1

>  <s_epik_cmdline>  (1) 
J2VwaWtfcHl0aG9uJywgJy1waHQnLCAnMS4wJywgJy1waCcsICc3LjQnLCAnLXRuJywgJzgnLCAnLW1hJywgJzUwMCcsICctaW1hZScsICc8aW5maWxlLm1hZT4nLCAnLW9tYWUnLCAnPG91dGZpbGUubWFlPic=

>  <s_epik_input>  (1) 
W2NIXTFbY0hdW2NIXVtjSF1uMVtPSF0=

>  <s_glide_docking_method>  (1) 
confgen

>  <s_i_glide_gridfile>  (1) 
gpcr_5ht2c_6bqh_protein_autoprepared_prepared

>  <s_lp_Force_Field>  (1) 
S-OPLS

>  <s_lp_Variant>  (1) 
Pocket2Mol_18_num_sample_50-1

>  <s_m_source_file>  (1) 
generated__ligand_Pocket2Mol_2026-05-06_prepared.sdf

>  <GenAI_Model>  (1) 
Pocket2Mol

>  <Protein>  (1) 
GPCR_5HT2C

$$$$
Pocket2Mol_41_num_sample_50
     RDKit          3D

  0  0  0  0  0  0  0  0  0  0999 V3000
M  V30 BEGIN CTAB
M  V30 COUNTS 15 15 0 0 1
M  V30 BEGIN ATOM
M  V30 1 C 39.828592 30.384351 52.847356 0
M  V30 2 O 38.603810 30.007963 53.453502 0
M  V30 3 C 38.530597 28.640925 53.824987 0
M  V30 4 C 39.952501 29.813365 51.427132 0
M  V30 5 O 40.231197 28.421434 51.421154 0
M  V30 6 C 38.321625 27.697155 52.653509 0
M  V30 7 C 39.131480 27.621443 51.580914 0
M  V30 8 H 39.831378 31.472339 52.785686 0
M  V30 9 H 40.667403 30.110709 53.481891 0
M  V30 10 H 37.672971 28.531992 54.489319 0
M  V30 11 H 39.406371 28.337779 54.400693 0
M  V30 12 H 39.067412 30.030378 50.827405 0
M  V30 13 H 40.786050 30.304684 50.924396 0
M  V30 14 H 37.467402 27.039166 52.715800 0
M  V30 15 H 38.990278 26.942597 50.751448 0
M  V30 END ATOM
M  V30 BEGIN BOND
M  V30 1 1 2 1
M  V30 2 1 3 2
M  V30 3 1 4 1
M  V30 4 1 5 4
M  V30 5 1 6 3
M  V30 6 1 7 5
M  V30 7 2 7 6
M  V30 8 1 8 1
M  V30 9 1 9 1
M  V30 10 1 10 3
M  V30 11 1 11 3
M  V30 12 1 12 4
M  V30 13 1 13 4
M  V30 14 1 14 6
M  V30 15 1 15 7
M  V30 END BOND
M  V30 END CTAB
M  END
>  <i_epik_Tot_Q>  (1) 
0

>  <i_epik_Tot_abs_Q>  (1) 
0

>  <i_i_glide_confnum>  (1) 
2

>  <i_i_glide_lignum>  (1) 
42

>  <i_i_glide_posenum>  (1) 
98

>  <i_i_glide_rotatable_bonds>  (1) 
0

>  <i_lp_mmshare_version>  (1) 
72125

>  <i_m_source_file_index>  (1) 
42

>  <i_f3d_flags>  (1) 
0

>  <num_sample>  (1) 
50

>  <b_lp_Chiralities_Consistent>  (1) 
1

>  <r_epik_Charging_Adjusted_Penalty>  (1) 
0

>  <r_epik_Ionization_Penalty>  (1) 
5.6701613537443791e-14

>  <r_epik_Ionization_Penalty_Charging>  (1) 
0

>  <r_epik_Ionization_Penalty_Neutral>  (1) 
5.6701613537443791e-14

>  <r_epik_State_Penalty>  (1) 
-0

>  <r_glide_ring_energy>  (1) 
0.00079047383587571227

>  <r_i_docking_score>  (1) 
-5.0380726919804353

>  <r_i_glide_ecoul>  (1) 
-1.1576239024545929

>  <r_i_glide_eff_state_penalty>  (1) 
-0

>  <r_i_glide_einternal>  (1) 
0

>  <r_i_glide_emodel>  (1) 
-22.099041855603435

>  <r_i_glide_emodel_strain>  (1) 
0

>  <r_i_glide_energy>  (1) 
-16.717273129720908

>  <r_i_glide_erotb>  (1) 
0

>  <r_i_glide_esite>  (1) 
0

>  <r_i_glide_evdw>  (1) 
-15.559649227266314

>  <r_i_glide_gscore>  (1) 
-5.0380726919804353

>  <r_i_glide_gscore_strain>  (1) 
0

>  <r_i_glide_hbond>  (1) 
0

>  <r_i_glide_ligand_efficiency>  (1) 
-0.71972467028291931

>  <r_i_glide_ligand_efficiency_ln>  (1) 
-1.7101922452034157

>  <r_i_glide_ligand_efficiency_sa>  (1) 
-1.3767837647947727

>  <r_i_glide_lipo>  (1) 
-1.5993009199058408

>  <r_i_glide_metal>  (1) 
-0

>  <r_i_glide_rewards>  (1) 
-2.4871457253430895

>  <r_lp_Energy>  (1) 
7.3473649999999999

>  <r_lp_tautomer_probability>  (1) 
1

>  <s_epik_cmdline>  (1) 
J2VwaWtfcHl0aG9uJywgJy1waHQnLCAnMS4wJywgJy1waCcsICc3LjQnLCAnLXRuJywgJzgnLCAnLW1hJywgJzUwMCcsICctaW1hZScsICc8aW5maWxlLm1hZT4nLCAnLW9tYWUnLCAnPG91dGZpbGUubWFlPic=

>  <s_epik_input>  (1) 
W0NIMl0xT1tDSDJdW0NIXT1bQ0hdT1tDSDJdMQ==

>  <s_glide_docking_method>  (1) 
confgen

>  <s_i_glide_gridfile>  (1) 
gpcr_5ht2c_6bqh_protein_autoprepared_prepared

>  <s_lp_Force_Field>  (1) 
S-OPLS

>  <s_lp_Variant>  (1) 
Pocket2Mol_41_num_sample_50-1

>  <s_m_source_file>  (1) 
generated__ligand_Pocket2Mol_2026-05-06_prepared.sdf

>  <GenAI_Model>  (1) 
Pocket2Mol

>  <Protein>  (1) 
GPCR_5HT2C

$$$$
Pocket2Mol_19_num_sample_50
     RDKit          3D

  0  0  0  0  0  0  0  0  0  0999 V3000
M  V30 BEGIN CTAB
M  V30 COUNTS 13 13 0 0 1
M  V30 BEGIN ATOM
M  V30 1 C 39.067403 28.002574 51.365939 0
M  V30 2 C 39.867395 28.928107 50.640990 0
M  V30 3 C 38.833576 28.536754 52.601205 0
M  V30 4 C 40.100549 30.000579 51.453504 0
M  V30 5 N 39.467405 29.766588 52.661467 0
M  V30 6 C 39.467404 30.662810 53.799143 0
M  V30 7 H 38.700158 27.047172 51.019035 0
M  V30 8 H 40.232193 28.821427 49.630323 0
M  V30 9 H 38.275114 28.159185 53.445515 0
M  V30 10 H 40.657251 30.912512 51.287690 0
M  V30 11 H 38.878775 30.242841 54.615384 0
M  V30 12 H 40.490130 30.821380 54.142621 0
M  V30 13 H 39.036227 31.621431 53.509574 0
M  V30 END ATOM
M  V30 BEGIN BOND
M  V30 1 1 2 1
M  V30 2 2 3 1
M  V30 3 2 4 2
M  V30 4 1 5 3
M  V30 5 1 5 4
M  V30 6 1 6 5
M  V30 7 1 7 1
M  V30 8 1 8 2
M  V30 9 1 9 3
M  V30 10 1 10 4
M  V30 11 1 11 6
M  V30 12 1 12 6
M  V30 13 1 13 6
M  V30 END BOND
M  V30 END CTAB
M  END
>  <i_epik_Tot_Q>  (1) 
0

>  <i_epik_Tot_abs_Q>  (1) 
0

>  <i_i_glide_confnum>  (1) 
1

>  <i_i_glide_lignum>  (1) 
20

>  <i_i_glide_posenum>  (1) 
378

>  <i_i_glide_rotatable_bonds>  (1) 
0

>  <i_lp_mmshare_version>  (1) 
72125

>  <i_m_source_file_index>  (1) 
20

>  <i_f3d_flags>  (1) 
0

>  <num_sample>  (1) 
50

>  <b_lp_Chiralities_Consistent>  (1) 
1

>  <r_epik_Charging_Adjusted_Penalty>  (1) 
0

>  <r_epik_Ionization_Penalty>  (1) 
5.9248581604286784e-11

>  <r_epik_Ionization_Penalty_Charging>  (1) 
0

>  <r_epik_Ionization_Penalty_Neutral>  (1) 
5.9248581604286784e-11

>  <r_epik_State_Penalty>  (1) 
-0

>  <r_glide_ring_energy>  (1) 
0

>  <r_i_docking_score>  (1) 
-5.037508426582372

>  <r_i_glide_ecoul>  (1) 
-0.72779969126669164

>  <r_i_glide_eff_state_penalty>  (1) 
-0

>  <r_i_glide_einternal>  (1) 
0

>  <r_i_glide_emodel>  (1) 
-21.210884060084929

>  <r_i_glide_emodel_strain>  (1) 
0

>  <r_i_glide_energy>  (1) 
-16.061090088233364

>  <r_i_glide_erotb>  (1) 
0

>  <r_i_glide_esite>  (1) 
0

>  <r_i_glide_evdw>  (1) 
-15.333290396966671

>  <r_i_glide_gscore>  (1) 
-5.037508426582372

>  <r_i_glide_gscore_strain>  (1) 
0

>  <r_i_glide_hbond>  (1) 
0

>  <r_i_glide_ligand_efficiency>  (1) 
-0.83958473776372866

>  <r_i_glide_ligand_efficiency_ln>  (1) 
-1.8044206465878974

>  <r_i_glide_ligand_efficiency_sa>  (1) 
-1.5256267164180433

>  <r_i_glide_lipo>  (1) 
-1.6161585222634136

>  <r_i_glide_metal>  (1) 
-0

>  <r_i_glide_rewards>  (1) 
-2.5455154307806205

>  <r_lp_Energy>  (1) 
0.62146699999999999

>  <r_lp_tautomer_probability>  (1) 
1

>  <s_epik_cmdline>  (1) 
J2VwaWtfcHl0aG9uJywgJy1waHQnLCAnMS4wJywgJy1waCcsICc3LjQnLCAnLXRuJywgJzgnLCAnLW1hJywgJzUwMCcsICctaW1hZScsICc8aW5maWxlLm1hZT4nLCAnLW9tYWUnLCAnPG91dGZpbGUubWFlPic=

>  <s_epik_input>  (1) 
W2NIXTFbY0hdW2NIXVtjSF1uMVtDSDNd

>  <s_glide_docking_method>  (1) 
confgen

>  <s_i_glide_gridfile>  (1) 
gpcr_5ht2c_6bqh_protein_autoprepared_prepared

>  <s_lp_Force_Field>  (1) 
S-OPLS

>  <s_lp_Variant>  (1) 
Pocket2Mol_19_num_sample_50-1

>  <s_m_source_file>  (1) 
generated__ligand_Pocket2Mol_2026-05-06_prepared.sdf

>  <GenAI_Model>  (1) 
Pocket2Mol

>  <Protein>  (1) 
GPCR_5HT2C

$$$$
Pocket2Mol_35_num_sample_50
     RDKit          3D

  0  0  0  0  0  0  0  0  0  0999 V3000
M  V30 BEGIN CTAB
M  V30 COUNTS 11 11 0 0 1
M  V30 BEGIN ATOM
M  V30 1 C 39.213266 28.211784 51.053500 0
M  V30 2 O 38.795468 28.222038 52.364304 0
M  V30 3 C 39.067395 29.277357 53.257126 0
M  V30 4 O 38.688276 29.281045 54.425340 0
M  V30 5 C 39.867402 30.395963 52.641516 0
M  V30 6 C 39.915579 29.216525 50.541488 0
M  V30 7 C 40.252800 30.333533 51.354436 0
M  V30 8 H 38.908257 27.323132 50.520103 0
M  V30 9 H 40.122906 31.244894 53.257078 0
M  V30 10 H 40.229806 29.185070 49.508377 0
M  V30 11 H 40.825660 31.146279 50.930723 0
M  V30 END ATOM
M  V30 BEGIN BOND
M  V30 1 1 2 1
M  V30 2 1 3 2
M  V30 3 2 4 3
M  V30 4 1 5 3
M  V30 5 2 6 1
M  V30 6 2 7 5
M  V30 7 1 7 6
M  V30 8 1 8 1
M  V30 9 1 9 5
M  V30 10 1 10 6
M  V30 11 1 11 7
M  V30 END BOND
M  V30 END CTAB
M  END
>  <i_epik_Tot_Q>  (1) 
0

>  <i_epik_Tot_abs_Q>  (1) 
0

>  <i_i_glide_confnum>  (1) 
1

>  <i_i_glide_lignum>  (1) 
36

>  <i_i_glide_posenum>  (1) 
245

>  <i_i_glide_rotatable_bonds>  (1) 
0

>  <i_lp_mmshare_version>  (1) 
72125

>  <i_m_source_file_index>  (1) 
36

>  <i_f3d_flags>  (1) 
0

>  <num_sample>  (1) 
50

>  <b_lp_Chiralities_Consistent>  (1) 
1

>  <r_epik_Charging_Adjusted_Penalty>  (1) 
0

>  <r_epik_Ionization_Penalty>  (1) 
2.4984917370333966e-09

>  <r_epik_Ionization_Penalty_Charging>  (1) 
0

>  <r_epik_Ionization_Penalty_Neutral>  (1) 
2.4984917370333966e-09

>  <r_epik_State_Penalty>  (1) 
-0

>  <r_glide_ring_energy>  (1) 
0

>  <r_i_docking_score>  (1) 
-5.0343171569905572

>  <r_i_glide_ecoul>  (1) 
-0.43165119152138298

>  <r_i_glide_eff_state_penalty>  (1) 
-0

>  <r_i_glide_einternal>  (1) 
0

>  <r_i_glide_emodel>  (1) 
-21.979902054242178

>  <r_i_glide_emodel_strain>  (1) 
0

>  <r_i_glide_energy>  (1) 
-16.548707029346978

>  <r_i_glide_erotb>  (1) 
0

>  <r_i_glide_esite>  (1) 
0

>  <r_i_glide_evdw>  (1) 
-16.117055837825596

>  <r_i_glide_gscore>  (1) 
-5.0343171569905572

>  <r_i_glide_gscore_strain>  (1) 
0

>  <r_i_glide_hbond>  (1) 
0

>  <r_i_glide_ligand_efficiency>  (1) 
-0.71918816528436535

>  <r_i_glide_ligand_efficiency_ln>  (1) 
-1.7089174150830597

>  <r_i_glide_ligand_efficiency_sa>  (1) 
-1.3757574676533255

>  <r_i_glide_lipo>  (1) 
-1.5450158905685982

>  <r_i_glide_metal>  (1) 
-0

>  <r_i_glide_rewards>  (1) 
-2.6187007958024711

>  <r_lp_Energy>  (1) 
11.255118999999999

>  <r_lp_tautomer_probability>  (1) 
1

>  <s_epik_cmdline>  (1) 
J2VwaWtfcHl0aG9uJywgJy1waHQnLCAnMS4wJywgJy1waCcsICc3LjQnLCAnLXRuJywgJzgnLCAnLW1hJywgJzUwMCcsICctaW1hZScsICc8aW5maWxlLm1hZT4nLCAnLW9tYWUnLCAnPG91dGZpbGUubWFlPic=

>  <s_epik_input>  (1) 
W2NIXTFbY0hdW2NIXVtjSF1vYzE9Tw==

>  <s_glide_docking_method>  (1) 
confgen

>  <s_i_glide_gridfile>  (1) 
gpcr_5ht2c_6bqh_protein_autoprepared_prepared

>  <s_lp_Force_Field>  (1) 
S-OPLS

>  <s_lp_Variant>  (1) 
Pocket2Mol_35_num_sample_50-1

>  <s_m_source_file>  (1) 
generated__ligand_Pocket2Mol_2026-05-06_prepared.sdf

>  <GenAI_Model>  (1) 
Pocket2Mol

>  <Protein>  (1) 
GPCR_5HT2C

$$$$
Pocket2Mol_38_num_sample_50
     RDKit          3D

  0  0  0  0  0  0  0  0  0  0999 V3000
M  V30 BEGIN CTAB
M  V30 COUNTS 12 12 0 0 1
M  V30 BEGIN ATOM
M  V30 1 C 39.840293 28.858583 50.653501 0
M  V30 2 C 40.076640 29.911079 51.547522 0
M  V30 3 C 39.467402 29.621433 52.628420 0
M  V30 4 C 39.405235 30.431730 53.908757 0
M  V30 5 N 39.101614 27.885147 51.102673 0
M  V30 6 C 38.810127 28.350412 52.445955 0
M  V30 7 O 38.124201 27.769440 53.285447 0
M  V30 8 H 40.272346 28.908055 49.651383 0
M  V30 9 H 40.673348 30.777618 51.301466 0
M  V30 10 H 38.803620 29.938878 54.673294 0
M  V30 11 H 40.408428 30.580113 54.309016 0
M  V30 12 H 38.967789 31.411486 53.713476 0
M  V30 END ATOM
M  V30 BEGIN BOND
M  V30 1 1 2 1
M  V30 2 2 3 2
M  V30 3 1 4 3
M  V30 4 2 5 1
M  V30 5 1 6 3
M  V30 6 1 6 5
M  V30 7 2 7 6
M  V30 8 1 8 1
M  V30 9 1 9 2
M  V30 10 1 10 4
M  V30 11 1 11 4
M  V30 12 1 12 4
M  V30 END BOND
M  V30 END CTAB
M  END
>  <i_epik_Tot_Q>  (1) 
0

>  <i_epik_Tot_abs_Q>  (1) 
0

>  <i_i_glide_confnum>  (1) 
1

>  <i_i_glide_lignum>  (1) 
39

>  <i_i_glide_posenum>  (1) 
309

>  <i_i_glide_rotatable_bonds>  (1) 
0

>  <i_lp_mmshare_version>  (1) 
72125

>  <i_m_source_file_index>  (1) 
39

>  <i_f3d_flags>  (1) 
0

>  <num_sample>  (1) 
50

>  <b_lp_Chiralities_Consistent>  (1) 
1

>  <r_epik_Charging_Adjusted_Penalty>  (1) 
0

>  <r_epik_Ionization_Penalty>  (1) 
0

>  <r_epik_Ionization_Penalty_Charging>  (1) 
0

>  <r_epik_Ionization_Penalty_Neutral>  (1) 
0

>  <r_epik_State_Penalty>  (1) 
-0

>  <r_glide_ring_energy>  (1) 
0

>  <r_i_docking_score>  (1) 
-5.0268212921788997

>  <r_i_glide_ecoul>  (1) 
0.27526633040386211

>  <r_i_glide_eff_state_penalty>  (1) 
-0

>  <r_i_glide_einternal>  (1) 
0

>  <r_i_glide_emodel>  (1) 
-23.722468575051078

>  <r_i_glide_emodel_strain>  (1) 
0.94552691518027387

>  <r_i_glide_energy>  (1) 
-18.780444004654946

>  <r_i_glide_erotb>  (1) 
0

>  <r_i_glide_esite>  (1) 
0

>  <r_i_glide_evdw>  (1) 
-19.055710335058809

>  <r_i_glide_gscore>  (1) 
-5.0268212921788997

>  <r_i_glide_gscore_strain>  (1) 
0

>  <r_i_glide_hbond>  (1) 
0

>  <r_i_glide_ligand_efficiency>  (1) 
-0.71811732745412848

>  <r_i_glide_ligand_efficiency_ln>  (1) 
-1.706372916292402

>  <r_i_glide_ligand_efficiency_sa>  (1) 
-1.3737090285761733

>  <r_i_glide_lipo>  (1) 
-0.82609182819955418

>  <r_i_glide_metal>  (1) 
-0

>  <r_i_glide_rewards>  (1) 
-3.2892338967869845

>  <r_lp_Energy>  (1) 
0.58044799999999996

>  <r_lp_tautomer_probability>  (1) 
1

>  <s_epik_Chemistry_Notes>  (1) 
This compound has an imine and may undergo hydrolysis.

>  <s_epik_cmdline>  (1) 
J2VwaWtfcHl0aG9uJywgJy1waHQnLCAnMS4wJywgJy1waCcsICc3LjQnLCAnLXRuJywgJzgnLCAnLW1hJywgJzUwMCcsICctaW1hZScsICc8aW5maWxlLm1hZT4nLCAnLW9tYWUnLCAnPG91dGZpbGUubWFlPic=

>  <s_epik_input>  (1) 
Tz1DMU49W0NIXVtDSF09QzFbQ0gzXQ==

>  <s_glide_docking_method>  (1) 
confgen

>  <s_i_glide_gridfile>  (1) 
gpcr_5ht2c_6bqh_protein_autoprepared_prepared

>  <s_lp_Force_Field>  (1) 
S-OPLS

>  <s_lp_Variant>  (1) 
Pocket2Mol_38_num_sample_50-1

>  <s_m_source_file>  (1) 
generated__ligand_Pocket2Mol_2026-05-06_prepared.sdf

>  <GenAI_Model>  (1) 
Pocket2Mol

>  <Protein>  (1) 
GPCR_5HT2C

$$$$
Pocket2Mol_33_num_sample_50
     RDKit          3D

  0  0  0  0  0  0  0  0  0  0999 V3000
M  V30 BEGIN CTAB
M  V30 COUNTS 17 17 0 0 1
M  V30 BEGIN ATOM
M  V30 1 C 39.950568 29.837253 51.373223 0
M  V30 2 O 40.266097 28.458956 51.453445 0
M  V30 3 C 39.149260 27.578916 51.468714 0
M  V30 4 C 39.831935 30.421430 52.793138 0
M  V30 5 O 38.629155 30.065624 53.453502 0
M  V30 6 C 38.010431 27.973581 52.425516 0
M  V30 7 C 38.462372 28.679565 53.707357 0
M  V30 8 H 40.784973 30.326648 50.870107 0
M  V30 9 H 39.067412 30.022829 50.760432 0
M  V30 10 H 38.758741 27.482178 50.455959 0
M  V30 11 H 39.521890 26.591650 51.742238 0
M  V30 12 H 40.667413 30.137475 53.422264 0
M  V30 13 H 39.848501 31.509153 52.729323 0
M  V30 14 H 37.288448 28.603789 51.906464 0
M  V30 15 H 37.467452 27.066192 52.689401 0
M  V30 16 H 37.676077 28.587357 54.457365 0
M  V30 17 H 39.359107 28.228729 54.135066 0
M  V30 END ATOM
M  V30 BEGIN BOND
M  V30 1 1 2 1
M  V30 2 1 3 2
M  V30 3 1 4 1
M  V30 4 1 5 4
M  V30 5 1 6 3
M  V30 6 1 7 5
M  V30 7 1 7 6
M  V30 8 1 8 1
M  V30 9 1 9 1
M  V30 10 1 10 3
M  V30 11 1 11 3
M  V30 12 1 12 4
M  V30 13 1 13 4
M  V30 14 1 14 6
M  V30 15 1 15 6
M  V30 16 1 16 7
M  V30 17 1 17 7
M  V30 END BOND
M  V30 END CTAB
M  END
>  <i_epik_Tot_Q>  (1) 
0

>  <i_epik_Tot_abs_Q>  (1) 
0

>  <i_i_glide_confnum>  (1) 
12

>  <i_i_glide_lignum>  (1) 
34

>  <i_i_glide_posenum>  (1) 
149

>  <i_i_glide_rotatable_bonds>  (1) 
0

>  <i_lp_mmshare_version>  (1) 
72125

>  <i_m_source_file_index>  (1) 
34

>  <i_f3d_flags>  (1) 
0

>  <num_sample>  (1) 
50

>  <b_lp_Chiralities_Consistent>  (1) 
1

>  <r_epik_Charging_Adjusted_Penalty>  (1) 
0

>  <r_epik_Ionization_Penalty>  (1) 
3.933197540425548e-12

>  <r_epik_Ionization_Penalty_Charging>  (1) 
0

>  <r_epik_Ionization_Penalty_Neutral>  (1) 
3.933197540425548e-12

>  <r_epik_State_Penalty>  (1) 
-0

>  <r_glide_ring_energy>  (1) 
0.00083970750038192933

>  <r_i_docking_score>  (1) 
-5.0251863565239194

>  <r_i_glide_ecoul>  (1) 
-0.94862523845718372

>  <r_i_glide_eff_state_penalty>  (1) 
-0

>  <r_i_glide_einternal>  (1) 
0

>  <r_i_glide_emodel>  (1) 
-22.158430688459493

>  <r_i_glide_emodel_strain>  (1) 
0

>  <r_i_glide_energy>  (1) 
-16.949940827634261

>  <r_i_glide_erotb>  (1) 
0

>  <r_i_glide_esite>  (1) 
0

>  <r_i_glide_evdw>  (1) 
-16.001315589177079

>  <r_i_glide_gscore>  (1) 
-5.0251863565239194

>  <r_i_glide_gscore_strain>  (1) 
0

>  <r_i_glide_hbond>  (1) 
0

>  <r_i_glide_ligand_efficiency>  (1) 
-0.71788376521770281

>  <r_i_glide_ligand_efficiency_ln>  (1) 
-1.7058179313905357

>  <r_i_glide_ligand_efficiency_sa>  (1) 
-1.3732622400909964

>  <r_i_glide_lipo>  (1) 
-1.6128101804547637

>  <r_i_glide_metal>  (1) 
-0

>  <r_i_glide_rewards>  (1) 
-2.4700166108417241

>  <r_lp_Energy>  (1) 
9.6410049999999998

>  <r_lp_tautomer_probability>  (1) 
1

>  <s_epik_cmdline>  (1) 
J2VwaWtfcHl0aG9uJywgJy1waHQnLCAnMS4wJywgJy1waCcsICc3LjQnLCAnLXRuJywgJzgnLCAnLW1hJywgJzUwMCcsICctaW1hZScsICc8aW5maWxlLm1hZT4nLCAnLW9tYWUnLCAnPG91dGZpbGUubWFlPic=

>  <s_epik_input>  (1) 
W0NIMl0xT1tDSDJdW0NIMl1bQ0gyXU9bQ0gyXTE=

>  <s_glide_docking_method>  (1) 
confgen

>  <s_i_glide_gridfile>  (1) 
gpcr_5ht2c_6bqh_protein_autoprepared_prepared

>  <s_lp_Force_Field>  (1) 
S-OPLS

>  <s_lp_Variant>  (1) 
Pocket2Mol_33_num_sample_50-1

>  <s_m_source_file>  (1) 
generated__ligand_Pocket2Mol_2026-05-06_prepared.sdf

>  <GenAI_Model>  (1) 
Pocket2Mol

>  <Protein>  (1) 
GPCR_5HT2C

$$$$
Pocket2Mol_30_num_sample_50
     RDKit          3D

  0  0  0  0  0  0  0  0  0  0999 V3000
M  V30 BEGIN CTAB
M  V30 COUNTS 15 15 0 0 1
M  V30 BEGIN ATOM
M  V30 1 C 40.292627 30.767442 49.923003 0
M  V30 2 C 40.114053 31.033553 51.415760 0
M  V30 3 O 39.579633 29.821888 51.889255 0
M  V30 4 O 40.267383 29.356981 49.810999 0
M  V30 5 C 40.186412 28.864826 51.102233 0
M  V30 6 C 39.311073 27.609663 51.113757 0
M  V30 7 O 39.467402 26.893322 52.319360 0
M  V30 8 H 41.226128 31.183604 49.543181 0
M  V30 9 H 39.467381 31.187864 49.349434 0
M  V30 10 H 41.067403 31.221429 51.897851 0
M  V30 11 H 39.467404 31.881646 51.625209 0
M  V30 12 H 41.200886 28.668122 51.453502 0
M  V30 13 H 39.615344 26.963729 50.289727 0
M  V30 14 H 38.267445 27.884477 50.956541 0
M  V30 15 H 39.135728 27.433726 53.021416 0
M  V30 END ATOM
M  V30 BEGIN BOND
M  V30 1 1 2 1
M  V30 2 1 3 2
M  V30 3 1 4 1
M  V30 4 1 5 3
M  V30 5 1 5 4
M  V30 6 1 6 5
M  V30 7 1 7 6
M  V30 8 1 8 1
M  V30 9 1 9 1
M  V30 10 1 10 2
M  V30 11 1 11 2
M  V30 12 1 12 5
M  V30 13 1 13 6
M  V30 14 1 14 6
M  V30 15 1 15 7
M  V30 END BOND
M  V30 END CTAB
M  END
>  <i_epik_Tot_Q>  (1) 
0

>  <i_epik_Tot_abs_Q>  (1) 
0

>  <i_i_glide_confnum>  (1) 
1

>  <i_i_glide_lignum>  (1) 
31

>  <i_i_glide_posenum>  (1) 
310

>  <i_i_glide_rotatable_bonds>  (1) 
2

>  <i_lp_mmshare_version>  (1) 
72125

>  <i_m_source_file_index>  (1) 
31

>  <i_f3d_flags>  (1) 
0

>  <num_sample>  (1) 
50

>  <b_lp_Chiralities_Consistent>  (1) 
1

>  <r_epik_Charging_Adjusted_Penalty>  (1) 
0

>  <r_epik_Ionization_Penalty>  (1) 
3.4422651255072934e-07

>  <r_epik_Ionization_Penalty_Charging>  (1) 
0

>  <r_epik_Ionization_Penalty_Neutral>  (1) 
3.4422651255072934e-07

>  <r_epik_State_Penalty>  (1) 
-0

>  <r_glide_ring_energy>  (1) 
0

>  <r_i_docking_score>  (1) 
-5.0124860091619503

>  <r_i_glide_ecoul>  (1) 
-1.4286722867095809

>  <r_i_glide_eff_state_penalty>  (1) 
-0

>  <r_i_glide_einternal>  (1) 
0.31651091822064759

>  <r_i_glide_emodel>  (1) 
-21.356883136406282

>  <r_i_glide_emodel_strain>  (1) 
0.093500459754523035

>  <r_i_glide_energy>  (1) 
-16.022514574138921

>  <r_i_glide_erotb>  (1) 
0

>  <r_i_glide_esite>  (1) 
0

>  <r_i_glide_evdw>  (1) 
-14.593842287429341

>  <r_i_glide_gscore>  (1) 
-5.0124860091619503

>  <r_i_glide_gscore_strain>  (1) 
0

>  <r_i_glide_hbond>  (1) 
0

>  <r_i_glide_ligand_efficiency>  (1) 
-0.71606942988027866

>  <r_i_glide_ligand_efficiency_ln>  (1) 
-1.7015067519181943

>  <r_i_glide_ligand_efficiency_sa>  (1) 
-1.3697915414480317

>  <r_i_glide_lipo>  (1) 
-0.96849305178404554

>  <r_i_glide_metal>  (1) 
-0

>  <r_i_glide_rewards>  (1) 
-3.1000000000000001

>  <r_lp_Energy>  (1) 
-10.260740999999999

>  <r_lp_tautomer_probability>  (1) 
1

>  <s_epik_Chemistry_Notes>  (1) 
This compound contains an acetal/aminal-like group ( X-CH(R)-Y where X, Y are N, S, or O) that may be acid/base labile, releasing an aldehyde.

>  <s_epik_cmdline>  (1) 
J2VwaWtfcHl0aG9uJywgJy1waHQnLCAnMS4wJywgJy1waCcsICc3LjQnLCAnLXRuJywgJzgnLCAnLW1hJywgJzUwMCcsICctaW1hZScsICc8aW5maWxlLm1hZT4nLCAnLW9tYWUnLCAnPG91dGZpbGUubWFlPic=

>  <s_epik_input>  (1) 
TzFbQ0gyXVtDSDJdT1tDSF0xW0NIMl1bT0hd

>  <s_glide_docking_method>  (1) 
confgen

>  <s_i_glide_gridfile>  (1) 
gpcr_5ht2c_6bqh_protein_autoprepared_prepared

>  <s_lp_Force_Field>  (1) 
S-OPLS

>  <s_lp_Variant>  (1) 
Pocket2Mol_30_num_sample_50-1

>  <s_m_source_file>  (1) 
generated__ligand_Pocket2Mol_2026-05-06_prepared.sdf

>  <GenAI_Model>  (1) 
Pocket2Mol

>  <Protein>  (1) 
GPCR_5HT2C

$$$$
Pocket2Mol_7_num_sample_50
     RDKit          3D

  0  0  0  0  0  0  0  0  0  0999 V3000
M  V30 BEGIN CTAB
M  V30 COUNTS 11 11 0 0 1
M  V30 BEGIN ATOM
M  V30 1 C 39.845205 29.178541 51.647395 0
M  V30 2 C 39.309377 28.047139 50.779257 0
M  V30 3 C 39.253814 29.345736 52.803244 0
M  V30 4 C 38.239926 28.392996 52.937565 0
M  V30 5 N 38.267404 27.663565 51.808309 0
M  V30 6 O 37.467401 28.232141 53.876850 0
M  V30 7 H 40.665367 29.792128 51.303380 0
M  V30 8 H 37.620955 26.901193 51.638289 0
M  V30 9 H 38.874710 28.421413 49.853469 0
M  V30 10 H 39.505943 30.097315 53.537096 0
M  V30 11 H 40.034682 27.256410 50.594625 0
M  V30 END ATOM
M  V30 BEGIN BOND
M  V30 1 1 2 1
M  V30 2 2 3 1
M  V30 3 1 4 3
M  V30 4 1 5 2
M  V30 5 1 5 4
M  V30 6 2 6 4
M  V30 7 1 7 1
M  V30 8 1 8 5
M  V30 9 1 9 2
M  V30 10 1 10 3
M  V30 11 1 11 2
M  V30 END BOND
M  V30 END CTAB
M  END
>  <i_epik_Tot_Q>  (1) 
0

>  <i_epik_Tot_abs_Q>  (1) 
0

>  <i_i_glide_confnum>  (1) 
1

>  <i_i_glide_lignum>  (1) 
8

>  <i_i_glide_posenum>  (1) 
203

>  <i_i_glide_rotatable_bonds>  (1) 
0

>  <i_lp_mmshare_version>  (1) 
72125

>  <i_m_source_file_index>  (1) 
8

>  <i_f3d_flags>  (1) 
0

>  <num_sample>  (1) 
50

>  <b_lp_Chiralities_Consistent>  (1) 
1

>  <r_epik_Charging_Adjusted_Penalty>  (1) 
0

>  <r_epik_Ionization_Penalty>  (1) 
3.8544596149973334e-06

>  <r_epik_Ionization_Penalty_Charging>  (1) 
0

>  <r_epik_Ionization_Penalty_Neutral>  (1) 
3.8544596149973334e-06

>  <r_epik_State_Penalty>  (1) 
-0

>  <r_glide_ring_energy>  (1) 
0

>  <r_i_docking_score>  (1) 
-5.0059045824287454

>  <r_i_glide_ecoul>  (1) 
-2.5056088014140561

>  <r_i_glide_eff_state_penalty>  (1) 
-0

>  <r_i_glide_einternal>  (1) 
0

>  <r_i_glide_emodel>  (1) 
-22.727949119857687

>  <r_i_glide_emodel_strain>  (1) 
0

>  <r_i_glide_energy>  (1) 
-17.431426983519973

>  <r_i_glide_erotb>  (1) 
0

>  <r_i_glide_esite>  (1) 
0

>  <r_i_glide_evdw>  (1) 
-14.925818182105916

>  <r_i_glide_gscore>  (1) 
-5.0059045824287454

>  <r_i_glide_gscore_strain>  (1) 
0

>  <r_i_glide_hbond>  (1) 
-0.32000000000000001

>  <r_i_glide_ligand_efficiency>  (1) 
-0.83431743040479089

>  <r_i_glide_ligand_efficiency_ln>  (1) 
-1.7931002429134484

>  <r_i_glide_ligand_efficiency_sa>  (1) 
-1.5160553837473412

>  <r_i_glide_lipo>  (1) 
-0.86377235311134049

>  <r_i_glide_metal>  (1) 
-0

>  <r_i_glide_rewards>  (1) 
-2.7000000000000002

>  <r_lp_Energy>  (1) 
3.2049569999999998

>  <r_lp_tautomer_probability>  (1) 
1

>  <s_epik_cmdline>  (1) 
J2VwaWtfcHl0aG9uJywgJy1waHQnLCAnMS4wJywgJy1waCcsICc3LjQnLCAnLXRuJywgJzgnLCAnLW1hJywgJzUwMCcsICctaW1hZScsICc8aW5maWxlLm1hZT4nLCAnLW9tYWUnLCAnPG91dGZpbGUubWFlPic=

>  <s_epik_input>  (1) 
TjE9W0NIXVtDSDJdW0NIMl1DMT1P

>  <s_glide_docking_method>  (1) 
confgen

>  <s_i_glide_gridfile>  (1) 
gpcr_5ht2c_6bqh_protein_autoprepared_prepared

>  <s_lp_Force_Field>  (1) 
S-OPLS

>  <s_lp_Variant>  (1) 
Pocket2Mol_7_num_sample_50-1

>  <s_m_source_file>  (1) 
generated__ligand_Pocket2Mol_2026-05-06_prepared.sdf

>  <GenAI_Model>  (1) 
Pocket2Mol

>  <Protein>  (1) 
GPCR_5HT2C

$$$$
Pocket2Mol_18_num_sample_50
     RDKit          3D

  0  0  0  0  0  0  0  0  0  0999 V3000
M  V30 BEGIN CTAB
M  V30 COUNTS 10 10 0 0 1
M  V30 BEGIN ATOM
M  V30 1 C 40.061207 29.140784 51.307185 0
M  V30 2 C 39.467404 27.865471 51.054459 0
M  V30 3 C 39.467403 29.655348 52.427052 0
M  V30 4 C 38.531041 27.647080 52.025107 0
M  V30 5 N 38.535889 28.739847 52.852564 0
M  V30 6 O 37.729075 28.894676 53.942760 0 CHG=-1
M  V30 7 H 40.837718 29.624585 50.733468 0
M  V30 8 H 39.701831 27.184356 50.253502 0
M  V30 9 H 39.617147 30.584537 52.956758 0
M  V30 10 H 37.863556 26.821430 52.202937 0
M  V30 END ATOM
M  V30 BEGIN BOND
M  V30 1 1 2 1
M  V30 2 2 3 1
M  V30 3 2 4 2
M  V30 4 1 5 3
M  V30 5 1 5 4
M  V30 6 1 6 5
M  V30 7 1 7 1
M  V30 8 1 8 2
M  V30 9 1 9 3
M  V30 10 1 10 4
M  V30 END BOND
M  V30 END CTAB
M  END
>  <i_epik_Tot_Q>  (1) 
-1

>  <i_epik_Tot_abs_Q>  (1) 
1

>  <i_i_glide_confnum>  (1) 
1

>  <i_i_glide_lignum>  (1) 
19

>  <i_i_glide_posenum>  (1) 
126

>  <i_i_glide_rotatable_bonds>  (1) 
0

>  <i_lp_mmshare_version>  (1) 
72125

>  <i_m_source_file_index>  (1) 
19

>  <i_f3d_flags>  (1) 
0

>  <num_sample>  (1) 
50

>  <b_lp_Chiralities_Consistent>  (1) 
1

>  <r_epik_Charging_Adjusted_Penalty>  (1) 
0.038602441834166765

>  <r_epik_Ionization_Penalty>  (1) 
0.019301220976331968

>  <r_epik_Ionization_Penalty_Charging>  (1) 
0.019301220917083386

>  <r_epik_Ionization_Penalty_Neutral>  (1) 
5.9248581604286784e-11

>  <r_epik_State_Penalty>  (1) 
0.019301220917083379

>  <r_glide_ring_energy>  (1) 
0

>  <r_i_docking_score>  (1) 
-5.0051589486268728

>  <r_i_glide_ecoul>  (1) 
-1.0639998046739927

>  <r_i_glide_eff_state_penalty>  (1) 
0.019301220917083379

>  <r_i_glide_einternal>  (1) 
0

>  <r_i_glide_emodel>  (1) 
-18.947871914767628

>  <r_i_glide_emodel_strain>  (1) 
0

>  <r_i_glide_energy>  (1) 
-14.173994514175995

>  <r_i_glide_erotb>  (1) 
0

>  <r_i_glide_esite>  (1) 
0

>  <r_i_glide_evdw>  (1) 
-13.109994709502002

>  <r_i_glide_gscore>  (1) 
-5.0244601695439561

>  <r_i_glide_gscore_strain>  (1) 
0

>  <r_i_glide_hbond>  (1) 
0

>  <r_i_glide_ligand_efficiency>  (1) 
-0.8341931581044788

>  <r_i_glide_ligand_efficiency_ln>  (1) 
-1.79283315908689

>  <r_i_glide_ligand_efficiency_sa>  (1) 
-1.5158295659913255

>  <r_i_glide_lipo>  (1) 
-1.2386796344722062

>  <r_i_glide_metal>  (1) 
-0

>  <r_i_glide_rewards>  (1) 
-2.9706808288955506

>  <r_lp_Energy>  (1) 
1.8910769999999999

>  <r_lp_tautomer_probability>  (1) 
1

>  <s_epik_cmdline>  (1) 
J2VwaWtfcHl0aG9uJywgJy1waHQnLCAnMS4wJywgJy1waCcsICc3LjQnLCAnLXRuJywgJzgnLCAnLW1hJywgJzUwMCcsICctaW1hZScsICc8aW5maWxlLm1hZT4nLCAnLW9tYWUnLCAnPG91dGZpbGUubWFlPic=

>  <s_epik_input>  (1) 
W2NIXTFbY0hdW2NIXVtjSF1uMVtPSF0=

>  <s_glide_docking_method>  (1) 
confgen

>  <s_i_glide_gridfile>  (1) 
gpcr_5ht2c_6bqh_protein_autoprepared_prepared

>  <s_lp_Force_Field>  (1) 
S-OPLS

>  <s_lp_Variant>  (1) 
Pocket2Mol_18_num_sample_50-1

>  <s_m_source_file>  (1) 
generated__ligand_Pocket2Mol_2026-05-06_prepared.sdf

>  <GenAI_Model>  (1) 
Pocket2Mol

>  <Protein>  (1) 
GPCR_5HT2C

$$$$
Pocket2Mol_11_num_sample_50
     RDKit          3D

  0  0  0  0  0  0  0  0  0  0999 V3000
M  V30 BEGIN CTAB
M  V30 COUNTS 11 11 0 0 1
M  V30 BEGIN ATOM
M  V30 1 C 39.254235 29.358914 52.798666 0
M  V30 2 C 39.845622 29.183887 51.643925 0
M  V30 3 C 38.240039 28.407217 52.939321 0
M  V30 4 C 39.309320 28.047031 50.782999 0
M  V30 5 N 38.267419 27.670363 51.814948 0
M  V30 6 O 37.467349 28.252675 53.879761 0
M  V30 7 H 39.506297 30.115245 53.527451 0
M  V30 8 H 38.876210 28.414917 49.853502 0
M  V30 9 H 40.666244 29.794748 51.295864 0
M  V30 10 H 40.033898 27.254346 50.604598 0
M  V30 11 H 37.621184 26.906729 51.650219 0
M  V30 END ATOM
M  V30 BEGIN BOND
M  V30 1 2 2 1
M  V30 2 1 3 1
M  V30 3 1 4 2
M  V30 4 1 5 3
M  V30 5 1 5 4
M  V30 6 2 6 3
M  V30 7 1 7 1
M  V30 8 1 8 4
M  V30 9 1 9 2
M  V30 10 1 10 4
M  V30 11 1 11 5
M  V30 END BOND
M  V30 END CTAB
M  END
>  <i_epik_Tot_Q>  (1) 
0

>  <i_epik_Tot_abs_Q>  (1) 
0

>  <i_i_glide_confnum>  (1) 
1

>  <i_i_glide_lignum>  (1) 
12

>  <i_i_glide_posenum>  (1) 
203

>  <i_i_glide_rotatable_bonds>  (1) 
0

>  <i_lp_mmshare_version>  (1) 
72125

>  <i_m_source_file_index>  (1) 
12

>  <i_f3d_flags>  (1) 
0

>  <num_sample>  (1) 
50

>  <b_lp_Chiralities_Consistent>  (1) 
1

>  <r_epik_Charging_Adjusted_Penalty>  (1) 
0

>  <r_epik_Ionization_Penalty>  (1) 
3.8544596149973334e-06

>  <r_epik_Ionization_Penalty_Charging>  (1) 
0

>  <r_epik_Ionization_Penalty_Neutral>  (1) 
3.8544596149973334e-06

>  <r_epik_State_Penalty>  (1) 
-0

>  <r_glide_ring_energy>  (1) 
0

>  <r_i_docking_score>  (1) 
-5.0036833379860797

>  <r_i_glide_ecoul>  (1) 
-2.4888380268741943

>  <r_i_glide_eff_state_penalty>  (1) 
-0

>  <r_i_glide_einternal>  (1) 
0

>  <r_i_glide_emodel>  (1) 
-22.728009821885674

>  <r_i_glide_emodel_strain>  (1) 
0

>  <r_i_glide_energy>  (1) 
-17.433447506079268

>  <r_i_glide_erotb>  (1) 
0

>  <r_i_glide_esite>  (1) 
0

>  <r_i_glide_evdw>  (1) 
-14.944609479205074

>  <r_i_glide_gscore>  (1) 
-5.0036833379860797

>  <r_i_glide_gscore_strain>  (1) 
0

>  <r_i_glide_hbond>  (1) 
-0.32000000000000001

>  <r_i_glide_ligand_efficiency>  (1) 
-0.83394722299767998

>  <r_i_glide_ligand_efficiency_ln>  (1) 
-1.7923045997116793

>  <r_i_glide_ligand_efficiency_sa>  (1) 
-1.5153826722442609

>  <r_i_glide_lipo>  (1) 
-0.86312715999469647

>  <r_i_glide_metal>  (1) 
-0

>  <r_i_glide_rewards>  (1) 
-2.7000000000000002

>  <r_lp_Energy>  (1) 
3.204942

>  <r_lp_tautomer_probability>  (1) 
1

>  <s_epik_cmdline>  (1) 
J2VwaWtfcHl0aG9uJywgJy1waHQnLCAnMS4wJywgJy1waCcsICc3LjQnLCAnLXRuJywgJzgnLCAnLW1hJywgJzUwMCcsICctaW1hZScsICc8aW5maWxlLm1hZT4nLCAnLW9tYWUnLCAnPG91dGZpbGUubWFlPic=

>  <s_epik_input>  (1) 
Tz1DMVtDSDJdW0NIXT1bQ0hdW05IXTE=

>  <s_glide_docking_method>  (1) 
confgen

>  <s_i_glide_gridfile>  (1) 
gpcr_5ht2c_6bqh_protein_autoprepared_prepared

>  <s_lp_Force_Field>  (1) 
S-OPLS

>  <s_lp_Variant>  (1) 
Pocket2Mol_11_num_sample_50-1

>  <s_m_source_file>  (1) 
generated__ligand_Pocket2Mol_2026-05-06_prepared.sdf

>  <GenAI_Model>  (1) 
Pocket2Mol

>  <Protein>  (1) 
GPCR_5HT2C

$$$$
Pocket2Mol_44_num_sample_50
     RDKit          3D

  0  0  0  0  0  0  0  0  0  0999 V3000
M  V30 BEGIN CTAB
M  V30 COUNTS 12 11 0 0 1
M  V30 BEGIN ATOM
M  V30 1 C 39.710734 29.102558 59.702078 0
M  V30 2 O 38.685985 29.911641 60.246294 0
M  V30 3 C 37.794271 30.491874 59.422509 0
M  V30 4 C 36.708214 31.246891 60.228134 0
M  V30 5 O 37.816486 30.441519 58.191233 0
M  V30 6 O 36.705460 31.288990 61.453223 0
M  V30 7 N 35.798249 31.830734 59.453500 0
M  V30 8 H 40.348464 28.721303 60.499136 0
M  V30 9 H 39.283866 28.253486 59.168689 0
M  V30 10 H 40.332521 29.667136 59.008143 0
M  V30 11 H 35.867295 31.761226 58.418948 0
M  V30 12 H 35.038904 32.342804 59.870165 0
M  V30 END ATOM
M  V30 BEGIN BOND
M  V30 1 1 2 1
M  V30 2 1 3 2
M  V30 3 1 4 3
M  V30 4 2 5 3
M  V30 5 2 6 4
M  V30 6 1 7 4
M  V30 7 1 8 1
M  V30 8 1 9 1
M  V30 9 1 10 1
M  V30 10 1 11 7
M  V30 11 1 12 7
M  V30 END BOND
M  V30 END CTAB
M  END
>  <i_epik_Tot_Q>  (1) 
0

>  <i_epik_Tot_abs_Q>  (1) 
0

>  <i_i_glide_confnum>  (1) 
1

>  <i_i_glide_lignum>  (1) 
45

>  <i_i_glide_posenum>  (1) 
255

>  <i_i_glide_rotatable_bonds>  (1) 
2

>  <i_lp_mmshare_version>  (1) 
72125

>  <i_m_source_file_index>  (1) 
45

>  <i_f3d_flags>  (1) 
0

>  <num_sample>  (1) 
50

>  <b_lp_Chiralities_Consistent>  (1) 
1

>  <r_epik_Charging_Adjusted_Penalty>  (1) 
0

>  <r_epik_Ionization_Penalty>  (1) 
3.9236796398539443e-05

>  <r_epik_Ionization_Penalty_Charging>  (1) 
0

>  <r_epik_Ionization_Penalty_Neutral>  (1) 
3.9236796398539443e-05

>  <r_epik_State_Penalty>  (1) 
-0

>  <r_glide_ring_energy>  (1) 
0

>  <r_i_docking_score>  (1) 
-4.993560951766729

>  <r_i_glide_ecoul>  (1) 
-9.6955737648797289

>  <r_i_glide_eff_state_penalty>  (1) 
-0

>  <r_i_glide_einternal>  (1) 
0.049653827025929242

>  <r_i_glide_emodel>  (1) 
-25.380634475907168

>  <r_i_glide_emodel_strain>  (1) 
0

>  <r_i_glide_energy>  (1) 
-18.662698002075665

>  <r_i_glide_erotb>  (1) 
0

>  <r_i_glide_esite>  (1) 
-0.18051888306321021

>  <r_i_glide_evdw>  (1) 
-8.9671242371959359

>  <r_i_glide_gscore>  (1) 
-4.993560951766729

>  <r_i_glide_gscore_strain>  (1) 
0

>  <r_i_glide_hbond>  (1) 
-0.45599999999999996

>  <r_i_glide_ligand_efficiency>  (1) 
-0.71336585025238985

>  <r_i_glide_ligand_efficiency_ln>  (1) 
-1.6950825718048632

>  <r_i_glide_ligand_efficiency_sa>  (1) 
-1.3646197796727353

>  <r_i_glide_lipo>  (1) 
-0.20443728869125508

>  <r_i_glide_metal>  (1) 
-0

>  <r_i_glide_rewards>  (1) 
-2.2499125034205076

>  <r_lp_Energy>  (1) 
8.3220650000000003

>  <r_lp_tautomer_probability>  (1) 
1

>  <s_epik_Chemistry_Notes>  (1) 
This compound has an ester and may undergo hydrolysis at high or low pH.

>  <s_epik_cmdline>  (1) 
J2VwaWtfcHl0aG9uJywgJy1waHQnLCAnMS4wJywgJy1waCcsICc3LjQnLCAnLXRuJywgJzgnLCAnLW1hJywgJzUwMCcsICctaW1hZScsICc8aW5maWxlLm1hZT4nLCAnLW9tYWUnLCAnPG91dGZpbGUubWFlPic=

>  <s_epik_input>  (1) 
W0NIM11PQyg9TylDKD1PKVtOSDJd

>  <s_glide_docking_method>  (1) 
confgen

>  <s_i_glide_gridfile>  (1) 
gpcr_5ht2c_6bqh_protein_autoprepared_prepared

>  <s_lp_Force_Field>  (1) 
S-OPLS

>  <s_lp_Variant>  (1) 
Pocket2Mol_44_num_sample_50-1

>  <s_m_source_file>  (1) 
generated__ligand_Pocket2Mol_2026-05-06_prepared.sdf

>  <GenAI_Model>  (1) 
Pocket2Mol

>  <Protein>  (1) 
GPCR_5HT2C

$$$$
Pocket2Mol_2_num_sample_50
     RDKit          3D

  0  0  0  0  0  0  0  0  0  0999 V3000
M  V30 BEGIN CTAB
M  V30 COUNTS 9 9 0 0 1
M  V30 BEGIN ATOM
M  V30 1 C 38.680534 28.044995 52.220880 0
M  V30 2 C 39.467390 28.183049 51.050479 0
M  V30 3 C 38.928002 29.071311 52.932439 0
M  V30 4 C 39.866788 29.839604 52.197276 0
M  V30 5 C 40.223965 29.305935 51.005661 0
M  V30 6 H 38.007341 27.234082 52.459945 0
M  V30 7 H 39.454638 27.444940 50.260996 0
M  V30 8 H 38.507620 29.309376 53.899155 0
M  V30 9 H 40.257263 30.776336 52.568034 0
M  V30 END ATOM
M  V30 BEGIN BOND
M  V30 1 1 2 1
M  V30 2 2 3 1
M  V30 3 1 4 3
M  V30 4 2 5 2
M  V30 5 2 5 4
M  V30 6 1 6 1
M  V30 7 1 7 2
M  V30 8 1 8 3
M  V30 9 1 9 4
M  V30 END BOND
M  V30 END CTAB
M  END
>  <i_epik_Tot_Q>  (1) 
0

>  <i_epik_Tot_abs_Q>  (1) 
0

>  <i_i_glide_confnum>  (1) 
1

>  <i_i_glide_lignum>  (1) 
3

>  <i_i_glide_posenum>  (1) 
59

>  <i_i_glide_rotatable_bonds>  (1) 
0

>  <i_lp_mmshare_version>  (1) 
72125

>  <i_m_source_file_index>  (1) 
3

>  <i_f3d_flags>  (1) 
0

>  <num_sample>  (1) 
50

>  <b_lp_Chiralities_Consistent>  (1) 
1

>  <r_epik_Charging_Adjusted_Penalty>  (1) 
0

>  <r_epik_Ionization_Penalty>  (1) 
0

>  <r_epik_Ionization_Penalty_Charging>  (1) 
0

>  <r_epik_Ionization_Penalty_Neutral>  (1) 
0

>  <r_epik_State_Penalty>  (1) 
-0

>  <r_glide_ring_energy>  (1) 
0

>  <r_i_docking_score>  (1) 
-4.9899118995832792

>  <r_i_glide_ecoul>  (1) 
-0.64999004760933854

>  <r_i_glide_eff_state_penalty>  (1) 
-0

>  <r_i_glide_einternal>  (1) 
0

>  <r_i_glide_emodel>  (1) 
-18.428453724924815

>  <r_i_glide_emodel_strain>  (1) 
0

>  <r_i_glide_energy>  (1) 
-14.137711184181533

>  <r_i_glide_erotb>  (1) 
0

>  <r_i_glide_esite>  (1) 
0

>  <r_i_glide_evdw>  (1) 
-13.487721136572194

>  <r_i_glide_gscore>  (1) 
-4.9899118995832792

>  <r_i_glide_gscore_strain>  (1) 
0

>  <r_i_glide_hbond>  (1) 
0

>  <r_i_glide_ligand_efficiency>  (1) 
-0.99798237991665584

>  <r_i_glide_ligand_efficiency_ln>  (1) 
-1.9122554615329619

>  <r_i_glide_ligand_efficiency_sa>  (1) 
-1.7065258648646466

>  <r_i_glide_lipo>  (1) 
-1.6407143771625994

>  <r_i_glide_metal>  (1) 
-0

>  <r_i_glide_rewards>  (1) 
-2.5773129584506691

>  <r_lp_Energy>  (1) 
-2.6088139999999997

>  <r_lp_tautomer_probability>  (1) 
1

>  <s_epik_cmdline>  (1) 
J2VwaWtfcHl0aG9uJywgJy1waHQnLCAnMS4wJywgJy1waCcsICc3LjQnLCAnLXRuJywgJzgnLCAnLW1hJywgJzUwMCcsICctaW1hZScsICc8aW5maWxlLm1hZT4nLCAnLW9tYWUnLCAnPG91dGZpbGUubWFlPic=

>  <s_epik_input>  (1) 
W0NIXTE9W0NIXVtDSF09Qz1bQ0hdMQ==

>  <s_glide_docking_method>  (1) 
confgen

>  <s_i_glide_gridfile>  (1) 
gpcr_5ht2c_6bqh_protein_autoprepared_prepared

>  <s_lp_Force_Field>  (1) 
S-OPLS

>  <s_lp_Variant>  (1) 
Pocket2Mol_2_num_sample_50-1

>  <s_m_source_file>  (1) 
generated__ligand_Pocket2Mol_2026-05-06_prepared.sdf

>  <GenAI_Model>  (1) 
Pocket2Mol

>  <Protein>  (1) 
GPCR_5HT2C

$$$$
Pocket2Mol_22_num_sample_50
     RDKit          3D

  0  0  0  0  0  0  0  0  0  0999 V3000
M  V30 BEGIN CTAB
M  V30 COUNTS 11 11 0 0 1
M  V30 BEGIN ATOM
M  V30 1 C 38.778432 28.852066 53.265842 0
M  V30 2 C 39.467422 29.948974 52.653535 0
M  V30 3 C 39.902316 29.621445 51.401401 0
M  V30 4 C 40.647687 30.462016 50.421231 0
M  V30 5 N 38.695215 27.756097 52.535621 0
M  V30 6 S 39.453526 27.994982 51.053502 0
M  V30 7 H 38.335387 28.852019 54.250914 0
M  V30 8 H 39.607175 30.903947 53.139352 0
M  V30 9 H 40.267403 31.483350 50.418291 0
M  V30 10 H 41.711998 30.492888 50.653522 0
M  V30 11 H 40.538825 30.064176 49.413186 0
M  V30 END ATOM
M  V30 BEGIN BOND
M  V30 1 1 2 1
M  V30 2 2 3 2
M  V30 3 1 4 3
M  V30 4 2 5 1
M  V30 5 1 6 3
M  V30 6 1 6 5
M  V30 7 1 7 1
M  V30 8 1 8 2
M  V30 9 1 9 4
M  V30 10 1 10 4
M  V30 11 1 11 4
M  V30 END BOND
M  V30 END CTAB
M  END
>  <i_epik_Tot_Q>  (1) 
0

>  <i_epik_Tot_abs_Q>  (1) 
0

>  <i_i_glide_confnum>  (1) 
1

>  <i_i_glide_lignum>  (1) 
23

>  <i_i_glide_posenum>  (1) 
52

>  <i_i_glide_rotatable_bonds>  (1) 
0

>  <i_lp_mmshare_version>  (1) 
72125

>  <i_m_source_file_index>  (1) 
23

>  <i_f3d_flags>  (1) 
0

>  <num_sample>  (1) 
50

>  <b_lp_Chiralities_Consistent>  (1) 
1

>  <r_epik_Charging_Adjusted_Penalty>  (1) 
0

>  <r_epik_Ionization_Penalty>  (1) 
2.7081824038816109e-08

>  <r_epik_Ionization_Penalty_Charging>  (1) 
0

>  <r_epik_Ionization_Penalty_Neutral>  (1) 
2.7081824038816109e-08

>  <r_epik_State_Penalty>  (1) 
-0

>  <r_glide_ring_energy>  (1) 
0

>  <r_i_docking_score>  (1) 
-4.983551212816554

>  <r_i_glide_ecoul>  (1) 
-0.16186489082890207

>  <r_i_glide_eff_state_penalty>  (1) 
-0

>  <r_i_glide_einternal>  (1) 
0

>  <r_i_glide_emodel>  (1) 
-23.885878001638851

>  <r_i_glide_emodel_strain>  (1) 
0.016230525208130508

>  <r_i_glide_energy>  (1) 
-18.336495364945694

>  <r_i_glide_erotb>  (1) 
0

>  <r_i_glide_esite>  (1) 
0

>  <r_i_glide_evdw>  (1) 
-18.174630474116793

>  <r_i_glide_gscore>  (1) 
-4.983551212816554

>  <r_i_glide_gscore_strain>  (1) 
0

>  <r_i_glide_hbond>  (1) 
0

>  <r_i_glide_ligand_efficiency>  (1) 
-0.83059186880275904

>  <r_i_glide_ligand_efficiency_ln>  (1) 
-1.785093331910341

>  <r_i_glide_ligand_efficiency_sa>  (1) 
-1.5092855890404244

>  <r_i_glide_lipo>  (1) 
-1.5262046266523541

>  <r_i_glide_metal>  (1) 
-0

>  <r_i_glide_rewards>  (1) 
-2.5243353288340251

>  <r_lp_Energy>  (1) 
1.924183

>  <r_lp_tautomer_probability>  (1) 
1

>  <s_epik_cmdline>  (1) 
J2VwaWtfcHl0aG9uJywgJy1waHQnLCAnMS4wJywgJy1waCcsICc3LjQnLCAnLXRuJywgJzgnLCAnLW1hJywgJzUwMCcsICctaW1hZScsICc8aW5maWxlLm1hZT4nLCAnLW9tYWUnLCAnPG91dGZpbGUubWFlPic=

>  <s_epik_input>  (1) 
czFuW2NIXVtjSF1jMVtDSDNd

>  <s_glide_docking_method>  (1) 
confgen

>  <s_i_glide_gridfile>  (1) 
gpcr_5ht2c_6bqh_protein_autoprepared_prepared

>  <s_lp_Force_Field>  (1) 
S-OPLS

>  <s_lp_Variant>  (1) 
Pocket2Mol_22_num_sample_50-1

>  <s_m_source_file>  (1) 
generated__ligand_Pocket2Mol_2026-05-06_prepared.sdf

>  <GenAI_Model>  (1) 
Pocket2Mol

>  <Protein>  (1) 
GPCR_5HT2C

$$$$
Pocket2Mol_35_num_sample_50
     RDKit          3D

  0  0  0  0  0  0  0  0  0  0999 V3000
M  V30 BEGIN CTAB
M  V30 COUNTS 11 11 0 0 1
M  V30 BEGIN ATOM
M  V30 1 C 39.383213 28.021964 51.056916 0
M  V30 2 O 38.553378 27.605446 52.071735 0
M  V30 3 C 38.313508 28.356334 53.236185 0
M  V30 4 O 37.560676 27.981686 54.131918 0
M  V30 5 C 39.067006 29.661189 53.276425 0
M  V30 6 C 40.026809 29.182783 51.118548 0
M  V30 7 C 39.867402 30.021224 52.256296 0
M  V30 8 H 39.438954 27.315978 50.244465 0
M  V30 9 H 38.945756 30.299687 54.139364 0
M  V30 10 H 40.671221 29.488112 50.307987 0
M  V30 11 H 40.396371 30.962540 52.301888 0
M  V30 END ATOM
M  V30 BEGIN BOND
M  V30 1 1 2 1
M  V30 2 1 3 2
M  V30 3 2 4 3
M  V30 4 1 5 3
M  V30 5 2 6 1
M  V30 6 2 7 5
M  V30 7 1 7 6
M  V30 8 1 8 1
M  V30 9 1 9 5
M  V30 10 1 10 6
M  V30 11 1 11 7
M  V30 END BOND
M  V30 END CTAB
M  END
>  <i_epik_Tot_Q>  (1) 
0

>  <i_epik_Tot_abs_Q>  (1) 
0

>  <i_i_glide_confnum>  (1) 
1

>  <i_i_glide_lignum>  (1) 
36

>  <i_i_glide_posenum>  (1) 
324

>  <i_i_glide_rotatable_bonds>  (1) 
0

>  <i_lp_mmshare_version>  (1) 
72125

>  <i_m_source_file_index>  (1) 
36

>  <i_f3d_flags>  (1) 
0

>  <num_sample>  (1) 
50

>  <b_lp_Chiralities_Consistent>  (1) 
1

>  <r_epik_Charging_Adjusted_Penalty>  (1) 
0

>  <r_epik_Ionization_Penalty>  (1) 
2.4984917370333966e-09

>  <r_epik_Ionization_Penalty_Charging>  (1) 
0

>  <r_epik_Ionization_Penalty_Neutral>  (1) 
2.4984917370333966e-09

>  <r_epik_State_Penalty>  (1) 
-0

>  <r_glide_ring_energy>  (1) 
0

>  <r_i_docking_score>  (1) 
-4.9654866352488316

>  <r_i_glide_ecoul>  (1) 
-0.36534240930861472

>  <r_i_glide_eff_state_penalty>  (1) 
-0

>  <r_i_glide_einternal>  (1) 
0

>  <r_i_glide_emodel>  (1) 
-22.841747167655011

>  <r_i_glide_emodel_strain>  (1) 
0

>  <r_i_glide_energy>  (1) 
-17.484808884158298

>  <r_i_glide_erotb>  (1) 
0

>  <r_i_glide_esite>  (1) 
0

>  <r_i_glide_evdw>  (1) 
-17.119466474849684

>  <r_i_glide_gscore>  (1) 
-4.9654866352488316

>  <r_i_glide_gscore_strain>  (1) 
0

>  <r_i_glide_hbond>  (1) 
0

>  <r_i_glide_ligand_efficiency>  (1) 
-0.70935523360697594

>  <r_i_glide_ligand_efficiency_ln>  (1) 
-1.6855526421405453

>  <r_i_glide_ligand_efficiency_sa>  (1) 
-1.3569477460295769

>  <r_i_glide_lipo>  (1) 
-1.5047119501100554

>  <r_i_glide_metal>  (1) 
-0

>  <r_i_glide_rewards>  (1) 
-2.5499999999999998

>  <r_lp_Energy>  (1) 
11.255118999999999

>  <r_lp_tautomer_probability>  (1) 
1

>  <s_epik_cmdline>  (1) 
J2VwaWtfcHl0aG9uJywgJy1waHQnLCAnMS4wJywgJy1waCcsICc3LjQnLCAnLXRuJywgJzgnLCAnLW1hJywgJzUwMCcsICctaW1hZScsICc8aW5maWxlLm1hZT4nLCAnLW9tYWUnLCAnPG91dGZpbGUubWFlPic=

>  <s_epik_input>  (1) 
W2NIXTFbY0hdW2NIXVtjSF1vYzE9Tw==

>  <s_glide_docking_method>  (1) 
confgen

>  <s_i_glide_gridfile>  (1) 
gpcr_5ht2c_6bqh_protein_autoprepared_prepared

>  <s_lp_Force_Field>  (1) 
S-OPLS

>  <s_lp_Variant>  (1) 
Pocket2Mol_35_num_sample_50-1

>  <s_m_source_file>  (1) 
generated__ligand_Pocket2Mol_2026-05-06_prepared.sdf

>  <GenAI_Model>  (1) 
Pocket2Mol

>  <Protein>  (1) 
GPCR_5HT2C

$$$$
Pocket2Mol_2_num_sample_50
     RDKit          3D

  0  0  0  0  0  0  0  0  0  0999 V3000
M  V30 BEGIN CTAB
M  V30 COUNTS 9 9 0 0 1
M  V30 BEGIN ATOM
M  V30 1 C 39.864454 30.197452 52.530573 0
M  V30 2 C 40.287893 29.955411 51.200931 0
M  V30 3 C 39.103992 29.221444 52.839856 0
M  V30 4 C 39.067401 28.379897 51.700570 0
M  V30 5 C 39.807450 28.814881 50.653502 0
M  V30 6 H 40.128482 31.039793 53.153951 0
M  V30 7 H 40.946587 30.632975 50.676436 0
M  V30 8 H 38.593191 29.067131 53.779227 0
M  V30 9 H 38.492127 27.465031 51.680362 0
M  V30 END ATOM
M  V30 BEGIN BOND
M  V30 1 1 2 1
M  V30 2 2 3 1
M  V30 3 1 4 3
M  V30 4 2 5 2
M  V30 5 2 5 4
M  V30 6 1 6 1
M  V30 7 1 7 2
M  V30 8 1 8 3
M  V30 9 1 9 4
M  V30 END BOND
M  V30 END CTAB
M  END
>  <i_epik_Tot_Q>  (1) 
0

>  <i_epik_Tot_abs_Q>  (1) 
0

>  <i_i_glide_confnum>  (1) 
1

>  <i_i_glide_lignum>  (1) 
3

>  <i_i_glide_posenum>  (1) 
226

>  <i_i_glide_rotatable_bonds>  (1) 
0

>  <i_lp_mmshare_version>  (1) 
72125

>  <i_m_source_file_index>  (1) 
3

>  <i_f3d_flags>  (1) 
0

>  <num_sample>  (1) 
50

>  <b_lp_Chiralities_Consistent>  (1) 
1

>  <r_epik_Charging_Adjusted_Penalty>  (1) 
0

>  <r_epik_Ionization_Penalty>  (1) 
0

>  <r_epik_Ionization_Penalty_Charging>  (1) 
0

>  <r_epik_Ionization_Penalty_Neutral>  (1) 
0

>  <r_epik_State_Penalty>  (1) 
-0

>  <r_glide_ring_energy>  (1) 
0

>  <r_i_docking_score>  (1) 
-4.9592058821858283

>  <r_i_glide_ecoul>  (1) 
-0.62729499096828634

>  <r_i_glide_eff_state_penalty>  (1) 
-0

>  <r_i_glide_einternal>  (1) 
0

>  <r_i_glide_emodel>  (1) 
-17.843605757094661

>  <r_i_glide_emodel_strain>  (1) 
0

>  <r_i_glide_energy>  (1) 
-13.57926681179663

>  <r_i_glide_erotb>  (1) 
0

>  <r_i_glide_esite>  (1) 
0

>  <r_i_glide_evdw>  (1) 
-12.951971820828344

>  <r_i_glide_gscore>  (1) 
-4.9592058821858283

>  <r_i_glide_gscore_strain>  (1) 
0

>  <r_i_glide_hbond>  (1) 
0

>  <r_i_glide_ligand_efficiency>  (1) 
-0.99184117643716563

>  <r_i_glide_ligand_efficiency_ln>  (1) 
-1.9004881697146221

>  <r_i_glide_ligand_efficiency_sa>  (1) 
-1.6960245546310713

>  <r_i_glide_lipo>  (1) 
-1.5624805023132862

>  <r_i_glide_metal>  (1) 
-0

>  <r_i_glide_rewards>  (1) 
-2.6550325401858825

>  <r_lp_Energy>  (1) 
-2.6088139999999997

>  <r_lp_tautomer_probability>  (1) 
1

>  <s_epik_cmdline>  (1) 
J2VwaWtfcHl0aG9uJywgJy1waHQnLCAnMS4wJywgJy1waCcsICc3LjQnLCAnLXRuJywgJzgnLCAnLW1hJywgJzUwMCcsICctaW1hZScsICc8aW5maWxlLm1hZT4nLCAnLW9tYWUnLCAnPG91dGZpbGUubWFlPic=

>  <s_epik_input>  (1) 
W0NIXTE9W0NIXVtDSF09Qz1bQ0hdMQ==

>  <s_glide_docking_method>  (1) 
confgen

>  <s_i_glide_gridfile>  (1) 
gpcr_5ht2c_6bqh_protein_autoprepared_prepared

>  <s_lp_Force_Field>  (1) 
S-OPLS

>  <s_lp_Variant>  (1) 
Pocket2Mol_2_num_sample_50-1

>  <s_m_source_file>  (1) 
generated__ligand_Pocket2Mol_2026-05-06_prepared.sdf

>  <GenAI_Model>  (1) 
Pocket2Mol

>  <Protein>  (1) 
GPCR_5HT2C

$$$$
Pocket2Mol_14_num_sample_50
     RDKit          3D

  0  0  0  0  0  0  0  0  0  0999 V3000
M  V30 BEGIN CTAB
M  V30 COUNTS 18 18 0 0 1
M  V30 BEGIN ATOM
M  V30 1 C 38.926207 28.431441 51.846652 0
M  V30 2 C 39.867409 29.638727 51.765135 0
M  V30 3 C 38.716694 28.191427 53.341588 0
M  V30 4 C 39.708796 30.402919 53.092890 0
M  V30 5 C 38.710114 29.601735 53.938305 0
M  V30 6 C 37.467402 27.373386 53.667583 0
M  V30 7 H 39.322942 27.556536 51.329822 0
M  V30 8 H 37.972664 28.681898 51.381546 0
M  V30 9 H 40.897358 29.299183 51.650484 0
M  V30 10 H 39.636984 30.265133 50.902180 0
M  V30 11 H 39.581105 27.652227 53.727588 0
M  V30 12 H 40.667425 30.462616 53.607425 0
M  V30 13 H 39.368108 31.427454 52.939319 0
M  V30 14 H 37.716947 30.044413 53.848490 0
M  V30 15 H 38.969021 29.604812 54.997616 0
M  V30 16 H 36.566635 27.869082 53.307081 0
M  V30 17 H 37.363651 27.226471 54.742541 0
M  V30 18 H 37.509190 26.390731 53.198738 0
M  V30 END ATOM
M  V30 BEGIN BOND
M  V30 1 1 2 1
M  V30 2 1 3 1
M  V30 3 1 4 2
M  V30 4 1 5 3
M  V30 5 1 5 4
M  V30 6 1 6 3
M  V30 7 1 7 1
M  V30 8 1 8 1
M  V30 9 1 9 2
M  V30 10 1 10 2
M  V30 11 1 11 3
M  V30 12 1 12 4
M  V30 13 1 13 4
M  V30 14 1 14 5
M  V30 15 1 15 5
M  V30 16 1 16 6
M  V30 17 1 17 6
M  V30 18 1 18 6
M  V30 END BOND
M  V30 END CTAB
M  END
>  <i_epik_Tot_Q>  (1) 
0

>  <i_epik_Tot_abs_Q>  (1) 
0

>  <i_i_glide_confnum>  (1) 
1

>  <i_i_glide_lignum>  (1) 
15

>  <i_i_glide_posenum>  (1) 
17

>  <i_i_glide_rotatable_bonds>  (1) 
0

>  <i_lp_mmshare_version>  (1) 
72125

>  <i_m_source_file_index>  (1) 
15

>  <i_f3d_flags>  (1) 
0

>  <num_sample>  (1) 
50

>  <b_lp_Chiralities_Consistent>  (1) 
1

>  <r_epik_Charging_Adjusted_Penalty>  (1) 
0

>  <r_epik_Ionization_Penalty>  (1) 
0

>  <r_epik_Ionization_Penalty_Charging>  (1) 
0

>  <r_epik_Ionization_Penalty_Neutral>  (1) 
0

>  <r_epik_State_Penalty>  (1) 
-0

>  <r_glide_ring_energy>  (1) 
0

>  <r_i_docking_score>  (1) 
-4.9530558364807007

>  <r_i_glide_ecoul>  (1) 
-0.069245817390975489

>  <r_i_glide_eff_state_penalty>  (1) 
-0

>  <r_i_glide_einternal>  (1) 
0

>  <r_i_glide_emodel>  (1) 
-19.677343650544643

>  <r_i_glide_emodel_strain>  (1) 
0

>  <r_i_glide_energy>  (1) 
-14.849401331447055

>  <r_i_glide_erotb>  (1) 
0

>  <r_i_glide_esite>  (1) 
0

>  <r_i_glide_evdw>  (1) 
-14.78015551405608

>  <r_i_glide_gscore>  (1) 
-4.9530558364807007

>  <r_i_glide_gscore_strain>  (1) 
0

>  <r_i_glide_hbond>  (1) 
0

>  <r_i_glide_ligand_efficiency>  (1) 
-0.82550930608011674

>  <r_i_glide_ligand_efficiency_ln>  (1) 
-1.774169978135782

>  <r_i_glide_ligand_efficiency_sa>  (1) 
-1.5000499596527501

>  <r_i_glide_lipo>  (1) 
-1.7591984993798007

>  <r_i_glide_metal>  (1) 
-0

>  <r_i_glide_rewards>  (1) 
-2.4444626887894501

>  <r_lp_Energy>  (1) 
6.4120089999999994

>  <r_lp_tautomer_probability>  (1) 
1

>  <s_epik_cmdline>  (1) 
J2VwaWtfcHl0aG9uJywgJy1waHQnLCAnMS4wJywgJy1waCcsICc3LjQnLCAnLXRuJywgJzgnLCAnLW1hJywgJzUwMCcsICctaW1hZScsICc8aW5maWxlLm1hZT4nLCAnLW9tYWUnLCAnPG91dGZpbGUubWFlPic=

>  <s_epik_input>  (1) 
W0NIM11bQ0hdMVtDSDJdW0NIMl1bQ0gyXVtDSDJdMQ==

>  <s_glide_docking_method>  (1) 
confgen

>  <s_i_glide_gridfile>  (1) 
gpcr_5ht2c_6bqh_protein_autoprepared_prepared

>  <s_lp_Force_Field>  (1) 
S-OPLS

>  <s_lp_Variant>  (1) 
Pocket2Mol_14_num_sample_50-1

>  <s_m_source_file>  (1) 
generated__ligand_Pocket2Mol_2026-05-06_prepared.sdf

>  <GenAI_Model>  (1) 
Pocket2Mol

>  <Protein>  (1) 
GPCR_5HT2C

$$$$
Pocket2Mol_5_num_sample_50
     RDKit          3D

  0  0  0  0  0  0  0  0  0  0999 V3000
M  V30 BEGIN CTAB
M  V30 COUNTS 13 13 0 0 1
M  V30 BEGIN ATOM
M  V30 1 C 39.067416 28.271335 51.506896 0
M  V30 2 C 39.889548 29.268310 50.789034 0
M  V30 3 C 39.018604 29.043597 52.907065 0
M  V30 4 C 39.833801 30.421425 52.865694 0
M  V30 5 C 40.267400 30.319791 51.453518 0
M  V30 6 H 38.083381 28.153801 51.053521 0
M  V30 7 H 39.571845 27.306700 51.568100 0
M  V30 8 H 40.150860 29.104019 49.753743 0
M  V30 9 H 39.416483 28.401626 53.693733 0
M  V30 10 H 37.980654 29.239571 53.178635 0
M  V30 11 H 40.667388 30.436066 53.563692 0
M  V30 12 H 39.200497 31.293195 53.035078 0
M  V30 13 H 40.869497 31.104407 51.017638 0
M  V30 END ATOM
M  V30 BEGIN BOND
M  V30 1 1 2 1
M  V30 2 1 3 1
M  V30 3 1 4 3
M  V30 4 2 5 2
M  V30 5 1 5 4
M  V30 6 1 6 1
M  V30 7 1 7 1
M  V30 8 1 8 2
M  V30 9 1 9 3
M  V30 10 1 10 3
M  V30 11 1 11 4
M  V30 12 1 12 4
M  V30 13 1 13 5
M  V30 END BOND
M  V30 END CTAB
M  END
>  <i_epik_Tot_Q>  (1) 
0

>  <i_epik_Tot_abs_Q>  (1) 
0

>  <i_i_glide_confnum>  (1) 
1

>  <i_i_glide_lignum>  (1) 
6

>  <i_i_glide_posenum>  (1) 
7

>  <i_i_glide_rotatable_bonds>  (1) 
0

>  <i_lp_mmshare_version>  (1) 
72125

>  <i_m_source_file_index>  (1) 
6

>  <i_f3d_flags>  (1) 
0

>  <num_sample>  (1) 
50

>  <b_lp_Chiralities_Consistent>  (1) 
1

>  <r_epik_Charging_Adjusted_Penalty>  (1) 
0

>  <r_epik_Ionization_Penalty>  (1) 
0

>  <r_epik_Ionization_Penalty_Charging>  (1) 
0

>  <r_epik_Ionization_Penalty_Neutral>  (1) 
0

>  <r_epik_State_Penalty>  (1) 
-0

>  <r_glide_ring_energy>  (1) 
0

>  <r_i_docking_score>  (1) 
-4.9425705191417215

>  <r_i_glide_ecoul>  (1) 
-0.29536099885845041

>  <r_i_glide_eff_state_penalty>  (1) 
-0

>  <r_i_glide_einternal>  (1) 
0

>  <r_i_glide_emodel>  (1) 
-17.78019102677019

>  <r_i_glide_emodel_strain>  (1) 
0

>  <r_i_glide_energy>  (1) 
-13.558910315312609

>  <r_i_glide_erotb>  (1) 
0

>  <r_i_glide_esite>  (1) 
0

>  <r_i_glide_evdw>  (1) 
-13.263549316454158

>  <r_i_glide_gscore>  (1) 
-4.9425705191417215

>  <r_i_glide_gscore_strain>  (1) 
0

>  <r_i_glide_hbond>  (1) 
0

>  <r_i_glide_ligand_efficiency>  (1) 
-0.98851410382834426

>  <r_i_glide_ligand_efficiency_ln>  (1) 
-1.8941130944676356

>  <r_i_glide_ligand_efficiency_sa>  (1) 
-1.6903353404971397

>  <r_i_glide_lipo>  (1) 
-1.6204558322654663

>  <r_i_glide_metal>  (1) 
-0

>  <r_i_glide_rewards>  (1) 
-2.6146330712247798

>  <r_lp_Energy>  (1) 
-2.1713199999999997

>  <r_lp_tautomer_probability>  (1) 
1

>  <s_epik_cmdline>  (1) 
J2VwaWtfcHl0aG9uJywgJy1waHQnLCAnMS4wJywgJy1waCcsICc3LjQnLCAnLXRuJywgJzgnLCAnLW1hJywgJzUwMCcsICctaW1hZScsICc8aW5maWxlLm1hZT4nLCAnLW9tYWUnLCAnPG91dGZpbGUubWFlPic=

>  <s_epik_input>  (1) 
W0NIMl0xW0NIXT1bQ0hdW0NIMl1bQ0gyXTE=

>  <s_glide_docking_method>  (1) 
confgen

>  <s_i_glide_gridfile>  (1) 
gpcr_5ht2c_6bqh_protein_autoprepared_prepared

>  <s_lp_Force_Field>  (1) 
S-OPLS

>  <s_lp_Variant>  (1) 
Pocket2Mol_5_num_sample_50-1

>  <s_m_source_file>  (1) 
generated__ligand_Pocket2Mol_2026-05-06_prepared.sdf

>  <GenAI_Model>  (1) 
Pocket2Mol

>  <Protein>  (1) 
GPCR_5HT2C

$$$$
Pocket2Mol_15_num_sample_50
     RDKit          3D

  0  0  0  0  0  0  0  0  0  0999 V3000
M  V30 BEGIN CTAB
M  V30 COUNTS 16 16 0 0 1
M  V30 BEGIN ATOM
M  V30 1 C 38.997671 29.306299 53.118772 0
M  V30 2 C 39.818819 30.565956 52.797728 0
M  V30 3 C 39.000368 28.467198 51.835624 0
M  V30 4 C 40.267385 30.430180 51.333623 0
M  V30 5 C 40.222039 28.934284 51.053528 0
M  V30 6 O 39.067460 27.090876 52.112054 0
M  V30 7 H 37.982121 29.548831 53.434300 0
M  V30 8 H 39.467400 28.766009 53.942074 0
M  V30 9 H 39.242642 31.478352 52.955417 0
M  V30 10 H 40.667461 30.622458 53.473108 0
M  V30 11 H 38.101612 28.674612 51.254592 0
M  V30 12 H 39.557622 30.941953 50.681943 0
M  V30 13 H 41.249351 30.861658 51.140390 0
M  V30 14 H 41.121660 28.464432 51.453325 0
M  V30 15 H 40.159000 28.702030 49.989940 0
M  V30 16 H 38.211029 26.800996 52.392016 0
M  V30 END ATOM
M  V30 BEGIN BOND
M  V30 1 1 2 1
M  V30 2 1 3 1
M  V30 3 1 4 2
M  V30 4 1 5 3
M  V30 5 1 5 4
M  V30 6 1 6 3
M  V30 7 1 7 1
M  V30 8 1 8 1
M  V30 9 1 9 2
M  V30 10 1 10 2
M  V30 11 1 11 3
M  V30 12 1 12 4
M  V30 13 1 13 4
M  V30 14 1 14 5
M  V30 15 1 15 5
M  V30 16 1 16 6
M  V30 END BOND
M  V30 END CTAB
M  END
>  <i_epik_Tot_Q>  (1) 
0

>  <i_epik_Tot_abs_Q>  (1) 
0

>  <i_i_glide_confnum>  (1) 
2

>  <i_i_glide_lignum>  (1) 
16

>  <i_i_glide_posenum>  (1) 
377

>  <i_i_glide_rotatable_bonds>  (1) 
1

>  <i_lp_mmshare_version>  (1) 
72125

>  <i_m_source_file_index>  (1) 
16

>  <i_f3d_flags>  (1) 
0

>  <num_sample>  (1) 
50

>  <b_lp_Chiralities_Consistent>  (1) 
1

>  <r_epik_Charging_Adjusted_Penalty>  (1) 
0

>  <r_epik_Ionization_Penalty>  (1) 
4.538991431931509e-07

>  <r_epik_Ionization_Penalty_Charging>  (1) 
0

>  <r_epik_Ionization_Penalty_Neutral>  (1) 
4.538991431931509e-07

>  <r_epik_State_Penalty>  (1) 
-0

>  <r_glide_ring_energy>  (1) 
0.076601694165865028

>  <r_i_docking_score>  (1) 
-4.9275563890067122

>  <r_i_glide_ecoul>  (1) 
-0.76359474142914185

>  <r_i_glide_eff_state_penalty>  (1) 
-0

>  <r_i_glide_einternal>  (1) 
0.37146265575895415

>  <r_i_glide_emodel>  (1) 
-19.943842459103685

>  <r_i_glide_emodel_strain>  (1) 
0.062125906066114567

>  <r_i_glide_energy>  (1) 
-15.394397171894035

>  <r_i_glide_erotb>  (1) 
0

>  <r_i_glide_esite>  (1) 
0

>  <r_i_glide_evdw>  (1) 
-14.630802430464893

>  <r_i_glide_gscore>  (1) 
-4.9275563890067122

>  <r_i_glide_gscore_strain>  (1) 
0

>  <r_i_glide_hbond>  (1) 
0

>  <r_i_glide_ligand_efficiency>  (1) 
-0.82125939816778537

>  <r_i_glide_ligand_efficiency_ln>  (1) 
-1.7650361513304809

>  <r_i_glide_ligand_efficiency_sa>  (1) 
-1.4923273644676125

>  <r_i_glide_lipo>  (1) 
-1.5562943420337283

>  <r_i_glide_metal>  (1) 
-0

>  <r_i_glide_rewards>  (1) 
-2.5251827142353678

>  <r_lp_Energy>  (1) 
8.9029089999999993

>  <r_lp_tautomer_probability>  (1) 
1

>  <s_epik_cmdline>  (1) 
J2VwaWtfcHl0aG9uJywgJy1waHQnLCAnMS4wJywgJy1waCcsICc3LjQnLCAnLXRuJywgJzgnLCAnLW1hJywgJzUwMCcsICctaW1hZScsICc8aW5maWxlLm1hZT4nLCAnLW9tYWUnLCAnPG91dGZpbGUubWFlPic=

>  <s_epik_input>  (1) 
W09IXVtDSF0xW0NIMl1bQ0gyXVtDSDJdW0NIMl0x

>  <s_glide_docking_method>  (1) 
confgen

>  <s_i_glide_gridfile>  (1) 
gpcr_5ht2c_6bqh_protein_autoprepared_prepared

>  <s_lp_Force_Field>  (1) 
S-OPLS

>  <s_lp_Variant>  (1) 
Pocket2Mol_15_num_sample_50-1

>  <s_m_source_file>  (1) 
generated__ligand_Pocket2Mol_2026-05-06_prepared.sdf

>  <GenAI_Model>  (1) 
Pocket2Mol

>  <Protein>  (1) 
GPCR_5HT2C

$$$$
Pocket2Mol_41_num_sample_50
     RDKit          3D

  0  0  0  0  0  0  0  0  0  0999 V3000
M  V30 BEGIN CTAB
M  V30 COUNTS 15 15 0 0 1
M  V30 BEGIN ATOM
M  V30 1 C 38.951873 27.683041 51.426210 0
M  V30 2 O 38.950970 27.498997 52.829372 0
M  V30 3 C 38.382098 28.589610 53.535163 0
M  V30 4 C 40.038108 28.676932 51.013365 0
M  V30 5 O 39.687543 30.021421 51.291985 0
M  V30 6 C 39.301481 29.794158 53.640218 0
M  V30 7 C 39.867402 30.421433 52.589991 0
M  V30 8 H 39.173519 26.715987 50.975293 0
M  V30 9 H 37.970550 27.980610 51.054086 0
M  V30 10 H 38.181355 28.244595 54.549505 0
M  V30 11 H 37.418142 28.882231 53.116734 0
M  V30 12 H 41.002958 28.421428 51.453526 0
M  V30 13 H 40.173333 28.611965 49.933528 0
M  V30 14 H 39.488859 30.164932 54.637435 0
M  V30 15 H 40.512696 31.282560 52.668128 0
M  V30 END ATOM
M  V30 BEGIN BOND
M  V30 1 1 2 1
M  V30 2 1 3 2
M  V30 3 1 4 1
M  V30 4 1 5 4
M  V30 5 1 6 3
M  V30 6 1 7 5
M  V30 7 2 7 6
M  V30 8 1 8 1
M  V30 9 1 9 1
M  V30 10 1 10 3
M  V30 11 1 11 3
M  V30 12 1 12 4
M  V30 13 1 13 4
M  V30 14 1 14 6
M  V30 15 1 15 7
M  V30 END BOND
M  V30 END CTAB
M  END
>  <i_epik_Tot_Q>  (1) 
0

>  <i_epik_Tot_abs_Q>  (1) 
0

>  <i_i_glide_confnum>  (1) 
2

>  <i_i_glide_lignum>  (1) 
42

>  <i_i_glide_posenum>  (1) 
303

>  <i_i_glide_rotatable_bonds>  (1) 
0

>  <i_lp_mmshare_version>  (1) 
72125

>  <i_m_source_file_index>  (1) 
42

>  <i_f3d_flags>  (1) 
0

>  <num_sample>  (1) 
50

>  <b_lp_Chiralities_Consistent>  (1) 
1

>  <r_epik_Charging_Adjusted_Penalty>  (1) 
0

>  <r_epik_Ionization_Penalty>  (1) 
5.6701613537443791e-14

>  <r_epik_Ionization_Penalty_Charging>  (1) 
0

>  <r_epik_Ionization_Penalty_Neutral>  (1) 
5.6701613537443791e-14

>  <r_epik_State_Penalty>  (1) 
-0

>  <r_glide_ring_energy>  (1) 
0.00079047383587571227

>  <r_i_docking_score>  (1) 
-4.9273049695976052

>  <r_i_glide_ecoul>  (1) 
-0.42206238885293929

>  <r_i_glide_eff_state_penalty>  (1) 
-0

>  <r_i_glide_einternal>  (1) 
0

>  <r_i_glide_emodel>  (1) 
-21.560664121442137

>  <r_i_glide_emodel_strain>  (1) 
0

>  <r_i_glide_energy>  (1) 
-16.297219663708038

>  <r_i_glide_erotb>  (1) 
0

>  <r_i_glide_esite>  (1) 
0

>  <r_i_glide_evdw>  (1) 
-15.875157274855098

>  <r_i_glide_gscore>  (1) 
-4.9273049695976052

>  <r_i_glide_gscore_strain>  (1) 
0

>  <r_i_glide_hbond>  (1) 
0

>  <r_i_glide_ligand_efficiency>  (1) 
-0.70390070994251508

>  <r_i_glide_ligand_efficiency_ln>  (1) 
-1.6725917357587026

>  <r_i_glide_ligand_efficiency_sa>  (1) 
-1.3465136176246597

>  <r_i_glide_lipo>  (1) 
-1.5127373453329216

>  <r_i_glide_metal>  (1) 
-0

>  <r_i_glide_rewards>  (1) 
-2.5575004021939876

>  <r_lp_Energy>  (1) 
7.3473649999999999

>  <r_lp_tautomer_probability>  (1) 
1

>  <s_epik_cmdline>  (1) 
J2VwaWtfcHl0aG9uJywgJy1waHQnLCAnMS4wJywgJy1waCcsICc3LjQnLCAnLXRuJywgJzgnLCAnLW1hJywgJzUwMCcsICctaW1hZScsICc8aW5maWxlLm1hZT4nLCAnLW9tYWUnLCAnPG91dGZpbGUubWFlPic=

>  <s_epik_input>  (1) 
W0NIMl0xT1tDSDJdW0NIXT1bQ0hdT1tDSDJdMQ==

>  <s_glide_docking_method>  (1) 
confgen

>  <s_i_glide_gridfile>  (1) 
gpcr_5ht2c_6bqh_protein_autoprepared_prepared

>  <s_lp_Force_Field>  (1) 
S-OPLS

>  <s_lp_Variant>  (1) 
Pocket2Mol_41_num_sample_50-1

>  <s_m_source_file>  (1) 
generated__ligand_Pocket2Mol_2026-05-06_prepared.sdf

>  <GenAI_Model>  (1) 
Pocket2Mol

>  <Protein>  (1) 
GPCR_5HT2C

$$$$
Pocket2Mol_2_num_sample_50
     RDKit          3D

  0  0  0  0  0  0  0  0  0  0999 V3000
M  V30 BEGIN CTAB
M  V30 COUNTS 9 9 0 0 1
M  V30 BEGIN ATOM
M  V30 1 C 40.250623 30.335126 51.029955 0
M  V30 2 C 39.952762 29.142504 50.324230 0
M  V30 3 C 39.867404 30.139920 52.228054 0
M  V30 4 C 39.339024 28.825609 52.257694 0
M  V30 5 C 39.381727 28.169016 51.072732 0
M  V30 6 H 40.710133 31.227910 50.632489 0
M  V30 7 H 40.172624 29.028514 49.272821 0
M  V30 8 H 39.938873 30.835568 53.056016 0
M  V30 9 H 38.940358 28.391599 53.163263 0
M  V30 END ATOM
M  V30 BEGIN BOND
M  V30 1 1 2 1
M  V30 2 2 3 1
M  V30 3 1 4 3
M  V30 4 2 5 2
M  V30 5 2 5 4
M  V30 6 1 6 1
M  V30 7 1 7 2
M  V30 8 1 8 3
M  V30 9 1 9 4
M  V30 END BOND
M  V30 END CTAB
M  END
>  <i_epik_Tot_Q>  (1) 
0

>  <i_epik_Tot_abs_Q>  (1) 
0

>  <i_i_glide_confnum>  (1) 
1

>  <i_i_glide_lignum>  (1) 
3

>  <i_i_glide_posenum>  (1) 
69

>  <i_i_glide_rotatable_bonds>  (1) 
0

>  <i_lp_mmshare_version>  (1) 
72125

>  <i_m_source_file_index>  (1) 
3

>  <i_f3d_flags>  (1) 
0

>  <num_sample>  (1) 
50

>  <b_lp_Chiralities_Consistent>  (1) 
1

>  <r_epik_Charging_Adjusted_Penalty>  (1) 
0

>  <r_epik_Ionization_Penalty>  (1) 
0

>  <r_epik_Ionization_Penalty_Charging>  (1) 
0

>  <r_epik_Ionization_Penalty_Neutral>  (1) 
0

>  <r_epik_State_Penalty>  (1) 
-0

>  <r_glide_ring_energy>  (1) 
0

>  <r_i_docking_score>  (1) 
-4.9175488146237107

>  <r_i_glide_ecoul>  (1) 
-0.34478722268487327

>  <r_i_glide_eff_state_penalty>  (1) 
-0

>  <r_i_glide_einternal>  (1) 
0

>  <r_i_glide_emodel>  (1) 
-17.889920570420959

>  <r_i_glide_emodel_strain>  (1) 
0

>  <r_i_glide_energy>  (1) 
-13.661401847104466

>  <r_i_glide_erotb>  (1) 
0

>  <r_i_glide_esite>  (1) 
0

>  <r_i_glide_evdw>  (1) 
-13.316614624419593

>  <r_i_glide_gscore>  (1) 
-4.9175488146237107

>  <r_i_glide_gscore_strain>  (1) 
0

>  <r_i_glide_hbond>  (1) 
0

>  <r_i_glide_ligand_efficiency>  (1) 
-0.98350976292474213

>  <r_i_glide_ligand_efficiency_ln>  (1) 
-1.8845241694356274

>  <r_i_glide_ligand_efficiency_sa>  (1) 
-1.6817780379230098

>  <r_i_glide_lipo>  (1) 
-1.6500000000000001

>  <r_i_glide_metal>  (1) 
-0

>  <r_i_glide_rewards>  (1) 
-2.5499999999999998

>  <r_lp_Energy>  (1) 
-2.6088139999999997

>  <r_lp_tautomer_probability>  (1) 
1

>  <s_epik_cmdline>  (1) 
J2VwaWtfcHl0aG9uJywgJy1waHQnLCAnMS4wJywgJy1waCcsICc3LjQnLCAnLXRuJywgJzgnLCAnLW1hJywgJzUwMCcsICctaW1hZScsICc8aW5maWxlLm1hZT4nLCAnLW9tYWUnLCAnPG91dGZpbGUubWFlPic=

>  <s_epik_input>  (1) 
W0NIXTE9W0NIXVtDSF09Qz1bQ0hdMQ==

>  <s_glide_docking_method>  (1) 
confgen

>  <s_i_glide_gridfile>  (1) 
gpcr_5ht2c_6bqh_protein_autoprepared_prepared

>  <s_lp_Force_Field>  (1) 
S-OPLS

>  <s_lp_Variant>  (1) 
Pocket2Mol_2_num_sample_50-1

>  <s_m_source_file>  (1) 
generated__ligand_Pocket2Mol_2026-05-06_prepared.sdf

>  <GenAI_Model>  (1) 
Pocket2Mol

>  <Protein>  (1) 
GPCR_5HT2C

$$$$
Pocket2Mol_30_num_sample_50
     RDKit          3D

  0  0  0  0  0  0  0  0  0  0999 V3000
M  V30 BEGIN CTAB
M  V30 COUNTS 15 15 0 0 1
M  V30 BEGIN ATOM
M  V30 1 C 40.843281 30.487450 50.526652 0
M  V30 2 C 40.301054 29.528606 49.466815 0
M  V30 3 O 39.854474 28.444743 50.253562 0
M  V30 4 O 40.197101 30.090157 51.722179 0
M  V30 5 C 39.330203 29.073149 51.362276 0
M  V30 6 C 39.194317 28.073763 52.517405 0
M  V30 7 O 37.867382 27.621398 52.672435 0
M  V30 8 H 40.616902 31.523312 50.279161 0
M  V30 9 H 41.921964 30.384116 50.649741 0
M  V30 10 H 39.467408 29.984073 48.940854 0
M  V30 11 H 41.036147 29.238799 48.715313 0
M  V30 12 H 38.371156 29.516580 51.099466 0
M  V30 13 H 39.467404 28.580070 53.443842 0
M  V30 14 H 39.880884 27.238514 52.380000 0
M  V30 15 H 37.616721 27.113402 51.911585 0
M  V30 END ATOM
M  V30 BEGIN BOND
M  V30 1 1 2 1
M  V30 2 1 3 2
M  V30 3 1 4 1
M  V30 4 1 5 3
M  V30 5 1 5 4
M  V30 6 1 6 5
M  V30 7 1 7 6
M  V30 8 1 8 1
M  V30 9 1 9 1
M  V30 10 1 10 2
M  V30 11 1 11 2
M  V30 12 1 12 5
M  V30 13 1 13 6
M  V30 14 1 14 6
M  V30 15 1 15 7
M  V30 END BOND
M  V30 END CTAB
M  END
>  <i_epik_Tot_Q>  (1) 
0

>  <i_epik_Tot_abs_Q>  (1) 
0

>  <i_i_glide_confnum>  (1) 
1

>  <i_i_glide_lignum>  (1) 
31

>  <i_i_glide_posenum>  (1) 
257

>  <i_i_glide_rotatable_bonds>  (1) 
2

>  <i_lp_mmshare_version>  (1) 
72125

>  <i_m_source_file_index>  (1) 
31

>  <i_f3d_flags>  (1) 
0

>  <num_sample>  (1) 
50

>  <b_lp_Chiralities_Consistent>  (1) 
1

>  <r_epik_Charging_Adjusted_Penalty>  (1) 
0

>  <r_epik_Ionization_Penalty>  (1) 
3.4422651255072934e-07

>  <r_epik_Ionization_Penalty_Charging>  (1) 
0

>  <r_epik_Ionization_Penalty_Neutral>  (1) 
3.4422651255072934e-07

>  <r_epik_State_Penalty>  (1) 
-0

>  <r_glide_ring_energy>  (1) 
0

>  <r_i_docking_score>  (1) 
-4.9167660318165929

>  <r_i_glide_ecoul>  (1) 
-1.6193709516555965

>  <r_i_glide_eff_state_penalty>  (1) 
-0

>  <r_i_glide_einternal>  (1) 
0.2304024326145927

>  <r_i_glide_emodel>  (1) 
-20.423094123665425

>  <r_i_glide_emodel_strain>  (1) 
0.10826647751033036

>  <r_i_glide_energy>  (1) 
-15.167111690714121

>  <r_i_glide_erotb>  (1) 
0

>  <r_i_glide_esite>  (1) 
0

>  <r_i_glide_evdw>  (1) 
-13.547740739058524

>  <r_i_glide_gscore>  (1) 
-4.9167660318165929

>  <r_i_glide_gscore_strain>  (1) 
0

>  <r_i_glide_hbond>  (1) 
-0.14954055661214352

>  <r_i_glide_ligand_efficiency>  (1) 
-0.70239514740237041

>  <r_i_glide_ligand_efficiency_ln>  (1) 
-1.6690142546924889

>  <r_i_glide_ligand_efficiency_sa>  (1) 
-1.3436335800940031

>  <r_i_glide_lipo>  (1) 
-0.83997820188432759

>  <r_i_glide_metal>  (1) 
-0

>  <r_i_glide_rewards>  (1) 
-3.0069545936188553

>  <r_lp_Energy>  (1) 
-10.260740999999999

>  <r_lp_tautomer_probability>  (1) 
1

>  <s_epik_Chemistry_Notes>  (1) 
This compound contains an acetal/aminal-like group ( X-CH(R)-Y where X, Y are N, S, or O) that may be acid/base labile, releasing an aldehyde.

>  <s_epik_cmdline>  (1) 
J2VwaWtfcHl0aG9uJywgJy1waHQnLCAnMS4wJywgJy1waCcsICc3LjQnLCAnLXRuJywgJzgnLCAnLW1hJywgJzUwMCcsICctaW1hZScsICc8aW5maWxlLm1hZT4nLCAnLW9tYWUnLCAnPG91dGZpbGUubWFlPic=

>  <s_epik_input>  (1) 
TzFbQ0gyXVtDSDJdT1tDSF0xW0NIMl1bT0hd

>  <s_glide_docking_method>  (1) 
confgen

>  <s_i_glide_gridfile>  (1) 
gpcr_5ht2c_6bqh_protein_autoprepared_prepared

>  <s_lp_Force_Field>  (1) 
S-OPLS

>  <s_lp_Variant>  (1) 
Pocket2Mol_30_num_sample_50-1

>  <s_m_source_file>  (1) 
generated__ligand_Pocket2Mol_2026-05-06_prepared.sdf

>  <GenAI_Model>  (1) 
Pocket2Mol

>  <Protein>  (1) 
GPCR_5HT2C

$$$$
Pocket2Mol_22_num_sample_50
     RDKit          3D

  0  0  0  0  0  0  0  0  0  0999 V3000
M  V30 BEGIN CTAB
M  V30 COUNTS 11 11 0 0 1
M  V30 BEGIN ATOM
M  V30 1 C 38.785860 27.748428 51.583281 0
M  V30 2 C 38.687392 28.537957 52.772005 0
M  V30 3 C 39.467404 29.655086 52.687038 0
M  V30 4 C 39.655412 30.737893 53.692697 0
M  V30 5 N 39.589366 28.223866 50.653528 0
M  V30 6 S 40.267401 29.676428 51.155557 0
M  V30 7 H 38.267942 26.821438 51.392986 0
M  V30 8 H 38.067861 28.264225 53.613826 0
M  V30 9 H 39.092617 30.533001 54.603136 0
M  V30 10 H 40.705442 30.834359 53.963926 0
M  V30 11 H 39.312507 31.690756 53.293688 0
M  V30 END ATOM
M  V30 BEGIN BOND
M  V30 1 1 2 1
M  V30 2 2 3 2
M  V30 3 1 4 3
M  V30 4 2 5 1
M  V30 5 1 6 3
M  V30 6 1 6 5
M  V30 7 1 7 1
M  V30 8 1 8 2
M  V30 9 1 9 4
M  V30 10 1 10 4
M  V30 11 1 11 4
M  V30 END BOND
M  V30 END CTAB
M  END
>  <i_epik_Tot_Q>  (1) 
0

>  <i_epik_Tot_abs_Q>  (1) 
0

>  <i_i_glide_confnum>  (1) 
1

>  <i_i_glide_lignum>  (1) 
23

>  <i_i_glide_posenum>  (1) 
331

>  <i_i_glide_rotatable_bonds>  (1) 
0

>  <i_lp_mmshare_version>  (1) 
72125

>  <i_m_source_file_index>  (1) 
23

>  <i_f3d_flags>  (1) 
0

>  <num_sample>  (1) 
50

>  <b_lp_Chiralities_Consistent>  (1) 
1

>  <r_epik_Charging_Adjusted_Penalty>  (1) 
0

>  <r_epik_Ionization_Penalty>  (1) 
2.7081824038816109e-08

>  <r_epik_Ionization_Penalty_Charging>  (1) 
0

>  <r_epik_Ionization_Penalty_Neutral>  (1) 
2.7081824038816109e-08

>  <r_epik_State_Penalty>  (1) 
-0

>  <r_glide_ring_energy>  (1) 
0

>  <r_i_docking_score>  (1) 
-4.9101165259762301

>  <r_i_glide_ecoul>  (1) 
-0.65041463129957977

>  <r_i_glide_eff_state_penalty>  (1) 
-0

>  <r_i_glide_einternal>  (1) 
0

>  <r_i_glide_emodel>  (1) 
-23.908969432449886

>  <r_i_glide_emodel_strain>  (1) 
0

>  <r_i_glide_energy>  (1) 
-18.425367880776967

>  <r_i_glide_erotb>  (1) 
0

>  <r_i_glide_esite>  (1) 
0

>  <r_i_glide_evdw>  (1) 
-17.774953249477388

>  <r_i_glide_gscore>  (1) 
-4.9101165259762301

>  <r_i_glide_gscore_strain>  (1) 
0

>  <r_i_glide_hbond>  (1) 
0

>  <r_i_glide_ligand_efficiency>  (1) 
-0.81835275432937171

>  <r_i_glide_ligand_efficiency_ln>  (1) 
-1.7587892438792081

>  <r_i_glide_ligand_efficiency_sa>  (1) 
-1.4870456420928024

>  <r_i_glide_lipo>  (1) 
-1.5076017704470388

>  <r_i_glide_metal>  (1) 
-0

>  <r_i_glide_rewards>  (1) 
-2.4162048983603848

>  <r_lp_Energy>  (1) 
1.924183

>  <r_lp_tautomer_probability>  (1) 
1

>  <s_epik_cmdline>  (1) 
J2VwaWtfcHl0aG9uJywgJy1waHQnLCAnMS4wJywgJy1waCcsICc3LjQnLCAnLXRuJywgJzgnLCAnLW1hJywgJzUwMCcsICctaW1hZScsICc8aW5maWxlLm1hZT4nLCAnLW9tYWUnLCAnPG91dGZpbGUubWFlPic=

>  <s_epik_input>  (1) 
czFuW2NIXVtjSF1jMVtDSDNd

>  <s_glide_docking_method>  (1) 
confgen

>  <s_i_glide_gridfile>  (1) 
gpcr_5ht2c_6bqh_protein_autoprepared_prepared

>  <s_lp_Force_Field>  (1) 
S-OPLS

>  <s_lp_Variant>  (1) 
Pocket2Mol_22_num_sample_50-1

>  <s_m_source_file>  (1) 
generated__ligand_Pocket2Mol_2026-05-06_prepared.sdf

>  <GenAI_Model>  (1) 
Pocket2Mol

>  <Protein>  (1) 
GPCR_5HT2C

$$$$
Pocket2Mol_2_num_sample_50
     RDKit          3D

  0  0  0  0  0  0  0  0  0  0999 V3000
M  V30 BEGIN CTAB
M  V30 COUNTS 9 9 0 0 1
M  V30 BEGIN ATOM
M  V30 1 C 39.378637 28.542790 52.049694 0
M  V30 2 C 39.866809 29.873134 52.156358 0
M  V30 3 C 39.465945 28.237078 50.815579 0
M  V30 4 C 40.001417 29.375984 50.168156 0
M  V30 5 C 40.267173 30.421428 50.986311 0
M  V30 6 H 39.009072 27.918545 52.848882 0
M  V30 7 H 39.907408 30.398763 53.097028 0
M  V30 8 H 39.184317 27.300957 50.353964 0
M  V30 9 H 40.174135 29.398025 49.105557 0
M  V30 END ATOM
M  V30 BEGIN BOND
M  V30 1 1 2 1
M  V30 2 2 3 1
M  V30 3 1 4 3
M  V30 4 2 5 2
M  V30 5 2 5 4
M  V30 6 1 6 1
M  V30 7 1 7 2
M  V30 8 1 8 3
M  V30 9 1 9 4
M  V30 END BOND
M  V30 END CTAB
M  END
>  <i_epik_Tot_Q>  (1) 
0

>  <i_epik_Tot_abs_Q>  (1) 
0

>  <i_i_glide_confnum>  (1) 
1

>  <i_i_glide_lignum>  (1) 
3

>  <i_i_glide_posenum>  (1) 
257

>  <i_i_glide_rotatable_bonds>  (1) 
0

>  <i_lp_mmshare_version>  (1) 
72125

>  <i_m_source_file_index>  (1) 
3

>  <i_f3d_flags>  (1) 
0

>  <num_sample>  (1) 
50

>  <b_lp_Chiralities_Consistent>  (1) 
1

>  <r_epik_Charging_Adjusted_Penalty>  (1) 
0

>  <r_epik_Ionization_Penalty>  (1) 
0

>  <r_epik_Ionization_Penalty_Charging>  (1) 
0

>  <r_epik_Ionization_Penalty_Neutral>  (1) 
0

>  <r_epik_State_Penalty>  (1) 
-0

>  <r_glide_ring_energy>  (1) 
0

>  <r_i_docking_score>  (1) 
-4.9011448944032141

>  <r_i_glide_ecoul>  (1) 
-0.21341185037478175

>  <r_i_glide_eff_state_penalty>  (1) 
-0

>  <r_i_glide_einternal>  (1) 
0

>  <r_i_glide_emodel>  (1) 
-17.810487451508585

>  <r_i_glide_emodel_strain>  (1) 
0

>  <r_i_glide_energy>  (1) 
-13.596074187314713

>  <r_i_glide_erotb>  (1) 
0

>  <r_i_glide_esite>  (1) 
0

>  <r_i_glide_evdw>  (1) 
-13.382662336939932

>  <r_i_glide_gscore>  (1) 
-4.9011448944032141

>  <r_i_glide_gscore_strain>  (1) 
0

>  <r_i_glide_hbond>  (1) 
0

>  <r_i_glide_ligand_efficiency>  (1) 
-0.98022897888064286

>  <r_i_glide_ligand_efficiency_ln>  (1) 
-1.878237788701167

>  <r_i_glide_ligand_efficiency_sa>  (1) 
-1.6761679761213593

>  <r_i_glide_lipo>  (1) 
-1.6500000000000001

>  <r_i_glide_metal>  (1) 
-0

>  <r_i_glide_rewards>  (1) 
-2.5499999999999998

>  <r_lp_Energy>  (1) 
-2.6088139999999997

>  <r_lp_tautomer_probability>  (1) 
1

>  <s_epik_cmdline>  (1) 
J2VwaWtfcHl0aG9uJywgJy1waHQnLCAnMS4wJywgJy1waCcsICc3LjQnLCAnLXRuJywgJzgnLCAnLW1hJywgJzUwMCcsICctaW1hZScsICc8aW5maWxlLm1hZT4nLCAnLW9tYWUnLCAnPG91dGZpbGUubWFlPic=

>  <s_epik_input>  (1) 
W0NIXTE9W0NIXVtDSF09Qz1bQ0hdMQ==

>  <s_glide_docking_method>  (1) 
confgen

>  <s_i_glide_gridfile>  (1) 
gpcr_5ht2c_6bqh_protein_autoprepared_prepared

>  <s_lp_Force_Field>  (1) 
S-OPLS

>  <s_lp_Variant>  (1) 
Pocket2Mol_2_num_sample_50-1

>  <s_m_source_file>  (1) 
generated__ligand_Pocket2Mol_2026-05-06_prepared.sdf

>  <GenAI_Model>  (1) 
Pocket2Mol

>  <Protein>  (1) 
GPCR_5HT2C

$$$$
Pocket2Mol_14_num_sample_50
     RDKit          3D

  0  0  0  0  0  0  0  0  0  0999 V3000
M  V30 BEGIN CTAB
M  V30 COUNTS 18 18 0 0 1
M  V30 BEGIN ATOM
M  V30 1 C 38.267406 28.027952 52.146253 0
M  V30 2 C 39.377504 28.356541 51.149097 0
M  V30 3 C 38.738446 28.660546 53.453885 0
M  V30 4 C 39.898833 29.735088 51.566850 0
M  V30 5 C 39.467407 29.944044 53.029617 0
M  V30 6 C 37.607790 28.895224 54.458519 0
M  V30 7 H 38.091417 26.955642 52.238079 0
M  V30 8 H 37.331487 28.488501 51.832021 0
M  V30 9 H 40.176132 27.621451 51.241051 0
M  V30 10 H 39.033627 28.336948 50.114704 0
M  V30 11 H 39.467397 27.984747 53.903302 0
M  V30 12 H 40.981346 29.793671 51.450953 0
M  V30 13 H 39.467401 30.511142 50.933504 0
M  V30 14 H 38.806284 30.807145 53.099422 0
M  V30 15 H 40.314969 30.152547 53.681876 0
M  V30 16 H 36.885022 29.621274 54.087197 0
M  V30 17 H 37.993837 29.269266 55.407171 0
M  V30 18 H 37.072518 27.965985 54.653495 0
M  V30 END ATOM
M  V30 BEGIN BOND
M  V30 1 1 2 1
M  V30 2 1 3 1
M  V30 3 1 4 2
M  V30 4 1 5 3
M  V30 5 1 5 4
M  V30 6 1 6 3
M  V30 7 1 7 1
M  V30 8 1 8 1
M  V30 9 1 9 2
M  V30 10 1 10 2
M  V30 11 1 11 3
M  V30 12 1 12 4
M  V30 13 1 13 4
M  V30 14 1 14 5
M  V30 15 1 15 5
M  V30 16 1 16 6
M  V30 17 1 17 6
M  V30 18 1 18 6
M  V30 END BOND
M  V30 END CTAB
M  END
>  <i_epik_Tot_Q>  (1) 
0

>  <i_epik_Tot_abs_Q>  (1) 
0

>  <i_i_glide_confnum>  (1) 
1

>  <i_i_glide_lignum>  (1) 
15

>  <i_i_glide_posenum>  (1) 
18

>  <i_i_glide_rotatable_bonds>  (1) 
0

>  <i_lp_mmshare_version>  (1) 
72125

>  <i_m_source_file_index>  (1) 
15

>  <i_f3d_flags>  (1) 
0

>  <num_sample>  (1) 
50

>  <b_lp_Chiralities_Consistent>  (1) 
1

>  <r_epik_Charging_Adjusted_Penalty>  (1) 
0

>  <r_epik_Ionization_Penalty>  (1) 
0

>  <r_epik_Ionization_Penalty_Charging>  (1) 
0

>  <r_epik_Ionization_Penalty_Neutral>  (1) 
0

>  <r_epik_State_Penalty>  (1) 
-0

>  <r_glide_ring_energy>  (1) 
0

>  <r_i_docking_score>  (1) 
-4.8947449230320705

>  <r_i_glide_ecoul>  (1) 
-0.052097778471205586

>  <r_i_glide_eff_state_penalty>  (1) 
-0

>  <r_i_glide_einternal>  (1) 
0

>  <r_i_glide_emodel>  (1) 
-19.619217677718808

>  <r_i_glide_emodel_strain>  (1) 
0.027570222318544779

>  <r_i_glide_energy>  (1) 
-14.875683568638264

>  <r_i_glide_erotb>  (1) 
0

>  <r_i_glide_esite>  (1) 
0

>  <r_i_glide_evdw>  (1) 
-14.823585790167058

>  <r_i_glide_gscore>  (1) 
-4.8947449230320705

>  <r_i_glide_gscore_strain>  (1) 
0

>  <r_i_glide_hbond>  (1) 
0

>  <r_i_glide_ligand_efficiency>  (1) 
-0.81579082050534513

>  <r_i_glide_ligand_efficiency_ln>  (1) 
-1.7532831810849052

>  <r_i_glide_ligand_efficiency_sa>  (1) 
-1.4823902993836904

>  <r_i_glide_lipo>  (1) 
-1.6779682258593442

>  <r_i_glide_metal>  (1) 
-0

>  <r_i_glide_rewards>  (1) 
-2.4677827408936923

>  <r_lp_Energy>  (1) 
6.4120089999999994

>  <r_lp_tautomer_probability>  (1) 
1

>  <s_epik_cmdline>  (1) 
J2VwaWtfcHl0aG9uJywgJy1waHQnLCAnMS4wJywgJy1waCcsICc3LjQnLCAnLXRuJywgJzgnLCAnLW1hJywgJzUwMCcsICctaW1hZScsICc8aW5maWxlLm1hZT4nLCAnLW9tYWUnLCAnPG91dGZpbGUubWFlPic=

>  <s_epik_input>  (1) 
W0NIM11bQ0hdMVtDSDJdW0NIMl1bQ0gyXVtDSDJdMQ==

>  <s_glide_docking_method>  (1) 
confgen

>  <s_i_glide_gridfile>  (1) 
gpcr_5ht2c_6bqh_protein_autoprepared_prepared

>  <s_lp_Force_Field>  (1) 
S-OPLS

>  <s_lp_Variant>  (1) 
Pocket2Mol_14_num_sample_50-1

>  <s_m_source_file>  (1) 
generated__ligand_Pocket2Mol_2026-05-06_prepared.sdf

>  <GenAI_Model>  (1) 
Pocket2Mol

>  <Protein>  (1) 
GPCR_5HT2C

$$$$
Pocket2Mol_26_num_sample_50
     RDKit          3D

  0  0  0  0  0  0  0  0  0  0999 V3000
M  V30 BEGIN CTAB
M  V30 COUNTS 13 13 0 0 1
M  V30 BEGIN ATOM
M  V30 1 C 39.823845 30.368273 52.758446 0
M  V30 2 O 38.562215 29.591435 53.182005 0
M  V30 3 C 38.634595 28.124708 52.756309 0
M  V30 4 O 38.331398 27.220369 53.516994 0
M  V30 5 C 39.076451 27.851519 51.318296 0
M  V30 6 C 40.161896 30.167021 51.271064 0
M  V30 7 O 40.324926 28.672867 50.942416 0
M  V30 8 H 40.667405 30.050574 53.371287 0
M  V30 9 H 39.683850 31.429618 52.963504 0
M  V30 10 H 38.248534 28.106443 50.656731 0
M  V30 11 H 39.269511 26.786308 51.191198 0
M  V30 12 H 41.076751 30.704553 51.021665 0
M  V30 13 H 39.375259 30.597950 50.651708 0
M  V30 END ATOM
M  V30 BEGIN BOND
M  V30 1 1 2 1
M  V30 2 1 3 2
M  V30 3 2 4 3
M  V30 4 1 5 3
M  V30 5 1 6 1
M  V30 6 1 7 5
M  V30 7 1 7 6
M  V30 8 1 8 1
M  V30 9 1 9 1
M  V30 10 1 10 5
M  V30 11 1 11 5
M  V30 12 1 12 6
M  V30 13 1 13 6
M  V30 END BOND
M  V30 END CTAB
M  END
>  <i_epik_Tot_Q>  (1) 
0

>  <i_epik_Tot_abs_Q>  (1) 
0

>  <i_i_glide_confnum>  (1) 
2

>  <i_i_glide_lignum>  (1) 
27

>  <i_i_glide_posenum>  (1) 
147

>  <i_i_glide_rotatable_bonds>  (1) 
0

>  <i_lp_mmshare_version>  (1) 
72125

>  <i_m_source_file_index>  (1) 
27

>  <i_f3d_flags>  (1) 
0

>  <num_sample>  (1) 
50

>  <b_lp_Chiralities_Consistent>  (1) 
1

>  <r_epik_Charging_Adjusted_Penalty>  (1) 
0

>  <r_epik_Ionization_Penalty>  (1) 
1.0677269036415479e-12

>  <r_epik_Ionization_Penalty_Charging>  (1) 
0

>  <r_epik_Ionization_Penalty_Neutral>  (1) 
1.0677269036415479e-12

>  <r_epik_State_Penalty>  (1) 
-0

>  <r_glide_ring_energy>  (1) 
4.2281688740393558e-05

>  <r_i_docking_score>  (1) 
-4.890322991422245

>  <r_i_glide_ecoul>  (1) 
-0.81043328408426873

>  <r_i_glide_eff_state_penalty>  (1) 
-0

>  <r_i_glide_einternal>  (1) 
0

>  <r_i_glide_emodel>  (1) 
-21.414403141464955

>  <r_i_glide_emodel_strain>  (1) 
0.25892315469085148

>  <r_i_glide_energy>  (1) 
-16.654022053047512

>  <r_i_glide_erotb>  (1) 
0

>  <r_i_glide_esite>  (1) 
0

>  <r_i_glide_evdw>  (1) 
-15.843588768963246

>  <r_i_glide_gscore>  (1) 
-4.890322991422245

>  <r_i_glide_gscore_strain>  (1) 
0

>  <r_i_glide_hbond>  (1) 
0

>  <r_i_glide_ligand_efficiency>  (1) 
-0.69861757020317783

>  <r_i_glide_ligand_efficiency_ln>  (1) 
-1.660038067688677

>  <r_i_glide_ligand_efficiency_sa>  (1) 
-1.3364073348743377

>  <r_i_glide_lipo>  (1) 
-0.98999999999999999

>  <r_i_glide_metal>  (1) 
-0

>  <r_i_glide_rewards>  (1) 
-2.9865785603614419

>  <r_lp_Energy>  (1) 
12.58291

>  <r_lp_tautomer_probability>  (1) 
1

>  <s_epik_Chemistry_Notes>  (1) 
This compound has an ester and may undergo hydrolysis at high or low pH.

>  <s_epik_cmdline>  (1) 
J2VwaWtfcHl0aG9uJywgJy1waHQnLCAnMS4wJywgJy1waCcsICc3LjQnLCAnLXRuJywgJzgnLCAnLW1hJywgJzUwMCcsICctaW1hZScsICc8aW5maWxlLm1hZT4nLCAnLW9tYWUnLCAnPG91dGZpbGUubWFlPic=

>  <s_epik_input>  (1) 
W0NIMl0xT1tDSDJdW0NIMl1PQzE9Tw==

>  <s_glide_docking_method>  (1) 
confgen

>  <s_i_glide_gridfile>  (1) 
gpcr_5ht2c_6bqh_protein_autoprepared_prepared

>  <s_lp_Force_Field>  (1) 
S-OPLS

>  <s_lp_Variant>  (1) 
Pocket2Mol_26_num_sample_50-1

>  <s_m_source_file>  (1) 
generated__ligand_Pocket2Mol_2026-05-06_prepared.sdf

>  <GenAI_Model>  (1) 
Pocket2Mol

>  <Protein>  (1) 
GPCR_5HT2C

$$$$
Pocket2Mol_5_num_sample_50
     RDKit          3D

  0  0  0  0  0  0  0  0  0  0999 V3000
M  V30 BEGIN CTAB
M  V30 COUNTS 13 13 0 0 1
M  V30 BEGIN ATOM
M  V30 1 C 38.652400 28.042070 52.035692 0
M  V30 2 C 39.072022 29.221018 52.822165 0
M  V30 3 C 39.485661 28.396388 50.717724 0
M  V30 4 C 40.267407 29.784980 50.851579 0
M  V30 5 C 39.867421 30.071997 52.242792 0
M  V30 6 H 38.969719 27.109936 52.504154 0
M  V30 7 H 37.575040 28.035394 51.865384 0
M  V30 8 H 38.719531 29.344733 53.836054 0
M  V30 9 H 38.823466 28.421616 49.853510 0
M  V30 10 H 40.203605 27.601268 50.518802 0
M  V30 11 H 39.895817 30.550679 50.169457 0
M  V30 12 H 41.348407 29.682069 50.757609 0
M  V30 13 H 40.230390 30.963939 52.733510 0
M  V30 END ATOM
M  V30 BEGIN BOND
M  V30 1 1 2 1
M  V30 2 1 3 1
M  V30 3 1 4 3
M  V30 4 2 5 2
M  V30 5 1 5 4
M  V30 6 1 6 1
M  V30 7 1 7 1
M  V30 8 1 8 2
M  V30 9 1 9 3
M  V30 10 1 10 3
M  V30 11 1 11 4
M  V30 12 1 12 4
M  V30 13 1 13 5
M  V30 END BOND
M  V30 END CTAB
M  END
>  <i_epik_Tot_Q>  (1) 
0

>  <i_epik_Tot_abs_Q>  (1) 
0

>  <i_i_glide_confnum>  (1) 
1

>  <i_i_glide_lignum>  (1) 
6

>  <i_i_glide_posenum>  (1) 
198

>  <i_i_glide_rotatable_bonds>  (1) 
0

>  <i_lp_mmshare_version>  (1) 
72125

>  <i_m_source_file_index>  (1) 
6

>  <i_f3d_flags>  (1) 
0

>  <num_sample>  (1) 
50

>  <b_lp_Chiralities_Consistent>  (1) 
1

>  <r_epik_Charging_Adjusted_Penalty>  (1) 
0

>  <r_epik_Ionization_Penalty>  (1) 
0

>  <r_epik_Ionization_Penalty_Charging>  (1) 
0

>  <r_epik_Ionization_Penalty_Neutral>  (1) 
0

>  <r_epik_State_Penalty>  (1) 
-0

>  <r_glide_ring_energy>  (1) 
0

>  <r_i_docking_score>  (1) 
-4.8900470563673242

>  <r_i_glide_ecoul>  (1) 
-0.42788632822918282

>  <r_i_glide_eff_state_penalty>  (1) 
-0

>  <r_i_glide_einternal>  (1) 
0

>  <r_i_glide_emodel>  (1) 
-18.479085218455236

>  <r_i_glide_emodel_strain>  (1) 
0

>  <r_i_glide_energy>  (1) 
-14.302663003087869

>  <r_i_glide_erotb>  (1) 
0

>  <r_i_glide_esite>  (1) 
0

>  <r_i_glide_evdw>  (1) 
-13.874776674858685

>  <r_i_glide_gscore>  (1) 
-4.8900470563673242

>  <r_i_glide_gscore_strain>  (1) 
0

>  <r_i_glide_hbond>  (1) 
0

>  <r_i_glide_ligand_efficiency>  (1) 
-0.97800941127346486

>  <r_i_glide_ligand_efficiency_ln>  (1) 
-1.8739848275622917

>  <r_i_glide_ligand_efficiency_sa>  (1) 
-1.6723725689010622

>  <r_i_glide_lipo>  (1) 
-1.5717485347441231

>  <r_i_glide_metal>  (1) 
-0

>  <r_i_glide_rewards>  (1) 
-2.5603767386458887

>  <r_lp_Energy>  (1) 
-2.1713199999999997

>  <r_lp_tautomer_probability>  (1) 
1

>  <s_epik_cmdline>  (1) 
J2VwaWtfcHl0aG9uJywgJy1waHQnLCAnMS4wJywgJy1waCcsICc3LjQnLCAnLXRuJywgJzgnLCAnLW1hJywgJzUwMCcsICctaW1hZScsICc8aW5maWxlLm1hZT4nLCAnLW9tYWUnLCAnPG91dGZpbGUubWFlPic=

>  <s_epik_input>  (1) 
W0NIMl0xW0NIXT1bQ0hdW0NIMl1bQ0gyXTE=

>  <s_glide_docking_method>  (1) 
confgen

>  <s_i_glide_gridfile>  (1) 
gpcr_5ht2c_6bqh_protein_autoprepared_prepared

>  <s_lp_Force_Field>  (1) 
S-OPLS

>  <s_lp_Variant>  (1) 
Pocket2Mol_5_num_sample_50-1

>  <s_m_source_file>  (1) 
generated__ligand_Pocket2Mol_2026-05-06_prepared.sdf

>  <GenAI_Model>  (1) 
Pocket2Mol

>  <Protein>  (1) 
GPCR_5HT2C

$$$$
Pocket2Mol_5_num_sample_50
     RDKit          3D

  0  0  0  0  0  0  0  0  0  0999 V3000
M  V30 BEGIN CTAB
M  V30 COUNTS 13 13 0 0 1
M  V30 BEGIN ATOM
M  V30 1 C 39.467406 28.290758 50.690550 0
M  V30 2 C 40.110229 29.566069 51.070921 0
M  V30 3 C 38.707797 28.040252 52.076167 0
M  V30 4 C 38.969513 29.221365 53.123946 0
M  V30 5 C 39.867426 30.021538 52.262392 0
M  V30 6 H 38.784254 28.421406 49.853253 0
M  V30 7 H 40.205728 27.523241 50.458861 0
M  V30 8 H 40.750653 30.077952 50.367285 0
M  V30 9 H 39.038801 27.092565 52.501324 0
M  V30 10 H 37.635978 27.932430 51.900832 0
M  V30 11 H 39.467531 28.887291 54.033638 0
M  V30 12 H 38.062614 29.770834 53.377449 0
M  V30 13 H 40.287172 30.945556 52.634588 0
M  V30 END ATOM
M  V30 BEGIN BOND
M  V30 1 1 2 1
M  V30 2 1 3 1
M  V30 3 1 4 3
M  V30 4 2 5 2
M  V30 5 1 5 4
M  V30 6 1 6 1
M  V30 7 1 7 1
M  V30 8 1 8 2
M  V30 9 1 9 3
M  V30 10 1 10 3
M  V30 11 1 11 4
M  V30 12 1 12 4
M  V30 13 1 13 5
M  V30 END BOND
M  V30 END CTAB
M  END
>  <i_epik_Tot_Q>  (1) 
0

>  <i_epik_Tot_abs_Q>  (1) 
0

>  <i_i_glide_confnum>  (1) 
1

>  <i_i_glide_lignum>  (1) 
6

>  <i_i_glide_posenum>  (1) 
208

>  <i_i_glide_rotatable_bonds>  (1) 
0

>  <i_lp_mmshare_version>  (1) 
72125

>  <i_m_source_file_index>  (1) 
6

>  <i_f3d_flags>  (1) 
0

>  <num_sample>  (1) 
50

>  <b_lp_Chiralities_Consistent>  (1) 
1

>  <r_epik_Charging_Adjusted_Penalty>  (1) 
0

>  <r_epik_Ionization_Penalty>  (1) 
0

>  <r_epik_Ionization_Penalty_Charging>  (1) 
0

>  <r_epik_Ionization_Penalty_Neutral>  (1) 
0

>  <r_epik_State_Penalty>  (1) 
-0

>  <r_glide_ring_energy>  (1) 
0

>  <r_i_docking_score>  (1) 
-4.8838555198085096

>  <r_i_glide_ecoul>  (1) 
-0.36719825216744112

>  <r_i_glide_eff_state_penalty>  (1) 
-0

>  <r_i_glide_einternal>  (1) 
0

>  <r_i_glide_emodel>  (1) 
-18.000790848090219

>  <r_i_glide_emodel_strain>  (1) 
0

>  <r_i_glide_energy>  (1) 
-13.829656612681616

>  <r_i_glide_erotb>  (1) 
0

>  <r_i_glide_esite>  (1) 
0

>  <r_i_glide_evdw>  (1) 
-13.462458360514175

>  <r_i_glide_gscore>  (1) 
-4.8838555198085096

>  <r_i_glide_gscore_strain>  (1) 
0

>  <r_i_glide_hbond>  (1) 
0

>  <r_i_glide_ligand_efficiency>  (1) 
-0.97677110396170197

>  <r_i_glide_ligand_efficiency_ln>  (1) 
-1.8716120803398681

>  <r_i_glide_ligand_efficiency_sa>  (1) 
-1.6702550931833537

>  <r_i_glide_lipo>  (1) 
-1.5782223371875921

>  <r_i_glide_metal>  (1) 
-0

>  <r_i_glide_rewards>  (1) 
-2.5774305267700921

>  <r_lp_Energy>  (1) 
-2.1713199999999997

>  <r_lp_tautomer_probability>  (1) 
1

>  <s_epik_cmdline>  (1) 
J2VwaWtfcHl0aG9uJywgJy1waHQnLCAnMS4wJywgJy1waCcsICc3LjQnLCAnLXRuJywgJzgnLCAnLW1hJywgJzUwMCcsICctaW1hZScsICc8aW5maWxlLm1hZT4nLCAnLW9tYWUnLCAnPG91dGZpbGUubWFlPic=

>  <s_epik_input>  (1) 
W0NIMl0xW0NIXT1bQ0hdW0NIMl1bQ0gyXTE=

>  <s_glide_docking_method>  (1) 
confgen

>  <s_i_glide_gridfile>  (1) 
gpcr_5ht2c_6bqh_protein_autoprepared_prepared

>  <s_lp_Force_Field>  (1) 
S-OPLS

>  <s_lp_Variant>  (1) 
Pocket2Mol_5_num_sample_50-1

>  <s_m_source_file>  (1) 
generated__ligand_Pocket2Mol_2026-05-06_prepared.sdf

>  <GenAI_Model>  (1) 
Pocket2Mol

>  <Protein>  (1) 
GPCR_5HT2C

$$$$
Pocket2Mol_21_num_sample_50
     RDKit          3D

  0  0  0  0  0  0  0  0  0  0999 V3000
M  V30 BEGIN CTAB
M  V30 COUNTS 14 14 0 0 1
M  V30 BEGIN ATOM
M  V30 1 C 40.255605 30.473413 49.944836 0
M  V30 2 C 40.105017 30.821408 51.425034 0
M  V30 3 O 39.947305 29.097422 49.879972 0
M  V30 4 C 39.991780 28.650837 51.184824 0
M  V30 5 O 39.542068 29.663602 51.998659 0
M  V30 6 C 39.067266 27.447329 51.334537 0
M  V30 7 H 41.265229 30.673517 49.582422 0
M  V30 8 H 39.544465 31.031994 49.335093 0
M  V30 9 H 41.067399 31.039981 51.871754 0
M  V30 10 H 39.467467 31.687048 51.590583 0
M  V30 11 H 41.025277 28.421280 51.453273 0
M  V30 12 H 38.043118 27.734382 51.093533 0
M  V30 13 H 39.100930 27.076006 52.358805 0
M  V30 14 H 39.379829 26.655532 50.655278 0
M  V30 END ATOM
M  V30 BEGIN BOND
M  V30 1 1 2 1
M  V30 2 1 3 1
M  V30 3 1 4 3
M  V30 4 1 5 2
M  V30 5 1 5 4
M  V30 6 1 6 4
M  V30 7 1 7 1
M  V30 8 1 8 1
M  V30 9 1 9 2
M  V30 10 1 10 2
M  V30 11 1 11 4
M  V30 12 1 12 6
M  V30 13 1 13 6
M  V30 14 1 14 6
M  V30 END BOND
M  V30 END CTAB
M  END
>  <i_epik_Tot_Q>  (1) 
0

>  <i_epik_Tot_abs_Q>  (1) 
0

>  <i_i_glide_confnum>  (1) 
1

>  <i_i_glide_lignum>  (1) 
22

>  <i_i_glide_posenum>  (1) 
68

>  <i_i_glide_rotatable_bonds>  (1) 
0

>  <i_lp_mmshare_version>  (1) 
72125

>  <i_m_source_file_index>  (1) 
22

>  <i_f3d_flags>  (1) 
0

>  <num_sample>  (1) 
50

>  <b_lp_Chiralities_Consistent>  (1) 
1

>  <r_epik_Charging_Adjusted_Penalty>  (1) 
0

>  <r_epik_Ionization_Penalty>  (1) 
7.9724310449397378e-14

>  <r_epik_Ionization_Penalty_Charging>  (1) 
0

>  <r_epik_Ionization_Penalty_Neutral>  (1) 
7.9724310449397378e-14

>  <r_epik_State_Penalty>  (1) 
-0

>  <r_glide_ring_energy>  (1) 
0

>  <r_i_docking_score>  (1) 
-4.878448105282188

>  <r_i_glide_ecoul>  (1) 
-0.50478134510974604

>  <r_i_glide_eff_state_penalty>  (1) 
-0

>  <r_i_glide_einternal>  (1) 
0

>  <r_i_glide_emodel>  (1) 
-19.119803047363597

>  <r_i_glide_emodel_strain>  (1) 
0.27084391676084429

>  <r_i_glide_energy>  (1) 
-14.759399415424252

>  <r_i_glide_erotb>  (1) 
0

>  <r_i_glide_esite>  (1) 
0

>  <r_i_glide_evdw>  (1) 
-14.254618070314505

>  <r_i_glide_gscore>  (1) 
-4.878448105282188

>  <r_i_glide_gscore_strain>  (1) 
0

>  <r_i_glide_hbond>  (1) 
0

>  <r_i_glide_ligand_efficiency>  (1) 
-0.813074684213698

>  <r_i_glide_ligand_efficiency_ln>  (1) 
-1.7474457090786264

>  <r_i_glide_ligand_efficiency_sa>  (1) 
-1.4774547521951997

>  <r_i_glide_lipo>  (1) 
-0.98999999999999999

>  <r_i_glide_metal>  (1) 
-0

>  <r_i_glide_rewards>  (1) 
-3.1000000000000001

>  <r_lp_Energy>  (1) 
-12.129052

>  <r_lp_tautomer_probability>  (1) 
1

>  <s_epik_Chemistry_Notes>  (1) 
This compound contains an acetal/aminal-like group ( X-CH(R)-Y where X, Y are N, S, or O) that may be acid/base labile, releasing an aldehyde.

>  <s_epik_cmdline>  (1) 
J2VwaWtfcHl0aG9uJywgJy1waHQnLCAnMS4wJywgJy1waCcsICc3LjQnLCAnLXRuJywgJzgnLCAnLW1hJywgJzUwMCcsICctaW1hZScsICc8aW5maWxlLm1hZT4nLCAnLW9tYWUnLCAnPG91dGZpbGUubWFlPic=

>  <s_epik_input>  (1) 
TzFbQ0gyXVtDSDJdT1tDSF0xW0NIM10=

>  <s_glide_docking_method>  (1) 
confgen

>  <s_i_glide_gridfile>  (1) 
gpcr_5ht2c_6bqh_protein_autoprepared_prepared

>  <s_lp_Force_Field>  (1) 
S-OPLS

>  <s_lp_Variant>  (1) 
Pocket2Mol_21_num_sample_50-1

>  <s_m_source_file>  (1) 
generated__ligand_Pocket2Mol_2026-05-06_prepared.sdf

>  <GenAI_Model>  (1) 
Pocket2Mol

>  <Protein>  (1) 
GPCR_5HT2C

$$$$
Pocket2Mol_22_num_sample_50
     RDKit          3D

  0  0  0  0  0  0  0  0  0  0999 V3000
M  V30 BEGIN CTAB
M  V30 COUNTS 11 11 0 0 1
M  V30 BEGIN ATOM
M  V30 1 C 39.867410 29.907829 51.913551 0
M  V30 2 C 39.067893 29.568464 53.053248 0
M  V30 3 C 38.544788 28.313377 52.932612 0
M  V30 4 C 37.658002 27.577167 53.877065 0
M  V30 5 N 39.953938 28.975644 50.983710 0
M  V30 6 S 39.067490 27.621447 51.441421 0
M  V30 7 H 40.389281 30.841572 51.760169 0
M  V30 8 H 38.911699 30.239314 53.885564 0
M  V30 9 H 37.563570 28.108712 54.824059 0
M  V30 10 H 36.660999 27.465128 53.452698 0
M  V30 11 H 38.051722 26.581940 54.085267 0
M  V30 END ATOM
M  V30 BEGIN BOND
M  V30 1 1 2 1
M  V30 2 2 3 2
M  V30 3 1 4 3
M  V30 4 2 5 1
M  V30 5 1 6 3
M  V30 6 1 6 5
M  V30 7 1 7 1
M  V30 8 1 8 2
M  V30 9 1 9 4
M  V30 10 1 10 4
M  V30 11 1 11 4
M  V30 END BOND
M  V30 END CTAB
M  END
>  <i_epik_Tot_Q>  (1) 
0

>  <i_epik_Tot_abs_Q>  (1) 
0

>  <i_i_glide_confnum>  (1) 
1

>  <i_i_glide_lignum>  (1) 
23

>  <i_i_glide_posenum>  (1) 
7

>  <i_i_glide_rotatable_bonds>  (1) 
0

>  <i_lp_mmshare_version>  (1) 
72125

>  <i_m_source_file_index>  (1) 
23

>  <i_f3d_flags>  (1) 
0

>  <num_sample>  (1) 
50

>  <b_lp_Chiralities_Consistent>  (1) 
1

>  <r_epik_Charging_Adjusted_Penalty>  (1) 
0

>  <r_epik_Ionization_Penalty>  (1) 
2.7081824038816109e-08

>  <r_epik_Ionization_Penalty_Charging>  (1) 
0

>  <r_epik_Ionization_Penalty_Neutral>  (1) 
2.7081824038816109e-08

>  <r_epik_State_Penalty>  (1) 
-0

>  <r_glide_ring_energy>  (1) 
0

>  <r_i_docking_score>  (1) 
-4.8597759961938314

>  <r_i_glide_ecoul>  (1) 
-0.36803356707969875

>  <r_i_glide_eff_state_penalty>  (1) 
-0

>  <r_i_glide_einternal>  (1) 
0

>  <r_i_glide_emodel>  (1) 
-23.59975730090455

>  <r_i_glide_emodel_strain>  (1) 
0

>  <r_i_glide_energy>  (1) 
-18.172375882861129

>  <r_i_glide_erotb>  (1) 
0

>  <r_i_glide_esite>  (1) 
0

>  <r_i_glide_evdw>  (1) 
-17.80434231578143

>  <r_i_glide_gscore>  (1) 
-4.8597759961938314

>  <r_i_glide_gscore_strain>  (1) 
0

>  <r_i_glide_hbond>  (1) 
0

>  <r_i_glide_ligand_efficiency>  (1) 
-0.80996266603230527

>  <r_i_glide_ligand_efficiency_ln>  (1) 
-1.7407574147272797

>  <r_i_glide_ligand_efficiency_sa>  (1) 
-1.4717998398725229

>  <r_i_glide_lipo>  (1) 
-1.4976871786761379

>  <r_i_glide_metal>  (1) 
-0

>  <r_i_glide_rewards>  (1) 
-2.4166666666666665

>  <r_lp_Energy>  (1) 
1.924183

>  <r_lp_tautomer_probability>  (1) 
1

>  <s_epik_cmdline>  (1) 
J2VwaWtfcHl0aG9uJywgJy1waHQnLCAnMS4wJywgJy1waCcsICc3LjQnLCAnLXRuJywgJzgnLCAnLW1hJywgJzUwMCcsICctaW1hZScsICc8aW5maWxlLm1hZT4nLCAnLW9tYWUnLCAnPG91dGZpbGUubWFlPic=

>  <s_epik_input>  (1) 
czFuW2NIXVtjSF1jMVtDSDNd

>  <s_glide_docking_method>  (1) 
confgen

>  <s_i_glide_gridfile>  (1) 
gpcr_5ht2c_6bqh_protein_autoprepared_prepared

>  <s_lp_Force_Field>  (1) 
S-OPLS

>  <s_lp_Variant>  (1) 
Pocket2Mol_22_num_sample_50-1

>  <s_m_source_file>  (1) 
generated__ligand_Pocket2Mol_2026-05-06_prepared.sdf

>  <GenAI_Model>  (1) 
Pocket2Mol

>  <Protein>  (1) 
GPCR_5HT2C

$$$$
Pocket2Mol_22_num_sample_50
     RDKit          3D

  0  0  0  0  0  0  0  0  0  0999 V3000
M  V30 BEGIN CTAB
M  V30 COUNTS 11 11 0 0 1
M  V30 BEGIN ATOM
M  V30 1 C 39.767336 26.024178 56.448770 0
M  V30 2 C 38.982721 25.599663 55.327855 0
M  V30 3 C 37.883268 24.898461 55.732029 0
M  V30 4 C 36.815780 24.273478 54.900103 0
M  V30 5 N 39.301704 25.673344 57.632986 0
M  V30 6 S 37.869927 24.809085 57.453510 0
M  V30 7 H 40.685762 26.591098 56.401475 0
M  V30 8 H 39.250362 25.816482 54.304836 0
M  V30 9 H 36.667403 24.821444 53.968692 0
M  V30 10 H 37.076254 23.244372 54.653539 0
M  V30 11 H 35.867415 24.254585 55.435446 0
M  V30 END ATOM
M  V30 BEGIN BOND
M  V30 1 1 2 1
M  V30 2 2 3 2
M  V30 3 1 4 3
M  V30 4 2 5 1
M  V30 5 1 6 3
M  V30 6 1 6 5
M  V30 7 1 7 1
M  V30 8 1 8 2
M  V30 9 1 9 4
M  V30 10 1 10 4
M  V30 11 1 11 4
M  V30 END BOND
M  V30 END CTAB
M  END
>  <i_epik_Tot_Q>  (1) 
0

>  <i_epik_Tot_abs_Q>  (1) 
0

>  <i_i_glide_confnum>  (1) 
1

>  <i_i_glide_lignum>  (1) 
23

>  <i_i_glide_posenum>  (1) 
396

>  <i_i_glide_rotatable_bonds>  (1) 
0

>  <i_lp_mmshare_version>  (1) 
72125

>  <i_m_source_file_index>  (1) 
23

>  <i_f3d_flags>  (1) 
0

>  <num_sample>  (1) 
50

>  <b_lp_Chiralities_Consistent>  (1) 
1

>  <r_epik_Charging_Adjusted_Penalty>  (1) 
0

>  <r_epik_Ionization_Penalty>  (1) 
2.7081824038816109e-08

>  <r_epik_Ionization_Penalty_Charging>  (1) 
0

>  <r_epik_Ionization_Penalty_Neutral>  (1) 
2.7081824038816109e-08

>  <r_epik_State_Penalty>  (1) 
-0

>  <r_glide_ring_energy>  (1) 
0

>  <r_i_docking_score>  (1) 
-4.8528014522184613

>  <r_i_glide_ecoul>  (1) 
-0.36806927512227017

>  <r_i_glide_eff_state_penalty>  (1) 
-0

>  <r_i_glide_einternal>  (1) 
0

>  <r_i_glide_emodel>  (1) 
-22.851844484621484

>  <r_i_glide_emodel_strain>  (1) 
0.0063905722412882504

>  <r_i_glide_energy>  (1) 
-17.438642785973641

>  <r_i_glide_erotb>  (1) 
0

>  <r_i_glide_esite>  (1) 
0

>  <r_i_glide_evdw>  (1) 
-17.070573510851371

>  <r_i_glide_gscore>  (1) 
-4.8528014522184613

>  <r_i_glide_gscore_strain>  (1) 
0

>  <r_i_glide_hbond>  (1) 
0

>  <r_i_glide_ligand_efficiency>  (1) 
-0.80880024203641021

>  <r_i_glide_ligand_efficiency_ln>  (1) 
-1.7382591536656637

>  <r_i_glide_ligand_efficiency_sa>  (1) 
-1.46968757529198

>  <r_i_glide_lipo>  (1) 
-1.6221639183480294

>  <r_i_glide_metal>  (1) 
-0

>  <r_i_glide_rewards>  (1) 
-2.3218984670595231

>  <r_lp_Energy>  (1) 
1.924183

>  <r_lp_tautomer_probability>  (1) 
1

>  <s_epik_cmdline>  (1) 
J2VwaWtfcHl0aG9uJywgJy1waHQnLCAnMS4wJywgJy1waCcsICc3LjQnLCAnLXRuJywgJzgnLCAnLW1hJywgJzUwMCcsICctaW1hZScsICc8aW5maWxlLm1hZT4nLCAnLW9tYWUnLCAnPG91dGZpbGUubWFlPic=

>  <s_epik_input>  (1) 
czFuW2NIXVtjSF1jMVtDSDNd

>  <s_glide_docking_method>  (1) 
confgen

>  <s_i_glide_gridfile>  (1) 
gpcr_5ht2c_6bqh_protein_autoprepared_prepared

>  <s_lp_Force_Field>  (1) 
S-OPLS

>  <s_lp_Variant>  (1) 
Pocket2Mol_22_num_sample_50-1

>  <s_m_source_file>  (1) 
generated__ligand_Pocket2Mol_2026-05-06_prepared.sdf

>  <GenAI_Model>  (1) 
Pocket2Mol

>  <Protein>  (1) 
GPCR_5HT2C

$$$$
Pocket2Mol_15_num_sample_50
     RDKit          3D

  0  0  0  0  0  0  0  0  0  0999 V3000
M  V30 BEGIN CTAB
M  V30 COUNTS 16 16 0 0 1
M  V30 BEGIN ATOM
M  V30 1 C 38.399714 26.748374 54.123014 0
M  V30 2 C 38.535351 27.402973 55.505319 0
M  V30 3 C 37.881366 27.847366 53.194413 0
M  V30 4 C 38.426418 28.919768 55.282378 0
M  V30 5 C 38.486499 29.126304 53.767728 0
M  V30 6 O 38.267438 27.624421 51.853946 0
M  V30 7 H 37.747722 25.874219 54.134885 0
M  V30 8 H 39.385381 26.418012 53.791009 0
M  V30 9 H 37.750409 27.060527 56.180577 0
M  V30 10 H 39.491382 27.139185 55.959508 0
M  V30 11 H 36.792993 27.903019 53.254481 0
M  V30 12 H 37.467406 29.277622 55.660770 0
M  V30 13 H 39.208192 29.474151 55.802643 0
M  V30 14 H 39.525008 29.223362 53.450872 0
M  V30 15 H 37.956482 30.024760 53.453558 0
M  V30 16 H 37.680989 26.975980 51.482044 0
M  V30 END ATOM
M  V30 BEGIN BOND
M  V30 1 1 2 1
M  V30 2 1 3 1
M  V30 3 1 4 2
M  V30 4 1 5 3
M  V30 5 1 5 4
M  V30 6 1 6 3
M  V30 7 1 7 1
M  V30 8 1 8 1
M  V30 9 1 9 2
M  V30 10 1 10 2
M  V30 11 1 11 3
M  V30 12 1 12 4
M  V30 13 1 13 4
M  V30 14 1 14 5
M  V30 15 1 15 5
M  V30 16 1 16 6
M  V30 END BOND
M  V30 END CTAB
M  END
>  <i_epik_Tot_Q>  (1) 
0

>  <i_epik_Tot_abs_Q>  (1) 
0

>  <i_i_glide_confnum>  (1) 
4

>  <i_i_glide_lignum>  (1) 
16

>  <i_i_glide_posenum>  (1) 
103

>  <i_i_glide_rotatable_bonds>  (1) 
1

>  <i_lp_mmshare_version>  (1) 
72125

>  <i_m_source_file_index>  (1) 
16

>  <i_f3d_flags>  (1) 
0

>  <num_sample>  (1) 
50

>  <b_lp_Chiralities_Consistent>  (1) 
1

>  <r_epik_Charging_Adjusted_Penalty>  (1) 
0

>  <r_epik_Ionization_Penalty>  (1) 
4.538991431931509e-07

>  <r_epik_Ionization_Penalty_Charging>  (1) 
0

>  <r_epik_Ionization_Penalty_Neutral>  (1) 
4.538991431931509e-07

>  <r_epik_State_Penalty>  (1) 
-0

>  <r_glide_ring_energy>  (1) 
0.38828123220255384

>  <r_i_docking_score>  (1) 
-4.8527334310539878

>  <r_i_glide_ecoul>  (1) 
-2.1822399421151615

>  <r_i_glide_eff_state_penalty>  (1) 
-0

>  <r_i_glide_einternal>  (1) 
0.32059669266487167

>  <r_i_glide_emodel>  (1) 
-19.942954188280432

>  <r_i_glide_emodel_strain>  (1) 
0.0047592719078473067

>  <r_i_glide_energy>  (1) 
-15.383554390827422

>  <r_i_glide_erotb>  (1) 
0

>  <r_i_glide_esite>  (1) 
0

>  <r_i_glide_evdw>  (1) 
-13.20131444871226

>  <r_i_glide_gscore>  (1) 
-4.8527334310539878

>  <r_i_glide_gscore_strain>  (1) 
0

>  <r_i_glide_hbond>  (1) 
-0.29432430232332052

>  <r_i_glide_ligand_efficiency>  (1) 
-0.8087889051756646

>  <r_i_glide_ligand_efficiency_ln>  (1) 
-1.7382347886853624

>  <r_i_glide_ligand_efficiency_sa>  (1) 
-1.4696669748488611

>  <r_i_glide_lipo>  (1) 
-1.1836201932916528

>  <r_i_glide_metal>  (1) 
-0

>  <r_i_glide_rewards>  (1) 
-2.3873872216861276

>  <r_lp_Energy>  (1) 
8.9029089999999993

>  <r_lp_tautomer_probability>  (1) 
1

>  <s_epik_cmdline>  (1) 
J2VwaWtfcHl0aG9uJywgJy1waHQnLCAnMS4wJywgJy1waCcsICc3LjQnLCAnLXRuJywgJzgnLCAnLW1hJywgJzUwMCcsICctaW1hZScsICc8aW5maWxlLm1hZT4nLCAnLW9tYWUnLCAnPG91dGZpbGUubWFlPic=

>  <s_epik_input>  (1) 
W09IXVtDSF0xW0NIMl1bQ0gyXVtDSDJdW0NIMl0x

>  <s_glide_docking_method>  (1) 
confgen

>  <s_i_glide_gridfile>  (1) 
gpcr_5ht2c_6bqh_protein_autoprepared_prepared

>  <s_lp_Force_Field>  (1) 
S-OPLS

>  <s_lp_Variant>  (1) 
Pocket2Mol_15_num_sample_50-1

>  <s_m_source_file>  (1) 
generated__ligand_Pocket2Mol_2026-05-06_prepared.sdf

>  <GenAI_Model>  (1) 
Pocket2Mol

>  <Protein>  (1) 
GPCR_5HT2C

$$$$
Pocket2Mol_18_num_sample_50
     RDKit          3D

  0  0  0  0  0  0  0  0  0  0999 V3000
M  V30 BEGIN CTAB
M  V30 COUNTS 10 10 0 0 1
M  V30 BEGIN ATOM
M  V30 1 C 39.858426 28.818657 50.653506 0
M  V30 2 C 39.067406 27.695810 51.053508 0
M  V30 3 C 39.867400 29.707453 51.692710 0
M  V30 4 C 38.616759 27.938612 52.321102 0
M  V30 5 N 39.107611 29.163553 52.701246 0
M  V30 6 O 38.876007 29.755353 53.908357 0 CHG=-1
M  V30 7 H 40.360965 28.958062 49.709056 0
M  V30 8 H 38.851719 26.811525 50.473300 0
M  V30 9 H 40.337432 30.672975 51.808300 0
M  V30 10 H 37.994754 27.357290 52.984945 0
M  V30 END ATOM
M  V30 BEGIN BOND
M  V30 1 1 2 1
M  V30 2 2 3 1
M  V30 3 2 4 2
M  V30 4 1 5 3
M  V30 5 1 5 4
M  V30 6 1 6 5
M  V30 7 1 7 1
M  V30 8 1 8 2
M  V30 9 1 9 3
M  V30 10 1 10 4
M  V30 END BOND
M  V30 END CTAB
M  END
>  <i_epik_Tot_Q>  (1) 
-1

>  <i_epik_Tot_abs_Q>  (1) 
1

>  <i_i_glide_confnum>  (1) 
1

>  <i_i_glide_lignum>  (1) 
19

>  <i_i_glide_posenum>  (1) 
222

>  <i_i_glide_rotatable_bonds>  (1) 
0

>  <i_lp_mmshare_version>  (1) 
72125

>  <i_m_source_file_index>  (1) 
19

>  <i_f3d_flags>  (1) 
0

>  <num_sample>  (1) 
50

>  <b_lp_Chiralities_Consistent>  (1) 
1

>  <r_epik_Charging_Adjusted_Penalty>  (1) 
0.038602441834166765

>  <r_epik_Ionization_Penalty>  (1) 
0.019301220976331968

>  <r_epik_Ionization_Penalty_Charging>  (1) 
0.019301220917083386

>  <r_epik_Ionization_Penalty_Neutral>  (1) 
5.9248581604286784e-11

>  <r_epik_State_Penalty>  (1) 
0.019301220917083379

>  <r_glide_ring_energy>  (1) 
0

>  <r_i_docking_score>  (1) 
-4.8500187663225214

>  <r_i_glide_ecoul>  (1) 
-0.2695632950304836

>  <r_i_glide_eff_state_penalty>  (1) 
0.019301220917083379

>  <r_i_glide_einternal>  (1) 
0

>  <r_i_glide_emodel>  (1) 
-18.901427974436363

>  <r_i_glide_emodel_strain>  (1) 
0

>  <r_i_glide_energy>  (1) 
-14.274953515700199

>  <r_i_glide_erotb>  (1) 
0

>  <r_i_glide_esite>  (1) 
0

>  <r_i_glide_evdw>  (1) 
-14.005390220669716

>  <r_i_glide_gscore>  (1) 
-4.8693199872396047

>  <r_i_glide_gscore_strain>  (1) 
0

>  <r_i_glide_hbond>  (1) 
0

>  <r_i_glide_ligand_efficiency>  (1) 
-0.80833646105375356

>  <r_i_glide_ligand_efficiency_ln>  (1) 
-1.7372624037928284

>  <r_i_glide_ligand_efficiency_sa>  (1) 
-1.4688448293178307

>  <r_i_glide_lipo>  (1) 
-1.3200000000000001

>  <r_i_glide_metal>  (1) 
-0

>  <r_i_glide_rewards>  (1) 
-2.8086159819515464

>  <r_lp_Energy>  (1) 
1.8910769999999999

>  <r_lp_tautomer_probability>  (1) 
1

>  <s_epik_cmdline>  (1) 
J2VwaWtfcHl0aG9uJywgJy1waHQnLCAnMS4wJywgJy1waCcsICc3LjQnLCAnLXRuJywgJzgnLCAnLW1hJywgJzUwMCcsICctaW1hZScsICc8aW5maWxlLm1hZT4nLCAnLW9tYWUnLCAnPG91dGZpbGUubWFlPic=

>  <s_epik_input>  (1) 
W2NIXTFbY0hdW2NIXVtjSF1uMVtPSF0=

>  <s_glide_docking_method>  (1) 
confgen

>  <s_i_glide_gridfile>  (1) 
gpcr_5ht2c_6bqh_protein_autoprepared_prepared

>  <s_lp_Force_Field>  (1) 
S-OPLS

>  <s_lp_Variant>  (1) 
Pocket2Mol_18_num_sample_50-1

>  <s_m_source_file>  (1) 
generated__ligand_Pocket2Mol_2026-05-06_prepared.sdf

>  <GenAI_Model>  (1) 
Pocket2Mol

>  <Protein>  (1) 
GPCR_5HT2C

$$$$
Pocket2Mol_33_num_sample_50
     RDKit          3D

  0  0  0  0  0  0  0  0  0  0999 V3000
M  V30 BEGIN CTAB
M  V30 COUNTS 17 17 0 0 1
M  V30 BEGIN ATOM
M  V30 1 C 39.741438 30.450009 53.261047 0
M  V30 2 O 39.859696 30.447543 51.841232 0
M  V30 3 C 40.317150 29.231211 51.275415 0
M  V30 4 C 38.601002 29.587885 53.811501 0
M  V30 5 O 38.778874 28.216086 53.488974 0
M  V30 6 C 39.242135 28.159592 51.051430 0
M  V30 7 C 38.267404 27.885912 52.207697 0
M  V30 8 H 40.669127 30.156444 53.734503 0
M  V30 9 H 39.567653 31.482476 53.564747 0
M  V30 10 H 40.745650 29.482008 50.305242 0
M  V30 11 H 41.138932 28.821383 51.853500 0
M  V30 12 H 38.609942 29.665706 54.898901 0
M  V30 13 H 37.628025 29.965432 53.499497 0
M  V30 14 H 38.667403 28.421430 50.165262 0
M  V30 15 H 39.749682 27.229536 50.792909 0
M  V30 16 H 37.313974 28.384497 52.025681 0
M  V30 17 H 38.032035 26.821667 52.216037 0
M  V30 END ATOM
M  V30 BEGIN BOND
M  V30 1 1 2 1
M  V30 2 1 3 2
M  V30 3 1 4 1
M  V30 4 1 5 4
M  V30 5 1 6 3
M  V30 6 1 7 5
M  V30 7 1 7 6
M  V30 8 1 8 1
M  V30 9 1 9 1
M  V30 10 1 10 3
M  V30 11 1 11 3
M  V30 12 1 12 4
M  V30 13 1 13 4
M  V30 14 1 14 6
M  V30 15 1 15 6
M  V30 16 1 16 7
M  V30 17 1 17 7
M  V30 END BOND
M  V30 END CTAB
M  END
>  <i_epik_Tot_Q>  (1) 
0

>  <i_epik_Tot_abs_Q>  (1) 
0

>  <i_i_glide_confnum>  (1) 
8

>  <i_i_glide_lignum>  (1) 
34

>  <i_i_glide_posenum>  (1) 
224

>  <i_i_glide_rotatable_bonds>  (1) 
0

>  <i_lp_mmshare_version>  (1) 
72125

>  <i_m_source_file_index>  (1) 
34

>  <i_f3d_flags>  (1) 
0

>  <num_sample>  (1) 
50

>  <b_lp_Chiralities_Consistent>  (1) 
1

>  <r_epik_Charging_Adjusted_Penalty>  (1) 
0

>  <r_epik_Ionization_Penalty>  (1) 
3.933197540425548e-12

>  <r_epik_Ionization_Penalty_Charging>  (1) 
0

>  <r_epik_Ionization_Penalty_Neutral>  (1) 
3.933197540425548e-12

>  <r_epik_State_Penalty>  (1) 
-0

>  <r_glide_ring_energy>  (1) 
0.00055159938950669681

>  <r_i_docking_score>  (1) 
-4.8489594832306588

>  <r_i_glide_ecoul>  (1) 
-0.34197594931957487

>  <r_i_glide_eff_state_penalty>  (1) 
-0

>  <r_i_glide_einternal>  (1) 
0

>  <r_i_glide_emodel>  (1) 
-20.961581926441706

>  <r_i_glide_emodel_strain>  (1) 
0

>  <r_i_glide_energy>  (1) 
-15.935747158906947

>  <r_i_glide_erotb>  (1) 
0

>  <r_i_glide_esite>  (1) 
0

>  <r_i_glide_evdw>  (1) 
-15.593771209587372

>  <r_i_glide_gscore>  (1) 
-4.8489594832306588

>  <r_i_glide_gscore_strain>  (1) 
0

>  <r_i_glide_hbond>  (1) 
0

>  <r_i_glide_ligand_efficiency>  (1) 
-0.6927084976043798

>  <r_i_glide_ligand_efficiency_ln>  (1) 
-1.645997073191662

>  <r_i_glide_ligand_efficiency_sa>  (1) 
-1.325103685638831

>  <r_i_glide_lipo>  (1) 
-1.5142044402941224

>  <r_i_glide_metal>  (1) 
-0

>  <r_i_glide_rewards>  (1) 
-2.5037700900592315

>  <r_lp_Energy>  (1) 
9.6410049999999998

>  <r_lp_tautomer_probability>  (1) 
1

>  <s_epik_cmdline>  (1) 
J2VwaWtfcHl0aG9uJywgJy1waHQnLCAnMS4wJywgJy1waCcsICc3LjQnLCAnLXRuJywgJzgnLCAnLW1hJywgJzUwMCcsICctaW1hZScsICc8aW5maWxlLm1hZT4nLCAnLW9tYWUnLCAnPG91dGZpbGUubWFlPic=

>  <s_epik_input>  (1) 
W0NIMl0xT1tDSDJdW0NIMl1bQ0gyXU9bQ0gyXTE=

>  <s_glide_docking_method>  (1) 
confgen

>  <s_i_glide_gridfile>  (1) 
gpcr_5ht2c_6bqh_protein_autoprepared_prepared

>  <s_lp_Force_Field>  (1) 
S-OPLS

>  <s_lp_Variant>  (1) 
Pocket2Mol_33_num_sample_50-1

>  <s_m_source_file>  (1) 
generated__ligand_Pocket2Mol_2026-05-06_prepared.sdf

>  <GenAI_Model>  (1) 
Pocket2Mol

>  <Protein>  (1) 
GPCR_5HT2C

$$$$
Pocket2Mol_18_num_sample_50
     RDKit          3D

  0  0  0  0  0  0  0  0  0  0999 V3000
M  V30 BEGIN CTAB
M  V30 COUNTS 10 10 0 0 1
M  V30 BEGIN ATOM
M  V30 1 C 38.306873 24.836592 57.202736 0
M  V30 2 C 37.261432 24.740348 56.232436 0
M  V30 3 C 39.395524 25.388729 56.582775 0
M  V30 4 C 37.745440 25.237418 55.053505 0
M  V30 5 N 39.043831 25.628064 55.276128 0
M  V30 6 O 39.867403 26.176840 54.332393 0 CHG=-1
M  V30 7 H 38.264447 24.534985 58.237895 0
M  V30 8 H 36.267401 24.350785 56.382566 0
M  V30 9 H 40.382286 25.632556 56.946421 0
M  V30 10 H 37.290086 25.348894 54.080463 0
M  V30 END ATOM
M  V30 BEGIN BOND
M  V30 1 1 2 1
M  V30 2 2 3 1
M  V30 3 2 4 2
M  V30 4 1 5 3
M  V30 5 1 5 4
M  V30 6 1 6 5
M  V30 7 1 7 1
M  V30 8 1 8 2
M  V30 9 1 9 3
M  V30 10 1 10 4
M  V30 END BOND
M  V30 END CTAB
M  END
>  <i_epik_Tot_Q>  (1) 
-1

>  <i_epik_Tot_abs_Q>  (1) 
1

>  <i_i_glide_confnum>  (1) 
1

>  <i_i_glide_lignum>  (1) 
19

>  <i_i_glide_posenum>  (1) 
295

>  <i_i_glide_rotatable_bonds>  (1) 
0

>  <i_lp_mmshare_version>  (1) 
72125

>  <i_m_source_file_index>  (1) 
19

>  <i_f3d_flags>  (1) 
0

>  <num_sample>  (1) 
50

>  <b_lp_Chiralities_Consistent>  (1) 
1

>  <r_epik_Charging_Adjusted_Penalty>  (1) 
0.038602441834166765

>  <r_epik_Ionization_Penalty>  (1) 
0.019301220976331968

>  <r_epik_Ionization_Penalty_Charging>  (1) 
0.019301220917083386

>  <r_epik_Ionization_Penalty_Neutral>  (1) 
5.9248581604286784e-11

>  <r_epik_State_Penalty>  (1) 
0.019301220917083379

>  <r_glide_ring_energy>  (1) 
0

>  <r_i_docking_score>  (1) 
-4.8426123096655349

>  <r_i_glide_ecoul>  (1) 
-0.43343835675243397

>  <r_i_glide_eff_state_penalty>  (1) 
0.019301220917083379

>  <r_i_glide_einternal>  (1) 
0

>  <r_i_glide_emodel>  (1) 
-17.704035380064219

>  <r_i_glide_emodel_strain>  (1) 
0

>  <r_i_glide_energy>  (1) 
-13.084597998916523

>  <r_i_glide_erotb>  (1) 
0

>  <r_i_glide_esite>  (1) 
0

>  <r_i_glide_evdw>  (1) 
-12.651159642164089

>  <r_i_glide_gscore>  (1) 
-4.8619135305826182

>  <r_i_glide_gscore_strain>  (1) 
0

>  <r_i_glide_hbond>  (1) 
0

>  <r_i_glide_ligand_efficiency>  (1) 
-0.80710205161092252

>  <r_i_glide_ligand_efficiency_ln>  (1) 
-1.7346094328837569

>  <r_i_glide_ligand_efficiency_sa>  (1) 
-1.4666017584992759

>  <r_i_glide_lipo>  (1) 
-1.3200000000000001

>  <r_i_glide_metal>  (1) 
-0

>  <r_i_glide_rewards>  (1) 
-2.8443397949615483

>  <r_lp_Energy>  (1) 
1.8910769999999999

>  <r_lp_tautomer_probability>  (1) 
1

>  <s_epik_cmdline>  (1) 
J2VwaWtfcHl0aG9uJywgJy1waHQnLCAnMS4wJywgJy1waCcsICc3LjQnLCAnLXRuJywgJzgnLCAnLW1hJywgJzUwMCcsICctaW1hZScsICc8aW5maWxlLm1hZT4nLCAnLW9tYWUnLCAnPG91dGZpbGUubWFlPic=

>  <s_epik_input>  (1) 
W2NIXTFbY0hdW2NIXVtjSF1uMVtPSF0=

>  <s_glide_docking_method>  (1) 
confgen

>  <s_i_glide_gridfile>  (1) 
gpcr_5ht2c_6bqh_protein_autoprepared_prepared

>  <s_lp_Force_Field>  (1) 
S-OPLS

>  <s_lp_Variant>  (1) 
Pocket2Mol_18_num_sample_50-1

>  <s_m_source_file>  (1) 
generated__ligand_Pocket2Mol_2026-05-06_prepared.sdf

>  <GenAI_Model>  (1) 
Pocket2Mol

>  <Protein>  (1) 
GPCR_5HT2C

$$$$
Pocket2Mol_35_num_sample_50
     RDKit          3D

  0  0  0  0  0  0  0  0  0  0999 V3000
M  V30 BEGIN CTAB
M  V30 COUNTS 11 11 0 0 1
M  V30 BEGIN ATOM
M  V30 1 C 38.517540 27.741248 52.180261 0
M  V30 2 O 38.422618 28.519927 53.311640 0
M  V30 3 C 39.067403 29.763477 53.453496 0
M  V30 4 O 38.984439 30.450364 54.468074 0
M  V30 5 C 39.867403 30.167856 52.241432 0
M  V30 6 C 39.234227 28.126225 51.130217 0
M  V30 7 C 39.923760 29.369417 51.160897 0
M  V30 8 H 37.957906 26.821429 52.253529 0
M  V30 9 H 40.391821 31.112410 52.261962 0
M  V30 10 H 39.291221 27.496341 50.253521 0
M  V30 11 H 40.502013 29.677835 50.302049 0
M  V30 END ATOM
M  V30 BEGIN BOND
M  V30 1 1 2 1
M  V30 2 1 3 2
M  V30 3 2 4 3
M  V30 4 1 5 3
M  V30 5 2 6 1
M  V30 6 2 7 5
M  V30 7 1 7 6
M  V30 8 1 8 1
M  V30 9 1 9 5
M  V30 10 1 10 6
M  V30 11 1 11 7
M  V30 END BOND
M  V30 END CTAB
M  END
>  <i_epik_Tot_Q>  (1) 
0

>  <i_epik_Tot_abs_Q>  (1) 
0

>  <i_i_glide_confnum>  (1) 
1

>  <i_i_glide_lignum>  (1) 
36

>  <i_i_glide_posenum>  (1) 
363

>  <i_i_glide_rotatable_bonds>  (1) 
0

>  <i_lp_mmshare_version>  (1) 
72125

>  <i_m_source_file_index>  (1) 
36

>  <i_f3d_flags>  (1) 
0

>  <num_sample>  (1) 
50

>  <b_lp_Chiralities_Consistent>  (1) 
1

>  <r_epik_Charging_Adjusted_Penalty>  (1) 
0

>  <r_epik_Ionization_Penalty>  (1) 
2.4984917370333966e-09

>  <r_epik_Ionization_Penalty_Charging>  (1) 
0

>  <r_epik_Ionization_Penalty_Neutral>  (1) 
2.4984917370333966e-09

>  <r_epik_State_Penalty>  (1) 
-0

>  <r_glide_ring_energy>  (1) 
0

>  <r_i_docking_score>  (1) 
-4.8213106875718976

>  <r_i_glide_ecoul>  (1) 
-0.5393564512979232

>  <r_i_glide_eff_state_penalty>  (1) 
-0

>  <r_i_glide_einternal>  (1) 
0

>  <r_i_glide_emodel>  (1) 
-22.068671886439709

>  <r_i_glide_emodel_strain>  (1) 
1.0526779448127854e-09

>  <r_i_glide_energy>  (1) 
-16.867275590190403

>  <r_i_glide_erotb>  (1) 
0

>  <r_i_glide_esite>  (1) 
0

>  <r_i_glide_evdw>  (1) 
-16.327919138892479

>  <r_i_glide_gscore>  (1) 
-4.8213106875718976

>  <r_i_glide_gscore_strain>  (1) 
0

>  <r_i_glide_hbond>  (1) 
0

>  <r_i_glide_ligand_efficiency>  (1) 
-0.68875866965312826

>  <r_i_glide_ligand_efficiency_ln>  (1) 
-1.6366115881429657

>  <r_i_glide_ligand_efficiency_sa>  (1) 
-1.3175479365842959

>  <r_i_glide_lipo>  (1) 
-1.5136169790884648

>  <r_i_glide_metal>  (1) 
-0

>  <r_i_glide_rewards>  (1) 
-2.4103942838441208

>  <r_lp_Energy>  (1) 
11.255118999999999

>  <r_lp_tautomer_probability>  (1) 
1

>  <s_epik_cmdline>  (1) 
J2VwaWtfcHl0aG9uJywgJy1waHQnLCAnMS4wJywgJy1waCcsICc3LjQnLCAnLXRuJywgJzgnLCAnLW1hJywgJzUwMCcsICctaW1hZScsICc8aW5maWxlLm1hZT4nLCAnLW9tYWUnLCAnPG91dGZpbGUubWFlPic=

>  <s_epik_input>  (1) 
W2NIXTFbY0hdW2NIXVtjSF1vYzE9Tw==

>  <s_glide_docking_method>  (1) 
confgen

>  <s_i_glide_gridfile>  (1) 
gpcr_5ht2c_6bqh_protein_autoprepared_prepared

>  <s_lp_Force_Field>  (1) 
S-OPLS

>  <s_lp_Variant>  (1) 
Pocket2Mol_35_num_sample_50-1

>  <s_m_source_file>  (1) 
generated__ligand_Pocket2Mol_2026-05-06_prepared.sdf

>  <GenAI_Model>  (1) 
Pocket2Mol

>  <Protein>  (1) 
GPCR_5HT2C

$$$$
Pocket2Mol_37_num_sample_50
     RDKit          3D

  0  0  0  0  0  0  0  0  0  0999 V3000
M  V30 BEGIN CTAB
M  V30 COUNTS 15 15 0 0 1
M  V30 BEGIN ATOM
M  V30 1 C 39.994590 28.946563 51.422999 0
M  V30 2 C 39.067046 27.724149 51.372147 0
M  V30 3 O 39.467580 30.018977 52.189853 0
M  V30 4 C 39.067505 29.705333 53.486615 0
M  V30 5 O 39.085322 27.115860 52.650516 0
M  V30 6 O 37.890776 28.960480 53.490567 0
M  V30 7 C 38.093986 27.579366 53.512899 0
M  V30 8 H 40.974011 28.664749 51.806755 0
M  V30 9 H 40.157487 29.320599 50.412009 0
M  V30 10 H 39.457908 27.004032 50.653076 0
M  V30 11 H 38.056062 27.981900 51.053499 0
M  V30 12 H 38.832932 30.655411 53.967172 0
M  V30 13 H 39.866982 29.240330 54.065645 0
M  V30 14 H 38.351843 27.270224 54.526715 0
M  V30 15 H 37.148756 27.102650 53.247967 0
M  V30 END ATOM
M  V30 BEGIN BOND
M  V30 1 1 2 1
M  V30 2 1 3 1
M  V30 3 1 4 3
M  V30 4 1 5 2
M  V30 5 1 6 4
M  V30 6 1 7 5
M  V30 7 1 7 6
M  V30 8 1 8 1
M  V30 9 1 9 1
M  V30 10 1 10 2
M  V30 11 1 11 2
M  V30 12 1 12 4
M  V30 13 1 13 4
M  V30 14 1 14 7
M  V30 15 1 15 7
M  V30 END BOND
M  V30 END CTAB
M  END
>  <i_epik_Tot_Q>  (1) 
0

>  <i_epik_Tot_abs_Q>  (1) 
0

>  <i_i_glide_confnum>  (1) 
6

>  <i_i_glide_lignum>  (1) 
38

>  <i_i_glide_posenum>  (1) 
379

>  <i_i_glide_rotatable_bonds>  (1) 
0

>  <i_lp_mmshare_version>  (1) 
72125

>  <i_m_source_file_index>  (1) 
38

>  <i_f3d_flags>  (1) 
0

>  <num_sample>  (1) 
50

>  <b_lp_Chiralities_Consistent>  (1) 
1

>  <r_epik_Charging_Adjusted_Penalty>  (1) 
0

>  <r_epik_Ionization_Penalty>  (1) 
4.6834743432320728e-14

>  <r_epik_Ionization_Penalty_Charging>  (1) 
0

>  <r_epik_Ionization_Penalty_Neutral>  (1) 
4.6834743432320728e-14

>  <r_epik_State_Penalty>  (1) 
-0

>  <r_glide_ring_energy>  (1) 
0.00047957236178236941

>  <r_i_docking_score>  (1) 
-4.8115414809406518

>  <r_i_glide_ecoul>  (1) 
-0.95935032819725719

>  <r_i_glide_eff_state_penalty>  (1) 
-0

>  <r_i_glide_einternal>  (1) 
0

>  <r_i_glide_emodel>  (1) 
-22.083224121156057

>  <r_i_glide_emodel_strain>  (1) 
0

>  <r_i_glide_energy>  (1) 
-16.68170870801217

>  <r_i_glide_erotb>  (1) 
0

>  <r_i_glide_esite>  (1) 
0

>  <r_i_glide_evdw>  (1) 
-15.722358379814912

>  <r_i_glide_gscore>  (1) 
-4.8115414809406518

>  <r_i_glide_gscore_strain>  (1) 
0

>  <r_i_glide_hbond>  (1) 
0

>  <r_i_glide_ligand_efficiency>  (1) 
-0.68736306870580743

>  <r_i_glide_ligand_efficiency_ln>  (1) 
-1.6332953951374261

>  <r_i_glide_ligand_efficiency_sa>  (1) 
-1.3148782480134591

>  <r_i_glide_lipo>  (1) 
-0.66000000000000003

>  <r_i_glide_metal>  (1) 
-0

>  <r_i_glide_rewards>  (1) 
-3.2215210127203173

>  <r_lp_Energy>  (1) 
1.238378

>  <r_lp_tautomer_probability>  (1) 
1

>  <s_epik_Chemistry_Notes>  (1) 
This compound contains an acetal/aminal-like group ( X-CH(R)-Y where X, Y are N, S, or O) that may be acid/base labile, releasing an aldehyde.

>  <s_epik_cmdline>  (1) 
J2VwaWtfcHl0aG9uJywgJy1waHQnLCAnMS4wJywgJy1waCcsICc3LjQnLCAnLXRuJywgJzgnLCAnLW1hJywgJzUwMCcsICctaW1hZScsICc8aW5maWxlLm1hZT4nLCAnLW9tYWUnLCAnPG91dGZpbGUubWFlPic=

>  <s_epik_input>  (1) 
W0NIMl0xW0NIMl1PW0NIMl1PW0NIMl1PMQ==

>  <s_glide_docking_method>  (1) 
confgen

>  <s_i_glide_gridfile>  (1) 
gpcr_5ht2c_6bqh_protein_autoprepared_prepared

>  <s_lp_Force_Field>  (1) 
S-OPLS

>  <s_lp_Variant>  (1) 
Pocket2Mol_37_num_sample_50-1

>  <s_m_source_file>  (1) 
generated__ligand_Pocket2Mol_2026-05-06_prepared.sdf

>  <GenAI_Model>  (1) 
Pocket2Mol

>  <Protein>  (1) 
GPCR_5HT2C

$$$$
Pocket2Mol_2_num_sample_50
     RDKit          3D

  0  0  0  0  0  0  0  0  0  0999 V3000
M  V30 BEGIN CTAB
M  V30 COUNTS 9 9 0 0 1
M  V30 BEGIN ATOM
M  V30 1 C 39.823284 28.805138 50.653502 0
M  V30 2 C 39.067404 27.740789 51.204823 0
M  V30 3 C 39.866728 29.706432 51.550036 0
M  V30 4 C 39.134340 29.196156 52.651879 0
M  V30 5 C 38.619005 27.957913 52.464029 0
M  V30 6 H 40.267414 28.844237 49.670743 0
M  V30 7 H 38.869453 26.832051 50.653662 0
M  V30 8 H 40.357615 30.667102 51.483833 0
M  V30 9 H 39.004528 29.759670 53.564498 0
M  V30 END ATOM
M  V30 BEGIN BOND
M  V30 1 1 2 1
M  V30 2 2 3 1
M  V30 3 1 4 3
M  V30 4 2 5 2
M  V30 5 2 5 4
M  V30 6 1 6 1
M  V30 7 1 7 2
M  V30 8 1 8 3
M  V30 9 1 9 4
M  V30 END BOND
M  V30 END CTAB
M  END
>  <i_epik_Tot_Q>  (1) 
0

>  <i_epik_Tot_abs_Q>  (1) 
0

>  <i_i_glide_confnum>  (1) 
1

>  <i_i_glide_lignum>  (1) 
3

>  <i_i_glide_posenum>  (1) 
178

>  <i_i_glide_rotatable_bonds>  (1) 
0

>  <i_lp_mmshare_version>  (1) 
72125

>  <i_m_source_file_index>  (1) 
3

>  <i_f3d_flags>  (1) 
0

>  <num_sample>  (1) 
50

>  <b_lp_Chiralities_Consistent>  (1) 
1

>  <r_epik_Charging_Adjusted_Penalty>  (1) 
0

>  <r_epik_Ionization_Penalty>  (1) 
0

>  <r_epik_Ionization_Penalty_Charging>  (1) 
0

>  <r_epik_Ionization_Penalty_Neutral>  (1) 
0

>  <r_epik_State_Penalty>  (1) 
-0

>  <r_glide_ring_energy>  (1) 
0

>  <r_i_docking_score>  (1) 
-4.8092586642394721

>  <r_i_glide_ecoul>  (1) 
-0.38959767894843989

>  <r_i_glide_eff_state_penalty>  (1) 
-0

>  <r_i_glide_einternal>  (1) 
0

>  <r_i_glide_emodel>  (1) 
-18.907440161728516

>  <r_i_glide_emodel_strain>  (1) 
0

>  <r_i_glide_energy>  (1) 
-14.772038343950165

>  <r_i_glide_erotb>  (1) 
0

>  <r_i_glide_esite>  (1) 
0

>  <r_i_glide_evdw>  (1) 
-14.382440665001724

>  <r_i_glide_gscore>  (1) 
-4.8092586642394721

>  <r_i_glide_gscore_strain>  (1) 
0

>  <r_i_glide_hbond>  (1) 
0

>  <r_i_glide_ligand_efficiency>  (1) 
-0.96185173284789438

>  <r_i_glide_ligand_efficiency_ln>  (1) 
-1.8430247530792425

>  <r_i_glide_ligand_efficiency_sa>  (1) 
-1.6447433274391998

>  <r_i_glide_lipo>  (1) 
-1.5874143296210836

>  <r_i_glide_metal>  (1) 
-0

>  <r_i_glide_rewards>  (1) 
-2.4442826495260355

>  <r_lp_Energy>  (1) 
-2.6088139999999997

>  <r_lp_tautomer_probability>  (1) 
1

>  <s_epik_cmdline>  (1) 
J2VwaWtfcHl0aG9uJywgJy1waHQnLCAnMS4wJywgJy1waCcsICc3LjQnLCAnLXRuJywgJzgnLCAnLW1hJywgJzUwMCcsICctaW1hZScsICc8aW5maWxlLm1hZT4nLCAnLW9tYWUnLCAnPG91dGZpbGUubWFlPic=

>  <s_epik_input>  (1) 
W0NIXTE9W0NIXVtDSF09Qz1bQ0hdMQ==

>  <s_glide_docking_method>  (1) 
confgen

>  <s_i_glide_gridfile>  (1) 
gpcr_5ht2c_6bqh_protein_autoprepared_prepared

>  <s_lp_Force_Field>  (1) 
S-OPLS

>  <s_lp_Variant>  (1) 
Pocket2Mol_2_num_sample_50-1

>  <s_m_source_file>  (1) 
generated__ligand_Pocket2Mol_2026-05-06_prepared.sdf

>  <GenAI_Model>  (1) 
Pocket2Mol

>  <Protein>  (1) 
GPCR_5HT2C

$$$$
Pocket2Mol_14_num_sample_50
     RDKit          3D

  0  0  0  0  0  0  0  0  0  0999 V3000
M  V30 BEGIN CTAB
M  V30 COUNTS 18 18 0 0 1
M  V30 BEGIN ATOM
M  V30 1 C 37.603842 26.003316 55.657699 0
M  V30 2 C 37.640761 24.515511 55.992188 0
M  V30 3 C 38.758358 26.618487 56.450707 0
M  V30 4 C 38.223682 24.421494 57.409971 0
M  V30 5 C 38.777436 25.810696 57.753857 0
M  V30 6 C 40.091645 26.531688 55.696117 0
M  V30 7 H 36.667453 26.421423 56.017774 0
M  V30 8 H 37.661764 26.195973 54.585327 0
M  V30 9 H 36.661209 24.043018 55.908368 0
M  V30 10 H 38.304442 24.021328 55.284144 0
M  V30 11 H 38.551418 27.669015 56.660324 0
M  V30 12 H 37.462150 24.126499 58.132094 0
M  V30 13 H 39.010777 23.666565 57.452589 0
M  V30 14 H 39.768690 25.759510 58.206602 0
M  V30 15 H 38.120101 26.286327 58.482165 0
M  V30 16 H 40.364071 25.500854 55.470522 0
M  V30 17 H 40.900837 26.965608 56.284701 0
M  V30 18 H 40.037395 27.074974 54.753106 0
M  V30 END ATOM
M  V30 BEGIN BOND
M  V30 1 1 2 1
M  V30 2 1 3 1
M  V30 3 1 4 2
M  V30 4 1 5 3
M  V30 5 1 5 4
M  V30 6 1 6 3
M  V30 7 1 7 1
M  V30 8 1 8 1
M  V30 9 1 9 2
M  V30 10 1 10 2
M  V30 11 1 11 3
M  V30 12 1 12 4
M  V30 13 1 13 4
M  V30 14 1 14 5
M  V30 15 1 15 5
M  V30 16 1 16 6
M  V30 17 1 17 6
M  V30 18 1 18 6
M  V30 END BOND
M  V30 END CTAB
M  END
>  <i_epik_Tot_Q>  (1) 
0

>  <i_epik_Tot_abs_Q>  (1) 
0

>  <i_i_glide_confnum>  (1) 
4

>  <i_i_glide_lignum>  (1) 
15

>  <i_i_glide_posenum>  (1) 
13

>  <i_i_glide_rotatable_bonds>  (1) 
0

>  <i_lp_mmshare_version>  (1) 
72125

>  <i_m_source_file_index>  (1) 
15

>  <i_f3d_flags>  (1) 
0

>  <num_sample>  (1) 
50

>  <b_lp_Chiralities_Consistent>  (1) 
1

>  <r_epik_Charging_Adjusted_Penalty>  (1) 
0

>  <r_epik_Ionization_Penalty>  (1) 
0

>  <r_epik_Ionization_Penalty_Charging>  (1) 
0

>  <r_epik_Ionization_Penalty_Neutral>  (1) 
0

>  <r_epik_State_Penalty>  (1) 
-0

>  <r_glide_ring_energy>  (1) 
1.1090637560940064

>  <r_i_docking_score>  (1) 
-4.8046565388331031

>  <r_i_glide_ecoul>  (1) 
0.073808703522766972

>  <r_i_glide_eff_state_penalty>  (1) 
-0

>  <r_i_glide_einternal>  (1) 
0

>  <r_i_glide_emodel>  (1) 
-18.700784160020451

>  <r_i_glide_emodel_strain>  (1) 
6.4860794051213588e-05

>  <r_i_glide_energy>  (1) 
-14.017557453271182

>  <r_i_glide_erotb>  (1) 
0

>  <r_i_glide_esite>  (1) 
0

>  <r_i_glide_evdw>  (1) 
-14.091366156793949

>  <r_i_glide_gscore>  (1) 
-4.8046565388331031

>  <r_i_glide_gscore_strain>  (1) 
0

>  <r_i_glide_hbond>  (1) 
0

>  <r_i_glide_ligand_efficiency>  (1) 
-0.80077608980551718

>  <r_i_glide_ligand_efficiency_ln>  (1) 
-1.721013787825221

>  <r_i_glide_ligand_efficiency_sa>  (1) 
-1.4551067230332042

>  <r_i_glide_lipo>  (1) 
-1.7189227098335811

>  <r_i_glide_metal>  (1) 
-0

>  <r_i_glide_rewards>  (1) 
-2.3922368266882392

>  <r_lp_Energy>  (1) 
6.4120089999999994

>  <r_lp_tautomer_probability>  (1) 
1

>  <s_epik_cmdline>  (1) 
J2VwaWtfcHl0aG9uJywgJy1waHQnLCAnMS4wJywgJy1waCcsICc3LjQnLCAnLXRuJywgJzgnLCAnLW1hJywgJzUwMCcsICctaW1hZScsICc8aW5maWxlLm1hZT4nLCAnLW9tYWUnLCAnPG91dGZpbGUubWFlPic=

>  <s_epik_input>  (1) 
W0NIM11bQ0hdMVtDSDJdW0NIMl1bQ0gyXVtDSDJdMQ==

>  <s_glide_docking_method>  (1) 
confgen

>  <s_i_glide_gridfile>  (1) 
gpcr_5ht2c_6bqh_protein_autoprepared_prepared

>  <s_lp_Force_Field>  (1) 
S-OPLS

>  <s_lp_Variant>  (1) 
Pocket2Mol_14_num_sample_50-1

>  <s_m_source_file>  (1) 
generated__ligand_Pocket2Mol_2026-05-06_prepared.sdf

>  <GenAI_Model>  (1) 
Pocket2Mol

>  <Protein>  (1) 
GPCR_5HT2C

$$$$
Pocket2Mol_26_num_sample_50
     RDKit          3D

  0  0  0  0  0  0  0  0  0  0999 V3000
M  V30 BEGIN CTAB
M  V30 COUNTS 13 13 0 0 1
M  V30 BEGIN ATOM
M  V30 1 C 39.467533 28.409617 50.825863 0
M  V30 2 O 38.987227 27.947159 52.077581 0
M  V30 3 C 38.667411 28.802450 53.080823 0
M  V30 4 O 37.842922 28.565807 53.960439 0
M  V30 5 C 39.467403 30.126448 53.053496 0
M  V30 6 C 40.490874 29.529537 50.986023 0
M  V30 7 O 39.867398 30.542019 51.747266 0
M  V30 8 H 38.622033 28.770609 50.248685 0
M  V30 9 H 39.897155 27.571234 50.276895 0
M  V30 10 H 40.352713 30.021437 53.679581 0
M  V30 11 H 38.861746 30.917141 53.497263 0
M  V30 12 H 40.764032 29.933166 50.010595 0
M  V30 13 H 41.407623 29.174052 51.453515 0
M  V30 END ATOM
M  V30 BEGIN BOND
M  V30 1 1 2 1
M  V30 2 1 3 2
M  V30 3 2 4 3
M  V30 4 1 5 3
M  V30 5 1 6 1
M  V30 6 1 7 5
M  V30 7 1 7 6
M  V30 8 1 8 1
M  V30 9 1 9 1
M  V30 10 1 10 5
M  V30 11 1 11 5
M  V30 12 1 12 6
M  V30 13 1 13 6
M  V30 END BOND
M  V30 END CTAB
M  END
>  <i_epik_Tot_Q>  (1) 
0

>  <i_epik_Tot_abs_Q>  (1) 
0

>  <i_i_glide_confnum>  (1) 
2

>  <i_i_glide_lignum>  (1) 
27

>  <i_i_glide_posenum>  (1) 
152

>  <i_i_glide_rotatable_bonds>  (1) 
0

>  <i_lp_mmshare_version>  (1) 
72125

>  <i_m_source_file_index>  (1) 
27

>  <i_f3d_flags>  (1) 
0

>  <num_sample>  (1) 
50

>  <b_lp_Chiralities_Consistent>  (1) 
1

>  <r_epik_Charging_Adjusted_Penalty>  (1) 
0

>  <r_epik_Ionization_Penalty>  (1) 
1.0677269036415479e-12

>  <r_epik_Ionization_Penalty_Charging>  (1) 
0

>  <r_epik_Ionization_Penalty_Neutral>  (1) 
1.0677269036415479e-12

>  <r_epik_State_Penalty>  (1) 
-0

>  <r_glide_ring_energy>  (1) 
4.2281688740393558e-05

>  <r_i_docking_score>  (1) 
-4.7884715428870308

>  <r_i_glide_ecoul>  (1) 
0.11097106742387053

>  <r_i_glide_eff_state_penalty>  (1) 
-0

>  <r_i_glide_einternal>  (1) 
0

>  <r_i_glide_emodel>  (1) 
-21.231467214891637

>  <r_i_glide_emodel_strain>  (1) 
0

>  <r_i_glide_energy>  (1) 
-16.316700731088041

>  <r_i_glide_erotb>  (1) 
0

>  <r_i_glide_esite>  (1) 
0

>  <r_i_glide_evdw>  (1) 
-16.427671798511913

>  <r_i_glide_gscore>  (1) 
-4.7884715428870308

>  <r_i_glide_gscore_strain>  (1) 
0

>  <r_i_glide_hbond>  (1) 
0

>  <r_i_glide_ligand_efficiency>  (1) 
-0.68406736326957585

>  <r_i_glide_ligand_efficiency_ln>  (1) 
-1.6254642200891922

>  <r_i_glide_ligand_efficiency_sa>  (1) 
-1.3085737903152592

>  <r_i_glide_lipo>  (1) 
-0.87761436415476568

>  <r_i_glide_metal>  (1) 
-0

>  <r_i_glide_rewards>  (1) 
-3.1061192489202503

>  <r_lp_Energy>  (1) 
12.58291

>  <r_lp_tautomer_probability>  (1) 
1

>  <s_epik_Chemistry_Notes>  (1) 
This compound has an ester and may undergo hydrolysis at high or low pH.

>  <s_epik_cmdline>  (1) 
J2VwaWtfcHl0aG9uJywgJy1waHQnLCAnMS4wJywgJy1waCcsICc3LjQnLCAnLXRuJywgJzgnLCAnLW1hJywgJzUwMCcsICctaW1hZScsICc8aW5maWxlLm1hZT4nLCAnLW9tYWUnLCAnPG91dGZpbGUubWFlPic=

>  <s_epik_input>  (1) 
W0NIMl0xT1tDSDJdW0NIMl1PQzE9Tw==

>  <s_glide_docking_method>  (1) 
confgen

>  <s_i_glide_gridfile>  (1) 
gpcr_5ht2c_6bqh_protein_autoprepared_prepared

>  <s_lp_Force_Field>  (1) 
S-OPLS

>  <s_lp_Variant>  (1) 
Pocket2Mol_26_num_sample_50-1

>  <s_m_source_file>  (1) 
generated__ligand_Pocket2Mol_2026-05-06_prepared.sdf

>  <GenAI_Model>  (1) 
Pocket2Mol

>  <Protein>  (1) 
GPCR_5HT2C

$$$$
Pocket2Mol_44_num_sample_50
     RDKit          3D

  0  0  0  0  0  0  0  0  0  0999 V3000
M  V30 BEGIN CTAB
M  V30 COUNTS 12 11 0 0 1
M  V30 BEGIN ATOM
M  V30 1 C 37.174989 35.913865 60.591840 0
M  V30 2 O 36.943916 34.546390 60.880267 0
M  V30 3 C 36.564202 33.718046 59.890274 0
M  V30 4 C 36.376538 32.277515 60.411154 0
M  V30 5 O 36.382876 34.039365 58.715840 0
M  V30 6 O 36.565089 31.964055 61.584454 0
M  V30 7 N 35.994508 31.433066 59.453501 0
M  V30 8 H 37.473499 36.436888 61.500393 0
M  V30 9 H 37.971449 36.028600 59.855661 0
M  V30 10 H 36.272301 36.389385 60.205809 0
M  V30 11 H 35.867037 31.772974 58.479571 0
M  V30 12 H 35.837193 30.463709 59.672140 0
M  V30 END ATOM
M  V30 BEGIN BOND
M  V30 1 1 2 1
M  V30 2 1 3 2
M  V30 3 1 4 3
M  V30 4 2 5 3
M  V30 5 2 6 4
M  V30 6 1 7 4
M  V30 7 1 8 1
M  V30 8 1 9 1
M  V30 9 1 10 1
M  V30 10 1 11 7
M  V30 11 1 12 7
M  V30 END BOND
M  V30 END CTAB
M  END
>  <i_epik_Tot_Q>  (1) 
0

>  <i_epik_Tot_abs_Q>  (1) 
0

>  <i_i_glide_confnum>  (1) 
1

>  <i_i_glide_lignum>  (1) 
45

>  <i_i_glide_posenum>  (1) 
157

>  <i_i_glide_rotatable_bonds>  (1) 
2

>  <i_lp_mmshare_version>  (1) 
72125

>  <i_m_source_file_index>  (1) 
45

>  <i_f3d_flags>  (1) 
0

>  <num_sample>  (1) 
50

>  <b_lp_Chiralities_Consistent>  (1) 
1

>  <r_epik_Charging_Adjusted_Penalty>  (1) 
0

>  <r_epik_Ionization_Penalty>  (1) 
3.9236796398539443e-05

>  <r_epik_Ionization_Penalty_Charging>  (1) 
0

>  <r_epik_Ionization_Penalty_Neutral>  (1) 
3.9236796398539443e-05

>  <r_epik_State_Penalty>  (1) 
-0

>  <r_glide_ring_energy>  (1) 
0

>  <r_i_docking_score>  (1) 
-4.7596732111734159

>  <r_i_glide_ecoul>  (1) 
-7.587821824820618

>  <r_i_glide_eff_state_penalty>  (1) 
-0

>  <r_i_glide_einternal>  (1) 
0.00041215651613324411

>  <r_i_glide_emodel>  (1) 
-25.241199857371779

>  <r_i_glide_emodel_strain>  (1) 
0

>  <r_i_glide_energy>  (1) 
-18.814459198818771

>  <r_i_glide_erotb>  (1) 
0

>  <r_i_glide_esite>  (1) 
-0.15963885628356875

>  <r_i_glide_evdw>  (1) 
-11.226637373998154

>  <r_i_glide_gscore>  (1) 
-4.7596732111734159

>  <r_i_glide_gscore_strain>  (1) 
0

>  <r_i_glide_hbond>  (1) 
-0.45599999999999996

>  <r_i_glide_ligand_efficiency>  (1) 
-0.67995331588191654

>  <r_i_glide_ligand_efficiency_ln>  (1) 
-1.6156885208123999

>  <r_i_glide_ligand_efficiency_sa>  (1) 
-1.3007039007800025

>  <r_i_glide_lipo>  (1) 
-0.19452922633172764

>  <r_i_glide_metal>  (1) 
-0

>  <r_i_glide_rewards>  (1) 
-2.2499999861351192

>  <r_lp_Energy>  (1) 
8.3220650000000003

>  <r_lp_tautomer_probability>  (1) 
1

>  <s_epik_Chemistry_Notes>  (1) 
This compound has an ester and may undergo hydrolysis at high or low pH.

>  <s_epik_cmdline>  (1) 
J2VwaWtfcHl0aG9uJywgJy1waHQnLCAnMS4wJywgJy1waCcsICc3LjQnLCAnLXRuJywgJzgnLCAnLW1hJywgJzUwMCcsICctaW1hZScsICc8aW5maWxlLm1hZT4nLCAnLW9tYWUnLCAnPG91dGZpbGUubWFlPic=

>  <s_epik_input>  (1) 
W0NIM11PQyg9TylDKD1PKVtOSDJd

>  <s_glide_docking_method>  (1) 
confgen

>  <s_i_glide_gridfile>  (1) 
gpcr_5ht2c_6bqh_protein_autoprepared_prepared

>  <s_lp_Force_Field>  (1) 
S-OPLS

>  <s_lp_Variant>  (1) 
Pocket2Mol_44_num_sample_50-1

>  <s_m_source_file>  (1) 
generated__ligand_Pocket2Mol_2026-05-06_prepared.sdf

>  <GenAI_Model>  (1) 
Pocket2Mol

>  <Protein>  (1) 
GPCR_5HT2C

$$$$
Pocket2Mol_34_num_sample_50
     RDKit          3D

  0  0  0  0  0  0  0  0  0  0999 V3000
M  V30 BEGIN CTAB
M  V30 COUNTS 19 19 0 0 1
M  V30 BEGIN ATOM
M  V30 1 C 39.176076 27.562058 52.353411 0
M  V30 2 C 39.233242 29.006611 51.827199 0
M  V30 3 C 38.208139 27.443390 53.541393 0
M  V30 4 O 40.211774 29.109452 50.816684 0
M  V30 5 C 38.573102 28.437774 54.656530 0
M  V30 6 C 38.580174 29.884739 54.136051 0
M  V30 7 C 39.527557 30.046554 52.933718 0
M  V30 8 H 38.859851 26.890600 51.553560 0
M  V30 9 H 40.166919 27.221554 52.654021 0
M  V30 10 H 38.266575 29.221438 51.374791 0
M  V30 11 H 37.187722 27.629333 53.202621 0
M  V30 12 H 38.221988 26.424470 53.929865 0
M  V30 13 H 40.149694 29.968080 50.425397 0
M  V30 14 H 37.867404 28.345841 55.482440 0
M  V30 15 H 39.554737 28.189475 55.062238 0
M  V30 16 H 37.566652 30.171039 53.854396 0
M  V30 17 H 38.875448 30.566405 54.934616 0
M  V30 18 H 40.557351 29.990254 53.278686 0
M  V30 19 H 39.464920 31.057377 52.530082 0
M  V30 END ATOM
M  V30 BEGIN BOND
M  V30 1 1 2 1
M  V30 2 1 3 1
M  V30 3 1 4 2
M  V30 4 1 5 3
M  V30 5 1 6 5
M  V30 6 1 7 2
M  V30 7 1 7 6
M  V30 8 1 8 1
M  V30 9 1 9 1
M  V30 10 1 10 2
M  V30 11 1 11 3
M  V30 12 1 12 3
M  V30 13 1 13 4
M  V30 14 1 14 5
M  V30 15 1 15 5
M  V30 16 1 16 6
M  V30 17 1 17 6
M  V30 18 1 18 7
M  V30 19 1 19 7
M  V30 END BOND
M  V30 END CTAB
M  END
>  <i_epik_Tot_Q>  (1) 
0

>  <i_epik_Tot_abs_Q>  (1) 
0

>  <i_i_glide_confnum>  (1) 
1

>  <i_i_glide_lignum>  (1) 
35

>  <i_i_glide_posenum>  (1) 
28

>  <i_i_glide_rotatable_bonds>  (1) 
1

>  <i_lp_mmshare_version>  (1) 
72125

>  <i_m_source_file_index>  (1) 
35

>  <i_f3d_flags>  (1) 
0

>  <num_sample>  (1) 
50

>  <b_lp_Chiralities_Consistent>  (1) 
1

>  <r_epik_Charging_Adjusted_Penalty>  (1) 
0

>  <r_epik_Ionization_Penalty>  (1) 
4.7751045033339745e-07

>  <r_epik_Ionization_Penalty_Charging>  (1) 
0

>  <r_epik_Ionization_Penalty_Neutral>  (1) 
4.7751045033339745e-07

>  <r_epik_State_Penalty>  (1) 
-0

>  <r_glide_ring_energy>  (1) 
0

>  <r_i_docking_score>  (1) 
-4.7513303757593546

>  <r_i_glide_ecoul>  (1) 
-0.16742455737366879

>  <r_i_glide_eff_state_penalty>  (1) 
-0

>  <r_i_glide_einternal>  (1) 
0.32766901970674822

>  <r_i_glide_emodel>  (1) 
-20.9439699921708

>  <r_i_glide_emodel_strain>  (1) 
1.7785123596070207e-08

>  <r_i_glide_energy>  (1) 
-15.922777053021797

>  <r_i_glide_erotb>  (1) 
0

>  <r_i_glide_esite>  (1) 
0

>  <r_i_glide_evdw>  (1) 
-15.755352495648127

>  <r_i_glide_gscore>  (1) 
-4.7513303757593546

>  <r_i_glide_gscore_strain>  (1) 
0

>  <r_i_glide_hbond>  (1) 
0

>  <r_i_glide_ligand_efficiency>  (1) 
-0.67876148225133637

>  <r_i_glide_ligand_efficiency_ln>  (1) 
-1.6128565147457055

>  <r_i_glide_ligand_efficiency_sa>  (1) 
-1.2984240050633888

>  <r_i_glide_lipo>  (1) 
-1.625820893408962

>  <r_i_glide_metal>  (1) 
-0

>  <r_i_glide_rewards>  (1) 
-2.3126281739619361

>  <r_lp_Energy>  (1) 
3.8568439999999997

>  <r_lp_tautomer_probability>  (1) 
1

>  <s_epik_cmdline>  (1) 
J2VwaWtfcHl0aG9uJywgJy1waHQnLCAnMS4wJywgJy1waCcsICc3LjQnLCAnLXRuJywgJzgnLCAnLW1hJywgJzUwMCcsICctaW1hZScsICc8aW5maWxlLm1hZT4nLCAnLW9tYWUnLCAnPG91dGZpbGUubWFlPic=

>  <s_epik_input>  (1) 
W09IXVtDSF0xW0NIMl1bQ0gyXVtDSDJdW0NIMl1bQ0gyXTE=

>  <s_glide_docking_method>  (1) 
confgen

>  <s_i_glide_gridfile>  (1) 
gpcr_5ht2c_6bqh_protein_autoprepared_prepared

>  <s_lp_Force_Field>  (1) 
S-OPLS

>  <s_lp_Variant>  (1) 
Pocket2Mol_34_num_sample_50-1

>  <s_m_source_file>  (1) 
generated__ligand_Pocket2Mol_2026-05-06_prepared.sdf

>  <GenAI_Model>  (1) 
Pocket2Mol

>  <Protein>  (1) 
GPCR_5HT2C

$$$$
Pocket2Mol_43_num_sample_50
     RDKit          3D

  0  0  0  0  0  0  0  0  0  0999 V3000
M  V30 BEGIN CTAB
M  V30 COUNTS 15 15 0 0 1
M  V30 BEGIN ATOM
M  V30 1 C 39.312076 27.392913 52.092799 0
M  V30 2 O 38.288459 27.863450 52.959246 0
M  V30 3 C 38.296835 29.124332 53.466529 0
M  V30 4 O 37.464931 29.563325 54.254752 0
M  V30 5 C 39.467393 29.987792 52.965919 0
M  V30 6 C 39.505637 28.378235 50.943387 0
M  V30 7 C 39.885434 29.758422 51.493346 0
M  V30 8 H 40.238751 27.254574 52.650908 0
M  V30 9 H 39.028590 26.421380 51.694940 0
M  V30 10 H 39.222846 31.038749 53.119973 0
M  V30 11 H 40.292763 29.777251 53.637240 0
M  V30 12 H 40.267397 28.013621 50.254548 0
M  V30 13 H 38.583531 28.444750 50.368113 0
M  V30 14 H 39.466802 30.536314 50.855253 0
M  V30 15 H 40.967203 29.877093 51.425730 0
M  V30 END ATOM
M  V30 BEGIN BOND
M  V30 1 1 2 1
M  V30 2 1 3 2
M  V30 3 2 4 3
M  V30 4 1 5 3
M  V30 5 1 6 1
M  V30 6 1 7 5
M  V30 7 1 7 6
M  V30 8 1 8 1
M  V30 9 1 9 1
M  V30 10 1 10 5
M  V30 11 1 11 5
M  V30 12 1 12 6
M  V30 13 1 13 6
M  V30 14 1 14 7
M  V30 15 1 15 7
M  V30 END BOND
M  V30 END CTAB
M  END
>  <i_epik_Tot_Q>  (1) 
0

>  <i_epik_Tot_abs_Q>  (1) 
0

>  <i_i_glide_confnum>  (1) 
3

>  <i_i_glide_lignum>  (1) 
44

>  <i_i_glide_posenum>  (1) 
129

>  <i_i_glide_rotatable_bonds>  (1) 
0

>  <i_lp_mmshare_version>  (1) 
72125

>  <i_m_source_file_index>  (1) 
44

>  <i_f3d_flags>  (1) 
0

>  <num_sample>  (1) 
50

>  <b_lp_Chiralities_Consistent>  (1) 
1

>  <r_epik_Charging_Adjusted_Penalty>  (1) 
0

>  <r_epik_Ionization_Penalty>  (1) 
4.2138389519661579e-10

>  <r_epik_Ionization_Penalty_Charging>  (1) 
0

>  <r_epik_Ionization_Penalty_Neutral>  (1) 
4.2138389519661579e-10

>  <r_epik_State_Penalty>  (1) 
-0

>  <r_glide_ring_energy>  (1) 
0.70452651660711352

>  <r_i_docking_score>  (1) 
-4.7418893247721918

>  <r_i_glide_ecoul>  (1) 
0.097155172114914312

>  <r_i_glide_eff_state_penalty>  (1) 
-0

>  <r_i_glide_einternal>  (1) 
0

>  <r_i_glide_emodel>  (1) 
-21.656328007107959

>  <r_i_glide_emodel_strain>  (1) 
0

>  <r_i_glide_energy>  (1) 
-16.334327729035966

>  <r_i_glide_erotb>  (1) 
0

>  <r_i_glide_esite>  (1) 
0

>  <r_i_glide_evdw>  (1) 
-16.431482901150879

>  <r_i_glide_gscore>  (1) 
-4.7418893247721918

>  <r_i_glide_gscore_strain>  (1) 
0

>  <r_i_glide_hbond>  (1) 
0

>  <r_i_glide_ligand_efficiency>  (1) 
-0.67741276068174172

>  <r_i_glide_ligand_efficiency_ln>  (1) 
-1.6096517153765901

>  <r_i_glide_ligand_efficiency_sa>  (1) 
-1.2958439935160335

>  <r_i_glide_lipo>  (1) 
-1.1620755419671722

>  <r_i_glide_metal>  (1) 
-0

>  <r_i_glide_rewards>  (1) 
-2.7728129135647128

>  <r_lp_Energy>  (1) 
8.5246700000000004

>  <r_lp_tautomer_probability>  (1) 
1

>  <s_epik_Chemistry_Notes>  (1) 
This compound has an ester and may undergo hydrolysis at high or low pH.

>  <s_epik_cmdline>  (1) 
J2VwaWtfcHl0aG9uJywgJy1waHQnLCAnMS4wJywgJy1waCcsICc3LjQnLCAnLXRuJywgJzgnLCAnLW1hJywgJzUwMCcsICctaW1hZScsICc8aW5maWxlLm1hZT4nLCAnLW9tYWUnLCAnPG91dGZpbGUubWFlPic=

>  <s_epik_input>  (1) 
W0NIMl0xW0NIMl1bQ0gyXVtDSDJdT0MxPU8=

>  <s_glide_docking_method>  (1) 
confgen

>  <s_i_glide_gridfile>  (1) 
gpcr_5ht2c_6bqh_protein_autoprepared_prepared

>  <s_lp_Force_Field>  (1) 
S-OPLS

>  <s_lp_Variant>  (1) 
Pocket2Mol_43_num_sample_50-1

>  <s_m_source_file>  (1) 
generated__ligand_Pocket2Mol_2026-05-06_prepared.sdf

>  <GenAI_Model>  (1) 
Pocket2Mol

>  <Protein>  (1) 
GPCR_5HT2C

$$$$
Pocket2Mol_17_num_sample_50
     RDKit          3D

  0  0  0  0  0  0  0  0  0  0999 V3000
M  V30 BEGIN CTAB
M  V30 COUNTS 10 10 0 0 1
M  V30 BEGIN ATOM
M  V30 1 C 39.987002 29.698460 51.453590 0
M  V30 2 O 39.244945 29.593895 52.754613 0
M  V30 3 C 38.464722 28.423265 52.773828 0
M  V30 4 C 39.488356 28.429868 50.836789 0
M  V30 5 C 38.667403 27.752689 51.559941 0
M  V30 6 O 37.734507 28.059186 53.692571 0
M  V30 7 H 41.067403 29.679183 51.588573 0
M  V30 8 H 39.808993 28.131074 49.853502 0
M  V30 9 H 38.192297 26.821430 51.302049 0
M  V30 10 H 39.686862 30.575051 50.878937 0
M  V30 END ATOM
M  V30 BEGIN BOND
M  V30 1 1 2 1
M  V30 2 1 3 2
M  V30 3 1 4 1
M  V30 4 1 5 3
M  V30 5 2 5 4
M  V30 6 2 6 3
M  V30 7 1 7 1
M  V30 8 1 8 4
M  V30 9 1 9 5
M  V30 10 1 10 1
M  V30 END BOND
M  V30 END CTAB
M  END
>  <i_epik_Tot_Q>  (1) 
0

>  <i_epik_Tot_abs_Q>  (1) 
0

>  <i_i_glide_confnum>  (1) 
1

>  <i_i_glide_lignum>  (1) 
18

>  <i_i_glide_posenum>  (1) 
171

>  <i_i_glide_rotatable_bonds>  (1) 
0

>  <i_lp_mmshare_version>  (1) 
72125

>  <i_m_source_file_index>  (1) 
18

>  <i_f3d_flags>  (1) 
0

>  <num_sample>  (1) 
50

>  <b_lp_Chiralities_Consistent>  (1) 
1

>  <r_epik_Charging_Adjusted_Penalty>  (1) 
0

>  <r_epik_Ionization_Penalty>  (1) 
0

>  <r_epik_Ionization_Penalty_Charging>  (1) 
0

>  <r_epik_Ionization_Penalty_Neutral>  (1) 
0

>  <r_epik_State_Penalty>  (1) 
-0

>  <r_glide_ring_energy>  (1) 
0

>  <r_i_docking_score>  (1) 
-4.7356856373218168

>  <r_i_glide_ecoul>  (1) 
-0.75958363084022862

>  <r_i_glide_eff_state_penalty>  (1) 
-0

>  <r_i_glide_einternal>  (1) 
0

>  <r_i_glide_emodel>  (1) 
-20.702921044795104

>  <r_i_glide_emodel_strain>  (1) 
0

>  <r_i_glide_energy>  (1) 
-16.039864039544611

>  <r_i_glide_erotb>  (1) 
0

>  <r_i_glide_esite>  (1) 
0

>  <r_i_glide_evdw>  (1) 
-15.280280408704382

>  <r_i_glide_gscore>  (1) 
-4.7356856373218168

>  <r_i_glide_gscore_strain>  (1) 
0

>  <r_i_glide_hbond>  (1) 
0

>  <r_i_glide_ligand_efficiency>  (1) 
-0.7892809395536361

>  <r_i_glide_ligand_efficiency_ln>  (1) 
-1.6963086145208899

>  <r_i_glide_ligand_efficiency_sa>  (1) 
-1.4342186487928117

>  <r_i_glide_lipo>  (1) 
-0.98999999999999999

>  <r_i_glide_metal>  (1) 
-0

>  <r_i_glide_rewards>  (1) 
-2.8677340722605624

>  <r_lp_Energy>  (1) 
-7.0611199999999998

>  <r_lp_tautomer_probability>  (1) 
1

>  <s_epik_Chemistry_Notes>  (1) 
This compound has an ester and may undergo hydrolysis at high or low pH.

>  <s_epik_cmdline>  (1) 
J2VwaWtfcHl0aG9uJywgJy1waHQnLCAnMS4wJywgJy1waCcsICc3LjQnLCAnLXRuJywgJzgnLCAnLW1hJywgJzUwMCcsICctaW1hZScsICc8aW5maWxlLm1hZT4nLCAnLW9tYWUnLCAnPG91dGZpbGUubWFlPic=

>  <s_epik_input>  (1) 
W0NIMl0xW0NIXT1bQ0hdT0MxPU8=

>  <s_glide_docking_method>  (1) 
confgen

>  <s_i_glide_gridfile>  (1) 
gpcr_5ht2c_6bqh_protein_autoprepared_prepared

>  <s_lp_Force_Field>  (1) 
S-OPLS

>  <s_lp_Variant>  (1) 
Pocket2Mol_17_num_sample_50-1

>  <s_m_source_file>  (1) 
generated__ligand_Pocket2Mol_2026-05-06_prepared.sdf

>  <GenAI_Model>  (1) 
Pocket2Mol

>  <Protein>  (1) 
GPCR_5HT2C

$$$$
Pocket2Mol_5_num_sample_50
     RDKit          3D

  0  0  0  0  0  0  0  0  0  0999 V3000
M  V30 BEGIN CTAB
M  V30 COUNTS 13 13 0 0 1
M  V30 BEGIN ATOM
M  V30 1 C 39.467443 30.021486 53.059354 0
M  V30 2 C 38.667347 28.793087 53.247112 0
M  V30 3 C 39.899650 29.731410 51.544277 0
M  V30 4 C 39.342296 28.328173 51.020995 0
M  V30 5 C 38.607484 27.963547 52.249330 0
M  V30 6 H 38.866007 30.922774 53.173458 0
M  V30 7 H 40.309449 30.049813 53.749407 0
M  V30 8 H 38.164030 28.617476 54.186875 0
M  V30 9 H 40.986178 29.750457 51.453369 0
M  V30 10 H 39.532679 30.530811 50.899275 0
M  V30 11 H 40.137984 27.621288 50.793276 0
M  V30 12 H 38.667511 28.421495 50.170855 0
M  V30 13 H 38.049032 27.038856 52.287423 0
M  V30 END ATOM
M  V30 BEGIN BOND
M  V30 1 1 2 1
M  V30 2 1 3 1
M  V30 3 1 4 3
M  V30 4 2 5 2
M  V30 5 1 5 4
M  V30 6 1 6 1
M  V30 7 1 7 1
M  V30 8 1 8 2
M  V30 9 1 9 3
M  V30 10 1 10 3
M  V30 11 1 11 4
M  V30 12 1 12 4
M  V30 13 1 13 5
M  V30 END BOND
M  V30 END CTAB
M  END
>  <i_epik_Tot_Q>  (1) 
0

>  <i_epik_Tot_abs_Q>  (1) 
0

>  <i_i_glide_confnum>  (1) 
1

>  <i_i_glide_lignum>  (1) 
6

>  <i_i_glide_posenum>  (1) 
152

>  <i_i_glide_rotatable_bonds>  (1) 
0

>  <i_lp_mmshare_version>  (1) 
72125

>  <i_m_source_file_index>  (1) 
6

>  <i_f3d_flags>  (1) 
0

>  <num_sample>  (1) 
50

>  <b_lp_Chiralities_Consistent>  (1) 
1

>  <r_epik_Charging_Adjusted_Penalty>  (1) 
0

>  <r_epik_Ionization_Penalty>  (1) 
0

>  <r_epik_Ionization_Penalty_Charging>  (1) 
0

>  <r_epik_Ionization_Penalty_Neutral>  (1) 
0

>  <r_epik_State_Penalty>  (1) 
-0

>  <r_glide_ring_energy>  (1) 
0

>  <r_i_docking_score>  (1) 
-4.7325812568574301

>  <r_i_glide_ecoul>  (1) 
-0.49058823520510808

>  <r_i_glide_eff_state_penalty>  (1) 
-0

>  <r_i_glide_einternal>  (1) 
0

>  <r_i_glide_emodel>  (1) 
-17.571787998811999

>  <r_i_glide_emodel_strain>  (1) 
0

>  <r_i_glide_energy>  (1) 
-13.529851945981122

>  <r_i_glide_erotb>  (1) 
0

>  <r_i_glide_esite>  (1) 
0

>  <r_i_glide_evdw>  (1) 
-13.039263710776014

>  <r_i_glide_gscore>  (1) 
-4.7325812568574301

>  <r_i_glide_gscore_strain>  (1) 
0

>  <r_i_glide_hbond>  (1) 
0

>  <r_i_glide_ligand_efficiency>  (1) 
-0.94651625137148598

>  <r_i_glide_ligand_efficiency_ln>  (1) 
-1.8136401078203266

>  <r_i_glide_ligand_efficiency_sa>  (1) 
-1.6185200229838352

>  <r_i_glide_lipo>  (1) 
-1.525889156744362

>  <r_i_glide_metal>  (1) 
-0

>  <r_i_glide_rewards>  (1) 
-2.4811406792935013

>  <r_lp_Energy>  (1) 
-2.1713199999999997

>  <r_lp_tautomer_probability>  (1) 
1

>  <s_epik_cmdline>  (1) 
J2VwaWtfcHl0aG9uJywgJy1waHQnLCAnMS4wJywgJy1waCcsICc3LjQnLCAnLXRuJywgJzgnLCAnLW1hJywgJzUwMCcsICctaW1hZScsICc8aW5maWxlLm1hZT4nLCAnLW9tYWUnLCAnPG91dGZpbGUubWFlPic=

>  <s_epik_input>  (1) 
W0NIMl0xW0NIXT1bQ0hdW0NIMl1bQ0gyXTE=

>  <s_glide_docking_method>  (1) 
confgen

>  <s_i_glide_gridfile>  (1) 
gpcr_5ht2c_6bqh_protein_autoprepared_prepared

>  <s_lp_Force_Field>  (1) 
S-OPLS

>  <s_lp_Variant>  (1) 
Pocket2Mol_5_num_sample_50-1

>  <s_m_source_file>  (1) 
generated__ligand_Pocket2Mol_2026-05-06_prepared.sdf

>  <GenAI_Model>  (1) 
Pocket2Mol

>  <Protein>  (1) 
GPCR_5HT2C

$$$$
Pocket2Mol_44_num_sample_50
     RDKit          3D

  0  0  0  0  0  0  0  0  0  0999 V3000
M  V30 BEGIN CTAB
M  V30 COUNTS 12 11 0 0 1
M  V30 BEGIN ATOM
M  V30 1 C 38.281038 29.686062 57.103221 0
M  V30 2 O 37.478503 30.367713 58.041682 0
M  V30 3 C 37.794060 30.330911 59.351399 0
M  V30 4 C 36.798307 31.163481 60.198265 0
M  V30 5 O 38.745393 29.722498 59.841379 0
M  V30 6 O 36.883321 31.253166 61.424744 0
M  V30 7 N 35.859655 31.758526 59.453502 0
M  V30 8 H 37.873503 29.824360 56.102445 0
M  V30 9 H 39.298262 30.074784 57.117938 0
M  V30 10 H 38.304935 28.619459 57.321702 0
M  V30 11 H 35.861080 31.638240 58.421849 0
M  V30 12 H 35.158958 32.328376 59.895876 0
M  V30 END ATOM
M  V30 BEGIN BOND
M  V30 1 1 2 1
M  V30 2 1 3 2
M  V30 3 1 4 3
M  V30 4 2 5 3
M  V30 5 2 6 4
M  V30 6 1 7 4
M  V30 7 1 8 1
M  V30 8 1 9 1
M  V30 9 1 10 1
M  V30 10 1 11 7
M  V30 11 1 12 7
M  V30 END BOND
M  V30 END CTAB
M  END
>  <i_epik_Tot_Q>  (1) 
0

>  <i_epik_Tot_abs_Q>  (1) 
0

>  <i_i_glide_confnum>  (1) 
1

>  <i_i_glide_lignum>  (1) 
45

>  <i_i_glide_posenum>  (1) 
351

>  <i_i_glide_rotatable_bonds>  (1) 
2

>  <i_lp_mmshare_version>  (1) 
72125

>  <i_m_source_file_index>  (1) 
45

>  <i_f3d_flags>  (1) 
0

>  <num_sample>  (1) 
50

>  <b_lp_Chiralities_Consistent>  (1) 
1

>  <r_epik_Charging_Adjusted_Penalty>  (1) 
0

>  <r_epik_Ionization_Penalty>  (1) 
3.9236796398539443e-05

>  <r_epik_Ionization_Penalty_Charging>  (1) 
0

>  <r_epik_Ionization_Penalty_Neutral>  (1) 
3.9236796398539443e-05

>  <r_epik_State_Penalty>  (1) 
-0

>  <r_glide_ring_energy>  (1) 
0

>  <r_i_docking_score>  (1) 
-4.7300671610689538

>  <r_i_glide_ecoul>  (1) 
-9.3150146316257612

>  <r_i_glide_eff_state_penalty>  (1) 
-0

>  <r_i_glide_einternal>  (1) 
1.5848754748662914

>  <r_i_glide_emodel>  (1) 
-23.935937533585793

>  <r_i_glide_emodel_strain>  (1) 
0

>  <r_i_glide_energy>  (1) 
-18.341405334855033

>  <r_i_glide_erotb>  (1) 
0

>  <r_i_glide_esite>  (1) 
-0.17549581725277835

>  <r_i_glide_evdw>  (1) 
-9.0263907032292732

>  <r_i_glide_gscore>  (1) 
-4.7300671610689538

>  <r_i_glide_gscore_strain>  (1) 
0

>  <r_i_glide_hbond>  (1) 
-0.45599999999999996

>  <r_i_glide_ligand_efficiency>  (1) 
-0.67572388015270768

>  <r_i_glide_ligand_efficiency_ln>  (1) 
-1.605638638566685

>  <r_i_glide_ligand_efficiency_sa>  (1) 
-1.2926132812880673

>  <r_i_glide_lipo>  (1) 
0

>  <r_i_glide_metal>  (1) 
-0

>  <r_i_glide_rewards>  (1) 
-2.2499996139108482

>  <r_lp_Energy>  (1) 
8.3220650000000003

>  <r_lp_tautomer_probability>  (1) 
1

>  <s_epik_Chemistry_Notes>  (1) 
This compound has an ester and may undergo hydrolysis at high or low pH.

>  <s_epik_cmdline>  (1) 
J2VwaWtfcHl0aG9uJywgJy1waHQnLCAnMS4wJywgJy1waCcsICc3LjQnLCAnLXRuJywgJzgnLCAnLW1hJywgJzUwMCcsICctaW1hZScsICc8aW5maWxlLm1hZT4nLCAnLW9tYWUnLCAnPG91dGZpbGUubWFlPic=

>  <s_epik_input>  (1) 
W0NIM11PQyg9TylDKD1PKVtOSDJd

>  <s_glide_docking_method>  (1) 
confgen

>  <s_i_glide_gridfile>  (1) 
gpcr_5ht2c_6bqh_protein_autoprepared_prepared

>  <s_lp_Force_Field>  (1) 
S-OPLS

>  <s_lp_Variant>  (1) 
Pocket2Mol_44_num_sample_50-1

>  <s_m_source_file>  (1) 
generated__ligand_Pocket2Mol_2026-05-06_prepared.sdf

>  <GenAI_Model>  (1) 
Pocket2Mol

>  <Protein>  (1) 
GPCR_5HT2C

$$$$
Pocket2Mol_17_num_sample_50
     RDKit          3D

  0  0  0  0  0  0  0  0  0  0999 V3000
M  V30 BEGIN CTAB
M  V30 COUNTS 10 10 0 0 1
M  V30 BEGIN ATOM
M  V30 1 C 40.235093 29.950010 51.003653 0
M  V30 2 O 39.867525 30.171548 52.440832 0
M  V30 3 C 39.053825 29.120764 52.901855 0
M  V30 4 C 39.500456 28.658083 50.806615 0
M  V30 5 C 38.866849 28.223065 51.840072 0
M  V30 6 O 38.590793 29.012714 54.033935 0
M  V30 7 H 41.310229 29.829855 50.869828 0
M  V30 8 H 39.516536 28.151148 49.853507 0
M  V30 9 H 38.277348 27.319725 51.910436 0
M  V30 10 H 39.850736 30.738486 50.355660 0
M  V30 END ATOM
M  V30 BEGIN BOND
M  V30 1 1 2 1
M  V30 2 1 3 2
M  V30 3 1 4 1
M  V30 4 1 5 3
M  V30 5 2 5 4
M  V30 6 2 6 3
M  V30 7 1 7 1
M  V30 8 1 8 4
M  V30 9 1 9 5
M  V30 10 1 10 1
M  V30 END BOND
M  V30 END CTAB
M  END
>  <i_epik_Tot_Q>  (1) 
0

>  <i_epik_Tot_abs_Q>  (1) 
0

>  <i_i_glide_confnum>  (1) 
1

>  <i_i_glide_lignum>  (1) 
18

>  <i_i_glide_posenum>  (1) 
162

>  <i_i_glide_rotatable_bonds>  (1) 
0

>  <i_lp_mmshare_version>  (1) 
72125

>  <i_m_source_file_index>  (1) 
18

>  <i_f3d_flags>  (1) 
0

>  <num_sample>  (1) 
50

>  <b_lp_Chiralities_Consistent>  (1) 
1

>  <r_epik_Charging_Adjusted_Penalty>  (1) 
0

>  <r_epik_Ionization_Penalty>  (1) 
0

>  <r_epik_Ionization_Penalty_Charging>  (1) 
0

>  <r_epik_Ionization_Penalty_Neutral>  (1) 
0

>  <r_epik_State_Penalty>  (1) 
-0

>  <r_glide_ring_energy>  (1) 
0

>  <r_i_docking_score>  (1) 
-4.729152677209802

>  <r_i_glide_ecoul>  (1) 
-0.43162049647619627

>  <r_i_glide_eff_state_penalty>  (1) 
-0

>  <r_i_glide_einternal>  (1) 
0

>  <r_i_glide_emodel>  (1) 
-19.966666505448824

>  <r_i_glide_emodel_strain>  (1) 
0

>  <r_i_glide_energy>  (1) 
-15.310042267858258

>  <r_i_glide_erotb>  (1) 
0

>  <r_i_glide_esite>  (1) 
0

>  <r_i_glide_evdw>  (1) 
-14.878421771382062

>  <r_i_glide_gscore>  (1) 
-4.729152677209802

>  <r_i_glide_gscore_strain>  (1) 
0

>  <r_i_glide_hbond>  (1) 
0

>  <r_i_glide_ligand_efficiency>  (1) 
-0.78819211286830038

>  <r_i_glide_ligand_efficiency_ln>  (1) 
-1.6939685274954768

>  <r_i_glide_ligand_efficiency_sa>  (1) 
-1.4322401194008627

>  <r_i_glide_lipo>  (1) 
-0.98999999999999999

>  <r_i_glide_metal>  (1) 
-0

>  <r_i_glide_rewards>  (1) 
-2.9304885141692694

>  <r_lp_Energy>  (1) 
-7.0611199999999998

>  <r_lp_tautomer_probability>  (1) 
1

>  <s_epik_Chemistry_Notes>  (1) 
This compound has an ester and may undergo hydrolysis at high or low pH.

>  <s_epik_cmdline>  (1) 
J2VwaWtfcHl0aG9uJywgJy1waHQnLCAnMS4wJywgJy1waCcsICc3LjQnLCAnLXRuJywgJzgnLCAnLW1hJywgJzUwMCcsICctaW1hZScsICc8aW5maWxlLm1hZT4nLCAnLW9tYWUnLCAnPG91dGZpbGUubWFlPic=

>  <s_epik_input>  (1) 
W0NIMl0xW0NIXT1bQ0hdT0MxPU8=

>  <s_glide_docking_method>  (1) 
confgen

>  <s_i_glide_gridfile>  (1) 
gpcr_5ht2c_6bqh_protein_autoprepared_prepared

>  <s_lp_Force_Field>  (1) 
S-OPLS

>  <s_lp_Variant>  (1) 
Pocket2Mol_17_num_sample_50-1

>  <s_m_source_file>  (1) 
generated__ligand_Pocket2Mol_2026-05-06_prepared.sdf

>  <GenAI_Model>  (1) 
Pocket2Mol

>  <Protein>  (1) 
GPCR_5HT2C

$$$$
Pocket2Mol_43_num_sample_50
     RDKit          3D

  0  0  0  0  0  0  0  0  0  0999 V3000
M  V30 BEGIN CTAB
M  V30 COUNTS 15 15 0 0 1
M  V30 BEGIN ATOM
M  V30 1 C 39.070855 28.287871 51.172940 0
M  V30 2 O 39.161528 27.249682 52.140152 0
M  V30 3 C 38.820408 27.478228 53.434276 0
M  V30 4 O 38.784782 26.617839 54.310538 0
M  V30 5 C 38.475290 28.947909 53.727050 0
M  V30 6 C 39.867383 29.517554 51.634551 0
M  V30 7 C 39.464483 29.933318 53.064314 0
M  V30 8 H 39.438338 27.928365 50.212790 0
M  V30 9 H 38.019625 28.544510 51.044542 0
M  V30 10 H 37.465312 29.130808 53.359422 0
M  V30 11 H 38.448624 29.109047 54.805308 0
M  V30 12 H 40.932171 29.283634 51.604014 0
M  V30 13 H 39.717387 30.344560 50.939451 0
M  V30 14 H 39.032499 30.933757 53.053499 0
M  V30 15 H 40.355363 30.022155 53.684590 0
M  V30 END ATOM
M  V30 BEGIN BOND
M  V30 1 1 2 1
M  V30 2 1 3 2
M  V30 3 2 4 3
M  V30 4 1 5 3
M  V30 5 1 6 1
M  V30 6 1 7 5
M  V30 7 1 7 6
M  V30 8 1 8 1
M  V30 9 1 9 1
M  V30 10 1 10 5
M  V30 11 1 11 5
M  V30 12 1 12 6
M  V30 13 1 13 6
M  V30 14 1 14 7
M  V30 15 1 15 7
M  V30 END BOND
M  V30 END CTAB
M  END
>  <i_epik_Tot_Q>  (1) 
0

>  <i_epik_Tot_abs_Q>  (1) 
0

>  <i_i_glide_confnum>  (1) 
4

>  <i_i_glide_lignum>  (1) 
44

>  <i_i_glide_posenum>  (1) 
316

>  <i_i_glide_rotatable_bonds>  (1) 
0

>  <i_lp_mmshare_version>  (1) 
72125

>  <i_m_source_file_index>  (1) 
44

>  <i_f3d_flags>  (1) 
0

>  <num_sample>  (1) 
50

>  <b_lp_Chiralities_Consistent>  (1) 
1

>  <r_epik_Charging_Adjusted_Penalty>  (1) 
0

>  <r_epik_Ionization_Penalty>  (1) 
4.2138389519661579e-10

>  <r_epik_Ionization_Penalty_Charging>  (1) 
0

>  <r_epik_Ionization_Penalty_Neutral>  (1) 
4.2138389519661579e-10

>  <r_epik_State_Penalty>  (1) 
-0

>  <r_glide_ring_energy>  (1) 
0.70488572220387524

>  <r_i_docking_score>  (1) 
-4.7250611108183493

>  <r_i_glide_ecoul>  (1) 
-0.024631484514451601

>  <r_i_glide_eff_state_penalty>  (1) 
-0

>  <r_i_glide_einternal>  (1) 
0

>  <r_i_glide_emodel>  (1) 
-21.83632458912103

>  <r_i_glide_emodel_strain>  (1) 
0

>  <r_i_glide_energy>  (1) 
-16.533211246868888

>  <r_i_glide_erotb>  (1) 
0

>  <r_i_glide_esite>  (1) 
0

>  <r_i_glide_evdw>  (1) 
-16.508579762354437

>  <r_i_glide_gscore>  (1) 
-4.7250611108183493

>  <r_i_glide_gscore_strain>  (1) 
0

>  <r_i_glide_hbond>  (1) 
0

>  <r_i_glide_ligand_efficiency>  (1) 
-0.6750087301169071

>  <r_i_glide_ligand_efficiency_ln>  (1) 
-1.6039393164566031

>  <r_i_glide_ligand_efficiency_sa>  (1) 
-1.2912452484842234

>  <r_i_glide_lipo>  (1) 
-1.1515101573534523

>  <r_i_glide_metal>  (1) 
-0

>  <r_i_glide_rewards>  (1) 
-2.7444272426700067

>  <r_lp_Energy>  (1) 
8.5246700000000004

>  <r_lp_tautomer_probability>  (1) 
1

>  <s_epik_Chemistry_Notes>  (1) 
This compound has an ester and may undergo hydrolysis at high or low pH.

>  <s_epik_cmdline>  (1) 
J2VwaWtfcHl0aG9uJywgJy1waHQnLCAnMS4wJywgJy1waCcsICc3LjQnLCAnLXRuJywgJzgnLCAnLW1hJywgJzUwMCcsICctaW1hZScsICc8aW5maWxlLm1hZT4nLCAnLW9tYWUnLCAnPG91dGZpbGUubWFlPic=

>  <s_epik_input>  (1) 
W0NIMl0xW0NIMl1bQ0gyXVtDSDJdT0MxPU8=

>  <s_glide_docking_method>  (1) 
confgen

>  <s_i_glide_gridfile>  (1) 
gpcr_5ht2c_6bqh_protein_autoprepared_prepared

>  <s_lp_Force_Field>  (1) 
S-OPLS

>  <s_lp_Variant>  (1) 
Pocket2Mol_43_num_sample_50-1

>  <s_m_source_file>  (1) 
generated__ligand_Pocket2Mol_2026-05-06_prepared.sdf

>  <GenAI_Model>  (1) 
Pocket2Mol

>  <Protein>  (1) 
GPCR_5HT2C

$$$$
Pocket2Mol_44_num_sample_50
     RDKit          3D

  0  0  0  0  0  0  0  0  0  0999 V3000
M  V30 BEGIN CTAB
M  V30 COUNTS 12 11 0 0 1
M  V30 BEGIN ATOM
M  V30 1 C 37.867388 34.421432 60.132556 0
M  V30 2 O 38.451542 35.498334 60.846064 0
M  V30 3 C 39.578902 35.290483 61.550274 0
M  V30 4 C 39.998494 36.563830 62.320583 0
M  V30 5 O 40.213311 34.232653 61.598055 0
M  V30 6 O 39.374390 37.620732 62.252782 0
M  V30 7 N 41.095505 36.375949 63.053605 0
M  V30 8 H 36.975472 34.764299 59.607820 0
M  V30 9 H 38.562528 34.019996 59.394056 0
M  V30 10 H 37.576245 33.618644 60.811064 0
M  V30 11 H 41.547110 35.473171 63.055256 0
M  V30 12 H 41.467355 37.136896 63.618259 0
M  V30 END ATOM
M  V30 BEGIN BOND
M  V30 1 1 2 1
M  V30 2 1 3 2
M  V30 3 1 4 3
M  V30 4 2 5 3
M  V30 5 2 6 4
M  V30 6 1 7 4
M  V30 7 1 8 1
M  V30 8 1 9 1
M  V30 9 1 10 1
M  V30 10 1 11 7
M  V30 11 1 12 7
M  V30 END BOND
M  V30 END CTAB
M  END
>  <i_epik_Tot_Q>  (1) 
0

>  <i_epik_Tot_abs_Q>  (1) 
0

>  <i_i_glide_confnum>  (1) 
1

>  <i_i_glide_lignum>  (1) 
45

>  <i_i_glide_posenum>  (1) 
194

>  <i_i_glide_rotatable_bonds>  (1) 
2

>  <i_lp_mmshare_version>  (1) 
72125

>  <i_m_source_file_index>  (1) 
45

>  <i_f3d_flags>  (1) 
0

>  <num_sample>  (1) 
50

>  <b_lp_Chiralities_Consistent>  (1) 
1

>  <r_epik_Charging_Adjusted_Penalty>  (1) 
0

>  <r_epik_Ionization_Penalty>  (1) 
3.9236796398539443e-05

>  <r_epik_Ionization_Penalty_Charging>  (1) 
0

>  <r_epik_Ionization_Penalty_Neutral>  (1) 
3.9236796398539443e-05

>  <r_epik_State_Penalty>  (1) 
-0

>  <r_glide_ring_energy>  (1) 
0

>  <r_i_docking_score>  (1) 
-4.7173887276917599

>  <r_i_glide_ecoul>  (1) 
-4.8092673343371706

>  <r_i_glide_eff_state_penalty>  (1) 
-0

>  <r_i_glide_einternal>  (1) 
0.066175743015903787

>  <r_i_glide_emodel>  (1) 
-23.841437563142119

>  <r_i_glide_emodel_strain>  (1) 
4.5353942823567195e-10

>  <r_i_glide_energy>  (1) 
-17.504675080979524

>  <r_i_glide_erotb>  (1) 
0

>  <r_i_glide_esite>  (1) 
0

>  <r_i_glide_evdw>  (1) 
-12.695407746642354

>  <r_i_glide_gscore>  (1) 
-4.7173887276917599

>  <r_i_glide_gscore_strain>  (1) 
0

>  <r_i_glide_hbond>  (1) 
-0.32000000000000001

>  <r_i_glide_ligand_efficiency>  (1) 
-0.67391267538453714

>  <r_i_glide_ligand_efficiency_ln>  (1) 
-1.6013348978768138

>  <r_i_glide_ligand_efficiency_sa>  (1) 
-1.2891485712086477

>  <r_i_glide_lipo>  (1) 
-0.089339347819789611

>  <r_i_glide_metal>  (1) 
-0

>  <r_i_glide_rewards>  (1) 
-2.9518888923892765

>  <r_lp_Energy>  (1) 
8.3220650000000003

>  <r_lp_tautomer_probability>  (1) 
1

>  <s_epik_Chemistry_Notes>  (1) 
This compound has an ester and may undergo hydrolysis at high or low pH.

>  <s_epik_cmdline>  (1) 
J2VwaWtfcHl0aG9uJywgJy1waHQnLCAnMS4wJywgJy1waCcsICc3LjQnLCAnLXRuJywgJzgnLCAnLW1hJywgJzUwMCcsICctaW1hZScsICc8aW5maWxlLm1hZT4nLCAnLW9tYWUnLCAnPG91dGZpbGUubWFlPic=

>  <s_epik_input>  (1) 
W0NIM11PQyg9TylDKD1PKVtOSDJd

>  <s_glide_docking_method>  (1) 
confgen

>  <s_i_glide_gridfile>  (1) 
gpcr_5ht2c_6bqh_protein_autoprepared_prepared

>  <s_lp_Force_Field>  (1) 
S-OPLS

>  <s_lp_Variant>  (1) 
Pocket2Mol_44_num_sample_50-1

>  <s_m_source_file>  (1) 
generated__ligand_Pocket2Mol_2026-05-06_prepared.sdf

>  <GenAI_Model>  (1) 
Pocket2Mol

>  <Protein>  (1) 
GPCR_5HT2C

$$$$
Pocket2Mol_37_num_sample_50
     RDKit          3D

  0  0  0  0  0  0  0  0  0  0999 V3000
M  V30 BEGIN CTAB
M  V30 COUNTS 15 15 0 0 1
M  V30 BEGIN ATOM
M  V30 1 C 35.416914 33.018462 60.916295 0
M  V30 2 C 36.614411 33.971610 61.053542 0
M  V30 3 O 35.867402 31.678036 61.040413 0
M  V30 4 C 36.540240 31.204710 59.917601 0
M  V30 5 O 37.337622 34.197004 59.850281 0
M  V30 6 O 37.722762 31.895651 59.638667 0
M  V30 7 C 37.502594 33.113525 58.989325 0
M  V30 8 H 34.729464 33.197755 61.743727 0
M  V30 9 H 34.849366 33.187290 59.999299 0
M  V30 10 H 37.296339 33.600921 61.819868 0
M  V30 11 H 36.267921 34.945251 61.399566 0
M  V30 12 H 35.873208 31.164097 59.053494 0
M  V30 13 H 36.826061 30.177450 60.142011 0
M  V30 14 H 38.390163 33.326722 58.393294 0
M  V30 15 H 36.667408 33.071177 58.287181 0
M  V30 END ATOM
M  V30 BEGIN BOND
M  V30 1 1 2 1
M  V30 2 1 3 1
M  V30 3 1 4 3
M  V30 4 1 5 2
M  V30 5 1 6 4
M  V30 6 1 7 5
M  V30 7 1 7 6
M  V30 8 1 8 1
M  V30 9 1 9 1
M  V30 10 1 10 2
M  V30 11 1 11 2
M  V30 12 1 12 4
M  V30 13 1 13 4
M  V30 14 1 14 7
M  V30 15 1 15 7
M  V30 END BOND
M  V30 END CTAB
M  END
>  <i_epik_Tot_Q>  (1) 
0

>  <i_epik_Tot_abs_Q>  (1) 
0

>  <i_i_glide_confnum>  (1) 
4

>  <i_i_glide_lignum>  (1) 
38

>  <i_i_glide_posenum>  (1) 
282

>  <i_i_glide_rotatable_bonds>  (1) 
0

>  <i_lp_mmshare_version>  (1) 
72125

>  <i_m_source_file_index>  (1) 
38

>  <i_f3d_flags>  (1) 
0

>  <num_sample>  (1) 
50

>  <b_lp_Chiralities_Consistent>  (1) 
1

>  <r_epik_Charging_Adjusted_Penalty>  (1) 
0

>  <r_epik_Ionization_Penalty>  (1) 
4.6834743432320728e-14

>  <r_epik_Ionization_Penalty_Charging>  (1) 
0

>  <r_epik_Ionization_Penalty_Neutral>  (1) 
4.6834743432320728e-14

>  <r_epik_State_Penalty>  (1) 
-0

>  <r_glide_ring_energy>  (1) 
0.00034554738616163878

>  <r_i_docking_score>  (1) 
-4.716997996561946

>  <r_i_glide_ecoul>  (1) 
-2.9465355574655763

>  <r_i_glide_eff_state_penalty>  (1) 
-0

>  <r_i_glide_einternal>  (1) 
0

>  <r_i_glide_emodel>  (1) 
-20.963495477166898

>  <r_i_glide_emodel_strain>  (1) 
0

>  <r_i_glide_energy>  (1) 
-15.668116130833781

>  <r_i_glide_erotb>  (1) 
0

>  <r_i_glide_esite>  (1) 
-0.13060030918055429

>  <r_i_glide_evdw>  (1) 
-12.721580573368204

>  <r_i_glide_gscore>  (1) 
-4.716997996561946

>  <r_i_glide_gscore_strain>  (1) 
0

>  <r_i_glide_hbond>  (1) 
-0.19779990097027322

>  <r_i_glide_ligand_efficiency>  (1) 
-0.67385685665170658

>  <r_i_glide_ligand_efficiency_ln>  (1) 
-1.6012022627623521

>  <r_i_glide_ligand_efficiency_sa>  (1) 
-1.2890417938140333

>  <r_i_glide_lipo>  (1) 
-0.35590633817261752

>  <r_i_glide_metal>  (1) 
-0

>  <r_i_glide_rewards>  (1) 
-2.9546320859502542

>  <r_lp_Energy>  (1) 
1.238378

>  <r_lp_tautomer_probability>  (1) 
1

>  <s_epik_Chemistry_Notes>  (1) 
This compound contains an acetal/aminal-like group ( X-CH(R)-Y where X, Y are N, S, or O) that may be acid/base labile, releasing an aldehyde.

>  <s_epik_cmdline>  (1) 
J2VwaWtfcHl0aG9uJywgJy1waHQnLCAnMS4wJywgJy1waCcsICc3LjQnLCAnLXRuJywgJzgnLCAnLW1hJywgJzUwMCcsICctaW1hZScsICc8aW5maWxlLm1hZT4nLCAnLW9tYWUnLCAnPG91dGZpbGUubWFlPic=

>  <s_epik_input>  (1) 
W0NIMl0xW0NIMl1PW0NIMl1PW0NIMl1PMQ==

>  <s_glide_docking_method>  (1) 
confgen

>  <s_i_glide_gridfile>  (1) 
gpcr_5ht2c_6bqh_protein_autoprepared_prepared

>  <s_lp_Force_Field>  (1) 
S-OPLS

>  <s_lp_Variant>  (1) 
Pocket2Mol_37_num_sample_50-1

>  <s_m_source_file>  (1) 
generated__ligand_Pocket2Mol_2026-05-06_prepared.sdf

>  <GenAI_Model>  (1) 
Pocket2Mol

>  <Protein>  (1) 
GPCR_5HT2C

$$$$
Pocket2Mol_37_num_sample_50
     RDKit          3D

  0  0  0  0  0  0  0  0  0  0999 V3000
M  V30 BEGIN CTAB
M  V30 COUNTS 15 15 0 0 1
M  V30 BEGIN ATOM
M  V30 1 C 39.242559 28.165937 51.886746 0
M  V30 2 C 39.876183 29.471761 51.376277 0
M  V30 3 O 37.924882 28.392951 52.357706 0
M  V30 4 C 37.876757 28.812812 53.682268 0
M  V30 5 O 39.867277 30.591739 52.260528 0
M  V30 6 O 38.248456 30.142020 53.853501 0
M  V30 7 C 39.595498 30.386110 53.609532 0
M  V30 8 H 39.177568 27.468806 51.051898 0
M  V30 9 H 39.863412 27.670757 52.636754 0
M  V30 10 H 39.367643 29.782453 50.463381 0
M  V30 11 H 40.911426 29.281889 51.085707 0
M  V30 12 H 38.444805 28.154586 54.342386 0
M  V30 13 H 36.835543 28.745177 53.994073 0
M  V30 14 H 39.822145 31.330911 54.103537 0
M  V30 15 H 40.246127 29.633663 54.055232 0
M  V30 END ATOM
M  V30 BEGIN BOND
M  V30 1 1 2 1
M  V30 2 1 3 1
M  V30 3 1 4 3
M  V30 4 1 5 2
M  V30 5 1 6 4
M  V30 6 1 7 5
M  V30 7 1 7 6
M  V30 8 1 8 1
M  V30 9 1 9 1
M  V30 10 1 10 2
M  V30 11 1 11 2
M  V30 12 1 12 4
M  V30 13 1 13 4
M  V30 14 1 14 7
M  V30 15 1 15 7
M  V30 END BOND
M  V30 END CTAB
M  END
>  <i_epik_Tot_Q>  (1) 
0

>  <i_epik_Tot_abs_Q>  (1) 
0

>  <i_i_glide_confnum>  (1) 
14

>  <i_i_glide_lignum>  (1) 
38

>  <i_i_glide_posenum>  (1) 
342

>  <i_i_glide_rotatable_bonds>  (1) 
0

>  <i_lp_mmshare_version>  (1) 
72125

>  <i_m_source_file_index>  (1) 
38

>  <i_f3d_flags>  (1) 
0

>  <num_sample>  (1) 
50

>  <b_lp_Chiralities_Consistent>  (1) 
1

>  <r_epik_Charging_Adjusted_Penalty>  (1) 
0

>  <r_epik_Ionization_Penalty>  (1) 
4.6834743432320728e-14

>  <r_epik_Ionization_Penalty_Charging>  (1) 
0

>  <r_epik_Ionization_Penalty_Neutral>  (1) 
4.6834743432320728e-14

>  <r_epik_State_Penalty>  (1) 
-0

>  <r_glide_ring_energy>  (1) 
0.0018681440481121299

>  <r_i_docking_score>  (1) 
-4.7061662731085727

>  <r_i_glide_ecoul>  (1) 
0.13307822174912676

>  <r_i_glide_eff_state_penalty>  (1) 
-0

>  <r_i_glide_einternal>  (1) 
0

>  <r_i_glide_emodel>  (1) 
-19.98028060203703

>  <r_i_glide_emodel_strain>  (1) 
0.87071085735282017

>  <r_i_glide_energy>  (1) 
-15.567771983529859

>  <r_i_glide_erotb>  (1) 
0

>  <r_i_glide_esite>  (1) 
0

>  <r_i_glide_evdw>  (1) 
-15.700850205278986

>  <r_i_glide_gscore>  (1) 
-4.7061662731085727

>  <r_i_glide_gscore_strain>  (1) 
0

>  <r_i_glide_hbond>  (1) 
0

>  <r_i_glide_ligand_efficiency>  (1) 
-0.67230946758693899

>  <r_i_glide_ligand_efficiency_ln>  (1) 
-1.5975253945262837

>  <r_i_glide_ligand_efficiency_sa>  (1) 
-1.2860817450201585

>  <r_i_glide_lipo>  (1) 
-0.66000000000000003

>  <r_i_glide_metal>  (1) 
-0

>  <r_i_glide_rewards>  (1) 
-3.2810854961069924

>  <r_lp_Energy>  (1) 
1.238378

>  <r_lp_tautomer_probability>  (1) 
1

>  <s_epik_Chemistry_Notes>  (1) 
This compound contains an acetal/aminal-like group ( X-CH(R)-Y where X, Y are N, S, or O) that may be acid/base labile, releasing an aldehyde.

>  <s_epik_cmdline>  (1) 
J2VwaWtfcHl0aG9uJywgJy1waHQnLCAnMS4wJywgJy1waCcsICc3LjQnLCAnLXRuJywgJzgnLCAnLW1hJywgJzUwMCcsICctaW1hZScsICc8aW5maWxlLm1hZT4nLCAnLW9tYWUnLCAnPG91dGZpbGUubWFlPic=

>  <s_epik_input>  (1) 
W0NIMl0xW0NIMl1PW0NIMl1PW0NIMl1PMQ==

>  <s_glide_docking_method>  (1) 
confgen

>  <s_i_glide_gridfile>  (1) 
gpcr_5ht2c_6bqh_protein_autoprepared_prepared

>  <s_lp_Force_Field>  (1) 
S-OPLS

>  <s_lp_Variant>  (1) 
Pocket2Mol_37_num_sample_50-1

>  <s_m_source_file>  (1) 
generated__ligand_Pocket2Mol_2026-05-06_prepared.sdf

>  <GenAI_Model>  (1) 
Pocket2Mol

>  <Protein>  (1) 
GPCR_5HT2C

$$$$
Pocket2Mol_26_num_sample_50
     RDKit          3D

  0  0  0  0  0  0  0  0  0  0999 V3000
M  V30 BEGIN CTAB
M  V30 COUNTS 13 13 0 0 1
M  V30 BEGIN ATOM
M  V30 1 C 40.113853 30.466122 51.784378 0
M  V30 2 O 40.259904 29.175149 51.210438 0
M  V30 3 C 39.386461 28.165216 51.459759 0
M  V30 4 O 39.180628 27.221564 50.703411 0
M  V30 5 C 38.673620 28.278076 52.823372 0
M  V30 6 C 39.569985 30.420879 53.218302 0
M  V30 7 O 38.404938 29.621429 53.202107 0
M  V30 8 H 39.467872 31.055243 51.141016 0
M  V30 9 H 41.067356 30.983851 51.760720 0
M  V30 10 H 39.288438 27.801448 53.588792 0
M  V30 11 H 37.731894 27.730103 52.781400 0
M  V30 12 H 39.314788 31.425264 53.557542 0
M  V30 13 H 40.300182 30.021667 53.920351 0
M  V30 END ATOM
M  V30 BEGIN BOND
M  V30 1 1 2 1
M  V30 2 1 3 2
M  V30 3 2 4 3
M  V30 4 1 5 3
M  V30 5 1 6 1
M  V30 6 1 7 5
M  V30 7 1 7 6
M  V30 8 1 8 1
M  V30 9 1 9 1
M  V30 10 1 10 5
M  V30 11 1 11 5
M  V30 12 1 12 6
M  V30 13 1 13 6
M  V30 END BOND
M  V30 END CTAB
M  END
>  <i_epik_Tot_Q>  (1) 
0

>  <i_epik_Tot_abs_Q>  (1) 
0

>  <i_i_glide_confnum>  (1) 
2

>  <i_i_glide_lignum>  (1) 
27

>  <i_i_glide_posenum>  (1) 
238

>  <i_i_glide_rotatable_bonds>  (1) 
0

>  <i_lp_mmshare_version>  (1) 
72125

>  <i_m_source_file_index>  (1) 
27

>  <i_f3d_flags>  (1) 
0

>  <num_sample>  (1) 
50

>  <b_lp_Chiralities_Consistent>  (1) 
1

>  <r_epik_Charging_Adjusted_Penalty>  (1) 
0

>  <r_epik_Ionization_Penalty>  (1) 
1.0677269036415479e-12

>  <r_epik_Ionization_Penalty_Charging>  (1) 
0

>  <r_epik_Ionization_Penalty_Neutral>  (1) 
1.0677269036415479e-12

>  <r_epik_State_Penalty>  (1) 
-0

>  <r_glide_ring_energy>  (1) 
4.2281688740393558e-05

>  <r_i_docking_score>  (1) 
-4.703171357886017

>  <r_i_glide_ecoul>  (1) 
0.07863063914681015

>  <r_i_glide_eff_state_penalty>  (1) 
-0

>  <r_i_glide_einternal>  (1) 
0

>  <r_i_glide_emodel>  (1) 
-20.558908794310739

>  <r_i_glide_emodel_strain>  (1) 
0

>  <r_i_glide_energy>  (1) 
-15.731692270144674

>  <r_i_glide_erotb>  (1) 
0

>  <r_i_glide_esite>  (1) 
0

>  <r_i_glide_evdw>  (1) 
-15.810322909291484

>  <r_i_glide_gscore>  (1) 
-4.703171357886017

>  <r_i_glide_gscore_strain>  (1) 
0

>  <r_i_glide_hbond>  (1) 
0

>  <r_i_glide_ligand_efficiency>  (1) 
-0.67188162255514527

>  <r_i_glide_ligand_efficiency_ln>  (1) 
-1.5965087595744281

>  <r_i_glide_ligand_efficiency_sa>  (1) 
-1.2852633069174459

>  <r_i_glide_lipo>  (1) 
-0.89250354310397295

>  <r_i_glide_metal>  (1) 
-0

>  <r_i_glide_rewards>  (1) 
-3.0319462651894913

>  <r_lp_Energy>  (1) 
12.58291

>  <r_lp_tautomer_probability>  (1) 
1

>  <s_epik_Chemistry_Notes>  (1) 
This compound has an ester and may undergo hydrolysis at high or low pH.

>  <s_epik_cmdline>  (1) 
J2VwaWtfcHl0aG9uJywgJy1waHQnLCAnMS4wJywgJy1waCcsICc3LjQnLCAnLXRuJywgJzgnLCAnLW1hJywgJzUwMCcsICctaW1hZScsICc8aW5maWxlLm1hZT4nLCAnLW9tYWUnLCAnPG91dGZpbGUubWFlPic=

>  <s_epik_input>  (1) 
W0NIMl0xT1tDSDJdW0NIMl1PQzE9Tw==

>  <s_glide_docking_method>  (1) 
confgen

>  <s_i_glide_gridfile>  (1) 
gpcr_5ht2c_6bqh_protein_autoprepared_prepared

>  <s_lp_Force_Field>  (1) 
S-OPLS

>  <s_lp_Variant>  (1) 
Pocket2Mol_26_num_sample_50-1

>  <s_m_source_file>  (1) 
generated__ligand_Pocket2Mol_2026-05-06_prepared.sdf

>  <GenAI_Model>  (1) 
Pocket2Mol

>  <Protein>  (1) 
GPCR_5HT2C

$$$$
Pocket2Mol_17_num_sample_50
     RDKit          3D

  0  0  0  0  0  0  0  0  0  0999 V3000
M  V30 BEGIN CTAB
M  V30 COUNTS 10 10 0 0 1
M  V30 BEGIN ATOM
M  V30 1 C 40.293708 30.525678 50.587246 0
M  V30 2 O 39.957956 29.139484 50.129659 0
M  V30 3 C 39.435276 28.390014 51.193464 0
M  V30 4 C 39.867403 30.373914 52.015551 0
M  V30 5 C 39.406505 29.214052 52.328408 0
M  V30 6 O 39.067671 27.221443 51.135980 0
M  V30 7 H 39.709096 31.283339 50.065191 0
M  V30 8 H 39.952547 31.196751 52.710413 0
M  V30 9 H 39.047519 28.895025 53.295705 0
M  V30 10 H 41.361055 30.731791 50.501082 0
M  V30 END ATOM
M  V30 BEGIN BOND
M  V30 1 1 2 1
M  V30 2 1 3 2
M  V30 3 1 4 1
M  V30 4 1 5 3
M  V30 5 2 5 4
M  V30 6 2 6 3
M  V30 7 1 7 1
M  V30 8 1 8 4
M  V30 9 1 9 5
M  V30 10 1 10 1
M  V30 END BOND
M  V30 END CTAB
M  END
>  <i_epik_Tot_Q>  (1) 
0

>  <i_epik_Tot_abs_Q>  (1) 
0

>  <i_i_glide_confnum>  (1) 
1

>  <i_i_glide_lignum>  (1) 
18

>  <i_i_glide_posenum>  (1) 
100

>  <i_i_glide_rotatable_bonds>  (1) 
0

>  <i_lp_mmshare_version>  (1) 
72125

>  <i_m_source_file_index>  (1) 
18

>  <i_f3d_flags>  (1) 
0

>  <num_sample>  (1) 
50

>  <b_lp_Chiralities_Consistent>  (1) 
1

>  <r_epik_Charging_Adjusted_Penalty>  (1) 
0

>  <r_epik_Ionization_Penalty>  (1) 
0

>  <r_epik_Ionization_Penalty_Charging>  (1) 
0

>  <r_epik_Ionization_Penalty_Neutral>  (1) 
0

>  <r_epik_State_Penalty>  (1) 
-0

>  <r_glide_ring_energy>  (1) 
0

>  <r_i_docking_score>  (1) 
-4.7007280012817541

>  <r_i_glide_ecoul>  (1) 
0.22988819052600085

>  <r_i_glide_eff_state_penalty>  (1) 
-0

>  <r_i_glide_einternal>  (1) 
0

>  <r_i_glide_emodel>  (1) 
-20.622058888057349

>  <r_i_glide_emodel_strain>  (1) 
0

>  <r_i_glide_energy>  (1) 
-15.993423392617164

>  <r_i_glide_erotb>  (1) 
0

>  <r_i_glide_esite>  (1) 
0

>  <r_i_glide_evdw>  (1) 
-16.223311583143165

>  <r_i_glide_gscore>  (1) 
-4.7007280012817541

>  <r_i_glide_gscore_strain>  (1) 
0

>  <r_i_glide_hbond>  (1) 
0

>  <r_i_glide_ligand_efficiency>  (1) 
-0.78345466688029231

>  <r_i_glide_ligand_efficiency_ln>  (1) 
-1.6837868924938384

>  <r_i_glide_ligand_efficiency_sa>  (1) 
-1.4236316087386234

>  <r_i_glide_lipo>  (1) 
-0.95125583471163988

>  <r_i_glide_metal>  (1) 
-0

>  <r_i_glide_rewards>  (1) 
-2.972789815991856

>  <r_lp_Energy>  (1) 
-7.0611199999999998

>  <r_lp_tautomer_probability>  (1) 
1

>  <s_epik_Chemistry_Notes>  (1) 
This compound has an ester and may undergo hydrolysis at high or low pH.

>  <s_epik_cmdline>  (1) 
J2VwaWtfcHl0aG9uJywgJy1waHQnLCAnMS4wJywgJy1waCcsICc3LjQnLCAnLXRuJywgJzgnLCAnLW1hJywgJzUwMCcsICctaW1hZScsICc8aW5maWxlLm1hZT4nLCAnLW9tYWUnLCAnPG91dGZpbGUubWFlPic=

>  <s_epik_input>  (1) 
W0NIMl0xW0NIXT1bQ0hdT0MxPU8=

>  <s_glide_docking_method>  (1) 
confgen

>  <s_i_glide_gridfile>  (1) 
gpcr_5ht2c_6bqh_protein_autoprepared_prepared

>  <s_lp_Force_Field>  (1) 
S-OPLS

>  <s_lp_Variant>  (1) 
Pocket2Mol_17_num_sample_50-1

>  <s_m_source_file>  (1) 
generated__ligand_Pocket2Mol_2026-05-06_prepared.sdf

>  <GenAI_Model>  (1) 
Pocket2Mol

>  <Protein>  (1) 
GPCR_5HT2C

$$$$
Pocket2Mol_21_num_sample_50
     RDKit          3D

  0  0  0  0  0  0  0  0  0  0999 V3000
M  V30 BEGIN CTAB
M  V30 COUNTS 14 14 0 0 1
M  V30 BEGIN ATOM
M  V30 1 C 39.276089 27.836535 51.053500 0
M  V30 2 C 39.844281 29.199552 51.413319 0
M  V30 3 O 39.227685 27.221435 52.318291 0
M  V30 4 C 38.892350 28.236977 53.203333 0
M  V30 5 O 39.188784 29.470708 52.634751 0
M  V30 6 C 37.390135 28.175845 53.487229 0
M  V30 7 H 39.886851 27.281355 50.341888 0
M  V30 8 H 38.267404 27.931857 50.653512 0
M  V30 9 H 40.921463 29.141250 51.573477 0
M  V30 10 H 39.640953 29.960603 50.659454 0
M  V30 11 H 39.467402 28.109607 54.120884 0
M  V30 12 H 36.821599 28.319628 52.568208 0
M  V30 13 H 37.116355 28.958138 54.195695 0
M  V30 14 H 37.132589 27.206384 53.913989 0
M  V30 END ATOM
M  V30 BEGIN BOND
M  V30 1 1 2 1
M  V30 2 1 3 1
M  V30 3 1 4 3
M  V30 4 1 5 2
M  V30 5 1 5 4
M  V30 6 1 6 4
M  V30 7 1 7 1
M  V30 8 1 8 1
M  V30 9 1 9 2
M  V30 10 1 10 2
M  V30 11 1 11 4
M  V30 12 1 12 6
M  V30 13 1 13 6
M  V30 14 1 14 6
M  V30 END BOND
M  V30 END CTAB
M  END
>  <i_epik_Tot_Q>  (1) 
0

>  <i_epik_Tot_abs_Q>  (1) 
0

>  <i_i_glide_confnum>  (1) 
3

>  <i_i_glide_lignum>  (1) 
22

>  <i_i_glide_posenum>  (1) 
309

>  <i_i_glide_rotatable_bonds>  (1) 
0

>  <i_lp_mmshare_version>  (1) 
72125

>  <i_m_source_file_index>  (1) 
22

>  <i_f3d_flags>  (1) 
0

>  <num_sample>  (1) 
50

>  <b_lp_Chiralities_Consistent>  (1) 
1

>  <r_epik_Charging_Adjusted_Penalty>  (1) 
0

>  <r_epik_Ionization_Penalty>  (1) 
7.9724310449397378e-14

>  <r_epik_Ionization_Penalty_Charging>  (1) 
0

>  <r_epik_Ionization_Penalty_Neutral>  (1) 
7.9724310449397378e-14

>  <r_epik_State_Penalty>  (1) 
-0

>  <r_glide_ring_energy>  (1) 
1.2362365743684729

>  <r_i_docking_score>  (1) 
-4.6985999206362123

>  <r_i_glide_ecoul>  (1) 
-0.30710396244007931

>  <r_i_glide_eff_state_penalty>  (1) 
-0

>  <r_i_glide_einternal>  (1) 
0

>  <r_i_glide_emodel>  (1) 
-20.083550012626784

>  <r_i_glide_emodel_strain>  (1) 
0.025278159390444976

>  <r_i_glide_energy>  (1) 
-15.648315546863321

>  <r_i_glide_erotb>  (1) 
0

>  <r_i_glide_esite>  (1) 
0

>  <r_i_glide_evdw>  (1) 
-15.341211584423242

>  <r_i_glide_gscore>  (1) 
-4.6985999206362123

>  <r_i_glide_gscore_strain>  (1) 
0

>  <r_i_glide_hbond>  (1) 
0

>  <r_i_glide_ligand_efficiency>  (1) 
-0.78309998677270209

>  <r_i_glide_ligand_efficiency_ln>  (1) 
-1.6830246202891594

>  <r_i_glide_ligand_efficiency_sa>  (1) 
-1.4229871122112532

>  <r_i_glide_lipo>  (1) 
-0.98999999999999999

>  <r_i_glide_metal>  (1) 
-0

>  <r_i_glide_rewards>  (1) 
-2.8954737470490386

>  <r_lp_Energy>  (1) 
-12.129052

>  <r_lp_tautomer_probability>  (1) 
1

>  <s_epik_Chemistry_Notes>  (1) 
This compound contains an acetal/aminal-like group ( X-CH(R)-Y where X, Y are N, S, or O) that may be acid/base labile, releasing an aldehyde.

>  <s_epik_cmdline>  (1) 
J2VwaWtfcHl0aG9uJywgJy1waHQnLCAnMS4wJywgJy1waCcsICc3LjQnLCAnLXRuJywgJzgnLCAnLW1hJywgJzUwMCcsICctaW1hZScsICc8aW5maWxlLm1hZT4nLCAnLW9tYWUnLCAnPG91dGZpbGUubWFlPic=

>  <s_epik_input>  (1) 
TzFbQ0gyXVtDSDJdT1tDSF0xW0NIM10=

>  <s_glide_docking_method>  (1) 
confgen

>  <s_i_glide_gridfile>  (1) 
gpcr_5ht2c_6bqh_protein_autoprepared_prepared

>  <s_lp_Force_Field>  (1) 
S-OPLS

>  <s_lp_Variant>  (1) 
Pocket2Mol_21_num_sample_50-1

>  <s_m_source_file>  (1) 
generated__ligand_Pocket2Mol_2026-05-06_prepared.sdf

>  <GenAI_Model>  (1) 
Pocket2Mol

>  <Protein>  (1) 
GPCR_5HT2C

$$$$
Pocket2Mol_47_num_sample_50
     RDKit          3D

  0  0  0  0  0  0  0  0  0  0999 V3000
M  V30 BEGIN CTAB
M  V30 COUNTS 15 15 0 0 1
M  V30 BEGIN ATOM
M  V30 1 C 40.014982 29.852433 51.386159 0
M  V30 2 C 39.750623 30.332543 52.823683 0
M  V30 3 C 38.788365 29.312517 53.455190 0
M  V30 4 C 39.474869 28.422937 51.315316 0
M  V30 5 C 38.322733 28.402910 52.315729 0
M  V30 6 H 39.467397 30.482104 50.683833 0
M  V30 7 H 41.068209 29.907954 51.111441 0
M  V30 8 H 40.667403 30.395121 53.406302 0
M  V30 9 H 39.324609 31.336148 52.820593 0
M  V30 10 H 39.323035 28.720807 54.199336 0
M  V30 11 H 37.951219 29.793343 53.962857 0
M  V30 12 H 39.163759 28.139310 50.308746 0
M  V30 13 H 40.247017 27.724130 51.636766 0
M  V30 14 H 38.077051 27.395063 52.653107 0
M  V30 15 H 37.429292 28.821428 51.853501 0
M  V30 END ATOM
M  V30 BEGIN BOND
M  V30 1 1 2 1
M  V30 2 1 3 2
M  V30 3 1 4 1
M  V30 4 1 5 3
M  V30 5 1 5 4
M  V30 6 1 6 1
M  V30 7 1 7 1
M  V30 8 1 8 2
M  V30 9 1 9 2
M  V30 10 1 10 3
M  V30 11 1 11 3
M  V30 12 1 12 4
M  V30 13 1 13 4
M  V30 14 1 14 5
M  V30 15 1 15 5
M  V30 END BOND
M  V30 END CTAB
M  END
>  <i_epik_Tot_Q>  (1) 
0

>  <i_epik_Tot_abs_Q>  (1) 
0

>  <i_i_glide_confnum>  (1) 
4

>  <i_i_glide_lignum>  (1) 
48

>  <i_i_glide_posenum>  (1) 
67

>  <i_i_glide_rotatable_bonds>  (1) 
0

>  <i_lp_mmshare_version>  (1) 
72125

>  <i_m_source_file_index>  (1) 
48

>  <i_f3d_flags>  (1) 
0

>  <num_sample>  (1) 
50

>  <b_lp_Chiralities_Consistent>  (1) 
1

>  <r_epik_Charging_Adjusted_Penalty>  (1) 
0

>  <r_epik_Ionization_Penalty>  (1) 
0

>  <r_epik_Ionization_Penalty_Charging>  (1) 
0

>  <r_epik_Ionization_Penalty_Neutral>  (1) 
0

>  <r_epik_State_Penalty>  (1) 
-0

>  <r_glide_ring_energy>  (1) 
0.0012162538604926188

>  <r_i_docking_score>  (1) 
-4.6938121101404731

>  <r_i_glide_ecoul>  (1) 
-0.099759684565521645

>  <r_i_glide_eff_state_penalty>  (1) 
-0

>  <r_i_glide_einternal>  (1) 
0

>  <r_i_glide_emodel>  (1) 
-16.776044114048865

>  <r_i_glide_emodel_strain>  (1) 
0

>  <r_i_glide_energy>  (1) 
-13.092305612817041

>  <r_i_glide_erotb>  (1) 
0

>  <r_i_glide_esite>  (1) 
0

>  <r_i_glide_evdw>  (1) 
-12.99254592825152

>  <r_i_glide_gscore>  (1) 
-4.6938121101404731

>  <r_i_glide_gscore_strain>  (1) 
0

>  <r_i_glide_hbond>  (1) 
0

>  <r_i_glide_ligand_efficiency>  (1) 
-0.93876242202809457

>  <r_i_glide_ligand_efficiency_ln>  (1) 
-1.7987828289664325

>  <r_i_glide_ligand_efficiency_sa>  (1) 
-1.605261161312

>  <r_i_glide_lipo>  (1) 
-1.5498674337470717

>  <r_i_glide_metal>  (1) 
-0

>  <r_i_glide_rewards>  (1) 
-2.4793534272959974

>  <r_lp_Energy>  (1) 
13.274989999999999

>  <r_lp_tautomer_probability>  (1) 
1

>  <s_epik_cmdline>  (1) 
J2VwaWtfcHl0aG9uJywgJy1waHQnLCAnMS4wJywgJy1waCcsICc3LjQnLCAnLXRuJywgJzgnLCAnLW1hJywgJzUwMCcsICctaW1hZScsICc8aW5maWxlLm1hZT4nLCAnLW9tYWUnLCAnPG91dGZpbGUubWFlPic=

>  <s_epik_input>  (1) 
W0NIMl0xW0NIMl1bQ0gyXVtDSDJdW0NIMl0x

>  <s_glide_docking_method>  (1) 
confgen

>  <s_i_glide_gridfile>  (1) 
gpcr_5ht2c_6bqh_protein_autoprepared_prepared

>  <s_lp_Force_Field>  (1) 
S-OPLS

>  <s_lp_Variant>  (1) 
Pocket2Mol_47_num_sample_50-1

>  <s_m_source_file>  (1) 
generated__ligand_Pocket2Mol_2026-05-06_prepared.sdf

>  <GenAI_Model>  (1) 
Pocket2Mol

>  <Protein>  (1) 
GPCR_5HT2C

$$$$
Pocket2Mol_13_num_sample_50
     RDKit          3D

  0  0  0  0  0  0  0  0  0  0999 V3000
M  V30 BEGIN CTAB
M  V30 COUNTS 12 12 0 0 1
M  V30 BEGIN ATOM
M  V30 1 C 39.975012 29.423879 51.453502 0
M  V30 2 O 39.153954 29.540924 52.605591 0
M  V30 3 C 39.467404 28.157397 50.749015 0
M  V30 4 C 38.490552 28.421343 52.860143 0
M  V30 5 C 38.791703 27.343357 51.844517 0
M  V30 6 O 37.714322 28.249150 53.796632 0
M  V30 7 H 39.903270 30.306454 50.817226 0
M  V30 8 H 41.013242 29.303483 51.762887 0
M  V30 9 H 38.732018 28.421430 49.989405 0
M  V30 10 H 40.267399 27.608767 50.253508 0
M  V30 11 H 39.467404 26.607473 52.280203 0
M  V30 12 H 37.885972 26.846441 51.498339 0
M  V30 END ATOM
M  V30 BEGIN BOND
M  V30 1 1 2 1
M  V30 2 1 3 1
M  V30 3 1 4 2
M  V30 4 1 5 3
M  V30 5 1 5 4
M  V30 6 2 6 4
M  V30 7 1 7 1
M  V30 8 1 8 1
M  V30 9 1 9 3
M  V30 10 1 10 3
M  V30 11 1 11 5
M  V30 12 1 12 5
M  V30 END BOND
M  V30 END CTAB
M  END
>  <i_epik_Tot_Q>  (1) 
0

>  <i_epik_Tot_abs_Q>  (1) 
0

>  <i_i_glide_confnum>  (1) 
1

>  <i_i_glide_lignum>  (1) 
14

>  <i_i_glide_posenum>  (1) 
367

>  <i_i_glide_rotatable_bonds>  (1) 
0

>  <i_lp_mmshare_version>  (1) 
72125

>  <i_m_source_file_index>  (1) 
14

>  <i_f3d_flags>  (1) 
0

>  <num_sample>  (1) 
50

>  <b_lp_Chiralities_Consistent>  (1) 
1

>  <r_epik_Charging_Adjusted_Penalty>  (1) 
0

>  <r_epik_Ionization_Penalty>  (1) 
0

>  <r_epik_Ionization_Penalty_Charging>  (1) 
0

>  <r_epik_Ionization_Penalty_Neutral>  (1) 
0

>  <r_epik_State_Penalty>  (1) 
-0

>  <r_glide_ring_energy>  (1) 
0

>  <r_i_docking_score>  (1) 
-4.6802922052976665

>  <r_i_glide_ecoul>  (1) 
-0.74732927778448022

>  <r_i_glide_eff_state_penalty>  (1) 
-0

>  <r_i_glide_einternal>  (1) 
0

>  <r_i_glide_emodel>  (1) 
-20.465696742582956

>  <r_i_glide_emodel_strain>  (1) 
0

>  <r_i_glide_energy>  (1) 
-15.737186085038728

>  <r_i_glide_erotb>  (1) 
0

>  <r_i_glide_esite>  (1) 
0

>  <r_i_glide_evdw>  (1) 
-14.989856807254247

>  <r_i_glide_gscore>  (1) 
-4.6802922052976665

>  <r_i_glide_gscore_strain>  (1) 
0

>  <r_i_glide_hbond>  (1) 
0

>  <r_i_glide_ligand_efficiency>  (1) 
-0.78004870088294442

>  <r_i_glide_ligand_efficiency_ln>  (1) 
-1.6764668507032259

>  <r_i_glide_ligand_efficiency_sa>  (1) 
-1.4174425577863565

>  <r_i_glide_lipo>  (1) 
-0.98999999999999999

>  <r_i_glide_metal>  (1) 
-0

>  <r_i_glide_rewards>  (1) 
-2.8286999732672822

>  <r_lp_Energy>  (1) 
-1.1766760000000001

>  <r_lp_tautomer_probability>  (1) 
1

>  <s_epik_Chemistry_Notes>  (1) 
This compound has an ester and may undergo hydrolysis at high or low pH.

>  <s_epik_cmdline>  (1) 
J2VwaWtfcHl0aG9uJywgJy1waHQnLCAnMS4wJywgJy1waCcsICc3LjQnLCAnLXRuJywgJzgnLCAnLW1hJywgJzUwMCcsICctaW1hZScsICc8aW5maWxlLm1hZT4nLCAnLW9tYWUnLCAnPG91dGZpbGUubWFlPic=

>  <s_epik_input>  (1) 
W0NIMl0xW0NIMl1bQ0gyXU9DMT1P

>  <s_glide_docking_method>  (1) 
confgen

>  <s_i_glide_gridfile>  (1) 
gpcr_5ht2c_6bqh_protein_autoprepared_prepared

>  <s_lp_Force_Field>  (1) 
S-OPLS

>  <s_lp_Variant>  (1) 
Pocket2Mol_13_num_sample_50-1

>  <s_m_source_file>  (1) 
generated__ligand_Pocket2Mol_2026-05-06_prepared.sdf

>  <GenAI_Model>  (1) 
Pocket2Mol

>  <Protein>  (1) 
GPCR_5HT2C

$$$$
Pocket2Mol_3_num_sample_50
     RDKit          3D

  0  0  0  0  0  0  0  0  0  0999 V3000
M  V30 BEGIN CTAB
M  V30 COUNTS 12 12 0 0 1
M  V30 BEGIN ATOM
M  V30 1 C 39.467404 29.412514 52.238172 0
M  V30 2 C 39.120991 28.457634 51.453467 0
M  V30 3 C 38.810037 29.373921 53.604184 0
M  V30 4 C 37.868676 28.032688 53.357781 0
M  V30 5 N 38.267403 27.621430 51.999594 0
M  V30 6 H 39.429968 28.280020 50.432952 0
M  V30 7 H 39.546548 29.232688 54.395049 0
M  V30 8 H 38.221945 30.272142 53.794347 0
M  V30 9 H 38.081505 27.245067 54.081114 0
M  V30 10 H 36.804824 28.269281 53.388527 0
M  V30 11 H 40.154779 30.201601 51.969095 0
M  V30 12 H 37.682638 26.995790 51.453504 0
M  V30 END ATOM
M  V30 BEGIN BOND
M  V30 1 2 2 1
M  V30 2 1 3 1
M  V30 3 1 4 3
M  V30 4 1 5 2
M  V30 5 1 5 4
M  V30 6 1 6 2
M  V30 7 1 7 3
M  V30 8 1 8 3
M  V30 9 1 9 4
M  V30 10 1 10 4
M  V30 11 1 11 1
M  V30 12 1 12 5
M  V30 END BOND
M  V30 END CTAB
M  END
>  <i_epik_Tot_Q>  (1) 
0

>  <i_epik_Tot_abs_Q>  (1) 
0

>  <i_i_glide_confnum>  (1) 
1

>  <i_i_glide_lignum>  (1) 
4

>  <i_i_glide_posenum>  (1) 
281

>  <i_i_glide_rotatable_bonds>  (1) 
0

>  <i_lp_mmshare_version>  (1) 
72125

>  <i_m_source_file_index>  (1) 
4

>  <i_f3d_flags>  (1) 
0

>  <num_sample>  (1) 
50

>  <b_lp_Chiralities_Consistent>  (1) 
1

>  <r_epik_Charging_Adjusted_Penalty>  (1) 
1.6042444336516156e-06

>  <r_epik_Ionization_Penalty>  (1) 
0.0023556498582944039

>  <r_epik_Ionization_Penalty_Charging>  (1) 
1.6042444336516156e-06

>  <r_epik_Ionization_Penalty_Neutral>  (1) 
0.0023540456138607521

>  <r_epik_State_Penalty>  (1) 
-0

>  <r_glide_ring_energy>  (1) 
0

>  <r_i_docking_score>  (1) 
-4.6568393856503221

>  <r_i_glide_ecoul>  (1) 
-2.0578643246073249

>  <r_i_glide_eff_state_penalty>  (1) 
-0

>  <r_i_glide_einternal>  (1) 
0

>  <r_i_glide_emodel>  (1) 
-18.633787423407625

>  <r_i_glide_emodel_strain>  (1) 
0

>  <r_i_glide_energy>  (1) 
-14.498086888616953

>  <r_i_glide_erotb>  (1) 
0

>  <r_i_glide_esite>  (1) 
0

>  <r_i_glide_evdw>  (1) 
-12.440222564009629

>  <r_i_glide_gscore>  (1) 
-4.6568393856503221

>  <r_i_glide_gscore_strain>  (1) 
0

>  <r_i_glide_hbond>  (1) 
-0.27695684644929197

>  <r_i_glide_ligand_efficiency>  (1) 
-0.93136787713006441

>  <r_i_glide_ligand_efficiency_ln>  (1) 
-1.7846139827509413

>  <r_i_glide_ligand_efficiency_sa>  (1) 
-1.5926166673997475

>  <r_i_glide_lipo>  (1) 
-1.1991917623094501

>  <r_i_glide_metal>  (1) 
-0

>  <r_i_glide_rewards>  (1) 
-2.25

>  <r_lp_Energy>  (1) 
2.9163319999999997

>  <r_lp_tautomer_probability>  (1) 
1

>  <s_epik_Chemistry_Notes>  (1) 
This compound has an imine and may undergo hydrolysis.

>  <s_epik_cmdline>  (1) 
J2VwaWtfcHl0aG9uJywgJy1waHQnLCAnMS4wJywgJy1waCcsICc3LjQnLCAnLXRuJywgJzgnLCAnLW1hJywgJzUwMCcsICctaW1hZScsICc8aW5maWxlLm1hZT4nLCAnLW9tYWUnLCAnPG91dGZpbGUubWFlPic=

>  <s_epik_input>  (1) 
W0NIMl0xW0NIXT1OW0NIMl1bQ0gyXTE=

>  <s_glide_docking_method>  (1) 
confgen

>  <s_i_glide_gridfile>  (1) 
gpcr_5ht2c_6bqh_protein_autoprepared_prepared

>  <s_lp_Force_Field>  (1) 
S-OPLS

>  <s_lp_Variant>  (1) 
Pocket2Mol_3_num_sample_50-1

>  <s_m_source_file>  (1) 
generated__ligand_Pocket2Mol_2026-05-06_prepared.sdf

>  <GenAI_Model>  (1) 
Pocket2Mol

>  <Protein>  (1) 
GPCR_5HT2C

$$$$
Pocket2Mol_47_num_sample_50
     RDKit          3D

  0  0  0  0  0  0  0  0  0  0999 V3000
M  V30 BEGIN CTAB
M  V30 COUNTS 15 15 0 0 1
M  V30 BEGIN ATOM
M  V30 1 C 38.815103 25.606359 55.112344 0
M  V30 2 C 39.536567 26.201431 56.320121 0
M  V30 3 C 39.206270 25.235208 57.453500 0
M  V30 4 C 37.553802 24.932466 55.672572 0
M  V30 5 C 37.756995 24.819888 57.191707 0
M  V30 6 H 38.588666 26.352729 54.350181 0
M  V30 7 H 39.453712 24.850394 54.653501 0
M  V30 8 H 40.610231 26.307285 56.158621 0
M  V30 9 H 39.131761 27.189092 56.545265 0
M  V30 10 H 39.858325 24.363059 57.389294 0
M  V30 11 H 39.344558 25.680635 58.439139 0
M  V30 12 H 36.667398 25.529607 55.455970 0
M  V30 13 H 37.405480 23.953539 55.214869 0
M  V30 14 H 37.545320 23.817871 57.567271 0
M  V30 15 H 37.080892 25.507732 57.701539 0
M  V30 END ATOM
M  V30 BEGIN BOND
M  V30 1 1 2 1
M  V30 2 1 3 2
M  V30 3 1 4 1
M  V30 4 1 5 3
M  V30 5 1 5 4
M  V30 6 1 6 1
M  V30 7 1 7 1
M  V30 8 1 8 2
M  V30 9 1 9 2
M  V30 10 1 10 3
M  V30 11 1 11 3
M  V30 12 1 12 4
M  V30 13 1 13 4
M  V30 14 1 14 5
M  V30 15 1 15 5
M  V30 END BOND
M  V30 END CTAB
M  END
>  <i_epik_Tot_Q>  (1) 
0

>  <i_epik_Tot_abs_Q>  (1) 
0

>  <i_i_glide_confnum>  (1) 
3

>  <i_i_glide_lignum>  (1) 
48

>  <i_i_glide_posenum>  (1) 
229

>  <i_i_glide_rotatable_bonds>  (1) 
0

>  <i_lp_mmshare_version>  (1) 
72125

>  <i_m_source_file_index>  (1) 
48

>  <i_f3d_flags>  (1) 
0

>  <num_sample>  (1) 
50

>  <b_lp_Chiralities_Consistent>  (1) 
1

>  <r_epik_Charging_Adjusted_Penalty>  (1) 
0

>  <r_epik_Ionization_Penalty>  (1) 
0

>  <r_epik_Ionization_Penalty_Charging>  (1) 
0

>  <r_epik_Ionization_Penalty_Neutral>  (1) 
0

>  <r_epik_State_Penalty>  (1) 
-0

>  <r_glide_ring_energy>  (1) 
0.0011506089744752722

>  <r_i_docking_score>  (1) 
-4.6562820448368551

>  <r_i_glide_ecoul>  (1) 
0.0022878066233538493

>  <r_i_glide_eff_state_penalty>  (1) 
-0

>  <r_i_glide_einternal>  (1) 
0

>  <r_i_glide_emodel>  (1) 
-17.11126139179639

>  <r_i_glide_emodel_strain>  (1) 
0

>  <r_i_glide_energy>  (1) 
-13.4569767637211

>  <r_i_glide_erotb>  (1) 
0

>  <r_i_glide_esite>  (1) 
0

>  <r_i_glide_evdw>  (1) 
-13.459264570344454

>  <r_i_glide_gscore>  (1) 
-4.6562820448368551

>  <r_i_glide_gscore_strain>  (1) 
0

>  <r_i_glide_hbond>  (1) 
0

>  <r_i_glide_ligand_efficiency>  (1) 
-0.93125640896737105

>  <r_i_glide_ligand_efficiency_ln>  (1) 
-1.7844003962115524

>  <r_i_glide_ligand_efficiency_sa>  (1) 
-1.5924260595227215

>  <r_i_glide_lipo>  (1) 
-1.6070761126395539

>  <r_i_glide_metal>  (1) 
-0

>  <r_i_glide_rewards>  (1) 
-2.3765858746735824

>  <r_lp_Energy>  (1) 
13.274989999999999

>  <r_lp_tautomer_probability>  (1) 
1

>  <s_epik_cmdline>  (1) 
J2VwaWtfcHl0aG9uJywgJy1waHQnLCAnMS4wJywgJy1waCcsICc3LjQnLCAnLXRuJywgJzgnLCAnLW1hJywgJzUwMCcsICctaW1hZScsICc8aW5maWxlLm1hZT4nLCAnLW9tYWUnLCAnPG91dGZpbGUubWFlPic=

>  <s_epik_input>  (1) 
W0NIMl0xW0NIMl1bQ0gyXVtDSDJdW0NIMl0x

>  <s_glide_docking_method>  (1) 
confgen

>  <s_i_glide_gridfile>  (1) 
gpcr_5ht2c_6bqh_protein_autoprepared_prepared

>  <s_lp_Force_Field>  (1) 
S-OPLS

>  <s_lp_Variant>  (1) 
Pocket2Mol_47_num_sample_50-1

>  <s_m_source_file>  (1) 
generated__ligand_Pocket2Mol_2026-05-06_prepared.sdf

>  <GenAI_Model>  (1) 
Pocket2Mol

>  <Protein>  (1) 
GPCR_5HT2C

$$$$
Pocket2Mol_44_num_sample_50
     RDKit          3D

  0  0  0  0  0  0  0  0  0  0999 V3000
M  V30 BEGIN CTAB
M  V30 COUNTS 12 11 0 0 1
M  V30 BEGIN ATOM
M  V30 1 C 39.480410 30.821463 63.003394 0
M  V30 2 O 38.294293 31.032859 62.253507 0
M  V30 3 C 38.384279 31.508275 61.003529 0
M  V30 4 C 36.997786 31.545462 60.320420 0
M  V30 5 O 39.422959 31.868723 60.445698 0
M  V30 6 O 35.961306 31.221431 60.900358 0
M  V30 7 N 37.067404 31.959022 59.053505 0
M  V30 8 H 39.231713 30.425601 63.988252 0
M  V30 9 H 40.135196 30.101056 62.510174 0
M  V30 10 H 40.029621 31.755046 63.139579 0
M  V30 11 H 37.962459 32.207458 58.658768 0
M  V30 12 H 36.223709 32.009934 58.476873 0
M  V30 END ATOM
M  V30 BEGIN BOND
M  V30 1 1 2 1
M  V30 2 1 3 2
M  V30 3 1 4 3
M  V30 4 2 5 3
M  V30 5 2 6 4
M  V30 6 1 7 4
M  V30 7 1 8 1
M  V30 8 1 9 1
M  V30 9 1 10 1
M  V30 10 1 11 7
M  V30 11 1 12 7
M  V30 END BOND
M  V30 END CTAB
M  END
>  <i_epik_Tot_Q>  (1) 
0

>  <i_epik_Tot_abs_Q>  (1) 
0

>  <i_i_glide_confnum>  (1) 
1

>  <i_i_glide_lignum>  (1) 
45

>  <i_i_glide_posenum>  (1) 
287

>  <i_i_glide_rotatable_bonds>  (1) 
2

>  <i_lp_mmshare_version>  (1) 
72125

>  <i_m_source_file_index>  (1) 
45

>  <i_f3d_flags>  (1) 
0

>  <num_sample>  (1) 
50

>  <b_lp_Chiralities_Consistent>  (1) 
1

>  <r_epik_Charging_Adjusted_Penalty>  (1) 
0

>  <r_epik_Ionization_Penalty>  (1) 
3.9236796398539443e-05

>  <r_epik_Ionization_Penalty_Charging>  (1) 
0

>  <r_epik_Ionization_Penalty_Neutral>  (1) 
3.9236796398539443e-05

>  <r_epik_State_Penalty>  (1) 
-0

>  <r_glide_ring_energy>  (1) 
0

>  <r_i_docking_score>  (1) 
-4.6561703335195848

>  <r_i_glide_ecoul>  (1) 
-6.7447309033494829

>  <r_i_glide_eff_state_penalty>  (1) 
-0

>  <r_i_glide_einternal>  (1) 
0.15272694237278817

>  <r_i_glide_emodel>  (1) 
-23.89619954304532

>  <r_i_glide_emodel_strain>  (1) 
1.6771473099197465e-11

>  <r_i_glide_energy>  (1) 
-17.685375343296439

>  <r_i_glide_erotb>  (1) 
0

>  <r_i_glide_esite>  (1) 
-0.14551440801404608

>  <r_i_glide_evdw>  (1) 
-10.940644439946956

>  <r_i_glide_gscore>  (1) 
-4.6561703335195848

>  <r_i_glide_gscore_strain>  (1) 
0

>  <r_i_glide_hbond>  (1) 
-0.45604671739086983

>  <r_i_glide_ligand_efficiency>  (1) 
-0.66516719050279782

>  <r_i_glide_ligand_efficiency_ln>  (1) 
-1.5805540895443511

>  <r_i_glide_ligand_efficiency_sa>  (1) 
-1.2724190604699042

>  <r_i_glide_lipo>  (1) 
-0.066735110115936969

>  <r_i_glide_metal>  (1) 
-0

>  <r_i_glide_rewards>  (1) 
-2.4291322404989621

>  <r_lp_Energy>  (1) 
8.3220650000000003

>  <r_lp_tautomer_probability>  (1) 
1

>  <s_epik_Chemistry_Notes>  (1) 
This compound has an ester and may undergo hydrolysis at high or low pH.

>  <s_epik_cmdline>  (1) 
J2VwaWtfcHl0aG9uJywgJy1waHQnLCAnMS4wJywgJy1waCcsICc3LjQnLCAnLXRuJywgJzgnLCAnLW1hJywgJzUwMCcsICctaW1hZScsICc8aW5maWxlLm1hZT4nLCAnLW9tYWUnLCAnPG91dGZpbGUubWFlPic=

>  <s_epik_input>  (1) 
W0NIM11PQyg9TylDKD1PKVtOSDJd

>  <s_glide_docking_method>  (1) 
confgen

>  <s_i_glide_gridfile>  (1) 
gpcr_5ht2c_6bqh_protein_autoprepared_prepared

>  <s_lp_Force_Field>  (1) 
S-OPLS

>  <s_lp_Variant>  (1) 
Pocket2Mol_44_num_sample_50-1

>  <s_m_source_file>  (1) 
generated__ligand_Pocket2Mol_2026-05-06_prepared.sdf

>  <GenAI_Model>  (1) 
Pocket2Mol

>  <Protein>  (1) 
GPCR_5HT2C

$$$$
Pocket2Mol_1_num_sample_50
     RDKit          3D

  0  0  0  0  0  0  0  0  0  0999 V3000
M  V30 BEGIN CTAB
M  V30 COUNTS 9 9 0 0 1
M  V30 BEGIN ATOM
M  V30 1 C 40.267404 30.291905 50.765941 0
M  V30 2 O 40.030658 29.221426 49.951211 0
M  V30 3 C 39.467404 28.264125 50.750118 0
M  V30 4 C 39.867401 30.028493 52.044462 0
M  V30 5 C 39.345187 28.711055 52.033050 0
M  V30 6 H 40.718670 31.147254 50.283096 0
M  V30 7 H 39.215824 27.338317 50.253499 0
M  V30 8 H 39.941233 30.704393 52.884056 0
M  V30 9 H 38.931441 28.155592 52.861884 0
M  V30 END ATOM
M  V30 BEGIN BOND
M  V30 1 1 2 1
M  V30 2 1 3 2
M  V30 3 2 4 1
M  V30 4 2 5 3
M  V30 5 1 5 4
M  V30 6 1 6 1
M  V30 7 1 7 3
M  V30 8 1 8 4
M  V30 9 1 9 5
M  V30 END BOND
M  V30 END CTAB
M  END
>  <i_epik_Tot_Q>  (1) 
0

>  <i_epik_Tot_abs_Q>  (1) 
0

>  <i_i_glide_confnum>  (1) 
1

>  <i_i_glide_lignum>  (1) 
2

>  <i_i_glide_posenum>  (1) 
293

>  <i_i_glide_rotatable_bonds>  (1) 
0

>  <i_lp_mmshare_version>  (1) 
72125

>  <i_m_source_file_index>  (1) 
2

>  <i_f3d_flags>  (1) 
0

>  <num_sample>  (1) 
50

>  <b_lp_Chiralities_Consistent>  (1) 
1

>  <r_epik_Charging_Adjusted_Penalty>  (1) 
0

>  <r_epik_Ionization_Penalty>  (1) 
0

>  <r_epik_Ionization_Penalty_Charging>  (1) 
0

>  <r_epik_Ionization_Penalty_Neutral>  (1) 
0

>  <r_epik_State_Penalty>  (1) 
-0

>  <r_glide_ring_energy>  (1) 
0

>  <r_i_docking_score>  (1) 
-4.6347445657091395

>  <r_i_glide_ecoul>  (1) 
-0.79657394598202369

>  <r_i_glide_eff_state_penalty>  (1) 
-0

>  <r_i_glide_einternal>  (1) 
0

>  <r_i_glide_emodel>  (1) 
-17.524333064761255

>  <r_i_glide_emodel_strain>  (1) 
0

>  <r_i_glide_energy>  (1) 
-13.701743422218746

>  <r_i_glide_erotb>  (1) 
0

>  <r_i_glide_esite>  (1) 
0

>  <r_i_glide_evdw>  (1) 
-12.905169476236722

>  <r_i_glide_gscore>  (1) 
-4.6347445657091395

>  <r_i_glide_gscore_strain>  (1) 
0

>  <r_i_glide_hbond>  (1) 
0

>  <r_i_glide_ligand_efficiency>  (1) 
-0.92694891314182792

>  <r_i_glide_ligand_efficiency_ln>  (1) 
-1.7761467109925677

>  <r_i_glide_ligand_efficiency_sa>  (1) 
-1.5850603452706324

>  <r_i_glide_lipo>  (1) 
-1.3200000000000001

>  <r_i_glide_metal>  (1) 
-0

>  <r_i_glide_rewards>  (1) 
-2.5499999999999998

>  <r_lp_Energy>  (1) 
2.5980879999999997

>  <r_lp_tautomer_probability>  (1) 
1

>  <s_epik_cmdline>  (1) 
J2VwaWtfcHl0aG9uJywgJy1waHQnLCAnMS4wJywgJy1waCcsICc3LjQnLCAnLXRuJywgJzgnLCAnLW1hJywgJzUwMCcsICctaW1hZScsICc8aW5maWxlLm1hZT4nLCAnLW9tYWUnLCAnPG91dGZpbGUubWFlPic=

>  <s_epik_input>  (1) 
W2NIXTFvW2NIXVtjSF1bY0hdMQ==

>  <s_glide_docking_method>  (1) 
confgen

>  <s_i_glide_gridfile>  (1) 
gpcr_5ht2c_6bqh_protein_autoprepared_prepared

>  <s_lp_Force_Field>  (1) 
S-OPLS

>  <s_lp_Variant>  (1) 
Pocket2Mol_1_num_sample_50-1

>  <s_m_source_file>  (1) 
generated__ligand_Pocket2Mol_2026-05-06_prepared.sdf

>  <GenAI_Model>  (1) 
Pocket2Mol

>  <Protein>  (1) 
GPCR_5HT2C

$$$$
Pocket2Mol_13_num_sample_50
     RDKit          3D

  0  0  0  0  0  0  0  0  0  0999 V3000
M  V30 BEGIN CTAB
M  V30 COUNTS 12 12 0 0 1
M  V30 BEGIN ATOM
M  V30 1 C 38.844774 28.735914 53.073119 0
M  V30 2 O 39.503288 29.841687 52.479383 0
M  V30 3 C 38.666969 27.709709 51.943294 0
M  V30 4 C 39.880185 29.609962 51.229179 0
M  V30 5 C 39.467402 28.235103 50.756859 0
M  V30 6 O 40.493566 30.397103 50.512365 0
M  V30 7 H 39.463144 28.333902 53.876170 0
M  V30 8 H 37.887595 29.039758 53.497988 0
M  V30 9 H 39.009682 26.721868 52.250195 0
M  V30 10 H 37.613982 27.624028 51.675440 0
M  V30 11 H 38.863353 28.307802 49.853501 0
M  V30 12 H 40.342018 27.621430 50.551390 0
M  V30 END ATOM
M  V30 BEGIN BOND
M  V30 1 1 2 1
M  V30 2 1 3 1
M  V30 3 1 4 2
M  V30 4 1 5 3
M  V30 5 1 5 4
M  V30 6 2 6 4
M  V30 7 1 7 1
M  V30 8 1 8 1
M  V30 9 1 9 3
M  V30 10 1 10 3
M  V30 11 1 11 5
M  V30 12 1 12 5
M  V30 END BOND
M  V30 END CTAB
M  END
>  <i_epik_Tot_Q>  (1) 
0

>  <i_epik_Tot_abs_Q>  (1) 
0

>  <i_i_glide_confnum>  (1) 
2

>  <i_i_glide_lignum>  (1) 
14

>  <i_i_glide_posenum>  (1) 
232

>  <i_i_glide_rotatable_bonds>  (1) 
0

>  <i_lp_mmshare_version>  (1) 
72125

>  <i_m_source_file_index>  (1) 
14

>  <i_f3d_flags>  (1) 
0

>  <num_sample>  (1) 
50

>  <b_lp_Chiralities_Consistent>  (1) 
1

>  <r_epik_Charging_Adjusted_Penalty>  (1) 
0

>  <r_epik_Ionization_Penalty>  (1) 
0

>  <r_epik_Ionization_Penalty_Charging>  (1) 
0

>  <r_epik_Ionization_Penalty_Neutral>  (1) 
0

>  <r_epik_State_Penalty>  (1) 
-0

>  <r_glide_ring_energy>  (1) 
0.00053108536261990756

>  <r_i_docking_score>  (1) 
-4.62979601468271

>  <r_i_glide_ecoul>  (1) 
0.36184009290246483

>  <r_i_glide_eff_state_penalty>  (1) 
-0

>  <r_i_glide_einternal>  (1) 
0

>  <r_i_glide_emodel>  (1) 
-20.574833011512318

>  <r_i_glide_emodel_strain>  (1) 
0.020444765825093469

>  <r_i_glide_energy>  (1) 
-15.917783544626218

>  <r_i_glide_erotb>  (1) 
0

>  <r_i_glide_esite>  (1) 
0

>  <r_i_glide_evdw>  (1) 
-16.279623637528683

>  <r_i_glide_gscore>  (1) 
-4.62979601468271

>  <r_i_glide_gscore_strain>  (1) 
0

>  <r_i_glide_hbond>  (1) 
0

>  <r_i_glide_ligand_efficiency>  (1) 
-0.77163266911378503

>  <r_i_glide_ligand_efficiency_ln>  (1) 
-1.6583792643006197

>  <r_i_glide_ligand_efficiency_sa>  (1) 
-1.4021496131486875

>  <r_i_glide_lipo>  (1) 
-0.98999999999999999

>  <r_i_glide_metal>  (1) 
-0

>  <r_i_glide_rewards>  (1) 
-2.8800908467416457

>  <r_lp_Energy>  (1) 
-1.1766760000000001

>  <r_lp_tautomer_probability>  (1) 
1

>  <s_epik_Chemistry_Notes>  (1) 
This compound has an ester and may undergo hydrolysis at high or low pH.

>  <s_epik_cmdline>  (1) 
J2VwaWtfcHl0aG9uJywgJy1waHQnLCAnMS4wJywgJy1waCcsICc3LjQnLCAnLXRuJywgJzgnLCAnLW1hJywgJzUwMCcsICctaW1hZScsICc8aW5maWxlLm1hZT4nLCAnLW9tYWUnLCAnPG91dGZpbGUubWFlPic=

>  <s_epik_input>  (1) 
W0NIMl0xW0NIMl1bQ0gyXU9DMT1P

>  <s_glide_docking_method>  (1) 
confgen

>  <s_i_glide_gridfile>  (1) 
gpcr_5ht2c_6bqh_protein_autoprepared_prepared

>  <s_lp_Force_Field>  (1) 
S-OPLS

>  <s_lp_Variant>  (1) 
Pocket2Mol_13_num_sample_50-1

>  <s_m_source_file>  (1) 
generated__ligand_Pocket2Mol_2026-05-06_prepared.sdf

>  <GenAI_Model>  (1) 
Pocket2Mol

>  <Protein>  (1) 
GPCR_5HT2C

$$$$
Pocket2Mol_1_num_sample_50
     RDKit          3D

  0  0  0  0  0  0  0  0  0  0999 V3000
M  V30 BEGIN CTAB
M  V30 COUNTS 9 9 0 0 1
M  V30 BEGIN ATOM
M  V30 1 C 39.991792 30.021430 51.454346 0
M  V30 2 O 39.467403 29.559074 52.629062 0
M  V30 3 C 39.003652 28.301346 52.358552 0
M  V30 4 C 39.867403 29.089695 50.465582 0
M  V30 5 C 39.226367 27.970609 51.053502 0
M  V30 6 H 40.405557 31.019251 51.496325 0
M  V30 7 H 38.550774 27.788201 53.194369 0
M  V30 8 H 40.197314 29.202007 49.443384 0
M  V30 9 H 38.958359 27.036594 50.580269 0
M  V30 END ATOM
M  V30 BEGIN BOND
M  V30 1 1 2 1
M  V30 2 1 3 2
M  V30 3 2 4 1
M  V30 4 2 5 3
M  V30 5 1 5 4
M  V30 6 1 6 1
M  V30 7 1 7 3
M  V30 8 1 8 4
M  V30 9 1 9 5
M  V30 END BOND
M  V30 END CTAB
M  END
>  <i_epik_Tot_Q>  (1) 
0

>  <i_epik_Tot_abs_Q>  (1) 
0

>  <i_i_glide_confnum>  (1) 
1

>  <i_i_glide_lignum>  (1) 
2

>  <i_i_glide_posenum>  (1) 
211

>  <i_i_glide_rotatable_bonds>  (1) 
0

>  <i_lp_mmshare_version>  (1) 
72125

>  <i_m_source_file_index>  (1) 
2

>  <i_f3d_flags>  (1) 
0

>  <num_sample>  (1) 
50

>  <b_lp_Chiralities_Consistent>  (1) 
1

>  <r_epik_Charging_Adjusted_Penalty>  (1) 
0

>  <r_epik_Ionization_Penalty>  (1) 
0

>  <r_epik_Ionization_Penalty_Charging>  (1) 
0

>  <r_epik_Ionization_Penalty_Neutral>  (1) 
0

>  <r_epik_State_Penalty>  (1) 
-0

>  <r_glide_ring_energy>  (1) 
0

>  <r_i_docking_score>  (1) 
-4.6216071974218842

>  <r_i_glide_ecoul>  (1) 
-0.69566098302125867

>  <r_i_glide_eff_state_penalty>  (1) 
-0

>  <r_i_glide_einternal>  (1) 
0

>  <r_i_glide_emodel>  (1) 
-17.298184054577735

>  <r_i_glide_emodel_strain>  (1) 
0

>  <r_i_glide_energy>  (1) 
-13.486429694807159

>  <r_i_glide_erotb>  (1) 
0

>  <r_i_glide_esite>  (1) 
0

>  <r_i_glide_evdw>  (1) 
-12.790768711785899

>  <r_i_glide_gscore>  (1) 
-4.6216071974218842

>  <r_i_glide_gscore_strain>  (1) 
0

>  <r_i_glide_hbond>  (1) 
0

>  <r_i_glide_ligand_efficiency>  (1) 
-0.92432143948437684

>  <r_i_glide_ligand_efficiency_ln>  (1) 
-1.7711121523143731

>  <r_i_glide_ligand_efficiency_sa>  (1) 
-1.5805674285158646

>  <r_i_glide_lipo>  (1) 
-1.3200000000000001

>  <r_i_glide_metal>  (1) 
-0

>  <r_i_glide_rewards>  (1) 
-2.5577196143794003

>  <r_lp_Energy>  (1) 
2.5980879999999997

>  <r_lp_tautomer_probability>  (1) 
1

>  <s_epik_cmdline>  (1) 
J2VwaWtfcHl0aG9uJywgJy1waHQnLCAnMS4wJywgJy1waCcsICc3LjQnLCAnLXRuJywgJzgnLCAnLW1hJywgJzUwMCcsICctaW1hZScsICc8aW5maWxlLm1hZT4nLCAnLW9tYWUnLCAnPG91dGZpbGUubWFlPic=

>  <s_epik_input>  (1) 
W2NIXTFvW2NIXVtjSF1bY0hdMQ==

>  <s_glide_docking_method>  (1) 
confgen

>  <s_i_glide_gridfile>  (1) 
gpcr_5ht2c_6bqh_protein_autoprepared_prepared

>  <s_lp_Force_Field>  (1) 
S-OPLS

>  <s_lp_Variant>  (1) 
Pocket2Mol_1_num_sample_50-1

>  <s_m_source_file>  (1) 
generated__ligand_Pocket2Mol_2026-05-06_prepared.sdf

>  <GenAI_Model>  (1) 
Pocket2Mol

>  <Protein>  (1) 
GPCR_5HT2C

$$$$
Pocket2Mol_5_num_sample_50
     RDKit          3D

  0  0  0  0  0  0  0  0  0  0999 V3000
M  V30 BEGIN CTAB
M  V30 COUNTS 13 13 0 0 1
M  V30 BEGIN ATOM
M  V30 1 C 38.463575 28.838816 53.498865 0
M  V30 2 C 38.465159 28.015872 52.270718 0
M  V30 3 C 39.467391 29.968255 52.971150 0
M  V30 4 C 39.941841 29.689688 51.464734 0
M  V30 5 C 39.189481 28.431511 51.275831 0
M  V30 6 H 37.468008 29.223956 53.721160 0
M  V30 7 H 38.856951 28.284990 54.352122 0
M  V30 8 H 37.877108 27.109693 52.229336 0
M  V30 9 H 40.336433 30.021435 53.625199 0
M  V30 10 H 39.006952 30.952586 53.053500 0
M  V30 11 H 41.016974 29.530637 51.376385 0
M  V30 12 H 39.613114 30.457435 50.763610 0
M  V30 13 H 39.254897 27.901135 50.336160 0
M  V30 END ATOM
M  V30 BEGIN BOND
M  V30 1 1 2 1
M  V30 2 1 3 1
M  V30 3 1 4 3
M  V30 4 2 5 2
M  V30 5 1 5 4
M  V30 6 1 6 1
M  V30 7 1 7 1
M  V30 8 1 8 2
M  V30 9 1 9 3
M  V30 10 1 10 3
M  V30 11 1 11 4
M  V30 12 1 12 4
M  V30 13 1 13 5
M  V30 END BOND
M  V30 END CTAB
M  END
>  <i_epik_Tot_Q>  (1) 
0

>  <i_epik_Tot_abs_Q>  (1) 
0

>  <i_i_glide_confnum>  (1) 
1

>  <i_i_glide_lignum>  (1) 
6

>  <i_i_glide_posenum>  (1) 
276

>  <i_i_glide_rotatable_bonds>  (1) 
0

>  <i_lp_mmshare_version>  (1) 
72125

>  <i_m_source_file_index>  (1) 
6

>  <i_f3d_flags>  (1) 
0

>  <num_sample>  (1) 
50

>  <b_lp_Chiralities_Consistent>  (1) 
1

>  <r_epik_Charging_Adjusted_Penalty>  (1) 
0

>  <r_epik_Ionization_Penalty>  (1) 
0

>  <r_epik_Ionization_Penalty_Charging>  (1) 
0

>  <r_epik_Ionization_Penalty_Neutral>  (1) 
0

>  <r_epik_State_Penalty>  (1) 
-0

>  <r_glide_ring_energy>  (1) 
0

>  <r_i_docking_score>  (1) 
-4.6176852835866304

>  <r_i_glide_ecoul>  (1) 
-0.59521078894597312

>  <r_i_glide_eff_state_penalty>  (1) 
-0

>  <r_i_glide_einternal>  (1) 
0

>  <r_i_glide_emodel>  (1) 
-17.546180401320804

>  <r_i_glide_emodel_strain>  (1) 
0

>  <r_i_glide_energy>  (1) 
-13.602373076024277

>  <r_i_glide_erotb>  (1) 
0

>  <r_i_glide_esite>  (1) 
0

>  <r_i_glide_evdw>  (1) 
-13.007162287078303

>  <r_i_glide_gscore>  (1) 
-4.6176852835866304

>  <r_i_glide_gscore_strain>  (1) 
0

>  <r_i_glide_hbond>  (1) 
0

>  <r_i_glide_ligand_efficiency>  (1) 
-0.92353705671732611

>  <r_i_glide_ligand_efficiency_ln>  (1) 
-1.7696091796563282

>  <r_i_glide_ligand_efficiency_sa>  (1) 
-1.5792261528512201

>  <r_i_glide_lipo>  (1) 
-1.5034444296182106

>  <r_i_glide_metal>  (1) 
-0

>  <r_i_glide_rewards>  (1) 
-2.374601121272609

>  <r_lp_Energy>  (1) 
-2.1713199999999997

>  <r_lp_tautomer_probability>  (1) 
1

>  <s_epik_cmdline>  (1) 
J2VwaWtfcHl0aG9uJywgJy1waHQnLCAnMS4wJywgJy1waCcsICc3LjQnLCAnLXRuJywgJzgnLCAnLW1hJywgJzUwMCcsICctaW1hZScsICc8aW5maWxlLm1hZT4nLCAnLW9tYWUnLCAnPG91dGZpbGUubWFlPic=

>  <s_epik_input>  (1) 
W0NIMl0xW0NIXT1bQ0hdW0NIMl1bQ0gyXTE=

>  <s_glide_docking_method>  (1) 
confgen

>  <s_i_glide_gridfile>  (1) 
gpcr_5ht2c_6bqh_protein_autoprepared_prepared

>  <s_lp_Force_Field>  (1) 
S-OPLS

>  <s_lp_Variant>  (1) 
Pocket2Mol_5_num_sample_50-1

>  <s_m_source_file>  (1) 
generated__ligand_Pocket2Mol_2026-05-06_prepared.sdf

>  <GenAI_Model>  (1) 
Pocket2Mol

>  <Protein>  (1) 
GPCR_5HT2C

$$$$
Pocket2Mol_17_num_sample_50
     RDKit          3D

  0  0  0  0  0  0  0  0  0  0999 V3000
M  V30 BEGIN CTAB
M  V30 COUNTS 10 10 0 0 1
M  V30 BEGIN ATOM
M  V30 1 C 39.200800 27.749604 51.157202 0
M  V30 2 O 38.972389 28.307799 52.530552 0
M  V30 3 C 39.467403 29.621429 52.608635 0
M  V30 4 C 39.867405 28.951786 50.559520 0
M  V30 5 C 40.005152 29.954944 51.354945 0
M  V30 6 O 39.435364 30.344779 53.600668 0
M  V30 7 H 38.267403 27.506893 50.653568 0
M  V30 8 H 40.197167 28.948953 49.531138 0
M  V30 9 H 40.454719 30.910892 51.127251 0
M  V30 10 H 39.861824 26.883361 51.171626 0
M  V30 END ATOM
M  V30 BEGIN BOND
M  V30 1 1 2 1
M  V30 2 1 3 2
M  V30 3 1 4 1
M  V30 4 1 5 3
M  V30 5 2 5 4
M  V30 6 2 6 3
M  V30 7 1 7 1
M  V30 8 1 8 4
M  V30 9 1 9 5
M  V30 10 1 10 1
M  V30 END BOND
M  V30 END CTAB
M  END
>  <i_epik_Tot_Q>  (1) 
0

>  <i_epik_Tot_abs_Q>  (1) 
0

>  <i_i_glide_confnum>  (1) 
1

>  <i_i_glide_lignum>  (1) 
18

>  <i_i_glide_posenum>  (1) 
328

>  <i_i_glide_rotatable_bonds>  (1) 
0

>  <i_lp_mmshare_version>  (1) 
72125

>  <i_m_source_file_index>  (1) 
18

>  <i_f3d_flags>  (1) 
0

>  <num_sample>  (1) 
50

>  <b_lp_Chiralities_Consistent>  (1) 
1

>  <r_epik_Charging_Adjusted_Penalty>  (1) 
0

>  <r_epik_Ionization_Penalty>  (1) 
0

>  <r_epik_Ionization_Penalty_Charging>  (1) 
0

>  <r_epik_Ionization_Penalty_Neutral>  (1) 
0

>  <r_epik_State_Penalty>  (1) 
-0

>  <r_glide_ring_energy>  (1) 
0

>  <r_i_docking_score>  (1) 
-4.6165348748688411

>  <r_i_glide_ecoul>  (1) 
-0.1980330287812162

>  <r_i_glide_eff_state_penalty>  (1) 
-0

>  <r_i_glide_einternal>  (1) 
0

>  <r_i_glide_emodel>  (1) 
-19.280560307742739

>  <r_i_glide_emodel_strain>  (1) 
0

>  <r_i_glide_energy>  (1) 
-14.734826714578249

>  <r_i_glide_erotb>  (1) 
0

>  <r_i_glide_esite>  (1) 
0

>  <r_i_glide_evdw>  (1) 
-14.536793685797033

>  <r_i_glide_gscore>  (1) 
-4.6165348748688411

>  <r_i_glide_gscore_strain>  (1) 
0

>  <r_i_glide_hbond>  (1) 
0

>  <r_i_glide_ligand_efficiency>  (1) 
-0.76942247914480688

>  <r_i_glide_ligand_efficiency_ln>  (1) 
-1.6536291631690434

>  <r_i_glide_ligand_efficiency_sa>  (1) 
-1.3981334314419862

>  <r_i_glide_lipo>  (1) 
-0.98999999999999999

>  <r_i_glide_metal>  (1) 
-0

>  <r_i_glide_rewards>  (1) 
-2.8699902362618066

>  <r_lp_Energy>  (1) 
-7.0611199999999998

>  <r_lp_tautomer_probability>  (1) 
1

>  <s_epik_Chemistry_Notes>  (1) 
This compound has an ester and may undergo hydrolysis at high or low pH.

>  <s_epik_cmdline>  (1) 
J2VwaWtfcHl0aG9uJywgJy1waHQnLCAnMS4wJywgJy1waCcsICc3LjQnLCAnLXRuJywgJzgnLCAnLW1hJywgJzUwMCcsICctaW1hZScsICc8aW5maWxlLm1hZT4nLCAnLW9tYWUnLCAnPG91dGZpbGUubWFlPic=

>  <s_epik_input>  (1) 
W0NIMl0xW0NIXT1bQ0hdT0MxPU8=

>  <s_glide_docking_method>  (1) 
confgen

>  <s_i_glide_gridfile>  (1) 
gpcr_5ht2c_6bqh_protein_autoprepared_prepared

>  <s_lp_Force_Field>  (1) 
S-OPLS

>  <s_lp_Variant>  (1) 
Pocket2Mol_17_num_sample_50-1

>  <s_m_source_file>  (1) 
generated__ligand_Pocket2Mol_2026-05-06_prepared.sdf

>  <GenAI_Model>  (1) 
Pocket2Mol

>  <Protein>  (1) 
GPCR_5HT2C

$$$$
Pocket2Mol_24_num_sample_50
     RDKit          3D

  0  0  0  0  0  0  0  0  0  0999 V3000
M  V30 BEGIN CTAB
M  V30 COUNTS 16 16 0 0 1
M  V30 BEGIN ATOM
M  V30 1 C 38.664492 28.041588 52.096596 0
M  V30 2 C 39.342122 28.316313 50.818497 0
M  V30 3 C 38.780466 28.944698 53.010719 0
M  V30 4 C 39.581710 30.131084 52.657452 0
M  V30 5 N 39.773633 29.748987 51.176618 0 CHG=1
M  V30 6 C 41.065935 30.161132 50.602024 0
M  V30 7 H 38.106280 27.125251 52.233512 0
M  V30 8 H 40.179899 27.634042 50.669538 0
M  V30 9 H 38.667403 28.301644 49.963482 0
M  V30 10 H 38.329513 28.860706 53.990812 0
M  V30 11 H 39.067687 31.080772 52.790121 0
M  V30 12 H 40.510499 30.154070 53.224943 0
M  V30 13 H 41.890301 29.619617 51.053368 0
M  V30 14 H 41.079604 29.990577 49.526157 0
M  V30 15 H 41.227909 31.221627 50.772467 0
M  V30 16 H 39.093117 30.317452 50.691115 0
M  V30 END ATOM
M  V30 BEGIN BOND
M  V30 1 1 2 1
M  V30 2 2 3 1
M  V30 3 1 4 3
M  V30 4 1 5 2
M  V30 5 1 5 4
M  V30 6 1 6 5
M  V30 7 1 7 1
M  V30 8 1 8 2
M  V30 9 1 9 2
M  V30 10 1 10 3
M  V30 11 1 11 4
M  V30 12 1 12 4
M  V30 13 1 13 6
M  V30 14 1 14 6
M  V30 15 1 15 6
M  V30 16 1 16 5
M  V30 END BOND
M  V30 END CTAB
M  END
>  <i_epik_Tot_Q>  (1) 
1

>  <i_epik_Tot_abs_Q>  (1) 
1

>  <i_i_glide_confnum>  (1) 
1

>  <i_i_glide_lignum>  (1) 
25

>  <i_i_glide_posenum>  (1) 
12

>  <i_i_glide_rotatable_bonds>  (1) 
0

>  <i_lp_mmshare_version>  (1) 
72125

>  <i_m_source_file_index>  (1) 
25

>  <i_f3d_flags>  (1) 
0

>  <num_sample>  (1) 
50

>  <b_lp_Chiralities_Consistent>  (1) 
1

>  <r_epik_Charging_Adjusted_Penalty>  (1) 
0.0014863909170882658

>  <r_epik_Ionization_Penalty>  (1) 
0.0014863909170882658

>  <r_epik_Ionization_Penalty_Charging>  (1) 
0.0014863909170882658

>  <r_epik_Ionization_Penalty_Neutral>  (1) 
0

>  <r_epik_State_Penalty>  (1) 
-0

>  <r_glide_ring_energy>  (1) 
0

>  <r_i_docking_score>  (1) 
-4.6122027644385888

>  <r_i_glide_ecoul>  (1) 
-1.2099703116472611

>  <r_i_glide_eff_state_penalty>  (1) 
-0

>  <r_i_glide_einternal>  (1) 
0

>  <r_i_glide_emodel>  (1) 
-17.957012138620257

>  <r_i_glide_emodel_strain>  (1) 
0

>  <r_i_glide_energy>  (1) 
-13.190578514150065

>  <r_i_glide_erotb>  (1) 
0

>  <r_i_glide_esite>  (1) 
0

>  <r_i_glide_evdw>  (1) 
-11.980608202502804

>  <r_i_glide_gscore>  (1) 
-4.6122027644385888

>  <r_i_glide_gscore_strain>  (1) 
0

>  <r_i_glide_hbond>  (1) 
0

>  <r_i_glide_ligand_efficiency>  (1) 
-0.76870046073976483

>  <r_i_glide_ligand_efficiency_ln>  (1) 
-1.6520774140022534

>  <r_i_glide_ligand_efficiency_sa>  (1) 
-1.3968214369297804

>  <r_i_glide_lipo>  (1) 
-1.5816768075663592

>  <r_i_glide_metal>  (1) 
-0

>  <r_i_glide_rewards>  (1) 
-2.25

>  <r_lp_Energy>  (1) 
6.8415840000000001

>  <r_lp_tautomer_probability>  (1) 
1

>  <s_epik_cmdline>  (1) 
J2VwaWtfcHl0aG9uJywgJy1waHQnLCAnMS4wJywgJy1waCcsICc3LjQnLCAnLXRuJywgJzgnLCAnLW1hJywgJzUwMCcsICctaW1hZScsICc8aW5maWxlLm1hZT4nLCAnLW9tYWUnLCAnPG91dGZpbGUubWFlPic=

>  <s_epik_input>  (1) 
W0NIMl0xW0NIXT1bQ0hdW0NIMl1OMVtDSDNd

>  <s_glide_docking_method>  (1) 
confgen

>  <s_i_glide_gridfile>  (1) 
gpcr_5ht2c_6bqh_protein_autoprepared_prepared

>  <s_lp_Force_Field>  (1) 
S-OPLS

>  <s_lp_Variant>  (1) 
Pocket2Mol_24_num_sample_50-1

>  <s_m_source_file>  (1) 
generated__ligand_Pocket2Mol_2026-05-06_prepared.sdf

>  <GenAI_Model>  (1) 
Pocket2Mol

>  <Protein>  (1) 
GPCR_5HT2C

$$$$
Pocket2Mol_40_num_sample_50
     RDKit          3D

  0  0  0  0  0  0  0  0  0  0999 V3000
M  V30 BEGIN CTAB
M  V30 COUNTS 10 9 0 0 1
M  V30 BEGIN ATOM
M  V30 1 C 39.288154 28.625795 59.580842 0
M  V30 2 O 38.667412 29.621429 60.371915 0
M  V30 3 C 39.433131 30.499587 61.052652 0
M  V30 4 C 38.576042 31.513941 61.853438 0
M  V30 5 O 40.667396 30.514057 61.053718 0
M  V30 6 O 39.193352 32.399867 62.489154 0
M  V30 7 O 37.336468 31.351104 61.789093 0 CHG=-1
M  V30 8 H 38.529380 28.006149 59.103329 0
M  V30 9 H 39.919575 27.981098 60.193375 0
M  V30 10 H 39.901541 29.076957 58.799989 0
M  V30 END ATOM
M  V30 BEGIN BOND
M  V30 1 1 2 1
M  V30 2 1 3 2
M  V30 3 1 4 3
M  V30 4 2 5 3
M  V30 5 2 6 4
M  V30 6 1 7 4
M  V30 7 1 8 1
M  V30 8 1 9 1
M  V30 9 1 10 1
M  V30 END BOND
M  V30 END CTAB
M  END
>  <i_epik_Tot_Q>  (1) 
-1

>  <i_epik_Tot_abs_Q>  (1) 
1

>  <i_i_glide_confnum>  (1) 
1

>  <i_i_glide_lignum>  (1) 
41

>  <i_i_glide_posenum>  (1) 
289

>  <i_i_glide_rotatable_bonds>  (1) 
2

>  <i_lp_mmshare_version>  (1) 
72125

>  <i_m_source_file_index>  (1) 
41

>  <i_f3d_flags>  (1) 
0

>  <num_sample>  (1) 
50

>  <b_lp_Chiralities_Consistent>  (1) 
1

>  <r_epik_Charging_Adjusted_Penalty>  (1) 
5.6581681309968728e-06

>  <r_epik_Ionization_Penalty>  (1) 
5.6581681309968728e-06

>  <r_epik_Ionization_Penalty_Charging>  (1) 
5.6581681309968728e-06

>  <r_epik_Ionization_Penalty_Neutral>  (1) 
0

>  <r_epik_State_Penalty>  (1) 
-0

>  <r_glide_ring_energy>  (1) 
0

>  <r_i_docking_score>  (1) 
-4.610785132849978

>  <r_i_glide_ecoul>  (1) 
-4.963838895184387

>  <r_i_glide_eff_state_penalty>  (1) 
-0

>  <r_i_glide_einternal>  (1) 
0.13910737783357874

>  <r_i_glide_emodel>  (1) 
-18.374972027111262

>  <r_i_glide_emodel_strain>  (1) 
0

>  <r_i_glide_energy>  (1) 
-13.625080825339243

>  <r_i_glide_erotb>  (1) 
0

>  <r_i_glide_esite>  (1) 
0

>  <r_i_glide_evdw>  (1) 
-8.6612419301548567

>  <r_i_glide_gscore>  (1) 
-4.610785132849978

>  <r_i_glide_gscore_strain>  (1) 
0

>  <r_i_glide_hbond>  (1) 
-0.43076271436652919

>  <r_i_glide_ligand_efficiency>  (1) 
-0.65868359040713975

>  <r_i_glide_ligand_efficiency_ln>  (1) 
-1.5651479167918791

>  <r_i_glide_ligand_efficiency_sa>  (1) 
-1.2600163796702937

>  <r_i_glide_lipo>  (1) 
-0.24103475720509568

>  <r_i_glide_metal>  (1) 
-0

>  <r_i_glide_rewards>  (1) 
-2.7613497304929524

>  <r_lp_Energy>  (1) 
21.029133999999999

>  <r_lp_tautomer_probability>  (1) 
1

>  <s_epik_Chemistry_Notes>  (1) 
This compound has an ester and may undergo hydrolysis at high or low pH.

>  <s_epik_cmdline>  (1) 
J2VwaWtfcHl0aG9uJywgJy1waHQnLCAnMS4wJywgJy1waCcsICc3LjQnLCAnLXRuJywgJzgnLCAnLW1hJywgJzUwMCcsICctaW1hZScsICc8aW5maWxlLm1hZT4nLCAnLW9tYWUnLCAnPG91dGZpbGUubWFlPic=

>  <s_epik_input>  (1) 
W0NIM11PQyg9TylDKD1PKVtPSF0=

>  <s_glide_docking_method>  (1) 
confgen

>  <s_i_glide_gridfile>  (1) 
gpcr_5ht2c_6bqh_protein_autoprepared_prepared

>  <s_lp_Force_Field>  (1) 
S-OPLS

>  <s_lp_Variant>  (1) 
Pocket2Mol_40_num_sample_50-1

>  <s_m_source_file>  (1) 
generated__ligand_Pocket2Mol_2026-05-06_prepared.sdf

>  <GenAI_Model>  (1) 
Pocket2Mol

>  <Protein>  (1) 
GPCR_5HT2C

$$$$
Pocket2Mol_16_num_sample_50
     RDKit          3D

  0  0  0  0  0  0  0  0  0  0999 V3000
M  V30 BEGIN CTAB
M  V30 COUNTS 18 18 0 0 1
M  V30 BEGIN ATOM
M  V30 1 C 37.954563 27.189484 53.824441 0
M  V30 2 C 38.201235 28.577562 53.213332 0
M  V30 3 C 38.143474 29.672049 54.292562 0
M  V30 4 C 38.952085 26.893317 54.956223 0
M  V30 5 C 39.136266 29.384774 55.431322 0
M  V30 6 C 38.907720 27.988427 56.035569 0
M  V30 7 H 36.937573 27.143103 54.213738 0
M  V30 8 H 38.025089 26.421863 53.053505 0
M  V30 9 H 39.175832 28.595429 52.723796 0
M  V30 10 H 37.462666 28.778071 52.436651 0
M  V30 11 H 38.357869 30.646273 53.852061 0
M  V30 12 H 37.132006 29.735597 54.697461 0
M  V30 13 H 38.731469 25.922769 55.401738 0
M  V30 14 H 39.960457 26.821391 54.547002 0
M  V30 15 H 39.039020 30.145451 56.206867 0
M  V30 16 H 40.156727 29.459057 55.053501 0
M  V30 17 H 37.939633 27.964864 56.537940 0
M  V30 18 H 39.657840 27.786895 56.801084 0
M  V30 END ATOM
M  V30 BEGIN BOND
M  V30 1 1 2 1
M  V30 2 1 3 2
M  V30 3 1 4 1
M  V30 4 1 5 3
M  V30 5 1 6 4
M  V30 6 1 6 5
M  V30 7 1 7 1
M  V30 8 1 8 1
M  V30 9 1 9 2
M  V30 10 1 10 2
M  V30 11 1 11 3
M  V30 12 1 12 3
M  V30 13 1 13 4
M  V30 14 1 14 4
M  V30 15 1 15 5
M  V30 16 1 16 5
M  V30 17 1 17 6
M  V30 18 1 18 6
M  V30 END BOND
M  V30 END CTAB
M  END
>  <i_epik_Tot_Q>  (1) 
0

>  <i_epik_Tot_abs_Q>  (1) 
0

>  <i_i_glide_confnum>  (1) 
2

>  <i_i_glide_lignum>  (1) 
17

>  <i_i_glide_posenum>  (1) 
61

>  <i_i_glide_rotatable_bonds>  (1) 
0

>  <i_lp_mmshare_version>  (1) 
72125

>  <i_m_source_file_index>  (1) 
17

>  <i_f3d_flags>  (1) 
0

>  <num_sample>  (1) 
50

>  <b_lp_Chiralities_Consistent>  (1) 
1

>  <r_epik_Charging_Adjusted_Penalty>  (1) 
0

>  <r_epik_Ionization_Penalty>  (1) 
0

>  <r_epik_Ionization_Penalty_Charging>  (1) 
0

>  <r_epik_Ionization_Penalty_Neutral>  (1) 
0

>  <r_epik_State_Penalty>  (1) 
-0

>  <r_glide_ring_energy>  (1) 
0.00054248204421707515

>  <r_i_docking_score>  (1) 
-4.5935240490010436

>  <r_i_glide_ecoul>  (1) 
0.048794866996980296

>  <r_i_glide_eff_state_penalty>  (1) 
-0

>  <r_i_glide_einternal>  (1) 
0

>  <r_i_glide_emodel>  (1) 
-16.594573250461796

>  <r_i_glide_emodel_strain>  (1) 
0

>  <r_i_glide_energy>  (1) 
-12.985926037150705

>  <r_i_glide_erotb>  (1) 
0

>  <r_i_glide_esite>  (1) 
0

>  <r_i_glide_evdw>  (1) 
-13.034720904147685

>  <r_i_glide_gscore>  (1) 
-4.5935240490010436

>  <r_i_glide_gscore_strain>  (1) 
0

>  <r_i_glide_hbond>  (1) 
0

>  <r_i_glide_ligand_efficiency>  (1) 
-0.76558734150017393

>  <r_i_glide_ligand_efficiency_ln>  (1) 
-1.6453867532761308

>  <r_i_glide_ligand_efficiency_sa>  (1) 
-1.391164523851578

>  <r_i_glide_lipo>  (1) 
-1.3824405671765394

>  <r_i_glide_metal>  (1) 
-0

>  <r_i_glide_rewards>  (1) 
-2.5666666666666669

>  <r_lp_Energy>  (1) 
5.7175969999999996

>  <r_lp_tautomer_probability>  (1) 
1

>  <s_epik_cmdline>  (1) 
J2VwaWtfcHl0aG9uJywgJy1waHQnLCAnMS4wJywgJy1waCcsICc3LjQnLCAnLXRuJywgJzgnLCAnLW1hJywgJzUwMCcsICctaW1hZScsICc8aW5maWxlLm1hZT4nLCAnLW9tYWUnLCAnPG91dGZpbGUubWFlPic=

>  <s_epik_input>  (1) 
W0NIMl0xW0NIMl1bQ0gyXVtDSDJdW0NIMl1bQ0gyXTE=

>  <s_glide_docking_method>  (1) 
confgen

>  <s_i_glide_gridfile>  (1) 
gpcr_5ht2c_6bqh_protein_autoprepared_prepared

>  <s_lp_Force_Field>  (1) 
S-OPLS

>  <s_lp_Variant>  (1) 
Pocket2Mol_16_num_sample_50-1

>  <s_m_source_file>  (1) 
generated__ligand_Pocket2Mol_2026-05-06_prepared.sdf

>  <GenAI_Model>  (1) 
Pocket2Mol

>  <Protein>  (1) 
GPCR_5HT2C

$$$$
Pocket2Mol_3_num_sample_50
     RDKit          3D

  0  0  0  0  0  0  0  0  0  0999 V3000
M  V30 BEGIN CTAB
M  V30 COUNTS 12 12 0 0 1
M  V30 BEGIN ATOM
M  V30 1 C 39.467389 29.621402 52.653499 0
M  V30 2 C 38.554323 28.751996 52.899727 0
M  V30 3 C 40.151498 29.450072 51.310364 0
M  V30 4 C 39.277708 28.145335 50.779767 0
M  V30 5 N 38.401856 27.873926 51.932875 0
M  V30 6 H 37.918971 28.671425 53.770294 0
M  V30 7 H 40.023999 30.329275 50.678125 0
M  V30 8 H 41.209421 29.221430 51.434382 0
M  V30 9 H 38.684690 28.399298 49.901417 0
M  V30 10 H 39.904131 27.283090 50.552931 0
M  V30 11 H 39.737851 30.426049 53.322095 0
M  V30 12 H 37.595734 27.263656 51.853190 0
M  V30 END ATOM
M  V30 BEGIN BOND
M  V30 1 2 2 1
M  V30 2 1 3 1
M  V30 3 1 4 3
M  V30 4 1 5 2
M  V30 5 1 5 4
M  V30 6 1 6 2
M  V30 7 1 7 3
M  V30 8 1 8 3
M  V30 9 1 9 4
M  V30 10 1 10 4
M  V30 11 1 11 1
M  V30 12 1 12 5
M  V30 END BOND
M  V30 END CTAB
M  END
>  <i_epik_Tot_Q>  (1) 
0

>  <i_epik_Tot_abs_Q>  (1) 
0

>  <i_i_glide_confnum>  (1) 
1

>  <i_i_glide_lignum>  (1) 
4

>  <i_i_glide_posenum>  (1) 
25

>  <i_i_glide_rotatable_bonds>  (1) 
0

>  <i_lp_mmshare_version>  (1) 
72125

>  <i_m_source_file_index>  (1) 
4

>  <i_f3d_flags>  (1) 
0

>  <num_sample>  (1) 
50

>  <b_lp_Chiralities_Consistent>  (1) 
1

>  <r_epik_Charging_Adjusted_Penalty>  (1) 
1.6042444336516156e-06

>  <r_epik_Ionization_Penalty>  (1) 
0.0023556498582944039

>  <r_epik_Ionization_Penalty_Charging>  (1) 
1.6042444336516156e-06

>  <r_epik_Ionization_Penalty_Neutral>  (1) 
0.0023540456138607521

>  <r_epik_State_Penalty>  (1) 
-0

>  <r_glide_ring_energy>  (1) 
0

>  <r_i_docking_score>  (1) 
-4.5833291103712321

>  <r_i_glide_ecoul>  (1) 
-2.0710026415092337

>  <r_i_glide_eff_state_penalty>  (1) 
-0

>  <r_i_glide_einternal>  (1) 
0

>  <r_i_glide_emodel>  (1) 
-18.873428058422085

>  <r_i_glide_emodel_strain>  (1) 
0

>  <r_i_glide_energy>  (1) 
-14.803011390994573

>  <r_i_glide_erotb>  (1) 
0

>  <r_i_glide_esite>  (1) 
0

>  <r_i_glide_evdw>  (1) 
-12.73200874948534

>  <r_i_glide_gscore>  (1) 
-4.5833291103712321

>  <r_i_glide_gscore_strain>  (1) 
0

>  <r_i_glide_hbond>  (1) 
-0.18101507509653353

>  <r_i_glide_ligand_efficiency>  (1) 
-0.91666582207424641

>  <r_i_glide_ligand_efficiency_ln>  (1) 
-1.756443059454085

>  <r_i_glide_ligand_efficiency_sa>  (1) 
-1.5674765068875822

>  <r_i_glide_lipo>  (1) 
-1.2050632015740466

>  <r_i_glide_metal>  (1) 
-0

>  <r_i_glide_rewards>  (1) 
-2.25

>  <r_lp_Energy>  (1) 
2.9163319999999997

>  <r_lp_tautomer_probability>  (1) 
1

>  <s_epik_Chemistry_Notes>  (1) 
This compound has an imine and may undergo hydrolysis.

>  <s_epik_cmdline>  (1) 
J2VwaWtfcHl0aG9uJywgJy1waHQnLCAnMS4wJywgJy1waCcsICc3LjQnLCAnLXRuJywgJzgnLCAnLW1hJywgJzUwMCcsICctaW1hZScsICc8aW5maWxlLm1hZT4nLCAnLW9tYWUnLCAnPG91dGZpbGUubWFlPic=

>  <s_epik_input>  (1) 
W0NIMl0xW0NIXT1OW0NIMl1bQ0gyXTE=

>  <s_glide_docking_method>  (1) 
confgen

>  <s_i_glide_gridfile>  (1) 
gpcr_5ht2c_6bqh_protein_autoprepared_prepared

>  <s_lp_Force_Field>  (1) 
S-OPLS

>  <s_lp_Variant>  (1) 
Pocket2Mol_3_num_sample_50-1

>  <s_m_source_file>  (1) 
generated__ligand_Pocket2Mol_2026-05-06_prepared.sdf

>  <GenAI_Model>  (1) 
Pocket2Mol

>  <Protein>  (1) 
GPCR_5HT2C

$$$$
Pocket2Mol_40_num_sample_50
     RDKit          3D

  0  0  0  0  0  0  0  0  0  0999 V3000
M  V30 BEGIN CTAB
M  V30 COUNTS 10 9 0 0 1
M  V30 BEGIN ATOM
M  V30 1 C 40.151748 28.516844 60.572626 0
M  V30 2 O 39.270890 29.519238 61.044416 0
M  V30 3 C 39.773661 30.705477 61.441514 0
M  V30 4 C 38.644468 31.677740 61.893008 0
M  V30 5 O 40.970846 31.008300 61.453399 0
M  V30 6 O 37.475643 31.221451 61.853481 0
M  V30 7 O 39.024221 32.815010 62.252871 0 CHG=-1
M  V30 8 H 39.585082 27.635366 60.274526 0
M  V30 9 H 40.857523 28.222115 61.350144 0
M  V30 10 H 40.710518 28.871007 59.705426 0
M  V30 END ATOM
M  V30 BEGIN BOND
M  V30 1 1 2 1
M  V30 2 1 3 2
M  V30 3 1 4 3
M  V30 4 2 5 3
M  V30 5 2 6 4
M  V30 6 1 7 4
M  V30 7 1 8 1
M  V30 8 1 9 1
M  V30 9 1 10 1
M  V30 END BOND
M  V30 END CTAB
M  END
>  <i_epik_Tot_Q>  (1) 
-1

>  <i_epik_Tot_abs_Q>  (1) 
1

>  <i_i_glide_confnum>  (1) 
1

>  <i_i_glide_lignum>  (1) 
41

>  <i_i_glide_posenum>  (1) 
13

>  <i_i_glide_rotatable_bonds>  (1) 
2

>  <i_lp_mmshare_version>  (1) 
72125

>  <i_m_source_file_index>  (1) 
41

>  <i_f3d_flags>  (1) 
0

>  <num_sample>  (1) 
50

>  <b_lp_Chiralities_Consistent>  (1) 
1

>  <r_epik_Charging_Adjusted_Penalty>  (1) 
5.6581681309968728e-06

>  <r_epik_Ionization_Penalty>  (1) 
5.6581681309968728e-06

>  <r_epik_Ionization_Penalty_Charging>  (1) 
5.6581681309968728e-06

>  <r_epik_Ionization_Penalty_Neutral>  (1) 
0

>  <r_epik_State_Penalty>  (1) 
-0

>  <r_glide_ring_energy>  (1) 
0

>  <r_i_docking_score>  (1) 
-4.5668579673899581

>  <r_i_glide_ecoul>  (1) 
-5.0921857558063106

>  <r_i_glide_eff_state_penalty>  (1) 
-0

>  <r_i_glide_einternal>  (1) 
0.035686947499650401

>  <r_i_glide_emodel>  (1) 
-18.654631028159766

>  <r_i_glide_emodel_strain>  (1) 
0

>  <r_i_glide_energy>  (1) 
-13.898944687946091

>  <r_i_glide_erotb>  (1) 
0

>  <r_i_glide_esite>  (1) 
0

>  <r_i_glide_evdw>  (1) 
-8.8067589321397808

>  <r_i_glide_gscore>  (1) 
-4.5668579673899581

>  <r_i_glide_gscore_strain>  (1) 
0

>  <r_i_glide_hbond>  (1) 
-0.42835392684272428

>  <r_i_glide_ligand_efficiency>  (1) 
-0.65240828105570825

>  <r_i_glide_ligand_efficiency_ln>  (1) 
-1.5502366794365556

>  <r_i_glide_ligand_efficiency_sa>  (1) 
-1.2480121447303973

>  <r_i_glide_lipo>  (1) 
-0.21340034631038135

>  <r_i_glide_metal>  (1) 
-0

>  <r_i_glide_rewards>  (1) 
-2.7209378842589174

>  <r_lp_Energy>  (1) 
21.029133999999999

>  <r_lp_tautomer_probability>  (1) 
1

>  <s_epik_Chemistry_Notes>  (1) 
This compound has an ester and may undergo hydrolysis at high or low pH.

>  <s_epik_cmdline>  (1) 
J2VwaWtfcHl0aG9uJywgJy1waHQnLCAnMS4wJywgJy1waCcsICc3LjQnLCAnLXRuJywgJzgnLCAnLW1hJywgJzUwMCcsICctaW1hZScsICc8aW5maWxlLm1hZT4nLCAnLW9tYWUnLCAnPG91dGZpbGUubWFlPic=

>  <s_epik_input>  (1) 
W0NIM11PQyg9TylDKD1PKVtPSF0=

>  <s_glide_docking_method>  (1) 
confgen

>  <s_i_glide_gridfile>  (1) 
gpcr_5ht2c_6bqh_protein_autoprepared_prepared

>  <s_lp_Force_Field>  (1) 
S-OPLS

>  <s_lp_Variant>  (1) 
Pocket2Mol_40_num_sample_50-1

>  <s_m_source_file>  (1) 
generated__ligand_Pocket2Mol_2026-05-06_prepared.sdf

>  <GenAI_Model>  (1) 
Pocket2Mol

>  <Protein>  (1) 
GPCR_5HT2C

$$$$
Pocket2Mol_47_num_sample_50
     RDKit          3D

  0  0  0  0  0  0  0  0  0  0999 V3000
M  V30 BEGIN CTAB
M  V30 COUNTS 15 15 0 0 1
M  V30 BEGIN ATOM
M  V30 1 C 39.468218 30.027999 52.803654 0
M  V30 2 C 38.954768 28.713087 52.214349 0
M  V30 3 C 39.898808 28.445874 51.052270 0
M  V30 4 C 40.092395 30.802769 51.629426 0
M  V30 5 C 40.205513 29.823066 50.462021 0
M  V30 6 H 38.678105 30.588963 53.297881 0
M  V30 7 H 40.231966 29.836601 53.557025 0
M  V30 8 H 38.949444 27.898999 52.937879 0
M  V30 9 H 37.937014 28.831806 51.842388 0
M  V30 10 H 40.817696 28.021429 51.447162 0
M  V30 11 H 39.500130 27.747136 50.317966 0
M  V30 12 H 39.467483 31.643187 51.333519 0
M  V30 13 H 41.061629 31.221210 51.890716 0
M  V30 14 H 41.182802 29.872760 49.982415 0
M  V30 15 H 39.466167 30.076848 49.703150 0
M  V30 END ATOM
M  V30 BEGIN BOND
M  V30 1 1 2 1
M  V30 2 1 3 2
M  V30 3 1 4 1
M  V30 4 1 5 3
M  V30 5 1 5 4
M  V30 6 1 6 1
M  V30 7 1 7 1
M  V30 8 1 8 2
M  V30 9 1 9 2
M  V30 10 1 10 3
M  V30 11 1 11 3
M  V30 12 1 12 4
M  V30 13 1 13 4
M  V30 14 1 14 5
M  V30 15 1 15 5
M  V30 END BOND
M  V30 END CTAB
M  END
>  <i_epik_Tot_Q>  (1) 
0

>  <i_epik_Tot_abs_Q>  (1) 
0

>  <i_i_glide_confnum>  (1) 
1

>  <i_i_glide_lignum>  (1) 
48

>  <i_i_glide_posenum>  (1) 
27

>  <i_i_glide_rotatable_bonds>  (1) 
0

>  <i_lp_mmshare_version>  (1) 
72125

>  <i_m_source_file_index>  (1) 
48

>  <i_f3d_flags>  (1) 
0

>  <num_sample>  (1) 
50

>  <b_lp_Chiralities_Consistent>  (1) 
1

>  <r_epik_Charging_Adjusted_Penalty>  (1) 
0

>  <r_epik_Ionization_Penalty>  (1) 
0

>  <r_epik_Ionization_Penalty_Charging>  (1) 
0

>  <r_epik_Ionization_Penalty_Neutral>  (1) 
0

>  <r_epik_State_Penalty>  (1) 
-0

>  <r_glide_ring_energy>  (1) 
0

>  <r_i_docking_score>  (1) 
-4.5616898535868415

>  <r_i_glide_ecoul>  (1) 
-0.13282281693980919

>  <r_i_glide_eff_state_penalty>  (1) 
-0

>  <r_i_glide_einternal>  (1) 
0

>  <r_i_glide_emodel>  (1) 
-14.929153112893948

>  <r_i_glide_emodel_strain>  (1) 
0

>  <r_i_glide_energy>  (1) 
-11.349105136957068

>  <r_i_glide_erotb>  (1) 
0

>  <r_i_glide_esite>  (1) 
0

>  <r_i_glide_evdw>  (1) 
-11.216282320017259

>  <r_i_glide_gscore>  (1) 
-4.5616898535868415

>  <r_i_glide_gscore_strain>  (1) 
0

>  <r_i_glide_hbond>  (1) 
0

>  <r_i_glide_ligand_efficiency>  (1) 
-0.91233797071736833

>  <r_i_glide_ligand_efficiency_ln>  (1) 
-1.7481503705645434

>  <r_i_glide_ligand_efficiency_sa>  (1) 
-1.5600759851665285

>  <r_i_glide_lipo>  (1) 
-1.5066240411801117

>  <r_i_glide_metal>  (1) 
-0

>  <r_i_glide_rewards>  (1) 
-2.4743282738648951

>  <r_lp_Energy>  (1) 
13.274989999999999

>  <r_lp_tautomer_probability>  (1) 
1

>  <s_epik_cmdline>  (1) 
J2VwaWtfcHl0aG9uJywgJy1waHQnLCAnMS4wJywgJy1waCcsICc3LjQnLCAnLXRuJywgJzgnLCAnLW1hJywgJzUwMCcsICctaW1hZScsICc8aW5maWxlLm1hZT4nLCAnLW9tYWUnLCAnPG91dGZpbGUubWFlPic=

>  <s_epik_input>  (1) 
W0NIMl0xW0NIMl1bQ0gyXVtDSDJdW0NIMl0x

>  <s_glide_docking_method>  (1) 
confgen

>  <s_i_glide_gridfile>  (1) 
gpcr_5ht2c_6bqh_protein_autoprepared_prepared

>  <s_lp_Force_Field>  (1) 
S-OPLS

>  <s_lp_Variant>  (1) 
Pocket2Mol_47_num_sample_50-1

>  <s_m_source_file>  (1) 
generated__ligand_Pocket2Mol_2026-05-06_prepared.sdf

>  <GenAI_Model>  (1) 
Pocket2Mol

>  <Protein>  (1) 
GPCR_5HT2C

$$$$
Pocket2Mol_24_num_sample_50
     RDKit          3D

  0  0  0  0  0  0  0  0  0  0999 V3000
M  V30 BEGIN CTAB
M  V30 COUNTS 16 16 0 0 1
M  V30 BEGIN ATOM
M  V30 1 C 39.867403 30.310640 52.333240 0
M  V30 2 C 38.910344 29.291058 52.791867 0
M  V30 3 C 40.345927 30.151081 51.147516 0
M  V30 4 C 39.877085 28.971285 50.410909 0
M  V30 5 N 38.836847 28.532226 51.453834 0 CHG=1
M  V30 6 C 38.754477 27.072070 51.620647 0
M  V30 7 H 40.137123 31.136492 52.976947 0
M  V30 8 H 39.340410 28.696748 53.599237 0
M  V30 9 H 37.946547 29.700108 53.092867 0
M  V30 10 H 41.058322 30.828869 50.697699 0
M  V30 11 H 39.467403 29.221435 49.435182 0
M  V30 12 H 40.667403 28.233520 50.313274 0
M  V30 13 H 39.656098 26.677915 52.090300 0
M  V30 14 H 37.899817 26.821429 52.249969 0
M  V30 15 H 38.627477 26.583609 50.653501 0
M  V30 16 H 37.954069 28.807058 51.046540 0
M  V30 END ATOM
M  V30 BEGIN BOND
M  V30 1 1 2 1
M  V30 2 2 3 1
M  V30 3 1 4 3
M  V30 4 1 5 2
M  V30 5 1 5 4
M  V30 6 1 6 5
M  V30 7 1 7 1
M  V30 8 1 8 2
M  V30 9 1 9 2
M  V30 10 1 10 3
M  V30 11 1 11 4
M  V30 12 1 12 4
M  V30 13 1 13 6
M  V30 14 1 14 6
M  V30 15 1 15 6
M  V30 16 1 16 5
M  V30 END BOND
M  V30 END CTAB
M  END
>  <i_epik_Tot_Q>  (1) 
1

>  <i_epik_Tot_abs_Q>  (1) 
1

>  <i_i_glide_confnum>  (1) 
1

>  <i_i_glide_lignum>  (1) 
25

>  <i_i_glide_posenum>  (1) 
220

>  <i_i_glide_rotatable_bonds>  (1) 
0

>  <i_lp_mmshare_version>  (1) 
72125

>  <i_m_source_file_index>  (1) 
25

>  <i_f3d_flags>  (1) 
0

>  <num_sample>  (1) 
50

>  <b_lp_Chiralities_Consistent>  (1) 
1

>  <r_epik_Charging_Adjusted_Penalty>  (1) 
0.0014863909170882658

>  <r_epik_Ionization_Penalty>  (1) 
0.0014863909170882658

>  <r_epik_Ionization_Penalty_Charging>  (1) 
0.0014863909170882658

>  <r_epik_Ionization_Penalty_Neutral>  (1) 
0

>  <r_epik_State_Penalty>  (1) 
-0

>  <r_glide_ring_energy>  (1) 
0

>  <r_i_docking_score>  (1) 
-4.5594177492520469

>  <r_i_glide_ecoul>  (1) 
-1.0674764855373053

>  <r_i_glide_eff_state_penalty>  (1) 
-0

>  <r_i_glide_einternal>  (1) 
0

>  <r_i_glide_emodel>  (1) 
-17.071335684983993

>  <r_i_glide_emodel_strain>  (1) 
0

>  <r_i_glide_energy>  (1) 
-12.359452192869902

>  <r_i_glide_erotb>  (1) 
0

>  <r_i_glide_esite>  (1) 
0

>  <r_i_glide_evdw>  (1) 
-11.291975707332597

>  <r_i_glide_gscore>  (1) 
-4.5594177492520469

>  <r_i_glide_gscore_strain>  (1) 
0

>  <r_i_glide_hbond>  (1) 
0

>  <r_i_glide_ligand_efficiency>  (1) 
-0.75990295820867448

>  <r_i_glide_ligand_efficiency_ln>  (1) 
-1.6331699773952104

>  <r_i_glide_ligand_efficiency_sa>  (1) 
-1.3808353139150433

>  <r_i_glide_lipo>  (1) 
-1.5846974910548208

>  <r_i_glide_metal>  (1) 
-0

>  <r_i_glide_rewards>  (1) 
-2.25

>  <r_lp_Energy>  (1) 
6.8415840000000001

>  <r_lp_tautomer_probability>  (1) 
1

>  <s_epik_cmdline>  (1) 
J2VwaWtfcHl0aG9uJywgJy1waHQnLCAnMS4wJywgJy1waCcsICc3LjQnLCAnLXRuJywgJzgnLCAnLW1hJywgJzUwMCcsICctaW1hZScsICc8aW5maWxlLm1hZT4nLCAnLW9tYWUnLCAnPG91dGZpbGUubWFlPic=

>  <s_epik_input>  (1) 
W0NIMl0xW0NIXT1bQ0hdW0NIMl1OMVtDSDNd

>  <s_glide_docking_method>  (1) 
confgen

>  <s_i_glide_gridfile>  (1) 
gpcr_5ht2c_6bqh_protein_autoprepared_prepared

>  <s_lp_Force_Field>  (1) 
S-OPLS

>  <s_lp_Variant>  (1) 
Pocket2Mol_24_num_sample_50-1

>  <s_m_source_file>  (1) 
generated__ligand_Pocket2Mol_2026-05-06_prepared.sdf

>  <GenAI_Model>  (1) 
Pocket2Mol

>  <Protein>  (1) 
GPCR_5HT2C

$$$$
Pocket2Mol_11_num_sample_50
     RDKit          3D

  0  0  0  0  0  0  0  0  0  0999 V3000
M  V30 BEGIN CTAB
M  V30 COUNTS 11 11 0 0 1
M  V30 BEGIN ATOM
M  V30 1 C 39.867307 30.021098 52.110082 0
M  V30 2 C 39.085336 29.144968 52.692956 0
M  V30 3 C 40.125123 29.600223 50.802617 0
M  V30 4 C 38.675517 27.943870 51.847122 0
M  V30 5 N 39.467462 28.434741 50.653503 0
M  V30 6 O 40.804547 30.155625 49.944940 0
M  V30 7 H 40.249879 30.924643 52.562266 0
M  V30 8 H 39.042011 26.994943 52.241175 0
M  V30 9 H 38.737357 29.241347 53.711414 0
M  V30 10 H 37.602859 27.912679 51.653282 0
M  V30 11 H 39.481000 27.912245 49.789956 0
M  V30 END ATOM
M  V30 BEGIN BOND
M  V30 1 2 2 1
M  V30 2 1 3 1
M  V30 3 1 4 2
M  V30 4 1 5 3
M  V30 5 1 5 4
M  V30 6 2 6 3
M  V30 7 1 7 1
M  V30 8 1 8 4
M  V30 9 1 9 2
M  V30 10 1 10 4
M  V30 11 1 11 5
M  V30 END BOND
M  V30 END CTAB
M  END
>  <i_epik_Tot_Q>  (1) 
0

>  <i_epik_Tot_abs_Q>  (1) 
0

>  <i_i_glide_confnum>  (1) 
1

>  <i_i_glide_lignum>  (1) 
12

>  <i_i_glide_posenum>  (1) 
143

>  <i_i_glide_rotatable_bonds>  (1) 
0

>  <i_lp_mmshare_version>  (1) 
72125

>  <i_m_source_file_index>  (1) 
12

>  <i_f3d_flags>  (1) 
0

>  <num_sample>  (1) 
50

>  <b_lp_Chiralities_Consistent>  (1) 
1

>  <r_epik_Charging_Adjusted_Penalty>  (1) 
0

>  <r_epik_Ionization_Penalty>  (1) 
3.8544596149973334e-06

>  <r_epik_Ionization_Penalty_Charging>  (1) 
0

>  <r_epik_Ionization_Penalty_Neutral>  (1) 
3.8544596149973334e-06

>  <r_epik_State_Penalty>  (1) 
-0

>  <r_glide_ring_energy>  (1) 
0

>  <r_i_docking_score>  (1) 
-4.5583277205507562

>  <r_i_glide_ecoul>  (1) 
-0.40627942177840154

>  <r_i_glide_eff_state_penalty>  (1) 
-0

>  <r_i_glide_einternal>  (1) 
0

>  <r_i_glide_emodel>  (1) 
-22.32250991689607

>  <r_i_glide_emodel_strain>  (1) 
0

>  <r_i_glide_energy>  (1) 
-17.499193063668198

>  <r_i_glide_erotb>  (1) 
0

>  <r_i_glide_esite>  (1) 
0

>  <r_i_glide_evdw>  (1) 
-17.092913641889798

>  <r_i_glide_gscore>  (1) 
-4.5583277205507562

>  <r_i_glide_gscore_strain>  (1) 
0

>  <r_i_glide_hbond>  (1) 
0

>  <r_i_glide_ligand_efficiency>  (1) 
-0.7597212867584594

>  <r_i_glide_ligand_efficiency_ln>  (1) 
-1.6327795323324084

>  <r_i_glide_ligand_efficiency_sa>  (1) 
-1.3805051949817277

>  <r_i_glide_lipo>  (1) 
-0.94274012518950634

>  <r_i_glide_metal>  (1) 
-0

>  <r_i_glide_rewards>  (1) 
-2.7000000000000002

>  <r_lp_Energy>  (1) 
3.204942

>  <r_lp_tautomer_probability>  (1) 
1

>  <s_epik_cmdline>  (1) 
J2VwaWtfcHl0aG9uJywgJy1waHQnLCAnMS4wJywgJy1waCcsICc3LjQnLCAnLXRuJywgJzgnLCAnLW1hJywgJzUwMCcsICctaW1hZScsICc8aW5maWxlLm1hZT4nLCAnLW9tYWUnLCAnPG91dGZpbGUubWFlPic=

>  <s_epik_input>  (1) 
Tz1DMVtDSDJdW0NIXT1bQ0hdW05IXTE=

>  <s_glide_docking_method>  (1) 
confgen

>  <s_i_glide_gridfile>  (1) 
gpcr_5ht2c_6bqh_protein_autoprepared_prepared

>  <s_lp_Force_Field>  (1) 
S-OPLS

>  <s_lp_Variant>  (1) 
Pocket2Mol_11_num_sample_50-1

>  <s_m_source_file>  (1) 
generated__ligand_Pocket2Mol_2026-05-06_prepared.sdf

>  <GenAI_Model>  (1) 
Pocket2Mol

>  <Protein>  (1) 
GPCR_5HT2C

$$$$
Pocket2Mol_7_num_sample_50
     RDKit          3D

  0  0  0  0  0  0  0  0  0  0999 V3000
M  V30 BEGIN CTAB
M  V30 COUNTS 11 11 0 0 1
M  V30 BEGIN ATOM
M  V30 1 C 39.104744 29.164580 52.681289 0
M  V30 2 C 38.699777 27.940449 51.867712 0
M  V30 3 C 39.867398 30.036715 52.069586 0
M  V30 4 C 40.113230 29.591501 50.768907 0
M  V30 5 N 39.467401 28.416290 50.653502 0
M  V30 6 O 40.774296 30.136549 49.890507 0
M  V30 7 H 38.768553 29.279338 53.701746 0
M  V30 8 H 39.476461 27.875788 49.801442 0
M  V30 9 H 39.090442 27.008984 52.278665 0
M  V30 10 H 40.243466 30.955155 52.496679 0
M  V30 11 H 37.624334 27.888636 51.694978 0
M  V30 END ATOM
M  V30 BEGIN BOND
M  V30 1 1 2 1
M  V30 2 2 3 1
M  V30 3 1 4 3
M  V30 4 1 5 2
M  V30 5 1 5 4
M  V30 6 2 6 4
M  V30 7 1 7 1
M  V30 8 1 8 5
M  V30 9 1 9 2
M  V30 10 1 10 3
M  V30 11 1 11 2
M  V30 END BOND
M  V30 END CTAB
M  END
>  <i_epik_Tot_Q>  (1) 
0

>  <i_epik_Tot_abs_Q>  (1) 
0

>  <i_i_glide_confnum>  (1) 
1

>  <i_i_glide_lignum>  (1) 
8

>  <i_i_glide_posenum>  (1) 
143

>  <i_i_glide_rotatable_bonds>  (1) 
0

>  <i_lp_mmshare_version>  (1) 
72125

>  <i_m_source_file_index>  (1) 
8

>  <i_f3d_flags>  (1) 
0

>  <num_sample>  (1) 
50

>  <b_lp_Chiralities_Consistent>  (1) 
1

>  <r_epik_Charging_Adjusted_Penalty>  (1) 
0

>  <r_epik_Ionization_Penalty>  (1) 
3.8544596149973334e-06

>  <r_epik_Ionization_Penalty_Charging>  (1) 
0

>  <r_epik_Ionization_Penalty_Neutral>  (1) 
3.8544596149973334e-06

>  <r_epik_State_Penalty>  (1) 
-0

>  <r_glide_ring_energy>  (1) 
0

>  <r_i_docking_score>  (1) 
-4.5571545019456208

>  <r_i_glide_ecoul>  (1) 
-0.45486188571440633

>  <r_i_glide_eff_state_penalty>  (1) 
-0

>  <r_i_glide_einternal>  (1) 
0

>  <r_i_glide_emodel>  (1) 
-22.341355979419156

>  <r_i_glide_emodel_strain>  (1) 
2.2129043486529554e-08

>  <r_i_glide_energy>  (1) 
-17.519636110404104

>  <r_i_glide_erotb>  (1) 
0

>  <r_i_glide_esite>  (1) 
0

>  <r_i_glide_evdw>  (1) 
-17.064774224689696

>  <r_i_glide_gscore>  (1) 
-4.5571545019456208

>  <r_i_glide_gscore_strain>  (1) 
0

>  <r_i_glide_hbond>  (1) 
0

>  <r_i_glide_ligand_efficiency>  (1) 
-0.75952575032427017

>  <r_i_glide_ligand_efficiency_ln>  (1) 
-1.6323592888916438

>  <r_i_glide_ligand_efficiency_sa>  (1) 
-1.3801498817005136

>  <r_i_glide_lipo>  (1) 
-0.93568650785397467

>  <r_i_glide_metal>  (1) 
-0

>  <r_i_glide_rewards>  (1) 
-2.7000000000000002

>  <r_lp_Energy>  (1) 
3.2049569999999998

>  <r_lp_tautomer_probability>  (1) 
1

>  <s_epik_cmdline>  (1) 
J2VwaWtfcHl0aG9uJywgJy1waHQnLCAnMS4wJywgJy1waCcsICc3LjQnLCAnLXRuJywgJzgnLCAnLW1hJywgJzUwMCcsICctaW1hZScsICc8aW5maWxlLm1hZT4nLCAnLW9tYWUnLCAnPG91dGZpbGUubWFlPic=

>  <s_epik_input>  (1) 
TjE9W0NIXVtDSDJdW0NIMl1DMT1P

>  <s_glide_docking_method>  (1) 
confgen

>  <s_i_glide_gridfile>  (1) 
gpcr_5ht2c_6bqh_protein_autoprepared_prepared

>  <s_lp_Force_Field>  (1) 
S-OPLS

>  <s_lp_Variant>  (1) 
Pocket2Mol_7_num_sample_50-1

>  <s_m_source_file>  (1) 
generated__ligand_Pocket2Mol_2026-05-06_prepared.sdf

>  <GenAI_Model>  (1) 
Pocket2Mol

>  <Protein>  (1) 
GPCR_5HT2C

$$$$
Pocket2Mol_43_num_sample_50
     RDKit          3D

  0  0  0  0  0  0  0  0  0  0999 V3000
M  V30 BEGIN CTAB
M  V30 COUNTS 15 15 0 0 1
M  V30 BEGIN ATOM
M  V30 1 C 37.794984 34.146746 60.307304 0
M  V30 2 O 37.253201 33.062344 61.057160 0
M  V30 3 C 36.114799 32.388093 60.716896 0
M  V30 4 O 35.867309 31.232060 61.053535 0
M  V30 5 C 35.114738 33.216667 59.883917 0
M  V30 6 C 36.728393 35.140696 59.864186 0
M  V30 7 C 35.705465 34.362438 59.053500 0
M  V30 8 H 38.544831 34.652187 60.915739 0
M  V30 9 H 38.315316 33.743367 59.437479 0
M  V30 10 H 34.568439 32.539775 59.225462 0
M  V30 11 H 34.380715 33.621284 60.580220 0
M  V30 12 H 36.267409 35.611195 60.732023 0
M  V30 13 H 37.167835 35.934870 59.260190 0
M  V30 14 H 36.178958 33.959290 58.157902 0
M  V30 15 H 34.910124 35.023269 58.708343 0
M  V30 END ATOM
M  V30 BEGIN BOND
M  V30 1 1 2 1
M  V30 2 1 3 2
M  V30 3 2 4 3
M  V30 4 1 5 3
M  V30 5 1 6 1
M  V30 6 1 7 5
M  V30 7 1 7 6
M  V30 8 1 8 1
M  V30 9 1 9 1
M  V30 10 1 10 5
M  V30 11 1 11 5
M  V30 12 1 12 6
M  V30 13 1 13 6
M  V30 14 1 14 7
M  V30 15 1 15 7
M  V30 END BOND
M  V30 END CTAB
M  END
>  <i_epik_Tot_Q>  (1) 
0

>  <i_epik_Tot_abs_Q>  (1) 
0

>  <i_i_glide_confnum>  (1) 
2

>  <i_i_glide_lignum>  (1) 
44

>  <i_i_glide_posenum>  (1) 
230

>  <i_i_glide_rotatable_bonds>  (1) 
0

>  <i_lp_mmshare_version>  (1) 
72125

>  <i_m_source_file_index>  (1) 
44

>  <i_f3d_flags>  (1) 
0

>  <num_sample>  (1) 
50

>  <b_lp_Chiralities_Consistent>  (1) 
1

>  <r_epik_Charging_Adjusted_Penalty>  (1) 
0

>  <r_epik_Ionization_Penalty>  (1) 
4.2138389519661579e-10

>  <r_epik_Ionization_Penalty_Charging>  (1) 
0

>  <r_epik_Ionization_Penalty_Neutral>  (1) 
4.2138389519661579e-10

>  <r_epik_State_Penalty>  (1) 
-0

>  <r_glide_ring_energy>  (1) 
0.00094626647336522524

>  <r_i_docking_score>  (1) 
-4.5488948050615026

>  <r_i_glide_ecoul>  (1) 
-2.6008389259813463

>  <r_i_glide_eff_state_penalty>  (1) 
-0

>  <r_i_glide_einternal>  (1) 
0

>  <r_i_glide_emodel>  (1) 
-21.748035286950856

>  <r_i_glide_emodel_strain>  (1) 
0

>  <r_i_glide_energy>  (1) 
-16.642639998413493

>  <r_i_glide_erotb>  (1) 
0

>  <r_i_glide_esite>  (1) 
-0.023883509064302703

>  <r_i_glide_evdw>  (1) 
-14.041801072432147

>  <r_i_glide_gscore>  (1) 
-4.5488948050615026

>  <r_i_glide_gscore_strain>  (1) 
0

>  <r_i_glide_hbond>  (1) 
-0.32000000000000001

>  <r_i_glide_ligand_efficiency>  (1) 
-0.64984211500878608

>  <r_i_glide_ligand_efficiency_ln>  (1) 
-1.5441390181300099

>  <r_i_glide_ligand_efficiency_sa>  (1) 
-1.243103245679068

>  <r_i_glide_lipo>  (1) 
-0.23953550759718054

>  <r_i_glide_metal>  (1) 
-0

>  <r_i_glide_rewards>  (1) 
-2.8732598958812101

>  <r_lp_Energy>  (1) 
8.5246700000000004

>  <r_lp_tautomer_probability>  (1) 
1

>  <s_epik_Chemistry_Notes>  (1) 
This compound has an ester and may undergo hydrolysis at high or low pH.

>  <s_epik_cmdline>  (1) 
J2VwaWtfcHl0aG9uJywgJy1waHQnLCAnMS4wJywgJy1waCcsICc3LjQnLCAnLXRuJywgJzgnLCAnLW1hJywgJzUwMCcsICctaW1hZScsICc8aW5maWxlLm1hZT4nLCAnLW9tYWUnLCAnPG91dGZpbGUubWFlPic=

>  <s_epik_input>  (1) 
W0NIMl0xW0NIMl1bQ0gyXVtDSDJdT0MxPU8=

>  <s_glide_docking_method>  (1) 
confgen

>  <s_i_glide_gridfile>  (1) 
gpcr_5ht2c_6bqh_protein_autoprepared_prepared

>  <s_lp_Force_Field>  (1) 
S-OPLS

>  <s_lp_Variant>  (1) 
Pocket2Mol_43_num_sample_50-1

>  <s_m_source_file>  (1) 
generated__ligand_Pocket2Mol_2026-05-06_prepared.sdf

>  <GenAI_Model>  (1) 
Pocket2Mol

>  <Protein>  (1) 
GPCR_5HT2C

$$$$
Pocket2Mol_7_num_sample_50
     RDKit          3D

  0  0  0  0  0  0  0  0  0  0999 V3000
M  V30 BEGIN CTAB
M  V30 COUNTS 11 11 0 0 1
M  V30 BEGIN ATOM
M  V30 1 C 39.867403 29.060292 50.309733 0
M  V30 2 C 40.054969 30.302245 51.170092 0
M  V30 3 C 39.336394 28.021331 50.903061 0
M  V30 4 C 39.067403 28.345927 52.233795 0
M  V30 5 N 39.467404 29.621429 52.389671 0
M  V30 6 O 38.571043 27.637126 53.104486 0
M  V30 7 H 40.164473 29.065734 49.271872 0
M  V30 8 H 39.385577 30.110656 53.269286 0
M  V30 9 H 41.100003 30.575846 51.293600 0
M  V30 10 H 39.134858 27.065884 50.440241 0
M  V30 11 H 39.467404 31.148700 50.815768 0
M  V30 END ATOM
M  V30 BEGIN BOND
M  V30 1 1 2 1
M  V30 2 2 3 1
M  V30 3 1 4 3
M  V30 4 1 5 2
M  V30 5 1 5 4
M  V30 6 2 6 4
M  V30 7 1 7 1
M  V30 8 1 8 5
M  V30 9 1 9 2
M  V30 10 1 10 3
M  V30 11 1 11 2
M  V30 END BOND
M  V30 END CTAB
M  END
>  <i_epik_Tot_Q>  (1) 
0

>  <i_epik_Tot_abs_Q>  (1) 
0

>  <i_i_glide_confnum>  (1) 
1

>  <i_i_glide_lignum>  (1) 
8

>  <i_i_glide_posenum>  (1) 
321

>  <i_i_glide_rotatable_bonds>  (1) 
0

>  <i_lp_mmshare_version>  (1) 
72125

>  <i_m_source_file_index>  (1) 
8

>  <i_f3d_flags>  (1) 
0

>  <num_sample>  (1) 
50

>  <b_lp_Chiralities_Consistent>  (1) 
1

>  <r_epik_Charging_Adjusted_Penalty>  (1) 
0

>  <r_epik_Ionization_Penalty>  (1) 
3.8544596149973334e-06

>  <r_epik_Ionization_Penalty_Charging>  (1) 
0

>  <r_epik_Ionization_Penalty_Neutral>  (1) 
3.8544596149973334e-06

>  <r_epik_State_Penalty>  (1) 
-0

>  <r_glide_ring_energy>  (1) 
0

>  <r_i_docking_score>  (1) 
-4.5395330061308758

>  <r_i_glide_ecoul>  (1) 
-0.36325495677920644

>  <r_i_glide_eff_state_penalty>  (1) 
-0

>  <r_i_glide_einternal>  (1) 
0

>  <r_i_glide_emodel>  (1) 
-21.067225589281875

>  <r_i_glide_emodel_strain>  (1) 
0

>  <r_i_glide_energy>  (1) 
-16.264150209059103

>  <r_i_glide_erotb>  (1) 
0

>  <r_i_glide_esite>  (1) 
0

>  <r_i_glide_evdw>  (1) 
-15.900895252279897

>  <r_i_glide_gscore>  (1) 
-4.5395330061308758

>  <r_i_glide_gscore_strain>  (1) 
0

>  <r_i_glide_hbond>  (1) 
0

>  <r_i_glide_ligand_efficiency>  (1) 
-0.75658883435514601

>  <r_i_glide_ligand_efficiency_ln>  (1) 
-1.6260473211132673

>  <r_i_glide_ligand_efficiency_sa>  (1) 
-1.3748131512136006

>  <r_i_glide_lipo>  (1) 
-0.98999999999999999

>  <r_i_glide_metal>  (1) 
-0

>  <r_i_glide_rewards>  (1) 
-2.7000000000000002

>  <r_lp_Energy>  (1) 
3.2049569999999998

>  <r_lp_tautomer_probability>  (1) 
1

>  <s_epik_cmdline>  (1) 
J2VwaWtfcHl0aG9uJywgJy1waHQnLCAnMS4wJywgJy1waCcsICc3LjQnLCAnLXRuJywgJzgnLCAnLW1hJywgJzUwMCcsICctaW1hZScsICc8aW5maWxlLm1hZT4nLCAnLW9tYWUnLCAnPG91dGZpbGUubWFlPic=

>  <s_epik_input>  (1) 
TjE9W0NIXVtDSDJdW0NIMl1DMT1P

>  <s_glide_docking_method>  (1) 
confgen

>  <s_i_glide_gridfile>  (1) 
gpcr_5ht2c_6bqh_protein_autoprepared_prepared

>  <s_lp_Force_Field>  (1) 
S-OPLS

>  <s_lp_Variant>  (1) 
Pocket2Mol_7_num_sample_50-1

>  <s_m_source_file>  (1) 
generated__ligand_Pocket2Mol_2026-05-06_prepared.sdf

>  <GenAI_Model>  (1) 
Pocket2Mol

>  <Protein>  (1) 
GPCR_5HT2C

$$$$
Pocket2Mol_49_num_sample_50
     RDKit          3D

  0  0  0  0  0  0  0  0  0  0999 V3000
M  V30 BEGIN CTAB
M  V30 COUNTS 13 13 0 0 1
M  V30 BEGIN ATOM
M  V30 1 C 39.064289 28.396385 51.872230 0
M  V30 2 O 38.992981 29.288633 52.980325 0
M  V30 3 C 39.822118 30.427840 52.755709 0
M  V30 4 C 40.263153 28.857788 51.053454 0
M  V30 5 C 40.256602 30.349326 51.292243 0
M  V30 6 H 39.155602 27.359721 52.196794 0
M  V30 7 H 38.148439 28.486453 51.289466 0
M  V30 8 H 39.292306 31.352361 52.982547 0
M  V30 9 H 40.667517 30.373942 53.435544 0
M  V30 10 H 41.178240 28.421429 51.453606 0
M  V30 11 H 40.186059 28.593687 49.998549 0
M  V30 12 H 39.505003 30.820641 50.656458 0
M  V30 13 H 41.215707 30.825715 51.087967 0
M  V30 END ATOM
M  V30 BEGIN BOND
M  V30 1 1 2 1
M  V30 2 1 3 2
M  V30 3 1 4 1
M  V30 4 1 5 3
M  V30 5 1 5 4
M  V30 6 1 6 1
M  V30 7 1 7 1
M  V30 8 1 8 3
M  V30 9 1 9 3
M  V30 10 1 10 4
M  V30 11 1 11 4
M  V30 12 1 12 5
M  V30 13 1 13 5
M  V30 END BOND
M  V30 END CTAB
M  END
>  <i_epik_Tot_Q>  (1) 
0

>  <i_epik_Tot_abs_Q>  (1) 
0

>  <i_i_glide_confnum>  (1) 
4

>  <i_i_glide_lignum>  (1) 
50

>  <i_i_glide_posenum>  (1) 
10

>  <i_i_glide_rotatable_bonds>  (1) 
0

>  <i_lp_mmshare_version>  (1) 
72125

>  <i_m_source_file_index>  (1) 
50

>  <i_f3d_flags>  (1) 
0

>  <num_sample>  (1) 
50

>  <b_lp_Chiralities_Consistent>  (1) 
1

>  <r_epik_Charging_Adjusted_Penalty>  (1) 
0

>  <r_epik_Ionization_Penalty>  (1) 
1.3889264151150229e-11

>  <r_epik_Ionization_Penalty_Charging>  (1) 
0

>  <r_epik_Ionization_Penalty_Neutral>  (1) 
1.3889264151150229e-11

>  <r_epik_State_Penalty>  (1) 
-0

>  <r_glide_ring_energy>  (1) 
0.22164722245690596

>  <r_i_docking_score>  (1) 
-4.5277799214795724

>  <r_i_glide_ecoul>  (1) 
-0.53439775627018005

>  <r_i_glide_eff_state_penalty>  (1) 
-0

>  <r_i_glide_einternal>  (1) 
0

>  <r_i_glide_emodel>  (1) 
-16.790328099525762

>  <r_i_glide_emodel_strain>  (1) 
0

>  <r_i_glide_energy>  (1) 
-13.117065236498306

>  <r_i_glide_erotb>  (1) 
0

>  <r_i_glide_esite>  (1) 
0

>  <r_i_glide_evdw>  (1) 
-12.582667480228125

>  <r_i_glide_gscore>  (1) 
-4.5277799214795724

>  <r_i_glide_gscore_strain>  (1) 
0

>  <r_i_glide_hbond>  (1) 
0

>  <r_i_glide_ligand_efficiency>  (1) 
-0.90555598429591444

>  <r_i_glide_ligand_efficiency_ln>  (1) 
-1.7351552607956209

>  <r_i_glide_ligand_efficiency_sa>  (1) 
-1.5484789515151545

>  <r_i_glide_lipo>  (1) 
-1.3200000000000001

>  <r_i_glide_metal>  (1) 
-0

>  <r_i_glide_rewards>  (1) 
-2.4984868840276393

>  <r_lp_Energy>  (1) 
3.9174029999999997

>  <r_lp_tautomer_probability>  (1) 
1

>  <s_epik_cmdline>  (1) 
J2VwaWtfcHl0aG9uJywgJy1waHQnLCAnMS4wJywgJy1waCcsICc3LjQnLCAnLXRuJywgJzgnLCAnLW1hJywgJzUwMCcsICctaW1hZScsICc8aW5maWxlLm1hZT4nLCAnLW9tYWUnLCAnPG91dGZpbGUubWFlPic=

>  <s_epik_input>  (1) 
W0NIMl0xT1tDSDJdW0NIMl1bQ0gyXTE=

>  <s_glide_docking_method>  (1) 
confgen

>  <s_i_glide_gridfile>  (1) 
gpcr_5ht2c_6bqh_protein_autoprepared_prepared

>  <s_lp_Force_Field>  (1) 
S-OPLS

>  <s_lp_Variant>  (1) 
Pocket2Mol_49_num_sample_50-1

>  <s_m_source_file>  (1) 
generated__ligand_Pocket2Mol_2026-05-06_prepared.sdf

>  <GenAI_Model>  (1) 
Pocket2Mol

>  <Protein>  (1) 
GPCR_5HT2C

$$$$
Pocket2Mol_26_num_sample_50
     RDKit          3D

  0  0  0  0  0  0  0  0  0  0999 V3000
M  V30 BEGIN CTAB
M  V30 COUNTS 13 13 0 0 1
M  V30 BEGIN ATOM
M  V30 1 C 39.614778 27.451809 58.021568 0
M  V30 2 O 39.052785 26.166225 58.253510 0
M  V30 3 C 38.677349 25.337964 57.243260 0
M  V30 4 O 37.867358 24.421422 57.360211 0
M  V30 5 C 39.391527 25.621394 55.902394 0
M  V30 6 C 40.561478 27.447337 56.824305 0
M  V30 7 O 39.790786 26.978605 55.736243 0
M  V30 8 H 40.140729 27.776773 58.919402 0
M  V30 9 H 38.803486 28.160654 57.852405 0
M  V30 10 H 38.733318 25.343632 55.078947 0
M  V30 11 H 40.267413 24.976673 55.841174 0
M  V30 12 H 41.437753 26.821406 56.996107 0
M  V30 13 H 40.916401 28.455142 56.611520 0
M  V30 END ATOM
M  V30 BEGIN BOND
M  V30 1 1 2 1
M  V30 2 1 3 2
M  V30 3 2 4 3
M  V30 4 1 5 3
M  V30 5 1 6 1
M  V30 6 1 7 5
M  V30 7 1 7 6
M  V30 8 1 8 1
M  V30 9 1 9 1
M  V30 10 1 10 5
M  V30 11 1 11 5
M  V30 12 1 12 6
M  V30 13 1 13 6
M  V30 END BOND
M  V30 END CTAB
M  END
>  <i_epik_Tot_Q>  (1) 
0

>  <i_epik_Tot_abs_Q>  (1) 
0

>  <i_i_glide_confnum>  (1) 
1

>  <i_i_glide_lignum>  (1) 
27

>  <i_i_glide_posenum>  (1) 
310

>  <i_i_glide_rotatable_bonds>  (1) 
0

>  <i_lp_mmshare_version>  (1) 
72125

>  <i_m_source_file_index>  (1) 
27

>  <i_f3d_flags>  (1) 
0

>  <num_sample>  (1) 
50

>  <b_lp_Chiralities_Consistent>  (1) 
1

>  <r_epik_Charging_Adjusted_Penalty>  (1) 
0

>  <r_epik_Ionization_Penalty>  (1) 
1.0677269036415479e-12

>  <r_epik_Ionization_Penalty_Charging>  (1) 
0

>  <r_epik_Ionization_Penalty_Neutral>  (1) 
1.0677269036415479e-12

>  <r_epik_State_Penalty>  (1) 
-0

>  <r_glide_ring_energy>  (1) 
0

>  <r_i_docking_score>  (1) 
-4.522153193197382

>  <r_i_glide_ecoul>  (1) 
-0.9887108390966014

>  <r_i_glide_eff_state_penalty>  (1) 
-0

>  <r_i_glide_einternal>  (1) 
0

>  <r_i_glide_emodel>  (1) 
-20.805966926772705

>  <r_i_glide_emodel_strain>  (1) 
0

>  <r_i_glide_energy>  (1) 
-16.164542883736214

>  <r_i_glide_erotb>  (1) 
0

>  <r_i_glide_esite>  (1) 
0

>  <r_i_glide_evdw>  (1) 
-15.175832044639611

>  <r_i_glide_gscore>  (1) 
-4.522153193197382

>  <r_i_glide_gscore_strain>  (1) 
0

>  <r_i_glide_hbond>  (1) 
0

>  <r_i_glide_ligand_efficiency>  (1) 
-0.64602188474248312

>  <r_i_glide_ligand_efficiency_ln>  (1) 
-1.5350614799462006

>  <r_i_glide_ligand_efficiency_sa>  (1) 
-1.2357954080772864

>  <r_i_glide_lipo>  (1) 
-0.78095259633918657

>  <r_i_glide_metal>  (1) 
-0

>  <r_i_glide_rewards>  (1) 
-2.8341023687617248

>  <r_lp_Energy>  (1) 
12.58291

>  <r_lp_tautomer_probability>  (1) 
1

>  <s_epik_Chemistry_Notes>  (1) 
This compound has an ester and may undergo hydrolysis at high or low pH.

>  <s_epik_cmdline>  (1) 
J2VwaWtfcHl0aG9uJywgJy1waHQnLCAnMS4wJywgJy1waCcsICc3LjQnLCAnLXRuJywgJzgnLCAnLW1hJywgJzUwMCcsICctaW1hZScsICc8aW5maWxlLm1hZT4nLCAnLW9tYWUnLCAnPG91dGZpbGUubWFlPic=

>  <s_epik_input>  (1) 
W0NIMl0xT1tDSDJdW0NIMl1PQzE9Tw==

>  <s_glide_docking_method>  (1) 
confgen

>  <s_i_glide_gridfile>  (1) 
gpcr_5ht2c_6bqh_protein_autoprepared_prepared

>  <s_lp_Force_Field>  (1) 
S-OPLS

>  <s_lp_Variant>  (1) 
Pocket2Mol_26_num_sample_50-1

>  <s_m_source_file>  (1) 
generated__ligand_Pocket2Mol_2026-05-06_prepared.sdf

>  <GenAI_Model>  (1) 
Pocket2Mol

>  <Protein>  (1) 
GPCR_5HT2C

$$$$
Pocket2Mol_42_num_sample_50
     RDKit          3D

  0  0  0  0  0  0  0  0  0  0999 V3000
M  V30 BEGIN CTAB
M  V30 COUNTS 10 9 0 0 1
M  V30 BEGIN ATOM
M  V30 1 C 35.897449 31.956161 60.215620 0
M  V30 2 O 36.305681 31.615613 61.492550 0
M  V30 3 C 37.718863 31.538878 61.619487 0
M  V30 4 O 36.163828 30.927493 59.295874 0
M  V30 5 H 36.417590 32.854991 59.880656 0
M  V30 6 H 34.819839 32.140900 60.205773 0
M  V30 7 H 37.982522 31.262004 62.638891 0
M  V30 8 H 38.137801 30.787346 60.948590 0
M  V30 9 H 38.183145 32.501352 61.400550 0
M  V30 10 H 35.867170 31.221870 58.426760 0
M  V30 END ATOM
M  V30 BEGIN BOND
M  V30 1 1 2 1
M  V30 2 1 3 2
M  V30 3 1 4 1
M  V30 4 1 5 1
M  V30 5 1 6 1
M  V30 6 1 7 3
M  V30 7 1 8 3
M  V30 8 1 9 3
M  V30 9 1 10 4
M  V30 END BOND
M  V30 END CTAB
M  END
>  <i_epik_Tot_Q>  (1) 
0

>  <i_epik_Tot_abs_Q>  (1) 
0

>  <i_i_glide_confnum>  (1) 
1

>  <i_i_glide_lignum>  (1) 
43

>  <i_i_glide_posenum>  (1) 
28

>  <i_i_glide_rotatable_bonds>  (1) 
2

>  <i_lp_mmshare_version>  (1) 
72125

>  <i_m_source_file_index>  (1) 
43

>  <i_f3d_flags>  (1) 
0

>  <num_sample>  (1) 
50

>  <b_lp_Chiralities_Consistent>  (1) 
1

>  <r_epik_Charging_Adjusted_Penalty>  (1) 
0

>  <r_epik_Ionization_Penalty>  (1) 
1.028953084229311e-06

>  <r_epik_Ionization_Penalty_Charging>  (1) 
0

>  <r_epik_Ionization_Penalty_Neutral>  (1) 
1.028953084229311e-06

>  <r_epik_State_Penalty>  (1) 
-0

>  <r_glide_ring_energy>  (1) 
0

>  <r_i_docking_score>  (1) 
-4.5102335889325698

>  <r_i_glide_ecoul>  (1) 
-9.2750985290150716

>  <r_i_glide_eff_state_penalty>  (1) 
-0

>  <r_i_glide_einternal>  (1) 
1.9117960413147228

>  <r_i_glide_emodel>  (1) 
-17.446052053827177

>  <r_i_glide_emodel_strain>  (1) 
0

>  <r_i_glide_energy>  (1) 
-13.702279355916392

>  <r_i_glide_erotb>  (1) 
0

>  <r_i_glide_esite>  (1) 
-0.081503794213073189

>  <r_i_glide_evdw>  (1) 
-4.4271808269013215

>  <r_i_glide_gscore>  (1) 
-4.5102335889325698

>  <r_i_glide_gscore_strain>  (1) 
0

>  <r_i_glide_hbond>  (1) 
-0.45599999999999996

>  <r_i_glide_ligand_efficiency>  (1) 
-1.1275583972331424

>  <r_i_glide_ligand_efficiency_ln>  (1) 
-1.8900575144534606

>  <r_i_glide_ligand_efficiency_sa>  (1) 
-1.7898873859234672

>  <r_i_glide_lipo>  (1) 
-0.11010597402216929

>  <r_i_glide_metal>  (1) 
-0

>  <r_i_glide_rewards>  (1) 
-2.25

>  <r_lp_Energy>  (1) 
5.5414079999999997

>  <r_lp_tautomer_probability>  (1) 
1

>  <s_epik_Chemistry_Notes>  (1) 
This compound contains an acetal/aminal-like group ( X-CH(R)-Y where X, Y are N, S, or O) that may be acid/base labile, releasing an aldehyde.

>  <s_epik_cmdline>  (1) 
J2VwaWtfcHl0aG9uJywgJy1waHQnLCAnMS4wJywgJy1waCcsICc3LjQnLCAnLXRuJywgJzgnLCAnLW1hJywgJzUwMCcsICctaW1hZScsICc8aW5maWxlLm1hZT4nLCAnLW9tYWUnLCAnPG91dGZpbGUubWFlPic=

>  <s_epik_input>  (1) 
W09IXVtDSDJdT1tDSDNd

>  <s_glide_docking_method>  (1) 
confgen

>  <s_i_glide_gridfile>  (1) 
gpcr_5ht2c_6bqh_protein_autoprepared_prepared

>  <s_lp_Force_Field>  (1) 
S-OPLS

>  <s_lp_Variant>  (1) 
Pocket2Mol_42_num_sample_50-1

>  <s_m_source_file>  (1) 
generated__ligand_Pocket2Mol_2026-05-06_prepared.sdf

>  <GenAI_Model>  (1) 
Pocket2Mol

>  <Protein>  (1) 
GPCR_5HT2C

$$$$
Pocket2Mol_24_num_sample_50
     RDKit          3D

  0  0  0  0  0  0  0  0  0  0999 V3000
M  V30 BEGIN CTAB
M  V30 COUNTS 16 16 0 0 1
M  V30 BEGIN ATOM
M  V30 1 C 39.468706 28.703047 50.890512 0
M  V30 2 C 39.118701 28.701813 52.319726 0
M  V30 3 C 40.039297 29.769504 50.445331 0
M  V30 4 C 40.263488 30.843955 51.422094 0
M  V30 5 N 39.844663 30.020715 52.652841 0 CHG=1
M  V30 6 C 39.226608 30.800456 53.746777 0
M  V30 7 H 39.245878 27.846514 50.269402 0
M  V30 8 H 38.035854 28.765483 52.445395 0
M  V30 9 H 39.520961 27.842736 52.857095 0
M  V30 10 H 40.340630 29.897810 49.415506 0
M  V30 11 H 41.293834 31.192168 51.453501 0
M  V30 12 H 39.579594 31.665877 51.216949 0
M  V30 13 H 38.265427 31.217718 53.453503 0
M  V30 14 H 39.070711 30.164080 54.618046 0
M  V30 15 H 39.875236 31.621287 54.050902 0
M  V30 16 H 40.727273 29.704049 53.026713 0
M  V30 END ATOM
M  V30 BEGIN BOND
M  V30 1 1 2 1
M  V30 2 2 3 1
M  V30 3 1 4 3
M  V30 4 1 5 2
M  V30 5 1 5 4
M  V30 6 1 6 5
M  V30 7 1 7 1
M  V30 8 1 8 2
M  V30 9 1 9 2
M  V30 10 1 10 3
M  V30 11 1 11 4
M  V30 12 1 12 4
M  V30 13 1 13 6
M  V30 14 1 14 6
M  V30 15 1 15 6
M  V30 16 1 16 5
M  V30 END BOND
M  V30 END CTAB
M  END
>  <i_epik_Tot_Q>  (1) 
1

>  <i_epik_Tot_abs_Q>  (1) 
1

>  <i_i_glide_confnum>  (1) 
1

>  <i_i_glide_lignum>  (1) 
25

>  <i_i_glide_posenum>  (1) 
95

>  <i_i_glide_rotatable_bonds>  (1) 
0

>  <i_lp_mmshare_version>  (1) 
72125

>  <i_m_source_file_index>  (1) 
25

>  <i_f3d_flags>  (1) 
0

>  <num_sample>  (1) 
50

>  <b_lp_Chiralities_Consistent>  (1) 
1

>  <r_epik_Charging_Adjusted_Penalty>  (1) 
0.0014863909170882658

>  <r_epik_Ionization_Penalty>  (1) 
0.0014863909170882658

>  <r_epik_Ionization_Penalty_Charging>  (1) 
0.0014863909170882658

>  <r_epik_Ionization_Penalty_Neutral>  (1) 
0

>  <r_epik_State_Penalty>  (1) 
-0

>  <r_glide_ring_energy>  (1) 
0

>  <r_i_docking_score>  (1) 
-4.5022988250662781

>  <r_i_glide_ecoul>  (1) 
-0.50992125984497827

>  <r_i_glide_eff_state_penalty>  (1) 
-0

>  <r_i_glide_einternal>  (1) 
0

>  <r_i_glide_emodel>  (1) 
-17.363853648865071

>  <r_i_glide_emodel_strain>  (1) 
4.3407908378867432e-09

>  <r_i_glide_energy>  (1) 
-12.710999127236054

>  <r_i_glide_erotb>  (1) 
0

>  <r_i_glide_esite>  (1) 
0

>  <r_i_glide_evdw>  (1) 
-12.201077867391076

>  <r_i_glide_gscore>  (1) 
-4.5022988250662781

>  <r_i_glide_gscore_strain>  (1) 
0

>  <r_i_glide_hbond>  (1) 
0

>  <r_i_glide_ligand_efficiency>  (1) 
-0.75038313751104635

>  <r_i_glide_ligand_efficiency_ln>  (1) 
-1.6127101473792804

>  <r_i_glide_ligand_efficiency_sa>  (1) 
-1.3635366516853136

>  <r_i_glide_lipo>  (1) 
-1.565756742719977

>  <r_i_glide_metal>  (1) 
-0

>  <r_i_glide_rewards>  (1) 
-2.25

>  <r_lp_Energy>  (1) 
6.8415840000000001

>  <r_lp_tautomer_probability>  (1) 
1

>  <s_epik_cmdline>  (1) 
J2VwaWtfcHl0aG9uJywgJy1waHQnLCAnMS4wJywgJy1waCcsICc3LjQnLCAnLXRuJywgJzgnLCAnLW1hJywgJzUwMCcsICctaW1hZScsICc8aW5maWxlLm1hZT4nLCAnLW9tYWUnLCAnPG91dGZpbGUubWFlPic=

>  <s_epik_input>  (1) 
W0NIMl0xW0NIXT1bQ0hdW0NIMl1OMVtDSDNd

>  <s_glide_docking_method>  (1) 
confgen

>  <s_i_glide_gridfile>  (1) 
gpcr_5ht2c_6bqh_protein_autoprepared_prepared

>  <s_lp_Force_Field>  (1) 
S-OPLS

>  <s_lp_Variant>  (1) 
Pocket2Mol_24_num_sample_50-1

>  <s_m_source_file>  (1) 
generated__ligand_Pocket2Mol_2026-05-06_prepared.sdf

>  <GenAI_Model>  (1) 
Pocket2Mol

>  <Protein>  (1) 
GPCR_5HT2C

$$$$
Pocket2Mol_11_num_sample_50
     RDKit          3D

  0  0  0  0  0  0  0  0  0  0999 V3000
M  V30 BEGIN CTAB
M  V30 COUNTS 11 11 0 0 1
M  V30 BEGIN ATOM
M  V30 1 C 39.452201 28.625334 51.308190 0
M  V30 2 C 39.067410 28.757384 52.552466 0
M  V30 3 C 40.157359 29.770667 50.926527 0
M  V30 4 C 39.467381 30.059071 53.243611 0
M  V30 5 N 40.170573 30.573695 52.005402 0
M  V30 6 O 40.667315 30.021503 49.840900 0
M  V30 7 H 39.256308 27.772572 50.674722 0
M  V30 8 H 38.604474 30.666110 53.516601 0
M  V30 9 H 38.501896 28.006009 53.083963 0
M  V30 10 H 40.138203 29.913747 54.091144 0
M  V30 11 H 40.617233 31.480611 51.999565 0
M  V30 END ATOM
M  V30 BEGIN BOND
M  V30 1 2 2 1
M  V30 2 1 3 1
M  V30 3 1 4 2
M  V30 4 1 5 3
M  V30 5 1 5 4
M  V30 6 2 6 3
M  V30 7 1 7 1
M  V30 8 1 8 4
M  V30 9 1 9 2
M  V30 10 1 10 4
M  V30 11 1 11 5
M  V30 END BOND
M  V30 END CTAB
M  END
>  <i_epik_Tot_Q>  (1) 
0

>  <i_epik_Tot_abs_Q>  (1) 
0

>  <i_i_glide_confnum>  (1) 
1

>  <i_i_glide_lignum>  (1) 
12

>  <i_i_glide_posenum>  (1) 
363

>  <i_i_glide_rotatable_bonds>  (1) 
0

>  <i_lp_mmshare_version>  (1) 
72125

>  <i_m_source_file_index>  (1) 
12

>  <i_f3d_flags>  (1) 
0

>  <num_sample>  (1) 
50

>  <b_lp_Chiralities_Consistent>  (1) 
1

>  <r_epik_Charging_Adjusted_Penalty>  (1) 
0

>  <r_epik_Ionization_Penalty>  (1) 
3.8544596149973334e-06

>  <r_epik_Ionization_Penalty_Charging>  (1) 
0

>  <r_epik_Ionization_Penalty_Neutral>  (1) 
3.8544596149973334e-06

>  <r_epik_State_Penalty>  (1) 
-0

>  <r_glide_ring_energy>  (1) 
0

>  <r_i_docking_score>  (1) 
-4.4972188007453928

>  <r_i_glide_ecoul>  (1) 
-0.88045827833978718

>  <r_i_glide_eff_state_penalty>  (1) 
-0

>  <r_i_glide_einternal>  (1) 
0

>  <r_i_glide_emodel>  (1) 
-21.271454056604103

>  <r_i_glide_emodel_strain>  (1) 
0

>  <r_i_glide_energy>  (1) 
-16.512798566237642

>  <r_i_glide_erotb>  (1) 
0

>  <r_i_glide_esite>  (1) 
0

>  <r_i_glide_evdw>  (1) 
-15.632340287897854

>  <r_i_glide_gscore>  (1) 
-4.4972188007453928

>  <r_i_glide_gscore_strain>  (1) 
0

>  <r_i_glide_hbond>  (1) 
0

>  <r_i_glide_ligand_efficiency>  (1) 
-0.7495364667908988

>  <r_i_glide_ligand_efficiency_ln>  (1) 
-1.6108904976648692

>  <r_i_glide_ligand_efficiency_sa>  (1) 
-1.3619981488843855

>  <r_i_glide_lipo>  (1) 
-0.88353304459953153

>  <r_i_glide_metal>  (1) 
-0

>  <r_i_glide_rewards>  (1) 
-2.7000000000000002

>  <r_lp_Energy>  (1) 
3.204942

>  <r_lp_tautomer_probability>  (1) 
1

>  <s_epik_cmdline>  (1) 
J2VwaWtfcHl0aG9uJywgJy1waHQnLCAnMS4wJywgJy1waCcsICc3LjQnLCAnLXRuJywgJzgnLCAnLW1hJywgJzUwMCcsICctaW1hZScsICc8aW5maWxlLm1hZT4nLCAnLW9tYWUnLCAnPG91dGZpbGUubWFlPic=

>  <s_epik_input>  (1) 
Tz1DMVtDSDJdW0NIXT1bQ0hdW05IXTE=

>  <s_glide_docking_method>  (1) 
confgen

>  <s_i_glide_gridfile>  (1) 
gpcr_5ht2c_6bqh_protein_autoprepared_prepared

>  <s_lp_Force_Field>  (1) 
S-OPLS

>  <s_lp_Variant>  (1) 
Pocket2Mol_11_num_sample_50-1

>  <s_m_source_file>  (1) 
generated__ligand_Pocket2Mol_2026-05-06_prepared.sdf

>  <GenAI_Model>  (1) 
Pocket2Mol

>  <Protein>  (1) 
GPCR_5HT2C

$$$$
Pocket2Mol_12_num_sample_50
     RDKit          3D

  0  0  0  0  0  0  0  0  0  0999 V3000
M  V30 BEGIN CTAB
M  V30 COUNTS 10 10 0 0 1
M  V30 BEGIN ATOM
M  V30 1 C 40.232122 29.886293 49.853537 0
M  V30 2 C 40.267160 30.632708 51.176091 0
M  V30 3 O 39.867464 28.584022 50.253559 0
M  V30 4 O 39.701430 29.700540 52.071189 0
M  V30 5 C 39.502881 28.504823 51.524448 0
M  V30 6 O 39.066067 27.508661 52.094054 0
M  V30 7 H 41.192279 29.907165 49.339285 0
M  V30 8 H 39.467402 30.295109 49.193286 0
M  V30 9 H 41.290681 30.868757 51.457985 0
M  V30 10 H 39.691253 31.557432 51.142026 0
M  V30 END ATOM
M  V30 BEGIN BOND
M  V30 1 1 2 1
M  V30 2 1 3 1
M  V30 3 1 4 2
M  V30 4 1 5 3
M  V30 5 1 5 4
M  V30 6 2 6 5
M  V30 7 1 7 1
M  V30 8 1 8 1
M  V30 9 1 9 2
M  V30 10 1 10 2
M  V30 END BOND
M  V30 END CTAB
M  END
>  <i_epik_Tot_Q>  (1) 
0

>  <i_epik_Tot_abs_Q>  (1) 
0

>  <i_i_glide_confnum>  (1) 
2

>  <i_i_glide_lignum>  (1) 
13

>  <i_i_glide_posenum>  (1) 
386

>  <i_i_glide_rotatable_bonds>  (1) 
0

>  <i_lp_mmshare_version>  (1) 
72125

>  <i_m_source_file_index>  (1) 
13

>  <i_f3d_flags>  (1) 
0

>  <num_sample>  (1) 
50

>  <b_lp_Chiralities_Consistent>  (1) 
1

>  <r_epik_Charging_Adjusted_Penalty>  (1) 
0

>  <r_epik_Ionization_Penalty>  (1) 
0

>  <r_epik_Ionization_Penalty_Charging>  (1) 
0

>  <r_epik_Ionization_Penalty_Neutral>  (1) 
0

>  <r_epik_State_Penalty>  (1) 
-0

>  <r_glide_ring_energy>  (1) 
0.00053108536261990756

>  <r_i_docking_score>  (1) 
-4.4963694448643237

>  <r_i_glide_ecoul>  (1) 
-0.45200807421101896

>  <r_i_glide_eff_state_penalty>  (1) 
-0

>  <r_i_glide_einternal>  (1) 
0

>  <r_i_glide_emodel>  (1) 
-20.436107815120501

>  <r_i_glide_emodel_strain>  (1) 
0

>  <r_i_glide_energy>  (1) 
-15.823372748864438

>  <r_i_glide_erotb>  (1) 
0

>  <r_i_glide_esite>  (1) 
0

>  <r_i_glide_evdw>  (1) 
-15.371364674653419

>  <r_i_glide_gscore>  (1) 
-4.4963694448643237

>  <r_i_glide_gscore_strain>  (1) 
0

>  <r_i_glide_hbond>  (1) 
0

>  <r_i_glide_ligand_efficiency>  (1) 
-0.74939490747738724

>  <r_i_glide_ligand_efficiency_ln>  (1) 
-1.6105862608957524

>  <r_i_glide_ligand_efficiency_sa>  (1) 
-1.3617409185406966

>  <r_i_glide_lipo>  (1) 
-0.66000000000000003

>  <r_i_glide_metal>  (1) 
-0

>  <r_i_glide_rewards>  (1) 
-3

>  <r_lp_Energy>  (1) 
-6.8415979999999994

>  <r_lp_tautomer_probability>  (1) 
1

>  <s_epik_Chemistry_Notes>  (1) 
This compound has an ester and may undergo hydrolysis at high or low pH.

>  <s_epik_cmdline>  (1) 
J2VwaWtfcHl0aG9uJywgJy1waHQnLCAnMS4wJywgJy1waCcsICc3LjQnLCAnLXRuJywgJzgnLCAnLW1hJywgJzUwMCcsICctaW1hZScsICc8aW5maWxlLm1hZT4nLCAnLW9tYWUnLCAnPG91dGZpbGUubWFlPic=

>  <s_epik_input>  (1) 
TzFbQ0gyXVtDSDJdT0MxPU8=

>  <s_glide_docking_method>  (1) 
confgen

>  <s_i_glide_gridfile>  (1) 
gpcr_5ht2c_6bqh_protein_autoprepared_prepared

>  <s_lp_Force_Field>  (1) 
S-OPLS

>  <s_lp_Variant>  (1) 
Pocket2Mol_12_num_sample_50-1

>  <s_m_source_file>  (1) 
generated__ligand_Pocket2Mol_2026-05-06_prepared.sdf

>  <GenAI_Model>  (1) 
Pocket2Mol

>  <Protein>  (1) 
GPCR_5HT2C

$$$$
Pocket2Mol_7_num_sample_50
     RDKit          3D

  0  0  0  0  0  0  0  0  0  0999 V3000
M  V30 BEGIN CTAB
M  V30 COUNTS 11 11 0 0 1
M  V30 BEGIN ATOM
M  V30 1 C 39.067298 28.750758 52.549780 0
M  V30 2 C 39.467381 30.050748 53.243746 0
M  V30 3 C 39.449837 28.622158 51.304483 0
M  V30 4 C 40.155982 29.768260 50.925566 0
M  V30 5 N 40.168980 30.568764 52.006497 0
M  V30 6 O 40.667403 30.021433 49.840783 0
M  V30 7 H 38.501384 27.998301 53.079602 0
M  V30 8 H 40.617263 31.474865 52.003910 0
M  V30 9 H 38.604364 30.655740 53.523218 0
M  V30 10 H 39.251420 27.771361 50.668343 0
M  V30 11 H 40.142367 29.904597 54.087089 0
M  V30 END ATOM
M  V30 BEGIN BOND
M  V30 1 1 2 1
M  V30 2 2 3 1
M  V30 3 1 4 3
M  V30 4 1 5 2
M  V30 5 1 5 4
M  V30 6 2 6 4
M  V30 7 1 7 1
M  V30 8 1 8 5
M  V30 9 1 9 2
M  V30 10 1 10 3
M  V30 11 1 11 2
M  V30 END BOND
M  V30 END CTAB
M  END
>  <i_epik_Tot_Q>  (1) 
0

>  <i_epik_Tot_abs_Q>  (1) 
0

>  <i_i_glide_confnum>  (1) 
1

>  <i_i_glide_lignum>  (1) 
8

>  <i_i_glide_posenum>  (1) 
363

>  <i_i_glide_rotatable_bonds>  (1) 
0

>  <i_lp_mmshare_version>  (1) 
72125

>  <i_m_source_file_index>  (1) 
8

>  <i_f3d_flags>  (1) 
0

>  <num_sample>  (1) 
50

>  <b_lp_Chiralities_Consistent>  (1) 
1

>  <r_epik_Charging_Adjusted_Penalty>  (1) 
0

>  <r_epik_Ionization_Penalty>  (1) 
3.8544596149973334e-06

>  <r_epik_Ionization_Penalty_Charging>  (1) 
0

>  <r_epik_Ionization_Penalty_Neutral>  (1) 
3.8544596149973334e-06

>  <r_epik_State_Penalty>  (1) 
-0

>  <r_glide_ring_energy>  (1) 
0

>  <r_i_docking_score>  (1) 
-4.4961794419179766

>  <r_i_glide_ecoul>  (1) 
-0.87632802781248598

>  <r_i_glide_eff_state_penalty>  (1) 
-0

>  <r_i_glide_einternal>  (1) 
0

>  <r_i_glide_emodel>  (1) 
-21.26292980360509

>  <r_i_glide_emodel_strain>  (1) 
0

>  <r_i_glide_energy>  (1) 
-16.505724876716318

>  <r_i_glide_erotb>  (1) 
0

>  <r_i_glide_esite>  (1) 
0

>  <r_i_glide_evdw>  (1) 
-15.629396848903832

>  <r_i_glide_gscore>  (1) 
-4.4961794419179766

>  <r_i_glide_gscore_strain>  (1) 
0

>  <r_i_glide_hbond>  (1) 
0

>  <r_i_glide_ligand_efficiency>  (1) 
-0.74936324031966273

>  <r_i_glide_ligand_efficiency_ln>  (1) 
-1.6105182024013007

>  <r_i_glide_ligand_efficiency_sa>  (1) 
-1.3616833754962789

>  <r_i_glide_lipo>  (1) 
-0.88326039530091138

>  <r_i_glide_metal>  (1) 
-0

>  <r_i_glide_rewards>  (1) 
-2.7000000000000002

>  <r_lp_Energy>  (1) 
3.2049569999999998

>  <r_lp_tautomer_probability>  (1) 
1

>  <s_epik_cmdline>  (1) 
J2VwaWtfcHl0aG9uJywgJy1waHQnLCAnMS4wJywgJy1waCcsICc3LjQnLCAnLXRuJywgJzgnLCAnLW1hJywgJzUwMCcsICctaW1hZScsICc8aW5maWxlLm1hZT4nLCAnLW9tYWUnLCAnPG91dGZpbGUubWFlPic=

>  <s_epik_input>  (1) 
TjE9W0NIXVtDSDJdW0NIMl1DMT1P

>  <s_glide_docking_method>  (1) 
confgen

>  <s_i_glide_gridfile>  (1) 
gpcr_5ht2c_6bqh_protein_autoprepared_prepared

>  <s_lp_Force_Field>  (1) 
S-OPLS

>  <s_lp_Variant>  (1) 
Pocket2Mol_7_num_sample_50-1

>  <s_m_source_file>  (1) 
generated__ligand_Pocket2Mol_2026-05-06_prepared.sdf

>  <GenAI_Model>  (1) 
Pocket2Mol

>  <Protein>  (1) 
GPCR_5HT2C

$$$$
Pocket2Mol_24_num_sample_50
     RDKit          3D

  0  0  0  0  0  0  0  0  0  0999 V3000
M  V30 BEGIN CTAB
M  V30 COUNTS 16 16 0 0 1
M  V30 BEGIN ATOM
M  V30 1 C 39.845711 29.152917 51.045657 0
M  V30 2 C 39.129660 27.898284 51.322716 0
M  V30 3 C 39.867403 30.021262 51.997332 0
M  V30 4 C 39.176351 29.645276 53.240651 0
M  V30 5 N 38.767512 28.231040 52.784299 0 CHG=1
M  V30 6 C 37.375204 27.885562 53.140186 0
M  V30 7 H 40.314388 29.312881 50.085136 0
M  V30 8 H 38.267105 27.801625 50.664652 0
M  V30 9 H 39.772690 27.022350 51.239967 0
M  V30 10 H 40.357447 30.981814 51.914237 0
M  V30 11 H 39.853676 29.624467 54.095264 0
M  V30 12 H 38.328086 30.301097 53.443020 0
M  V30 13 H 36.666844 28.421099 52.507642 0
M  V30 14 H 37.204772 26.815004 53.025731 0
M  V30 15 H 37.167174 28.140539 54.180030 0
M  V30 16 H 39.345019 27.613452 53.336977 0
M  V30 END ATOM
M  V30 BEGIN BOND
M  V30 1 1 2 1
M  V30 2 2 3 1
M  V30 3 1 4 3
M  V30 4 1 5 2
M  V30 5 1 5 4
M  V30 6 1 6 5
M  V30 7 1 7 1
M  V30 8 1 8 2
M  V30 9 1 9 2
M  V30 10 1 10 3
M  V30 11 1 11 4
M  V30 12 1 12 4
M  V30 13 1 13 6
M  V30 14 1 14 6
M  V30 15 1 15 6
M  V30 16 1 16 5
M  V30 END BOND
M  V30 END CTAB
M  END
>  <i_epik_Tot_Q>  (1) 
1

>  <i_epik_Tot_abs_Q>  (1) 
1

>  <i_i_glide_confnum>  (1) 
1

>  <i_i_glide_lignum>  (1) 
25

>  <i_i_glide_posenum>  (1) 
91

>  <i_i_glide_rotatable_bonds>  (1) 
0

>  <i_lp_mmshare_version>  (1) 
72125

>  <i_m_source_file_index>  (1) 
25

>  <i_f3d_flags>  (1) 
0

>  <num_sample>  (1) 
50

>  <b_lp_Chiralities_Consistent>  (1) 
1

>  <r_epik_Charging_Adjusted_Penalty>  (1) 
0.0014863909170882658

>  <r_epik_Ionization_Penalty>  (1) 
0.0014863909170882658

>  <r_epik_Ionization_Penalty_Charging>  (1) 
0.0014863909170882658

>  <r_epik_Ionization_Penalty_Neutral>  (1) 
0

>  <r_epik_State_Penalty>  (1) 
-0

>  <r_glide_ring_energy>  (1) 
0

>  <r_i_docking_score>  (1) 
-4.4897637652214257

>  <r_i_glide_ecoul>  (1) 
-0.58904681845251106

>  <r_i_glide_eff_state_penalty>  (1) 
-0

>  <r_i_glide_einternal>  (1) 
0

>  <r_i_glide_emodel>  (1) 
-18.168938481902668

>  <r_i_glide_emodel_strain>  (1) 
0

>  <r_i_glide_energy>  (1) 
-13.529038184916443

>  <r_i_glide_erotb>  (1) 
0

>  <r_i_glide_esite>  (1) 
0

>  <r_i_glide_evdw>  (1) 
-12.939991366463932

>  <r_i_glide_gscore>  (1) 
-4.4897637652214257

>  <r_i_glide_gscore_strain>  (1) 
0

>  <r_i_glide_hbond>  (1) 
0

>  <r_i_glide_ligand_efficiency>  (1) 
-0.74829396087023758

>  <r_i_glide_ligand_efficiency_ln>  (1) 
-1.6082201259490607

>  <r_i_glide_ligand_efficiency_sa>  (1) 
-1.3597403657892362

>  <r_i_glide_lipo>  (1) 
-1.5044071741303524

>  <r_i_glide_metal>  (1) 
-0

>  <r_i_glide_rewards>  (1) 
-2.25

>  <r_lp_Energy>  (1) 
6.8415840000000001

>  <r_lp_tautomer_probability>  (1) 
1

>  <s_epik_cmdline>  (1) 
J2VwaWtfcHl0aG9uJywgJy1waHQnLCAnMS4wJywgJy1waCcsICc3LjQnLCAnLXRuJywgJzgnLCAnLW1hJywgJzUwMCcsICctaW1hZScsICc8aW5maWxlLm1hZT4nLCAnLW9tYWUnLCAnPG91dGZpbGUubWFlPic=

>  <s_epik_input>  (1) 
W0NIMl0xW0NIXT1bQ0hdW0NIMl1OMVtDSDNd

>  <s_glide_docking_method>  (1) 
confgen

>  <s_i_glide_gridfile>  (1) 
gpcr_5ht2c_6bqh_protein_autoprepared_prepared

>  <s_lp_Force_Field>  (1) 
S-OPLS

>  <s_lp_Variant>  (1) 
Pocket2Mol_24_num_sample_50-1

>  <s_m_source_file>  (1) 
generated__ligand_Pocket2Mol_2026-05-06_prepared.sdf

>  <GenAI_Model>  (1) 
Pocket2Mol

>  <Protein>  (1) 
GPCR_5HT2C

$$$$
Pocket2Mol_48_num_sample_50
     RDKit          3D

  0  0  0  0  0  0  0  0  0  0999 V3000
M  V30 BEGIN CTAB
M  V30 COUNTS 15 15 0 0 1
M  V30 BEGIN ATOM
M  V30 1 C 40.332566 30.718434 51.458874 0
M  V30 2 C 40.605736 30.701889 49.967007 0
M  V30 3 C 40.189240 29.241036 51.793006 0
M  V30 4 C 39.541617 28.625607 50.566589 0
M  V30 5 N 39.867408 29.538964 49.453544 0 CHG=1
M  V30 6 H 39.467295 31.304268 51.688470 0
M  V30 7 H 41.084164 31.221293 52.043346 0
M  V30 8 H 40.299875 31.620311 49.470153 0
M  V30 9 H 41.670303 30.558218 49.784351 0
M  V30 10 H 41.188632 28.815309 51.853545 0
M  V30 11 H 39.658512 29.042041 52.725514 0
M  V30 12 H 39.919899 27.621339 50.366282 0
M  V30 13 H 38.459881 28.562154 50.684743 0
M  V30 14 H 40.402685 29.064546 48.742690 0
M  V30 15 H 38.978946 29.843868 49.053126 0
M  V30 END ATOM
M  V30 BEGIN BOND
M  V30 1 1 2 1
M  V30 2 1 3 1
M  V30 3 1 4 3
M  V30 4 1 5 2
M  V30 5 1 5 4
M  V30 6 1 6 1
M  V30 7 1 7 1
M  V30 8 1 8 2
M  V30 9 1 9 2
M  V30 10 1 10 3
M  V30 11 1 11 3
M  V30 12 1 12 4
M  V30 13 1 13 4
M  V30 14 1 14 5
M  V30 15 1 15 5
M  V30 END BOND
M  V30 END CTAB
M  END
>  <i_epik_Tot_Q>  (1) 
1

>  <i_epik_Tot_abs_Q>  (1) 
1

>  <i_i_glide_confnum>  (1) 
3

>  <i_i_glide_lignum>  (1) 
49

>  <i_i_glide_posenum>  (1) 
21

>  <i_i_glide_rotatable_bonds>  (1) 
0

>  <i_lp_mmshare_version>  (1) 
72125

>  <i_m_source_file_index>  (1) 
49

>  <i_f3d_flags>  (1) 
0

>  <num_sample>  (1) 
50

>  <b_lp_Chiralities_Consistent>  (1) 
1

>  <r_epik_Charging_Adjusted_Penalty>  (1) 
0.00011848530527437102

>  <r_epik_Ionization_Penalty>  (1) 
0.00011848530527437102

>  <r_epik_Ionization_Penalty_Charging>  (1) 
0.00011848530527437102

>  <r_epik_Ionization_Penalty_Neutral>  (1) 
0

>  <r_epik_State_Penalty>  (1) 
-0

>  <r_glide_ring_energy>  (1) 
2.3171021879061433

>  <r_i_docking_score>  (1) 
-4.4647773098027503

>  <r_i_glide_ecoul>  (1) 
-4.1422319998344701

>  <r_i_glide_eff_state_penalty>  (1) 
-0

>  <r_i_glide_einternal>  (1) 
0

>  <r_i_glide_emodel>  (1) 
-18.705480827491971

>  <r_i_glide_emodel_strain>  (1) 
0

>  <r_i_glide_energy>  (1) 
-11.217394327228302

>  <r_i_glide_erotb>  (1) 
0

>  <r_i_glide_esite>  (1) 
0

>  <r_i_glide_evdw>  (1) 
-7.0751623273938309

>  <r_i_glide_gscore>  (1) 
-4.4647773098027503

>  <r_i_glide_gscore_strain>  (1) 
0

>  <r_i_glide_hbond>  (1) 
0

>  <r_i_glide_ligand_efficiency>  (1) 
-0.89295546196055009

>  <r_i_glide_ligand_efficiency_ln>  (1) 
-1.7110111294573693

>  <r_i_glide_ligand_efficiency_sa>  (1) 
-1.526932361406119

>  <r_i_glide_lipo>  (1) 
-1.2396843934578887

>  <r_i_glide_metal>  (1) 
-0

>  <r_i_glide_rewards>  (1) 
-2.25

>  <r_lp_Energy>  (1) 
17.726251999999999

>  <r_lp_tautomer_probability>  (1) 
1

>  <s_epik_cmdline>  (1) 
J2VwaWtfcHl0aG9uJywgJy1waHQnLCAnMS4wJywgJy1waCcsICc3LjQnLCAnLXRuJywgJzgnLCAnLW1hJywgJzUwMCcsICctaW1hZScsICc8aW5maWxlLm1hZT4nLCAnLW9tYWUnLCAnPG91dGZpbGUubWFlPic=

>  <s_epik_input>  (1) 
W0NIMl0xW0NIMl1bTkhdW0NIMl1bQ0gyXTE=

>  <s_glide_docking_method>  (1) 
confgen

>  <s_i_glide_gridfile>  (1) 
gpcr_5ht2c_6bqh_protein_autoprepared_prepared

>  <s_lp_Force_Field>  (1) 
S-OPLS

>  <s_lp_Variant>  (1) 
Pocket2Mol_48_num_sample_50-1

>  <s_m_source_file>  (1) 
generated__ligand_Pocket2Mol_2026-05-06_prepared.sdf

>  <GenAI_Model>  (1) 
Pocket2Mol

>  <Protein>  (1) 
GPCR_5HT2C

$$$$
Pocket2Mol_11_num_sample_50
     RDKit          3D

  0  0  0  0  0  0  0  0  0  0999 V3000
M  V30 BEGIN CTAB
M  V30 COUNTS 11 11 0 0 1
M  V30 BEGIN ATOM
M  V30 1 C 39.467946 29.485351 52.591718 0
M  V30 2 C 38.648998 29.363959 53.605217 0
M  V30 3 C 39.258948 28.421418 51.709044 0
M  V30 4 C 37.717080 28.157195 53.573456 0
M  V30 5 N 38.278220 27.677366 52.253210 0
M  V30 6 O 39.834592 28.187578 50.651621 0
M  V30 7 H 40.189591 30.277413 52.456046 0
M  V30 8 H 37.898891 27.460590 54.392170 0
M  V30 9 H 38.611965 30.063049 54.428403 0
M  V30 10 H 36.667388 28.437979 53.504573 0
M  V30 11 H 37.922214 26.840789 51.810065 0
M  V30 END ATOM
M  V30 BEGIN BOND
M  V30 1 2 2 1
M  V30 2 1 3 1
M  V30 3 1 4 2
M  V30 4 1 5 3
M  V30 5 1 5 4
M  V30 6 2 6 3
M  V30 7 1 7 1
M  V30 8 1 8 4
M  V30 9 1 9 2
M  V30 10 1 10 4
M  V30 11 1 11 5
M  V30 END BOND
M  V30 END CTAB
M  END
>  <i_epik_Tot_Q>  (1) 
0

>  <i_epik_Tot_abs_Q>  (1) 
0

>  <i_i_glide_confnum>  (1) 
1

>  <i_i_glide_lignum>  (1) 
12

>  <i_i_glide_posenum>  (1) 
244

>  <i_i_glide_rotatable_bonds>  (1) 
0

>  <i_lp_mmshare_version>  (1) 
72125

>  <i_m_source_file_index>  (1) 
12

>  <i_f3d_flags>  (1) 
0

>  <num_sample>  (1) 
50

>  <b_lp_Chiralities_Consistent>  (1) 
1

>  <r_epik_Charging_Adjusted_Penalty>  (1) 
0

>  <r_epik_Ionization_Penalty>  (1) 
3.8544596149973334e-06

>  <r_epik_Ionization_Penalty_Charging>  (1) 
0

>  <r_epik_Ionization_Penalty_Neutral>  (1) 
3.8544596149973334e-06

>  <r_epik_State_Penalty>  (1) 
-0

>  <r_glide_ring_energy>  (1) 
0

>  <r_i_docking_score>  (1) 
-4.461521076589066

>  <r_i_glide_ecoul>  (1) 
-0.85318331816812587

>  <r_i_glide_eff_state_penalty>  (1) 
-0

>  <r_i_glide_einternal>  (1) 
0

>  <r_i_glide_emodel>  (1) 
-21.118535947845366

>  <r_i_glide_emodel_strain>  (1) 
0

>  <r_i_glide_energy>  (1) 
-16.397653396394382

>  <r_i_glide_erotb>  (1) 
0

>  <r_i_glide_esite>  (1) 
0

>  <r_i_glide_evdw>  (1) 
-15.544470078226258

>  <r_i_glide_gscore>  (1) 
-4.461521076589066

>  <r_i_glide_gscore_strain>  (1) 
0

>  <r_i_glide_hbond>  (1) 
-0.056450921442827248

>  <r_i_glide_ligand_efficiency>  (1) 
-0.74358684609817771

>  <r_i_glide_ligand_efficiency_ln>  (1) 
-1.598103678259472

>  <r_i_glide_ligand_efficiency_sa>  (1) 
-1.3511869706041018

>  <r_i_glide_lipo>  (1) 
-0.79986915350970689

>  <r_i_glide_metal>  (1) 
-0

>  <r_i_glide_rewards>  (1) 
-2.7000000000000002

>  <r_lp_Energy>  (1) 
3.204942

>  <r_lp_tautomer_probability>  (1) 
1

>  <s_epik_cmdline>  (1) 
J2VwaWtfcHl0aG9uJywgJy1waHQnLCAnMS4wJywgJy1waCcsICc3LjQnLCAnLXRuJywgJzgnLCAnLW1hJywgJzUwMCcsICctaW1hZScsICc8aW5maWxlLm1hZT4nLCAnLW9tYWUnLCAnPG91dGZpbGUubWFlPic=

>  <s_epik_input>  (1) 
Tz1DMVtDSDJdW0NIXT1bQ0hdW05IXTE=

>  <s_glide_docking_method>  (1) 
confgen

>  <s_i_glide_gridfile>  (1) 
gpcr_5ht2c_6bqh_protein_autoprepared_prepared

>  <s_lp_Force_Field>  (1) 
S-OPLS

>  <s_lp_Variant>  (1) 
Pocket2Mol_11_num_sample_50-1

>  <s_m_source_file>  (1) 
generated__ligand_Pocket2Mol_2026-05-06_prepared.sdf

>  <GenAI_Model>  (1) 
Pocket2Mol

>  <Protein>  (1) 
GPCR_5HT2C

$$$$
Pocket2Mol_13_num_sample_50
     RDKit          3D

  0  0  0  0  0  0  0  0  0  0999 V3000
M  V30 BEGIN CTAB
M  V30 COUNTS 12 12 0 0 1
M  V30 BEGIN ATOM
M  V30 1 C 36.779893 34.683408 60.181589 0
M  V30 2 O 36.923488 33.518362 60.978564 0
M  V30 3 C 35.681521 34.317953 59.172470 0
M  V30 4 C 35.888392 32.698560 60.850660 0
M  V30 5 C 34.873838 33.217489 59.853288 0
M  V30 6 O 35.741168 31.637022 61.453485 0
M  V30 7 H 36.468105 35.514224 60.815234 0
M  V30 8 H 37.716124 34.955209 59.694461 0
M  V30 9 H 35.070760 35.177628 58.899745 0
M  V30 10 H 36.126810 33.926129 58.256456 0
M  V30 11 H 34.550309 32.444174 59.156025 0
M  V30 12 H 34.007083 33.617984 60.379168 0
M  V30 END ATOM
M  V30 BEGIN BOND
M  V30 1 1 2 1
M  V30 2 1 3 1
M  V30 3 1 4 2
M  V30 4 1 5 3
M  V30 5 1 5 4
M  V30 6 2 6 4
M  V30 7 1 7 1
M  V30 8 1 8 1
M  V30 9 1 9 3
M  V30 10 1 10 3
M  V30 11 1 11 5
M  V30 12 1 12 5
M  V30 END BOND
M  V30 END CTAB
M  END
>  <i_epik_Tot_Q>  (1) 
0

>  <i_epik_Tot_abs_Q>  (1) 
0

>  <i_i_glide_confnum>  (1) 
2

>  <i_i_glide_lignum>  (1) 
14

>  <i_i_glide_posenum>  (1) 
398

>  <i_i_glide_rotatable_bonds>  (1) 
0

>  <i_lp_mmshare_version>  (1) 
72125

>  <i_m_source_file_index>  (1) 
14

>  <i_f3d_flags>  (1) 
0

>  <num_sample>  (1) 
50

>  <b_lp_Chiralities_Consistent>  (1) 
1

>  <r_epik_Charging_Adjusted_Penalty>  (1) 
0

>  <r_epik_Ionization_Penalty>  (1) 
0

>  <r_epik_Ionization_Penalty_Charging>  (1) 
0

>  <r_epik_Ionization_Penalty_Neutral>  (1) 
0

>  <r_epik_State_Penalty>  (1) 
-0

>  <r_glide_ring_energy>  (1) 
0.00053108536261990756

>  <r_i_docking_score>  (1) 
-4.458970063747854

>  <r_i_glide_ecoul>  (1) 
-3.4775797429626119

>  <r_i_glide_eff_state_penalty>  (1) 
-0

>  <r_i_glide_einternal>  (1) 
0

>  <r_i_glide_emodel>  (1) 
-19.926239509509212

>  <r_i_glide_emodel_strain>  (1) 
0

>  <r_i_glide_energy>  (1) 
-15.421331152668394

>  <r_i_glide_erotb>  (1) 
0

>  <r_i_glide_esite>  (1) 
0

>  <r_i_glide_evdw>  (1) 
-11.943751409705783

>  <r_i_glide_gscore>  (1) 
-4.458970063747854

>  <r_i_glide_gscore_strain>  (1) 
0

>  <r_i_glide_hbond>  (1) 
-0.32000000000000001

>  <r_i_glide_ligand_efficiency>  (1) 
-0.743161677291309

>  <r_i_glide_ligand_efficiency_ln>  (1) 
-1.5971899129908913

>  <r_i_glide_ligand_efficiency_sa>  (1) 
-1.3504143876097108

>  <r_i_glide_lipo>  (1) 
-0.1034386503386911

>  <r_i_glide_metal>  (1) 
-0

>  <r_i_glide_rewards>  (1) 
-2.9167068814794823

>  <r_lp_Energy>  (1) 
-1.1766760000000001

>  <r_lp_tautomer_probability>  (1) 
1

>  <s_epik_Chemistry_Notes>  (1) 
This compound has an ester and may undergo hydrolysis at high or low pH.

>  <s_epik_cmdline>  (1) 
J2VwaWtfcHl0aG9uJywgJy1waHQnLCAnMS4wJywgJy1waCcsICc3LjQnLCAnLXRuJywgJzgnLCAnLW1hJywgJzUwMCcsICctaW1hZScsICc8aW5maWxlLm1hZT4nLCAnLW9tYWUnLCAnPG91dGZpbGUubWFlPic=

>  <s_epik_input>  (1) 
W0NIMl0xW0NIMl1bQ0gyXU9DMT1P

>  <s_glide_docking_method>  (1) 
confgen

>  <s_i_glide_gridfile>  (1) 
gpcr_5ht2c_6bqh_protein_autoprepared_prepared

>  <s_lp_Force_Field>  (1) 
S-OPLS

>  <s_lp_Variant>  (1) 
Pocket2Mol_13_num_sample_50-1

>  <s_m_source_file>  (1) 
generated__ligand_Pocket2Mol_2026-05-06_prepared.sdf

>  <GenAI_Model>  (1) 
Pocket2Mol

>  <Protein>  (1) 
GPCR_5HT2C

$$$$
Pocket2Mol_45_num_sample_50
     RDKit          3D

  0  0  0  0  0  0  0  0  0  0999 V3000
M  V30 BEGIN CTAB
M  V30 COUNTS 11 11 0 0 1
M  V30 BEGIN ATOM
M  V30 1 C 41.071348 30.421428 50.253049 0
M  V30 2 O 40.266917 29.432337 49.662561 0
M  V30 3 C 40.262537 30.776279 51.480614 0
M  V30 4 O 39.718716 29.531352 51.863395 0
M  V30 5 C 39.696081 28.742803 50.720872 0
M  V30 6 H 42.041068 30.021428 50.543240 0
M  V30 7 H 41.231308 31.255498 49.574732 0
M  V30 8 H 40.850664 31.221439 52.279545 0
M  V30 9 H 39.467668 31.470009 51.211752 0
M  V30 10 H 38.670592 28.468263 50.469853 0
M  V30 11 H 40.267403 27.834553 50.910584 0
M  V30 END ATOM
M  V30 BEGIN BOND
M  V30 1 1 2 1
M  V30 2 1 3 1
M  V30 3 1 4 3
M  V30 4 1 5 2
M  V30 5 1 5 4
M  V30 6 1 6 1
M  V30 7 1 7 1
M  V30 8 1 8 3
M  V30 9 1 9 3
M  V30 10 1 10 5
M  V30 11 1 11 5
M  V30 END BOND
M  V30 END CTAB
M  END
>  <i_epik_Tot_Q>  (1) 
0

>  <i_epik_Tot_abs_Q>  (1) 
0

>  <i_i_glide_confnum>  (1) 
3

>  <i_i_glide_lignum>  (1) 
46

>  <i_i_glide_posenum>  (1) 
389

>  <i_i_glide_rotatable_bonds>  (1) 
0

>  <i_lp_mmshare_version>  (1) 
72125

>  <i_m_source_file_index>  (1) 
46

>  <i_f3d_flags>  (1) 
0

>  <num_sample>  (1) 
50

>  <b_lp_Chiralities_Consistent>  (1) 
1

>  <r_epik_Charging_Adjusted_Penalty>  (1) 
0

>  <r_epik_Ionization_Penalty>  (1) 
7.9724310449397378e-14

>  <r_epik_Ionization_Penalty_Charging>  (1) 
0

>  <r_epik_Ionization_Penalty_Neutral>  (1) 
7.9724310449397378e-14

>  <r_epik_State_Penalty>  (1) 
-0

>  <r_glide_ring_energy>  (1) 
0.2805525668492585

>  <r_i_docking_score>  (1) 
-4.4542609509176474

>  <r_i_glide_ecoul>  (1) 
-0.93759497819189541

>  <r_i_glide_eff_state_penalty>  (1) 
-0

>  <r_i_glide_einternal>  (1) 
0

>  <r_i_glide_emodel>  (1) 
-16.446861978966758

>  <r_i_glide_emodel_strain>  (1) 
0

>  <r_i_glide_energy>  (1) 
-12.910984166760992

>  <r_i_glide_erotb>  (1) 
0

>  <r_i_glide_esite>  (1) 
0

>  <r_i_glide_evdw>  (1) 
-11.973389188569096

>  <r_i_glide_gscore>  (1) 
-4.4542609509176474

>  <r_i_glide_gscore_strain>  (1) 
0

>  <r_i_glide_hbond>  (1) 
0

>  <r_i_glide_ligand_efficiency>  (1) 
-0.89085219018352946

>  <r_i_glide_ligand_efficiency_ln>  (1) 
-1.7069810052551448

>  <r_i_glide_ligand_efficiency_sa>  (1) 
-1.5233358172580898

>  <r_i_glide_lipo>  (1) 
-0.61495224476040788

>  <r_i_glide_metal>  (1) 
-0

>  <r_i_glide_rewards>  (1) 
-3.1000000000000001

>  <r_lp_Energy>  (1) 
-12.242987999999999

>  <r_lp_tautomer_probability>  (1) 
1

>  <s_epik_Chemistry_Notes>  (1) 
This compound contains an acetal/aminal-like group ( X-CH(R)-Y where X, Y are N, S, or O) that may be acid/base labile, releasing an aldehyde.

>  <s_epik_cmdline>  (1) 
J2VwaWtfcHl0aG9uJywgJy1waHQnLCAnMS4wJywgJy1waCcsICc3LjQnLCAnLXRuJywgJzgnLCAnLW1hJywgJzUwMCcsICctaW1hZScsICc8aW5maWxlLm1hZT4nLCAnLW9tYWUnLCAnPG91dGZpbGUubWFlPic=

>  <s_epik_input>  (1) 
W0NIMl0xT1tDSDJdT1tDSDJdMQ==

>  <s_glide_docking_method>  (1) 
confgen

>  <s_i_glide_gridfile>  (1) 
gpcr_5ht2c_6bqh_protein_autoprepared_prepared

>  <s_lp_Force_Field>  (1) 
S-OPLS

>  <s_lp_Variant>  (1) 
Pocket2Mol_45_num_sample_50-1

>  <s_m_source_file>  (1) 
generated__ligand_Pocket2Mol_2026-05-06_prepared.sdf

>  <GenAI_Model>  (1) 
Pocket2Mol

>  <Protein>  (1) 
GPCR_5HT2C

$$$$
Pocket2Mol_17_num_sample_50
     RDKit          3D

  0  0  0  0  0  0  0  0  0  0999 V3000
M  V30 BEGIN CTAB
M  V30 COUNTS 10 10 0 0 1
M  V30 BEGIN ATOM
M  V30 1 C 39.467402 28.196857 50.653773 0
M  V30 2 O 38.641677 27.630200 51.768498 0
M  V30 3 C 38.657312 28.497650 52.872190 0
M  V30 4 C 39.913281 29.447813 51.345151 0
M  V30 5 C 39.467369 29.598673 52.544106 0
M  V30 6 O 38.065510 28.321006 53.934536 0
M  V30 7 H 38.857645 28.421301 49.779583 0
M  V30 8 H 40.561655 30.155400 50.849101 0
M  V30 9 H 39.663853 30.422515 53.214205 0
M  V30 10 H 40.293152 27.543338 50.382978 0
M  V30 END ATOM
M  V30 BEGIN BOND
M  V30 1 1 2 1
M  V30 2 1 3 2
M  V30 3 1 4 1
M  V30 4 1 5 3
M  V30 5 2 5 4
M  V30 6 2 6 3
M  V30 7 1 7 1
M  V30 8 1 8 4
M  V30 9 1 9 5
M  V30 10 1 10 1
M  V30 END BOND
M  V30 END CTAB
M  END
>  <i_epik_Tot_Q>  (1) 
0

>  <i_epik_Tot_abs_Q>  (1) 
0

>  <i_i_glide_confnum>  (1) 
1

>  <i_i_glide_lignum>  (1) 
18

>  <i_i_glide_posenum>  (1) 
349

>  <i_i_glide_rotatable_bonds>  (1) 
0

>  <i_lp_mmshare_version>  (1) 
72125

>  <i_m_source_file_index>  (1) 
18

>  <i_f3d_flags>  (1) 
0

>  <num_sample>  (1) 
50

>  <b_lp_Chiralities_Consistent>  (1) 
1

>  <r_epik_Charging_Adjusted_Penalty>  (1) 
0

>  <r_epik_Ionization_Penalty>  (1) 
0

>  <r_epik_Ionization_Penalty_Charging>  (1) 
0

>  <r_epik_Ionization_Penalty_Neutral>  (1) 
0

>  <r_epik_State_Penalty>  (1) 
-0

>  <r_glide_ring_energy>  (1) 
0

>  <r_i_docking_score>  (1) 
-4.4502089211183558

>  <r_i_glide_ecoul>  (1) 
-0.050817018867937658

>  <r_i_glide_eff_state_penalty>  (1) 
-0

>  <r_i_glide_einternal>  (1) 
0

>  <r_i_glide_emodel>  (1) 
-19.444892057307847

>  <r_i_glide_emodel_strain>  (1) 
0

>  <r_i_glide_energy>  (1) 
-15.062933567304512

>  <r_i_glide_erotb>  (1) 
0

>  <r_i_glide_esite>  (1) 
0

>  <r_i_glide_evdw>  (1) 
-15.012116548436575

>  <r_i_glide_gscore>  (1) 
-4.4502089211183558

>  <r_i_glide_gscore_strain>  (1) 
0

>  <r_i_glide_hbond>  (1) 
0

>  <r_i_glide_ligand_efficiency>  (1) 
-0.74170148685305926

>  <r_i_glide_ligand_efficiency_ln>  (1) 
-1.5940516975657921

>  <r_i_glide_ligand_efficiency_sa>  (1) 
-1.3477610454949107

>  <r_i_glide_lipo>  (1) 
-0.89198054086633638

>  <r_i_glide_metal>  (1) 
-0

>  <r_i_glide_rewards>  (1) 
-2.7999999999999998

>  <r_lp_Energy>  (1) 
-7.0611199999999998

>  <r_lp_tautomer_probability>  (1) 
1

>  <s_epik_Chemistry_Notes>  (1) 
This compound has an ester and may undergo hydrolysis at high or low pH.

>  <s_epik_cmdline>  (1) 
J2VwaWtfcHl0aG9uJywgJy1waHQnLCAnMS4wJywgJy1waCcsICc3LjQnLCAnLXRuJywgJzgnLCAnLW1hJywgJzUwMCcsICctaW1hZScsICc8aW5maWxlLm1hZT4nLCAnLW9tYWUnLCAnPG91dGZpbGUubWFlPic=

>  <s_epik_input>  (1) 
W0NIMl0xW0NIXT1bQ0hdT0MxPU8=

>  <s_glide_docking_method>  (1) 
confgen

>  <s_i_glide_gridfile>  (1) 
gpcr_5ht2c_6bqh_protein_autoprepared_prepared

>  <s_lp_Force_Field>  (1) 
S-OPLS

>  <s_lp_Variant>  (1) 
Pocket2Mol_17_num_sample_50-1

>  <s_m_source_file>  (1) 
generated__ligand_Pocket2Mol_2026-05-06_prepared.sdf

>  <GenAI_Model>  (1) 
Pocket2Mol

>  <Protein>  (1) 
GPCR_5HT2C

$$$$
Pocket2Mol_10_num_sample_50
     RDKit          3D

  0  0  0  0  0  0  0  0  0  0999 V3000
M  V30 BEGIN CTAB
M  V30 COUNTS 14 14 0 0 1
M  V30 BEGIN ATOM
M  V30 1 C 36.699281 33.952920 60.667952 0
M  V30 2 O 37.265371 33.398678 59.488232 0
M  V30 3 C 37.604081 32.027662 59.664314 0
M  V30 4 C 35.444272 33.152616 61.053499 0
M  V30 5 O 35.805974 31.791526 61.262993 0
M  V30 6 C 36.351100 31.230509 60.073334 0
M  V30 7 H 37.430264 33.939621 61.476971 0
M  V30 8 H 36.440922 34.995390 60.481139 0
M  V30 9 H 38.009238 31.640234 58.728914 0
M  V30 10 H 38.386683 31.931541 60.418934 0
M  V30 11 H 35.003159 33.558186 61.963591 0
M  V30 12 H 34.683509 33.227302 60.274649 0
M  V30 13 H 35.607773 31.239607 59.275321 0
M  V30 14 H 36.609129 30.187192 60.253461 0
M  V30 END ATOM
M  V30 BEGIN BOND
M  V30 1 1 2 1
M  V30 2 1 3 2
M  V30 3 1 4 1
M  V30 4 1 5 4
M  V30 5 1 6 3
M  V30 6 1 6 5
M  V30 7 1 7 1
M  V30 8 1 8 1
M  V30 9 1 9 3
M  V30 10 1 10 3
M  V30 11 1 11 4
M  V30 12 1 12 4
M  V30 13 1 13 6
M  V30 14 1 14 6
M  V30 END BOND
M  V30 END CTAB
M  END
>  <i_epik_Tot_Q>  (1) 
0

>  <i_epik_Tot_abs_Q>  (1) 
0

>  <i_i_glide_confnum>  (1) 
2

>  <i_i_glide_lignum>  (1) 
11

>  <i_i_glide_posenum>  (1) 
61

>  <i_i_glide_rotatable_bonds>  (1) 
0

>  <i_lp_mmshare_version>  (1) 
72125

>  <i_m_source_file_index>  (1) 
11

>  <i_f3d_flags>  (1) 
0

>  <num_sample>  (1) 
50

>  <b_lp_Chiralities_Consistent>  (1) 
1

>  <r_epik_Charging_Adjusted_Penalty>  (1) 
0

>  <r_epik_Ionization_Penalty>  (1) 
8.3894707547109138e-13

>  <r_epik_Ionization_Penalty_Charging>  (1) 
0

>  <r_epik_Ionization_Penalty_Neutral>  (1) 
8.3894707547109138e-13

>  <r_epik_State_Penalty>  (1) 
-0

>  <r_glide_ring_energy>  (1) 
0.00013676017923054334

>  <r_i_docking_score>  (1) 
-4.4475081845864093

>  <r_i_glide_ecoul>  (1) 
-1.7916729718852697

>  <r_i_glide_eff_state_penalty>  (1) 
-0

>  <r_i_glide_einternal>  (1) 
0

>  <r_i_glide_emodel>  (1) 
-16.821570135251914

>  <r_i_glide_emodel_strain>  (1) 
7.1385475308716195e-10

>  <r_i_glide_energy>  (1) 
-13.098018486777523

>  <r_i_glide_erotb>  (1) 
0

>  <r_i_glide_esite>  (1) 
0

>  <r_i_glide_evdw>  (1) 
-11.306345514892254

>  <r_i_glide_gscore>  (1) 
-4.4475081845864093

>  <r_i_glide_gscore_strain>  (1) 
0

>  <r_i_glide_hbond>  (1) 
-0.28897575889924176

>  <r_i_glide_ligand_efficiency>  (1) 
-0.74125136409773484

>  <r_i_glide_ligand_efficiency_ln>  (1) 
-1.593084301713207

>  <r_i_glide_ligand_efficiency_sa>  (1) 
-1.3469431181669083

>  <r_i_glide_lipo>  (1) 
-0.28777391319965945

>  <r_i_glide_metal>  (1) 
-0

>  <r_i_glide_rewards>  (1) 
-3.0366902909601046

>  <r_lp_Energy>  (1) 
4.964817

>  <r_lp_tautomer_probability>  (1) 
1

>  <s_epik_cmdline>  (1) 
J2VwaWtfcHl0aG9uJywgJy1waHQnLCAnMS4wJywgJy1waCcsICc3LjQnLCAnLXRuJywgJzgnLCAnLW1hJywgJzUwMCcsICctaW1hZScsICc8aW5maWxlLm1hZT4nLCAnLW9tYWUnLCAnPG91dGZpbGUubWFlPic=

>  <s_epik_input>  (1) 
W0NIMl0xT1tDSDJdW0NIMl1PW0NIMl0x

>  <s_glide_docking_method>  (1) 
confgen

>  <s_i_glide_gridfile>  (1) 
gpcr_5ht2c_6bqh_protein_autoprepared_prepared

>  <s_lp_Force_Field>  (1) 
S-OPLS

>  <s_lp_Variant>  (1) 
Pocket2Mol_10_num_sample_50-1

>  <s_m_source_file>  (1) 
generated__ligand_Pocket2Mol_2026-05-06_prepared.sdf

>  <GenAI_Model>  (1) 
Pocket2Mol

>  <Protein>  (1) 
GPCR_5HT2C

$$$$
Pocket2Mol_11_num_sample_50
     RDKit          3D

  0  0  0  0  0  0  0  0  0  0999 V3000
M  V30 BEGIN CTAB
M  V30 COUNTS 11 11 0 0 1
M  V30 BEGIN ATOM
M  V30 1 C 39.414344 29.182400 52.390465 0
M  V30 2 C 39.867408 30.372124 52.090104 0
M  V30 3 C 39.416196 28.391584 51.239172 0
M  V30 4 C 40.265692 30.590351 50.634293 0
M  V30 5 N 39.884613 29.176808 50.253501 0
M  V30 6 O 39.067405 27.221434 51.119856 0
M  V30 7 H 39.089786 28.860353 53.368714 0
M  V30 8 H 39.652331 31.343265 50.137940 0
M  V30 9 H 39.964638 31.172326 52.809880 0
M  V30 10 H 41.330667 30.794022 50.515975 0
M  V30 11 H 39.980138 28.851356 49.303304 0
M  V30 END ATOM
M  V30 BEGIN BOND
M  V30 1 2 2 1
M  V30 2 1 3 1
M  V30 3 1 4 2
M  V30 4 1 5 3
M  V30 5 1 5 4
M  V30 6 2 6 3
M  V30 7 1 7 1
M  V30 8 1 8 4
M  V30 9 1 9 2
M  V30 10 1 10 4
M  V30 11 1 11 5
M  V30 END BOND
M  V30 END CTAB
M  END
>  <i_epik_Tot_Q>  (1) 
0

>  <i_epik_Tot_abs_Q>  (1) 
0

>  <i_i_glide_confnum>  (1) 
1

>  <i_i_glide_lignum>  (1) 
12

>  <i_i_glide_posenum>  (1) 
56

>  <i_i_glide_rotatable_bonds>  (1) 
0

>  <i_lp_mmshare_version>  (1) 
72125

>  <i_m_source_file_index>  (1) 
12

>  <i_f3d_flags>  (1) 
0

>  <num_sample>  (1) 
50

>  <b_lp_Chiralities_Consistent>  (1) 
1

>  <r_epik_Charging_Adjusted_Penalty>  (1) 
0

>  <r_epik_Ionization_Penalty>  (1) 
3.8544596149973334e-06

>  <r_epik_Ionization_Penalty_Charging>  (1) 
0

>  <r_epik_Ionization_Penalty_Neutral>  (1) 
3.8544596149973334e-06

>  <r_epik_State_Penalty>  (1) 
-0

>  <r_glide_ring_energy>  (1) 
0

>  <r_i_docking_score>  (1) 
-4.4216238420484109

>  <r_i_glide_ecoul>  (1) 
0.44357344198403903

>  <r_i_glide_eff_state_penalty>  (1) 
-0

>  <r_i_glide_einternal>  (1) 
0

>  <r_i_glide_emodel>  (1) 
-21.220652626993378

>  <r_i_glide_emodel_strain>  (1) 
0

>  <r_i_glide_energy>  (1) 
-16.541986654857116

>  <r_i_glide_erotb>  (1) 
0

>  <r_i_glide_esite>  (1) 
0

>  <r_i_glide_evdw>  (1) 
-16.985560096841155

>  <r_i_glide_gscore>  (1) 
-4.4216238420484109

>  <r_i_glide_gscore_strain>  (1) 
0

>  <r_i_glide_hbond>  (1) 
0

>  <r_i_glide_ligand_efficiency>  (1) 
-0.73693730700806848

>  <r_i_glide_ligand_efficiency_ln>  (1) 
-1.5838126066322709

>  <r_i_glide_ligand_efficiency_sa>  (1) 
-1.3391039561906219

>  <r_i_glide_lipo>  (1) 
-0.93888185350395847

>  <r_i_glide_metal>  (1) 
-0

>  <r_i_glide_rewards>  (1) 
-2.7000000000000002

>  <r_lp_Energy>  (1) 
3.204942

>  <r_lp_tautomer_probability>  (1) 
1

>  <s_epik_cmdline>  (1) 
J2VwaWtfcHl0aG9uJywgJy1waHQnLCAnMS4wJywgJy1waCcsICc3LjQnLCAnLXRuJywgJzgnLCAnLW1hJywgJzUwMCcsICctaW1hZScsICc8aW5maWxlLm1hZT4nLCAnLW9tYWUnLCAnPG91dGZpbGUubWFlPic=

>  <s_epik_input>  (1) 
Tz1DMVtDSDJdW0NIXT1bQ0hdW05IXTE=

>  <s_glide_docking_method>  (1) 
confgen

>  <s_i_glide_gridfile>  (1) 
gpcr_5ht2c_6bqh_protein_autoprepared_prepared

>  <s_lp_Force_Field>  (1) 
S-OPLS

>  <s_lp_Variant>  (1) 
Pocket2Mol_11_num_sample_50-1

>  <s_m_source_file>  (1) 
generated__ligand_Pocket2Mol_2026-05-06_prepared.sdf

>  <GenAI_Model>  (1) 
Pocket2Mol

>  <Protein>  (1) 
GPCR_5HT2C

$$$$
Pocket2Mol_30_num_sample_50
     RDKit          3D

  0  0  0  0  0  0  0  0  0  0999 V3000
M  V30 BEGIN CTAB
M  V30 COUNTS 15 15 0 0 1
M  V30 BEGIN ATOM
M  V30 1 C 39.067735 29.590060 53.841056 0
M  V30 2 C 37.641383 29.086666 54.011565 0
M  V30 3 O 37.067409 30.021363 54.904332 0
M  V30 4 O 38.884189 30.981817 53.954466 0
M  V30 5 C 37.887958 31.145171 54.909707 0
M  V30 6 C 38.544773 31.274496 56.300047 0
M  V30 7 O 37.867280 32.185898 57.136056 0
M  V30 8 H 39.509164 29.309009 52.884692 0
M  V30 9 H 39.711791 29.232583 54.646121 0
M  V30 10 H 37.108549 29.114133 53.061394 0
M  V30 11 H 37.594646 28.069484 54.400740 0
M  V30 12 H 37.310272 32.034930 54.653465 0
M  V30 13 H 39.560875 31.650673 56.175153 0
M  V30 14 H 38.614129 30.293716 56.771488 0
M  V30 15 H 36.916750 32.021879 57.056100 0
M  V30 END ATOM
M  V30 BEGIN BOND
M  V30 1 1 2 1
M  V30 2 1 3 2
M  V30 3 1 4 1
M  V30 4 1 5 3
M  V30 5 1 5 4
M  V30 6 1 6 5
M  V30 7 1 7 6
M  V30 8 1 8 1
M  V30 9 1 9 1
M  V30 10 1 10 2
M  V30 11 1 11 2
M  V30 12 1 12 5
M  V30 13 1 13 6
M  V30 14 1 14 6
M  V30 15 1 15 7
M  V30 END BOND
M  V30 END CTAB
M  END
>  <i_epik_Tot_Q>  (1) 
0

>  <i_epik_Tot_abs_Q>  (1) 
0

>  <i_i_glide_confnum>  (1) 
3

>  <i_i_glide_lignum>  (1) 
31

>  <i_i_glide_posenum>  (1) 
327

>  <i_i_glide_rotatable_bonds>  (1) 
2

>  <i_lp_mmshare_version>  (1) 
72125

>  <i_m_source_file_index>  (1) 
31

>  <i_f3d_flags>  (1) 
0

>  <num_sample>  (1) 
50

>  <b_lp_Chiralities_Consistent>  (1) 
1

>  <r_epik_Charging_Adjusted_Penalty>  (1) 
0

>  <r_epik_Ionization_Penalty>  (1) 
3.4422651255072934e-07

>  <r_epik_Ionization_Penalty_Charging>  (1) 
0

>  <r_epik_Ionization_Penalty_Neutral>  (1) 
3.4422651255072934e-07

>  <r_epik_State_Penalty>  (1) 
-0

>  <r_glide_ring_energy>  (1) 
1.2362365743684729

>  <r_i_docking_score>  (1) 
-4.4172293462127517

>  <r_i_glide_ecoul>  (1) 
-5.2431961607762094

>  <r_i_glide_eff_state_penalty>  (1) 
-0

>  <r_i_glide_einternal>  (1) 
0.14276872219684034

>  <r_i_glide_emodel>  (1) 
-19.340266021811722

>  <r_i_glide_emodel_strain>  (1) 
0.16366421230239148

>  <r_i_glide_energy>  (1) 
-14.652569086386629

>  <r_i_glide_erotb>  (1) 
0

>  <r_i_glide_esite>  (1) 
-0.064641682941811066

>  <r_i_glide_evdw>  (1) 
-9.4093729256104197

>  <r_i_glide_gscore>  (1) 
-4.4172293462127517

>  <r_i_glide_gscore_strain>  (1) 
0

>  <r_i_glide_hbond>  (1) 
-0.16

>  <r_i_glide_ligand_efficiency>  (1) 
-0.63103276374467876

>  <r_i_glide_ligand_efficiency_ln>  (1) 
-1.4994446954294438

>  <r_i_glide_ligand_efficiency_sa>  (1) 
-1.207122251118238

>  <r_i_glide_lipo>  (1) 
-0.44426749783088215

>  <r_i_glide_metal>  (1) 
-0

>  <r_i_glide_rewards>  (1) 
-2.491372095043106

>  <r_lp_Energy>  (1) 
-10.260740999999999

>  <r_lp_tautomer_probability>  (1) 
1

>  <s_epik_Chemistry_Notes>  (1) 
This compound contains an acetal/aminal-like group ( X-CH(R)-Y where X, Y are N, S, or O) that may be acid/base labile, releasing an aldehyde.

>  <s_epik_cmdline>  (1) 
J2VwaWtfcHl0aG9uJywgJy1waHQnLCAnMS4wJywgJy1waCcsICc3LjQnLCAnLXRuJywgJzgnLCAnLW1hJywgJzUwMCcsICctaW1hZScsICc8aW5maWxlLm1hZT4nLCAnLW9tYWUnLCAnPG91dGZpbGUubWFlPic=

>  <s_epik_input>  (1) 
TzFbQ0gyXVtDSDJdT1tDSF0xW0NIMl1bT0hd

>  <s_glide_docking_method>  (1) 
confgen

>  <s_i_glide_gridfile>  (1) 
gpcr_5ht2c_6bqh_protein_autoprepared_prepared

>  <s_lp_Force_Field>  (1) 
S-OPLS

>  <s_lp_Variant>  (1) 
Pocket2Mol_30_num_sample_50-1

>  <s_m_source_file>  (1) 
generated__ligand_Pocket2Mol_2026-05-06_prepared.sdf

>  <GenAI_Model>  (1) 
Pocket2Mol

>  <Protein>  (1) 
GPCR_5HT2C

$$$$
Pocket2Mol_7_num_sample_50
     RDKit          3D

  0  0  0  0  0  0  0  0  0  0999 V3000
M  V30 BEGIN CTAB
M  V30 COUNTS 11 11 0 0 1
M  V30 BEGIN ATOM
M  V30 1 C 39.867403 30.378043 52.108624 0
M  V30 2 C 40.245299 30.587645 50.645047 0
M  V30 3 C 39.423610 29.189361 52.422636 0
M  V30 4 C 39.413677 28.391690 51.276892 0
M  V30 5 N 39.867479 29.170312 50.279821 0
M  V30 6 O 39.067455 27.221425 51.170062 0
M  V30 7 H 39.971979 31.182992 52.821491 0
M  V30 8 H 39.952364 28.837392 49.331178 0
M  V30 9 H 39.616261 31.328873 50.153030 0
M  V30 10 H 39.115004 28.871121 53.408308 0
M  V30 11 H 41.305958 30.798366 50.504137 0
M  V30 END ATOM
M  V30 BEGIN BOND
M  V30 1 1 2 1
M  V30 2 2 3 1
M  V30 3 1 4 3
M  V30 4 1 5 2
M  V30 5 1 5 4
M  V30 6 2 6 4
M  V30 7 1 7 1
M  V30 8 1 8 5
M  V30 9 1 9 2
M  V30 10 1 10 3
M  V30 11 1 11 2
M  V30 END BOND
M  V30 END CTAB
M  END
>  <i_epik_Tot_Q>  (1) 
0

>  <i_epik_Tot_abs_Q>  (1) 
0

>  <i_i_glide_confnum>  (1) 
1

>  <i_i_glide_lignum>  (1) 
8

>  <i_i_glide_posenum>  (1) 
282

>  <i_i_glide_rotatable_bonds>  (1) 
0

>  <i_lp_mmshare_version>  (1) 
72125

>  <i_m_source_file_index>  (1) 
8

>  <i_f3d_flags>  (1) 
0

>  <num_sample>  (1) 
50

>  <b_lp_Chiralities_Consistent>  (1) 
1

>  <r_epik_Charging_Adjusted_Penalty>  (1) 
0

>  <r_epik_Ionization_Penalty>  (1) 
3.8544596149973334e-06

>  <r_epik_Ionization_Penalty_Charging>  (1) 
0

>  <r_epik_Ionization_Penalty_Neutral>  (1) 
3.8544596149973334e-06

>  <r_epik_State_Penalty>  (1) 
-0

>  <r_glide_ring_energy>  (1) 
0

>  <r_i_docking_score>  (1) 
-4.4159277112525306

>  <r_i_glide_ecoul>  (1) 
0.3998658765284655

>  <r_i_glide_eff_state_penalty>  (1) 
-0

>  <r_i_glide_einternal>  (1) 
0

>  <r_i_glide_emodel>  (1) 
-21.193693273372784

>  <r_i_glide_emodel_strain>  (1) 
0

>  <r_i_glide_energy>  (1) 
-16.521399087579823

>  <r_i_glide_erotb>  (1) 
0

>  <r_i_glide_esite>  (1) 
0

>  <r_i_glide_evdw>  (1) 
-16.921264964108289

>  <r_i_glide_gscore>  (1) 
-4.4159277112525306

>  <r_i_glide_gscore_strain>  (1) 
0

>  <r_i_glide_hbond>  (1) 
0

>  <r_i_glide_ligand_efficiency>  (1) 
-0.73598795187542176

>  <r_i_glide_ligand_efficiency_ln>  (1) 
-1.5817722693973961

>  <r_i_glide_ligand_efficiency_sa>  (1) 
-1.3373788634291788

>  <r_i_glide_lipo>  (1) 
-0.92984434452638554

>  <r_i_glide_metal>  (1) 
-0

>  <r_i_glide_rewards>  (1) 
-2.7000000000000002

>  <r_lp_Energy>  (1) 
3.2049569999999998

>  <r_lp_tautomer_probability>  (1) 
1

>  <s_epik_cmdline>  (1) 
J2VwaWtfcHl0aG9uJywgJy1waHQnLCAnMS4wJywgJy1waCcsICc3LjQnLCAnLXRuJywgJzgnLCAnLW1hJywgJzUwMCcsICctaW1hZScsICc8aW5maWxlLm1hZT4nLCAnLW9tYWUnLCAnPG91dGZpbGUubWFlPic=

>  <s_epik_input>  (1) 
TjE9W0NIXVtDSDJdW0NIMl1DMT1P

>  <s_glide_docking_method>  (1) 
confgen

>  <s_i_glide_gridfile>  (1) 
gpcr_5ht2c_6bqh_protein_autoprepared_prepared

>  <s_lp_Force_Field>  (1) 
S-OPLS

>  <s_lp_Variant>  (1) 
Pocket2Mol_7_num_sample_50-1

>  <s_m_source_file>  (1) 
generated__ligand_Pocket2Mol_2026-05-06_prepared.sdf

>  <GenAI_Model>  (1) 
Pocket2Mol

>  <Protein>  (1) 
GPCR_5HT2C

$$$$
Pocket2Mol_48_num_sample_50
     RDKit          3D

  0  0  0  0  0  0  0  0  0  0999 V3000
M  V30 BEGIN CTAB
M  V30 COUNTS 15 15 0 0 1
M  V30 BEGIN ATOM
M  V30 1 C 38.865745 28.858856 52.699429 0
M  V30 2 C 39.066270 27.936327 51.498322 0
M  V30 3 C 39.814151 30.041656 52.458421 0
M  V30 4 C 40.267402 29.921503 50.995272 0
M  V30 5 N 39.479417 28.824158 50.401483 0 CHG=1
M  V30 6 H 39.055741 28.353977 53.647404 0
M  V30 7 H 37.835902 29.216590 52.720948 0
M  V30 8 H 39.867387 27.225595 51.701384 0
M  V30 9 H 38.170619 27.367497 51.245778 0
M  V30 10 H 39.312439 30.989769 52.653502 0
M  V30 11 H 40.662752 30.021430 53.137809 0
M  V30 12 H 40.132175 30.849968 50.438412 0
M  V30 13 H 41.325511 29.659405 50.955870 0
M  V30 14 H 38.652432 29.221430 49.970349 0
M  V30 15 H 40.003820 28.323501 49.698990 0
M  V30 END ATOM
M  V30 BEGIN BOND
M  V30 1 1 2 1
M  V30 2 1 3 1
M  V30 3 1 4 3
M  V30 4 1 5 2
M  V30 5 1 5 4
M  V30 6 1 6 1
M  V30 7 1 7 1
M  V30 8 1 8 2
M  V30 9 1 9 2
M  V30 10 1 10 3
M  V30 11 1 11 3
M  V30 12 1 12 4
M  V30 13 1 13 4
M  V30 14 1 14 5
M  V30 15 1 15 5
M  V30 END BOND
M  V30 END CTAB
M  END
>  <i_epik_Tot_Q>  (1) 
1

>  <i_epik_Tot_abs_Q>  (1) 
1

>  <i_i_glide_confnum>  (1) 
1

>  <i_i_glide_lignum>  (1) 
49

>  <i_i_glide_posenum>  (1) 
389

>  <i_i_glide_rotatable_bonds>  (1) 
0

>  <i_lp_mmshare_version>  (1) 
72125

>  <i_m_source_file_index>  (1) 
49

>  <i_f3d_flags>  (1) 
0

>  <num_sample>  (1) 
50

>  <b_lp_Chiralities_Consistent>  (1) 
1

>  <r_epik_Charging_Adjusted_Penalty>  (1) 
0.00011848530527437102

>  <r_epik_Ionization_Penalty>  (1) 
0.00011848530527437102

>  <r_epik_Ionization_Penalty_Charging>  (1) 
0.00011848530527437102

>  <r_epik_Ionization_Penalty_Neutral>  (1) 
0

>  <r_epik_State_Penalty>  (1) 
-0

>  <r_glide_ring_energy>  (1) 
0

>  <r_i_docking_score>  (1) 
-4.4097728887943104

>  <r_i_glide_ecoul>  (1) 
-1.8498235543635868

>  <r_i_glide_eff_state_penalty>  (1) 
-0

>  <r_i_glide_einternal>  (1) 
0

>  <r_i_glide_emodel>  (1) 
-20.084239010555336

>  <r_i_glide_emodel_strain>  (1) 
0.4074076740708783

>  <r_i_glide_energy>  (1) 
-13.095810667159036

>  <r_i_glide_erotb>  (1) 
0

>  <r_i_glide_esite>  (1) 
0

>  <r_i_glide_evdw>  (1) 
-11.245987112795449

>  <r_i_glide_gscore>  (1) 
-4.4097728887943104

>  <r_i_glide_gscore_strain>  (1) 
0

>  <r_i_glide_hbond>  (1) 
0

>  <r_i_glide_ligand_efficiency>  (1) 
-0.8819545777588621

>  <r_i_glide_ligand_efficiency_ln>  (1) 
-1.6899320990859852

>  <r_i_glide_ligand_efficiency_sa>  (1) 
-1.5081211140290567

>  <r_i_glide_lipo>  (1) 
-1.3200000000000001

>  <r_i_glide_metal>  (1) 
-0

>  <r_i_glide_rewards>  (1) 
-2.25

>  <r_lp_Energy>  (1) 
17.726251999999999

>  <r_lp_tautomer_probability>  (1) 
1

>  <s_epik_cmdline>  (1) 
J2VwaWtfcHl0aG9uJywgJy1waHQnLCAnMS4wJywgJy1waCcsICc3LjQnLCAnLXRuJywgJzgnLCAnLW1hJywgJzUwMCcsICctaW1hZScsICc8aW5maWxlLm1hZT4nLCAnLW9tYWUnLCAnPG91dGZpbGUubWFlPic=

>  <s_epik_input>  (1) 
W0NIMl0xW0NIMl1bTkhdW0NIMl1bQ0gyXTE=

>  <s_glide_docking_method>  (1) 
confgen

>  <s_i_glide_gridfile>  (1) 
gpcr_5ht2c_6bqh_protein_autoprepared_prepared

>  <s_lp_Force_Field>  (1) 
S-OPLS

>  <s_lp_Variant>  (1) 
Pocket2Mol_48_num_sample_50-1

>  <s_m_source_file>  (1) 
generated__ligand_Pocket2Mol_2026-05-06_prepared.sdf

>  <GenAI_Model>  (1) 
Pocket2Mol

>  <Protein>  (1) 
GPCR_5HT2C

$$$$
Pocket2Mol_42_num_sample_50
     RDKit          3D

  0  0  0  0  0  0  0  0  0  0999 V3000
M  V30 BEGIN CTAB
M  V30 COUNTS 10 9 0 0 1
M  V30 BEGIN ATOM
M  V30 1 C 39.149987 27.533756 51.270164 0
M  V30 2 O 40.176557 28.470227 51.273620 0
M  V30 3 C 39.964491 29.560336 50.389087 0
M  V30 4 O 37.961694 28.021371 51.853501 0
M  V30 5 H 39.467436 26.668474 51.852177 0
M  V30 6 H 38.932746 27.201829 50.253501 0
M  V30 7 H 40.812429 30.243589 50.442068 0
M  V30 8 H 39.871419 29.221575 49.356750 0
M  V30 9 H 39.067405 30.119734 50.653491 0
M  V30 10 H 37.274468 27.388889 51.677656 0
M  V30 END ATOM
M  V30 BEGIN BOND
M  V30 1 1 2 1
M  V30 2 1 3 2
M  V30 3 1 4 1
M  V30 4 1 5 1
M  V30 5 1 6 1
M  V30 6 1 7 3
M  V30 7 1 8 3
M  V30 8 1 9 3
M  V30 9 1 10 4
M  V30 END BOND
M  V30 END CTAB
M  END
>  <i_epik_Tot_Q>  (1) 
0

>  <i_epik_Tot_abs_Q>  (1) 
0

>  <i_i_glide_confnum>  (1) 
1

>  <i_i_glide_lignum>  (1) 
43

>  <i_i_glide_posenum>  (1) 
93

>  <i_i_glide_rotatable_bonds>  (1) 
2

>  <i_lp_mmshare_version>  (1) 
72125

>  <i_m_source_file_index>  (1) 
43

>  <i_f3d_flags>  (1) 
0

>  <num_sample>  (1) 
50

>  <b_lp_Chiralities_Consistent>  (1) 
1

>  <r_epik_Charging_Adjusted_Penalty>  (1) 
0

>  <r_epik_Ionization_Penalty>  (1) 
1.028953084229311e-06

>  <r_epik_Ionization_Penalty_Charging>  (1) 
0

>  <r_epik_Ionization_Penalty_Neutral>  (1) 
1.028953084229311e-06

>  <r_epik_State_Penalty>  (1) 
-0

>  <r_glide_ring_energy>  (1) 
0

>  <r_i_docking_score>  (1) 
-4.4090113711163612

>  <r_i_glide_ecoul>  (1) 
-3.6534778979170404

>  <r_i_glide_eff_state_penalty>  (1) 
-0

>  <r_i_glide_einternal>  (1) 
1.9431106795413073

>  <r_i_glide_emodel>  (1) 
-17.495913290069613

>  <r_i_glide_emodel_strain>  (1) 
0

>  <r_i_glide_energy>  (1) 
-13.873271626493141

>  <r_i_glide_erotb>  (1) 
0

>  <r_i_glide_esite>  (1) 
0

>  <r_i_glide_evdw>  (1) 
-10.2197937285761

>  <r_i_glide_gscore>  (1) 
-4.4090113711163612

>  <r_i_glide_gscore_strain>  (1) 
0

>  <r_i_glide_hbond>  (1) 
-0.32000000000000001

>  <r_i_glide_ligand_efficiency>  (1) 
-1.1022528427790903

>  <r_i_glide_ligand_efficiency_ln>  (1) 
-1.8476393536995188

>  <r_i_glide_ligand_efficiency_sa>  (1) 
-1.7497173221624662

>  <r_i_glide_lipo>  (1) 
-0.33000000000000002

>  <r_i_glide_metal>  (1) 
-0

>  <r_i_glide_rewards>  (1) 
-2.7000000000000002

>  <r_lp_Energy>  (1) 
5.5414079999999997

>  <r_lp_tautomer_probability>  (1) 
1

>  <s_epik_Chemistry_Notes>  (1) 
This compound contains an acetal/aminal-like group ( X-CH(R)-Y where X, Y are N, S, or O) that may be acid/base labile, releasing an aldehyde.

>  <s_epik_cmdline>  (1) 
J2VwaWtfcHl0aG9uJywgJy1waHQnLCAnMS4wJywgJy1waCcsICc3LjQnLCAnLXRuJywgJzgnLCAnLW1hJywgJzUwMCcsICctaW1hZScsICc8aW5maWxlLm1hZT4nLCAnLW9tYWUnLCAnPG91dGZpbGUubWFlPic=

>  <s_epik_input>  (1) 
W09IXVtDSDJdT1tDSDNd

>  <s_glide_docking_method>  (1) 
confgen

>  <s_i_glide_gridfile>  (1) 
gpcr_5ht2c_6bqh_protein_autoprepared_prepared

>  <s_lp_Force_Field>  (1) 
S-OPLS

>  <s_lp_Variant>  (1) 
Pocket2Mol_42_num_sample_50-1

>  <s_m_source_file>  (1) 
generated__ligand_Pocket2Mol_2026-05-06_prepared.sdf

>  <GenAI_Model>  (1) 
Pocket2Mol

>  <Protein>  (1) 
GPCR_5HT2C

$$$$
Pocket2Mol_48_num_sample_50
     RDKit          3D

  0  0  0  0  0  0  0  0  0  0999 V3000
M  V30 BEGIN CTAB
M  V30 COUNTS 15 15 0 0 1
M  V30 BEGIN ATOM
M  V30 1 C 39.647933 29.313524 51.877122 0
M  V30 2 C 39.502315 28.341334 50.701691 0
M  V30 3 C 38.688020 28.787462 52.947541 0
M  V30 4 C 38.621591 27.295153 52.648076 0
M  V30 5 N 38.667477 27.221457 51.179583 0 CHG=1
M  V30 6 H 39.467412 30.351389 51.598073 0
M  V30 7 H 40.667388 29.273546 52.252379 0
M  V30 8 H 39.067352 28.820663 49.827605 0
M  V30 9 H 40.477092 27.958417 50.408046 0
M  V30 10 H 39.019685 29.004423 53.963696 0
M  V30 11 H 37.697075 29.221399 52.818003 0
M  V30 12 H 39.494470 26.786124 53.059974 0
M  V30 13 H 37.725348 26.820828 53.049894 0
M  V30 14 H 39.016480 26.331588 50.849480 0
M  V30 15 H 37.720303 27.345353 50.845066 0
M  V30 END ATOM
M  V30 BEGIN BOND
M  V30 1 1 2 1
M  V30 2 1 3 1
M  V30 3 1 4 3
M  V30 4 1 5 2
M  V30 5 1 5 4
M  V30 6 1 6 1
M  V30 7 1 7 1
M  V30 8 1 8 2
M  V30 9 1 9 2
M  V30 10 1 10 3
M  V30 11 1 11 3
M  V30 12 1 12 4
M  V30 13 1 13 4
M  V30 14 1 14 5
M  V30 15 1 15 5
M  V30 END BOND
M  V30 END CTAB
M  END
>  <i_epik_Tot_Q>  (1) 
1

>  <i_epik_Tot_abs_Q>  (1) 
1

>  <i_i_glide_confnum>  (1) 
2

>  <i_i_glide_lignum>  (1) 
49

>  <i_i_glide_posenum>  (1) 
147

>  <i_i_glide_rotatable_bonds>  (1) 
0

>  <i_lp_mmshare_version>  (1) 
72125

>  <i_m_source_file_index>  (1) 
49

>  <i_f3d_flags>  (1) 
0

>  <num_sample>  (1) 
50

>  <b_lp_Chiralities_Consistent>  (1) 
1

>  <r_epik_Charging_Adjusted_Penalty>  (1) 
0.00011848530527437102

>  <r_epik_Ionization_Penalty>  (1) 
0.00011848530527437102

>  <r_epik_Ionization_Penalty_Charging>  (1) 
0.00011848530527437102

>  <r_epik_Ionization_Penalty_Neutral>  (1) 
0

>  <r_epik_State_Penalty>  (1) 
-0

>  <r_glide_ring_energy>  (1) 
1.2454512470311176

>  <r_i_docking_score>  (1) 
-4.4012465900086655

>  <r_i_glide_ecoul>  (1) 
-2.0104610858765528

>  <r_i_glide_eff_state_penalty>  (1) 
-0

>  <r_i_glide_einternal>  (1) 
0

>  <r_i_glide_emodel>  (1) 
-19.843817096717501

>  <r_i_glide_emodel_strain>  (1) 
0.14172869535772747

>  <r_i_glide_energy>  (1) 
-12.604009628420204

>  <r_i_glide_erotb>  (1) 
0

>  <r_i_glide_esite>  (1) 
0

>  <r_i_glide_evdw>  (1) 
-10.593548542543651

>  <r_i_glide_gscore>  (1) 
-4.4012465900086655

>  <r_i_glide_gscore_strain>  (1) 
0

>  <r_i_glide_hbond>  (1) 
0

>  <r_i_glide_ligand_efficiency>  (1) 
-0.88024931800173312

>  <r_i_glide_ligand_efficiency_ln>  (1) 
-1.686664614259074

>  <r_i_glide_ligand_efficiency_sa>  (1) 
-1.5052051608615304

>  <r_i_glide_lipo>  (1) 
-1.3200000000000001

>  <r_i_glide_metal>  (1) 
-0

>  <r_i_glide_rewards>  (1) 
-2.25

>  <r_lp_Energy>  (1) 
17.726251999999999

>  <r_lp_tautomer_probability>  (1) 
1

>  <s_epik_cmdline>  (1) 
J2VwaWtfcHl0aG9uJywgJy1waHQnLCAnMS4wJywgJy1waCcsICc3LjQnLCAnLXRuJywgJzgnLCAnLW1hJywgJzUwMCcsICctaW1hZScsICc8aW5maWxlLm1hZT4nLCAnLW9tYWUnLCAnPG91dGZpbGUubWFlPic=

>  <s_epik_input>  (1) 
W0NIMl0xW0NIMl1bTkhdW0NIMl1bQ0gyXTE=

>  <s_glide_docking_method>  (1) 
confgen

>  <s_i_glide_gridfile>  (1) 
gpcr_5ht2c_6bqh_protein_autoprepared_prepared

>  <s_lp_Force_Field>  (1) 
S-OPLS

>  <s_lp_Variant>  (1) 
Pocket2Mol_48_num_sample_50-1

>  <s_m_source_file>  (1) 
generated__ligand_Pocket2Mol_2026-05-06_prepared.sdf

>  <GenAI_Model>  (1) 
Pocket2Mol

>  <Protein>  (1) 
GPCR_5HT2C

$$$$
Pocket2Mol_24_num_sample_50
     RDKit          3D

  0  0  0  0  0  0  0  0  0  0999 V3000
M  V30 BEGIN CTAB
M  V30 COUNTS 16 16 0 0 1
M  V30 BEGIN ATOM
M  V30 1 C 37.233816 24.796936 55.952479 0
M  V30 2 C 37.862109 25.931795 55.259323 0
M  V30 3 C 37.788753 24.421430 57.053505 0
M  V30 4 C 38.978429 25.174805 57.474449 0
M  V30 5 N 38.934844 26.205351 56.331588 0 CHG=1
M  V30 6 C 40.267403 26.494684 55.765276 0
M  V30 7 H 36.356140 24.321803 55.537132 0
M  V30 8 H 38.277819 25.621422 54.299613 0
M  V30 9 H 37.179207 26.771762 55.128907 0
M  V30 10 H 37.423229 23.600126 57.653470 0
M  V30 11 H 38.854745 25.636388 58.454666 0
M  V30 12 H 39.867113 24.541473 57.453251 0
M  V30 13 H 40.667404 25.621430 55.250387 0
M  V30 14 H 40.208607 27.317539 55.053501 0
M  V30 15 H 40.968270 26.778993 56.551476 0
M  V30 16 H 38.633390 27.061891 56.775524 0
M  V30 END ATOM
M  V30 BEGIN BOND
M  V30 1 1 2 1
M  V30 2 2 3 1
M  V30 3 1 4 3
M  V30 4 1 5 2
M  V30 5 1 5 4
M  V30 6 1 6 5
M  V30 7 1 7 1
M  V30 8 1 8 2
M  V30 9 1 9 2
M  V30 10 1 10 3
M  V30 11 1 11 4
M  V30 12 1 12 4
M  V30 13 1 13 6
M  V30 14 1 14 6
M  V30 15 1 15 6
M  V30 16 1 16 5
M  V30 END BOND
M  V30 END CTAB
M  END
>  <i_epik_Tot_Q>  (1) 
1

>  <i_epik_Tot_abs_Q>  (1) 
1

>  <i_i_glide_confnum>  (1) 
1

>  <i_i_glide_lignum>  (1) 
25

>  <i_i_glide_posenum>  (1) 
276

>  <i_i_glide_rotatable_bonds>  (1) 
0

>  <i_lp_mmshare_version>  (1) 
72125

>  <i_m_source_file_index>  (1) 
25

>  <i_f3d_flags>  (1) 
0

>  <num_sample>  (1) 
50

>  <b_lp_Chiralities_Consistent>  (1) 
1

>  <r_epik_Charging_Adjusted_Penalty>  (1) 
0.0014863909170882658

>  <r_epik_Ionization_Penalty>  (1) 
0.0014863909170882658

>  <r_epik_Ionization_Penalty_Charging>  (1) 
0.0014863909170882658

>  <r_epik_Ionization_Penalty_Neutral>  (1) 
0

>  <r_epik_State_Penalty>  (1) 
-0

>  <r_glide_ring_energy>  (1) 
0

>  <r_i_docking_score>  (1) 
-4.3799586963807577

>  <r_i_glide_ecoul>  (1) 
-0.34068734369869735

>  <r_i_glide_eff_state_penalty>  (1) 
-0

>  <r_i_glide_einternal>  (1) 
0

>  <r_i_glide_emodel>  (1) 
-16.85209773664749

>  <r_i_glide_emodel_strain>  (1) 
1.9546320118024596e-10

>  <r_i_glide_energy>  (1) 
-12.325674361620626

>  <r_i_glide_erotb>  (1) 
0

>  <r_i_glide_esite>  (1) 
0

>  <r_i_glide_evdw>  (1) 
-11.984987017921929

>  <r_i_glide_gscore>  (1) 
-4.3799586963807577

>  <r_i_glide_gscore_strain>  (1) 
0

>  <r_i_glide_hbond>  (1) 
0

>  <r_i_glide_ligand_efficiency>  (1) 
-0.72999311606345962

>  <r_i_glide_ligand_efficiency_ln>  (1) 
-1.568888274458635

>  <r_i_glide_ligand_efficiency_sa>  (1) 
-1.3264855238246149

>  <r_i_glide_lipo>  (1) 
-1.4796062439298572

>  <r_i_glide_metal>  (1) 
-0

>  <r_i_glide_rewards>  (1) 
-2.25

>  <r_lp_Energy>  (1) 
6.8415840000000001

>  <r_lp_tautomer_probability>  (1) 
1

>  <s_epik_cmdline>  (1) 
J2VwaWtfcHl0aG9uJywgJy1waHQnLCAnMS4wJywgJy1waCcsICc3LjQnLCAnLXRuJywgJzgnLCAnLW1hJywgJzUwMCcsICctaW1hZScsICc8aW5maWxlLm1hZT4nLCAnLW9tYWUnLCAnPG91dGZpbGUubWFlPic=

>  <s_epik_input>  (1) 
W0NIMl0xW0NIXT1bQ0hdW0NIMl1OMVtDSDNd

>  <s_glide_docking_method>  (1) 
confgen

>  <s_i_glide_gridfile>  (1) 
gpcr_5ht2c_6bqh_protein_autoprepared_prepared

>  <s_lp_Force_Field>  (1) 
S-OPLS

>  <s_lp_Variant>  (1) 
Pocket2Mol_24_num_sample_50-1

>  <s_m_source_file>  (1) 
generated__ligand_Pocket2Mol_2026-05-06_prepared.sdf

>  <GenAI_Model>  (1) 
Pocket2Mol

>  <Protein>  (1) 
GPCR_5HT2C

$$$$
Pocket2Mol_13_num_sample_50
     RDKit          3D

  0  0  0  0  0  0  0  0  0  0999 V3000
M  V30 BEGIN CTAB
M  V30 COUNTS 12 12 0 0 1
M  V30 BEGIN ATOM
M  V30 1 C 35.601313 34.184586 59.295431 0
M  V30 2 O 35.180069 33.233577 60.259239 0
M  V30 3 C 37.081642 33.857402 59.053513 0
M  V30 4 C 36.018359 32.210529 60.341921 0
M  V30 5 C 37.225909 32.392095 59.448774 0
M  V30 6 O 35.867086 31.221430 61.053502 0
M  V30 7 H 35.017441 34.051051 58.384114 0
M  V30 8 H 35.464810 35.206748 59.647723 0
M  V30 9 H 37.371744 34.039375 58.018073 0
M  V30 10 H 37.712201 34.476219 59.692863 0
M  V30 11 H 38.159876 32.184466 59.970329 0
M  V30 12 H 37.135102 31.733147 58.584528 0
M  V30 END ATOM
M  V30 BEGIN BOND
M  V30 1 1 2 1
M  V30 2 1 3 1
M  V30 3 1 4 2
M  V30 4 1 5 3
M  V30 5 1 5 4
M  V30 6 2 6 4
M  V30 7 1 7 1
M  V30 8 1 8 1
M  V30 9 1 9 3
M  V30 10 1 10 3
M  V30 11 1 11 5
M  V30 12 1 12 5
M  V30 END BOND
M  V30 END CTAB
M  END
>  <i_epik_Tot_Q>  (1) 
0

>  <i_epik_Tot_abs_Q>  (1) 
0

>  <i_i_glide_confnum>  (1) 
2

>  <i_i_glide_lignum>  (1) 
14

>  <i_i_glide_posenum>  (1) 
397

>  <i_i_glide_rotatable_bonds>  (1) 
0

>  <i_lp_mmshare_version>  (1) 
72125

>  <i_m_source_file_index>  (1) 
14

>  <i_f3d_flags>  (1) 
0

>  <num_sample>  (1) 
50

>  <b_lp_Chiralities_Consistent>  (1) 
1

>  <r_epik_Charging_Adjusted_Penalty>  (1) 
0

>  <r_epik_Ionization_Penalty>  (1) 
0

>  <r_epik_Ionization_Penalty_Charging>  (1) 
0

>  <r_epik_Ionization_Penalty_Neutral>  (1) 
0

>  <r_epik_State_Penalty>  (1) 
-0

>  <r_glide_ring_energy>  (1) 
0.00053108536261990756

>  <r_i_docking_score>  (1) 
-4.3795341123509344

>  <r_i_glide_ecoul>  (1) 
-2.9831272954583645

>  <r_i_glide_eff_state_penalty>  (1) 
-0

>  <r_i_glide_einternal>  (1) 
0

>  <r_i_glide_emodel>  (1) 
-19.445091912252551

>  <r_i_glide_emodel_strain>  (1) 
0

>  <r_i_glide_energy>  (1) 
-15.020437891315661

>  <r_i_glide_erotb>  (1) 
0

>  <r_i_glide_esite>  (1) 
-0.060199488239314661

>  <r_i_glide_evdw>  (1) 
-12.037310595857296

>  <r_i_glide_gscore>  (1) 
-4.3795341123509344

>  <r_i_glide_gscore_strain>  (1) 
0

>  <r_i_glide_hbond>  (1) 
-0.32000000000000001

>  <r_i_glide_ligand_efficiency>  (1) 
-0.7299223520584891

>  <r_i_glide_ligand_efficiency_ln>  (1) 
-1.568736189712616

>  <r_i_glide_ligand_efficiency_sa>  (1) 
-1.3263569370939516

>  <r_i_glide_lipo>  (1) 
0

>  <r_i_glide_metal>  (1) 
-0

>  <r_i_glide_rewards>  (1) 
-2.9500000000000002

>  <r_lp_Energy>  (1) 
-1.1766760000000001

>  <r_lp_tautomer_probability>  (1) 
1

>  <s_epik_Chemistry_Notes>  (1) 
This compound has an ester and may undergo hydrolysis at high or low pH.

>  <s_epik_cmdline>  (1) 
J2VwaWtfcHl0aG9uJywgJy1waHQnLCAnMS4wJywgJy1waCcsICc3LjQnLCAnLXRuJywgJzgnLCAnLW1hJywgJzUwMCcsICctaW1hZScsICc8aW5maWxlLm1hZT4nLCAnLW9tYWUnLCAnPG91dGZpbGUubWFlPic=

>  <s_epik_input>  (1) 
W0NIMl0xW0NIMl1bQ0gyXU9DMT1P

>  <s_glide_docking_method>  (1) 
confgen

>  <s_i_glide_gridfile>  (1) 
gpcr_5ht2c_6bqh_protein_autoprepared_prepared

>  <s_lp_Force_Field>  (1) 
S-OPLS

>  <s_lp_Variant>  (1) 
Pocket2Mol_13_num_sample_50-1

>  <s_m_source_file>  (1) 
generated__ligand_Pocket2Mol_2026-05-06_prepared.sdf

>  <GenAI_Model>  (1) 
Pocket2Mol

>  <Protein>  (1) 
GPCR_5HT2C

$$$$
Pocket2Mol_3_num_sample_50
     RDKit          3D

  0  0  0  0  0  0  0  0  0  0999 V3000
M  V30 BEGIN CTAB
M  V30 COUNTS 12 12 0 0 1
M  V30 BEGIN ATOM
M  V30 1 C 40.129172 29.613533 51.051327 0
M  V30 2 C 39.867395 30.026659 52.236796 0
M  V30 3 C 39.467422 28.297505 50.686235 0
M  V30 4 C 38.690194 28.023054 52.126363 0
M  V30 5 N 39.067367 29.221067 52.897644 0
M  V30 6 H 40.218628 30.921467 52.731448 0
M  V30 7 H 38.776866 28.421360 49.853579 0
M  V30 8 H 40.205423 27.532294 50.448614 0
M  V30 9 H 37.609234 27.964146 51.998678 0
M  V30 10 H 39.043193 27.116608 52.619117 0
M  V30 11 H 40.767571 30.134342 50.352683 0
M  V30 12 H 38.841582 29.323656 53.877823 0
M  V30 END ATOM
M  V30 BEGIN BOND
M  V30 1 2 2 1
M  V30 2 1 3 1
M  V30 3 1 4 3
M  V30 4 1 5 2
M  V30 5 1 5 4
M  V30 6 1 6 2
M  V30 7 1 7 3
M  V30 8 1 8 3
M  V30 9 1 9 4
M  V30 10 1 10 4
M  V30 11 1 11 1
M  V30 12 1 12 5
M  V30 END BOND
M  V30 END CTAB
M  END
>  <i_epik_Tot_Q>  (1) 
0

>  <i_epik_Tot_abs_Q>  (1) 
0

>  <i_i_glide_confnum>  (1) 
1

>  <i_i_glide_lignum>  (1) 
4

>  <i_i_glide_posenum>  (1) 
308

>  <i_i_glide_rotatable_bonds>  (1) 
0

>  <i_lp_mmshare_version>  (1) 
72125

>  <i_m_source_file_index>  (1) 
4

>  <i_f3d_flags>  (1) 
0

>  <num_sample>  (1) 
50

>  <b_lp_Chiralities_Consistent>  (1) 
1

>  <r_epik_Charging_Adjusted_Penalty>  (1) 
1.6042444336516156e-06

>  <r_epik_Ionization_Penalty>  (1) 
0.0023556498582944039

>  <r_epik_Ionization_Penalty_Charging>  (1) 
1.6042444336516156e-06

>  <r_epik_Ionization_Penalty_Neutral>  (1) 
0.0023540456138607521

>  <r_epik_State_Penalty>  (1) 
-0

>  <r_glide_ring_energy>  (1) 
0

>  <r_i_docking_score>  (1) 
-4.3753539547584461

>  <r_i_glide_ecoul>  (1) 
-0.89183645921006893

>  <r_i_glide_eff_state_penalty>  (1) 
-0

>  <r_i_glide_einternal>  (1) 
0

>  <r_i_glide_emodel>  (1) 
-18.20912182894666

>  <r_i_glide_emodel_strain>  (1) 
0

>  <r_i_glide_energy>  (1) 
-14.323406176748788

>  <r_i_glide_erotb>  (1) 
0

>  <r_i_glide_esite>  (1) 
0

>  <r_i_glide_evdw>  (1) 
-13.43156971753872

>  <r_i_glide_gscore>  (1) 
-4.3753539547584461

>  <r_i_glide_gscore_strain>  (1) 
0

>  <r_i_glide_hbond>  (1) 
0

>  <r_i_glide_ligand_efficiency>  (1) 
-0.87507079095168927

>  <r_i_glide_ligand_efficiency_ln>  (1) 
-1.6767419274126694

>  <r_i_glide_ligand_efficiency_sa>  (1) 
-1.4963500041667408

>  <r_i_glide_lipo>  (1) 
-1.3200000000000001

>  <r_i_glide_metal>  (1) 
-0

>  <r_i_glide_rewards>  (1) 
-2.25

>  <r_lp_Energy>  (1) 
2.9163319999999997

>  <r_lp_tautomer_probability>  (1) 
1

>  <s_epik_Chemistry_Notes>  (1) 
This compound has an imine and may undergo hydrolysis.

>  <s_epik_cmdline>  (1) 
J2VwaWtfcHl0aG9uJywgJy1waHQnLCAnMS4wJywgJy1waCcsICc3LjQnLCAnLXRuJywgJzgnLCAnLW1hJywgJzUwMCcsICctaW1hZScsICc8aW5maWxlLm1hZT4nLCAnLW9tYWUnLCAnPG91dGZpbGUubWFlPic=

>  <s_epik_input>  (1) 
W0NIMl0xW0NIXT1OW0NIMl1bQ0gyXTE=

>  <s_glide_docking_method>  (1) 
confgen

>  <s_i_glide_gridfile>  (1) 
gpcr_5ht2c_6bqh_protein_autoprepared_prepared

>  <s_lp_Force_Field>  (1) 
S-OPLS

>  <s_lp_Variant>  (1) 
Pocket2Mol_3_num_sample_50-1

>  <s_m_source_file>  (1) 
generated__ligand_Pocket2Mol_2026-05-06_prepared.sdf

>  <GenAI_Model>  (1) 
Pocket2Mol

>  <Protein>  (1) 
GPCR_5HT2C

$$$$
Pocket2Mol_12_num_sample_50
     RDKit          3D

  0  0  0  0  0  0  0  0  0  0999 V3000
M  V30 BEGIN CTAB
M  V30 COUNTS 10 10 0 0 1
M  V30 BEGIN ATOM
M  V30 1 C 35.487349 34.231659 59.190325 0
M  V30 2 C 36.916691 33.737897 59.001084 0
M  V30 3 O 34.944785 33.248370 60.040427 0
M  V30 4 O 37.046084 32.815598 60.057622 0
M  V30 5 C 35.876055 32.480555 60.596622 0
M  V30 6 O 35.691687 31.621430 61.453501 0
M  V30 7 H 34.937817 34.307511 58.253501 0
M  V30 8 H 35.467410 35.199208 59.692218 0
M  V30 9 H 37.039421 33.221430 58.048112 0
M  V30 10 H 37.648247 34.542589 59.068396 0
M  V30 END ATOM
M  V30 BEGIN BOND
M  V30 1 1 2 1
M  V30 2 1 3 1
M  V30 3 1 4 2
M  V30 4 1 5 3
M  V30 5 1 5 4
M  V30 6 2 6 5
M  V30 7 1 7 1
M  V30 8 1 8 1
M  V30 9 1 9 2
M  V30 10 1 10 2
M  V30 END BOND
M  V30 END CTAB
M  END
>  <i_epik_Tot_Q>  (1) 
0

>  <i_epik_Tot_abs_Q>  (1) 
0

>  <i_i_glide_confnum>  (1) 
1

>  <i_i_glide_lignum>  (1) 
13

>  <i_i_glide_posenum>  (1) 
359

>  <i_i_glide_rotatable_bonds>  (1) 
0

>  <i_lp_mmshare_version>  (1) 
72125

>  <i_m_source_file_index>  (1) 
13

>  <i_f3d_flags>  (1) 
0

>  <num_sample>  (1) 
50

>  <b_lp_Chiralities_Consistent>  (1) 
1

>  <r_epik_Charging_Adjusted_Penalty>  (1) 
0

>  <r_epik_Ionization_Penalty>  (1) 
0

>  <r_epik_Ionization_Penalty_Charging>  (1) 
0

>  <r_epik_Ionization_Penalty_Neutral>  (1) 
0

>  <r_epik_State_Penalty>  (1) 
-0

>  <r_glide_ring_energy>  (1) 
0

>  <r_i_docking_score>  (1) 
-4.371510169492435

>  <r_i_glide_ecoul>  (1) 
-3.6939697432164662

>  <r_i_glide_eff_state_penalty>  (1) 
-0

>  <r_i_glide_einternal>  (1) 
0

>  <r_i_glide_emodel>  (1) 
-19.447687341961156

>  <r_i_glide_emodel_strain>  (1) 
0

>  <r_i_glide_energy>  (1) 
-14.963042897465073

>  <r_i_glide_erotb>  (1) 
0

>  <r_i_glide_esite>  (1) 
-0.025627716964201776

>  <r_i_glide_evdw>  (1) 
-11.269073154248607

>  <r_i_glide_gscore>  (1) 
-4.371510169492435

>  <r_i_glide_gscore_strain>  (1) 
0

>  <r_i_glide_hbond>  (1) 
-0.32000000000000001

>  <r_i_glide_ligand_efficiency>  (1) 
-0.72858502824873916

>  <r_i_glide_ligand_efficiency_ln>  (1) 
-1.5658620370691156

>  <r_i_glide_ligand_efficiency_sa>  (1) 
-1.3239268584599704

>  <r_i_glide_lipo>  (1) 
0

>  <r_i_glide_metal>  (1) 
-0

>  <r_i_glide_rewards>  (1) 
-2.9083333333333332

>  <r_lp_Energy>  (1) 
-6.8415979999999994

>  <r_lp_tautomer_probability>  (1) 
1

>  <s_epik_Chemistry_Notes>  (1) 
This compound has an ester and may undergo hydrolysis at high or low pH.

>  <s_epik_cmdline>  (1) 
J2VwaWtfcHl0aG9uJywgJy1waHQnLCAnMS4wJywgJy1waCcsICc3LjQnLCAnLXRuJywgJzgnLCAnLW1hJywgJzUwMCcsICctaW1hZScsICc8aW5maWxlLm1hZT4nLCAnLW9tYWUnLCAnPG91dGZpbGUubWFlPic=

>  <s_epik_input>  (1) 
TzFbQ0gyXVtDSDJdT0MxPU8=

>  <s_glide_docking_method>  (1) 
confgen

>  <s_i_glide_gridfile>  (1) 
gpcr_5ht2c_6bqh_protein_autoprepared_prepared

>  <s_lp_Force_Field>  (1) 
S-OPLS

>  <s_lp_Variant>  (1) 
Pocket2Mol_12_num_sample_50-1

>  <s_m_source_file>  (1) 
generated__ligand_Pocket2Mol_2026-05-06_prepared.sdf

>  <GenAI_Model>  (1) 
Pocket2Mol

>  <Protein>  (1) 
GPCR_5HT2C

$$$$
Pocket2Mol_40_num_sample_50
     RDKit          3D

  0  0  0  0  0  0  0  0  0  0999 V3000
M  V30 BEGIN CTAB
M  V30 COUNTS 10 9 0 0 1
M  V30 BEGIN ATOM
M  V30 1 C 39.259608 33.573858 61.748583 0
M  V30 2 O 39.812624 32.274949 61.681539 0
M  V30 3 C 39.003970 31.208565 61.492567 0
M  V30 4 C 39.828747 29.904784 61.316535 0
M  V30 5 O 37.769539 31.240400 61.453494 0
M  V30 6 O 39.168248 28.876127 61.053493 0
M  V30 7 O 41.067303 30.021515 61.453503 0 CHG=-1
M  V30 8 H 40.057973 34.315436 61.771627 0
M  V30 9 H 38.667402 33.686291 62.653623 0
M  V30 10 H 38.627354 33.779233 60.883747 0
M  V30 END ATOM
M  V30 BEGIN BOND
M  V30 1 1 2 1
M  V30 2 1 3 2
M  V30 3 1 4 3
M  V30 4 2 5 3
M  V30 5 2 6 4
M  V30 6 1 7 4
M  V30 7 1 8 1
M  V30 8 1 9 1
M  V30 9 1 10 1
M  V30 END BOND
M  V30 END CTAB
M  END
>  <i_epik_Tot_Q>  (1) 
-1

>  <i_epik_Tot_abs_Q>  (1) 
1

>  <i_i_glide_confnum>  (1) 
1

>  <i_i_glide_lignum>  (1) 
41

>  <i_i_glide_posenum>  (1) 
194

>  <i_i_glide_rotatable_bonds>  (1) 
2

>  <i_lp_mmshare_version>  (1) 
72125

>  <i_m_source_file_index>  (1) 
41

>  <i_f3d_flags>  (1) 
0

>  <num_sample>  (1) 
50

>  <b_lp_Chiralities_Consistent>  (1) 
1

>  <r_epik_Charging_Adjusted_Penalty>  (1) 
5.6581681309968728e-06

>  <r_epik_Ionization_Penalty>  (1) 
5.6581681309968728e-06

>  <r_epik_Ionization_Penalty_Charging>  (1) 
5.6581681309968728e-06

>  <r_epik_Ionization_Penalty_Neutral>  (1) 
0

>  <r_epik_State_Penalty>  (1) 
-0

>  <r_glide_ring_energy>  (1) 
0

>  <r_i_docking_score>  (1) 
-4.3556390104154392

>  <r_i_glide_ecoul>  (1) 
-5.0231183050243224

>  <r_i_glide_eff_state_penalty>  (1) 
-0

>  <r_i_glide_einternal>  (1) 
0.37958060478302036

>  <r_i_glide_emodel>  (1) 
-18.062254168925552

>  <r_i_glide_emodel_strain>  (1) 
0

>  <r_i_glide_energy>  (1) 
-13.699292267603701

>  <r_i_glide_erotb>  (1) 
0

>  <r_i_glide_esite>  (1) 
0

>  <r_i_glide_evdw>  (1) 
-8.6761739625793783

>  <r_i_glide_gscore>  (1) 
-4.3556390104154392

>  <r_i_glide_gscore_strain>  (1) 
0

>  <r_i_glide_hbond>  (1) 
-0.27678356745400762

>  <r_i_glide_ligand_efficiency>  (1) 
-0.62223414434506275

>  <r_i_glide_ligand_efficiency_ln>  (1) 
-1.4785376301487654

>  <r_i_glide_ligand_efficiency_sa>  (1) 
-1.1902910977033665

>  <r_i_glide_lipo>  (1) 
-0.18885661011332899

>  <r_i_glide_metal>  (1) 
-0

>  <r_i_glide_rewards>  (1) 
-2.7027223889654848

>  <r_lp_Energy>  (1) 
21.029133999999999

>  <r_lp_tautomer_probability>  (1) 
1

>  <s_epik_Chemistry_Notes>  (1) 
This compound has an ester and may undergo hydrolysis at high or low pH.

>  <s_epik_cmdline>  (1) 
J2VwaWtfcHl0aG9uJywgJy1waHQnLCAnMS4wJywgJy1waCcsICc3LjQnLCAnLXRuJywgJzgnLCAnLW1hJywgJzUwMCcsICctaW1hZScsICc8aW5maWxlLm1hZT4nLCAnLW9tYWUnLCAnPG91dGZpbGUubWFlPic=

>  <s_epik_input>  (1) 
W0NIM11PQyg9TylDKD1PKVtPSF0=

>  <s_glide_docking_method>  (1) 
confgen

>  <s_i_glide_gridfile>  (1) 
gpcr_5ht2c_6bqh_protein_autoprepared_prepared

>  <s_lp_Force_Field>  (1) 
S-OPLS

>  <s_lp_Variant>  (1) 
Pocket2Mol_40_num_sample_50-1

>  <s_m_source_file>  (1) 
generated__ligand_Pocket2Mol_2026-05-06_prepared.sdf

>  <GenAI_Model>  (1) 
Pocket2Mol

>  <Protein>  (1) 
GPCR_5HT2C

$$$$
Pocket2Mol_1_num_sample_50
     RDKit          3D

  0  0  0  0  0  0  0  0  0  0999 V3000
M  V30 BEGIN CTAB
M  V30 COUNTS 9 9 0 0 1
M  V30 BEGIN ATOM
M  V30 1 C 39.067403 27.635006 51.058326 0
M  V30 2 O 38.608156 27.806647 52.333858 0
M  V30 3 C 39.067406 29.030901 52.731615 0
M  V30 4 C 39.797487 28.715196 50.653502 0
M  V30 5 C 39.801327 29.621429 51.742322 0
M  V30 6 H 38.784801 26.703706 50.589435 0
M  V30 7 H 38.787152 29.324013 53.732826 0
M  V30 8 H 40.267405 28.836781 49.689959 0
M  V30 9 H 40.277699 30.589931 51.796634 0
M  V30 END ATOM
M  V30 BEGIN BOND
M  V30 1 1 2 1
M  V30 2 1 3 2
M  V30 3 2 4 1
M  V30 4 2 5 3
M  V30 5 1 5 4
M  V30 6 1 6 1
M  V30 7 1 7 3
M  V30 8 1 8 4
M  V30 9 1 9 5
M  V30 END BOND
M  V30 END CTAB
M  END
>  <i_epik_Tot_Q>  (1) 
0

>  <i_epik_Tot_abs_Q>  (1) 
0

>  <i_i_glide_confnum>  (1) 
1

>  <i_i_glide_lignum>  (1) 
2

>  <i_i_glide_posenum>  (1) 
146

>  <i_i_glide_rotatable_bonds>  (1) 
0

>  <i_lp_mmshare_version>  (1) 
72125

>  <i_m_source_file_index>  (1) 
2

>  <i_f3d_flags>  (1) 
0

>  <num_sample>  (1) 
50

>  <b_lp_Chiralities_Consistent>  (1) 
1

>  <r_epik_Charging_Adjusted_Penalty>  (1) 
0

>  <r_epik_Ionization_Penalty>  (1) 
0

>  <r_epik_Ionization_Penalty_Charging>  (1) 
0

>  <r_epik_Ionization_Penalty_Neutral>  (1) 
0

>  <r_epik_State_Penalty>  (1) 
-0

>  <r_glide_ring_energy>  (1) 
0

>  <r_i_docking_score>  (1) 
-4.3545157148444185

>  <r_i_glide_ecoul>  (1) 
-0.43334581564048658

>  <r_i_glide_eff_state_penalty>  (1) 
-0

>  <r_i_glide_einternal>  (1) 
0

>  <r_i_glide_emodel>  (1) 
-16.580554392559826

>  <r_i_glide_emodel_strain>  (1) 
0

>  <r_i_glide_energy>  (1) 
-12.989088577376112

>  <r_i_glide_erotb>  (1) 
0

>  <r_i_glide_esite>  (1) 
0

>  <r_i_glide_evdw>  (1) 
-12.555742761735626

>  <r_i_glide_gscore>  (1) 
-4.3545157148444185

>  <r_i_glide_gscore_strain>  (1) 
0

>  <r_i_glide_hbond>  (1) 
0

>  <r_i_glide_ligand_efficiency>  (1) 
-0.87090314296888371

>  <r_i_glide_ligand_efficiency_ln>  (1) 
-1.668756207647224

>  <r_i_glide_ligand_efficiency_sa>  (1) 
-1.4892234263619277

>  <r_i_glide_lipo>  (1) 
-1.299037772622645

>  <r_i_glide_metal>  (1) 
-0

>  <r_i_glide_rewards>  (1) 
-2.3626889317889188

>  <r_lp_Energy>  (1) 
2.5980879999999997

>  <r_lp_tautomer_probability>  (1) 
1

>  <s_epik_cmdline>  (1) 
J2VwaWtfcHl0aG9uJywgJy1waHQnLCAnMS4wJywgJy1waCcsICc3LjQnLCAnLXRuJywgJzgnLCAnLW1hJywgJzUwMCcsICctaW1hZScsICc8aW5maWxlLm1hZT4nLCAnLW9tYWUnLCAnPG91dGZpbGUubWFlPic=

>  <s_epik_input>  (1) 
W2NIXTFvW2NIXVtjSF1bY0hdMQ==

>  <s_glide_docking_method>  (1) 
confgen

>  <s_i_glide_gridfile>  (1) 
gpcr_5ht2c_6bqh_protein_autoprepared_prepared

>  <s_lp_Force_Field>  (1) 
S-OPLS

>  <s_lp_Variant>  (1) 
Pocket2Mol_1_num_sample_50-1

>  <s_m_source_file>  (1) 
generated__ligand_Pocket2Mol_2026-05-06_prepared.sdf

>  <GenAI_Model>  (1) 
Pocket2Mol

>  <Protein>  (1) 
GPCR_5HT2C

$$$$
Pocket2Mol_49_num_sample_50
     RDKit          3D

  0  0  0  0  0  0  0  0  0  0999 V3000
M  V30 BEGIN CTAB
M  V30 COUNTS 13 13 0 0 1
M  V30 BEGIN ATOM
M  V30 1 C 36.356470 31.300945 60.252852 0
M  V30 2 O 35.866319 31.916443 61.433899 0
M  V30 3 C 35.455423 33.221429 61.053511 0
M  V30 4 C 37.162601 32.405659 59.570966 0
M  V30 5 C 36.561046 33.695627 60.112598 0
M  V30 6 H 36.958370 30.421188 60.478127 0
M  V30 7 H 35.518160 30.992211 59.625342 0
M  V30 8 H 34.500652 33.164092 60.527614 0
M  V30 9 H 35.328299 33.874532 61.917133 0
M  V30 10 H 38.215242 32.337355 59.846616 0
M  V30 11 H 37.093794 32.338817 58.484463 0
M  V30 12 H 36.171728 34.338620 59.322016 0
M  V30 13 H 37.316255 34.255895 60.664749 0
M  V30 END ATOM
M  V30 BEGIN BOND
M  V30 1 1 2 1
M  V30 2 1 3 2
M  V30 3 1 4 1
M  V30 4 1 5 3
M  V30 5 1 5 4
M  V30 6 1 6 1
M  V30 7 1 7 1
M  V30 8 1 8 3
M  V30 9 1 9 3
M  V30 10 1 10 4
M  V30 11 1 11 4
M  V30 12 1 12 5
M  V30 13 1 13 5
M  V30 END BOND
M  V30 END CTAB
M  END
>  <i_epik_Tot_Q>  (1) 
0

>  <i_epik_Tot_abs_Q>  (1) 
0

>  <i_i_glide_confnum>  (1) 
2

>  <i_i_glide_lignum>  (1) 
50

>  <i_i_glide_posenum>  (1) 
329

>  <i_i_glide_rotatable_bonds>  (1) 
0

>  <i_lp_mmshare_version>  (1) 
72125

>  <i_m_source_file_index>  (1) 
50

>  <i_f3d_flags>  (1) 
0

>  <num_sample>  (1) 
50

>  <b_lp_Chiralities_Consistent>  (1) 
1

>  <r_epik_Charging_Adjusted_Penalty>  (1) 
0

>  <r_epik_Ionization_Penalty>  (1) 
1.3889264151150229e-11

>  <r_epik_Ionization_Penalty_Charging>  (1) 
0

>  <r_epik_Ionization_Penalty_Neutral>  (1) 
1.3889264151150229e-11

>  <r_epik_State_Penalty>  (1) 
-0

>  <r_glide_ring_energy>  (1) 
9.8467329014132268e-05

>  <r_i_docking_score>  (1) 
-4.3529794971165838

>  <r_i_glide_ecoul>  (1) 
-2.5688454414601134

>  <r_i_glide_eff_state_penalty>  (1) 
-0

>  <r_i_glide_einternal>  (1) 
0

>  <r_i_glide_emodel>  (1) 
-16.285762558488159

>  <r_i_glide_emodel_strain>  (1) 
0

>  <r_i_glide_energy>  (1) 
-12.754310454461592

>  <r_i_glide_erotb>  (1) 
0

>  <r_i_glide_esite>  (1) 
0

>  <r_i_glide_evdw>  (1) 
-10.185465013001478

>  <r_i_glide_gscore>  (1) 
-4.3529794971165838

>  <r_i_glide_gscore_strain>  (1) 
0

>  <r_i_glide_hbond>  (1) 
-0.32000000000000001

>  <r_i_glide_ligand_efficiency>  (1) 
-0.87059589942331672

>  <r_i_glide_ligand_efficiency_ln>  (1) 
-1.6681674916940623

>  <r_i_glide_ligand_efficiency_sa>  (1) 
-1.4886980472892366

>  <r_i_glide_lipo>  (1) 
-0.17230965564290213

>  <r_i_glide_metal>  (1) 
-0

>  <r_i_glide_rewards>  (1) 
-2.9660697746045912

>  <r_lp_Energy>  (1) 
3.9174029999999997

>  <r_lp_tautomer_probability>  (1) 
1

>  <s_epik_cmdline>  (1) 
J2VwaWtfcHl0aG9uJywgJy1waHQnLCAnMS4wJywgJy1waCcsICc3LjQnLCAnLXRuJywgJzgnLCAnLW1hJywgJzUwMCcsICctaW1hZScsICc8aW5maWxlLm1hZT4nLCAnLW9tYWUnLCAnPG91dGZpbGUubWFlPic=

>  <s_epik_input>  (1) 
W0NIMl0xT1tDSDJdW0NIMl1bQ0gyXTE=

>  <s_glide_docking_method>  (1) 
confgen

>  <s_i_glide_gridfile>  (1) 
gpcr_5ht2c_6bqh_protein_autoprepared_prepared

>  <s_lp_Force_Field>  (1) 
S-OPLS

>  <s_lp_Variant>  (1) 
Pocket2Mol_49_num_sample_50-1

>  <s_m_source_file>  (1) 
generated__ligand_Pocket2Mol_2026-05-06_prepared.sdf

>  <GenAI_Model>  (1) 
Pocket2Mol

>  <Protein>  (1) 
GPCR_5HT2C

$$$$
Pocket2Mol_3_num_sample_50
     RDKit          3D

  0  0  0  0  0  0  0  0  0  0999 V3000
M  V30 BEGIN CTAB
M  V30 COUNTS 12 12 0 0 1
M  V30 BEGIN ATOM
M  V30 1 C 38.823371 28.255667 52.006555 0
M  V30 2 C 39.067397 29.221400 52.815992 0
M  V30 3 C 39.492194 28.388065 50.653502 0
M  V30 4 C 40.231086 29.851002 50.907151 0
M  V30 5 N 39.867403 30.134243 52.307110 0
M  V30 6 H 38.697552 29.366634 53.821379 0
M  V30 7 H 40.201410 27.580320 50.477555 0
M  V30 8 H 38.754919 28.421429 49.853528 0
M  V30 9 H 41.313194 29.791656 50.788698 0
M  V30 10 H 39.837845 30.622695 50.244517 0
M  V30 11 H 38.186299 27.414048 52.237001 0
M  V30 12 H 39.976276 31.059031 52.702289 0
M  V30 END ATOM
M  V30 BEGIN BOND
M  V30 1 2 2 1
M  V30 2 1 3 1
M  V30 3 1 4 3
M  V30 4 1 5 2
M  V30 5 1 5 4
M  V30 6 1 6 2
M  V30 7 1 7 3
M  V30 8 1 8 3
M  V30 9 1 9 4
M  V30 10 1 10 4
M  V30 11 1 11 1
M  V30 12 1 12 5
M  V30 END BOND
M  V30 END CTAB
M  END
>  <i_epik_Tot_Q>  (1) 
0

>  <i_epik_Tot_abs_Q>  (1) 
0

>  <i_i_glide_confnum>  (1) 
1

>  <i_i_glide_lignum>  (1) 
4

>  <i_i_glide_posenum>  (1) 
151

>  <i_i_glide_rotatable_bonds>  (1) 
0

>  <i_lp_mmshare_version>  (1) 
72125

>  <i_m_source_file_index>  (1) 
4

>  <i_f3d_flags>  (1) 
0

>  <num_sample>  (1) 
50

>  <b_lp_Chiralities_Consistent>  (1) 
1

>  <r_epik_Charging_Adjusted_Penalty>  (1) 
1.6042444336516156e-06

>  <r_epik_Ionization_Penalty>  (1) 
0.0023556498582944039

>  <r_epik_Ionization_Penalty_Charging>  (1) 
1.6042444336516156e-06

>  <r_epik_Ionization_Penalty_Neutral>  (1) 
0.0023540456138607521

>  <r_epik_State_Penalty>  (1) 
-0

>  <r_glide_ring_energy>  (1) 
0

>  <r_i_docking_score>  (1) 
-4.3490575378242049

>  <r_i_glide_ecoul>  (1) 
-1.2342349154797858

>  <r_i_glide_eff_state_penalty>  (1) 
-0

>  <r_i_glide_einternal>  (1) 
0

>  <r_i_glide_emodel>  (1) 
-18.507136536689792

>  <r_i_glide_emodel_strain>  (1) 
0

>  <r_i_glide_energy>  (1) 
-14.644774514834664

>  <r_i_glide_erotb>  (1) 
0

>  <r_i_glide_esite>  (1) 
0

>  <r_i_glide_evdw>  (1) 
-13.410539599354879

>  <r_i_glide_gscore>  (1) 
-4.3490575378242049

>  <r_i_glide_gscore_strain>  (1) 
0

>  <r_i_glide_hbond>  (1) 
0

>  <r_i_glide_ligand_efficiency>  (1) 
-0.86981150756484094

>  <r_i_glide_ligand_efficiency_ln>  (1) 
-1.6666645016157431

>  <r_i_glide_ligand_efficiency_sa>  (1) 
-1.487356756078474

>  <r_i_glide_lipo>  (1) 
-1.2433953205344928

>  <r_i_glide_metal>  (1) 
-0

>  <r_i_glide_rewards>  (1) 
-2.25

>  <r_lp_Energy>  (1) 
2.9163319999999997

>  <r_lp_tautomer_probability>  (1) 
1

>  <s_epik_Chemistry_Notes>  (1) 
This compound has an imine and may undergo hydrolysis.

>  <s_epik_cmdline>  (1) 
J2VwaWtfcHl0aG9uJywgJy1waHQnLCAnMS4wJywgJy1waCcsICc3LjQnLCAnLXRuJywgJzgnLCAnLW1hJywgJzUwMCcsICctaW1hZScsICc8aW5maWxlLm1hZT4nLCAnLW9tYWUnLCAnPG91dGZpbGUubWFlPic=

>  <s_epik_input>  (1) 
W0NIMl0xW0NIXT1OW0NIMl1bQ0gyXTE=

>  <s_glide_docking_method>  (1) 
confgen

>  <s_i_glide_gridfile>  (1) 
gpcr_5ht2c_6bqh_protein_autoprepared_prepared

>  <s_lp_Force_Field>  (1) 
S-OPLS

>  <s_lp_Variant>  (1) 
Pocket2Mol_3_num_sample_50-1

>  <s_m_source_file>  (1) 
generated__ligand_Pocket2Mol_2026-05-06_prepared.sdf

>  <GenAI_Model>  (1) 
Pocket2Mol

>  <Protein>  (1) 
GPCR_5HT2C

$$$$
Pocket2Mol_12_num_sample_50
     RDKit          3D

  0  0  0  0  0  0  0  0  0  0999 V3000
M  V30 BEGIN CTAB
M  V30 COUNTS 10 10 0 0 1
M  V30 BEGIN ATOM
M  V30 1 C 39.867403 30.420725 52.403930 0
M  V30 2 C 40.390254 30.466855 50.971327 0
M  V30 3 O 39.145539 29.209311 52.404180 0
M  V30 4 O 40.245213 29.128004 50.562731 0
M  V30 5 C 39.450276 28.428905 51.367668 0
M  V30 6 O 39.067404 27.276118 51.188511 0
M  V30 7 H 39.244496 31.279401 52.653568 0
M  V30 8 H 40.667400 30.356155 53.137334 0
M  V30 9 H 39.769287 31.106636 50.343268 0
M  V30 10 H 41.424718 30.805993 50.911801 0
M  V30 END ATOM
M  V30 BEGIN BOND
M  V30 1 1 2 1
M  V30 2 1 3 1
M  V30 3 1 4 2
M  V30 4 1 5 3
M  V30 5 1 5 4
M  V30 6 2 6 5
M  V30 7 1 7 1
M  V30 8 1 8 1
M  V30 9 1 9 2
M  V30 10 1 10 2
M  V30 END BOND
M  V30 END CTAB
M  END
>  <i_epik_Tot_Q>  (1) 
0

>  <i_epik_Tot_abs_Q>  (1) 
0

>  <i_i_glide_confnum>  (1) 
1

>  <i_i_glide_lignum>  (1) 
13

>  <i_i_glide_posenum>  (1) 
262

>  <i_i_glide_rotatable_bonds>  (1) 
0

>  <i_lp_mmshare_version>  (1) 
72125

>  <i_m_source_file_index>  (1) 
13

>  <i_f3d_flags>  (1) 
0

>  <num_sample>  (1) 
50

>  <b_lp_Chiralities_Consistent>  (1) 
1

>  <r_epik_Charging_Adjusted_Penalty>  (1) 
0

>  <r_epik_Ionization_Penalty>  (1) 
0

>  <r_epik_Ionization_Penalty_Charging>  (1) 
0

>  <r_epik_Ionization_Penalty_Neutral>  (1) 
0

>  <r_epik_State_Penalty>  (1) 
-0

>  <r_glide_ring_energy>  (1) 
0

>  <r_i_docking_score>  (1) 
-4.3465734724287906

>  <r_i_glide_ecoul>  (1) 
0.076224226874582718

>  <r_i_glide_eff_state_penalty>  (1) 
-0

>  <r_i_glide_einternal>  (1) 
0

>  <r_i_glide_emodel>  (1) 
-20.358268888593937

>  <r_i_glide_emodel_strain>  (1) 
0

>  <r_i_glide_energy>  (1) 
-15.899206500553079

>  <r_i_glide_erotb>  (1) 
0

>  <r_i_glide_esite>  (1) 
0

>  <r_i_glide_evdw>  (1) 
-15.975430727427662

>  <r_i_glide_gscore>  (1) 
-4.3465734724287906

>  <r_i_glide_gscore_strain>  (1) 
0

>  <r_i_glide_hbond>  (1) 
0

>  <r_i_glide_ligand_efficiency>  (1) 
-0.72442891207146509

>  <r_i_glide_ligand_efficiency_ln>  (1) 
-1.5569297857994389

>  <r_i_glide_ligand_efficiency_sa>  (1) 
-1.3163746941680428

>  <r_i_glide_lipo>  (1) 
-0.66000000000000003

>  <r_i_glide_metal>  (1) 
-0

>  <r_i_glide_rewards>  (1) 
-2.899235570088595

>  <r_lp_Energy>  (1) 
-6.8415979999999994

>  <r_lp_tautomer_probability>  (1) 
1

>  <s_epik_Chemistry_Notes>  (1) 
This compound has an ester and may undergo hydrolysis at high or low pH.

>  <s_epik_cmdline>  (1) 
J2VwaWtfcHl0aG9uJywgJy1waHQnLCAnMS4wJywgJy1waCcsICc3LjQnLCAnLXRuJywgJzgnLCAnLW1hJywgJzUwMCcsICctaW1hZScsICc8aW5maWxlLm1hZT4nLCAnLW9tYWUnLCAnPG91dGZpbGUubWFlPic=

>  <s_epik_input>  (1) 
TzFbQ0gyXVtDSDJdT0MxPU8=

>  <s_glide_docking_method>  (1) 
confgen

>  <s_i_glide_gridfile>  (1) 
gpcr_5ht2c_6bqh_protein_autoprepared_prepared

>  <s_lp_Force_Field>  (1) 
S-OPLS

>  <s_lp_Variant>  (1) 
Pocket2Mol_12_num_sample_50-1

>  <s_m_source_file>  (1) 
generated__ligand_Pocket2Mol_2026-05-06_prepared.sdf

>  <GenAI_Model>  (1) 
Pocket2Mol

>  <Protein>  (1) 
GPCR_5HT2C

$$$$
Pocket2Mol_21_num_sample_50
     RDKit          3D

  0  0  0  0  0  0  0  0  0  0999 V3000
M  V30 BEGIN CTAB
M  V30 COUNTS 14 14 0 0 1
M  V30 BEGIN ATOM
M  V30 1 C 38.886191 30.492655 54.507443 0
M  V30 2 C 37.445979 30.113166 54.814737 0
M  V30 3 O 39.467403 29.240840 54.209862 0
M  V30 4 C 38.432651 28.410731 53.796376 0
M  V30 5 O 37.234056 29.100985 53.857963 0
M  V30 6 C 38.678192 27.982854 52.346718 0
M  V30 7 H 39.387235 30.993149 55.336416 0
M  V30 8 H 38.939584 31.131213 53.624381 0
M  V30 9 H 37.350460 29.703983 55.822466 0
M  V30 10 H 36.746216 30.942068 54.699770 0
M  V30 11 H 38.386969 27.555935 54.472709 0
M  V30 12 H 38.721892 28.858830 51.699109 0
M  V30 13 H 37.868498 27.333800 52.012133 0
M  V30 14 H 39.620696 27.439538 52.276132 0
M  V30 END ATOM
M  V30 BEGIN BOND
M  V30 1 1 2 1
M  V30 2 1 3 1
M  V30 3 1 4 3
M  V30 4 1 5 2
M  V30 5 1 5 4
M  V30 6 1 6 4
M  V30 7 1 7 1
M  V30 8 1 8 1
M  V30 9 1 9 2
M  V30 10 1 10 2
M  V30 11 1 11 4
M  V30 12 1 12 6
M  V30 13 1 13 6
M  V30 14 1 14 6
M  V30 END BOND
M  V30 END CTAB
M  END
>  <i_epik_Tot_Q>  (1) 
0

>  <i_epik_Tot_abs_Q>  (1) 
0

>  <i_i_glide_confnum>  (1) 
3

>  <i_i_glide_lignum>  (1) 
22

>  <i_i_glide_posenum>  (1) 
383

>  <i_i_glide_rotatable_bonds>  (1) 
0

>  <i_lp_mmshare_version>  (1) 
72125

>  <i_m_source_file_index>  (1) 
22

>  <i_f3d_flags>  (1) 
0

>  <num_sample>  (1) 
50

>  <b_lp_Chiralities_Consistent>  (1) 
1

>  <r_epik_Charging_Adjusted_Penalty>  (1) 
0

>  <r_epik_Ionization_Penalty>  (1) 
7.9724310449397378e-14

>  <r_epik_Ionization_Penalty_Charging>  (1) 
0

>  <r_epik_Ionization_Penalty_Neutral>  (1) 
7.9724310449397378e-14

>  <r_epik_State_Penalty>  (1) 
-0

>  <r_glide_ring_energy>  (1) 
1.2362365743684729

>  <r_i_docking_score>  (1) 
-4.3382140230796287

>  <r_i_glide_ecoul>  (1) 
-1.3818713845088104

>  <r_i_glide_eff_state_penalty>  (1) 
-0

>  <r_i_glide_einternal>  (1) 
0

>  <r_i_glide_emodel>  (1) 
-17.617830897871606

>  <r_i_glide_emodel_strain>  (1) 
0

>  <r_i_glide_energy>  (1) 
-13.499442708322102

>  <r_i_glide_erotb>  (1) 
0

>  <r_i_glide_esite>  (1) 
0

>  <r_i_glide_evdw>  (1) 
-12.117571323813291

>  <r_i_glide_gscore>  (1) 
-4.3382140230796287

>  <r_i_glide_gscore_strain>  (1) 
0

>  <r_i_glide_hbond>  (1) 
0

>  <r_i_glide_ligand_efficiency>  (1) 
-0.72303567051327144

>  <r_i_glide_ligand_efficiency_ln>  (1) 
-1.5539354557214706

>  <r_i_glide_ligand_efficiency_sa>  (1) 
-1.3138430062418596

>  <r_i_glide_lipo>  (1) 
-0.53706047424329872

>  <r_i_glide_metal>  (1) 
-0

>  <r_i_glide_rewards>  (1) 
-2.9879942749693438

>  <r_lp_Energy>  (1) 
-12.129052

>  <r_lp_tautomer_probability>  (1) 
1

>  <s_epik_Chemistry_Notes>  (1) 
This compound contains an acetal/aminal-like group ( X-CH(R)-Y where X, Y are N, S, or O) that may be acid/base labile, releasing an aldehyde.

>  <s_epik_cmdline>  (1) 
J2VwaWtfcHl0aG9uJywgJy1waHQnLCAnMS4wJywgJy1waCcsICc3LjQnLCAnLXRuJywgJzgnLCAnLW1hJywgJzUwMCcsICctaW1hZScsICc8aW5maWxlLm1hZT4nLCAnLW9tYWUnLCAnPG91dGZpbGUubWFlPic=

>  <s_epik_input>  (1) 
TzFbQ0gyXVtDSDJdT1tDSF0xW0NIM10=

>  <s_glide_docking_method>  (1) 
confgen

>  <s_i_glide_gridfile>  (1) 
gpcr_5ht2c_6bqh_protein_autoprepared_prepared

>  <s_lp_Force_Field>  (1) 
S-OPLS

>  <s_lp_Variant>  (1) 
Pocket2Mol_21_num_sample_50-1

>  <s_m_source_file>  (1) 
generated__ligand_Pocket2Mol_2026-05-06_prepared.sdf

>  <GenAI_Model>  (1) 
Pocket2Mol

>  <Protein>  (1) 
GPCR_5HT2C

$$$$
Pocket2Mol_3_num_sample_50
     RDKit          3D

  0  0  0  0  0  0  0  0  0  0999 V3000
M  V30 BEGIN CTAB
M  V30 COUNTS 12 12 0 0 1
M  V30 BEGIN ATOM
M  V30 1 C 39.867403 30.021423 52.213861 0
M  V30 2 C 40.105552 29.603589 51.023624 0
M  V30 3 C 38.953846 29.121941 53.024806 0
M  V30 4 C 38.667402 27.983700 51.853698 0
M  V30 5 N 39.514871 28.460929 50.745968 0
M  V30 6 H 40.702038 30.072277 50.253682 0
M  V30 7 H 39.467221 28.713708 53.895071 0
M  V30 8 H 38.047146 29.640729 53.335871 0
M  V30 9 H 38.963911 26.983540 52.170982 0
M  V30 10 H 37.619652 27.967816 51.552588 0
M  V30 11 H 40.257614 30.941669 52.624750 0
M  V30 12 H 39.363583 28.138915 49.800142 0
M  V30 END ATOM
M  V30 BEGIN BOND
M  V30 1 2 2 1
M  V30 2 1 3 1
M  V30 3 1 4 3
M  V30 4 1 5 2
M  V30 5 1 5 4
M  V30 6 1 6 2
M  V30 7 1 7 3
M  V30 8 1 8 3
M  V30 9 1 9 4
M  V30 10 1 10 4
M  V30 11 1 11 1
M  V30 12 1 12 5
M  V30 END BOND
M  V30 END CTAB
M  END
>  <i_epik_Tot_Q>  (1) 
0

>  <i_epik_Tot_abs_Q>  (1) 
0

>  <i_i_glide_confnum>  (1) 
1

>  <i_i_glide_lignum>  (1) 
4

>  <i_i_glide_posenum>  (1) 
79

>  <i_i_glide_rotatable_bonds>  (1) 
0

>  <i_lp_mmshare_version>  (1) 
72125

>  <i_m_source_file_index>  (1) 
4

>  <i_f3d_flags>  (1) 
0

>  <num_sample>  (1) 
50

>  <b_lp_Chiralities_Consistent>  (1) 
1

>  <r_epik_Charging_Adjusted_Penalty>  (1) 
1.6042444336516156e-06

>  <r_epik_Ionization_Penalty>  (1) 
0.0023556498582944039

>  <r_epik_Ionization_Penalty_Charging>  (1) 
1.6042444336516156e-06

>  <r_epik_Ionization_Penalty_Neutral>  (1) 
0.0023540456138607521

>  <r_epik_State_Penalty>  (1) 
-0

>  <r_glide_ring_energy>  (1) 
0

>  <r_i_docking_score>  (1) 
-4.311208165540064

>  <r_i_glide_ecoul>  (1) 
-0.65628696433373601

>  <r_i_glide_eff_state_penalty>  (1) 
-0

>  <r_i_glide_einternal>  (1) 
0

>  <r_i_glide_emodel>  (1) 
-18.124327648087768

>  <r_i_glide_emodel_strain>  (1) 
0

>  <r_i_glide_energy>  (1) 
-14.295579340650054

>  <r_i_glide_erotb>  (1) 
0

>  <r_i_glide_esite>  (1) 
0

>  <r_i_glide_evdw>  (1) 
-13.639292376316318

>  <r_i_glide_gscore>  (1) 
-4.311208165540064

>  <r_i_glide_gscore_strain>  (1) 
0

>  <r_i_glide_hbond>  (1) 
0

>  <r_i_glide_ligand_efficiency>  (1) 
-0.86224163310801283

>  <r_i_glide_ligand_efficiency_ln>  (1) 
-1.6521597026688943

>  <r_i_glide_ligand_efficiency_sa>  (1) 
-1.4744124528379354

>  <r_i_glide_lipo>  (1) 
-1.2808005020741882

>  <r_i_glide_metal>  (1) 
-0

>  <r_i_glide_rewards>  (1) 
-2.25

>  <r_lp_Energy>  (1) 
2.9163319999999997

>  <r_lp_tautomer_probability>  (1) 
1

>  <s_epik_Chemistry_Notes>  (1) 
This compound has an imine and may undergo hydrolysis.

>  <s_epik_cmdline>  (1) 
J2VwaWtfcHl0aG9uJywgJy1waHQnLCAnMS4wJywgJy1waCcsICc3LjQnLCAnLXRuJywgJzgnLCAnLW1hJywgJzUwMCcsICctaW1hZScsICc8aW5maWxlLm1hZT4nLCAnLW9tYWUnLCAnPG91dGZpbGUubWFlPic=

>  <s_epik_input>  (1) 
W0NIMl0xW0NIXT1OW0NIMl1bQ0gyXTE=

>  <s_glide_docking_method>  (1) 
confgen

>  <s_i_glide_gridfile>  (1) 
gpcr_5ht2c_6bqh_protein_autoprepared_prepared

>  <s_lp_Force_Field>  (1) 
S-OPLS

>  <s_lp_Variant>  (1) 
Pocket2Mol_3_num_sample_50-1

>  <s_m_source_file>  (1) 
generated__ligand_Pocket2Mol_2026-05-06_prepared.sdf

>  <GenAI_Model>  (1) 
Pocket2Mol

>  <Protein>  (1) 
GPCR_5HT2C

$$$$
Pocket2Mol_40_num_sample_50
     RDKit          3D

  0  0  0  0  0  0  0  0  0  0999 V3000
M  V30 BEGIN CTAB
M  V30 COUNTS 10 9 0 0 1
M  V30 BEGIN ATOM
M  V30 1 C 37.648330 30.288060 59.346882 0
M  V30 2 O 38.805592 30.352918 60.164258 0
M  V30 3 C 38.740087 30.975403 61.362145 0
M  V30 4 C 40.128607 30.989057 62.071206 0
M  V30 5 O 37.724821 31.479338 61.853568 0
M  V30 6 O 41.067338 30.429571 61.453414 0
M  V30 7 O 40.160946 31.561441 63.183979 0 CHG=-1
M  V30 8 H 37.879106 29.770970 58.415061 0
M  V30 9 H 37.286356 31.286895 59.098702 0
M  V30 10 H 36.847647 29.743301 59.848310 0
M  V30 END ATOM
M  V30 BEGIN BOND
M  V30 1 1 2 1
M  V30 2 1 3 2
M  V30 3 1 4 3
M  V30 4 2 5 3
M  V30 5 2 6 4
M  V30 6 1 7 4
M  V30 7 1 8 1
M  V30 8 1 9 1
M  V30 9 1 10 1
M  V30 END BOND
M  V30 END CTAB
M  END
>  <i_epik_Tot_Q>  (1) 
-1

>  <i_epik_Tot_abs_Q>  (1) 
1

>  <i_i_glide_confnum>  (1) 
1

>  <i_i_glide_lignum>  (1) 
41

>  <i_i_glide_posenum>  (1) 
20

>  <i_i_glide_rotatable_bonds>  (1) 
2

>  <i_lp_mmshare_version>  (1) 
72125

>  <i_m_source_file_index>  (1) 
41

>  <i_f3d_flags>  (1) 
0

>  <num_sample>  (1) 
50

>  <b_lp_Chiralities_Consistent>  (1) 
1

>  <r_epik_Charging_Adjusted_Penalty>  (1) 
5.6581681309968728e-06

>  <r_epik_Ionization_Penalty>  (1) 
5.6581681309968728e-06

>  <r_epik_Ionization_Penalty_Charging>  (1) 
5.6581681309968728e-06

>  <r_epik_Ionization_Penalty_Neutral>  (1) 
0

>  <r_epik_State_Penalty>  (1) 
-0

>  <r_glide_ring_energy>  (1) 
0

>  <r_i_docking_score>  (1) 
-4.3030587718940811

>  <r_i_glide_ecoul>  (1) 
-5.5791621068734143

>  <r_i_glide_eff_state_penalty>  (1) 
-0

>  <r_i_glide_einternal>  (1) 
0.01746373922779787

>  <r_i_glide_emodel>  (1) 
-19.07476634466563

>  <r_i_glide_emodel_strain>  (1) 
0

>  <r_i_glide_energy>  (1) 
-14.585705752690675

>  <r_i_glide_erotb>  (1) 
0

>  <r_i_glide_esite>  (1) 
0

>  <r_i_glide_evdw>  (1) 
-9.0065436458172599

>  <r_i_glide_gscore>  (1) 
-4.3030587718940811

>  <r_i_glide_gscore_strain>  (1) 
0

>  <r_i_glide_hbond>  (1) 
-0.40335059397425072

>  <r_i_glide_ligand_efficiency>  (1) 
-0.61472268169915445

>  <r_i_glide_ligand_efficiency_ln>  (1) 
-1.4606890754200275

>  <r_i_glide_ligand_efficiency_sa>  (1) 
-1.1759221865797784

>  <r_i_glide_lipo>  (1) 
0

>  <r_i_glide_metal>  (1) 
-0

>  <r_i_glide_rewards>  (1) 
-2.6125066795979559

>  <r_lp_Energy>  (1) 
21.029133999999999

>  <r_lp_tautomer_probability>  (1) 
1

>  <s_epik_Chemistry_Notes>  (1) 
This compound has an ester and may undergo hydrolysis at high or low pH.

>  <s_epik_cmdline>  (1) 
J2VwaWtfcHl0aG9uJywgJy1waHQnLCAnMS4wJywgJy1waCcsICc3LjQnLCAnLXRuJywgJzgnLCAnLW1hJywgJzUwMCcsICctaW1hZScsICc8aW5maWxlLm1hZT4nLCAnLW9tYWUnLCAnPG91dGZpbGUubWFlPic=

>  <s_epik_input>  (1) 
W0NIM11PQyg9TylDKD1PKVtPSF0=

>  <s_glide_docking_method>  (1) 
confgen

>  <s_i_glide_gridfile>  (1) 
gpcr_5ht2c_6bqh_protein_autoprepared_prepared

>  <s_lp_Force_Field>  (1) 
S-OPLS

>  <s_lp_Variant>  (1) 
Pocket2Mol_40_num_sample_50-1

>  <s_m_source_file>  (1) 
generated__ligand_Pocket2Mol_2026-05-06_prepared.sdf

>  <GenAI_Model>  (1) 
Pocket2Mol

>  <Protein>  (1) 
GPCR_5HT2C

$$$$
Pocket2Mol_45_num_sample_50
     RDKit          3D

  0  0  0  0  0  0  0  0  0  0999 V3000
M  V30 BEGIN CTAB
M  V30 COUNTS 11 11 0 0 1
M  V30 BEGIN ATOM
M  V30 1 C 38.490547 27.210040 53.553983 0
M  V30 2 O 39.472632 26.971809 52.573886 0
M  V30 3 C 38.148133 28.666818 53.267773 0
M  V30 4 O 38.337739 28.789008 51.870667 0
M  V30 5 C 38.988097 27.634589 51.459744 0
M  V30 6 H 37.627798 26.561898 53.386642 0
M  V30 7 H 38.864332 27.043837 54.564392 0
M  V30 8 H 37.133034 28.927760 53.569318 0
M  V30 9 H 38.847576 29.332527 53.775663 0
M  V30 10 H 39.797678 27.871902 50.768327 0
M  V30 11 H 38.267404 26.989865 50.953201 0
M  V30 END ATOM
M  V30 BEGIN BOND
M  V30 1 1 2 1
M  V30 2 1 3 1
M  V30 3 1 4 3
M  V30 4 1 5 2
M  V30 5 1 5 4
M  V30 6 1 6 1
M  V30 7 1 7 1
M  V30 8 1 8 3
M  V30 9 1 9 3
M  V30 10 1 10 5
M  V30 11 1 11 5
M  V30 END BOND
M  V30 END CTAB
M  END
>  <i_epik_Tot_Q>  (1) 
0

>  <i_epik_Tot_abs_Q>  (1) 
0

>  <i_i_glide_confnum>  (1) 
3

>  <i_i_glide_lignum>  (1) 
46

>  <i_i_glide_posenum>  (1) 
386

>  <i_i_glide_rotatable_bonds>  (1) 
0

>  <i_lp_mmshare_version>  (1) 
72125

>  <i_m_source_file_index>  (1) 
46

>  <i_f3d_flags>  (1) 
0

>  <num_sample>  (1) 
50

>  <b_lp_Chiralities_Consistent>  (1) 
1

>  <r_epik_Charging_Adjusted_Penalty>  (1) 
0

>  <r_epik_Ionization_Penalty>  (1) 
7.9724310449397378e-14

>  <r_epik_Ionization_Penalty_Charging>  (1) 
0

>  <r_epik_Ionization_Penalty_Neutral>  (1) 
7.9724310449397378e-14

>  <r_epik_State_Penalty>  (1) 
-0

>  <r_glide_ring_energy>  (1) 
0.2805525668492585

>  <r_i_docking_score>  (1) 
-4.2785284747683034

>  <r_i_glide_ecoul>  (1) 
-1.1900788733025347

>  <r_i_glide_eff_state_penalty>  (1) 
-0

>  <r_i_glide_einternal>  (1) 
0

>  <r_i_glide_emodel>  (1) 
-16.696460455547761

>  <r_i_glide_emodel_strain>  (1) 
0

>  <r_i_glide_energy>  (1) 
-13.300082454903873

>  <r_i_glide_erotb>  (1) 
0

>  <r_i_glide_esite>  (1) 
0

>  <r_i_glide_evdw>  (1) 
-12.110003581601338

>  <r_i_glide_gscore>  (1) 
-4.2785284747683034

>  <r_i_glide_gscore_strain>  (1) 
0

>  <r_i_glide_hbond>  (1) 
0

>  <r_i_glide_ligand_efficiency>  (1) 
-0.85570569495366067

>  <r_i_glide_ligand_efficiency_ln>  (1) 
-1.6396360512664065

>  <r_i_glide_ligand_efficiency_sa>  (1) 
-1.4632361558050269

>  <r_i_glide_lipo>  (1) 
-0.6528497980261897

>  <r_i_glide_metal>  (1) 
-0

>  <r_i_glide_rewards>  (1) 
-2.8416666666666668

>  <r_lp_Energy>  (1) 
-12.242987999999999

>  <r_lp_tautomer_probability>  (1) 
1

>  <s_epik_Chemistry_Notes>  (1) 
This compound contains an acetal/aminal-like group ( X-CH(R)-Y where X, Y are N, S, or O) that may be acid/base labile, releasing an aldehyde.

>  <s_epik_cmdline>  (1) 
J2VwaWtfcHl0aG9uJywgJy1waHQnLCAnMS4wJywgJy1waCcsICc3LjQnLCAnLXRuJywgJzgnLCAnLW1hJywgJzUwMCcsICctaW1hZScsICc8aW5maWxlLm1hZT4nLCAnLW9tYWUnLCAnPG91dGZpbGUubWFlPic=

>  <s_epik_input>  (1) 
W0NIMl0xT1tDSDJdT1tDSDJdMQ==

>  <s_glide_docking_method>  (1) 
confgen

>  <s_i_glide_gridfile>  (1) 
gpcr_5ht2c_6bqh_protein_autoprepared_prepared

>  <s_lp_Force_Field>  (1) 
S-OPLS

>  <s_lp_Variant>  (1) 
Pocket2Mol_45_num_sample_50-1

>  <s_m_source_file>  (1) 
generated__ligand_Pocket2Mol_2026-05-06_prepared.sdf

>  <GenAI_Model>  (1) 
Pocket2Mol

>  <Protein>  (1) 
GPCR_5HT2C

$$$$
Pocket2Mol_12_num_sample_50
     RDKit          3D

  0  0  0  0  0  0  0  0  0  0999 V3000
M  V30 BEGIN CTAB
M  V30 COUNTS 10 10 0 0 1
M  V30 BEGIN ATOM
M  V30 1 C 39.956800 29.844605 51.452893 0
M  V30 2 C 39.756654 28.565858 50.653434 0
M  V30 3 O 39.309337 29.531086 52.666001 0
M  V30 4 O 38.753634 27.899863 51.384955 0
M  V30 5 C 38.546811 28.438500 52.582084 0
M  V30 6 O 37.791268 28.010778 53.451069 0
M  V30 7 H 39.467442 30.694153 50.976846 0
M  V30 8 H 41.010965 30.082581 51.593725 0
M  V30 9 H 39.452310 28.766152 49.626366 0
M  V30 10 H 40.663694 27.963653 50.653502 0
M  V30 END ATOM
M  V30 BEGIN BOND
M  V30 1 1 2 1
M  V30 2 1 3 1
M  V30 3 1 4 2
M  V30 4 1 5 3
M  V30 5 1 5 4
M  V30 6 2 6 5
M  V30 7 1 7 1
M  V30 8 1 8 1
M  V30 9 1 9 2
M  V30 10 1 10 2
M  V30 END BOND
M  V30 END CTAB
M  END
>  <i_epik_Tot_Q>  (1) 
0

>  <i_epik_Tot_abs_Q>  (1) 
0

>  <i_i_glide_confnum>  (1) 
2

>  <i_i_glide_lignum>  (1) 
13

>  <i_i_glide_posenum>  (1) 
217

>  <i_i_glide_rotatable_bonds>  (1) 
0

>  <i_lp_mmshare_version>  (1) 
72125

>  <i_m_source_file_index>  (1) 
13

>  <i_f3d_flags>  (1) 
0

>  <num_sample>  (1) 
50

>  <b_lp_Chiralities_Consistent>  (1) 
1

>  <r_epik_Charging_Adjusted_Penalty>  (1) 
0

>  <r_epik_Ionization_Penalty>  (1) 
0

>  <r_epik_Ionization_Penalty_Charging>  (1) 
0

>  <r_epik_Ionization_Penalty_Neutral>  (1) 
0

>  <r_epik_State_Penalty>  (1) 
-0

>  <r_glide_ring_energy>  (1) 
0.00053108536261990756

>  <r_i_docking_score>  (1) 
-4.2496496197088085

>  <r_i_glide_ecoul>  (1) 
0.033248566990251249

>  <r_i_glide_eff_state_penalty>  (1) 
-0

>  <r_i_glide_einternal>  (1) 
0

>  <r_i_glide_emodel>  (1) 
-19.481662794171029

>  <r_i_glide_emodel_strain>  (1) 
0

>  <r_i_glide_energy>  (1) 
-15.122032639108436

>  <r_i_glide_erotb>  (1) 
0

>  <r_i_glide_esite>  (1) 
0

>  <r_i_glide_evdw>  (1) 
-15.155281206098687

>  <r_i_glide_gscore>  (1) 
-4.2496496197088085

>  <r_i_glide_gscore_strain>  (1) 
0

>  <r_i_glide_hbond>  (1) 
0

>  <r_i_glide_ligand_efficiency>  (1) 
-0.70827493661813479

>  <r_i_glide_ligand_efficiency_ln>  (1) 
-1.522211947895308

>  <r_i_glide_ligand_efficiency_sa>  (1) 
-1.2870209727156914

>  <r_i_glide_lipo>  (1) 
-0.66000000000000003

>  <r_i_glide_metal>  (1) 
-0

>  <r_i_glide_rewards>  (1) 
-2.8368728444524116

>  <r_lp_Energy>  (1) 
-6.8415979999999994

>  <r_lp_tautomer_probability>  (1) 
1

>  <s_epik_Chemistry_Notes>  (1) 
This compound has an ester and may undergo hydrolysis at high or low pH.

>  <s_epik_cmdline>  (1) 
J2VwaWtfcHl0aG9uJywgJy1waHQnLCAnMS4wJywgJy1waCcsICc3LjQnLCAnLXRuJywgJzgnLCAnLW1hJywgJzUwMCcsICctaW1hZScsICc8aW5maWxlLm1hZT4nLCAnLW9tYWUnLCAnPG91dGZpbGUubWFlPic=

>  <s_epik_input>  (1) 
TzFbQ0gyXVtDSDJdT0MxPU8=

>  <s_glide_docking_method>  (1) 
confgen

>  <s_i_glide_gridfile>  (1) 
gpcr_5ht2c_6bqh_protein_autoprepared_prepared

>  <s_lp_Force_Field>  (1) 
S-OPLS

>  <s_lp_Variant>  (1) 
Pocket2Mol_12_num_sample_50-1

>  <s_m_source_file>  (1) 
generated__ligand_Pocket2Mol_2026-05-06_prepared.sdf

>  <GenAI_Model>  (1) 
Pocket2Mol

>  <Protein>  (1) 
GPCR_5HT2C

$$$$
Pocket2Mol_42_num_sample_50
     RDKit          3D

  0  0  0  0  0  0  0  0  0  0999 V3000
M  V30 BEGIN CTAB
M  V30 COUNTS 10 9 0 0 1
M  V30 BEGIN ATOM
M  V30 1 C 38.907638 27.592966 52.325223 0
M  V30 2 O 39.467404 27.652244 51.056029 0
M  V30 3 C 39.779952 28.971059 50.632531 0
M  V30 4 O 37.568131 28.021430 52.339037 0
M  V30 5 H 39.467401 28.201498 53.036971 0
M  V30 6 H 38.923691 26.557690 52.666405 0
M  V30 7 H 40.156221 28.949458 49.609926 0
M  V30 8 H 38.906049 29.621430 50.653503 0
M  V30 9 H 40.553003 29.411284 51.263833 0
M  V30 10 H 37.067402 27.389256 51.835809 0
M  V30 END ATOM
M  V30 BEGIN BOND
M  V30 1 1 2 1
M  V30 2 1 3 2
M  V30 3 1 4 1
M  V30 4 1 5 1
M  V30 5 1 6 1
M  V30 6 1 7 3
M  V30 7 1 8 3
M  V30 8 1 9 3
M  V30 9 1 10 4
M  V30 END BOND
M  V30 END CTAB
M  END
>  <i_epik_Tot_Q>  (1) 
0

>  <i_epik_Tot_abs_Q>  (1) 
0

>  <i_i_glide_confnum>  (1) 
1

>  <i_i_glide_lignum>  (1) 
43

>  <i_i_glide_posenum>  (1) 
210

>  <i_i_glide_rotatable_bonds>  (1) 
2

>  <i_lp_mmshare_version>  (1) 
72125

>  <i_m_source_file_index>  (1) 
43

>  <i_f3d_flags>  (1) 
0

>  <num_sample>  (1) 
50

>  <b_lp_Chiralities_Consistent>  (1) 
1

>  <r_epik_Charging_Adjusted_Penalty>  (1) 
0

>  <r_epik_Ionization_Penalty>  (1) 
1.028953084229311e-06

>  <r_epik_Ionization_Penalty_Charging>  (1) 
0

>  <r_epik_Ionization_Penalty_Neutral>  (1) 
1.028953084229311e-06

>  <r_epik_State_Penalty>  (1) 
-0

>  <r_glide_ring_energy>  (1) 
0

>  <r_i_docking_score>  (1) 
-4.2436123807895152

>  <r_i_glide_ecoul>  (1) 
-2.7966722822905012

>  <r_i_glide_eff_state_penalty>  (1) 
-0

>  <r_i_glide_einternal>  (1) 
0.066381088755614215

>  <r_i_glide_emodel>  (1) 
-16.667563493859799

>  <r_i_glide_emodel_strain>  (1) 
0

>  <r_i_glide_energy>  (1) 
-12.278903051209292

>  <r_i_glide_erotb>  (1) 
0

>  <r_i_glide_esite>  (1) 
0

>  <r_i_glide_evdw>  (1) 
-9.4822307689187912

>  <r_i_glide_gscore>  (1) 
-4.2436123807895152

>  <r_i_glide_gscore_strain>  (1) 
0

>  <r_i_glide_hbond>  (1) 
-0.32000000000000001

>  <r_i_glide_ligand_efficiency>  (1) 
-1.0609030951973788

>  <r_i_glide_ligand_efficiency_ln>  (1) 
-1.7783272885068475

>  <r_i_glide_ligand_efficiency_sa>  (1) 
-1.684078689352638

>  <r_i_glide_lipo>  (1) 
-0.33000000000000002

>  <r_i_glide_metal>  (1) 
-0

>  <r_i_glide_rewards>  (1) 
-2.7000000000000002

>  <r_lp_Energy>  (1) 
5.5414079999999997

>  <r_lp_tautomer_probability>  (1) 
1

>  <s_epik_Chemistry_Notes>  (1) 
This compound contains an acetal/aminal-like group ( X-CH(R)-Y where X, Y are N, S, or O) that may be acid/base labile, releasing an aldehyde.

>  <s_epik_cmdline>  (1) 
J2VwaWtfcHl0aG9uJywgJy1waHQnLCAnMS4wJywgJy1waCcsICc3LjQnLCAnLXRuJywgJzgnLCAnLW1hJywgJzUwMCcsICctaW1hZScsICc8aW5maWxlLm1hZT4nLCAnLW9tYWUnLCAnPG91dGZpbGUubWFlPic=

>  <s_epik_input>  (1) 
W09IXVtDSDJdT1tDSDNd

>  <s_glide_docking_method>  (1) 
confgen

>  <s_i_glide_gridfile>  (1) 
gpcr_5ht2c_6bqh_protein_autoprepared_prepared

>  <s_lp_Force_Field>  (1) 
S-OPLS

>  <s_lp_Variant>  (1) 
Pocket2Mol_42_num_sample_50-1

>  <s_m_source_file>  (1) 
generated__ligand_Pocket2Mol_2026-05-06_prepared.sdf

>  <GenAI_Model>  (1) 
Pocket2Mol

>  <Protein>  (1) 
GPCR_5HT2C

$$$$
Pocket2Mol_21_num_sample_50
     RDKit          3D

  0  0  0  0  0  0  0  0  0  0999 V3000
M  V30 BEGIN CTAB
M  V30 COUNTS 14 14 0 0 1
M  V30 BEGIN ATOM
M  V30 1 C 37.111553 31.500523 60.994496 0
M  V30 2 C 37.789536 32.811150 61.360701 0
M  V30 3 O 35.800792 31.745933 61.453472 0
M  V30 4 C 35.566394 33.091616 61.187446 0
M  V30 5 O 36.779081 33.765399 61.106394 0
M  V30 6 C 34.847950 33.221430 59.842608 0
M  V30 7 H 37.565140 30.635440 61.477893 0
M  V30 8 H 37.112881 31.337681 59.915607 0
M  V30 9 H 38.044355 32.821429 62.421064 0
M  V30 10 H 38.691784 33.003488 60.779710 0
M  V30 11 H 34.966653 33.521821 61.990679 0
M  V30 12 H 35.472496 32.809578 59.053494 0
M  V30 13 H 34.660075 34.271701 59.620994 0
M  V30 14 H 33.898268 32.687092 59.853509 0
M  V30 END ATOM
M  V30 BEGIN BOND
M  V30 1 1 2 1
M  V30 2 1 3 1
M  V30 3 1 4 3
M  V30 4 1 5 2
M  V30 5 1 5 4
M  V30 6 1 6 4
M  V30 7 1 7 1
M  V30 8 1 8 1
M  V30 9 1 9 2
M  V30 10 1 10 2
M  V30 11 1 11 4
M  V30 12 1 12 6
M  V30 13 1 13 6
M  V30 14 1 14 6
M  V30 END BOND
M  V30 END CTAB
M  END
>  <i_epik_Tot_Q>  (1) 
0

>  <i_epik_Tot_abs_Q>  (1) 
0

>  <i_i_glide_confnum>  (1) 
3

>  <i_i_glide_lignum>  (1) 
22

>  <i_i_glide_posenum>  (1) 
270

>  <i_i_glide_rotatable_bonds>  (1) 
0

>  <i_lp_mmshare_version>  (1) 
72125

>  <i_m_source_file_index>  (1) 
22

>  <i_f3d_flags>  (1) 
0

>  <num_sample>  (1) 
50

>  <b_lp_Chiralities_Consistent>  (1) 
1

>  <r_epik_Charging_Adjusted_Penalty>  (1) 
0

>  <r_epik_Ionization_Penalty>  (1) 
7.9724310449397378e-14

>  <r_epik_Ionization_Penalty_Charging>  (1) 
0

>  <r_epik_Ionization_Penalty_Neutral>  (1) 
7.9724310449397378e-14

>  <r_epik_State_Penalty>  (1) 
-0

>  <r_glide_ring_energy>  (1) 
1.2362365743684729

>  <r_i_docking_score>  (1) 
-4.2425259600623306

>  <r_i_glide_ecoul>  (1) 
-1.8634619372686771

>  <r_i_glide_eff_state_penalty>  (1) 
-0

>  <r_i_glide_einternal>  (1) 
0

>  <r_i_glide_emodel>  (1) 
-17.368459483787102

>  <r_i_glide_emodel_strain>  (1) 
0.073881060208901062

>  <r_i_glide_energy>  (1) 
-13.414791715186832

>  <r_i_glide_erotb>  (1) 
0

>  <r_i_glide_esite>  (1) 
0

>  <r_i_glide_evdw>  (1) 
-11.551329777918154

>  <r_i_glide_gscore>  (1) 
-4.2425259600623306

>  <r_i_glide_gscore_strain>  (1) 
0

>  <r_i_glide_hbond>  (1) 
-0.32000000000000001

>  <r_i_glide_ligand_efficiency>  (1) 
-0.70708766001038847

>  <r_i_glide_ligand_efficiency_ln>  (1) 
-1.519660274040523

>  <r_i_glide_ligand_efficiency_sa>  (1) 
-1.2848635479423676

>  <r_i_glide_lipo>  (1) 
-0.12828929368234385

>  <r_i_glide_metal>  (1) 
-0

>  <r_i_glide_rewards>  (1) 
-2.9371508868937779

>  <r_lp_Energy>  (1) 
-12.129052

>  <r_lp_tautomer_probability>  (1) 
1

>  <s_epik_Chemistry_Notes>  (1) 
This compound contains an acetal/aminal-like group ( X-CH(R)-Y where X, Y are N, S, or O) that may be acid/base labile, releasing an aldehyde.

>  <s_epik_cmdline>  (1) 
J2VwaWtfcHl0aG9uJywgJy1waHQnLCAnMS4wJywgJy1waCcsICc3LjQnLCAnLXRuJywgJzgnLCAnLW1hJywgJzUwMCcsICctaW1hZScsICc8aW5maWxlLm1hZT4nLCAnLW9tYWUnLCAnPG91dGZpbGUubWFlPic=

>  <s_epik_input>  (1) 
TzFbQ0gyXVtDSDJdT1tDSF0xW0NIM10=

>  <s_glide_docking_method>  (1) 
confgen

>  <s_i_glide_gridfile>  (1) 
gpcr_5ht2c_6bqh_protein_autoprepared_prepared

>  <s_lp_Force_Field>  (1) 
S-OPLS

>  <s_lp_Variant>  (1) 
Pocket2Mol_21_num_sample_50-1

>  <s_m_source_file>  (1) 
generated__ligand_Pocket2Mol_2026-05-06_prepared.sdf

>  <GenAI_Model>  (1) 
Pocket2Mol

>  <Protein>  (1) 
GPCR_5HT2C

$$$$
Pocket2Mol_12_num_sample_50
     RDKit          3D

  0  0  0  0  0  0  0  0  0  0999 V3000
M  V30 BEGIN CTAB
M  V30 COUNTS 10 10 0 0 1
M  V30 BEGIN ATOM
M  V30 1 C 39.742413 29.025909 51.260723 0
M  V30 2 C 39.131985 27.623917 51.308687 0
M  V30 3 O 39.467740 29.598149 52.645749 0
M  V30 4 O 38.116290 27.730401 52.294819 0
M  V30 5 C 38.274588 28.779392 53.102002 0
M  V30 6 O 37.572416 29.066053 54.057606 0
M  V30 7 H 39.237812 29.627941 50.505054 0
M  V30 8 H 40.804387 29.002113 51.016296 0
M  V30 9 H 38.678212 27.362029 50.352860 0
M  V30 10 H 39.867102 26.860861 51.564517 0
M  V30 END ATOM
M  V30 BEGIN BOND
M  V30 1 1 2 1
M  V30 2 1 3 1
M  V30 3 1 4 2
M  V30 4 1 5 3
M  V30 5 1 5 4
M  V30 6 2 6 5
M  V30 7 1 7 1
M  V30 8 1 8 1
M  V30 9 1 9 2
M  V30 10 1 10 2
M  V30 END BOND
M  V30 END CTAB
M  END
>  <i_epik_Tot_Q>  (1) 
0

>  <i_epik_Tot_abs_Q>  (1) 
0

>  <i_i_glide_confnum>  (1) 
2

>  <i_i_glide_lignum>  (1) 
13

>  <i_i_glide_posenum>  (1) 
197

>  <i_i_glide_rotatable_bonds>  (1) 
0

>  <i_lp_mmshare_version>  (1) 
72125

>  <i_m_source_file_index>  (1) 
13

>  <i_f3d_flags>  (1) 
0

>  <num_sample>  (1) 
50

>  <b_lp_Chiralities_Consistent>  (1) 
1

>  <r_epik_Charging_Adjusted_Penalty>  (1) 
0

>  <r_epik_Ionization_Penalty>  (1) 
0

>  <r_epik_Ionization_Penalty_Charging>  (1) 
0

>  <r_epik_Ionization_Penalty_Neutral>  (1) 
0

>  <r_epik_State_Penalty>  (1) 
-0

>  <r_glide_ring_energy>  (1) 
0.00053108536261990756

>  <r_i_docking_score>  (1) 
-4.238980501644658

>  <r_i_glide_ecoul>  (1) 
-0.17624920098237518

>  <r_i_glide_eff_state_penalty>  (1) 
-0

>  <r_i_glide_einternal>  (1) 
0

>  <r_i_glide_emodel>  (1) 
-19.461182201395431

>  <r_i_glide_emodel_strain>  (1) 
2.16235580552393e-08

>  <r_i_glide_energy>  (1) 
-15.112497301799834

>  <r_i_glide_erotb>  (1) 
0

>  <r_i_glide_esite>  (1) 
0

>  <r_i_glide_evdw>  (1) 
-14.936248100817458

>  <r_i_glide_gscore>  (1) 
-4.238980501644658

>  <r_i_glide_gscore_strain>  (1) 
0

>  <r_i_glide_hbond>  (1) 
0

>  <r_i_glide_ligand_efficiency>  (1) 
-0.70649675027410963

>  <r_i_glide_ligand_efficiency_ln>  (1) 
-1.5183903013022721

>  <r_i_glide_ligand_efficiency_sa>  (1) 
-1.2837897936920704

>  <r_i_glide_lipo>  (1) 
-0.66000000000000003

>  <r_i_glide_metal>  (1) 
-0

>  <r_i_glide_rewards>  (1) 
-2.8057307164564285

>  <r_lp_Energy>  (1) 
-6.8415979999999994

>  <r_lp_tautomer_probability>  (1) 
1

>  <s_epik_Chemistry_Notes>  (1) 
This compound has an ester and may undergo hydrolysis at high or low pH.

>  <s_epik_cmdline>  (1) 
J2VwaWtfcHl0aG9uJywgJy1waHQnLCAnMS4wJywgJy1waCcsICc3LjQnLCAnLXRuJywgJzgnLCAnLW1hJywgJzUwMCcsICctaW1hZScsICc8aW5maWxlLm1hZT4nLCAnLW9tYWUnLCAnPG91dGZpbGUubWFlPic=

>  <s_epik_input>  (1) 
TzFbQ0gyXVtDSDJdT0MxPU8=

>  <s_glide_docking_method>  (1) 
confgen

>  <s_i_glide_gridfile>  (1) 
gpcr_5ht2c_6bqh_protein_autoprepared_prepared

>  <s_lp_Force_Field>  (1) 
S-OPLS

>  <s_lp_Variant>  (1) 
Pocket2Mol_12_num_sample_50-1

>  <s_m_source_file>  (1) 
generated__ligand_Pocket2Mol_2026-05-06_prepared.sdf

>  <GenAI_Model>  (1) 
Pocket2Mol

>  <Protein>  (1) 
GPCR_5HT2C

$$$$
Pocket2Mol_45_num_sample_50
     RDKit          3D

  0  0  0  0  0  0  0  0  0  0999 V3000
M  V30 BEGIN CTAB
M  V30 COUNTS 11 11 0 0 1
M  V30 BEGIN ATOM
M  V30 1 C 39.152256 27.661527 51.283761 0
M  V30 2 O 40.195736 28.421384 50.719736 0
M  V30 3 C 38.920860 28.366395 52.618750 0
M  V30 4 O 39.467398 29.659778 52.434837 0
M  V30 5 C 39.919836 29.709618 51.127549 0
M  V30 6 H 38.267481 27.732881 50.653505 0
M  V30 7 H 39.422437 26.610879 51.391549 0
M  V30 8 H 37.863713 28.407594 52.883716 0
M  V30 9 H 39.464082 27.868420 53.422417 0
M  V30 10 H 40.808703 30.336966 51.052451 0
M  V30 11 H 39.138155 30.126488 50.489289 0
M  V30 END ATOM
M  V30 BEGIN BOND
M  V30 1 1 2 1
M  V30 2 1 3 1
M  V30 3 1 4 3
M  V30 4 1 5 2
M  V30 5 1 5 4
M  V30 6 1 6 1
M  V30 7 1 7 1
M  V30 8 1 8 3
M  V30 9 1 9 3
M  V30 10 1 10 5
M  V30 11 1 11 5
M  V30 END BOND
M  V30 END CTAB
M  END
>  <i_epik_Tot_Q>  (1) 
0

>  <i_epik_Tot_abs_Q>  (1) 
0

>  <i_i_glide_confnum>  (1) 
3

>  <i_i_glide_lignum>  (1) 
46

>  <i_i_glide_posenum>  (1) 
264

>  <i_i_glide_rotatable_bonds>  (1) 
0

>  <i_lp_mmshare_version>  (1) 
72125

>  <i_m_source_file_index>  (1) 
46

>  <i_f3d_flags>  (1) 
0

>  <num_sample>  (1) 
50

>  <b_lp_Chiralities_Consistent>  (1) 
1

>  <r_epik_Charging_Adjusted_Penalty>  (1) 
0

>  <r_epik_Ionization_Penalty>  (1) 
7.9724310449397378e-14

>  <r_epik_Ionization_Penalty_Charging>  (1) 
0

>  <r_epik_Ionization_Penalty_Neutral>  (1) 
7.9724310449397378e-14

>  <r_epik_State_Penalty>  (1) 
-0

>  <r_glide_ring_energy>  (1) 
0.2805525668492585

>  <r_i_docking_score>  (1) 
-4.2265226819851236

>  <r_i_glide_ecoul>  (1) 
-0.89524987519819066

>  <r_i_glide_eff_state_penalty>  (1) 
-0

>  <r_i_glide_einternal>  (1) 
0

>  <r_i_glide_emodel>  (1) 
-16.975189793746026

>  <r_i_glide_emodel_strain>  (1) 
0.011329886003353273

>  <r_i_glide_energy>  (1) 
-13.631424875315698

>  <r_i_glide_erotb>  (1) 
0

>  <r_i_glide_esite>  (1) 
0

>  <r_i_glide_evdw>  (1) 
-12.736175000117507

>  <r_i_glide_gscore>  (1) 
-4.2265226819851236

>  <r_i_glide_gscore_strain>  (1) 
0

>  <r_i_glide_hbond>  (1) 
0

>  <r_i_glide_ligand_efficiency>  (1) 
-0.84530453639702474

>  <r_i_glide_ligand_efficiency_ln>  (1) 
-1.6197061680776286

>  <r_i_glide_ligand_efficiency_sa>  (1) 
-1.4454504248556088

>  <r_i_glide_lipo>  (1) 
-0.66000000000000003

>  <r_i_glide_metal>  (1) 
-0

>  <r_i_glide_rewards>  (1) 
-2.7954264506995194

>  <r_lp_Energy>  (1) 
-12.242987999999999

>  <r_lp_tautomer_probability>  (1) 
1

>  <s_epik_Chemistry_Notes>  (1) 
This compound contains an acetal/aminal-like group ( X-CH(R)-Y where X, Y are N, S, or O) that may be acid/base labile, releasing an aldehyde.

>  <s_epik_cmdline>  (1) 
J2VwaWtfcHl0aG9uJywgJy1waHQnLCAnMS4wJywgJy1waCcsICc3LjQnLCAnLXRuJywgJzgnLCAnLW1hJywgJzUwMCcsICctaW1hZScsICc8aW5maWxlLm1hZT4nLCAnLW9tYWUnLCAnPG91dGZpbGUubWFlPic=

>  <s_epik_input>  (1) 
W0NIMl0xT1tDSDJdT1tDSDJdMQ==

>  <s_glide_docking_method>  (1) 
confgen

>  <s_i_glide_gridfile>  (1) 
gpcr_5ht2c_6bqh_protein_autoprepared_prepared

>  <s_lp_Force_Field>  (1) 
S-OPLS

>  <s_lp_Variant>  (1) 
Pocket2Mol_45_num_sample_50-1

>  <s_m_source_file>  (1) 
generated__ligand_Pocket2Mol_2026-05-06_prepared.sdf

>  <GenAI_Model>  (1) 
Pocket2Mol

>  <Protein>  (1) 
GPCR_5HT2C

$$$$
Pocket2Mol_49_num_sample_50
     RDKit          3D

  0  0  0  0  0  0  0  0  0  0999 V3000
M  V30 BEGIN CTAB
M  V30 COUNTS 13 13 0 0 1
M  V30 BEGIN ATOM
M  V30 1 C 38.566864 28.835990 53.412229 0
M  V30 2 O 39.027531 27.743416 52.633693 0
M  V30 3 C 39.234837 28.243628 51.323112 0
M  V30 4 C 39.472184 29.986718 52.975061 0
M  V30 5 C 39.862861 29.621231 51.545265 0
M  V30 6 H 37.523995 29.044370 53.167188 0
M  V30 7 H 38.635584 28.627419 54.480245 0
M  V30 8 H 39.866281 27.582482 50.729428 0
M  V30 9 H 38.270775 28.333886 50.820386 0
M  V30 10 H 38.986971 30.958868 53.053496 0
M  V30 11 H 40.357820 30.021431 53.607977 0
M  V30 12 H 40.948170 29.569215 51.453473 0
M  V30 13 H 39.497631 30.342325 50.813000 0
M  V30 END ATOM
M  V30 BEGIN BOND
M  V30 1 1 2 1
M  V30 2 1 3 2
M  V30 3 1 4 1
M  V30 4 1 5 3
M  V30 5 1 5 4
M  V30 6 1 6 1
M  V30 7 1 7 1
M  V30 8 1 8 3
M  V30 9 1 9 3
M  V30 10 1 10 4
M  V30 11 1 11 4
M  V30 12 1 12 5
M  V30 13 1 13 5
M  V30 END BOND
M  V30 END CTAB
M  END
>  <i_epik_Tot_Q>  (1) 
0

>  <i_epik_Tot_abs_Q>  (1) 
0

>  <i_i_glide_confnum>  (1) 
1

>  <i_i_glide_lignum>  (1) 
50

>  <i_i_glide_posenum>  (1) 
326

>  <i_i_glide_rotatable_bonds>  (1) 
0

>  <i_lp_mmshare_version>  (1) 
72125

>  <i_m_source_file_index>  (1) 
50

>  <i_f3d_flags>  (1) 
0

>  <num_sample>  (1) 
50

>  <b_lp_Chiralities_Consistent>  (1) 
1

>  <r_epik_Charging_Adjusted_Penalty>  (1) 
0

>  <r_epik_Ionization_Penalty>  (1) 
1.3889264151150229e-11

>  <r_epik_Ionization_Penalty_Charging>  (1) 
0

>  <r_epik_Ionization_Penalty_Neutral>  (1) 
1.3889264151150229e-11

>  <r_epik_State_Penalty>  (1) 
-0

>  <r_glide_ring_energy>  (1) 
0

>  <r_i_docking_score>  (1) 
-4.2249045014476305

>  <r_i_glide_ecoul>  (1) 
-0.038754570377316028

>  <r_i_glide_eff_state_penalty>  (1) 
-0

>  <r_i_glide_einternal>  (1) 
0

>  <r_i_glide_emodel>  (1) 
-15.898831784249715

>  <r_i_glide_emodel_strain>  (1) 
0

>  <r_i_glide_energy>  (1) 
-12.471283388758398

>  <r_i_glide_erotb>  (1) 
0

>  <r_i_glide_esite>  (1) 
0

>  <r_i_glide_evdw>  (1) 
-12.432528818381082

>  <r_i_glide_gscore>  (1) 
-4.2249045014476305

>  <r_i_glide_gscore_strain>  (1) 
0

>  <r_i_glide_hbond>  (1) 
0

>  <r_i_glide_ligand_efficiency>  (1) 
-0.8449809002895261

>  <r_i_glide_ligand_efficiency_ln>  (1) 
-1.6190860419846558

>  <r_i_glide_ligand_efficiency_sa>  (1) 
-1.4448970148963101

>  <r_i_glide_lipo>  (1) 
-1.1791695441731611

>  <r_i_glide_metal>  (1) 
-0

>  <r_i_glide_rewards>  (1) 
-2.4182953307988182

>  <r_lp_Energy>  (1) 
3.9174029999999997

>  <r_lp_tautomer_probability>  (1) 
1

>  <s_epik_cmdline>  (1) 
J2VwaWtfcHl0aG9uJywgJy1waHQnLCAnMS4wJywgJy1waCcsICc3LjQnLCAnLXRuJywgJzgnLCAnLW1hJywgJzUwMCcsICctaW1hZScsICc8aW5maWxlLm1hZT4nLCAnLW9tYWUnLCAnPG91dGZpbGUubWFlPic=

>  <s_epik_input>  (1) 
W0NIMl0xT1tDSDJdW0NIMl1bQ0gyXTE=

>  <s_glide_docking_method>  (1) 
confgen

>  <s_i_glide_gridfile>  (1) 
gpcr_5ht2c_6bqh_protein_autoprepared_prepared

>  <s_lp_Force_Field>  (1) 
S-OPLS

>  <s_lp_Variant>  (1) 
Pocket2Mol_49_num_sample_50-1

>  <s_m_source_file>  (1) 
generated__ligand_Pocket2Mol_2026-05-06_prepared.sdf

>  <GenAI_Model>  (1) 
Pocket2Mol

>  <Protein>  (1) 
GPCR_5HT2C

$$$$
Pocket2Mol_40_num_sample_50
     RDKit          3D

  0  0  0  0  0  0  0  0  0  0999 V3000
M  V30 BEGIN CTAB
M  V30 COUNTS 10 9 0 0 1
M  V30 BEGIN ATOM
M  V30 1 C 34.840907 33.621430 59.453502 0
M  V30 2 O 36.118946 33.465253 60.041026 0
M  V30 3 C 36.316321 32.449979 60.903810 0
M  V30 4 C 37.770928 32.438901 61.444378 0
M  V30 5 O 35.467411 31.621431 61.241821 0
M  V30 6 O 38.523059 33.346412 61.018350 0
M  V30 7 O 38.036241 31.521540 62.253501 0 CHG=-1
M  V30 8 H 34.887646 34.346257 58.640925 0
M  V30 9 H 34.124626 33.980487 60.191580 0
M  V30 10 H 34.472445 32.676272 59.053500 0
M  V30 END ATOM
M  V30 BEGIN BOND
M  V30 1 1 2 1
M  V30 2 1 3 2
M  V30 3 1 4 3
M  V30 4 2 5 3
M  V30 5 2 6 4
M  V30 6 1 7 4
M  V30 7 1 8 1
M  V30 8 1 9 1
M  V30 9 1 10 1
M  V30 END BOND
M  V30 END CTAB
M  END
>  <i_epik_Tot_Q>  (1) 
-1

>  <i_epik_Tot_abs_Q>  (1) 
1

>  <i_i_glide_confnum>  (1) 
1

>  <i_i_glide_lignum>  (1) 
41

>  <i_i_glide_posenum>  (1) 
304

>  <i_i_glide_rotatable_bonds>  (1) 
2

>  <i_lp_mmshare_version>  (1) 
72125

>  <i_m_source_file_index>  (1) 
41

>  <i_f3d_flags>  (1) 
0

>  <num_sample>  (1) 
50

>  <b_lp_Chiralities_Consistent>  (1) 
1

>  <r_epik_Charging_Adjusted_Penalty>  (1) 
5.6581681309968728e-06

>  <r_epik_Ionization_Penalty>  (1) 
5.6581681309968728e-06

>  <r_epik_Ionization_Penalty_Charging>  (1) 
5.6581681309968728e-06

>  <r_epik_Ionization_Penalty_Neutral>  (1) 
0

>  <r_epik_State_Penalty>  (1) 
-0

>  <r_glide_ring_energy>  (1) 
0

>  <r_i_docking_score>  (1) 
-4.1883380388970188

>  <r_i_glide_ecoul>  (1) 
-2.8736661556201755

>  <r_i_glide_eff_state_penalty>  (1) 
-0

>  <r_i_glide_einternal>  (1) 
0.020660945883115733

>  <r_i_glide_emodel>  (1) 
-18.625581069710169

>  <r_i_glide_emodel_strain>  (1) 
0

>  <r_i_glide_energy>  (1) 
-14.25803146790555

>  <r_i_glide_erotb>  (1) 
0

>  <r_i_glide_esite>  (1) 
-0.010966966188314437

>  <r_i_glide_evdw>  (1) 
-11.384365312285375

>  <r_i_glide_gscore>  (1) 
-4.1883380388970188

>  <r_i_glide_gscore_strain>  (1) 
0

>  <r_i_glide_hbond>  (1) 
-0.33271620377544986

>  <r_i_glide_ligand_efficiency>  (1) 
-0.59833400555671701

>  <r_i_glide_ligand_efficiency_ln>  (1) 
-1.4217467020303127

>  <r_i_glide_ligand_efficiency_sa>  (1) 
-1.1445717769425519

>  <r_i_glide_lipo>  (1) 
0

>  <r_i_glide_metal>  (1) 
-0

>  <r_i_glide_rewards>  (1) 
-2.8443866799759587

>  <r_lp_Energy>  (1) 
21.029133999999999

>  <r_lp_tautomer_probability>  (1) 
1

>  <s_epik_Chemistry_Notes>  (1) 
This compound has an ester and may undergo hydrolysis at high or low pH.

>  <s_epik_cmdline>  (1) 
J2VwaWtfcHl0aG9uJywgJy1waHQnLCAnMS4wJywgJy1waCcsICc3LjQnLCAnLXRuJywgJzgnLCAnLW1hJywgJzUwMCcsICctaW1hZScsICc8aW5maWxlLm1hZT4nLCAnLW9tYWUnLCAnPG91dGZpbGUubWFlPic=

>  <s_epik_input>  (1) 
W0NIM11PQyg9TylDKD1PKVtPSF0=

>  <s_glide_docking_method>  (1) 
confgen

>  <s_i_glide_gridfile>  (1) 
gpcr_5ht2c_6bqh_protein_autoprepared_prepared

>  <s_lp_Force_Field>  (1) 
S-OPLS

>  <s_lp_Variant>  (1) 
Pocket2Mol_40_num_sample_50-1

>  <s_m_source_file>  (1) 
generated__ligand_Pocket2Mol_2026-05-06_prepared.sdf

>  <GenAI_Model>  (1) 
Pocket2Mol

>  <Protein>  (1) 
GPCR_5HT2C

$$$$
Pocket2Mol_45_num_sample_50
     RDKit          3D

  0  0  0  0  0  0  0  0  0  0999 V3000
M  V30 BEGIN CTAB
M  V30 COUNTS 11 11 0 0 1
M  V30 BEGIN ATOM
M  V30 1 C 39.467700 30.002406 52.845883 0
M  V30 2 O 38.484194 29.004642 53.044484 0
M  V30 3 C 39.950364 29.726644 51.424212 0
M  V30 4 O 39.867406 28.322326 51.385453 0
M  V30 5 C 38.705785 28.027741 52.080868 0
M  V30 6 H 39.067403 31.007020 52.984160 0
M  V30 7 H 40.267147 29.863843 53.571006 0
M  V30 8 H 39.278864 30.156555 50.678991 0
M  V30 9 H 40.961310 30.087751 51.234070 0
M  V30 10 H 38.784816 27.043973 52.544744 0
M  V30 11 H 37.864217 28.021443 51.386645 0
M  V30 END ATOM
M  V30 BEGIN BOND
M  V30 1 1 2 1
M  V30 2 1 3 1
M  V30 3 1 4 3
M  V30 4 1 5 2
M  V30 5 1 5 4
M  V30 6 1 6 1
M  V30 7 1 7 1
M  V30 8 1 8 3
M  V30 9 1 9 3
M  V30 10 1 10 5
M  V30 11 1 11 5
M  V30 END BOND
M  V30 END CTAB
M  END
>  <i_epik_Tot_Q>  (1) 
0

>  <i_epik_Tot_abs_Q>  (1) 
0

>  <i_i_glide_confnum>  (1) 
2

>  <i_i_glide_lignum>  (1) 
46

>  <i_i_glide_posenum>  (1) 
318

>  <i_i_glide_rotatable_bonds>  (1) 
0

>  <i_lp_mmshare_version>  (1) 
72125

>  <i_m_source_file_index>  (1) 
46

>  <i_f3d_flags>  (1) 
0

>  <num_sample>  (1) 
50

>  <b_lp_Chiralities_Consistent>  (1) 
1

>  <r_epik_Charging_Adjusted_Penalty>  (1) 
0

>  <r_epik_Ionization_Penalty>  (1) 
7.9724310449397378e-14

>  <r_epik_Ionization_Penalty_Charging>  (1) 
0

>  <r_epik_Ionization_Penalty_Neutral>  (1) 
7.9724310449397378e-14

>  <r_epik_State_Penalty>  (1) 
-0

>  <r_glide_ring_energy>  (1) 
1.1396681620093737e-05

>  <r_i_docking_score>  (1) 
-4.1764237425327799

>  <r_i_glide_ecoul>  (1) 
-0.87926435882037612

>  <r_i_glide_eff_state_penalty>  (1) 
-0

>  <r_i_glide_einternal>  (1) 
0

>  <r_i_glide_emodel>  (1) 
-15.869157292493774

>  <r_i_glide_emodel_strain>  (1) 
0

>  <r_i_glide_energy>  (1) 
-12.553831987507156

>  <r_i_glide_erotb>  (1) 
0

>  <r_i_glide_esite>  (1) 
0

>  <r_i_glide_evdw>  (1) 
-11.674567628686779

>  <r_i_glide_gscore>  (1) 
-4.1764237425327799

>  <r_i_glide_gscore_strain>  (1) 
0

>  <r_i_glide_hbond>  (1) 
0

>  <r_i_glide_ligand_efficiency>  (1) 
-0.83528474850655599

>  <r_i_glide_ligand_efficiency_ln>  (1) 
-1.6005070374090584

>  <r_i_glide_ligand_efficiency_sa>  (1) 
-1.4283168285721048

>  <r_i_glide_lipo>  (1) 
-0.53887977391589414

>  <r_i_glide_metal>  (1) 
-0

>  <r_i_glide_rewards>  (1) 
-2.92192593335949

>  <r_lp_Energy>  (1) 
-12.242987999999999

>  <r_lp_tautomer_probability>  (1) 
1

>  <s_epik_Chemistry_Notes>  (1) 
This compound contains an acetal/aminal-like group ( X-CH(R)-Y where X, Y are N, S, or O) that may be acid/base labile, releasing an aldehyde.

>  <s_epik_cmdline>  (1) 
J2VwaWtfcHl0aG9uJywgJy1waHQnLCAnMS4wJywgJy1waCcsICc3LjQnLCAnLXRuJywgJzgnLCAnLW1hJywgJzUwMCcsICctaW1hZScsICc8aW5maWxlLm1hZT4nLCAnLW9tYWUnLCAnPG91dGZpbGUubWFlPic=

>  <s_epik_input>  (1) 
W0NIMl0xT1tDSDJdT1tDSDJdMQ==

>  <s_glide_docking_method>  (1) 
confgen

>  <s_i_glide_gridfile>  (1) 
gpcr_5ht2c_6bqh_protein_autoprepared_prepared

>  <s_lp_Force_Field>  (1) 
S-OPLS

>  <s_lp_Variant>  (1) 
Pocket2Mol_45_num_sample_50-1

>  <s_m_source_file>  (1) 
generated__ligand_Pocket2Mol_2026-05-06_prepared.sdf

>  <GenAI_Model>  (1) 
Pocket2Mol

>  <Protein>  (1) 
GPCR_5HT2C

$$$$
Pocket2Mol_48_num_sample_50
     RDKit          3D

  0  0  0  0  0  0  0  0  0  0999 V3000
M  V30 BEGIN CTAB
M  V30 COUNTS 15 15 0 0 1
M  V30 BEGIN ATOM
M  V30 1 C 39.190164 29.818981 55.222261 0
M  V30 2 C 38.048712 29.971869 56.238070 0
M  V30 3 C 39.423104 31.221189 54.651771 0
M  V30 4 C 38.267404 32.070367 55.182742 0
M  V30 5 N 37.867397 31.418354 56.436332 0 CHG=1
M  V30 6 H 38.923083 29.110371 54.437442 0
M  V30 7 H 40.098784 29.449231 55.700369 0
M  V30 8 H 37.119503 29.580517 55.820432 0
M  V30 9 H 38.242867 29.454655 57.180400 0
M  V30 10 H 40.372226 31.609409 55.023974 0
M  V30 11 H 39.471371 31.230579 53.561414 0
M  V30 12 H 38.534256 33.117434 55.333262 0
M  V30 13 H 37.426797 32.038293 54.486776 0
M  V30 14 H 38.457141 31.740346 57.188838 0
M  V30 15 H 36.880706 31.621705 56.653442 0
M  V30 END ATOM
M  V30 BEGIN BOND
M  V30 1 1 2 1
M  V30 2 1 3 1
M  V30 3 1 4 3
M  V30 4 1 5 2
M  V30 5 1 5 4
M  V30 6 1 6 1
M  V30 7 1 7 1
M  V30 8 1 8 2
M  V30 9 1 9 2
M  V30 10 1 10 3
M  V30 11 1 11 3
M  V30 12 1 12 4
M  V30 13 1 13 4
M  V30 14 1 14 5
M  V30 15 1 15 5
M  V30 END BOND
M  V30 END CTAB
M  END
>  <i_epik_Tot_Q>  (1) 
1

>  <i_epik_Tot_abs_Q>  (1) 
1

>  <i_i_glide_confnum>  (1) 
1

>  <i_i_glide_lignum>  (1) 
49

>  <i_i_glide_posenum>  (1) 
77

>  <i_i_glide_rotatable_bonds>  (1) 
0

>  <i_lp_mmshare_version>  (1) 
72125

>  <i_m_source_file_index>  (1) 
49

>  <i_f3d_flags>  (1) 
0

>  <num_sample>  (1) 
50

>  <b_lp_Chiralities_Consistent>  (1) 
1

>  <r_epik_Charging_Adjusted_Penalty>  (1) 
0.00011848530527437102

>  <r_epik_Ionization_Penalty>  (1) 
0.00011848530527437102

>  <r_epik_Ionization_Penalty_Charging>  (1) 
0.00011848530527437102

>  <r_epik_Ionization_Penalty_Neutral>  (1) 
0

>  <r_epik_State_Penalty>  (1) 
-0

>  <r_glide_ring_energy>  (1) 
0

>  <r_i_docking_score>  (1) 
-4.1743362916116951

>  <r_i_glide_ecoul>  (1) 
-5.3698821789030564

>  <r_i_glide_eff_state_penalty>  (1) 
-0

>  <r_i_glide_einternal>  (1) 
0

>  <r_i_glide_emodel>  (1) 
-20.521491395513973

>  <r_i_glide_emodel_strain>  (1) 
0.49253007601404519

>  <r_i_glide_energy>  (1) 
-14.013047164444563

>  <r_i_glide_erotb>  (1) 
0

>  <r_i_glide_esite>  (1) 
-0.10000000000000001

>  <r_i_glide_evdw>  (1) 
-8.6431649855415067

>  <r_i_glide_gscore>  (1) 
-4.1743362916116951

>  <r_i_glide_gscore_strain>  (1) 
0

>  <r_i_glide_hbond>  (1) 
-0.20000000000000001

>  <r_i_glide_ligand_efficiency>  (1) 
-0.83486725832233899

>  <r_i_glide_ligand_efficiency_ln>  (1) 
-1.5997070755049494

>  <r_i_glide_ligand_efficiency_sa>  (1) 
-1.4276029303991202

>  <r_i_glide_lipo>  (1) 
-0.38669571549916154

>  <r_i_glide_metal>  (1) 
-0

>  <r_i_glide_rewards>  (1) 
-2.25

>  <r_lp_Energy>  (1) 
17.726251999999999

>  <r_lp_tautomer_probability>  (1) 
1

>  <s_epik_cmdline>  (1) 
J2VwaWtfcHl0aG9uJywgJy1waHQnLCAnMS4wJywgJy1waCcsICc3LjQnLCAnLXRuJywgJzgnLCAnLW1hJywgJzUwMCcsICctaW1hZScsICc8aW5maWxlLm1hZT4nLCAnLW9tYWUnLCAnPG91dGZpbGUubWFlPic=

>  <s_epik_input>  (1) 
W0NIMl0xW0NIMl1bTkhdW0NIMl1bQ0gyXTE=

>  <s_glide_docking_method>  (1) 
confgen

>  <s_i_glide_gridfile>  (1) 
gpcr_5ht2c_6bqh_protein_autoprepared_prepared

>  <s_lp_Force_Field>  (1) 
S-OPLS

>  <s_lp_Variant>  (1) 
Pocket2Mol_48_num_sample_50-1

>  <s_m_source_file>  (1) 
generated__ligand_Pocket2Mol_2026-05-06_prepared.sdf

>  <GenAI_Model>  (1) 
Pocket2Mol

>  <Protein>  (1) 
GPCR_5HT2C

$$$$
Pocket2Mol_47_num_sample_50
     RDKit          3D

  0  0  0  0  0  0  0  0  0  0999 V3000
M  V30 BEGIN CTAB
M  V30 COUNTS 15 15 0 0 1
M  V30 BEGIN ATOM
M  V30 1 C 37.574492 28.251145 53.340107 0
M  V30 2 C 38.665262 27.221430 53.630175 0
M  V30 3 C 39.035250 27.466937 55.090764 0
M  V30 4 C 37.872313 29.450315 54.253502 0
M  V30 5 C 38.938925 28.984859 55.255529 0
M  V30 6 H 37.534963 28.525351 52.285131 0
M  V30 7 H 36.606865 27.824044 53.600857 0
M  V30 8 H 38.328391 26.199961 53.453500 0
M  V30 9 H 39.527760 27.405801 52.989088 0
M  V30 10 H 38.305886 26.980223 55.739726 0
M  V30 11 H 40.021135 27.077411 55.347373 0
M  V30 12 H 38.242519 30.300237 53.679063 0
M  V30 13 H 36.966005 29.777566 54.765659 0
M  V30 14 H 38.699165 29.273488 56.279551 0
M  V30 15 H 39.897041 29.441962 55.005084 0
M  V30 END ATOM
M  V30 BEGIN BOND
M  V30 1 1 2 1
M  V30 2 1 3 2
M  V30 3 1 4 1
M  V30 4 1 5 3
M  V30 5 1 5 4
M  V30 6 1 6 1
M  V30 7 1 7 1
M  V30 8 1 8 2
M  V30 9 1 9 2
M  V30 10 1 10 3
M  V30 11 1 11 3
M  V30 12 1 12 4
M  V30 13 1 13 4
M  V30 14 1 14 5
M  V30 15 1 15 5
M  V30 END BOND
M  V30 END CTAB
M  END
>  <i_epik_Tot_Q>  (1) 
0

>  <i_epik_Tot_abs_Q>  (1) 
0

>  <i_i_glide_confnum>  (1) 
1

>  <i_i_glide_lignum>  (1) 
48

>  <i_i_glide_posenum>  (1) 
357

>  <i_i_glide_rotatable_bonds>  (1) 
0

>  <i_lp_mmshare_version>  (1) 
72125

>  <i_m_source_file_index>  (1) 
48

>  <i_f3d_flags>  (1) 
0

>  <num_sample>  (1) 
50

>  <b_lp_Chiralities_Consistent>  (1) 
1

>  <r_epik_Charging_Adjusted_Penalty>  (1) 
0

>  <r_epik_Ionization_Penalty>  (1) 
0

>  <r_epik_Ionization_Penalty_Charging>  (1) 
0

>  <r_epik_Ionization_Penalty_Neutral>  (1) 
0

>  <r_epik_State_Penalty>  (1) 
-0

>  <r_glide_ring_energy>  (1) 
0

>  <r_i_docking_score>  (1) 
-4.1525490781678247

>  <r_i_glide_ecoul>  (1) 
0.049142726070271342

>  <r_i_glide_eff_state_penalty>  (1) 
-0

>  <r_i_glide_einternal>  (1) 
0

>  <r_i_glide_emodel>  (1) 
-14.524071257265806

>  <r_i_glide_emodel_strain>  (1) 
2.6581414402926384e-08

>  <r_i_glide_energy>  (1) 
-11.265120018104344

>  <r_i_glide_erotb>  (1) 
0

>  <r_i_glide_esite>  (1) 
0

>  <r_i_glide_evdw>  (1) 
-11.314262744174616

>  <r_i_glide_gscore>  (1) 
-4.1525490781678247

>  <r_i_glide_gscore_strain>  (1) 
0

>  <r_i_glide_hbond>  (1) 
0

>  <r_i_glide_ligand_efficiency>  (1) 
-0.83050981563356496

>  <r_i_glide_ligand_efficiency_ln>  (1) 
-1.5913576860291343

>  <r_i_glide_ligand_efficiency_sa>  (1) 
-1.4201518082122944

>  <r_i_glide_lipo>  (1) 
-1.1990625813402576

>  <r_i_glide_metal>  (1) 
-0

>  <r_i_glide_rewards>  (1) 
-2.3951447685293772

>  <r_lp_Energy>  (1) 
13.274989999999999

>  <r_lp_tautomer_probability>  (1) 
1

>  <s_epik_cmdline>  (1) 
J2VwaWtfcHl0aG9uJywgJy1waHQnLCAnMS4wJywgJy1waCcsICc3LjQnLCAnLXRuJywgJzgnLCAnLW1hJywgJzUwMCcsICctaW1hZScsICc8aW5maWxlLm1hZT4nLCAnLW9tYWUnLCAnPG91dGZpbGUubWFlPic=

>  <s_epik_input>  (1) 
W0NIMl0xW0NIMl1bQ0gyXVtDSDJdW0NIMl0x

>  <s_glide_docking_method>  (1) 
confgen

>  <s_i_glide_gridfile>  (1) 
gpcr_5ht2c_6bqh_protein_autoprepared_prepared

>  <s_lp_Force_Field>  (1) 
S-OPLS

>  <s_lp_Variant>  (1) 
Pocket2Mol_47_num_sample_50-1

>  <s_m_source_file>  (1) 
generated__ligand_Pocket2Mol_2026-05-06_prepared.sdf

>  <GenAI_Model>  (1) 
Pocket2Mol

>  <Protein>  (1) 
GPCR_5HT2C

$$$$
Pocket2Mol_45_num_sample_50
     RDKit          3D

  0  0  0  0  0  0  0  0  0  0999 V3000
M  V30 BEGIN CTAB
M  V30 COUNTS 11 11 0 0 1
M  V30 BEGIN ATOM
M  V30 1 C 39.867403 29.549982 51.311730 0
M  V30 2 O 39.660996 28.421431 50.484878 0
M  V30 3 C 39.184541 29.180404 52.628985 0
M  V30 4 O 39.287648 27.776308 52.608239 0
M  V30 5 C 39.067403 27.456464 51.281740 0
M  V30 6 H 40.940772 29.678501 51.453501 0
M  V30 7 H 39.467408 30.460896 50.866170 0
M  V30 8 H 39.671290 29.621429 53.499326 0
M  V30 9 H 38.132944 29.467952 52.638031 0
M  V30 10 H 37.993000 27.451966 51.087571 0
M  V30 11 H 39.467403 26.468486 51.053501 0
M  V30 END ATOM
M  V30 BEGIN BOND
M  V30 1 1 2 1
M  V30 2 1 3 1
M  V30 3 1 4 3
M  V30 4 1 5 2
M  V30 5 1 5 4
M  V30 6 1 6 1
M  V30 7 1 7 1
M  V30 8 1 8 3
M  V30 9 1 9 3
M  V30 10 1 10 5
M  V30 11 1 11 5
M  V30 END BOND
M  V30 END CTAB
M  END
>  <i_epik_Tot_Q>  (1) 
0

>  <i_epik_Tot_abs_Q>  (1) 
0

>  <i_i_glide_confnum>  (1) 
3

>  <i_i_glide_lignum>  (1) 
46

>  <i_i_glide_posenum>  (1) 
359

>  <i_i_glide_rotatable_bonds>  (1) 
0

>  <i_lp_mmshare_version>  (1) 
72125

>  <i_m_source_file_index>  (1) 
46

>  <i_f3d_flags>  (1) 
0

>  <num_sample>  (1) 
50

>  <b_lp_Chiralities_Consistent>  (1) 
1

>  <r_epik_Charging_Adjusted_Penalty>  (1) 
0

>  <r_epik_Ionization_Penalty>  (1) 
7.9724310449397378e-14

>  <r_epik_Ionization_Penalty_Charging>  (1) 
0

>  <r_epik_Ionization_Penalty_Neutral>  (1) 
7.9724310449397378e-14

>  <r_epik_State_Penalty>  (1) 
-0

>  <r_glide_ring_energy>  (1) 
0.2805525668492585

>  <r_i_docking_score>  (1) 
-4.1490289027016587

>  <r_i_glide_ecoul>  (1) 
-0.58843148392754174

>  <r_i_glide_eff_state_penalty>  (1) 
-0

>  <r_i_glide_einternal>  (1) 
0

>  <r_i_glide_emodel>  (1) 
-16.448603481345586

>  <r_i_glide_emodel_strain>  (1) 
0

>  <r_i_glide_energy>  (1) 
-13.1550247258753

>  <r_i_glide_erotb>  (1) 
0

>  <r_i_glide_esite>  (1) 
0

>  <r_i_glide_evdw>  (1) 
-12.566593241947759

>  <r_i_glide_gscore>  (1) 
-4.1490289027016587

>  <r_i_glide_gscore_strain>  (1) 
0

>  <r_i_glide_hbond>  (1) 
0

>  <r_i_glide_ligand_efficiency>  (1) 
-0.82980578054033172

>  <r_i_glide_ligand_efficiency_ln>  (1) 
-1.5900086692736897

>  <r_i_glide_ligand_efficiency_sa>  (1) 
-1.4189479251372492

>  <r_i_glide_lipo>  (1) 
-0.59483691550750639

>  <r_i_glide_metal>  (1) 
-0

>  <r_i_glide_rewards>  (1) 
-2.8375976025076324

>  <r_lp_Energy>  (1) 
-12.242987999999999

>  <r_lp_tautomer_probability>  (1) 
1

>  <s_epik_Chemistry_Notes>  (1) 
This compound contains an acetal/aminal-like group ( X-CH(R)-Y where X, Y are N, S, or O) that may be acid/base labile, releasing an aldehyde.

>  <s_epik_cmdline>  (1) 
J2VwaWtfcHl0aG9uJywgJy1waHQnLCAnMS4wJywgJy1waCcsICc3LjQnLCAnLXRuJywgJzgnLCAnLW1hJywgJzUwMCcsICctaW1hZScsICc8aW5maWxlLm1hZT4nLCAnLW9tYWUnLCAnPG91dGZpbGUubWFlPic=

>  <s_epik_input>  (1) 
W0NIMl0xT1tDSDJdT1tDSDJdMQ==

>  <s_glide_docking_method>  (1) 
confgen

>  <s_i_glide_gridfile>  (1) 
gpcr_5ht2c_6bqh_protein_autoprepared_prepared

>  <s_lp_Force_Field>  (1) 
S-OPLS

>  <s_lp_Variant>  (1) 
Pocket2Mol_45_num_sample_50-1

>  <s_m_source_file>  (1) 
generated__ligand_Pocket2Mol_2026-05-06_prepared.sdf

>  <GenAI_Model>  (1) 
Pocket2Mol

>  <Protein>  (1) 
GPCR_5HT2C

$$$$
Pocket2Mol_6_num_sample_50
     RDKit          3D

  0  0  0  0  0  0  0  0  0  0999 V3000
M  V30 BEGIN CTAB
M  V30 COUNTS 12 12 0 0 1
M  V30 BEGIN ATOM
M  V30 1 C 40.875297 28.030928 58.935240 0
M  V30 2 C 39.881794 28.571483 59.776208 0
M  V30 3 C 40.687990 28.022347 57.537832 0
M  V30 4 C 39.507894 28.556394 56.981682 0
M  V30 5 C 38.515010 29.098229 57.823727 0
M  V30 6 C 38.703026 29.106419 59.220388 0
M  V30 7 H 41.780644 27.621451 59.361989 0
M  V30 8 H 40.024822 28.576553 60.847316 0
M  V30 9 H 41.449269 27.607715 56.892470 0
M  V30 10 H 39.364145 28.550413 55.911187 0
M  V30 11 H 37.610442 29.508820 57.396952 0
M  V30 12 H 37.942288 29.522635 59.864862 0
M  V30 END ATOM
M  V30 BEGIN BOND
M  V30 1 1 2 1
M  V30 2 2 3 1
M  V30 3 1 4 3
M  V30 4 2 5 4
M  V30 5 2 6 2
M  V30 6 1 6 5
M  V30 7 1 7 1
M  V30 8 1 8 2
M  V30 9 1 9 3
M  V30 10 1 10 4
M  V30 11 1 11 5
M  V30 12 1 12 6
M  V30 END BOND
M  V30 END CTAB
M  END
>  <i_epik_Tot_Q>  (1) 
0

>  <i_epik_Tot_abs_Q>  (1) 
0

>  <i_i_glide_confnum>  (1) 
1

>  <i_i_glide_lignum>  (1) 
7

>  <i_i_glide_posenum>  (1) 
274

>  <i_i_glide_rotatable_bonds>  (1) 
0

>  <i_lp_mmshare_version>  (1) 
72125

>  <i_m_source_file_index>  (1) 
7

>  <i_f3d_flags>  (1) 
0

>  <num_sample>  (1) 
50

>  <b_lp_Chiralities_Consistent>  (1) 
1

>  <r_epik_Charging_Adjusted_Penalty>  (1) 
0

>  <r_epik_Ionization_Penalty>  (1) 
0

>  <r_epik_Ionization_Penalty_Charging>  (1) 
0

>  <r_epik_Ionization_Penalty_Neutral>  (1) 
0

>  <r_epik_State_Penalty>  (1) 
-0

>  <r_glide_ring_energy>  (1) 
0

>  <r_i_docking_score>  (1) 
-4.1236084354372409

>  <r_i_glide_ecoul>  (1) 
-0.70967835630988652

>  <r_i_glide_eff_state_penalty>  (1) 
-0

>  <r_i_glide_einternal>  (1) 
0

>  <r_i_glide_emodel>  (1) 
-14.614234000828818

>  <r_i_glide_emodel_strain>  (1) 
0

>  <r_i_glide_energy>  (1) 
-10.730738279451121

>  <r_i_glide_erotb>  (1) 
0

>  <r_i_glide_esite>  (1) 
0

>  <r_i_glide_evdw>  (1) 
-10.021059923141234

>  <r_i_glide_gscore>  (1) 
-4.1236084354372409

>  <r_i_glide_gscore_strain>  (1) 
0

>  <r_i_glide_hbond>  (1) 
0

>  <r_i_glide_ligand_efficiency>  (1) 
-0.68726807257287348

>  <r_i_glide_ligand_efficiency_ln>  (1) 
-1.4770643677900566

>  <r_i_glide_ligand_efficiency_sa>  (1) 
-1.2488489674682219

>  <r_i_glide_lipo>  (1) 
-1.1127083741466861

>  <r_i_glide_metal>  (1) 
-0

>  <r_i_glide_rewards>  (1) 
-2.4033953116870097

>  <r_lp_Energy>  (1) 
6.1542199999999996

>  <r_lp_tautomer_probability>  (1) 
1

>  <s_epik_cmdline>  (1) 
J2VwaWtfcHl0aG9uJywgJy1waHQnLCAnMS4wJywgJy1waCcsICc3LjQnLCAnLXRuJywgJzgnLCAnLW1hJywgJzUwMCcsICctaW1hZScsICc8aW5maWxlLm1hZT4nLCAnLW9tYWUnLCAnPG91dGZpbGUubWFlPic=

>  <s_epik_input>  (1) 
W2NIXTFbY0hdW2NIXVtjSF1bY0hdW2NIXTE=

>  <s_glide_docking_method>  (1) 
confgen

>  <s_i_glide_gridfile>  (1) 
gpcr_5ht2c_6bqh_protein_autoprepared_prepared

>  <s_lp_Force_Field>  (1) 
S-OPLS

>  <s_lp_Variant>  (1) 
Pocket2Mol_6_num_sample_50-1

>  <s_m_source_file>  (1) 
generated__ligand_Pocket2Mol_2026-05-06_prepared.sdf

>  <GenAI_Model>  (1) 
Pocket2Mol

>  <Protein>  (1) 
GPCR_5HT2C

$$$$
Pocket2Mol_37_num_sample_50
     RDKit          3D

  0  0  0  0  0  0  0  0  0  0999 V3000
M  V30 BEGIN CTAB
M  V30 COUNTS 15 15 0 0 1
M  V30 BEGIN ATOM
M  V30 1 C 35.321146 33.388812 59.954612 0
M  V30 2 C 36.260201 34.021328 60.993742 0
M  V30 3 O 35.067408 32.021973 60.236329 0
M  V30 4 C 36.209718 31.230678 60.253533 0
M  V30 5 O 37.574605 33.546285 60.755441 0
M  V30 6 O 36.900138 31.390822 61.453322 0
M  V30 7 C 37.908132 32.357009 61.402437 0
M  V30 8 H 34.362478 33.907196 59.964086 0
M  V30 9 H 35.724346 33.503267 58.947120 0
M  V30 10 H 35.925382 33.847013 62.017422 0
M  V30 11 H 36.271228 35.100892 60.843746 0
M  V30 12 H 36.831627 31.392669 59.368714 0
M  V30 13 H 35.867463 30.197628 60.218042 0
M  V30 14 H 38.197066 32.588543 62.428104 0
M  V30 15 H 38.778979 31.936209 60.898389 0
M  V30 END ATOM
M  V30 BEGIN BOND
M  V30 1 1 2 1
M  V30 2 1 3 1
M  V30 3 1 4 3
M  V30 4 1 5 2
M  V30 5 1 6 4
M  V30 6 1 7 5
M  V30 7 1 7 6
M  V30 8 1 8 1
M  V30 9 1 9 1
M  V30 10 1 10 2
M  V30 11 1 11 2
M  V30 12 1 12 4
M  V30 13 1 13 4
M  V30 14 1 14 7
M  V30 15 1 15 7
M  V30 END BOND
M  V30 END CTAB
M  END
>  <i_epik_Tot_Q>  (1) 
0

>  <i_epik_Tot_abs_Q>  (1) 
0

>  <i_i_glide_confnum>  (1) 
7

>  <i_i_glide_lignum>  (1) 
38

>  <i_i_glide_posenum>  (1) 
21

>  <i_i_glide_rotatable_bonds>  (1) 
0

>  <i_lp_mmshare_version>  (1) 
72125

>  <i_m_source_file_index>  (1) 
38

>  <i_f3d_flags>  (1) 
0

>  <num_sample>  (1) 
50

>  <b_lp_Chiralities_Consistent>  (1) 
1

>  <r_epik_Charging_Adjusted_Penalty>  (1) 
0

>  <r_epik_Ionization_Penalty>  (1) 
4.6834743432320728e-14

>  <r_epik_Ionization_Penalty_Charging>  (1) 
0

>  <r_epik_Ionization_Penalty_Neutral>  (1) 
4.6834743432320728e-14

>  <r_epik_State_Penalty>  (1) 
-0

>  <r_glide_ring_energy>  (1) 
0.00049507184875689477

>  <r_i_docking_score>  (1) 
-4.1054575777529596

>  <r_i_glide_ecoul>  (1) 
-2.5273767390532771

>  <r_i_glide_eff_state_penalty>  (1) 
-0

>  <r_i_glide_einternal>  (1) 
0

>  <r_i_glide_emodel>  (1) 
-19.97975199008901

>  <r_i_glide_emodel_strain>  (1) 
0

>  <r_i_glide_energy>  (1) 
-15.370897951922089

>  <r_i_glide_erotb>  (1) 
0

>  <r_i_glide_esite>  (1) 
-0.0743799452725636

>  <r_i_glide_evdw>  (1) 
-12.843521212868811

>  <r_i_glide_gscore>  (1) 
-4.1054575777529596

>  <r_i_glide_gscore_strain>  (1) 
0

>  <r_i_glide_hbond>  (1) 
-0.32000000000000001

>  <r_i_glide_ligand_efficiency>  (1) 
-0.58649393967899421

>  <r_i_glide_ligand_efficiency_ln>  (1) 
-1.393612625649661

>  <r_i_glide_ligand_efficiency_sa>  (1) 
-1.1219225457189768

>  <r_i_glide_lipo>  (1) 
-0.19080852335602466

>  <r_i_glide_metal>  (1) 
-0

>  <r_i_glide_rewards>  (1) 
-2.498986537622939

>  <r_lp_Energy>  (1) 
1.238378

>  <r_lp_tautomer_probability>  (1) 
1

>  <s_epik_Chemistry_Notes>  (1) 
This compound contains an acetal/aminal-like group ( X-CH(R)-Y where X, Y are N, S, or O) that may be acid/base labile, releasing an aldehyde.

>  <s_epik_cmdline>  (1) 
J2VwaWtfcHl0aG9uJywgJy1waHQnLCAnMS4wJywgJy1waCcsICc3LjQnLCAnLXRuJywgJzgnLCAnLW1hJywgJzUwMCcsICctaW1hZScsICc8aW5maWxlLm1hZT4nLCAnLW9tYWUnLCAnPG91dGZpbGUubWFlPic=

>  <s_epik_input>  (1) 
W0NIMl0xW0NIMl1PW0NIMl1PW0NIMl1PMQ==

>  <s_glide_docking_method>  (1) 
confgen

>  <s_i_glide_gridfile>  (1) 
gpcr_5ht2c_6bqh_protein_autoprepared_prepared

>  <s_lp_Force_Field>  (1) 
S-OPLS

>  <s_lp_Variant>  (1) 
Pocket2Mol_37_num_sample_50-1

>  <s_m_source_file>  (1) 
generated__ligand_Pocket2Mol_2026-05-06_prepared.sdf

>  <GenAI_Model>  (1) 
Pocket2Mol

>  <Protein>  (1) 
GPCR_5HT2C

$$$$
Pocket2Mol_1_num_sample_50
     RDKit          3D

  0  0  0  0  0  0  0  0  0  0999 V3000
M  V30 BEGIN CTAB
M  V30 COUNTS 9 9 0 0 1
M  V30 BEGIN ATOM
M  V30 1 C 37.867323 28.937046 54.009486 0
M  V30 2 O 37.867418 28.749758 52.655005 0
M  V30 3 C 38.608788 27.622992 52.435891 0
M  V30 4 C 38.585051 27.959547 54.636169 0
M  V30 5 C 39.067403 27.105308 53.613222 0
M  V30 6 H 37.316488 29.800844 54.355053 0
M  V30 7 H 38.707378 27.331179 51.400048 0
M  V30 8 H 38.742818 27.871926 55.701319 0
M  V30 9 H 39.675471 26.219608 53.722930 0
M  V30 END ATOM
M  V30 BEGIN BOND
M  V30 1 1 2 1
M  V30 2 1 3 2
M  V30 3 2 4 1
M  V30 4 2 5 3
M  V30 5 1 5 4
M  V30 6 1 6 1
M  V30 7 1 7 3
M  V30 8 1 8 4
M  V30 9 1 9 5
M  V30 END BOND
M  V30 END CTAB
M  END
>  <i_epik_Tot_Q>  (1) 
0

>  <i_epik_Tot_abs_Q>  (1) 
0

>  <i_i_glide_confnum>  (1) 
1

>  <i_i_glide_lignum>  (1) 
2

>  <i_i_glide_posenum>  (1) 
8

>  <i_i_glide_rotatable_bonds>  (1) 
0

>  <i_lp_mmshare_version>  (1) 
72125

>  <i_m_source_file_index>  (1) 
2

>  <i_f3d_flags>  (1) 
0

>  <num_sample>  (1) 
50

>  <b_lp_Chiralities_Consistent>  (1) 
1

>  <r_epik_Charging_Adjusted_Penalty>  (1) 
0

>  <r_epik_Ionization_Penalty>  (1) 
0

>  <r_epik_Ionization_Penalty_Charging>  (1) 
0

>  <r_epik_Ionization_Penalty_Neutral>  (1) 
0

>  <r_epik_State_Penalty>  (1) 
-0

>  <r_glide_ring_energy>  (1) 
0

>  <r_i_docking_score>  (1) 
-4.079532725456037

>  <r_i_glide_ecoul>  (1) 
-0.43639944896644578

>  <r_i_glide_eff_state_penalty>  (1) 
-0

>  <r_i_glide_einternal>  (1) 
0

>  <r_i_glide_emodel>  (1) 
-14.238493065262116

>  <r_i_glide_emodel_strain>  (1) 
0

>  <r_i_glide_energy>  (1) 
-10.873824458038573

>  <r_i_glide_erotb>  (1) 
0

>  <r_i_glide_esite>  (1) 
0

>  <r_i_glide_evdw>  (1) 
-10.437425009072127

>  <r_i_glide_gscore>  (1) 
-4.079532725456037

>  <r_i_glide_gscore_strain>  (1) 
0

>  <r_i_glide_hbond>  (1) 
0

>  <r_i_glide_ligand_efficiency>  (1) 
-0.81590654509120741

>  <r_i_glide_ligand_efficiency_ln>  (1) 
-1.5633760458590955

>  <r_i_glide_ligand_efficiency_sa>  (1) 
-1.3951805668420505

>  <r_i_glide_lipo>  (1) 
-1.1255348909907974

>  <r_i_glide_metal>  (1) 
-0

>  <r_i_glide_rewards>  (1) 
-2.3666666666666667

>  <r_lp_Energy>  (1) 
2.5980879999999997

>  <r_lp_tautomer_probability>  (1) 
1

>  <s_epik_cmdline>  (1) 
J2VwaWtfcHl0aG9uJywgJy1waHQnLCAnMS4wJywgJy1waCcsICc3LjQnLCAnLXRuJywgJzgnLCAnLW1hJywgJzUwMCcsICctaW1hZScsICc8aW5maWxlLm1hZT4nLCAnLW9tYWUnLCAnPG91dGZpbGUubWFlPic=

>  <s_epik_input>  (1) 
W2NIXTFvW2NIXVtjSF1bY0hdMQ==

>  <s_glide_docking_method>  (1) 
confgen

>  <s_i_glide_gridfile>  (1) 
gpcr_5ht2c_6bqh_protein_autoprepared_prepared

>  <s_lp_Force_Field>  (1) 
S-OPLS

>  <s_lp_Variant>  (1) 
Pocket2Mol_1_num_sample_50-1

>  <s_m_source_file>  (1) 
generated__ligand_Pocket2Mol_2026-05-06_prepared.sdf

>  <GenAI_Model>  (1) 
Pocket2Mol

>  <Protein>  (1) 
GPCR_5HT2C

$$$$
Pocket2Mol_29_num_sample_50
     RDKit          3D

  0  0  0  0  0  0  0  0  0  0999 V3000
M  V30 BEGIN CTAB
M  V30 COUNTS 17 17 0 0 1
M  V30 BEGIN ATOM
M  V30 1 C 37.770176 33.464570 60.369005 0
M  V30 2 C 36.948365 32.283002 60.885724 0
M  V30 3 C 35.653618 31.956366 60.142466 0
M  V30 4 O 37.315440 31.621430 61.853500 0
M  V30 5 C 36.880462 34.690886 60.102874 0
M  V30 6 C 34.827104 33.221442 59.853501 0
M  V30 7 C 35.674224 34.338633 59.220178 0
M  V30 8 H 38.552197 33.709502 61.087992 0
M  V30 9 H 38.264785 33.157231 59.447294 0
M  V30 10 H 35.915015 31.466405 59.203722 0
M  V30 11 H 35.067469 31.243631 60.722392 0
M  V30 12 H 36.534315 35.106460 61.050264 0
M  V30 13 H 37.467430 35.473173 59.621459 0
M  V30 14 H 33.999427 32.970287 59.189141 0
M  V30 15 H 34.377261 33.583977 60.778447 0
M  V30 16 H 36.023628 34.020648 58.237861 0
M  V30 17 H 35.063963 35.225198 59.053497 0
M  V30 END ATOM
M  V30 BEGIN BOND
M  V30 1 1 2 1
M  V30 2 1 3 2
M  V30 3 2 4 2
M  V30 4 1 5 1
M  V30 5 1 6 3
M  V30 6 1 7 5
M  V30 7 1 7 6
M  V30 8 1 8 1
M  V30 9 1 9 1
M  V30 10 1 10 3
M  V30 11 1 11 3
M  V30 12 1 12 5
M  V30 13 1 13 5
M  V30 14 1 14 6
M  V30 15 1 15 6
M  V30 16 1 16 7
M  V30 17 1 17 7
M  V30 END BOND
M  V30 END CTAB
M  END
>  <i_epik_Tot_Q>  (1) 
0

>  <i_epik_Tot_abs_Q>  (1) 
0

>  <i_i_glide_confnum>  (1) 
1

>  <i_i_glide_lignum>  (1) 
30

>  <i_i_glide_posenum>  (1) 
99

>  <i_i_glide_rotatable_bonds>  (1) 
0

>  <i_lp_mmshare_version>  (1) 
72125

>  <i_m_source_file_index>  (1) 
30

>  <i_f3d_flags>  (1) 
0

>  <num_sample>  (1) 
50

>  <b_lp_Chiralities_Consistent>  (1) 
1

>  <r_epik_Charging_Adjusted_Penalty>  (1) 
0

>  <r_epik_Ionization_Penalty>  (1) 
3.7730911281982554e-13

>  <r_epik_Ionization_Penalty_Charging>  (1) 
0

>  <r_epik_Ionization_Penalty_Neutral>  (1) 
3.7730911281982554e-13

>  <r_epik_State_Penalty>  (1) 
-0

>  <r_glide_ring_energy>  (1) 
0

>  <r_i_docking_score>  (1) 
-4.0257798036784207

>  <r_i_glide_ecoul>  (1) 
-2.6549137049534939

>  <r_i_glide_eff_state_penalty>  (1) 
-0

>  <r_i_glide_einternal>  (1) 
0

>  <r_i_glide_emodel>  (1) 
-21.054515380323647

>  <r_i_glide_emodel_strain>  (1) 
0

>  <r_i_glide_energy>  (1) 
-16.783362262475489

>  <r_i_glide_erotb>  (1) 
0

>  <r_i_glide_esite>  (1) 
-0.017246494466363751

>  <r_i_glide_evdw>  (1) 
-14.128448557521994

>  <r_i_glide_gscore>  (1) 
-4.0257798036784207

>  <r_i_glide_gscore_strain>  (1) 
0

>  <r_i_glide_hbond>  (1) 
-0.32000000000000001

>  <r_i_glide_ligand_efficiency>  (1) 
-0.5751114005254887

>  <r_i_glide_ligand_efficiency_ln>  (1) 
-1.3665657131360225

>  <r_i_glide_ligand_efficiency_sa>  (1) 
-1.1001485316331083

>  <r_i_glide_lipo>  (1) 
-0.14073336869673858

>  <r_i_glide_metal>  (1) 
-0

>  <r_i_glide_rewards>  (1) 
-2.4431404568961943

>  <r_lp_Energy>  (1) 
-0.38655299999999998

>  <r_lp_tautomer_probability>  (1) 
1

>  <s_epik_cmdline>  (1) 
J2VwaWtfcHl0aG9uJywgJy1waHQnLCAnMS4wJywgJy1waCcsICc3LjQnLCAnLXRuJywgJzgnLCAnLW1hJywgJzUwMCcsICctaW1hZScsICc8aW5maWxlLm1hZT4nLCAnLW9tYWUnLCAnPG91dGZpbGUubWFlPic=

>  <s_epik_input>  (1) 
Tz1DMVtDSDJdW0NIMl1bQ0gyXVtDSDJdW0NIMl0x

>  <s_glide_docking_method>  (1) 
confgen

>  <s_i_glide_gridfile>  (1) 
gpcr_5ht2c_6bqh_protein_autoprepared_prepared

>  <s_lp_Force_Field>  (1) 
S-OPLS

>  <s_lp_Variant>  (1) 
Pocket2Mol_29_num_sample_50-1

>  <s_m_source_file>  (1) 
generated__ligand_Pocket2Mol_2026-05-06_prepared.sdf

>  <GenAI_Model>  (1) 
Pocket2Mol

>  <Protein>  (1) 
GPCR_5HT2C

$$$$
Pocket2Mol_36_num_sample_50
     RDKit          3D

  0  0  0  0  0  0  0  0  0  0999 V3000
M  V30 BEGIN CTAB
M  V30 COUNTS 17 17 0 0 1
M  V30 BEGIN ATOM
M  V30 1 C 34.827116 33.221431 59.853505 0
M  V30 2 C 35.653199 31.955872 60.142047 0
M  V30 3 C 36.948316 32.282349 60.884896 0
M  V30 4 O 37.315129 31.621430 61.853495 0
M  V30 5 C 35.674231 34.337296 59.218332 0
M  V30 6 C 36.880854 34.689471 60.100670 0
M  V30 7 C 37.770689 33.463093 60.366831 0
M  V30 8 H 33.998145 32.970593 59.190639 0
M  V30 9 H 34.379335 33.584861 60.779052 0
M  V30 10 H 35.914365 31.466243 59.203099 0
M  V30 11 H 38.553057 33.708696 61.085040 0
M  V30 12 H 35.067404 31.243029 60.722095 0
M  V30 13 H 35.064314 35.223979 59.050988 0
M  V30 14 H 36.022983 34.018290 58.236069 0
M  V30 15 H 36.534172 35.103904 61.048355 0
M  V30 16 H 37.467423 35.472730 59.620155 0
M  V30 17 H 38.265034 33.155517 59.445117 0
M  V30 END ATOM
M  V30 BEGIN BOND
M  V30 1 1 2 1
M  V30 2 1 3 2
M  V30 3 2 4 3
M  V30 4 1 5 1
M  V30 5 1 6 5
M  V30 6 1 7 3
M  V30 7 1 7 6
M  V30 8 1 8 1
M  V30 9 1 9 1
M  V30 10 1 10 2
M  V30 11 1 11 7
M  V30 12 1 12 2
M  V30 13 1 13 5
M  V30 14 1 14 5
M  V30 15 1 15 6
M  V30 16 1 16 6
M  V30 17 1 17 7
M  V30 END BOND
M  V30 END CTAB
M  END
>  <i_epik_Tot_Q>  (1) 
0

>  <i_epik_Tot_abs_Q>  (1) 
0

>  <i_i_glide_confnum>  (1) 
2

>  <i_i_glide_lignum>  (1) 
37

>  <i_i_glide_posenum>  (1) 
345

>  <i_i_glide_rotatable_bonds>  (1) 
0

>  <i_lp_mmshare_version>  (1) 
72125

>  <i_m_source_file_index>  (1) 
37

>  <i_f3d_flags>  (1) 
0

>  <num_sample>  (1) 
50

>  <b_lp_Chiralities_Consistent>  (1) 
1

>  <r_epik_Charging_Adjusted_Penalty>  (1) 
0

>  <r_epik_Ionization_Penalty>  (1) 
3.7730911281982554e-13

>  <r_epik_Ionization_Penalty_Charging>  (1) 
0

>  <r_epik_Ionization_Penalty_Neutral>  (1) 
3.7730911281982554e-13

>  <r_epik_State_Penalty>  (1) 
-0

>  <r_glide_ring_energy>  (1) 
4.2281688740393558e-05

>  <r_i_docking_score>  (1) 
-4.0250600026398704

>  <r_i_glide_ecoul>  (1) 
-2.6568909590211125

>  <r_i_glide_eff_state_penalty>  (1) 
-0

>  <r_i_glide_einternal>  (1) 
0

>  <r_i_glide_emodel>  (1) 
-21.05107824292487

>  <r_i_glide_emodel_strain>  (1) 
0

>  <r_i_glide_energy>  (1) 
-16.780675127139819

>  <r_i_glide_erotb>  (1) 
0

>  <r_i_glide_esite>  (1) 
-0.01727996023881467

>  <r_i_glide_evdw>  (1) 
-14.123784168118705

>  <r_i_glide_gscore>  (1) 
-4.0250600026398704

>  <r_i_glide_gscore_strain>  (1) 
0

>  <r_i_glide_hbond>  (1) 
-0.32000000000000001

>  <r_i_glide_ligand_efficiency>  (1) 
-0.57500857180569576

>  <r_i_glide_ligand_efficiency_ln>  (1) 
-1.366321374034648

>  <r_i_glide_ligand_efficiency_sa>  (1) 
-1.0999518273685318

>  <r_i_glide_lipo>  (1) 
-0.13992501168383473

>  <r_i_glide_metal>  (1) 
-0

>  <r_i_glide_rewards>  (1) 
-2.4431321784581193

>  <r_lp_Energy>  (1) 
-0.38638499999999998

>  <r_lp_tautomer_probability>  (1) 
1

>  <s_epik_cmdline>  (1) 
J2VwaWtfcHl0aG9uJywgJy1waHQnLCAnMS4wJywgJy1waCcsICc3LjQnLCAnLXRuJywgJzgnLCAnLW1hJywgJzUwMCcsICctaW1hZScsICc8aW5maWxlLm1hZT4nLCAnLW9tYWUnLCAnPG91dGZpbGUubWFlPic=

>  <s_epik_input>  (1) 
W0NIMl0xW0NIMl1bQ0gyXVtDSDJdW0NIXT1DMVtPSF0=

>  <s_glide_docking_method>  (1) 
confgen

>  <s_i_glide_gridfile>  (1) 
gpcr_5ht2c_6bqh_protein_autoprepared_prepared

>  <s_lp_Force_Field>  (1) 
S-OPLS

>  <s_lp_Variant>  (1) 
Pocket2Mol_36_num_sample_50-1

>  <s_m_source_file>  (1) 
generated__ligand_Pocket2Mol_2026-05-06_prepared.sdf

>  <GenAI_Model>  (1) 
Pocket2Mol

>  <Protein>  (1) 
GPCR_5HT2C

$$$$
Pocket2Mol_1_num_sample_50
     RDKit          3D

  0  0  0  0  0  0  0  0  0  0999 V3000
M  V30 BEGIN CTAB
M  V30 COUNTS 9 9 0 0 1
M  V30 BEGIN ATOM
M  V30 1 C 35.467403 33.203706 61.053661 0
M  V30 2 O 36.028068 32.021430 61.453501 0
M  V30 3 C 36.902521 31.673245 60.461810 0
M  V30 4 C 35.969569 33.598736 59.848075 0
M  V30 5 C 36.902599 32.604103 59.462943 0
M  V30 6 H 34.739884 33.621363 61.734590 0
M  V30 7 H 37.434592 30.747030 60.621527 0
M  V30 8 H 35.695557 34.493484 59.307929 0
M  V30 9 H 37.498590 32.569694 58.562337 0
M  V30 END ATOM
M  V30 BEGIN BOND
M  V30 1 1 2 1
M  V30 2 1 3 2
M  V30 3 2 4 1
M  V30 4 2 5 3
M  V30 5 1 5 4
M  V30 6 1 6 1
M  V30 7 1 7 3
M  V30 8 1 8 4
M  V30 9 1 9 5
M  V30 END BOND
M  V30 END CTAB
M  END
>  <i_epik_Tot_Q>  (1) 
0

>  <i_epik_Tot_abs_Q>  (1) 
0

>  <i_i_glide_confnum>  (1) 
1

>  <i_i_glide_lignum>  (1) 
2

>  <i_i_glide_posenum>  (1) 
357

>  <i_i_glide_rotatable_bonds>  (1) 
0

>  <i_lp_mmshare_version>  (1) 
72125

>  <i_m_source_file_index>  (1) 
2

>  <i_f3d_flags>  (1) 
0

>  <num_sample>  (1) 
50

>  <b_lp_Chiralities_Consistent>  (1) 
1

>  <r_epik_Charging_Adjusted_Penalty>  (1) 
0

>  <r_epik_Ionization_Penalty>  (1) 
0

>  <r_epik_Ionization_Penalty_Charging>  (1) 
0

>  <r_epik_Ionization_Penalty_Neutral>  (1) 
0

>  <r_epik_State_Penalty>  (1) 
-0

>  <r_glide_ring_energy>  (1) 
0

>  <r_i_docking_score>  (1) 
-4.0180465742120344

>  <r_i_glide_ecoul>  (1) 
-1.0584856085233814

>  <r_i_glide_eff_state_penalty>  (1) 
-0

>  <r_i_glide_einternal>  (1) 
0

>  <r_i_glide_emodel>  (1) 
-13.861059142301194

>  <r_i_glide_emodel_strain>  (1) 
0

>  <r_i_glide_energy>  (1) 
-10.54710235351185

>  <r_i_glide_erotb>  (1) 
0

>  <r_i_glide_esite>  (1) 
0

>  <r_i_glide_evdw>  (1) 
-9.4886167449884677

>  <r_i_glide_gscore>  (1) 
-4.0180465742120344

>  <r_i_glide_gscore_strain>  (1) 
0

>  <r_i_glide_hbond>  (1) 
-0.30126948255350505

>  <r_i_glide_ligand_efficiency>  (1) 
-0.80360931484240683

>  <r_i_glide_ligand_efficiency_ln>  (1) 
-1.539813058998585

>  <r_i_glide_ligand_efficiency_sa>  (1) 
-1.3741525989058565

>  <r_i_glide_lipo>  (1) 
-0.17204492787570883

>  <r_i_glide_metal>  (1) 
-0

>  <r_i_glide_rewards>  (1) 
-2.9115284852548893

>  <r_lp_Energy>  (1) 
2.5980879999999997

>  <r_lp_tautomer_probability>  (1) 
1

>  <s_epik_cmdline>  (1) 
J2VwaWtfcHl0aG9uJywgJy1waHQnLCAnMS4wJywgJy1waCcsICc3LjQnLCAnLXRuJywgJzgnLCAnLW1hJywgJzUwMCcsICctaW1hZScsICc8aW5maWxlLm1hZT4nLCAnLW9tYWUnLCAnPG91dGZpbGUubWFlPic=

>  <s_epik_input>  (1) 
W2NIXTFvW2NIXVtjSF1bY0hdMQ==

>  <s_glide_docking_method>  (1) 
confgen

>  <s_i_glide_gridfile>  (1) 
gpcr_5ht2c_6bqh_protein_autoprepared_prepared

>  <s_lp_Force_Field>  (1) 
S-OPLS

>  <s_lp_Variant>  (1) 
Pocket2Mol_1_num_sample_50-1

>  <s_m_source_file>  (1) 
generated__ligand_Pocket2Mol_2026-05-06_prepared.sdf

>  <GenAI_Model>  (1) 
Pocket2Mol

>  <Protein>  (1) 
GPCR_5HT2C

$$$$
Pocket2Mol_16_num_sample_50
     RDKit          3D

  0  0  0  0  0  0  0  0  0  0999 V3000
M  V30 BEGIN CTAB
M  V30 COUNTS 18 18 0 0 1
M  V30 BEGIN ATOM
M  V30 1 C 38.666607 27.891701 54.889363 0
M  V30 2 C 38.522168 28.177757 56.394132 0
M  V30 3 C 39.190981 29.505453 56.781075 0
M  V30 4 C 38.144891 29.064058 54.040784 0
M  V30 5 C 38.660875 30.672821 55.932495 0
M  V30 6 C 38.824628 30.387432 54.431107 0
M  V30 7 H 39.715099 27.707097 54.654405 0
M  V30 8 H 38.128585 26.978907 54.631251 0
M  V30 9 H 37.467404 28.217942 56.663447 0
M  V30 10 H 38.955406 27.360406 56.971400 0
M  V30 11 H 39.027725 29.711055 57.839404 0
M  V30 12 H 40.267403 29.416180 56.644515 0
M  V30 13 H 38.305989 28.859588 52.981809 0
M  V30 14 H 37.067403 29.158281 54.176361 0
M  V30 15 H 39.184086 31.592796 56.195593 0
M  V30 16 H 37.606642 30.842842 56.160000 0
M  V30 17 H 39.885143 30.344992 54.178966 0
M  V30 18 H 38.401344 31.209756 53.853499 0
M  V30 END ATOM
M  V30 BEGIN BOND
M  V30 1 1 2 1
M  V30 2 1 3 2
M  V30 3 1 4 1
M  V30 4 1 5 3
M  V30 5 1 6 4
M  V30 6 1 6 5
M  V30 7 1 7 1
M  V30 8 1 8 1
M  V30 9 1 9 2
M  V30 10 1 10 2
M  V30 11 1 11 3
M  V30 12 1 12 3
M  V30 13 1 13 4
M  V30 14 1 14 4
M  V30 15 1 15 5
M  V30 16 1 16 5
M  V30 17 1 17 6
M  V30 18 1 18 6
M  V30 END BOND
M  V30 END CTAB
M  END
>  <i_epik_Tot_Q>  (1) 
0

>  <i_epik_Tot_abs_Q>  (1) 
0

>  <i_i_glide_confnum>  (1) 
2

>  <i_i_glide_lignum>  (1) 
17

>  <i_i_glide_posenum>  (1) 
189

>  <i_i_glide_rotatable_bonds>  (1) 
0

>  <i_lp_mmshare_version>  (1) 
72125

>  <i_m_source_file_index>  (1) 
17

>  <i_f3d_flags>  (1) 
0

>  <num_sample>  (1) 
50

>  <b_lp_Chiralities_Consistent>  (1) 
1

>  <r_epik_Charging_Adjusted_Penalty>  (1) 
0

>  <r_epik_Ionization_Penalty>  (1) 
0

>  <r_epik_Ionization_Penalty_Charging>  (1) 
0

>  <r_epik_Ionization_Penalty_Neutral>  (1) 
0

>  <r_epik_State_Penalty>  (1) 
-0

>  <r_glide_ring_energy>  (1) 
0.00054248204421707515

>  <r_i_docking_score>  (1) 
-4.0100113215429385

>  <r_i_glide_ecoul>  (1) 
0.01721439896055138

>  <r_i_glide_eff_state_penalty>  (1) 
-0

>  <r_i_glide_einternal>  (1) 
0

>  <r_i_glide_emodel>  (1) 
-14.487583146336458

>  <r_i_glide_emodel_strain>  (1) 
0

>  <r_i_glide_energy>  (1) 
-11.337340320465371

>  <r_i_glide_erotb>  (1) 
0

>  <r_i_glide_esite>  (1) 
0

>  <r_i_glide_evdw>  (1) 
-11.354554719425922

>  <r_i_glide_gscore>  (1) 
-4.0100113215429385

>  <r_i_glide_gscore_strain>  (1) 
0

>  <r_i_glide_hbond>  (1) 
0

>  <r_i_glide_ligand_efficiency>  (1) 
-0.66833522025715641

>  <r_i_glide_ligand_efficiency_ln>  (1) 
-1.4363742169563556

>  <r_i_glide_ligand_efficiency_sa>  (1) 
-1.2144456916442827

>  <r_i_glide_lipo>  (1) 
-0.8115324120823918

>  <r_i_glide_metal>  (1) 
-0

>  <r_i_glide_rewards>  (1) 
-2.6333333333333333

>  <r_lp_Energy>  (1) 
5.7175969999999996

>  <r_lp_tautomer_probability>  (1) 
1

>  <s_epik_cmdline>  (1) 
J2VwaWtfcHl0aG9uJywgJy1waHQnLCAnMS4wJywgJy1waCcsICc3LjQnLCAnLXRuJywgJzgnLCAnLW1hJywgJzUwMCcsICctaW1hZScsICc8aW5maWxlLm1hZT4nLCAnLW9tYWUnLCAnPG91dGZpbGUubWFlPic=

>  <s_epik_input>  (1) 
W0NIMl0xW0NIMl1bQ0gyXVtDSDJdW0NIMl1bQ0gyXTE=

>  <s_glide_docking_method>  (1) 
confgen

>  <s_i_glide_gridfile>  (1) 
gpcr_5ht2c_6bqh_protein_autoprepared_prepared

>  <s_lp_Force_Field>  (1) 
S-OPLS

>  <s_lp_Variant>  (1) 
Pocket2Mol_16_num_sample_50-1

>  <s_m_source_file>  (1) 
generated__ligand_Pocket2Mol_2026-05-06_prepared.sdf

>  <GenAI_Model>  (1) 
Pocket2Mol

>  <Protein>  (1) 
GPCR_5HT2C

$$$$
Pocket2Mol_37_num_sample_50
     RDKit          3D

  0  0  0  0  0  0  0  0  0  0999 V3000
M  V30 BEGIN CTAB
M  V30 COUNTS 15 15 0 0 1
M  V30 BEGIN ATOM
M  V30 1 C 35.838907 33.949981 59.738720 0
M  V30 2 C 35.636372 33.208129 61.071670 0
M  V30 3 O 37.226434 34.019622 59.452383 0
M  V30 4 C 37.768339 32.836898 58.962249 0
M  V30 5 O 35.679402 31.784830 61.007157 0
M  V30 6 O 37.721067 31.778250 59.873177 0
M  V30 7 C 36.448184 31.218704 59.992248 0
M  V30 8 H 35.257629 33.521781 58.920996 0
M  V30 9 H 35.492192 34.976661 59.853496 0
M  V30 10 H 34.667403 33.475648 61.493387 0
M  V30 11 H 36.381097 33.547415 61.792572 0
M  V30 12 H 38.822010 33.039370 58.770545 0
M  V30 13 H 37.318700 32.573606 58.002139 0
M  V30 14 H 35.891634 31.228069 59.053501 0
M  V30 15 H 36.585093 30.169955 60.253513 0
M  V30 END ATOM
M  V30 BEGIN BOND
M  V30 1 1 2 1
M  V30 2 1 3 1
M  V30 3 1 4 3
M  V30 4 1 5 2
M  V30 5 1 6 4
M  V30 6 1 7 5
M  V30 7 1 7 6
M  V30 8 1 8 1
M  V30 9 1 9 1
M  V30 10 1 10 2
M  V30 11 1 11 2
M  V30 12 1 12 4
M  V30 13 1 13 4
M  V30 14 1 14 7
M  V30 15 1 15 7
M  V30 END BOND
M  V30 END CTAB
M  END
>  <i_epik_Tot_Q>  (1) 
0

>  <i_epik_Tot_abs_Q>  (1) 
0

>  <i_i_glide_confnum>  (1) 
2

>  <i_i_glide_lignum>  (1) 
38

>  <i_i_glide_posenum>  (1) 
61

>  <i_i_glide_rotatable_bonds>  (1) 
0

>  <i_lp_mmshare_version>  (1) 
72125

>  <i_m_source_file_index>  (1) 
38

>  <i_f3d_flags>  (1) 
0

>  <num_sample>  (1) 
50

>  <b_lp_Chiralities_Consistent>  (1) 
1

>  <r_epik_Charging_Adjusted_Penalty>  (1) 
0

>  <r_epik_Ionization_Penalty>  (1) 
4.6834743432320728e-14

>  <r_epik_Ionization_Penalty_Charging>  (1) 
0

>  <r_epik_Ionization_Penalty_Neutral>  (1) 
4.6834743432320728e-14

>  <r_epik_State_Penalty>  (1) 
-0

>  <r_glide_ring_energy>  (1) 
0.00017049435676393324

>  <r_i_docking_score>  (1) 
-3.9993666212603038

>  <r_i_glide_ecoul>  (1) 
-2.7782289712815307

>  <r_i_glide_eff_state_penalty>  (1) 
-0

>  <r_i_glide_einternal>  (1) 
0

>  <r_i_glide_emodel>  (1) 
-20.286818295981362

>  <r_i_glide_emodel_strain>  (1) 
0

>  <r_i_glide_energy>  (1) 
-15.797063706288533

>  <r_i_glide_erotb>  (1) 
0

>  <r_i_glide_esite>  (1) 
-0.12742149448562543

>  <r_i_glide_evdw>  (1) 
-13.018834735007003

>  <r_i_glide_gscore>  (1) 
-3.9993666212603038

>  <r_i_glide_gscore_strain>  (1) 
0

>  <r_i_glide_hbond>  (1) 
-0.10913119995698688

>  <r_i_glide_ligand_efficiency>  (1) 
-0.57133808875147196

>  <r_i_glide_ligand_efficiency_ln>  (1) 
-1.3575996615317036

>  <r_i_glide_ligand_efficiency_sa>  (1) 
-1.0929304458782696

>  <r_i_glide_lipo>  (1) 
-0.23184308816905061

>  <r_i_glide_metal>  (1) 
-0

>  <r_i_glide_rewards>  (1) 
-2.4632947562060612

>  <r_lp_Energy>  (1) 
1.238378

>  <r_lp_tautomer_probability>  (1) 
1

>  <s_epik_Chemistry_Notes>  (1) 
This compound contains an acetal/aminal-like group ( X-CH(R)-Y where X, Y are N, S, or O) that may be acid/base labile, releasing an aldehyde.

>  <s_epik_cmdline>  (1) 
J2VwaWtfcHl0aG9uJywgJy1waHQnLCAnMS4wJywgJy1waCcsICc3LjQnLCAnLXRuJywgJzgnLCAnLW1hJywgJzUwMCcsICctaW1hZScsICc8aW5maWxlLm1hZT4nLCAnLW9tYWUnLCAnPG91dGZpbGUubWFlPic=

>  <s_epik_input>  (1) 
W0NIMl0xW0NIMl1PW0NIMl1PW0NIMl1PMQ==

>  <s_glide_docking_method>  (1) 
confgen

>  <s_i_glide_gridfile>  (1) 
gpcr_5ht2c_6bqh_protein_autoprepared_prepared

>  <s_lp_Force_Field>  (1) 
S-OPLS

>  <s_lp_Variant>  (1) 
Pocket2Mol_37_num_sample_50-1

>  <s_m_source_file>  (1) 
generated__ligand_Pocket2Mol_2026-05-06_prepared.sdf

>  <GenAI_Model>  (1) 
Pocket2Mol

>  <Protein>  (1) 
GPCR_5HT2C

$$$$
Pocket2Mol_47_num_sample_50
     RDKit          3D

  0  0  0  0  0  0  0  0  0  0999 V3000
M  V30 BEGIN CTAB
M  V30 COUNTS 15 15 0 0 1
M  V30 BEGIN ATOM
M  V30 1 C 37.467508 30.205925 55.053502 0
M  V30 2 C 37.913218 28.825775 54.560196 0
M  V30 3 C 38.753087 29.104454 53.316990 0
M  V30 4 C 38.499659 31.213125 54.525166 0
M  V30 5 C 39.467247 30.420484 53.637298 0
M  V30 6 H 36.481987 30.448543 54.653465 0
M  V30 7 H 37.381580 30.239563 56.140406 0
M  V30 8 H 38.534354 28.350075 55.320257 0
M  V30 9 H 37.072392 28.161988 54.355489 0
M  V30 10 H 39.448287 28.294913 53.092877 0
M  V30 11 H 38.100233 29.221894 52.451557 0
M  V30 12 H 37.998469 31.991649 53.948396 0
M  V30 13 H 39.030035 31.708664 55.339069 0
M  V30 14 H 40.377387 30.212482 54.200702 0
M  V30 15 H 39.756948 30.969628 52.740485 0
M  V30 END ATOM
M  V30 BEGIN BOND
M  V30 1 1 2 1
M  V30 2 1 3 2
M  V30 3 1 4 1
M  V30 4 1 5 3
M  V30 5 1 5 4
M  V30 6 1 6 1
M  V30 7 1 7 1
M  V30 8 1 8 2
M  V30 9 1 9 2
M  V30 10 1 10 3
M  V30 11 1 11 3
M  V30 12 1 12 4
M  V30 13 1 13 4
M  V30 14 1 14 5
M  V30 15 1 15 5
M  V30 END BOND
M  V30 END CTAB
M  END
>  <i_epik_Tot_Q>  (1) 
0

>  <i_epik_Tot_abs_Q>  (1) 
0

>  <i_i_glide_confnum>  (1) 
2

>  <i_i_glide_lignum>  (1) 
48

>  <i_i_glide_posenum>  (1) 
242

>  <i_i_glide_rotatable_bonds>  (1) 
0

>  <i_lp_mmshare_version>  (1) 
72125

>  <i_m_source_file_index>  (1) 
48

>  <i_f3d_flags>  (1) 
0

>  <num_sample>  (1) 
50

>  <b_lp_Chiralities_Consistent>  (1) 
1

>  <r_epik_Charging_Adjusted_Penalty>  (1) 
0

>  <r_epik_Ionization_Penalty>  (1) 
0

>  <r_epik_Ionization_Penalty_Charging>  (1) 
0

>  <r_epik_Ionization_Penalty_Neutral>  (1) 
0

>  <r_epik_State_Penalty>  (1) 
-0

>  <r_glide_ring_energy>  (1) 
0.00028446117277806444

>  <r_i_docking_score>  (1) 
-3.9909404231508936

>  <r_i_glide_ecoul>  (1) 
-0.057859433018105033

>  <r_i_glide_eff_state_penalty>  (1) 
-0

>  <r_i_glide_einternal>  (1) 
0

>  <r_i_glide_emodel>  (1) 
-15.076787325508754

>  <r_i_glide_emodel_strain>  (1) 
0

>  <r_i_glide_energy>  (1) 
-11.944667728918553

>  <r_i_glide_erotb>  (1) 
0

>  <r_i_glide_esite>  (1) 
0

>  <r_i_glide_evdw>  (1) 
-11.886808295900448

>  <r_i_glide_gscore>  (1) 
-3.9909404231508936

>  <r_i_glide_gscore_strain>  (1) 
0

>  <r_i_glide_hbond>  (1) 
0

>  <r_i_glide_ligand_efficiency>  (1) 
-0.79818808463017876

>  <r_i_glide_ligand_efficiency_ln>  (1) 
-1.5294253234130866

>  <r_i_glide_ligand_efficiency_sa>  (1) 
-1.3648824256415495

>  <r_i_glide_lipo>  (1) 
-0.85907231426051012

>  <r_i_glide_metal>  (1) 
-0

>  <r_i_glide_rewards>  (1) 
-2.5288487791426451

>  <r_lp_Energy>  (1) 
13.274989999999999

>  <r_lp_tautomer_probability>  (1) 
1

>  <s_epik_cmdline>  (1) 
J2VwaWtfcHl0aG9uJywgJy1waHQnLCAnMS4wJywgJy1waCcsICc3LjQnLCAnLXRuJywgJzgnLCAnLW1hJywgJzUwMCcsICctaW1hZScsICc8aW5maWxlLm1hZT4nLCAnLW9tYWUnLCAnPG91dGZpbGUubWFlPic=

>  <s_epik_input>  (1) 
W0NIMl0xW0NIMl1bQ0gyXVtDSDJdW0NIMl0x

>  <s_glide_docking_method>  (1) 
confgen

>  <s_i_glide_gridfile>  (1) 
gpcr_5ht2c_6bqh_protein_autoprepared_prepared

>  <s_lp_Force_Field>  (1) 
S-OPLS

>  <s_lp_Variant>  (1) 
Pocket2Mol_47_num_sample_50-1

>  <s_m_source_file>  (1) 
generated__ligand_Pocket2Mol_2026-05-06_prepared.sdf

>  <GenAI_Model>  (1) 
Pocket2Mol

>  <Protein>  (1) 
GPCR_5HT2C

$$$$
Pocket2Mol_34_num_sample_50
     RDKit          3D

  0  0  0  0  0  0  0  0  0  0999 V3000
M  V30 BEGIN CTAB
M  V30 COUNTS 19 19 0 0 1
M  V30 BEGIN ATOM
M  V30 1 C 36.441781 31.686434 60.471733 0
M  V30 2 C 35.466919 32.854978 60.248922 0
M  V30 3 C 37.668640 32.141426 61.279811 0
M  V30 4 O 34.388471 32.421430 59.453501 0
M  V30 5 C 38.367527 33.336783 60.607924 0
M  V30 6 C 37.387570 34.499645 60.373386 0
M  V30 7 C 36.164656 34.041238 59.562753 0
M  V30 8 H 35.936889 30.868079 60.986210 0
M  V30 9 H 36.768554 31.290609 59.508563 0
M  V30 10 H 35.062927 33.178306 61.209578 0
M  V30 11 H 37.359152 32.421427 62.286949 0
M  V30 12 H 38.369529 31.313482 61.390331 0
M  V30 13 H 34.715900 32.196470 58.578702 0
M  V30 14 H 39.202863 33.673191 61.222877 0
M  V30 15 H 38.793433 33.022070 59.654055 0
M  V30 16 H 37.059061 34.901199 61.332960 0
M  V30 17 H 37.891124 35.314923 59.853529 0
M  V30 18 H 36.480317 33.756890 58.557210 0
M  V30 19 H 35.466547 34.870605 59.442705 0
M  V30 END ATOM
M  V30 BEGIN BOND
M  V30 1 1 2 1
M  V30 2 1 3 1
M  V30 3 1 4 2
M  V30 4 1 5 3
M  V30 5 1 6 5
M  V30 6 1 7 2
M  V30 7 1 7 6
M  V30 8 1 8 1
M  V30 9 1 9 1
M  V30 10 1 10 2
M  V30 11 1 11 3
M  V30 12 1 12 3
M  V30 13 1 13 4
M  V30 14 1 14 5
M  V30 15 1 15 5
M  V30 16 1 16 6
M  V30 17 1 17 6
M  V30 18 1 18 7
M  V30 19 1 19 7
M  V30 END BOND
M  V30 END CTAB
M  END
>  <i_epik_Tot_Q>  (1) 
0

>  <i_epik_Tot_abs_Q>  (1) 
0

>  <i_i_glide_confnum>  (1) 
1

>  <i_i_glide_lignum>  (1) 
35

>  <i_i_glide_posenum>  (1) 
140

>  <i_i_glide_rotatable_bonds>  (1) 
1

>  <i_lp_mmshare_version>  (1) 
72125

>  <i_m_source_file_index>  (1) 
35

>  <i_f3d_flags>  (1) 
0

>  <num_sample>  (1) 
50

>  <b_lp_Chiralities_Consistent>  (1) 
1

>  <r_epik_Charging_Adjusted_Penalty>  (1) 
0

>  <r_epik_Ionization_Penalty>  (1) 
4.7751045033339745e-07

>  <r_epik_Ionization_Penalty_Charging>  (1) 
0

>  <r_epik_Ionization_Penalty_Neutral>  (1) 
4.7751045033339745e-07

>  <r_epik_State_Penalty>  (1) 
-0

>  <r_glide_ring_energy>  (1) 
0

>  <r_i_docking_score>  (1) 
-3.9812703924255053

>  <r_i_glide_ecoul>  (1) 
-2.983919866618308

>  <r_i_glide_eff_state_penalty>  (1) 
-0

>  <r_i_glide_einternal>  (1) 
0.030898352136911944

>  <r_i_glide_emodel>  (1) 
-21.052565844964196

>  <r_i_glide_emodel_strain>  (1) 
0

>  <r_i_glide_energy>  (1) 
-16.723337908543929

>  <r_i_glide_erotb>  (1) 
0

>  <r_i_glide_esite>  (1) 
0

>  <r_i_glide_evdw>  (1) 
-13.739418041925621

>  <r_i_glide_gscore>  (1) 
-3.9812703924255053

>  <r_i_glide_gscore_strain>  (1) 
0

>  <r_i_glide_hbond>  (1) 
-0.16

>  <r_i_glide_ligand_efficiency>  (1) 
-0.56875291320364363

>  <r_i_glide_ligand_efficiency_ln>  (1) 
-1.3514568303117487

>  <r_i_glide_ligand_efficiency_sa>  (1) 
-1.0879851829598879

>  <r_i_glide_lipo>  (1) 
-0.2817112223675336

>  <r_i_glide_metal>  (1) 
-0

>  <r_i_glide_rewards>  (1) 
-2.4050002879689445

>  <r_lp_Energy>  (1) 
3.8568439999999997

>  <r_lp_tautomer_probability>  (1) 
1

>  <s_epik_cmdline>  (1) 
J2VwaWtfcHl0aG9uJywgJy1waHQnLCAnMS4wJywgJy1waCcsICc3LjQnLCAnLXRuJywgJzgnLCAnLW1hJywgJzUwMCcsICctaW1hZScsICc8aW5maWxlLm1hZT4nLCAnLW9tYWUnLCAnPG91dGZpbGUubWFlPic=

>  <s_epik_input>  (1) 
W09IXVtDSF0xW0NIMl1bQ0gyXVtDSDJdW0NIMl1bQ0gyXTE=

>  <s_glide_docking_method>  (1) 
confgen

>  <s_i_glide_gridfile>  (1) 
gpcr_5ht2c_6bqh_protein_autoprepared_prepared

>  <s_lp_Force_Field>  (1) 
S-OPLS

>  <s_lp_Variant>  (1) 
Pocket2Mol_34_num_sample_50-1

>  <s_m_source_file>  (1) 
generated__ligand_Pocket2Mol_2026-05-06_prepared.sdf

>  <GenAI_Model>  (1) 
Pocket2Mol

>  <Protein>  (1) 
GPCR_5HT2C

$$$$
Pocket2Mol_10_num_sample_50
     RDKit          3D

  0  0  0  0  0  0  0  0  0  0999 V3000
M  V30 BEGIN CTAB
M  V30 COUNTS 14 14 0 0 1
M  V30 BEGIN ATOM
M  V30 1 C 35.467428 33.213109 61.187080 0
M  V30 2 O 35.988203 31.903467 61.397276 0
M  V30 3 C 37.369766 31.837921 61.060628 0
M  V30 4 C 35.668871 33.621572 59.718546 0
M  V30 5 O 37.057638 33.574445 59.417895 0
M  V30 6 C 37.567466 32.259109 59.592190 0
M  V30 7 H 34.407381 33.221432 61.439734 0
M  V30 8 H 35.958685 33.923390 61.853534 0
M  V30 9 H 37.945244 32.481856 61.727434 0
M  V30 10 H 37.725114 30.818927 61.214573 0
M  V30 11 H 35.108904 32.962840 59.053506 0
M  V30 12 H 35.301415 34.633870 59.549935 0
M  V30 13 H 38.626572 32.251374 59.334137 0
M  V30 14 H 37.067403 31.565794 58.913643 0
M  V30 END ATOM
M  V30 BEGIN BOND
M  V30 1 1 2 1
M  V30 2 1 3 2
M  V30 3 1 4 1
M  V30 4 1 5 4
M  V30 5 1 6 3
M  V30 6 1 6 5
M  V30 7 1 7 1
M  V30 8 1 8 1
M  V30 9 1 9 3
M  V30 10 1 10 3
M  V30 11 1 11 4
M  V30 12 1 12 4
M  V30 13 1 13 6
M  V30 14 1 14 6
M  V30 END BOND
M  V30 END CTAB
M  END
>  <i_epik_Tot_Q>  (1) 
0

>  <i_epik_Tot_abs_Q>  (1) 
0

>  <i_i_glide_confnum>  (1) 
1

>  <i_i_glide_lignum>  (1) 
11

>  <i_i_glide_posenum>  (1) 
62

>  <i_i_glide_rotatable_bonds>  (1) 
0

>  <i_lp_mmshare_version>  (1) 
72125

>  <i_m_source_file_index>  (1) 
11

>  <i_f3d_flags>  (1) 
0

>  <num_sample>  (1) 
50

>  <b_lp_Chiralities_Consistent>  (1) 
1

>  <r_epik_Charging_Adjusted_Penalty>  (1) 
0

>  <r_epik_Ionization_Penalty>  (1) 
8.3894707547109138e-13

>  <r_epik_Ionization_Penalty_Charging>  (1) 
0

>  <r_epik_Ionization_Penalty_Neutral>  (1) 
8.3894707547109138e-13

>  <r_epik_State_Penalty>  (1) 
-0

>  <r_glide_ring_energy>  (1) 
0

>  <r_i_docking_score>  (1) 
-3.9795407498557736

>  <r_i_glide_ecoul>  (1) 
-1.7913546854752589

>  <r_i_glide_eff_state_penalty>  (1) 
-0

>  <r_i_glide_einternal>  (1) 
0

>  <r_i_glide_emodel>  (1) 
-16.508765946388721

>  <r_i_glide_emodel_strain>  (1) 
0

>  <r_i_glide_energy>  (1) 
-13.17700692377654

>  <r_i_glide_erotb>  (1) 
0

>  <r_i_glide_esite>  (1) 
0

>  <r_i_glide_evdw>  (1) 
-11.385652238301281

>  <r_i_glide_gscore>  (1) 
-3.9795407498557736

>  <r_i_glide_gscore_strain>  (1) 
0

>  <r_i_glide_hbond>  (1) 
-0.32000000000000001

>  <r_i_glide_ligand_efficiency>  (1) 
-0.66325679164262896

>  <r_i_glide_ligand_efficiency_ln>  (1) 
-1.4254597481337281

>  <r_i_glide_ligand_efficiency_sa>  (1) 
-1.205217574429597

>  <r_i_glide_lipo>  (1) 
-0.14977713423841402

>  <r_i_glide_metal>  (1) 
-0

>  <r_i_glide_rewards>  (1) 
-2.6717778008810065

>  <r_lp_Energy>  (1) 
4.964817

>  <r_lp_tautomer_probability>  (1) 
1

>  <s_epik_cmdline>  (1) 
J2VwaWtfcHl0aG9uJywgJy1waHQnLCAnMS4wJywgJy1waCcsICc3LjQnLCAnLXRuJywgJzgnLCAnLW1hJywgJzUwMCcsICctaW1hZScsICc8aW5maWxlLm1hZT4nLCAnLW9tYWUnLCAnPG91dGZpbGUubWFlPic=

>  <s_epik_input>  (1) 
W0NIMl0xT1tDSDJdW0NIMl1PW0NIMl0x

>  <s_glide_docking_method>  (1) 
confgen

>  <s_i_glide_gridfile>  (1) 
gpcr_5ht2c_6bqh_protein_autoprepared_prepared

>  <s_lp_Force_Field>  (1) 
S-OPLS

>  <s_lp_Variant>  (1) 
Pocket2Mol_10_num_sample_50-1

>  <s_m_source_file>  (1) 
generated__ligand_Pocket2Mol_2026-05-06_prepared.sdf

>  <GenAI_Model>  (1) 
Pocket2Mol

>  <Protein>  (1) 
GPCR_5HT2C

$$$$
Pocket2Mol_42_num_sample_50
     RDKit          3D

  0  0  0  0  0  0  0  0  0  0999 V3000
M  V30 BEGIN CTAB
M  V30 COUNTS 10 9 0 0 1
M  V30 BEGIN ATOM
M  V30 1 C 39.406123 27.733228 51.132998 0
M  V30 2 O 39.575558 28.793264 50.253504 0
M  V30 3 C 40.074690 29.975553 50.858997 0
M  V30 4 O 38.267275 27.872923 51.946421 0
M  V30 5 H 40.267399 27.621686 51.788864 0
M  V30 6 H 39.283492 26.821393 50.550749 0
M  V30 7 H 40.088494 30.784368 50.128109 0
M  V30 8 H 39.467404 30.295020 51.705169 0
M  V30 9 H 41.094814 29.823783 51.208500 0
M  V30 10 H 37.517485 27.567216 51.453501 0
M  V30 END ATOM
M  V30 BEGIN BOND
M  V30 1 1 2 1
M  V30 2 1 3 2
M  V30 3 1 4 1
M  V30 4 1 5 1
M  V30 5 1 6 1
M  V30 6 1 7 3
M  V30 7 1 8 3
M  V30 8 1 9 3
M  V30 9 1 10 4
M  V30 END BOND
M  V30 END CTAB
M  END
>  <i_epik_Tot_Q>  (1) 
0

>  <i_epik_Tot_abs_Q>  (1) 
0

>  <i_i_glide_confnum>  (1) 
1

>  <i_i_glide_lignum>  (1) 
43

>  <i_i_glide_posenum>  (1) 
279

>  <i_i_glide_rotatable_bonds>  (1) 
2

>  <i_lp_mmshare_version>  (1) 
72125

>  <i_m_source_file_index>  (1) 
43

>  <i_f3d_flags>  (1) 
0

>  <num_sample>  (1) 
50

>  <b_lp_Chiralities_Consistent>  (1) 
1

>  <r_epik_Charging_Adjusted_Penalty>  (1) 
0

>  <r_epik_Ionization_Penalty>  (1) 
1.028953084229311e-06

>  <r_epik_Ionization_Penalty_Charging>  (1) 
0

>  <r_epik_Ionization_Penalty_Neutral>  (1) 
1.028953084229311e-06

>  <r_epik_State_Penalty>  (1) 
-0

>  <r_glide_ring_energy>  (1) 
0

>  <r_i_docking_score>  (1) 
-3.9770772103861454

>  <r_i_glide_ecoul>  (1) 
-1.5348068252160654

>  <r_i_glide_eff_state_penalty>  (1) 
-0

>  <r_i_glide_einternal>  (1) 
0.93221736473690298

>  <r_i_glide_emodel>  (1) 
-15.937008769252969

>  <r_i_glide_emodel_strain>  (1) 
0.0042096900949046834

>  <r_i_glide_energy>  (1) 
-12.263206234763475

>  <r_i_glide_erotb>  (1) 
0

>  <r_i_glide_esite>  (1) 
0

>  <r_i_glide_evdw>  (1) 
-10.728399409547409

>  <r_i_glide_gscore>  (1) 
-3.9770772103861454

>  <r_i_glide_gscore_strain>  (1) 
0

>  <r_i_glide_hbond>  (1) 
-0.18043621612636515

>  <r_i_glide_ligand_efficiency>  (1) 
-0.99426930259653634

>  <r_i_glide_ligand_efficiency_ln>  (1) 
-1.6666331175168592

>  <r_i_glide_ligand_efficiency_sa>  (1) 
-1.5783041368814299

>  <r_i_glide_lipo>  (1) 
-0.33000000000000002

>  <r_i_glide_metal>  (1) 
-0

>  <r_i_glide_rewards>  (1) 
-2.7000000000000002

>  <r_lp_Energy>  (1) 
5.5414079999999997

>  <r_lp_tautomer_probability>  (1) 
1

>  <s_epik_Chemistry_Notes>  (1) 
This compound contains an acetal/aminal-like group ( X-CH(R)-Y where X, Y are N, S, or O) that may be acid/base labile, releasing an aldehyde.

>  <s_epik_cmdline>  (1) 
J2VwaWtfcHl0aG9uJywgJy1waHQnLCAnMS4wJywgJy1waCcsICc3LjQnLCAnLXRuJywgJzgnLCAnLW1hJywgJzUwMCcsICctaW1hZScsICc8aW5maWxlLm1hZT4nLCAnLW9tYWUnLCAnPG91dGZpbGUubWFlPic=

>  <s_epik_input>  (1) 
W09IXVtDSDJdT1tDSDNd

>  <s_glide_docking_method>  (1) 
confgen

>  <s_i_glide_gridfile>  (1) 
gpcr_5ht2c_6bqh_protein_autoprepared_prepared

>  <s_lp_Force_Field>  (1) 
S-OPLS

>  <s_lp_Variant>  (1) 
Pocket2Mol_42_num_sample_50-1

>  <s_m_source_file>  (1) 
generated__ligand_Pocket2Mol_2026-05-06_prepared.sdf

>  <GenAI_Model>  (1) 
Pocket2Mol

>  <Protein>  (1) 
GPCR_5HT2C

$$$$
Pocket2Mol_21_num_sample_50
     RDKit          3D

  0  0  0  0  0  0  0  0  0  0999 V3000
M  V30 BEGIN CTAB
M  V30 COUNTS 14 14 0 0 1
M  V30 BEGIN ATOM
M  V30 1 C 35.467404 32.576993 60.744266 0
M  V30 2 C 36.476883 33.309736 59.853762 0
M  V30 3 O 36.236994 31.621430 61.453501 0
M  V30 4 C 37.468765 31.610609 60.826271 0
M  V30 5 O 37.720520 32.889179 60.370657 0
M  V30 6 C 38.543010 31.223524 61.842961 0
M  V30 7 H 34.690837 32.092795 60.150644 0
M  V30 8 H 34.988882 33.253246 61.453407 0
M  V30 9 H 36.386339 32.988816 58.814921 0
M  V30 10 H 36.369337 34.394005 59.891045 0
M  V30 11 H 37.438578 30.918823 59.980531 0
M  V30 12 H 38.563713 31.951359 62.653501 0
M  V30 13 H 39.519392 31.204937 61.358762 0
M  V30 14 H 38.330526 30.236231 62.254049 0
M  V30 END ATOM
M  V30 BEGIN BOND
M  V30 1 1 2 1
M  V30 2 1 3 1
M  V30 3 1 4 3
M  V30 4 1 5 2
M  V30 5 1 5 4
M  V30 6 1 6 4
M  V30 7 1 7 1
M  V30 8 1 8 1
M  V30 9 1 9 2
M  V30 10 1 10 2
M  V30 11 1 11 4
M  V30 12 1 12 6
M  V30 13 1 13 6
M  V30 14 1 14 6
M  V30 END BOND
M  V30 END CTAB
M  END
>  <i_epik_Tot_Q>  (1) 
0

>  <i_epik_Tot_abs_Q>  (1) 
0

>  <i_i_glide_confnum>  (1) 
1

>  <i_i_glide_lignum>  (1) 
22

>  <i_i_glide_posenum>  (1) 
228

>  <i_i_glide_rotatable_bonds>  (1) 
0

>  <i_lp_mmshare_version>  (1) 
72125

>  <i_m_source_file_index>  (1) 
22

>  <i_f3d_flags>  (1) 
0

>  <num_sample>  (1) 
50

>  <b_lp_Chiralities_Consistent>  (1) 
1

>  <r_epik_Charging_Adjusted_Penalty>  (1) 
0

>  <r_epik_Ionization_Penalty>  (1) 
7.9724310449397378e-14

>  <r_epik_Ionization_Penalty_Charging>  (1) 
0

>  <r_epik_Ionization_Penalty_Neutral>  (1) 
7.9724310449397378e-14

>  <r_epik_State_Penalty>  (1) 
-0

>  <r_glide_ring_energy>  (1) 
0

>  <r_i_docking_score>  (1) 
-3.9673456191738481

>  <r_i_glide_ecoul>  (1) 
-3.0900755521746643

>  <r_i_glide_eff_state_penalty>  (1) 
-0

>  <r_i_glide_einternal>  (1) 
0

>  <r_i_glide_emodel>  (1) 
-17.707785912342413

>  <r_i_glide_emodel_strain>  (1) 
0.20593032495006636

>  <r_i_glide_energy>  (1) 
-14.14740382049113

>  <r_i_glide_erotb>  (1) 
0

>  <r_i_glide_esite>  (1) 
0

>  <r_i_glide_evdw>  (1) 
-11.057328268316466

>  <r_i_glide_gscore>  (1) 
-3.9673456191738481

>  <r_i_glide_gscore_strain>  (1) 
0

>  <r_i_glide_hbond>  (1) 
-0.32000000000000001

>  <r_i_glide_ligand_efficiency>  (1) 
-0.66122426986230798

>  <r_i_glide_ligand_efficiency_ln>  (1) 
-1.4210914883261245

>  <r_i_glide_ligand_efficiency_sa>  (1) 
-1.2015242372471959

>  <r_i_glide_lipo>  (1) 
-0.2351691888133304

>  <r_i_glide_metal>  (1) 
-0

>  <r_i_glide_rewards>  (1) 
-2.3957986841184948

>  <r_lp_Energy>  (1) 
-12.129052

>  <r_lp_tautomer_probability>  (1) 
1

>  <s_epik_Chemistry_Notes>  (1) 
This compound contains an acetal/aminal-like group ( X-CH(R)-Y where X, Y are N, S, or O) that may be acid/base labile, releasing an aldehyde.

>  <s_epik_cmdline>  (1) 
J2VwaWtfcHl0aG9uJywgJy1waHQnLCAnMS4wJywgJy1waCcsICc3LjQnLCAnLXRuJywgJzgnLCAnLW1hJywgJzUwMCcsICctaW1hZScsICc8aW5maWxlLm1hZT4nLCAnLW9tYWUnLCAnPG91dGZpbGUubWFlPic=

>  <s_epik_input>  (1) 
TzFbQ0gyXVtDSDJdT1tDSF0xW0NIM10=

>  <s_glide_docking_method>  (1) 
confgen

>  <s_i_glide_gridfile>  (1) 
gpcr_5ht2c_6bqh_protein_autoprepared_prepared

>  <s_lp_Force_Field>  (1) 
S-OPLS

>  <s_lp_Variant>  (1) 
Pocket2Mol_21_num_sample_50-1

>  <s_m_source_file>  (1) 
generated__ligand_Pocket2Mol_2026-05-06_prepared.sdf

>  <GenAI_Model>  (1) 
Pocket2Mol

>  <Protein>  (1) 
GPCR_5HT2C

$$$$
Pocket2Mol_13_num_sample_50
     RDKit          3D

  0  0  0  0  0  0  0  0  0  0999 V3000
M  V30 BEGIN CTAB
M  V30 COUNTS 12 12 0 0 1
M  V30 BEGIN ATOM
M  V30 1 C 36.958865 33.829363 59.053518 0
M  V30 2 O 37.125305 32.893265 60.105697 0
M  V30 3 C 35.507563 34.308155 59.209088 0
M  V30 4 C 35.960523 32.465119 60.571475 0
M  V30 5 C 34.792827 33.149716 59.892770 0
M  V30 6 O 35.811936 31.621431 61.453497 0
M  V30 7 H 37.672289 34.649819 59.128930 0
M  V30 8 H 37.104065 33.324656 58.096895 0
M  V30 9 H 35.467557 35.197093 59.839642 0
M  V30 10 H 35.053102 34.561336 58.253493 0
M  V30 11 H 34.341389 32.469826 59.168371 0
M  V30 12 H 34.039680 33.482936 60.606643 0
M  V30 END ATOM
M  V30 BEGIN BOND
M  V30 1 1 2 1
M  V30 2 1 3 1
M  V30 3 1 4 2
M  V30 4 1 5 3
M  V30 5 1 5 4
M  V30 6 2 6 4
M  V30 7 1 7 1
M  V30 8 1 8 1
M  V30 9 1 9 3
M  V30 10 1 10 3
M  V30 11 1 11 5
M  V30 12 1 12 5
M  V30 END BOND
M  V30 END CTAB
M  END
>  <i_epik_Tot_Q>  (1) 
0

>  <i_epik_Tot_abs_Q>  (1) 
0

>  <i_i_glide_confnum>  (1) 
1

>  <i_i_glide_lignum>  (1) 
14

>  <i_i_glide_posenum>  (1) 
190

>  <i_i_glide_rotatable_bonds>  (1) 
0

>  <i_lp_mmshare_version>  (1) 
72125

>  <i_m_source_file_index>  (1) 
14

>  <i_f3d_flags>  (1) 
0

>  <num_sample>  (1) 
50

>  <b_lp_Chiralities_Consistent>  (1) 
1

>  <r_epik_Charging_Adjusted_Penalty>  (1) 
0

>  <r_epik_Ionization_Penalty>  (1) 
0

>  <r_epik_Ionization_Penalty_Charging>  (1) 
0

>  <r_epik_Ionization_Penalty_Neutral>  (1) 
0

>  <r_epik_State_Penalty>  (1) 
-0

>  <r_glide_ring_energy>  (1) 
0

>  <r_i_docking_score>  (1) 
-3.9370313635240937

>  <r_i_glide_ecoul>  (1) 
-3.7831456673847388

>  <r_i_glide_eff_state_penalty>  (1) 
-0

>  <r_i_glide_einternal>  (1) 
0

>  <r_i_glide_emodel>  (1) 
-19.236277841568825

>  <r_i_glide_emodel_strain>  (1) 
0

>  <r_i_glide_energy>  (1) 
-15.258685429616937

>  <r_i_glide_erotb>  (1) 
0

>  <r_i_glide_esite>  (1) 
-0.028187103171839263

>  <r_i_glide_evdw>  (1) 
-11.475539762232199

>  <r_i_glide_gscore>  (1) 
-3.9370313635240937

>  <r_i_glide_gscore_strain>  (1) 
0

>  <r_i_glide_hbond>  (1) 
-0.32000000000000001

>  <r_i_glide_ligand_efficiency>  (1) 
-0.65617189392068231

>  <r_i_glide_ligand_efficiency_ln>  (1) 
-1.4102330114466186

>  <r_i_glide_ligand_efficiency_sa>  (1) 
-1.1923434608809382

>  <r_i_glide_lipo>  (1) 
0

>  <r_i_glide_metal>  (1) 
-0

>  <r_i_glide_rewards>  (1) 
-2.4475954221329337

>  <r_lp_Energy>  (1) 
-1.1766760000000001

>  <r_lp_tautomer_probability>  (1) 
1

>  <s_epik_Chemistry_Notes>  (1) 
This compound has an ester and may undergo hydrolysis at high or low pH.

>  <s_epik_cmdline>  (1) 
J2VwaWtfcHl0aG9uJywgJy1waHQnLCAnMS4wJywgJy1waCcsICc3LjQnLCAnLXRuJywgJzgnLCAnLW1hJywgJzUwMCcsICctaW1hZScsICc8aW5maWxlLm1hZT4nLCAnLW9tYWUnLCAnPG91dGZpbGUubWFlPic=

>  <s_epik_input>  (1) 
W0NIMl0xW0NIMl1bQ0gyXU9DMT1P

>  <s_glide_docking_method>  (1) 
confgen

>  <s_i_glide_gridfile>  (1) 
gpcr_5ht2c_6bqh_protein_autoprepared_prepared

>  <s_lp_Force_Field>  (1) 
S-OPLS

>  <s_lp_Variant>  (1) 
Pocket2Mol_13_num_sample_50-1

>  <s_m_source_file>  (1) 
generated__ligand_Pocket2Mol_2026-05-06_prepared.sdf

>  <GenAI_Model>  (1) 
Pocket2Mol

>  <Protein>  (1) 
GPCR_5HT2C

$$$$
Pocket2Mol_10_num_sample_50
     RDKit          3D

  0  0  0  0  0  0  0  0  0  0999 V3000
M  V30 BEGIN CTAB
M  V30 COUNTS 14 14 0 0 1
M  V30 BEGIN ATOM
M  V30 1 C 37.067665 30.457040 59.379718 0
M  V30 2 O 38.462613 30.705137 59.527005 0
M  V30 3 C 38.838198 30.763805 60.897373 0
M  V30 4 C 36.273185 31.574370 60.080736 0
M  V30 5 O 36.647739 31.619887 61.453503 0
M  V30 6 C 38.039136 31.880040 61.593677 0
M  V30 7 H 36.817809 30.421441 58.318952 0
M  V30 8 H 36.813570 29.482846 59.798716 0
M  V30 9 H 38.667497 29.799808 61.378155 0
M  V30 10 H 39.906857 30.966680 60.964353 0
M  V30 11 H 36.457939 32.538762 59.605296 0
M  V30 12 H 35.202825 31.384183 60.004415 0
M  V30 13 H 38.289210 31.918648 62.653501 0
M  V30 14 H 38.283257 32.855613 61.170439 0
M  V30 END ATOM
M  V30 BEGIN BOND
M  V30 1 1 2 1
M  V30 2 1 3 2
M  V30 3 1 4 1
M  V30 4 1 5 4
M  V30 5 1 6 3
M  V30 6 1 6 5
M  V30 7 1 7 1
M  V30 8 1 8 1
M  V30 9 1 9 3
M  V30 10 1 10 3
M  V30 11 1 11 4
M  V30 12 1 12 4
M  V30 13 1 13 6
M  V30 14 1 14 6
M  V30 END BOND
M  V30 END CTAB
M  END
>  <i_epik_Tot_Q>  (1) 
0

>  <i_epik_Tot_abs_Q>  (1) 
0

>  <i_i_glide_confnum>  (1) 
1

>  <i_i_glide_lignum>  (1) 
11

>  <i_i_glide_posenum>  (1) 
141

>  <i_i_glide_rotatable_bonds>  (1) 
0

>  <i_lp_mmshare_version>  (1) 
72125

>  <i_m_source_file_index>  (1) 
11

>  <i_f3d_flags>  (1) 
0

>  <num_sample>  (1) 
50

>  <b_lp_Chiralities_Consistent>  (1) 
1

>  <r_epik_Charging_Adjusted_Penalty>  (1) 
0

>  <r_epik_Ionization_Penalty>  (1) 
8.3894707547109138e-13

>  <r_epik_Ionization_Penalty_Charging>  (1) 
0

>  <r_epik_Ionization_Penalty_Neutral>  (1) 
8.3894707547109138e-13

>  <r_epik_State_Penalty>  (1) 
-0

>  <r_glide_ring_energy>  (1) 
0

>  <r_i_docking_score>  (1) 
-3.9251128473446348

>  <r_i_glide_ecoul>  (1) 
-2.7138409227996219

>  <r_i_glide_eff_state_penalty>  (1) 
-0

>  <r_i_glide_einternal>  (1) 
0

>  <r_i_glide_emodel>  (1) 
-16.310871428124482

>  <r_i_glide_emodel_strain>  (1) 
0

>  <r_i_glide_energy>  (1) 
-13.024680642319506

>  <r_i_glide_erotb>  (1) 
0

>  <r_i_glide_esite>  (1) 
0

>  <r_i_glide_evdw>  (1) 
-10.310839719519885

>  <r_i_glide_gscore>  (1) 
-3.9251128473446348

>  <r_i_glide_gscore_strain>  (1) 
0

>  <r_i_glide_hbond>  (1) 
-0.32000000000000001

>  <r_i_glide_ligand_efficiency>  (1) 
-0.65418547455743914

>  <r_i_glide_ligand_efficiency_ln>  (1) 
-1.405963834137173

>  <r_i_glide_ligand_efficiency_sa>  (1) 
-1.1887338973499886

>  <r_i_glide_lipo>  (1) 
-0.34720000755322733

>  <r_i_glide_metal>  (1) 
-0

>  <r_i_glide_rewards>  (1) 
-2.3352947153954702

>  <r_lp_Energy>  (1) 
4.964817

>  <r_lp_tautomer_probability>  (1) 
1

>  <s_epik_cmdline>  (1) 
J2VwaWtfcHl0aG9uJywgJy1waHQnLCAnMS4wJywgJy1waCcsICc3LjQnLCAnLXRuJywgJzgnLCAnLW1hJywgJzUwMCcsICctaW1hZScsICc8aW5maWxlLm1hZT4nLCAnLW9tYWUnLCAnPG91dGZpbGUubWFlPic=

>  <s_epik_input>  (1) 
W0NIMl0xT1tDSDJdW0NIMl1PW0NIMl0x

>  <s_glide_docking_method>  (1) 
confgen

>  <s_i_glide_gridfile>  (1) 
gpcr_5ht2c_6bqh_protein_autoprepared_prepared

>  <s_lp_Force_Field>  (1) 
S-OPLS

>  <s_lp_Variant>  (1) 
Pocket2Mol_10_num_sample_50-1

>  <s_m_source_file>  (1) 
generated__ligand_Pocket2Mol_2026-05-06_prepared.sdf

>  <GenAI_Model>  (1) 
Pocket2Mol

>  <Protein>  (1) 
GPCR_5HT2C

$$$$
Pocket2Mol_48_num_sample_50
     RDKit          3D

  0  0  0  0  0  0  0  0  0  0999 V3000
M  V30 BEGIN CTAB
M  V30 COUNTS 15 15 0 0 1
M  V30 BEGIN ATOM
M  V30 1 C 39.509231 31.137375 55.434817 0
M  V30 2 C 38.630449 31.302189 56.672491 0
M  V30 3 C 38.508615 30.825714 54.332739 0
M  V30 4 C 37.455660 29.983891 55.052927 0
M  V30 5 N 37.467403 30.421450 56.461693 0 CHG=1
M  V30 6 H 40.186626 30.292117 55.569134 0
M  V30 7 H 40.111921 32.021401 55.227109 0
M  V30 8 H 39.155539 31.058911 57.595765 0
M  V30 9 H 38.275646 32.331563 56.745142 0
M  V30 10 H 38.062599 31.753225 53.970222 0
M  V30 11 H 38.955542 30.311852 53.481060 0
M  V30 12 H 36.462533 30.104784 54.621163 0
M  V30 13 H 37.719721 28.927077 55.015988 0
M  V30 14 H 36.603712 30.959041 56.653687 0
M  V30 15 H 37.501786 29.620521 57.074975 0
M  V30 END ATOM
M  V30 BEGIN BOND
M  V30 1 1 2 1
M  V30 2 1 3 1
M  V30 3 1 4 3
M  V30 4 1 5 2
M  V30 5 1 5 4
M  V30 6 1 6 1
M  V30 7 1 7 1
M  V30 8 1 8 2
M  V30 9 1 9 2
M  V30 10 1 10 3
M  V30 11 1 11 3
M  V30 12 1 12 4
M  V30 13 1 13 4
M  V30 14 1 14 5
M  V30 15 1 15 5
M  V30 END BOND
M  V30 END CTAB
M  END
>  <i_epik_Tot_Q>  (1) 
1

>  <i_epik_Tot_abs_Q>  (1) 
1

>  <i_i_glide_confnum>  (1) 
3

>  <i_i_glide_lignum>  (1) 
49

>  <i_i_glide_posenum>  (1) 
2

>  <i_i_glide_rotatable_bonds>  (1) 
0

>  <i_lp_mmshare_version>  (1) 
72125

>  <i_m_source_file_index>  (1) 
49

>  <i_f3d_flags>  (1) 
0

>  <num_sample>  (1) 
50

>  <b_lp_Chiralities_Consistent>  (1) 
1

>  <r_epik_Charging_Adjusted_Penalty>  (1) 
0.00011848530527437102

>  <r_epik_Ionization_Penalty>  (1) 
0.00011848530527437102

>  <r_epik_Ionization_Penalty_Charging>  (1) 
0.00011848530527437102

>  <r_epik_Ionization_Penalty_Neutral>  (1) 
0

>  <r_epik_State_Penalty>  (1) 
-0

>  <r_glide_ring_energy>  (1) 
2.3171021879061433

>  <r_i_docking_score>  (1) 
-3.9243639928585203

>  <r_i_glide_ecoul>  (1) 
-4.8056634590598977

>  <r_i_glide_eff_state_penalty>  (1) 
-0

>  <r_i_glide_einternal>  (1) 
0

>  <r_i_glide_emodel>  (1) 
-19.730202847447408

>  <r_i_glide_emodel_strain>  (1) 
0

>  <r_i_glide_energy>  (1) 
-13.148468754567652

>  <r_i_glide_erotb>  (1) 
0

>  <r_i_glide_esite>  (1) 
-0.096698219672244554

>  <r_i_glide_evdw>  (1) 
-8.3428052955077554

>  <r_i_glide_gscore>  (1) 
-3.9243639928585203

>  <r_i_glide_gscore_strain>  (1) 
0

>  <r_i_glide_hbond>  (1) 
-0.20000000000000001

>  <r_i_glide_ligand_efficiency>  (1) 
-0.78487279857170411

>  <r_i_glide_ligand_efficiency_ln>  (1) 
-1.5039116179613747

>  <r_i_glide_ligand_efficiency_sa>  (1) 
-1.3421136067584383

>  <r_i_glide_lipo>  (1) 
-0.23967598955190342

>  <r_i_glide_metal>  (1) 
-0

>  <r_i_glide_rewards>  (1) 
-2.25

>  <r_lp_Energy>  (1) 
17.726251999999999

>  <r_lp_tautomer_probability>  (1) 
1

>  <s_epik_cmdline>  (1) 
J2VwaWtfcHl0aG9uJywgJy1waHQnLCAnMS4wJywgJy1waCcsICc3LjQnLCAnLXRuJywgJzgnLCAnLW1hJywgJzUwMCcsICctaW1hZScsICc8aW5maWxlLm1hZT4nLCAnLW9tYWUnLCAnPG91dGZpbGUubWFlPic=

>  <s_epik_input>  (1) 
W0NIMl0xW0NIMl1bTkhdW0NIMl1bQ0gyXTE=

>  <s_glide_docking_method>  (1) 
confgen

>  <s_i_glide_gridfile>  (1) 
gpcr_5ht2c_6bqh_protein_autoprepared_prepared

>  <s_lp_Force_Field>  (1) 
S-OPLS

>  <s_lp_Variant>  (1) 
Pocket2Mol_48_num_sample_50-1

>  <s_m_source_file>  (1) 
generated__ligand_Pocket2Mol_2026-05-06_prepared.sdf

>  <GenAI_Model>  (1) 
Pocket2Mol

>  <Protein>  (1) 
GPCR_5HT2C

$$$$
Pocket2Mol_26_num_sample_50
     RDKit          3D

  0  0  0  0  0  0  0  0  0  0999 V3000
M  V30 BEGIN CTAB
M  V30 COUNTS 13 13 0 0 1
M  V30 BEGIN ATOM
M  V30 1 C 34.691681 33.131061 59.852740 0
M  V30 2 O 35.468601 32.126012 60.493610 0
M  V30 3 C 36.685341 32.369082 61.052993 0
M  V30 4 O 37.243354 31.621430 61.853117 0
M  V30 5 C 37.348699 33.681792 60.574629 0
M  V30 6 C 35.563245 34.159351 59.136609 0
M  V30 7 O 36.422991 34.668656 60.134063 0
M  V30 8 H 34.075428 33.622182 60.605347 0
M  V30 9 H 34.012003 32.656084 59.144865 0
M  V30 10 H 38.039446 33.448327 59.763726 0
M  V30 11 H 37.942197 34.097708 61.388881 0
M  V30 12 H 34.951448 34.962900 58.726652 0
M  V30 13 H 36.128015 33.719601 58.312355 0
M  V30 END ATOM
M  V30 BEGIN BOND
M  V30 1 1 2 1
M  V30 2 1 3 2
M  V30 3 2 4 3
M  V30 4 1 5 3
M  V30 5 1 6 1
M  V30 6 1 7 5
M  V30 7 1 7 6
M  V30 8 1 8 1
M  V30 9 1 9 1
M  V30 10 1 10 5
M  V30 11 1 11 5
M  V30 12 1 12 6
M  V30 13 1 13 6
M  V30 END BOND
M  V30 END CTAB
M  END
>  <i_epik_Tot_Q>  (1) 
0

>  <i_epik_Tot_abs_Q>  (1) 
0

>  <i_i_glide_confnum>  (1) 
2

>  <i_i_glide_lignum>  (1) 
27

>  <i_i_glide_posenum>  (1) 
338

>  <i_i_glide_rotatable_bonds>  (1) 
0

>  <i_lp_mmshare_version>  (1) 
72125

>  <i_m_source_file_index>  (1) 
27

>  <i_f3d_flags>  (1) 
0

>  <num_sample>  (1) 
50

>  <b_lp_Chiralities_Consistent>  (1) 
1

>  <r_epik_Charging_Adjusted_Penalty>  (1) 
0

>  <r_epik_Ionization_Penalty>  (1) 
1.0677269036415479e-12

>  <r_epik_Ionization_Penalty_Charging>  (1) 
0

>  <r_epik_Ionization_Penalty_Neutral>  (1) 
1.0677269036415479e-12

>  <r_epik_State_Penalty>  (1) 
-0

>  <r_glide_ring_energy>  (1) 
4.2281688740393558e-05

>  <r_i_docking_score>  (1) 
-3.9001384908761909

>  <r_i_glide_ecoul>  (1) 
-3.1188708535017318

>  <r_i_glide_eff_state_penalty>  (1) 
-0

>  <r_i_glide_einternal>  (1) 
0

>  <r_i_glide_emodel>  (1) 
-20.36753628910926

>  <r_i_glide_emodel_strain>  (1) 
0

>  <r_i_glide_energy>  (1) 
-16.364532456785376

>  <r_i_glide_erotb>  (1) 
0

>  <r_i_glide_esite>  (1) 
-0.01836486852750183

>  <r_i_glide_evdw>  (1) 
-13.245661603283644

>  <r_i_glide_gscore>  (1) 
-3.9001384908761909

>  <r_i_glide_gscore_strain>  (1) 
0

>  <r_i_glide_hbond>  (1) 
-0.32000000000000001

>  <r_i_glide_ligand_efficiency>  (1) 
-0.55716264155374151

>  <r_i_glide_ligand_efficiency_ln>  (1) 
-1.3239163088958694

>  <r_i_glide_ligand_efficiency_sa>  (1) 
-1.0658137909039875

>  <r_i_glide_lipo>  (1) 
-0.070365620294525755

>  <r_i_glide_metal>  (1) 
-0

>  <r_i_glide_rewards>  (1) 
-2.3612942938647214

>  <r_lp_Energy>  (1) 
12.58291

>  <r_lp_tautomer_probability>  (1) 
1

>  <s_epik_Chemistry_Notes>  (1) 
This compound has an ester and may undergo hydrolysis at high or low pH.

>  <s_epik_cmdline>  (1) 
J2VwaWtfcHl0aG9uJywgJy1waHQnLCAnMS4wJywgJy1waCcsICc3LjQnLCAnLXRuJywgJzgnLCAnLW1hJywgJzUwMCcsICctaW1hZScsICc8aW5maWxlLm1hZT4nLCAnLW9tYWUnLCAnPG91dGZpbGUubWFlPic=

>  <s_epik_input>  (1) 
W0NIMl0xT1tDSDJdW0NIMl1PQzE9Tw==

>  <s_glide_docking_method>  (1) 
confgen

>  <s_i_glide_gridfile>  (1) 
gpcr_5ht2c_6bqh_protein_autoprepared_prepared

>  <s_lp_Force_Field>  (1) 
S-OPLS

>  <s_lp_Variant>  (1) 
Pocket2Mol_26_num_sample_50-1

>  <s_m_source_file>  (1) 
generated__ligand_Pocket2Mol_2026-05-06_prepared.sdf

>  <GenAI_Model>  (1) 
Pocket2Mol

>  <Protein>  (1) 
GPCR_5HT2C

$$$$
Pocket2Mol_10_num_sample_50
     RDKit          3D

  0  0  0  0  0  0  0  0  0  0999 V3000
M  V30 BEGIN CTAB
M  V30 COUNTS 14 14 0 0 1
M  V30 BEGIN ATOM
M  V30 1 C 35.756768 32.021205 60.196977 0
M  V30 2 O 36.294906 31.622014 61.453501 0
M  V30 3 C 37.717605 31.621449 61.423236 0
M  V30 4 C 36.263105 33.431363 59.842581 0
M  V30 5 O 37.686259 33.431579 59.825807 0
M  V30 6 C 38.218783 33.036304 61.082503 0
M  V30 7 H 36.037715 31.304387 59.423834 0
M  V30 8 H 34.668635 32.017239 60.253520 0
M  V30 9 H 38.094068 31.310364 62.397941 0
M  V30 10 H 38.078336 30.895075 60.693266 0
M  V30 11 H 35.894970 33.728675 58.860007 0
M  V30 12 H 35.894719 34.166603 60.559729 0
M  V30 13 H 37.926039 33.749806 61.853501 0
M  V30 14 H 39.307409 33.050407 61.027559 0
M  V30 END ATOM
M  V30 BEGIN BOND
M  V30 1 1 2 1
M  V30 2 1 3 2
M  V30 3 1 4 1
M  V30 4 1 5 4
M  V30 5 1 6 3
M  V30 6 1 6 5
M  V30 7 1 7 1
M  V30 8 1 8 1
M  V30 9 1 9 3
M  V30 10 1 10 3
M  V30 11 1 11 4
M  V30 12 1 12 4
M  V30 13 1 13 6
M  V30 14 1 14 6
M  V30 END BOND
M  V30 END CTAB
M  END
>  <i_epik_Tot_Q>  (1) 
0

>  <i_epik_Tot_abs_Q>  (1) 
0

>  <i_i_glide_confnum>  (1) 
2

>  <i_i_glide_lignum>  (1) 
11

>  <i_i_glide_posenum>  (1) 
247

>  <i_i_glide_rotatable_bonds>  (1) 
0

>  <i_lp_mmshare_version>  (1) 
72125

>  <i_m_source_file_index>  (1) 
11

>  <i_f3d_flags>  (1) 
0

>  <num_sample>  (1) 
50

>  <b_lp_Chiralities_Consistent>  (1) 
1

>  <r_epik_Charging_Adjusted_Penalty>  (1) 
0

>  <r_epik_Ionization_Penalty>  (1) 
8.3894707547109138e-13

>  <r_epik_Ionization_Penalty_Charging>  (1) 
0

>  <r_epik_Ionization_Penalty_Neutral>  (1) 
8.3894707547109138e-13

>  <r_epik_State_Penalty>  (1) 
-0

>  <r_glide_ring_energy>  (1) 
0.00013676017923054334

>  <r_i_docking_score>  (1) 
-3.8241202908436644

>  <r_i_glide_ecoul>  (1) 
-2.6332749456281044

>  <r_i_glide_eff_state_penalty>  (1) 
-0

>  <r_i_glide_einternal>  (1) 
0

>  <r_i_glide_emodel>  (1) 
-16.539913421204282

>  <r_i_glide_emodel_strain>  (1) 
0

>  <r_i_glide_energy>  (1) 
-13.338275824445297

>  <r_i_glide_erotb>  (1) 
0

>  <r_i_glide_esite>  (1) 
0

>  <r_i_glide_evdw>  (1) 
-10.705000878817193

>  <r_i_glide_gscore>  (1) 
-3.8241202908436644

>  <r_i_glide_gscore_strain>  (1) 
0

>  <r_i_glide_hbond>  (1) 
-0.32000000000000001

>  <r_i_glide_ligand_efficiency>  (1) 
-0.63735338180727741

>  <r_i_glide_ligand_efficiency_ln>  (1) 
-1.369788598550385

>  <r_i_glide_ligand_efficiency_sa>  (1) 
-1.1581479549932092

>  <r_i_glide_lipo>  (1) 
-0.21530790020400048

>  <r_i_glide_metal>  (1) 
-0

>  <r_i_glide_rewards>  (1) 
-2.3585711048545885

>  <r_lp_Energy>  (1) 
4.964817

>  <r_lp_tautomer_probability>  (1) 
1

>  <s_epik_cmdline>  (1) 
J2VwaWtfcHl0aG9uJywgJy1waHQnLCAnMS4wJywgJy1waCcsICc3LjQnLCAnLXRuJywgJzgnLCAnLW1hJywgJzUwMCcsICctaW1hZScsICc8aW5maWxlLm1hZT4nLCAnLW9tYWUnLCAnPG91dGZpbGUubWFlPic=

>  <s_epik_input>  (1) 
W0NIMl0xT1tDSDJdW0NIMl1PW0NIMl0x

>  <s_glide_docking_method>  (1) 
confgen

>  <s_i_glide_gridfile>  (1) 
gpcr_5ht2c_6bqh_protein_autoprepared_prepared

>  <s_lp_Force_Field>  (1) 
S-OPLS

>  <s_lp_Variant>  (1) 
Pocket2Mol_10_num_sample_50-1

>  <s_m_source_file>  (1) 
generated__ligand_Pocket2Mol_2026-05-06_prepared.sdf

>  <GenAI_Model>  (1) 
Pocket2Mol

>  <Protein>  (1) 
GPCR_5HT2C

$$$$
Pocket2Mol_49_num_sample_50
     RDKit          3D

  0  0  0  0  0  0  0  0  0  0999 V3000
M  V30 BEGIN CTAB
M  V30 COUNTS 13 13 0 0 1
M  V30 BEGIN ATOM
M  V30 1 C 37.630407 31.988494 61.287659 0
M  V30 2 O 36.267408 31.621430 61.453427 0
M  V30 3 C 35.467426 32.315808 60.496424 0
M  V30 4 C 37.569977 33.405315 60.732989 0
M  V30 5 C 36.389871 33.310271 59.790624 0
M  V30 6 H 38.180745 31.924031 62.226564 0
M  V30 7 H 38.097186 31.313751 60.568469 0
M  V30 8 H 35.013061 31.621430 59.788615 0
M  V30 9 H 34.667398 32.836137 61.022928 0
M  V30 10 H 37.356598 34.114897 61.533148 0
M  V30 11 H 38.491384 33.710741 60.236396 0
M  V30 12 H 36.708859 32.899534 58.830976 0
M  V30 13 H 35.912397 34.272097 59.600912 0
M  V30 END ATOM
M  V30 BEGIN BOND
M  V30 1 1 2 1
M  V30 2 1 3 2
M  V30 3 1 4 1
M  V30 4 1 5 3
M  V30 5 1 5 4
M  V30 6 1 6 1
M  V30 7 1 7 1
M  V30 8 1 8 3
M  V30 9 1 9 3
M  V30 10 1 10 4
M  V30 11 1 11 4
M  V30 12 1 12 5
M  V30 13 1 13 5
M  V30 END BOND
M  V30 END CTAB
M  END
>  <i_epik_Tot_Q>  (1) 
0

>  <i_epik_Tot_abs_Q>  (1) 
0

>  <i_i_glide_confnum>  (1) 
4

>  <i_i_glide_lignum>  (1) 
50

>  <i_i_glide_posenum>  (1) 
353

>  <i_i_glide_rotatable_bonds>  (1) 
0

>  <i_lp_mmshare_version>  (1) 
72125

>  <i_m_source_file_index>  (1) 
50

>  <i_f3d_flags>  (1) 
0

>  <num_sample>  (1) 
50

>  <b_lp_Chiralities_Consistent>  (1) 
1

>  <r_epik_Charging_Adjusted_Penalty>  (1) 
0

>  <r_epik_Ionization_Penalty>  (1) 
1.3889264151150229e-11

>  <r_epik_Ionization_Penalty_Charging>  (1) 
0

>  <r_epik_Ionization_Penalty_Neutral>  (1) 
1.3889264151150229e-11

>  <r_epik_State_Penalty>  (1) 
-0

>  <r_glide_ring_energy>  (1) 
0.22164722245690596

>  <r_i_docking_score>  (1) 
-3.7541810368782973

>  <r_i_glide_ecoul>  (1) 
-2.9844620392550185

>  <r_i_glide_eff_state_penalty>  (1) 
-0

>  <r_i_glide_einternal>  (1) 
0

>  <r_i_glide_emodel>  (1) 
-15.664256530649519

>  <r_i_glide_emodel_strain>  (1) 
0.010831348631139548

>  <r_i_glide_energy>  (1) 
-12.629424436491089

>  <r_i_glide_erotb>  (1) 
0

>  <r_i_glide_esite>  (1) 
0

>  <r_i_glide_evdw>  (1) 
-9.6449623972360712

>  <r_i_glide_gscore>  (1) 
-3.7541810368782973

>  <r_i_glide_gscore_strain>  (1) 
0

>  <r_i_glide_hbond>  (1) 
-0.32000000000000001

>  <r_i_glide_ligand_efficiency>  (1) 
-0.75083620737565948

>  <r_i_glide_ligand_efficiency_ln>  (1) 
-1.4386933749178086

>  <r_i_glide_ligand_efficiency_sa>  (1) 
-1.2839118545063342

>  <r_i_glide_lipo>  (1) 
-0.14919080418671601

>  <r_i_glide_metal>  (1) 
-0

>  <r_i_glide_rewards>  (1) 
-2.3550728069415245

>  <r_lp_Energy>  (1) 
3.9174029999999997

>  <r_lp_tautomer_probability>  (1) 
1

>  <s_epik_cmdline>  (1) 
J2VwaWtfcHl0aG9uJywgJy1waHQnLCAnMS4wJywgJy1waCcsICc3LjQnLCAnLXRuJywgJzgnLCAnLW1hJywgJzUwMCcsICctaW1hZScsICc8aW5maWxlLm1hZT4nLCAnLW9tYWUnLCAnPG91dGZpbGUubWFlPic=

>  <s_epik_input>  (1) 
W0NIMl0xT1tDSDJdW0NIMl1bQ0gyXTE=

>  <s_glide_docking_method>  (1) 
confgen

>  <s_i_glide_gridfile>  (1) 
gpcr_5ht2c_6bqh_protein_autoprepared_prepared

>  <s_lp_Force_Field>  (1) 
S-OPLS

>  <s_lp_Variant>  (1) 
Pocket2Mol_49_num_sample_50-1

>  <s_m_source_file>  (1) 
generated__ligand_Pocket2Mol_2026-05-06_prepared.sdf

>  <GenAI_Model>  (1) 
Pocket2Mol

>  <Protein>  (1) 
GPCR_5HT2C

$$$$
Pocket2Mol_16_num_sample_50
     RDKit          3D

  0  0  0  0  0  0  0  0  0  0999 V3000
M  V30 BEGIN CTAB
M  V30 COUNTS 18 18 0 0 1
M  V30 BEGIN ATOM
M  V30 1 C 38.267263 31.446507 54.653225 0
M  V30 2 C 39.008510 30.223559 54.086793 0
M  V30 3 C 38.766157 28.981667 54.959572 0
M  V30 4 C 38.667407 31.718032 56.111192 0
M  V30 5 C 39.164276 29.243155 56.421684 0
M  V30 6 C 38.437862 30.475434 56.987720 0
M  V30 7 H 38.468788 32.325126 54.040628 0
M  V30 8 H 37.189879 31.279914 54.602166 0
M  V30 9 H 38.681929 30.027976 53.064413 0
M  V30 10 H 40.077703 30.434393 54.035852 0
M  V30 11 H 37.712228 28.704105 54.912682 0
M  V30 12 H 39.327846 28.133486 54.567146 0
M  V30 13 H 39.716530 32.013257 56.155907 0
M  V30 14 H 38.089735 32.557046 56.501702 0
M  V30 15 H 40.242825 29.391790 56.483774 0
M  V30 16 H 38.938019 28.367987 57.031317 0
M  V30 17 H 38.773413 30.672375 58.006023 0
M  V30 18 H 37.367322 30.272979 57.051188 0
M  V30 END ATOM
M  V30 BEGIN BOND
M  V30 1 1 2 1
M  V30 2 1 3 2
M  V30 3 1 4 1
M  V30 4 1 5 3
M  V30 5 1 6 4
M  V30 6 1 6 5
M  V30 7 1 7 1
M  V30 8 1 8 1
M  V30 9 1 9 2
M  V30 10 1 10 2
M  V30 11 1 11 3
M  V30 12 1 12 3
M  V30 13 1 13 4
M  V30 14 1 14 4
M  V30 15 1 15 5
M  V30 16 1 16 5
M  V30 17 1 17 6
M  V30 18 1 18 6
M  V30 END BOND
M  V30 END CTAB
M  END
>  <i_epik_Tot_Q>  (1) 
0

>  <i_epik_Tot_abs_Q>  (1) 
0

>  <i_i_glide_confnum>  (1) 
1

>  <i_i_glide_lignum>  (1) 
17

>  <i_i_glide_posenum>  (1) 
180

>  <i_i_glide_rotatable_bonds>  (1) 
0

>  <i_lp_mmshare_version>  (1) 
72125

>  <i_m_source_file_index>  (1) 
17

>  <i_f3d_flags>  (1) 
0

>  <num_sample>  (1) 
50

>  <b_lp_Chiralities_Consistent>  (1) 
1

>  <r_epik_Charging_Adjusted_Penalty>  (1) 
0

>  <r_epik_Ionization_Penalty>  (1) 
0

>  <r_epik_Ionization_Penalty_Charging>  (1) 
0

>  <r_epik_Ionization_Penalty_Neutral>  (1) 
0

>  <r_epik_State_Penalty>  (1) 
-0

>  <r_glide_ring_energy>  (1) 
0

>  <r_i_docking_score>  (1) 
-3.7287197026587968

>  <r_i_glide_ecoul>  (1) 
0.044541369626714539

>  <r_i_glide_eff_state_penalty>  (1) 
-0

>  <r_i_glide_einternal>  (1) 
0

>  <r_i_glide_emodel>  (1) 
-15.430396064740508

>  <r_i_glide_emodel_strain>  (1) 
0

>  <r_i_glide_energy>  (1) 
-12.501134386629989

>  <r_i_glide_erotb>  (1) 
0

>  <r_i_glide_esite>  (1) 
0

>  <r_i_glide_evdw>  (1) 
-12.545675756256703

>  <r_i_glide_gscore>  (1) 
-3.7287197026587968

>  <r_i_glide_gscore_strain>  (1) 
0

>  <r_i_glide_hbond>  (1) 
0

>  <r_i_glide_ligand_efficiency>  (1) 
-0.62145328377646614

>  <r_i_glide_ligand_efficiency_ln>  (1) 
-1.335616389505726

>  <r_i_glide_ligand_efficiency_sa>  (1) 
-1.1292555594333722

>  <r_i_glide_lipo>  (1) 
-0.49261648407715647

>  <r_i_glide_metal>  (1) 
-0

>  <r_i_glide_rewards>  (1) 
-2.6155006362128121

>  <r_lp_Energy>  (1) 
5.7175969999999996

>  <r_lp_tautomer_probability>  (1) 
1

>  <s_epik_cmdline>  (1) 
J2VwaWtfcHl0aG9uJywgJy1waHQnLCAnMS4wJywgJy1waCcsICc3LjQnLCAnLXRuJywgJzgnLCAnLW1hJywgJzUwMCcsICctaW1hZScsICc8aW5maWxlLm1hZT4nLCAnLW9tYWUnLCAnPG91dGZpbGUubWFlPic=

>  <s_epik_input>  (1) 
W0NIMl0xW0NIMl1bQ0gyXVtDSDJdW0NIMl1bQ0gyXTE=

>  <s_glide_docking_method>  (1) 
confgen

>  <s_i_glide_gridfile>  (1) 
gpcr_5ht2c_6bqh_protein_autoprepared_prepared

>  <s_lp_Force_Field>  (1) 
S-OPLS

>  <s_lp_Variant>  (1) 
Pocket2Mol_16_num_sample_50-1

>  <s_m_source_file>  (1) 
generated__ligand_Pocket2Mol_2026-05-06_prepared.sdf

>  <GenAI_Model>  (1) 
Pocket2Mol

>  <Protein>  (1) 
GPCR_5HT2C

$$$$
Pocket2Mol_42_num_sample_50
     RDKit          3D

  0  0  0  0  0  0  0  0  0  0999 V3000
M  V30 BEGIN CTAB
M  V30 COUNTS 10 9 0 0 1
M  V30 BEGIN ATOM
M  V30 1 C 36.154792 32.484793 60.033592 0
M  V30 2 O 34.909297 32.929813 60.454159 0
M  V30 3 C 34.038114 33.223247 59.372152 0
M  V30 4 O 36.103509 31.203011 59.453231 0
M  V30 5 H 36.828611 32.428752 60.890479 0
M  V30 6 H 36.574898 33.173590 59.297942 0
M  V30 7 H 33.075232 33.558547 59.752331 0
M  V30 8 H 34.446900 34.016509 58.743163 0
M  V30 9 H 33.866912 32.343936 58.750409 0
M  V30 10 H 35.867377 31.317277 58.521351 0
M  V30 END ATOM
M  V30 BEGIN BOND
M  V30 1 1 2 1
M  V30 2 1 3 2
M  V30 3 1 4 1
M  V30 4 1 5 1
M  V30 5 1 6 1
M  V30 6 1 7 3
M  V30 7 1 8 3
M  V30 8 1 9 3
M  V30 9 1 10 4
M  V30 END BOND
M  V30 END CTAB
M  END
>  <i_epik_Tot_Q>  (1) 
0

>  <i_epik_Tot_abs_Q>  (1) 
0

>  <i_i_glide_confnum>  (1) 
1

>  <i_i_glide_lignum>  (1) 
43

>  <i_i_glide_posenum>  (1) 
321

>  <i_i_glide_rotatable_bonds>  (1) 
2

>  <i_lp_mmshare_version>  (1) 
72125

>  <i_m_source_file_index>  (1) 
43

>  <i_f3d_flags>  (1) 
0

>  <num_sample>  (1) 
50

>  <b_lp_Chiralities_Consistent>  (1) 
1

>  <r_epik_Charging_Adjusted_Penalty>  (1) 
0

>  <r_epik_Ionization_Penalty>  (1) 
1.028953084229311e-06

>  <r_epik_Ionization_Penalty_Charging>  (1) 
0

>  <r_epik_Ionization_Penalty_Neutral>  (1) 
1.028953084229311e-06

>  <r_epik_State_Penalty>  (1) 
-0

>  <r_glide_ring_energy>  (1) 
0

>  <r_i_docking_score>  (1) 
-3.7285580919433636

>  <r_i_glide_ecoul>  (1) 
-5.8062645132466271

>  <r_i_glide_eff_state_penalty>  (1) 
-0

>  <r_i_glide_einternal>  (1) 
0.32034303886631621

>  <r_i_glide_emodel>  (1) 
-16.971690728558368

>  <r_i_glide_emodel_strain>  (1) 
0.012166874289161189

>  <r_i_glide_energy>  (1) 
-13.258865540025145

>  <r_i_glide_erotb>  (1) 
0

>  <r_i_glide_esite>  (1) 
-0.061081633818881743

>  <r_i_glide_evdw>  (1) 
-7.4526010267785177

>  <r_i_glide_gscore>  (1) 
-3.7285580919433636

>  <r_i_glide_gscore_strain>  (1) 
0

>  <r_i_glide_hbond>  (1) 
-0.16

>  <r_i_glide_ligand_efficiency>  (1) 
-0.93213952298584091

>  <r_i_glide_ligand_efficiency_ln>  (1) 
-1.5624887493735462

>  <r_i_glide_ligand_efficiency_sa>  (1) 
-1.4796792593688595

>  <r_i_glide_lipo>  (1) 
-0.013906729798562291

>  <r_i_glide_metal>  (1) 
-0

>  <r_i_glide_rewards>  (1) 
-2.25

>  <r_lp_Energy>  (1) 
5.5414079999999997

>  <r_lp_tautomer_probability>  (1) 
1

>  <s_epik_Chemistry_Notes>  (1) 
This compound contains an acetal/aminal-like group ( X-CH(R)-Y where X, Y are N, S, or O) that may be acid/base labile, releasing an aldehyde.

>  <s_epik_cmdline>  (1) 
J2VwaWtfcHl0aG9uJywgJy1waHQnLCAnMS4wJywgJy1waCcsICc3LjQnLCAnLXRuJywgJzgnLCAnLW1hJywgJzUwMCcsICctaW1hZScsICc8aW5maWxlLm1hZT4nLCAnLW9tYWUnLCAnPG91dGZpbGUubWFlPic=

>  <s_epik_input>  (1) 
W09IXVtDSDJdT1tDSDNd

>  <s_glide_docking_method>  (1) 
confgen

>  <s_i_glide_gridfile>  (1) 
gpcr_5ht2c_6bqh_protein_autoprepared_prepared

>  <s_lp_Force_Field>  (1) 
S-OPLS

>  <s_lp_Variant>  (1) 
Pocket2Mol_42_num_sample_50-1

>  <s_m_source_file>  (1) 
generated__ligand_Pocket2Mol_2026-05-06_prepared.sdf

>  <GenAI_Model>  (1) 
Pocket2Mol

>  <Protein>  (1) 
GPCR_5HT2C

$$$$
Pocket2Mol_10_num_sample_50
     RDKit          3D

  0  0  0  0  0  0  0  0  0  0999 V3000
M  V30 BEGIN CTAB
M  V30 COUNTS 14 14 0 0 1
M  V30 BEGIN ATOM
M  V30 1 C 35.315064 33.328901 59.956786 0
M  V30 2 O 36.390457 34.252324 59.838729 0
M  V30 3 C 37.163777 34.297690 61.029536 0
M  V30 4 C 35.880571 31.930228 60.253503 0
M  V30 5 O 36.643594 31.972821 61.453500 0
M  V30 6 C 37.721061 32.893512 61.332347 0
M  V30 7 H 34.633436 33.640705 60.748901 0
M  V30 8 H 34.744415 33.320609 59.028624 0
M  V30 9 H 37.979070 35.009140 60.897205 0
M  V30 10 H 36.549532 34.661514 61.853501 0
M  V30 11 H 35.067403 31.221431 60.381604 0
M  V30 12 H 36.491612 31.573203 59.422815 0
M  V30 13 H 38.404858 32.570913 60.545675 0
M  V30 14 H 38.286221 32.902399 62.264028 0
M  V30 END ATOM
M  V30 BEGIN BOND
M  V30 1 1 2 1
M  V30 2 1 3 2
M  V30 3 1 4 1
M  V30 4 1 5 4
M  V30 5 1 6 3
M  V30 6 1 6 5
M  V30 7 1 7 1
M  V30 8 1 8 1
M  V30 9 1 9 3
M  V30 10 1 10 3
M  V30 11 1 11 4
M  V30 12 1 12 4
M  V30 13 1 13 6
M  V30 14 1 14 6
M  V30 END BOND
M  V30 END CTAB
M  END
>  <i_epik_Tot_Q>  (1) 
0

>  <i_epik_Tot_abs_Q>  (1) 
0

>  <i_i_glide_confnum>  (1) 
2

>  <i_i_glide_lignum>  (1) 
11

>  <i_i_glide_posenum>  (1) 
357

>  <i_i_glide_rotatable_bonds>  (1) 
0

>  <i_lp_mmshare_version>  (1) 
72125

>  <i_m_source_file_index>  (1) 
11

>  <i_f3d_flags>  (1) 
0

>  <num_sample>  (1) 
50

>  <b_lp_Chiralities_Consistent>  (1) 
1

>  <r_epik_Charging_Adjusted_Penalty>  (1) 
0

>  <r_epik_Ionization_Penalty>  (1) 
8.3894707547109138e-13

>  <r_epik_Ionization_Penalty_Charging>  (1) 
0

>  <r_epik_Ionization_Penalty_Neutral>  (1) 
8.3894707547109138e-13

>  <r_epik_State_Penalty>  (1) 
-0

>  <r_glide_ring_energy>  (1) 
0.00013676017923054334

>  <r_i_docking_score>  (1) 
-3.7239084827912619

>  <r_i_glide_ecoul>  (1) 
-1.7689807121409133

>  <r_i_glide_eff_state_penalty>  (1) 
-0

>  <r_i_glide_einternal>  (1) 
0

>  <r_i_glide_emodel>  (1) 
-16.437194725724023

>  <r_i_glide_emodel_strain>  (1) 
0

>  <r_i_glide_energy>  (1) 
-13.319456658241869

>  <r_i_glide_erotb>  (1) 
0

>  <r_i_glide_esite>  (1) 
0

>  <r_i_glide_evdw>  (1) 
-11.550475946100956

>  <r_i_glide_gscore>  (1) 
-3.7239084827912619

>  <r_i_glide_gscore_strain>  (1) 
0

>  <r_i_glide_hbond>  (1) 
-0.27579748450665714

>  <r_i_glide_ligand_efficiency>  (1) 
-0.62065141379854361

>  <r_i_glide_ligand_efficiency_ln>  (1) 
-1.3338930247529361

>  <r_i_glide_ligand_efficiency_sa>  (1) 
-1.1277984649837154

>  <r_i_glide_lipo>  (1) 
-0.2429330189886556

>  <r_i_glide_metal>  (1) 
-0

>  <r_i_glide_rewards>  (1) 
-2.3623070751697641

>  <r_lp_Energy>  (1) 
4.964817

>  <r_lp_tautomer_probability>  (1) 
1

>  <s_epik_cmdline>  (1) 
J2VwaWtfcHl0aG9uJywgJy1waHQnLCAnMS4wJywgJy1waCcsICc3LjQnLCAnLXRuJywgJzgnLCAnLW1hJywgJzUwMCcsICctaW1hZScsICc8aW5maWxlLm1hZT4nLCAnLW9tYWUnLCAnPG91dGZpbGUubWFlPic=

>  <s_epik_input>  (1) 
W0NIMl0xT1tDSDJdW0NIMl1PW0NIMl0x

>  <s_glide_docking_method>  (1) 
confgen

>  <s_i_glide_gridfile>  (1) 
gpcr_5ht2c_6bqh_protein_autoprepared_prepared

>  <s_lp_Force_Field>  (1) 
S-OPLS

>  <s_lp_Variant>  (1) 
Pocket2Mol_10_num_sample_50-1

>  <s_m_source_file>  (1) 
generated__ligand_Pocket2Mol_2026-05-06_prepared.sdf

>  <GenAI_Model>  (1) 
Pocket2Mol

>  <Protein>  (1) 
GPCR_5HT2C

$$$$
Pocket2Mol_49_num_sample_50
     RDKit          3D

  0  0  0  0  0  0  0  0  0  0999 V3000
M  V30 BEGIN CTAB
M  V30 COUNTS 13 13 0 0 1
M  V30 BEGIN ATOM
M  V30 1 C 37.535534 31.471795 60.816765 0
M  V30 2 O 36.267570 31.621406 61.453501 0
M  V30 3 C 35.467442 32.550041 60.725431 0
M  V30 4 C 37.457301 32.264398 59.513585 0
M  V30 5 C 36.441778 33.331608 59.853319 0
M  V30 6 H 38.300712 31.889214 61.472314 0
M  V30 7 H 37.772948 30.421411 60.647123 0
M  V30 8 H 34.765772 31.995416 60.100570 0
M  V30 9 H 34.891385 33.192752 61.391972 0
M  V30 10 H 38.419272 32.668927 59.197958 0
M  V30 11 H 37.072333 31.633233 58.710264 0
M  V30 12 H 35.968864 33.767115 58.971736 0
M  V30 13 H 36.908719 34.132069 60.428359 0
M  V30 END ATOM
M  V30 BEGIN BOND
M  V30 1 1 2 1
M  V30 2 1 3 2
M  V30 3 1 4 1
M  V30 4 1 5 3
M  V30 5 1 5 4
M  V30 6 1 6 1
M  V30 7 1 7 1
M  V30 8 1 8 3
M  V30 9 1 9 3
M  V30 10 1 10 4
M  V30 11 1 11 4
M  V30 12 1 12 5
M  V30 13 1 13 5
M  V30 END BOND
M  V30 END CTAB
M  END
>  <i_epik_Tot_Q>  (1) 
0

>  <i_epik_Tot_abs_Q>  (1) 
0

>  <i_i_glide_confnum>  (1) 
3

>  <i_i_glide_lignum>  (1) 
50

>  <i_i_glide_posenum>  (1) 
67

>  <i_i_glide_rotatable_bonds>  (1) 
0

>  <i_lp_mmshare_version>  (1) 
72125

>  <i_m_source_file_index>  (1) 
50

>  <i_f3d_flags>  (1) 
0

>  <num_sample>  (1) 
50

>  <b_lp_Chiralities_Consistent>  (1) 
1

>  <r_epik_Charging_Adjusted_Penalty>  (1) 
0

>  <r_epik_Ionization_Penalty>  (1) 
1.3889264151150229e-11

>  <r_epik_Ionization_Penalty_Charging>  (1) 
0

>  <r_epik_Ionization_Penalty_Neutral>  (1) 
1.3889264151150229e-11

>  <r_epik_State_Penalty>  (1) 
-0

>  <r_glide_ring_energy>  (1) 
0.22161987042107956

>  <r_i_docking_score>  (1) 
-3.7203969976356643

>  <r_i_glide_ecoul>  (1) 
-3.0195142772917309

>  <r_i_glide_eff_state_penalty>  (1) 
-0

>  <r_i_glide_einternal>  (1) 
0

>  <r_i_glide_emodel>  (1) 
-15.686148360819107

>  <r_i_glide_emodel_strain>  (1) 
0

>  <r_i_glide_energy>  (1) 
-12.66789297647432

>  <r_i_glide_erotb>  (1) 
0

>  <r_i_glide_esite>  (1) 
0

>  <r_i_glide_evdw>  (1) 
-9.6483786991825884

>  <r_i_glide_gscore>  (1) 
-3.7203969976356643

>  <r_i_glide_gscore_strain>  (1) 
0

>  <r_i_glide_hbond>  (1) 
-0.32000000000000001

>  <r_i_glide_ligand_efficiency>  (1) 
-0.74407939952713287

>  <r_i_glide_ligand_efficiency_ln>  (1) 
-1.4257465103529725

>  <r_i_glide_ligand_efficiency_sa>  (1) 
-1.2723578756090372

>  <r_i_glide_lipo>  (1) 
-0.02463825529593007

>  <r_i_glide_metal>  (1) 
-0

>  <r_i_glide_rewards>  (1) 
-2.440412665786845

>  <r_lp_Energy>  (1) 
3.9174029999999997

>  <r_lp_tautomer_probability>  (1) 
1

>  <s_epik_cmdline>  (1) 
J2VwaWtfcHl0aG9uJywgJy1waHQnLCAnMS4wJywgJy1waCcsICc3LjQnLCAnLXRuJywgJzgnLCAnLW1hJywgJzUwMCcsICctaW1hZScsICc8aW5maWxlLm1hZT4nLCAnLW9tYWUnLCAnPG91dGZpbGUubWFlPic=

>  <s_epik_input>  (1) 
W0NIMl0xT1tDSDJdW0NIMl1bQ0gyXTE=

>  <s_glide_docking_method>  (1) 
confgen

>  <s_i_glide_gridfile>  (1) 
gpcr_5ht2c_6bqh_protein_autoprepared_prepared

>  <s_lp_Force_Field>  (1) 
S-OPLS

>  <s_lp_Variant>  (1) 
Pocket2Mol_49_num_sample_50-1

>  <s_m_source_file>  (1) 
generated__ligand_Pocket2Mol_2026-05-06_prepared.sdf

>  <GenAI_Model>  (1) 
Pocket2Mol

>  <Protein>  (1) 
GPCR_5HT2C

$$$$
Pocket2Mol_20_num_sample_50
     RDKit          3D

  0  0  0  0  0  0  0  0  0  0999 V3000
M  V30 BEGIN CTAB
M  V30 COUNTS 10 9 0 0 1
M  V30 BEGIN ATOM
M  V30 1 C 41.467582 27.179278 64.741949 0
M  V30 2 C 41.097012 26.084075 65.733663 0
M  V30 3 C 41.797665 26.101003 67.087742 0
M  V30 4 O 40.267453 25.221586 65.453486 0
M  V30 5 H 42.162575 27.890740 65.186667 0
M  V30 6 H 40.572474 27.720228 64.434618 0
M  V30 7 H 41.933231 26.747915 63.855720 0
M  V30 8 H 42.471931 26.952926 67.174568 0
M  V30 9 H 41.067550 26.156457 67.895843 0
M  V30 10 H 42.381724 25.190510 67.214363 0
M  V30 END ATOM
M  V30 BEGIN BOND
M  V30 1 1 2 1
M  V30 2 1 3 2
M  V30 3 2 4 2
M  V30 4 1 5 1
M  V30 5 1 6 1
M  V30 6 1 7 1
M  V30 7 1 8 3
M  V30 8 1 9 3
M  V30 9 1 10 3
M  V30 END BOND
M  V30 END CTAB
M  END
>  <i_epik_Tot_Q>  (1) 
0

>  <i_epik_Tot_abs_Q>  (1) 
0

>  <i_i_glide_confnum>  (1) 
1

>  <i_i_glide_lignum>  (1) 
21

>  <i_i_glide_posenum>  (1) 
300

>  <i_i_glide_rotatable_bonds>  (1) 
0

>  <i_lp_mmshare_version>  (1) 
72125

>  <i_m_source_file_index>  (1) 
21

>  <i_f3d_flags>  (1) 
0

>  <num_sample>  (1) 
50

>  <b_lp_Chiralities_Consistent>  (1) 
1

>  <r_epik_Charging_Adjusted_Penalty>  (1) 
0

>  <r_epik_Ionization_Penalty>  (1) 
8.9301752364709234e-13

>  <r_epik_Ionization_Penalty_Charging>  (1) 
0

>  <r_epik_Ionization_Penalty_Neutral>  (1) 
8.9301752364709234e-13

>  <r_epik_State_Penalty>  (1) 
-0

>  <r_glide_ring_energy>  (1) 
0

>  <r_i_docking_score>  (1) 
-3.6312240904254143

>  <r_i_glide_ecoul>  (1) 
-1.7510903279477452

>  <r_i_glide_eff_state_penalty>  (1) 
-0

>  <r_i_glide_einternal>  (1) 
0

>  <r_i_glide_emodel>  (1) 
-13.439930722508441

>  <r_i_glide_emodel_strain>  (1) 
0.11312327885759466

>  <r_i_glide_energy>  (1) 
-10.625553040675328

>  <r_i_glide_erotb>  (1) 
0

>  <r_i_glide_esite>  (1) 
0

>  <r_i_glide_evdw>  (1) 
-8.874462712727583

>  <r_i_glide_gscore>  (1) 
-3.6312240904254143

>  <r_i_glide_gscore_strain>  (1) 
0

>  <r_i_glide_hbond>  (1) 
0

>  <r_i_glide_ligand_efficiency>  (1) 
-0.90780602260635357

>  <r_i_glide_ligand_efficiency_ln>  (1) 
-1.5216999837024618

>  <r_i_glide_ligand_efficiency_sa>  (1) 
-1.4410522352683928

>  <r_i_glide_lipo>  (1) 
-0.23940352422802991

>  <r_i_glide_metal>  (1) 
-0

>  <r_i_glide_rewards>  (1) 
-2.6854338813688434

>  <r_lp_Energy>  (1) 
-0.55031200000000002

>  <r_lp_tautomer_probability>  (1) 
1

>  <s_epik_cmdline>  (1) 
J2VwaWtfcHl0aG9uJywgJy1waHQnLCAnMS4wJywgJy1waCcsICc3LjQnLCAnLXRuJywgJzgnLCAnLW1hJywgJzUwMCcsICctaW1hZScsICc8aW5maWxlLm1hZT4nLCAnLW9tYWUnLCAnPG91dGZpbGUubWFlPic=

>  <s_epik_input>  (1) 
W0NIM11DKD1PKVtDSDNd

>  <s_glide_docking_method>  (1) 
confgen

>  <s_i_glide_gridfile>  (1) 
gpcr_5ht2c_6bqh_protein_autoprepared_prepared

>  <s_lp_Force_Field>  (1) 
S-OPLS

>  <s_lp_Variant>  (1) 
Pocket2Mol_20_num_sample_50-1

>  <s_m_source_file>  (1) 
generated__ligand_Pocket2Mol_2026-05-06_prepared.sdf

>  <GenAI_Model>  (1) 
Pocket2Mol

>  <Protein>  (1) 
GPCR_5HT2C

$$$$
Pocket2Mol_6_num_sample_50
     RDKit          3D

  0  0  0  0  0  0  0  0  0  0999 V3000
M  V30 BEGIN CTAB
M  V30 COUNTS 12 12 0 0 1
M  V30 BEGIN ATOM
M  V30 1 C 33.823020 16.820713 48.255637 0
M  V30 2 C 32.414167 16.820970 48.252691 0
M  V30 3 C 34.525109 17.220796 49.409708 0
M  V30 4 C 33.818345 17.621138 50.560832 0
M  V30 5 C 32.409492 17.621396 50.557884 0
M  V30 6 C 31.707403 17.221312 49.403815 0
M  V30 7 H 34.364884 16.513777 47.373090 0
M  V30 8 H 31.875887 16.514232 47.367884 0
M  V30 9 H 35.605252 17.220598 49.411967 0
M  V30 10 H 34.356626 17.927876 51.445638 0
M  V30 11 H 31.867629 17.928333 51.440431 0
M  V30 12 H 30.627260 17.221510 49.401557 0
M  V30 END ATOM
M  V30 BEGIN BOND
M  V30 1 1 2 1
M  V30 2 2 3 1
M  V30 3 1 4 3
M  V30 4 2 5 4
M  V30 5 2 6 2
M  V30 6 1 6 5
M  V30 7 1 7 1
M  V30 8 1 8 2
M  V30 9 1 9 3
M  V30 10 1 10 4
M  V30 11 1 11 5
M  V30 12 1 12 6
M  V30 END BOND
M  V30 END CTAB
M  END
>  <i_epik_Tot_Q>  (1) 
0

>  <i_epik_Tot_abs_Q>  (1) 
0

>  <i_i_glide_confnum>  (1) 
1

>  <i_i_glide_lignum>  (1) 
7

>  <i_i_glide_posenum>  (1) 
237

>  <i_i_glide_rotatable_bonds>  (1) 
0

>  <i_lp_mmshare_version>  (1) 
72125

>  <i_m_source_file_index>  (1) 
7

>  <i_f3d_flags>  (1) 
0

>  <num_sample>  (1) 
50

>  <b_lp_Chiralities_Consistent>  (1) 
1

>  <r_epik_Charging_Adjusted_Penalty>  (1) 
0

>  <r_epik_Ionization_Penalty>  (1) 
0

>  <r_epik_Ionization_Penalty_Charging>  (1) 
0

>  <r_epik_Ionization_Penalty_Neutral>  (1) 
0

>  <r_epik_State_Penalty>  (1) 
-0

>  <r_glide_ring_energy>  (1) 
0

>  <r_i_docking_score>  (1) 
-3.6234846421331341

>  <r_i_glide_ecoul>  (1) 
0.079215918532862362

>  <r_i_glide_eff_state_penalty>  (1) 
-0

>  <r_i_glide_einternal>  (1) 
0

>  <r_i_glide_emodel>  (1) 
-11.018904215641944

>  <r_i_glide_emodel_strain>  (1) 
0

>  <r_i_glide_energy>  (1) 
-7.606410686122393

>  <r_i_glide_erotb>  (1) 
0

>  <r_i_glide_esite>  (1) 
0

>  <r_i_glide_evdw>  (1) 
-7.6856266046552557

>  <r_i_glide_gscore>  (1) 
-3.6234846421331341

>  <r_i_glide_gscore_strain>  (1) 
0

>  <r_i_glide_hbond>  (1) 
0

>  <r_i_glide_ligand_efficiency>  (1) 
-0.60391410702218906

>  <r_i_glide_ligand_efficiency_ln>  (1) 
-1.2979215015020826

>  <r_i_glide_ligand_efficiency_sa>  (1) 
-1.0973847601718525

>  <r_i_glide_lipo>  (1) 
-1.0010856996803008

>  <r_i_glide_metal>  (1) 
-0

>  <r_i_glide_rewards>  (1) 
-2.25

>  <r_lp_Energy>  (1) 
6.1542199999999996

>  <r_lp_tautomer_probability>  (1) 
1

>  <s_epik_cmdline>  (1) 
J2VwaWtfcHl0aG9uJywgJy1waHQnLCAnMS4wJywgJy1waCcsICc3LjQnLCAnLXRuJywgJzgnLCAnLW1hJywgJzUwMCcsICctaW1hZScsICc8aW5maWxlLm1hZT4nLCAnLW9tYWUnLCAnPG91dGZpbGUubWFlPic=

>  <s_epik_input>  (1) 
W2NIXTFbY0hdW2NIXVtjSF1bY0hdW2NIXTE=

>  <s_glide_docking_method>  (1) 
confgen

>  <s_i_glide_gridfile>  (1) 
gpcr_5ht2c_6bqh_protein_autoprepared_prepared

>  <s_lp_Force_Field>  (1) 
S-OPLS

>  <s_lp_Variant>  (1) 
Pocket2Mol_6_num_sample_50-1

>  <s_m_source_file>  (1) 
generated__ligand_Pocket2Mol_2026-05-06_prepared.sdf

>  <GenAI_Model>  (1) 
Pocket2Mol

>  <Protein>  (1) 
GPCR_5HT2C

$$$$
Pocket2Mol_20_num_sample_50
     RDKit          3D

  0  0  0  0  0  0  0  0  0  0999 V3000
M  V30 BEGIN CTAB
M  V30 COUNTS 10 9 0 0 1
M  V30 BEGIN ATOM
M  V30 1 C 34.692760 33.071924 59.853501 0
M  V30 2 C 35.903137 32.281778 60.333661 0
M  V30 3 C 37.160778 32.343923 59.476940 0
M  V30 4 O 35.867403 31.621438 61.371681 0
M  V30 5 H 35.002748 33.912409 59.232263 0
M  V30 6 H 34.128409 33.459425 60.700711 0
M  V30 7 H 34.039627 32.431165 59.260857 0
M  V30 8 H 36.949212 32.810694 58.514302 0
M  V30 9 H 37.934235 32.922148 59.981657 0
M  V30 10 H 37.539601 31.338893 59.292767 0
M  V30 END ATOM
M  V30 BEGIN BOND
M  V30 1 1 2 1
M  V30 2 1 3 2
M  V30 3 2 4 2
M  V30 4 1 5 1
M  V30 5 1 6 1
M  V30 6 1 7 1
M  V30 7 1 8 3
M  V30 8 1 9 3
M  V30 9 1 10 3
M  V30 END BOND
M  V30 END CTAB
M  END
>  <i_epik_Tot_Q>  (1) 
0

>  <i_epik_Tot_abs_Q>  (1) 
0

>  <i_i_glide_confnum>  (1) 
1

>  <i_i_glide_lignum>  (1) 
21

>  <i_i_glide_posenum>  (1) 
391

>  <i_i_glide_rotatable_bonds>  (1) 
0

>  <i_lp_mmshare_version>  (1) 
72125

>  <i_m_source_file_index>  (1) 
21

>  <i_f3d_flags>  (1) 
0

>  <num_sample>  (1) 
50

>  <b_lp_Chiralities_Consistent>  (1) 
1

>  <r_epik_Charging_Adjusted_Penalty>  (1) 
0

>  <r_epik_Ionization_Penalty>  (1) 
8.9301752364709234e-13

>  <r_epik_Ionization_Penalty_Charging>  (1) 
0

>  <r_epik_Ionization_Penalty_Neutral>  (1) 
8.9301752364709234e-13

>  <r_epik_State_Penalty>  (1) 
-0

>  <r_glide_ring_energy>  (1) 
0

>  <r_i_docking_score>  (1) 
-3.6144372267126981

>  <r_i_glide_ecoul>  (1) 
-3.7244429513995208

>  <r_i_glide_eff_state_penalty>  (1) 
-0

>  <r_i_glide_einternal>  (1) 
0

>  <r_i_glide_emodel>  (1) 
-15.161113001523869

>  <r_i_glide_emodel_strain>  (1) 
0.024109128524966383

>  <r_i_glide_energy>  (1) 
-12.271254776324312

>  <r_i_glide_erotb>  (1) 
0

>  <r_i_glide_esite>  (1) 
-0.058430192756530365

>  <r_i_glide_evdw>  (1) 
-8.5468118249247915

>  <r_i_glide_gscore>  (1) 
-3.6144372267126981

>  <r_i_glide_gscore_strain>  (1) 
0

>  <r_i_glide_hbond>  (1) 
-0.32000000000000001

>  <r_i_glide_ligand_efficiency>  (1) 
-0.90360930667817452

>  <r_i_glide_ligand_efficiency_ln>  (1) 
-1.5146652842176764

>  <r_i_glide_ligand_efficiency_sa>  (1) 
-1.4343903639891895

>  <r_i_glide_lipo>  (1) 
0

>  <r_i_glide_metal>  (1) 
-0

>  <r_i_glide_rewards>  (1) 
-2.25

>  <r_lp_Energy>  (1) 
-0.55031200000000002

>  <r_lp_tautomer_probability>  (1) 
1

>  <s_epik_cmdline>  (1) 
J2VwaWtfcHl0aG9uJywgJy1waHQnLCAnMS4wJywgJy1waCcsICc3LjQnLCAnLXRuJywgJzgnLCAnLW1hJywgJzUwMCcsICctaW1hZScsICc8aW5maWxlLm1hZT4nLCAnLW9tYWUnLCAnPG91dGZpbGUubWFlPic=

>  <s_epik_input>  (1) 
W0NIM11DKD1PKVtDSDNd

>  <s_glide_docking_method>  (1) 
confgen

>  <s_i_glide_gridfile>  (1) 
gpcr_5ht2c_6bqh_protein_autoprepared_prepared

>  <s_lp_Force_Field>  (1) 
S-OPLS

>  <s_lp_Variant>  (1) 
Pocket2Mol_20_num_sample_50-1

>  <s_m_source_file>  (1) 
generated__ligand_Pocket2Mol_2026-05-06_prepared.sdf

>  <GenAI_Model>  (1) 
Pocket2Mol

>  <Protein>  (1) 
GPCR_5HT2C

$$$$
Pocket2Mol_20_num_sample_50
     RDKit          3D

  0  0  0  0  0  0  0  0  0  0999 V3000
M  V30 BEGIN CTAB
M  V30 COUNTS 10 9 0 0 1
M  V30 BEGIN ATOM
M  V30 1 C 34.672564 33.007961 59.848995 0
M  V30 2 C 35.913369 32.606533 60.635696 0
M  V30 3 C 37.191505 33.392986 60.372247 0
M  V30 4 O 35.884665 31.686981 61.452795 0
M  V30 5 H 34.945107 33.576680 58.959369 0
M  V30 6 H 34.014402 33.621429 60.464115 0
M  V30 7 H 34.128916 32.119773 59.526433 0
M  V30 8 H 37.076475 34.050086 59.509965 0
M  V30 9 H 37.442003 34.001964 61.240785 0
M  V30 10 H 38.019687 32.711570 60.175823 0
M  V30 END ATOM
M  V30 BEGIN BOND
M  V30 1 1 2 1
M  V30 2 1 3 2
M  V30 3 2 4 2
M  V30 4 1 5 1
M  V30 5 1 6 1
M  V30 6 1 7 1
M  V30 7 1 8 3
M  V30 8 1 9 3
M  V30 9 1 10 3
M  V30 END BOND
M  V30 END CTAB
M  END
>  <i_epik_Tot_Q>  (1) 
0

>  <i_epik_Tot_abs_Q>  (1) 
0

>  <i_i_glide_confnum>  (1) 
1

>  <i_i_glide_lignum>  (1) 
21

>  <i_i_glide_posenum>  (1) 
97

>  <i_i_glide_rotatable_bonds>  (1) 
0

>  <i_lp_mmshare_version>  (1) 
72125

>  <i_m_source_file_index>  (1) 
21

>  <i_f3d_flags>  (1) 
0

>  <num_sample>  (1) 
50

>  <b_lp_Chiralities_Consistent>  (1) 
1

>  <r_epik_Charging_Adjusted_Penalty>  (1) 
0

>  <r_epik_Ionization_Penalty>  (1) 
8.9301752364709234e-13

>  <r_epik_Ionization_Penalty_Charging>  (1) 
0

>  <r_epik_Ionization_Penalty_Neutral>  (1) 
8.9301752364709234e-13

>  <r_epik_State_Penalty>  (1) 
-0

>  <r_glide_ring_energy>  (1) 
0

>  <r_i_docking_score>  (1) 
-3.5552611562329401

>  <r_i_glide_ecoul>  (1) 
-3.5351456657912652

>  <r_i_glide_eff_state_penalty>  (1) 
-0

>  <r_i_glide_einternal>  (1) 
0

>  <r_i_glide_emodel>  (1) 
-14.949137616577218

>  <r_i_glide_emodel_strain>  (1) 
0.066730155134992364

>  <r_i_glide_energy>  (1) 
-12.14960829799327

>  <r_i_glide_erotb>  (1) 
0

>  <r_i_glide_esite>  (1) 
-0.011476290315317201

>  <r_i_glide_evdw>  (1) 
-8.6144626322020041

>  <r_i_glide_gscore>  (1) 
-3.5552611562329401

>  <r_i_glide_gscore_strain>  (1) 
0

>  <r_i_glide_hbond>  (1) 
-0.32000000000000001

>  <r_i_glide_ligand_efficiency>  (1) 
-0.88881528905823504

>  <r_i_glide_ligand_efficiency_ln>  (1) 
-1.4898669728928378

>  <r_i_glide_ligand_efficiency_sa>  (1) 
-1.4109063248564615

>  <r_i_glide_lipo>  (1) 
-0.012789884438833233

>  <r_i_glide_metal>  (1) 
-0

>  <r_i_glide_rewards>  (1) 
-2.25

>  <r_lp_Energy>  (1) 
-0.55031200000000002

>  <r_lp_tautomer_probability>  (1) 
1

>  <s_epik_cmdline>  (1) 
J2VwaWtfcHl0aG9uJywgJy1waHQnLCAnMS4wJywgJy1waCcsICc3LjQnLCAnLXRuJywgJzgnLCAnLW1hJywgJzUwMCcsICctaW1hZScsICc8aW5maWxlLm1hZT4nLCAnLW9tYWUnLCAnPG91dGZpbGUubWFlPic=

>  <s_epik_input>  (1) 
W0NIM11DKD1PKVtDSDNd

>  <s_glide_docking_method>  (1) 
confgen

>  <s_i_glide_gridfile>  (1) 
gpcr_5ht2c_6bqh_protein_autoprepared_prepared

>  <s_lp_Force_Field>  (1) 
S-OPLS

>  <s_lp_Variant>  (1) 
Pocket2Mol_20_num_sample_50-1

>  <s_m_source_file>  (1) 
generated__ligand_Pocket2Mol_2026-05-06_prepared.sdf

>  <GenAI_Model>  (1) 
Pocket2Mol

>  <Protein>  (1) 
GPCR_5HT2C

$$$$
Pocket2Mol_20_num_sample_50
     RDKit          3D

  0  0  0  0  0  0  0  0  0  0999 V3000
M  V30 BEGIN CTAB
M  V30 COUNTS 10 9 0 0 1
M  V30 BEGIN ATOM
M  V30 1 C 37.057846 30.778843 59.453498 0
M  V30 2 C 36.576633 31.684877 60.578897 0
M  V30 3 C 35.462662 32.670369 60.253500 0
M  V30 4 O 37.067397 31.622387 61.704780 0
M  V30 5 H 36.316518 30.724678 58.654929 0
M  V30 6 H 37.236656 29.770887 59.827542 0
M  V30 7 H 37.986369 31.163967 59.032691 0
M  V30 8 H 34.666857 32.174279 59.697225 0
M  V30 9 H 35.040059 33.089963 61.166405 0
M  V30 10 H 35.849218 33.485412 59.642191 0
M  V30 END ATOM
M  V30 BEGIN BOND
M  V30 1 1 2 1
M  V30 2 1 3 2
M  V30 3 2 4 2
M  V30 4 1 5 1
M  V30 5 1 6 1
M  V30 6 1 7 1
M  V30 7 1 8 3
M  V30 8 1 9 3
M  V30 9 1 10 3
M  V30 END BOND
M  V30 END CTAB
M  END
>  <i_epik_Tot_Q>  (1) 
0

>  <i_epik_Tot_abs_Q>  (1) 
0

>  <i_i_glide_confnum>  (1) 
1

>  <i_i_glide_lignum>  (1) 
21

>  <i_i_glide_posenum>  (1) 
196

>  <i_i_glide_rotatable_bonds>  (1) 
0

>  <i_lp_mmshare_version>  (1) 
72125

>  <i_m_source_file_index>  (1) 
21

>  <i_f3d_flags>  (1) 
0

>  <num_sample>  (1) 
50

>  <b_lp_Chiralities_Consistent>  (1) 
1

>  <r_epik_Charging_Adjusted_Penalty>  (1) 
0

>  <r_epik_Ionization_Penalty>  (1) 
8.9301752364709234e-13

>  <r_epik_Ionization_Penalty_Charging>  (1) 
0

>  <r_epik_Ionization_Penalty_Neutral>  (1) 
8.9301752364709234e-13

>  <r_epik_State_Penalty>  (1) 
-0

>  <r_glide_ring_energy>  (1) 
0

>  <r_i_docking_score>  (1) 
-3.4999681513179821

>  <r_i_glide_ecoul>  (1) 
-3.1190195413660948

>  <r_i_glide_eff_state_penalty>  (1) 
-0

>  <r_i_glide_einternal>  (1) 
0

>  <r_i_glide_emodel>  (1) 
-14.095663881011992

>  <r_i_glide_emodel_strain>  (1) 
0.013452763569629267

>  <r_i_glide_energy>  (1) 
-11.287434514749231

>  <r_i_glide_erotb>  (1) 
0

>  <r_i_glide_esite>  (1) 
-0.053694471443911096

>  <r_i_glide_evdw>  (1) 
-8.1684149733831362

>  <r_i_glide_gscore>  (1) 
-3.4999681513179821

>  <r_i_glide_gscore_strain>  (1) 
0

>  <r_i_glide_hbond>  (1) 
-0.32000000000000001

>  <r_i_glide_ligand_efficiency>  (1) 
-0.87499203782949553

>  <r_i_glide_ligand_efficiency_ln>  (1) 
-1.4666958981856049

>  <r_i_glide_ligand_efficiency_sa>  (1) 
-1.3889632813143398

>  <r_i_glide_lipo>  (1) 
0

>  <r_i_glide_metal>  (1) 
-0

>  <r_i_glide_rewards>  (1) 
-2.25

>  <r_lp_Energy>  (1) 
-0.55031200000000002

>  <r_lp_tautomer_probability>  (1) 
1

>  <s_epik_cmdline>  (1) 
J2VwaWtfcHl0aG9uJywgJy1waHQnLCAnMS4wJywgJy1waCcsICc3LjQnLCAnLXRuJywgJzgnLCAnLW1hJywgJzUwMCcsICctaW1hZScsICc8aW5maWxlLm1hZT4nLCAnLW9tYWUnLCAnPG91dGZpbGUubWFlPic=

>  <s_epik_input>  (1) 
W0NIM11DKD1PKVtDSDNd

>  <s_glide_docking_method>  (1) 
confgen

>  <s_i_glide_gridfile>  (1) 
gpcr_5ht2c_6bqh_protein_autoprepared_prepared

>  <s_lp_Force_Field>  (1) 
S-OPLS

>  <s_lp_Variant>  (1) 
Pocket2Mol_20_num_sample_50-1

>  <s_m_source_file>  (1) 
generated__ligand_Pocket2Mol_2026-05-06_prepared.sdf

>  <GenAI_Model>  (1) 
Pocket2Mol

>  <Protein>  (1) 
GPCR_5HT2C

$$$$
Pocket2Mol_9_num_sample_50
     RDKit          3D

  0  0  0  0  0  0  0  0  0  0999 V3000
M  V30 BEGIN CTAB
M  V30 COUNTS 7 6 0 0 1
M  V30 BEGIN ATOM
M  V30 1 C 36.769996 32.895545 59.856627 0
M  V30 2 C 37.514020 32.289190 61.039765 0
M  V30 3 O 36.838289 31.621451 61.853501 0
M  V30 4 O 38.744034 32.504300 61.110306 0 CHG=-1
M  V30 5 H 37.447522 33.456350 59.211873 0
M  V30 6 H 35.988921 33.571605 60.203001 0
M  V30 7 H 36.305780 32.111069 59.257262 0
M  V30 END ATOM
M  V30 BEGIN BOND
M  V30 1 1 2 1
M  V30 2 2 3 2
M  V30 3 1 4 2
M  V30 4 1 5 1
M  V30 5 1 6 1
M  V30 6 1 7 1
M  V30 END BOND
M  V30 END CTAB
M  END
>  <i_epik_Tot_Q>  (1) 
-1

>  <i_epik_Tot_abs_Q>  (1) 
1

>  <i_i_glide_confnum>  (1) 
1

>  <i_i_glide_lignum>  (1) 
10

>  <i_i_glide_posenum>  (1) 
211

>  <i_i_glide_rotatable_bonds>  (1) 
0

>  <i_lp_mmshare_version>  (1) 
72125

>  <i_m_source_file_index>  (1) 
10

>  <i_f3d_flags>  (1) 
0

>  <num_sample>  (1) 
50

>  <b_lp_Chiralities_Consistent>  (1) 
1

>  <r_epik_Charging_Adjusted_Penalty>  (1) 
0.001592553815962749

>  <r_epik_Ionization_Penalty>  (1) 
0.001592553815962749

>  <r_epik_Ionization_Penalty_Charging>  (1) 
0.001592553815962749

>  <r_epik_Ionization_Penalty_Neutral>  (1) 
0

>  <r_epik_State_Penalty>  (1) 
-0

>  <r_glide_ring_energy>  (1) 
0

>  <r_i_docking_score>  (1) 
-3.3493110684205938

>  <r_i_glide_ecoul>  (1) 
-4.4581047089880732

>  <r_i_glide_eff_state_penalty>  (1) 
-0

>  <r_i_glide_einternal>  (1) 
0

>  <r_i_glide_emodel>  (1) 
-11.144865561798177

>  <r_i_glide_emodel_strain>  (1) 
0

>  <r_i_glide_energy>  (1) 
-8.7740216885423337

>  <r_i_glide_erotb>  (1) 
0

>  <r_i_glide_esite>  (1) 
0

>  <r_i_glide_evdw>  (1) 
-4.3159169795542613

>  <r_i_glide_gscore>  (1) 
-3.3493110684205938

>  <r_i_glide_gscore_strain>  (1) 
0

>  <r_i_glide_hbond>  (1) 
-0.16

>  <r_i_glide_ligand_efficiency>  (1) 
-0.83732776710514845

>  <r_i_glide_ligand_efficiency_ln>  (1) 
-1.4035615735389653

>  <r_i_glide_ligand_efficiency_sa>  (1) 
-1.3291749783448961

>  <r_i_glide_lipo>  (1) 
0

>  <r_i_glide_metal>  (1) 
-0

>  <r_i_glide_rewards>  (1) 
-2.3047995130946699

>  <r_lp_Energy>  (1) 
-0.48114599999999996

>  <r_lp_tautomer_probability>  (1) 
1

>  <s_epik_cmdline>  (1) 
J2VwaWtfcHl0aG9uJywgJy1waHQnLCAnMS4wJywgJy1waCcsICc3LjQnLCAnLXRuJywgJzgnLCAnLW1hJywgJzUwMCcsICctaW1hZScsICc8aW5maWxlLm1hZT4nLCAnLW9tYWUnLCAnPG91dGZpbGUubWFlPic=

>  <s_epik_input>  (1) 
W0NIM11DKD1PKVtPSF0=

>  <s_glide_docking_method>  (1) 
confgen

>  <s_i_glide_gridfile>  (1) 
gpcr_5ht2c_6bqh_protein_autoprepared_prepared

>  <s_lp_Force_Field>  (1) 
S-OPLS

>  <s_lp_Variant>  (1) 
Pocket2Mol_9_num_sample_50-1

>  <s_m_source_file>  (1) 
generated__ligand_Pocket2Mol_2026-05-06_prepared.sdf

>  <GenAI_Model>  (1) 
Pocket2Mol

>  <Protein>  (1) 
GPCR_5HT2C

$$$$
Pocket2Mol_9_num_sample_50
     RDKit          3D

  0  0  0  0  0  0  0  0  0  0999 V3000
M  V30 BEGIN CTAB
M  V30 COUNTS 7 6 0 0 1
M  V30 BEGIN ATOM
M  V30 1 C 35.454887 33.143774 60.281180 0
M  V30 2 C 36.545087 32.414285 61.055208 0
M  V30 3 O 36.279765 31.259565 61.453497 0
M  V30 4 O 37.622457 33.022067 61.236536 0 CHG=-1
M  V30 5 H 35.786201 34.138151 59.981490 0
M  V30 6 H 34.562675 33.248805 60.898115 0
M  V30 7 H 35.192459 32.582843 59.384278 0
M  V30 END ATOM
M  V30 BEGIN BOND
M  V30 1 1 2 1
M  V30 2 2 3 2
M  V30 3 1 4 2
M  V30 4 1 5 1
M  V30 5 1 6 1
M  V30 6 1 7 1
M  V30 END BOND
M  V30 END CTAB
M  END
>  <i_epik_Tot_Q>  (1) 
-1

>  <i_epik_Tot_abs_Q>  (1) 
1

>  <i_i_glide_confnum>  (1) 
1

>  <i_i_glide_lignum>  (1) 
10

>  <i_i_glide_posenum>  (1) 
293

>  <i_i_glide_rotatable_bonds>  (1) 
0

>  <i_lp_mmshare_version>  (1) 
72125

>  <i_m_source_file_index>  (1) 
10

>  <i_f3d_flags>  (1) 
0

>  <num_sample>  (1) 
50

>  <b_lp_Chiralities_Consistent>  (1) 
1

>  <r_epik_Charging_Adjusted_Penalty>  (1) 
0.001592553815962749

>  <r_epik_Ionization_Penalty>  (1) 
0.001592553815962749

>  <r_epik_Ionization_Penalty_Charging>  (1) 
0.001592553815962749

>  <r_epik_Ionization_Penalty_Neutral>  (1) 
0

>  <r_epik_State_Penalty>  (1) 
-0

>  <r_glide_ring_energy>  (1) 
0

>  <r_i_docking_score>  (1) 
-3.3247415273478387

>  <r_i_glide_ecoul>  (1) 
-4.1383435496002736

>  <r_i_glide_eff_state_penalty>  (1) 
-0

>  <r_i_glide_einternal>  (1) 
0

>  <r_i_glide_emodel>  (1) 
-12.052484530501873

>  <r_i_glide_emodel_strain>  (1) 
0

>  <r_i_glide_energy>  (1) 
-9.699032456553736

>  <r_i_glide_erotb>  (1) 
0

>  <r_i_glide_esite>  (1) 
-0.015955549560124606

>  <r_i_glide_evdw>  (1) 
-5.5606889069534624

>  <r_i_glide_gscore>  (1) 
-3.3247415273478387

>  <r_i_glide_gscore_strain>  (1) 
0

>  <r_i_glide_hbond>  (1) 
-0.16

>  <r_i_glide_ligand_efficiency>  (1) 
-0.83118538183695967

>  <r_i_glide_ligand_efficiency_ln>  (1) 
-1.3932654669592117

>  <r_i_glide_ligand_efficiency_sa>  (1) 
-1.3194245495085792

>  <r_i_glide_lipo>  (1) 
0

>  <r_i_glide_metal>  (1) 
-0

>  <r_i_glide_rewards>  (1) 
-2.25

>  <r_lp_Energy>  (1) 
-0.48114599999999996

>  <r_lp_tautomer_probability>  (1) 
1

>  <s_epik_cmdline>  (1) 
J2VwaWtfcHl0aG9uJywgJy1waHQnLCAnMS4wJywgJy1waCcsICc3LjQnLCAnLXRuJywgJzgnLCAnLW1hJywgJzUwMCcsICctaW1hZScsICc8aW5maWxlLm1hZT4nLCAnLW9tYWUnLCAnPG91dGZpbGUubWFlPic=

>  <s_epik_input>  (1) 
W0NIM11DKD1PKVtPSF0=

>  <s_glide_docking_method>  (1) 
confgen

>  <s_i_glide_gridfile>  (1) 
gpcr_5ht2c_6bqh_protein_autoprepared_prepared

>  <s_lp_Force_Field>  (1) 
S-OPLS

>  <s_lp_Variant>  (1) 
Pocket2Mol_9_num_sample_50-1

>  <s_m_source_file>  (1) 
generated__ligand_Pocket2Mol_2026-05-06_prepared.sdf

>  <GenAI_Model>  (1) 
Pocket2Mol

>  <Protein>  (1) 
GPCR_5HT2C

$$$$
Pocket2Mol_9_num_sample_50
     RDKit          3D

  0  0  0  0  0  0  0  0  0  0999 V3000
M  V30 BEGIN CTAB
M  V30 COUNTS 7 6 0 0 1
M  V30 BEGIN ATOM
M  V30 1 C 34.768284 32.983760 59.853613 0
M  V30 2 C 35.729504 32.786809 61.017727 0
M  V30 3 O 36.307628 33.804994 61.453502 0
M  V30 4 O 35.867403 31.621429 61.453501 0 CHG=-1
M  V30 5 H 34.371847 32.029970 59.503281 0
M  V30 6 H 35.284932 33.462115 59.022081 0
M  V30 7 H 33.935781 33.620669 60.152728 0
M  V30 END ATOM
M  V30 BEGIN BOND
M  V30 1 1 2 1
M  V30 2 2 3 2
M  V30 3 1 4 2
M  V30 4 1 5 1
M  V30 5 1 6 1
M  V30 6 1 7 1
M  V30 END BOND
M  V30 END CTAB
M  END
>  <i_epik_Tot_Q>  (1) 
-1

>  <i_epik_Tot_abs_Q>  (1) 
1

>  <i_i_glide_confnum>  (1) 
1

>  <i_i_glide_lignum>  (1) 
10

>  <i_i_glide_posenum>  (1) 
110

>  <i_i_glide_rotatable_bonds>  (1) 
0

>  <i_lp_mmshare_version>  (1) 
72125

>  <i_m_source_file_index>  (1) 
10

>  <i_f3d_flags>  (1) 
0

>  <num_sample>  (1) 
50

>  <b_lp_Chiralities_Consistent>  (1) 
1

>  <r_epik_Charging_Adjusted_Penalty>  (1) 
0.001592553815962749

>  <r_epik_Ionization_Penalty>  (1) 
0.001592553815962749

>  <r_epik_Ionization_Penalty_Charging>  (1) 
0.001592553815962749

>  <r_epik_Ionization_Penalty_Neutral>  (1) 
0

>  <r_epik_State_Penalty>  (1) 
-0

>  <r_glide_ring_energy>  (1) 
0

>  <r_i_docking_score>  (1) 
-3.319434955821055

>  <r_i_glide_ecoul>  (1) 
-3.1721893726891794

>  <r_i_glide_eff_state_penalty>  (1) 
-0

>  <r_i_glide_einternal>  (1) 
0

>  <r_i_glide_emodel>  (1) 
-12.233152869049752

>  <r_i_glide_emodel_strain>  (1) 
0

>  <r_i_glide_energy>  (1) 
-9.8834571056787031

>  <r_i_glide_erotb>  (1) 
0

>  <r_i_glide_esite>  (1) 
0

>  <r_i_glide_evdw>  (1) 
-6.7112677329895236

>  <r_i_glide_gscore>  (1) 
-3.319434955821055

>  <r_i_glide_gscore_strain>  (1) 
0

>  <r_i_glide_hbond>  (1) 
-0.16

>  <r_i_glide_ligand_efficiency>  (1) 
-0.82985873895526374

>  <r_i_glide_ligand_efficiency_ln>  (1) 
-1.3910416962403751

>  <r_i_glide_ligand_efficiency_sa>  (1) 
-1.3173186352025892

>  <r_i_glide_lipo>  (1) 
0

>  <r_i_glide_metal>  (1) 
-0

>  <r_i_glide_rewards>  (1) 
-2.3480431632682017

>  <r_lp_Energy>  (1) 
-0.48114599999999996

>  <r_lp_tautomer_probability>  (1) 
1

>  <s_epik_cmdline>  (1) 
J2VwaWtfcHl0aG9uJywgJy1waHQnLCAnMS4wJywgJy1waCcsICc3LjQnLCAnLXRuJywgJzgnLCAnLW1hJywgJzUwMCcsICctaW1hZScsICc8aW5maWxlLm1hZT4nLCAnLW9tYWUnLCAnPG91dGZpbGUubWFlPic=

>  <s_epik_input>  (1) 
W0NIM11DKD1PKVtPSF0=

>  <s_glide_docking_method>  (1) 
confgen

>  <s_i_glide_gridfile>  (1) 
gpcr_5ht2c_6bqh_protein_autoprepared_prepared

>  <s_lp_Force_Field>  (1) 
S-OPLS

>  <s_lp_Variant>  (1) 
Pocket2Mol_9_num_sample_50-1

>  <s_m_source_file>  (1) 
generated__ligand_Pocket2Mol_2026-05-06_prepared.sdf

>  <GenAI_Model>  (1) 
Pocket2Mol

>  <Protein>  (1) 
GPCR_5HT2C

$$$$
Pocket2Mol_9_num_sample_50
     RDKit          3D

  0  0  0  0  0  0  0  0  0  0999 V3000
M  V30 BEGIN CTAB
M  V30 COUNTS 7 6 0 0 1
M  V30 BEGIN ATOM
M  V30 1 C 35.523059 32.827685 60.122688 0
M  V30 2 C 36.213248 31.578929 60.654688 0
M  V30 3 O 36.667419 31.634456 61.819269 0
M  V30 4 O 36.270764 30.589505 59.894331 0 CHG=-1
M  V30 5 H 35.164685 32.673052 59.104583 0
M  V30 6 H 36.217625 33.667169 60.115970 0
M  V30 7 H 34.671456 33.085526 60.751814 0
M  V30 END ATOM
M  V30 BEGIN BOND
M  V30 1 1 2 1
M  V30 2 2 3 2
M  V30 3 1 4 2
M  V30 4 1 5 1
M  V30 5 1 6 1
M  V30 6 1 7 1
M  V30 END BOND
M  V30 END CTAB
M  END
>  <i_epik_Tot_Q>  (1) 
-1

>  <i_epik_Tot_abs_Q>  (1) 
1

>  <i_i_glide_confnum>  (1) 
1

>  <i_i_glide_lignum>  (1) 
10

>  <i_i_glide_posenum>  (1) 
175

>  <i_i_glide_rotatable_bonds>  (1) 
0

>  <i_lp_mmshare_version>  (1) 
72125

>  <i_m_source_file_index>  (1) 
10

>  <i_f3d_flags>  (1) 
0

>  <num_sample>  (1) 
50

>  <b_lp_Chiralities_Consistent>  (1) 
1

>  <r_epik_Charging_Adjusted_Penalty>  (1) 
0.001592553815962749

>  <r_epik_Ionization_Penalty>  (1) 
0.001592553815962749

>  <r_epik_Ionization_Penalty_Charging>  (1) 
0.001592553815962749

>  <r_epik_Ionization_Penalty_Neutral>  (1) 
0

>  <r_epik_State_Penalty>  (1) 
-0

>  <r_glide_ring_energy>  (1) 
0

>  <r_i_docking_score>  (1) 
-3.3080725696775266

>  <r_i_glide_ecoul>  (1) 
-3.7806788888621856

>  <r_i_glide_eff_state_penalty>  (1) 
-0

>  <r_i_glide_einternal>  (1) 
0

>  <r_i_glide_emodel>  (1) 
-11.513045464563163

>  <r_i_glide_emodel_strain>  (1) 
0

>  <r_i_glide_energy>  (1) 
-9.1713926816808318

>  <r_i_glide_erotb>  (1) 
0

>  <r_i_glide_esite>  (1) 
-0.061435046707266308

>  <r_i_glide_evdw>  (1) 
-5.3907137928186453

>  <r_i_glide_gscore>  (1) 
-3.3080725696775266

>  <r_i_glide_gscore_strain>  (1) 
0

>  <r_i_glide_hbond>  (1) 
-0.16

>  <r_i_glide_ligand_efficiency>  (1) 
-0.82701814241938165

>  <r_i_glide_ligand_efficiency_ln>  (1) 
-1.3862801771551119

>  <r_i_glide_ligand_efficiency_sa>  (1) 
-1.3128094692733125

>  <r_i_glide_lipo>  (1) 
0

>  <r_i_glide_metal>  (1) 
-0

>  <r_i_glide_rewards>  (1) 
-2.25

>  <r_lp_Energy>  (1) 
-0.48114599999999996

>  <r_lp_tautomer_probability>  (1) 
1

>  <s_epik_cmdline>  (1) 
J2VwaWtfcHl0aG9uJywgJy1waHQnLCAnMS4wJywgJy1waCcsICc3LjQnLCAnLXRuJywgJzgnLCAnLW1hJywgJzUwMCcsICctaW1hZScsICc8aW5maWxlLm1hZT4nLCAnLW9tYWUnLCAnPG91dGZpbGUubWFlPic=

>  <s_epik_input>  (1) 
W0NIM11DKD1PKVtPSF0=

>  <s_glide_docking_method>  (1) 
confgen

>  <s_i_glide_gridfile>  (1) 
gpcr_5ht2c_6bqh_protein_autoprepared_prepared

>  <s_lp_Force_Field>  (1) 
S-OPLS

>  <s_lp_Variant>  (1) 
Pocket2Mol_9_num_sample_50-1

>  <s_m_source_file>  (1) 
generated__ligand_Pocket2Mol_2026-05-06_prepared.sdf

>  <GenAI_Model>  (1) 
Pocket2Mol

>  <Protein>  (1) 
GPCR_5HT2C

$$$$
Pocket2Mol_9_num_sample_50
     RDKit          3D

  0  0  0  0  0  0  0  0  0  0999 V3000
M  V30 BEGIN CTAB
M  V30 COUNTS 7 6 0 0 1
M  V30 BEGIN ATOM
M  V30 1 C 36.889153 30.834816 59.627512 0
M  V30 2 C 37.479751 31.353832 60.932141 0
M  V30 3 O 38.723003 31.469683 60.986230 0
M  V30 4 O 36.676884 31.621560 61.853501 0 CHG=-1
M  V30 5 H 35.802429 30.778200 59.679500 0
M  V30 6 H 37.274970 29.840642 59.403782 0
M  V30 7 H 37.144160 31.501190 58.803570 0
M  V30 END ATOM
M  V30 BEGIN BOND
M  V30 1 1 2 1
M  V30 2 2 3 2
M  V30 3 1 4 2
M  V30 4 1 5 1
M  V30 5 1 6 1
M  V30 6 1 7 1
M  V30 END BOND
M  V30 END CTAB
M  END
>  <i_epik_Tot_Q>  (1) 
-1

>  <i_epik_Tot_abs_Q>  (1) 
1

>  <i_i_glide_confnum>  (1) 
1

>  <i_i_glide_lignum>  (1) 
10

>  <i_i_glide_posenum>  (1) 
260

>  <i_i_glide_rotatable_bonds>  (1) 
0

>  <i_lp_mmshare_version>  (1) 
72125

>  <i_m_source_file_index>  (1) 
10

>  <i_f3d_flags>  (1) 
0

>  <num_sample>  (1) 
50

>  <b_lp_Chiralities_Consistent>  (1) 
1

>  <r_epik_Charging_Adjusted_Penalty>  (1) 
0.001592553815962749

>  <r_epik_Ionization_Penalty>  (1) 
0.001592553815962749

>  <r_epik_Ionization_Penalty_Charging>  (1) 
0.001592553815962749

>  <r_epik_Ionization_Penalty_Neutral>  (1) 
0

>  <r_epik_State_Penalty>  (1) 
-0

>  <r_glide_ring_energy>  (1) 
0

>  <r_i_docking_score>  (1) 
-3.307952245407829

>  <r_i_glide_ecoul>  (1) 
-4.4754775797393602

>  <r_i_glide_eff_state_penalty>  (1) 
-0

>  <r_i_glide_einternal>  (1) 
0

>  <r_i_glide_emodel>  (1) 
-11.068189235882436

>  <r_i_glide_emodel_strain>  (1) 
0

>  <r_i_glide_energy>  (1) 
-8.7266216257570655

>  <r_i_glide_erotb>  (1) 
0

>  <r_i_glide_esite>  (1) 
0

>  <r_i_glide_evdw>  (1) 
-4.2511440460177043

>  <r_i_glide_gscore>  (1) 
-3.307952245407829

>  <r_i_glide_gscore_strain>  (1) 
0

>  <r_i_glide_hbond>  (1) 
-0.16

>  <r_i_glide_ligand_efficiency>  (1) 
-0.82698806135195724

>  <r_i_glide_ligand_efficiency_ln>  (1) 
-1.3862297540926187

>  <r_i_glide_ligand_efficiency_sa>  (1) 
-1.3127617185552387

>  <r_i_glide_lipo>  (1) 
0

>  <r_i_glide_metal>  (1) 
-0

>  <r_i_glide_rewards>  (1) 
-2.2640734061460397

>  <r_lp_Energy>  (1) 
-0.48114599999999996

>  <r_lp_tautomer_probability>  (1) 
1

>  <s_epik_cmdline>  (1) 
J2VwaWtfcHl0aG9uJywgJy1waHQnLCAnMS4wJywgJy1waCcsICc3LjQnLCAnLXRuJywgJzgnLCAnLW1hJywgJzUwMCcsICctaW1hZScsICc8aW5maWxlLm1hZT4nLCAnLW9tYWUnLCAnPG91dGZpbGUubWFlPic=

>  <s_epik_input>  (1) 
W0NIM11DKD1PKVtPSF0=

>  <s_glide_docking_method>  (1) 
confgen

>  <s_i_glide_gridfile>  (1) 
gpcr_5ht2c_6bqh_protein_autoprepared_prepared

>  <s_lp_Force_Field>  (1) 
S-OPLS

>  <s_lp_Variant>  (1) 
Pocket2Mol_9_num_sample_50-1

>  <s_m_source_file>  (1) 
generated__ligand_Pocket2Mol_2026-05-06_prepared.sdf

>  <GenAI_Model>  (1) 
Pocket2Mol

>  <Protein>  (1) 
GPCR_5HT2C

$$$$
Pocket2Mol_16_num_sample_50
     RDKit          3D

  0  0  0  0  0  0  0  0  0  0999 V3000
M  V30 BEGIN CTAB
M  V30 COUNTS 18 18 0 0 1
M  V30 BEGIN ATOM
M  V30 1 C 37.867404 31.750049 59.258691 0
M  V30 2 C 38.098072 33.264615 59.384171 0
M  V30 3 C 36.762890 34.024293 59.453529 0
M  V30 4 C 36.985207 31.221434 60.401720 0
M  V30 5 C 35.883550 33.501470 60.602023 0
M  V30 6 C 35.654107 31.986646 60.479582 0
M  V30 7 H 37.391343 31.534587 58.300545 0
M  V30 8 H 38.822826 31.225455 59.252556 0
M  V30 9 H 38.686591 33.474184 60.278193 0
M  V30 10 H 38.683683 33.621429 58.536216 0
M  V30 11 H 36.945729 35.092030 59.577692 0
M  V30 12 H 36.231980 33.911209 58.506582 0
M  V30 13 H 36.792134 30.158490 60.253506 0
M  V30 14 H 37.518655 31.314094 61.348453 0
M  V30 15 H 34.925465 34.021413 60.599840 0
M  V30 16 H 36.356428 33.725890 61.558912 0
M  V30 17 H 35.066157 31.781158 59.583152 0
M  V30 18 H 35.067404 31.627865 61.325198 0
M  V30 END ATOM
M  V30 BEGIN BOND
M  V30 1 1 2 1
M  V30 2 1 3 2
M  V30 3 1 4 1
M  V30 4 1 5 3
M  V30 5 1 6 4
M  V30 6 1 6 5
M  V30 7 1 7 1
M  V30 8 1 8 1
M  V30 9 1 9 2
M  V30 10 1 10 2
M  V30 11 1 11 3
M  V30 12 1 12 3
M  V30 13 1 13 4
M  V30 14 1 14 4
M  V30 15 1 15 5
M  V30 16 1 16 5
M  V30 17 1 17 6
M  V30 18 1 18 6
M  V30 END BOND
M  V30 END CTAB
M  END
>  <i_epik_Tot_Q>  (1) 
0

>  <i_epik_Tot_abs_Q>  (1) 
0

>  <i_i_glide_confnum>  (1) 
2

>  <i_i_glide_lignum>  (1) 
17

>  <i_i_glide_posenum>  (1) 
25

>  <i_i_glide_rotatable_bonds>  (1) 
0

>  <i_lp_mmshare_version>  (1) 
72125

>  <i_m_source_file_index>  (1) 
17

>  <i_f3d_flags>  (1) 
0

>  <num_sample>  (1) 
50

>  <b_lp_Chiralities_Consistent>  (1) 
1

>  <r_epik_Charging_Adjusted_Penalty>  (1) 
0

>  <r_epik_Ionization_Penalty>  (1) 
0

>  <r_epik_Ionization_Penalty_Charging>  (1) 
0

>  <r_epik_Ionization_Penalty_Neutral>  (1) 
0

>  <r_epik_State_Penalty>  (1) 
-0

>  <r_glide_ring_energy>  (1) 
0.00054248204421707515

>  <r_i_docking_score>  (1) 
-3.3013345093391031

>  <r_i_glide_ecoul>  (1) 
0.078994870692862762

>  <r_i_glide_eff_state_penalty>  (1) 
-0

>  <r_i_glide_einternal>  (1) 
0

>  <r_i_glide_emodel>  (1) 
-15.225950677242572

>  <r_i_glide_emodel_strain>  (1) 
0

>  <r_i_glide_energy>  (1) 
-12.632440454971048

>  <r_i_glide_erotb>  (1) 
0

>  <r_i_glide_esite>  (1) 
0

>  <r_i_glide_evdw>  (1) 
-12.711435325663912

>  <r_i_glide_gscore>  (1) 
-3.3013345093391031

>  <r_i_glide_gscore_strain>  (1) 
0

>  <r_i_glide_hbond>  (1) 
0

>  <r_i_glide_ligand_efficiency>  (1) 
-0.55022241822318385

>  <r_i_glide_ligand_efficiency_ln>  (1) 
-1.1825282749920967

>  <r_i_glide_ligand_efficiency_sa>  (1) 
-0.99982048679124547

>  <r_i_glide_lipo>  (1) 
-0.13267726656443829

>  <r_i_glide_metal>  (1) 
-0

>  <r_i_glide_rewards>  (1) 
-2.5449347070953987

>  <r_lp_Energy>  (1) 
5.7175969999999996

>  <r_lp_tautomer_probability>  (1) 
1

>  <s_epik_cmdline>  (1) 
J2VwaWtfcHl0aG9uJywgJy1waHQnLCAnMS4wJywgJy1waCcsICc3LjQnLCAnLXRuJywgJzgnLCAnLW1hJywgJzUwMCcsICctaW1hZScsICc8aW5maWxlLm1hZT4nLCAnLW9tYWUnLCAnPG91dGZpbGUubWFlPic=

>  <s_epik_input>  (1) 
W0NIMl0xW0NIMl1bQ0gyXVtDSDJdW0NIMl1bQ0gyXTE=

>  <s_glide_docking_method>  (1) 
confgen

>  <s_i_glide_gridfile>  (1) 
gpcr_5ht2c_6bqh_protein_autoprepared_prepared

>  <s_lp_Force_Field>  (1) 
S-OPLS

>  <s_lp_Variant>  (1) 
Pocket2Mol_16_num_sample_50-1

>  <s_m_source_file>  (1) 
generated__ligand_Pocket2Mol_2026-05-06_prepared.sdf

>  <GenAI_Model>  (1) 
Pocket2Mol

>  <Protein>  (1) 
GPCR_5HT2C

$$$$
Pocket2Mol_0_num_sample_50
     RDKit          3D

  0  0  0  0  0  0  0  0  0  0999 V3000
M  V30 BEGIN CTAB
M  V30 COUNTS 15 14 0 0 1
M  V30 BEGIN ATOM
M  V30 1 C 38.640075 28.477951 51.914683 0
M  V30 2 C 40.016666 29.158118 51.813819 0
M  V30 3 C 38.588890 27.414457 53.017337 0
M  V30 4 C 40.132774 30.211730 50.705953 0
M  V30 5 O 39.867586 29.621429 49.453841 0
M  V30 6 H 37.867402 29.220753 52.103790 0
M  V30 7 H 38.388984 28.006059 50.964566 0
M  V30 8 H 40.782777 28.404563 51.642130 0
M  V30 9 H 40.256226 29.626634 52.768092 0
M  V30 10 H 37.603946 26.947270 53.055424 0
M  V30 11 H 39.322739 26.627846 52.838919 0
M  V30 12 H 38.792543 27.846888 53.997780 0
M  V30 13 H 41.146245 30.614566 50.687984 0
M  V30 14 H 39.467476 31.056256 50.873434 0
M  V30 15 H 38.926636 29.621426 49.293155 0
M  V30 END ATOM
M  V30 BEGIN BOND
M  V30 1 1 2 1
M  V30 2 1 3 1
M  V30 3 1 4 2
M  V30 4 1 5 4
M  V30 5 1 6 1
M  V30 6 1 7 1
M  V30 7 1 8 2
M  V30 8 1 9 2
M  V30 9 1 10 3
M  V30 10 1 11 3
M  V30 11 1 12 3
M  V30 12 1 13 4
M  V30 13 1 14 4
M  V30 14 1 15 5
M  V30 END BOND
M  V30 END CTAB
M  END
>  <i_epik_Tot_Q>  (1) 
0

>  <i_epik_Tot_abs_Q>  (1) 
0

>  <i_i_glide_confnum>  (1) 
2

>  <i_i_glide_lignum>  (1) 
1

>  <i_i_glide_posenum>  (1) 
91

>  <i_i_glide_rotatable_bonds>  (1) 
3

>  <i_lp_mmshare_version>  (1) 
72125

>  <i_m_source_file_index>  (1) 
1

>  <i_f3d_flags>  (1) 
0

>  <num_sample>  (1) 
50

>  <b_lp_Chiralities_Consistent>  (1) 
1

>  <r_epik_Charging_Adjusted_Penalty>  (1) 
0

>  <r_epik_Ionization_Penalty>  (1) 
2.9396235358890345e-07

>  <r_epik_Ionization_Penalty_Charging>  (1) 
0

>  <r_epik_Ionization_Penalty_Neutral>  (1) 
2.9396235358890345e-07

>  <r_epik_State_Penalty>  (1) 
-0

>  <r_glide_ring_energy>  (1) 
0

>  <r_i_docking_score>  (1) 
-3.140124946810722

>  <r_i_glide_ecoul>  (1) 
-4.0411599425090001

>  <r_i_glide_eff_state_penalty>  (1) 
-0

>  <r_i_glide_einternal>  (1) 
2.085405105127859

>  <r_i_glide_emodel>  (1) 
-15.180599240372025

>  <r_i_glide_emodel_strain>  (1) 
0.074698690045983174

>  <r_i_glide_energy>  (1) 
-13.71831124759402

>  <r_i_glide_erotb>  (1) 
1.8982399431532129

>  <r_i_glide_esite>  (1) 
0

>  <r_i_glide_evdw>  (1) 
-9.6771513050850189

>  <r_i_glide_gscore>  (1) 
-3.140124946810722

>  <r_i_glide_gscore_strain>  (1) 
0

>  <r_i_glide_hbond>  (1) 
-0.32000000000000001

>  <r_i_glide_ligand_efficiency>  (1) 
-0.62802498936214435

>  <r_i_glide_ligand_efficiency_ln>  (1) 
-1.2033721637322243

>  <r_i_glide_ligand_efficiency_sa>  (1) 
-1.0739076257211555

>  <r_i_glide_lipo>  (1) 
-1.3200000000000001

>  <r_i_glide_metal>  (1) 
-0

>  <r_i_glide_rewards>  (1) 
-2.3083333333333331

>  <r_lp_Energy>  (1) 
2.038589

>  <r_lp_tautomer_probability>  (1) 
1

>  <s_epik_cmdline>  (1) 
J2VwaWtfcHl0aG9uJywgJy1waHQnLCAnMS4wJywgJy1waCcsICc3LjQnLCAnLXRuJywgJzgnLCAnLW1hJywgJzUwMCcsICctaW1hZScsICc8aW5maWxlLm1hZT4nLCAnLW9tYWUnLCAnPG91dGZpbGUubWFlPic=

>  <s_epik_input>  (1) 
W0NIM11bQ0gyXVtDSDJdW0NIMl1bT0hd

>  <s_glide_docking_method>  (1) 
confgen

>  <s_i_glide_gridfile>  (1) 
gpcr_5ht2c_6bqh_protein_autoprepared_prepared

>  <s_lp_Force_Field>  (1) 
S-OPLS

>  <s_lp_Variant>  (1) 
Pocket2Mol_0_num_sample_50-1

>  <s_m_source_file>  (1) 
generated__ligand_Pocket2Mol_2026-05-06_prepared.sdf

>  <GenAI_Model>  (1) 
Pocket2Mol

>  <Protein>  (1) 
GPCR_5HT2C

$$$$
Pocket2Mol_0_num_sample_50
     RDKit          3D

  0  0  0  0  0  0  0  0  0  0999 V3000
M  V30 BEGIN CTAB
M  V30 COUNTS 15 14 0 0 1
M  V30 BEGIN ATOM
M  V30 1 C 39.832158 29.563038 50.409531 0
M  V30 2 C 40.263836 28.663518 51.569325 0
M  V30 3 C 40.690253 30.821429 50.294480 0
M  V30 4 C 39.433186 27.374492 51.662723 0
M  V30 5 O 38.122377 27.688770 52.079503 0
M  V30 6 H 39.857562 29.013939 49.467896 0
M  V30 7 H 38.798486 29.856107 50.578339 0
M  V30 8 H 40.183031 29.221431 52.503127 0
M  V30 9 H 41.318865 28.421430 51.453502 0
M  V30 10 H 40.318593 31.474047 49.504275 0
M  V30 11 H 40.667404 31.383449 51.228206 0
M  V30 12 H 41.729401 30.579073 50.070771 0
M  V30 13 H 39.867404 26.685108 52.386884 0
M  V30 14 H 39.404285 26.859704 50.701211 0
M  V30 15 H 37.543123 26.970889 51.853492 0
M  V30 END ATOM
M  V30 BEGIN BOND
M  V30 1 1 2 1
M  V30 2 1 3 1
M  V30 3 1 4 2
M  V30 4 1 5 4
M  V30 5 1 6 1
M  V30 6 1 7 1
M  V30 7 1 8 2
M  V30 8 1 9 2
M  V30 9 1 10 3
M  V30 10 1 11 3
M  V30 11 1 12 3
M  V30 12 1 13 4
M  V30 13 1 14 4
M  V30 14 1 15 5
M  V30 END BOND
M  V30 END CTAB
M  END
>  <i_epik_Tot_Q>  (1) 
0

>  <i_epik_Tot_abs_Q>  (1) 
0

>  <i_i_glide_confnum>  (1) 
2

>  <i_i_glide_lignum>  (1) 
1

>  <i_i_glide_posenum>  (1) 
118

>  <i_i_glide_rotatable_bonds>  (1) 
3

>  <i_lp_mmshare_version>  (1) 
72125

>  <i_m_source_file_index>  (1) 
1

>  <i_f3d_flags>  (1) 
0

>  <num_sample>  (1) 
50

>  <b_lp_Chiralities_Consistent>  (1) 
1

>  <r_epik_Charging_Adjusted_Penalty>  (1) 
0

>  <r_epik_Ionization_Penalty>  (1) 
2.9396235358890345e-07

>  <r_epik_Ionization_Penalty_Charging>  (1) 
0

>  <r_epik_Ionization_Penalty_Neutral>  (1) 
2.9396235358890345e-07

>  <r_epik_State_Penalty>  (1) 
-0

>  <r_glide_ring_energy>  (1) 
0

>  <r_i_docking_score>  (1) 
-3.0956768777254378

>  <r_i_glide_ecoul>  (1) 
-2.4886326094930937

>  <r_i_glide_eff_state_penalty>  (1) 
-0

>  <r_i_glide_einternal>  (1) 
1.7958972966706237

>  <r_i_glide_emodel>  (1) 
-15.913217001207475

>  <r_i_glide_emodel_strain>  (1) 
0.01835545298811847

>  <r_i_glide_energy>  (1) 
-14.28634704004066

>  <r_i_glide_erotb>  (1) 
1.8982399431532129

>  <r_i_glide_esite>  (1) 
0

>  <r_i_glide_evdw>  (1) 
-11.797714430547567

>  <r_i_glide_gscore>  (1) 
-3.0956768777254378

>  <r_i_glide_gscore_strain>  (1) 
0

>  <r_i_glide_hbond>  (1) 
-0.31364755154402929

>  <r_i_glide_ligand_efficiency>  (1) 
-0.61913537554508757

>  <r_i_glide_ligand_efficiency_ln>  (1) 
-1.1863385838668108

>  <r_i_glide_ligand_efficiency_sa>  (1) 
-1.0587065999187435

>  <r_i_glide_lipo>  (1) 
-1.2201826462306704

>  <r_i_glide_metal>  (1) 
-0

>  <r_i_glide_rewards>  (1) 
-2.4969060101526082

>  <r_lp_Energy>  (1) 
2.038589

>  <r_lp_tautomer_probability>  (1) 
1

>  <s_epik_cmdline>  (1) 
J2VwaWtfcHl0aG9uJywgJy1waHQnLCAnMS4wJywgJy1waCcsICc3LjQnLCAnLXRuJywgJzgnLCAnLW1hJywgJzUwMCcsICctaW1hZScsICc8aW5maWxlLm1hZT4nLCAnLW9tYWUnLCAnPG91dGZpbGUubWFlPic=

>  <s_epik_input>  (1) 
W0NIM11bQ0gyXVtDSDJdW0NIMl1bT0hd

>  <s_glide_docking_method>  (1) 
confgen

>  <s_i_glide_gridfile>  (1) 
gpcr_5ht2c_6bqh_protein_autoprepared_prepared

>  <s_lp_Force_Field>  (1) 
S-OPLS

>  <s_lp_Variant>  (1) 
Pocket2Mol_0_num_sample_50-1

>  <s_m_source_file>  (1) 
generated__ligand_Pocket2Mol_2026-05-06_prepared.sdf

>  <GenAI_Model>  (1) 
Pocket2Mol

>  <Protein>  (1) 
GPCR_5HT2C

$$$$
Pocket2Mol_0_num_sample_50
     RDKit          3D

  0  0  0  0  0  0  0  0  0  0999 V3000
M  V30 BEGIN CTAB
M  V30 COUNTS 15 14 0 0 1
M  V30 BEGIN ATOM
M  V30 1 C 40.129368 29.635627 51.113884 0
M  V30 2 C 39.525925 28.262756 50.795263 0
M  V30 3 C 40.399209 30.458741 49.853501 0
M  V30 4 C 39.125242 27.478287 52.046852 0
M  V30 5 O 37.867394 27.904066 52.518414 0
M  V30 6 H 39.467405 30.194202 51.775834 0
M  V30 7 H 41.064272 29.496047 51.654975 0
M  V30 8 H 40.267403 27.678183 50.253500 0
M  V30 9 H 38.669381 28.367556 50.129380 0
M  V30 10 H 40.888484 31.397282 50.104346 0
M  V30 11 H 41.047532 29.923026 49.160311 0
M  V30 12 H 39.468889 30.698839 49.338680 0
M  V30 13 H 39.867402 27.582170 52.835861 0
M  V30 14 H 39.067403 26.421429 51.806665 0
M  V30 15 H 37.200432 27.494620 51.981712 0
M  V30 END ATOM
M  V30 BEGIN BOND
M  V30 1 1 2 1
M  V30 2 1 3 1
M  V30 3 1 4 2
M  V30 4 1 5 4
M  V30 5 1 6 1
M  V30 6 1 7 1
M  V30 7 1 8 2
M  V30 8 1 9 2
M  V30 9 1 10 3
M  V30 10 1 11 3
M  V30 11 1 12 3
M  V30 12 1 13 4
M  V30 13 1 14 4
M  V30 14 1 15 5
M  V30 END BOND
M  V30 END CTAB
M  END
>  <i_epik_Tot_Q>  (1) 
0

>  <i_epik_Tot_abs_Q>  (1) 
0

>  <i_i_glide_confnum>  (1) 
3

>  <i_i_glide_lignum>  (1) 
1

>  <i_i_glide_posenum>  (1) 
331

>  <i_i_glide_rotatable_bonds>  (1) 
3

>  <i_lp_mmshare_version>  (1) 
72125

>  <i_m_source_file_index>  (1) 
1

>  <i_f3d_flags>  (1) 
0

>  <num_sample>  (1) 
50

>  <b_lp_Chiralities_Consistent>  (1) 
1

>  <r_epik_Charging_Adjusted_Penalty>  (1) 
0

>  <r_epik_Ionization_Penalty>  (1) 
2.9396235358890345e-07

>  <r_epik_Ionization_Penalty_Charging>  (1) 
0

>  <r_epik_Ionization_Penalty_Neutral>  (1) 
2.9396235358890345e-07

>  <r_epik_State_Penalty>  (1) 
-0

>  <r_glide_ring_energy>  (1) 
0

>  <r_i_docking_score>  (1) 
-3.0484520369438943

>  <r_i_glide_ecoul>  (1) 
-1.9048188692951404

>  <r_i_glide_eff_state_penalty>  (1) 
-0

>  <r_i_glide_einternal>  (1) 
2.1274927721720074

>  <r_i_glide_emodel>  (1) 
-15.709952837020573

>  <r_i_glide_emodel_strain>  (1) 
0.020760163963101208

>  <r_i_glide_energy>  (1) 
-14.290081683154526

>  <r_i_glide_erotb>  (1) 
1.8982399431532129

>  <r_i_glide_esite>  (1) 
0

>  <r_i_glide_evdw>  (1) 
-12.385262813859386

>  <r_i_glide_gscore>  (1) 
-3.0484520369438943

>  <r_i_glide_gscore_strain>  (1) 
0

>  <r_i_glide_hbond>  (1) 
-0.2834347487378186

>  <r_i_glide_ligand_efficiency>  (1) 
-0.60969040738877889

>  <r_i_glide_ligand_efficiency_ln>  (1) 
-1.1682408776303395

>  <r_i_glide_ligand_efficiency_sa>  (1) 
-1.0425559315543282

>  <r_i_glide_lipo>  (1) 
-1.3200000000000001

>  <r_i_glide_metal>  (1) 
-0

>  <r_i_glide_rewards>  (1) 
-2.4382712602720478

>  <r_lp_Energy>  (1) 
2.038589

>  <r_lp_tautomer_probability>  (1) 
1

>  <s_epik_cmdline>  (1) 
J2VwaWtfcHl0aG9uJywgJy1waHQnLCAnMS4wJywgJy1waCcsICc3LjQnLCAnLXRuJywgJzgnLCAnLW1hJywgJzUwMCcsICctaW1hZScsICc8aW5maWxlLm1hZT4nLCAnLW9tYWUnLCAnPG91dGZpbGUubWFlPic=

>  <s_epik_input>  (1) 
W0NIM11bQ0gyXVtDSDJdW0NIMl1bT0hd

>  <s_glide_docking_method>  (1) 
confgen

>  <s_i_glide_gridfile>  (1) 
gpcr_5ht2c_6bqh_protein_autoprepared_prepared

>  <s_lp_Force_Field>  (1) 
S-OPLS

>  <s_lp_Variant>  (1) 
Pocket2Mol_0_num_sample_50-1

>  <s_m_source_file>  (1) 
generated__ligand_Pocket2Mol_2026-05-06_prepared.sdf

>  <GenAI_Model>  (1) 
Pocket2Mol

>  <Protein>  (1) 
GPCR_5HT2C

$$$$
Pocket2Mol_23_num_sample_50
     RDKit          3D

  0  0  0  0  0  0  0  0  0  0999 V3000
M  V30 BEGIN CTAB
M  V30 COUNTS 16 15 0 0 1
M  V30 BEGIN ATOM
M  V30 1 C 39.123864 27.338306 51.368998 0
M  V30 2 O 39.259777 27.221430 52.778864 0
M  V30 3 C 38.107094 27.614418 53.508116 0
M  V30 4 C 39.317081 28.780649 50.882214 0
M  V30 5 O 40.667423 29.167858 51.053502 0
M  V30 6 C 40.939463 30.453561 50.523566 0
M  V30 7 H 39.867403 26.702556 50.891576 0
M  V30 8 H 38.154289 26.955038 51.053550 0
M  V30 9 H 38.281785 27.455833 54.572153 0
M  V30 10 H 37.237204 27.021593 53.222523 0
M  V30 11 H 37.873865 28.669637 53.366817 0
M  V30 12 H 39.067450 28.821400 49.823004 0
M  V30 13 H 38.660292 29.474777 51.400646 0
M  V30 14 H 41.995106 30.690734 50.653494 0
M  V30 15 H 40.720594 30.496445 49.456278 0
M  V30 16 H 40.356100 31.221431 51.033010 0
M  V30 END ATOM
M  V30 BEGIN BOND
M  V30 1 1 2 1
M  V30 2 1 3 2
M  V30 3 1 4 1
M  V30 4 1 5 4
M  V30 5 1 6 5
M  V30 6 1 7 1
M  V30 7 1 8 1
M  V30 8 1 9 3
M  V30 9 1 10 3
M  V30 10 1 11 3
M  V30 11 1 12 4
M  V30 12 1 13 4
M  V30 13 1 14 6
M  V30 14 1 15 6
M  V30 15 1 16 6
M  V30 END BOND
M  V30 END CTAB
M  END
>  <i_epik_Tot_Q>  (1) 
0

>  <i_epik_Tot_abs_Q>  (1) 
0

>  <i_i_glide_confnum>  (1) 
3

>  <i_i_glide_lignum>  (1) 
24

>  <i_i_glide_posenum>  (1) 
213

>  <i_i_glide_rotatable_bonds>  (1) 
3

>  <i_lp_mmshare_version>  (1) 
72125

>  <i_m_source_file_index>  (1) 
24

>  <i_f3d_flags>  (1) 
0

>  <num_sample>  (1) 
50

>  <b_lp_Chiralities_Consistent>  (1) 
1

>  <r_epik_Charging_Adjusted_Penalty>  (1) 
0

>  <r_epik_Ionization_Penalty>  (1) 
3.8345288393749547e-12

>  <r_epik_Ionization_Penalty_Charging>  (1) 
0

>  <r_epik_Ionization_Penalty_Neutral>  (1) 
3.8345288393749547e-12

>  <r_epik_State_Penalty>  (1) 
-0

>  <r_glide_ring_energy>  (1) 
0

>  <r_i_docking_score>  (1) 
-3.0337878208429738

>  <r_i_glide_ecoul>  (1) 
-1.1846611939005445

>  <r_i_glide_eff_state_penalty>  (1) 
-0

>  <r_i_glide_einternal>  (1) 
1.0919757442049745

>  <r_i_glide_emodel>  (1) 
-17.689390143493938

>  <r_i_glide_emodel_strain>  (1) 
0

>  <r_i_glide_energy>  (1) 
-15.50373665016275

>  <r_i_glide_erotb>  (1) 
1.4298651310552182

>  <r_i_glide_esite>  (1) 
0

>  <r_i_glide_evdw>  (1) 
-14.319075456262206

>  <r_i_glide_gscore>  (1) 
-3.0337878208429738

>  <r_i_glide_gscore_strain>  (1) 
0

>  <r_i_glide_hbond>  (1) 
0

>  <r_i_glide_ligand_efficiency>  (1) 
-0.50563130347382901

>  <r_i_glide_ligand_efficiency_ln>  (1) 
-1.086693841028447

>  <r_i_glide_ligand_efficiency_sa>  (1) 
-0.91879305392285171

>  <r_i_glide_lipo>  (1) 
-1.3200000000000001

>  <r_i_glide_metal>  (1) 
-0

>  <r_i_glide_rewards>  (1) 
-2.25

>  <r_lp_Energy>  (1) 
5.9407059999999996

>  <r_lp_tautomer_probability>  (1) 
1

>  <s_epik_cmdline>  (1) 
J2VwaWtfcHl0aG9uJywgJy1waHQnLCAnMS4wJywgJy1waCcsICc3LjQnLCAnLXRuJywgJzgnLCAnLW1hJywgJzUwMCcsICctaW1hZScsICc8aW5maWxlLm1hZT4nLCAnLW9tYWUnLCAnPG91dGZpbGUubWFlPic=

>  <s_epik_input>  (1) 
W0NIM11PW0NIMl1bQ0gyXU9bQ0gzXQ==

>  <s_glide_docking_method>  (1) 
confgen

>  <s_i_glide_gridfile>  (1) 
gpcr_5ht2c_6bqh_protein_autoprepared_prepared

>  <s_lp_Force_Field>  (1) 
S-OPLS

>  <s_lp_Variant>  (1) 
Pocket2Mol_23_num_sample_50-1

>  <s_m_source_file>  (1) 
generated__ligand_Pocket2Mol_2026-05-06_prepared.sdf

>  <GenAI_Model>  (1) 
Pocket2Mol

>  <Protein>  (1) 
GPCR_5HT2C

$$$$
Pocket2Mol_23_num_sample_50
     RDKit          3D

  0  0  0  0  0  0  0  0  0  0999 V3000
M  V30 BEGIN CTAB
M  V30 COUNTS 16 15 0 0 1
M  V30 BEGIN ATOM
M  V30 1 C 38.990307 27.694441 51.581694 0
M  V30 2 O 38.376634 28.231192 52.741850 0
M  V30 3 C 37.881509 27.224957 53.607800 0
M  V30 4 C 39.428754 28.843382 50.668603 0
M  V30 5 O 40.667402 29.374937 51.103555 0
M  V30 6 C 41.125470 30.421430 50.264500 0
M  V30 7 H 39.837827 27.058902 51.840896 0
M  V30 8 H 38.267397 27.072231 51.053483 0
M  V30 9 H 37.431503 27.687116 54.486355 0
M  V30 10 H 38.682508 26.566026 53.945582 0
M  V30 11 H 37.116640 26.622209 53.116894 0
M  V30 12 H 39.538719 28.473688 49.650864 0
M  V30 13 H 38.667409 29.621427 50.653503 0
M  V30 14 H 42.061143 30.821434 50.653499 0
M  V30 15 H 41.312624 30.057950 49.253458 0
M  V30 16 H 40.401972 31.235550 50.216525 0
M  V30 END ATOM
M  V30 BEGIN BOND
M  V30 1 1 2 1
M  V30 2 1 3 2
M  V30 3 1 4 1
M  V30 4 1 5 4
M  V30 5 1 6 5
M  V30 6 1 7 1
M  V30 7 1 8 1
M  V30 8 1 9 3
M  V30 9 1 10 3
M  V30 10 1 11 3
M  V30 11 1 12 4
M  V30 12 1 13 4
M  V30 13 1 14 6
M  V30 14 1 15 6
M  V30 15 1 16 6
M  V30 END BOND
M  V30 END CTAB
M  END
>  <i_epik_Tot_Q>  (1) 
0

>  <i_epik_Tot_abs_Q>  (1) 
0

>  <i_i_glide_confnum>  (1) 
2

>  <i_i_glide_lignum>  (1) 
24

>  <i_i_glide_posenum>  (1) 
168

>  <i_i_glide_rotatable_bonds>  (1) 
3

>  <i_lp_mmshare_version>  (1) 
72125

>  <i_m_source_file_index>  (1) 
24

>  <i_f3d_flags>  (1) 
0

>  <num_sample>  (1) 
50

>  <b_lp_Chiralities_Consistent>  (1) 
1

>  <r_epik_Charging_Adjusted_Penalty>  (1) 
0

>  <r_epik_Ionization_Penalty>  (1) 
3.8345288393749547e-12

>  <r_epik_Ionization_Penalty_Charging>  (1) 
0

>  <r_epik_Ionization_Penalty_Neutral>  (1) 
3.8345288393749547e-12

>  <r_epik_State_Penalty>  (1) 
-0

>  <r_glide_ring_energy>  (1) 
0

>  <r_i_docking_score>  (1) 
-3.0162859081804325

>  <r_i_glide_ecoul>  (1) 
-1.0352342161887851

>  <r_i_glide_eff_state_penalty>  (1) 
-0

>  <r_i_glide_einternal>  (1) 
0.15809175704723055

>  <r_i_glide_emodel>  (1) 
-18.176954295389891

>  <r_i_glide_emodel_strain>  (1) 
0

>  <r_i_glide_energy>  (1) 
-15.54011763916494

>  <r_i_glide_erotb>  (1) 
1.4298651310552182

>  <r_i_glide_esite>  (1) 
0

>  <r_i_glide_evdw>  (1) 
-14.504883422976155

>  <r_i_glide_gscore>  (1) 
-3.0162859081804325

>  <r_i_glide_gscore_strain>  (1) 
0

>  <r_i_glide_hbond>  (1) 
0

>  <r_i_glide_ligand_efficiency>  (1) 
-0.50271431803007205

>  <r_i_glide_ligand_efficiency_ln>  (1) 
-1.0804247075821547

>  <r_i_glide_ligand_efficiency_sa>  (1) 
-0.91349253960400945

>  <r_i_glide_lipo>  (1) 
-1.3156217356585249

>  <r_i_glide_metal>  (1) 
-0

>  <r_i_glide_rewards>  (1) 
-2.25

>  <r_lp_Energy>  (1) 
5.9407059999999996

>  <r_lp_tautomer_probability>  (1) 
1

>  <s_epik_cmdline>  (1) 
J2VwaWtfcHl0aG9uJywgJy1waHQnLCAnMS4wJywgJy1waCcsICc3LjQnLCAnLXRuJywgJzgnLCAnLW1hJywgJzUwMCcsICctaW1hZScsICc8aW5maWxlLm1hZT4nLCAnLW9tYWUnLCAnPG91dGZpbGUubWFlPic=

>  <s_epik_input>  (1) 
W0NIM11PW0NIMl1bQ0gyXU9bQ0gzXQ==

>  <s_glide_docking_method>  (1) 
confgen

>  <s_i_glide_gridfile>  (1) 
gpcr_5ht2c_6bqh_protein_autoprepared_prepared

>  <s_lp_Force_Field>  (1) 
S-OPLS

>  <s_lp_Variant>  (1) 
Pocket2Mol_23_num_sample_50-1

>  <s_m_source_file>  (1) 
generated__ligand_Pocket2Mol_2026-05-06_prepared.sdf

>  <GenAI_Model>  (1) 
Pocket2Mol

>  <Protein>  (1) 
GPCR_5HT2C

$$$$
Pocket2Mol_0_num_sample_50
     RDKit          3D

  0  0  0  0  0  0  0  0  0  0999 V3000
M  V30 BEGIN CTAB
M  V30 COUNTS 15 14 0 0 1
M  V30 BEGIN ATOM
M  V30 1 C 39.084743 28.858648 51.823119 0
M  V30 2 C 40.168015 29.047366 50.751135 0
M  V30 3 C 38.888263 27.386604 52.189641 0
M  V30 4 C 40.539008 30.507570 50.434712 0
M  V30 5 O 39.467407 31.221430 49.853505 0
M  V30 6 H 39.331555 29.433905 52.716522 0
M  V30 7 H 38.129817 29.221429 51.453531 0
M  V30 8 H 39.865268 28.533623 49.840250 0
M  V30 9 H 41.067404 28.540464 51.095621 0
M  V30 10 H 38.098987 27.269007 52.932527 0
M  V30 11 H 38.597001 26.821430 51.305581 0
M  V30 12 H 39.799130 26.944870 52.593702 0
M  V30 13 H 41.375423 30.525088 49.735069 0
M  V30 14 H 40.867986 31.030753 51.333319 0
M  V30 15 H 38.938011 30.634407 49.323607 0
M  V30 END ATOM
M  V30 BEGIN BOND
M  V30 1 1 2 1
M  V30 2 1 3 1
M  V30 3 1 4 2
M  V30 4 1 5 4
M  V30 5 1 6 1
M  V30 6 1 7 1
M  V30 7 1 8 2
M  V30 8 1 9 2
M  V30 9 1 10 3
M  V30 10 1 11 3
M  V30 11 1 12 3
M  V30 12 1 13 4
M  V30 13 1 14 4
M  V30 14 1 15 5
M  V30 END BOND
M  V30 END CTAB
M  END
>  <i_epik_Tot_Q>  (1) 
0

>  <i_epik_Tot_abs_Q>  (1) 
0

>  <i_i_glide_confnum>  (1) 
2

>  <i_i_glide_lignum>  (1) 
1

>  <i_i_glide_posenum>  (1) 
375

>  <i_i_glide_rotatable_bonds>  (1) 
3

>  <i_lp_mmshare_version>  (1) 
72125

>  <i_m_source_file_index>  (1) 
1

>  <i_f3d_flags>  (1) 
0

>  <num_sample>  (1) 
50

>  <b_lp_Chiralities_Consistent>  (1) 
1

>  <r_epik_Charging_Adjusted_Penalty>  (1) 
0

>  <r_epik_Ionization_Penalty>  (1) 
2.9396235358890345e-07

>  <r_epik_Ionization_Penalty_Charging>  (1) 
0

>  <r_epik_Ionization_Penalty_Neutral>  (1) 
2.9396235358890345e-07

>  <r_epik_State_Penalty>  (1) 
-0

>  <r_glide_ring_energy>  (1) 
0

>  <r_i_docking_score>  (1) 
-2.9299594994117655

>  <r_i_glide_ecoul>  (1) 
-2.4916524653900805

>  <r_i_glide_eff_state_penalty>  (1) 
-0

>  <r_i_glide_einternal>  (1) 
1.851770168287564

>  <r_i_glide_emodel>  (1) 
-15.130645278103271

>  <r_i_glide_emodel_strain>  (1) 
0.1311867524233552

>  <r_i_glide_energy>  (1) 
-13.780683920519392

>  <r_i_glide_erotb>  (1) 
1.8982399431532129

>  <r_i_glide_esite>  (1) 
0

>  <r_i_glide_evdw>  (1) 
-11.289031455129312

>  <r_i_glide_gscore>  (1) 
-2.9299594994117655

>  <r_i_glide_gscore_strain>  (1) 
0

>  <r_i_glide_hbond>  (1) 
-0.32000000000000001

>  <r_i_glide_ligand_efficiency>  (1) 
-0.58599189988235312

>  <r_i_glide_ligand_efficiency_ln>  (1) 
-1.1228316586688512

>  <r_i_glide_ligand_efficiency_sa>  (1) 
-1.0020320537462031

>  <r_i_glide_lipo>  (1) 
-1.3200000000000001

>  <r_i_glide_metal>  (1) 
-0

>  <r_i_glide_rewards>  (1) 
-2.25

>  <r_lp_Energy>  (1) 
2.038589

>  <r_lp_tautomer_probability>  (1) 
1

>  <s_epik_cmdline>  (1) 
J2VwaWtfcHl0aG9uJywgJy1waHQnLCAnMS4wJywgJy1waCcsICc3LjQnLCAnLXRuJywgJzgnLCAnLW1hJywgJzUwMCcsICctaW1hZScsICc8aW5maWxlLm1hZT4nLCAnLW9tYWUnLCAnPG91dGZpbGUubWFlPic=

>  <s_epik_input>  (1) 
W0NIM11bQ0gyXVtDSDJdW0NIMl1bT0hd

>  <s_glide_docking_method>  (1) 
confgen

>  <s_i_glide_gridfile>  (1) 
gpcr_5ht2c_6bqh_protein_autoprepared_prepared

>  <s_lp_Force_Field>  (1) 
S-OPLS

>  <s_lp_Variant>  (1) 
Pocket2Mol_0_num_sample_50-1

>  <s_m_source_file>  (1) 
generated__ligand_Pocket2Mol_2026-05-06_prepared.sdf

>  <GenAI_Model>  (1) 
Pocket2Mol

>  <Protein>  (1) 
GPCR_5HT2C

$$$$
Pocket2Mol_20_num_sample_50
     RDKit          3D

  0  0  0  0  0  0  0  0  0  0999 V3000
M  V30 BEGIN CTAB
M  V30 COUNTS 10 9 0 0 1
M  V30 BEGIN ATOM
M  V30 1 C 36.202914 31.391773 59.853502 0
M  V30 2 C 35.467399 32.626190 60.358542 0
M  V30 3 C 34.394202 33.221429 59.453509 0
M  V30 4 O 35.727028 33.120548 61.452966 0
M  V30 5 H 35.607661 30.867498 59.104816 0
M  V30 6 H 36.410462 30.705912 60.674053 0
M  V30 7 H 37.147135 31.682099 59.393293 0
M  V30 8 H 33.985071 32.461825 58.787864 0
M  V30 9 H 33.576005 33.621475 60.051240 0
M  V30 10 H 34.812396 34.024820 58.847042 0
M  V30 END ATOM
M  V30 BEGIN BOND
M  V30 1 1 2 1
M  V30 2 1 3 2
M  V30 3 2 4 2
M  V30 4 1 5 1
M  V30 5 1 6 1
M  V30 6 1 7 1
M  V30 7 1 8 3
M  V30 8 1 9 3
M  V30 9 1 10 3
M  V30 END BOND
M  V30 END CTAB
M  END
>  <i_epik_Tot_Q>  (1) 
0

>  <i_epik_Tot_abs_Q>  (1) 
0

>  <i_i_glide_confnum>  (1) 
1

>  <i_i_glide_lignum>  (1) 
21

>  <i_i_glide_posenum>  (1) 
2

>  <i_i_glide_rotatable_bonds>  (1) 
0

>  <i_lp_mmshare_version>  (1) 
72125

>  <i_m_source_file_index>  (1) 
21

>  <i_f3d_flags>  (1) 
0

>  <num_sample>  (1) 
50

>  <b_lp_Chiralities_Consistent>  (1) 
1

>  <r_epik_Charging_Adjusted_Penalty>  (1) 
0

>  <r_epik_Ionization_Penalty>  (1) 
8.9301752364709234e-13

>  <r_epik_Ionization_Penalty_Charging>  (1) 
0

>  <r_epik_Ionization_Penalty_Neutral>  (1) 
8.9301752364709234e-13

>  <r_epik_State_Penalty>  (1) 
-0

>  <r_glide_ring_energy>  (1) 
0

>  <r_i_docking_score>  (1) 
-2.920718122847731

>  <r_i_glide_ecoul>  (1) 
-1.1689354078277701

>  <r_i_glide_eff_state_penalty>  (1) 
-0

>  <r_i_glide_einternal>  (1) 
0

>  <r_i_glide_emodel>  (1) 
-12.864097314365821

>  <r_i_glide_emodel_strain>  (1) 
0.030241566320274971

>  <r_i_glide_energy>  (1) 
-10.539649415750933

>  <r_i_glide_erotb>  (1) 
0

>  <r_i_glide_esite>  (1) 
-0.0268421112774073

>  <r_i_glide_evdw>  (1) 
-9.3707140079231621

>  <r_i_glide_gscore>  (1) 
-2.920718122847731

>  <r_i_glide_gscore_strain>  (1) 
0

>  <r_i_glide_hbond>  (1) 
0

>  <r_i_glide_ligand_efficiency>  (1) 
-0.73017953071193276

>  <r_i_glide_ligand_efficiency_ln>  (1) 
-1.2239555062590999

>  <r_i_glide_ligand_efficiency_sa>  (1) 
-1.1590877551777683

>  <r_i_glide_lipo>  (1) 
0

>  <r_i_glide_metal>  (1) 
-0

>  <r_i_glide_rewards>  (1) 
-2.25

>  <r_lp_Energy>  (1) 
-0.55031200000000002

>  <r_lp_tautomer_probability>  (1) 
1

>  <s_epik_cmdline>  (1) 
J2VwaWtfcHl0aG9uJywgJy1waHQnLCAnMS4wJywgJy1waCcsICc3LjQnLCAnLXRuJywgJzgnLCAnLW1hJywgJzUwMCcsICctaW1hZScsICc8aW5maWxlLm1hZT4nLCAnLW9tYWUnLCAnPG91dGZpbGUubWFlPic=

>  <s_epik_input>  (1) 
W0NIM11DKD1PKVtDSDNd

>  <s_glide_docking_method>  (1) 
confgen

>  <s_i_glide_gridfile>  (1) 
gpcr_5ht2c_6bqh_protein_autoprepared_prepared

>  <s_lp_Force_Field>  (1) 
S-OPLS

>  <s_lp_Variant>  (1) 
Pocket2Mol_20_num_sample_50-1

>  <s_m_source_file>  (1) 
generated__ligand_Pocket2Mol_2026-05-06_prepared.sdf

>  <GenAI_Model>  (1) 
Pocket2Mol

>  <Protein>  (1) 
GPCR_5HT2C

$$$$
Pocket2Mol_23_num_sample_50
     RDKit          3D

  0  0  0  0  0  0  0  0  0  0999 V3000
M  V30 BEGIN CTAB
M  V30 COUNTS 16 15 0 0 1
M  V30 BEGIN ATOM
M  V30 1 C 39.021091 28.654697 51.753890 0
M  V30 2 O 38.929149 27.492118 52.559661 0
M  V30 3 C 37.795019 27.514552 53.410329 0
M  V30 4 C 40.263476 28.550173 50.861081 0
M  V30 5 O 40.267403 29.540443 49.843627 0
M  V30 6 C 40.675018 30.821430 50.288475 0
M  V30 7 H 38.132058 28.731048 51.128848 0
M  V30 8 H 39.067414 29.546250 52.380370 0
M  V30 9 H 37.737966 26.582062 53.971812 0
M  V30 10 H 36.871169 27.621442 52.840922 0
M  V30 11 H 37.856651 28.335766 54.125513 0
M  V30 12 H 41.178188 28.584189 51.453501 0
M  V30 13 H 40.251299 27.583924 50.356632 0
M  V30 14 H 40.630670 31.519590 49.453543 0
M  V30 15 H 40.028349 31.209211 51.075597 0
M  V30 16 H 41.702461 30.802406 50.653499 0
M  V30 END ATOM
M  V30 BEGIN BOND
M  V30 1 1 2 1
M  V30 2 1 3 2
M  V30 3 1 4 1
M  V30 4 1 5 4
M  V30 5 1 6 5
M  V30 6 1 7 1
M  V30 7 1 8 1
M  V30 8 1 9 3
M  V30 9 1 10 3
M  V30 10 1 11 3
M  V30 11 1 12 4
M  V30 12 1 13 4
M  V30 13 1 14 6
M  V30 14 1 15 6
M  V30 15 1 16 6
M  V30 END BOND
M  V30 END CTAB
M  END
>  <i_epik_Tot_Q>  (1) 
0

>  <i_epik_Tot_abs_Q>  (1) 
0

>  <i_i_glide_confnum>  (1) 
3

>  <i_i_glide_lignum>  (1) 
24

>  <i_i_glide_posenum>  (1) 
258

>  <i_i_glide_rotatable_bonds>  (1) 
3

>  <i_lp_mmshare_version>  (1) 
72125

>  <i_m_source_file_index>  (1) 
24

>  <i_f3d_flags>  (1) 
0

>  <num_sample>  (1) 
50

>  <b_lp_Chiralities_Consistent>  (1) 
1

>  <r_epik_Charging_Adjusted_Penalty>  (1) 
0

>  <r_epik_Ionization_Penalty>  (1) 
3.8345288393749547e-12

>  <r_epik_Ionization_Penalty_Charging>  (1) 
0

>  <r_epik_Ionization_Penalty_Neutral>  (1) 
3.8345288393749547e-12

>  <r_epik_State_Penalty>  (1) 
-0

>  <r_glide_ring_energy>  (1) 
0

>  <r_i_docking_score>  (1) 
-2.8846775966593845

>  <r_i_glide_ecoul>  (1) 
-0.087926523539081647

>  <r_i_glide_eff_state_penalty>  (1) 
-0

>  <r_i_glide_einternal>  (1) 
1.294386174020292

>  <r_i_glide_emodel>  (1) 
-16.665190015197759

>  <r_i_glide_emodel_strain>  (1) 
0

>  <r_i_glide_energy>  (1) 
-14.715001507213877

>  <r_i_glide_erotb>  (1) 
1.4298651310552182

>  <r_i_glide_esite>  (1) 
0

>  <r_i_glide_evdw>  (1) 
-14.627074983674795

>  <r_i_glide_gscore>  (1) 
-2.8846775966593845

>  <r_i_glide_gscore_strain>  (1) 
0

>  <r_i_glide_hbond>  (1) 
0

>  <r_i_glide_ligand_efficiency>  (1) 
-0.48077959944323073

>  <r_i_glide_ligand_efficiency_ln>  (1) 
-1.0332829989315027

>  <r_i_glide_ligand_efficiency_sa>  (1) 
-0.87363451076188225

>  <r_i_glide_lipo>  (1) 
-1.3200000000000001

>  <r_i_glide_metal>  (1) 
-0

>  <r_i_glide_rewards>  (1) 
-2.25

>  <r_lp_Energy>  (1) 
5.9407059999999996

>  <r_lp_tautomer_probability>  (1) 
1

>  <s_epik_cmdline>  (1) 
J2VwaWtfcHl0aG9uJywgJy1waHQnLCAnMS4wJywgJy1waCcsICc3LjQnLCAnLXRuJywgJzgnLCAnLW1hJywgJzUwMCcsICctaW1hZScsICc8aW5maWxlLm1hZT4nLCAnLW9tYWUnLCAnPG91dGZpbGUubWFlPic=

>  <s_epik_input>  (1) 
W0NIM11PW0NIMl1bQ0gyXU9bQ0gzXQ==

>  <s_glide_docking_method>  (1) 
confgen

>  <s_i_glide_gridfile>  (1) 
gpcr_5ht2c_6bqh_protein_autoprepared_prepared

>  <s_lp_Force_Field>  (1) 
S-OPLS

>  <s_lp_Variant>  (1) 
Pocket2Mol_23_num_sample_50-1

>  <s_m_source_file>  (1) 
generated__ligand_Pocket2Mol_2026-05-06_prepared.sdf

>  <GenAI_Model>  (1) 
Pocket2Mol

>  <Protein>  (1) 
GPCR_5HT2C

$$$$
Pocket2Mol_46_num_sample_50
     RDKit          3D

  0  0  0  0  0  0  0  0  0  0999 V3000
M  V30 BEGIN CTAB
M  V30 COUNTS 13 12 0 0 1
M  V30 BEGIN ATOM
M  V30 1 C 40.094548 28.821405 51.429288 0
M  V30 2 C 39.126970 27.636465 51.345979 0
M  V30 3 O 39.934316 29.629370 50.276777 0
M  V30 4 O 37.867418 28.021404 51.853514 0
M  V30 5 C 40.696973 30.820185 50.341022 0
M  V30 6 H 39.932973 29.392020 52.345875 0
M  V30 7 H 41.120235 28.454640 51.453478 0
M  V30 8 H 39.486632 26.809981 51.959813 0
M  V30 9 H 39.043820 27.267159 50.322870 0
M  V30 10 H 37.240533 27.338000 51.644659 0
M  V30 11 H 40.508630 31.423277 49.453502 0
M  V30 12 H 40.418907 31.413278 51.213622 0
M  V30 13 H 41.766247 30.605923 50.385827 0
M  V30 END ATOM
M  V30 BEGIN BOND
M  V30 1 1 2 1
M  V30 2 1 3 1
M  V30 3 1 4 2
M  V30 4 1 5 3
M  V30 5 1 6 1
M  V30 6 1 7 1
M  V30 7 1 8 2
M  V30 8 1 9 2
M  V30 9 1 10 4
M  V30 10 1 11 5
M  V30 11 1 12 5
M  V30 12 1 13 5
M  V30 END BOND
M  V30 END CTAB
M  END
>  <i_epik_Tot_Q>  (1) 
0

>  <i_epik_Tot_abs_Q>  (1) 
0

>  <i_i_glide_confnum>  (1) 
2

>  <i_i_glide_lignum>  (1) 
47

>  <i_i_glide_posenum>  (1) 
141

>  <i_i_glide_rotatable_bonds>  (1) 
3

>  <i_lp_mmshare_version>  (1) 
72125

>  <i_m_source_file_index>  (1) 
47

>  <i_f3d_flags>  (1) 
0

>  <num_sample>  (1) 
50

>  <b_lp_Chiralities_Consistent>  (1) 
1

>  <r_epik_Charging_Adjusted_Penalty>  (1) 
0

>  <r_epik_Ionization_Penalty>  (1) 
5.5888793446441707e-08

>  <r_epik_Ionization_Penalty_Charging>  (1) 
0

>  <r_epik_Ionization_Penalty_Neutral>  (1) 
5.5888793446441707e-08

>  <r_epik_State_Penalty>  (1) 
-0

>  <r_glide_ring_energy>  (1) 
0

>  <r_i_docking_score>  (1) 
-2.8341438786235971

>  <r_i_glide_ecoul>  (1) 
-3.1029039963427025

>  <r_i_glide_eff_state_penalty>  (1) 
-0

>  <r_i_glide_einternal>  (1) 
2.1639638040229352

>  <r_i_glide_emodel>  (1) 
-17.619306011454288

>  <r_i_glide_emodel_strain>  (1) 
0

>  <r_i_glide_energy>  (1) 
-15.843677788390911

>  <r_i_glide_erotb>  (1) 
1.8283304104302178

>  <r_i_glide_esite>  (1) 
0

>  <r_i_glide_evdw>  (1) 
-12.740773792048209

>  <r_i_glide_gscore>  (1) 
-2.8341438786235971

>  <r_i_glide_gscore_strain>  (1) 
0

>  <r_i_glide_hbond>  (1) 
-0.32000000000000001

>  <r_i_glide_ligand_efficiency>  (1) 
-0.56682877572471946

>  <r_i_glide_ligand_efficiency_ln>  (1) 
-1.086112785101635

>  <r_i_glide_ligand_efficiency_sa>  (1) 
-0.96926357237347027

>  <r_i_glide_lipo>  (1) 
-0.98999999999999999

>  <r_i_glide_metal>  (1) 
-0

>  <r_i_glide_rewards>  (1) 
-2.25

>  <r_lp_Energy>  (1) 
3.7496159999999996

>  <r_lp_tautomer_probability>  (1) 
1

>  <s_epik_cmdline>  (1) 
J2VwaWtfcHl0aG9uJywgJy1waHQnLCAnMS4wJywgJy1waCcsICc3LjQnLCAnLXRuJywgJzgnLCAnLW1hJywgJzUwMCcsICctaW1hZScsICc8aW5maWxlLm1hZT4nLCAnLW9tYWUnLCAnPG91dGZpbGUubWFlPic=

>  <s_epik_input>  (1) 
W0NIM11PW0NIMl1bQ0gyXVtPSF0=

>  <s_glide_docking_method>  (1) 
confgen

>  <s_i_glide_gridfile>  (1) 
gpcr_5ht2c_6bqh_protein_autoprepared_prepared

>  <s_lp_Force_Field>  (1) 
S-OPLS

>  <s_lp_Variant>  (1) 
Pocket2Mol_46_num_sample_50-1

>  <s_m_source_file>  (1) 
generated__ligand_Pocket2Mol_2026-05-06_prepared.sdf

>  <GenAI_Model>  (1) 
Pocket2Mol

>  <Protein>  (1) 
GPCR_5HT2C

$$$$
Pocket2Mol_23_num_sample_50
     RDKit          3D

  0  0  0  0  0  0  0  0  0  0999 V3000
M  V30 BEGIN CTAB
M  V30 COUNTS 16 15 0 0 1
M  V30 BEGIN ATOM
M  V30 1 C 39.328771 28.231780 51.152874 0
M  V30 2 O 39.467533 29.641144 51.168917 0
M  V30 3 C 40.495125 30.108134 50.315428 0
M  V30 4 C 38.207690 27.837746 52.124081 0
M  V30 5 O 38.632454 27.963261 53.474164 0
M  V30 6 C 39.268546 26.802855 53.985943 0
M  V30 7 H 39.067377 27.910276 50.144570 0
M  V30 8 H 40.267391 27.746941 51.414841 0
M  V30 9 H 40.515253 31.198025 50.325605 0
M  V30 10 H 40.334239 29.781501 49.287455 0
M  V30 11 H 41.467427 29.751544 50.653391 0
M  V30 12 H 37.344779 28.484393 51.965124 0
M  V30 13 H 37.867405 26.821834 51.926562 0
M  V30 14 H 39.626949 26.999797 54.996332 0
M  V30 15 H 38.564944 25.971863 54.039310 0
M  V30 16 H 40.121799 26.497434 53.379540 0
M  V30 END ATOM
M  V30 BEGIN BOND
M  V30 1 1 2 1
M  V30 2 1 3 2
M  V30 3 1 4 1
M  V30 4 1 5 4
M  V30 5 1 6 5
M  V30 6 1 7 1
M  V30 7 1 8 1
M  V30 8 1 9 3
M  V30 9 1 10 3
M  V30 10 1 11 3
M  V30 11 1 12 4
M  V30 12 1 13 4
M  V30 13 1 14 6
M  V30 14 1 15 6
M  V30 15 1 16 6
M  V30 END BOND
M  V30 END CTAB
M  END
>  <i_epik_Tot_Q>  (1) 
0

>  <i_epik_Tot_abs_Q>  (1) 
0

>  <i_i_glide_confnum>  (1) 
1

>  <i_i_glide_lignum>  (1) 
24

>  <i_i_glide_posenum>  (1) 
365

>  <i_i_glide_rotatable_bonds>  (1) 
3

>  <i_lp_mmshare_version>  (1) 
72125

>  <i_m_source_file_index>  (1) 
24

>  <i_f3d_flags>  (1) 
0

>  <num_sample>  (1) 
50

>  <b_lp_Chiralities_Consistent>  (1) 
1

>  <r_epik_Charging_Adjusted_Penalty>  (1) 
0

>  <r_epik_Ionization_Penalty>  (1) 
3.8345288393749547e-12

>  <r_epik_Ionization_Penalty_Charging>  (1) 
0

>  <r_epik_Ionization_Penalty_Neutral>  (1) 
3.8345288393749547e-12

>  <r_epik_State_Penalty>  (1) 
-0

>  <r_glide_ring_energy>  (1) 
0

>  <r_i_docking_score>  (1) 
-2.787494104874392

>  <r_i_glide_ecoul>  (1) 
-0.71217678659669836

>  <r_i_glide_eff_state_penalty>  (1) 
-0

>  <r_i_glide_einternal>  (1) 
1.1118861834435265

>  <r_i_glide_emodel>  (1) 
-16.33720551856408

>  <r_i_glide_emodel_strain>  (1) 
0

>  <r_i_glide_energy>  (1) 
-14.383271633898731

>  <r_i_glide_erotb>  (1) 
1.4298651310552182

>  <r_i_glide_esite>  (1) 
0

>  <r_i_glide_evdw>  (1) 
-13.671094847302033

>  <r_i_glide_gscore>  (1) 
-2.787494104874392

>  <r_i_glide_gscore_strain>  (1) 
0

>  <r_i_glide_hbond>  (1) 
0

>  <r_i_glide_ligand_efficiency>  (1) 
-0.46458235081239868

>  <r_i_glide_ligand_efficiency_ln>  (1) 
-0.99847215908079556

>  <r_i_glide_ligand_efficiency_sa>  (1) 
-0.84420215672757504

>  <r_i_glide_lipo>  (1) 
-1.1769779755750041

>  <r_i_glide_metal>  (1) 
-0

>  <r_i_glide_rewards>  (1) 
-2.25

>  <r_lp_Energy>  (1) 
5.9407059999999996

>  <r_lp_tautomer_probability>  (1) 
1

>  <s_epik_cmdline>  (1) 
J2VwaWtfcHl0aG9uJywgJy1waHQnLCAnMS4wJywgJy1waCcsICc3LjQnLCAnLXRuJywgJzgnLCAnLW1hJywgJzUwMCcsICctaW1hZScsICc8aW5maWxlLm1hZT4nLCAnLW9tYWUnLCAnPG91dGZpbGUubWFlPic=

>  <s_epik_input>  (1) 
W0NIM11PW0NIMl1bQ0gyXU9bQ0gzXQ==

>  <s_glide_docking_method>  (1) 
confgen

>  <s_i_glide_gridfile>  (1) 
gpcr_5ht2c_6bqh_protein_autoprepared_prepared

>  <s_lp_Force_Field>  (1) 
S-OPLS

>  <s_lp_Variant>  (1) 
Pocket2Mol_23_num_sample_50-1

>  <s_m_source_file>  (1) 
generated__ligand_Pocket2Mol_2026-05-06_prepared.sdf

>  <GenAI_Model>  (1) 
Pocket2Mol

>  <Protein>  (1) 
GPCR_5HT2C

$$$$
Pocket2Mol_0_num_sample_50
     RDKit          3D

  0  0  0  0  0  0  0  0  0  0999 V3000
M  V30 BEGIN CTAB
M  V30 COUNTS 15 14 0 0 1
M  V30 BEGIN ATOM
M  V30 1 C 39.920814 30.153167 50.806189 0
M  V30 2 C 39.685964 28.702361 51.256390 0
M  V30 3 C 41.137736 30.297442 49.897811 0
M  V30 4 C 38.541494 28.569680 52.271482 0
M  V30 5 O 38.381588 27.221445 52.653017 0
M  V30 6 H 39.059958 30.517604 50.253501 0
M  V30 7 H 40.038544 30.805094 51.672881 0
M  V30 8 H 40.603104 28.315021 51.700909 0
M  V30 9 H 39.479092 28.080963 50.383639 0
M  V30 10 H 41.213455 31.308126 49.505577 0
M  V30 11 H 42.055413 30.082582 50.443552 0
M  V30 12 H 41.067403 29.621430 49.046533 0
M  V30 13 H 37.599676 28.921903 51.853478 0
M  V30 14 H 38.750103 29.165915 53.160570 0
M  V30 15 H 37.920481 26.765319 51.962274 0
M  V30 END ATOM
M  V30 BEGIN BOND
M  V30 1 1 2 1
M  V30 2 1 3 1
M  V30 3 1 4 2
M  V30 4 1 5 4
M  V30 5 1 6 1
M  V30 6 1 7 1
M  V30 7 1 8 2
M  V30 8 1 9 2
M  V30 9 1 10 3
M  V30 10 1 11 3
M  V30 11 1 12 3
M  V30 12 1 13 4
M  V30 13 1 14 4
M  V30 14 1 15 5
M  V30 END BOND
M  V30 END CTAB
M  END
>  <i_epik_Tot_Q>  (1) 
0

>  <i_epik_Tot_abs_Q>  (1) 
0

>  <i_i_glide_confnum>  (1) 
1

>  <i_i_glide_lignum>  (1) 
1

>  <i_i_glide_posenum>  (1) 
317

>  <i_i_glide_rotatable_bonds>  (1) 
3

>  <i_lp_mmshare_version>  (1) 
72125

>  <i_m_source_file_index>  (1) 
1

>  <i_f3d_flags>  (1) 
0

>  <num_sample>  (1) 
50

>  <b_lp_Chiralities_Consistent>  (1) 
1

>  <r_epik_Charging_Adjusted_Penalty>  (1) 
0

>  <r_epik_Ionization_Penalty>  (1) 
2.9396235358890345e-07

>  <r_epik_Ionization_Penalty_Charging>  (1) 
0

>  <r_epik_Ionization_Penalty_Neutral>  (1) 
2.9396235358890345e-07

>  <r_epik_State_Penalty>  (1) 
-0

>  <r_glide_ring_energy>  (1) 
0

>  <r_i_docking_score>  (1) 
-2.780369434687354

>  <r_i_glide_ecoul>  (1) 
-1.2086184174930041

>  <r_i_glide_eff_state_penalty>  (1) 
-0

>  <r_i_glide_einternal>  (1) 
0.35326513613748978

>  <r_i_glide_emodel>  (1) 
-15.331601111293956

>  <r_i_glide_emodel_strain>  (1) 
0.0040306278501611725

>  <r_i_glide_energy>  (1) 
-13.228122999922107

>  <r_i_glide_erotb>  (1) 
1.8982399431532129

>  <r_i_glide_esite>  (1) 
0

>  <r_i_glide_evdw>  (1) 
-12.019504582429102

>  <r_i_glide_gscore>  (1) 
-2.780369434687354

>  <r_i_glide_gscore_strain>  (1) 
0

>  <r_i_glide_hbond>  (1) 
-0.056436576755670036

>  <r_i_glide_ligand_efficiency>  (1) 
-0.55607388693747084

>  <r_i_glide_ligand_efficiency_ln>  (1) 
-1.0655051118245644

>  <r_i_glide_ligand_efficiency_sa>  (1) 
-0.95087297123809222

>  <r_i_glide_lipo>  (1) 
-1.3200000000000001

>  <r_i_glide_metal>  (1) 
-0

>  <r_i_glide_rewards>  (1) 
-2.5199048093394909

>  <r_lp_Energy>  (1) 
2.038589

>  <r_lp_tautomer_probability>  (1) 
1

>  <s_epik_cmdline>  (1) 
J2VwaWtfcHl0aG9uJywgJy1waHQnLCAnMS4wJywgJy1waCcsICc3LjQnLCAnLXRuJywgJzgnLCAnLW1hJywgJzUwMCcsICctaW1hZScsICc8aW5maWxlLm1hZT4nLCAnLW9tYWUnLCAnPG91dGZpbGUubWFlPic=

>  <s_epik_input>  (1) 
W0NIM11bQ0gyXVtDSDJdW0NIMl1bT0hd

>  <s_glide_docking_method>  (1) 
confgen

>  <s_i_glide_gridfile>  (1) 
gpcr_5ht2c_6bqh_protein_autoprepared_prepared

>  <s_lp_Force_Field>  (1) 
S-OPLS

>  <s_lp_Variant>  (1) 
Pocket2Mol_0_num_sample_50-1

>  <s_m_source_file>  (1) 
generated__ligand_Pocket2Mol_2026-05-06_prepared.sdf

>  <GenAI_Model>  (1) 
Pocket2Mol

>  <Protein>  (1) 
GPCR_5HT2C

$$$$
Pocket2Mol_46_num_sample_50
     RDKit          3D

  0  0  0  0  0  0  0  0  0  0999 V3000
M  V30 BEGIN CTAB
M  V30 COUNTS 13 12 0 0 1
M  V30 BEGIN ATOM
M  V30 1 C 39.351017 28.809496 51.038803 0
M  V30 2 C 38.985558 28.204409 52.399306 0
M  V30 3 O 40.667408 29.329594 51.096547 0
M  V30 4 O 37.587848 28.021433 52.504660 0
M  V30 5 C 40.975103 30.165593 49.993630 0
M  V30 6 H 39.259555 28.072310 50.240171 0
M  V30 7 H 38.667412 29.621432 50.810576 0
M  V30 8 H 39.293215 28.880836 53.197357 0
M  V30 9 H 39.503137 27.257862 52.557043 0
M  V30 10 H 37.309724 27.349760 51.893363 0
M  V30 11 H 42.001265 30.522498 50.079067 0
M  V30 12 H 40.881943 29.621430 49.053578 0
M  V30 13 H 40.321791 31.038893 49.959836 0
M  V30 END ATOM
M  V30 BEGIN BOND
M  V30 1 1 2 1
M  V30 2 1 3 1
M  V30 3 1 4 2
M  V30 4 1 5 3
M  V30 5 1 6 1
M  V30 6 1 7 1
M  V30 7 1 8 2
M  V30 8 1 9 2
M  V30 9 1 10 4
M  V30 10 1 11 5
M  V30 11 1 12 5
M  V30 12 1 13 5
M  V30 END BOND
M  V30 END CTAB
M  END
>  <i_epik_Tot_Q>  (1) 
0

>  <i_epik_Tot_abs_Q>  (1) 
0

>  <i_i_glide_confnum>  (1) 
1

>  <i_i_glide_lignum>  (1) 
47

>  <i_i_glide_posenum>  (1) 
353

>  <i_i_glide_rotatable_bonds>  (1) 
3

>  <i_lp_mmshare_version>  (1) 
72125

>  <i_m_source_file_index>  (1) 
47

>  <i_f3d_flags>  (1) 
0

>  <num_sample>  (1) 
50

>  <b_lp_Chiralities_Consistent>  (1) 
1

>  <r_epik_Charging_Adjusted_Penalty>  (1) 
0

>  <r_epik_Ionization_Penalty>  (1) 
5.5888793446441707e-08

>  <r_epik_Ionization_Penalty_Charging>  (1) 
0

>  <r_epik_Ionization_Penalty_Neutral>  (1) 
5.5888793446441707e-08

>  <r_epik_State_Penalty>  (1) 
-0

>  <r_glide_ring_energy>  (1) 
0

>  <r_i_docking_score>  (1) 
-2.7240997320399725

>  <r_i_glide_ecoul>  (1) 
-2.7095564920312034

>  <r_i_glide_eff_state_penalty>  (1) 
-0

>  <r_i_glide_einternal>  (1) 
0.77197716422850204

>  <r_i_glide_emodel>  (1) 
-17.155576667074133

>  <r_i_glide_emodel_strain>  (1) 
0.0034625157706752452

>  <r_i_glide_energy>  (1) 
-14.798372933951821

>  <r_i_glide_erotb>  (1) 
1.8283304104302178

>  <r_i_glide_esite>  (1) 
0

>  <r_i_glide_evdw>  (1) 
-12.088816441920619

>  <r_i_glide_gscore>  (1) 
-2.7240997320399725

>  <r_i_glide_gscore_strain>  (1) 
0

>  <r_i_glide_hbond>  (1) 
-0.30155584656947887

>  <r_i_glide_ligand_efficiency>  (1) 
-0.54481994640799447

>  <r_i_glide_ligand_efficiency_ln>  (1) 
-1.043941194791224

>  <r_i_glide_ligand_efficiency_sa>  (1) 
-0.93162900362735768

>  <r_i_glide_lipo>  (1) 
-0.98999999999999999

>  <r_i_glide_metal>  (1) 
-0

>  <r_i_glide_rewards>  (1) 
-2.25

>  <r_lp_Energy>  (1) 
3.7496159999999996

>  <r_lp_tautomer_probability>  (1) 
1

>  <s_epik_cmdline>  (1) 
J2VwaWtfcHl0aG9uJywgJy1waHQnLCAnMS4wJywgJy1waCcsICc3LjQnLCAnLXRuJywgJzgnLCAnLW1hJywgJzUwMCcsICctaW1hZScsICc8aW5maWxlLm1hZT4nLCAnLW9tYWUnLCAnPG91dGZpbGUubWFlPic=

>  <s_epik_input>  (1) 
W0NIM11PW0NIMl1bQ0gyXVtPSF0=

>  <s_glide_docking_method>  (1) 
confgen

>  <s_i_glide_gridfile>  (1) 
gpcr_5ht2c_6bqh_protein_autoprepared_prepared

>  <s_lp_Force_Field>  (1) 
S-OPLS

>  <s_lp_Variant>  (1) 
Pocket2Mol_46_num_sample_50-1

>  <s_m_source_file>  (1) 
generated__ligand_Pocket2Mol_2026-05-06_prepared.sdf

>  <GenAI_Model>  (1) 
Pocket2Mol

>  <Protein>  (1) 
GPCR_5HT2C

$$$$
Pocket2Mol_46_num_sample_50
     RDKit          3D

  0  0  0  0  0  0  0  0  0  0999 V3000
M  V30 BEGIN CTAB
M  V30 COUNTS 13 12 0 0 1
M  V30 BEGIN ATOM
M  V30 1 C 40.054940 29.362612 51.257718 0
M  V30 2 C 40.557350 30.449079 50.301841 0
M  V30 3 O 39.539718 28.289227 50.491665 0
M  V30 4 O 39.467428 31.221433 49.853517 0
M  V30 5 C 38.987987 27.259452 51.292565 0
M  V30 6 H 40.888404 28.991656 51.853443 0
M  V30 7 H 39.311144 29.757603 51.951198 0
M  V30 8 H 41.097539 30.021443 49.456359 0
M  V30 9 H 41.243183 31.116368 50.823634 0
M  V30 10 H 38.846561 30.644809 49.417711 0
M  V30 11 H 38.667319 26.438007 50.653449 0
M  V30 12 H 39.718449 26.867088 52.001429 0
M  V30 13 H 38.117974 27.616191 51.846024 0
M  V30 END ATOM
M  V30 BEGIN BOND
M  V30 1 1 2 1
M  V30 2 1 3 1
M  V30 3 1 4 2
M  V30 4 1 5 3
M  V30 5 1 6 1
M  V30 6 1 7 1
M  V30 7 1 8 2
M  V30 8 1 9 2
M  V30 9 1 10 4
M  V30 10 1 11 5
M  V30 11 1 12 5
M  V30 12 1 13 5
M  V30 END BOND
M  V30 END CTAB
M  END
>  <i_epik_Tot_Q>  (1) 
0

>  <i_epik_Tot_abs_Q>  (1) 
0

>  <i_i_glide_confnum>  (1) 
3

>  <i_i_glide_lignum>  (1) 
47

>  <i_i_glide_posenum>  (1) 
400

>  <i_i_glide_rotatable_bonds>  (1) 
3

>  <i_lp_mmshare_version>  (1) 
72125

>  <i_m_source_file_index>  (1) 
47

>  <i_f3d_flags>  (1) 
0

>  <num_sample>  (1) 
50

>  <b_lp_Chiralities_Consistent>  (1) 
1

>  <r_epik_Charging_Adjusted_Penalty>  (1) 
0

>  <r_epik_Ionization_Penalty>  (1) 
5.5888793446441707e-08

>  <r_epik_Ionization_Penalty_Charging>  (1) 
0

>  <r_epik_Ionization_Penalty_Neutral>  (1) 
5.5888793446441707e-08

>  <r_epik_State_Penalty>  (1) 
-0

>  <r_glide_ring_energy>  (1) 
0

>  <r_i_docking_score>  (1) 
-2.716852755157249

>  <r_i_glide_ecoul>  (1) 
-2.6532365950420478

>  <r_i_glide_eff_state_penalty>  (1) 
-0

>  <r_i_glide_einternal>  (1) 
1.7535827391008372

>  <r_i_glide_emodel>  (1) 
-16.25974660245943

>  <r_i_glide_emodel_strain>  (1) 
0

>  <r_i_glide_energy>  (1) 
-14.397190121665256

>  <r_i_glide_erotb>  (1) 
1.8283304104302178

>  <r_i_glide_esite>  (1) 
0

>  <r_i_glide_evdw>  (1) 
-11.743953526623208

>  <r_i_glide_gscore>  (1) 
-2.716852755157249

>  <r_i_glide_gscore_strain>  (1) 
0

>  <r_i_glide_hbond>  (1) 
-0.32000000000000001

>  <r_i_glide_ligand_efficiency>  (1) 
-0.54337055103144982

>  <r_i_glide_ligand_efficiency_ln>  (1) 
-1.0411639771965109

>  <r_i_glide_ligand_efficiency_sa>  (1) 
-0.92915057239624188

>  <r_i_glide_lipo>  (1) 
-0.98999999999999999

>  <r_i_glide_metal>  (1) 
-0

>  <r_i_glide_rewards>  (1) 
-2.25

>  <r_lp_Energy>  (1) 
3.7496159999999996

>  <r_lp_tautomer_probability>  (1) 
1

>  <s_epik_cmdline>  (1) 
J2VwaWtfcHl0aG9uJywgJy1waHQnLCAnMS4wJywgJy1waCcsICc3LjQnLCAnLXRuJywgJzgnLCAnLW1hJywgJzUwMCcsICctaW1hZScsICc8aW5maWxlLm1hZT4nLCAnLW9tYWUnLCAnPG91dGZpbGUubWFlPic=

>  <s_epik_input>  (1) 
W0NIM11PW0NIMl1bQ0gyXVtPSF0=

>  <s_glide_docking_method>  (1) 
confgen

>  <s_i_glide_gridfile>  (1) 
gpcr_5ht2c_6bqh_protein_autoprepared_prepared

>  <s_lp_Force_Field>  (1) 
S-OPLS

>  <s_lp_Variant>  (1) 
Pocket2Mol_46_num_sample_50-1

>  <s_m_source_file>  (1) 
generated__ligand_Pocket2Mol_2026-05-06_prepared.sdf

>  <GenAI_Model>  (1) 
Pocket2Mol

>  <Protein>  (1) 
GPCR_5HT2C

$$$$
Pocket2Mol_46_num_sample_50
     RDKit          3D

  0  0  0  0  0  0  0  0  0  0999 V3000
M  V30 BEGIN CTAB
M  V30 COUNTS 13 12 0 0 1
M  V30 BEGIN ATOM
M  V30 1 C 40.267407 28.910544 50.924919 0
M  V30 2 C 40.502457 30.422087 50.959693 0
M  V30 3 O 39.048847 28.615416 51.583133 0
M  V30 4 O 39.867404 31.011437 49.853501 0
M  V30 5 C 38.787289 27.224005 51.630275 0
M  V30 6 H 40.267390 28.529362 49.902111 0
M  V30 7 H 41.083624 28.421429 51.453502 0
M  V30 8 H 41.566050 30.643562 50.874964 0
M  V30 9 H 40.149803 30.863764 51.892545 0
M  V30 10 H 38.999164 30.639389 49.763045 0
M  V30 11 H 37.867403 27.045874 52.184365 0
M  V30 12 H 38.667412 26.813947 50.627492 0
M  V30 13 H 39.587751 26.684064 52.137181 0
M  V30 END ATOM
M  V30 BEGIN BOND
M  V30 1 1 2 1
M  V30 2 1 3 1
M  V30 3 1 4 2
M  V30 4 1 5 3
M  V30 5 1 6 1
M  V30 6 1 7 1
M  V30 7 1 8 2
M  V30 8 1 9 2
M  V30 9 1 10 4
M  V30 10 1 11 5
M  V30 11 1 12 5
M  V30 12 1 13 5
M  V30 END BOND
M  V30 END CTAB
M  END
>  <i_epik_Tot_Q>  (1) 
0

>  <i_epik_Tot_abs_Q>  (1) 
0

>  <i_i_glide_confnum>  (1) 
2

>  <i_i_glide_lignum>  (1) 
47

>  <i_i_glide_posenum>  (1) 
109

>  <i_i_glide_rotatable_bonds>  (1) 
3

>  <i_lp_mmshare_version>  (1) 
72125

>  <i_m_source_file_index>  (1) 
47

>  <i_f3d_flags>  (1) 
0

>  <num_sample>  (1) 
50

>  <b_lp_Chiralities_Consistent>  (1) 
1

>  <r_epik_Charging_Adjusted_Penalty>  (1) 
0

>  <r_epik_Ionization_Penalty>  (1) 
5.5888793446441707e-08

>  <r_epik_Ionization_Penalty_Charging>  (1) 
0

>  <r_epik_Ionization_Penalty_Neutral>  (1) 
5.5888793446441707e-08

>  <r_epik_State_Penalty>  (1) 
-0

>  <r_glide_ring_energy>  (1) 
0

>  <r_i_docking_score>  (1) 
-2.5783868909147314

>  <r_i_glide_ecoul>  (1) 
-1.2900395932036959

>  <r_i_glide_eff_state_penalty>  (1) 
-0

>  <r_i_glide_einternal>  (1) 
2.1674505209261636

>  <r_i_glide_emodel>  (1) 
-15.865967109716467

>  <r_i_glide_emodel_strain>  (1) 
0.0043099817697220821

>  <r_i_glide_energy>  (1) 
-14.354266840491588

>  <r_i_glide_erotb>  (1) 
1.8283304104302178

>  <r_i_glide_esite>  (1) 
0

>  <r_i_glide_evdw>  (1) 
-13.064227247287892

>  <r_i_glide_gscore>  (1) 
-2.5783868909147314

>  <r_i_glide_gscore_strain>  (1) 
0

>  <r_i_glide_hbond>  (1) 
-0.32000000000000001

>  <r_i_glide_ligand_efficiency>  (1) 
-0.51567737818294623

>  <r_i_glide_ligand_efficiency_ln>  (1) 
-0.9881004942208399

>  <r_i_glide_ligand_efficiency_sa>  (1) 
-0.88179591293814064

>  <r_i_glide_lipo>  (1) 
-0.98999999999999999

>  <r_i_glide_metal>  (1) 
-0

>  <r_i_glide_rewards>  (1) 
-2.25

>  <r_lp_Energy>  (1) 
3.7496159999999996

>  <r_lp_tautomer_probability>  (1) 
1

>  <s_epik_cmdline>  (1) 
J2VwaWtfcHl0aG9uJywgJy1waHQnLCAnMS4wJywgJy1waCcsICc3LjQnLCAnLXRuJywgJzgnLCAnLW1hJywgJzUwMCcsICctaW1hZScsICc8aW5maWxlLm1hZT4nLCAnLW9tYWUnLCAnPG91dGZpbGUubWFlPic=

>  <s_epik_input>  (1) 
W0NIM11PW0NIMl1bQ0gyXVtPSF0=

>  <s_glide_docking_method>  (1) 
confgen

>  <s_i_glide_gridfile>  (1) 
gpcr_5ht2c_6bqh_protein_autoprepared_prepared

>  <s_lp_Force_Field>  (1) 
S-OPLS

>  <s_lp_Variant>  (1) 
Pocket2Mol_46_num_sample_50-1

>  <s_m_source_file>  (1) 
generated__ligand_Pocket2Mol_2026-05-06_prepared.sdf

>  <GenAI_Model>  (1) 
Pocket2Mol

>  <Protein>  (1) 
GPCR_5HT2C

$$$$
Pocket2Mol_46_num_sample_50
     RDKit          3D

  0  0  0  0  0  0  0  0  0  0999 V3000
M  V30 BEGIN CTAB
M  V30 COUNTS 13 12 0 0 1
M  V30 BEGIN ATOM
M  V30 1 C 39.343306 27.923514 51.297126 0
M  V30 2 C 38.294927 28.353018 52.336587 0
M  V30 3 O 39.592498 28.937596 50.335038 0
M  V30 4 O 37.835182 27.226506 53.053498 0
M  V30 5 C 40.425024 29.992260 50.790706 0
M  V30 6 H 40.267403 27.621414 51.788191 0
M  V30 7 H 38.975861 27.054703 50.748758 0
M  V30 8 H 37.439201 28.821423 51.853503 0
M  V30 9 H 38.711797 29.078995 53.034657 0
M  V30 10 H 37.315167 26.693543 52.463801 0
M  V30 11 H 40.547891 30.727367 49.994945 0
M  V30 12 H 39.998840 30.505881 51.652593 0
M  V30 13 H 41.416041 29.621440 51.053504 0
M  V30 END ATOM
M  V30 BEGIN BOND
M  V30 1 1 2 1
M  V30 2 1 3 1
M  V30 3 1 4 2
M  V30 4 1 5 3
M  V30 5 1 6 1
M  V30 6 1 7 1
M  V30 7 1 8 2
M  V30 8 1 9 2
M  V30 9 1 10 4
M  V30 10 1 11 5
M  V30 11 1 12 5
M  V30 12 1 13 5
M  V30 END BOND
M  V30 END CTAB
M  END
>  <i_epik_Tot_Q>  (1) 
0

>  <i_epik_Tot_abs_Q>  (1) 
0

>  <i_i_glide_confnum>  (1) 
1

>  <i_i_glide_lignum>  (1) 
47

>  <i_i_glide_posenum>  (1) 
220

>  <i_i_glide_rotatable_bonds>  (1) 
3

>  <i_lp_mmshare_version>  (1) 
72125

>  <i_m_source_file_index>  (1) 
47

>  <i_f3d_flags>  (1) 
0

>  <num_sample>  (1) 
50

>  <b_lp_Chiralities_Consistent>  (1) 
1

>  <r_epik_Charging_Adjusted_Penalty>  (1) 
0

>  <r_epik_Ionization_Penalty>  (1) 
5.5888793446441707e-08

>  <r_epik_Ionization_Penalty_Charging>  (1) 
0

>  <r_epik_Ionization_Penalty_Neutral>  (1) 
5.5888793446441707e-08

>  <r_epik_State_Penalty>  (1) 
-0

>  <r_glide_ring_energy>  (1) 
0

>  <r_i_docking_score>  (1) 
-2.569471387572583

>  <r_i_glide_ecoul>  (1) 
-1.6702985124194056

>  <r_i_glide_eff_state_penalty>  (1) 
-0

>  <r_i_glide_einternal>  (1) 
1.2299068622345115

>  <r_i_glide_emodel>  (1) 
-16.174383637890895

>  <r_i_glide_emodel_strain>  (1) 
0

>  <r_i_glide_energy>  (1) 
-14.198590879797946

>  <r_i_glide_erotb>  (1) 
1.8283304104302178

>  <r_i_glide_esite>  (1) 
0

>  <r_i_glide_evdw>  (1) 
-12.52829236737854

>  <r_i_glide_gscore>  (1) 
-2.569471387572583

>  <r_i_glide_gscore_strain>  (1) 
0

>  <r_i_glide_hbond>  (1) 
-0.28084240277096245

>  <r_i_glide_ligand_efficiency>  (1) 
-0.51389427751451655

>  <r_i_glide_ligand_efficiency_ln>  (1) 
-0.98468385675279912

>  <r_i_glide_ligand_efficiency_sa>  (1) 
-0.8787468536846228

>  <r_i_glide_lipo>  (1) 
-0.98999999999999999

>  <r_i_glide_metal>  (1) 
-0

>  <r_i_glide_rewards>  (1) 
-2.25

>  <r_lp_Energy>  (1) 
3.7496159999999996

>  <r_lp_tautomer_probability>  (1) 
1

>  <s_epik_cmdline>  (1) 
J2VwaWtfcHl0aG9uJywgJy1waHQnLCAnMS4wJywgJy1waCcsICc3LjQnLCAnLXRuJywgJzgnLCAnLW1hJywgJzUwMCcsICctaW1hZScsICc8aW5maWxlLm1hZT4nLCAnLW9tYWUnLCAnPG91dGZpbGUubWFlPic=

>  <s_epik_input>  (1) 
W0NIM11PW0NIMl1bQ0gyXVtPSF0=

>  <s_glide_docking_method>  (1) 
confgen

>  <s_i_glide_gridfile>  (1) 
gpcr_5ht2c_6bqh_protein_autoprepared_prepared

>  <s_lp_Force_Field>  (1) 
S-OPLS

>  <s_lp_Variant>  (1) 
Pocket2Mol_46_num_sample_50-1

>  <s_m_source_file>  (1) 
generated__ligand_Pocket2Mol_2026-05-06_prepared.sdf

>  <GenAI_Model>  (1) 
Pocket2Mol

>  <Protein>  (1) 
GPCR_5HT2C

$$$$
Pocket2Mol_23_num_sample_50
     RDKit          3D

  0  0  0  0  0  0  0  0  0  0999 V3000
M  V30 BEGIN CTAB
M  V30 COUNTS 16 15 0 0 1
M  V30 BEGIN ATOM
M  V30 1 C 38.517701 27.897790 52.728361 0
M  V30 2 O 38.667479 28.696324 51.566688 0
M  V30 3 C 39.608909 28.167571 50.653500 0
M  V30 4 C 37.483236 28.562205 53.639775 0
M  V30 5 O 38.053472 29.716883 54.234392 0
M  V30 6 C 37.138751 30.427833 55.053438 0
M  V30 7 H 38.167561 26.905416 52.439979 0
M  V30 8 H 39.467403 27.774307 53.250015 0
M  V30 9 H 39.672367 28.821118 49.783361 0
M  V30 10 H 39.314794 27.174636 50.310541 0
M  V30 11 H 40.600616 28.109158 51.102759 0
M  V30 12 H 36.603535 28.820471 53.053482 0
M  V30 13 H 37.172590 27.865975 54.419787 0
M  V30 14 H 37.623047 31.316699 55.457327 0
M  V30 15 H 36.265538 30.757340 54.490475 0
M  V30 16 H 36.803087 29.821601 55.894781 0
M  V30 END ATOM
M  V30 BEGIN BOND
M  V30 1 1 2 1
M  V30 2 1 3 2
M  V30 3 1 4 1
M  V30 4 1 5 4
M  V30 5 1 6 5
M  V30 6 1 7 1
M  V30 7 1 8 1
M  V30 8 1 9 3
M  V30 9 1 10 3
M  V30 10 1 11 3
M  V30 11 1 12 4
M  V30 12 1 13 4
M  V30 13 1 14 6
M  V30 14 1 15 6
M  V30 15 1 16 6
M  V30 END BOND
M  V30 END CTAB
M  END
>  <i_epik_Tot_Q>  (1) 
0

>  <i_epik_Tot_abs_Q>  (1) 
0

>  <i_i_glide_confnum>  (1) 
3

>  <i_i_glide_lignum>  (1) 
24

>  <i_i_glide_posenum>  (1) 
114

>  <i_i_glide_rotatable_bonds>  (1) 
3

>  <i_lp_mmshare_version>  (1) 
72125

>  <i_m_source_file_index>  (1) 
24

>  <i_f3d_flags>  (1) 
0

>  <num_sample>  (1) 
50

>  <b_lp_Chiralities_Consistent>  (1) 
1

>  <r_epik_Charging_Adjusted_Penalty>  (1) 
0

>  <r_epik_Ionization_Penalty>  (1) 
3.8345288393749547e-12

>  <r_epik_Ionization_Penalty_Charging>  (1) 
0

>  <r_epik_Ionization_Penalty_Neutral>  (1) 
3.8345288393749547e-12

>  <r_epik_State_Penalty>  (1) 
-0

>  <r_glide_ring_energy>  (1) 
0

>  <r_i_docking_score>  (1) 
-2.5300917599861057

>  <r_i_glide_ecoul>  (1) 
-0.6728301378101772

>  <r_i_glide_eff_state_penalty>  (1) 
-0

>  <r_i_glide_einternal>  (1) 
0.0037579270590897274

>  <r_i_glide_emodel>  (1) 
-16.349830984969387

>  <r_i_glide_emodel_strain>  (1) 
0

>  <r_i_glide_energy>  (1) 
-14.073599639518738

>  <r_i_glide_erotb>  (1) 
1.4298651310552182

>  <r_i_glide_esite>  (1) 
0

>  <r_i_glide_evdw>  (1) 
-13.400769501708561

>  <r_i_glide_gscore>  (1) 
-2.5300917599861057

>  <r_i_glide_gscore_strain>  (1) 
0

>  <r_i_glide_hbond>  (1) 
0

>  <r_i_glide_ligand_efficiency>  (1) 
-0.42168195999768426

>  <r_i_glide_ligand_efficiency_ln>  (1) 
-0.90627139904918008

>  <r_i_glide_ligand_efficiency_sa>  (1) 
-0.7662469731376107

>  <r_i_glide_lipo>  (1) 
-0.93899389528436927

>  <r_i_glide_metal>  (1) 
-0

>  <r_i_glide_rewards>  (1) 
-2.25

>  <r_lp_Energy>  (1) 
5.9407059999999996

>  <r_lp_tautomer_probability>  (1) 
1

>  <s_epik_cmdline>  (1) 
J2VwaWtfcHl0aG9uJywgJy1waHQnLCAnMS4wJywgJy1waCcsICc3LjQnLCAnLXRuJywgJzgnLCAnLW1hJywgJzUwMCcsICctaW1hZScsICc8aW5maWxlLm1hZT4nLCAnLW9tYWUnLCAnPG91dGZpbGUubWFlPic=

>  <s_epik_input>  (1) 
W0NIM11PW0NIMl1bQ0gyXU9bQ0gzXQ==

>  <s_glide_docking_method>  (1) 
confgen

>  <s_i_glide_gridfile>  (1) 
gpcr_5ht2c_6bqh_protein_autoprepared_prepared

>  <s_lp_Force_Field>  (1) 
S-OPLS

>  <s_lp_Variant>  (1) 
Pocket2Mol_23_num_sample_50-1

>  <s_m_source_file>  (1) 
generated__ligand_Pocket2Mol_2026-05-06_prepared.sdf

>  <GenAI_Model>  (1) 
Pocket2Mol

>  <Protein>  (1) 
GPCR_5HT2C

$$$$
Pocket2Mol_4_num_sample_50
     RDKit          3D

  0  0  0  0  0  0  0  0  0  0999 V3000
M  V30 BEGIN CTAB
M  V30 COUNTS 11 10 0 0 1
M  V30 BEGIN ATOM
M  V30 1 C 38.138606 32.833367 61.173137 0
M  V30 2 O 36.974314 33.292101 60.509223 0
M  V30 3 C 35.823244 32.620532 60.656554 0
M  V30 4 O 35.670541 31.621433 61.360780 0
M  V30 5 C 34.678135 33.221430 59.853494 0
M  V30 6 H 38.976249 33.493149 60.947335 0
M  V30 7 H 38.399317 31.826292 60.845490 0
M  V30 8 H 37.993736 32.821745 62.253913 0
M  V30 9 H 35.010706 34.096403 59.294216 0
M  V30 10 H 34.294196 32.489425 59.142523 0
M  V30 11 H 33.867402 33.523305 60.515345 0
M  V30 END ATOM
M  V30 BEGIN BOND
M  V30 1 1 2 1
M  V30 2 1 3 2
M  V30 3 2 4 3
M  V30 4 1 5 3
M  V30 5 1 6 1
M  V30 6 1 7 1
M  V30 7 1 8 1
M  V30 8 1 9 5
M  V30 9 1 10 5
M  V30 10 1 11 5
M  V30 END BOND
M  V30 END CTAB
M  END
>  <i_epik_Tot_Q>  (1) 
0

>  <i_epik_Tot_abs_Q>  (1) 
0

>  <i_i_glide_confnum>  (1) 
1

>  <i_i_glide_lignum>  (1) 
5

>  <i_i_glide_posenum>  (1) 
374

>  <i_i_glide_rotatable_bonds>  (1) 
1

>  <i_lp_mmshare_version>  (1) 
72125

>  <i_m_source_file_index>  (1) 
5

>  <i_f3d_flags>  (1) 
0

>  <num_sample>  (1) 
50

>  <b_lp_Chiralities_Consistent>  (1) 
1

>  <r_epik_Charging_Adjusted_Penalty>  (1) 
0

>  <r_epik_Ionization_Penalty>  (1) 
0

>  <r_epik_Ionization_Penalty_Charging>  (1) 
0

>  <r_epik_Ionization_Penalty_Neutral>  (1) 
0

>  <r_epik_State_Penalty>  (1) 
-0

>  <r_glide_ring_energy>  (1) 
0

>  <r_i_docking_score>  (1) 
-2.181185201573026

>  <r_i_glide_ecoul>  (1) 
-2.4294960534174326

>  <r_i_glide_eff_state_penalty>  (1) 
-0

>  <r_i_glide_einternal>  (1) 
0.011883439870896129

>  <r_i_glide_emodel>  (1) 
-14.792502255117604

>  <r_i_glide_emodel_strain>  (1) 
0

>  <r_i_glide_energy>  (1) 
-12.781320046977255

>  <r_i_glide_erotb>  (1) 
1.8998339649575009

>  <r_i_glide_esite>  (1) 
-0.0072944820411964852

>  <r_i_glide_evdw>  (1) 
-10.351823993559822

>  <r_i_glide_gscore>  (1) 
-2.181185201573026

>  <r_i_glide_gscore_strain>  (1) 
0

>  <r_i_glide_hbond>  (1) 
-0.32000000000000001

>  <r_i_glide_ligand_efficiency>  (1) 
-0.4362370403146052

>  <r_i_glide_ligand_efficiency_ln>  (1) 
-0.83588315751050091

>  <r_i_glide_ligand_efficiency_sa>  (1) 
-0.74595484598740747

>  <r_i_glide_lipo>  (1) 
-0.12171147931597837

>  <r_i_glide_metal>  (1) 
-0

>  <r_i_glide_rewards>  (1) 
-2.7499975974827455

>  <r_lp_Energy>  (1) 
-0.092307

>  <r_lp_tautomer_probability>  (1) 
1

>  <s_epik_Chemistry_Notes>  (1) 
This compound has an ester and may undergo hydrolysis at high or low pH.

>  <s_epik_cmdline>  (1) 
J2VwaWtfcHl0aG9uJywgJy1waHQnLCAnMS4wJywgJy1waCcsICc3LjQnLCAnLXRuJywgJzgnLCAnLW1hJywgJzUwMCcsICctaW1hZScsICc8aW5maWxlLm1hZT4nLCAnLW9tYWUnLCAnPG91dGZpbGUubWFlPic=

>  <s_epik_input>  (1) 
W0NIM11PQyg9TylbQ0gzXQ==

>  <s_glide_docking_method>  (1) 
confgen

>  <s_i_glide_gridfile>  (1) 
gpcr_5ht2c_6bqh_protein_autoprepared_prepared

>  <s_lp_Force_Field>  (1) 
S-OPLS

>  <s_lp_Variant>  (1) 
Pocket2Mol_4_num_sample_50-1

>  <s_m_source_file>  (1) 
generated__ligand_Pocket2Mol_2026-05-06_prepared.sdf

>  <GenAI_Model>  (1) 
Pocket2Mol

>  <Protein>  (1) 
GPCR_5HT2C

$$$$
Pocket2Mol_4_num_sample_50
     RDKit          3D

  0  0  0  0  0  0  0  0  0  0999 V3000
M  V30 BEGIN CTAB
M  V30 COUNTS 11 10 0 0 1
M  V30 BEGIN ATOM
M  V30 1 C 34.267402 33.221430 59.453502 0
M  V30 2 O 35.602663 33.425893 59.877874 0
M  V30 3 C 36.157814 32.576164 60.752174 0
M  V30 4 O 35.584003 31.621428 61.277771 0
M  V30 5 C 37.613534 32.903616 61.054124 0
M  V30 6 H 34.017799 33.933525 58.666899 0
M  V30 7 H 33.566944 33.367237 60.274380 0
M  V30 8 H 34.134553 32.215393 59.053503 0
M  V30 9 H 37.942247 33.773576 60.485164 0
M  V30 10 H 37.740082 33.115338 62.115300 0
M  V30 11 H 38.249619 32.058713 60.791323 0
M  V30 END ATOM
M  V30 BEGIN BOND
M  V30 1 1 2 1
M  V30 2 1 3 2
M  V30 3 2 4 3
M  V30 4 1 5 3
M  V30 5 1 6 1
M  V30 6 1 7 1
M  V30 7 1 8 1
M  V30 8 1 9 5
M  V30 9 1 10 5
M  V30 10 1 11 5
M  V30 END BOND
M  V30 END CTAB
M  END
>  <i_epik_Tot_Q>  (1) 
0

>  <i_epik_Tot_abs_Q>  (1) 
0

>  <i_i_glide_confnum>  (1) 
1

>  <i_i_glide_lignum>  (1) 
5

>  <i_i_glide_posenum>  (1) 
337

>  <i_i_glide_rotatable_bonds>  (1) 
1

>  <i_lp_mmshare_version>  (1) 
72125

>  <i_m_source_file_index>  (1) 
5

>  <i_f3d_flags>  (1) 
0

>  <num_sample>  (1) 
50

>  <b_lp_Chiralities_Consistent>  (1) 
1

>  <r_epik_Charging_Adjusted_Penalty>  (1) 
0

>  <r_epik_Ionization_Penalty>  (1) 
0

>  <r_epik_Ionization_Penalty_Charging>  (1) 
0

>  <r_epik_Ionization_Penalty_Neutral>  (1) 
0

>  <r_epik_State_Penalty>  (1) 
-0

>  <r_glide_ring_energy>  (1) 
0

>  <r_i_docking_score>  (1) 
-2.1139788262224135

>  <r_i_glide_ecoul>  (1) 
-2.0404458336976261

>  <r_i_glide_eff_state_penalty>  (1) 
-0

>  <r_i_glide_einternal>  (1) 
0.0011408440056296376

>  <r_i_glide_emodel>  (1) 
-14.806636320663685

>  <r_i_glide_emodel_strain>  (1) 
0.056393076525153241

>  <r_i_glide_energy>  (1) 
-12.908627233304129

>  <r_i_glide_erotb>  (1) 
1.8998339649575009

>  <r_i_glide_esite>  (1) 
-0.0053751241504993667

>  <r_i_glide_evdw>  (1) 
-10.868181399606502

>  <r_i_glide_gscore>  (1) 
-2.1139788262224135

>  <r_i_glide_gscore_strain>  (1) 
0

>  <r_i_glide_hbond>  (1) 
-0.31697813344678744

>  <r_i_glide_ligand_efficiency>  (1) 
-0.4227957652444827

>  <r_i_glide_ligand_efficiency_ln>  (1) 
-0.81012804180900411

>  <r_i_glide_ligand_efficiency_sa>  (1) 
-0.7229705889248329

>  <r_i_glide_lipo>  (1) 
-0.092002754522636981

>  <r_i_glide_metal>  (1) 
-0

>  <r_i_glide_rewards>  (1) 
-2.7499808340250214

>  <r_lp_Energy>  (1) 
-0.092307

>  <r_lp_tautomer_probability>  (1) 
1

>  <s_epik_Chemistry_Notes>  (1) 
This compound has an ester and may undergo hydrolysis at high or low pH.

>  <s_epik_cmdline>  (1) 
J2VwaWtfcHl0aG9uJywgJy1waHQnLCAnMS4wJywgJy1waCcsICc3LjQnLCAnLXRuJywgJzgnLCAnLW1hJywgJzUwMCcsICctaW1hZScsICc8aW5maWxlLm1hZT4nLCAnLW9tYWUnLCAnPG91dGZpbGUubWFlPic=

>  <s_epik_input>  (1) 
W0NIM11PQyg9TylbQ0gzXQ==

>  <s_glide_docking_method>  (1) 
confgen

>  <s_i_glide_gridfile>  (1) 
gpcr_5ht2c_6bqh_protein_autoprepared_prepared

>  <s_lp_Force_Field>  (1) 
S-OPLS

>  <s_lp_Variant>  (1) 
Pocket2Mol_4_num_sample_50-1

>  <s_m_source_file>  (1) 
generated__ligand_Pocket2Mol_2026-05-06_prepared.sdf

>  <GenAI_Model>  (1) 
Pocket2Mol

>  <Protein>  (1) 
GPCR_5HT2C

$$$$
Pocket2Mol_31_num_sample_50
     RDKit          3D

  0  0  0  0  0  0  0  0  0  0999 V3000
M  V30 BEGIN CTAB
M  V30 COUNTS 10 9 0 0 1
M  V30 BEGIN ATOM
M  V30 1 C 38.897595 27.727477 51.285109 0
M  V30 2 O 38.922129 27.221430 52.600888 0
M  V30 3 C 39.846218 28.928631 51.176224 0
M  V30 4 O 39.867403 29.420282 49.853502 0
M  V30 5 H 39.184171 26.936380 50.590007 0
M  V30 6 H 37.873824 28.021429 51.053502 0
M  V30 7 H 38.244974 26.564787 52.677521 0
M  V30 8 H 39.536454 29.727069 51.851781 0
M  V30 9 H 40.861518 28.643593 51.453502 0
M  V30 10 H 38.980217 29.621428 49.573718 0
M  V30 END ATOM
M  V30 BEGIN BOND
M  V30 1 1 2 1
M  V30 2 1 3 1
M  V30 3 1 4 3
M  V30 4 1 5 1
M  V30 5 1 6 1
M  V30 6 1 7 2
M  V30 7 1 8 3
M  V30 8 1 9 3
M  V30 9 1 10 4
M  V30 END BOND
M  V30 END CTAB
M  END
>  <i_epik_Tot_Q>  (1) 
0

>  <i_epik_Tot_abs_Q>  (1) 
0

>  <i_i_glide_confnum>  (1) 
1

>  <i_i_glide_lignum>  (1) 
32

>  <i_i_glide_posenum>  (1) 
380

>  <i_i_glide_rotatable_bonds>  (1) 
3

>  <i_lp_mmshare_version>  (1) 
72125

>  <i_m_source_file_index>  (1) 
32

>  <i_f3d_flags>  (1) 
0

>  <num_sample>  (1) 
50

>  <b_lp_Chiralities_Consistent>  (1) 
1

>  <r_epik_Charging_Adjusted_Penalty>  (1) 
0

>  <r_epik_Ionization_Penalty>  (1) 
1.0539797431440594e-07

>  <r_epik_Ionization_Penalty_Charging>  (1) 
0

>  <r_epik_Ionization_Penalty_Neutral>  (1) 
1.0539797431440594e-07

>  <r_epik_State_Penalty>  (1) 
-0

>  <r_glide_ring_energy>  (1) 
0

>  <r_i_docking_score>  (1) 
-1.8662825219372792

>  <r_i_glide_ecoul>  (1) 
-3.6989839225111738

>  <r_i_glide_eff_state_penalty>  (1) 
-0

>  <r_i_glide_einternal>  (1) 
0.40647435358173828

>  <r_i_glide_emodel>  (1) 
-16.079035101564774

>  <r_i_glide_emodel_strain>  (1) 
0

>  <r_i_glide_energy>  (1) 
-14.038133886345829

>  <r_i_glide_erotb>  (1) 
2.43552256463113

>  <r_i_glide_esite>  (1) 
0

>  <r_i_glide_evdw>  (1) 
-10.339149963834656

>  <r_i_glide_gscore>  (1) 
-1.8662825219372792

>  <r_i_glide_gscore_strain>  (1) 
0

>  <r_i_glide_hbond>  (1) 
-0.32000000000000001

>  <r_i_glide_ligand_efficiency>  (1) 
-0.46657063048431979

>  <r_i_glide_ligand_efficiency_ln>  (1) 
-0.782083950892559

>  <r_i_glide_ligand_efficiency_sa>  (1) 
-0.74063470964827527

>  <r_i_glide_lipo>  (1) 
-0.66000000000000003

>  <r_i_glide_metal>  (1) 
-0

>  <r_i_glide_rewards>  (1) 
-2.25

>  <r_lp_Energy>  (1) 
2.5073979999999998

>  <r_lp_tautomer_probability>  (1) 
1

>  <s_epik_cmdline>  (1) 
J2VwaWtfcHl0aG9uJywgJy1waHQnLCAnMS4wJywgJy1waCcsICc3LjQnLCAnLXRuJywgJzgnLCAnLW1hJywgJzUwMCcsICctaW1hZScsICc8aW5maWxlLm1hZT4nLCAnLW9tYWUnLCAnPG91dGZpbGUubWFlPic=

>  <s_epik_input>  (1) 
W09IXVtDSDJdW0NIMl1bT0hd

>  <s_glide_docking_method>  (1) 
confgen

>  <s_i_glide_gridfile>  (1) 
gpcr_5ht2c_6bqh_protein_autoprepared_prepared

>  <s_lp_Force_Field>  (1) 
S-OPLS

>  <s_lp_Variant>  (1) 
Pocket2Mol_31_num_sample_50-1

>  <s_m_source_file>  (1) 
generated__ligand_Pocket2Mol_2026-05-06_prepared.sdf

>  <GenAI_Model>  (1) 
Pocket2Mol

>  <Protein>  (1) 
GPCR_5HT2C

$$$$
Pocket2Mol_4_num_sample_50
     RDKit          3D

  0  0  0  0  0  0  0  0  0  0999 V3000
M  V30 BEGIN CTAB
M  V30 COUNTS 11 10 0 0 1
M  V30 BEGIN ATOM
M  V30 1 C 36.030607 34.054510 60.144138 0
M  V30 2 O 36.415196 32.829070 59.552261 0
M  V30 3 C 36.350323 31.695919 60.265605 0
M  V30 4 O 36.031102 31.621427 61.453498 0
M  V30 5 C 36.721342 30.462439 59.454492 0
M  V30 6 H 36.137690 34.863055 59.420439 0
M  V30 7 H 36.651045 34.285984 61.011406 0
M  V30 8 H 34.986829 34.017802 60.459013 0
M  V30 9 H 36.961491 30.736183 58.426141 0
M  V30 10 H 37.583239 29.961906 59.893214 0
M  V30 11 H 35.884313 29.765541 59.431377 0
M  V30 END ATOM
M  V30 BEGIN BOND
M  V30 1 1 2 1
M  V30 2 1 3 2
M  V30 3 2 4 3
M  V30 4 1 5 3
M  V30 5 1 6 1
M  V30 6 1 7 1
M  V30 7 1 8 1
M  V30 8 1 9 5
M  V30 9 1 10 5
M  V30 10 1 11 5
M  V30 END BOND
M  V30 END CTAB
M  END
>  <i_epik_Tot_Q>  (1) 
0

>  <i_epik_Tot_abs_Q>  (1) 
0

>  <i_i_glide_confnum>  (1) 
1

>  <i_i_glide_lignum>  (1) 
5

>  <i_i_glide_posenum>  (1) 
226

>  <i_i_glide_rotatable_bonds>  (1) 
1

>  <i_lp_mmshare_version>  (1) 
72125

>  <i_m_source_file_index>  (1) 
5

>  <i_f3d_flags>  (1) 
0

>  <num_sample>  (1) 
50

>  <b_lp_Chiralities_Consistent>  (1) 
1

>  <r_epik_Charging_Adjusted_Penalty>  (1) 
0

>  <r_epik_Ionization_Penalty>  (1) 
0

>  <r_epik_Ionization_Penalty_Charging>  (1) 
0

>  <r_epik_Ionization_Penalty_Neutral>  (1) 
0

>  <r_epik_State_Penalty>  (1) 
-0

>  <r_glide_ring_energy>  (1) 
0

>  <r_i_docking_score>  (1) 
-1.7770307356089234

>  <r_i_glide_ecoul>  (1) 
-2.8709046328700274

>  <r_i_glide_eff_state_penalty>  (1) 
-0

>  <r_i_glide_einternal>  (1) 
0.048298464120480888

>  <r_i_glide_emodel>  (1) 
-13.997082540423726

>  <r_i_glide_emodel_strain>  (1) 
0

>  <r_i_glide_energy>  (1) 
-12.37786319693255

>  <r_i_glide_erotb>  (1) 
1.8998339649575009

>  <r_i_glide_esite>  (1) 
-0.067556636685368238

>  <r_i_glide_evdw>  (1) 
-9.506958564062522

>  <r_i_glide_gscore>  (1) 
-1.7770307356089234

>  <r_i_glide_gscore_strain>  (1) 
0

>  <r_i_glide_hbond>  (1) 
-0.32000000000000001

>  <r_i_glide_ligand_efficiency>  (1) 
-0.3554061471217847

>  <r_i_glide_ligand_efficiency_ln>  (1) 
-0.68100134789231204

>  <r_i_glide_ligand_efficiency_sa>  (1) 
-0.60773596287929121

>  <r_i_glide_lipo>  (1) 
-0.13338584341489637

>  <r_i_glide_metal>  (1) 
-0

>  <r_i_glide_rewards>  (1) 
-2.249938597332529

>  <r_lp_Energy>  (1) 
-0.092307

>  <r_lp_tautomer_probability>  (1) 
1

>  <s_epik_Chemistry_Notes>  (1) 
This compound has an ester and may undergo hydrolysis at high or low pH.

>  <s_epik_cmdline>  (1) 
J2VwaWtfcHl0aG9uJywgJy1waHQnLCAnMS4wJywgJy1waCcsICc3LjQnLCAnLXRuJywgJzgnLCAnLW1hJywgJzUwMCcsICctaW1hZScsICc8aW5maWxlLm1hZT4nLCAnLW9tYWUnLCAnPG91dGZpbGUubWFlPic=

>  <s_epik_input>  (1) 
W0NIM11PQyg9TylbQ0gzXQ==

>  <s_glide_docking_method>  (1) 
confgen

>  <s_i_glide_gridfile>  (1) 
gpcr_5ht2c_6bqh_protein_autoprepared_prepared

>  <s_lp_Force_Field>  (1) 
S-OPLS

>  <s_lp_Variant>  (1) 
Pocket2Mol_4_num_sample_50-1

>  <s_m_source_file>  (1) 
generated__ligand_Pocket2Mol_2026-05-06_prepared.sdf

>  <GenAI_Model>  (1) 
Pocket2Mol

>  <Protein>  (1) 
GPCR_5HT2C

$$$$
Pocket2Mol_4_num_sample_50
     RDKit          3D

  0  0  0  0  0  0  0  0  0  0999 V3000
M  V30 BEGIN CTAB
M  V30 COUNTS 11 10 0 0 1
M  V30 BEGIN ATOM
M  V30 1 C 37.951698 30.874485 55.053482 0
M  V30 2 O 37.623445 29.535407 54.719495 0
M  V30 3 C 38.228793 28.940581 53.680999 0
M  V30 4 O 39.083257 29.461069 52.964766 0
M  V30 5 C 37.748983 27.515199 53.453482 0
M  V30 6 H 37.467196 31.156394 55.988017 0
M  V30 7 H 37.614963 31.560493 54.275167 0
M  V30 8 H 39.027957 30.994606 55.183701 0
M  V30 9 H 36.667373 27.457406 53.571390 0
M  V30 10 H 38.002289 27.181815 52.446820 0
M  V30 11 H 38.215181 26.841541 54.171968 0
M  V30 END ATOM
M  V30 BEGIN BOND
M  V30 1 1 2 1
M  V30 2 1 3 2
M  V30 3 2 4 3
M  V30 4 1 5 3
M  V30 5 1 6 1
M  V30 6 1 7 1
M  V30 7 1 8 1
M  V30 8 1 9 5
M  V30 9 1 10 5
M  V30 10 1 11 5
M  V30 END BOND
M  V30 END CTAB
M  END
>  <i_epik_Tot_Q>  (1) 
0

>  <i_epik_Tot_abs_Q>  (1) 
0

>  <i_i_glide_confnum>  (1) 
2

>  <i_i_glide_lignum>  (1) 
5

>  <i_i_glide_posenum>  (1) 
219

>  <i_i_glide_rotatable_bonds>  (1) 
1

>  <i_lp_mmshare_version>  (1) 
72125

>  <i_m_source_file_index>  (1) 
5

>  <i_f3d_flags>  (1) 
0

>  <num_sample>  (1) 
50

>  <b_lp_Chiralities_Consistent>  (1) 
1

>  <r_epik_Charging_Adjusted_Penalty>  (1) 
0

>  <r_epik_Ionization_Penalty>  (1) 
0

>  <r_epik_Ionization_Penalty_Charging>  (1) 
0

>  <r_epik_Ionization_Penalty_Neutral>  (1) 
0

>  <r_epik_State_Penalty>  (1) 
-0

>  <r_glide_ring_energy>  (1) 
0

>  <r_i_docking_score>  (1) 
-1.759100075526187

>  <r_i_glide_ecoul>  (1) 
-0.66706884956655532

>  <r_i_glide_eff_state_penalty>  (1) 
-0

>  <r_i_glide_einternal>  (1) 
0.0044485011555608356

>  <r_i_glide_emodel>  (1) 
-13.737536475614787

>  <r_i_glide_emodel_strain>  (1) 
0.00048417654599086646

>  <r_i_glide_energy>  (1) 
-12.113458304486912

>  <r_i_glide_erotb>  (1) 
1.8998339649575009

>  <r_i_glide_esite>  (1) 
0

>  <r_i_glide_evdw>  (1) 
-11.446389454920356

>  <r_i_glide_gscore>  (1) 
-1.759100075526187

>  <r_i_glide_gscore_strain>  (1) 
0

>  <r_i_glide_hbond>  (1) 
0

>  <r_i_glide_ligand_efficiency>  (1) 
-0.35182001510523742

>  <r_i_glide_ligand_efficiency_ln>  (1) 
-0.67412988335303481

>  <r_i_glide_ligand_efficiency_sa>  (1) 
-0.60160376338938815

>  <r_i_glide_lipo>  (1) 
-0.32584837524209181

>  <r_i_glide_metal>  (1) 
-0

>  <r_i_glide_rewards>  (1) 
-2.6607058650605948

>  <r_lp_Energy>  (1) 
-0.092307

>  <r_lp_tautomer_probability>  (1) 
1

>  <s_epik_Chemistry_Notes>  (1) 
This compound has an ester and may undergo hydrolysis at high or low pH.

>  <s_epik_cmdline>  (1) 
J2VwaWtfcHl0aG9uJywgJy1waHQnLCAnMS4wJywgJy1waCcsICc3LjQnLCAnLXRuJywgJzgnLCAnLW1hJywgJzUwMCcsICctaW1hZScsICc8aW5maWxlLm1hZT4nLCAnLW9tYWUnLCAnPG91dGZpbGUubWFlPic=

>  <s_epik_input>  (1) 
W0NIM11PQyg9TylbQ0gzXQ==

>  <s_glide_docking_method>  (1) 
confgen

>  <s_i_glide_gridfile>  (1) 
gpcr_5ht2c_6bqh_protein_autoprepared_prepared

>  <s_lp_Force_Field>  (1) 
S-OPLS

>  <s_lp_Variant>  (1) 
Pocket2Mol_4_num_sample_50-1

>  <s_m_source_file>  (1) 
generated__ligand_Pocket2Mol_2026-05-06_prepared.sdf

>  <GenAI_Model>  (1) 
Pocket2Mol

>  <Protein>  (1) 
GPCR_5HT2C

$$$$
Pocket2Mol_31_num_sample_50
     RDKit          3D

  0  0  0  0  0  0  0  0  0  0999 V3000
M  V30 BEGIN CTAB
M  V30 COUNTS 10 9 0 0 1
M  V30 BEGIN ATOM
M  V30 1 C 39.778592 29.633465 51.816457 0
M  V30 2 O 39.867309 30.421429 52.984046 0
M  V30 3 C 40.421773 30.374980 50.637172 0
M  V30 4 O 40.267061 29.622313 49.454785 0
M  V30 5 H 40.281964 28.680163 51.987383 0
M  V30 6 H 38.733213 29.407002 51.613085 0
M  V30 7 H 39.467961 31.264248 52.825964 0
M  V30 8 H 39.955345 31.348777 50.494005 0
M  V30 9 H 41.483198 30.543199 50.819488 0
M  V30 10 H 39.347745 29.623343 49.214405 0
M  V30 END ATOM
M  V30 BEGIN BOND
M  V30 1 1 2 1
M  V30 2 1 3 1
M  V30 3 1 4 3
M  V30 4 1 5 1
M  V30 5 1 6 1
M  V30 6 1 7 2
M  V30 7 1 8 3
M  V30 8 1 9 3
M  V30 9 1 10 4
M  V30 END BOND
M  V30 END CTAB
M  END
>  <i_epik_Tot_Q>  (1) 
0

>  <i_epik_Tot_abs_Q>  (1) 
0

>  <i_i_glide_confnum>  (1) 
3

>  <i_i_glide_lignum>  (1) 
32

>  <i_i_glide_posenum>  (1) 
18

>  <i_i_glide_rotatable_bonds>  (1) 
3

>  <i_lp_mmshare_version>  (1) 
72125

>  <i_m_source_file_index>  (1) 
32

>  <i_f3d_flags>  (1) 
0

>  <num_sample>  (1) 
50

>  <b_lp_Chiralities_Consistent>  (1) 
1

>  <r_epik_Charging_Adjusted_Penalty>  (1) 
0

>  <r_epik_Ionization_Penalty>  (1) 
1.0539797431440594e-07

>  <r_epik_Ionization_Penalty_Charging>  (1) 
0

>  <r_epik_Ionization_Penalty_Neutral>  (1) 
1.0539797431440594e-07

>  <r_epik_State_Penalty>  (1) 
-0

>  <r_glide_ring_energy>  (1) 
0

>  <r_i_docking_score>  (1) 
-1.7267672928579918

>  <r_i_glide_ecoul>  (1) 
-3.0265107762302748

>  <r_i_glide_eff_state_penalty>  (1) 
-0

>  <r_i_glide_einternal>  (1) 
0.093129455579843423

>  <r_i_glide_emodel>  (1) 
-14.633728076915396

>  <r_i_glide_emodel_strain>  (1) 
0

>  <r_i_glide_energy>  (1) 
-12.603916516324848

>  <r_i_glide_erotb>  (1) 
2.43552256463113

>  <r_i_glide_esite>  (1) 
0

>  <r_i_glide_evdw>  (1) 
-9.5774057400945729

>  <r_i_glide_gscore>  (1) 
-1.7267672928579918

>  <r_i_glide_gscore_strain>  (1) 
0

>  <r_i_glide_hbond>  (1) 
-0.3194429540498519

>  <r_i_glide_ligand_efficiency>  (1) 
-0.43169182321449795

>  <r_i_glide_ligand_efficiency_ln>  (1) 
-0.72361872910248082

>  <r_i_glide_ligand_efficiency_sa>  (1) 
-0.68526805429676407

>  <r_i_glide_lipo>  (1) 
-0.66000000000000003

>  <r_i_glide_metal>  (1) 
-0

>  <r_i_glide_rewards>  (1) 
-2.25

>  <r_lp_Energy>  (1) 
2.5073979999999998

>  <r_lp_tautomer_probability>  (1) 
1

>  <s_epik_cmdline>  (1) 
J2VwaWtfcHl0aG9uJywgJy1waHQnLCAnMS4wJywgJy1waCcsICc3LjQnLCAnLXRuJywgJzgnLCAnLW1hJywgJzUwMCcsICctaW1hZScsICc8aW5maWxlLm1hZT4nLCAnLW9tYWUnLCAnPG91dGZpbGUubWFlPic=

>  <s_epik_input>  (1) 
W09IXVtDSDJdW0NIMl1bT0hd

>  <s_glide_docking_method>  (1) 
confgen

>  <s_i_glide_gridfile>  (1) 
gpcr_5ht2c_6bqh_protein_autoprepared_prepared

>  <s_lp_Force_Field>  (1) 
S-OPLS

>  <s_lp_Variant>  (1) 
Pocket2Mol_31_num_sample_50-1

>  <s_m_source_file>  (1) 
generated__ligand_Pocket2Mol_2026-05-06_prepared.sdf

>  <GenAI_Model>  (1) 
Pocket2Mol

>  <Protein>  (1) 
GPCR_5HT2C

$$$$
Pocket2Mol_4_num_sample_50
     RDKit          3D

  0  0  0  0  0  0  0  0  0  0999 V3000
M  V30 BEGIN CTAB
M  V30 COUNTS 11 10 0 0 1
M  V30 BEGIN ATOM
M  V30 1 C 35.067434 33.221382 60.670356 0
M  V30 2 O 35.572153 32.181908 59.853517 0
M  V30 3 C 36.534769 31.379570 60.322878 0
M  V30 4 O 37.020015 31.440383 61.453470 0
M  V30 5 C 36.994141 30.344071 59.305628 0
M  V30 6 H 34.263939 33.741210 60.148905 0
M  V30 7 H 35.847912 33.946277 60.904327 0
M  V30 8 H 34.667541 32.826541 61.605144 0
M  V30 9 H 36.416520 30.421196 58.383629 0
M  V30 10 H 38.046514 30.493385 59.065777 0
M  V30 11 H 36.867914 29.339686 59.707781 0
M  V30 END ATOM
M  V30 BEGIN BOND
M  V30 1 1 2 1
M  V30 2 1 3 2
M  V30 3 2 4 3
M  V30 4 1 5 3
M  V30 5 1 6 1
M  V30 6 1 7 1
M  V30 7 1 8 1
M  V30 8 1 9 5
M  V30 9 1 10 5
M  V30 10 1 11 5
M  V30 END BOND
M  V30 END CTAB
M  END
>  <i_epik_Tot_Q>  (1) 
0

>  <i_epik_Tot_abs_Q>  (1) 
0

>  <i_i_glide_confnum>  (1) 
1

>  <i_i_glide_lignum>  (1) 
5

>  <i_i_glide_posenum>  (1) 
296

>  <i_i_glide_rotatable_bonds>  (1) 
1

>  <i_lp_mmshare_version>  (1) 
72125

>  <i_m_source_file_index>  (1) 
5

>  <i_f3d_flags>  (1) 
0

>  <num_sample>  (1) 
50

>  <b_lp_Chiralities_Consistent>  (1) 
1

>  <r_epik_Charging_Adjusted_Penalty>  (1) 
0

>  <r_epik_Ionization_Penalty>  (1) 
0

>  <r_epik_Ionization_Penalty_Charging>  (1) 
0

>  <r_epik_Ionization_Penalty_Neutral>  (1) 
0

>  <r_epik_State_Penalty>  (1) 
-0

>  <r_glide_ring_energy>  (1) 
0

>  <r_i_docking_score>  (1) 
-1.7171540429742245

>  <r_i_glide_ecoul>  (1) 
-2.0459986680049957

>  <r_i_glide_eff_state_penalty>  (1) 
-0

>  <r_i_glide_einternal>  (1) 
0.033603616012200854

>  <r_i_glide_emodel>  (1) 
-13.810888031344923

>  <r_i_glide_emodel_strain>  (1) 
0.052921865379012445

>  <r_i_glide_energy>  (1) 
-12.292616102257837

>  <r_i_glide_erotb>  (1) 
1.8998339649575009

>  <r_i_glide_esite>  (1) 
-0.062831313920906212

>  <r_i_glide_evdw>  (1) 
-10.24661743425284

>  <r_i_glide_gscore>  (1) 
-1.7171540429742245

>  <r_i_glide_gscore_strain>  (1) 
0

>  <r_i_glide_hbond>  (1) 
-0.32000000000000001

>  <r_i_glide_ligand_efficiency>  (1) 
-0.34343080859484487

>  <r_i_glide_ligand_efficiency_ln>  (1) 
-0.65805514467000759

>  <r_i_glide_ligand_efficiency_sa>  (1) 
-0.58725842204491341

>  <r_i_glide_lipo>  (1) 
-0.16493190720261208

>  <r_i_glide_metal>  (1) 
-0

>  <r_i_glide_rewards>  (1) 
-2.249994114894815

>  <r_lp_Energy>  (1) 
-0.092307

>  <r_lp_tautomer_probability>  (1) 
1

>  <s_epik_Chemistry_Notes>  (1) 
This compound has an ester and may undergo hydrolysis at high or low pH.

>  <s_epik_cmdline>  (1) 
J2VwaWtfcHl0aG9uJywgJy1waHQnLCAnMS4wJywgJy1waCcsICc3LjQnLCAnLXRuJywgJzgnLCAnLW1hJywgJzUwMCcsICctaW1hZScsICc8aW5maWxlLm1hZT4nLCAnLW9tYWUnLCAnPG91dGZpbGUubWFlPic=

>  <s_epik_input>  (1) 
W0NIM11PQyg9TylbQ0gzXQ==

>  <s_glide_docking_method>  (1) 
confgen

>  <s_i_glide_gridfile>  (1) 
gpcr_5ht2c_6bqh_protein_autoprepared_prepared

>  <s_lp_Force_Field>  (1) 
S-OPLS

>  <s_lp_Variant>  (1) 
Pocket2Mol_4_num_sample_50-1

>  <s_m_source_file>  (1) 
generated__ligand_Pocket2Mol_2026-05-06_prepared.sdf

>  <GenAI_Model>  (1) 
Pocket2Mol

>  <Protein>  (1) 
GPCR_5HT2C

$$$$
Pocket2Mol_31_num_sample_50
     RDKit          3D

  0  0  0  0  0  0  0  0  0  0999 V3000
M  V30 BEGIN CTAB
M  V30 COUNTS 10 9 0 0 1
M  V30 BEGIN ATOM
M  V30 1 C 35.563154 34.325420 58.923241 0
M  V30 2 O 36.280578 35.428755 59.432795 0
M  V30 3 C 35.532130 33.202901 59.966990 0
M  V30 4 O 34.819000 32.097680 59.455544 0
M  V30 5 H 34.551323 34.643828 58.669543 0
M  V30 6 H 36.039718 33.983557 58.003691 0
M  V30 7 H 36.447849 36.031101 58.723823 0
M  V30 8 H 36.544075 32.887137 60.223528 0
M  V30 9 H 35.052122 33.543596 60.885179 0
M  V30 10 H 35.067417 31.972329 58.552093 0
M  V30 END ATOM
M  V30 BEGIN BOND
M  V30 1 1 2 1
M  V30 2 1 3 1
M  V30 3 1 4 3
M  V30 4 1 5 1
M  V30 5 1 6 1
M  V30 6 1 7 2
M  V30 7 1 8 3
M  V30 8 1 9 3
M  V30 9 1 10 4
M  V30 END BOND
M  V30 END CTAB
M  END
>  <i_epik_Tot_Q>  (1) 
0

>  <i_epik_Tot_abs_Q>  (1) 
0

>  <i_i_glide_confnum>  (1) 
1

>  <i_i_glide_lignum>  (1) 
32

>  <i_i_glide_posenum>  (1) 
231

>  <i_i_glide_rotatable_bonds>  (1) 
3

>  <i_lp_mmshare_version>  (1) 
72125

>  <i_m_source_file_index>  (1) 
32

>  <i_f3d_flags>  (1) 
0

>  <num_sample>  (1) 
50

>  <b_lp_Chiralities_Consistent>  (1) 
1

>  <r_epik_Charging_Adjusted_Penalty>  (1) 
0

>  <r_epik_Ionization_Penalty>  (1) 
1.0539797431440594e-07

>  <r_epik_Ionization_Penalty_Charging>  (1) 
0

>  <r_epik_Ionization_Penalty_Neutral>  (1) 
1.0539797431440594e-07

>  <r_epik_State_Penalty>  (1) 
-0

>  <r_glide_ring_energy>  (1) 
0

>  <r_i_docking_score>  (1) 
-1.527984503673764

>  <r_i_glide_ecoul>  (1) 
-8.1601632491398277

>  <r_i_glide_eff_state_penalty>  (1) 
-0

>  <r_i_glide_einternal>  (1) 
0.70040533704340269

>  <r_i_glide_emodel>  (1) 
-14.728271427077239

>  <r_i_glide_emodel_strain>  (1) 
0.012802860177960396

>  <r_i_glide_energy>  (1) 
-13.253929905271974

>  <r_i_glide_erotb>  (1) 
2.43552256463113

>  <r_i_glide_esite>  (1) 
0

>  <r_i_glide_evdw>  (1) 
-5.0937666561321455

>  <r_i_glide_gscore>  (1) 
-1.527984503673764

>  <r_i_glide_gscore_strain>  (1) 
0

>  <r_i_glide_hbond>  (1) 
-0.23479424812731275

>  <r_i_glide_ligand_efficiency>  (1) 
-0.38199612591844101

>  <r_i_glide_ligand_efficiency_ln>  (1) 
-0.64031685636497881

>  <r_i_glide_ligand_efficiency_sa>  (1) 
-0.60638105213071003

>  <r_i_glide_lipo>  (1) 
0

>  <r_i_glide_metal>  (1) 
-0

>  <r_i_glide_rewards>  (1) 
-2.25

>  <r_lp_Energy>  (1) 
2.5073979999999998

>  <r_lp_tautomer_probability>  (1) 
1

>  <s_epik_cmdline>  (1) 
J2VwaWtfcHl0aG9uJywgJy1waHQnLCAnMS4wJywgJy1waCcsICc3LjQnLCAnLXRuJywgJzgnLCAnLW1hJywgJzUwMCcsICctaW1hZScsICc8aW5maWxlLm1hZT4nLCAnLW9tYWUnLCAnPG91dGZpbGUubWFlPic=

>  <s_epik_input>  (1) 
W09IXVtDSDJdW0NIMl1bT0hd

>  <s_glide_docking_method>  (1) 
confgen

>  <s_i_glide_gridfile>  (1) 
gpcr_5ht2c_6bqh_protein_autoprepared_prepared

>  <s_lp_Force_Field>  (1) 
S-OPLS

>  <s_lp_Variant>  (1) 
Pocket2Mol_31_num_sample_50-1

>  <s_m_source_file>  (1) 
generated__ligand_Pocket2Mol_2026-05-06_prepared.sdf

>  <GenAI_Model>  (1) 
Pocket2Mol

>  <Protein>  (1) 
GPCR_5HT2C

$$$$
Pocket2Mol_31_num_sample_50
     RDKit          3D

  0  0  0  0  0  0  0  0  0  0999 V3000
M  V30 BEGIN CTAB
M  V30 COUNTS 10 9 0 0 1
M  V30 BEGIN ATOM
M  V30 1 C 35.612603 33.183681 59.995175 0
M  V30 2 O 34.892174 32.097841 59.453869 0
M  V30 3 C 35.608060 34.352523 59.003178 0
M  V30 4 O 36.309416 35.446416 59.553922 0
M  V30 5 H 35.155989 33.478931 60.940675 0
M  V30 6 H 36.633148 32.864085 60.209499 0
M  V30 7 H 35.108961 32.021336 58.534306 0
M  V30 8 H 36.080191 34.062209 58.063747 0
M  V30 9 H 34.586999 34.660923 58.775555 0
M  V30 10 H 36.424914 36.098606 58.879479 0
M  V30 END ATOM
M  V30 BEGIN BOND
M  V30 1 1 2 1
M  V30 2 1 3 1
M  V30 3 1 4 3
M  V30 4 1 5 1
M  V30 5 1 6 1
M  V30 6 1 7 2
M  V30 7 1 8 3
M  V30 8 1 9 3
M  V30 9 1 10 4
M  V30 END BOND
M  V30 END CTAB
M  END
>  <i_epik_Tot_Q>  (1) 
0

>  <i_epik_Tot_abs_Q>  (1) 
0

>  <i_i_glide_confnum>  (1) 
1

>  <i_i_glide_lignum>  (1) 
32

>  <i_i_glide_posenum>  (1) 
234

>  <i_i_glide_rotatable_bonds>  (1) 
3

>  <i_lp_mmshare_version>  (1) 
72125

>  <i_m_source_file_index>  (1) 
32

>  <i_f3d_flags>  (1) 
0

>  <num_sample>  (1) 
50

>  <b_lp_Chiralities_Consistent>  (1) 
1

>  <r_epik_Charging_Adjusted_Penalty>  (1) 
0

>  <r_epik_Ionization_Penalty>  (1) 
1.0539797431440594e-07

>  <r_epik_Ionization_Penalty_Charging>  (1) 
0

>  <r_epik_Ionization_Penalty_Neutral>  (1) 
1.0539797431440594e-07

>  <r_epik_State_Penalty>  (1) 
-0

>  <r_glide_ring_energy>  (1) 
0

>  <r_i_docking_score>  (1) 
-1.4767480965518427

>  <r_i_glide_ecoul>  (1) 
-8.3352851460714703

>  <r_i_glide_eff_state_penalty>  (1) 
-0

>  <r_i_glide_einternal>  (1) 
0.68679782848799786

>  <r_i_glide_emodel>  (1) 
-14.789656137229425

>  <r_i_glide_emodel_strain>  (1) 
0.017524972281037748

>  <r_i_glide_energy>  (1) 
-13.374842931516515

>  <r_i_glide_erotb>  (1) 
2.43552256463113

>  <r_i_glide_esite>  (1) 
0

>  <r_i_glide_evdw>  (1) 
-5.0395577854450444

>  <r_i_glide_gscore>  (1) 
-1.4767480965518427

>  <r_i_glide_gscore_strain>  (1) 
0

>  <r_i_glide_hbond>  (1) 
-0.16

>  <r_i_glide_ligand_efficiency>  (1) 
-0.36918702413796067

>  <r_i_glide_ligand_efficiency_ln>  (1) 
-0.61884573865346737

>  <r_i_glide_ligand_efficiency_sa>  (1) 
-0.58604787048960783

>  <r_i_glide_lipo>  (1) 
0

>  <r_i_glide_metal>  (1) 
-0

>  <r_i_glide_rewards>  (1) 
-2.25

>  <r_lp_Energy>  (1) 
2.5073979999999998

>  <r_lp_tautomer_probability>  (1) 
1

>  <s_epik_cmdline>  (1) 
J2VwaWtfcHl0aG9uJywgJy1waHQnLCAnMS4wJywgJy1waCcsICc3LjQnLCAnLXRuJywgJzgnLCAnLW1hJywgJzUwMCcsICctaW1hZScsICc8aW5maWxlLm1hZT4nLCAnLW9tYWUnLCAnPG91dGZpbGUubWFlPic=

>  <s_epik_input>  (1) 
W09IXVtDSDJdW0NIMl1bT0hd

>  <s_glide_docking_method>  (1) 
confgen

>  <s_i_glide_gridfile>  (1) 
gpcr_5ht2c_6bqh_protein_autoprepared_prepared

>  <s_lp_Force_Field>  (1) 
S-OPLS

>  <s_lp_Variant>  (1) 
Pocket2Mol_31_num_sample_50-1

>  <s_m_source_file>  (1) 
generated__ligand_Pocket2Mol_2026-05-06_prepared.sdf

>  <GenAI_Model>  (1) 
Pocket2Mol

>  <Protein>  (1) 
GPCR_5HT2C

$$$$
Pocket2Mol_31_num_sample_50
     RDKit          3D

  0  0  0  0  0  0  0  0  0  0999 V3000
M  V30 BEGIN CTAB
M  V30 COUNTS 10 9 0 0 1
M  V30 BEGIN ATOM
M  V30 1 C 35.364456 32.856647 60.327627 0
M  V30 2 O 34.267416 32.739084 59.453493 0
M  V30 3 C 35.945061 31.464249 60.590173 0
M  V30 4 O 37.056985 31.561300 61.453722 0
M  V30 5 H 36.108020 33.514930 59.878781 0
M  V30 6 H 35.033421 33.318150 61.258891 0
M  V30 7 H 34.588729 32.421439 58.608919 0
M  V30 8 H 35.189459 30.830413 61.053548 0
M  V30 9 H 36.253727 30.986033 59.658745 0
M  V30 10 H 37.747581 32.020216 60.998074 0
M  V30 END ATOM
M  V30 BEGIN BOND
M  V30 1 1 2 1
M  V30 2 1 3 1
M  V30 3 1 4 3
M  V30 4 1 5 1
M  V30 5 1 6 1
M  V30 6 1 7 2
M  V30 7 1 8 3
M  V30 8 1 9 3
M  V30 9 1 10 4
M  V30 END BOND
M  V30 END CTAB
M  END
>  <i_epik_Tot_Q>  (1) 
0

>  <i_epik_Tot_abs_Q>  (1) 
0

>  <i_i_glide_confnum>  (1) 
2

>  <i_i_glide_lignum>  (1) 
32

>  <i_i_glide_posenum>  (1) 
279

>  <i_i_glide_rotatable_bonds>  (1) 
3

>  <i_lp_mmshare_version>  (1) 
72125

>  <i_m_source_file_index>  (1) 
32

>  <i_f3d_flags>  (1) 
0

>  <num_sample>  (1) 
50

>  <b_lp_Chiralities_Consistent>  (1) 
1

>  <r_epik_Charging_Adjusted_Penalty>  (1) 
0

>  <r_epik_Ionization_Penalty>  (1) 
1.0539797431440594e-07

>  <r_epik_Ionization_Penalty_Charging>  (1) 
0

>  <r_epik_Ionization_Penalty_Neutral>  (1) 
1.0539797431440594e-07

>  <r_epik_State_Penalty>  (1) 
-0

>  <r_glide_ring_energy>  (1) 
0

>  <r_i_docking_score>  (1) 
-1.4027070753326987

>  <r_i_glide_ecoul>  (1) 
-4.9880894391087294

>  <r_i_glide_eff_state_penalty>  (1) 
-0

>  <r_i_glide_einternal>  (1) 
0.017871215469487889

>  <r_i_glide_emodel>  (1) 
-14.346183709477511

>  <r_i_glide_emodel_strain>  (1) 
0

>  <r_i_glide_energy>  (1) 
-12.668413921059109

>  <r_i_glide_erotb>  (1) 
2.43552256463113

>  <r_i_glide_esite>  (1) 
0

>  <r_i_glide_evdw>  (1) 
-7.6803244819503806

>  <r_i_glide_gscore>  (1) 
-1.4027070753326987

>  <r_i_glide_gscore_strain>  (1) 
0

>  <r_i_glide_hbond>  (1) 
-0.45599999999999996

>  <r_i_glide_ligand_efficiency>  (1) 
-0.35067676883317467

>  <r_i_glide_ligand_efficiency_ln>  (1) 
-0.58781812427969138

>  <r_i_glide_ligand_efficiency_sa>  (1) 
-0.55666467174659051

>  <r_i_glide_lipo>  (1) 
0

>  <r_i_glide_metal>  (1) 
-0

>  <r_i_glide_rewards>  (1) 
-2.25

>  <r_lp_Energy>  (1) 
2.5073979999999998

>  <r_lp_tautomer_probability>  (1) 
1

>  <s_epik_cmdline>  (1) 
J2VwaWtfcHl0aG9uJywgJy1waHQnLCAnMS4wJywgJy1waCcsICc3LjQnLCAnLXRuJywgJzgnLCAnLW1hJywgJzUwMCcsICctaW1hZScsICc8aW5maWxlLm1hZT4nLCAnLW9tYWUnLCAnPG91dGZpbGUubWFlPic=

>  <s_epik_input>  (1) 
W09IXVtDSDJdW0NIMl1bT0hd

>  <s_glide_docking_method>  (1) 
confgen

>  <s_i_glide_gridfile>  (1) 
gpcr_5ht2c_6bqh_protein_autoprepared_prepared

>  <s_lp_Force_Field>  (1) 
S-OPLS

>  <s_lp_Variant>  (1) 
Pocket2Mol_31_num_sample_50-1

>  <s_m_source_file>  (1) 
generated__ligand_Pocket2Mol_2026-05-06_prepared.sdf

>  <GenAI_Model>  (1) 
Pocket2Mol

>  <Protein>  (1) 
GPCR_5HT2C

$$$$
