Structure16
     RDKit          3D

  0  0  0  0  0  0  0  0  0  0999 V3000
M  V30 BEGIN CTAB
M  V30 COUNTS 50 52 0 0 1
M  V30 BEGIN ATOM
M  V30 1 C 10.389543 5.937122 -7.970741 0
M  V30 2 C 8.917220 6.367577 -8.107177 0
M  V30 3 C 11.701573 6.577872 -3.786928 0
M  V30 4 C 12.169436 6.722110 -2.491747 0
M  V30 5 C 12.469394 7.982349 -2.013908 0
M  V30 6 C 12.284169 9.108458 -2.810805 0
M  V30 7 C 11.830077 8.970673 -4.115590 0
M  V30 8 C 11.537186 7.694448 -4.617061 0
M  V30 9 C 11.069041 7.549520 -6.025298 0
M  V30 10 C 10.905717 6.110377 -6.536893 0
M  V30 11 C 8.065239 4.914437 -10.056330 0
M  V30 12 C 7.329477 5.077251 -11.401948 0
M  V30 13 C 8.113023 5.866458 -12.478369 0 CFG=2
M  V30 14 C 8.638160 7.201827 -11.890105 0
M  V30 15 C 9.340554 7.088774 -10.532058 0
M  V30 16 C 7.254605 6.080530 -13.736036 0
M  V30 17 C 7.475232 5.325392 -14.898543 0
M  V30 18 C 6.734272 5.562444 -16.054130 0
M  V30 19 C 5.766859 6.564683 -16.061123 0
M  V30 20 C 5.516394 7.305560 -14.911758 0
M  V30 21 C 6.232592 7.040972 -13.745637 0
M  V30 22 F 12.950577 8.122249 -0.761982 0
M  V30 23 N 8.421648 6.326874 -9.563855 0 CFG=2 CHG=1
M  V30 24 O 10.856845 8.508944 -6.769769 0
M  V30 25 O 9.276541 5.113972 -12.749903 0
M  V30 26 Cl 4.860439 6.880963 -17.495647 0
M  V30 27 H 11.037699 6.515601 -8.620310 0
M  V30 28 H 10.497521 4.892971 -8.260591 0
M  V30 29 H 8.747707 7.407942 -7.795907 0
M  V30 30 H 8.230084 5.751775 -7.515215 0
M  V30 31 H 11.479252 5.580144 -4.115643 0
M  V30 32 H 12.295740 5.864162 -1.848528 0
M  V30 33 H 12.500652 10.081519 -2.402442 0
M  V30 34 H 11.707214 9.850942 -4.729532 0
M  V30 35 H 11.864219 5.605852 -6.422990 0
M  V30 36 H 10.207529 5.630424 -5.855838 0
M  V30 37 H 8.990521 4.339239 -10.156895 0
M  V30 38 H 7.415811 4.446954 -9.309408 0
M  V30 39 H 6.349709 5.532583 -11.241532 0
M  V30 40 H 7.079953 4.089722 -11.795141 0
M  V30 41 H 7.838483 7.938044 -11.824444 0
M  V30 42 H 9.318416 7.665072 -12.602149 0
M  V30 43 H 9.540698 8.073148 -10.093859 0
M  V30 44 H 10.264434 6.513822 -10.633941 0
M  V30 45 H 8.225747 4.550316 -14.925669 0
M  V30 46 H 6.911795 4.978275 -16.948577 0
M  V30 47 H 4.759178 8.074900 -14.932203 0
M  V30 48 H 5.984206 7.599500 -12.854639 0
M  V30 49 H 7.523049 6.847817 -9.558591 0
M  V30 50 H 9.895073 5.678794 -13.223872 0
M  V30 END ATOM
M  V30 BEGIN BOND
M  V30 1 1 2 1
M  V30 2 2 4 3
M  V30 3 1 5 4
M  V30 4 2 6 5
M  V30 5 1 7 6
M  V30 6 1 8 3
M  V30 7 2 8 7
M  V30 8 1 9 8
M  V30 9 1 10 1
M  V30 10 1 10 9
M  V30 11 1 12 11
M  V30 12 1 13 12
M  V30 13 1 14 13
M  V30 14 1 15 14
M  V30 15 1 16 13
M  V30 16 2 17 16
M  V30 17 1 18 17
M  V30 18 2 19 18
M  V30 19 1 20 19
M  V30 20 1 21 16
M  V30 21 2 21 20
M  V30 22 1 22 5
M  V30 23 1 23 2
M  V30 24 1 23 11
M  V30 25 1 23 15
M  V30 26 2 24 9
M  V30 27 1 13 25 CFG=3
M  V30 28 1 26 19
M  V30 29 1 27 1
M  V30 30 1 28 1
M  V30 31 1 29 2
M  V30 32 1 30 2
M  V30 33 1 31 3
M  V30 34 1 32 4
M  V30 35 1 33 6
M  V30 36 1 34 7
M  V30 37 1 35 10
M  V30 38 1 36 10
M  V30 39 1 37 11
M  V30 40 1 38 11
M  V30 41 1 39 12
M  V30 42 1 40 12
M  V30 43 1 41 14
M  V30 44 1 42 14
M  V30 45 1 43 15
M  V30 46 1 44 15
M  V30 47 1 45 17
M  V30 48 1 46 18
M  V30 49 1 47 20
M  V30 50 1 48 21
M  V30 51 1 23 49 CFG=1
M  V30 52 1 50 25
M  V30 END BOND
M  V30 END CTAB
M  END
>  <b_m_subgroup_collapsed>  (1) 
0

>  <s_m_entry_name>  (1) 
Structure16

>  <s_m_subgroup_title>  (1) 
gpcr_drd2_protwizard-out

>  <s_m_subgroupid>  (1) 
gpcr_drd2_protwizard-out

$$$$
