DiffSBDD_0
     RDKit          3D

 69 73  0  0  0  0  0  0  0  0999 V2000
    8.0290    0.1440  -16.7460 C   0  0  0  0  0  0  0  0  0  0  0  0
    7.6440   -0.1840  -15.3420 N   0  0  0  0  0  0  0  0  0  0  0  0
    6.9740    0.9690  -14.6810 C   0  0  0  0  0  0  0  0  0  0  0  0
    7.2990    2.2960  -14.5660 N   0  0  0  0  0  0  0  0  0  0  0  0
    6.2790    2.9890  -13.9510 C   0  0  0  0  0  0  0  0  0  0  0  0
    6.2130    4.4180  -13.6600 C   0  0  2  0  0  0  0  0  0  0  0  0
    5.8030    4.4560  -12.1260 C   0  0  1  0  0  0  0  0  0  0  0  0
    6.7560    4.0260  -11.0110 C   0  0  0  0  0  0  0  0  0  0  0  0
    7.7240    5.2660  -11.2550 C   0  0  1  0  0  0  0  0  0  0  0  0
    8.9240    6.1760  -10.6920 C   0  0  1  0  0  0  0  0  0  0  0  0
    9.6870    5.4680   -9.7250 O   0  0  0  0  0  0  0  0  0  0  0  0
    8.8500    5.1740   -8.6260 C   0  0  0  0  0  0  0  0  0  0  0  0
    9.4410    5.6230   -7.6680 C   0  0  0  0  0  0  0  0  0  0  0  0
    8.7540    7.1060   -7.2600 O   0  0  0  0  0  0  0  0  0  0  0  0
    9.4230    7.3950  -10.8360 N   0  0  0  0  0  0  0  0  0  0  0  0
   10.4970    8.1090  -10.0480 C   0  0  0  0  0  0  0  0  0  0  0  0
   11.5880    8.0150   -9.1410 C   0  0  0  0  0  0  0  0  0  0  0  0
   12.0140    9.0750   -8.7180 O   0  0  0  0  0  0  0  0  0  0  0  0
   12.0030    8.5170   -7.4730 C   0  0  0  0  0  0  0  0  0  0  0  0
   11.2290    9.3960   -6.2790 C   0  0  0  0  0  0  0  0  0  0  0  0
   11.7010    8.4130   -5.0850 C   0  0  2  0  0  0  0  0  0  0  0  0
   11.3310    7.1740   -4.9570 C   0  0  0  0  0  0  0  0  0  0  0  0
   11.4790    6.4990   -3.6540 C   0  0  0  0  0  0  0  0  0  0  0  0
   12.1620    7.2510   -2.8280 C   0  0  0  0  0  0  0  0  0  0  0  0
   12.8020    8.3330   -2.9940 C   0  0  0  0  0  0  0  0  0  0  0  0
   12.6190    8.7880   -4.1010 C   0  0  1  0  0  0  0  0  0  0  0  0
   13.4910    9.9880   -4.5830 F   0  0  0  0  0  0  0  0  0  0  0  0
    8.8570    8.4030  -11.6900 C   0  0  0  0  0  0  0  0  0  0  0  0
    7.6170    7.5890  -12.5300 C   0  0  0  0  0  0  0  0  0  0  0  0
    7.5410    6.1010  -12.4470 N   0  0  0  0  0  0  0  0  0  0  0  0
    6.1250    5.7340  -12.9500 C   0  0  1  0  0  0  0  0  0  0  0  0
    5.3410    2.2250  -13.6270 N   0  0  0  0  0  0  0  0  0  0  0  0
    5.7800    0.8970  -14.0880 O   0  0  0  0  0  0  0  0  0  0  0  0
    8.8663    0.8573  -16.7395 H   0  0  0  0  0  0  0  0  0  0  0  0
    8.3347   -0.7755  -17.2667 H   0  0  0  0  0  0  0  0  0  0  0  0
    7.1698    0.5919  -17.2667 H   0  0  0  0  0  0  0  0  0  0  0  0
    7.8190   -1.0920  -14.8880 H   0  0  0  0  0  0  0  0  0  0  0  0
    7.2756    4.4092  -13.3758 H   0  0  0  0  0  0  0  0  0  0  0  0
    4.9645    4.0579  -11.5357 H   0  0  0  0  0  0  0  0  0  0  0  0
    6.2909    4.0227  -10.0142 H   0  0  0  0  0  0  0  0  0  0  0  0
    7.1771    3.0100  -11.0336 H   0  0  0  0  0  0  0  0  0  0  0  0
    6.9930    5.9316  -10.7727 H   0  0  0  0  0  0  0  0  0  0  0  0
    8.2648    6.5528   -9.8960 H   0  0  0  0  0  0  0  0  0  0  0  0
    7.8703    5.6605   -8.7419 H   0  0  0  0  0  0  0  0  0  0  0  0
    8.6499    4.0968   -8.5279 H   0  0  0  0  0  0  0  0  0  0  0  0
    9.3538    4.9282   -6.8197 H   0  0  0  0  0  0  0  0  0  0  0  0
   10.5055    5.7560   -7.9114 H   0  0  0  0  0  0  0  0  0  0  0  0
    8.0500    7.3360   -7.9160 H   0  0  0  0  0  0  0  0  0  0  0  0
   10.3845    9.1785  -10.2794 H   0  0  0  0  0  0  0  0  0  0  0  0
   12.0191    7.0485   -8.8410 H   0  0  0  0  0  0  0  0  0  0  0  0
   11.5042    7.5394   -7.5473 H   0  0  0  0  0  0  0  0  0  0  0  0
   13.0574    8.4638   -7.1640 H   0  0  0  0  0  0  0  0  0  0  0  0
   11.6174   10.4199   -6.1752 H   0  0  0  0  0  0  0  0  0  0  0  0
   10.1529    9.5928   -6.3944 H   0  0  0  0  0  0  0  0  0  0  0  0
   12.5629    8.0932   -5.6890 H   0  0  0  0  0  0  0  0  0  0  0  0
   10.2636    7.1309   -5.2194 H   0  0  0  0  0  0  0  0  0  0  0  0
   12.0294    6.6290   -5.6091 H   0  0  0  0  0  0  0  0  0  0  0  0
   10.4825    6.3062   -3.2299 H   0  0  0  0  0  0  0  0  0  0  0  0
   12.0156    5.5502   -3.8013 H   0  0  0  0  0  0  0  0  0  0  0  0
   11.4323    7.5010   -2.0438 H   0  0  0  0  0  0  0  0  0  0  0  0
   13.0430    6.5954   -2.7647 H   0  0  0  0  0  0  0  0  0  0  0  0
   12.4665    9.0660   -2.2456 H   0  0  0  0  0  0  0  0  0  0  0  0
   13.8754    8.1220   -2.8789 H   0  0  0  0  0  0  0  0  0  0  0  0
   11.8792    9.4907   -3.6899 H   0  0  0  0  0  0  0  0  0  0  0  0
    8.4465    9.2326  -11.0957 H   0  0  0  0  0  0  0  0  0  0  0  0
    9.6011    8.8501  -12.3656 H   0  0  0  0  0  0  0  0  0  0  0  0
    6.6611    7.9818  -12.1531 H   0  0  0  0  0  0  0  0  0  0  0  0
    7.8456    7.7821  -13.5885 H   0  0  0  0  0  0  0  0  0  0  0  0
    5.6275    6.6834  -13.1973 H   0  0  0  0  0  0  0  0  0  0  0  0
  1  2  1  0
  2  3  1  0
  3  4  2  0
  4  5  1  0
  5  6  1  0
  6  7  1  0
  7  8  1  0
  8  9  1  0
  9 10  1  0
 10 11  1  0
 11 12  1  0
 12 13  1  0
 13 14  1  0
 10 15  1  0
 15 16  1  0
 16 17  2  3
 17 18  1  0
 18 19  1  0
 19 20  1  0
 20 21  1  0
 21 22  1  0
 22 23  1  0
 23 24  1  0
 24 25  1  0
 25 26  1  0
 26 27  1  0
 15 28  1  0
 28 29  1  0
 29 30  1  0
 30 31  1  0
  5 32  2  0
 32 33  1  0
 33  3  1  0
 31  6  1  0
 31  7  1  0
 30  9  1  0
 26 21  1  0
  1 34  1  0
  1 35  1  0
  1 36  1  0
  2 37  1  0
  6 38  1  6
  7 39  1  6
  8 40  1  0
  8 41  1  0
  9 42  1  6
 10 43  1  1
 12 44  1  0
 12 45  1  0
 13 46  1  0
 13 47  1  0
 14 48  1  0
 16 49  1  0
 17 50  1  0
 19 51  1  0
 19 52  1  0
 20 53  1  0
 20 54  1  0
 21 55  1  1
 22 56  1  0
 22 57  1  0
 23 58  1  0
 23 59  1  0
 24 60  1  0
 24 61  1  0
 25 62  1  0
 25 63  1  0
 26 64  1  1
 28 65  1  0
 28 66  1  0
 29 67  1  0
 29 68  1  0
 31 69  1  6
M  END
>  <ID>  (1) 
DiffSBDD_0_0

>  <docking_score>  (1) 
-9.189

$$$$
DiffSBDD_10
     RDKit          3D

 47 52  0  0  0  0  0  0  0  0999 V2000
    7.5930    4.7110  -19.6220 C   0  0  0  0  0  0  0  0  0  0  0  0
    7.1300    4.5040  -18.2840 C   0  0  1  0  0  0  0  0  0  0  0  0
    8.1060    3.1860  -17.6780 O   0  0  0  0  0  0  0  0  0  0  0  0
    8.0260    3.8190  -16.1140 S   0  0  0  0  0  0  0  0  0  0  0  0
    9.2150    4.1030  -15.9490 O   0  0  0  0  0  0  0  0  0  0  0  0
    7.1830    3.0260  -15.5160 O   0  0  0  0  0  0  0  0  0  0  0  0
    6.9720    5.6900  -15.5080 C   0  0  2  0  0  0  0  0  0  0  0  0
    6.8350    5.5270  -14.1880 C   0  0  1  0  0  0  0  0  0  0  0  0
    5.9890    4.8430  -13.8000 O   0  0  0  0  0  0  0  0  0  0  0  0
    5.9450    4.3310  -12.5480 C   0  0  2  0  0  0  0  0  0  0  0  0
    5.2930    4.8660  -11.3630 C   0  0  0  0  0  0  0  0  0  0  0  0
    6.7110    5.4580  -11.5920 C   0  0  1  0  0  0  0  0  0  0  0  0
    7.9860    5.2600  -12.1750 C   0  0  2  0  0  0  0  0  0  0  0  0
    8.3540    3.8560  -12.3030 F   0  0  0  0  0  0  0  0  0  0  0  0
    8.9300    5.7690  -11.2540 C   0  0  0  0  0  0  0  0  0  0  0  0
   10.0210    6.1360  -12.2440 C   0  0  0  0  0  0  0  0  0  0  0  0
    9.5380    5.6260  -13.4760 O   0  0  0  0  0  0  0  0  0  0  0  0
    8.0950    5.9560  -13.5020 C   0  0  1  0  0  0  0  0  0  0  0  0
    5.9600    6.4580  -15.4310 C   0  0  1  0  0  0  0  0  0  0  0  0
    6.0120    7.7180  -14.8810 F   0  0  0  0  0  0  0  0  0  0  0  0
    4.7710    6.2840  -16.3610 C   0  0  0  0  0  0  0  0  0  0  0  0
    5.6560    6.4130  -17.6460 C   0  0  2  0  0  0  0  0  0  0  0  0
    5.5420    7.5700  -18.2040 O   0  0  0  0  0  0  0  0  0  0  0  0
    5.4800    6.5560  -19.2550 C   0  0  2  0  0  0  0  0  0  0  0  0
    5.2460    5.3700  -19.7710 F   0  0  0  0  0  0  0  0  0  0  0  0
    7.1250    5.7560  -17.5000 C   0  0  2  0  0  0  0  0  0  0  0  0
    8.1320    6.5840  -17.7490 F   0  0  0  0  0  0  0  0  0  0  0  0
    8.5970    5.1599  -19.5973 H   0  0  0  0  0  0  0  0  0  0  0  0
    7.6356    3.7462  -20.1487 H   0  0  0  0  0  0  0  0  0  0  0  0
    6.9024    5.3861  -20.1487 H   0  0  0  0  0  0  0  0  0  0  0  0
    6.0705    4.2165  -18.2143 H   0  0  0  0  0  0  0  0  0  0  0  0
    9.3820    5.0240  -16.2700 H   0  0  0  0  0  0  0  0  0  0  0  0
    6.2720    3.1870  -15.8680 H   0  0  0  0  0  0  0  0  0  0  0  0
    7.4621    6.1015  -16.4027 H   0  0  0  0  0  0  0  0  0  0  0  0
    5.9124    3.2856  -12.8888 H   0  0  0  0  0  0  0  0  0  0  0  0
    4.4189    5.5215  -11.4903 H   0  0  0  0  0  0  0  0  0  0  0  0
    4.8354    4.3738  -10.4922 H   0  0  0  0  0  0  0  0  0  0  0  0
    7.0491    6.3155  -10.9917 H   0  0  0  0  0  0  0  0  0  0  0  0
    8.5494    6.6462  -10.7103 H   0  0  0  0  0  0  0  0  0  0  0  0
    9.2260    5.0880  -10.4425 H   0  0  0  0  0  0  0  0  0  0  0  0
   10.1540    7.2267  -12.2955 H   0  0  0  0  0  0  0  0  0  0  0  0
   11.0042    5.7271  -11.9679 H   0  0  0  0  0  0  0  0  0  0  0  0
    8.0326    6.9556  -13.9569 H   0  0  0  0  0  0  0  0  0  0  0  0
    4.2797    5.3045  -16.2646 H   0  0  0  0  0  0  0  0  0  0  0  0
    3.9042    6.9511  -16.2445 H   0  0  0  0  0  0  0  0  0  0  0  0
    5.5022    6.7977  -20.3279 H   0  0  0  0  0  0  0  0  0  0  0  0
    7.3171    5.5171  -16.4436 H   0  0  0  0  0  0  0  0  0  0  0  0
  1  2  1  0
  2  3  1  0
  3  4  1  0
  4  5  1  0
  4  6  1  0
  4  7  1  0
  7  8  1  0
  8  9  1  6
  9 10  1  0
 10 11  1  0
 11 12  1  0
 12 13  1  0
 13 14  1  6
 13 15  1  0
 15 16  1  0
 16 17  1  0
 17 18  1  0
  8 19  1  0
 19 20  1  1
 19 21  1  0
 21 22  1  0
 22 23  1  1
 23 24  1  0
 24 25  1  0
 22 26  1  0
 26 27  1  0
 26  2  1  0
 19  7  1  0
 24 22  1  0
 18  8  1  0
 12 10  1  0
 18 13  1  0
  1 28  1  0
  1 29  1  0
  1 30  1  0
  2 31  1  6
  5 32  1  0
  6 33  1  0
  7 34  1  1
 10 35  1  6
 11 36  1  0
 11 37  1  0
 12 38  1  6
 15 39  1  0
 15 40  1  0
 16 41  1  0
 16 42  1  0
 18 43  1  1
 21 44  1  0
 21 45  1  0
 24 46  1  6
 26 47  1  1
M  END
>  <ID>  (2) 
DiffSBDD_10_0

>  <docking_score>  (2) 
-7.427

$$$$
DiffSBDD_11
     RDKit          3D

 46 47  0  0  0  0  0  0  0  0999 V2000
   11.8980    9.9700   -6.2830 C   0  0  0  0  0  0  0  0  0  0  0  0
   10.9330    9.2270   -6.0430 N   0  0  0  0  0  0  0  0  0  0  0  0
   10.9200    7.7890   -6.9760 C   0  0  0  0  0  0  0  0  0  0  0  0
    9.9840    7.8300   -7.8340 C   0  0  1  0  0  0  0  0  0  0  0  0
    8.8360    8.4820   -7.2650 O   0  0  0  0  0  0  0  0  0  0  0  0
   10.5270    7.7800   -8.9770 C   0  0  0  0  0  0  0  0  0  0  0  0
    9.6120    7.2390  -10.0250 C   0  0  0  0  0  0  0  0  0  0  0  0
    9.0510    5.8690   -9.5170 C   0  0  0  0  0  0  0  0  0  0  0  0
    9.0140    4.9280  -10.4350 C   0  0  0  0  0  0  0  0  0  0  0  0
    7.4310    4.7370  -11.1050 C   0  0  0  0  0  0  0  0  0  0  0  0
    6.1920    4.4010  -10.5920 O   0  0  0  0  0  0  0  0  0  0  0  0
    7.3370    4.8890  -12.4990 N   0  0  0  0  0  0  0  0  0  0  0  0
    8.2000    4.0070  -13.3400 N   0  0  0  0  0  0  0  0  0  0  0  0
    8.1960    4.5790  -14.4830 C   0  0  0  0  0  0  0  0  0  0  0  0
    8.7320    4.1360  -15.5660 N   0  0  0  0  0  0  0  0  0  0  0  0
    7.4500    5.7840  -14.3840 C   0  0  0  0  0  0  0  0  0  0  0  0
    6.7570    6.1870  -15.5380 C   0  0  0  0  0  0  0  0  0  0  0  0
    6.6680    6.5940  -16.4870 N   0  0  0  0  0  0  0  0  0  0  0  0
    6.8500    5.9410  -13.2290 C   0  0  0  0  0  0  0  0  0  0  0  0
    6.0440    7.1520  -13.2640 C   0  0  0  0  0  0  0  0  0  0  0  0
   11.3530    6.3270   -6.6350 C   0  0  0  0  0  0  0  0  0  0  0  0
   10.9330    6.8670   -5.5080 C   0  0  0  0  0  0  0  0  0  0  0  0
   12.3419   10.3118   -5.3364 H   0  0  0  0  0  0  0  0  0  0  0  0
   12.6515    9.4167   -6.8627 H   0  0  0  0  0  0  0  0  0  0  0  0
   11.5557   10.8400   -6.8627 H   0  0  0  0  0  0  0  0  0  0  0  0
   10.9620    8.9680   -5.0470 H   0  0  0  0  0  0  0  0  0  0  0  0
   10.0820    9.7530   -6.2890 H   0  0  0  0  0  0  0  0  0  0  0  0
    9.2576    7.0744   -8.1677 H   0  0  0  0  0  0  0  0  0  0  0  0
    9.1280    9.0990   -6.5490 H   0  0  0  0  0  0  0  0  0  0  0  0
   10.8322    8.7963   -9.2666 H   0  0  0  0  0  0  0  0  0  0  0  0
   11.3899    7.1014   -8.9061 H   0  0  0  0  0  0  0  0  0  0  0  0
    8.7830    7.9416  -10.1956 H   0  0  0  0  0  0  0  0  0  0  0  0
   10.1544    7.1022  -10.9722 H   0  0  0  0  0  0  0  0  0  0  0  0
    9.6882    5.5202   -8.6910 H   0  0  0  0  0  0  0  0  0  0  0  0
    8.0112    6.0488   -9.2065 H   0  0  0  0  0  0  0  0  0  0  0  0
    9.7119    5.1927  -11.2430 H   0  0  0  0  0  0  0  0  0  0  0  0
    9.2979    3.9779   -9.9588 H   0  0  0  0  0  0  0  0  0  0  0  0
    9.7410    3.9290  -15.5950 H   0  0  0  0  0  0  0  0  0  0  0  0
    8.1520    3.9880  -16.4040 H   0  0  0  0  0  0  0  0  0  0  0  0
    5.8271    7.4779  -12.2360 H   0  0  0  0  0  0  0  0  0  0  0  0
    6.5955    7.9444  -13.7912 H   0  0  0  0  0  0  0  0  0  0  0  0
    5.1001    6.9491  -13.7912 H   0  0  0  0  0  0  0  0  0  0  0  0
   10.7557    5.5069   -7.0601 H   0  0  0  0  0  0  0  0  0  0  0  0
   12.3084    5.8238   -6.8448 H   0  0  0  0  0  0  0  0  0  0  0  0
    9.9858    6.5351   -5.0578 H   0  0  0  0  0  0  0  0  0  0  0  0
   11.3603    7.0064   -4.5040 H   0  0  0  0  0  0  0  0  0  0  0  0
  1  2  1  0
  2  3  1  0
  3  4  1  0
  4  5  1  0
  4  6  1  0
  6  7  1  0
  7  8  1  0
  8  9  1  0
  9 10  1  0
 10 11  2  0
 10 12  1  0
 12 13  1  0
 13 14  2  0
 14 15  1  0
 14 16  1  0
 16 17  1  0
 17 18  3  0
 16 19  2  0
 19 20  1  0
  3 21  1  0
 21 22  1  0
 22  3  1  0
 19 12  1  0
  1 23  1  0
  1 24  1  0
  1 25  1  0
  2 26  1  0
  2 27  1  0
  4 28  1  1
  5 29  1  0
  6 30  1  0
  6 31  1  0
  7 32  1  0
  7 33  1  0
  8 34  1  0
  8 35  1  0
  9 36  1  0
  9 37  1  0
 15 38  1  0
 15 39  1  0
 20 40  1  0
 20 41  1  0
 20 42  1  0
 21 43  1  0
 21 44  1  0
 22 45  1  0
 22 46  1  0
M  CHG  1   2   1
M  END
>  <ID>  (3) 
DiffSBDD_11_0

>  <docking_score>  (3) 
-8.239

$$$$
DiffSBDD_12
     RDKit          3D

 55 56  0  0  0  0  0  0  0  0999 V2000
    6.2650    7.1930  -14.3880 C   0  0  0  0  0  0  0  0  0  0  0  0
    6.0110    6.3610  -13.1520 C   0  0  0  0  0  0  0  0  0  0  0  0
    5.6410    4.9230  -13.5150 C   0  0  1  0  0  0  0  0  0  0  0  0
    6.6220    4.8630  -14.4000 F   0  0  0  0  0  0  0  0  0  0  0  0
    6.0540    3.8390  -12.4870 C   0  0  0  0  0  0  0  0  0  0  0  0
    6.7610    4.7500  -11.4730 C   0  0  0  0  0  0  0  0  0  0  0  0
    8.2440    4.3530  -11.5650 C   0  0  0  0  0  0  0  0  0  0  0  0
    8.6740    3.3630  -12.2100 O   0  0  0  0  0  0  0  0  0  0  0  0
    9.1890    5.3450  -10.9710 C   0  0  1  0  0  0  0  0  0  0  0  0
    9.3860    6.5400  -11.8500 C   0  0  0  0  0  0  0  0  0  0  0  0
   10.6050    7.3130  -11.3320 C   0  0  0  0  0  0  0  0  0  0  0  0
   10.6310    7.5580   -9.8320 C   0  0  0  0  0  0  0  0  0  0  0  0
   10.1660    6.4190   -9.0680 C   0  0  1  0  0  0  0  0  0  0  0  0
    9.8800    6.9670   -7.6780 C   0  0  0  0  0  0  0  0  0  0  0  0
   10.7950    6.4860   -6.8410 O   0  0  0  0  0  0  0  0  0  0  0  0
   11.1900    7.0380   -5.6780 C   0  0  0  0  0  0  0  0  0  0  0  0
   11.3860    6.4820   -4.3900 C   0  0  0  0  0  0  0  0  0  0  0  0
   11.8840    7.3590   -3.4490 C   0  0  1  0  0  0  0  0  0  0  0  0
   12.1930    6.9270   -2.1320 C   0  0  0  0  0  0  0  0  0  0  0  0
   12.1200    8.7630   -3.7200 C   0  0  0  0  0  0  0  0  0  0  0  0
   12.4950    9.4810   -2.8400 O   0  0  0  0  0  0  0  0  0  0  0  0
   11.8930    9.1420   -5.0120 C   0  0  0  0  0  0  0  0  0  0  0  0
   11.2940    8.2940   -5.9030 C   0  0  0  0  0  0  0  0  0  0  0  0
    8.9030    5.8110   -9.5890 C   0  0  0  0  0  0  0  0  0  0  0  0
    6.5742    8.2060  -14.0909 H   0  0  0  0  0  0  0  0  0  0  0  0
    7.0618    6.7270  -14.9863 H   0  0  0  0  0  0  0  0  0  0  0  0
    5.3438    7.2515  -14.9863 H   0  0  0  0  0  0  0  0  0  0  0  0
    6.9207    6.3514  -12.5337 H   0  0  0  0  0  0  0  0  0  0  0  0
    5.1697    6.8068  -12.6011 H   0  0  0  0  0  0  0  0  0  0  0  0
    4.5720    4.7554  -13.7130 H   0  0  0  0  0  0  0  0  0  0  0  0
    5.1833    3.3284  -12.0498 H   0  0  0  0  0  0  0  0  0  0  0  0
    6.6543    3.0068  -12.8834 H   0  0  0  0  0  0  0  0  0  0  0  0
    6.6247    5.8083  -11.7403 H   0  0  0  0  0  0  0  0  0  0  0  0
    6.3596    4.6331  -10.4555 H   0  0  0  0  0  0  0  0  0  0  0  0
   10.1111    4.7497  -10.8975 H   0  0  0  0  0  0  0  0  0  0  0  0
    9.5620    6.2162  -12.8864 H   0  0  0  0  0  0  0  0  0  0  0  0
    8.4914    7.1798  -11.8315 H   0  0  0  0  0  0  0  0  0  0  0  0
   11.5071    6.7428  -11.5987 H   0  0  0  0  0  0  0  0  0  0  0  0
   10.5562    8.3067  -11.8011 H   0  0  0  0  0  0  0  0  0  0  0  0
   11.6645    7.7845   -9.5310 H   0  0  0  0  0  0  0  0  0  0  0  0
    9.9510    8.3968   -9.6221 H   0  0  0  0  0  0  0  0  0  0  0  0
   10.9278    5.6265   -9.1084 H   0  0  0  0  0  0  0  0  0  0  0  0
    9.9319    8.0657   -7.6938 H   0  0  0  0  0  0  0  0  0  0  0  0
    8.8737    6.6651   -7.3522 H   0  0  0  0  0  0  0  0  0  0  0  0
   11.1584    5.4311   -4.1579 H   0  0  0  0  0  0  0  0  0  0  0  0
   10.8590    7.5987   -3.1299 H   0  0  0  0  0  0  0  0  0  0  0  0
   11.7132    7.5978   -1.4041 H   0  0  0  0  0  0  0  0  0  0  0  0
   11.8221    5.9018   -1.9859 H   0  0  0  0  0  0  0  0  0  0  0  0
   13.2831    6.9468   -1.9859 H   0  0  0  0  0  0  0  0  0  0  0  0
   11.2635   10.0429   -4.9670 H   0  0  0  0  0  0  0  0  0  0  0  0
   12.9112    9.2366   -5.4173 H   0  0  0  0  0  0  0  0  0  0  0  0
   10.2690    8.6679   -6.0429 H   0  0  0  0  0  0  0  0  0  0  0  0
   11.9923    8.3199   -6.7525 H   0  0  0  0  0  0  0  0  0  0  0  0
    8.6029    4.9618   -8.9575 H   0  0  0  0  0  0  0  0  0  0  0  0
    8.0807    6.5416   -9.5811 H   0  0  0  0  0  0  0  0  0  0  0  0
  1  2  1  0
  2  3  1  0
  3  4  1  0
  3  5  1  0
  5  6  1  0
  6  7  1  0
  7  8  2  0
  7  9  1  0
  9 10  1  0
 10 11  1  0
 11 12  1  0
 12 13  1  0
 13 14  1  0
 14 15  1  0
 15 16  1  0
 16 17  2  0
 17 18  1  0
 18 19  1  0
 18 20  1  0
 20 21  2  0
 20 22  1  0
 22 23  1  0
 13 24  1  0
 24  9  1  0
 23 16  1  0
  1 25  1  0
  1 26  1  0
  1 27  1  0
  2 28  1  0
  2 29  1  0
  3 30  1  6
  5 31  1  0
  5 32  1  0
  6 33  1  0
  6 34  1  0
  9 35  1  1
 10 36  1  0
 10 37  1  0
 11 38  1  0
 11 39  1  0
 12 40  1  0
 12 41  1  0
 13 42  1  1
 14 43  1  0
 14 44  1  0
 17 45  1  0
 18 46  1  1
 19 47  1  0
 19 48  1  0
 19 49  1  0
 22 50  1  0
 22 51  1  0
 23 52  1  0
 23 53  1  0
 24 54  1  0
 24 55  1  0
M  END
>  <ID>  (4) 
DiffSBDD_12_0

>  <docking_score>  (4) 
-9.118

$$$$
DiffSBDD_13
     RDKit          3D

 48 50  0  0  0  0  0  0  0  0999 V2000
   12.0600    9.4920   -3.2700 C   0  0  0  0  0  0  0  0  0  0  0  0
   11.9120    8.7570   -4.3600 N   0  0  0  0  0  0  0  0  0  0  0  0
   11.6120    8.7180   -5.6560 C   0  0  2  0  0  0  0  0  0  0  0  0
   11.0250    7.2790   -5.9710 C   0  0  0  0  0  0  0  0  0  0  0  0
   11.3190    6.8510   -5.0110 C   0  0  0  0  0  0  0  0  0  0  0  0
   11.4990    6.5020   -4.0340 O   0  0  0  0  0  0  0  0  0  0  0  0
   10.7160    7.0090   -7.3150 C   0  0  0  0  0  0  0  0  0  0  0  0
   10.9590    7.8220   -8.3620 C   0  0  0  0  0  0  0  0  0  0  0  0
   10.7070    7.1860   -9.7280 C   0  0  0  0  0  0  0  0  0  0  0  0
   10.1810    6.7910  -10.7310 C   0  0  0  0  0  0  0  0  0  0  0  0
    9.4840    6.5910  -12.0920 C   0  0  0  0  0  0  0  0  0  0  0  0
    8.3490    5.3640  -12.2000 C   0  0  0  0  0  0  0  0  0  0  0  0
    8.0600    4.9730  -10.8140 C   0  0  2  0  0  0  0  0  0  0  0  0
    8.5420    4.6860   -9.2260 C   0  0  0  0  0  0  0  0  0  0  0  0
    7.1300    4.3280  -11.0120 C   0  0  0  0  0  0  0  0  0  0  0  0
    6.0570    4.1130  -11.7200 C   0  0  0  0  0  0  0  0  0  0  0  0
    6.8480    3.8750  -13.1300 N   0  0  0  0  0  0  0  0  0  0  0  0
    7.7560    5.0610  -13.2580 C   0  0  2  0  0  0  0  0  0  0  0  0
    8.5800    4.6690  -14.5560 C   0  0  0  0  0  0  0  0  0  0  0  0
    7.5710    4.1620  -15.5610 C   0  0  0  0  0  0  0  0  0  0  0  0
    7.1440    3.1740  -14.4420 C   0  0  2  0  0  0  0  0  0  0  0  0
    6.5680    1.7470  -15.0370 C   0  0  0  0  0  0  0  0  0  0  0  0
    7.5680    0.8510  -14.8330 F   0  0  0  0  0  0  0  0  0  0  0  0
    6.4060    1.6470  -16.3400 F   0  0  0  0  0  0  0  0  0  0  0  0
    5.3980    1.4970  -14.3380 F   0  0  0  0  0  0  0  0  0  0  0  0
   11.5350    9.1650   -7.9580 C   0  0  0  0  0  0  0  0  0  0  0  0
   11.8300    9.4350   -6.6820 C   0  0  0  0  0  0  0  0  0  0  0  0
   12.0810   10.8330   -5.9100 F   0  0  0  0  0  0  0  0  0  0  0  0
   12.3541    9.0173   -2.3223 H   0  0  0  0  0  0  0  0  0  0  0  0
   11.8889   10.5778   -3.3114 H   0  0  0  0  0  0  0  0  0  0  0  0
   11.5188    9.8083   -5.5436 H   0  0  0  0  0  0  0  0  0  0  0  0
   10.2313    6.0458   -7.5324 H   0  0  0  0  0  0  0  0  0  0  0  0
    9.7225    7.2281  -12.9565 H   0  0  0  0  0  0  0  0  0  0  0  0
    8.6642    5.8346  -10.4937 H   0  0  0  0  0  0  0  0  0  0  0  0
    7.8067    5.1238   -8.5348 H   0  0  0  0  0  0  0  0  0  0  0  0
    8.6075    3.6017   -9.0530 H   0  0  0  0  0  0  0  0  0  0  0  0
    9.5265    5.1451   -9.0530 H   0  0  0  0  0  0  0  0  0  0  0  0
    7.6213    3.3526  -11.1430 H   0  0  0  0  0  0  0  0  0  0  0  0
    6.5474    4.9880  -10.3525 H   0  0  0  0  0  0  0  0  0  0  0  0
    5.4972    3.2259  -11.3890 H   0  0  0  0  0  0  0  0  0  0  0  0
    5.2738    4.8852  -11.7016 H   0  0  0  0  0  0  0  0  0  0  0  0
    7.2778    6.0417  -13.3980 H   0  0  0  0  0  0  0  0  0  0  0  0
    9.1051    5.5497  -14.9544 H   0  0  0  0  0  0  0  0  0  0  0  0
    9.3400    3.9059  -14.3322 H   0  0  0  0  0  0  0  0  0  0  0  0
    6.8025    4.8902  -15.8595 H   0  0  0  0  0  0  0  0  0  0  0  0
    7.8492    3.8339  -16.5734 H   0  0  0  0  0  0  0  0  0  0  0  0
    7.8543    2.5577  -13.8714 H   0  0  0  0  0  0  0  0  0  0  0  0
   11.7133    9.9304   -8.7277 H   0  0  0  0  0  0  0  0  0  0  0  0
  1  2  2  0
  2  3  1  0
  3  4  1  0
  4  5  2  0
  5  6  2  0
  4  7  1  0
  7  8  2  0
  8  9  1  0
  9 10  3  0
 10 11  1  0
 11 12  2  3
 12 13  1  0
 13 14  1  0
 13 15  1  0
 15 16  1  0
 16 17  1  0
 17 18  1  0
 18 19  1  0
 19 20  1  0
 20 21  1  0
 21 22  1  0
 22 23  1  0
 22 24  1  0
 22 25  1  0
  8 26  1  0
 26 27  2  0
 27 28  1  0
 27  3  1  0
 18 12  1  0
 21 17  1  0
  1 29  1  0
  1 30  1  0
  3 31  1  1
  7 32  1  0
 11 33  1  0
 13 34  1  1
 14 35  1  0
 14 36  1  0
 14 37  1  0
 15 38  1  0
 15 39  1  0
 16 40  1  0
 16 41  1  0
 18 42  1  6
 19 43  1  0
 19 44  1  0
 20 45  1  0
 20 46  1  0
 21 47  1  1
 26 48  1  0
M  END
>  <ID>  (5) 
DiffSBDD_13_0

>  <docking_score>  (5) 
-10.842

$$$$
DiffSBDD_14
     RDKit          3D

 71 74  0  0  0  0  0  0  0  0999 V2000
   12.6710    8.1390   -8.6910 C   0  0  0  0  0  0  0  0  0  0  0  0
   11.5070    7.6320   -7.6920 C   0  0  2  0  0  0  0  0  0  0  0  0
    9.9630    7.5760   -7.9970 C   0  0  2  0  0  0  0  0  0  0  0  0
    9.1510    6.2860   -7.5550 C   0  0  0  0  0  0  0  0  0  0  0  0
    9.7450    7.7580   -9.3350 C   0  0  0  0  0  0  0  0  0  0  0  0
    9.0320    7.4690  -10.2800 C   0  0  0  0  0  0  0  0  0  0  0  0
    9.1750    7.5410  -11.6640 N   0  0  0  0  0  0  0  0  0  0  0  0
    9.1830    6.1650  -12.2280 C   0  0  0  0  0  0  0  0  0  0  0  0
    9.8000    5.9080  -13.2260 O   0  0  0  0  0  0  0  0  0  0  0  0
    8.2450    5.2200  -11.4120 C   0  0  2  0  0  0  0  0  0  0  0  0
    8.9780    4.3180  -10.5300 C   0  0  0  0  0  0  0  0  0  0  0  0
    6.8790    5.0370  -11.8350 C   0  0  0  0  0  0  0  0  0  0  0  0
    6.2850    3.9900  -12.8840 C   0  0  0  0  0  0  0  0  0  0  0  0
    7.2720    3.0970  -13.6970 C   0  0  2  0  0  0  0  0  0  0  0  0
    7.8070    3.7540  -14.7670 O   0  0  0  0  0  0  0  0  0  0  0  0
    8.1620    2.9170  -15.8690 C   0  0  0  0  0  0  0  0  0  0  0  0
    6.7650    2.2220  -16.7090 C   0  0  0  0  0  0  0  0  0  0  0  0
    6.7900    1.0910  -15.6140 C   0  0  2  0  0  0  0  0  0  0  0  0
    5.5570    0.2440  -15.7050 C   0  0  0  0  0  0  0  0  0  0  0  0
    4.7740    0.6400  -14.4540 C   0  0  0  0  0  0  0  0  0  0  0  0
    5.7930    1.2810  -13.6700 O   0  0  0  0  0  0  0  0  0  0  0  0
    6.9020    1.5820  -14.1590 C   0  0  2  0  0  0  0  0  0  0  0  0
   11.5520    8.6270   -6.5350 C   0  0  2  0  0  0  0  0  0  0  0  0
   12.2500    9.9480   -6.5230 C   0  0  0  0  0  0  0  0  0  0  0  0
   12.6870   10.0970   -5.1800 O   0  0  0  0  0  0  0  0  0  0  0  0
   12.3160    9.1440   -4.2990 C   0  0  0  0  0  0  0  0  0  0  0  0
   11.8300    8.1850   -5.1490 C   0  0  0  0  0  0  0  0  0  0  0  0
   11.5090    6.8780   -4.6560 C   0  0  0  0  0  0  0  0  0  0  0  0
   11.6390    6.4620   -3.2820 C   0  0  0  0  0  0  0  0  0  0  0  0
   11.9200    6.9810   -2.1520 C   0  0  0  0  0  0  0  0  0  0  0  0
   12.2730    8.4210   -1.9750 C   0  0  0  0  0  0  0  0  0  0  0  0
   12.3150    9.3190   -3.0030 C   0  0  0  0  0  0  0  0  0  0  0  0
   13.5231    8.5102   -8.1027 H   0  0  0  0  0  0  0  0  0  0  0  0
   12.9999    7.3026   -9.3253 H   0  0  0  0  0  0  0  0  0  0  0  0
   12.2826    8.9494   -9.3253 H   0  0  0  0  0  0  0  0  0  0  0  0
   11.7711    6.5660   -7.6299 H   0  0  0  0  0  0  0  0  0  0  0  0
    9.5743    8.3852   -7.3613 H   0  0  0  0  0  0  0  0  0  0  0  0
    9.1173    6.2324   -6.4568 H   0  0  0  0  0  0  0  0  0  0  0  0
    8.1264    6.3442   -7.9509 H   0  0  0  0  0  0  0  0  0  0  0  0
    9.6466    5.3873   -7.9509 H   0  0  0  0  0  0  0  0  0  0  0  0
   10.5262    8.4373   -9.7069 H   0  0  0  0  0  0  0  0  0  0  0  0
    8.0585    7.0601   -9.9716 H   0  0  0  0  0  0  0  0  0  0  0  0
    9.2620    8.4100  -12.2100 H   0  0  0  0  0  0  0  0  0  0  0  0
    7.6700    5.7377  -10.6302 H   0  0  0  0  0  0  0  0  0  0  0  0
    8.7668    4.5779   -9.4822 H   0  0  0  0  0  0  0  0  0  0  0  0
    8.6629    3.2816  -10.7214 H   0  0  0  0  0  0  0  0  0  0  0  0
   10.0569    4.4145  -10.7214 H   0  0  0  0  0  0  0  0  0  0  0  0
    6.3291    4.8338  -10.9042 H   0  0  0  0  0  0  0  0  0  0  0  0
    6.7828    5.9447  -12.4489 H   0  0  0  0  0  0  0  0  0  0  0  0
    5.6225    3.3129  -12.3248 H   0  0  0  0  0  0  0  0  0  0  0  0
    5.8076    4.6213  -13.6478 H   0  0  0  0  0  0  0  0  0  0  0  0
    7.9774    2.9125  -12.8734 H   0  0  0  0  0  0  0  0  0  0  0  0
    8.7386    3.5159  -16.5893 H   0  0  0  0  0  0  0  0  0  0  0  0
    8.7451    2.0775  -15.4624 H   0  0  0  0  0  0  0  0  0  0  0  0
    5.8625    2.8508  -16.7038 H   0  0  0  0  0  0  0  0  0  0  0  0
    6.7799    1.9969  -17.7856 H   0  0  0  0  0  0  0  0  0  0  0  0
    7.7064    0.5261  -15.8399 H   0  0  0  0  0  0  0  0  0  0  0  0
    4.9866    0.4730  -16.6173 H   0  0  0  0  0  0  0  0  0  0  0  0
    5.7742   -0.8331  -15.7573 H   0  0  0  0  0  0  0  0  0  0  0  0
    3.9558    1.3346  -14.6950 H   0  0  0  0  0  0  0  0  0  0  0  0
    4.2817   -0.2031  -13.9471 H   0  0  0  0  0  0  0  0  0  0  0  0
    7.8345    1.1096  -13.8164 H   0  0  0  0  0  0  0  0  0  0  0  0
   10.5030    8.7378   -6.8469 H   0  0  0  0  0  0  0  0  0  0  0  0
   13.1059    9.9436   -7.2139 H   0  0  0  0  0  0  0  0  0  0  0  0
   11.5988   10.7724   -6.8489 H   0  0  0  0  0  0  0  0  0  0  0  0
   11.1360    6.1380   -5.3793 H   0  0  0  0  0  0  0  0  0  0  0  0
   11.4375    5.3856   -3.1786 H   0  0  0  0  0  0  0  0  0  0  0  0
   11.9015    6.3350   -1.2619 H   0  0  0  0  0  0  0  0  0  0  0  0
   12.5120    8.7776   -0.9622 H   0  0  0  0  0  0  0  0  0  0  0  0
   11.4406    9.9624   -2.8256 H   0  0  0  0  0  0  0  0  0  0  0  0
   13.3777    9.5850   -2.9039 H   0  0  0  0  0  0  0  0  0  0  0  0
  1  2  1  0
  2  3  1  0
  3  4  1  0
  3  5  1  0
  5  6  2  3
  6  7  1  0
  7  8  1  0
  8  9  2  0
  8 10  1  0
 10 11  1  0
 10 12  1  0
 12 13  1  0
 13 14  1  0
 14 15  1  0
 15 16  1  0
 16 17  1  0
 17 18  1  0
 18 19  1  0
 19 20  1  0
 20 21  1  0
 21 22  1  0
  2 23  1  0
 23 24  1  0
 24 25  1  0
 25 26  1  0
 26 27  2  0
 27 28  1  0
 28 29  2  0
 29 30  1  0
 30 31  2  0
 31 32  1  0
 22 14  1  0
 27 23  1  0
 22 18  1  0
 32 26  1  0
  1 33  1  0
  1 34  1  0
  1 35  1  0
  2 36  1  1
  3 37  1  1
  4 38  1  0
  4 39  1  0
  4 40  1  0
  5 41  1  0
  6 42  1  0
  7 43  1  0
 10 44  1  1
 11 45  1  0
 11 46  1  0
 11 47  1  0
 12 48  1  0
 12 49  1  0
 13 50  1  0
 13 51  1  0
 14 52  1  1
 16 53  1  0
 16 54  1  0
 17 55  1  0
 17 56  1  0
 18 57  1  6
 19 58  1  0
 19 59  1  0
 20 60  1  0
 20 61  1  0
 22 62  1  1
 23 63  1  1
 24 64  1  0
 24 65  1  0
 28 66  1  0
 29 67  1  0
 30 68  1  0
 31 69  1  0
 32 70  1  0
 32 71  1  0
M  END
>  <ID>  (6) 
DiffSBDD_14_0

>  <docking_score>  (6) 
-10.201

$$$$
DiffSBDD_15
     RDKit          3D

 46 47  0  0  0  0  0  0  0  0999 V2000
   12.6290    8.6930   -8.6030 O   0  0  0  0  0  0  0  0  0  0  0  0
   12.1360    8.4370   -7.7950 C   0  0  0  0  0  0  0  0  0  0  0  0
   10.8290    8.2970   -7.0790 C   0  0  2  0  0  0  0  0  0  0  0  0
    9.5500    8.0540   -7.3900 C   0  0  0  0  0  0  0  0  0  0  0  0
    9.0550    7.6000   -8.3880 N   0  0  0  0  0  0  0  0  0  0  0  0
    9.3790    6.2540   -8.5240 C   0  0  0  0  0  0  0  0  0  0  0  0
    9.4660    6.2560  -10.1890 C   0  0  2  0  0  0  0  0  0  0  0  0
   10.2700    7.6970  -11.1970 Cl  0  0  0  0  0  0  0  0  0  0  0  0
    8.9610    4.9630  -10.6190 C   0  0  2  0  0  0  0  0  0  0  0  0
    9.0350    3.9900  -11.3240 C   0  0  0  0  0  0  0  0  0  0  0  0
    8.0100    4.3990  -12.5750 C   0  0  0  0  0  0  0  0  0  0  0  0
    7.8320    5.4970  -11.8490 N   0  0  0  0  0  0  0  0  0  0  0  0
    6.2770    5.8380  -12.3080 P   0  0  0  0  0  0  0  0  0  0  0  0
    5.2010    5.4750  -10.9790 O   0  0  0  0  0  0  0  0  0  0  0  0
    6.0490    7.2120  -12.5320 O   0  0  0  0  0  0  0  0  0  0  0  0
   11.4610    8.3160   -5.6470 C   0  0  2  0  0  0  0  0  0  0  0  0
   11.1550    6.9740   -5.2030 C   0  0  0  0  0  0  0  0  0  0  0  0
   11.6150    6.6250   -3.8610 C   0  0  0  0  0  0  0  0  0  0  0  0
   12.1260    7.6820   -2.8750 C   0  0  0  0  0  0  0  0  0  0  0  0
   12.6760    8.9630   -3.6990 C   0  0  0  0  0  0  0  0  0  0  0  0
   11.7210    9.4860   -4.7700 C   0  0  0  0  0  0  0  0  0  0  0  0
   12.8995    8.0916   -7.0824 H   0  0  0  0  0  0  0  0  0  0  0  0
   11.0066    7.2173   -6.9659 H   0  0  0  0  0  0  0  0  0  0  0  0
    9.2091    7.3755   -6.5941 H   0  0  0  0  0  0  0  0  0  0  0  0
    9.2488    9.0994   -7.5525 H   0  0  0  0  0  0  0  0  0  0  0  0
    9.4060    8.1180   -9.2060 H   0  0  0  0  0  0  0  0  0  0  0  0
    8.0320    7.6910   -8.3220 H   0  0  0  0  0  0  0  0  0  0  0  0
   10.3381    5.9987   -8.0496 H   0  0  0  0  0  0  0  0  0  0  0  0
    8.6965    5.5265   -8.0603 H   0  0  0  0  0  0  0  0  0  0  0  0
   10.4402    5.7476  -10.1387 H   0  0  0  0  0  0  0  0  0  0  0  0
    9.1983    4.5732   -9.6181 H   0  0  0  0  0  0  0  0  0  0  0  0
   10.0627    3.8324  -11.6831 H   0  0  0  0  0  0  0  0  0  0  0  0
    8.7683    3.0507  -10.8175 H   0  0  0  0  0  0  0  0  0  0  0  0
    8.4890    4.5478  -13.5540 H   0  0  0  0  0  0  0  0  0  0  0  0
    7.1922    3.7591  -12.9379 H   0  0  0  0  0  0  0  0  0  0  0  0
    4.2950    5.8150  -11.1850 H   0  0  0  0  0  0  0  0  0  0  0  0
    6.7310    7.7420  -12.0480 H   0  0  0  0  0  0  0  0  0  0  0  0
   12.4999    8.6752   -5.6062 H   0  0  0  0  0  0  0  0  0  0  0  0
   10.6093    6.2597   -5.8370 H   0  0  0  0  0  0  0  0  0  0  0  0
   11.5941    5.5706   -3.5481 H   0  0  0  0  0  0  0  0  0  0  0  0
   11.3043    7.9956   -2.2143 H   0  0  0  0  0  0  0  0  0  0  0  0
   12.9399    7.2571   -2.2692 H   0  0  0  0  0  0  0  0  0  0  0  0
   12.8671    9.7757   -2.9828 H   0  0  0  0  0  0  0  0  0  0  0  0
   13.5831    8.6302   -4.2248 H   0  0  0  0  0  0  0  0  0  0  0  0
   10.7862    9.8447   -4.3145 H   0  0  0  0  0  0  0  0  0  0  0  0
   12.1436   10.3365   -5.3251 H   0  0  0  0  0  0  0  0  0  0  0  0
  1  2  2  0
  2  3  1  0
  3  4  1  0
  4  5  1  0
  5  6  1  0
  6  7  1  0
  7  8  1  0
  7  9  1  0
  9 10  1  0
 10 11  1  0
 11 12  1  0
 12 13  1  0
 13 14  1  0
 13 15  1  0
  3 16  1  0
 16 17  1  0
 17 18  2  0
 18 19  1  0
 19 20  1  0
 20 21  1  0
 12  9  1  0
 21 16  1  0
  2 22  1  0
  3 23  1  1
  4 24  1  0
  4 25  1  0
  5 26  1  0
  5 27  1  0
  6 28  1  0
  6 29  1  0
  7 30  1  6
  9 31  1  1
 10 32  1  0
 10 33  1  0
 11 34  1  0
 11 35  1  0
 14 36  1  0
 15 37  1  0
 16 38  1  6
 17 39  1  0
 18 40  1  0
 19 41  1  0
 19 42  1  0
 20 43  1  0
 20 44  1  0
 21 45  1  0
 21 46  1  0
M  CHG  1   5   1
M  END
>  <ID>  (7) 
DiffSBDD_15_0

>  <docking_score>  (7) 
-7.793

$$$$
DiffSBDD_16
     RDKit          3D

 41 43  0  0  0  0  0  0  0  0999 V2000
   12.3460    9.2890   -2.2580 O   0  0  0  0  0  0  0  0  0  0  0  0
   12.0700    8.6190   -3.4510 C   0  0  0  0  0  0  0  0  0  0  0  0
   11.8860    9.1270   -5.0040 S   0  0  0  0  0  0  0  0  0  0  0  0
   11.3860    7.6310   -5.6440 C   0  0  0  0  0  0  0  0  0  0  0  0
   10.9120    7.4330   -7.2370 C   0  0  2  0  0  0  0  0  0  0  0  0
   10.8210    5.8940   -7.4630 C   0  0  0  0  0  0  0  0  0  0  0  0
    9.5970    5.5590   -8.4510 C   0  0  0  0  0  0  0  0  0  0  0  0
    8.8720    5.9070   -9.8440 C   0  0  2  0  0  0  0  0  0  0  0  0
    8.8130    4.5120  -10.5720 C   0  0  0  0  0  0  0  0  0  0  0  0
    7.8170    4.5310  -11.6880 C   0  0  0  0  0  0  0  0  0  0  0  0
    7.6570    5.5610  -12.4400 C   0  0  0  0  0  0  0  0  0  0  0  0
    7.8690    6.8740  -12.6130 C   0  0  0  0  0  0  0  0  0  0  0  0
    7.2650    7.5400  -13.5260 F   0  0  0  0  0  0  0  0  0  0  0  0
    8.6820    7.7400  -11.7290 C   0  0  0  0  0  0  0  0  0  0  0  0
    9.4600    7.1570  -10.5070 C   0  0  1  0  0  0  0  0  0  0  0  0
    9.7400    8.2040   -9.4450 C   0  0  0  0  0  0  0  0  0  0  0  0
   11.0580    7.9820   -8.7390 C   0  0  0  0  0  0  0  0  0  0  0  0
   11.3830    6.7150   -4.6960 C   0  0  0  0  0  0  0  0  0  0  0  0
   11.7330    7.2120   -3.4100 C   0  0  2  0  0  0  0  0  0  0  0  0
   11.8750    6.5340   -2.2350 O   0  0  0  0  0  0  0  0  0  0  0  0
   10.3591    8.3569   -7.0117 H   0  0  0  0  0  0  0  0  0  0  0  0
   11.7597    5.5345   -7.9098 H   0  0  0  0  0  0  0  0  0  0  0  0
   10.6547    5.3946   -6.4971 H   0  0  0  0  0  0  0  0  0  0  0  0
    9.7635    4.4810   -8.5932 H   0  0  0  0  0  0  0  0  0  0  0  0
    8.9750    6.3071   -7.9378 H   0  0  0  0  0  0  0  0  0  0  0  0
    7.8374    6.2789   -9.8064 H   0  0  0  0  0  0  0  0  0  0  0  0
    9.8069    4.2774  -10.9809 H   0  0  0  0  0  0  0  0  0  0  0  0
    8.5064    3.7485   -9.8418 H   0  0  0  0  0  0  0  0  0  0  0  0
    8.0877    3.7005  -12.3566 H   0  0  0  0  0  0  0  0  0  0  0  0
    6.8610    4.4901  -11.1454 H   0  0  0  0  0  0  0  0  0  0  0  0
    7.1070    5.2153  -13.3277 H   0  0  0  0  0  0  0  0  0  0  0  0
    9.4319    8.2234  -12.3724 H   0  0  0  0  0  0  0  0  0  0  0  0
    7.9187    8.3676  -11.2458 H   0  0  0  0  0  0  0  0  0  0  0  0
   10.3971    6.8244  -10.9773 H   0  0  0  0  0  0  0  0  0  0  0  0
    9.7598    9.1941   -9.9238 H   0  0  0  0  0  0  0  0  0  0  0  0
    8.9430    8.1325   -8.6902 H   0  0  0  0  0  0  0  0  0  0  0  0
   11.6418    7.2518   -9.3186 H   0  0  0  0  0  0  0  0  0  0  0  0
   11.5515    8.9628   -8.6720 H   0  0  0  0  0  0  0  0  0  0  0  0
   11.1322    5.6604   -4.8828 H   0  0  0  0  0  0  0  0  0  0  0  0
   12.7967    7.0449   -3.6349 H   0  0  0  0  0  0  0  0  0  0  0  0
   11.9330    7.1800   -1.4870 H   0  0  0  0  0  0  0  0  0  0  0  0
  1  2  2  0
  2  3  1  0
  3  4  1  0
  4  5  1  0
  5  6  1  0
  6  7  1  0
  7  8  1  0
  8  9  1  0
  9 10  1  0
 10 11  1  0
 11 12  2  0
 12 13  1  0
 12 14  1  0
 14 15  1  0
 15 16  1  0
 16 17  1  0
  4 18  2  0
 18 19  1  0
 19 20  1  0
 19  2  1  0
 17  5  1  0
 15  8  1  0
  5 21  1  1
  6 22  1  0
  6 23  1  0
  7 24  1  0
  7 25  1  0
  8 26  1  1
  9 27  1  0
  9 28  1  0
 10 29  1  0
 10 30  1  0
 11 31  1  0
 14 32  1  0
 14 33  1  0
 15 34  1  6
 16 35  1  0
 16 36  1  0
 17 37  1  0
 17 38  1  0
 18 39  1  0
 19 40  1  1
 20 41  1  0
M  END
>  <ID>  (8) 
DiffSBDD_16_0

>  <docking_score>  (8) 
-9.299

$$$$
DiffSBDD_17
     RDKit          3D

 48 52  0  0  0  0  0  0  0  0999 V2000
    4.3890    6.9450  -16.9460 C   0  0  0  0  0  0  0  0  0  0  0  0
    5.5830    7.6690  -16.2330 C   0  0  0  0  0  0  0  0  0  0  0  0
    5.7180    6.6510  -15.2830 C   0  0  0  0  0  0  0  0  0  0  0  0
    6.4050    6.5740  -14.1590 C   0  0  0  0  0  0  0  0  0  0  0  0
    7.4110    5.3180  -13.9340 S   0  0  2  0  0  6  0  0  0  0  0  0
    8.6010    4.0200  -13.7940 O   0  0  0  0  0  0  0  0  0  0  0  0
    6.0290    4.5270  -14.5870 O   0  0  0  0  0  0  0  0  0  0  0  0
    8.4450    6.2360  -13.2430 N   0  0  0  0  0  0  0  0  0  0  0  0
    8.4460    6.2690  -11.6930 C   0  0  0  0  0  0  0  0  0  0  0  0
    7.6600    5.3270  -10.8180 C   0  0  0  0  0  0  0  0  0  0  0  0
    8.0300    5.0430   -9.4770 C   0  0  0  0  0  0  0  0  0  0  0  0
    9.3550    5.6230   -9.0280 C   0  0  0  0  0  0  0  0  0  0  0  0
   10.0710    6.5430   -9.8740 C   0  0  0  0  0  0  0  0  0  0  0  0
    9.6100    6.7750  -11.2090 C   0  0  0  0  0  0  0  0  0  0  0  0
   10.6090    7.5520   -8.7220 C   0  0  0  0  0  0  0  0  0  0  0  0
   11.1650    8.8040   -8.4090 C   0  0  0  0  0  0  0  0  0  0  0  0
   11.6340    9.4190   -7.3480 C   0  0  0  0  0  0  0  0  0  0  0  0
   11.6980    8.7010   -6.1090 C   0  0  0  0  0  0  0  0  0  0  0  0
   12.1920    9.3010   -4.8950 C   0  0  0  0  0  0  0  0  0  0  0  0
   12.2280    8.6040   -3.7110 C   0  0  0  0  0  0  0  0  0  0  0  0
   12.6770    8.9650   -2.4980 O   0  0  0  0  0  0  0  0  0  0  0  0
   12.2990    7.9320   -1.5410 C   0  0  0  0  0  0  0  0  0  0  0  0
   11.7400    6.8750   -2.3870 C   0  0  0  0  0  0  0  0  0  0  0  0
   11.7540    7.2260   -3.7070 C   0  0  0  0  0  0  0  0  0  0  0  0
   11.4110    6.5360   -4.8640 C   0  0  0  0  0  0  0  0  0  0  0  0
   11.3210    7.2300   -6.0910 C   0  0  0  0  0  0  0  0  0  0  0  0
   10.6920    6.5770   -7.4110 C   0  0  0  0  0  0  0  0  0  0  0  0
   10.4610    5.2350   -7.6870 C   0  0  0  0  0  0  0  0  0  0  0  0
    3.7065    6.5311  -16.1891 H   0  0  0  0  0  0  0  0  0  0  0  0
    3.8457    7.6659  -17.5746 H   0  0  0  0  0  0  0  0  0  0  0  0
    4.7771    6.1300  -17.5746 H   0  0  0  0  0  0  0  0  0  0  0  0
    6.4683    7.7904  -16.8745 H   0  0  0  0  0  0  0  0  0  0  0  0
    5.4488    8.7050  -15.8885 H   0  0  0  0  0  0  0  0  0  0  0  0
    4.6829    6.4556  -14.9661 H   0  0  0  0  0  0  0  0  0  0  0  0
    6.3874    6.0141  -15.8799 H   0  0  0  0  0  0  0  0  0  0  0  0
    7.0114    7.4891  -14.0888 H   0  0  0  0  0  0  0  0  0  0  0  0
    5.6332    6.4348  -13.3876 H   0  0  0  0  0  0  0  0  0  0  0  0
    6.7653    4.8408  -11.2342 H   0  0  0  0  0  0  0  0  0  0  0  0
    7.3963    4.4416   -8.8085 H   0  0  0  0  0  0  0  0  0  0  0  0
   10.2287    7.3935  -11.8759 H   0  0  0  0  0  0  0  0  0  0  0  0
   11.2235    9.4469   -9.2996 H   0  0  0  0  0  0  0  0  0  0  0  0
   11.9711   10.4643   -7.4087 H   0  0  0  0  0  0  0  0  0  0  0  0
   12.5486   10.3414   -4.9167 H   0  0  0  0  0  0  0  0  0  0  0  0
   12.4076    7.9437   -0.4464 H   0  0  0  0  0  0  0  0  0  0  0  0
   11.3563    5.9169   -2.0064 H   0  0  0  0  0  0  0  0  0  0  0  0
   11.2107    5.4551   -4.8242 H   0  0  0  0  0  0  0  0  0  0  0  0
   11.3623    4.6901   -8.0044 H   0  0  0  0  0  0  0  0  0  0  0  0
   10.1115    4.5752   -6.8792 H   0  0  0  0  0  0  0  0  0  0  0  0
  1  2  1  0
  2  3  1  0
  3  4  1  0
  4  5  1  0
  5  6  2  0
  5  7  2  0
  5  8  1  0
  8  9  1  0
  9 10  2  0
 10 11  1  0
 11 12  2  0
 12 13  1  0
 13 14  2  0
 13 15  1  0
 15 16  2  0
 16 17  1  0
 17 18  2  0
 18 19  1  0
 19 20  2  0
 20 21  1  0
 21 22  1  0
 22 23  2  0
 23 24  1  0
 24 25  2  0
 25 26  1  0
 26 27  2  0
 27 28  1  0
 14  9  1  0
 27 15  1  0
 28 12  1  0
 26 18  1  0
 24 20  1  0
  1 29  1  0
  1 30  1  0
  1 31  1  0
  2 32  1  0
  2 33  1  0
  3 34  1  0
  3 35  1  0
  4 36  1  0
  4 37  1  0
 10 38  1  0
 11 39  1  0
 14 40  1  0
 16 41  1  0
 17 42  1  0
 19 43  1  0
 22 44  1  0
 23 45  1  0
 25 46  1  0
 28 47  1  0
 28 48  1  0
M  CHG  1   8  -1
M  END
>  <ID>  (9) 
DiffSBDD_17_0

>  <docking_score>  (9) 
-10.909

$$$$
DiffSBDD_18
     RDKit          3D

 61 65  0  0  0  0  0  0  0  0999 V2000
    8.9000    4.3830  -16.2250 C   0  0  0  0  0  0  0  0  0  0  0  0
    7.2950    4.2340  -16.1600 C   0  0  2  0  0  0  0  0  0  0  0  0
    6.4860    4.7810  -17.3860 C   0  0  0  0  0  0  0  0  0  0  0  0
    6.4070    4.1630  -18.9850 S   0  0  0  0  0  0  0  0  0  0  0  0
    6.9950    2.4690  -18.7370 C   0  0  1  0  0  0  0  0  0  0  0  0
    5.6230    1.8570  -19.2110 C   0  0  0  0  0  0  0  0  0  0  0  0
    8.1670    1.7730  -19.0970 O   0  0  0  0  0  0  0  0  0  0  0  0
    6.8890    2.0650  -17.0500 C   0  0  2  0  0  0  0  0  0  0  0  0
    6.2320    0.5820  -17.2250 C   0  0  1  0  0  0  0  0  0  0  0  0
    7.2900   -0.3270  -17.5340 O   0  0  0  0  0  0  0  0  0  0  0  0
    7.2660   -1.3590  -17.6630 C   0  0  1  0  0  0  0  0  0  0  0  0
    8.5310   -1.8760  -18.0960 O   0  0  0  0  0  0  0  0  0  0  0  0
    6.4020   -2.2110  -18.9200 C   0  0  0  0  0  0  0  0  0  0  0  0
    5.8090   -2.2120  -17.4420 C   0  0  2  0  0  0  0  0  0  0  0  0
    4.5830   -1.3060  -17.2560 C   0  0  0  0  0  0  0  0  0  0  0  0
    4.9610    0.0160  -16.6030 C   0  0  1  0  0  0  0  0  0  0  0  0
    4.5850    0.1670  -15.1530 C   0  0  0  0  0  0  0  0  0  0  0  0
    8.2280    1.5600  -16.1410 C   0  0  0  0  0  0  0  0  0  0  0  0
    7.1930    1.9900  -15.1880 C   0  0  1  0  0  0  0  0  0  0  0  0
    7.4900    2.6290  -13.9930 O   0  0  0  0  0  0  0  0  0  0  0  0
    6.6740    3.9200  -13.7670 C   0  0  1  0  0  0  0  0  0  0  0  0
    5.9640    3.7870  -12.4010 C   0  0  0  0  0  0  0  0  0  0  0  0
    5.9530    5.0610  -11.7260 C   0  0  0  0  0  0  0  0  0  0  0  0
    6.0910    6.0650  -12.7700 O   0  0  0  0  0  0  0  0  0  0  0  0
    6.1400    6.7490  -13.7780 C   0  0  0  0  0  0  0  0  0  0  0  0
    7.0020    6.2310  -14.9400 C   0  0  0  0  0  0  0  0  0  0  0  0
    6.8070    4.7290  -14.7970 C   0  0  1  0  0  0  0  0  0  0  0  0
    9.3064    4.4207  -15.2035 H   0  0  0  0  0  0  0  0  0  0  0  0
    9.3270    3.5206  -16.7579 H   0  0  0  0  0  0  0  0  0  0  0  0
    9.1610    5.3092  -16.7579 H   0  0  0  0  0  0  0  0  0  0  0  0
    7.0709    3.1614  -16.2559 H   0  0  0  0  0  0  0  0  0  0  0  0
    5.4408    4.7894  -17.0432 H   0  0  0  0  0  0  0  0  0  0  0  0
    7.0963    5.6727  -17.5920 H   0  0  0  0  0  0  0  0  0  0  0  0
    5.0187    1.5874  -18.3323 H   0  0  0  0  0  0  0  0  0  0  0  0
    5.0803    2.5984  -19.8158 H   0  0  0  0  0  0  0  0  0  0  0  0
    5.8120    0.9579  -19.8158 H   0  0  0  0  0  0  0  0  0  0  0  0
    8.3440    1.0600  -18.4330 H   0  0  0  0  0  0  0  0  0  0  0  0
    5.4613    0.8277  -17.9704 H   0  0  0  0  0  0  0  0  0  0  0  0
    8.5480   -2.8580  -17.9670 H   0  0  0  0  0  0  0  0  0  0  0  0
    5.8922   -1.6449  -19.7135 H   0  0  0  0  0  0  0  0  0  0  0  0
    6.6690   -2.9945  -19.6445 H   0  0  0  0  0  0  0  0  0  0  0  0
    5.4941   -3.0118  -16.7556 H   0  0  0  0  0  0  0  0  0  0  0  0
    4.1354   -1.1036  -18.2402 H   0  0  0  0  0  0  0  0  0  0  0  0
    3.8676   -1.8233  -16.5998 H   0  0  0  0  0  0  0  0  0  0  0  0
    4.2703    0.8320  -16.8621 H   0  0  0  0  0  0  0  0  0  0  0  0
    5.4203   -0.1685  -14.5208 H   0  0  0  0  0  0  0  0  0  0  0  0
    4.3647    1.2233  -14.9394 H   0  0  0  0  0  0  0  0  0  0  0  0
    3.6953   -0.4436  -14.9394 H   0  0  0  0  0  0  0  0  0  0  0  0
    8.4885    0.4916  -16.1650 H   0  0  0  0  0  0  0  0  0  0  0  0
    9.2782    1.8786  -16.2160 H   0  0  0  0  0  0  0  0  0  0  0  0
    6.4372    1.7822  -14.4163 H   0  0  0  0  0  0  0  0  0  0  0  0
    5.8070    3.4587  -14.2625 H   0  0  0  0  0  0  0  0  0  0  0  0
    4.9291    3.4496  -12.5595 H   0  0  0  0  0  0  0  0  0  0  0  0
    6.5040    3.0549  -11.7826 H   0  0  0  0  0  0  0  0  0  0  0  0
    5.0055    5.1993  -11.1846 H   0  0  0  0  0  0  0  0  0  0  0  0
    6.7632    5.1334  -10.9855 H   0  0  0  0  0  0  0  0  0  0  0  0
    5.1117    6.8591  -14.1529 H   0  0  0  0  0  0  0  0  0  0  0  0
    6.6252    7.6841  -13.4614 H   0  0  0  0  0  0  0  0  0  0  0  0
    6.6339    6.5958  -15.9103 H   0  0  0  0  0  0  0  0  0  0  0  0
    8.0519    6.5577  -14.9073 H   0  0  0  0  0  0  0  0  0  0  0  0
    5.8646    4.5949  -14.2458 H   0  0  0  0  0  0  0  0  0  0  0  0
  1  2  1  0
  2  3  1  0
  3  4  1  0
  4  5  1  0
  5  6  1  0
  5  7  1  6
  5  8  1  0
  8  9  1  0
  9 10  1  0
 10 11  1  0
 11 12  1  1
 11 13  1  0
 13 14  1  0
 14 15  1  0
 15 16  1  0
 16 17  1  0
  8 18  1  6
 18 19  1  0
 19 20  1  0
 20 21  1  0
 21 22  1  0
 22 23  1  0
 23 24  1  0
 24 25  1  0
 25 26  1  0
 26 27  1  0
 27  2  1  0
 19  8  1  0
 27 21  1  0
 16  9  1  0
 14 11  1  0
  1 28  1  0
  1 29  1  0
  1 30  1  0
  2 31  1  1
  3 32  1  0
  3 33  1  0
  6 34  1  0
  6 35  1  0
  6 36  1  0
  7 37  1  0
  9 38  1  6
 12 39  1  0
 13 40  1  0
 13 41  1  0
 14 42  1  1
 15 43  1  0
 15 44  1  0
 16 45  1  6
 17 46  1  0
 17 47  1  0
 17 48  1  0
 18 49  1  0
 18 50  1  0
 19 51  1  1
 21 52  1  6
 22 53  1  0
 22 54  1  0
 23 55  1  0
 23 56  1  0
 25 57  1  0
 25 58  1  0
 26 59  1  0
 26 60  1  0
 27 61  1  6
M  END
>  <ID>  (10) 
DiffSBDD_18_0

>  <docking_score>  (10) 
-7.607

$$$$
DiffSBDD_19
     RDKit          3D

 54 57  0  0  0  0  0  0  0  0999 V2000
    6.4260    1.9200  -12.8840 C   0  0  0  0  0  0  0  0  0  0  0  0
    7.1050    2.9370  -13.8570 C   0  0  1  0  0  0  0  0  0  0  0  0
    7.3540    2.0870  -14.9480 O   0  0  0  0  0  0  0  0  0  0  0  0
    6.3110    4.2450  -13.6990 C   0  0  1  0  0  0  0  0  0  0  0  0
    8.0830    4.8870  -13.5730 C   0  0  0  0  0  0  0  0  0  0  0  0
    8.5210    5.3370  -12.5430 N   0  0  0  0  0  0  0  0  0  0  0  0
    9.0000    4.8130  -11.3500 C   0  0  0  0  0  0  0  0  0  0  0  0
    9.4100    5.4320  -10.2940 C   0  0  0  0  0  0  0  0  0  0  0  0
    9.3610    6.9400  -10.2500 C   0  0  1  0  0  0  0  0  0  0  0  0
   10.7920    7.3990  -10.1240 O   0  0  0  0  0  0  0  0  0  0  0  0
   10.7280    8.4030   -9.1020 C   0  0  2  0  0  0  0  0  0  0  0  0
   12.2230    8.3640   -8.6390 C   0  0  0  0  0  0  0  0  0  0  0  0
   12.3470    8.6430   -7.1180 C   0  0  0  0  0  0  0  0  0  0  0  0
   11.2800    8.1100   -6.2160 C   0  0  1  0  0  0  0  0  0  0  0  0
   11.7110    8.0810   -4.8020 N   0  0  0  0  0  0  0  0  0  0  0  0
   12.2550    9.1280   -4.0270 C   0  0  0  0  0  0  0  0  0  0  0  0
   12.3170    8.6110   -2.7100 C   0  0  0  0  0  0  0  0  0  0  0  0
   12.0320    6.9830   -2.5450 S   0  0  0  0  0  0  0  0  0  0  0  0
   11.4730    6.8090   -4.1070 C   0  0  0  0  0  0  0  0  0  0  0  0
    9.7640    8.2790   -6.6350 C   0  0  0  0  0  0  0  0  0  0  0  0
    9.5520    8.2240   -8.1600 C   0  0  0  0  0  0  0  0  0  0  0  0
    8.9150    7.5780  -11.7070 C   0  0  0  0  0  0  0  0  0  0  0  0
    8.1210    6.6290  -12.4950 N   0  0  0  0  0  0  0  0  0  0  0  0
    7.0490    6.9210  -13.1720 C   0  0  0  0  0  0  0  0  0  0  0  0
    6.0460    5.9560  -14.0680 S   0  0  0  0  0  0  0  0  0  0  0  0
    6.6252    2.2184  -11.8442 H   0  0  0  0  0  0  0  0  0  0  0  0
    5.3404    1.9116  -13.0615 H   0  0  0  0  0  0  0  0  0  0  0  0
    6.8344    0.9141  -13.0615 H   0  0  0  0  0  0  0  0  0  0  0  0
    8.0777    3.4467  -13.7929 H   0  0  0  0  0  0  0  0  0  0  0  0
    7.1530    2.5650  -15.7910 H   0  0  0  0  0  0  0  0  0  0  0  0
    5.2885    3.8875  -13.5074 H   0  0  0  0  0  0  0  0  0  0  0  0
    8.7373    4.0461  -13.8466 H   0  0  0  0  0  0  0  0  0  0  0  0
    8.0591    5.7726  -14.2250 H   0  0  0  0  0  0  0  0  0  0  0  0
    9.0351    3.7148  -11.2971 H   0  0  0  0  0  0  0  0  0  0  0  0
    9.7923    4.8647   -9.4326 H   0  0  0  0  0  0  0  0  0  0  0  0
    8.6710    7.2392   -9.4473 H   0  0  0  0  0  0  0  0  0  0  0  0
   10.4523    9.4380   -9.3524 H   0  0  0  0  0  0  0  0  0  0  0  0
   12.6401    7.3697   -8.8565 H   0  0  0  0  0  0  0  0  0  0  0  0
   12.7763    9.1442   -9.1824 H   0  0  0  0  0  0  0  0  0  0  0  0
   13.3026    8.2129   -6.7836 H   0  0  0  0  0  0  0  0  0  0  0  0
   12.2583    9.7360   -7.0316 H   0  0  0  0  0  0  0  0  0  0  0  0
   11.1671    7.0369   -6.4296 H   0  0  0  0  0  0  0  0  0  0  0  0
   12.5632   10.1265   -4.3707 H   0  0  0  0  0  0  0  0  0  0  0  0
   12.5414    9.2519   -1.8446 H   0  0  0  0  0  0  0  0  0  0  0  0
   12.0160    5.9968   -4.6125 H   0  0  0  0  0  0  0  0  0  0  0  0
   10.4020    6.5583   -4.1110 H   0  0  0  0  0  0  0  0  0  0  0  0
    9.1796    7.4712   -6.1704 H   0  0  0  0  0  0  0  0  0  0  0  0
    9.4363    9.2716   -6.2925 H   0  0  0  0  0  0  0  0  0  0  0  0
    9.1147    7.2397   -8.3833 H   0  0  0  0  0  0  0  0  0  0  0  0
    8.9346    9.1124   -8.3590 H   0  0  0  0  0  0  0  0  0  0  0  0
    8.3163    8.4839  -11.5312 H   0  0  0  0  0  0  0  0  0  0  0  0
    9.8288    7.8129  -12.2725 H   0  0  0  0  0  0  0  0  0  0  0  0
    6.3814    7.3795  -12.4276 H   0  0  0  0  0  0  0  0  0  0  0  0
    7.5484    7.4226  -14.0140 H   0  0  0  0  0  0  0  0  0  0  0  0
  1  2  1  0
  2  3  1  0
  2  4  1  0
  4  5  1  0
  5  6  1  0
  6  7  1  0
  7  8  2  0
  8  9  1  0
  9 10  1  0
 10 11  1  0
 11 12  1  0
 12 13  1  0
 13 14  1  0
 14 15  1  0
 15 16  1  0
 16 17  2  0
 17 18  1  0
 18 19  1  0
 14 20  1  0
 20 21  1  0
  9 22  1  0
 22 23  1  0
 23 24  1  0
 24 25  1  0
 25  4  1  0
 23  6  1  0
 21 11  1  0
 19 15  1  0
  1 26  1  0
  1 27  1  0
  1 28  1  0
  2 29  1  1
  3 30  1  0
  4 31  1  1
  5 32  1  0
  5 33  1  0
  7 34  1  0
  8 35  1  0
  9 36  1  1
 11 37  1  6
 12 38  1  0
 12 39  1  0
 13 40  1  0
 13 41  1  0
 14 42  1  6
 16 43  1  0
 17 44  1  0
 19 45  1  0
 19 46  1  0
 20 47  1  0
 20 48  1  0
 21 49  1  0
 21 50  1  0
 22 51  1  0
 22 52  1  0
 24 53  1  0
 24 54  1  0
M  END
>  <ID>  (11) 
DiffSBDD_19_0

>  <docking_score>  (11) 
-8.814

$$$$
DiffSBDD_1
     RDKit          3D

 89 91  0  0  0  0  0  0  0  0999 V2000
   10.6380    6.6470   -6.2710 C   0  0  0  0  0  0  0  0  0  0  0  0
   11.4620    6.5940   -5.7510 C   0  0  0  0  0  0  0  0  0  0  0  0
   11.0780    6.6360   -5.0840 C   0  0  0  0  0  0  0  0  0  0  0  0
   11.4030    7.1200   -7.3180 C   0  0  0  0  0  0  0  0  0  0  0  0
   12.1660    8.1260   -8.0370 C   0  0  0  0  0  0  0  0  0  0  0  0
   11.6210    8.4810   -9.4300 C   0  0  1  0  0  0  0  0  0  0  0  0
   12.2780    7.7650  -10.3450 O   0  0  0  0  0  0  0  0  0  0  0  0
   10.2690    7.9460   -9.5970 C   0  0  0  0  0  0  0  0  0  0  0  0
    9.5290    7.4710  -10.8980 C   0  0  1  0  0  0  0  0  0  0  0  0
    8.6760    8.4340  -11.6290 C   0  0  0  0  0  0  0  0  0  0  0  0
    9.7240    6.2090  -11.3160 O   0  0  0  0  0  0  0  0  0  0  0  0
    8.2750    5.4460  -10.6840 C   0  0  0  0  0  0  0  0  0  0  0  0
    7.3340    5.0600  -11.7410 C   0  0  1  0  0  0  0  0  0  0  0  0
    6.6820    5.7240  -13.0420 C   0  0  0  0  0  0  0  0  0  0  0  0
    6.2970    4.9140  -14.3230 C   0  0  0  0  0  0  0  0  0  0  0  0
    7.5680    3.9370  -14.7700 C   0  0  2  0  0  0  0  0  0  0  0  0
    7.9200    3.3870  -16.1080 C   0  0  1  0  0  0  0  0  0  0  0  0
    6.8020    2.7130  -16.8240 C   0  0  0  0  0  0  0  0  0  0  0  0
    6.7870    3.2150  -18.1340 C   0  0  0  0  0  0  0  0  0  0  0  0
    7.4670    4.5990  -18.0680 C   0  0  2  0  0  0  0  0  0  0  0  0
    6.7100    5.4610  -17.3880 O   0  0  0  0  0  0  0  0  0  0  0  0
    7.8340    5.2320  -19.3790 C   0  0  0  0  0  0  0  0  0  0  0  0
    8.9370    6.2330  -19.2180 C   0  0  0  0  0  0  0  0  0  0  0  0
    9.8330    6.7530  -19.9450 C   0  0  0  0  0  0  0  0  0  0  0  0
   11.1230    7.0890  -19.7230 C   0  0  0  0  0  0  0  0  0  0  0  0
   11.5890    6.3810  -18.6100 C   0  0  0  0  0  0  0  0  0  0  0  0
   11.0330    5.4780  -17.5970 C   0  0  1  0  0  0  0  0  0  0  0  0
   11.8610    5.2410  -16.5230 F   0  0  0  0  0  0  0  0  0  0  0  0
    9.6800    5.1700  -17.0150 C   0  0  2  0  0  0  0  0  0  0  0  0
   10.0230    5.3240  -15.7430 F   0  0  0  0  0  0  0  0  0  0  0  0
    8.6800    4.1360  -17.3020 C   0  0  1  0  0  0  0  0  0  0  0  0
    7.6470    3.0430  -13.4500 C   0  0  1  0  0  0  0  0  0  0  0  0
    7.9190    1.6630  -13.8450 C   0  0  0  0  0  0  0  0  0  0  0  0
    6.4420    0.6430  -13.6550 P   0  0  0  0  0  0  0  0  0  0  0  0
    5.0920    1.1030  -14.0120 O   0  0  0  0  0  0  0  0  0  0  0  0
    6.4910    0.3220  -12.5370 O   0  0  0  0  0  0  0  0  0  0  0  0
    7.6680   -0.0900  -14.6560 O   0  0  0  0  0  0  0  0  0  0  0  0
    7.9750    3.6580  -12.3270 C   0  0  0  0  0  0  0  0  0  0  0  0
    9.7769    6.7024   -5.5888 H   0  0  0  0  0  0  0  0  0  0  0  0
   10.6618    7.5455   -6.9052 H   0  0  0  0  0  0  0  0  0  0  0  0
   10.5465    5.7529   -6.9052 H   0  0  0  0  0  0  0  0  0  0  0  0
   12.4286    6.2947   -5.3197 H   0  0  0  0  0  0  0  0  0  0  0  0
   11.7875    6.5584   -4.2470 H   0  0  0  0  0  0  0  0  0  0  0  0
   10.5469    7.5976   -5.0266 H   0  0  0  0  0  0  0  0  0  0  0  0
   10.3516    5.8119   -5.0266 H   0  0  0  0  0  0  0  0  0  0  0  0
   11.5678    6.2038   -7.9039 H   0  0  0  0  0  0  0  0  0  0  0  0
   10.4829    7.7138   -7.2143 H   0  0  0  0  0  0  0  0  0  0  0  0
   12.1773    9.0438   -7.4308 H   0  0  0  0  0  0  0  0  0  0  0  0
   13.1661    7.6970   -8.1979 H   0  0  0  0  0  0  0  0  0  0  0  0
   11.6953    9.5737   -9.5327 H   0  0  0  0  0  0  0  0  0  0  0  0
   11.6960    7.6240  -11.1340 H   0  0  0  0  0  0  0  0  0  0  0  0
   10.2439    7.0666   -8.9366 H   0  0  0  0  0  0  0  0  0  0  0  0
    9.7195    8.8877   -9.4511 H   0  0  0  0  0  0  0  0  0  0  0  0
    8.6633    7.1632  -10.2932 H   0  0  0  0  0  0  0  0  0  0  0  0
    8.1249    9.0562  -10.9085 H   0  0  0  0  0  0  0  0  0  0  0  0
    9.3068    9.0764  -12.2610 H   0  0  0  0  0  0  0  0  0  0  0  0
    7.9622    7.8853  -12.2610 H   0  0  0  0  0  0  0  0  0  0  0  0
    8.5666    4.5444  -10.1254 H   0  0  0  0  0  0  0  0  0  0  0  0
    7.7681    6.1775  -10.0375 H   0  0  0  0  0  0  0  0  0  0  0  0
    6.4628    5.3005  -11.1140 H   0  0  0  0  0  0  0  0  0  0  0  0
    5.7539    6.2059  -12.7007 H   0  0  0  0  0  0  0  0  0  0  0  0
    7.5194    6.3316  -13.4157 H   0  0  0  0  0  0  0  0  0  0  0  0
    5.4145    4.2924  -14.1114 H   0  0  0  0  0  0  0  0  0  0  0  0
    6.0683    5.6125  -15.1414 H   0  0  0  0  0  0  0  0  0  0  0  0
    8.4158    4.5446  -15.1193 H   0  0  0  0  0  0  0  0  0  0  0  0
    8.7035    2.7995  -15.6070 H   0  0  0  0  0  0  0  0  0  0  0  0
    6.9652    1.6253  -16.8389 H   0  0  0  0  0  0  0  0  0  0  0  0
    5.8431    2.9055  -16.3206 H   0  0  0  0  0  0  0  0  0  0  0  0
    7.3455    2.5465  -18.8057 H   0  0  0  0  0  0  0  0  0  0  0  0
    5.7615    3.2886  -18.5252 H   0  0  0  0  0  0  0  0  0  0  0  0
    6.3220    5.0080  -16.5980 H   0  0  0  0  0  0  0  0  0  0  0  0
    8.1635    4.4465  -20.0749 H   0  0  0  0  0  0  0  0  0  0  0  0
    6.9483    5.7553  -19.7685 H   0  0  0  0  0  0  0  0  0  0  0  0
    8.3956    7.1169  -18.8498 H   0  0  0  0  0  0  0  0  0  0  0  0
    9.6263    5.5094  -18.7582 H   0  0  0  0  0  0  0  0  0  0  0  0
    9.8949    6.0647  -20.8008 H   0  0  0  0  0  0  0  0  0  0  0  0
    9.4387    7.7786  -19.8939 H   0  0  0  0  0  0  0  0  0  0  0  0
   11.7287    6.8321  -20.6045 H   0  0  0  0  0  0  0  0  0  0  0  0
   11.2005    8.1704  -19.5369 H   0  0  0  0  0  0  0  0  0  0  0  0
   12.3959    5.7725  -19.0443 H   0  0  0  0  0  0  0  0  0  0  0  0
   11.5607    7.2591  -17.9481 H   0  0  0  0  0  0  0  0  0  0  0  0
   10.8668    4.9904  -18.5689 H   0  0  0  0  0  0  0  0  0  0  0  0
    8.9510    5.7583  -17.5916 H   0  0  0  0  0  0  0  0  0  0  0  0
    9.3967    3.4831  -17.8216 H   0  0  0  0  0  0  0  0  0  0  0  0
    6.7361    2.8518  -12.8638 H   0  0  0  0  0  0  0  0  0  0  0  0
    8.2377    1.6447  -14.8977 H   0  0  0  0  0  0  0  0  0  0  0  0
    8.7130    1.2599  -13.1992 H   0  0  0  0  0  0  0  0  0  0  0  0
    7.8019    2.9142  -11.5353 H   0  0  0  0  0  0  0  0  0  0  0  0
    8.9729    4.0241  -12.6102 H   0  0  0  0  0  0  0  0  0  0  0  0
  1  2  1  0
  2  3  1  0
  2  4  1  0
  4  5  1  0
  5  6  1  0
  6  7  1  0
  6  8  1  0
  8  9  1  0
  9 10  1  0
  9 11  1  0
 11 12  1  0
 12 13  1  0
 13 14  1  0
 14 15  1  0
 15 16  1  0
 16 17  1  0
 17 18  1  0
 18 19  1  0
 19 20  1  0
 20 21  1  1
 20 22  1  0
 22 23  1  0
 23 24  1  0
 24 25  1  0
 25 26  1  0
 26 27  1  0
 27 28  1  0
 27 29  1  0
 29 30  1  0
 29 31  1  0
 16 32  1  0
 32 33  1  0
 33 34  1  0
 34 35  2  0
 34 36  1  0
 34 37  1  0
 32 38  1  0
 38 13  1  0
 31 17  1  0
 31 20  1  0
  1 39  1  0
  1 40  1  0
  1 41  1  0
  2 42  1  0
  3 43  1  0
  3 44  1  0
  3 45  1  0
  4 46  1  0
  4 47  1  0
  5 48  1  0
  5 49  1  0
  6 50  1  6
  7 51  1  0
  8 52  1  0
  8 53  1  0
  9 54  1  1
 10 55  1  0
 10 56  1  0
 10 57  1  0
 12 58  1  0
 12 59  1  0
 13 60  1  1
 14 61  1  0
 14 62  1  0
 15 63  1  0
 15 64  1  0
 16 65  1  1
 17 66  1  1
 18 67  1  0
 18 68  1  0
 19 69  1  0
 19 70  1  0
 21 71  1  0
 22 72  1  0
 22 73  1  0
 23 74  1  0
 23 75  1  0
 24 76  1  0
 24 77  1  0
 25 78  1  0
 25 79  1  0
 26 80  1  0
 26 81  1  0
 27 82  1  6
 29 83  1  6
 31 84  1  6
 32 85  1  1
 33 86  1  0
 33 87  1  0
 38 88  1  0
 38 89  1  0
M  CHG  2  36  -1  37  -1
M  END
>  <ID>  (12) 
DiffSBDD_1_0

>  <docking_score>  (12) 
-9.734

$$$$
DiffSBDD_20
     RDKit          3D

 72 74  0  0  0  0  0  0  0  0999 V2000
    6.5230    7.3380  -13.6650 C   0  0  0  0  0  0  0  0  0  0  0  0
    6.1480    6.0330  -14.4700 C   0  0  0  0  0  0  0  0  0  0  0  0
    5.6840    6.9400  -15.6130 C   0  0  0  0  0  0  0  0  0  0  0  0
    7.3440    5.2100  -14.7200 C   0  0  2  0  0  0  0  0  0  0  0  0
    7.9560    5.2470  -16.1050 C   0  0  0  0  0  0  0  0  0  0  0  0
    6.7980    3.8560  -14.5750 O   0  0  0  0  0  0  0  0  0  0  0  0
    8.2570    5.3230  -13.3960 C   0  0  2  0  0  0  0  0  0  0  0  0
    9.4040    5.5410  -13.9510 O   0  0  0  0  0  0  0  0  0  0  0  0
    7.8770    4.4580  -12.3330 C   0  0  1  0  0  0  0  0  0  0  0  0
    9.0400    3.5290  -12.0620 N   0  0  0  0  0  0  0  0  0  0  0  0
    7.4310    5.0690  -11.0770 C   0  0  1  0  0  0  0  0  0  0  0  0
    6.2580    4.4450  -10.5300 O   0  0  0  0  0  0  0  0  0  0  0  0
    8.3110    5.3660  -10.0020 C   0  0  0  0  0  0  0  0  0  0  0  0
    9.0720    6.6700   -9.6570 C   0  0  2  0  0  0  0  0  0  0  0  0
   10.0410    7.0680  -10.6590 C   0  0  0  0  0  0  0  0  0  0  0  0
   11.4040    7.2390  -10.7330 C   0  0  0  0  0  0  0  0  0  0  0  0
   12.1620    8.2540   -9.8160 C   0  0  0  0  0  0  0  0  0  0  0  0
   11.1650    8.3930   -8.6890 C   0  0  0  0  0  0  0  0  0  0  0  0
   11.1500    7.9120   -7.4770 C   0  0  1  0  0  0  0  0  0  0  0  0
   11.3760    9.5500   -6.5470 S   0  0  0  0  0  0  0  0  0  0  0  0
   11.8590    8.7990   -5.1170 C   0  0  0  0  0  0  0  0  0  0  0  0
   11.3090    7.3160   -5.0400 C   0  0  0  0  0  0  0  0  0  0  0  0
   11.4710    6.4840   -3.9760 C   0  0  0  0  0  0  0  0  0  0  0  0
   12.0290    6.6720   -2.7180 C   0  0  0  0  0  0  0  0  0  0  0  0
   12.5060    7.9390   -2.2290 C   0  0  1  0  0  0  0  0  0  0  0  0
   13.1370    7.9190   -1.0830 F   0  0  0  0  0  0  0  0  0  0  0  0
   12.2220    9.0590   -2.8510 C   0  0  0  0  0  0  0  0  0  0  0  0
   12.2400    9.4060   -4.0920 C   0  0  0  0  0  0  0  0  0  0  0  0
   10.6780    7.0050   -6.2800 C   0  0  1  0  0  0  0  0  0  0  0  0
    9.7840    6.4530   -7.6080 C   0  0  0  0  0  0  0  0  0  0  0  0
    9.1670    6.5670   -8.1290 N   0  0  0  0  0  0  0  0  0  0  0  0
    6.4640    7.1328  -12.5859 H   0  0  0  0  0  0  0  0  0  0  0  0
    7.5464    7.6472  -13.9241 H   0  0  0  0  0  0  0  0  0  0  0  0
    5.8199    8.1433  -13.9241 H   0  0  0  0  0  0  0  0  0  0  0  0
    5.4691    5.2503  -14.1005 H   0  0  0  0  0  0  0  0  0  0  0  0
    5.2203    7.8464  -15.1967 H   0  0  0  0  0  0  0  0  0  0  0  0
    6.5488    7.2216  -16.2318 H   0  0  0  0  0  0  0  0  0  0  0  0
    4.9496    6.4035  -16.2318 H   0  0  0  0  0  0  0  0  0  0  0  0
    9.0507    5.3132  -16.0205 H   0  0  0  0  0  0  0  0  0  0  0  0
    7.6851    4.3308  -16.6502 H   0  0  0  0  0  0  0  0  0  0  0  0
    7.5767    6.1239  -16.6502 H   0  0  0  0  0  0  0  0  0  0  0  0
    5.9870    3.7650  -15.1360 H   0  0  0  0  0  0  0  0  0  0  0  0
    8.1746    6.1037  -12.6254 H   0  0  0  0  0  0  0  0  0  0  0  0
    9.2670    5.9570  -14.8380 H   0  0  0  0  0  0  0  0  0  0  0  0
    6.9699    3.9486  -12.6904 H   0  0  0  0  0  0  0  0  0  0  0  0
    9.5980    3.8980  -11.2780 H   0  0  0  0  0  0  0  0  0  0  0  0
    8.6840    2.5930  -11.8210 H   0  0  0  0  0  0  0  0  0  0  0  0
    9.6310    3.4660  -12.9040 H   0  0  0  0  0  0  0  0  0  0  0  0
    7.2646    6.0652  -11.5127 H   0  0  0  0  0  0  0  0  0  0  0  0
    6.0410    4.8560   -9.6560 H   0  0  0  0  0  0  0  0  0  0  0  0
    7.7109    5.1623   -9.1029 H   0  0  0  0  0  0  0  0  0  0  0  0
    9.1755    4.7913  -10.3658 H   0  0  0  0  0  0  0  0  0  0  0  0
    8.6871    7.6920   -9.7888 H   0  0  0  0  0  0  0  0  0  0  0  0
    9.8546    6.3411  -11.4633 H   0  0  0  0  0  0  0  0  0  0  0  0
    9.8386    8.1421  -10.5348 H   0  0  0  0  0  0  0  0  0  0  0  0
   11.8494    6.2529  -10.5351 H   0  0  0  0  0  0  0  0  0  0  0  0
   11.5268    7.6903  -11.7286 H   0  0  0  0  0  0  0  0  0  0  0  0
   13.1211    7.8468   -9.4635 H   0  0  0  0  0  0  0  0  0  0  0  0
   12.4398    9.1992  -10.3053 H   0  0  0  0  0  0  0  0  0  0  0  0
   11.0952    9.4802   -8.5373 H   0  0  0  0  0  0  0  0  0  0  0  0
   10.4088    7.7109   -9.1048 H   0  0  0  0  0  0  0  0  0  0  0  0
   11.3982    6.9495   -7.9481 H   0  0  0  0  0  0  0  0  0  0  0  0
   11.0863    5.4673   -4.1442 H   0  0  0  0  0  0  0  0  0  0  0  0
   12.1115    5.7986   -2.0544 H   0  0  0  0  0  0  0  0  0  0  0  0
   11.5532    8.0942   -1.7017 H   0  0  0  0  0  0  0  0  0  0  0  0
   11.9036    9.8664   -2.1752 H   0  0  0  0  0  0  0  0  0  0  0  0
   12.6614   10.4042   -4.2817 H   0  0  0  0  0  0  0  0  0  0  0  0
   11.4443    6.2412   -6.4784 H   0  0  0  0  0  0  0  0  0  0  0  0
   10.6036    6.3472   -8.3340 H   0  0  0  0  0  0  0  0  0  0  0  0
    9.0889    5.9556   -6.9155 H   0  0  0  0  0  0  0  0  0  0  0  0
    8.5290    5.7900   -7.9070 H   0  0  0  0  0  0  0  0  0  0  0  0
    9.0770    7.5780   -7.9550 H   0  0  0  0  0  0  0  0  0  0  0  0
  1  2  1  0
  2  3  1  0
  2  4  1  0
  4  5  1  0
  4  6  1  1
  4  7  1  0
  7  8  1  0
  7  9  1  0
  9 10  1  0
  9 11  1  0
 11 12  1  0
 11 13  1  0
 13 14  1  0
 14 15  1  0
 15 16  1  0
 16 17  1  0
 17 18  1  0
 18 19  1  0
 19 20  1  0
 20 21  1  0
 21 22  2  0
 22 23  1  0
 23 24  2  0
 24 25  1  0
 25 26  1  0
 25 27  1  0
 27 28  2  0
 22 29  1  0
 29 30  1  0
 30 31  1  0
 31 14  1  0
 29 19  1  0
 28 21  1  0
  1 32  1  0
  1 33  1  0
  1 34  1  0
  2 35  1  0
  3 36  1  0
  3 37  1  0
  3 38  1  0
  5 39  1  0
  5 40  1  0
  5 41  1  0
  6 42  1  0
  7 43  1  1
  8 44  1  0
  9 45  1  6
 10 46  1  0
 10 47  1  0
 10 48  1  0
 11 49  1  6
 12 50  1  0
 13 51  1  0
 13 52  1  0
 14 53  1  1
 15 54  1  0
 15 55  1  0
 16 56  1  0
 16 57  1  0
 17 58  1  0
 17 59  1  0
 18 60  1  0
 18 61  1  0
 19 62  1  6
 23 63  1  0
 24 64  1  0
 25 65  1  6
 27 66  1  0
 28 67  1  0
 29 68  1  6
 30 69  1  0
 30 70  1  0
 31 71  1  0
 31 72  1  0
M  CHG  2  10   1  31   1
M  END
>  <ID>  (13) 
DiffSBDD_20_0

>  <docking_score>  (13) 
-11.691

$$$$
DiffSBDD_21
     RDKit          3D

 63 67  0  0  0  0  0  0  0  0999 V2000
    8.5840    2.1380  -17.6690 C   0  0  0  0  0  0  0  0  0  0  0  0
    7.9170    1.2380  -16.6310 C   0  0  0  0  0  0  0  0  0  0  0  0
    7.7370   -0.0710  -16.6600 N   0  0  0  0  0  0  0  0  0  0  0  0
    7.0700   -0.4500  -15.6320 N   0  0  0  0  0  0  0  0  0  0  0  0
    6.8180    0.5700  -14.8590 C   0  0  0  0  0  0  0  0  0  0  0  0
    6.2260    0.6490  -13.5750 C   0  0  0  0  0  0  0  0  0  0  0  0
    6.0510    1.8580  -12.9570 C   0  0  0  0  0  0  0  0  0  0  0  0
    6.5510    3.0510  -13.6140 C   0  0  0  0  0  0  0  0  0  0  0  0
    6.5140    4.3450  -13.0150 O   0  0  0  0  0  0  0  0  0  0  0  0
    7.3260    4.8350  -11.9610 C   0  0  1  0  0  0  0  0  0  0  0  0
    8.7570    4.4470  -11.8630 C   0  0  2  0  0  0  0  0  0  0  0  0
    9.0000    4.0310  -10.4960 C   0  0  0  0  0  0  0  0  0  0  0  0
    9.2410    5.2970   -9.6910 C   0  0  2  0  0  0  0  0  0  0  0  0
    9.1450    5.1820   -8.3540 C   0  0  0  0  0  0  0  0  0  0  0  0
    9.2490    6.4770   -7.6000 C   0  0  0  0  0  0  0  0  0  0  0  0
   10.7010    6.7970   -7.8930 C   0  0  2  0  0  0  0  0  0  0  0  0
   11.6650    6.3650   -6.9000 C   0  0  0  0  0  0  0  0  0  0  0  0
   11.1450    7.2040   -5.8650 C   0  0  1  0  0  0  0  0  0  0  0  0
   10.9670    6.6770   -4.5380 C   0  0  0  0  0  0  0  0  0  0  0  0
   11.2390    8.5460   -5.8430 C   0  0  0  0  0  0  0  0  0  0  0  0
   11.6140    9.6930   -5.7940 N   0  0  0  0  0  0  0  0  0  0  0  0
   11.0070    7.8010   -8.7750 C   0  0  2  0  0  0  0  0  0  0  0  0
   12.4320    8.1180   -9.2790 C   0  0  0  0  0  0  0  0  0  0  0  0
   10.0760    8.5500   -9.3890 C   0  0  0  0  0  0  0  0  0  0  0  0
    9.8160    7.5510  -10.9310 C   0  0  1  0  0  0  0  0  0  0  0  0
   10.9360    7.0170  -11.6570 O   0  0  0  0  0  0  0  0  0  0  0  0
    8.9730    6.3380  -10.5040 C   0  0  1  0  0  0  0  0  0  0  0  0
    8.4320    5.8880  -11.9910 C   0  0  2  0  0  0  0  0  0  0  0  0
    7.1320    2.9870  -14.8740 C   0  0  0  0  0  0  0  0  0  0  0  0
    7.3030    1.7190  -15.4480 C   0  0  0  0  0  0  0  0  0  0  0  0
    9.1638    2.9204  -17.1575 H   0  0  0  0  0  0  0  0  0  0  0  0
    9.2559    1.5362  -18.2986 H   0  0  0  0  0  0  0  0  0  0  0  0
    7.8127    2.6057  -18.2986 H   0  0  0  0  0  0  0  0  0  0  0  0
    8.0830   -0.6980  -17.4000 H   0  0  0  0  0  0  0  0  0  0  0  0
    5.9029   -0.2722  -13.0681 H   0  0  0  0  0  0  0  0  0  0  0  0
    5.5425    1.9235  -11.9838 H   0  0  0  0  0  0  0  0  0  0  0  0
    6.3952    4.7659  -11.3788 H   0  0  0  0  0  0  0  0  0  0  0  0
    9.4559    3.7953  -12.4078 H   0  0  0  0  0  0  0  0  0  0  0  0
    8.1255    3.4922  -10.1025 H   0  0  0  0  0  0  0  0  0  0  0  0
    9.8644    3.3534  -10.4362 H   0  0  0  0  0  0  0  0  0  0  0  0
   10.2362    5.6364   -9.3679 H   0  0  0  0  0  0  0  0  0  0  0  0
    8.1716    4.7267   -8.1190 H   0  0  0  0  0  0  0  0  0  0  0  0
   10.0004    4.5687   -8.0343 H   0  0  0  0  0  0  0  0  0  0  0  0
    8.5679    7.2435   -7.9983 H   0  0  0  0  0  0  0  0  0  0  0  0
    8.9773    6.4308   -6.5351 H   0  0  0  0  0  0  0  0  0  0  0  0
   10.9334    6.0564   -8.6725 H   0  0  0  0  0  0  0  0  0  0  0  0
   11.5900    5.2932   -6.6643 H   0  0  0  0  0  0  0  0  0  0  0  0
   12.7334    6.4525   -7.1465 H   0  0  0  0  0  0  0  0  0  0  0  0
   10.2475    7.0749   -6.4878 H   0  0  0  0  0  0  0  0  0  0  0  0
   11.2277    7.4489   -3.7989 H   0  0  0  0  0  0  0  0  0  0  0  0
    9.9177    6.3770   -4.4003 H   0  0  0  0  0  0  0  0  0  0  0  0
   11.6195    5.8022   -4.4003 H   0  0  0  0  0  0  0  0  0  0  0  0
   10.8643    7.1060   -9.6156 H   0  0  0  0  0  0  0  0  0  0  0  0
   13.1007    8.2668   -8.4183 H   0  0  0  0  0  0  0  0  0  0  0  0
   12.8002    7.2798   -9.8888 H   0  0  0  0  0  0  0  0  0  0  0  0
   12.4101    9.0332   -9.8888 H   0  0  0  0  0  0  0  0  0  0  0  0
    9.1551    8.6253   -8.7922 H   0  0  0  0  0  0  0  0  0  0  0  0
   10.3658    9.5971   -9.5609 H   0  0  0  0  0  0  0  0  0  0  0  0
    9.3832    8.2767  -11.6353 H   0  0  0  0  0  0  0  0  0  0  0  0
   11.7710    7.2050  -11.1610 H   0  0  0  0  0  0  0  0  0  0  0  0
    8.3666    6.7107   -9.6654 H   0  0  0  0  0  0  0  0  0  0  0  0
    8.5443    6.7728  -12.6349 H   0  0  0  0  0  0  0  0  0  0  0  0
    7.4468    3.8987  -15.4029 H   0  0  0  0  0  0  0  0  0  0  0  0
  1  2  1  0
  2  3  1  0
  3  4  1  0
  4  5  2  0
  5  6  1  0
  6  7  2  0
  7  8  1  0
  8  9  1  0
  9 10  1  0
 10 11  1  0
 11 12  1  0
 12 13  1  0
 13 14  1  0
 14 15  1  0
 15 16  1  0
 16 17  1  0
 17 18  1  0
 18 19  1  0
 18 20  1  0
 20 21  3  0
 16 22  1  0
 22 23  1  0
 22 24  1  0
 24 25  1  0
 25 26  1  0
 25 27  1  0
 27 28  1  0
  8 29  2  0
 29 30  1  0
 30  2  2  0
 30  5  1  0
 28 10  1  0
 28 11  1  0
 27 13  1  0
  1 31  1  0
  1 32  1  0
  1 33  1  0
  3 34  1  0
  6 35  1  0
  7 36  1  0
 10 37  1  1
 11 38  1  6
 12 39  1  0
 12 40  1  0
 13 41  1  1
 14 42  1  0
 14 43  1  0
 15 44  1  0
 15 45  1  0
 16 46  1  6
 17 47  1  0
 17 48  1  0
 18 49  1  6
 19 50  1  0
 19 51  1  0
 19 52  1  0
 22 53  1  1
 23 54  1  0
 23 55  1  0
 23 56  1  0
 24 57  1  0
 24 58  1  0
 25 59  1  6
 26 60  1  0
 27 61  1  1
 28 62  1  6
 29 63  1  0
M  END
>  <ID>  (14) 
DiffSBDD_21_0

>  <docking_score>  (14) 
-10.889

$$$$
DiffSBDD_22
     RDKit          3D

 59 63  0  0  0  0  0  0  0  0999 V2000
    6.7490    4.3960  -15.4600 O   0  0  0  0  0  0  0  0  0  0  0  0
    7.2510    3.3880  -15.2260 C   0  0  0  0  0  0  0  0  0  0  0  0
    6.7590    2.6310  -14.2790 N   0  0  0  0  0  0  0  0  0  0  0  0
    6.5150    3.1780  -12.9060 C   0  0  2  0  0  0  0  0  0  0  0  0
    5.3500    4.0230  -12.5020 C   0  0  0  0  0  0  0  0  0  0  0  0
    5.7490    4.9040  -11.3490 C   0  0  0  0  0  0  0  0  0  0  0  0
    7.0170    5.7360  -11.7470 C   0  0  0  0  0  0  0  0  0  0  0  0
    8.1080    4.6200  -11.9920 C   0  0  2  0  0  0  0  0  0  0  0  0
    9.3180    5.2070  -10.8930 C   0  0  2  0  0  0  0  0  0  0  0  0
    9.4580    4.5000   -9.6020 C   0  0  0  0  0  0  0  0  0  0  0  0
    9.4460    5.3770   -8.4770 C   0  0  0  0  0  0  0  0  0  0  0  0
   10.1790    6.6130   -8.3920 C   0  0  1  0  0  0  0  0  0  0  0  0
   10.4580    7.2780   -7.1670 C   0  0  0  0  0  0  0  0  0  0  0  0
   10.4360    8.6900   -7.0850 C   0  0  0  0  0  0  0  0  0  0  0  0
   10.8920    9.3450   -5.9610 C   0  0  0  0  0  0  0  0  0  0  0  0
   11.3250    8.6540   -4.8480 C   0  0  0  0  0  0  0  0  0  0  0  0
   11.3120    7.2390   -4.9020 C   0  0  0  0  0  0  0  0  0  0  0  0
   10.9140    6.5830   -6.1020 C   0  0  0  0  0  0  0  0  0  0  0  0
   10.4750    7.0680   -9.6150 N   0  0  0  0  0  0  0  0  0  0  0  0
   10.1220    6.2980  -10.7260 C   0  0  0  0  0  0  0  0  0  0  0  0
   10.7180    6.9820  -11.6440 C   0  0  0  0  0  0  0  0  0  0  0  0
   11.0720    6.5810  -12.4270 F   0  0  0  0  0  0  0  0  0  0  0  0
    8.0450    3.7210  -12.6310 C   0  0  0  0  0  0  0  0  0  0  0  0
    6.4290    1.3290  -14.3410 C   0  0  1  0  0  0  0  0  0  0  0  0
    5.1970    0.7820  -15.1010 C   0  0  0  0  0  0  0  0  0  0  0  0
    5.5750   -0.4130  -15.9340 C   0  0  0  0  0  0  0  0  0  0  0  0
    4.5750   -1.3290  -16.9370 Cl  0  0  0  0  0  0  0  0  0  0  0  0
    7.0550   -0.5960  -15.9090 N   0  0  0  0  0  0  0  0  0  0  0  0
    7.5590    0.4930  -15.0050 C   0  0  2  0  0  0  0  0  0  0  0  0
    7.1660    0.2600  -13.5680 C   0  0  0  0  0  0  0  0  0  0  0  0
    8.1361    3.0635  -15.7928 H   0  0  0  0  0  0  0  0  0  0  0  0
    6.0740    2.4307  -12.2300 H   0  0  0  0  0  0  0  0  0  0  0  0
    5.0380    4.6486  -13.3513 H   0  0  0  0  0  0  0  0  0  0  0  0
    4.5138    3.3759  -12.1985 H   0  0  0  0  0  0  0  0  0  0  0  0
    4.9224    5.5877  -11.1058 H   0  0  0  0  0  0  0  0  0  0  0  0
    5.9774    4.2814  -10.4714 H   0  0  0  0  0  0  0  0  0  0  0  0
    6.8361    6.3203  -12.6613 H   0  0  0  0  0  0  0  0  0  0  0  0
    7.3114    6.4715  -10.9839 H   0  0  0  0  0  0  0  0  0  0  0  0
    7.6694    4.0141  -11.1855 H   0  0  0  0  0  0  0  0  0  0  0  0
    9.3580    5.2590  -11.9910 H   0  0  0  0  0  0  0  0  0  0  0  0
    8.6245    3.7894   -9.5003 H   0  0  0  0  0  0  0  0  0  0  0  0
   10.4342    3.9931   -9.6110 H   0  0  0  0  0  0  0  0  0  0  0  0
    8.3909    5.6496   -8.3274 H   0  0  0  0  0  0  0  0  0  0  0  0
    9.9929    4.7682   -7.7419 H   0  0  0  0  0  0  0  0  0  0  0  0
    9.2390    7.1768   -8.4840 H   0  0  0  0  0  0  0  0  0  0  0  0
   10.0486    9.2750   -7.9322 H   0  0  0  0  0  0  0  0  0  0  0  0
   10.9111   10.4448   -5.9512 H   0  0  0  0  0  0  0  0  0  0  0  0
   11.6691    9.1849   -3.9481 H   0  0  0  0  0  0  0  0  0  0  0  0
   11.6078    6.6495   -4.0217 H   0  0  0  0  0  0  0  0  0  0  0  0
   10.9793    5.4866   -6.1629 H   0  0  0  0  0  0  0  0  0  0  0  0
    9.9910    7.7330  -11.9867 H   0  0  0  0  0  0  0  0  0  0  0  0
   11.6305    7.3109  -11.1253 H   0  0  0  0  0  0  0  0  0  0  0  0
    8.5041    3.9580  -13.6021 H   0  0  0  0  0  0  0  0  0  0  0  0
    8.5670    2.9181  -12.0899 H   0  0  0  0  0  0  0  0  0  0  0  0
    4.4260    0.4865  -14.3742 H   0  0  0  0  0  0  0  0  0  0  0  0
    4.8123    1.5696  -15.7655 H   0  0  0  0  0  0  0  0  0  0  0  0
    8.4844    0.7320  -15.5495 H   0  0  0  0  0  0  0  0  0  0  0  0
    6.6447   -0.6678  -13.2897 H   0  0  0  0  0  0  0  0  0  0  0  0
    7.7169    0.2455  -12.6160 H   0  0  0  0  0  0  0  0  0  0  0  0
  1  2  2  0
  2  3  1  0
  3  4  1  0
  4  5  1  0
  5  6  1  0
  6  7  1  0
  7  8  1  0
  8  9  1  0
  9 10  1  0
 10 11  1  0
 11 12  1  0
 12 13  1  0
 13 14  2  0
 14 15  1  0
 15 16  2  0
 16 17  1  0
 17 18  2  0
 12 19  1  0
 19 20  2  0
 20 21  1  0
 21 22  1  0
  8 23  1  0
 24  3  1  1
 24 25  1  0
 25 26  1  0
 26 27  1  0
 26 28  2  0
 28 29  1  0
 29 30  1  0
 23  4  1  0
 29 24  1  0
 20  9  1  0
 30 24  1  0
 18 13  1  0
  2 31  1  0
  4 32  1  1
  5 33  1  0
  5 34  1  0
  6 35  1  0
  6 36  1  0
  7 37  1  0
  7 38  1  0
  8 39  1  6
  9 40  1  6
 10 41  1  0
 10 42  1  0
 11 43  1  0
 11 44  1  0
 12 45  1  1
 14 46  1  0
 15 47  1  0
 16 48  1  0
 17 49  1  0
 18 50  1  0
 21 51  1  0
 21 52  1  0
 23 53  1  0
 23 54  1  0
 25 55  1  0
 25 56  1  0
 29 57  1  1
 30 58  1  0
 30 59  1  0
M  END
>  <ID>  (15) 
DiffSBDD_22_0

>  <docking_score>  (15) 
-10.163

$$$$
DiffSBDD_23
     RDKit          3D

 58 61  0  0  0  0  0  0  0  0999 V2000
   11.7010    6.6010   -2.3710 C   0  0  0  0  0  0  0  0  0  0  0  0
   11.7040    7.0490   -3.4580 C   0  0  0  0  0  0  0  0  0  0  0  0
   11.5220    7.6560   -4.8530 C   0  0  2  0  0  0  0  0  0  0  0  0
   11.9220    6.6730   -5.9700 C   0  0  0  0  0  0  0  0  0  0  0  0
   11.5420    7.3040   -7.3650 C   0  0  1  0  0  0  0  0  0  0  0  0
   10.1690    6.3750   -8.1620 S   0  0  2  0  0  4  0  0  0  0  0  0
    9.4300    4.7930   -8.3400 C   0  0  0  0  0  0  0  0  0  0  0  0
    7.9970    5.0790   -8.6820 C   0  0  0  0  0  0  0  0  0  0  0  0
    7.8160    5.1330  -10.0100 C   0  0  0  0  0  0  0  0  0  0  0  0
    8.7340    5.9550  -10.6030 C   0  0  0  0  0  0  0  0  0  0  0  0
    9.6780    6.5570   -9.8370 C   0  0  0  0  0  0  0  0  0  0  0  0
    8.3120    5.7740  -12.3300 S   0  0  0  0  0  0  0  0  0  0  0  0
    7.0210    4.4870  -12.2170 C   0  0  1  0  0  0  0  0  0  0  0  0
    7.5010    3.1920  -12.7550 C   0  0  2  0  0  0  0  0  0  0  0  0
    8.8820    3.1840  -12.4660 O   0  0  0  0  0  0  0  0  0  0  0  0
    7.2610    2.2590  -14.1230 C   0  0  0  0  0  0  0  0  0  0  0  0
    7.4490    2.8190  -15.4560 C   0  0  0  0  0  0  0  0  0  0  0  0
    7.4310    1.9160  -16.5260 C   0  0  0  0  0  0  0  0  0  0  0  0
    7.5690    2.3980  -17.9500 C   0  0  0  0  0  0  0  0  0  0  0  0
    7.2050    0.5610  -16.2410 C   0  0  0  0  0  0  0  0  0  0  0  0
    6.8630    0.1170  -14.9740 C   0  0  0  0  0  0  0  0  0  0  0  0
    6.7890    1.0370  -13.8790 C   0  0  0  0  0  0  0  0  0  0  0  0
    6.0630    0.6670  -12.5400 F   0  0  0  0  0  0  0  0  0  0  0  0
    7.0810    4.1880  -10.8070 O   0  0  0  0  0  0  0  0  0  0  0  0
   10.7930    8.6480   -7.0180 C   0  0  2  0  0  0  0  0  0  0  0  0
    9.8750    9.0930   -7.7480 F   0  0  0  0  0  0  0  0  0  0  0  0
   11.9770    9.2950   -6.4760 C   0  0  1  0  0  0  0  0  0  0  0  0
   11.9980   10.6570   -6.9090 O   0  0  0  0  0  0  0  0  0  0  0  0
   12.2640    8.9840   -5.0440 C   0  0  1  0  0  0  0  0  0  0  0  0
   11.6850   10.1100   -4.1720 C   0  0  0  0  0  0  0  0  0  0  0  0
   11.6982    6.1818   -1.3540 H   0  0  0  0  0  0  0  0  0  0  0  0
   10.4449    7.8658   -4.9291 H   0  0  0  0  0  0  0  0  0  0  0  0
   13.0059    6.4900   -5.9303 H   0  0  0  0  0  0  0  0  0  0  0  0
   11.3913    5.7190   -5.8351 H   0  0  0  0  0  0  0  0  0  0  0  0
   12.4489    7.3530   -7.9857 H   0  0  0  0  0  0  0  0  0  0  0  0
   10.0800    6.9580   -6.9260 H   0  0  0  0  0  0  0  0  0  0  0  0
    9.9161    4.2263   -9.1478 H   0  0  0  0  0  0  0  0  0  0  0  0
    9.5272    4.1831   -7.4297 H   0  0  0  0  0  0  0  0  0  0  0  0
    7.3630    4.2823   -8.2657 H   0  0  0  0  0  0  0  0  0  0  0  0
    7.7252    6.0551   -8.2538 H   0  0  0  0  0  0  0  0  0  0  0  0
   10.6087    6.3707  -10.3930 H   0  0  0  0  0  0  0  0  0  0  0  0
    9.1175    7.4914   -9.6862 H   0  0  0  0  0  0  0  0  0  0  0  0
    6.0876    4.8146  -12.6980 H   0  0  0  0  0  0  0  0  0  0  0  0
    6.6332    2.6654  -12.3312 H   0  0  0  0  0  0  0  0  0  0  0  0
    9.0590    3.7630  -11.6830 H   0  0  0  0  0  0  0  0  0  0  0  0
    7.5976    3.8975  -15.6133 H   0  0  0  0  0  0  0  0  0  0  0  0
    7.8718    3.4555  -17.9514 H   0  0  0  0  0  0  0  0  0  0  0  0
    8.3313    1.7976  -18.4681 H   0  0  0  0  0  0  0  0  0  0  0  0
    6.6044    2.2921  -18.4681 H   0  0  0  0  0  0  0  0  0  0  0  0
    7.3028   -0.1751  -17.0525 H   0  0  0  0  0  0  0  0  0  0  0  0
    6.6470   -0.9487  -14.8081 H   0  0  0  0  0  0  0  0  0  0  0  0
    9.9238    8.7297   -6.3487 H   0  0  0  0  0  0  0  0  0  0  0  0
   12.8871    8.8460   -6.9005 H   0  0  0  0  0  0  0  0  0  0  0  0
   11.5870   11.2300   -6.2140 H   0  0  0  0  0  0  0  0  0  0  0  0
   13.3277    8.9087   -4.7740 H   0  0  0  0  0  0  0  0  0  0  0  0
   11.8159    9.8554   -3.1099 H   0  0  0  0  0  0  0  0  0  0  0  0
   12.2111   11.0508   -4.3911 H   0  0  0  0  0  0  0  0  0  0  0  0
   10.6137   10.2294   -4.3911 H   0  0  0  0  0  0  0  0  0  0  0  0
  1  2  3  0
  2  3  1  0
  3  4  1  0
  4  5  1  0
  5  6  1  0
  6  7  1  0
  7  8  1  0
  8  9  1  0
  9 10  2  0
 10 11  1  0
 10 12  1  0
 12 13  1  0
 13 14  1  0
 14 15  1  0
 14 16  1  0
 16 17  1  0
 17 18  2  0
 18 19  1  0
 18 20  1  0
 20 21  2  0
 21 22  1  0
 22 23  1  0
 13 24  1  0
  5 25  1  0
 25 26  1  0
 25 27  1  0
 27 28  1  0
 27 29  1  0
 29 30  1  0
 29  3  1  0
 11  6  1  0
 22 16  2  0
 24  9  1  0
  1 31  1  0
  3 32  1  6
  4 33  1  0
  4 34  1  0
  5 35  1  6
  6 36  1  1
  7 37  1  0
  7 38  1  0
  8 39  1  0
  8 40  1  0
 11 41  1  0
 11 42  1  0
 13 43  1  6
 14 44  1  1
 15 45  1  0
 17 46  1  0
 19 47  1  0
 19 48  1  0
 19 49  1  0
 20 50  1  0
 21 51  1  0
 25 52  1  1
 27 53  1  6
 28 54  1  0
 29 55  1  6
 30 56  1  0
 30 57  1  0
 30 58  1  0
M  END
>  <ID>  (16) 
DiffSBDD_23_0

>  <docking_score>  (16) 
-10.136

$$$$
DiffSBDD_24
     RDKit          3D

 79 83  0  0  0  0  0  0  0  0999 V2000
   12.4070    6.9120   -2.2270 C   0  0  0  0  0  0  0  0  0  0  0  0
   12.3500    8.3920   -2.4900 C   0  0  0  0  0  0  0  0  0  0  0  0
   12.0870    8.6070   -4.0970 C   0  0  2  0  0  0  0  0  0  0  0  0
   11.4010    9.6660   -4.1120 O   0  0  0  0  0  0  0  0  0  0  0  0
   11.7340    7.1860   -4.6910 C   0  0  0  0  0  0  0  0  0  0  0  0
   10.5340    7.3780   -5.7310 C   0  0  2  0  0  0  0  0  0  0  0  0
   11.1110    6.4390   -6.7720 O   0  0  0  0  0  0  0  0  0  0  0  0
   10.5490    7.6830   -7.2430 C   0  0  1  0  0  0  0  0  0  0  0  0
   10.1040    8.4410   -8.2510 C   0  0  2  0  0  0  0  0  0  0  0  0
    9.8310    7.7000   -9.5130 C   0  0  2  0  0  0  0  0  0  0  0  0
    9.0350    8.4630  -10.4320 O   0  0  0  0  0  0  0  0  0  0  0  0
    8.9740    6.6600   -9.0760 N   0  0  0  0  0  0  0  0  0  0  0  0
    8.7840    5.5320   -9.6810 C   0  0  0  0  0  0  0  0  0  0  0  0
    9.2220    4.3550   -9.0530 O   0  0  0  0  0  0  0  0  0  0  0  0
    7.9530    5.4530  -11.0610 C   0  0  0  0  0  0  0  0  0  0  0  0
    8.2900    5.7290  -12.5040 C   0  0  0  0  0  0  0  0  0  0  0  0
    8.0750    4.4670  -13.3880 C   0  0  0  0  0  0  0  0  0  0  0  0
    8.2880    4.5330  -14.7130 C   0  0  0  0  0  0  0  0  0  0  0  0
    7.9920    3.5680  -15.6070 C   0  0  0  0  0  0  0  0  0  0  0  0
    7.4110    2.3670  -15.0480 C   0  0  0  0  0  0  0  0  0  0  0  0
    7.5020    2.1520  -13.7520 C   0  0  0  0  0  0  0  0  0  0  0  0
    7.7320    3.2490  -12.9490 C   0  0  0  0  0  0  0  0  0  0  0  0
    7.2430    0.7400  -13.1760 C   0  0  0  0  0  0  0  0  0  0  0  0
    5.5720    0.7460  -13.3610 C   0  0  0  0  0  0  0  0  0  0  0  0
    5.0780    0.5350  -14.8190 C   0  0  0  0  0  0  0  0  0  0  0  0
    6.1030    0.4200  -15.7800 C   0  0  1  0  0  0  0  0  0  0  0  0
    5.9240   -0.3070  -17.1400 C   0  0  0  0  0  0  0  0  0  0  0  0
    6.9780   -0.3970  -18.0040 C   0  0  0  0  0  0  0  0  0  0  0  0
    6.8410   -0.9610  -19.2130 C   0  0  0  0  0  0  0  0  0  0  0  0
    5.6500   -1.6360  -19.4550 C   0  0  0  0  0  0  0  0  0  0  0  0
    5.3000   -2.1070  -20.6310 O   0  0  0  0  0  0  0  0  0  0  0  0
    5.8190   -3.2280  -21.3650 C   0  0  0  0  0  0  0  0  0  0  0  0
    4.6640   -1.7830  -18.4700 C   0  0  0  0  0  0  0  0  0  0  0  0
    3.7860   -2.6440  -18.4620 O   0  0  0  0  0  0  0  0  0  0  0  0
    4.2030   -4.1740  -17.9590 C   0  0  0  0  0  0  0  0  0  0  0  0
    4.7540   -0.9690  -17.4250 C   0  0  0  0  0  0  0  0  0  0  0  0
    6.8700    1.4450  -16.0020 O   0  0  0  0  0  0  0  0  0  0  0  0
   11.6840    8.4570   -7.8290 C   0  0  0  0  0  0  0  0  0  0  0  0
   11.9500    9.6740   -7.0870 O   0  0  0  0  0  0  0  0  0  0  0  0
   12.6730    7.9680   -8.6110 O   0  0  0  0  0  0  0  0  0  0  0  0
   12.4139    6.7324   -1.1418 H   0  0  0  0  0  0  0  0  0  0  0  0
   11.5269    6.4261   -2.6735 H   0  0  0  0  0  0  0  0  0  0  0  0
   13.3219    6.4952   -2.6735 H   0  0  0  0  0  0  0  0  0  0  0  0
   11.5294    8.8432   -1.9129 H   0  0  0  0  0  0  0  0  0  0  0  0
   13.2921    8.8724   -2.1873 H   0  0  0  0  0  0  0  0  0  0  0  0
   12.8561    8.8490   -4.8453 H   0  0  0  0  0  0  0  0  0  0  0  0
   11.9750   10.4270   -4.3770 H   0  0  0  0  0  0  0  0  0  0  0  0
   12.6114    6.7662   -5.2047 H   0  0  0  0  0  0  0  0  0  0  0  0
   11.4404    6.4946   -3.8874 H   0  0  0  0  0  0  0  0  0  0  0  0
    9.7601    7.7456   -5.0411 H   0  0  0  0  0  0  0  0  0  0  0  0
    9.3093    9.1925   -8.3679 H   0  0  0  0  0  0  0  0  0  0  0  0
   10.7705    7.4159  -10.0096 H   0  0  0  0  0  0  0  0  0  0  0  0
    9.5700    8.6690  -11.2400 H   0  0  0  0  0  0  0  0  0  0  0  0
    8.4570    6.8160   -8.2000 H   0  0  0  0  0  0  0  0  0  0  0  0
    7.6065    4.4092  -11.0825 H   0  0  0  0  0  0  0  0  0  0  0  0
    7.3990    6.3900  -10.9025 H   0  0  0  0  0  0  0  0  0  0  0  0
    7.6444    6.5393  -12.8737 H   0  0  0  0  0  0  0  0  0  0  0  0
    9.3500    6.0169  -12.5632 H   0  0  0  0  0  0  0  0  0  0  0  0
    8.7438    5.4552  -15.1026 H   0  0  0  0  0  0  0  0  0  0  0  0
    8.1790    3.6856  -16.6846 H   0  0  0  0  0  0  0  0  0  0  0  0
    7.6254    3.1132  -11.8626 H   0  0  0  0  0  0  0  0  0  0  0  0
    7.7288   -0.0509  -13.7664 H   0  0  0  0  0  0  0  0  0  0  0  0
    7.6253    0.5438  -12.1634 H   0  0  0  0  0  0  0  0  0  0  0  0
    5.1557   -0.0597  -12.7385 H   0  0  0  0  0  0  0  0  0  0  0  0
    5.2303    1.7472  -13.0597 H   0  0  0  0  0  0  0  0  0  0  0  0
    4.4779   -0.3865  -14.8469 H   0  0  0  0  0  0  0  0  0  0  0  0
    4.5042    1.4351  -15.0847 H   0  0  0  0  0  0  0  0  0  0  0  0
    6.5660   -0.3187  -15.1092 H   0  0  0  0  0  0  0  0  0  0  0  0
    7.9582    0.0008  -17.7024 H   0  0  0  0  0  0  0  0  0  0  0  0
    7.6314   -0.8929  -19.9750 H   0  0  0  0  0  0  0  0  0  0  0  0
    6.1740   -3.9948  -20.6607 H   0  0  0  0  0  0  0  0  0  0  0  0
    5.0251   -3.6510  -21.9981 H   0  0  0  0  0  0  0  0  0  0  0  0
    6.6552   -2.8963  -21.9981 H   0  0  0  0  0  0  0  0  0  0  0  0
    4.2125   -4.2087  -16.8596 H   0  0  0  0  0  0  0  0  0  0  0  0
    3.4696   -4.8986  -18.3424 H   0  0  0  0  0  0  0  0  0  0  0  0
    5.2027   -4.4263  -18.3424 H   0  0  0  0  0  0  0  0  0  0  0  0
    3.8776   -0.8221  -16.7767 H   0  0  0  0  0  0  0  0  0  0  0  0
   12.9140    9.8920   -7.1460 H   0  0  0  0  0  0  0  0  0  0  0  0
   12.3740    7.9610   -9.5550 H   0  0  0  0  0  0  0  0  0  0  0  0
  1  2  1  0
  2  3  1  0
  3  4  1  0
  3  5  1  0
  5  6  1  0
  6  7  1  0
  8  7  1  6
  8  9  1  0
  9 10  1  0
 10 11  1  0
 10 12  1  0
 12 13  1  0
 13 14  2  0
 13 15  1  0
 15 16  1  0
 16 17  1  0
 17 18  1  0
 18 19  2  0
 19 20  1  0
 20 21  2  0
 21 22  1  0
 21 23  1  0
 23 24  1  0
 24 25  1  0
 25 26  1  0
 26 27  1  0
 27 28  1  0
 28 29  2  0
 29 30  1  0
 30 31  1  0
 31 32  1  0
 30 33  2  0
 33 34  1  0
 34 35  1  0
 33 36  1  0
 26 37  1  0
  9 38  1  0
 38 39  1  0
 38 40  1  0
  8  6  1  0
 22 17  2  0
 36 27  2  0
 38  8  1  0
 37 20  1  0
  1 41  1  0
  1 42  1  0
  1 43  1  0
  2 44  1  0
  2 45  1  0
  3 46  1  6
  4 47  1  0
  5 48  1  0
  5 49  1  0
  6 50  1  1
  9 51  1  1
 10 52  1  6
 11 53  1  0
 12 54  1  0
 15 55  1  0
 15 56  1  0
 16 57  1  0
 16 58  1  0
 18 59  1  0
 19 60  1  0
 22 61  1  0
 23 62  1  0
 23 63  1  0
 24 64  1  0
 24 65  1  0
 25 66  1  0
 25 67  1  0
 26 68  1  1
 28 69  1  0
 29 70  1  0
 32 71  1  0
 32 72  1  0
 32 73  1  0
 35 74  1  0
 35 75  1  0
 35 76  1  0
 36 77  1  0
 39 78  1  0
 40 79  1  0
M  END
>  <ID>  (17) 
DiffSBDD_24_0

>  <docking_score>  (17) 
-9.694

$$$$
DiffSBDD_25
     RDKit          3D

 44 46  0  0  0  0  0  0  0  0999 V2000
   10.1620    5.8340   -7.4500 C   0  0  0  0  0  0  0  0  0  0  0  0
    9.7380    6.2380   -8.8800 C   0  0  1  0  0  0  0  0  0  0  0  0
    8.2870    5.9800   -9.1260 N   0  0  0  0  0  0  0  0  0  0  0  0
   10.0300    7.7330   -9.0900 C   0  0  2  0  0  0  0  0  0  0  0  0
    9.4550    7.8200  -10.5240 C   0  0  0  0  0  0  0  0  0  0  0  0
   10.5990    7.3220  -11.3240 C   0  0  0  0  0  0  0  0  0  0  0  0
   11.8860    7.7170  -10.4900 C   0  0  0  0  0  0  0  0  0  0  0  0
   11.3130    8.4300   -9.3790 C   0  0  2  0  0  0  0  0  0  0  0  0
   12.0360    8.4460   -8.1290 N   0  0  0  0  0  0  0  0  0  0  0  0
   11.5850    9.2040   -7.1890 C   0  0  2  0  0  0  0  0  0  0  0  0
   11.3200    9.8560   -6.1020 C   0  0  0  0  0  0  0  0  0  0  0  0
   11.7460    8.4890   -5.8400 C   0  0  1  0  0  0  0  0  0  0  0  0
   11.8610    8.0540   -4.3800 C   0  0  0  0  0  0  0  0  0  0  0  0
   12.4280    9.0820   -3.7080 C   0  0  0  0  0  0  0  0  0  0  0  0
   12.6460    8.8230   -2.3500 C   0  0  0  0  0  0  0  0  0  0  0  0
   12.3780    7.6240   -1.7880 C   0  0  0  0  0  0  0  0  0  0  0  0
   11.8400    6.6740   -2.5610 C   0  0  0  0  0  0  0  0  0  0  0  0
   11.6570    6.8880   -3.8770 C   0  0  0  0  0  0  0  0  0  0  0  0
    9.5678    6.4002   -6.7176 H   0  0  0  0  0  0  0  0  0  0  0  0
    9.9905    4.7569   -7.3072 H   0  0  0  0  0  0  0  0  0  0  0  0
   11.2296    6.0574   -7.3072 H   0  0  0  0  0  0  0  0  0  0  0  0
   10.3142    5.6262   -9.5897 H   0  0  0  0  0  0  0  0  0  0  0  0
    7.7560    6.1580   -8.2610 H   0  0  0  0  0  0  0  0  0  0  0  0
    7.9480    6.6050   -9.8720 H   0  0  0  0  0  0  0  0  0  0  0  0
    8.1570    5.0000   -9.4140 H   0  0  0  0  0  0  0  0  0  0  0  0
    9.7355    8.1719   -8.1253 H   0  0  0  0  0  0  0  0  0  0  0  0
    8.5700    7.1777  -10.6430 H   0  0  0  0  0  0  0  0  0  0  0  0
    9.1067    8.8233  -10.8105 H   0  0  0  0  0  0  0  0  0  0  0  0
   10.5383    6.2306  -11.4474 H   0  0  0  0  0  0  0  0  0  0  0  0
   10.6142    7.7533  -12.3358 H   0  0  0  0  0  0  0  0  0  0  0  0
   12.4337    6.8246  -10.1529 H   0  0  0  0  0  0  0  0  0  0  0  0
   12.6230    8.3013  -11.0604 H   0  0  0  0  0  0  0  0  0  0  0  0
   11.2723    9.4823   -9.6968 H   0  0  0  0  0  0  0  0  0  0  0  0
   12.0480    7.4810   -7.7670 H   0  0  0  0  0  0  0  0  0  0  0  0
   12.9590    8.8400   -8.3640 H   0  0  0  0  0  0  0  0  0  0  0  0
   11.3476    9.7263   -8.1276 H   0  0  0  0  0  0  0  0  0  0  0  0
   11.9841   10.6817   -5.8065 H   0  0  0  0  0  0  0  0  0  0  0  0
   10.4281   10.4166   -5.7854 H   0  0  0  0  0  0  0  0  0  0  0  0
   12.7952    8.8190   -5.8243 H   0  0  0  0  0  0  0  0  0  0  0  0
   12.6940   10.0363   -4.1862 H   0  0  0  0  0  0  0  0  0  0  0  0
   13.0508    9.6259   -1.7164 H   0  0  0  0  0  0  0  0  0  0  0  0
   12.5957    7.4346   -0.7265 H   0  0  0  0  0  0  0  0  0  0  0  0
   11.5452    5.7113   -2.1180 H   0  0  0  0  0  0  0  0  0  0  0  0
   11.3313    6.0615   -4.5257 H   0  0  0  0  0  0  0  0  0  0  0  0
  1  2  1  0
  2  3  1  0
  2  4  1  0
  4  5  1  0
  5  6  1  0
  6  7  1  0
  7  8  1  0
  8  9  1  0
  9 10  1  0
 10 11  1  0
 11 12  1  0
 12 13  1  0
 13 14  2  0
 14 15  1  0
 15 16  2  0
 16 17  1  0
 17 18  2  0
  8  4  1  0
 12 10  1  0
 18 13  1  0
  1 19  1  0
  1 20  1  0
  1 21  1  0
  2 22  1  6
  3 23  1  0
  3 24  1  0
  3 25  1  0
  4 26  1  1
  5 27  1  0
  5 28  1  0
  6 29  1  0
  6 30  1  0
  7 31  1  0
  7 32  1  0
  8 33  1  6
  9 34  1  0
  9 35  1  0
 10 36  1  6
 11 37  1  0
 11 38  1  0
 12 39  1  1
 14 40  1  0
 15 41  1  0
 16 42  1  0
 17 43  1  0
 18 44  1  0
M  CHG  2   3   1   9   1
M  END
>  <ID>  (18) 
DiffSBDD_25_0

>  <docking_score>  (18) 
-8.926

$$$$
DiffSBDD_26
     RDKit          3D

 78 82  0  0  0  0  0  0  0  0999 V2000
    4.8830   -3.0540  -18.0610 C   0  0  0  0  0  0  0  0  0  0  0  0
    6.1330   -2.4550  -17.8850 C   0  0  0  0  0  0  0  0  0  0  0  0
    7.5280   -2.9590  -18.4980 C   0  0  0  0  0  0  0  0  0  0  0  0
    6.4500   -1.8400  -16.6030 O   0  0  0  0  0  0  0  0  0  0  0  0
    6.2600   -0.3760  -16.6250 C   0  0  2  0  0  0  0  0  0  0  0  0
    4.7560   -0.2080  -16.4420 C   0  0  0  0  0  0  0  0  0  0  0  0
    6.7760    0.1850  -17.7990 C   0  0  0  0  0  0  0  0  0  0  0  0
    6.7990    1.6180  -17.4500 C   0  0  0  0  0  0  0  0  0  0  0  0
    7.4760    1.5510  -16.1380 N   0  0  1  0  0  0  0  0  0  0  0  0
    7.0650    2.8630  -15.3410 C   0  0  0  0  0  0  0  0  0  0  0  0
    7.9670    3.2660  -14.4320 C   0  0  0  0  0  0  0  0  0  0  0  0
    7.7550    4.5720  -14.0630 C   0  0  1  0  0  0  0  0  0  0  0  0
    7.0510    5.7380  -14.7730 C   0  0  0  0  0  0  0  0  0  0  0  0
    7.5770    4.6370  -12.3440 C   0  0  2  0  0  0  0  0  0  0  0  0
    6.7960    4.8560  -11.1870 C   0  0  0  0  0  0  0  0  0  0  0  0
    7.6830    4.9640   -9.9020 C   0  0  0  0  0  0  0  0  0  0  0  0
    8.6970    6.0510  -10.1650 N   0  0  1  0  0  0  0  0  0  0  0  0
    9.3770    6.6210   -9.0260 C   0  0  2  0  0  0  0  0  0  0  0  0
    9.3290    6.2410   -7.8890 C   0  0  0  0  0  0  0  0  0  0  0  0
   10.0240    6.5340   -6.4470 C   0  0  0  0  0  0  0  0  0  0  0  0
   11.0740    6.8330   -5.3330 C   0  0  0  0  0  0  0  0  0  0  0  0
   11.3690    6.6390   -4.1000 C   0  0  0  0  0  0  0  0  0  0  0  0
   12.2750    7.4520   -3.4290 C   0  0  0  0  0  0  0  0  0  0  0  0
   12.8150    7.2300   -2.3250 F   0  0  0  0  0  0  0  0  0  0  0  0
   12.6130    8.5600   -4.0130 O   0  0  0  0  0  0  0  0  0  0  0  0
   12.0710    8.9690   -5.1620 C   0  0  0  0  0  0  0  0  0  0  0  0
   12.4060   10.0110   -5.7400 O   0  0  0  0  0  0  0  0  0  0  0  0
   11.4220    7.9450   -6.0530 C   0  0  0  0  0  0  0  0  0  0  0  0
   11.2170    8.3950   -7.5910 C   0  0  0  0  0  0  0  0  0  0  0  0
   10.9590    8.3950   -8.5760 C   0  0  0  0  0  0  0  0  0  0  0  0
   10.3280    7.7380   -9.5740 C   0  0  0  0  0  0  0  0  0  0  0  0
    8.6010    6.3710  -11.6290 C   0  0  1  0  0  0  0  0  0  0  0  0
    9.1670    6.3340  -12.9730 C   0  0  0  0  0  0  0  0  0  0  0  0
    8.8520    5.1920  -12.5090 C   0  0  2  0  0  0  0  0  0  0  0  0
    7.1220    0.2210  -15.5790 C   0  0  1  0  0  0  0  0  0  0  0  0
    6.4350    0.0490  -14.3730 O   0  0  0  0  0  0  0  0  0  0  0  0
    6.9240   -0.1430  -13.3290 O   0  0  0  0  0  0  0  0  0  0  0  0
    4.4372   -3.2676  -17.0784 H   0  0  0  0  0  0  0  0  0  0  0  0
    4.2257   -2.3730  -18.6216 H   0  0  0  0  0  0  0  0  0  0  0  0
    5.0020   -3.9929  -18.6216 H   0  0  0  0  0  0  0  0  0  0  0  0
    5.7322   -1.7864  -18.6611 H   0  0  0  0  0  0  0  0  0  0  0  0
    8.2192   -3.2087  -17.6796 H   0  0  0  0  0  0  0  0  0  0  0  0
    7.3553   -3.8516  -19.1173 H   0  0  0  0  0  0  0  0  0  0  0  0
    7.9656   -2.1621  -19.1173 H   0  0  0  0  0  0  0  0  0  0  0  0
    4.5180   -0.1814  -15.3684 H   0  0  0  0  0  0  0  0  0  0  0  0
    4.4321    0.7319  -16.9128 H   0  0  0  0  0  0  0  0  0  0  0  0
    4.2327   -1.0533  -16.9128 H   0  0  0  0  0  0  0  0  0  0  0  0
    7.7862   -0.1928  -18.0154 H   0  0  0  0  0  0  0  0  0  0  0  0
    6.1944   -0.0488  -18.7029 H   0  0  0  0  0  0  0  0  0  0  0  0
    7.3767    2.2064  -18.1780 H   0  0  0  0  0  0  0  0  0  0  0  0
    5.8144    2.1083  -17.4391 H   0  0  0  0  0  0  0  0  0  0  0  0
    8.5060    1.5780  -16.1280 H   0  0  0  0  0  0  0  0  0  0  0  0
    6.9222    3.6763  -16.0678 H   0  0  0  0  0  0  0  0  0  0  0  0
    6.1478    2.6179  -14.7853 H   0  0  0  0  0  0  0  0  0  0  0  0
    7.8892    2.6250  -13.5415 H   0  0  0  0  0  0  0  0  0  0  0  0
    8.9688    3.1902  -14.8800 H   0  0  0  0  0  0  0  0  0  0  0  0
    8.6353    4.9054  -14.6322 H   0  0  0  0  0  0  0  0  0  0  0  0
    6.6352    6.4267  -14.0228 H   0  0  0  0  0  0  0  0  0  0  0  0
    7.7757    6.2754  -15.4023 H   0  0  0  0  0  0  0  0  0  0  0  0
    6.2380    5.3469  -15.4023 H   0  0  0  0  0  0  0  0  0  0  0  0
    6.9010    3.8832  -11.9141 H   0  0  0  0  0  0  0  0  0  0  0  0
    6.2312    5.7919  -11.3100 H   0  0  0  0  0  0  0  0  0  0  0  0
    6.1172    3.9992  -11.0642 H   0  0  0  0  0  0  0  0  0  0  0  0
    7.0616    5.2274   -9.0334 H   0  0  0  0  0  0  0  0  0  0  0  0
    8.1775    4.0066   -9.6809 H   0  0  0  0  0  0  0  0  0  0  0  0
    7.9570    6.7620  -10.0780 H   0  0  0  0  0  0  0  0  0  0  0  0
   10.2380    5.9616   -9.2100 H   0  0  0  0  0  0  0  0  0  0  0  0
    8.5786    5.4429   -7.7901 H   0  0  0  0  0  0  0  0  0  0  0  0
   10.8927    5.8077   -3.5595 H   0  0  0  0  0  0  0  0  0  0  0  0
   11.3653    9.3199   -9.0112 H   0  0  0  0  0  0  0  0  0  0  0  0
    9.7331    8.4587  -10.1542 H   0  0  0  0  0  0  0  0  0  0  0  0
   11.0918    7.2578  -10.2032 H   0  0  0  0  0  0  0  0  0  0  0  0
    8.0823    7.2312  -11.1807 H   0  0  0  0  0  0  0  0  0  0  0  0
    8.5843    6.7492  -13.8085 H   0  0  0  0  0  0  0  0  0  0  0  0
   10.1019    6.7309  -13.3954 H   0  0  0  0  0  0  0  0  0  0  0  0
    9.4331    4.2893  -12.7486 H   0  0  0  0  0  0  0  0  0  0  0  0
    8.1000   -0.2115  -15.3210 H   0  0  0  0  0  0  0  0  0  0  0  0
    7.1980    0.7210  -12.9290 H   0  0  0  0  0  0  0  0  0  0  0  0
  1  2  1  0
  2  3  1  0
  2  4  1  0
  5  4  1  6
  5  6  1  0
  5  7  1  0
  7  8  1  0
  8  9  1  0
  9 10  1  0
 10 11  1  0
 11 12  1  0
 12 13  1  0
 12 14  1  0
 14 15  1  0
 15 16  1  0
 16 17  1  0
 17 18  1  0
 18 19  1  0
 19 20  2  0
 20 21  2  0
 21 22  1  0
 22 23  2  0
 23 24  1  0
 23 25  1  0
 25 26  1  0
 26 27  2  0
 26 28  1  0
 28 29  2  0
 29 30  2  0
 30 31  1  0
 17 32  1  0
 32 33  1  0
 33 34  1  0
  9 35  1  0
 35 36  1  0
 36 37  1  0
 35  5  1  0
 34 14  1  0
 31 18  1  0
 34 32  1  0
 28 21  1  0
  1 38  1  0
  1 39  1  0
  1 40  1  0
  2 41  1  0
  3 42  1  0
  3 43  1  0
  3 44  1  0
  6 45  1  0
  6 46  1  0
  6 47  1  0
  7 48  1  0
  7 49  1  0
  8 50  1  0
  8 51  1  0
  9 52  1  6
 10 53  1  0
 10 54  1  0
 11 55  1  0
 11 56  1  0
 12 57  1  1
 13 58  1  0
 13 59  1  0
 13 60  1  0
 14 61  1  1
 15 62  1  0
 15 63  1  0
 16 64  1  0
 16 65  1  0
 17 66  1  6
 18 67  1  1
 19 68  1  0
 22 69  1  0
 30 70  1  0
 31 71  1  0
 31 72  1  0
 32 73  1  1
 33 74  1  0
 33 75  1  0
 34 76  1  1
 35 77  1  1
 37 78  1  0
M  CHG  2   9   1  17   1
M  END
>  <ID>  (19) 
DiffSBDD_26_0

>  <docking_score>  (19) 
-11.113

$$$$
DiffSBDD_27
     RDKit          3D

 50 50  0  0  0  0  0  0  0  0999 V2000
    7.6960    4.1180  -14.9710 C   0  0  0  0  0  0  0  0  0  0  0  0
    7.4430    5.8530  -14.6380 C   0  0  0  0  0  0  0  0  0  0  0  0
    6.1050    6.3860  -15.0790 C   0  0  0  0  0  0  0  0  0  0  0  0
    7.5740    5.7930  -13.1330 C   0  0  2  0  0  0  0  0  0  0  0  0
    6.3220    6.0200  -12.4750 C   0  0  0  0  0  0  0  0  0  0  0  0
    5.6450    4.7250  -11.9390 C   0  0  0  0  0  0  0  0  0  0  0  0
    5.8940    4.2840  -10.6990 O   0  0  0  0  0  0  0  0  0  0  0  0
    8.7590    6.4120  -12.4970 C   0  0  0  0  0  0  0  0  0  0  0  0
    9.1650    5.8310  -11.1010 C   0  0  2  0  0  0  0  0  0  0  0  0
    8.9470    4.5180  -11.0760 O   0  0  0  0  0  0  0  0  0  0  0  0
    9.3630    3.5660  -11.6910 O   0  0  0  0  0  0  0  0  0  0  0  0
    8.9220    6.2920   -9.6910 C   0  0  1  0  0  0  0  0  0  0  0  0
    7.8630    5.4820   -9.2110 O   0  0  0  0  0  0  0  0  0  0  0  0
   10.1670    6.5210   -8.9420 C   0  0  0  0  0  0  0  0  0  0  0  0
    9.4500    6.9310   -7.1920 S   0  0  0  0  0  0  0  0  0  0  0  0
   10.8670    6.8130   -6.4230 C   0  0  0  0  0  0  0  0  0  0  0  0
   11.3930    7.5210   -5.2440 C   0  0  0  0  0  0  0  0  0  0  0  0
   11.7930    8.8280   -5.0800 C   0  0  0  0  0  0  0  0  0  0  0  0
   12.2160    9.3390   -3.8300 C   0  0  0  0  0  0  0  0  0  0  0  0
   12.2550    8.4320   -2.7610 C   0  0  0  0  0  0  0  0  0  0  0  0
   12.5200    8.8730   -1.5410 F   0  0  0  0  0  0  0  0  0  0  0  0
   12.0400    7.0750   -2.9630 C   0  0  0  0  0  0  0  0  0  0  0  0
   12.3010    6.1580   -1.9900 F   0  0  0  0  0  0  0  0  0  0  0  0
   11.5900    6.6400   -4.1630 C   0  0  0  0  0  0  0  0  0  0  0  0
    7.7759    3.5701  -14.0205 H   0  0  0  0  0  0  0  0  0  0  0  0
    6.8453    3.7277  -15.5489 H   0  0  0  0  0  0  0  0  0  0  0  0
    8.6228    3.9869  -15.5489 H   0  0  0  0  0  0  0  0  0  0  0  0
    8.1244    6.5325  -15.1709 H   0  0  0  0  0  0  0  0  0  0  0  0
    5.4972    6.6281  -14.1947 H   0  0  0  0  0  0  0  0  0  0  0  0
    6.2527    7.2939  -15.6822 H   0  0  0  0  0  0  0  0  0  0  0  0
    5.5880    5.6252  -15.6822 H   0  0  0  0  0  0  0  0  0  0  0  0
    7.8470    4.7430  -12.9515 H   0  0  0  0  0  0  0  0  0  0  0  0
    6.4954    6.6968  -11.6254 H   0  0  0  0  0  0  0  0  0  0  0  0
    5.6410    6.4482  -13.2253 H   0  0  0  0  0  0  0  0  0  0  0  0
    4.5592    4.8898  -12.0013 H   0  0  0  0  0  0  0  0  0  0  0  0
    6.0858    3.9396  -12.5706 H   0  0  0  0  0  0  0  0  0  0  0  0
    6.8650    4.3480  -10.5140 H   0  0  0  0  0  0  0  0  0  0  0  0
    9.6134    6.2828  -13.1777 H   0  0  0  0  0  0  0  0  0  0  0  0
    8.4861    7.4620  -12.3155 H   0  0  0  0  0  0  0  0  0  0  0  0
   10.1332    6.3419  -11.2088 H   0  0  0  0  0  0  0  0  0  0  0  0
   10.3170    3.4230  -11.4710 H   0  0  0  0  0  0  0  0  0  0  0  0
    8.5512    7.3197   -9.5630 H   0  0  0  0  0  0  0  0  0  0  0  0
    7.0190    5.9990   -9.2270 H   0  0  0  0  0  0  0  0  0  0  0  0
   10.8005    5.6220   -8.9215 H   0  0  0  0  0  0  0  0  0  0  0  0
   10.8213    7.2979   -9.3643 H   0  0  0  0  0  0  0  0  0  0  0  0
   10.9234    5.7519   -6.1385 H   0  0  0  0  0  0  0  0  0  0  0  0
   11.4702    7.3424   -7.1752 H   0  0  0  0  0  0  0  0  0  0  0  0
   11.7835    9.4990   -5.9516 H   0  0  0  0  0  0  0  0  0  0  0  0
   12.4998   10.3942   -3.7032 H   0  0  0  0  0  0  0  0  0  0  0  0
   11.3724    5.5702   -4.2976 H   0  0  0  0  0  0  0  0  0  0  0  0
  1  2  1  0
  2  3  1  0
  2  4  1  0
  4  5  1  0
  5  6  1  0
  6  7  1  0
  4  8  1  0
  8  9  1  0
  9 10  1  0
 10 11  1  0
  9 12  1  0
 12 13  1  0
 12 14  1  0
 14 15  1  0
 15 16  1  0
 16 17  1  0
 17 18  1  0
 18 19  2  0
 19 20  1  0
 20 21  1  0
 20 22  2  0
 22 23  1  0
 22 24  1  0
 24 17  2  0
  1 25  1  0
  1 26  1  0
  1 27  1  0
  2 28  1  0
  3 29  1  0
  3 30  1  0
  3 31  1  0
  4 32  1  6
  5 33  1  0
  5 34  1  0
  6 35  1  0
  6 36  1  0
  7 37  1  0
  8 38  1  0
  8 39  1  0
  9 40  1  6
 11 41  1  0
 12 42  1  6
 13 43  1  0
 14 44  1  0
 14 45  1  0
 16 46  1  0
 16 47  1  0
 18 48  1  0
 19 49  1  0
 24 50  1  0
M  END
>  <ID>  (20) 
DiffSBDD_27_0

>  <docking_score>  (20) 
-7.653

$$$$
DiffSBDD_28
     RDKit          3D

 80 87  0  0  0  0  0  0  0  0999 V2000
   12.2130    9.0910   -2.8510 C   0  0  0  0  0  0  0  0  0  0  0  0
   12.3800    9.5980   -4.2090 O   0  0  0  0  0  0  0  0  0  0  0  0
   11.2860   10.4630   -4.7890 C   0  0  0  0  0  0  0  0  0  0  0  0
   10.7240    9.2880   -5.6600 C   0  0  1  0  0  0  0  0  0  0  0  0
    9.6450    8.8940   -6.4070 O   0  0  0  0  0  0  0  0  0  0  0  0
   11.1770    8.4330   -6.3800 C   0  0  1  0  0  0  0  0  0  0  0  0
   12.1700    9.0220   -7.5730 C   0  0  1  0  0  0  0  0  0  0  0  0
   12.9900    9.9690   -7.1720 O   0  0  0  0  0  0  0  0  0  0  0  0
   12.2670    7.9730   -8.3890 C   0  0  0  0  0  0  0  0  0  0  0  0
   11.2970    7.1960   -7.2470 C   0  0  1  0  0  0  0  0  0  0  0  0
   11.3220    6.0120   -6.3240 C   0  0  0  0  0  0  0  0  0  0  0  0
   10.3390    6.4260   -8.3070 N   0  0  1  0  0  0  0  0  0  0  0  0
   10.0780    5.0170   -8.0340 C   0  0  0  0  0  0  0  0  0  0  0  0
    8.3840    5.0490   -8.8580 C   0  0  0  0  0  0  0  0  0  0  0  0
    8.7730    5.9420   -9.7110 C   0  0  1  0  0  0  0  0  0  0  0  0
    9.5160    7.2520   -8.8370 C   0  0  2  0  0  0  0  0  0  0  0  0
    9.6650    8.1240  -10.0100 C   0  0  0  0  0  0  0  0  0  0  0  0
    9.3960    7.4320  -11.3950 C   0  0  0  0  0  0  0  0  0  0  0  0
    8.7860    6.2370  -10.9050 N   0  0  2  0  0  0  0  0  0  0  0  0
    7.9850    5.5360  -11.7230 C   0  0  2  0  0  0  0  0  0  0  0  0
    8.4430    4.0660  -12.1770 C   0  0  0  0  0  0  0  0  0  0  0  0
    7.9120    3.3650  -13.2050 C   0  0  0  0  0  0  0  0  0  0  0  0
    7.9130    3.8770  -14.5490 C   0  0  1  0  0  0  0  0  0  0  0  0
    8.0500    3.3440  -15.6390 N   0  0  2  0  0  0  0  0  0  0  0  0
    8.5600    3.9850  -16.7160 C   0  0  0  0  0  0  0  0  0  0  0  0
    8.7050    3.1100  -17.6550 C   0  0  0  0  0  0  0  0  0  0  0  0
    8.1900    1.8480  -17.4450 N   0  0  0  0  0  0  0  0  0  0  0  0
    7.4200    2.1800  -16.3610 C   0  0  1  0  0  0  0  0  0  0  0  0
    6.2100    1.4430  -15.7530 C   0  0  0  0  0  0  0  0  0  0  0  0
    6.5830   -0.0960  -15.5600 C   0  0  2  0  0  0  0  0  0  0  0  0
    6.7390   -0.4570  -14.3250 F   0  0  0  0  0  0  0  0  0  0  0  0
    6.7700   -1.0020  -16.5820 O   0  0  0  0  0  0  0  0  0  0  0  0
    5.5980   -0.8920  -16.3740 C   0  0  0  0  0  0  0  0  0  0  0  0
    4.5200   -1.0420  -16.6850 O   0  0  0  0  0  0  0  0  0  0  0  0
    7.2560    5.0810  -14.0550 C   0  0  2  0  0  0  0  0  0  0  0  0
    7.9550    6.1110  -14.1930 O   0  0  0  0  0  0  0  0  0  0  0  0
    7.5970    6.0490  -13.1130 C   0  0  2  0  0  0  0  0  0  0  0  0
   12.4730    9.8803   -2.1304 H   0  0  0  0  0  0  0  0  0  0  0  0
   11.1670    8.7862   -2.6994 H   0  0  0  0  0  0  0  0  0  0  0  0
   12.8731    8.2242   -2.6994 H   0  0  0  0  0  0  0  0  0  0  0  0
   10.5730   10.8322   -4.0371 H   0  0  0  0  0  0  0  0  0  0  0  0
   11.5570   11.4095   -5.2797 H   0  0  0  0  0  0  0  0  0  0  0  0
   10.8157    9.7129   -4.6495 H   0  0  0  0  0  0  0  0  0  0  0  0
   11.9893    9.7992   -8.3301 H   0  0  0  0  0  0  0  0  0  0  0  0
   12.5460   10.8490   -7.2600 H   0  0  0  0  0  0  0  0  0  0  0  0
   11.8102    8.1057   -9.3808 H   0  0  0  0  0  0  0  0  0  0  0  0
   13.2280    7.5683   -8.7392 H   0  0  0  0  0  0  0  0  0  0  0  0
   11.3146    6.3603   -5.2806 H   0  0  0  0  0  0  0  0  0  0  0  0
   10.4369    5.3852   -6.5076 H   0  0  0  0  0  0  0  0  0  0  0  0
   12.2328    5.4231   -6.5076 H   0  0  0  0  0  0  0  0  0  0  0  0
   10.8060    6.1140   -9.1710 H   0  0  0  0  0  0  0  0  0  0  0  0
   10.7894    4.3393   -8.5286 H   0  0  0  0  0  0  0  0  0  0  0  0
   10.1491    4.6623   -6.9952 H   0  0  0  0  0  0  0  0  0  0  0  0
    8.0981    4.0920   -9.3188 H   0  0  0  0  0  0  0  0  0  0  0  0
    7.4884    5.2370   -8.2476 H   0  0  0  0  0  0  0  0  0  0  0  0
    7.7968    6.4428   -9.6318 H   0  0  0  0  0  0  0  0  0  0  0  0
    9.2341    7.9661   -8.0493 H   0  0  0  0  0  0  0  0  0  0  0  0
    8.9586    8.9605   -9.9044 H   0  0  0  0  0  0  0  0  0  0  0  0
   10.7188    8.4389  -10.0251 H   0  0  0  0  0  0  0  0  0  0  0  0
    8.7141    8.0184  -12.0283 H   0  0  0  0  0  0  0  0  0  0  0  0
   10.2731    7.2949  -12.0446 H   0  0  0  0  0  0  0  0  0  0  0  0
    9.7340    5.8460  -11.0050 H   0  0  0  0  0  0  0  0  0  0  0  0
    7.1791    5.6112  -10.9781 H   0  0  0  0  0  0  0  0  0  0  0  0
    9.5156    4.1520  -12.4055 H   0  0  0  0  0  0  0  0  0  0  0  0
    8.0736    3.4748  -11.3261 H   0  0  0  0  0  0  0  0  0  0  0  0
    8.4524    2.4075  -13.2383 H   0  0  0  0  0  0  0  0  0  0  0  0
    6.8404    3.3606  -12.9568 H   0  0  0  0  0  0  0  0  0  0  0  0
    8.6432    3.8052  -15.3685 H   0  0  0  0  0  0  0  0  0  0  0  0
    8.4120    3.0150  -14.7320 H   0  0  0  0  0  0  0  0  0  0  0  0
    7.8701    4.7767  -17.0435 H   0  0  0  0  0  0  0  0  0  0  0  0
    9.5248    4.4517  -16.4685 H   0  0  0  0  0  0  0  0  0  0  0  0
    8.2232    3.5146  -18.5573 H   0  0  0  0  0  0  0  0  0  0  0  0
    9.7921    2.9568  -17.7244 H   0  0  0  0  0  0  0  0  0  0  0  0
    8.9170    1.1550  -17.2180 H   0  0  0  0  0  0  0  0  0  0  0  0
    7.7110    1.3990  -18.2390 H   0  0  0  0  0  0  0  0  0  0  0  0
    6.4356    1.9185  -16.7766 H   0  0  0  0  0  0  0  0  0  0  0  0
    5.9595    1.8869  -14.7782 H   0  0  0  0  0  0  0  0  0  0  0  0
    5.3434    1.5341  -16.4244 H   0  0  0  0  0  0  0  0  0  0  0  0
    6.3047    4.5563  -14.2274 H   0  0  0  0  0  0  0  0  0  0  0  0
    7.3136    6.9056  -12.4838 H   0  0  0  0  0  0  0  0  0  0  0  0
  1  2  1  0
  2  3  1  0
  3  4  1  0
  4  5  1  0
  6  5  1  6
  6  7  1  0
  7  8  1  0
  7  9  1  0
  9 10  1  0
 10 11  1  1
 10 12  1  0
 12 13  1  0
 13 14  1  0
 14 15  1  0
 15 16  1  0
 16 17  1  0
 17 18  1  0
 18 19  1  0
 19 20  1  0
 20 21  1  0
 21 22  1  0
 22 23  1  0
 23 24  1  0
 24 25  1  0
 25 26  1  0
 26 27  1  0
 27 28  1  0
 28 29  1  0
 29 30  1  0
 30 31  1  1
 30 32  1  0
 32 33  1  0
 33 34  2  0
 23 35  1  0
 35 36  1  0
 36 37  1  0
  6  4  1  0
 16 12  1  0
 37 20  1  0
 10  6  1  0
 19 15  1  0
 28 24  1  0
 33 30  1  0
 37 35  1  0
  1 38  1  0
  1 39  1  0
  1 40  1  0
  3 41  1  0
  3 42  1  0
  4 43  1  1
  7 44  1  6
  8 45  1  0
  9 46  1  0
  9 47  1  0
 11 48  1  0
 11 49  1  0
 11 50  1  0
 12 51  1  6
 13 52  1  0
 13 53  1  0
 14 54  1  0
 14 55  1  0
 15 56  1  1
 16 57  1  1
 17 58  1  0
 17 59  1  0
 18 60  1  0
 18 61  1  0
 19 62  1  6
 20 63  1  1
 21 64  1  0
 21 65  1  0
 22 66  1  0
 22 67  1  0
 23 68  1  1
 24 69  1  1
 25 70  1  0
 25 71  1  0
 26 72  1  0
 26 73  1  0
 27 74  1  0
 27 75  1  0
 28 76  1  6
 29 77  1  0
 29 78  1  0
 35 79  1  6
 37 80  1  1
M  CHG  4  12   1  19   1  24   1  27   1
M  END
>  <ID>  (21) 
DiffSBDD_28_0

>  <docking_score>  (21) 
-10.075

$$$$
DiffSBDD_29
     RDKit          3D

 70 74  0  0  0  0  0  0  0  0999 V2000
    5.9520    4.9400  -12.9080 C   0  0  0  0  0  0  0  0  0  0  0  0
    6.9290    6.0210  -13.4440 C   0  0  1  0  0  0  0  0  0  0  0  0
    8.2040    6.0580  -12.6940 C   0  0  0  0  0  0  0  0  0  0  0  0
    9.0210    6.3800  -11.5100 C   0  0  2  0  0  0  0  0  0  0  0  0
   10.1600    7.1590  -11.6900 C   0  0  0  0  0  0  0  0  0  0  0  0
   10.8380    7.6770  -10.5850 C   0  0  0  0  0  0  0  0  0  0  0  0
   10.5180    7.2170   -9.3220 C   0  0  0  0  0  0  0  0  0  0  0  0
   11.0350    7.6740   -7.8960 C   0  0  1  0  0  0  0  0  0  0  0  0
   11.7540    8.9380   -8.3230 C   0  0  0  0  0  0  0  0  0  0  0  0
   11.9660    9.7180   -7.1670 O   0  0  0  0  0  0  0  0  0  0  0  0
   11.8490    8.9970   -6.0630 C   0  0  0  0  0  0  0  0  0  0  0  0
   11.3430    7.6720   -6.2970 C   0  0  0  0  0  0  0  0  0  0  0  0
   11.2510    6.7470   -5.2610 C   0  0  0  0  0  0  0  0  0  0  0  0
   11.6250    7.1260   -3.9260 C   0  0  0  0  0  0  0  0  0  0  0  0
   11.3690    6.3800   -2.7490 F   0  0  0  0  0  0  0  0  0  0  0  0
   12.3140    8.5310   -3.6650 C   0  0  1  0  0  0  0  0  0  0  0  0
   11.9810    9.1340   -2.3120 C   0  0  0  0  0  0  0  0  0  0  0  0
   13.6940    8.3840   -3.6740 F   0  0  0  0  0  0  0  0  0  0  0  0
   12.0870    9.5070   -4.7700 C   0  0  0  0  0  0  0  0  0  0  0  0
    9.6110    6.1190   -9.2650 C   0  0  0  0  0  0  0  0  0  0  0  0
    9.3510    5.2920   -8.0590 C   0  0  0  0  0  0  0  0  0  0  0  0
    8.2540    4.4270   -8.6160 C   0  0  0  0  0  0  0  0  0  0  0  0
    7.9340    4.9210   -9.9630 O   0  0  0  0  0  0  0  0  0  0  0  0
    8.8290    5.8370  -10.2560 N   0  0  0  0  0  0  0  0  0  0  0  0
    7.2160    5.6510  -14.9020 N   0  0  0  0  0  0  0  0  0  0  0  0
    8.1070    4.5860  -15.2690 C   0  0  1  0  0  0  0  0  0  0  0  0
    7.4950    3.2700  -15.5850 C   0  0  0  0  0  0  0  0  0  0  0  0
    8.3110    2.4650  -16.5990 C   0  0  0  0  0  0  0  0  0  0  0  0
    8.0730    2.8880  -18.0250 C   0  0  0  0  0  0  0  0  0  0  0  0
    6.7660    3.6980  -17.9840 C   0  0  0  0  0  0  0  0  0  0  0  0
    6.9140    5.1010  -17.5600 C   0  0  0  0  0  0  0  0  0  0  0  0
    8.4780    5.4340  -17.6240 C   0  0  0  0  0  0  0  0  0  0  0  0
    8.9750    5.1940  -16.3220 N   0  0  0  0  0  0  0  0  0  0  0  0
   10.2940    5.2840  -15.6140 O   0  0  0  0  0  0  0  0  0  0  0  0
    5.9613    4.9503  -11.8081 H   0  0  0  0  0  0  0  0  0  0  0  0
    4.9349    5.1541  -13.2681 H   0  0  0  0  0  0  0  0  0  0  0  0
    6.2675    3.9497  -13.2681 H   0  0  0  0  0  0  0  0  0  0  0  0
    6.4717    7.0155  -13.3351 H   0  0  0  0  0  0  0  0  0  0  0  0
    8.4419    4.9856  -12.7518 H   0  0  0  0  0  0  0  0  0  0  0  0
    8.3258    7.1016  -13.0195 H   0  0  0  0  0  0  0  0  0  0  0  0
    8.0210    6.7968  -11.3198 H   0  0  0  0  0  0  0  0  0  0  0  0
   10.5272    7.3672  -12.7058 H   0  0  0  0  0  0  0  0  0  0  0  0
   11.6173    8.4418  -10.7182 H   0  0  0  0  0  0  0  0  0  0  0  0
   11.9595    7.0973   -8.0464 H   0  0  0  0  0  0  0  0  0  0  0  0
   12.7188    8.6829   -8.7857 H   0  0  0  0  0  0  0  0  0  0  0  0
   11.1553    9.4934   -9.0599 H   0  0  0  0  0  0  0  0  0  0  0  0
   10.8924    5.7270   -5.4638 H   0  0  0  0  0  0  0  0  0  0  0  0
   12.3474    8.4706   -1.5147 H   0  0  0  0  0  0  0  0  0  0  0  0
   12.4634   10.1183   -2.2205 H   0  0  0  0  0  0  0  0  0  0  0  0
   10.8910    9.2500   -2.2205 H   0  0  0  0  0  0  0  0  0  0  0  0
   11.2151   10.1179   -4.4933 H   0  0  0  0  0  0  0  0  0  0  0  0
   13.0399   10.0493   -4.8588 H   0  0  0  0  0  0  0  0  0  0  0  0
    9.8179    5.3074   -7.0631 H   0  0  0  0  0  0  0  0  0  0  0  0
    7.7766    3.5769   -8.1066 H   0  0  0  0  0  0  0  0  0  0  0  0
    7.5910    6.5020  -15.3450 H   0  0  0  0  0  0  0  0  0  0  0  0
    6.3060    5.2780  -15.2070 H   0  0  0  0  0  0  0  0  0  0  0  0
    8.6959    4.2435  -14.4053 H   0  0  0  0  0  0  0  0  0  0  0  0
    7.4156    2.6870  -14.6556 H   0  0  0  0  0  0  0  0  0  0  0  0
    6.5083    3.4622  -16.0316 H   0  0  0  0  0  0  0  0  0  0  0  0
    9.3790    2.5950  -16.3698 H   0  0  0  0  0  0  0  0  0  0  0  0
    7.9936    1.4153  -16.5131 H   0  0  0  0  0  0  0  0  0  0  0  0
    8.9036    3.5114  -18.3876 H   0  0  0  0  0  0  0  0  0  0  0  0
    8.0059    2.0274  -18.7068 H   0  0  0  0  0  0  0  0  0  0  0  0
    6.3290    3.6913  -18.9934 H   0  0  0  0  0  0  0  0  0  0  0  0
    6.1294    3.2148  -17.2281 H   0  0  0  0  0  0  0  0  0  0  0  0
    6.3566    5.7636  -18.2384 H   0  0  0  0  0  0  0  0  0  0  0  0
    6.5166    5.2535  -16.5457 H   0  0  0  0  0  0  0  0  0  0  0  0
    8.9797    4.7800  -18.3524 H   0  0  0  0  0  0  0  0  0  0  0  0
    8.6591    6.4712  -17.9424 H   0  0  0  0  0  0  0  0  0  0  0  0
   10.2100    4.8960  -14.7070 H   0  0  0  0  0  0  0  0  0  0  0  0
  1  2  1  0
  2  3  1  0
  3  4  1  0
  4  5  1  0
  5  6  2  0
  6  7  1  0
  7  8  1  0
  8  9  1  0
  9 10  1  0
 10 11  1  0
 11 12  2  0
 12 13  1  0
 13 14  2  0
 14 15  1  0
 14 16  1  0
 16 17  1  0
 16 18  1  1
 16 19  1  0
  7 20  2  0
 20 21  1  0
 21 22  2  0
 22 23  1  0
 23 24  1  0
  2 25  1  0
 25 26  1  0
 26 27  1  0
 27 28  1  0
 28 29  1  0
 29 30  1  0
 30 31  1  0
 31 32  1  0
 32 33  1  0
 33 34  1  0
 24  4  1  0
 33 26  1  0
 12  8  1  0
 24 20  1  0
 19 11  1  0
  1 35  1  0
  1 36  1  0
  1 37  1  0
  2 38  1  6
  3 39  1  0
  3 40  1  0
  4 41  1  1
  5 42  1  0
  6 43  1  0
  8 44  1  6
  9 45  1  0
  9 46  1  0
 13 47  1  0
 17 48  1  0
 17 49  1  0
 17 50  1  0
 19 51  1  0
 19 52  1  0
 21 53  1  0
 22 54  1  0
 25 55  1  0
 25 56  1  0
 26 57  1  1
 27 58  1  0
 27 59  1  0
 28 60  1  0
 28 61  1  0
 29 62  1  0
 29 63  1  0
 30 64  1  0
 30 65  1  0
 31 66  1  0
 31 67  1  0
 32 68  1  0
 32 69  1  0
 34 70  1  0
M  CHG  1  25   1
M  END
>  <ID>  (22) 
DiffSBDD_29_0

>  <docking_score>  (22) 
-10.548

$$$$
DiffSBDD_2
     RDKit          3D

 62 64  0  0  0  0  0  0  0  0999 V2000
   12.4440    8.2360   -9.7640 C   0  0  0  0  0  0  0  0  0  0  0  0
   11.6600    8.8860   -8.6680 C   0  0  0  0  0  0  0  0  0  0  0  0
   11.6140    8.2170   -7.4850 C   0  0  2  0  0  0  0  0  0  0  0  0
   10.8310    7.4080   -7.3910 C   0  0  1  0  0  0  0  0  0  0  0  0
   10.0080    6.4500   -8.1860 C   0  0  2  0  0  0  0  0  0  0  0  0
    9.1380    6.4300   -9.1530 C   0  0  0  0  0  0  0  0  0  0  0  0
    8.7570    5.0760   -9.6250 C   0  0  0  0  0  0  0  0  0  0  0  0
    9.0590    4.7360  -11.0080 C   0  0  0  0  0  0  0  0  0  0  0  0
    7.8140    4.2160  -11.7460 N   0  0  2  0  0  0  0  0  0  0  0  0
    7.9940    3.2720  -12.8820 C   0  0  0  0  0  0  0  0  0  0  0  0
    6.6640    2.9510  -13.6230 C   0  0  0  0  0  0  0  0  0  0  0  0
    5.4010    3.6000  -13.0530 C   0  0  0  0  0  0  0  0  0  0  0  0
    5.5920    4.9780  -12.5340 C   0  0  0  0  0  0  0  0  0  0  0  0
    6.9410    5.4200  -11.9650 C   0  0  2  0  0  0  0  0  0  0  0  0
    7.4710    6.5820  -12.8080 C   0  0  0  0  0  0  0  0  0  0  0  0
   10.2820    6.4750   -6.3420 C   0  0  1  0  0  0  0  0  0  0  0  0
   10.9940    6.4780   -5.5410 C   0  0  0  0  0  0  0  0  0  0  0  0
   11.7760    7.8100   -4.9730 C   0  0  0  0  0  0  0  0  0  0  0  0
   12.2980    8.2970   -3.7540 N   0  0  0  0  0  0  0  0  0  0  0  0
   12.4380    7.7320   -2.5410 C   0  0  0  0  0  0  0  0  0  0  0  0
   12.4970    8.7920   -1.5730 C   0  0  0  0  0  0  0  0  0  0  0  0
   12.4530    6.6750   -2.2150 O   0  0  0  0  0  0  0  0  0  0  0  0
   11.8310    8.6690   -5.9040 C   0  0  1  0  0  0  0  0  0  0  0  0
   12.2580   10.1210   -6.0050 C   0  0  0  0  0  0  0  0  0  0  0  0
   13.2210    7.5918   -9.3267 H   0  0  0  0  0  0  0  0  0  0  0  0
   11.7705    7.6277  -10.3856 H   0  0  0  0  0  0  0  0  0  0  0  0
   12.9170    9.0106  -10.3856 H   0  0  0  0  0  0  0  0  0  0  0  0
   12.1045    9.8741   -8.4778 H   0  0  0  0  0  0  0  0  0  0  0  0
   10.6212    8.9187   -9.0284 H   0  0  0  0  0  0  0  0  0  0  0  0
   12.6592    8.1212   -7.8143 H   0  0  0  0  0  0  0  0  0  0  0  0
   11.2433    8.4170   -7.5391 H   0  0  0  0  0  0  0  0  0  0  0  0
    9.9756    5.7517   -9.0353 H   0  0  0  0  0  0  0  0  0  0  0  0
    8.2273    6.9384   -8.8034 H   0  0  0  0  0  0  0  0  0  0  0  0
    9.6165    6.9305  -10.0077 H   0  0  0  0  0  0  0  0  0  0  0  0
    9.2755    4.3463   -8.9857 H   0  0  0  0  0  0  0  0  0  0  0  0
    7.6588    5.0575   -9.5656 H   0  0  0  0  0  0  0  0  0  0  0  0
    9.4311    5.6336  -11.5236 H   0  0  0  0  0  0  0  0  0  0  0  0
    9.8183    3.9401  -11.0095 H   0  0  0  0  0  0  0  0  0  0  0  0
    7.3320    3.5210  -11.1580 H   0  0  0  0  0  0  0  0  0  0  0  0
    8.6967    3.7187  -13.6008 H   0  0  0  0  0  0  0  0  0  0  0  0
    8.3756    2.3274  -12.4672 H   0  0  0  0  0  0  0  0  0  0  0  0
    6.7716    3.2843  -14.6657 H   0  0  0  0  0  0  0  0  0  0  0  0
    6.5164    1.8671  -13.5078 H   0  0  0  0  0  0  0  0  0  0  0  0
    4.6444    3.6360  -13.8506 H   0  0  0  0  0  0  0  0  0  0  0  0
    5.0955    2.9841  -12.1944 H   0  0  0  0  0  0  0  0  0  0  0  0
    5.3631    5.6610  -13.3654 H   0  0  0  0  0  0  0  0  0  0  0  0
    4.9357    4.9999  -11.6515 H   0  0  0  0  0  0  0  0  0  0  0  0
    6.8825    5.8500  -10.9542 H   0  0  0  0  0  0  0  0  0  0  0  0
    7.8351    7.3802  -12.1444 H   0  0  0  0  0  0  0  0  0  0  0  0
    8.2966    6.2278  -13.4428 H   0  0  0  0  0  0  0  0  0  0  0  0
    6.6623    6.9732  -13.4428 H   0  0  0  0  0  0  0  0  0  0  0  0
    9.6007    6.0049   -5.6175 H   0  0  0  0  0  0  0  0  0  0  0  0
   10.4609    6.0601   -4.6743 H   0  0  0  0  0  0  0  0  0  0  0  0
   11.8307    5.9482   -6.0199 H   0  0  0  0  0  0  0  0  0  0  0  0
   12.6370    9.2680   -3.8030 H   0  0  0  0  0  0  0  0  0  0  0  0
   12.4732    8.3648   -0.5596 H   0  0  0  0  0  0  0  0  0  0  0  0
   13.4282    9.3615   -1.7091 H   0  0  0  0  0  0  0  0  0  0  0  0
   11.6347    9.4613   -1.7091 H   0  0  0  0  0  0  0  0  0  0  0  0
   11.4442    8.6429   -4.8746 H   0  0  0  0  0  0  0  0  0  0  0  0
   12.3807   10.5382   -4.9946 H   0  0  0  0  0  0  0  0  0  0  0  0
   13.2131   10.1855   -6.5468 H   0  0  0  0  0  0  0  0  0  0  0  0
   11.4898   10.6923   -6.5468 H   0  0  0  0  0  0  0  0  0  0  0  0
  1  2  1  0
  2  3  1  0
  3  4  1  0
  4  5  1  0
  5  6  1  0
  6  7  1  0
  7  8  1  0
  8  9  1  0
  9 10  1  0
 10 11  1  0
 11 12  1  0
 12 13  1  0
 13 14  1  0
 14 15  1  0
  5 16  1  0
 16 17  1  0
 17 18  1  0
 18 19  2  3
 19 20  1  0
 20 21  1  0
 20 22  2  0
 18 23  1  0
 23 24  1  0
 23  3  1  0
 16  4  1  0
 14  9  1  0
  1 25  1  0
  1 26  1  0
  1 27  1  0
  2 28  1  0
  2 29  1  0
  3 30  1  6
  4 31  1  1
  5 32  1  6
  6 33  1  0
  6 34  1  0
  7 35  1  0
  7 36  1  0
  8 37  1  0
  8 38  1  0
  9 39  1  1
 10 40  1  0
 10 41  1  0
 11 42  1  0
 11 43  1  0
 12 44  1  0
 12 45  1  0
 13 46  1  0
 13 47  1  0
 14 48  1  1
 15 49  1  0
 15 50  1  0
 15 51  1  0
 16 52  1  1
 17 53  1  0
 17 54  1  0
 19 55  1  0
 21 56  1  0
 21 57  1  0
 21 58  1  0
 23 59  1  1
 24 60  1  0
 24 61  1  0
 24 62  1  0
M  CHG  2   9   1  19   1
M  END
>  <ID>  (23) 
DiffSBDD_2_0

>  <docking_score>  (23) 
-10.017

$$$$
DiffSBDD_30
     RDKit          3D

 44 44  0  0  0  0  0  0  0  0999 V2000
    6.4520    7.1210  -12.6790 N   0  0  0  0  0  0  0  0  0  0  0  0
    6.1340    5.7760  -12.8100 C   0  0  0  0  0  0  0  0  0  0  0  0
    7.4010    5.0740  -12.5930 C   0  0  0  0  0  0  0  0  0  0  0  0
    8.5000    5.6340  -13.4190 F   0  0  0  0  0  0  0  0  0  0  0  0
    7.1810    3.6340  -12.8940 F   0  0  0  0  0  0  0  0  0  0  0  0
    7.9030    5.4240  -11.2370 C   0  0  1  0  0  0  0  0  0  0  0  0
    7.0780    5.0890  -10.2120 O   0  0  0  0  0  0  0  0  0  0  0  0
    9.1030    6.0300  -10.7000 C   0  0  1  0  0  0  0  0  0  0  0  0
    8.9410    7.4630  -10.6560 O   0  0  0  0  0  0  0  0  0  0  0  0
    9.1200    5.3400   -9.2730 C   0  0  0  0  0  0  0  0  0  0  0  0
    9.0510    6.1790   -7.9200 C   0  0  0  0  0  0  0  0  0  0  0  0
   10.6420    6.3760   -7.6020 C   0  0  2  0  0  0  0  0  0  0  0  0
   10.7910    6.1860   -6.3920 O   0  0  0  0  0  0  0  0  0  0  0  0
   11.1410    7.6740   -7.9480 C   0  0  0  0  0  0  0  0  0  0  0  0
   11.7910    8.1950   -6.7770 N   0  0  0  0  0  0  0  0  0  0  0  0
   11.3840    8.9470   -6.0350 O   0  0  0  0  0  0  0  0  0  0  0  0
   12.4190    9.3500   -4.9080 C   0  0  0  0  0  0  0  0  0  0  0  0
   11.9040    8.5170   -4.3070 C   0  0  0  0  0  0  0  0  0  0  0  0
   11.6770    7.1670   -3.8440 N   0  0  0  0  0  0  0  0  0  0  0  0
   11.9250    6.9420   -2.5270 C   0  0  0  0  0  0  0  0  0  0  0  0
   12.8700    6.1050   -2.4670 F   0  0  0  0  0  0  0  0  0  0  0  0
   10.8510    6.7260   -1.9270 F   0  0  0  0  0  0  0  0  0  0  0  0
   12.5260    8.2510   -1.7480 C   0  0  0  0  0  0  0  0  0  0  0  0
   13.2190    8.3340   -0.9770 O   0  0  0  0  0  0  0  0  0  0  0  0
   11.9730    9.1670   -2.5730 N   0  0  0  0  0  0  0  0  0  0  0  0
    7.1750    7.2340  -11.9540 H   0  0  0  0  0  0  0  0  0  0  0  0
    6.8060    7.4800  -13.5770 H   0  0  0  0  0  0  0  0  0  0  0  0
    5.3906    5.4775  -12.0562 H   0  0  0  0  0  0  0  0  0  0  0  0
    5.6919    5.5454  -13.7905 H   0  0  0  0  0  0  0  0  0  0  0  0
    7.4139    6.4066  -11.3095 H   0  0  0  0  0  0  0  0  0  0  0  0
    6.3920    5.7920  -10.0970 H   0  0  0  0  0  0  0  0  0  0  0  0
   10.0379    5.8900  -11.2624 H   0  0  0  0  0  0  0  0  0  0  0  0
    8.1200    7.6860  -10.1500 H   0  0  0  0  0  0  0  0  0  0  0  0
    8.2590    4.6557   -9.2533 H   0  0  0  0  0  0  0  0  0  0  0  0
   10.1385    4.9265   -9.2325 H   0  0  0  0  0  0  0  0  0  0  0  0
    8.5448    7.1444   -8.0674 H   0  0  0  0  0  0  0  0  0  0  0  0
    8.4811    5.6960   -7.1126 H   0  0  0  0  0  0  0  0  0  0  0  0
   11.2115    5.6634   -8.2168 H   0  0  0  0  0  0  0  0  0  0  0  0
   11.7560    6.1930   -6.1740 H   0  0  0  0  0  0  0  0  0  0  0  0
   11.8602    7.5947   -8.7766 H   0  0  0  0  0  0  0  0  0  0  0  0
   10.3254    8.3362   -8.2741 H   0  0  0  0  0  0  0  0  0  0  0  0
   12.6620    8.6190   -7.1280 H   0  0  0  0  0  0  0  0  0  0  0  0
   13.4765    9.1712   -5.1524 H   0  0  0  0  0  0  0  0  0  0  0  0
   12.5458   10.3780   -4.5378 H   0  0  0  0  0  0  0  0  0  0  0  0
  1  2  1  0
  2  3  1  0
  3  4  1  0
  3  5  1  0
  3  6  1  0
  6  7  1  0
  6  8  1  0
  8  9  1  0
  8 10  1  0
 10 11  1  0
 11 12  1  0
 12 13  1  0
 12 14  1  0
 14 15  1  0
 15 16  1  0
 16 17  1  0
 17 18  1  0
 18 19  2  0
 19 20  1  0
 20 21  1  0
 20 22  1  0
 20 23  1  0
 23 24  2  0
 23 25  1  0
 25 18  1  0
  1 26  1  0
  1 27  1  0
  2 28  1  0
  2 29  1  0
  6 30  1  6
  7 31  1  0
  8 32  1  6
  9 33  1  0
 10 34  1  0
 10 35  1  0
 11 36  1  0
 11 37  1  0
 12 38  1  6
 13 39  1  0
 14 40  1  0
 14 41  1  0
 15 42  1  0
 17 43  1  0
 17 44  1  0
M  CHG  1  25  -1
M  END
>  <ID>  (24) 
DiffSBDD_30_0

>  <docking_score>  (24) 
-7.234

$$$$
DiffSBDD_31
     RDKit          3D

 59 61  0  0  0  0  0  0  0  0999 V2000
    7.9530    7.9190  -11.9800 C   0  0  0  0  0  0  0  0  0  0  0  0
    7.6750    6.6520  -12.7320 C   0  0  2  0  0  0  0  0  0  0  0  0
    6.3180    6.5450  -13.2160 C   0  0  0  0  0  0  0  0  0  0  0  0
    6.4320    5.3080  -13.9670 C   0  0  1  0  0  0  0  0  0  0  0  0
    7.6270    5.7530  -14.8110 C   0  0  0  0  0  0  0  0  0  0  0  0
    6.6290    4.0410  -13.3840 C   0  0  0  0  0  0  0  0  0  0  0  0
    7.1010    2.8670  -14.3610 C   0  0  0  0  0  0  0  0  0  0  0  0
    5.2520    3.8200  -13.2310 C   0  0  0  0  0  0  0  0  0  0  0  0
    7.8420    4.0730  -12.4890 C   0  0  0  0  0  0  0  0  0  0  0  0
    8.3030    3.1320  -12.0700 O   0  0  0  0  0  0  0  0  0  0  0  0
    8.3960    5.4650  -12.2940 C   0  0  2  0  0  0  0  0  0  0  0  0
    9.5050    5.6790  -11.2130 C   0  0  0  0  0  0  0  0  0  0  0  0
    9.1010    5.3390   -9.7470 C   0  0  0  0  0  0  0  0  0  0  0  0
    9.6430    6.1650   -8.6300 C   0  0  0  0  0  0  0  0  0  0  0  0
   10.4760    7.3190   -8.8600 C   0  0  0  0  0  0  0  0  0  0  0  0
   10.9530    8.3630   -7.9120 C   0  0  0  0  0  0  0  0  0  0  0  0
   11.2630    8.2070   -6.6100 C   0  0  0  0  0  0  0  0  0  0  0  0
   11.0240    6.9150   -5.9560 C   0  0  0  0  0  0  0  0  0  0  0  0
   11.2900    6.6430   -4.7070 C   0  0  0  0  0  0  0  0  0  0  0  0
   11.8350    7.6630   -3.9050 C   0  0  0  0  0  0  0  0  0  0  0  0
   12.0840    7.1290   -2.4490 C   0  0  1  0  0  0  0  0  0  0  0  0
   12.7090    8.1780   -1.6090 C   0  0  0  0  0  0  0  0  0  0  0  0
   10.8590    6.6170   -1.9710 O   0  0  0  0  0  0  0  0  0  0  0  0
   12.8740    6.0230   -2.6230 F   0  0  0  0  0  0  0  0  0  0  0  0
   12.0190    8.8820   -4.3880 C   0  0  0  0  0  0  0  0  0  0  0  0
   11.7550    9.2340   -5.7400 C   0  0  0  0  0  0  0  0  0  0  0  0
   10.9620    7.6040  -10.1760 C   0  0  0  0  0  0  0  0  0  0  0  0
   10.4470    6.8960  -11.3590 C   0  0  0  0  0  0  0  0  0  0  0  0
    7.9095    7.7208  -10.8989 H   0  0  0  0  0  0  0  0  0  0  0  0
    8.9540    8.2904  -12.2447 H   0  0  0  0  0  0  0  0  0  0  0  0
    7.1994    8.6754  -12.2447 H   0  0  0  0  0  0  0  0  0  0  0  0
    8.2061    6.7426  -13.6910 H   0  0  0  0  0  0  0  0  0  0  0  0
    5.5935    6.4606  -12.3926 H   0  0  0  0  0  0  0  0  0  0  0  0
    5.9543    7.4105  -13.7893 H   0  0  0  0  0  0  0  0  0  0  0  0
    5.4621    5.0276  -14.4036 H   0  0  0  0  0  0  0  0  0  0  0  0
    8.4500    6.0595  -14.1486 H   0  0  0  0  0  0  0  0  0  0  0  0
    7.9588    4.9181  -15.4458 H   0  0  0  0  0  0  0  0  0  0  0  0
    7.3319    6.6015  -15.4458 H   0  0  0  0  0  0  0  0  0  0  0  0
    7.4457    2.0097  -13.7642 H   0  0  0  0  0  0  0  0  0  0  0  0
    6.2577    2.5567  -14.9955 H   0  0  0  0  0  0  0  0  0  0  0  0
    7.9244    3.2268  -14.9955 H   0  0  0  0  0  0  0  0  0  0  0  0
    5.0038    3.7802  -12.1601 H   0  0  0  0  0  0  0  0  0  0  0  0
    4.6940    4.6401  -13.7065 H   0  0  0  0  0  0  0  0  0  0  0  0
    4.9786    2.8665  -13.7065 H   0  0  0  0  0  0  0  0  0  0  0  0
    8.9470    5.3542  -13.2396 H   0  0  0  0  0  0  0  0  0  0  0  0
    8.4230    4.4983   -9.5382 H   0  0  0  0  0  0  0  0  0  0  0  0
    9.3988    5.8841   -7.5949 H   0  0  0  0  0  0  0  0  0  0  0  0
   11.8676    8.7644   -8.3727 H   0  0  0  0  0  0  0  0  0  0  0  0
   10.0189    8.9328   -7.7994 H   0  0  0  0  0  0  0  0  0  0  0  0
   10.5859    6.1119   -6.5668 H   0  0  0  0  0  0  0  0  0  0  0  0
   11.0934    5.6432   -4.2926 H   0  0  0  0  0  0  0  0  0  0  0  0
   12.5628    7.9326   -0.5467 H   0  0  0  0  0  0  0  0  0  0  0  0
   13.7856    8.2303   -1.8284 H   0  0  0  0  0  0  0  0  0  0  0  0
   12.2425    9.1497   -1.8284 H   0  0  0  0  0  0  0  0  0  0  0  0
   10.5050    5.9530   -2.6150 H   0  0  0  0  0  0  0  0  0  0  0  0
   12.3950    9.6616   -3.7091 H   0  0  0  0  0  0  0  0  0  0  0  0
   11.9224   10.2580   -6.1052 H   0  0  0  0  0  0  0  0  0  0  0  0
   11.7396    8.3711  -10.3062 H   0  0  0  0  0  0  0  0  0  0  0  0
   10.7371    7.2383  -12.3633 H   0  0  0  0  0  0  0  0  0  0  0  0
  1  2  1  0
  2  3  1  0
  3  4  1  0
  4  5  1  0
  4  6  1  0
  6  7  1  0
  6  8  1  0
  6  9  1  0
  9 10  2  0
  9 11  1  0
 11 12  1  0
 12 13  1  0
 13 14  2  0
 14 15  1  0
 15 16  1  0
 16 17  1  0
 17 18  1  0
 18 19  2  0
 19 20  1  0
 20 21  1  0
 21 22  1  0
 21 23  1  0
 21 24  1  6
 20 25  2  0
 25 26  1  0
 15 27  2  0
 27 28  1  0
 11  2  1  0
 28 12  2  0
 26 17  2  0
  1 29  1  0
  1 30  1  0
  1 31  1  0
  2 32  1  6
  3 33  1  0
  3 34  1  0
  4 35  1  6
  5 36  1  0
  5 37  1  0
  5 38  1  0
  7 39  1  0
  7 40  1  0
  7 41  1  0
  8 42  1  0
  8 43  1  0
  8 44  1  0
 11 45  1  6
 13 46  1  0
 14 47  1  0
 16 48  1  0
 16 49  1  0
 18 50  1  0
 19 51  1  0
 22 52  1  0
 22 53  1  0
 22 54  1  0
 23 55  1  0
 25 56  1  0
 26 57  1  0
 27 58  1  0
 28 59  1  0
M  END
>  <ID>  (25) 
DiffSBDD_31_0

>  <docking_score>  (25) 
-12.277

$$$$
DiffSBDD_32
     RDKit          3D

 69 71  0  0  0  0  0  0  0  0999 V2000
    6.4370   -0.3110  -16.3200 C   0  0  0  0  0  0  0  0  0  0  0  0
    6.8210    1.0500  -15.7300 C   0  0  0  0  0  0  0  0  0  0  0  0
    6.3810    1.3470  -14.3640 C   0  0  1  0  0  0  0  0  0  0  0  0
    4.9370    0.9550  -14.0700 C   0  0  0  0  0  0  0  0  0  0  0  0
    7.3200    0.4520  -13.5500 C   0  0  0  0  0  0  0  0  0  0  0  0
    6.5230   -0.2930  -12.5960 O   0  0  0  0  0  0  0  0  0  0  0  0
    6.6660    2.7050  -13.7230 N   0  0  0  0  0  0  0  0  0  0  0  0
    7.9060    2.9650  -12.9490 C   0  0  0  0  0  0  0  0  0  0  0  0
    7.7970    4.3300  -12.2230 C   0  0  2  0  0  0  0  0  0  0  0  0
    8.8070    4.4410  -11.1730 C   0  0  0  0  0  0  0  0  0  0  0  0
    8.6960    5.6440  -10.3930 C   0  0  1  0  0  0  0  0  0  0  0  0
    8.9340    5.2320   -8.9910 C   0  0  0  0  0  0  0  0  0  0  0  0
    9.5540    5.8340   -8.2280 C   0  0  0  0  0  0  0  0  0  0  0  0
   10.3090    6.8900   -8.5950 C   0  0  2  0  0  0  0  0  0  0  0  0
   11.3340    7.0190   -7.7650 C   0  0  0  0  0  0  0  0  0  0  0  0
   11.2420    6.8010   -6.4220 O   0  0  0  0  0  0  0  0  0  0  0  0
   11.2830    7.9320   -5.7150 C   0  0  0  0  0  0  0  0  0  0  0  0
   11.1080    9.1230   -6.4450 C   0  0  0  0  0  0  0  0  0  0  0  0
   11.3390   10.2400   -5.7610 C   0  0  0  0  0  0  0  0  0  0  0  0
   11.7640   10.2350   -4.5190 C   0  0  0  0  0  0  0  0  0  0  0  0
   12.0440    9.1150   -3.8480 C   0  0  0  0  0  0  0  0  0  0  0  0
   11.7300    7.9160   -4.3770 C   0  0  0  0  0  0  0  0  0  0  0  0
   11.7390    6.5970   -3.5650 C   0  0  0  0  0  0  0  0  0  0  0  0
   11.6600    6.9480   -2.0430 C   0  0  0  0  0  0  0  0  0  0  0  0
   12.6700    7.9890   -1.6390 C   0  0  0  0  0  0  0  0  0  0  0  0
   12.5470    9.2400   -2.5340 N   0  0  0  0  0  0  0  0  0  0  0  0
   10.1120    7.6570   -9.7920 C   0  0  0  0  0  0  0  0  0  0  0  0
    9.6740    6.6760  -10.9130 C   0  0  0  0  0  0  0  0  0  0  0  0
    6.3300    4.6750  -11.9560 C   0  0  0  0  0  0  0  0  0  0  0  0
    5.7550    4.0810  -10.9950 O   0  0  0  0  0  0  0  0  0  0  0  0
    5.7060    5.3890  -12.8970 O   0  0  0  0  0  0  0  0  0  0  0  0
    6.2367   -1.0210  -15.5041 H   0  0  0  0  0  0  0  0  0  0  0  0
    5.5349   -0.2006  -16.9397 H   0  0  0  0  0  0  0  0  0  0  0  0
    7.2637   -0.6884  -16.9397 H   0  0  0  0  0  0  0  0  0  0  0  0
    7.9189    1.1164  -15.7436 H   0  0  0  0  0  0  0  0  0  0  0  0
    6.2956    1.7845  -16.3581 H   0  0  0  0  0  0  0  0  0  0  0  0
    4.7828    0.9131  -12.9817 H   0  0  0  0  0  0  0  0  0  0  0  0
    4.2580    1.7013  -14.5081 H   0  0  0  0  0  0  0  0  0  0  0  0
    4.7286   -0.0322  -14.5081 H   0  0  0  0  0  0  0  0  0  0  0  0
    7.8448   -0.2443  -14.2207 H   0  0  0  0  0  0  0  0  0  0  0  0
    8.0670    1.0647  -13.0241 H   0  0  0  0  0  0  0  0  0  0  0  0
    6.8780   -1.2140  -12.5170 H   0  0  0  0  0  0  0  0  0  0  0  0
    5.8810    2.8910  -13.0830 H   0  0  0  0  0  0  0  0  0  0  0  0
    6.7930    3.3100  -14.5470 H   0  0  0  0  0  0  0  0  0  0  0  0
    8.0463    2.1665  -12.2056 H   0  0  0  0  0  0  0  0  0  0  0  0
    8.7645    2.9875  -13.6364 H   0  0  0  0  0  0  0  0  0  0  0  0
    8.0879    5.1856  -12.8502 H   0  0  0  0  0  0  0  0  0  0  0  0
    8.7038    3.5783  -10.4984 H   0  0  0  0  0  0  0  0  0  0  0  0
    9.7879    4.4680  -11.6701 H   0  0  0  0  0  0  0  0  0  0  0  0
    7.7101    6.1271  -10.4611 H   0  0  0  0  0  0  0  0  0  0  0  0
    8.4878    4.2848   -8.6537 H   0  0  0  0  0  0  0  0  0  0  0  0
    9.5292    5.5384   -7.1687 H   0  0  0  0  0  0  0  0  0  0  0  0
   10.9131    6.2342   -9.2392 H   0  0  0  0  0  0  0  0  0  0  0  0
   12.1070    6.3270   -8.1306 H   0  0  0  0  0  0  0  0  0  0  0  0
   11.5034    8.1054   -7.7971 H   0  0  0  0  0  0  0  0  0  0  0  0
   10.8031    9.1293   -7.5019 H   0  0  0  0  0  0  0  0  0  0  0  0
   11.1670   11.2071   -6.2560 H   0  0  0  0  0  0  0  0  0  0  0  0
   11.8958   11.1994   -4.0066 H   0  0  0  0  0  0  0  0  0  0  0  0
   10.8729    5.9811   -3.8488 H   0  0  0  0  0  0  0  0  0  0  0  0
   12.6603    6.0334   -3.7735 H   0  0  0  0  0  0  0  0  0  0  0  0
   10.6523    7.3289   -1.8205 H   0  0  0  0  0  0  0  0  0  0  0  0
   11.8796    6.0311   -1.4763 H   0  0  0  0  0  0  0  0  0  0  0  0
   12.4951    8.2752   -0.5914 H   0  0  0  0  0  0  0  0  0  0  0  0
   13.6796    7.5678   -1.7545 H   0  0  0  0  0  0  0  0  0  0  0  0
   12.8310   10.1630   -2.1740 H   0  0  0  0  0  0  0  0  0  0  0  0
    9.3296    8.4127   -9.6285 H   0  0  0  0  0  0  0  0  0  0  0  0
   11.0397    8.1762  -10.0745 H   0  0  0  0  0  0  0  0  0  0  0  0
    9.1950    7.2475  -11.7216 H   0  0  0  0  0  0  0  0  0  0  0  0
   10.5674    6.1511  -11.2822 H   0  0  0  0  0  0  0  0  0  0  0  0
  1  2  1  0
  3  2  1  6
  3  4  1  0
  3  5  1  0
  5  6  1  0
  3  7  1  0
  7  8  1  0
  8  9  1  0
  9 10  1  0
 10 11  1  0
 11 12  1  0
 12 13  2  0
 13 14  1  0
 14 15  1  0
 15 16  1  0
 16 17  1  0
 17 18  1  0
 18 19  2  0
 19 20  1  0
 20 21  2  0
 21 22  1  0
 22 23  1  0
 23 24  1  0
 24 25  1  0
 25 26  1  0
 14 27  1  0
 27 28  1  0
  9 29  1  0
 29 30  2  0
 29 31  1  0
 28 11  1  0
 22 17  2  0
 26 21  1  0
  1 32  1  0
  1 33  1  0
  1 34  1  0
  2 35  1  0
  2 36  1  0
  4 37  1  0
  4 38  1  0
  4 39  1  0
  5 40  1  0
  5 41  1  0
  6 42  1  0
  7 43  1  0
  7 44  1  0
  8 45  1  0
  8 46  1  0
  9 47  1  6
 10 48  1  0
 10 49  1  0
 11 50  1  1
 12 51  1  0
 13 52  1  0
 14 53  1  1
 15 54  1  0
 15 55  1  0
 18 56  1  0
 19 57  1  0
 20 58  1  0
 23 59  1  0
 23 60  1  0
 24 61  1  0
 24 62  1  0
 25 63  1  0
 25 64  1  0
 26 65  1  0
 27 66  1  0
 27 67  1  0
 28 68  1  0
 28 69  1  0
M  CHG  2   7   1  31  -1
M  END
>  <ID>  (26) 
DiffSBDD_32_0

>  <docking_score>  (26) 
-9.944

$$$$
DiffSBDD_33
     RDKit          3D

 58 64  0  0  0  0  0  0  0  0999 V2000
    6.1570    7.6980  -14.0310 C   0  0  0  0  0  0  0  0  0  0  0  0
    6.0560    6.8190  -12.9000 C   0  0  0  0  0  0  0  0  0  0  0  0
    6.6460    5.3050  -13.1080 C   0  0  2  0  0  0  0  0  0  0  0  0
    7.5720    5.3610  -11.5920 N   0  0  2  0  0  0  0  0  0  0  0  0
    8.0180    5.0540  -10.0720 C   0  0  0  0  0  0  0  0  0  0  0  0
    9.2140    4.9800   -9.7750 C   0  0  2  0  0  0  0  0  0  0  0  0
    9.5190    5.6670   -8.3360 C   0  0  0  0  0  0  0  0  0  0  0  0
    9.8320    7.0430   -8.5050 C   0  0  1  0  0  0  0  0  0  0  0  0
   10.8050    7.5900   -7.6350 C   0  0  0  0  0  0  0  0  0  0  0  0
   11.7180    8.5190   -8.1880 C   0  0  0  0  0  0  0  0  0  0  0  0
   12.4990    9.3610   -7.7250 N   0  0  0  0  0  0  0  0  0  0  0  0
   12.5900    9.3700   -6.4310 C   0  0  0  0  0  0  0  0  0  0  0  0
   11.9930    8.4690   -5.6170 C   0  0  0  0  0  0  0  0  0  0  0  0
   11.1580    7.5190   -6.1370 C   0  0  0  0  0  0  0  0  0  0  0  0
   10.8150    6.4530   -4.9580 S   0  0  0  0  0  0  0  0  0  0  0  0
   11.6040    7.2580   -3.6600 C   0  0  0  0  0  0  0  0  0  0  0  0
   11.7100    6.8820   -2.3200 C   0  0  0  0  0  0  0  0  0  0  0  0
   12.4180    7.6680   -1.4610 C   0  0  0  0  0  0  0  0  0  0  0  0
   12.8880    8.8330   -1.9210 C   0  0  0  0  0  0  0  0  0  0  0  0
   12.7560    9.1870   -3.2260 C   0  0  0  0  0  0  0  0  0  0  0  0
   12.1380    8.3650   -4.1320 C   0  0  0  0  0  0  0  0  0  0  0  0
   11.9760    8.2570   -9.6540 C   0  0  0  0  0  0  0  0  0  0  0  0
   11.1720    7.6540  -10.7320 C   0  0  0  0  0  0  0  0  0  0  0  0
    9.9830    7.1940  -10.1280 N   0  0  1  0  0  0  0  0  0  0  0  0
    9.6660    6.2050  -10.9270 C   0  0  2  0  0  0  0  0  0  0  0  0
    8.8190    6.0320  -12.0810 C   0  0  0  0  0  0  0  0  0  0  0  0
    5.2260    4.6050  -13.7910 C   0  0  0  0  0  0  0  0  0  0  0  0
    6.0870    3.8610  -12.2770 C   0  0  2  0  0  0  0  0  0  0  0  0
    6.0330    3.7230  -11.4490 O   0  0  0  0  0  0  0  0  0  0  0  0
    6.2760    8.7339  -13.6808 H   0  0  0  0  0  0  0  0  0  0  0  0
    7.0284    7.4142  -14.6393 H   0  0  0  0  0  0  0  0  0  0  0  0
    5.2439    7.6192  -14.6393 H   0  0  0  0  0  0  0  0  0  0  0  0
    6.6035    7.2812  -12.0654 H   0  0  0  0  0  0  0  0  0  0  0  0
    4.9783    6.6935  -12.7191 H   0  0  0  0  0  0  0  0  0  0  0  0
    7.9480    4.4480  -11.8870 H   0  0  0  0  0  0  0  0  0  0  0  0
    7.5868    5.8517   -9.4493 H   0  0  0  0  0  0  0  0  0  0  0  0
    7.6575    4.0275   -9.9096 H   0  0  0  0  0  0  0  0  0  0  0  0
    9.6564    3.9730   -9.7616 H   0  0  0  0  0  0  0  0  0  0  0  0
    8.6315    5.5727   -7.6930 H   0  0  0  0  0  0  0  0  0  0  0  0
   10.3762    5.1587   -7.8703 H   0  0  0  0  0  0  0  0  0  0  0  0
    9.0497    7.7272   -8.1446 H   0  0  0  0  0  0  0  0  0  0  0  0
   13.1927   10.1631   -5.9643 H   0  0  0  0  0  0  0  0  0  0  0  0
   11.2272    5.9610   -1.9612 H   0  0  0  0  0  0  0  0  0  0  0  0
   12.5974    7.3544   -0.4220 H   0  0  0  0  0  0  0  0  0  0  0  0
   13.3931    9.5203   -1.2264 H   0  0  0  0  0  0  0  0  0  0  0  0
   13.1542   10.1554   -3.5631 H   0  0  0  0  0  0  0  0  0  0  0  0
   12.2172    9.2550  -10.0488 H   0  0  0  0  0  0  0  0  0  0  0  0
   12.6237    7.3818   -9.4971 H   0  0  0  0  0  0  0  0  0  0  0  0
   10.9423    8.4053  -11.5019 H   0  0  0  0  0  0  0  0  0  0  0  0
   11.7142    6.8333  -11.2244 H   0  0  0  0  0  0  0  0  0  0  0  0
    9.2640    7.9290  -10.0630 H   0  0  0  0  0  0  0  0  0  0  0  0
   10.5306    6.3032  -11.6000 H   0  0  0  0  0  0  0  0  0  0  0  0
    8.5766    7.0087  -12.5251 H   0  0  0  0  0  0  0  0  0  0  0  0
    9.3178    5.4316  -12.8561 H   0  0  0  0  0  0  0  0  0  0  0  0
    4.2531    5.1074  -13.6861 H   0  0  0  0  0  0  0  0  0  0  0  0
    4.9230    4.2433  -14.7847 H   0  0  0  0  0  0  0  0  0  0  0  0
    6.2863    2.8177  -11.9911 H   0  0  0  0  0  0  0  0  0  0  0  0
    5.6270    4.5110  -11.0090 H   0  0  0  0  0  0  0  0  0  0  0  0
  1  2  1  0
  3  2  1  6
  3  4  1  0
  4  5  1  0
  5  6  1  0
  6  7  1  0
  7  8  1  0
  8  9  1  0
  9 10  1  0
 10 11  2  0
 11 12  1  0
 12 13  2  0
 13 14  1  0
 14 15  1  0
 15 16  1  0
 16 17  2  0
 17 18  1  0
 18 19  2  0
 19 20  1  0
 20 21  2  0
 10 22  1  0
 22 23  1  0
 23 24  1  0
 24 25  1  0
 25 26  1  0
  3 27  1  0
 27 28  1  0
 28 29  1  0
 28  3  1  0
 26  4  1  0
 25  6  1  0
 24  8  1  0
 14  9  2  0
 21 16  1  0
 21 13  1  0
  1 30  1  0
  1 31  1  0
  1 32  1  0
  2 33  1  0
  2 34  1  0
  4 35  1  1
  5 36  1  0
  5 37  1  0
  6 38  1  6
  7 39  1  0
  7 40  1  0
  8 41  1  1
 12 42  1  0
 17 43  1  0
 18 44  1  0
 19 45  1  0
 20 46  1  0
 22 47  1  0
 22 48  1  0
 23 49  1  0
 23 50  1  0
 24 51  1  6
 25 52  1  6
 26 53  1  0
 26 54  1  0
 27 55  1  0
 27 56  1  0
 28 57  1  6
 29 58  1  0
M  CHG  2   4   1  24   1
M  END
>  <ID>  (27) 
DiffSBDD_33_0

>  <docking_score>  (27) 
-12.489

$$$$
DiffSBDD_34
     RDKit          3D

 46 46  0  0  0  0  0  0  0  0999 V2000
    9.0460    5.0380   -8.3880 C   0  0  0  0  0  0  0  0  0  0  0  0
    8.4470    4.8880   -9.6330 C   0  0  0  0  0  0  0  0  0  0  0  0
    8.5850    5.1790  -11.1180 C   0  0  2  0  0  0  0  0  0  0  0  0
    9.2570    3.7400  -11.6460 O   0  0  0  0  0  0  0  0  0  0  0  0
    9.6210    6.0750  -11.5630 C   0  0  0  0  0  0  0  0  0  0  0  0
    9.8120    7.5450  -11.2270 C   0  0  0  0  0  0  0  0  0  0  0  0
   11.1480    7.6650  -10.6240 C   0  0  0  0  0  0  0  0  0  0  0  0
   11.1620    7.8320   -9.0650 C   0  0  0  0  0  0  0  0  0  0  0  0
   12.3830    7.9710   -8.3620 C   0  0  0  0  0  0  0  0  0  0  0  0
   12.0550    8.6850   -7.1600 C   0  0  0  0  0  0  0  0  0  0  0  0
   10.7710    8.1310   -6.6020 C   0  0  0  0  0  0  0  0  0  0  0  0
   10.8260    7.1400   -5.5920 C   0  0  0  0  0  0  0  0  0  0  0  0
   11.3930    6.5870   -4.5600 C   0  0  0  0  0  0  0  0  0  0  0  0
   11.9430    7.4280   -3.3820 C   0  0  0  0  0  0  0  0  0  0  0  0
   12.4080    6.6320   -2.3920 C   0  0  0  0  0  0  0  0  0  0  0  0
   12.3050    7.9580   -2.3210 C   0  0  0  0  0  0  0  0  0  0  0  0
    8.3028    4.8519   -7.5987 H   0  0  0  0  0  0  0  0  0  0  0  0
    9.8728    4.3192   -8.2899 H   0  0  0  0  0  0  0  0  0  0  0  0
    9.4365    6.0617   -8.2899 H   0  0  0  0  0  0  0  0  0  0  0  0
    8.3313    3.7945   -9.6608 H   0  0  0  0  0  0  0  0  0  0  0  0
    7.8861    5.8233   -9.4894 H   0  0  0  0  0  0  0  0  0  0  0  0
    7.6168    5.5824  -11.4496 H   0  0  0  0  0  0  0  0  0  0  0  0
   10.0200    3.4980  -11.0620 H   0  0  0  0  0  0  0  0  0  0  0  0
   10.5571    5.5951  -11.2415 H   0  0  0  0  0  0  0  0  0  0  0  0
    9.2944    6.1909  -12.6070 H   0  0  0  0  0  0  0  0  0  0  0  0
    9.7512    8.1547  -12.1405 H   0  0  0  0  0  0  0  0  0  0  0  0
    9.0313    7.9005  -10.5385 H   0  0  0  0  0  0  0  0  0  0  0  0
   11.7176    6.7579  -10.8746 H   0  0  0  0  0  0  0  0  0  0  0  0
   11.5876    8.5860  -11.0345 H   0  0  0  0  0  0  0  0  0  0  0  0
   10.5666    8.7292   -8.8402 H   0  0  0  0  0  0  0  0  0  0  0  0
   10.7862    6.8604   -8.7119 H   0  0  0  0  0  0  0  0  0  0  0  0
   12.8018    6.9831   -8.1201 H   0  0  0  0  0  0  0  0  0  0  0  0
   13.1390    8.5024   -8.9587 H   0  0  0  0  0  0  0  0  0  0  0  0
   12.8625    8.5600   -6.4236 H   0  0  0  0  0  0  0  0  0  0  0  0
   11.9350    9.7556   -7.3821 H   0  0  0  0  0  0  0  0  0  0  0  0
   10.2078    8.9804   -6.1881 H   0  0  0  0  0  0  0  0  0  0  0  0
   10.3193    7.6071   -7.4573 H   0  0  0  0  0  0  0  0  0  0  0  0
    9.8339    7.3136   -5.1498 H   0  0  0  0  0  0  0  0  0  0  0  0
   11.5023    6.5607   -6.2377 H   0  0  0  0  0  0  0  0  0  0  0  0
   10.6483    5.9018   -4.1289 H   0  0  0  0  0  0  0  0  0  0  0  0
   12.3120    6.1681   -4.9960 H   0  0  0  0  0  0  0  0  0  0  0  0
   10.9468    7.4262   -2.9156 H   0  0  0  0  0  0  0  0  0  0  0  0
   11.7256    5.9828   -1.8238 H   0  0  0  0  0  0  0  0  0  0  0  0
   13.1988    5.8774   -2.2690 H   0  0  0  0  0  0  0  0  0  0  0  0
   11.5519    8.4068   -1.6566 H   0  0  0  0  0  0  0  0  0  0  0  0
   13.0167    8.7613   -2.0797 H   0  0  0  0  0  0  0  0  0  0  0  0
  1  2  1  0
  2  3  1  0
  3  4  1  0
  3  5  1  0
  5  6  1  0
  6  7  1  0
  7  8  1  0
  8  9  1  0
  9 10  1  0
 10 11  1  0
 11 12  1  0
 12 13  1  0
 13 14  1  0
 14 15  1  0
 15 16  1  0
 16 14  1  0
  1 17  1  0
  1 18  1  0
  1 19  1  0
  2 20  1  0
  2 21  1  0
  3 22  1  6
  4 23  1  0
  5 24  1  0
  5 25  1  0
  6 26  1  0
  6 27  1  0
  7 28  1  0
  7 29  1  0
  8 30  1  0
  8 31  1  0
  9 32  1  0
  9 33  1  0
 10 34  1  0
 10 35  1  0
 11 36  1  0
 11 37  1  0
 12 38  1  0
 12 39  1  0
 13 40  1  0
 13 41  1  0
 14 42  1  0
 15 43  1  0
 15 44  1  0
 16 45  1  0
 16 46  1  0
M  END
>  <ID>  (28) 
DiffSBDD_34_0

>  <docking_score>  (28) 
-6.871

$$$$
DiffSBDD_35
     RDKit          3D

 81 86  0  0  0  0  0  0  0  0999 V2000
    4.1050   -3.2030  -17.4460 C   0  0  0  0  0  0  0  0  0  0  0  0
    4.7090   -2.1160  -18.2810 C   0  0  1  0  0  0  0  0  0  0  0  0
    4.7640   -2.4540  -19.7480 C   0  0  0  0  0  0  0  0  0  0  0  0
    5.9070   -2.0780  -20.4790 O   0  0  0  0  0  0  0  0  0  0  0  0
    6.0480   -0.5940  -20.4140 C   0  0  0  0  0  0  0  0  0  0  0  0
    5.9320   -0.0750  -18.9590 C   0  0  0  0  0  0  0  0  0  0  0  0
    5.2870   -0.8800  -17.9950 C   0  0  0  0  0  0  0  0  0  0  0  0
    4.9600   -0.3610  -16.6250 C   0  0  0  0  0  0  0  0  0  0  0  0
    6.1750    0.1340  -15.6480 C   0  0  2  0  0  0  0  0  0  0  0  0
    6.6670   -0.9520  -14.7940 O   0  0  0  0  0  0  0  0  0  0  0  0
    5.7760    1.1380  -14.4890 C   0  0  0  0  0  0  0  0  0  0  0  0
    4.4760    1.0480  -14.4010 O   0  0  0  0  0  0  0  0  0  0  0  0
    6.0710    2.5350  -14.0520 N   0  0  0  0  0  0  0  0  0  0  0  0
    5.3950    3.2850  -12.9700 C   0  0  0  0  0  0  0  0  0  0  0  0
    6.0950    4.0910  -12.1490 C   0  0  0  0  0  0  0  0  0  0  0  0
    7.4250    3.8340  -12.4820 C   0  0  0  0  0  0  0  0  0  0  0  0
    7.9980    5.1230  -11.6770 N   0  0  0  0  0  0  0  0  0  0  0  0
    7.7860    6.5110  -12.1410 C   0  0  0  0  0  0  0  0  0  0  0  0
    7.5310    7.6240  -12.5230 C   0  0  0  0  0  0  0  0  0  0  0  0
    7.9480    8.9510  -12.0380 C   0  0  0  0  0  0  0  0  0  0  0  0
    8.8110    8.8420  -10.9100 C   0  0  0  0  0  0  0  0  0  0  0  0
    9.2570    7.6210  -10.4600 C   0  0  0  0  0  0  0  0  0  0  0  0
    9.8750    6.6330  -10.1170 C   0  0  0  0  0  0  0  0  0  0  0  0
   10.7330    7.2440   -8.9510 C   0  0  0  0  0  0  0  0  0  0  0  0
   10.4390    7.3580   -7.6240 C   0  0  0  0  0  0  0  0  0  0  0  0
    9.0280    6.8020   -7.1260 C   0  0  0  0  0  0  0  0  0  0  0  0
    9.1610    6.1720   -5.9420 F   0  0  0  0  0  0  0  0  0  0  0  0
    8.2680    7.9700   -6.8540 F   0  0  0  0  0  0  0  0  0  0  0  0
    8.2250    6.0290   -7.8800 F   0  0  0  0  0  0  0  0  0  0  0  0
   11.4900    8.1670   -6.7980 C   0  0  0  0  0  0  0  0  0  0  0  0
   11.6550    7.8720   -5.3410 C   0  0  0  0  0  0  0  0  0  0  0  0
   11.1360    9.1580   -5.8510 C   0  0  0  0  0  0  0  0  0  0  0  0
   12.5980    8.5650   -8.0730 C   0  0  0  0  0  0  0  0  0  0  0  0
   13.6270    9.5140   -7.4610 F   0  0  0  0  0  0  0  0  0  0  0  0
   12.0840    7.9980   -9.0110 C   0  0  0  0  0  0  0  0  0  0  0  0
    9.4950    4.9900  -10.7160 S   0  0  0  0  0  0  0  0  0  0  0  0
   10.4760    4.5740  -11.7300 O   0  0  0  0  0  0  0  0  0  0  0  0
    9.3040    4.2610   -9.5480 O   0  0  0  0  0  0  0  0  0  0  0  0
    7.7130    3.9290  -13.6620 C   0  0  0  0  0  0  0  0  0  0  0  0
    7.4160    2.7580  -14.4670 C   0  0  0  0  0  0  0  0  0  0  0  0
    7.3740    0.4440  -16.6150 C   0  0  0  0  0  0  0  0  0  0  0  0
    8.3890   -0.1340  -16.6190 O   0  0  0  0  0  0  0  0  0  0  0  0
    7.1590    1.3950  -17.5720 N   0  0  0  0  0  0  0  0  0  0  0  0
    8.0670    2.3810  -17.6070 C   0  0  0  0  0  0  0  0  0  0  0  0
    6.3990    1.2040  -18.7090 C   0  0  0  0  0  0  0  0  0  0  0  0
    6.1510    2.0260  -19.5030 O   0  0  0  0  0  0  0  0  0  0  0  0
    4.2380   -2.9637  -16.3806 H   0  0  0  0  0  0  0  0  0  0  0  0
    3.0317   -3.2855  -17.6721 H   0  0  0  0  0  0  0  0  0  0  0  0
    4.6018   -4.1580  -17.6721 H   0  0  0  0  0  0  0  0  0  0  0  0
    5.7048   -2.5618  -18.1410 H   0  0  0  0  0  0  0  0  0  0  0  0
    4.6677   -3.5464  -19.8339 H   0  0  0  0  0  0  0  0  0  0  0  0
    3.9512   -1.8612  -20.1929 H   0  0  0  0  0  0  0  0  0  0  0  0
    7.0315   -0.3106  -20.8171 H   0  0  0  0  0  0  0  0  0  0  0  0
    5.2373   -0.1444  -21.0061 H   0  0  0  0  0  0  0  0  0  0  0  0
    4.2855    0.4975  -16.7591 H   0  0  0  0  0  0  0  0  0  0  0  0
    4.5469   -1.2378  -16.1049 H   0  0  0  0  0  0  0  0  0  0  0  0
    7.2110   -1.5770  -15.3360 H   0  0  0  0  0  0  0  0  0  0  0  0
    4.6330    3.9144  -13.4530 H   0  0  0  0  0  0  0  0  0  0  0  0
    5.0534    2.4861  -12.2954 H   0  0  0  0  0  0  0  0  0  0  0  0
    5.8434    5.1467  -12.3286 H   0  0  0  0  0  0  0  0  0  0  0  0
    5.8797    3.9051  -11.0864 H   0  0  0  0  0  0  0  0  0  0  0  0
    7.7761    2.8163  -12.2563 H   0  0  0  0  0  0  0  0  0  0  0  0
    8.3076    6.9094  -11.2583 H   0  0  0  0  0  0  0  0  0  0  0  0
    7.9078    6.1812  -13.1833 H   0  0  0  0  0  0  0  0  0  0  0  0
    7.8576    7.6181  -13.5734 H   0  0  0  0  0  0  0  0  0  0  0  0
    6.5066    7.6614  -12.1240 H   0  0  0  0  0  0  0  0  0  0  0  0
    8.4783    9.4772  -12.8454 H   0  0  0  0  0  0  0  0  0  0  0  0
    7.0492    9.5082  -11.7350 H   0  0  0  0  0  0  0  0  0  0  0  0
    9.1283    9.7559  -10.3864 H   0  0  0  0  0  0  0  0  0  0  0  0
   10.9853    7.1603   -4.8359 H   0  0  0  0  0  0  0  0  0  0  0  0
   12.4748    7.5498   -4.6822 H   0  0  0  0  0  0  0  0  0  0  0  0
   10.0767    9.4142   -5.7022 H   0  0  0  0  0  0  0  0  0  0  0  0
   11.4206   10.2101   -5.7027 H   0  0  0  0  0  0  0  0  0  0  0  0
   12.6145    8.0200   -9.9744 H   0  0  0  0  0  0  0  0  0  0  0  0
    7.1559    4.7801  -14.0808 H   0  0  0  0  0  0  0  0  0  0  0  0
    8.8049    4.0568  -13.7004 H   0  0  0  0  0  0  0  0  0  0  0  0
    7.4852    2.9700  -15.5442 H   0  0  0  0  0  0  0  0  0  0  0  0
    8.0992    1.9065  -14.3321 H   0  0  0  0  0  0  0  0  0  0  0  0
    8.3336    2.6705  -16.5798 H   0  0  0  0  0  0  0  0  0  0  0  0
    8.9668    2.0323  -18.1349 H   0  0  0  0  0  0  0  0  0  0  0  0
    7.6455    3.2491  -18.1349 H   0  0  0  0  0  0  0  0  0  0  0  0
  1  2  1  0
  2  3  1  0
  3  4  1  0
  4  5  1  0
  5  6  1  0
  6  7  2  0
  7  8  1  0
  8  9  1  0
  9 10  1  1
  9 11  1  0
 11 12  2  0
 11 13  1  0
 13 14  1  0
 14 15  1  0
 15 16  1  0
 16 17  1  0
 17 18  1  0
 18 19  1  0
 19 20  1  0
 20 21  1  0
 21 22  2  0
 22 23  2  0
 23 24  1  0
 24 25  2  0
 25 26  1  0
 26 27  1  0
 26 28  1  0
 26 29  1  0
 25 30  1  0
 30 31  1  0
 31 32  1  0
 30 33  1  0
 33 34  1  0
 33 35  2  0
 23 36  1  0
 36 37  2  0
 36 38  2  0
 16 39  1  0
 39 40  1  0
  9 41  1  0
 41 42  2  0
 41 43  1  0
 43 44  1  0
 43 45  1  0
 45 46  2  0
  7  2  1  0
 40 13  1  0
 45  6  1  0
 36 17  1  0
 35 24  1  0
 32 30  1  0
  1 47  1  0
  1 48  1  0
  1 49  1  0
  2 50  1  6
  3 51  1  0
  3 52  1  0
  5 53  1  0
  5 54  1  0
  8 55  1  0
  8 56  1  0
 10 57  1  0
 14 58  1  0
 14 59  1  0
 15 60  1  0
 15 61  1  0
 16 62  1  0
 18 63  1  0
 18 64  1  0
 19 65  1  0
 19 66  1  0
 20 67  1  0
 20 68  1  0
 21 69  1  0
 31 70  1  0
 31 71  1  0
 32 72  1  0
 32 73  1  0
 35 74  1  0
 39 75  1  0
 39 76  1  0
 40 77  1  0
 40 78  1  0
 44 79  1  0
 44 80  1  0
 44 81  1  0
M  END
>  <ID>  (29) 
DiffSBDD_35_0

>  <docking_score>  (29) 
-9.311

$$$$
DiffSBDD_36
     RDKit          3D

 35 35  0  0  0  0  0  0  0  0999 V2000
    8.5750    5.3600   -7.8260 C   0  0  0  0  0  0  0  0  0  0  0  0
    9.3210    6.3670   -8.7380 C   0  0  0  0  0  0  0  0  0  0  0  0
    9.7860    7.5730   -8.3540 C   0  0  0  0  0  0  0  0  0  0  0  0
    9.8170    8.4160   -7.1120 C   0  0  0  0  0  0  0  0  0  0  0  0
   10.9940    7.8450   -6.2520 C   0  0  2  0  0  0  0  0  0  0  0  0
   11.2100    6.5610   -5.2140 C   0  0  0  0  0  0  0  0  0  0  0  0
   11.8430    9.1450   -5.4560 S   0  0  0  0  0  0  0  0  0  0  0  0
   12.8480    9.5930   -6.4310 O   0  0  0  0  0  0  0  0  0  0  0  0
   10.8450   10.1830   -5.2300 O   0  0  0  0  0  0  0  0  0  0  0  0
   12.3840    8.4200   -4.2900 N   0  0  0  0  0  0  0  0  0  0  0  0
   12.6180    8.7720   -2.8540 C   0  0  2  0  0  0  0  0  0  0  0  0
   12.3990    7.5070   -1.8880 C   0  0  0  0  0  0  0  0  0  0  0  0
   11.9550    9.8560   -2.2660 O   0  0  0  0  0  0  0  0  0  0  0  0
   10.4470    8.5300   -9.8260 S   0  0  0  0  0  0  0  0  0  0  0  0
   10.2230    7.1070  -10.8590 C   0  0  0  0  0  0  0  0  0  0  0  0
   10.7400    6.9980  -12.0260 O   0  0  0  0  0  0  0  0  0  0  0  0
    9.5710    6.0650  -10.0450 C   0  0  2  0  0  0  0  0  0  0  0  0
    9.0850    4.9520  -10.7510 O   0  0  0  0  0  0  0  0  0  0  0  0
    8.7618    5.6121   -6.7717 H   0  0  0  0  0  0  0  0  0  0  0  0
    7.4952    5.4112   -8.0295 H   0  0  0  0  0  0  0  0  0  0  0  0
    8.9386    4.3420   -8.0295 H   0  0  0  0  0  0  0  0  0  0  0  0
   10.0023    9.4700   -7.3666 H   0  0  0  0  0  0  0  0  0  0  0  0
    8.8603    8.3820   -6.5703 H   0  0  0  0  0  0  0  0  0  0  0  0
   11.2256    7.2661   -7.1582 H   0  0  0  0  0  0  0  0  0  0  0  0
   11.1503    6.9158   -4.1745 H   0  0  0  0  0  0  0  0  0  0  0  0
   10.4255    5.8105   -5.3909 H   0  0  0  0  0  0  0  0  0  0  0  0
   12.1969    6.1085   -5.3909 H   0  0  0  0  0  0  0  0  0  0  0  0
   11.7710    7.5950   -4.2280 H   0  0  0  0  0  0  0  0  0  0  0  0
   13.6613    9.1101   -2.9383 H   0  0  0  0  0  0  0  0  0  0  0  0
   12.4554    7.8327   -0.8388 H   0  0  0  0  0  0  0  0  0  0  0  0
   11.4109    7.0643   -2.0819 H   0  0  0  0  0  0  0  0  0  0  0  0
   13.1808    6.7579   -2.0819 H   0  0  0  0  0  0  0  0  0  0  0  0
   11.1100    9.5420   -1.8550 H   0  0  0  0  0  0  0  0  0  0  0  0
   10.0793    5.2708   -9.4785 H   0  0  0  0  0  0  0  0  0  0  0  0
    8.1070    5.0420  -10.8770 H   0  0  0  0  0  0  0  0  0  0  0  0
  1  2  1  0
  2  3  2  0
  3  4  1  0
  4  5  1  0
  5  6  1  0
  5  7  1  0
  7  8  2  0
  7  9  2  0
  7 10  1  0
 10 11  1  0
 11 12  1  0
 11 13  1  0
  3 14  1  0
 14 15  1  0
 15 16  2  0
 15 17  1  0
 17 18  1  0
 17  2  1  0
  1 19  1  0
  1 20  1  0
  1 21  1  0
  4 22  1  0
  4 23  1  0
  5 24  1  6
  6 25  1  0
  6 26  1  0
  6 27  1  0
 10 28  1  0
 11 29  1  6
 12 30  1  0
 12 31  1  0
 12 32  1  0
 13 33  1  0
 17 34  1  1
 18 35  1  0
M  END
>  <ID>  (30) 
DiffSBDD_36_0

>  <docking_score>  (30) 
-6.953

$$$$
DiffSBDD_37
     RDKit          3D

 79 84  0  0  0  0  0  0  0  0999 V2000
    9.8470   -0.3890  -18.1150 C   0  0  0  0  0  0  0  0  0  0  0  0
    9.2680    0.7330  -18.1130 O   0  0  0  0  0  0  0  0  0  0  0  0
    7.9640    0.6020  -18.7030 C   0  0  2  0  0  0  0  0  0  0  0  0
    7.7600    1.4250  -19.7830 C   0  0  2  0  0  0  0  0  0  0  0  0
    9.1030    2.2820  -20.1380 C   0  0  0  0  0  0  0  0  0  0  0  0
    9.1820    3.3640  -19.6110 O   0  0  0  0  0  0  0  0  0  0  0  0
    9.8950    1.7390  -20.9410 O   0  0  0  0  0  0  0  0  0  0  0  0
    6.7210    1.3440  -20.3980 N   0  0  0  0  0  0  0  0  0  0  0  0
    6.4130    2.1150  -21.5390 C   0  0  0  0  0  0  0  0  0  0  0  0
    5.3210    2.3420  -20.3560 C   0  0  1  0  0  0  0  0  0  0  0  0
    4.4290    2.1030  -20.0380 O   0  0  0  0  0  0  0  0  0  0  0  0
    5.6720    3.7470  -19.6630 C   0  0  0  0  0  0  0  0  0  0  0  0
    4.8790    5.1740  -20.3200 C   0  0  1  0  0  0  0  0  0  0  0  0
    4.8670    5.8860  -19.1640 C   0  0  0  0  0  0  0  0  0  0  0  0
    4.9740    7.2830  -19.0200 C   0  0  0  0  0  0  0  0  0  0  0  0
    4.7910    7.8070  -20.5530 C   0  0  1  0  0  0  0  0  0  0  0  0
    6.0540    8.1020  -20.3200 O   0  0  0  0  0  0  0  0  0  0  0  0
    4.9600    7.0780  -21.8400 C   0  0  0  0  0  0  0  0  0  0  0  0
    5.2370    5.8070  -21.5720 C   0  0  0  0  0  0  0  0  0  0  0  0
    6.6040    0.7530  -17.6500 C   0  0  1  0  0  0  0  0  0  0  0  0
    6.4360   -0.4470  -17.1600 C   0  0  0  0  0  0  0  0  0  0  0  0
    5.1820   -0.7210  -16.3950 O   0  0  0  0  0  0  0  0  0  0  0  0
    5.0440   -0.1910  -16.1570 C   0  0  0  0  0  0  0  0  0  0  0  0
    6.5450    0.9730  -15.7440 C   0  0  1  0  0  0  0  0  0  0  0  0
    6.5530   -0.0660  -14.8490 C   0  0  0  0  0  0  0  0  0  0  0  0
    7.1450    0.4030  -13.2350 C   0  0  0  0  0  0  0  0  0  0  0  0
    7.2110    1.2960  -13.1770 C   0  0  0  0  0  0  0  0  0  0  0  0
    7.5370    2.2920  -13.9690 C   0  0  2  0  0  0  0  0  0  0  0  0
    7.8570    3.9190  -13.1470 C   0  0  0  0  0  0  0  0  0  0  0  0
    8.1130    3.9120  -11.8670 C   0  0  0  0  0  0  0  0  0  0  0  0
    8.4500    4.9250  -10.8860 C   0  0  0  0  0  0  0  0  0  0  0  0
    8.8910    5.9870  -11.6980 C   0  0  0  0  0  0  0  0  0  0  0  0
    9.2880    7.1220  -10.9970 F   0  0  0  0  0  0  0  0  0  0  0  0
    8.8080    5.9230  -13.1720 C   0  0  0  0  0  0  0  0  0  0  0  0
    8.1010    4.9920  -13.9760 C   0  0  1  0  0  0  0  0  0  0  0  0
    8.1450    4.2150  -15.4330 C   0  0  1  0  0  0  0  0  0  0  0  0
    9.4570    4.1310  -15.8960 F   0  0  0  0  0  0  0  0  0  0  0  0
    7.4630    3.2660  -16.5490 S   0  0  0  0  0  0  0  0  0  0  0  0
    6.8410    2.2970  -15.0650 C   0  0  1  0  0  0  0  0  0  0  0  0
   10.0159   -0.7163  -17.0785 H   0  0  0  0  0  0  0  0  0  0  0  0
    9.2166   -1.1260  -18.6341 H   0  0  0  0  0  0  0  0  0  0  0  0
   10.8129   -0.3022  -18.6341 H   0  0  0  0  0  0  0  0  0  0  0  0
    8.0032   -0.4508  -19.0194 H   0  0  0  0  0  0  0  0  0  0  0  0
    8.0937    0.6227  -20.4574 H   0  0  0  0  0  0  0  0  0  0  0  0
    7.0798    2.9486  -21.8047 H   0  0  0  0  0  0  0  0  0  0  0  0
    6.2885    1.8290  -22.5938 H   0  0  0  0  0  0  0  0  0  0  0  0
    3.9620    1.5710  -20.7300 H   0  0  0  0  0  0  0  0  0  0  0  0
    5.3966    3.6724  -18.6006 H   0  0  0  0  0  0  0  0  0  0  0  0
    6.7449    3.9011  -19.8506 H   0  0  0  0  0  0  0  0  0  0  0  0
    3.9219    4.9647  -20.8201 H   0  0  0  0  0  0  0  0  0  0  0  0
    3.9129    5.6254  -18.6826 H   0  0  0  0  0  0  0  0  0  0  0  0
    5.8527    5.5956  -18.7716 H   0  0  0  0  0  0  0  0  0  0  0  0
    4.1816    7.6778  -18.3671 H   0  0  0  0  0  0  0  0  0  0  0  0
    5.9166    7.6063  -18.5542 H   0  0  0  0  0  0  0  0  0  0  0  0
    3.8230    8.2870  -20.7595 H   0  0  0  0  0  0  0  0  0  0  0  0
    6.3940    8.6930  -21.0380 H   0  0  0  0  0  0  0  0  0  0  0  0
    4.0311    7.1396  -22.4259 H   0  0  0  0  0  0  0  0  0  0  0  0
    5.7780    7.5270  -22.4225 H   0  0  0  0  0  0  0  0  0  0  0  0
    4.7496    5.2164  -22.3617 H   0  0  0  0  0  0  0  0  0  0  0  0
    6.3348    5.8279  -21.5049 H   0  0  0  0  0  0  0  0  0  0  0  0
    6.0834    1.4911  -18.2779 H   0  0  0  0  0  0  0  0  0  0  0  0
    6.4657   -1.1523  -18.0036 H   0  0  0  0  0  0  0  0  0  0  0  0
    7.2409   -0.5571  -16.4184 H   0  0  0  0  0  0  0  0  0  0  0  0
    4.3931    0.3384  -16.8684 H   0  0  0  0  0  0  0  0  0  0  0  0
    4.5668   -0.4142  -15.1914 H   0  0  0  0  0  0  0  0  0  0  0  0
    5.5265   -0.4481  -14.7475 H   0  0  0  0  0  0  0  0  0  0  0  0
    7.2411   -0.8297  -15.2406 H   0  0  0  0  0  0  0  0  0  0  0  0
    6.4423    0.0401  -12.4705 H   0  0  0  0  0  0  0  0  0  0  0  0
    8.1380   -0.0418  -13.0734 H   0  0  0  0  0  0  0  0  0  0  0  0
    6.2009    1.5821  -12.8487 H   0  0  0  0  0  0  0  0  0  0  0  0
    8.1959    1.2654  -12.6881 H   0  0  0  0  0  0  0  0  0  0  0  0
    8.5620    2.0829  -14.3092 H   0  0  0  0  0  0  0  0  0  0  0  0
    8.0610    2.9032  -11.4315 H   0  0  0  0  0  0  0  0  0  0  0  0
    7.5701    5.2147  -10.2928 H   0  0  0  0  0  0  0  0  0  0  0  0
    9.1944    4.5947  -10.1466 H   0  0  0  0  0  0  0  0  0  0  0  0
    9.3671    6.6980  -13.7168 H   0  0  0  0  0  0  0  0  0  0  0  0
    7.5872    5.8679  -14.3989 H   0  0  0  0  0  0  0  0  0  0  0  0
    7.1454    4.5745  -15.1474 H   0  0  0  0  0  0  0  0  0  0  0  0
    5.9796    2.7593  -14.5607 H   0  0  0  0  0  0  0  0  0  0  0  0
  1  2  1  0
  2  3  1  0
  3  4  1  0
  4  5  1  0
  5  6  2  0
  5  7  1  0
  4  8  1  0
  8  9  1  0
  9 10  1  0
 10 11  1  6
 10 12  1  0
 12 13  1  0
 13 14  1  0
 14 15  1  0
 15 16  1  0
 16 17  1  0
 16 18  1  0
 18 19  1  0
  3 20  1  0
 20 21  1  0
 21 22  1  0
 22 23  1  0
 24 23  1  6
 24 25  1  0
 25 26  1  0
 26 27  1  0
 27 28  1  0
 28 29  1  0
 29 30  2  0
 30 31  1  0
 31 32  1  0
 32 33  1  0
 32 34  2  0
 34 35  1  0
 35 36  1  0
 36 37  1  0
 36 38  1  0
 38 39  1  0
 10  8  1  0
 19 13  1  0
 24 20  1  0
 39 28  1  0
 39 24  1  0
 35 29  1  0
  1 40  1  0
  1 41  1  0
  1 42  1  0
  3 43  1  6
  4 44  1  1
  9 45  1  0
  9 46  1  0
 11 47  1  0
 12 48  1  0
 12 49  1  0
 13 50  1  6
 14 51  1  0
 14 52  1  0
 15 53  1  0
 15 54  1  0
 16 55  1  1
 17 56  1  0
 18 57  1  0
 18 58  1  0
 19 59  1  0
 19 60  1  0
 20 61  1  6
 21 62  1  0
 21 63  1  0
 23 64  1  0
 23 65  1  0
 25 66  1  0
 25 67  1  0
 26 68  1  0
 26 69  1  0
 27 70  1  0
 27 71  1  0
 28 72  1  6
 30 73  1  0
 31 74  1  0
 31 75  1  0
 34 76  1  0
 35 77  1  6
 36 78  1  6
 39 79  1  1
M  CHG  1   7  -1
M  END
>  <ID>  (31) 
DiffSBDD_37_0

>  <docking_score>  (31) 
-9.143

$$$$
DiffSBDD_38
     RDKit          3D

 55 57  0  0  0  0  0  0  0  0999 V2000
   11.6680    9.9520   -6.6580 C   0  0  0  0  0  0  0  0  0  0  0  0
   11.6150    8.4930   -6.6940 C   0  0  1  0  0  0  0  0  0  0  0  0
   11.8750    7.7650   -7.8660 C   0  0  0  0  0  0  0  0  0  0  0  0
   10.7070    7.1720   -8.3940 C   0  0  2  0  0  0  0  0  0  0  0  0
   10.0160    5.8330   -7.8740 C   0  0  0  0  0  0  0  0  0  0  0  0
    8.7480    5.5900   -8.7610 C   0  0  0  0  0  0  0  0  0  0  0  0
    8.8130    4.8470  -10.1160 C   0  0  0  0  0  0  0  0  0  0  0  0
    9.2160    5.6080  -11.3590 N   0  0  0  0  0  0  0  0  0  0  0  0
    8.4840    5.9940  -12.7140 C   0  0  0  0  0  0  0  0  0  0  0  0
    7.6440    7.0440  -12.6680 C   0  0  0  0  0  0  0  0  0  0  0  0
    6.2300    7.1070  -13.1530 C   0  0  0  0  0  0  0  0  0  0  0  0
    5.9930    6.6310  -14.4860 C   0  0  0  0  0  0  0  0  0  0  0  0
    7.2300    5.9670  -14.8550 C   0  0  0  0  0  0  0  0  0  0  0  0
    8.2300    5.5610  -13.6730 C   0  0  0  0  0  0  0  0  0  0  0  0
   10.3710    6.5770  -11.1280 C   0  0  0  0  0  0  0  0  0  0  0  0
   11.0220    7.0270  -12.0060 O   0  0  0  0  0  0  0  0  0  0  0  0
   10.3420    7.4310   -9.8870 C   0  0  0  0  0  0  0  0  0  0  0  0
   11.3140    7.7550   -5.3890 C   0  0  0  0  0  0  0  0  0  0  0  0
   11.9350    8.3100   -4.2820 C   0  0  1  0  0  0  0  0  0  0  0  0
   12.1180    9.1970   -3.1650 C   0  0  0  0  0  0  0  0  0  0  0  0
   12.6860    8.1000   -3.0810 C   0  0  1  0  0  0  0  0  0  0  0  0
   12.0470    6.9090   -2.9680 C   0  0  0  0  0  0  0  0  0  0  0  0
   11.6804   10.2928   -5.6122 H   0  0  0  0  0  0  0  0  0  0  0  0
   12.5793   10.2985   -7.1673 H   0  0  0  0  0  0  0  0  0  0  0  0
   10.7842   10.3637   -7.1673 H   0  0  0  0  0  0  0  0  0  0  0  0
   10.5483    8.5383   -6.9588 H   0  0  0  0  0  0  0  0  0  0  0  0
   12.2988    8.4453   -8.6193 H   0  0  0  0  0  0  0  0  0  0  0  0
   12.5797    6.9588   -7.6143 H   0  0  0  0  0  0  0  0  0  0  0  0
   10.2638    7.8785   -7.6768 H   0  0  0  0  0  0  0  0  0  0  0  0
   10.7122    4.9871   -7.9724 H   0  0  0  0  0  0  0  0  0  0  0  0
    9.7385    5.9238   -6.8135 H   0  0  0  0  0  0  0  0  0  0  0  0
    8.0414    5.0244   -8.1358 H   0  0  0  0  0  0  0  0  0  0  0  0
    8.4932    6.6127   -9.0760 H   0  0  0  0  0  0  0  0  0  0  0  0
    9.5327    4.0238   -9.9963 H   0  0  0  0  0  0  0  0  0  0  0  0
    7.7670    4.5670  -10.3098 H   0  0  0  0  0  0  0  0  0  0  0  0
    8.0444    7.9657  -12.2206 H   0  0  0  0  0  0  0  0  0  0  0  0
    5.6137    6.5061  -12.4681 H   0  0  0  0  0  0  0  0  0  0  0  0
    5.9746    8.1767  -13.1739 H   0  0  0  0  0  0  0  0  0  0  0  0
    5.1509    5.9235  -14.5032 H   0  0  0  0  0  0  0  0  0  0  0  0
    5.7277    7.4415  -15.1807 H   0  0  0  0  0  0  0  0  0  0  0  0
    6.9620    5.0449  -15.3916 H   0  0  0  0  0  0  0  0  0  0  0  0
    7.7825    6.7113  -15.4472 H   0  0  0  0  0  0  0  0  0  0  0  0
    7.8959    4.5478  -13.4050 H   0  0  0  0  0  0  0  0  0  0  0  0
    9.1384    5.9111  -14.1851 H   0  0  0  0  0  0  0  0  0  0  0  0
   10.9813    8.2847  -10.1561 H   0  0  0  0  0  0  0  0  0  0  0  0
    9.2529    7.3747   -9.7429 H   0  0  0  0  0  0  0  0  0  0  0  0
   10.2268    7.7719   -5.2227 H   0  0  0  0  0  0  0  0  0  0  0  0
   11.7046    6.7326   -5.4992 H   0  0  0  0  0  0  0  0  0  0  0  0
   11.6699    8.2194   -5.3457 H   0  0  0  0  0  0  0  0  0  0  0  0
   12.7221   10.1072   -3.2941 H   0  0  0  0  0  0  0  0  0  0  0  0
   11.4179    9.7339   -2.5081 H   0  0  0  0  0  0  0  0  0  0  0  0
   13.6392    7.9987   -2.5414 H   0  0  0  0  0  0  0  0  0  0  0  0
   11.9151    6.6632   -1.9040 H   0  0  0  0  0  0  0  0  0  0  0  0
   11.0624    6.9736   -3.4542 H   0  0  0  0  0  0  0  0  0  0  0  0
   12.6453    6.1243   -3.4542 H   0  0  0  0  0  0  0  0  0  0  0  0
  1  2  1  0
  2  3  1  0
  3  4  1  0
  4  5  1  0
  5  6  1  0
  6  7  1  0
  7  8  1  0
  8  9  1  0
  9 10  2  0
 10 11  1  0
 11 12  1  0
 12 13  1  0
 13 14  1  0
  8 15  1  0
 15 16  2  0
 15 17  1  0
  2 18  1  0
 18 19  1  0
 19 20  1  0
 20 21  1  0
 21 22  1  0
 17  4  1  0
 21 19  1  0
 14  9  1  0
  1 23  1  0
  1 24  1  0
  1 25  1  0
  2 26  1  6
  3 27  1  0
  3 28  1  0
  4 29  1  1
  5 30  1  0
  5 31  1  0
  6 32  1  0
  6 33  1  0
  7 34  1  0
  7 35  1  0
 10 36  1  0
 11 37  1  0
 11 38  1  0
 12 39  1  0
 12 40  1  0
 13 41  1  0
 13 42  1  0
 14 43  1  0
 14 44  1  0
 17 45  1  0
 17 46  1  0
 18 47  1  0
 18 48  1  0
 19 49  1  6
 20 50  1  0
 20 51  1  0
 21 52  1  6
 22 53  1  0
 22 54  1  0
 22 55  1  0
M  END
>  <ID>  (32) 
DiffSBDD_38_0

>  <docking_score>  (32) 
-9.494

$$$$
DiffSBDD_39
     RDKit          3D

 69 72  0  0  0  0  0  0  0  0999 V2000
   11.5460    6.2590   -4.7190 O   0  0  0  0  0  0  0  0  0  0  0  0
   11.5180    7.1700   -3.8890 C   0  0  0  0  0  0  0  0  0  0  0  0
   11.4830    8.5380   -4.3510 C   0  0  2  0  0  0  0  0  0  0  0  0
   11.2860    8.8620   -5.6080 C   0  0  0  0  0  0  0  0  0  0  0  0
   10.3230    8.2310   -6.4990 C   0  0  0  0  0  0  0  0  0  0  0  0
   11.0060    7.3280   -7.4710 N   0  0  2  0  0  0  0  0  0  0  0  0
   11.6240    8.3030   -8.3770 C   0  0  0  0  0  0  0  0  0  0  0  0
   11.4580    8.0560   -9.8350 C   0  0  0  0  0  0  0  0  0  0  0  0
   10.3300    7.1420  -10.1990 C   0  0  1  0  0  0  0  0  0  0  0  0
   10.3250    7.0180  -11.5330 C   0  0  0  0  0  0  0  0  0  0  0  0
    8.9390    6.1000  -11.9780 C   0  0  2  0  0  0  0  0  0  0  0  0
    8.3160    6.9970  -12.5520 O   0  0  0  0  0  0  0  0  0  0  0  0
    8.0480    5.5060  -11.0840 N   0  0  1  0  0  0  0  0  0  0  0  0
    7.1760    4.6140  -12.0890 C   0  0  2  0  0  0  0  0  0  0  0  0
    5.9080    4.9570  -11.8300 C   0  0  0  0  0  0  0  0  0  0  0  0
    4.9240    4.0730  -12.4970 C   0  0  0  0  0  0  0  0  0  0  0  0
    5.6610    3.3530  -13.6110 C   0  0  0  0  0  0  0  0  0  0  0  0
    6.9820    2.7670  -13.4500 C   0  0  2  0  0  0  0  0  0  0  0  0
    7.3010    1.4500  -14.0400 C   0  0  0  0  0  0  0  0  0  0  0  0
    7.8130    0.5210  -13.1640 O   0  0  0  0  0  0  0  0  0  0  0  0
    7.5820    3.1610  -12.1770 C   0  0  0  0  0  0  0  0  0  0  0  0
    8.3750    5.5140   -9.5640 C   0  0  0  0  0  0  0  0  0  0  0  0
    9.6280    6.2030   -9.2620 C   0  0  2  0  0  0  0  0  0  0  0  0
   10.1870    6.1740   -7.8940 C   0  0  0  0  0  0  0  0  0  0  0  0
   12.0470    9.5100   -3.3310 C   0  0  1  0  0  0  0  0  0  0  0  0
   11.6020   10.7040   -3.8170 O   0  0  0  0  0  0  0  0  0  0  0  0
   11.9410    9.3640   -1.8830 O   0  0  0  0  0  0  0  0  0  0  0  0
   12.4160    8.1360   -1.4440 C   0  0  0  0  0  0  0  0  0  0  0  0
   11.9500    6.9410   -2.4720 C   0  0  0  0  0  0  0  0  0  0  0  0
   13.1800    6.1350   -2.3260 F   0  0  0  0  0  0  0  0  0  0  0  0
   10.8960    6.4590   -1.7900 F   0  0  0  0  0  0  0  0  0  0  0  0
   10.4241    8.7961   -4.4999 H   0  0  0  0  0  0  0  0  0  0  0  0
   11.0166    9.9284   -5.5955 H   0  0  0  0  0  0  0  0  0  0  0  0
   12.2262    8.5024   -6.0514 H   0  0  0  0  0  0  0  0  0  0  0  0
    9.6110    7.6433   -5.9010 H   0  0  0  0  0  0  0  0  0  0  0  0
    9.7974    9.0173   -7.0606 H   0  0  0  0  0  0  0  0  0  0  0  0
   11.7610    6.7050   -7.1490 H   0  0  0  0  0  0  0  0  0  0  0  0
   11.1891    9.2884   -8.1538 H   0  0  0  0  0  0  0  0  0  0  0  0
   12.7055    8.2268   -8.1912 H   0  0  0  0  0  0  0  0  0  0  0  0
   11.2846    9.0243  -10.3272 H   0  0  0  0  0  0  0  0  0  0  0  0
   12.3787    7.5545  -10.1679 H   0  0  0  0  0  0  0  0  0  0  0  0
    9.3839    7.5026   -9.7692 H   0  0  0  0  0  0  0  0  0  0  0  0
   10.2792    8.0129  -12.0000 H   0  0  0  0  0  0  0  0  0  0  0  0
   11.2418    6.5140  -11.8728 H   0  0  0  0  0  0  0  0  0  0  0  0
    9.3112    5.1817  -12.4557 H   0  0  0  0  0  0  0  0  0  0  0  0
    8.4620    7.8540  -12.0800 H   0  0  0  0  0  0  0  0  0  0  0  0
    7.3340    5.8020  -10.4030 H   0  0  0  0  0  0  0  0  0  0  0  0
    7.3630    4.8211  -13.1530 H   0  0  0  0  0  0  0  0  0  0  0  0
    5.7456    4.9060  -10.7433 H   0  0  0  0  0  0  0  0  0  0  0  0
    5.7551    5.9743  -12.2195 H   0  0  0  0  0  0  0  0  0  0  0  0
    4.5214    3.3447  -11.7776 H   0  0  0  0  0  0  0  0  0  0  0  0
    4.0796    4.6545  -12.8956 H   0  0  0  0  0  0  0  0  0  0  0  0
    5.0026    2.5293  -13.9240 H   0  0  0  0  0  0  0  0  0  0  0  0
    5.8767    4.1841  -14.2985 H   0  0  0  0  0  0  0  0  0  0  0  0
    7.5932    3.2404  -14.2325 H   0  0  0  0  0  0  0  0  0  0  0  0
    6.3765    1.0377  -14.4703 H   0  0  0  0  0  0  0  0  0  0  0  0
    8.0903    1.6335  -14.7838 H   0  0  0  0  0  0  0  0  0  0  0  0
    8.5530    0.0270  -13.6000 H   0  0  0  0  0  0  0  0  0  0  0  0
    7.1697    2.5773  -11.3408 H   0  0  0  0  0  0  0  0  0  0  0  0
    8.6680    2.9949  -12.1228 H   0  0  0  0  0  0  0  0  0  0  0  0
    7.5571    6.0203   -9.0304 H   0  0  0  0  0  0  0  0  0  0  0  0
    8.4839    4.4681   -9.2413 H   0  0  0  0  0  0  0  0  0  0  0  0
    9.7042    5.3051   -9.8928 H   0  0  0  0  0  0  0  0  0  0  0  0
    9.3424    6.0942   -7.1938 H   0  0  0  0  0  0  0  0  0  0  0  0
   10.8804    5.3201   -7.8910 H   0  0  0  0  0  0  0  0  0  0  0  0
   13.1293    9.3204   -3.2803 H   0  0  0  0  0  0  0  0  0  0  0  0
   10.8810   11.0490   -3.2350 H   0  0  0  0  0  0  0  0  0  0  0  0
   13.5146    8.1674   -1.3989 H   0  0  0  0  0  0  0  0  0  0  0  0
   12.0026    7.9295   -0.4458 H   0  0  0  0  0  0  0  0  0  0  0  0
  1  2  2  0
  2  3  1  0
  3  4  1  0
  4  5  1  0
  5  6  1  0
  6  7  1  0
  7  8  1  0
  8  9  1  0
  9 10  1  0
 10 11  1  0
 11 12  1  0
 11 13  1  0
 13 14  1  0
 14 15  1  0
 15 16  1  0
 16 17  1  0
 17 18  1  0
 18 19  1  0
 19 20  1  0
 18 21  1  0
 13 22  1  0
 22 23  1  0
 23 24  1  0
  3 25  1  0
 25 26  1  0
 25 27  1  0
 27 28  1  0
 28 29  1  0
 29 30  1  0
 29 31  1  0
 29  2  1  0
 24  6  1  0
 23  9  1  0
 21 14  1  0
  3 32  1  1
  4 33  1  0
  4 34  1  0
  5 35  1  0
  5 36  1  0
  6 37  1  1
  7 38  1  0
  7 39  1  0
  8 40  1  0
  8 41  1  0
  9 42  1  6
 10 43  1  0
 10 44  1  0
 11 45  1  6
 12 46  1  0
 13 47  1  1
 14 48  1  6
 15 49  1  0
 15 50  1  0
 16 51  1  0
 16 52  1  0
 17 53  1  0
 17 54  1  0
 18 55  1  6
 19 56  1  0
 19 57  1  0
 20 58  1  0
 21 59  1  0
 21 60  1  0
 22 61  1  0
 22 62  1  0
 23 63  1  6
 24 64  1  0
 24 65  1  0
 25 66  1  1
 26 67  1  0
 28 68  1  0
 28 69  1  0
M  CHG  2   6   1  13   1
M  END
>  <ID>  (33) 
DiffSBDD_39_0

>  <docking_score>  (33) 
-10.505

$$$$
DiffSBDD_3
     RDKit          3D

 26 26  0  0  0  0  0  0  0  0999 V2000
   10.9580    6.8720  -12.0300 C   0  0  0  0  0  0  0  0  0  0  0  0
    9.9610    7.3450  -11.0570 C   0  0  0  0  0  0  0  0  0  0  0  0
   10.0710    8.1050   -9.6560 C   0  0  0  0  0  0  0  0  0  0  0  0
   11.6760    8.2420   -9.4260 C   0  0  0  0  0  0  0  0  0  0  0  0
   11.8540    8.3770   -7.9620 N   0  0  0  0  0  0  0  0  0  0  0  0
   11.0800    7.6710   -7.0630 C   0  0  0  0  0  0  0  0  0  0  0  0
   11.4540    7.8250   -5.5700 C   0  0  0  0  0  0  0  0  0  0  0  0
   11.3370    6.6440   -4.6570 C   0  0  0  0  0  0  0  0  0  0  0  0
   11.7890    6.8400   -3.3400 C   0  0  0  0  0  0  0  0  0  0  0  0
   12.2910    8.0670   -2.8620 C   0  0  0  0  0  0  0  0  0  0  0  0
   12.8950    8.2600   -1.2470 Cl  0  0  0  0  0  0  0  0  0  0  0  0
   12.3840    9.1820   -3.7560 N   0  0  0  0  0  0  0  0  0  0  0  0
   11.9100    9.0490   -5.1430 C   0  0  0  0  0  0  0  0  0  0  0  0
   11.8262    6.4601  -11.4946 H   0  0  0  0  0  0  0  0  0  0  0  0
   10.5117    6.0897  -12.6614 H   0  0  0  0  0  0  0  0  0  0  0  0
   11.2816    7.7126  -12.6614 H   0  0  0  0  0  0  0  0  0  0  0  0
    9.3222    8.0114  -11.6552 H   0  0  0  0  0  0  0  0  0  0  0  0
    9.7450    6.3548  -10.6293 H   0  0  0  0  0  0  0  0  0  0  0  0
    9.5948    9.0953   -9.7070 H   0  0  0  0  0  0  0  0  0  0  0  0
    9.5639    7.5726   -8.8378 H   0  0  0  0  0  0  0  0  0  0  0  0
   12.1956    7.3457   -9.7957 H   0  0  0  0  0  0  0  0  0  0  0  0
   12.0950    9.1015   -9.9698 H   0  0  0  0  0  0  0  0  0  0  0  0
   10.2444    7.0348   -7.3900 H   0  0  0  0  0  0  0  0  0  0  0  0
   10.9231    5.6827   -4.9955 H   0  0  0  0  0  0  0  0  0  0  0  0
   11.7485    5.9887   -2.6445 H   0  0  0  0  0  0  0  0  0  0  0  0
   11.9205    9.9124   -5.8245 H   0  0  0  0  0  0  0  0  0  0  0  0
  1  2  1  0
  2  3  1  0
  3  4  1  0
  4  5  1  0
  5  6  2  3
  6  7  1  0
  7  8  2  0
  8  9  1  0
  9 10  2  0
 10 11  1  0
 10 12  1  0
 12 13  2  0
 13  7  1  0
  1 14  1  0
  1 15  1  0
  1 16  1  0
  2 17  1  0
  2 18  1  0
  3 19  1  0
  3 20  1  0
  4 21  1  0
  4 22  1  0
  6 23  1  0
  8 24  1  0
  9 25  1  0
 13 26  1  0
M  END
>  <ID>  (34) 
DiffSBDD_3_0

>  <docking_score>  (34) 
-6.663

$$$$
DiffSBDD_40
     RDKit          3D

 74 76  0  0  0  0  0  0  0  0999 V2000
    7.8630    5.0800  -10.2730 C   0  0  0  0  0  0  0  0  0  0  0  0
    9.1570    5.7080  -10.0100 C   0  0  2  0  0  0  0  0  0  0  0  0
    9.8030    6.0620   -8.6410 C   0  0  0  0  0  0  0  0  0  0  0  0
    9.8070    7.5450   -8.2680 C   0  0  0  0  0  0  0  0  0  0  0  0
   11.2450    8.0870   -8.3430 C   0  0  0  0  0  0  0  0  0  0  0  0
   11.8040    8.7810   -7.5860 C   0  0  0  0  0  0  0  0  0  0  0  0
   11.7750    9.9770   -6.3340 S   0  0  0  0  0  0  0  0  0  0  0  0
   11.7440    9.0630   -5.2260 C   0  0  0  0  0  0  0  0  0  0  0  0
   11.9020    9.4430   -4.1210 C   0  0  0  0  0  0  0  0  0  0  0  0
   12.1450    8.8910   -2.8170 C   0  0  2  0  0  0  0  0  0  0  0  0
   12.4230    9.8090   -1.5480 F   0  0  0  0  0  0  0  0  0  0  0  0
   12.0670    7.5890   -2.5780 C   0  0  0  0  0  0  0  0  0  0  0  0
   12.5430    7.3920   -1.4330 F   0  0  0  0  0  0  0  0  0  0  0  0
   11.6750    6.5820   -3.2030 C   0  0  0  0  0  0  0  0  0  0  0  0
   11.3450    6.4910   -4.6340 C   0  0  0  0  0  0  0  0  0  0  0  0
   11.5820    7.4760   -5.4290 C   0  0  0  0  0  0  0  0  0  0  0  0
   11.3100    7.8560   -9.8750 C   0  0  0  0  0  0  0  0  0  0  0  0
   10.6710    7.3450  -10.8830 C   0  0  0  0  0  0  0  0  0  0  0  0
    9.3570    6.8400  -10.8360 C   0  0  1  0  0  0  0  0  0  0  0  0
    8.5300    6.6840  -11.8040 C   0  0  0  0  0  0  0  0  0  0  0  0
    8.0590    5.8990  -13.0560 C   0  0  0  0  0  0  0  0  0  0  0  0
    6.7920    6.2010  -13.7850 C   0  0  0  0  0  0  0  0  0  0  0  0
    5.9330    6.5440  -14.8810 C   0  0  0  0  0  0  0  0  0  0  0  0
    6.2580    6.5950  -16.5970 C   0  0  2  0  0  0  0  0  0  0  0  0
    4.6350    7.0280  -16.7810 C   0  0  0  0  0  0  0  0  0  0  0  0
    6.5310    5.8580  -17.3020 C   0  0  1  0  0  0  0  0  0  0  0  0
    6.3930    6.6060  -18.5160 C   0  0  0  0  0  0  0  0  0  0  0  0
    5.9020    5.9600  -19.7090 C   0  0  0  0  0  0  0  0  0  0  0  0
    5.8780    4.3070  -19.7960 C   0  0  2  0  0  0  0  0  0  0  0  0
    4.7700    3.9670  -20.6810 C   0  0  0  0  0  0  0  0  0  0  0  0
    6.6610    3.4920  -18.8330 C   0  0  1  0  0  0  0  0  0  0  0  0
    7.4210    2.1420  -18.9510 C   0  0  0  0  0  0  0  0  0  0  0  0
    8.1630    1.8150  -19.7980 O   0  0  0  0  0  0  0  0  0  0  0  0
    7.0460    0.8800  -17.9020 O   0  0  0  0  0  0  0  0  0  0  0  0
    7.2500    4.3910  -17.4200 C   0  0  0  0  0  0  0  0  0  0  0  0
    7.3707    4.8411   -9.3188 H   0  0  0  0  0  0  0  0  0  0  0  0
    7.2303    5.7713  -10.8490 H   0  0  0  0  0  0  0  0  0  0  0  0
    8.0146    4.1552  -10.8490 H   0  0  0  0  0  0  0  0  0  0  0  0
    9.6786    4.7576  -10.1963 H   0  0  0  0  0  0  0  0  0  0  0  0
    9.2529    5.5191   -7.8583 H   0  0  0  0  0  0  0  0  0  0  0  0
   10.8611    5.7740   -8.7278 H   0  0  0  0  0  0  0  0  0  0  0  0
    9.1680    8.1015   -8.9694 H   0  0  0  0  0  0  0  0  0  0  0  0
    9.4210    7.6677   -7.2453 H   0  0  0  0  0  0  0  0  0  0  0  0
   12.3875    8.0107   -7.0605 H   0  0  0  0  0  0  0  0  0  0  0  0
   11.7562    9.5909   -8.3288 H   0  0  0  0  0  0  0  0  0  0  0  0
   11.8474   10.5407   -4.0752 H   0  0  0  0  0  0  0  0  0  0  0  0
   11.0665    8.9218   -2.6030 H   0  0  0  0  0  0  0  0  0  0  0  0
   11.5636    5.6576   -2.6173 H   0  0  0  0  0  0  0  0  0  0  0  0
   10.8905    5.5707   -5.0294 H   0  0  0  0  0  0  0  0  0  0  0  0
   11.6994    7.1631   -6.4770 H   0  0  0  0  0  0  0  0  0  0  0  0
   12.2509    8.2870  -10.2477 H   0  0  0  0  0  0  0  0  0  0  0  0
   10.6545    8.1336  -11.6497 H   0  0  0  0  0  0  0  0  0  0  0  0
   11.2364    6.4119  -11.0230 H   0  0  0  0  0  0  0  0  0  0  0  0
    9.0949    7.8441  -10.4711 H   0  0  0  0  0  0  0  0  0  0  0  0
    7.6001    6.6325  -11.2186 H   0  0  0  0  0  0  0  0  0  0  0  0
    9.2075    7.2635  -12.4483 H   0  0  0  0  0  0  0  0  0  0  0  0
    8.6908    5.0779  -13.4255 H   0  0  0  0  0  0  0  0  0  0  0  0
    4.9066    6.8186  -14.5961 H   0  0  0  0  0  0  0  0  0  0  0  0
    7.2101    7.1000  -16.8173 H   0  0  0  0  0  0  0  0  0  0  0  0
    4.1737    7.1511  -15.7900 H   0  0  0  0  0  0  0  0  0  0  0  0
    4.5689    7.9752  -17.3364 H   0  0  0  0  0  0  0  0  0  0  0  0
    4.1059    6.2396  -17.3364 H   0  0  0  0  0  0  0  0  0  0  0  0
    6.3105    5.0064  -16.6416 H   0  0  0  0  0  0  0  0  0  0  0  0
    5.7068    7.4382  -18.3001 H   0  0  0  0  0  0  0  0  0  0  0  0
    7.4311    6.8612  -18.7754 H   0  0  0  0  0  0  0  0  0  0  0  0
    4.8666    6.3021  -19.8539 H   0  0  0  0  0  0  0  0  0  0  0  0
    6.6366    6.2462  -20.4761 H   0  0  0  0  0  0  0  0  0  0  0  0
    6.6242    3.5660  -20.1186 H   0  0  0  0  0  0  0  0  0  0  0  0
    3.8897    3.6969  -20.0793 H   0  0  0  0  0  0  0  0  0  0  0  0
    4.5288    4.8325  -21.3157 H   0  0  0  0  0  0  0  0  0  0  0  0
    5.0557    3.1152  -21.3157 H   0  0  0  0  0  0  0  0  0  0  0  0
    5.7513    2.9145  -19.0543 H   0  0  0  0  0  0  0  0  0  0  0  0
    7.0319    3.8115  -16.5108 H   0  0  0  0  0  0  0  0  0  0  0  0
    8.3331    4.5448  -17.5347 H   0  0  0  0  0  0  0  0  0  0  0  0
  1  2  1  0
  2  3  1  0
  3  4  1  0
  4  5  1  0
  5  6  1  0
  6  7  1  0
  7  8  1  0
  8  9  2  0
  9 10  1  0
 10 11  1  0
 10 12  1  0
 12 13  1  0
 12 14  2  0
 14 15  1  0
 15 16  2  0
  5 17  2  0
 17 18  1  0
 18 19  1  0
 19 20  1  0
 20 21  1  0
 21 22  2  0
 22 23  2  0
 23 24  1  0
 24 25  1  0
 24 26  1  0
 26 27  1  0
 27 28  1  0
 28 29  1  0
 29 30  1  0
 29 31  1  0
 31 32  1  0
 32 33  2  0
 32 34  1  0
 31 35  1  0
 19  2  1  0
 35 26  1  0
 16  8  1  0
  1 36  1  0
  1 37  1  0
  1 38  1  0
  2 39  1  6
  3 40  1  0
  3 41  1  0
  4 42  1  0
  4 43  1  0
  6 44  1  0
  6 45  1  0
  9 46  1  0
 10 47  1  6
 14 48  1  0
 15 49  1  0
 16 50  1  0
 17 51  1  0
 18 52  1  0
 18 53  1  0
 19 54  1  1
 20 55  1  0
 20 56  1  0
 21 57  1  0
 23 58  1  0
 24 59  1  1
 25 60  1  0
 25 61  1  0
 25 62  1  0
 26 63  1  6
 27 64  1  0
 27 65  1  0
 28 66  1  0
 28 67  1  0
 29 68  1  6
 30 69  1  0
 30 70  1  0
 30 71  1  0
 31 72  1  1
 35 73  1  0
 35 74  1  0
M  CHG  1  34  -1
M  END
>  <ID>  (35) 
DiffSBDD_40_0

>  <docking_score>  (35) 
-11.993

$$$$
DiffSBDD_41
     RDKit          3D

 77 81  0  0  0  0  0  0  0  0999 V2000
    7.5760    0.7430  -14.7210 C   0  0  0  0  0  0  0  0  0  0  0  0
    7.8130    1.0550  -16.1940 C   0  0  0  0  0  0  0  0  0  0  0  0
    6.8360    2.1510  -16.7890 C   0  0  2  0  0  0  0  0  0  0  0  0
    6.0380    1.4860  -17.8950 C   0  0  2  0  0  0  0  0  0  0  0  0
    6.2670   -0.0270  -18.0220 C   0  0  1  0  0  0  0  0  0  0  0  0
    7.4000   -0.4400  -18.9730 C   0  0  0  0  0  0  0  0  0  0  0  0
    4.9930   -0.5560  -18.7540 C   0  0  0  0  0  0  0  0  0  0  0  0
    5.0800   -0.8890  -17.3260 C   0  0  0  0  0  0  0  0  0  0  0  0
    4.4310   -0.2240  -16.1040 C   0  0  0  0  0  0  0  0  0  0  0  0
    5.6380   -2.2750  -16.9610 C   0  0  0  0  0  0  0  0  0  0  0  0
    6.0720    2.5420  -19.0950 C   0  0  0  0  0  0  0  0  0  0  0  0
    6.7170    3.9130  -18.7050 C   0  0  0  0  0  0  0  0  0  0  0  0
    7.5140    3.5260  -17.2740 C   0  0  2  0  0  0  0  0  0  0  0  0
    9.0680    3.1240  -17.3620 C   0  0  0  0  0  0  0  0  0  0  0  0
    7.3510    4.8050  -16.2780 C   0  0  0  0  0  0  0  0  0  0  0  0
    7.0560    4.7140  -14.8120 C   0  0  1  0  0  0  0  0  0  0  0  0
    8.2580    4.5390  -13.8690 C   0  0  0  0  0  0  0  0  0  0  0  0
    8.2720    5.2260  -12.5540 C   0  0  0  0  0  0  0  0  0  0  0  0
    7.8560    6.3510  -12.2150 C   0  0  1  0  0  0  0  0  0  0  0  0
    9.1870    6.6100  -11.3030 N   0  0  0  0  0  0  0  0  0  0  0  0
   10.4110    6.6160  -12.1270 C   0  0  0  0  0  0  0  0  0  0  0  0
   11.5360    6.9800  -11.7570 O   0  0  0  0  0  0  0  0  0  0  0  0
    9.4260    6.5820   -9.8710 C   0  0  0  0  0  0  0  0  0  0  0  0
    9.7440    5.4860   -9.1190 C   0  0  0  0  0  0  0  0  0  0  0  0
    9.8100    5.6160   -7.7710 C   0  0  0  0  0  0  0  0  0  0  0  0
    9.5820    6.9450   -7.2150 C   0  0  0  0  0  0  0  0  0  0  0  0
    9.3320    8.0460   -7.9800 C   0  0  0  0  0  0  0  0  0  0  0  0
    9.3790    7.8810   -9.3380 C   0  0  0  0  0  0  0  0  0  0  0  0
    9.5520    8.8320  -10.4220 F   0  0  0  0  0  0  0  0  0  0  0  0
    6.8060    7.3600  -12.8780 C   0  0  0  0  0  0  0  0  0  0  0  0
    6.6330    6.7850  -14.2090 C   0  0  2  0  0  0  0  0  0  0  0  0
    5.8160    6.7530  -15.4420 C   0  0  0  0  0  0  0  0  0  0  0  0
    5.8910    5.4680  -14.1440 C   0  0  1  0  0  0  0  0  0  0  0  0
    8.1252    1.4660  -14.1001 H   0  0  0  0  0  0  0  0  0  0  0  0
    6.5007    0.8122  -14.4999 H   0  0  0  0  0  0  0  0  0  0  0  0
    7.9311   -0.2744  -14.4999 H   0  0  0  0  0  0  0  0  0  0  0  0
    8.8462    1.4145  -16.3089 H   0  0  0  0  0  0  0  0  0  0  0  0
    7.6221    0.1250  -16.7496 H   0  0  0  0  0  0  0  0  0  0  0  0
    6.1925    2.4963  -15.9664 H   0  0  0  0  0  0  0  0  0  0  0  0
    4.9640    1.3111  -17.7341 H   0  0  0  0  0  0  0  0  0  0  0  0
    8.2739   -0.7585  -18.3857 H   0  0  0  0  0  0  0  0  0  0  0  0
    7.0612   -1.2725  -19.6072 H   0  0  0  0  0  0  0  0  0  0  0  0
    7.6764    0.4152  -19.6072 H   0  0  0  0  0  0  0  0  0  0  0  0
    4.2314    0.1621  -19.0920 H   0  0  0  0  0  0  0  0  0  0  0  0
    4.8474   -1.1658  -19.6578 H   0  0  0  0  0  0  0  0  0  0  0  0
    4.8526   -0.6560  -15.1844 H   0  0  0  0  0  0  0  0  0  0  0  0
    4.6305    0.8575  -16.1260 H   0  0  0  0  0  0  0  0  0  0  0  0
    3.3449   -0.3971  -16.1260 H   0  0  0  0  0  0  0  0  0  0  0  0
    5.6791   -2.3771  -15.8665 H   0  0  0  0  0  0  0  0  0  0  0  0
    4.9838   -3.0550  -17.3777 H   0  0  0  0  0  0  0  0  0  0  0  0
    6.6501   -2.3841  -17.3777 H   0  0  0  0  0  0  0  0  0  0  0  0
    6.6513    2.1083  -19.9235 H   0  0  0  0  0  0  0  0  0  0  0  0
    5.0280    2.7450  -19.3756 H   0  0  0  0  0  0  0  0  0  0  0  0
    7.4225    4.2570  -19.4756 H   0  0  0  0  0  0  0  0  0  0  0  0
    5.9909    4.7329  -18.6021 H   0  0  0  0  0  0  0  0  0  0  0  0
    9.4774    3.0181  -16.3465 H   0  0  0  0  0  0  0  0  0  0  0  0
    9.1700    2.1699  -17.8998 H   0  0  0  0  0  0  0  0  0  0  0  0
    9.6199    3.9089  -17.8998 H   0  0  0  0  0  0  0  0  0  0  0  0
    8.2978    5.3598  -16.3539 H   0  0  0  0  0  0  0  0  0  0  0  0
    6.4050    5.2278  -16.6473 H   0  0  0  0  0  0  0  0  0  0  0  0
    6.5619    3.7431  -14.9642 H   0  0  0  0  0  0  0  0  0  0  0  0
    8.3489    3.4617  -13.6661 H   0  0  0  0  0  0  0  0  0  0  0  0
    9.0823    5.0202  -14.4159 H   0  0  0  0  0  0  0  0  0  0  0  0
    7.7328    4.5346  -11.8898 H   0  0  0  0  0  0  0  0  0  0  0  0
    9.3447    5.4693  -12.5405 H   0  0  0  0  0  0  0  0  0  0  0  0
    6.8171    6.5906  -11.9442 H   0  0  0  0  0  0  0  0  0  0  0  0
   10.3159    6.2651  -13.1652 H   0  0  0  0  0  0  0  0  0  0  0  0
    9.9428    4.5162   -9.5986 H   0  0  0  0  0  0  0  0  0  0  0  0
   10.0267    4.7540   -7.1229 H   0  0  0  0  0  0  0  0  0  0  0  0
    9.6133    7.0655   -6.1221 H   0  0  0  0  0  0  0  0  0  0  0  0
    9.1031    9.0217   -7.5266 H   0  0  0  0  0  0  0  0  0  0  0  0
    5.8573    7.3725  -12.3214 H   0  0  0  0  0  0  0  0  0  0  0  0
    7.1418    8.4075  -12.8871 H   0  0  0  0  0  0  0  0  0  0  0  0
    7.5949    7.3036  -14.3350 H   0  0  0  0  0  0  0  0  0  0  0  0
    4.9309    7.3965  -15.5536 H   0  0  0  0  0  0  0  0  0  0  0  0
    5.9752    6.8255  -16.5280 H   0  0  0  0  0  0  0  0  0  0  0  0
    5.2308    4.8746  -13.4943 H   0  0  0  0  0  0  0  0  0  0  0  0
  1  2  1  0
  2  3  1  0
  3  4  1  0
  4  5  1  0
  5  6  1  6
  5  7  1  0
  7  8  1  0
  8  9  1  0
  8 10  1  0
  4 11  1  0
 11 12  1  0
 12 13  1  0
 13 14  1  6
 13 15  1  0
 15 16  1  0
 16 17  1  0
 17 18  1  0
 18 19  1  0
 19 20  1  0
 20 21  1  0
 21 22  2  0
 20 23  1  0
 23 24  2  0
 24 25  1  0
 25 26  2  0
 26 27  1  0
 27 28  2  0
 28 29  1  0
 19 30  1  0
 30 31  1  0
 31 32  1  0
 32 33  1  0
 13  3  1  0
 33 16  1  0
  8  5  1  0
 28 23  1  0
 33 31  1  0
  1 34  1  0
  1 35  1  0
  1 36  1  0
  2 37  1  0
  2 38  1  0
  3 39  1  1
  4 40  1  1
  6 41  1  0
  6 42  1  0
  6 43  1  0
  7 44  1  0
  7 45  1  0
  9 46  1  0
  9 47  1  0
  9 48  1  0
 10 49  1  0
 10 50  1  0
 10 51  1  0
 11 52  1  0
 11 53  1  0
 12 54  1  0
 12 55  1  0
 14 56  1  0
 14 57  1  0
 14 58  1  0
 15 59  1  0
 15 60  1  0
 16 61  1  6
 17 62  1  0
 17 63  1  0
 18 64  1  0
 18 65  1  0
 19 66  1  1
 21 67  1  0
 24 68  1  0
 25 69  1  0
 26 70  1  0
 27 71  1  0
 30 72  1  0
 30 73  1  0
 31 74  1  6
 32 75  1  0
 32 76  1  0
 33 77  1  1
M  END
>  <ID>  (36) 
DiffSBDD_41_0

>  <docking_score>  (36) 
-8.882

$$$$
DiffSBDD_42
     RDKit          3D

 64 67  0  0  0  0  0  0  0  0999 V2000
    9.4320    7.9810   -9.1330 C   0  0  0  0  0  0  0  0  0  0  0  0
    9.5360    6.6560   -9.5090 C   0  0  1  0  0  0  0  0  0  0  0  0
   10.1850    6.0620   -8.0680 C   0  0  0  0  0  0  0  0  0  0  0  0
   11.1110    6.9880   -7.2060 C   0  0  1  0  0  0  0  0  0  0  0  0
   12.0180    8.1130   -7.1730 C   0  0  0  0  0  0  0  0  0  0  0  0
   11.5700    9.0890   -6.9440 C   0  0  0  0  0  0  0  0  0  0  0  0
   11.9930    9.8980   -5.6230 C   0  0  0  0  0  0  0  0  0  0  0  0
   12.0380    8.8580   -4.5550 C   0  0  1  0  0  0  0  0  0  0  0  0
   12.4420    9.5200   -3.0900 C   0  0  0  0  0  0  0  0  0  0  0  0
   12.7610    8.3500   -2.1880 C   0  0  0  0  0  0  0  0  0  0  0  0
   11.7630    7.1550   -2.1630 C   0  0  0  0  0  0  0  0  0  0  0  0
   11.7410    6.4180   -3.4770 C   0  0  0  0  0  0  0  0  0  0  0  0
   11.4870    7.4080   -4.6070 C   0  0  1  0  0  0  0  0  0  0  0  0
   10.7610    6.8530   -5.7960 C   0  0  0  0  0  0  0  0  0  0  0  0
    9.0300    6.1620  -10.6170 N   0  0  0  0  0  0  0  0  0  0  0  0
    9.3040    5.7040  -12.3380 C   0  0  2  0  0  0  0  0  0  0  0  0
    8.4050    5.8790  -13.5780 O   0  0  0  0  0  0  0  0  0  0  0  0
    6.8930    5.8080  -14.1260 S   0  0  1  0  0  4  0  0  0  0  0  0
    6.4040    7.3560  -13.7580 C   0  0  0  0  0  0  0  0  0  0  0  0
    7.1680    5.6790  -15.5560 O   0  0  0  0  0  0  0  0  0  0  0  0
    5.2940    4.9450  -14.1080 C   0  0  0  0  0  0  0  0  0  0  0  0
    5.3990    4.3420  -12.6120 C   0  0  0  0  0  0  0  0  0  0  0  0
    6.5160    3.6430  -12.0530 C   0  0  0  0  0  0  0  0  0  0  0  0
    7.3540    4.5380  -10.9440 C   0  0  0  0  0  0  0  0  0  0  0  0
    8.8160    4.6880  -11.0890 C   0  0  2  0  0  0  0  0  0  0  0  0
    9.4265    8.0513   -8.0353 H   0  0  0  0  0  0  0  0  0  0  0  0
   10.2887    8.5437   -9.5321 H   0  0  0  0  0  0  0  0  0  0  0  0
    8.4980    8.4032   -9.5321 H   0  0  0  0  0  0  0  0  0  0  0  0
    9.7595    5.9735  -10.3422 H   0  0  0  0  0  0  0  0  0  0  0  0
    9.3375    5.7716   -7.4297 H   0  0  0  0  0  0  0  0  0  0  0  0
   10.8562    5.2550   -8.3970 H   0  0  0  0  0  0  0  0  0  0  0  0
   11.5638    6.7759   -8.1858 H   0  0  0  0  0  0  0  0  0  0  0  0
   12.7818    7.9064   -6.4088 H   0  0  0  0  0  0  0  0  0  0  0  0
   12.4141    8.2027   -8.1953 H   0  0  0  0  0  0  0  0  0  0  0  0
   11.7931    9.7449   -7.7985 H   0  0  0  0  0  0  0  0  0  0  0  0
   10.5178    8.8348   -6.7482 H   0  0  0  0  0  0  0  0  0  0  0  0
   12.9794   10.3673   -5.7522 H   0  0  0  0  0  0  0  0  0  0  0  0
   11.2940   10.7139   -5.3870 H   0  0  0  0  0  0  0  0  0  0  0  0
   12.6512    8.1539   -5.1366 H   0  0  0  0  0  0  0  0  0  0  0  0
   13.3196   10.1750   -3.1938 H   0  0  0  0  0  0  0  0  0  0  0  0
   11.6264   10.1361   -2.6835 H   0  0  0  0  0  0  0  0  0  0  0  0
   13.7387    7.9536   -2.4993 H   0  0  0  0  0  0  0  0  0  0  0  0
   12.7176    8.7665   -1.1708 H   0  0  0  0  0  0  0  0  0  0  0  0
   12.0633    6.4567   -1.3679 H   0  0  0  0  0  0  0  0  0  0  0  0
   10.7550    7.5546   -1.9777 H   0  0  0  0  0  0  0  0  0  0  0  0
   12.7093    5.9206   -3.6353 H   0  0  0  0  0  0  0  0  0  0  0  0
   10.9408    5.6633   -3.4622 H   0  0  0  0  0  0  0  0  0  0  0  0
   12.4482    7.1318   -5.0650 H   0  0  0  0  0  0  0  0  0  0  0  0
   10.7278    5.7677   -5.6201 H   0  0  0  0  0  0  0  0  0  0  0  0
    9.8834    7.5159   -5.7787 H   0  0  0  0  0  0  0  0  0  0  0  0
   10.1212    5.8923  -13.0499 H   0  0  0  0  0  0  0  0  0  0  0  0
    6.3653    7.4784  -12.6655 H   0  0  0  0  0  0  0  0  0  0  0  0
    7.1182    8.0768  -14.1827 H   0  0  0  0  0  0  0  0  0  0  0  0
    5.4053    7.5358  -14.1827 H   0  0  0  0  0  0  0  0  0  0  0  0
    8.1460    5.6610  -15.7040 H   0  0  0  0  0  0  0  0  0  0  0  0
    4.4445    5.6342  -14.2234 H   0  0  0  0  0  0  0  0  0  0  0  0
    5.1219    4.2189  -14.9162 H   0  0  0  0  0  0  0  0  0  0  0  0
    5.2366    5.2016  -11.9451 H   0  0  0  0  0  0  0  0  0  0  0  0
    4.6878    3.5076  -12.7013 H   0  0  0  0  0  0  0  0  0  0  0  0
    6.1471    2.7314  -11.5601 H   0  0  0  0  0  0  0  0  0  0  0  0
    7.2062    3.4151  -12.8787 H   0  0  0  0  0  0  0  0  0  0  0  0
    6.9249    5.5507  -10.9594 H   0  0  0  0  0  0  0  0  0  0  0  0
    7.2432    3.9653  -10.0114 H   0  0  0  0  0  0  0  0  0  0  0  0
    9.2058    3.6870  -10.8521 H   0  0  0  0  0  0  0  0  0  0  0  0
  1  2  1  0
  2  3  1  0
  3  4  1  0
  4  5  1  0
  5  6  1  0
  6  7  1  0
  7  8  1  0
  8  9  1  0
  9 10  1  0
 10 11  1  0
 11 12  1  0
 12 13  1  0
 13 14  1  0
  2 15  1  0
 15 16  1  0
 16 17  1  0
 17 18  1  0
 18 19  1  0
 18 20  1  6
 18 21  1  0
 21 22  1  0
 22 23  1  0
 23 24  1  0
 24 25  1  0
 14  4  1  0
 25 15  1  0
 13  8  1  0
 25 16  1  0
  1 26  1  0
  1 27  1  0
  1 28  1  0
  2 29  1  6
  3 30  1  0
  3 31  1  0
  4 32  1  1
  5 33  1  0
  5 34  1  0
  6 35  1  0
  6 36  1  0
  7 37  1  0
  7 38  1  0
  8 39  1  6
  9 40  1  0
  9 41  1  0
 10 42  1  0
 10 43  1  0
 11 44  1  0
 11 45  1  0
 12 46  1  0
 12 47  1  0
 13 48  1  1
 14 49  1  0
 14 50  1  0
 16 51  1  6
 19 52  1  0
 19 53  1  0
 19 54  1  0
 20 55  1  0
 21 56  1  0
 21 57  1  0
 22 58  1  0
 22 59  1  0
 23 60  1  0
 23 61  1  0
 24 62  1  0
 24 63  1  0
 25 64  1  1
M  END
>  <ID>  (37) 
DiffSBDD_42_0

>  <docking_score>  (37) 
-10.433

$$$$
DiffSBDD_43
     RDKit          3D

 78 82  0  0  0  0  0  0  0  0999 V2000
    8.3370    3.2740  -16.0990 C   0  0  0  0  0  0  0  0  0  0  0  0
    7.1830    4.3050  -15.8660 C   0  0  2  0  0  0  0  0  0  0  0  0
    6.4010    5.3920  -16.8460 C   0  0  0  0  0  0  0  0  0  0  0  0
    6.5180    6.8500  -16.5350 C   0  0  0  0  0  0  0  0  0  0  0  0
    6.2690    7.1950  -15.0240 C   0  0  0  0  0  0  0  0  0  0  0  0
    7.2790    6.4510  -14.1360 C   0  0  2  0  0  0  0  0  0  0  0  0
    7.2320    4.9040  -14.4140 C   0  0  1  0  0  0  0  0  0  0  0  0
    5.3410    4.7390  -14.0150 Cl  0  0  0  0  0  0  0  0  0  0  0  0
    8.2960    4.3920  -13.5530 O   0  0  0  0  0  0  0  0  0  0  0  0
    8.8440    5.5100  -12.6310 C   0  0  2  0  0  0  0  0  0  0  0  0
    9.9210    6.2060  -13.2180 O   0  0  0  0  0  0  0  0  0  0  0  0
    9.1150    4.5670  -11.3220 C   0  0  0  0  0  0  0  0  0  0  0  0
    9.0330    5.4180   -9.9970 N   0  0  1  0  0  0  0  0  0  0  0  0
    8.6110    4.4800   -8.8900 C   0  0  0  0  0  0  0  0  0  0  0  0
    9.8070    6.6970  -10.0180 C   0  0  0  0  0  0  0  0  0  0  0  0
    9.3870    7.0130   -8.7490 C   0  0  0  0  0  0  0  0  0  0  0  0
    9.5420    7.9420   -7.8870 N   0  0  0  0  0  0  0  0  0  0  0  0
    8.6840    8.8730   -7.8250 O   0  0  0  0  0  0  0  0  0  0  0  0
   10.6960    7.8730   -7.2990 C   0  0  2  0  0  0  0  0  0  0  0  0
   12.1480    7.7600   -7.6790 C   0  0  0  0  0  0  0  0  0  0  0  0
   10.5290    6.6270   -6.4490 C   0  0  0  0  0  0  0  0  0  0  0  0
   11.4470    6.4340   -5.3400 C   0  0  0  0  0  0  0  0  0  0  0  0
   11.9100    7.6210   -4.4880 C   0  0  1  0  0  0  0  0  0  0  0  0
   11.3830    8.8110   -5.0480 N   0  0  0  0  0  0  0  0  0  0  0  0
   10.7710    8.9150   -6.1810 C   0  0  0  0  0  0  0  0  0  0  0  0
   11.4860   10.0220   -4.3590 C   0  0  0  0  0  0  0  0  0  0  0  0
   11.1630   11.0600   -5.0790 O   0  0  0  0  0  0  0  0  0  0  0  0
   12.0080   10.1560   -3.1160 N   0  0  0  0  0  0  0  0  0  0  0  0
   12.2770    9.0220   -2.3570 C   0  0  0  0  0  0  0  0  0  0  0  0
   13.0740    9.0690   -1.2900 O   0  0  0  0  0  0  0  0  0  0  0  0
   11.8670    7.6430   -2.8740 C   0  0  0  0  0  0  0  0  0  0  0  0
   12.4470    6.3840   -2.3330 C   0  0  0  0  0  0  0  0  0  0  0  0
   11.0140    6.6720   -2.0940 C   0  0  0  0  0  0  0  0  0  0  0  0
    7.5200    6.4190  -12.5300 C   0  0  1  0  0  0  0  0  0  0  0  0
    7.7770    7.8370  -12.1520 C   0  0  0  0  0  0  0  0  0  0  0  0
    6.4540    5.9140  -11.6830 O   0  0  0  0  0  0  0  0  0  0  0  0
    8.7225    2.9296  -15.1281 H   0  0  0  0  0  0  0  0  0  0  0  0
    7.9514    2.4141  -16.6664 H   0  0  0  0  0  0  0  0  0  0  0  0
    9.1482    3.7536  -16.6664 H   0  0  0  0  0  0  0  0  0  0  0  0
    6.5475    3.4984  -16.2603 H   0  0  0  0  0  0  0  0  0  0  0  0
    6.7877    5.2460  -17.8654 H   0  0  0  0  0  0  0  0  0  0  0  0
    5.3343    5.1704  -16.6943 H   0  0  0  0  0  0  0  0  0  0  0  0
    7.5313    7.1824  -16.8047 H   0  0  0  0  0  0  0  0  0  0  0  0
    5.7387    7.3659  -17.1151 H   0  0  0  0  0  0  0  0  0  0  0  0
    6.3837    8.2788  -14.8751 H   0  0  0  0  0  0  0  0  0  0  0  0
    5.2508    6.8835  -14.7479 H   0  0  0  0  0  0  0  0  0  0  0  0
    8.0347    7.1797  -14.4645 H   0  0  0  0  0  0  0  0  0  0  0  0
   10.4200    6.6940  -12.5170 H   0  0  0  0  0  0  0  0  0  0  0  0
    8.3571    3.7705  -11.2873 H   0  0  0  0  0  0  0  0  0  0  0  0
   10.1220    4.1316  -11.4015 H   0  0  0  0  0  0  0  0  0  0  0  0
    8.3480    6.1330   -9.7130 H   0  0  0  0  0  0  0  0  0  0  0  0
    8.8203    4.9453   -7.9155 H   0  0  0  0  0  0  0  0  0  0  0  0
    7.5337    4.2745   -8.9743 H   0  0  0  0  0  0  0  0  0  0  0  0
    9.1718    3.5375   -8.9743 H   0  0  0  0  0  0  0  0  0  0  0  0
   10.8946    6.5557  -10.1027 H   0  0  0  0  0  0  0  0  0  0  0  0
    9.6498    7.4142  -10.8371 H   0  0  0  0  0  0  0  0  0  0  0  0
    8.2934    6.9981   -8.8662 H   0  0  0  0  0  0  0  0  0  0  0  0
   10.1423    6.3683   -8.2758 H   0  0  0  0  0  0  0  0  0  0  0  0
    8.0530    8.6920   -7.0840 H   0  0  0  0  0  0  0  0  0  0  0  0
   12.7628    7.7122   -6.7681 H   0  0  0  0  0  0  0  0  0  0  0  0
   12.3015    6.8472   -8.2733 H   0  0  0  0  0  0  0  0  0  0  0  0
   12.4409    8.6381   -8.2733 H   0  0  0  0  0  0  0  0  0  0  0  0
    9.5113    6.6485   -6.0321 H   0  0  0  0  0  0  0  0  0  0  0  0
   10.7446    5.7940   -7.1343 H   0  0  0  0  0  0  0  0  0  0  0  0
   10.9635    5.7243   -4.6526 H   0  0  0  0  0  0  0  0  0  0  0  0
   12.3733    6.1185   -5.8424 H   0  0  0  0  0  0  0  0  0  0  0  0
   13.0005    7.4979   -4.5634 H   0  0  0  0  0  0  0  0  0  0  0  0
    9.7229    9.1187   -5.9163 H   0  0  0  0  0  0  0  0  0  0  0  0
   11.4370    9.6418   -6.6690 H   0  0  0  0  0  0  0  0  0  0  0  0
   12.2050   11.0930   -2.7360 H   0  0  0  0  0  0  0  0  0  0  0  0
   12.7350    5.5749   -3.0204 H   0  0  0  0  0  0  0  0  0  0  0  0
   13.3040    6.1454   -1.6860 H   0  0  0  0  0  0  0  0  0  0  0  0
   10.2404    6.0824   -2.6077 H   0  0  0  0  0  0  0  0  0  0  0  0
   10.3700    6.7397   -1.2048 H   0  0  0  0  0  0  0  0  0  0  0  0
    7.7933    7.9271  -11.0558 H   0  0  0  0  0  0  0  0  0  0  0  0
    8.7475    8.1553  -12.5605 H   0  0  0  0  0  0  0  0  0  0  0  0
    6.9800    8.4756  -12.5605 H   0  0  0  0  0  0  0  0  0  0  0  0
    5.6260    5.8190  -12.2160 H   0  0  0  0  0  0  0  0  0  0  0  0
  1  2  1  0
  2  3  1  0
  3  4  1  0
  4  5  1  0
  5  6  1  0
  6  7  1  0
  7  8  1  1
  7  9  1  0
  9 10  1  0
 10 11  1  6
 10 12  1  0
 12 13  1  0
 13 14  1  0
 13 15  1  0
 15 16  1  0
 16 17  1  0
 17 18  1  0
 19 17  1  6
 19 20  1  0
 19 21  1  0
 21 22  1  0
 22 23  1  0
 23 24  1  0
 24 25  1  0
 24 26  1  0
 26 27  2  0
 26 28  1  0
 28 29  1  0
 29 30  2  0
 29 31  1  0
 31 32  1  0
 32 33  1  0
 10 34  1  0
 34 35  1  0
 34 36  1  1
  7  2  1  0
 25 19  1  0
 33 31  1  0
 34  6  1  0
 31 23  1  0
  1 37  1  0
  1 38  1  0
  1 39  1  0
  2 40  1  1
  3 41  1  0
  3 42  1  0
  4 43  1  0
  4 44  1  0
  5 45  1  0
  5 46  1  0
  6 47  1  6
 11 48  1  0
 12 49  1  0
 12 50  1  0
 13 51  1  6
 14 52  1  0
 14 53  1  0
 14 54  1  0
 15 55  1  0
 15 56  1  0
 16 57  1  0
 16 58  1  0
 18 59  1  0
 20 60  1  0
 20 61  1  0
 20 62  1  0
 21 63  1  0
 21 64  1  0
 22 65  1  0
 22 66  1  0
 23 67  1  1
 25 68  1  0
 25 69  1  0
 28 70  1  0
 32 71  1  0
 32 72  1  0
 33 73  1  0
 33 74  1  0
 35 75  1  0
 35 76  1  0
 35 77  1  0
 36 78  1  0
M  CHG  1  13   1
M  END
>  <ID>  (38) 
DiffSBDD_43_0

>  <docking_score>  (38) 
-9.47

$$$$
DiffSBDD_44
     RDKit          3D

 61 63  0  0  0  0  0  0  0  0999 V2000
    6.1780    1.8840  -12.7700 C   0  0  0  0  0  0  0  0  0  0  0  0
    7.2420    1.9170  -13.9080 C   0  0  0  0  0  0  0  0  0  0  0  0
    7.3900    0.9520  -14.8840 C   0  0  0  0  0  0  0  0  0  0  0  0
    6.7090   -0.4250  -14.9650 C   0  0  0  0  0  0  0  0  0  0  0  0
    6.1190   -0.5240  -16.4450 C   0  0  1  0  0  0  0  0  0  0  0  0
    4.5310   -0.2170  -16.4110 C   0  0  0  0  0  0  0  0  0  0  0  0
    7.0200    0.0160  -17.4740 C   0  0  1  0  0  0  0  0  0  0  0  0
    8.0160   -0.8160  -17.8590 F   0  0  0  0  0  0  0  0  0  0  0  0
    6.5870    1.0760  -18.5550 C   0  0  1  0  0  0  0  0  0  0  0  0
    5.2140    0.9860  -19.0840 C   0  0  0  0  0  0  0  0  0  0  0  0
    4.9840   -0.2820  -19.6480 O   0  0  0  0  0  0  0  0  0  0  0  0
    5.0470    2.0140  -20.1070 O   0  0  0  0  0  0  0  0  0  0  0  0
    6.5790    2.4000  -17.8230 O   0  0  0  0  0  0  0  0  0  0  0  0
    7.6920    3.0700  -17.5890 C   0  0  2  0  0  0  0  0  0  0  0  0
    7.3270    4.3190  -16.5900 C   0  0  0  0  0  0  0  0  0  0  0  0
    7.9840    3.9680  -15.3330 C   0  0  0  0  0  0  0  0  0  0  0  0
    9.1640    4.4060  -15.4010 O   0  0  0  0  0  0  0  0  0  0  0  0
    7.7650    3.2720  -14.1580 N   0  0  0  0  0  0  0  0  0  0  0  0
    8.0350    4.2370  -13.4490 C   0  0  0  0  0  0  0  0  0  0  0  0
    7.3520    5.4530  -12.9740 C   0  0  0  0  0  0  0  0  0  0  0  0
    7.8190    6.1970  -11.8850 N   0  0  0  0  0  0  0  0  0  0  0  0
    8.8240    5.6700  -11.1710 C   0  0  0  0  0  0  0  0  0  0  0  0
    9.1490    6.5860  -10.0400 C   0  0  0  0  0  0  0  0  0  0  0  0
    9.0250    6.4230   -8.8910 C   0  0  0  0  0  0  0  0  0  0  0  0
    8.6350    6.0760   -7.4300 N   0  0  0  0  0  0  0  0  0  0  0  0
    9.8250    7.6620  -10.1980 C   0  0  0  0  0  0  0  0  0  0  0  0
   10.0030    8.3160   -9.1040 F   0  0  0  0  0  0  0  0  0  0  0  0
   10.2220    8.0490  -11.2950 F   0  0  0  0  0  0  0  0  0  0  0  0
    9.1540    4.2360  -11.8390 S   0  0  0  0  0  0  0  0  0  0  0  0
    9.0100    2.8360  -18.2740 C   0  0  0  0  0  0  0  0  0  0  0  0
    8.9820    1.4940  -18.9270 C   0  0  2  0  0  0  0  0  0  0  0  0
   10.1320    0.8450  -18.8970 O   0  0  0  0  0  0  0  0  0  0  0  0
    7.8040    0.9240  -19.4550 C   0  0  0  0  0  0  0  0  0  0  0  0
    7.7460    0.1310  -20.4180 O   0  0  0  0  0  0  0  0  0  0  0  0
    6.6847    1.8997  -11.7938 H   0  0  0  0  0  0  0  0  0  0  0  0
    5.5213    2.7622  -12.8565 H   0  0  0  0  0  0  0  0  0  0  0  0
    5.5770    0.9668  -12.8565 H   0  0  0  0  0  0  0  0  0  0  0  0
    8.0798    1.1980  -15.7048 H   0  0  0  0  0  0  0  0  0  0  0  0
    7.4412   -1.2267  -14.7888 H   0  0  0  0  0  0  0  0  0  0  0  0
    5.9222   -0.5360  -14.2043 H   0  0  0  0  0  0  0  0  0  0  0  0
    6.1178   -1.5449  -16.8546 H   0  0  0  0  0  0  0  0  0  0  0  0
    4.1925   -0.1516  -15.3664 H   0  0  0  0  0  0  0  0  0  0  0  0
    4.3309    0.7365  -16.9217 H   0  0  0  0  0  0  0  0  0  0  0  0
    3.9899   -1.0272  -16.9217 H   0  0  0  0  0  0  0  0  0  0  0  0
    7.4015    0.7912  -16.7932 H   0  0  0  0  0  0  0  0  0  0  0  0
    4.4942    1.1360  -18.2658 H   0  0  0  0  0  0  0  0  0  0  0  0
    4.0230   -0.3780  -19.8640 H   0  0  0  0  0  0  0  0  0  0  0  0
    4.7340    1.5960  -20.9480 H   0  0  0  0  0  0  0  0  0  0  0  0
    8.6623    2.5665  -17.4667 H   0  0  0  0  0  0  0  0  0  0  0  0
    7.7221    5.2658  -16.9869 H   0  0  0  0  0  0  0  0  0  0  0  0
    6.2431    4.4671  -16.4749 H   0  0  0  0  0  0  0  0  0  0  0  0
    6.4424    5.7879  -13.4941 H   0  0  0  0  0  0  0  0  0  0  0  0
   10.0195    5.9633   -8.7931 H   0  0  0  0  0  0  0  0  0  0  0  0
    8.1087    7.0290   -8.9468 H   0  0  0  0  0  0  0  0  0  0  0  0
    8.9750    5.1320   -7.1990 H   0  0  0  0  0  0  0  0  0  0  0  0
    9.0600    6.7610   -6.7880 H   0  0  0  0  0  0  0  0  0  0  0  0
    7.6100    6.1050   -7.3320 H   0  0  0  0  0  0  0  0  0  0  0  0
    9.1745    3.6136  -19.0344 H   0  0  0  0  0  0  0  0  0  0  0  0
    9.8260    2.8759  -17.5374 H   0  0  0  0  0  0  0  0  0  0  0  0
    8.6974    1.0339  -17.9692 H   0  0  0  0  0  0  0  0  0  0  0  0
   10.2150    0.3600  -18.0370 H   0  0  0  0  0  0  0  0  0  0  0  0
  1  2  1  0
  2  3  2  0
  3  4  1  0
  4  5  1  0
  5  6  1  0
  5  7  1  0
  7  8  1  0
  7  9  1  0
  9 10  1  6
 10 11  1  0
 10 12  1  0
  9 13  1  0
 13 14  1  0
 14 15  1  0
 15 16  1  0
 16 17  2  0
 16 18  1  0
 18 19  1  0
 19 20  2  0
 20 21  1  0
 21 22  2  0
 22 23  1  0
 23 24  1  0
 24 25  1  0
 23 26  2  0
 26 27  1  0
 26 28  1  0
 22 29  1  0
 14 30  1  0
 30 31  1  0
 31 32  1  0
 31 33  1  0
 33 34  2  0
 18  2  1  0
 29 19  1  0
 33  9  1  0
  1 35  1  0
  1 36  1  0
  1 37  1  0
  3 38  1  0
  4 39  1  0
  4 40  1  0
  5 41  1  6
  6 42  1  0
  6 43  1  0
  6 44  1  0
  7 45  1  1
 10 46  1  0
 11 47  1  0
 12 48  1  0
 14 49  1  1
 15 50  1  0
 15 51  1  0
 20 52  1  0
 24 53  1  0
 24 54  1  0
 25 55  1  0
 25 56  1  0
 25 57  1  0
 30 58  1  0
 30 59  1  0
 31 60  1  6
 32 61  1  0
M  CHG  1  25   1
M  END
>  <ID>  (39) 
DiffSBDD_44_0

>  <docking_score>  (39) 
-7.689

$$$$
DiffSBDD_45
     RDKit          3D

 54 58  0  0  0  0  0  0  0  0999 V2000
   12.0570    9.6340   -1.3300 O   0  0  0  0  0  0  0  0  0  0  0  0
   12.8430    8.4050   -1.5640 C   0  0  0  0  0  0  0  0  0  0  0  0
   12.0450    7.4950   -2.5410 C   0  0  2  0  0  0  0  0  0  0  0  0
   12.5630    6.1980   -2.5830 F   0  0  0  0  0  0  0  0  0  0  0  0
   12.1600    7.9610   -3.9690 C   0  0  1  0  0  0  0  0  0  0  0  0
   11.0450    7.1510   -4.9050 C   0  0  0  0  0  0  0  0  0  0  0  0
   10.9620    7.9030   -6.1020 C   0  0  1  0  0  0  0  0  0  0  0  0
   10.4990    7.3500   -7.4990 C   0  0  0  0  0  0  0  0  0  0  0  0
    9.6320    6.2130   -7.5330 C   0  0  0  0  0  0  0  0  0  0  0  0
    9.2830    5.5730   -8.6910 C   0  0  0  0  0  0  0  0  0  0  0  0
    9.8020    6.0420  -10.0100 C   0  0  0  0  0  0  0  0  0  0  0  0
   10.6800    7.2140   -9.9820 C   0  0  0  0  0  0  0  0  0  0  0  0
   11.0190    7.3340  -11.4290 C   0  0  0  0  0  0  0  0  0  0  0  0
   10.4890    6.4600  -12.1810 N   0  0  0  0  0  0  0  0  0  0  0  0
    9.5690    5.6630  -11.4340 N   0  0  0  0  0  0  0  0  0  0  0  0
    8.5010    4.7950  -11.9420 C   0  0  1  0  0  0  0  0  0  0  0  0
    7.0890    5.0470  -11.3240 C   0  0  0  0  0  0  0  0  0  0  0  0
    5.6150    4.7480  -11.4130 C   0  0  0  0  0  0  0  0  0  0  0  0
    5.2600    3.9300  -12.8450 C   0  0  2  0  0  0  0  0  0  0  0  0
    5.6520    2.5440  -13.2130 O   0  0  0  0  0  0  0  0  0  0  0  0
    6.1230    3.7250  -13.8990 C   0  0  2  0  0  0  0  0  0  0  0  0
    7.6190    3.7740  -14.1300 C   0  0  0  0  0  0  0  0  0  0  0  0
    8.2720    4.9360  -13.4950 C   0  0  0  0  0  0  0  0  0  0  0  0
   10.9720    7.8580   -8.6950 C   0  0  0  0  0  0  0  0  0  0  0  0
   11.3170    9.3530   -6.2120 C   0  0  0  0  0  0  0  0  0  0  0  0
   11.2320   10.0230   -4.8250 C   0  0  0  0  0  0  0  0  0  0  0  0
   12.1900    9.3910   -4.0130 O   0  0  0  0  0  0  0  0  0  0  0  0
   12.2950   10.3120   -2.0110 H   0  0  0  0  0  0  0  0  0  0  0  0
   13.8158    8.6641   -2.0074 H   0  0  0  0  0  0  0  0  0  0  0  0
   13.0180    7.8797   -0.6135 H   0  0  0  0  0  0  0  0  0  0  0  0
   11.0120    7.5315   -2.1646 H   0  0  0  0  0  0  0  0  0  0  0  0
   13.1176    7.6917   -4.4385 H   0  0  0  0  0  0  0  0  0  0  0  0
   11.3861    6.1264   -5.1141 H   0  0  0  0  0  0  0  0  0  0  0  0
   10.0701    7.0602   -4.4036 H   0  0  0  0  0  0  0  0  0  0  0  0
   12.0021    7.6368   -6.3414 H   0  0  0  0  0  0  0  0  0  0  0  0
    9.2264    5.8350   -6.5829 H   0  0  0  0  0  0  0  0  0  0  0  0
    8.6119    4.7024   -8.6496 H   0  0  0  0  0  0  0  0  0  0  0  0
   11.6805    8.1229  -11.8165 H   0  0  0  0  0  0  0  0  0  0  0  0
    8.8795    3.8027  -11.6554 H   0  0  0  0  0  0  0  0  0  0  0  0
    7.2805    4.7302  -10.2882 H   0  0  0  0  0  0  0  0  0  0  0  0
    6.9545    5.9197  -11.9799 H   0  0  0  0  0  0  0  0  0  0  0  0
    5.3207    4.1228  -10.5571 H   0  0  0  0  0  0  0  0  0  0  0  0
    5.0594    5.6973  -11.4000 H   0  0  0  0  0  0  0  0  0  0  0  0
    4.3010    4.4495  -12.7023 H   0  0  0  0  0  0  0  0  0  0  0  0
    6.0922    4.2803  -14.8480 H   0  0  0  0  0  0  0  0  0  0  0  0
    8.0655    2.8560  -13.7202 H   0  0  0  0  0  0  0  0  0  0  0  0
    7.7776    3.8647  -15.2147 H   0  0  0  0  0  0  0  0  0  0  0  0
    9.2513    5.0828  -13.9739 H   0  0  0  0  0  0  0  0  0  0  0  0
    7.5910    5.7888  -13.6326 H   0  0  0  0  0  0  0  0  0  0  0  0
   11.5850    8.7713   -8.6819 H   0  0  0  0  0  0  0  0  0  0  0  0
   12.3415    9.4488   -6.6008 H   0  0  0  0  0  0  0  0  0  0  0  0
   10.6111    9.8470   -6.8958 H   0  0  0  0  0  0  0  0  0  0  0  0
   11.4545   11.0970   -4.9083 H   0  0  0  0  0  0  0  0  0  0  0  0
   10.2231    9.9235   -4.3981 H   0  0  0  0  0  0  0  0  0  0  0  0
  1  2  1  0
  2  3  1  0
  3  4  1  0
  3  5  1  0
  5  6  1  0
  6  7  1  0
  7  8  1  0
  8  9  2  0
  9 10  1  0
 10 11  2  0
 11 12  1  0
 12 13  1  0
 13 14  2  0
 14 15  1  0
 15 16  1  0
 16 17  1  0
 17 18  1  0
 18 19  1  0
 19 20  1  0
 20 21  1  0
 21 22  1  0
 22 23  1  0
 12 24  2  0
  7 25  1  0
 25 26  1  0
 26 27  1  0
 27  5  1  0
 24  8  1  0
 15 11  1  0
 23 16  1  0
 21 19  1  0
  1 28  1  0
  2 29  1  0
  2 30  1  0
  3 31  1  1
  5 32  1  6
  6 33  1  0
  6 34  1  0
  7 35  1  6
  9 36  1  0
 10 37  1  0
 13 38  1  0
 16 39  1  6
 17 40  1  0
 17 41  1  0
 18 42  1  0
 18 43  1  0
 19 44  1  6
 21 45  1  6
 22 46  1  0
 22 47  1  0
 23 48  1  0
 23 49  1  0
 24 50  1  0
 25 51  1  0
 25 52  1  0
 26 53  1  0
 26 54  1  0
M  END
>  <ID>  (40) 
DiffSBDD_45_0

>  <docking_score>  (40) 
-10.729

$$$$
DiffSBDD_46
     RDKit          3D

 57 60  0  0  0  0  0  0  0  0999 V2000
   13.4960    8.1000   -9.3400 C   0  0  0  0  0  0  0  0  0  0  0  0
   12.0270    8.4940   -9.5860 C   0  0  0  0  0  0  0  0  0  0  0  0
   10.8480    7.7480   -9.4900 N   0  0  0  0  0  0  0  0  0  0  0  0
   10.1100    7.9380   -8.2450 C   0  0  0  0  0  0  0  0  0  0  0  0
    9.0830    8.5640   -8.2690 O   0  0  0  0  0  0  0  0  0  0  0  0
   10.7340    7.6730   -6.8570 C   0  0  0  0  0  0  0  0  0  0  0  0
   10.9670    6.3750   -6.4770 C   0  0  0  0  0  0  0  0  0  0  0  0
   11.4270    6.0740   -5.1850 C   0  0  0  0  0  0  0  0  0  0  0  0
   11.6740    7.0970   -4.2600 C   0  0  0  0  0  0  0  0  0  0  0  0
   11.9950    6.8350   -2.8530 C   0  0  0  0  0  0  0  0  0  0  0  0
   12.3140    7.8980   -1.9830 C   0  0  0  0  0  0  0  0  0  0  0  0
   12.3010    9.2070   -2.4740 C   0  0  0  0  0  0  0  0  0  0  0  0
   11.9850    9.5030   -3.7880 C   0  0  0  0  0  0  0  0  0  0  0  0
   11.5560    8.4470   -4.6470 C   0  0  0  0  0  0  0  0  0  0  0  0
   11.0830    8.6810   -5.9270 C   0  0  0  0  0  0  0  0  0  0  0  0
   10.3100    6.9960  -10.4670 C   0  0  0  0  0  0  0  0  0  0  0  0
    9.2010    5.9070  -10.1370 C   0  0  0  0  0  0  0  0  0  0  0  0
    8.3710    5.0630   -9.1220 C   0  0  0  0  0  0  0  0  0  0  0  0
    8.8860    5.2870  -11.4310 N   0  0  0  0  0  0  0  0  0  0  0  0
    7.4060    5.0430  -11.6470 C   0  0  1  0  0  0  0  0  0  0  0  0
    6.2150    5.8930  -12.1150 C   0  0  0  0  0  0  0  0  0  0  0  0
    5.6700    4.9620  -13.2280 C   0  0  0  0  0  0  0  0  0  0  0  0
    5.8860    3.4980  -12.8250 C   0  0  1  0  0  0  0  0  0  0  0  0
    6.4470    2.6850  -14.0250 C   0  0  0  0  0  0  0  0  0  0  0  0
    6.8460    3.5680  -11.6690 C   0  0  0  0  0  0  0  0  0  0  0  0
    9.4490    6.2490  -12.4560 C   0  0  0  0  0  0  0  0  0  0  0  0
   10.6760    6.9470  -11.9090 C   0  0  0  0  0  0  0  0  0  0  0  0
   13.6857    8.0491   -8.2577 H   0  0  0  0  0  0  0  0  0  0  0  0
   13.6929    7.1173   -9.7933 H   0  0  0  0  0  0  0  0  0  0  0  0
   14.1582    8.8523   -9.7933 H   0  0  0  0  0  0  0  0  0  0  0  0
   11.8619    9.3368   -8.8987 H   0  0  0  0  0  0  0  0  0  0  0  0
   12.0781    8.5236  -10.6844 H   0  0  0  0  0  0  0  0  0  0  0  0
   10.7910    5.5596   -7.1941 H   0  0  0  0  0  0  0  0  0  0  0  0
   11.5949    5.0259   -4.8965 H   0  0  0  0  0  0  0  0  0  0  0  0
   11.9869    5.8024   -2.4739 H   0  0  0  0  0  0  0  0  0  0  0  0
   12.5698    7.6999   -0.9317 H   0  0  0  0  0  0  0  0  0  0  0  0
   12.5512   10.0318   -1.7905 H   0  0  0  0  0  0  0  0  0  0  0  0
   12.0630   10.5338   -4.1640 H   0  0  0  0  0  0  0  0  0  0  0  0
   10.9701    9.7281   -6.2446 H   0  0  0  0  0  0  0  0  0  0  0  0
    8.6492    5.3459   -8.0960 H   0  0  0  0  0  0  0  0  0  0  0  0
    7.2988    5.2536   -9.2770 H   0  0  0  0  0  0  0  0  0  0  0  0
    8.5795    3.9941   -9.2770 H   0  0  0  0  0  0  0  0  0  0  0  0
    7.9319    5.7980  -11.0442 H   0  0  0  0  0  0  0  0  0  0  0  0
    5.4796    6.0491  -11.3120 H   0  0  0  0  0  0  0  0  0  0  0  0
    6.4625    6.9159  -12.4350 H   0  0  0  0  0  0  0  0  0  0  0  0
    4.5950    5.1486  -13.3676 H   0  0  0  0  0  0  0  0  0  0  0  0
    6.2038    5.1649  -14.1681 H   0  0  0  0  0  0  0  0  0  0  0  0
    4.9585    2.9815  -12.5372 H   0  0  0  0  0  0  0  0  0  0  0  0
    7.0341    1.8342  -13.6490 H   0  0  0  0  0  0  0  0  0  0  0  0
    5.6127    2.3126  -14.6376 H   0  0  0  0  0  0  0  0  0  0  0  0
    7.0912    3.3328  -14.6376 H   0  0  0  0  0  0  0  0  0  0  0  0
    6.3244    3.3446  -10.7267 H   0  0  0  0  0  0  0  0  0  0  0  0
    7.6578    2.8338  -11.7784 H   0  0  0  0  0  0  0  0  0  0  0  0
    9.7239    5.6913  -13.3634 H   0  0  0  0  0  0  0  0  0  0  0  0
    8.6853    7.0045  -12.6925 H   0  0  0  0  0  0  0  0  0  0  0  0
   11.5914    6.3615  -12.0801 H   0  0  0  0  0  0  0  0  0  0  0  0
   10.9033    7.9209  -12.3672 H   0  0  0  0  0  0  0  0  0  0  0  0
  1  2  1  0
  2  3  1  0
  3  4  1  0
  4  5  2  0
  4  6  1  0
  6  7  1  0
  7  8  2  0
  8  9  1  0
  9 10  2  0
 10 11  1  0
 11 12  2  0
 12 13  1  0
 13 14  2  0
 14 15  1  0
  3 16  1  0
 16 17  2  0
 17 18  1  0
 17 19  1  0
 19 20  1  0
 20 21  1  0
 21 22  1  0
 22 23  1  0
 23 24  1  0
 23 25  1  0
 19 26  1  0
 26 27  1  0
 15  6  2  0
 27 16  1  0
 14  9  1  0
 25 20  1  0
  1 28  1  0
  1 29  1  0
  1 30  1  0
  2 31  1  0
  2 32  1  0
  7 33  1  0
  8 34  1  0
 10 35  1  0
 11 36  1  0
 12 37  1  0
 13 38  1  0
 15 39  1  0
 18 40  1  0
 18 41  1  0
 18 42  1  0
 20 43  1  1
 21 44  1  0
 21 45  1  0
 22 46  1  0
 22 47  1  0
 23 48  1  1
 24 49  1  0
 24 50  1  0
 24 51  1  0
 25 52  1  0
 25 53  1  0
 26 54  1  0
 26 55  1  0
 27 56  1  0
 27 57  1  0
M  END
>  <ID>  (41) 
DiffSBDD_46_0

>  <docking_score>  (41) 
-10.225

$$$$
DiffSBDD_47
     RDKit          3D

 32 31  0  0  0  0  0  0  0  0999 V2000
   12.3280    7.1580   -2.3900 C   0  0  0  0  0  0  0  0  0  0  0  0
   11.7410    6.5150   -3.4890 C   0  0  0  0  0  0  0  0  0  0  0  0
   11.3370    6.7530   -4.7300 C   0  0  0  0  0  0  0  0  0  0  0  0
   10.8840    6.9380   -6.0080 C   0  0  0  0  0  0  0  0  0  0  0  0
   10.6490    8.1150   -6.9490 C   0  0  2  0  0  0  0  0  0  0  0  0
    9.1770    8.0490   -7.1730 O   0  0  0  0  0  0  0  0  0  0  0  0
   11.6610    7.9630   -8.0860 C   0  0  0  0  0  0  0  0  0  0  0  0
   11.0930    8.3950   -9.4720 C   0  0  0  0  0  0  0  0  0  0  0  0
   10.4030    7.3780  -10.2410 C   0  0  0  0  0  0  0  0  0  0  0  0
    8.9930    6.8300   -9.9630 N   0  0  0  0  0  0  0  0  0  0  0  0
    8.9030    5.4120  -10.0040 C   0  0  0  0  0  0  0  0  0  0  0  0
    9.0090    4.7790   -8.5840 C   0  0  0  0  0  0  0  0  0  0  0  0
   11.9334    6.7258   -1.4586 H   0  0  0  0  0  0  0  0  0  0  0  0
   13.4189    7.0208   -2.4246 H   0  0  0  0  0  0  0  0  0  0  0  0
   12.0922    8.2319   -2.4246 H   0  0  0  0  0  0  0  0  0  0  0  0
   11.5524    5.4607   -3.2384 H   0  0  0  0  0  0  0  0  0  0  0  0
   10.6184    5.9824   -6.4837 H   0  0  0  0  0  0  0  0  0  0  0  0
   10.8437    9.1514   -6.6359 H   0  0  0  0  0  0  0  0  0  0  0  0
    8.9160    7.1150   -7.3750 H   0  0  0  0  0  0  0  0  0  0  0  0
   12.5393    8.5848   -7.8584 H   0  0  0  0  0  0  0  0  0  0  0  0
   11.9187    6.8959   -8.1553 H   0  0  0  0  0  0  0  0  0  0  0  0
   10.3852    9.2192   -9.2994 H   0  0  0  0  0  0  0  0  0  0  0  0
   11.9741    8.6627  -10.0736 H   0  0  0  0  0  0  0  0  0  0  0  0
   10.3609    7.7726  -11.2669 H   0  0  0  0  0  0  0  0  0  0  0  0
   11.0020    6.4979   -9.9641 H   0  0  0  0  0  0  0  0  0  0  0  0
    8.3500    7.2160  -10.6690 H   0  0  0  0  0  0  0  0  0  0  0  0
    8.7460    7.1160   -9.0040 H   0  0  0  0  0  0  0  0  0  0  0  0
    7.9365    5.1302  -10.4472 H   0  0  0  0  0  0  0  0  0  0  0  0
    9.7423    5.0356  -10.6073 H   0  0  0  0  0  0  0  0  0  0  0  0
    8.8779    5.5621   -7.8227 H   0  0  0  0  0  0  0  0  0  0  0  0
    8.2262    4.0157   -8.4634 H   0  0  0  0  0  0  0  0  0  0  0  0
    9.9978    4.3124   -8.4634 H   0  0  0  0  0  0  0  0  0  0  0  0
  1  2  1  0
  2  3  2  0
  3  4  2  0
  4  5  1  0
  5  6  1  0
  5  7  1  0
  7  8  1  0
  8  9  1  0
  9 10  1  0
 10 11  1  0
 11 12  1  0
  1 13  1  0
  1 14  1  0
  1 15  1  0
  2 16  1  0
  4 17  1  0
  5 18  1  1
  6 19  1  0
  7 20  1  0
  7 21  1  0
  8 22  1  0
  8 23  1  0
  9 24  1  0
  9 25  1  0
 10 26  1  0
 10 27  1  0
 11 28  1  0
 11 29  1  0
 12 30  1  0
 12 31  1  0
 12 32  1  0
M  CHG  1  10   1
M  END
>  <ID>  (42) 
DiffSBDD_47_0

>  <docking_score>  (42) 
-6.106

$$$$
DiffSBDD_48
     RDKit          3D

 43 43  0  0  0  0  0  0  0  0999 V2000
   12.0320    6.9010  -13.6070 C   0  0  0  0  0  0  0  0  0  0  0  0
   11.3660    6.9130  -12.3460 C   0  0  0  0  0  0  0  0  0  0  0  0
   10.1960    6.2090  -12.3460 O   0  0  0  0  0  0  0  0  0  0  0  0
    9.3690    7.1490  -11.5970 C   0  0  1  0  0  0  0  0  0  0  0  0
    9.4680    8.0290  -11.0250 C   0  0  0  0  0  0  0  0  0  0  0  0
    9.9600    7.2390   -9.3310 C   0  0  0  0  0  0  0  0  0  0  0  0
    9.5850    6.0700   -8.5270 C   0  0  0  0  0  0  0  0  0  0  0  0
   10.0710    5.8140   -7.2390 C   0  0  0  0  0  0  0  0  0  0  0  0
   11.1410    6.5980   -6.6830 C   0  0  0  0  0  0  0  0  0  0  0  0
   11.5500    6.3120   -5.5560 F   0  0  0  0  0  0  0  0  0  0  0  0
   11.6410    7.6160   -7.5400 C   0  0  0  0  0  0  0  0  0  0  0  0
   11.2040    7.8360   -8.7870 C   0  0  0  0  0  0  0  0  0  0  0  0
   11.7270    8.8810   -9.5580 F   0  0  0  0  0  0  0  0  0  0  0  0
    7.7620    6.3220  -11.8840 C   0  0  2  0  0  0  0  0  0  0  0  0
    8.0100    4.9370  -11.4450 C   0  0  0  0  0  0  0  0  0  0  0  0
    7.9220    3.7150  -12.4160 C   0  0  0  0  0  0  0  0  0  0  0  0
    8.7630    2.7940  -12.5350 O   0  0  0  0  0  0  0  0  0  0  0  0
    6.3660    3.0920  -12.7490 C   0  0  0  0  0  0  0  0  0  0  0  0
    6.4950    3.4790  -14.1610 O   0  0  0  0  0  0  0  0  0  0  0  0
    7.5870    6.3580  -13.4750 O   0  0  0  0  0  0  0  0  0  0  0  0
    6.4540    6.9640  -13.9820 C   0  0  0  0  0  0  0  0  0  0  0  0
    6.1960    6.9110  -15.4050 C   0  0  0  0  0  0  0  0  0  0  0  0
    6.7870    5.7900  -15.9680 O   0  0  0  0  0  0  0  0  0  0  0  0
    5.1780    7.7400  -15.8710 O   0  0  0  0  0  0  0  0  0  0  0  0
   13.1201    6.8814  -13.4468 H   0  0  0  0  0  0  0  0  0  0  0  0
   11.7286    6.0082  -14.1734 H   0  0  0  0  0  0  0  0  0  0  0  0
   11.7610    7.8042  -14.1734 H   0  0  0  0  0  0  0  0  0  0  0  0
   12.0371    6.4747  -11.5926 H   0  0  0  0  0  0  0  0  0  0  0  0
   11.1160    7.9600  -12.1197 H   0  0  0  0  0  0  0  0  0  0  0  0
    9.5034    6.5434  -10.6886 H   0  0  0  0  0  0  0  0  0  0  0  0
   10.2566    8.6884  -11.4166 H   0  0  0  0  0  0  0  0  0  0  0  0
    8.5814    8.6797  -11.0026 H   0  0  0  0  0  0  0  0  0  0  0  0
    8.8777    5.3496   -8.9636 H   0  0  0  0  0  0  0  0  0  0  0  0
    9.6282    5.0017   -6.6439 H   0  0  0  0  0  0  0  0  0  0  0  0
   12.4397    8.2662   -7.1535 H   0  0  0  0  0  0  0  0  0  0  0  0
    6.8862    6.7568  -11.3802 H   0  0  0  0  0  0  0  0  0  0  0  0
    9.0300    4.9260  -11.0333 H   0  0  0  0  0  0  0  0  0  0  0  0
    7.1524    4.7564  -10.7802 H   0  0  0  0  0  0  0  0  0  0  0  0
    6.2758    2.0073  -12.5897 H   0  0  0  0  0  0  0  0  0  0  0  0
    5.4997    3.4306  -12.1618 H   0  0  0  0  0  0  0  0  0  0  0  0
    7.1820    4.1860  -14.2480 H   0  0  0  0  0  0  0  0  0  0  0  0
    5.5912    6.4991  -13.4825 H   0  0  0  0  0  0  0  0  0  0  0  0
    6.6236    8.0336  -13.7889 H   0  0  0  0  0  0  0  0  0  0  0  0
  1  2  1  0
  2  3  1  0
  3  4  1  0
  4  5  1  0
  5  6  1  0
  6  7  1  0
  7  8  2  0
  8  9  1  0
  9 10  1  0
  9 11  2  0
 11 12  1  0
 12 13  1  0
  4 14  1  0
 14 15  1  0
 15 16  1  0
 16 17  2  0
 16 18  1  0
 18 19  1  0
 14 20  1  0
 20 21  1  0
 21 22  1  0
 22 23  2  0
 22 24  1  0
 12  6  2  0
  1 25  1  0
  1 26  1  0
  1 27  1  0
  2 28  1  0
  2 29  1  0
  4 30  1  1
  5 31  1  0
  5 32  1  0
  7 33  1  0
  8 34  1  0
 11 35  1  0
 14 36  1  1
 15 37  1  0
 15 38  1  0
 18 39  1  0
 18 40  1  0
 19 41  1  0
 21 42  1  0
 21 43  1  0
M  CHG  1  24  -1
M  END
>  <ID>  (43) 
DiffSBDD_48_0

>  <docking_score>  (43) 
-7.378

$$$$
DiffSBDD_4
     RDKit          3D

 69 73  0  0  0  0  0  0  0  0999 V2000
    5.3190    4.0540  -12.3770 C   0  0  0  0  0  0  0  0  0  0  0  0
    6.8270    3.9250  -12.1710 C   0  0  0  0  0  0  0  0  0  0  0  0
    7.4440    5.2400  -11.8890 C   0  0  1  0  0  0  0  0  0  0  0  0
    7.9470    5.4590  -10.5030 C   0  0  0  0  0  0  0  0  0  0  0  0
    8.9010    6.3180  -10.1280 C   0  0  1  0  0  0  0  0  0  0  0  0
    9.8810    5.9920   -9.3420 C   0  0  2  0  0  0  0  0  0  0  0  0
    9.3520    5.2480   -8.3140 C   0  0  0  0  0  0  0  0  0  0  0  0
    8.7950    6.3620   -7.4110 C   0  0  0  0  0  0  0  0  0  0  0  0
    9.7900    7.5770   -7.4040 C   0  0  2  0  0  0  0  0  0  0  0  0
   10.7580    7.8340   -5.9980 C   0  0  1  0  0  0  0  0  0  0  0  0
   11.2130    9.0450   -5.8320 C   0  0  0  0  0  0  0  0  0  0  0  0
   11.8910    9.2470   -4.7290 C   0  0  0  0  0  0  0  0  0  0  0  0
   12.0670    8.2520   -3.7890 C   0  0  1  0  0  0  0  0  0  0  0  0
   12.6170    8.6640   -2.6050 N   0  0  0  0  0  0  0  0  0  0  0  0
   12.0980    9.8010   -2.1030 O   0  0  0  0  0  0  0  0  0  0  0  0
   12.3580    7.7610   -1.6890 F   0  0  0  0  0  0  0  0  0  0  0  0
   11.8010    6.9260   -4.1630 C   0  0  1  0  0  0  0  0  0  0  0  0
   12.2910    5.9750   -3.3670 F   0  0  0  0  0  0  0  0  0  0  0  0
   10.9290    6.6860   -5.1190 C   0  0  0  0  0  0  0  0  0  0  0  0
   10.4740    8.1380   -8.1060 C   0  0  0  0  0  0  0  0  0  0  0  0
   10.7650    7.0390   -8.5360 C   0  0  2  0  0  0  0  0  0  0  0  0
    9.0420    7.4100  -10.9870 C   0  0  0  0  0  0  0  0  0  0  0  0
    8.6840    7.4440  -12.3430 C   0  0  0  0  0  0  0  0  0  0  0  0
    8.1260    6.1180  -12.9040 C   0  0  2  0  0  0  0  0  0  0  0  0
    7.3370    6.2550  -14.0650 C   0  0  0  0  0  0  0  0  0  0  0  0
    6.3060    7.1020  -14.2720 C   0  0  0  0  0  0  0  0  0  0  0  0
    5.5960    7.2290  -15.3870 C   0  0  0  0  0  0  0  0  0  0  0  0
    6.0830    6.5520  -16.5380 C   0  0  0  0  0  0  0  0  0  0  0  0
    6.9790    5.5600  -16.4030 C   0  0  0  0  0  0  0  0  0  0  0  0
    7.6810    5.4500  -15.2170 C   0  0  0  0  0  0  0  0  0  0  0  0
    8.7380    4.3740  -15.3030 C   0  0  0  0  0  0  0  0  0  0  0  0
    9.8320    5.0290  -15.8280 O   0  0  0  0  0  0  0  0  0  0  0  0
    4.8177    4.0969  -11.3988 H   0  0  0  0  0  0  0  0  0  0  0  0
    5.1032    4.9739  -12.9403 H   0  0  0  0  0  0  0  0  0  0  0  0
    4.9501    3.1841  -12.9403 H   0  0  0  0  0  0  0  0  0  0  0  0
    7.0167    3.2506  -11.3229 H   0  0  0  0  0  0  0  0  0  0  0  0
    7.2710    3.5231  -13.0937 H   0  0  0  0  0  0  0  0  0  0  0  0
    6.4442    5.6644  -12.0630 H   0  0  0  0  0  0  0  0  0  0  0  0
    7.0597    5.7450   -9.9191 H   0  0  0  0  0  0  0  0  0  0  0  0
    8.4869    4.5122  -10.3543 H   0  0  0  0  0  0  0  0  0  0  0  0
    8.4417    6.6769   -9.1951 H   0  0  0  0  0  0  0  0  0  0  0  0
   10.5586    5.5641  -10.0955 H   0  0  0  0  0  0  0  0  0  0  0  0
    8.5553    4.5771   -8.6678 H   0  0  0  0  0  0  0  0  0  0  0  0
   10.0703    4.5770   -7.8201 H   0  0  0  0  0  0  0  0  0  0  0  0
    7.8178    6.6906   -7.7945 H   0  0  0  0  0  0  0  0  0  0  0  0
    8.6770    5.9789   -6.3866 H   0  0  0  0  0  0  0  0  0  0  0  0
   11.6599    7.5737   -6.5714 H   0  0  0  0  0  0  0  0  0  0  0  0
   11.0392    9.8433   -6.5686 H   0  0  0  0  0  0  0  0  0  0  0  0
   12.3325   10.2380   -4.5471 H   0  0  0  0  0  0  0  0  0  0  0  0
   13.0730    8.0537   -4.1873 H   0  0  0  0  0  0  0  0  0  0  0  0
   11.7830   10.3750   -2.8450 H   0  0  0  0  0  0  0  0  0  0  0  0
   12.4464    6.6237   -5.0009 H   0  0  0  0  0  0  0  0  0  0  0  0
   11.2808    5.8310   -5.7149 H   0  0  0  0  0  0  0  0  0  0  0  0
    9.9585    6.4688   -4.6488 H   0  0  0  0  0  0  0  0  0  0  0  0
    9.9670    8.8012   -8.8223 H   0  0  0  0  0  0  0  0  0  0  0  0
   11.2250    8.8625   -7.7580 H   0  0  0  0  0  0  0  0  0  0  0  0
   11.7190    6.6435   -8.9148 H   0  0  0  0  0  0  0  0  0  0  0  0
    8.4686    8.2226  -10.5169 H   0  0  0  0  0  0  0  0  0  0  0  0
   10.1377    7.4338  -11.0817 H   0  0  0  0  0  0  0  0  0  0  0  0
    7.9155    8.2201  -12.4737 H   0  0  0  0  0  0  0  0  0  0  0  0
    9.6101    7.6482  -12.9004 H   0  0  0  0  0  0  0  0  0  0  0  0
    9.0440    5.5926  -13.2062 H   0  0  0  0  0  0  0  0  0  0  0  0
    6.0256    7.7534  -13.4311 H   0  0  0  0  0  0  0  0  0  0  0  0
    4.6749    7.8295  -15.4183 H   0  0  0  0  0  0  0  0  0  0  0  0
    5.7267    6.8399  -17.5381 H   0  0  0  0  0  0  0  0  0  0  0  0
    7.1512    4.8470  -17.2227 H   0  0  0  0  0  0  0  0  0  0  0  0
    8.9656    3.9676  -14.3065 H   0  0  0  0  0  0  0  0  0  0  0  0
    8.4225    3.5155  -15.9141 H   0  0  0  0  0  0  0  0  0  0  0  0
   10.0210    5.8390  -15.2900 H   0  0  0  0  0  0  0  0  0  0  0  0
  1  2  1  0
  2  3  1  0
  3  4  1  0
  4  5  1  0
  5  6  1  0
  6  7  1  0
  7  8  1  0
  9  8  1  6
  9 10  1  0
 10 11  1  0
 11 12  2  0
 12 13  1  0
 13 14  1  0
 14 15  1  0
 14 16  1  0
 13 17  1  0
 17 18  1  0
 17 19  1  0
  9 20  1  0
 20 21  1  0
  5 22  1  0
 22 23  1  0
 23 24  1  0
 24 25  1  0
 25 26  2  0
 26 27  1  0
 27 28  2  0
 28 29  1  0
 29 30  2  0
 30 31  1  0
 31 32  1  0
 24  3  1  0
 30 25  1  0
 21  6  1  0
 21  9  1  0
 19 10  1  0
  1 33  1  0
  1 34  1  0
  1 35  1  0
  2 36  1  0
  2 37  1  0
  3 38  1  1
  4 39  1  0
  4 40  1  0
  5 41  1  1
  6 42  1  6
  7 43  1  0
  7 44  1  0
  8 45  1  0
  8 46  1  0
 10 47  1  6
 11 48  1  0
 12 49  1  0
 13 50  1  1
 15 51  1  0
 17 52  1  6
 19 53  1  0
 19 54  1  0
 20 55  1  0
 20 56  1  0
 21 57  1  1
 22 58  1  0
 22 59  1  0
 23 60  1  0
 23 61  1  0
 24 62  1  6
 26 63  1  0
 27 64  1  0
 28 65  1  0
 29 66  1  0
 31 67  1  0
 31 68  1  0
 32 69  1  0
M  END
>  <ID>  (44) 
DiffSBDD_4_0

>  <docking_score>  (44) 
-11.788

$$$$
DiffSBDD_5
     RDKit          3D

 64 67  0  0  0  0  0  0  0  0999 V2000
   11.5260    7.5580  -11.0910 C   0  0  0  0  0  0  0  0  0  0  0  0
   10.1650    7.2680  -11.6390 C   0  0  0  0  0  0  0  0  0  0  0  0
    9.1360    8.4640  -11.5350 C   0  0  0  0  0  0  0  0  0  0  0  0
    9.6400    5.8980  -11.1270 C   0  0  2  0  0  0  0  0  0  0  0  0
    8.6540    5.0590  -11.8100 C   0  0  0  0  0  0  0  0  0  0  0  0
    8.8020    3.7880  -11.9290 O   0  0  0  0  0  0  0  0  0  0  0  0
    7.6060    5.6540  -12.3600 N   0  0  0  0  0  0  0  0  0  0  0  0
    6.6790    4.8290  -13.1720 C   0  0  1  0  0  0  0  0  0  0  0  0
    5.4670    4.3030  -12.3920 C   0  0  0  0  0  0  0  0  0  0  0  0
    4.5240    3.9200  -13.1030 O   0  0  0  0  0  0  0  0  0  0  0  0
    5.2820    4.5870  -11.1120 O   0  0  0  0  0  0  0  0  0  0  0  0
    6.3760    5.5400  -14.3810 C   0  0  0  0  0  0  0  0  0  0  0  0
    5.8370    6.6540  -14.7060 C   0  0  0  0  0  0  0  0  0  0  0  0
    5.7770    6.9830  -15.8560 C   0  0  0  0  0  0  0  0  0  0  0  0
    6.6490    6.1200  -16.6570 C   0  0  1  0  0  0  0  0  0  0  0  0
    6.8330    6.4700  -18.3120 Cl  0  0  0  0  0  0  0  0  0  0  0  0
    7.1410    4.9930  -15.8280 S   0  0  0  0  0  0  0  0  0  0  0  0
    9.1320    5.9910   -9.7550 N   0  0  0  0  0  0  0  0  0  0  0  0
    7.9080    5.7560   -9.5680 O   0  0  0  0  0  0  0  0  0  0  0  0
    9.8960    5.8250   -8.6100 C   0  0  2  0  0  0  0  0  0  0  0  0
   10.4940    5.6840   -7.2900 C   0  0  0  0  0  0  0  0  0  0  0  0
    9.7960    7.0070   -7.5290 C   0  0  2  0  0  0  0  0  0  0  0  0
    9.2910    8.1970   -8.3690 C   0  0  0  0  0  0  0  0  0  0  0  0
    9.7750    8.2310   -7.3250 N   0  0  0  0  0  0  0  0  0  0  0  0
   11.1200    8.6100   -6.9010 C   0  0  0  0  0  0  0  0  0  0  0  0
   11.8840    8.9250   -7.7720 O   0  0  0  0  0  0  0  0  0  0  0  0
   11.5410    8.2920   -5.4830 C   0  0  0  0  0  0  0  0  0  0  0  0
   11.9830    9.2550   -4.7190 C   0  0  0  0  0  0  0  0  0  0  0  0
   12.2210    9.3810   -3.4230 C   0  0  0  0  0  0  0  0  0  0  0  0
   12.2960    8.6120   -2.4310 C   0  0  0  0  0  0  0  0  0  0  0  0
   12.7920    8.9620   -1.1370 O   0  0  0  0  0  0  0  0  0  0  0  0
   11.9750    7.1330   -2.4370 C   0  0  2  0  0  0  0  0  0  0  0  0
   10.5550    6.6870   -1.6060 C   0  0  0  0  0  0  0  0  0  0  0  0
   13.1990    6.3850   -1.6160 O   0  0  0  0  0  0  0  0  0  0  0  0
   11.5400    6.3310   -3.8680 C   0  0  0  0  0  0  0  0  0  0  0  0
   11.3110    6.9040   -4.9620 C   0  0  0  0  0  0  0  0  0  0  0  0
   11.4880    7.5499   -9.9917 H   0  0  0  0  0  0  0  0  0  0  0  0
   12.2327    6.7903  -11.4391 H   0  0  0  0  0  0  0  0  0  0  0  0
   11.8583    8.5471  -11.4391 H   0  0  0  0  0  0  0  0  0  0  0  0
   10.2775    7.1697  -12.7288 H   0  0  0  0  0  0  0  0  0  0  0  0
    8.9419    8.6896  -10.4760 H   0  0  0  0  0  0  0  0  0  0  0  0
    9.5560    9.3530  -12.0283 H   0  0  0  0  0  0  0  0  0  0  0  0
    8.1943    8.1814  -12.0283 H   0  0  0  0  0  0  0  0  0  0  0  0
   10.5906    5.3799  -11.3218 H   0  0  0  0  0  0  0  0  0  0  0  0
    7.4410    6.6620  -12.2280 H   0  0  0  0  0  0  0  0  0  0  0  0
    7.1771    3.8899  -13.4546 H   0  0  0  0  0  0  0  0  0  0  0  0
    5.4270    7.3123  -13.9259 H   0  0  0  0  0  0  0  0  0  0  0  0
    4.7403    6.8875  -16.2111 H   0  0  0  0  0  0  0  0  0  0  0  0
    6.1040    8.0285  -15.9558 H   0  0  0  0  0  0  0  0  0  0  0  0
    5.7924    5.4703  -16.8896 H   0  0  0  0  0  0  0  0  0  0  0  0
    7.7500    5.5800   -8.6060 H   0  0  0  0  0  0  0  0  0  0  0  0
   10.1006    5.0582   -9.3717 H   0  0  0  0  0  0  0  0  0  0  0  0
   10.0555    4.9692   -6.5781 H   0  0  0  0  0  0  0  0  0  0  0  0
   11.5103    5.4276   -6.9562 H   0  0  0  0  0  0  0  0  0  0  0  0
    9.8371    8.5368   -9.2614 H   0  0  0  0  0  0  0  0  0  0  0  0
    8.3567    8.5224   -8.8498 H   0  0  0  0  0  0  0  0  0  0  0  0
   12.2095   10.1723   -5.2823 H   0  0  0  0  0  0  0  0  0  0  0  0
   12.3992   10.4292   -3.1410 H   0  0  0  0  0  0  0  0  0  0  0  0
   10.7319    6.7426   -0.5217 H   0  0  0  0  0  0  0  0  0  0  0  0
    9.7393    7.3722   -1.8800 H   0  0  0  0  0  0  0  0  0  0  0  0
   10.2775    5.6584   -1.8800 H   0  0  0  0  0  0  0  0  0  0  0  0
   13.8830    7.0540   -1.3630 H   0  0  0  0  0  0  0  0  0  0  0  0
   11.4527    5.2350   -3.8352 H   0  0  0  0  0  0  0  0  0  0  0  0
   10.8371    6.2418   -5.7015 H   0  0  0  0  0  0  0  0  0  0  0  0
  1  2  1  0
  2  3  1  0
  2  4  1  0
  4  5  1  0
  5  6  2  0
  5  7  1  0
  7  8  1  0
  8  9  1  0
  9 10  2  0
  9 11  1  0
  8 12  1  0
 12 13  2  0
 13 14  1  0
 14 15  1  0
 15 16  1  0
 15 17  1  0
  4 18  1  0
 18 19  1  0
 18 20  1  0
 20 21  1  0
 21 22  1  0
 22 23  1  0
 23 24  1  0
 24 25  1  0
 25 26  2  0
 25 27  1  0
 27 28  2  0
 28 29  1  0
 29 30  2  0
 30 31  1  0
 30 32  1  0
 32 33  1  0
 32 34  1  1
 32 35  1  0
 35 36  2  0
 17 12  1  0
 22 20  1  0
 36 27  1  0
 22 24  1  1
  1 37  1  0
  1 38  1  0
  1 39  1  0
  2 40  1  0
  3 41  1  0
  3 42  1  0
  3 43  1  0
  4 44  1  1
  7 45  1  0
  8 46  1  6
 13 47  1  0
 14 48  1  0
 14 49  1  0
 15 50  1  1
 19 51  1  0
 20 52  1  6
 21 53  1  0
 21 54  1  0
 23 55  1  0
 23 56  1  0
 28 57  1  0
 29 58  1  0
 33 59  1  0
 33 60  1  0
 33 61  1  0
 34 62  1  0
 35 63  1  0
 36 64  1  0
M  CHG  2  11  -1  31  -1
M  END
>  <ID>  (45) 
DiffSBDD_5_0

>  <docking_score>  (45) 
-9.907

$$$$
DiffSBDD_6
     RDKit          3D

 73 76  0  0  0  0  0  0  0  0999 V2000
    9.1430    4.0800  -11.6910 C   0  0  0  0  0  0  0  0  0  0  0  0
    9.0380    4.8130  -10.6190 C   0  0  0  0  0  0  0  0  0  0  0  0
    9.0180    6.1590  -10.8210 C   0  0  2  0  0  0  0  0  0  0  0  0
    8.6560    6.7110  -12.0000 C   0  0  0  0  0  0  0  0  0  0  0  0
    7.3740    7.1050  -12.4710 C   0  0  0  0  0  0  0  0  0  0  0  0
    6.6990    6.0930  -13.3660 C   0  0  2  0  0  0  0  0  0  0  0  0
    6.1900    6.7430  -14.6110 O   0  0  0  0  0  0  0  0  0  0  0  0
    6.5060    6.1630  -15.8160 C   0  0  0  0  0  0  0  0  0  0  0  0
    7.6710    5.4140  -15.8560 C   0  0  0  0  0  0  0  0  0  0  0  0
    5.5170    5.3190  -12.6680 C   0  0  1  0  0  0  0  0  0  0  0  0
    5.6750    3.8660  -12.8310 C   0  0  0  0  0  0  0  0  0  0  0  0
    5.6480    5.6640  -11.3240 O   0  0  0  0  0  0  0  0  0  0  0  0
    9.5720    6.8010   -9.7280 N   0  0  0  0  0  0  0  0  0  0  0  0
    9.9400    8.2000   -9.8410 C   0  0  0  0  0  0  0  0  0  0  0  0
   11.4520    8.5660  -10.0100 C   0  0  0  0  0  0  0  0  0  0  0  0
   11.7270    7.9950   -8.6630 C   0  0  2  0  0  0  0  0  0  0  0  0
   11.3210    6.8000   -7.8000 C   0  0  1  0  0  0  0  0  0  0  0  0
   11.0630    6.6690   -6.4360 C   0  0  1  0  0  0  0  0  0  0  0  0
   11.5140    5.7520   -5.1100 C   0  0  0  0  0  0  0  0  0  0  0  0
   11.6100    6.4900   -3.8330 C   0  0  0  0  0  0  0  0  0  0  0  0
   11.9020    7.5370   -3.3150 C   0  0  0  0  0  0  0  0  0  0  0  0
   12.0890    7.4810   -1.9520 C   0  0  0  0  0  0  0  0  0  0  0  0
   12.8900    8.4730   -1.2880 C   0  0  0  0  0  0  0  0  0  0  0  0
   12.1310    9.3340   -0.6540 F   0  0  0  0  0  0  0  0  0  0  0  0
   13.7450    8.0790   -0.3730 F   0  0  0  0  0  0  0  0  0  0  0  0
   13.5340    9.1090   -2.2890 F   0  0  0  0  0  0  0  0  0  0  0  0
   11.8970    8.0340   -4.5610 C   0  0  0  0  0  0  0  0  0  0  0  0
   11.4780    7.9040   -5.6570 C   0  0  0  0  0  0  0  0  0  0  0  0
   11.1070    9.2480   -6.4970 C   0  0  0  0  0  0  0  0  0  0  0  0
   11.5770   10.3020   -5.6530 C   0  0  0  0  0  0  0  0  0  0  0  0
   10.7420   10.6220   -4.6190 N   0  0  0  0  0  0  0  0  0  0  0  0
   12.4630   10.7340   -6.2900 O   0  0  0  0  0  0  0  0  0  0  0  0
   10.6960    8.3960   -7.8730 C   0  0  1  0  0  0  0  0  0  0  0  0
    9.1860    7.9390   -7.6320 C   0  0  0  0  0  0  0  0  0  0  0  0
    9.1860    6.5670   -8.4620 C   0  0  0  0  0  0  0  0  0  0  0  0
    8.2880    5.7080   -7.7530 O   0  0  0  0  0  0  0  0  0  0  0  0
    9.1657    2.9834  -11.6074 H   0  0  0  0  0  0  0  0  0  0  0  0
    9.2089    4.5577  -12.6797 H   0  0  0  0  0  0  0  0  0  0  0  0
    8.9698    4.3718   -9.6137 H   0  0  0  0  0  0  0  0  0  0  0  0
    8.2034    6.8019  -11.1858 H   0  0  0  0  0  0  0  0  0  0  0  0
    9.2581    7.6295  -12.0620 H   0  0  0  0  0  0  0  0  0  0  0  0
    8.7669    5.8098  -12.6210 H   0  0  0  0  0  0  0  0  0  0  0  0
    6.7261    7.2794  -11.5993 H   0  0  0  0  0  0  0  0  0  0  0  0
    7.5276    8.0085  -13.0794 H   0  0  0  0  0  0  0  0  0  0  0  0
    7.4752    5.3527  -13.6097 H   0  0  0  0  0  0  0  0  0  0  0  0
    5.6735    5.5010  -16.0966 H   0  0  0  0  0  0  0  0  0  0  0  0
    6.6760    7.0020  -16.5067 H   0  0  0  0  0  0  0  0  0  0  0  0
    8.0045    5.1996  -14.8299 H   0  0  0  0  0  0  0  0  0  0  0  0
    7.4810    4.4684  -16.3849 H   0  0  0  0  0  0  0  0  0  0  0  0
    8.4524    5.9794  -16.3849 H   0  0  0  0  0  0  0  0  0  0  0  0
    4.5350    5.5763  -13.0917 H   0  0  0  0  0  0  0  0  0  0  0  0
    5.7268    3.3895  -11.8409 H   0  0  0  0  0  0  0  0  0  0  0  0
    4.8153    3.4638  -13.3870 H   0  0  0  0  0  0  0  0  0  0  0  0
    6.6011    3.6580  -13.3870 H   0  0  0  0  0  0  0  0  0  0  0  0
    5.6190    6.6490  -11.2300 H   0  0  0  0  0  0  0  0  0  0  0  0
    9.4087    8.6054  -10.7147 H   0  0  0  0  0  0  0  0  0  0  0  0
    9.6681    8.6283   -8.8650 H   0  0  0  0  0  0  0  0  0  0  0  0
   11.9543    8.0389  -10.8345 H   0  0  0  0  0  0  0  0  0  0  0  0
   11.7565    9.5938  -10.2568 H   0  0  0  0  0  0  0  0  0  0  0  0
   12.8021    8.0866   -8.8771 H   0  0  0  0  0  0  0  0  0  0  0  0
   11.5064    5.7432   -8.0425 H   0  0  0  0  0  0  0  0  0  0  0  0
   10.1483    6.2169   -6.8470 H   0  0  0  0  0  0  0  0  0  0  0  0
   10.7719    4.9499   -4.9836 H   0  0  0  0  0  0  0  0  0  0  0  0
   12.5284    5.3852   -5.3255 H   0  0  0  0  0  0  0  0  0  0  0  0
   11.2830    5.8082   -3.0341 H   0  0  0  0  0  0  0  0  0  0  0  0
   11.0898    7.5233   -1.4939 H   0  0  0  0  0  0  0  0  0  0  0  0
   12.6730    6.5585   -1.8182 H   0  0  0  0  0  0  0  0  0  0  0  0
   11.5664    9.0623   -4.3530 H   0  0  0  0  0  0  0  0  0  0  0  0
   12.7748    7.4222   -4.8163 H   0  0  0  0  0  0  0  0  0  0  0  0
   10.0310    9.9470   -4.3030 H   0  0  0  0  0  0  0  0  0  0  0  0
   10.8250   11.5380   -4.1550 H   0  0  0  0  0  0  0  0  0  0  0  0
    8.9732    7.7730   -6.5656 H   0  0  0  0  0  0  0  0  0  0  0  0
    8.4224    8.6696   -7.9372 H   0  0  0  0  0  0  0  0  0  0  0  0
  1  2  2  0
  2  3  1  0
  3  4  1  0
  4  5  1  0
  5  6  1  0
  6  7  1  0
  7  8  1  0
  8  9  1  0
  6 10  1  0
 10 11  1  0
 10 12  1  0
  3 13  1  0
 13 14  1  0
 14 15  1  0
 15 16  1  0
 16 17  1  0
 17 18  1  0
 18 19  1  0
 19 20  1  0
 20 21  2  0
 21 22  1  0
 22 23  1  0
 23 24  1  0
 23 25  1  0
 23 26  1  0
 21 27  1  0
 27 28  1  0
 28 29  2  0
 29 30  1  0
 30 31  1  0
 30 32  2  0
 29 33  1  0
 33 34  1  1
 34 35  1  0
 35 36  2  0
 35 13  1  0
 33 16  1  0
 33 17  1  0
 28 18  1  0
  1 37  1  0
  1 38  1  0
  2 39  1  0
  3 40  1  1
  4 41  1  0
  4 42  1  0
  5 43  1  0
  5 44  1  0
  6 45  1  6
  8 46  1  0
  8 47  1  0
  9 48  1  0
  9 49  1  0
  9 50  1  0
 10 51  1  6
 11 52  1  0
 11 53  1  0
 11 54  1  0
 12 55  1  0
 14 56  1  0
 14 57  1  0
 15 58  1  0
 15 59  1  0
 16 60  1  1
 17 61  1  6
 18 62  1  6
 19 63  1  0
 19 64  1  0
 20 65  1  0
 22 66  1  0
 22 67  1  0
 27 68  1  0
 27 69  1  0
 31 70  1  0
 31 71  1  0
 34 72  1  0
 34 73  1  0
M  END
>  <ID>  (46) 
DiffSBDD_6_0

>  <docking_score>  (46) 
-9.016

$$$$
DiffSBDD_7
     RDKit          3D

 55 60  0  0  0  0  0  0  0  0999 V2000
    5.5400    3.5470  -12.8660 C   0  0  0  0  0  0  0  0  0  0  0  0
    6.9260    4.1730  -12.6530 C   0  0  1  0  0  0  0  0  0  0  0  0
    7.4380    4.9140  -14.0400 C   0  0  2  0  0  0  0  0  0  0  0  0
    8.6090    4.5940  -14.3810 O   0  0  0  0  0  0  0  0  0  0  0  0
    7.3030    6.2120  -14.0910 C   0  0  1  0  0  0  0  0  0  0  0  0
    6.5020    6.9060  -15.1920 C   0  0  0  0  0  0  0  0  0  0  0  0
    5.8460    6.5870  -13.9820 C   0  0  2  0  0  0  0  0  0  0  0  0
    5.5560    7.5330  -12.8940 F   0  0  0  0  0  0  0  0  0  0  0  0
    7.0350    5.0170  -11.3850 C   0  0  1  0  0  0  0  0  0  0  0  0
    7.8930    4.7280  -10.1410 C   0  0  2  0  0  0  0  0  0  0  0  0
    8.8010    5.6420   -8.5960 S   0  0  0  0  0  0  0  0  0  0  0  0
    9.9190    6.5720   -9.5730 C   0  0  2  0  0  0  0  0  0  0  0  0
    9.6080    6.4000  -10.8940 C   0  0  0  0  0  0  0  0  0  0  0  0
   10.4330    6.7970  -11.9010 C   0  0  0  0  0  0  0  0  0  0  0  0
   11.6530    7.3860  -11.8520 C   0  0  0  0  0  0  0  0  0  0  0  0
   12.3840    7.8840  -10.8030 C   0  0  0  0  0  0  0  0  0  0  0  0
   11.9440    7.9620   -9.5130 N   0  0  0  0  0  0  0  0  0  0  0  0
   10.8640    7.4720   -8.9760 C   0  0  0  0  0  0  0  0  0  0  0  0
   10.5520    7.6070   -7.6720 N   0  0  0  0  0  0  0  0  0  0  0  0
   11.0000    8.3230   -6.5430 C   0  0  0  0  0  0  0  0  0  0  0  0
   11.2930    9.7540   -6.4730 N   0  0  0  0  0  0  0  0  0  0  0  0
   11.6050   10.0500   -5.1300 N   0  0  0  0  0  0  0  0  0  0  0  0
   11.6560    8.9120   -4.4310 C   0  0  0  0  0  0  0  0  0  0  0  0
   12.0500    8.6960   -3.1110 C   0  0  0  0  0  0  0  0  0  0  0  0
   12.2540    9.7250   -2.2760 N   0  0  0  0  0  0  0  0  0  0  0  0
   12.1390    7.4100   -2.5510 C   0  0  0  0  0  0  0  0  0  0  0  0
   11.7020    6.4060   -3.4250 C   0  0  0  0  0  0  0  0  0  0  0  0
   11.3020    6.6500   -4.7010 C   0  0  0  0  0  0  0  0  0  0  0  0
   11.2870    7.8750   -5.2230 N   0  0  0  0  0  0  0  0  0  0  0  0
    8.4000    5.5450  -11.1720 N   0  0  0  0  0  0  0  0  0  0  0  0
    5.0780    3.3383  -11.8898 H   0  0  0  0  0  0  0  0  0  0  0  0
    4.9049    4.2457  -13.4304 H   0  0  0  0  0  0  0  0  0  0  0  0
    5.6443    2.6086  -13.4304 H   0  0  0  0  0  0  0  0  0  0  0  0
    7.6401    3.3609  -12.4517 H   0  0  0  0  0  0  0  0  0  0  0  0
    6.7240    4.5097  -14.7726 H   0  0  0  0  0  0  0  0  0  0  0  0
    8.6060    3.6750  -14.7490 H   0  0  0  0  0  0  0  0  0  0  0  0
    8.2920    6.4197  -13.6565 H   0  0  0  0  0  0  0  0  0  0  0  0
    6.7110    7.9574  -15.4386 H   0  0  0  0  0  0  0  0  0  0  0  0
    6.3061    6.6896  -16.2526 H   0  0  0  0  0  0  0  0  0  0  0  0
    4.8725    6.0971  -13.8329 H   0  0  0  0  0  0  0  0  0  0  0  0
    5.9773    5.3048  -11.4767 H   0  0  0  0  0  0  0  0  0  0  0  0
    7.7031    3.8120   -9.5623 H   0  0  0  0  0  0  0  0  0  0  0  0
    9.2408    7.4368   -9.5259 H   0  0  0  0  0  0  0  0  0  0  0  0
   10.0492    6.6105  -12.9149 H   0  0  0  0  0  0  0  0  0  0  0  0
   12.1463    7.4821  -12.8305 H   0  0  0  0  0  0  0  0  0  0  0  0
   13.3999    8.2473  -11.0174 H   0  0  0  0  0  0  0  0  0  0  0  0
   12.5560    8.4850   -8.8710 H   0  0  0  0  0  0  0  0  0  0  0  0
    9.7480    7.0120   -7.4290 H   0  0  0  0  0  0  0  0  0  0  0  0
   11.7670   10.9930   -4.7480 H   0  0  0  0  0  0  0  0  0  0  0  0
   11.4570   10.2870   -1.9470 H   0  0  0  0  0  0  0  0  0  0  0  0
   13.2090    9.9530   -1.9640 H   0  0  0  0  0  0  0  0  0  0  0  0
   12.5119    7.2129   -1.5351 H   0  0  0  0  0  0  0  0  0  0  0  0
   11.6816    5.3684   -3.0604 H   0  0  0  0  0  0  0  0  0  0  0  0
   11.9594    6.0502   -5.3475 H   0  0  0  0  0  0  0  0  0  0  0  0
   10.2291    6.4123   -4.6510 H   0  0  0  0  0  0  0  0  0  0  0  0
  1  2  1  0
  2  3  1  0
  3  4  1  0
  3  5  1  0
  5  6  1  0
  6  7  1  0
  7  8  1  0
  2  9  1  0
  9 10  1  0
 10 11  1  0
 11 12  1  0
 12 13  1  0
 13 14  2  0
 14 15  1  0
 15 16  2  0
 16 17  1  0
 17 18  2  0
 18 19  1  0
 19 20  1  0
 20 21  2  0
 21 22  1  0
 22 23  1  0
 23 24  2  0
 24 25  1  0
 24 26  1  0
 26 27  2  0
 27 28  1  0
 28 29  1  0
 13 30  1  0
  7  5  1  0
 30  9  1  0
 30 10  1  0
 18 12  1  0
 29 20  1  0
 29 23  1  0
  1 31  1  0
  1 32  1  0
  1 33  1  0
  2 34  1  1
  3 35  1  6
  4 36  1  0
  5 37  1  1
  6 38  1  0
  6 39  1  0
  7 40  1  6
  9 41  1  1
 10 42  1  6
 12 43  1  6
 14 44  1  0
 15 45  1  0
 16 46  1  0
 17 47  1  0
 19 48  1  0
 22 49  1  0
 25 50  1  0
 25 51  1  0
 26 52  1  0
 27 53  1  0
 28 54  1  0
 28 55  1  0
M  CHG  1  17   1
M  END
>  <ID>  (47) 
DiffSBDD_7_0

>  <docking_score>  (47) 
-10.994

$$$$
DiffSBDD_8
     RDKit          3D

 70 73  0  0  0  0  0  0  0  0999 V2000
    5.5150    7.3280  -16.5170 C   0  0  0  0  0  0  0  0  0  0  0  0
    6.2350    7.7580  -15.5010 O   0  0  0  0  0  0  0  0  0  0  0  0
    6.1830    6.7680  -14.5750 N   0  0  0  0  0  0  0  0  0  0  0  0
    6.5740    5.6240  -14.9270 C   0  0  0  0  0  0  0  0  0  0  0  0
    6.4740    4.7540  -13.8800 C   0  0  0  0  0  0  0  0  0  0  0  0
    6.3790    5.4490  -12.7590 C   0  0  2  0  0  0  0  0  0  0  0  0
    6.7520    4.7280  -11.5030 C   0  0  0  0  0  0  0  0  0  0  0  0
    5.8100    4.1770  -10.8180 O   0  0  0  0  0  0  0  0  0  0  0  0
    7.9400    4.7480  -11.0200 N   0  0  0  0  0  0  0  0  0  0  0  0
    9.1620    4.4550  -11.7660 C   0  0  0  0  0  0  0  0  0  0  0  0
    7.9310    4.8190   -9.5060 C   0  0  1  0  0  0  0  0  0  0  0  0
    8.2290    5.0240   -8.0050 C   0  0  0  0  0  0  0  0  0  0  0  0
    9.1040    5.5670   -9.0070 C   0  0  1  0  0  0  0  0  0  0  0  0
   10.2880    5.1540   -8.2010 O   0  0  0  0  0  0  0  0  0  0  0  0
   10.4000    6.2390   -7.3430 C   0  0  1  0  0  0  0  0  0  0  0  0
   11.6700    6.3470   -6.6610 O   0  0  0  0  0  0  0  0  0  0  0  0
    9.9350    7.5170   -7.9320 C   0  0  1  0  0  0  0  0  0  0  0  0
   11.1010    8.0540   -8.1500 N   0  0  0  0  0  0  0  0  0  0  0  0
   11.7320    9.1830   -8.1730 C   0  0  0  0  0  0  0  0  0  0  0  0
   12.6100    9.5390   -7.0710 C   0  0  0  0  0  0  0  0  0  0  0  0
   12.0710   10.3040   -6.0910 C   0  0  0  0  0  0  0  0  0  0  0  0
   11.4440    9.7700   -4.7850 C   0  0  0  0  0  0  0  0  0  0  0  0
   10.9150   10.5940   -4.1490 O   0  0  0  0  0  0  0  0  0  0  0  0
   11.7990    8.4740   -4.3370 O   0  0  0  0  0  0  0  0  0  0  0  0
   12.8020    8.6200   -3.4130 C   0  0  0  0  0  0  0  0  0  0  0  0
   12.4180    7.9970   -2.2260 C   0  0  0  0  0  0  0  0  0  0  0  0
   12.3980    9.0600   -1.2790 O   0  0  0  0  0  0  0  0  0  0  0  0
    9.0650    7.1420   -9.1290 C   0  0  1  0  0  0  0  0  0  0  0  0
    9.7340    7.8420  -10.2910 C   0  0  1  0  0  0  0  0  0  0  0  0
    9.0710    7.8420  -11.6510 C   0  0  0  0  0  0  0  0  0  0  0  0
    8.8660    8.9770  -10.6990 N   0  0  0  0  0  0  0  0  0  0  0  0
    6.0530    6.8450  -13.1790 C   0  0  1  0  0  0  0  0  0  0  0  0
    5.7190    8.0000  -12.5650 F   0  0  0  0  0  0  0  0  0  0  0  0
    4.6279    6.7982  -16.1396 H   0  0  0  0  0  0  0  0  0  0  0  0
    5.1974    8.1845  -17.1299 H   0  0  0  0  0  0  0  0  0  0  0  0
    6.1185    6.6423  -17.1299 H   0  0  0  0  0  0  0  0  0  0  0  0
    5.9501    5.2658  -15.7591 H   0  0  0  0  0  0  0  0  0  0  0  0
    7.6246    5.6842  -15.2475 H   0  0  0  0  0  0  0  0  0  0  0  0
    5.5787    4.1271  -14.0039 H   0  0  0  0  0  0  0  0  0  0  0  0
    7.3621    4.1058  -13.8451 H   0  0  0  0  0  0  0  0  0  0  0  0
    7.4207    5.7820  -12.8772 H   0  0  0  0  0  0  0  0  0  0  0  0
    9.9834    4.2580  -11.0614 H   0  0  0  0  0  0  0  0  0  0  0  0
    9.0018    3.5698  -12.3991 H   0  0  0  0  0  0  0  0  0  0  0  0
    9.4206    5.3166  -12.3991 H   0  0  0  0  0  0  0  0  0  0  0  0
    8.3724    3.8127   -9.4562 H   0  0  0  0  0  0  0  0  0  0  0  0
    7.5966    5.6933   -7.4032 H   0  0  0  0  0  0  0  0  0  0  0  0
    8.3522    4.3623   -7.1349 H   0  0  0  0  0  0  0  0  0  0  0  0
    9.6847    6.0097   -6.5394 H   0  0  0  0  0  0  0  0  0  0  0  0
   11.9610    5.4490   -6.3600 H   0  0  0  0  0  0  0  0  0  0  0  0
    9.2929    8.2156   -7.3755 H   0  0  0  0  0  0  0  0  0  0  0  0
   11.2900    7.7130   -9.1030 H   0  0  0  0  0  0  0  0  0  0  0  0
   11.3830    7.8920   -7.1730 H   0  0  0  0  0  0  0  0  0  0  0  0
   12.3471    9.1863   -9.0850 H   0  0  0  0  0  0  0  0  0  0  0  0
   10.9258    9.9287   -8.1098 H   0  0  0  0  0  0  0  0  0  0  0  0
   12.9629    8.6048   -6.6097 H   0  0  0  0  0  0  0  0  0  0  0  0
   13.4032   10.1558   -7.5185 H   0  0  0  0  0  0  0  0  0  0  0  0
   12.8776   10.9804   -5.7720 H   0  0  0  0  0  0  0  0  0  0  0  0
   11.1698   10.6713   -6.6039 H   0  0  0  0  0  0  0  0  0  0  0  0
   13.7239    8.1550   -3.7924 H   0  0  0  0  0  0  0  0  0  0  0  0
   12.9866    9.6888   -3.2297 H   0  0  0  0  0  0  0  0  0  0  0  0
   11.4216    7.5419   -2.3262 H   0  0  0  0  0  0  0  0  0  0  0  0
   13.0939    7.1793   -1.9353 H   0  0  0  0  0  0  0  0  0  0  0  0
   13.2060    9.0100   -0.7090 H   0  0  0  0  0  0  0  0  0  0  0  0
    8.0091    7.4355   -9.2238 H   0  0  0  0  0  0  0  0  0  0  0  0
   10.7740    7.6283  -10.0033 H   0  0  0  0  0  0  0  0  0  0  0  0
    9.6744    7.9854  -12.5595 H   0  0  0  0  0  0  0  0  0  0  0  0
    8.4128    7.1531  -12.2007 H   0  0  0  0  0  0  0  0  0  0  0  0
    7.9500    9.1090  -10.2480 H   0  0  0  0  0  0  0  0  0  0  0  0
    8.9900    9.9980  -10.7540 H   0  0  0  0  0  0  0  0  0  0  0  0
    4.9890    6.5751  -13.2501 H   0  0  0  0  0  0  0  0  0  0  0  0
  1  2  1  0
  2  3  1  0
  3  4  1  0
  4  5  1  0
  5  6  1  0
  6  7  1  0
  7  8  2  0
  7  9  1  0
  9 10  1  0
  9 11  1  0
 11 12  1  0
 12 13  1  0
 13 14  1  1
 14 15  1  0
 15 16  1  0
 15 17  1  0
 17 18  1  0
 18 19  1  0
 19 20  1  0
 20 21  1  0
 21 22  1  0
 22 23  2  0
 22 24  1  0
 24 25  1  0
 25 26  1  0
 26 27  1  0
 17 28  1  0
 28 29  1  0
 29 30  1  0
 30 31  1  0
  6 32  1  0
 32 33  1  0
 32  3  1  0
 13 11  1  0
 31 29  1  0
 28 13  1  0
  1 34  1  0
  1 35  1  0
  1 36  1  0
  4 37  1  0
  4 38  1  0
  5 39  1  0
  5 40  1  0
  6 41  1  1
 10 42  1  0
 10 43  1  0
 10 44  1  0
 11 45  1  6
 12 46  1  0
 12 47  1  0
 15 48  1  1
 16 49  1  0
 17 50  1  1
 18 51  1  0
 18 52  1  0
 19 53  1  0
 19 54  1  0
 20 55  1  0
 20 56  1  0
 21 57  1  0
 21 58  1  0
 25 59  1  0
 25 60  1  0
 26 61  1  0
 26 62  1  0
 27 63  1  0
 28 64  1  1
 29 65  1  6
 30 66  1  0
 30 67  1  0
 31 68  1  0
 31 69  1  0
 32 70  1  6
M  CHG  2  18   1  31   1
M  END
>  <ID>  (48) 
DiffSBDD_8_0

>  <docking_score>  (48) 
-7.649

$$$$
DiffSBDD_9
     RDKit          3D

 77 78  0  0  0  0  0  0  0  0999 V2000
   11.2130    6.9260  -11.9160 C   0  0  0  0  0  0  0  0  0  0  0  0
   10.4450    7.6660  -10.9860 C   0  0  0  0  0  0  0  0  0  0  0  0
    9.0410    8.0470  -11.4340 C   0  0  0  0  0  0  0  0  0  0  0  0
   10.2090    6.5880   -9.7780 C   0  0  1  0  0  0  0  0  0  0  0  0
   10.6410    7.0960   -8.2850 C   0  0  2  0  0  0  0  0  0  0  0  0
    9.9700    8.3180   -8.2740 O   0  0  0  0  0  0  0  0  0  0  0  0
   11.1410    8.4620   -7.6520 C   0  0  2  0  0  0  0  0  0  0  0  0
   12.4190    8.8320   -7.7830 C   0  0  0  0  0  0  0  0  0  0  0  0
   13.2420    8.3220   -8.8470 O   0  0  0  0  0  0  0  0  0  0  0  0
   12.9430    9.8070   -6.9520 N   0  0  0  0  0  0  0  0  0  0  0  0
   12.3610    9.9720   -5.6940 C   0  0  0  0  0  0  0  0  0  0  0  0
   12.7780    9.5210   -4.5920 C   0  0  0  0  0  0  0  0  0  0  0  0
   12.5080    9.3130   -3.4030 C   0  0  0  0  0  0  0  0  0  0  0  0
   11.6300   10.2190   -3.1580 O   0  0  0  0  0  0  0  0  0  0  0  0
   12.7930    8.2380   -2.3990 C   0  0  0  0  0  0  0  0  0  0  0  0
   12.6640    6.7440   -2.3250 C   0  0  0  0  0  0  0  0  0  0  0  0
   11.4610    6.6430   -2.8550 C   0  0  0  0  0  0  0  0  0  0  0  0
   11.2110    6.5900   -4.1640 C   0  0  0  0  0  0  0  0  0  0  0  0
   11.3710    6.2480   -5.0870 O   0  0  0  0  0  0  0  0  0  0  0  0
    8.9030    5.8880   -9.8170 C   0  0  1  0  0  0  0  0  0  0  0  0
    8.1700    5.0070  -10.9230 C   0  0  1  0  0  0  0  0  0  0  0  0
    6.8550    5.1490  -10.7740 C   0  0  0  0  0  0  0  0  0  0  0  0
    6.3650    4.9810  -11.4790 C   0  0  0  0  0  0  0  0  0  0  0  0
    6.5860    4.5450  -12.6840 C   0  0  0  0  0  0  0  0  0  0  0  0
    7.3150    4.1680  -13.4740 C   0  0  1  0  0  0  0  0  0  0  0  0
    7.7960    3.0500  -14.3050 O   0  0  0  0  0  0  0  0  0  0  0  0
    7.0980    1.8890  -13.8900 C   0  0  0  0  0  0  0  0  0  0  0  0
    8.0960    1.2580  -13.0510 F   0  0  0  0  0  0  0  0  0  0  0  0
    6.0520    2.1100  -12.7580 F   0  0  0  0  0  0  0  0  0  0  0  0
    6.2090    1.1660  -14.8780 C   0  0  0  0  0  0  0  0  0  0  0  0
    5.3770    0.6180  -14.3560 F   0  0  0  0  0  0  0  0  0  0  0  0
    7.0000    5.0370  -14.9580 C   0  0  0  0  0  0  0  0  0  0  0  0
    5.6320    4.6710  -14.3680 O   0  0  0  0  0  0  0  0  0  0  0  0
    6.6910    6.1020  -15.7630 F   0  0  0  0  0  0  0  0  0  0  0  0
    8.5400    5.4960  -14.8650 F   0  0  0  0  0  0  0  0  0  0  0  0
    8.4480    4.5240  -12.9280 C   0  0  0  0  0  0  0  0  0  0  0  0
    8.7520    4.2850  -11.7770 C   0  0  0  0  0  0  0  0  0  0  0  0
    8.5730    5.0570   -8.5840 C   0  0  2  0  0  0  0  0  0  0  0  0
    7.9550    5.1390   -7.3960 O   0  0  0  0  0  0  0  0  0  0  0  0
    9.3610    3.9820   -8.6550 F   0  0  0  0  0  0  0  0  0  0  0  0
   11.9028    6.2613  -11.3753 H   0  0  0  0  0  0  0  0  0  0  0  0
   10.5434    6.3240  -12.5478 H   0  0  0  0  0  0  0  0  0  0  0  0
   11.7898    7.6175  -12.5478 H   0  0  0  0  0  0  0  0  0  0  0  0
   10.9738    8.6063  -10.7708 H   0  0  0  0  0  0  0  0  0  0  0  0
    8.4082    8.2187  -10.5508 H   0  0  0  0  0  0  0  0  0  0  0  0
    9.0853    8.9656  -12.0375 H   0  0  0  0  0  0  0  0  0  0  0  0
    8.6149    7.2320  -12.0375 H   0  0  0  0  0  0  0  0  0  0  0  0
   10.9497    5.8087  -10.0106 H   0  0  0  0  0  0  0  0  0  0  0  0
   10.9417    6.0988   -7.9313 H   0  0  0  0  0  0  0  0  0  0  0  0
   11.3567    9.0915   -6.7761 H   0  0  0  0  0  0  0  0  0  0  0  0
   13.7350   10.3920   -7.2520 H   0  0  0  0  0  0  0  0  0  0  0  0
   12.3063   11.0611   -5.5498 H   0  0  0  0  0  0  0  0  0  0  0  0
   11.4819    9.3238   -5.8242 H   0  0  0  0  0  0  0  0  0  0  0  0
   13.0568    8.5027   -4.9008 H   0  0  0  0  0  0  0  0  0  0  0  0
   13.1759   10.5130   -4.3321 H   0  0  0  0  0  0  0  0  0  0  0  0
   13.8626    8.3901   -2.1919 H   0  0  0  0  0  0  0  0  0  0  0  0
   11.8719    8.4223   -1.8267 H   0  0  0  0  0  0  0  0  0  0  0  0
   13.4290    6.2285   -2.9241 H   0  0  0  0  0  0  0  0  0  0  0  0
   12.7949    6.2944   -1.3296 H   0  0  0  0  0  0  0  0  0  0  0  0
   11.0300    5.7223   -2.4349 H   0  0  0  0  0  0  0  0  0  0  0  0
   11.0488    7.6331   -2.6105 H   0  0  0  0  0  0  0  0  0  0  0  0
   10.3878    7.3075   -4.2963 H   0  0  0  0  0  0  0  0  0  0  0  0
    8.5697    6.9106  -10.0479 H   0  0  0  0  0  0  0  0  0  0  0  0
    8.1559    4.1513  -10.2320 H   0  0  0  0  0  0  0  0  0  0  0  0
    6.4092    5.4602   -9.8178 H   0  0  0  0  0  0  0  0  0  0  0  0
    5.2995    5.1901  -11.3027 H   0  0  0  0  0  0  0  0  0  0  0  0
    5.8855    3.6968  -12.6854 H   0  0  0  0  0  0  0  0  0  0  0  0
    6.8102    5.5758  -12.9958 H   0  0  0  0  0  0  0  0  0  0  0  0
    5.7740    1.9002  -15.5721 H   0  0  0  0  0  0  0  0  0  0  0  0
    6.8209    0.4308  -15.4212 H   0  0  0  0  0  0  0  0  0  0  0  0
    5.0560    4.2950  -15.0800 H   0  0  0  0  0  0  0  0  0  0  0  0
    9.2339    4.0644  -13.5455 H   0  0  0  0  0  0  0  0  0  0  0  0
    8.3273    5.6167  -12.8897 H   0  0  0  0  0  0  0  0  0  0  0  0
    8.5025    3.2346  -11.5665 H   0  0  0  0  0  0  0  0  0  0  0  0
    9.8275    4.4974  -11.6863 H   0  0  0  0  0  0  0  0  0  0  0  0
    7.6203    5.6033   -8.6466 H   0  0  0  0  0  0  0  0  0  0  0  0
    7.7290    6.0840   -7.2060 H   0  0  0  0  0  0  0  0  0  0  0  0
  1  2  1  0
  2  3  1  0
  2  4  1  0
  4  5  1  0
  5  6  1  0
  6  7  1  0
  7  8  1  0
  8  9  2  0
  8 10  1  0
 10 11  1  0
 11 12  1  0
 12 13  1  0
 13 14  2  0
 13 15  1  0
 15 16  1  0
 16 17  1  0
 17 18  1  0
 18 19  2  0
  4 20  1  0
 20 21  1  0
 21 22  1  0
 22 23  2  0
 23 24  1  0
 24 25  1  0
 25 26  1  6
 26 27  1  0
 27 28  1  0
 27 29  1  0
 27 30  1  0
 30 31  1  0
 25 32  1  0
 32 33  1  0
 32 34  1  0
 32 35  1  0
 25 36  1  0
 36 37  1  0
 20 38  1  0
 38 39  1  0
 38 40  1  0
  7  5  1  0
 37 21  1  0
  1 41  1  0
  1 42  1  0
  1 43  1  0
  2 44  1  0
  3 45  1  0
  3 46  1  0
  3 47  1  0
  4 48  1  6
  5 49  1  1
  7 50  1  1
 10 51  1  0
 11 52  1  0
 11 53  1  0
 12 54  1  0
 12 55  1  0
 15 56  1  0
 15 57  1  0
 16 58  1  0
 16 59  1  0
 17 60  1  0
 17 61  1  0
 18 62  1  0
 20 63  1  1
 21 64  1  1
 22 65  1  0
 23 66  1  0
 24 67  1  0
 24 68  1  0
 30 69  1  0
 30 70  1  0
 33 71  1  0
 36 72  1  0
 36 73  1  0
 37 74  1  0
 37 75  1  0
 38 76  1  6
 39 77  1  0
M  END
>  <ID>  (49) 
DiffSBDD_9_0

>  <docking_score>  (49) 
-9.133

$$$$
