DiffSBDD_0_num_sample_50
     RDKit          3D

 58 61  0  0  0  0  0  0  0  0999 V2000
    6.6630    3.8220  -12.1460 N   0  0  0  0  0  0  0  0  0  0  0  0
    8.0360    3.9100  -12.4110 C   0  0  0  0  0  0  0  0  0  0  0  0
    8.6470    2.8280  -12.5130 O   0  0  0  0  0  0  0  0  0  0  0  0
    8.7430    5.1750  -12.4680 C   0  0  1  0  0  0  0  0  0  0  0  0
    7.7960    5.7350  -13.5900 C   0  0  2  0  0  0  0  0  0  0  0  0
    6.9680    6.9540  -13.2060 C   0  0  0  0  0  0  0  0  0  0  0  0
    5.9040    7.1830  -14.2210 C   0  0  0  0  0  0  0  0  0  0  0  0
    6.0930    6.4330  -15.4980 C   0  0  1  0  0  0  0  0  0  0  0  0
    6.1620    7.4310  -16.4320 C   0  0  0  0  0  0  0  0  0  0  0  0
    5.8360    8.5360  -16.2440 F   0  0  0  0  0  0  0  0  0  0  0  0
    6.4880    7.0850  -17.5470 F   0  0  0  0  0  0  0  0  0  0  0  0
    7.2740    5.0400  -15.2390 S   0  0  0  0  0  0  0  0  0  0  0  0
    8.8270    6.0080  -11.2290 C   0  0  1  0  0  0  0  0  0  0  0  0
    8.4750    5.4120   -9.7990 C   0  0  0  0  0  0  0  0  0  0  0  0
    9.1920    6.3680   -8.8310 C   0  0  2  0  0  0  0  0  0  0  0  0
    9.1090    7.8620   -9.1870 C   0  0  0  0  0  0  0  0  0  0  0  0
   10.1990    7.0520   -9.6610 C   0  0  1  0  0  0  0  0  0  0  0  0
   11.4110    7.7020   -8.9880 C   0  0  0  0  0  0  0  0  0  0  0  0
   11.5400    7.6450   -7.6630 N   0  0  0  0  0  0  0  0  0  0  0  0
   11.6080    8.5320   -6.6640 C   0  0  0  0  0  0  0  0  0  0  0  0
   11.4690    9.7040   -6.9010 O   0  0  0  0  0  0  0  0  0  0  0  0
   11.6700    8.2040   -5.3520 C   0  0  0  0  0  0  0  0  0  0  0  0
   11.5540    6.9480   -4.9070 C   0  0  0  0  0  0  0  0  0  0  0  0
   11.7140    6.6830   -3.5610 C   0  0  0  0  0  0  0  0  0  0  0  0
   11.8850    7.7730   -2.6600 C   0  0  0  0  0  0  0  0  0  0  0  0
   11.9450    7.5670   -1.4170 F   0  0  0  0  0  0  0  0  0  0  0  0
   11.9720    9.1030   -3.1620 C   0  0  0  0  0  0  0  0  0  0  0  0
   12.1790   10.1580   -2.2530 F   0  0  0  0  0  0  0  0  0  0  0  0
   11.8770    9.3040   -4.4970 C   0  0  0  0  0  0  0  0  0  0  0  0
   10.2520    6.4260  -10.9580 N   0  0  2  0  0  0  0  0  0  0  0  0
   11.0760    7.1520  -11.9240 C   0  0  0  0  0  0  0  0  0  0  0  0
   11.8140    6.1980  -12.6060 O   0  0  0  0  0  0  0  0  0  0  0  0
    6.2030    2.9010  -12.1150 H   0  0  0  0  0  0  0  0  0  0  0  0
    6.1140    4.6790  -11.9830 H   0  0  0  0  0  0  0  0  0  0  0  0
    9.8302    5.1317  -12.6298 H   0  0  0  0  0  0  0  0  0  0  0  0
    8.7839    5.4166  -13.9543 H   0  0  0  0  0  0  0  0  0  0  0  0
    6.5042    6.7851  -12.2230 H   0  0  0  0  0  0  0  0  0  0  0  0
    7.6223    7.8371  -13.1613 H   0  0  0  0  0  0  0  0  0  0  0  0
    4.9414    6.8794  -13.7838 H   0  0  0  0  0  0  0  0  0  0  0  0
    5.9425    8.2519  -14.4780 H   0  0  0  0  0  0  0  0  0  0  0  0
    5.3194    5.7797  -15.9277 H   0  0  0  0  0  0  0  0  0  0  0  0
    5.1431    7.1875  -16.7675 H   0  0  0  0  0  0  0  0  0  0  0  0
    8.0696    6.7529  -11.5144 H   0  0  0  0  0  0  0  0  0  0  0  0
    7.3887    5.4179   -9.6262 H   0  0  0  0  0  0  0  0  0  0  0  0
    8.7884    4.3643   -9.6803 H   0  0  0  0  0  0  0  0  0  0  0  0
    9.0831    5.8249   -7.8807 H   0  0  0  0  0  0  0  0  0  0  0  0
    8.3416    8.2205   -9.8889 H   0  0  0  0  0  0  0  0  0  0  0  0
    9.0205    8.7984   -8.6166 H   0  0  0  0  0  0  0  0  0  0  0  0
   12.3062    7.2275   -9.4163 H   0  0  0  0  0  0  0  0  0  0  0  0
   11.2688    8.7747   -9.1855 H   0  0  0  0  0  0  0  0  0  0  0  0
   11.6040    6.6750   -7.3220 H   0  0  0  0  0  0  0  0  0  0  0  0
   11.3324    6.1307   -5.6091 H   0  0  0  0  0  0  0  0  0  0  0  0
   11.7095    5.6472   -3.1908 H   0  0  0  0  0  0  0  0  0  0  0  0
   11.9609   10.3195   -4.9115 H   0  0  0  0  0  0  0  0  0  0  0  0
   10.8050    5.5610  -11.0360 H   0  0  0  0  0  0  0  0  0  0  0  0
   10.4376    7.7108  -12.6241 H   0  0  0  0  0  0  0  0  0  0  0  0
   11.7317    7.8783  -11.4216 H   0  0  0  0  0  0  0  0  0  0  0  0
   12.5500    6.6400  -13.0990 H   0  0  0  0  0  0  0  0  0  0  0  0
  1  2  1  0
  2  3  2  0
  2  4  1  0
  4  5  1  0
  5  6  1  0
  6  7  1  0
  7  8  1  0
  8  9  1  0
  9 10  1  0
  9 11  1  0
  8 12  1  0
  4 13  1  0
 13 14  1  0
 14 15  1  0
 15 16  1  0
 16 17  1  0
 17 18  1  1
 18 19  1  0
 19 20  1  0
 20 21  2  0
 20 22  1  0
 22 23  2  0
 23 24  1  0
 24 25  2  0
 25 26  1  0
 25 27  1  0
 27 28  1  0
 27 29  2  0
 17 30  1  0
 30 31  1  0
 31 32  1  0
 12  5  1  0
 30 13  1  0
 17 15  1  0
 29 22  1  0
  1 33  1  0
  1 34  1  0
  4 35  1  6
  5 36  1  6
  6 37  1  0
  6 38  1  0
  7 39  1  0
  7 40  1  0
  8 41  1  6
  9 42  1  0
 13 43  1  6
 14 44  1  0
 14 45  1  0
 15 46  1  1
 16 47  1  0
 16 48  1  0
 18 49  1  0
 18 50  1  0
 19 51  1  0
 23 52  1  0
 24 53  1  0
 29 54  1  0
 30 55  1  1
 31 56  1  0
 31 57  1  0
 32 58  1  0
M  CHG  1  30   1
M  END

>  <ID>
DiffSBDD_0_num_sample_50

>  <docking_score>
-9.695

$$$$
DiffSBDD_10_num_sample_50
     RDKit          3D

 77 78  0  0  0  0  0  0  0  0999 V2000
   13.0380    8.3420   -9.4020 C   0  0  0  0  0  0  0  0  0  0  0  0
   11.9340    8.4670   -8.3200 C   0  0  0  0  0  0  0  0  0  0  0  0
   11.0010    8.9900   -7.2530 C   0  0  1  0  0  0  0  0  0  0  0  0
   12.0170    9.3530   -5.7470 S   0  0  0  0  0  0  0  0  0  0  0  0
   11.3130   10.6150   -5.3640 O   0  0  0  0  0  0  0  0  0  0  0  0
   13.1040    9.6370   -6.2010 O   0  0  0  0  0  0  0  0  0  0  0  0
   11.9760    8.1180   -4.3650 S   0  0  0  0  0  0  0  0  0  0  0  0
    9.5350    8.4860   -7.2050 C   0  0  1  0  0  0  0  0  0  0  0  0
    8.5170    8.5530   -7.8650 O   0  0  0  0  0  0  0  0  0  0  0  0
   10.3240    7.4100   -7.7250 C   0  0  2  0  0  0  0  0  0  0  0  0
   10.0020    6.3980   -6.4980 C   0  0  0  0  0  0  0  0  0  0  0  0
   10.4960    6.6150   -8.8500 O   0  0  0  0  0  0  0  0  0  0  0  0
    9.4920    5.7960   -9.1320 C   0  0  1  0  0  0  0  0  0  0  0  0
    7.8530    5.4790   -9.1190 N   0  0  0  0  0  0  0  0  0  0  0  0
    7.6390    4.8460  -10.3780 C   0  0  0  0  0  0  0  0  0  0  0  0
    6.3050    4.5610  -10.6780 F   0  0  0  0  0  0  0  0  0  0  0  0
    8.7470    4.5920  -11.2250 C   0  0  1  0  0  0  0  0  0  0  0  0
    8.7500    3.8880  -12.0970 C   0  0  0  0  0  0  0  0  0  0  0  0
    8.0690    3.1330  -12.8650 C   0  0  0  0  0  0  0  0  0  0  0  0
    7.3640    2.9620  -14.1670 C   0  0  0  0  0  0  0  0  0  0  0  0
    7.5270    3.8810  -15.2390 C   0  0  0  0  0  0  0  0  0  0  0  0
    8.2840    3.2250  -15.9650 C   0  0  0  0  0  0  0  0  0  0  0  0
    8.9510    2.8430  -16.9770 N   0  0  0  0  0  0  0  0  0  0  0  0
    6.8540    5.1190  -15.4080 N   0  0  0  0  0  0  0  0  0  0  0  0
    6.0490    5.9630  -14.6270 C   0  0  0  0  0  0  0  0  0  0  0  0
    5.6740    5.3670  -13.6010 N   0  0  0  0  0  0  0  0  0  0  0  0
    6.0250    7.3370  -14.8560 C   0  0  0  0  0  0  0  0  0  0  0  0
    5.3000    7.6850  -16.4080 C   0  0  0  0  0  0  0  0  0  0  0  0
    4.1550    6.9480  -17.4200 C   0  0  0  0  0  0  0  0  0  0  0  0
    4.9830    6.8830  -18.6280 N   0  0  0  0  0  0  0  0  0  0  0  0
    5.7490    5.7130  -19.2090 C   0  0  0  0  0  0  0  0  0  0  0  0
    6.1030    4.7300  -18.4210 O   0  0  0  0  0  0  0  0  0  0  0  0
    9.5790    6.1050  -10.5990 C   0  0  1  0  0  0  0  0  0  0  0  0
    9.7570    7.7420  -10.9210 C   0  0  0  0  0  0  0  0  0  0  0  0
   14.0180    8.2310   -8.9148 H   0  0  0  0  0  0  0  0  0  0  0  0
   12.8385    7.4607  -10.0293 H   0  0  0  0  0  0  0  0  0  0  0  0
   13.0406    9.2456  -10.0293 H   0  0  0  0  0  0  0  0  0  0  0  0
   11.1276    8.1001   -8.9721 H   0  0  0  0  0  0  0  0  0  0  0  0
   12.7432    8.5531   -7.5799 H   0  0  0  0  0  0  0  0  0  0  0  0
   12.4080    6.9030   -4.8250 H   0  0  0  0  0  0  0  0  0  0  0  0
    8.9335    8.8252   -6.3488 H   0  0  0  0  0  0  0  0  0  0  0  0
    7.7910    8.0650   -7.4010 H   0  0  0  0  0  0  0  0  0  0  0  0
   10.1670    6.9166   -5.5421 H   0  0  0  0  0  0  0  0  0  0  0  0
    8.9545    6.0680   -6.5601 H   0  0  0  0  0  0  0  0  0  0  0  0
   10.6662    5.5234   -6.5601 H   0  0  0  0  0  0  0  0  0  0  0  0
    9.6752    5.0996   -8.3005 H   0  0  0  0  0  0  0  0  0  0  0  0
    7.6030    4.8520   -8.3410 H   0  0  0  0  0  0  0  0  0  0  0  0
    7.2770    6.3230   -8.9850 H   0  0  0  0  0  0  0  0  0  0  0  0
    7.7420    3.8606   -9.9001 H   0  0  0  0  0  0  0  0  0  0  0  0
    9.4340    3.8021  -11.5628 H   0  0  0  0  0  0  0  0  0  0  0  0
    9.2162    4.5385  -12.8516 H   0  0  0  0  0  0  0  0  0  0  0  0
    8.9026    3.0433  -11.4091 H   0  0  0  0  0  0  0  0  0  0  0  0
    7.9467    2.1820  -12.3259 H   0  0  0  0  0  0  0  0  0  0  0  0
    6.6969    2.0979  -14.3025 H   0  0  0  0  0  0  0  0  0  0  0  0
    9.1484    3.2786  -15.2868 H   0  0  0  0  0  0  0  0  0  0  0  0
    7.3853    2.8670  -16.4886 H   0  0  0  0  0  0  0  0  0  0  0  0
    9.0150    1.8150  -16.9780 H   0  0  0  0  0  0  0  0  0  0  0  0
    8.4790    3.1580  -17.8370 H   0  0  0  0  0  0  0  0  0  0  0  0
    9.8970    3.2470  -16.9370 H   0  0  0  0  0  0  0  0  0  0  0  0
    6.9930    5.5000  -16.3540 H   0  0  0  0  0  0  0  0  0  0  0  0
    5.0730    5.8480  -12.9180 H   0  0  0  0  0  0  0  0  0  0  0  0
    5.9660    4.3930  -13.4370 H   0  0  0  0  0  0  0  0  0  0  0  0
    5.4383    7.8260  -14.0643 H   0  0  0  0  0  0  0  0  0  0  0  0
    7.0573    7.7170  -14.8518 H   0  0  0  0  0  0  0  0  0  0  0  0
    4.8661    8.6830  -16.2477 H   0  0  0  0  0  0  0  0  0  0  0  0
    6.1640    7.3236  -16.9850 H   0  0  0  0  0  0  0  0  0  0  0  0
    3.8586    5.9513  -17.0611 H   0  0  0  0  0  0  0  0  0  0  0  0
    3.1877    7.4624  -17.5184 H   0  0  0  0  0  0  0  0  0  0  0  0
    4.3490    7.1740  -19.3860 H   0  0  0  0  0  0  0  0  0  0  0  0
    5.7890    7.4170  -18.2740 H   0  0  0  0  0  0  0  0  0  0  0  0
    5.1221    5.2798  -20.0023 H   0  0  0  0  0  0  0  0  0  0  0  0
    6.7058    6.1554  -19.5234 H   0  0  0  0  0  0  0  0  0  0  0  0
    5.3290    4.1290  -18.2750 H   0  0  0  0  0  0  0  0  0  0  0  0
   10.3171    6.2032  -11.4087 H   0  0  0  0  0  0  0  0  0  0  0  0
    9.8174    8.2976   -9.9736 H   0  0  0  0  0  0  0  0  0  0  0  0
   10.6780    7.9037  -11.5003 H   0  0  0  0  0  0  0  0  0  0  0  0
    8.8923    8.0979  -11.5003 H   0  0  0  0  0  0  0  0  0  0  0  0
  1  2  1  0
  3  2  1  6
  3  4  1  0
  4  5  2  0
  4  6  2  0
  4  7  1  0
  3  8  1  0
  8  9  1  0
  8 10  1  0
 10 11  1  0
 10 12  1  6
 12 13  1  0
 13 14  1  0
 14 15  1  0
 15 16  1  0
 15 17  1  0
 17 18  1  0
 18 19  1  0
 19 20  2  3
 20 21  1  0
 21 22  1  0
 22 23  1  0
 21 24  2  3
 24 25  1  0
 25 26  2  0
 25 27  1  0
 27 28  1  0
 28 29  1  0
 29 30  1  0
 30 31  1  0
 31 32  1  0
 17 33  1  0
 33 34  1  0
 10  3  1  0
 33 13  1  0
  1 35  1  0
  1 36  1  0
  1 37  1  0
  2 38  1  0
  2 39  1  0
  7 40  1  0
  8 41  1  1
  9 42  1  0
 11 43  1  0
 11 44  1  0
 11 45  1  0
 13 46  1  6
 14 47  1  0
 14 48  1  0
 15 49  1  0
 17 50  1  1
 18 51  1  0
 18 52  1  0
 19 53  1  0
 20 54  1  0
 22 55  1  0
 22 56  1  0
 23 57  1  0
 23 58  1  0
 23 59  1  0
 24 60  1  0
 26 61  1  0
 26 62  1  0
 27 63  1  0
 27 64  1  0
 28 65  1  0
 28 66  1  0
 29 67  1  0
 29 68  1  0
 30 69  1  0
 30 70  1  0
 31 71  1  0
 31 72  1  0
 32 73  1  0
 33 74  1  6
 34 75  1  0
 34 76  1  0
 34 77  1  0
M  CHG  5  14   1  23   1  24   1  26   1  30   1
M  END

>  <ID>
DiffSBDD_10_num_sample_50

>  <docking_score>
-8.419

$$$$
DiffSBDD_11_num_sample_50
     RDKit          3D

 69 72  0  0  0  0  0  0  0  0999 V2000
   11.8000   10.2100   -4.8470 O   0  0  0  0  0  0  0  0  0  0  0  0
   11.9110    9.2080   -4.0210 C   0  0  0  0  0  0  0  0  0  0  0  0
   12.1490    9.4280   -2.7030 C   0  0  0  0  0  0  0  0  0  0  0  0
   12.4700    8.2600   -1.8380 C   0  0  0  0  0  0  0  0  0  0  0  0
   11.8490    8.4240   -0.7090 F   0  0  0  0  0  0  0  0  0  0  0  0
   13.8730    8.4900   -1.4600 F   0  0  0  0  0  0  0  0  0  0  0  0
   12.3620    6.8640   -2.4040 C   0  0  0  0  0  0  0  0  0  0  0  0
   12.7940    5.9040   -1.6000 F   0  0  0  0  0  0  0  0  0  0  0  0
   11.8740    6.7470   -3.6760 C   0  0  0  0  0  0  0  0  0  0  0  0
   11.6450    7.7950   -4.5400 N   0  0  0  0  0  0  0  0  0  0  0  0
   11.0440    7.7010   -5.8590 C   0  0  1  0  0  0  0  0  0  0  0  0
   10.8260    8.9550   -6.8070 C   0  0  0  0  0  0  0  0  0  0  0  0
   11.4590    8.5370   -8.1530 C   0  0  0  0  0  0  0  0  0  0  0  0
   10.8250    7.4560   -8.7660 N   0  0  2  0  0  0  0  0  0  0  0  0
    9.9010    7.9080   -9.8640 C   0  0  0  0  0  0  0  0  0  0  0  0
    9.7710    6.8830  -11.0420 C   0  0  0  0  0  0  0  0  0  0  0  0
    9.3210    5.5950  -10.4720 C   0  0  2  0  0  0  0  0  0  0  0  0
    8.4480    4.7770  -11.3610 C   0  0  0  0  0  0  0  0  0  0  0  0
    7.0670    4.7050  -11.0010 O   0  0  0  0  0  0  0  0  0  0  0  0
    6.0220    4.3070  -11.7730 C   0  0  0  0  0  0  0  0  0  0  0  0
    6.1530    3.7130  -13.2340 C   0  0  0  0  0  0  0  0  0  0  0  0
    6.0800    2.1780  -13.0630 C   0  0  0  0  0  0  0  0  0  0  0  0
    6.7320    1.3320  -14.1020 C   0  0  1  0  0  0  0  0  0  0  0  0
    7.7910    0.7260  -13.2410 O   0  0  0  0  0  0  0  0  0  0  0  0
    5.7490    0.4960  -14.7860 C   0  0  0  0  0  0  0  0  0  0  0  0
    5.9240    0.5970  -16.4000 C   0  0  0  0  0  0  0  0  0  0  0  0
    7.3920    1.2180  -16.4000 C   0  0  0  0  0  0  0  0  0  0  0  0
    7.5760    1.9270  -15.1500 O   0  0  0  0  0  0  0  0  0  0  0  0
    8.7050    5.2590   -9.1340 C   0  0  1  0  0  0  0  0  0  0  0  0
    9.2030    3.9960   -8.7290 O   0  0  0  0  0  0  0  0  0  0  0  0
    8.8350    6.2060   -8.0520 C   0  0  0  0  0  0  0  0  0  0  0  0
   10.3040    6.3340   -7.7360 C   0  0  2  0  0  0  0  0  0  0  0  0
   11.1610    6.3790   -6.4160 C   0  0  0  0  0  0  0  0  0  0  0  0
   12.9979   10.1245   -2.6375 H   0  0  0  0  0  0  0  0  0  0  0  0
   11.1896    9.7985   -2.3127 H   0  0  0  0  0  0  0  0  0  0  0  0
   11.6458    5.7339   -4.0386 H   0  0  0  0  0  0  0  0  0  0  0  0
    9.9841    7.8896   -5.6331 H   0  0  0  0  0  0  0  0  0  0  0  0
    9.7538    9.1671   -6.9308 H   0  0  0  0  0  0  0  0  0  0  0  0
   11.2776    9.8713   -6.3990 H   0  0  0  0  0  0  0  0  0  0  0  0
   11.4160    9.3970   -8.8375 H   0  0  0  0  0  0  0  0  0  0  0  0
   12.4898    8.2203   -7.9356 H   0  0  0  0  0  0  0  0  0  0  0  0
   11.5300    6.9040   -9.2750 H   0  0  0  0  0  0  0  0  0  0  0  0
    8.9021    8.0691   -9.4325 H   0  0  0  0  0  0  0  0  0  0  0  0
   10.3304    8.8287  -10.2859 H   0  0  0  0  0  0  0  0  0  0  0  0
    9.0348    7.2458  -11.7743 H   0  0  0  0  0  0  0  0  0  0  0  0
   10.7371    6.7605  -11.5535 H   0  0  0  0  0  0  0  0  0  0  0  0
   10.3994    5.4387  -10.3213 H   0  0  0  0  0  0  0  0  0  0  0  0
    8.5085    5.2024  -12.3736 H   0  0  0  0  0  0  0  0  0  0  0  0
    8.8267    3.7477  -11.2771 H   0  0  0  0  0  0  0  0  0  0  0  0
    5.5006    3.5355  -11.1874 H   0  0  0  0  0  0  0  0  0  0  0  0
    5.5539    5.2779  -11.9927 H   0  0  0  0  0  0  0  0  0  0  0  0
    5.3284    4.0688  -13.8692 H   0  0  0  0  0  0  0  0  0  0  0  0
    7.0891    4.0258  -13.7197 H   0  0  0  0  0  0  0  0  0  0  0  0
    6.5485    1.9326  -12.0985 H   0  0  0  0  0  0  0  0  0  0  0  0
    5.0090    1.9406  -13.1441 H   0  0  0  0  0  0  0  0  0  0  0  0
    7.4050    0.4870  -12.3620 H   0  0  0  0  0  0  0  0  0  0  0  0
    5.8859   -0.5498  -14.4736 H   0  0  0  0  0  0  0  0  0  0  0  0
    4.7416    0.8479  -14.5190 H   0  0  0  0  0  0  0  0  0  0  0  0
    5.8838   -0.3872  -16.8897 H   0  0  0  0  0  0  0  0  0  0  0  0
    5.1518    1.1608  -16.9438 H   0  0  0  0  0  0  0  0  0  0  0  0
    8.1378    0.4141  -16.4869 H   0  0  0  0  0  0  0  0  0  0  0  0
    7.5180    1.9033  -17.2512 H   0  0  0  0  0  0  0  0  0  0  0  0
    7.6218    5.2758   -9.3249 H   0  0  0  0  0  0  0  0  0  0  0  0
    8.4640    3.3370   -8.7220 H   0  0  0  0  0  0  0  0  0  0  0  0
    8.4299    7.1823   -8.3566 H   0  0  0  0  0  0  0  0  0  0  0  0
    8.2769    5.8635   -7.1681 H   0  0  0  0  0  0  0  0  0  0  0  0
   10.4837    5.2489   -7.7174 H   0  0  0  0  0  0  0  0  0  0  0  0
   10.7822    5.6361   -5.6987 H   0  0  0  0  0  0  0  0  0  0  0  0
   12.2138    6.1462   -6.6339 H   0  0  0  0  0  0  0  0  0  0  0  0
  1  2  2  0
  2  3  1  0
  3  4  1  0
  4  5  1  0
  4  6  1  0
  4  7  1  0
  7  8  1  0
  7  9  2  0
  9 10  1  0
 10 11  1  0
 11 12  1  0
 12 13  1  0
 13 14  1  0
 14 15  1  0
 15 16  1  0
 16 17  1  0
 17 18  1  0
 18 19  1  0
 19 20  1  0
 20 21  1  0
 21 22  1  0
 22 23  1  0
 23 24  1  1
 23 25  1  0
 25 26  1  0
 26 27  1  0
 27 28  1  0
 17 29  1  0
 29 30  1  0
 29 31  1  0
 31 32  1  0
 32 33  1  0
 10  2  1  0
 33 11  1  0
 32 14  1  0
 28 23  1  0
  3 34  1  0
  3 35  1  0
  9 36  1  0
 11 37  1  1
 12 38  1  0
 12 39  1  0
 13 40  1  0
 13 41  1  0
 14 42  1  6
 15 43  1  0
 15 44  1  0
 16 45  1  0
 16 46  1  0
 17 47  1  1
 18 48  1  0
 18 49  1  0
 20 50  1  0
 20 51  1  0
 21 52  1  0
 21 53  1  0
 22 54  1  0
 22 55  1  0
 24 56  1  0
 25 57  1  0
 25 58  1  0
 26 59  1  0
 26 60  1  0
 27 61  1  0
 27 62  1  0
 29 63  1  6
 30 64  1  0
 31 65  1  0
 31 66  1  0
 32 67  1  6
 33 68  1  0
 33 69  1  0
M  CHG  1  14   1
M  END

>  <ID>
DiffSBDD_11_num_sample_50

>  <docking_score>
-10.274

$$$$
DiffSBDD_12_num_sample_50
     RDKit          3D

 66 67  0  0  0  0  0  0  0  0999 V2000
   11.1320    7.2810   -9.9260 C   0  0  0  0  0  0  0  0  0  0  0  0
    9.5960    6.8690   -9.9040 C   0  0  2  0  0  0  0  0  0  0  0  0
    9.3570    6.1720   -8.5370 C   0  0  2  0  0  0  0  0  0  0  0  0
   10.1020    6.3010   -7.6000 C   0  0  0  0  0  0  0  0  0  0  0  0
   10.3740    6.9550   -6.5490 C   0  0  0  0  0  0  0  0  0  0  0  0
   11.1770    8.0280   -5.8170 C   0  0  2  0  0  0  0  0  0  0  0  0
   11.3920    9.2620   -6.4200 C   0  0  0  0  0  0  0  0  0  0  0  0
   11.5730    7.8360   -4.5710 O   0  0  0  0  0  0  0  0  0  0  0  0
   11.8460    8.2230   -3.4560 C   0  0  2  0  0  0  0  0  0  0  0  0
   12.8700    8.5250   -2.9130 C   0  0  0  0  0  0  0  0  0  0  0  0
   13.6760    9.4430   -4.0600 F   0  0  0  0  0  0  0  0  0  0  0  0
   12.0030    7.1420   -2.4140 C   0  0  0  0  0  0  0  0  0  0  0  0
   12.8090    6.0810   -2.5830 F   0  0  0  0  0  0  0  0  0  0  0  0
   10.9750    6.5820   -2.1860 F   0  0  0  0  0  0  0  0  0  0  0  0
   12.7970    7.8400   -1.4320 F   0  0  0  0  0  0  0  0  0  0  0  0
    9.2540    4.7040   -9.0440 C   0  0  0  0  0  0  0  0  0  0  0  0
    8.8860    4.7920  -10.4360 C   0  0  0  0  0  0  0  0  0  0  0  0
    8.5350    5.3620  -11.6240 C   0  0  2  0  0  0  0  0  0  0  0  0
    8.2330    4.6640  -12.8790 C   0  0  2  0  0  0  0  0  0  0  0  0
    7.5920    5.3810  -14.0250 C   0  0  0  0  0  0  0  0  0  0  0  0
    6.2910    5.1920  -14.1530 C   0  0  0  0  0  0  0  0  0  0  0  0
    5.6100    5.2160  -12.9340 C   0  0  2  0  0  0  0  0  0  0  0  0
    6.2330    6.4720  -12.6440 C   0  0  0  0  0  0  0  0  0  0  0  0
    5.5740    7.7610  -12.4160 O   0  0  0  0  0  0  0  0  0  0  0  0
    5.8710    4.0970  -12.2830 C   0  0  0  0  0  0  0  0  0  0  0  0
    7.1740    3.6510  -12.4790 C   0  0  0  0  0  0  0  0  0  0  0  0
    8.9410    6.6460  -11.3320 C   0  0  2  0  0  0  0  0  0  0  0  0
    9.0330    8.0900  -11.4670 C   0  0  0  0  0  0  0  0  0  0  0  0
   11.5000    7.3797   -8.8941 H   0  0  0  0  0  0  0  0  0  0  0  0
   11.7119    6.5066  -10.4496 H   0  0  0  0  0  0  0  0  0  0  0  0
   11.2465    8.2416  -10.4496 H   0  0  0  0  0  0  0  0  0  0  0  0
    8.7504    7.5689   -9.8330 H   0  0  0  0  0  0  0  0  0  0  0  0
    8.5050    6.6389   -8.0211 H   0  0  0  0  0  0  0  0  0  0  0  0
   10.0384    5.2886   -7.1746 H   0  0  0  0  0  0  0  0  0  0  0  0
   10.7243    6.9901   -8.1898 H   0  0  0  0  0  0  0  0  0  0  0  0
    9.3646    7.3333   -6.3301 H   0  0  0  0  0  0  0  0  0  0  0  0
   11.1878    6.2431   -6.3465 H   0  0  0  0  0  0  0  0  0  0  0  0
   10.2512    8.4111   -5.3630 H   0  0  0  0  0  0  0  0  0  0  0  0
   11.5259   10.0306   -5.6446 H   0  0  0  0  0  0  0  0  0  0  0  0
   12.2949    9.2117   -7.0463 H   0  0  0  0  0  0  0  0  0  0  0  0
   10.5253    9.5201   -7.0463 H   0  0  0  0  0  0  0  0  0  0  0  0
   11.1099    9.0091   -3.6799 H   0  0  0  0  0  0  0  0  0  0  0  0
   12.6731    9.1157   -2.0062 H   0  0  0  0  0  0  0  0  0  0  0  0
   13.4506    7.6506   -2.5838 H   0  0  0  0  0  0  0  0  0  0  0  0
   10.2220    4.1929   -8.9356 H   0  0  0  0  0  0  0  0  0  0  0  0
    8.5160    4.1279   -8.4665 H   0  0  0  0  0  0  0  0  0  0  0  0
    9.7570    4.2425  -10.8225 H   0  0  0  0  0  0  0  0  0  0  0  0
    7.8553    4.9781  -10.0998 H   0  0  0  0  0  0  0  0  0  0  0  0
    7.6200    5.2612  -12.2262 H   0  0  0  0  0  0  0  0  0  0  0  0
    9.2188    4.3553  -13.2569 H   0  0  0  0  0  0  0  0  0  0  0  0
    7.7673    6.4588  -13.8922 H   0  0  0  0  0  0  0  0  0  0  0  0
    8.0501    4.9686  -14.9361 H   0  0  0  0  0  0  0  0  0  0  0  0
    5.8839    5.9856  -14.7968 H   0  0  0  0  0  0  0  0  0  0  0  0
    6.1468    4.1924  -14.5889 H   0  0  0  0  0  0  0  0  0  0  0  0
    4.5236    5.2036  -12.7620 H   0  0  0  0  0  0  0  0  0  0  0  0
    6.8201    6.2909  -11.7316 H   0  0  0  0  0  0  0  0  0  0  0  0
    6.6755    6.6767  -13.6301 H   0  0  0  0  0  0  0  0  0  0  0  0
    4.8500    7.8830  -13.0790 H   0  0  0  0  0  0  0  0  0  0  0  0
    5.7173    4.2718  -11.2079 H   0  0  0  0  0  0  0  0  0  0  0  0
    5.1937    3.3221  -12.6713 H   0  0  0  0  0  0  0  0  0  0  0  0
    7.5049    3.1898  -11.5367 H   0  0  0  0  0  0  0  0  0  0  0  0
    7.1016    2.9792  -13.3470 H   0  0  0  0  0  0  0  0  0  0  0  0
    8.0815    6.7640  -10.6557 H   0  0  0  0  0  0  0  0  0  0  0  0
    9.0623    8.5505  -10.4685 H   0  0  0  0  0  0  0  0  0  0  0  0
    9.9495    8.3492  -12.0174 H   0  0  0  0  0  0  0  0  0  0  0  0
    8.1568    8.4634  -12.0174 H   0  0  0  0  0  0  0  0  0  0  0  0
  1  2  1  0
  2  3  1  0
  3  4  1  0
  4  5  1  0
  5  6  1  0
  6  7  1  0
  6  8  1  0
  8  9  1  0
  9 10  1  0
 10 11  1  0
  9 12  1  0
 12 13  1  0
 12 14  1  0
 12 15  1  0
  3 16  1  0
 16 17  1  0
 17 18  1  0
 18 19  1  0
 19 20  1  0
 20 21  1  0
 21 22  1  0
 22 23  1  0
 23 24  1  0
 22 25  1  0
 25 26  1  0
 18 27  1  0
 27 28  1  0
 27  2  1  0
 26 19  1  0
  1 29  1  0
  1 30  1  0
  1 31  1  0
  2 32  1  1
  3 33  1  1
  4 34  1  0
  4 35  1  0
  5 36  1  0
  5 37  1  0
  6 38  1  6
  7 39  1  0
  7 40  1  0
  7 41  1  0
  9 42  1  1
 10 43  1  0
 10 44  1  0
 16 45  1  0
 16 46  1  0
 17 47  1  0
 17 48  1  0
 18 49  1  1
 19 50  1  1
 20 51  1  0
 20 52  1  0
 21 53  1  0
 21 54  1  0
 22 55  1  1
 23 56  1  0
 23 57  1  0
 24 58  1  0
 25 59  1  0
 25 60  1  0
 26 61  1  0
 26 62  1  0
 27 63  1  6
 28 64  1  0
 28 65  1  0
 28 66  1  0
M  END

>  <ID>
DiffSBDD_12_num_sample_50

>  <docking_score>
-10.233

$$$$
DiffSBDD_13_num_sample_50
     RDKit          3D

 46 50  0  0  0  0  0  0  0  0999 V2000
   13.2700    8.9210   -0.6380 O   0  0  0  0  0  0  0  0  0  0  0  0
   12.7680    8.3410   -1.6980 C   0  0  0  0  0  0  0  0  0  0  0  0
   12.5940    6.9690   -1.7740 C   0  0  0  0  0  0  0  0  0  0  0  0
   12.0100    6.3420   -2.8830 C   0  0  0  0  0  0  0  0  0  0  0  0
   11.7100    7.1340   -4.0180 C   0  0  0  0  0  0  0  0  0  0  0  0
   11.2000    6.7000   -5.3000 C   0  0  0  0  0  0  0  0  0  0  0  0
   11.2040    7.5660   -6.3460 C   0  0  0  0  0  0  0  0  0  0  0  0
   10.8850    7.3580   -7.7500 C   0  0  0  0  0  0  0  0  0  0  0  0
   11.5920    8.0080   -8.8800 C   0  0  0  0  0  0  0  0  0  0  0  0
   10.9860    8.0170  -10.1090 C   0  0  0  0  0  0  0  0  0  0  0  0
    9.7830    7.2450  -10.3320 C   0  0  0  0  0  0  0  0  0  0  0  0
    9.0850    7.4500  -11.7350 C   0  0  2  0  0  0  0  0  0  0  0  0
    8.2790    8.6450  -11.7870 O   0  0  0  0  0  0  0  0  0  0  0  0
    8.1430    6.2590  -11.9300 N   0  0  0  0  0  0  0  0  0  0  0  0
    7.0780    6.3590  -13.0510 C   0  0  2  0  0  0  0  0  0  0  0  0
    6.0380    5.8260  -14.0940 C   0  0  0  0  0  0  0  0  0  0  0  0
    5.8320    4.2940  -13.9730 C   0  0  0  0  0  0  0  0  0  0  0  0
    7.2140    3.4400  -13.8930 C   0  0  0  0  0  0  0  0  0  0  0  0
    8.0640    3.9290  -12.7780 C   0  0  0  0  0  0  0  0  0  0  0  0
    8.3040    5.4220  -13.0730 C   0  0  2  0  0  0  0  0  0  0  0  0
    9.3700    6.2860   -9.3500 C   0  0  0  0  0  0  0  0  0  0  0  0
    8.2940    5.0780   -9.5110 Cl  0  0  0  0  0  0  0  0  0  0  0  0
    9.8860    6.4170   -8.0160 C   0  0  0  0  0  0  0  0  0  0  0  0
   11.6550    9.1550   -5.7540 S   0  0  0  0  0  0  0  0  0  0  0  0
   12.0140    8.5310   -4.0230 C   0  0  0  0  0  0  0  0  0  0  0  0
   12.5090    9.1320   -2.8360 C   0  0  0  0  0  0  0  0  0  0  0  0
   12.7230    9.0110    0.1830 H   0  0  0  0  0  0  0  0  0  0  0  0
   12.9274    6.3468   -0.9304 H   0  0  0  0  0  0  0  0  0  0  0  0
   11.7906    5.2641   -2.8721 H   0  0  0  0  0  0  0  0  0  0  0  0
   10.8126    5.6783   -5.4265 H   0  0  0  0  0  0  0  0  0  0  0  0
   12.5789    8.4717   -8.7351 H   0  0  0  0  0  0  0  0  0  0  0  0
   11.4153    8.6127  -10.9280 H   0  0  0  0  0  0  0  0  0  0  0  0
    9.8648    7.5343  -12.5062 H   0  0  0  0  0  0  0  0  0  0  0  0
    8.8030    9.4120  -11.4450 H   0  0  0  0  0  0  0  0  0  0  0  0
    6.3870    7.2141  -13.0876 H   0  0  0  0  0  0  0  0  0  0  0  0
    5.0745    6.3290  -13.9246 H   0  0  0  0  0  0  0  0  0  0  0  0
    6.4248    6.0397  -15.1013 H   0  0  0  0  0  0  0  0  0  0  0  0
    5.2502    4.0951  -13.0609 H   0  0  0  0  0  0  0  0  0  0  0  0
    5.3135    3.9714  -14.8879 H   0  0  0  0  0  0  0  0  0  0  0  0
    6.9749    2.3791  -13.7275 H   0  0  0  0  0  0  0  0  0  0  0  0
    7.7628    3.5621  -14.8385 H   0  0  0  0  0  0  0  0  0  0  0  0
    7.5458    3.8050  -11.8157 H   0  0  0  0  0  0  0  0  0  0  0  0
    9.0079    3.3687  -12.7062 H   0  0  0  0  0  0  0  0  0  0  0  0
    9.0932    5.2549  -13.8208 H   0  0  0  0  0  0  0  0  0  0  0  0
    9.4971    5.7802   -7.2078 H   0  0  0  0  0  0  0  0  0  0  0  0
   12.6908   10.2164   -2.8040 H   0  0  0  0  0  0  0  0  0  0  0  0
  1  2  1  0
  2  3  2  0
  3  4  1  0
  4  5  2  0
  5  6  1  0
  6  7  2  0
  7  8  1  0
  8  9  2  0
  9 10  1  0
 10 11  2  0
 11 12  1  0
 12 13  1  0
 12 14  1  0
 14 15  1  0
 15 16  1  0
 16 17  1  0
 17 18  1  0
 18 19  1  0
 19 20  1  0
 11 21  1  0
 21 22  1  0
 21 23  2  0
  7 24  1  0
 24 25  1  0
 25 26  2  0
 26  2  1  0
 25  5  1  0
 23  8  1  0
 20 14  1  0
 20 15  1  0
  1 27  1  0
  3 28  1  0
  4 29  1  0
  6 30  1  0
  9 31  1  0
 10 32  1  0
 12 33  1  6
 13 34  1  0
 15 35  1  6
 16 36  1  0
 16 37  1  0
 17 38  1  0
 17 39  1  0
 18 40  1  0
 18 41  1  0
 19 42  1  0
 19 43  1  0
 20 44  1  6
 23 45  1  0
 26 46  1  0
M  END

>  <ID>
DiffSBDD_13_num_sample_50

>  <docking_score>
-11.066

$$$$
DiffSBDD_14_num_sample_50
     RDKit          3D

 69 73  0  0  0  0  0  0  0  0999 V2000
    8.1050    2.6590  -17.0580 C   0  0  0  0  0  0  0  0  0  0  0  0
    7.5400    1.2610  -16.7380 C   0  0  2  0  0  0  0  0  0  0  0  0
    7.0950    0.8560  -15.4160 C   0  0  0  0  0  0  0  0  0  0  0  0
    7.1350    1.3790  -13.9780 C   0  0  0  0  0  0  0  0  0  0  0  0
    7.4280    0.7700  -12.8790 O   0  0  0  0  0  0  0  0  0  0  0  0
    6.9500    2.6520  -13.7480 N   0  0  0  0  0  0  0  0  0  0  0  0
    7.8240    3.2000  -12.5820 C   0  0  0  0  0  0  0  0  0  0  0  0
    7.4700    4.6530  -12.7110 C   0  0  1  0  0  0  0  0  0  0  0  0
    8.1320    5.7240  -13.4800 O   0  0  0  0  0  0  0  0  0  0  0  0
    7.5670    6.8770  -12.7580 C   0  0  2  0  0  0  0  0  0  0  0  0
    8.3430    6.5740  -11.5780 N   0  0  0  0  0  0  0  0  0  0  0  0
    9.5280    7.6110  -11.1940 C   0  0  0  0  0  0  0  0  0  0  0  0
    9.8110    7.3780   -9.8660 C   0  0  0  0  0  0  0  0  0  0  0  0
    9.3890    6.2150   -9.2850 C   0  0  0  0  0  0  0  0  0  0  0  0
    9.7730    5.9560   -7.9880 C   0  0  0  0  0  0  0  0  0  0  0  0
   10.5460    6.8580   -7.1990 C   0  0  0  0  0  0  0  0  0  0  0  0
   11.1970    8.0420   -7.8900 C   0  0  0  0  0  0  0  0  0  0  0  0
   10.6970    8.3230   -9.1250 C   0  0  0  0  0  0  0  0  0  0  0  0
   11.8990    8.9100   -7.0750 O   0  0  0  0  0  0  0  0  0  0  0  0
   11.3380    9.3830   -5.8450 C   0  0  0  0  0  0  0  0  0  0  0  0
   11.4720    8.0140   -5.2850 C   0  0  0  0  0  0  0  0  0  0  0  0
   10.8490    6.7720   -5.8490 O   0  0  0  0  0  0  0  0  0  0  0  0
    6.1370    6.5750  -12.9310 C   0  0  0  0  0  0  0  0  0  0  0  0
    6.0650    5.1000  -12.5200 C   0  0  2  0  0  0  0  0  0  0  0  0
    5.7280    5.1370  -11.1020 O   0  0  0  0  0  0  0  0  0  0  0  0
    7.6490    0.1520  -17.7960 C   0  0  2  0  0  0  0  0  0  0  0  0
    8.8360    0.2610  -18.8070 C   0  0  1  0  0  0  0  0  0  0  0  0
   10.3600    0.0880  -18.3560 C   0  0  0  0  0  0  0  0  0  0  0  0
    8.4100   -1.2260  -19.9720 S   0  0  0  0  0  0  0  0  0  0  0  0
    6.7740   -0.4490  -19.9980 C   0  0  0  0  0  0  0  0  0  0  0  0
    6.3900    0.3210  -18.7930 C   0  0  0  0  0  0  0  0  0  0  0  0
    5.3600    1.3630  -19.3020 C   0  0  0  0  0  0  0  0  0  0  0  0
    4.9090    0.2750  -18.3620 C   0  0  0  0  0  0  0  0  0  0  0  0
    8.3201    3.1912  -16.1196 H   0  0  0  0  0  0  0  0  0  0  0  0
    9.0318    2.5552  -17.6414 H   0  0  0  0  0  0  0  0  0  0  0  0
    7.3664    3.2283  -17.6414 H   0  0  0  0  0  0  0  0  0  0  0  0
    6.6481    1.8978  -16.8334 H   0  0  0  0  0  0  0  0  0  0  0  0
    6.0150    0.7211  -15.5751 H   0  0  0  0  0  0  0  0  0  0  0  0
    7.9594    0.1932  -15.2625 H   0  0  0  0  0  0  0  0  0  0  0  0
    6.2920    3.2350  -14.2850 H   0  0  0  0  0  0  0  0  0  0  0  0
    7.5255    2.7845  -11.6082 H   0  0  0  0  0  0  0  0  0  0  0  0
    8.8965    2.9609  -12.6325 H   0  0  0  0  0  0  0  0  0  0  0  0
    8.1745    4.4945  -11.8812 H   0  0  0  0  0  0  0  0  0  0  0  0
    7.6130    7.9596  -12.9471 H   0  0  0  0  0  0  0  0  0  0  0  0
    8.7720    5.6490  -11.7170 H   0  0  0  0  0  0  0  0  0  0  0  0
   10.4171    7.4242  -11.8142 H   0  0  0  0  0  0  0  0  0  0  0  0
    9.2267    8.6545  -11.3680 H   0  0  0  0  0  0  0  0  0  0  0  0
    8.7587    5.5040   -9.8392 H   0  0  0  0  0  0  0  0  0  0  0  0
    9.4667    5.0011   -7.5359 H   0  0  0  0  0  0  0  0  0  0  0  0
   10.9561    9.2834   -9.5945 H   0  0  0  0  0  0  0  0  0  0  0  0
   11.9462   10.1431   -5.3328 H   0  0  0  0  0  0  0  0  0  0  0  0
   10.3711    9.9072   -5.8300 H   0  0  0  0  0  0  0  0  0  0  0  0
   12.5533    7.8131   -5.2670 H   0  0  0  0  0  0  0  0  0  0  0  0
   10.8769    8.1251   -4.3666 H   0  0  0  0  0  0  0  0  0  0  0  0
    5.5148    7.2023  -12.2757 H   0  0  0  0  0  0  0  0  0  0  0  0
    5.7649    6.7685  -13.9479 H   0  0  0  0  0  0  0  0  0  0  0  0
    5.3532    4.4574  -13.0588 H   0  0  0  0  0  0  0  0  0  0  0  0
    6.5370    5.3530  -10.5760 H   0  0  0  0  0  0  0  0  0  0  0  0
    7.7428   -0.7701  -17.2036 H   0  0  0  0  0  0  0  0  0  0  0  0
    8.8647    1.3002  -19.1666 H   0  0  0  0  0  0  0  0  0  0  0  0
   10.4188    0.0813  -17.2576 H   0  0  0  0  0  0  0  0  0  0  0  0
   10.7536   -0.8606  -18.7500 H   0  0  0  0  0  0  0  0  0  0  0  0
   10.9562    0.9242  -18.7500 H   0  0  0  0  0  0  0  0  0  0  0  0
    6.7434    0.2373  -20.8571 H   0  0  0  0  0  0  0  0  0  0  0  0
    6.0569   -1.2813  -20.0529 H   0  0  0  0  0  0  0  0  0  0  0  0
    5.4136    2.4039  -18.9505 H   0  0  0  0  0  0  0  0  0  0  0  0
    5.0374    1.7121  -20.2940 H   0  0  0  0  0  0  0  0  0  0  0  0
    4.6325    0.5261  -17.3274 H   0  0  0  0  0  0  0  0  0  0  0  0
    4.1208   -0.4917  -18.3913 H   0  0  0  0  0  0  0  0  0  0  0  0
  1  2  1  0
  2  3  1  0
  3  4  1  0
  4  5  2  0
  4  6  1  0
  6  7  1  0
  7  8  1  0
  8  9  1  0
  9 10  1  0
 10 11  1  0
 11 12  1  0
 12 13  1  0
 13 14  2  0
 14 15  1  0
 15 16  2  0
 16 17  1  0
 17 18  2  0
 17 19  1  0
 19 20  1  0
 20 21  1  0
 21 22  1  0
 10 23  1  0
 23 24  1  0
 24 25  1  0
  2 26  1  0
 26 27  1  0
 27 28  1  0
 27 29  1  0
 29 30  1  0
 30 31  1  0
 31 32  1  0
 32 33  1  0
 24  8  1  0
 31 26  1  0
 18 13  1  0
 33 31  1  0
 22 16  1  0
  1 34  1  0
  1 35  1  0
  1 36  1  0
  2 37  1  6
  3 38  1  0
  3 39  1  0
  6 40  1  0
  7 41  1  0
  7 42  1  0
  8 43  1  1
 10 44  1  6
 11 45  1  0
 12 46  1  0
 12 47  1  0
 14 48  1  0
 15 49  1  0
 18 50  1  0
 20 51  1  0
 20 52  1  0
 21 53  1  0
 21 54  1  0
 23 55  1  0
 23 56  1  0
 24 57  1  6
 25 58  1  0
 26 59  1  1
 27 60  1  6
 28 61  1  0
 28 62  1  0
 28 63  1  0
 30 64  1  0
 30 65  1  0
 32 66  1  0
 32 67  1  0
 33 68  1  0
 33 69  1  0
M  END

>  <ID>
DiffSBDD_14_num_sample_50

>  <docking_score>
-9.205

$$$$
DiffSBDD_15_num_sample_50
     RDKit          3D

104108  0  0  0  0  0  0  0  0999 V2000
    7.1690    0.2460  -13.2750 C   0  0  0  0  0  0  0  0  0  0  0  0
    6.0380    0.9830  -13.9400 C   0  0  0  0  0  0  0  0  0  0  0  0
    6.7760    1.9730  -14.8830 C   0  0  0  0  0  0  0  0  0  0  0  0
    7.5100    2.6210  -14.4180 O   0  0  0  0  0  0  0  0  0  0  0  0
    6.8800    1.4850  -16.3340 C   0  0  0  0  0  0  0  0  0  0  0  0
    6.0910    0.5670  -16.8780 C   0  0  0  0  0  0  0  0  0  0  0  0
    6.3800    0.3670  -18.2310 C   0  0  0  0  0  0  0  0  0  0  0  0
    7.4810    0.8950  -18.7710 C   0  0  0  0  0  0  0  0  0  0  0  0
    8.4760    1.6800  -18.0870 C   0  0  0  0  0  0  0  0  0  0  0  0
    9.5290    2.8290  -18.4860 C   0  0  1  0  0  0  0  0  0  0  0  0
    9.0190    3.8060  -19.4640 C   0  0  0  0  0  0  0  0  0  0  0  0
    9.3260    5.2350  -18.9520 C   0  0  1  0  0  0  0  0  0  0  0  0
    8.2560    6.0210  -19.6770 C   0  0  0  0  0  0  0  0  0  0  0  0
    7.2680    6.7400  -18.9260 C   0  0  0  0  0  0  0  0  0  0  0  0
    6.3880    5.6980  -18.3030 C   0  0  2  0  0  0  0  0  0  0  0  0
    5.5210    4.9310  -19.2170 C   0  0  0  0  0  0  0  0  0  0  0  0
    5.5900    3.5830  -19.4220 F   0  0  0  0  0  0  0  0  0  0  0  0
    5.5270    6.3090  -17.1740 C   0  0  0  0  0  0  0  0  0  0  0  0
    5.9890    7.7830  -16.7840 C   0  0  0  0  0  0  0  0  0  0  0  0
    4.1120    6.6590  -17.7370 C   0  0  0  0  0  0  0  0  0  0  0  0
    6.0340    5.3060  -16.0510 C   0  0  0  0  0  0  0  0  0  0  0  0
    7.1670    5.9050  -15.1970 C   0  0  0  0  0  0  0  0  0  0  0  0
    7.0740    6.2710  -13.9540 C   0  0  1  0  0  0  0  0  0  0  0  0
    5.8390    6.2490  -13.2680 C   0  0  0  0  0  0  0  0  0  0  0  0
    6.0970    5.9220  -11.9060 C   0  0  0  0  0  0  0  0  0  0  0  0
    7.3240    4.9460  -11.9470 N   0  0  0  0  0  0  0  0  0  0  0  0
    8.5900    4.3470  -11.4110 C   0  0  0  0  0  0  0  0  0  0  0  0
    9.0800    3.3930  -11.9440 O   0  0  0  0  0  0  0  0  0  0  0  0
    9.4080    5.1460  -10.3700 C   0  0  2  0  0  0  0  0  0  0  0  0
    9.4170    4.4060   -9.0120 C   0  0  0  0  0  0  0  0  0  0  0  0
    8.6010    5.1510   -7.8540 C   0  0  0  0  0  0  0  0  0  0  0  0
    9.4660    6.2770   -7.3320 C   0  0  0  0  0  0  0  0  0  0  0  0
    9.8590    7.4150   -8.1140 C   0  0  0  0  0  0  0  0  0  0  0  0
   10.4880    8.3380   -7.5230 O   0  0  0  0  0  0  0  0  0  0  0  0
    9.2340    7.6310   -9.5120 C   0  0  1  0  0  0  0  0  0  0  0  0
    9.2070    9.1760   -9.7640 C   0  0  0  0  0  0  0  0  0  0  0  0
    9.7510    6.6630  -10.6930 C   0  0  1  0  0  0  0  0  0  0  0  0
   11.0070    7.1470  -11.0950 O   0  0  0  0  0  0  0  0  0  0  0  0
    8.8590    6.8540  -12.0990 C   0  0  1  0  0  0  0  0  0  0  0  0
    8.9670    8.2290  -12.4960 O   0  0  0  0  0  0  0  0  0  0  0  0
    8.2670    5.7710  -13.0680 C   0  0  2  0  0  0  0  0  0  0  0  0
    9.2610    5.4060  -14.0180 O   0  0  0  0  0  0  0  0  0  0  0  0
   10.1870    5.1980  -17.6730 C   0  0  0  0  0  0  0  0  0  0  0  0
   10.7510    4.0630  -16.9610 O   0  0  0  0  0  0  0  0  0  0  0  0
   10.7200    2.8340  -17.7420 C   0  0  2  0  0  0  0  0  0  0  0  0
   11.4870    1.7170  -17.7710 O   0  0  0  0  0  0  0  0  0  0  0  0
   12.9280    2.3240  -17.8290 C   0  0  0  0  0  0  0  0  0  0  0  0
    8.0250    1.9770  -16.8380 C   0  0  0  0  0  0  0  0  0  0  0  0
    7.0606    0.3166  -12.1826 H   0  0  0  0  0  0  0  0  0  0  0  0
    7.1462   -0.8112  -13.5781 H   0  0  0  0  0  0  0  0  0  0  0  0
    8.1269    0.6938  -13.5781 H   0  0  0  0  0  0  0  0  0  0  0  0
    5.3986    0.2942  -14.5115 H   0  0  0  0  0  0  0  0  0  0  0  0
    5.3656    1.4819  -13.2266 H   0  0  0  0  0  0  0  0  0  0  0  0
    5.3040    0.0281  -16.3300 H   0  0  0  0  0  0  0  0  0  0  0  0
    5.6966   -0.2286  -18.8541 H   0  0  0  0  0  0  0  0  0  0  0  0
    7.6441    0.7126  -19.8434 H   0  0  0  0  0  0  0  0  0  0  0  0
   10.3836    3.0956  -19.1252 H   0  0  0  0  0  0  0  0  0  0  0  0
    9.5112    3.6479  -20.4350 H   0  0  0  0  0  0  0  0  0  0  0  0
    7.9332    3.6791  -19.5862 H   0  0  0  0  0  0  0  0  0  0  0  0
   10.0195    6.0879  -18.9908 H   0  0  0  0  0  0  0  0  0  0  0  0
    8.7745    6.7575  -20.3084 H   0  0  0  0  0  0  0  0  0  0  0  0
    7.6709    5.2430  -20.1893 H   0  0  0  0  0  0  0  0  0  0  0  0
    7.7485    7.3505  -18.1473 H   0  0  0  0  0  0  0  0  0  0  0  0
    6.6926    7.4247  -19.5664 H   0  0  0  0  0  0  0  0  0  0  0  0
    7.1067    4.9636  -17.9104 H   0  0  0  0  0  0  0  0  0  0  0  0
    4.4934    5.1221  -18.8741 H   0  0  0  0  0  0  0  0  0  0  0  0
    5.8884    5.2957  -20.1876 H   0  0  0  0  0  0  0  0  0  0  0  0
    6.0194    7.8800  -15.6887 H   0  0  0  0  0  0  0  0  0  0  0  0
    6.9903    7.9747  -17.1970 H   0  0  0  0  0  0  0  0  0  0  0  0
    5.2763    8.5120  -17.1970 H   0  0  0  0  0  0  0  0  0  0  0  0
    3.4172    6.8308  -16.9017 H   0  0  0  0  0  0  0  0  0  0  0  0
    4.1770    7.5681  -18.3528 H   0  0  0  0  0  0  0  0  0  0  0  0
    3.7457    5.8244  -18.3528 H   0  0  0  0  0  0  0  0  0  0  0  0
    5.1890    5.0568  -15.3923 H   0  0  0  0  0  0  0  0  0  0  0  0
    6.4302    4.4116  -16.5541 H   0  0  0  0  0  0  0  0  0  0  0  0
    7.9711    5.1546  -15.2173 H   0  0  0  0  0  0  0  0  0  0  0  0
    7.2622    6.8905  -15.6762 H   0  0  0  0  0  0  0  0  0  0  0  0
    7.1472    7.3561  -14.1192 H   0  0  0  0  0  0  0  0  0  0  0  0
    5.3599    7.2372  -13.3302 H   0  0  0  0  0  0  0  0  0  0  0  0
    5.1653    5.5051  -13.7183 H   0  0  0  0  0  0  0  0  0  0  0  0
    6.3423    6.8271  -11.3311 H   0  0  0  0  0  0  0  0  0  0  0  0
    5.2229    5.4658  -11.4184 H   0  0  0  0  0  0  0  0  0  0  0  0
   10.4987    5.2886  -10.3755 H   0  0  0  0  0  0  0  0  0  0  0  0
    8.9752    3.4094   -9.1591 H   0  0  0  0  0  0  0  0  0  0  0  0
   10.4656    4.3626   -8.6824 H   0  0  0  0  0  0  0  0  0  0  0  0
    7.6622    5.5568   -8.2590 H   0  0  0  0  0  0  0  0  0  0  0  0
    8.3536    4.4486   -7.0444 H   0  0  0  0  0  0  0  0  0  0  0  0
    8.9323    6.6838   -6.4604 H   0  0  0  0  0  0  0  0  0  0  0  0
   10.4305    5.7620   -7.2120 H   0  0  0  0  0  0  0  0  0  0  0  0
    8.1954    7.2689   -9.5274 H   0  0  0  0  0  0  0  0  0  0  0  0
    9.1978    9.7047   -8.7994 H   0  0  0  0  0  0  0  0  0  0  0  0
   10.1001    9.4701  -10.3348 H   0  0  0  0  0  0  0  0  0  0  0  0
    8.3041    9.4387  -10.3348 H   0  0  0  0  0  0  0  0  0  0  0  0
   11.4960    6.4340  -11.5780 H   0  0  0  0  0  0  0  0  0  0  0  0
    7.9622    6.2545  -11.8838 H   0  0  0  0  0  0  0  0  0  0  0  0
    8.1070    8.5290  -12.8840 H   0  0  0  0  0  0  0  0  0  0  0  0
    9.6350    4.5210  -13.7800 H   0  0  0  0  0  0  0  0  0  0  0  0
   11.0591    5.8222  -17.9178 H   0  0  0  0  0  0  0  0  0  0  0  0
    9.3906    5.4402  -16.9539 H   0  0  0  0  0  0  0  0  0  0  0  0
   10.0716    2.3691  -16.9847 H   0  0  0  0  0  0  0  0  0  0  0  0
   13.3011    2.4812  -16.8062 H   0  0  0  0  0  0  0  0  0  0  0  0
   13.5966    1.6311  -18.3608 H   0  0  0  0  0  0  0  0  0  0  0  0
   12.8993    3.2865  -18.3608 H   0  0  0  0  0  0  0  0  0  0  0  0
    8.6260    2.6519  -16.2108 H   0  0  0  0  0  0  0  0  0  0  0  0
  1  2  1  0
  2  3  1  0
  3  4  2  0
  3  5  1  0
  5  6  2  0
  6  7  1  0
  7  8  2  0
  8  9  1  0
  9 10  1  0
 10 11  1  0
 11 12  1  0
 12 13  1  0
 13 14  1  0
 14 15  1  0
 15 16  1  0
 16 17  1  0
 15 18  1  0
 18 19  1  0
 18 20  1  0
 18 21  1  0
 21 22  1  0
 22 23  1  0
 23 24  1  0
 24 25  1  0
 25 26  1  0
 26 27  1  0
 27 28  2  0
 27 29  1  0
 29 30  1  0
 30 31  1  0
 31 32  1  0
 32 33  1  0
 33 34  2  0
 33 35  1  0
 35 36  1  0
 35 37  1  0
 37 38  1  6
 37 39  1  0
 39 40  1  0
 39 41  1  0
 41 42  1  6
 12 43  1  0
 43 44  1  0
 44 45  1  0
 45 46  1  0
 46 47  1  0
  9 48  2  0
 48  5  1  0
 45 10  1  0
 41 23  1  0
 41 26  1  0
 37 29  1  0
  1 49  1  0
  1 50  1  0
  1 51  1  0
  2 52  1  0
  2 53  1  0
  6 54  1  0
  7 55  1  0
  8 56  1  0
 10 57  1  6
 11 58  1  0
 11 59  1  0
 12 60  1  6
 13 61  1  0
 13 62  1  0
 14 63  1  0
 14 64  1  0
 15 65  1  1
 16 66  1  0
 16 67  1  0
 19 68  1  0
 19 69  1  0
 19 70  1  0
 20 71  1  0
 20 72  1  0
 20 73  1  0
 21 74  1  0
 21 75  1  0
 22 76  1  0
 22 77  1  0
 23 78  1  6
 24 79  1  0
 24 80  1  0
 25 81  1  0
 25 82  1  0
 29 83  1  6
 30 84  1  0
 30 85  1  0
 31 86  1  0
 31 87  1  0
 32 88  1  0
 32 89  1  0
 35 90  1  1
 36 91  1  0
 36 92  1  0
 36 93  1  0
 38 94  1  0
 39 95  1  1
 40 96  1  0
 42 97  1  0
 43 98  1  0
 43 99  1  0
 45100  1  6
 47101  1  0
 47102  1  0
 47103  1  0
 48104  1  0
M  END

>  <ID>
DiffSBDD_15_num_sample_50

>  <docking_score>
-8.17

$$$$
DiffSBDD_16_num_sample_50
     RDKit          3D

 74 79  0  0  0  0  0  0  0  0999 V2000
   11.0060    6.9340  -12.3940 C   0  0  0  0  0  0  0  0  0  0  0  0
    9.9480    6.6080  -11.5790 S   0  0  1  0  0  4  0  0  0  0  0  0
    9.5820    8.0310  -11.1620 F   0  0  0  0  0  0  0  0  0  0  0  0
    9.1000    5.2950  -12.3930 C   0  0  0  0  0  0  0  0  0  0  0  0
    8.0820    4.6940  -11.3410 C   0  0  2  0  0  0  0  0  0  0  0  0
    6.6340    4.8270  -12.2770 C   0  0  0  0  0  0  0  0  0  0  0  0
    5.9380    3.9000  -12.7940 C   0  0  0  0  0  0  0  0  0  0  0  0
    5.9300    2.4630  -12.9250 C   0  0  0  0  0  0  0  0  0  0  0  0
    6.5400    1.7170  -13.7780 C   0  0  0  0  0  0  0  0  0  0  0  0
    7.2650    0.7190  -14.1460 C   0  0  0  0  0  0  0  0  0  0  0  0
    6.9450    1.1430  -15.3870 C   0  0  2  0  0  0  0  0  0  0  0  0
    7.4630    2.4840  -15.9530 C   0  0  0  0  0  0  0  0  0  0  0  0
    7.9900    1.3220  -16.4200 C   0  0  2  0  0  0  0  0  0  0  0  0
    7.0660    1.0740  -17.7600 C   0  0  0  0  0  0  0  0  0  0  0  0
    5.5670    0.5610  -16.9390 C   0  0  0  0  0  0  0  0  0  0  0  0
    4.8210   -0.1010  -15.8440 C   0  0  0  0  0  0  0  0  0  0  0  0
    6.1520   -0.1160  -15.7710 C   0  0  2  0  0  0  0  0  0  0  0  0
    7.8720    5.0610  -10.1180 C   0  0  0  0  0  0  0  0  0  0  0  0
    8.9610    5.7410   -9.4500 C   0  0  0  0  0  0  0  0  0  0  0  0
   10.0540    6.3780   -9.9760 C   0  0  0  0  0  0  0  0  0  0  0  0
   10.4360    6.9090   -8.1880 C   0  0  0  0  0  0  0  0  0  0  0  0
   10.8280    6.1120   -7.1770 C   0  0  0  0  0  0  0  0  0  0  0  0
   11.2260    6.5420   -5.9390 C   0  0  0  0  0  0  0  0  0  0  0  0
   11.2070    7.9230   -5.6210 C   0  0  0  0  0  0  0  0  0  0  0  0
   11.6220    8.6940   -4.3670 C   0  0  2  0  0  0  0  0  0  0  0  0
   11.8410   10.0550   -4.4290 C   0  0  0  0  0  0  0  0  0  0  0  0
   11.9330   10.5270   -3.1790 N   0  0  0  0  0  0  0  0  0  0  0  0
   11.8000    9.5620   -2.3110 N   0  0  0  0  0  0  0  0  0  0  0  0
   11.7740    8.3570   -3.0020 C   0  0  1  0  0  0  0  0  0  0  0  0
   11.9600    7.0240   -2.3960 C   0  0  0  0  0  0  0  0  0  0  0  0
   10.8450    6.7520   -1.5670 N   0  0  0  0  0  0  0  0  0  0  0  0
   12.8200    6.2260   -2.5860 O   0  0  0  0  0  0  0  0  0  0  0  0
   10.7180    8.7310   -6.6650 C   0  0  0  0  0  0  0  0  0  0  0  0
   10.3220    8.2270   -7.8890 C   0  0  0  0  0  0  0  0  0  0  0  0
   11.8758    7.2020  -11.7762 H   0  0  0  0  0  0  0  0  0  0  0  0
   11.2589    6.0721  -13.0290 H   0  0  0  0  0  0  0  0  0  0  0  0
   10.7299    7.7887  -13.0290 H   0  0  0  0  0  0  0  0  0  0  0  0
    8.5576    5.6792  -13.2694 H   0  0  0  0  0  0  0  0  0  0  0  0
    9.8038    4.5275  -12.7474 H   0  0  0  0  0  0  0  0  0  0  0  0
    8.5367    3.7493  -11.0080 H   0  0  0  0  0  0  0  0  0  0  0  0
    5.9324    5.3669  -11.6241 H   0  0  0  0  0  0  0  0  0  0  0  0
    7.0767    5.2286  -13.2004 H   0  0  0  0  0  0  0  0  0  0  0  0
    4.9574    4.0806  -12.3295 H   0  0  0  0  0  0  0  0  0  0  0  0
    6.4039    4.0354  -13.7812 H   0  0  0  0  0  0  0  0  0  0  0  0
    6.2797    2.0994  -11.9475 H   0  0  0  0  0  0  0  0  0  0  0  0
    4.9127    2.3537  -13.3289 H   0  0  0  0  0  0  0  0  0  0  0  0
    5.6713    1.4991  -14.4166 H   0  0  0  0  0  0  0  0  0  0  0  0
    7.4696    2.2394  -13.5078 H   0  0  0  0  0  0  0  0  0  0  0  0
    8.3310    0.7849  -13.8827 H   0  0  0  0  0  0  0  0  0  0  0  0
    7.1136   -0.3116  -13.7926 H   0  0  0  0  0  0  0  0  0  0  0  0
    6.8149    3.0911  -16.6021 H   0  0  0  0  0  0  0  0  0  0  0  0
    7.8823    3.3992  -15.5096 H   0  0  0  0  0  0  0  0  0  0  0  0
    9.0188    0.9592  -16.5615 H   0  0  0  0  0  0  0  0  0  0  0  0
    6.9259    1.9947  -18.3454 H   0  0  0  0  0  0  0  0  0  0  0  0
    7.4730    0.3725  -18.5032 H   0  0  0  0  0  0  0  0  0  0  0  0
    5.5838   -0.3853  -17.4996 H   0  0  0  0  0  0  0  0  0  0  0  0
    4.2459    0.5103  -15.1329 H   0  0  0  0  0  0  0  0  0  0  0  0
    4.0483   -0.8833  -15.8139 H   0  0  0  0  0  0  0  0  0  0  0  0
    6.7306   -0.9647  -15.3773 H   0  0  0  0  0  0  0  0  0  0  0  0
    7.0049    5.7379  -10.1168 H   0  0  0  0  0  0  0  0  0  0  0  0
    7.7246    4.1270   -9.5559 H   0  0  0  0  0  0  0  0  0  0  0  0
    8.9021    5.7474   -8.3516 H   0  0  0  0  0  0  0  0  0  0  0  0
   10.8288    5.0273   -7.3597 H   0  0  0  0  0  0  0  0  0  0  0  0
   11.5620    5.8120   -5.1879 H   0  0  0  0  0  0  0  0  0  0  0  0
   10.5636    8.8752   -4.1281 H   0  0  0  0  0  0  0  0  0  0  0  0
   12.7765   10.2562   -4.9716 H   0  0  0  0  0  0  0  0  0  0  0  0
   11.0115   10.5470   -4.9580 H   0  0  0  0  0  0  0  0  0  0  0  0
   11.1910   11.2250   -3.0260 H   0  0  0  0  0  0  0  0  0  0  0  0
   12.5940    9.5700   -1.6550 H   0  0  0  0  0  0  0  0  0  0  0  0
   12.8583    8.4310   -3.1719 H   0  0  0  0  0  0  0  0  0  0  0  0
   10.1210    7.4710   -1.4280 H   0  0  0  0  0  0  0  0  0  0  0  0
   10.7590    5.8370   -1.1040 H   0  0  0  0  0  0  0  0  0  0  0  0
   10.6478    9.8160   -6.4982 H   0  0  0  0  0  0  0  0  0  0  0  0
    9.9034    8.9125   -8.6405 H   0  0  0  0  0  0  0  0  0  0  0  0
  1  2  1  0
  2  3  1  1
  2  4  1  0
  4  5  1  0
  5  6  1  0
  6  7  1  0
  7  8  1  0
  8  9  1  0
  9 10  1  0
 11 10  1  6
 11 12  1  0
 12 13  1  0
 13 14  1  0
 14 15  1  0
 15 16  1  0
 16 17  1  0
  5 18  1  0
 18 19  1  0
 19 20  2  0
 20 21  1  0
 21 22  2  0
 22 23  1  0
 23 24  2  0
 24 25  1  0
 25 26  1  0
 26 27  1  0
 27 28  1  0
 28 29  1  0
 29 30  1  0
 30 31  1  0
 30 32  2  0
 24 33  1  0
 33 34  2  0
 20  2  1  0
 34 21  1  0
 13 11  1  0
 17 15  1  0
 29 25  1  0
 17 11  1  0
  1 35  1  0
  1 36  1  0
  1 37  1  0
  4 38  1  0
  4 39  1  0
  5 40  1  1
  6 41  1  0
  6 42  1  0
  7 43  1  0
  7 44  1  0
  8 45  1  0
  8 46  1  0
  9 47  1  0
  9 48  1  0
 10 49  1  0
 10 50  1  0
 12 51  1  0
 12 52  1  0
 13 53  1  1
 14 54  1  0
 14 55  1  0
 15 56  1  0
 16 57  1  0
 16 58  1  0
 17 59  1  6
 18 60  1  0
 18 61  1  0
 19 62  1  0
 22 63  1  0
 23 64  1  0
 25 65  1  6
 26 66  1  0
 26 67  1  0
 27 68  1  0
 28 69  1  0
 29 70  1  1
 31 71  1  0
 31 72  1  0
 33 73  1  0
 34 74  1  0
M  END

>  <ID>
DiffSBDD_16_num_sample_50

>  <docking_score>
-11.046

$$$$
DiffSBDD_17_num_sample_50
     RDKit          3D

 58 60  0  0  0  0  0  0  0  0999 V2000
    6.9700    0.1830  -14.3780 C   0  0  0  0  0  0  0  0  0  0  0  0
    6.9660    1.5510  -14.0030 C   0  0  1  0  0  0  0  0  0  0  0  0
    6.5680    2.0200  -12.6680 O   0  0  0  0  0  0  0  0  0  0  0  0
    6.8840    3.6050  -12.8300 C   0  0  2  0  0  0  0  0  0  0  0  0
    5.7700    4.4050  -12.1800 C   0  0  0  0  0  0  0  0  0  0  0  0
    4.6910    4.2830  -12.5780 O   0  0  0  0  0  0  0  0  0  0  0  0
    6.1400    5.1370  -11.2940 N   0  0  0  0  0  0  0  0  0  0  0  0
    7.4930    4.6970  -10.6950 C   0  0  0  0  0  0  0  0  0  0  0  0
    8.6510    5.5410  -10.3190 C   0  0  0  0  0  0  0  0  0  0  0  0
    9.2660    6.4550  -11.1300 C   0  0  0  0  0  0  0  0  0  0  0  0
   10.1000    7.3110  -10.6280 C   0  0  0  0  0  0  0  0  0  0  0  0
   10.3180    7.4610   -9.3060 C   0  0  0  0  0  0  0  0  0  0  0  0
   11.1550    8.4920   -8.6730 C   0  0  0  0  0  0  0  0  0  0  0  0
   12.3760    8.3300   -7.9000 C   0  0  0  0  0  0  0  0  0  0  0  0
   12.3530    9.4650   -6.8700 N   0  0  0  0  0  0  0  0  0  0  0  0
   11.4380    9.1110   -5.7420 C   0  0  2  0  0  0  0  0  0  0  0  0
   10.9820   10.3380   -4.9650 C   0  0  0  0  0  0  0  0  0  0  0  0
   12.1950    8.1880   -4.7530 C   0  0  0  0  0  0  0  0  0  0  0  0
   12.5930    8.9350   -3.4670 C   0  0  0  0  0  0  0  0  0  0  0  0
   12.2380    8.0310   -2.3190 C   0  0  0  0  0  0  0  0  0  0  0  0
   12.0150    6.6340   -3.0690 C   0  0  0  0  0  0  0  0  0  0  0  0
   11.4010    6.9700   -4.3300 C   0  0  0  0  0  0  0  0  0  0  0  0
    9.6580    6.4230   -8.5590 C   0  0  0  0  0  0  0  0  0  0  0  0
    8.9880    5.4900   -9.0180 N   0  0  0  0  0  0  0  0  0  0  0  0
    7.9560    3.7800  -13.9720 C   0  0  0  0  0  0  0  0  0  0  0  0
    7.3280    2.6480  -15.2000 S   0  0  0  0  0  0  0  0  0  0  0  0
    6.9718   -0.4448  -13.4747 H   0  0  0  0  0  0  0  0  0  0  0  0
    6.0725   -0.0362  -14.9750 H   0  0  0  0  0  0  0  0  0  0  0  0
    7.8688   -0.0309  -14.9750 H   0  0  0  0  0  0  0  0  0  0  0  0
    5.9246    1.6418  -14.3454 H   0  0  0  0  0  0  0  0  0  0  0  0
    7.4741    4.4073  -12.3629 H   0  0  0  0  0  0  0  0  0  0  0  0
    5.6130    5.9620  -10.9730 H   0  0  0  0  0  0  0  0  0  0  0  0
    7.2259    4.1660   -9.7694 H   0  0  0  0  0  0  0  0  0  0  0  0
    7.9211    4.2253  -11.5918 H   0  0  0  0  0  0  0  0  0  0  0  0
    9.0526    6.4636  -12.2091 H   0  0  0  0  0  0  0  0  0  0  0  0
   10.6631    7.9529  -11.3215 H   0  0  0  0  0  0  0  0  0  0  0  0
   11.4410    9.1583   -9.5002 H   0  0  0  0  0  0  0  0  0  0  0  0
   10.4799    8.7547   -7.8453 H   0  0  0  0  0  0  0  0  0  0  0  0
   12.3868    7.3522   -7.3963 H   0  0  0  0  0  0  0  0  0  0  0  0
   13.2731    8.3694   -8.5353 H   0  0  0  0  0  0  0  0  0  0  0  0
   12.0200   10.3290   -7.3210 H   0  0  0  0  0  0  0  0  0  0  0  0
   13.3040    9.6080   -6.5020 H   0  0  0  0  0  0  0  0  0  0  0  0
   10.5556    8.6180   -6.1760 H   0  0  0  0  0  0  0  0  0  0  0  0
   11.0566   10.1373   -3.8860 H   0  0  0  0  0  0  0  0  0  0  0  0
   11.6218   11.1945   -5.2237 H   0  0  0  0  0  0  0  0  0  0  0  0
    9.9381   10.5688   -5.2237 H   0  0  0  0  0  0  0  0  0  0  0  0
   13.0832    7.8626   -5.3144 H   0  0  0  0  0  0  0  0  0  0  0  0
   13.6733    9.1423   -3.4671 H   0  0  0  0  0  0  0  0  0  0  0  0
   12.0695    9.8993   -3.3897 H   0  0  0  0  0  0  0  0  0  0  0  0
   13.0581    7.9684   -1.5885 H   0  0  0  0  0  0  0  0  0  0  0  0
   11.3701    8.3692   -1.7339 H   0  0  0  0  0  0  0  0  0  0  0  0
   12.9774    6.1271   -3.2325 H   0  0  0  0  0  0  0  0  0  0  0  0
   11.3890    5.9483   -2.4791 H   0  0  0  0  0  0  0  0  0  0  0  0
   11.5075    6.1514   -5.0570 H   0  0  0  0  0  0  0  0  0  0  0  0
   10.3178    7.1488   -4.2618 H   0  0  0  0  0  0  0  0  0  0  0  0
    9.7601    6.4636   -7.4645 H   0  0  0  0  0  0  0  0  0  0  0  0
    7.9803    4.8131  -14.3491 H   0  0  0  0  0  0  0  0  0  0  0  0
    8.9913    3.5814  -13.6579 H   0  0  0  0  0  0  0  0  0  0  0  0
  1  2  1  0
  2  3  1  0
  3  4  1  0
  4  5  1  0
  5  6  2  0
  5  7  1  0
  7  8  1  0
  8  9  1  0
  9 10  2  0
 10 11  1  0
 11 12  2  0
 12 13  1  0
 13 14  1  0
 14 15  1  0
 15 16  1  0
 16 17  1  0
 16 18  1  0
 18 19  1  0
 19 20  1  0
 20 21  1  0
 21 22  1  0
 12 23  1  0
 23 24  2  0
  4 25  1  0
 25 26  1  0
 26  2  1  0
 24  9  1  0
 22 18  1  0
  1 27  1  0
  1 28  1  0
  1 29  1  0
  2 30  1  1
  4 31  1  1
  7 32  1  0
  8 33  1  0
  8 34  1  0
 10 35  1  0
 11 36  1  0
 13 37  1  0
 13 38  1  0
 14 39  1  0
 14 40  1  0
 15 41  1  0
 15 42  1  0
 16 43  1  6
 17 44  1  0
 17 45  1  0
 17 46  1  0
 18 47  1  0
 19 48  1  0
 19 49  1  0
 20 50  1  0
 20 51  1  0
 21 52  1  0
 21 53  1  0
 22 54  1  0
 22 55  1  0
 23 56  1  0
 25 57  1  0
 25 58  1  0
M  CHG  1  15   1
M  END

>  <ID>
DiffSBDD_17_num_sample_50

>  <docking_score>
-8.926

$$$$
DiffSBDD_18_num_sample_50
     RDKit          3D

 58 61  0  0  0  0  0  0  0  0999 V2000
   12.8820    8.0850   -9.4500 O   0  0  0  0  0  0  0  0  0  0  0  0
   11.4980    8.2790   -9.4360 C   0  0  1  0  0  0  0  0  0  0  0  0
   11.3060    9.6120   -8.7140 C   0  0  0  0  0  0  0  0  0  0  0  0
   11.7750    9.5980   -7.0640 S   0  0  0  0  0  0  0  0  0  0  0  0
   10.6190    8.4420   -6.7180 C   0  0  0  0  0  0  0  0  0  0  0  0
   11.2980    7.2670   -5.7300 C   0  0  0  0  0  0  0  0  0  0  0  0
   11.0990    5.9610   -6.4230 C   0  0  0  0  0  0  0  0  0  0  0  0
   10.2860    5.8150   -7.5610 C   0  0  0  0  0  0  0  0  0  0  0  0
    9.7280    6.0730   -9.0040 C   0  0  0  0  0  0  0  0  0  0  0  0
    8.7690    5.3080   -9.0890 C   0  0  0  0  0  0  0  0  0  0  0  0
    7.8500    4.5730  -10.4130 C   0  0  1  0  0  0  0  0  0  0  0  0
    6.4720    5.1100  -10.7730 C   0  0  0  0  0  0  0  0  0  0  0  0
    5.6810    4.2790  -11.8170 C   0  0  0  0  0  0  0  0  0  0  0  0
    5.7270    4.6010  -13.2670 C   0  0  2  0  0  0  0  0  0  0  0  0
    6.2130    3.1450  -13.3680 C   0  0  0  0  0  0  0  0  0  0  0  0
    7.5590    3.2000  -13.9880 C   0  0  0  0  0  0  0  0  0  0  0  0
    7.5400    3.7300  -15.2500 C   0  0  0  0  0  0  0  0  0  0  0  0
    6.8310    4.9830  -15.3220 C   0  0  0  0  0  0  0  0  0  0  0  0
    7.1440    5.5060  -16.5940 C   0  0  0  0  0  0  0  0  0  0  0  0
    6.5840    6.8030  -16.8210 C   0  0  0  0  0  0  0  0  0  0  0  0
    5.8500    7.3790  -15.8680 C   0  0  0  0  0  0  0  0  0  0  0  0
    5.6900    6.7840  -14.6150 C   0  0  0  0  0  0  0  0  0  0  0  0
    6.3320    5.4540  -14.3620 C   0  0  0  0  0  0  0  0  0  0  0  0
    9.1470    4.7450  -10.9720 C   0  0  0  0  0  0  0  0  0  0  0  0
    9.5430    6.2150  -11.4020 O   0  0  0  0  0  0  0  0  0  0  0  0
    9.8470    6.6870  -10.1350 N   0  0  0  0  0  0  0  0  0  0  0  0
   10.9370    7.7140  -10.5970 C   0  0  0  0  0  0  0  0  0  0  0  0
   13.2630    8.4840  -10.2720 H   0  0  0  0  0  0  0  0  0  0  0  0
   10.7410    7.7396   -8.8478 H   0  0  0  0  0  0  0  0  0  0  0  0
   11.9034   10.3747   -9.2350 H   0  0  0  0  0  0  0  0  0  0  0  0
   10.2272    9.8263   -8.7320 H   0  0  0  0  0  0  0  0  0  0  0  0
    9.7701    8.9129   -6.2008 H   0  0  0  0  0  0  0  0  0  0  0  0
   10.2633    7.9817   -7.6516 H   0  0  0  0  0  0  0  0  0  0  0  0
   12.3713    7.4627   -5.5899 H   0  0  0  0  0  0  0  0  0  0  0  0
   10.8277    7.2644   -4.7356 H   0  0  0  0  0  0  0  0  0  0  0  0
   11.6113    5.0722   -6.0259 H   0  0  0  0  0  0  0  0  0  0  0  0
    9.1096    4.4317   -8.5179 H   0  0  0  0  0  0  0  0  0  0  0  0
    8.0178    6.0838   -8.8795 H   0  0  0  0  0  0  0  0  0  0  0  0
    7.2940    3.6321  -10.5380 H   0  0  0  0  0  0  0  0  0  0  0  0
    5.8738    5.1527   -9.8508 H   0  0  0  0  0  0  0  0  0  0  0  0
    6.6436    6.0923  -11.2375 H   0  0  0  0  0  0  0  0  0  0  0  0
    6.0341    3.2418  -11.7189 H   0  0  0  0  0  0  0  0  0  0  0  0
    4.6370    4.5097  -11.5584 H   0  0  0  0  0  0  0  0  0  0  0  0
    4.9166    5.3111  -13.4883 H   0  0  0  0  0  0  0  0  0  0  0  0
    6.2724    2.6926  -12.3671 H   0  0  0  0  0  0  0  0  0  0  0  0
    5.5215    2.5322  -13.9649 H   0  0  0  0  0  0  0  0  0  0  0  0
    8.2120    3.8199  -13.3562 H   0  0  0  0  0  0  0  0  0  0  0  0
    7.9296    2.1674  -14.0678 H   0  0  0  0  0  0  0  0  0  0  0  0
    8.5773    3.8944  -15.5772 H   0  0  0  0  0  0  0  0  0  0  0  0
    7.0139    3.0154  -15.9000 H   0  0  0  0  0  0  0  0  0  0  0  0
    7.7559    4.9715  -17.3355 H   0  0  0  0  0  0  0  0  0  0  0  0
    6.7578    7.3217  -17.7754 H   0  0  0  0  0  0  0  0  0  0  0  0
    5.3606    8.3425  -16.0733 H   0  0  0  0  0  0  0  0  0  0  0  0
    5.1039    7.2821  -13.8287 H   0  0  0  0  0  0  0  0  0  0  0  0
    9.8801    4.4068  -10.2249 H   0  0  0  0  0  0  0  0  0  0  0  0
    9.1410    4.1614  -11.9044 H   0  0  0  0  0  0  0  0  0  0  0  0
   11.7157    7.2000  -11.1797 H   0  0  0  0  0  0  0  0  0  0  0  0
   10.4931    8.4931  -11.2341 H   0  0  0  0  0  0  0  0  0  0  0  0
  1  2  1  0
  2  3  1  0
  3  4  1  0
  4  5  1  0
  5  6  1  0
  6  7  1  0
  7  8  2  0
  8  9  2  0
  9 10  1  0
 10 11  1  0
 11 12  1  0
 12 13  1  0
 13 14  1  0
 14 15  1  0
 15 16  1  0
 16 17  1  0
 17 18  1  0
 18 19  2  0
 19 20  1  0
 20 21  2  0
 21 22  1  0
 22 23  2  0
 11 24  1  0
 24 25  1  0
 25 26  1  0
 26 27  1  0
 27  2  1  0
 26  9  1  0
 23 14  1  0
 23 18  1  0
  1 28  1  0
  2 29  1  1
  3 30  1  0
  3 31  1  0
  5 32  1  0
  5 33  1  0
  6 34  1  0
  6 35  1  0
  7 36  1  0
 10 37  1  0
 10 38  1  0
 11 39  1  1
 12 40  1  0
 12 41  1  0
 13 42  1  0
 13 43  1  0
 14 44  1  6
 15 45  1  0
 15 46  1  0
 16 47  1  0
 16 48  1  0
 17 49  1  0
 17 50  1  0
 19 51  1  0
 20 52  1  0
 21 53  1  0
 22 54  1  0
 24 55  1  0
 24 56  1  0
 27 57  1  0
 27 58  1  0
M  END

>  <ID>
DiffSBDD_18_num_sample_50

>  <docking_score>
-9.525

$$$$
DiffSBDD_19_num_sample_50
     RDKit          3D

 77 82  0  0  0  0  0  0  0  0999 V2000
    7.4780    0.8870  -14.9520 C   0  0  0  0  0  0  0  0  0  0  0  0
    6.7650    1.6320  -13.8280 C   0  0  0  0  0  0  0  0  0  0  0  0
    5.8170    0.6120  -13.3560 C   0  0  0  0  0  0  0  0  0  0  0  0
    7.7630    1.7090  -13.0790 O   0  0  0  0  0  0  0  0  0  0  0  0
    8.3490    2.9940  -12.5030 C   0  0  0  0  0  0  0  0  0  0  0  0
    7.8130    3.8960  -11.7800 C   0  0  1  0  0  0  0  0  0  0  0  0
    9.0620    4.7370  -11.3900 C   0  0  0  0  0  0  0  0  0  0  0  0
    8.8920    6.0760  -10.3150 C   0  0  1  0  0  0  0  0  0  0  0  0
    8.4000    5.1830   -9.1010 O   0  0  0  0  0  0  0  0  0  0  0  0
   10.0070    6.9870   -9.9480 C   0  0  2  0  0  0  0  0  0  0  0  0
   10.0490    6.8800   -8.7550 C   0  0  0  0  0  0  0  0  0  0  0  0
   10.7840    6.3980   -7.8420 O   0  0  0  0  0  0  0  0  0  0  0  0
   10.9580    7.1360   -6.9960 C   0  0  0  0  0  0  0  0  0  0  0  0
   10.9830    8.3970   -7.1340 C   0  0  0  0  0  0  0  0  0  0  0  0
   10.9050    9.4900   -6.4010 C   0  0  0  0  0  0  0  0  0  0  0  0
   11.2390    9.5590   -5.0310 C   0  0  0  0  0  0  0  0  0  0  0  0
   11.2580   10.7690   -4.5130 O   0  0  0  0  0  0  0  0  0  0  0  0
   11.7720    8.4330   -4.3320 C   0  0  0  0  0  0  0  0  0  0  0  0
   11.5130    7.0890   -4.5240 C   0  0  0  0  0  0  0  0  0  0  0  0
   11.6330    6.2320   -3.4390 C   0  0  0  0  0  0  0  0  0  0  0  0
   12.2290    6.6510   -2.2830 C   0  0  0  0  0  0  0  0  0  0  0  0
   12.6110    8.0200   -2.2600 C   0  0  0  0  0  0  0  0  0  0  0  0
   12.8910    8.7180   -1.1810 N   0  0  0  0  0  0  0  0  0  0  0  0
   13.8870    8.3560   -0.4530 O   0  0  0  0  0  0  0  0  0  0  0  0
   12.3850    9.8210   -1.1130 O   0  0  0  0  0  0  0  0  0  0  0  0
   12.6190    8.9400   -3.2550 C   0  0  0  0  0  0  0  0  0  0  0  0
   10.9090    6.6640   -5.6240 O   0  0  0  0  0  0  0  0  0  0  0  0
    9.9320    8.2730  -10.5340 C   0  0  0  0  0  0  0  0  0  0  0  0
    9.2050    7.9480  -11.7360 C   0  0  2  0  0  0  0  0  0  0  0  0
    8.2750    8.8440  -12.0750 O   0  0  0  0  0  0  0  0  0  0  0  0
    8.1530    7.0820  -11.4210 C   0  0  1  0  0  0  0  0  0  0  0  0
    7.1630    6.9420  -12.6300 C   0  0  0  0  0  0  0  0  0  0  0  0
    6.7330    5.5430  -13.1120 C   0  0  2  0  0  0  0  0  0  0  0  0
    6.4030    5.3670  -14.5810 C   0  0  0  0  0  0  0  0  0  0  0  0
    6.9330    4.0190  -15.0230 C   0  0  0  0  0  0  0  0  0  0  0  0
    6.0540    2.9420  -14.2570 C   0  0  2  0  0  0  0  0  0  0  0  0
    5.4750    3.5360  -12.9950 C   0  0  0  0  0  0  0  0  0  0  0  0
    6.4750    4.4640  -12.2210 C   0  0  1  0  0  0  0  0  0  0  0  0
    5.8850    4.9460  -11.0240 O   0  0  0  0  0  0  0  0  0  0  0  0
    8.1778    0.1558  -14.5211 H   0  0  0  0  0  0  0  0  0  0  0  0
    6.7363    0.3630  -15.5727 H   0  0  0  0  0  0  0  0  0  0  0  0
    8.0341    1.6050  -15.5727 H   0  0  0  0  0  0  0  0  0  0  0  0
    5.8072    0.6015  -12.2561 H   0  0  0  0  0  0  0  0  0  0  0  0
    4.8094    0.8471  -13.7294 H   0  0  0  0  0  0  0  0  0  0  0  0
    6.1251   -0.3757  -13.7294 H   0  0  0  0  0  0  0  0  0  0  0  0
    9.2079    2.6511  -11.9074 H   0  0  0  0  0  0  0  0  0  0  0  0
    8.3799    3.5668  -13.4416 H   0  0  0  0  0  0  0  0  0  0  0  0
    7.2944    3.5833  -10.8617 H   0  0  0  0  0  0  0  0  0  0  0  0
    9.7799    4.0448  -10.9257 H   0  0  0  0  0  0  0  0  0  0  0  0
    9.3593    5.2075  -12.3388 H   0  0  0  0  0  0  0  0  0  0  0  0
    8.9000    5.4320   -8.2840 H   0  0  0  0  0  0  0  0  0  0  0  0
   10.9864    6.7240  -10.3742 H   0  0  0  0  0  0  0  0  0  0  0  0
    9.9807    7.9325   -8.4425 H   0  0  0  0  0  0  0  0  0  0  0  0
    9.4032    5.9896   -8.7672 H   0  0  0  0  0  0  0  0  0  0  0  0
   11.1088    8.6599   -8.1947 H   0  0  0  0  0  0  0  0  0  0  0  0
   10.5558   10.4112   -6.8903 H   0  0  0  0  0  0  0  0  0  0  0  0
   10.6130    5.9189   -3.1713 H   0  0  0  0  0  0  0  0  0  0  0  0
   12.3273    5.4631   -3.8088 H   0  0  0  0  0  0  0  0  0  0  0  0
   12.4009    5.9769   -1.4309 H   0  0  0  0  0  0  0  0  0  0  0  0
   12.2222    9.8967   -2.8845 H   0  0  0  0  0  0  0  0  0  0  0  0
   13.6440    9.1092   -3.6166 H   0  0  0  0  0  0  0  0  0  0  0  0
    9.3789    8.9810   -9.8993 H   0  0  0  0  0  0  0  0  0  0  0  0
   10.8999    8.7706  -10.6937 H   0  0  0  0  0  0  0  0  0  0  0  0
   10.0221    7.7082  -12.4323 H   0  0  0  0  0  0  0  0  0  0  0  0
    7.8160    9.1680  -11.2600 H   0  0  0  0  0  0  0  0  0  0  0  0
    7.2113    7.2042  -10.8658 H   0  0  0  0  0  0  0  0  0  0  0  0
    6.2441    7.4793  -12.3526 H   0  0  0  0  0  0  0  0  0  0  0  0
    7.7408    7.3368  -13.4787 H   0  0  0  0  0  0  0  0  0  0  0  0
    7.7628    5.2555  -12.8536 H   0  0  0  0  0  0  0  0  0  0  0  0
    5.3132    5.4050  -14.7257 H   0  0  0  0  0  0  0  0  0  0  0  0
    6.8630    6.1710  -15.1743 H   0  0  0  0  0  0  0  0  0  0  0  0
    6.8225    3.9011  -16.1111 H   0  0  0  0  0  0  0  0  0  0  0  0
    8.0032    3.9078  -14.7942 H   0  0  0  0  0  0  0  0  0  0  0  0
    5.3009    2.6698  -15.0111 H   0  0  0  0  0  0  0  0  0  0  0  0
    4.5884    4.1287  -13.2647 H   0  0  0  0  0  0  0  0  0  0  0  0
    5.2304    2.6973  -12.3267 H   0  0  0  0  0  0  0  0  0  0  0  0
    5.2470    5.6730  -11.2390 H   0  0  0  0  0  0  0  0  0  0  0  0
  1  2  1  0
  2  3  1  0
  2  4  1  0
  4  5  1  0
  5  6  1  0
  6  7  1  0
  7  8  1  0
  8  9  1  1
  8 10  1  0
 10 11  1  0
 11 12  1  0
 12 13  1  0
 13 14  2  0
 14 15  1  0
 15 16  2  0
 16 17  1  0
 16 18  1  0
 18 19  2  0
 19 20  1  0
 20 21  1  0
 21 22  2  0
 22 23  1  0
 23 24  2  0
 23 25  1  0
 22 26  1  0
 19 27  1  0
 10 28  1  0
 28 29  1  0
 29 30  1  0
 29 31  1  0
 31 32  1  0
 32 33  1  0
 33 34  1  0
 34 35  1  0
 35 36  1  0
 36 37  1  0
 37 38  1  0
 38 39  1  1
 36  2  1  0
 38  6  1  0
 31  8  1  0
 38 33  1  0
 27 13  1  0
 26 18  1  0
  1 40  1  0
  1 41  1  0
  1 42  1  0
  3 43  1  0
  3 44  1  0
  3 45  1  0
  5 46  1  0
  5 47  1  0
  6 48  1  1
  7 49  1  0
  7 50  1  0
  9 51  1  0
 10 52  1  6
 11 53  1  0
 11 54  1  0
 14 55  1  0
 15 56  1  0
 20 57  1  0
 20 58  1  0
 21 59  1  0
 26 60  1  0
 26 61  1  0
 28 62  1  0
 28 63  1  0
 29 64  1  6
 30 65  1  0
 31 66  1  1
 32 67  1  0
 32 68  1  0
 33 69  1  6
 34 70  1  0
 34 71  1  0
 35 72  1  0
 35 73  1  0
 36 74  1  6
 37 75  1  0
 37 76  1  0
 39 77  1  0
M  CHG  3  17  -1  23   1  25  -1
M  END

>  <ID>
DiffSBDD_19_num_sample_50

>  <docking_score>
-10.986

$$$$
DiffSBDD_1_num_sample_50
     RDKit          3D

 72 77  0  0  0  0  0  0  0  0999 V2000
   12.3520   11.0870   -6.5130 C   0  0  0  0  0  0  0  0  0  0  0  0
   11.3720   10.4060   -5.8880 O   0  0  0  0  0  0  0  0  0  0  0  0
   11.4830    9.0910   -5.6100 C   0  0  0  0  0  0  0  0  0  0  0  0
   12.0230    8.5330   -4.3790 C   0  0  0  0  0  0  0  0  0  0  0  0
   12.9280    9.1940   -3.5080 O   0  0  0  0  0  0  0  0  0  0  0  0
   12.0480    9.6890   -2.3710 O   0  0  0  0  0  0  0  0  0  0  0  0
   11.7130    7.2330   -3.9340 C   0  0  0  0  0  0  0  0  0  0  0  0
   10.9430    6.4970   -4.8630 C   0  0  0  0  0  0  0  0  0  0  0  0
   10.5350    6.7710   -6.0880 C   0  0  0  0  0  0  0  0  0  0  0  0
   10.9210    8.0560   -6.4940 C   0  0  0  0  0  0  0  0  0  0  0  0
   10.6270    8.1670   -8.1770 S   0  0  0  0  0  0  0  0  0  0  0  0
   10.0590    6.7380   -8.8750 C   0  0  0  0  0  0  0  0  0  0  0  0
   10.2340    6.6000  -10.3870 C   0  0  0  0  0  0  0  0  0  0  0  0
    8.8580    6.1890  -10.9900 N   0  0  0  0  0  0  0  0  0  0  0  0
    8.2320    6.2910  -12.4070 C   0  0  0  0  0  0  0  0  0  0  0  0
    7.0310    5.5400  -13.0800 C   0  0  0  0  0  0  0  0  0  0  0  0
    6.9350    5.2030  -14.4900 C   0  0  0  0  0  0  0  0  0  0  0  0
    8.2280    5.1670  -15.2130 N   0  0  0  0  0  0  0  0  0  0  0  0
    8.1980    3.5970  -15.7600 C   0  0  1  0  0  0  0  0  0  0  0  0
    7.5930    1.9900  -16.0700 C   0  0  0  0  0  0  0  0  0  0  0  0
    7.1290    2.1750  -17.4680 C   0  0  0  0  0  0  0  0  0  0  0  0
    6.6400    3.5050  -17.9010 C   0  0  0  0  0  0  0  0  0  0  0  0
    7.8670    4.3420  -18.1650 C   0  0  1  0  0  0  0  0  0  0  0  0
    7.4690    5.8120  -18.4650 C   0  0  0  0  0  0  0  0  0  0  0  0
    8.8970    3.9470  -17.0970 C   0  0  1  0  0  0  0  0  0  0  0  0
    9.9300    5.1230  -17.1330 C   0  0  0  0  0  0  0  0  0  0  0  0
    9.5150    5.7170  -14.6290 C   0  0  0  0  0  0  0  0  0  0  0  0
    9.4160    6.3760  -13.3240 C   0  0  0  0  0  0  0  0  0  0  0  0
    5.8660    5.1120  -12.1850 C   0  0  1  0  0  0  0  0  0  0  0  0
    4.8890    4.4310  -12.9720 O   0  0  0  0  0  0  0  0  0  0  0  0
    6.4670    4.3690  -11.0430 C   0  0  0  0  0  0  0  0  0  0  0  0
    7.8470    3.9670  -11.1720 O   0  0  0  0  0  0  0  0  0  0  0  0
    8.6790    4.7340  -10.4600 C   0  0  2  0  0  0  0  0  0  0  0  0
    8.6700    4.6600   -8.9250 C   0  0  0  0  0  0  0  0  0  0  0  0
    9.4510    5.6960   -8.2310 C   0  0  0  0  0  0  0  0  0  0  0  0
    9.8810    5.7810   -6.7370 C   0  0  0  0  0  0  0  0  0  0  0  0
   13.0139   11.5469   -5.7644 H   0  0  0  0  0  0  0  0  0  0  0  0
   12.9337   10.3975   -7.1425 H   0  0  0  0  0  0  0  0  0  0  0  0
   11.9087   11.8726   -7.1425 H   0  0  0  0  0  0  0  0  0  0  0  0
   12.4530    9.4320   -1.5050 H   0  0  0  0  0  0  0  0  0  0  0  0
   12.0371    6.8315   -2.9625 H   0  0  0  0  0  0  0  0  0  0  0  0
   10.6237    5.5103   -4.4961 H   0  0  0  0  0  0  0  0  0  0  0  0
    9.0756    7.2053   -9.0315 H   0  0  0  0  0  0  0  0  0  0  0  0
   10.5586    7.5598  -10.8153 H   0  0  0  0  0  0  0  0  0  0  0  0
   10.9966    5.8416  -10.6179 H   0  0  0  0  0  0  0  0  0  0  0  0
    6.4695    4.2098  -14.5729 H   0  0  0  0  0  0  0  0  0  0  0  0
    6.3422    6.0025  -14.9583 H   0  0  0  0  0  0  0  0  0  0  0  0
    8.0215    3.2383  -14.7352 H   0  0  0  0  0  0  0  0  0  0  0  0
    8.3856    1.2308  -15.9967 H   0  0  0  0  0  0  0  0  0  0  0  0
    6.8295    1.6304  -15.3645 H   0  0  0  0  0  0  0  0  0  0  0  0
    7.9735    1.9150  -18.1232 H   0  0  0  0  0  0  0  0  0  0  0  0
    6.2358    1.5362  -17.5321 H   0  0  0  0  0  0  0  0  0  0  0  0
    6.0393    3.4100  -18.8176 H   0  0  0  0  0  0  0  0  0  0  0  0
    5.9999    3.9648  -17.1336 H   0  0  0  0  0  0  0  0  0  0  0  0
    8.4172    4.1559  -19.0991 H   0  0  0  0  0  0  0  0  0  0  0  0
    7.3226    6.3527  -17.5183 H   0  0  0  0  0  0  0  0  0  0  0  0
    8.2681    6.2972  -19.0446 H   0  0  0  0  0  0  0  0  0  0  0  0
    6.5342    5.8278  -19.0446 H   0  0  0  0  0  0  0  0  0  0  0  0
    9.4497    3.0118  -17.2700 H   0  0  0  0  0  0  0  0  0  0  0  0
   10.1877    5.4163  -16.1046 H   0  0  0  0  0  0  0  0  0  0  0  0
   10.8388    4.7967  -17.6598 H   0  0  0  0  0  0  0  0  0  0  0  0
    9.4893    5.9822  -17.6598 H   0  0  0  0  0  0  0  0  0  0  0  0
   10.4748    5.6258  -15.1586 H   0  0  0  0  0  0  0  0  0  0  0  0
   10.2744    6.9783  -12.9919 H   0  0  0  0  0  0  0  0  0  0  0  0
    5.2934    5.9417  -11.7449 H   0  0  0  0  0  0  0  0  0  0  0  0
    4.9140    3.4640  -12.7660 H   0  0  0  0  0  0  0  0  0  0  0  0
    6.3911    5.0114  -10.1533 H   0  0  0  0  0  0  0  0  0  0  0  0
    5.9010    3.4275  -10.9874 H   0  0  0  0  0  0  0  0  0  0  0  0
    9.5992    4.1755  -10.6864 H   0  0  0  0  0  0  0  0  0  0  0  0
    7.6258    4.7423   -8.5889 H   0  0  0  0  0  0  0  0  0  0  0  0
    9.1475    3.7028   -8.6685 H   0  0  0  0  0  0  0  0  0  0  0  0
    9.6143    4.9100   -6.1203 H   0  0  0  0  0  0  0  0  0  0  0  0
  1  2  1  0
  2  3  1  0
  3  4  2  0
  4  5  1  0
  5  6  1  0
  4  7  1  0
  7  8  2  0
  8  9  1  0
  9 10  2  0
 10 11  1  0
 11 12  1  0
 12 13  1  0
 13 14  1  0
 14 15  1  0
 15 16  2  0
 16 17  1  0
 17 18  1  0
 18 19  1  0
 19 20  1  0
 20 21  1  0
 21 22  1  0
 22 23  1  0
 23 24  1  0
 23 25  1  0
 25 26  1  0
 18 27  1  0
 27 28  2  0
 16 29  1  0
 29 30  1  0
 29 31  1  0
 31 32  1  0
 32 33  1  0
 33 34  1  0
 34 35  1  0
 35 36  2  0
 10  3  1  0
 35 12  1  0
 36  9  1  0
 33 14  1  0
 28 15  1  0
 25 19  1  0
  1 37  1  0
  1 38  1  0
  1 39  1  0
  6 40  1  0
  7 41  1  0
  8 42  1  0
 12 43  1  0
 13 44  1  0
 13 45  1  0
 17 46  1  0
 17 47  1  0
 19 48  1  1
 20 49  1  0
 20 50  1  0
 21 51  1  0
 21 52  1  0
 22 53  1  0
 22 54  1  0
 23 55  1  6
 24 56  1  0
 24 57  1  0
 24 58  1  0
 25 59  1  6
 26 60  1  0
 26 61  1  0
 26 62  1  0
 27 63  1  0
 28 64  1  0
 29 65  1  1
 30 66  1  0
 31 67  1  0
 31 68  1  0
 33 69  1  6
 34 70  1  0
 34 71  1  0
 36 72  1  0
M  END

>  <ID>
DiffSBDD_1_num_sample_50

>  <docking_score>
-8.682

$$$$
DiffSBDD_21_num_sample_50
     RDKit          3D

 58 61  0  0  0  0  0  0  0  0999 V2000
    9.0800    6.3050   -9.0490 O   0  0  0  0  0  0  0  0  0  0  0  0
    9.1790    6.0360  -10.4150 C   0  0  0  0  0  0  0  0  0  0  0  0
    8.4270    5.3780  -11.5620 C   0  0  1  0  0  0  0  0  0  0  0  0
    7.7850    4.3510  -11.5190 C   0  0  0  0  0  0  0  0  0  0  0  0
    8.1690    3.5990  -12.7830 C   0  0  0  0  0  0  0  0  0  0  0  0
    7.6040    3.9590  -14.1290 C   0  0  0  0  0  0  0  0  0  0  0  0
    6.3050    4.7180  -13.9120 C   0  0  0  0  0  0  0  0  0  0  0  0
    6.7520    5.9650  -13.1010 C   0  0  2  0  0  0  0  0  0  0  0  0
    6.0690    7.2410  -13.7030 C   0  0  0  0  0  0  0  0  0  0  0  0
    5.5550    7.9370  -12.9290 F   0  0  0  0  0  0  0  0  0  0  0  0
    6.2630    7.3550  -14.9200 F   0  0  0  0  0  0  0  0  0  0  0  0
    7.8650    6.3230  -12.3470 O   0  0  0  0  0  0  0  0  0  0  0  0
    9.9520    7.0510  -11.0310 N   0  0  0  0  0  0  0  0  0  0  0  0
    9.4310    8.1560  -10.4050 O   0  0  0  0  0  0  0  0  0  0  0  0
   10.7630    7.7230  -10.2090 C   0  0  2  0  0  0  0  0  0  0  0  0
   12.0970    8.0250  -10.2560 C   0  0  0  0  0  0  0  0  0  0  0  0
   12.4670    7.8970   -8.8160 C   0  0  0  0  0  0  0  0  0  0  0  0
   11.5840    8.1010   -7.6730 C   0  0  0  0  0  0  0  0  0  0  0  0
   11.5710    9.5430   -7.2840 C   0  0  0  0  0  0  0  0  0  0  0  0
   11.5740    9.8490   -5.9710 C   0  0  0  0  0  0  0  0  0  0  0  0
   11.6930    8.8630   -4.8770 C   0  0  0  0  0  0  0  0  0  0  0  0
   11.5620    7.4600   -5.1820 C   0  0  0  0  0  0  0  0  0  0  0  0
   11.6190    6.9540   -6.6170 C   0  0  0  0  0  0  0  0  0  0  0  0
   11.5330    6.5240   -4.0530 C   0  0  0  0  0  0  0  0  0  0  0  0
   11.8730    6.5050   -2.8570 C   0  0  0  0  0  0  0  0  0  0  0  0
   12.0210    7.3770   -1.7590 C   0  0  0  0  0  0  0  0  0  0  0  0
   12.1210    8.6560   -2.2940 C   0  0  1  0  0  0  0  0  0  0  0  0
   12.5450    9.5150   -1.2270 F   0  0  0  0  0  0  0  0  0  0  0  0
   11.8620    9.4060   -3.4810 C   0  0  1  0  0  0  0  0  0  0  0  0
   11.5890   10.6830   -3.4470 O   0  0  0  0  0  0  0  0  0  0  0  0
    9.2937    4.8315  -11.9622 H   0  0  0  0  0  0  0  0  0  0  0  0
    8.0487    3.7665  -10.6253 H   0  0  0  0  0  0  0  0  0  0  0  0
    6.7029    4.5402  -11.4613 H   0  0  0  0  0  0  0  0  0  0  0  0
    9.2616    3.6885  -12.8742 H   0  0  0  0  0  0  0  0  0  0  0  0
    7.7257    2.6081  -12.6049 H   0  0  0  0  0  0  0  0  0  0  0  0
    8.3184    4.5924  -14.6753 H   0  0  0  0  0  0  0  0  0  0  0  0
    7.4182    3.0491  -14.7185 H   0  0  0  0  0  0  0  0  0  0  0  0
    5.8554    5.0124  -14.8718 H   0  0  0  0  0  0  0  0  0  0  0  0
    5.5382    4.1211  -13.3966 H   0  0  0  0  0  0  0  0  0  0  0  0
    6.5686    5.3214  -12.2280 H   0  0  0  0  0  0  0  0  0  0  0  0
    5.1297    6.6814  -13.8235 H   0  0  0  0  0  0  0  0  0  0  0  0
   11.4104    7.6961   -9.3201 H   0  0  0  0  0  0  0  0  0  0  0  0
   12.6517    7.3097  -10.8810 H   0  0  0  0  0  0  0  0  0  0  0  0
   12.3252    9.0061  -10.6981 H   0  0  0  0  0  0  0  0  0  0  0  0
   12.8427    6.8689   -8.7074 H   0  0  0  0  0  0  0  0  0  0  0  0
   13.1079    8.7850   -8.7125 H   0  0  0  0  0  0  0  0  0  0  0  0
   11.5593   10.3341   -8.0483 H   0  0  0  0  0  0  0  0  0  0  0  0
   11.4811   10.9095   -5.6941 H   0  0  0  0  0  0  0  0  0  0  0  0
   11.6788    5.8880   -6.8818 H   0  0  0  0  0  0  0  0  0  0  0  0
   10.4625    6.2793   -3.9885 H   0  0  0  0  0  0  0  0  0  0  0  0
   12.4364    5.9921   -4.3861 H   0  0  0  0  0  0  0  0  0  0  0  0
   11.1789    5.7567   -2.4468 H   0  0  0  0  0  0  0  0  0  0  0  0
   12.9415    6.5672   -3.1108 H   0  0  0  0  0  0  0  0  0  0  0  0
   11.1462    7.3078   -1.0958 H   0  0  0  0  0  0  0  0  0  0  0  0
   12.9070    7.1216   -1.1592 H   0  0  0  0  0  0  0  0  0  0  0  0
   11.0703    8.8481   -2.0311 H   0  0  0  0  0  0  0  0  0  0  0  0
   10.7902    9.1745   -3.3934 H   0  0  0  0  0  0  0  0  0  0  0  0
   10.6070   10.8110   -3.4610 H   0  0  0  0  0  0  0  0  0  0  0  0
  1  2  2  0
  2  3  1  0
  3  4  1  0
  4  5  1  0
  5  6  1  0
  6  7  1  0
  7  8  1  0
  8  9  1  0
  9 10  1  0
  9 11  1  0
  8 12  1  0
  2 13  1  0
 13 14  1  0
 14 15  1  0
 15 16  1  0
 16 17  1  0
 17 18  1  0
 18 19  2  0
 19 20  1  0
 20 21  2  0
 21 22  1  0
 22 23  2  0
 22 24  1  0
 24 25  1  0
 25 26  1  0
 26 27  1  0
 27 28  1  0
 27 29  1  0
 29 30  1  0
 12  3  1  0
 15 13  1  0
 23 18  1  0
 29 21  1  0
  3 31  1  6
  4 32  1  0
  4 33  1  0
  5 34  1  0
  5 35  1  0
  6 36  1  0
  6 37  1  0
  7 38  1  0
  7 39  1  0
  8 40  1  1
  9 41  1  0
 15 42  1  1
 16 43  1  0
 16 44  1  0
 17 45  1  0
 17 46  1  0
 19 47  1  0
 20 48  1  0
 23 49  1  0
 24 50  1  0
 24 51  1  0
 25 52  1  0
 25 53  1  0
 26 54  1  0
 26 55  1  0
 27 56  1  6
 29 57  1  6
 30 58  1  0
M  END

>  <ID>
DiffSBDD_21_num_sample_50

>  <docking_score>
-11.061

$$$$
DiffSBDD_22_num_sample_50
     RDKit          3D

 54 57  0  0  0  0  0  0  0  0999 V2000
    5.6580    4.3610  -11.7120 C   0  0  0  0  0  0  0  0  0  0  0  0
    6.7220    3.5790  -12.5190 C   0  0  0  0  0  0  0  0  0  0  0  0
    6.5150    2.3120  -13.3620 C   0  0  0  0  0  0  0  0  0  0  0  0
    5.2480    1.8410  -13.5870 C   0  0  0  0  0  0  0  0  0  0  0  0
    5.0900    0.7490  -14.4190 C   0  0  1  0  0  0  0  0  0  0  0  0
    3.9550    0.2280  -14.8440 O   0  0  0  0  0  0  0  0  0  0  0  0
    6.0390    0.1620  -15.0680 C   0  0  2  0  0  0  0  0  0  0  0  0
    7.4900    0.9870  -14.7610 C   0  0  1  0  0  0  0  0  0  0  0  0
    7.9320    1.6300  -16.1620 C   0  0  0  0  0  0  0  0  0  0  0  0
    7.4480    2.5290  -16.9490 C   0  0  1  0  0  0  0  0  0  0  0  0
    8.5030    4.1650  -17.1970 C   0  0  0  0  0  0  0  0  0  0  0  0
    6.4350    2.3870  -18.4510 S   0  0  0  0  0  0  0  0  0  0  0  0
    7.2130    1.0110  -19.6950 C   0  0  2  0  0  0  0  0  0  0  0  0
    6.4270   -0.4690  -20.2790 C   0  0  0  0  0  0  0  0  0  0  0  0
    5.5330   -1.2230  -19.1050 C   0  0  1  0  0  0  0  0  0  0  0  0
    6.0830   -1.8840  -18.3430 C   0  0  0  0  0  0  0  0  0  0  0  0
    7.3730   -1.6320  -18.0750 C   0  0  0  0  0  0  0  0  0  0  0  0
    7.7690   -0.4240  -17.6920 C   0  0  1  0  0  0  0  0  0  0  0  0
    8.4060    0.4310  -18.6860 C   0  0  0  0  0  0  0  0  0  0  0  0
    6.2380   -0.8780  -16.6520 S   0  0  2  0  0  4  0  0  0  0  0  0
    4.8230   -0.2470  -17.1970 C   0  0  0  0  0  0  0  0  0  0  0  0
    4.9460    0.2230  -18.4800 C   0  0  0  0  0  0  0  0  0  0  0  0
    4.2420    0.9230  -19.1430 O   0  0  0  0  0  0  0  0  0  0  0  0
    7.4090    1.7190  -13.7950 O   0  0  0  0  0  0  0  0  0  0  0  0
    5.8417    4.2260  -10.6359 H   0  0  0  0  0  0  0  0  0  0  0  0
    5.7199    5.4301  -11.9632 H   0  0  0  0  0  0  0  0  0  0  0  0
    4.6561    3.9827  -11.9632 H   0  0  0  0  0  0  0  0  0  0  0  0
    7.1404    4.3166  -13.2197 H   0  0  0  0  0  0  0  0  0  0  0  0
    7.2797    3.1362  -11.6806 H   0  0  0  0  0  0  0  0  0  0  0  0
    4.3772    2.3209  -13.1164 H   0  0  0  0  0  0  0  0  0  0  0  0
    5.1418    1.0322  -13.3573 H   0  0  0  0  0  0  0  0  0  0  0  0
    3.3150    0.1720  -14.0910 H   0  0  0  0  0  0  0  0  0  0  0  0
    5.5225   -0.7477  -14.7278 H   0  0  0  0  0  0  0  0  0  0  0  0
    8.3093    0.3308  -14.4322 H   0  0  0  0  0  0  0  0  0  0  0  0
    8.9390    2.0155  -15.9444 H   0  0  0  0  0  0  0  0  0  0  0  0
    7.5846    0.7800  -16.7677 H   0  0  0  0  0  0  0  0  0  0  0  0
    6.6611    2.4003  -16.1913 H   0  0  0  0  0  0  0  0  0  0  0  0
    8.7712    4.5808  -16.2146 H   0  0  0  0  0  0  0  0  0  0  0  0
    9.4194    3.9289  -17.7577 H   0  0  0  0  0  0  0  0  0  0  0  0
    7.9098    4.9024  -17.7577 H   0  0  0  0  0  0  0  0  0  0  0  0
    7.3346    1.5426  -20.6503 H   0  0  0  0  0  0  0  0  0  0  0  0
    5.7615   -0.2079  -21.1150 H   0  0  0  0  0  0  0  0  0  0  0  0
    7.2191   -1.1649  -20.5923 H   0  0  0  0  0  0  0  0  0  0  0  0
    4.8318   -1.9984  -19.4472 H   0  0  0  0  0  0  0  0  0  0  0  0
    5.5349   -1.8047  -17.3926 H   0  0  0  0  0  0  0  0  0  0  0  0
    6.1012   -2.8757  -18.8186 H   0  0  0  0  0  0  0  0  0  0  0  0
    7.6672   -2.3260  -17.2739 H   0  0  0  0  0  0  0  0  0  0  0  0
    7.8503   -1.7418  -19.0599 H   0  0  0  0  0  0  0  0  0  0  0  0
    8.5241    0.2140  -17.2095 H   0  0  0  0  0  0  0  0  0  0  0  0
    8.9155    1.2690  -18.1880 H   0  0  0  0  0  0  0  0  0  0  0  0
    9.1536   -0.1363  -19.2598 H   0  0  0  0  0  0  0  0  0  0  0  0
    6.4270   -2.2340  -16.5990 H   0  0  0  0  0  0  0  0  0  0  0  0
    4.0501   -1.0294  -17.1750 H   0  0  0  0  0  0  0  0  0  0  0  0
    4.5452    0.5944  -16.5451 H   0  0  0  0  0  0  0  0  0  0  0  0
  1  2  1  0
  2  3  1  0
  3  4  2  0
  4  5  1  0
  5  6  1  0
  5  7  1  0
  7  8  1  0
  8  9  1  0
  9 10  1  0
 10 11  1  0
 10 12  1  0
 12 13  1  0
 13 14  1  0
 14 15  1  0
 15 16  1  0
 16 17  1  0
 17 18  1  0
 18 19  1  0
 18 20  1  0
 20 21  1  0
 21 22  1  0
 22 23  2  0
  8 24  1  0
 24  3  1  0
 20  7  1  0
 19 13  1  0
 22 15  1  0
  1 25  1  0
  1 26  1  0
  1 27  1  0
  2 28  1  0
  2 29  1  0
  4 30  1  0
  5 31  1  1
  6 32  1  0
  7 33  1  1
  8 34  1  1
  9 35  1  0
  9 36  1  0
 10 37  1  1
 11 38  1  0
 11 39  1  0
 11 40  1  0
 13 41  1  6
 14 42  1  0
 14 43  1  0
 15 44  1  6
 16 45  1  0
 16 46  1  0
 17 47  1  0
 17 48  1  0
 18 49  1  1
 19 50  1  0
 19 51  1  0
 20 52  1  1
 21 53  1  0
 21 54  1  0
M  END

>  <ID>
DiffSBDD_22_num_sample_50

>  <docking_score>
-6.606

$$$$
DiffSBDD_23_num_sample_50
     RDKit          3D

 68 70  0  0  0  0  0  0  0  0999 V2000
   11.4500    6.9640  -12.3680 C   0  0  0  0  0  0  0  0  0  0  0  0
   10.5950    7.3140  -11.1400 C   0  0  1  0  0  0  0  0  0  0  0  0
    9.0960    7.1880  -10.8190 C   0  0  0  0  0  0  0  0  0  0  0  0
    8.7790    6.1820   -9.6830 C   0  0  1  0  0  0  0  0  0  0  0  0
    8.1990    4.9100  -10.0290 C   0  0  0  0  0  0  0  0  0  0  0  0
    7.8090    4.9190  -11.5160 N   0  0  1  0  0  0  0  0  0  0  0  0
    8.5580    3.8090  -12.1720 C   0  0  0  0  0  0  0  0  0  0  0  0
    7.6730    2.8070  -12.8120 C   0  0  0  0  0  0  0  0  0  0  0  0
    6.8050    3.5490  -13.8580 C   0  0  2  0  0  0  0  0  0  0  0  0
    7.3620    3.6320  -15.1940 C   0  0  0  0  0  0  0  0  0  0  0  0
    7.9790    5.0640  -15.4510 C   0  0  0  0  0  0  0  0  0  0  0  0
    7.7380    5.5640  -16.5120 O   0  0  0  0  0  0  0  0  0  0  0  0
    6.4600    6.0330  -16.9600 C   0  0  0  0  0  0  0  0  0  0  0  0
    6.1630    5.7800  -18.2280 C   0  0  0  0  0  0  0  0  0  0  0  0
    4.8690    6.1310  -18.7750 C   0  0  0  0  0  0  0  0  0  0  0  0
    4.0550    6.8190  -17.9700 C   0  0  0  0  0  0  0  0  0  0  0  0
    4.4090    7.2280  -16.6460 C   0  0  0  0  0  0  0  0  0  0  0  0
    5.6380    6.7620  -16.1770 C   0  0  0  0  0  0  0  0  0  0  0  0
    6.0740    4.6790  -13.2240 C   0  0  0  0  0  0  0  0  0  0  0  0
    6.3290    4.6710  -11.7380 C   0  0  0  0  0  0  0  0  0  0  0  0
    9.8570    6.1560   -8.6460 C   0  0  0  0  0  0  0  0  0  0  0  0
   10.5170    7.5260   -8.7810 C   0  0  1  0  0  0  0  0  0  0  0  0
   11.1750    7.8630   -7.4680 C   0  0  0  0  0  0  0  0  0  0  0  0
   11.2470    6.6020   -6.5780 C   0  0  0  0  0  0  0  0  0  0  0  0
   12.5370    8.6700   -7.5590 C   0  0  0  0  0  0  0  0  0  0  0  0
   10.2410    8.7090   -6.7040 C   0  0  0  0  0  0  0  0  0  0  0  0
   10.8140    9.5380   -5.8720 O   0  0  0  0  0  0  0  0  0  0  0  0
    8.9690    8.6460   -6.8270 O   0  0  0  0  0  0  0  0  0  0  0  0
   11.5120    7.5250   -9.9520 C   0  0  0  0  0  0  0  0  0  0  0  0
   12.4210    6.5665  -12.0375 H   0  0  0  0  0  0  0  0  0  0  0  0
   10.9303    6.2063  -12.9728 H   0  0  0  0  0  0  0  0  0  0  0  0
   11.6108    7.8687  -12.9728 H   0  0  0  0  0  0  0  0  0  0  0  0
    9.9494    7.9027  -11.8083 H   0  0  0  0  0  0  0  0  0  0  0  0
    8.7216    8.1780  -10.5193 H   0  0  0  0  0  0  0  0  0  0  0  0
    8.6059    6.8082  -11.7276 H   0  0  0  0  0  0  0  0  0  0  0  0
    7.8866    6.6119   -9.2048 H   0  0  0  0  0  0  0  0  0  0  0  0
    8.9313    4.1099   -9.8457 H   0  0  0  0  0  0  0  0  0  0  0  0
    7.3046    4.7325   -9.4138 H   0  0  0  0  0  0  0  0  0  0  0  0
    8.0320    5.8470  -11.9030 H   0  0  0  0  0  0  0  0  0  0  0  0
    9.2153    4.2381  -12.9426 H   0  0  0  0  0  0  0  0  0  0  0  0
    9.1269    3.2893  -11.3870 H   0  0  0  0  0  0  0  0  0  0  0  0
    8.2786    2.0339  -13.3076 H   0  0  0  0  0  0  0  0  0  0  0  0
    7.0371    2.3170  -12.0600 H   0  0  0  0  0  0  0  0  0  0  0  0
    5.9645    2.9229  -14.1920 H   0  0  0  0  0  0  0  0  0  0  0  0
    8.1507    2.8733  -15.3047 H   0  0  0  0  0  0  0  0  0  0  0  0
    6.5590    3.4553  -15.9248 H   0  0  0  0  0  0  0  0  0  0  0  0
    7.5986    5.7378  -14.6691 H   0  0  0  0  0  0  0  0  0  0  0  0
    9.0694    4.9198  -15.4363 H   0  0  0  0  0  0  0  0  0  0  0  0
    6.9109    5.2963  -18.8735 H   0  0  0  0  0  0  0  0  0  0  0  0
    4.5732    5.8471  -19.7957 H   0  0  0  0  0  0  0  0  0  0  0  0
    3.0565    7.0860  -18.3464 H   0  0  0  0  0  0  0  0  0  0  0  0
    3.7546    7.8687  -16.0366 H   0  0  0  0  0  0  0  0  0  0  0  0
    5.9433    6.9942  -15.1460 H   0  0  0  0  0  0  0  0  0  0  0  0
    6.4260    5.6295  -13.6515 H   0  0  0  0  0  0  0  0  0  0  0  0
    4.9957    4.5699  -13.4119 H   0  0  0  0  0  0  0  0  0  0  0  0
    5.7406    5.4644  -11.2538 H   0  0  0  0  0  0  0  0  0  0  0  0
    6.0339    3.7041  -11.3044 H   0  0  0  0  0  0  0  0  0  0  0  0
    9.4317    6.0222   -7.6404 H   0  0  0  0  0  0  0  0  0  0  0  0
   10.5642    5.3250   -8.7849 H   0  0  0  0  0  0  0  0  0  0  0  0
    9.7689    8.2999   -9.0079 H   0  0  0  0  0  0  0  0  0  0  0  0
   11.2300    6.8992   -5.5190 H   0  0  0  0  0  0  0  0  0  0  0  0
   10.3844    5.9534   -6.7907 H   0  0  0  0  0  0  0  0  0  0  0  0
   12.1778    6.0558   -6.7907 H   0  0  0  0  0  0  0  0  0  0  0  0
   12.9031    8.8869   -6.5447 H   0  0  0  0  0  0  0  0  0  0  0  0
   13.2842    8.0687   -8.0977 H   0  0  0  0  0  0  0  0  0  0  0  0
   12.3685    9.6141   -8.0977 H   0  0  0  0  0  0  0  0  0  0  0  0
   12.0462    8.4839  -10.0241 H   0  0  0  0  0  0  0  0  0  0  0  0
   12.3045    6.7675   -9.8617 H   0  0  0  0  0  0  0  0  0  0  0  0
  1  2  1  0
  2  3  1  0
  3  4  1  0
  4  5  1  0
  5  6  1  0
  6  7  1  0
  7  8  1  0
  8  9  1  0
  9 10  1  0
 10 11  1  0
 11 12  1  0
 12 13  1  0
 13 14  2  0
 14 15  1  0
 15 16  2  0
 16 17  1  0
 17 18  2  0
  9 19  1  0
 19 20  1  0
  4 21  1  0
 21 22  1  0
 22 23  1  0
 23 24  1  0
 23 25  1  0
 23 26  1  0
 26 27  2  0
 26 28  1  0
 22 29  1  0
 29  2  1  0
 20  6  1  0
 18 13  1  0
  1 30  1  0
  1 31  1  0
  1 32  1  0
  2 33  1  6
  3 34  1  0
  3 35  1  0
  4 36  1  1
  5 37  1  0
  5 38  1  0
  6 39  1  6
  7 40  1  0
  7 41  1  0
  8 42  1  0
  8 43  1  0
  9 44  1  6
 10 45  1  0
 10 46  1  0
 11 47  1  0
 11 48  1  0
 14 49  1  0
 15 50  1  0
 16 51  1  0
 17 52  1  0
 18 53  1  0
 19 54  1  0
 19 55  1  0
 20 56  1  0
 20 57  1  0
 21 58  1  0
 21 59  1  0
 22 60  1  6
 24 61  1  0
 24 62  1  0
 24 63  1  0
 25 64  1  0
 25 65  1  0
 25 66  1  0
 29 67  1  0
 29 68  1  0
M  CHG  2   6   1  28  -1
M  END

>  <ID>
DiffSBDD_23_num_sample_50

>  <docking_score>
-9.506

$$$$
DiffSBDD_24_num_sample_50
     RDKit          3D

 84 90  0  0  0  0  0  0  0  0999 V2000
    5.2240    4.2170  -20.6460 C   0  0  0  0  0  0  0  0  0  0  0  0
    5.5420    4.3990  -19.2070 C   0  0  0  0  0  0  0  0  0  0  0  0
    6.5500    3.4010  -18.7900 C   0  0  1  0  0  0  0  0  0  0  0  0
    7.2050    2.7930  -19.9420 C   0  0  0  0  0  0  0  0  0  0  0  0
    8.6850    2.5190  -19.4500 C   0  0  0  0  0  0  0  0  0  0  0  0
    8.4510    1.6710  -18.2920 N   0  0  0  0  0  0  0  0  0  0  0  0
    9.0420    0.3920  -18.1640 C   0  0  0  0  0  0  0  0  0  0  0  0
   10.2880    0.7000  -18.8450 C   0  0  2  0  0  0  0  0  0  0  0  0
   10.5720   -0.2740  -20.0140 C   0  0  0  0  0  0  0  0  0  0  0  0
   11.8970    0.0540  -20.6460 C   0  0  2  0  0  0  0  0  0  0  0  0
   12.0460   -0.7720  -21.8520 C   0  0  0  0  0  0  0  0  0  0  0  0
   12.9260    0.0070  -19.6560 N   0  0  0  0  0  0  0  0  0  0  0  0
   14.1320   -0.6210  -19.8580 C   0  0  0  0  0  0  0  0  0  0  0  0
   15.0250    0.3460  -19.3250 C   0  0  2  0  0  0  0  0  0  0  0  0
   16.8260    0.2600  -19.8830 Cl  0  0  0  0  0  0  0  0  0  0  0  0
   14.4000    1.0480  -17.8010 S   0  0  0  0  0  0  0  0  0  0  0  0
   12.7570    0.8530  -18.5100 C   0  0  1  0  0  0  0  0  0  0  0  0
   11.3610    1.3380  -18.0400 C   0  0  0  0  0  0  0  0  0  0  0  0
    7.8480    1.8740  -16.5730 C   0  0  0  0  0  0  0  0  0  0  0  0
    7.8790    0.9000  -16.0270 O   0  0  0  0  0  0  0  0  0  0  0  0
    7.3610    2.9920  -15.9140 C   0  0  0  0  0  0  0  0  0  0  0  0
    7.2630    4.1370  -16.7270 C   0  0  0  0  0  0  0  0  0  0  0  0
    7.4590    4.1190  -17.9660 O   0  0  0  0  0  0  0  0  0  0  0  0
    7.0090    5.2650  -16.1680 C   0  0  2  0  0  0  0  0  0  0  0  0
    7.0270    6.5120  -16.7190 O   0  0  0  0  0  0  0  0  0  0  0  0
    5.8290    7.0380  -17.0180 C   0  0  0  0  0  0  0  0  0  0  0  0
    7.1660    5.3590  -14.8170 C   0  0  1  0  0  0  0  0  0  0  0  0
    7.4430    6.6800  -14.5240 F   0  0  0  0  0  0  0  0  0  0  0  0
    6.8500    4.3720  -14.0380 C   0  0  2  0  0  0  0  0  0  0  0  0
    6.3470    4.8220  -12.7700 N   0  0  0  0  0  0  0  0  0  0  0  0
    5.4020    4.4860  -11.9960 C   0  0  0  0  0  0  0  0  0  0  0  0
    6.7530    4.5090  -11.6870 C   0  0  2  0  0  0  0  0  0  0  0  0
    7.6410    5.5690  -11.4860 C   0  0  0  0  0  0  0  0  0  0  0  0
    8.6060    4.6910  -11.0020 C   0  0  0  0  0  0  0  0  0  0  0  0
    8.9780    5.0460   -9.8230 C   0  0  1  0  0  0  0  0  0  0  0  0
    8.8190    4.6660   -8.4530 C   0  0  2  0  0  0  0  0  0  0  0  0
    9.3670    5.8930   -7.9260 C   0  0  0  0  0  0  0  0  0  0  0  0
    9.6440    6.1300   -9.3320 C   0  0  1  0  0  0  0  0  0  0  0  0
   10.0630    6.9640  -10.0950 F   0  0  0  0  0  0  0  0  0  0  0  0
    6.9260    3.0540  -14.4890 C   0  0  0  0  0  0  0  0  0  0  0  0
    4.2732    3.6728  -20.7454 H   0  0  0  0  0  0  0  0  0  0  0  0
    5.1355    5.2012  -21.1293 H   0  0  0  0  0  0  0  0  0  0  0  0
    6.0277    3.6422  -21.1293 H   0  0  0  0  0  0  0  0  0  0  0  0
    5.9411    5.4113  -19.0458 H   0  0  0  0  0  0  0  0  0  0  0  0
    4.6271    4.2638  -18.6115 H   0  0  0  0  0  0  0  0  0  0  0  0
    6.1002    2.5576  -18.2456 H   0  0  0  0  0  0  0  0  0  0  0  0
    6.7071    1.8530  -20.2224 H   0  0  0  0  0  0  0  0  0  0  0  0
    7.1705    3.4364  -20.8335 H   0  0  0  0  0  0  0  0  0  0  0  0
    9.2741    1.9969  -20.2184 H   0  0  0  0  0  0  0  0  0  0  0  0
    9.2615    3.4298  -19.2308 H   0  0  0  0  0  0  0  0  0  0  0  0
    9.1971    0.1039  -17.1138 H   0  0  0  0  0  0  0  0  0  0  0  0
    8.4644   -0.4574  -18.5574 H   0  0  0  0  0  0  0  0  0  0  0  0
   10.1789    1.6301  -19.4220 H   0  0  0  0  0  0  0  0  0  0  0  0
   10.5960   -1.3051  -19.6315 H   0  0  0  0  0  0  0  0  0  0  0  0
    9.7775   -0.1745  -20.7682 H   0  0  0  0  0  0  0  0  0  0  0  0
   11.9722    1.0867  -21.0173 H   0  0  0  0  0  0  0  0  0  0  0  0
   12.2343   -1.8158  -21.5605 H   0  0  0  0  0  0  0  0  0  0  0  0
   11.1237   -0.7187  -22.4492 H   0  0  0  0  0  0  0  0  0  0  0  0
   12.8915   -0.3998  -22.4492 H   0  0  0  0  0  0  0  0  0  0  0  0
   14.1904   -1.5726  -19.3093 H   0  0  0  0  0  0  0  0  0  0  0  0
   14.3320   -0.9001  -20.9030 H   0  0  0  0  0  0  0  0  0  0  0  0
   15.0934    1.3125  -19.8457 H   0  0  0  0  0  0  0  0  0  0  0  0
   12.6234   -0.0805  -17.9436 H   0  0  0  0  0  0  0  0  0  0  0  0
   11.2241    1.0739  -16.9810 H   0  0  0  0  0  0  0  0  0  0  0  0
   11.3018    2.4286  -18.1707 H   0  0  0  0  0  0  0  0  0  0  0  0
    6.0516    4.9560  -16.6129 H   0  0  0  0  0  0  0  0  0  0  0  0
    5.2902    7.2746  -16.0887 H   0  0  0  0  0  0  0  0  0  0  0  0
    5.9686    7.9576  -17.6052 H   0  0  0  0  0  0  0  0  0  0  0  0
    5.2464    6.3129  -17.6052 H   0  0  0  0  0  0  0  0  0  0  0  0
    7.8121    4.8440  -14.0908 H   0  0  0  0  0  0  0  0  0  0  0  0
    5.8282    4.3776  -14.4453 H   0  0  0  0  0  0  0  0  0  0  0  0
    4.7128    5.2373  -11.5829 H   0  0  0  0  0  0  0  0  0  0  0  0
    4.5770    3.7585  -11.9866 H   0  0  0  0  0  0  0  0  0  0  0  0
    7.2312    3.8014  -10.9937 H   0  0  0  0  0  0  0  0  0  0  0  0
    7.9333    6.0879  -12.4108 H   0  0  0  0  0  0  0  0  0  0  0  0
    7.3348    6.4371  -10.8837 H   0  0  0  0  0  0  0  0  0  0  0  0
    8.1850    3.6756  -10.9599 H   0  0  0  0  0  0  0  0  0  0  0  0
    9.4768    4.7088  -11.6738 H   0  0  0  0  0  0  0  0  0  0  0  0
    8.0987    5.7020   -9.7431 H   0  0  0  0  0  0  0  0  0  0  0  0
    7.8135    5.1120   -8.4460 H   0  0  0  0  0  0  0  0  0  0  0  0
    8.6457    6.5782   -7.4568 H   0  0  0  0  0  0  0  0  0  0  0  0
   10.1159    5.9497   -7.1223 H   0  0  0  0  0  0  0  0  0  0  0  0
    7.6500    2.5047  -13.8693 H   0  0  0  0  0  0  0  0  0  0  0  0
    5.9257    2.6030  -14.4119 H   0  0  0  0  0  0  0  0  0  0  0  0
  1  2  1  0
  2  3  1  0
  3  4  1  0
  4  5  1  0
  5  6  1  0
  6  7  1  0
  7  8  1  0
  8  9  1  0
  9 10  1  0
 10 11  1  0
 10 12  1  0
 12 13  1  0
 13 14  1  0
 14 15  1  0
 14 16  1  0
 16 17  1  0
 17 18  1  0
  6 19  1  0
 19 20  2  0
 19 21  1  0
 21 22  2  0
 22 23  1  0
 22 24  1  0
 24 25  1  0
 25 26  1  0
 24 27  1  0
 27 28  1  0
 27 29  1  0
 29 30  1  0
 30 31  1  0
 31 32  1  0
 32 33  1  0
 33 34  1  0
 34 35  1  0
 35 36  1  0
 36 37  1  0
 37 38  1  0
 38 39  1  6
 29 40  1  0
 23  3  1  0
 32 30  1  0
 38 35  1  0
 18  8  1  0
 40 21  1  0
 17 12  1  0
 38 36  1  0
  1 41  1  0
  1 42  1  0
  1 43  1  0
  2 44  1  0
  2 45  1  0
  3 46  1  1
  4 47  1  0
  4 48  1  0
  5 49  1  0
  5 50  1  0
  7 51  1  0
  7 52  1  0
  8 53  1  6
  9 54  1  0
  9 55  1  0
 10 56  1  6
 11 57  1  0
 11 58  1  0
 11 59  1  0
 13 60  1  0
 13 61  1  0
 14 62  1  6
 17 63  1  6
 18 64  1  0
 18 65  1  0
 24 66  1  1
 26 67  1  0
 26 68  1  0
 26 69  1  0
 27 70  1  6
 29 71  1  1
 31 72  1  0
 31 73  1  0
 32 74  1  6
 33 75  1  0
 33 76  1  0
 34 77  1  0
 34 78  1  0
 35 79  1  6
 36 80  1  1
 37 81  1  0
 37 82  1  0
 40 83  1  0
 40 84  1  0
M  END

>  <ID>
DiffSBDD_24_num_sample_50

>  <docking_score>
-8.2

$$$$
DiffSBDD_25_num_sample_50
     RDKit          3D

 69 74  0  0  0  0  0  0  0  0999 V2000
   13.9000    8.1130   -9.4900 C   0  0  0  0  0  0  0  0  0  0  0  0
   12.5660    8.4150   -9.8900 O   0  0  0  0  0  0  0  0  0  0  0  0
   11.5490    8.2520   -8.8210 C   0  0  0  0  0  0  0  0  0  0  0  0
   11.8680    8.9060   -7.6050 C   0  0  0  0  0  0  0  0  0  0  0  0
   10.7980    9.0490   -6.8210 C   0  0  0  0  0  0  0  0  0  0  0  0
   11.0900    9.9210   -5.2060 Cl  0  0  0  0  0  0  0  0  0  0  0  0
    9.6030    8.4730   -6.8460 C   0  0  0  0  0  0  0  0  0  0  0  0
    9.4080    7.6230   -7.9260 C   0  0  0  0  0  0  0  0  0  0  0  0
   10.3510    7.5580   -8.9270 C   0  0  0  0  0  0  0  0  0  0  0  0
   10.2910    6.6220  -10.1040 C   0  0  1  0  0  0  0  0  0  0  0  0
    9.4160    5.3630   -9.8700 C   0  0  0  0  0  0  0  0  0  0  0  0
    8.3170    5.6580  -10.7360 N   0  0  0  0  0  0  0  0  0  0  0  0
    7.0950    5.1520  -10.9760 C   0  0  0  0  0  0  0  0  0  0  0  0
    7.2360    5.4060  -12.3240 N   0  0  0  0  0  0  0  0  0  0  0  0
    6.7780    4.2170  -13.2150 C   0  0  0  0  0  0  0  0  0  0  0  0
    7.5360    4.0380  -14.1440 C   0  0  0  0  0  0  0  0  0  0  0  0
    7.6710    2.6070  -13.7490 C   0  0  0  0  0  0  0  0  0  0  0  0
    6.7900    1.8980  -14.8810 N   0  0  0  0  0  0  0  0  0  0  0  0
    7.5020    2.2090  -16.1070 C   0  0  0  0  0  0  0  0  0  0  0  0
    7.4740    1.0330  -17.0820 C   0  0  2  0  0  0  0  0  0  0  0  0
    7.0940    1.9240  -18.0360 C   0  0  2  0  0  0  0  0  0  0  0  0
    6.8780    3.4030  -18.2420 C   0  0  0  0  0  0  0  0  0  0  0  0
    5.6530    3.5600  -19.6990 S   0  0  0  0  0  0  0  0  0  0  0  0
    5.3700    1.9160  -19.8800 O   0  0  0  0  0  0  0  0  0  0  0  0
    5.8260    1.3900  -18.5950 C   0  0  1  0  0  0  0  0  0  0  0  0
    5.8520   -0.1590  -18.6550 C   0  0  1  0  0  0  0  0  0  0  0  0
    6.0440   -0.8820  -19.7060 C   0  0  0  0  0  0  0  0  0  0  0  0
    6.6760   -0.3710  -17.4410 C   0  0  1  0  0  0  0  0  0  0  0  0
    7.5040   -1.3390  -17.7450 F   0  0  0  0  0  0  0  0  0  0  0  0
    5.7520   -0.8080  -16.2490 C   0  0  0  0  0  0  0  0  0  0  0  0
    5.3650    0.2900  -15.5350 O   0  0  0  0  0  0  0  0  0  0  0  0
    6.0870    0.9280  -14.4630 C   0  0  0  0  0  0  0  0  0  0  0  0
    5.9540    0.5770  -13.2810 O   0  0  0  0  0  0  0  0  0  0  0  0
    7.5590    6.8610  -12.4880 C   0  0  0  0  0  0  0  0  0  0  0  0
    8.8150    6.7210  -11.7110 C   0  0  1  0  0  0  0  0  0  0  0  0
    9.7360    7.3820  -11.1970 O   0  0  0  0  0  0  0  0  0  0  0  0
   13.9593    8.0996   -8.3917 H   0  0  0  0  0  0  0  0  0  0  0  0
   14.1869    7.1272   -9.8848 H   0  0  0  0  0  0  0  0  0  0  0  0
   14.5835    8.8791   -9.8848 H   0  0  0  0  0  0  0  0  0  0  0  0
   12.8771    9.2541   -7.3393 H   0  0  0  0  0  0  0  0  0  0  0  0
    8.8352    8.6530   -6.0792 H   0  0  0  0  0  0  0  0  0  0  0  0
    8.5015    7.0024   -7.9820 H   0  0  0  0  0  0  0  0  0  0  0  0
   11.3060    6.2456  -10.2995 H   0  0  0  0  0  0  0  0  0  0  0  0
    9.9371    4.4423  -10.1713 H   0  0  0  0  0  0  0  0  0  0  0  0
    9.1418    5.1786   -8.8208 H   0  0  0  0  0  0  0  0  0  0  0  0
    6.9981    4.0841  -10.7308 H   0  0  0  0  0  0  0  0  0  0  0  0
    6.2218    5.5400  -10.4311 H   0  0  0  0  0  0  0  0  0  0  0  0
    6.7428    3.3043  -12.6020 H   0  0  0  0  0  0  0  0  0  0  0  0
    5.7843    4.4550  -13.6224 H   0  0  0  0  0  0  0  0  0  0  0  0
    7.0797    4.1908  -15.1332 H   0  0  0  0  0  0  0  0  0  0  0  0
    8.4275    4.6703  -14.2680 H   0  0  0  0  0  0  0  0  0  0  0  0
    8.7190    2.2746  -13.7844 H   0  0  0  0  0  0  0  0  0  0  0  0
    7.3518    2.3870  -12.7196 H   0  0  0  0  0  0  0  0  0  0  0  0
    7.0297    3.0805  -16.5839 H   0  0  0  0  0  0  0  0  0  0  0  0
    8.5507    2.4233  -15.8533 H   0  0  0  0  0  0  0  0  0  0  0  0
    8.3071    0.3872  -16.7676 H   0  0  0  0  0  0  0  0  0  0  0  0
    8.1566    1.9754  -18.3156 H   0  0  0  0  0  0  0  0  0  0  0  0
    6.4527    3.8569  -17.3348 H   0  0  0  0  0  0  0  0  0  0  0  0
    7.8243    3.9221  -18.4542 H   0  0  0  0  0  0  0  0  0  0  0  0
    5.0828    1.7620  -17.8744 H   0  0  0  0  0  0  0  0  0  0  0  0
    4.8430   -0.5926  -18.7179 H   0  0  0  0  0  0  0  0  0  0  0  0
    6.3154   -1.9041  -19.4033 H   0  0  0  0  0  0  0  0  0  0  0  0
    5.1221   -0.9097  -20.3054 H   0  0  0  0  0  0  0  0  0  0  0  0
    6.8582   -0.4487  -20.3054 H   0  0  0  0  0  0  0  0  0  0  0  0
    4.8616   -1.3178  -16.6455 H   0  0  0  0  0  0  0  0  0  0  0  0
    6.3087   -1.4909  -15.5904 H   0  0  0  0  0  0  0  0  0  0  0  0
    7.7181    7.1628  -13.5338 H   0  0  0  0  0  0  0  0  0  0  0  0
    6.8183    7.6156  -12.1848 H   0  0  0  0  0  0  0  0  0  0  0  0
    9.5087    6.8351  -12.5570 H   0  0  0  0  0  0  0  0  0  0  0  0
  1  2  1  0
  2  3  1  0
  3  4  2  0
  4  5  1  0
  5  6  1  0
  5  7  2  0
  7  8  1  0
  8  9  2  0
  9 10  1  0
 10 11  1  0
 11 12  1  0
 12 13  1  0
 13 14  1  0
 14 15  1  0
 15 16  1  0
 16 17  1  0
 17 18  1  0
 18 19  1  0
 19 20  1  0
 20 21  1  0
 21 22  1  0
 22 23  1  0
 23 24  1  0
 24 25  1  0
 25 26  1  0
 26 27  1  0
 26 28  1  0
 28 29  1  6
 28 30  1  0
 30 31  1  0
 31 32  1  0
 32 33  2  0
 14 34  1  0
 34 35  1  0
 35 36  1  0
  9  3  1  0
 36 10  1  0
 35 12  1  0
 32 18  1  0
 28 20  1  0
 25 21  1  0
  1 37  1  0
  1 38  1  0
  1 39  1  0
  4 40  1  0
  7 41  1  0
  8 42  1  0
 10 43  1  6
 11 44  1  0
 11 45  1  0
 13 46  1  0
 13 47  1  0
 15 48  1  0
 15 49  1  0
 16 50  1  0
 16 51  1  0
 17 52  1  0
 17 53  1  0
 19 54  1  0
 19 55  1  0
 20 56  1  6
 21 57  1  6
 22 58  1  0
 22 59  1  0
 25 60  1  1
 26 61  1  1
 27 62  1  0
 27 63  1  0
 27 64  1  0
 30 65  1  0
 30 66  1  0
 34 67  1  0
 34 68  1  0
 35 69  1  6
M  END

>  <ID>
DiffSBDD_25_num_sample_50

>  <docking_score>
-9.114

$$$$
DiffSBDD_26_num_sample_50
     RDKit          3D

 89 95  0  0  0  0  0  0  0  0999 V2000
    7.2980    0.0870  -13.6580 C   0  0  0  0  0  0  0  0  0  0  0  0
    7.1240   -0.0170  -15.2030 N   0  0  0  0  0  0  0  0  0  0  0  0
    5.8190   -0.0600  -15.6910 C   0  0  0  0  0  0  0  0  0  0  0  0
    5.8140    0.5730  -16.9810 C   0  0  0  0  0  0  0  0  0  0  0  0
    6.9470    1.0860  -17.2340 C   0  0  2  0  0  0  0  0  0  0  0  0
    7.7630    1.6310  -18.3760 C   0  0  0  0  0  0  0  0  0  0  0  0
    9.2780    1.7020  -18.0350 C   0  0  0  0  0  0  0  0  0  0  0  0
    7.5130    0.9960  -19.7220 C   0  0  0  0  0  0  0  0  0  0  0  0
    7.0200    2.9300  -18.1790 O   0  0  0  0  0  0  0  0  0  0  0  0
    6.7950    4.3720  -18.0920 C   0  0  0  0  0  0  0  0  0  0  0  0
    5.9770    5.0020  -16.9400 C   0  0  0  0  0  0  0  0  0  0  0  0
    6.9260    5.6390  -15.8960 C   0  0  2  0  0  0  0  0  0  0  0  0
    8.4060    5.2080  -16.1260 C   0  0  0  0  0  0  0  0  0  0  0  0
    8.6680    4.2250  -15.0330 C   0  0  0  0  0  0  0  0  0  0  0  0
    7.5600    3.6250  -14.0760 C   0  0  0  0  0  0  0  0  0  0  0  0
    6.4730    4.6030  -13.7540 C   0  0  0  0  0  0  0  0  0  0  0  0
    6.7970    6.0780  -14.3320 C   0  0  1  0  0  0  0  0  0  0  0  0
    6.2220    7.0050  -13.2180 C   0  0  0  0  0  0  0  0  0  0  0  0
    7.3880    7.6950  -12.4850 C   0  0  0  0  0  0  0  0  0  0  0  0
    8.6180    6.7340  -12.2210 C   0  0  0  0  0  0  0  0  0  0  0  0
    9.0440    6.9060  -10.7680 C   0  0  1  0  0  0  0  0  0  0  0  0
    9.0300    5.6650  -10.1180 C   0  0  2  0  0  0  0  0  0  0  0  0
    7.7590    4.7300  -10.3050 F   0  0  0  0  0  0  0  0  0  0  0  0
    9.1960    5.5970   -8.7350 C   0  0  1  0  0  0  0  0  0  0  0  0
    8.1490    5.1630   -7.9720 F   0  0  0  0  0  0  0  0  0  0  0  0
   10.3150    5.7130   -8.1190 O   0  0  0  0  0  0  0  0  0  0  0  0
   10.5710    7.1760   -8.1840 C   0  0  1  0  0  0  0  0  0  0  0  0
   11.5780    7.1390   -7.3150 C   0  0  0  0  0  0  0  0  0  0  0  0
   11.8280    8.1660   -7.9380 C   0  0  1  0  0  0  0  0  0  0  0  0
   13.0430    8.2840   -8.7330 C   0  0  0  0  0  0  0  0  0  0  0  0
   12.6110    8.0620  -10.2740 C   0  0  0  0  0  0  0  0  0  0  0  0
   11.3150    7.4390  -10.4930 C   0  0  2  0  0  0  0  0  0  0  0  0
   11.3870    6.7410  -11.4440 F   0  0  0  0  0  0  0  0  0  0  0  0
    9.9230    7.8630   -9.7290 S   0  0  2  0  0  4  0  0  0  0  0  0
    9.0890    8.0780   -8.1880 C   0  0  0  0  0  0  0  0  0  0  0  0
    6.6190    6.9070  -15.5790 C   0  0  0  0  0  0  0  0  0  0  0  0
    5.2290    7.2890  -15.6320 C   0  0  0  0  0  0  0  0  0  0  0  0
    6.0040    8.0640  -15.8730 C   0  0  0  0  0  0  0  0  0  0  0  0
    7.7600    0.8190  -16.0010 O   0  0  0  0  0  0  0  0  0  0  0  0
    6.4563   -0.4161  -13.1595 H   0  0  0  0  0  0  0  0  0  0  0  0
    8.2410   -0.3957  -13.3619 H   0  0  0  0  0  0  0  0  0  0  0  0
    7.3195    1.1462  -13.3619 H   0  0  0  0  0  0  0  0  0  0  0  0
    5.4884   -1.1049  -15.7851 H   0  0  0  0  0  0  0  0  0  0  0  0
    5.1337    0.4588  -15.0046 H   0  0  0  0  0  0  0  0  0  0  0  0
    5.5774   -0.1769  -17.7502 H   0  0  0  0  0  0  0  0  0  0  0  0
    5.0570    1.3711  -16.9801 H   0  0  0  0  0  0  0  0  0  0  0  0
    6.4114    1.7035  -17.9701 H   0  0  0  0  0  0  0  0  0  0  0  0
    9.4081    1.7081  -16.9427 H   0  0  0  0  0  0  0  0  0  0  0  0
    9.7910    0.8269  -18.4605 H   0  0  0  0  0  0  0  0  0  0  0  0
    9.7069    2.6212  -18.4605 H   0  0  0  0  0  0  0  0  0  0  0  0
    7.1134   -0.0190  -19.5800 H   0  0  0  0  0  0  0  0  0  0  0  0
    6.7860    1.6011  -20.2835 H   0  0  0  0  0  0  0  0  0  0  0  0
    8.4574    0.9430  -20.2835 H   0  0  0  0  0  0  0  0  0  0  0  0
    7.7907    4.8381  -18.0545 H   0  0  0  0  0  0  0  0  0  0  0  0
    6.1519    4.5604  -18.9643 H   0  0  0  0  0  0  0  0  0  0  0  0
    5.3127    5.7779  -17.3482 H   0  0  0  0  0  0  0  0  0  0  0  0
    5.3816    4.2166  -16.4515 H   0  0  0  0  0  0  0  0  0  0  0  0
    8.5277    4.7376  -17.1129 H   0  0  0  0  0  0  0  0  0  0  0  0
    9.1032    6.0586  -16.1075 H   0  0  0  0  0  0  0  0  0  0  0  0
    9.1356    3.3579  -15.5224 H   0  0  0  0  0  0  0  0  0  0  0  0
    9.2259    4.8553  -14.3248 H   0  0  0  0  0  0  0  0  0  0  0  0
    7.1097    2.7495  -14.5667 H   0  0  0  0  0  0  0  0  0  0  0  0
    8.0526    3.3572  -13.1296 H   0  0  0  0  0  0  0  0  0  0  0  0
    5.5314    4.2465  -14.1971 H   0  0  0  0  0  0  0  0  0  0  0  0
    6.3940    4.6761  -12.6593 H   0  0  0  0  0  0  0  0  0  0  0  0
    5.5704    7.7661  -13.6721 H   0  0  0  0  0  0  0  0  0  0  0  0
    5.6371    6.4071  -12.5036 H   0  0  0  0  0  0  0  0  0  0  0  0
    7.7319    8.5425  -13.0961 H   0  0  0  0  0  0  0  0  0  0  0  0
    7.0104    8.0180  -11.5036 H   0  0  0  0  0  0  0  0  0  0  0  0
    8.3223    5.6902  -12.4026 H   0  0  0  0  0  0  0  0  0  0  0  0
    9.4501    6.9827  -12.8961 H   0  0  0  0  0  0  0  0  0  0  0  0
    8.5234    7.8292  -11.0623 H   0  0  0  0  0  0  0  0  0  0  0  0
    9.9249    5.3334  -10.6650 H   0  0  0  0  0  0  0  0  0  0  0  0
    9.2727    6.6581   -9.0146 H   0  0  0  0  0  0  0  0  0  0  0  0
   11.3164    7.2589   -6.2533 H   0  0  0  0  0  0  0  0  0  0  0  0
   12.2632    6.2953   -7.1455 H   0  0  0  0  0  0  0  0  0  0  0  0
   11.9438    9.2495   -7.7875 H   0  0  0  0  0  0  0  0  0  0  0  0
   13.4858    9.2825   -8.6032 H   0  0  0  0  0  0  0  0  0  0  0  0
   13.7940    7.5432   -8.4213 H   0  0  0  0  0  0  0  0  0  0  0  0
   12.5974    9.0466  -10.7642 H   0  0  0  0  0  0  0  0  0  0  0  0
   13.3495    7.3604  -10.6892 H   0  0  0  0  0  0  0  0  0  0  0  0
   10.8271    6.9941   -9.6132 H   0  0  0  0  0  0  0  0  0  0  0  0
   10.2000    9.1470   -9.3380 H   0  0  0  0  0  0  0  0  0  0  0  0
    9.0574    9.0736   -7.7213 H   0  0  0  0  0  0  0  0  0  0  0  0
    8.0674    7.8707   -7.8367 H   0  0  0  0  0  0  0  0  0  0  0  0
    4.5851    6.8945  -16.4319 H   0  0  0  0  0  0  0  0  0  0  0  0
    4.3905    7.2363  -14.9219 H   0  0  0  0  0  0  0  0  0  0  0  0
    6.0626    8.4323  -16.9078 H   0  0  0  0  0  0  0  0  0  0  0  0
    6.1523    9.0702  -15.4539 H   0  0  0  0  0  0  0  0  0  0  0  0
  1  2  1  0
  2  3  1  0
  3  4  1  0
  4  5  1  0
  5  6  1  0
  6  7  1  0
  6  8  1  0
  6  9  1  0
  9 10  1  0
 10 11  1  0
 12 11  1  6
 12 13  1  0
 13 14  1  0
 14 15  1  0
 15 16  1  0
 16 17  1  0
 17 18  1  1
 18 19  1  0
 19 20  1  0
 20 21  1  0
 21 22  1  0
 22 23  1  0
 22 24  1  0
 24 25  1  0
 24 26  1  0
 27 26  1  6
 27 28  1  0
 28 29  1  0
 29 30  1  0
 30 31  1  0
 31 32  1  0
 32 33  1  0
 32 34  1  0
 34 35  1  0
 17 36  1  0
 36 37  1  0
 37 38  1  0
  5 39  1  0
 39  2  1  0
 17 12  1  0
 34 21  1  0
 38 36  1  0
 36 12  1  0
 29 27  1  0
 35 27  1  0
  1 40  1  0
  1 41  1  0
  1 42  1  0
  3 43  1  0
  3 44  1  0
  4 45  1  0
  4 46  1  0
  5 47  1  1
  7 48  1  0
  7 49  1  0
  7 50  1  0
  8 51  1  0
  8 52  1  0
  8 53  1  0
 10 54  1  0
 10 55  1  0
 11 56  1  0
 11 57  1  0
 13 58  1  0
 13 59  1  0
 14 60  1  0
 14 61  1  0
 15 62  1  0
 15 63  1  0
 16 64  1  0
 16 65  1  0
 18 66  1  0
 18 67  1  0
 19 68  1  0
 19 69  1  0
 20 70  1  0
 20 71  1  0
 21 72  1  1
 22 73  1  6
 24 74  1  1
 28 75  1  0
 28 76  1  0
 29 77  1  1
 30 78  1  0
 30 79  1  0
 31 80  1  0
 31 81  1  0
 32 82  1  1
 34 83  1  6
 35 84  1  0
 35 85  1  0
 37 86  1  0
 37 87  1  0
 38 88  1  0
 38 89  1  0
M  END

>  <ID>
DiffSBDD_26_num_sample_50

>  <docking_score>
-9.502

$$$$
DiffSBDD_27_num_sample_50
     RDKit          3D

 95101  0  0  0  0  0  0  0  0999 V2000
   17.6170    6.3170  -16.8710 C   0  0  0  0  0  0  0  0  0  0  0  0
   18.0030    7.6190  -17.5420 C   0  0  0  0  0  0  0  0  0  0  0  0
   16.9910    7.2100  -18.5540 C   0  0  1  0  0  0  0  0  0  0  0  0
   15.5440    7.7740  -18.1310 O   0  0  0  0  0  0  0  0  0  0  0  0
   15.4360    7.7570  -19.5580 C   0  0  2  0  0  0  0  0  0  0  0  0
   15.0010    6.3010  -19.7800 C   0  0  0  0  0  0  0  0  0  0  0  0
   13.7700    6.3350  -20.5950 C   0  0  0  0  0  0  0  0  0  0  0  0
   12.9050    7.9330  -19.9900 S   0  0  1  0  0  4  0  0  0  0  0  0
   12.7820    6.9990  -18.4610 O   0  0  0  0  0  0  0  0  0  0  0  0
   12.3620    5.9420  -17.4230 S   0  0  1  0  0  4  0  0  0  0  0  0
   12.4900    6.4210  -16.1310 O   0  0  0  0  0  0  0  0  0  0  0  0
   10.8620    5.5050  -18.2690 C   0  0  0  0  0  0  0  0  0  0  0  0
   10.1610    4.4200  -18.5150 C   0  0  0  0  0  0  0  0  0  0  0  0
   10.6740    2.9910  -18.9320 C   0  0  1  0  0  0  0  0  0  0  0  0
   11.4570    2.2680  -18.1770 C   0  0  2  0  0  0  0  0  0  0  0  0
   12.6150    3.0260  -17.4050 C   0  0  1  0  0  0  0  0  0  0  0  0
   13.6510    1.9300  -17.7820 C   0  0  0  0  0  0  0  0  0  0  0  0
   13.0120    0.6690  -18.4220 C   0  0  0  0  0  0  0  0  0  0  0  0
   11.4150    0.7170  -18.4770 C   0  0  2  0  0  0  0  0  0  0  0  0
   10.0400    0.1890  -18.9500 S   0  0  1  0  0  4  0  0  0  0  0  0
    9.4560   -0.3620  -17.4820 C   0  0  0  0  0  0  0  0  0  0  0  0
    8.0780    0.0170  -17.5380 C   0  0  0  0  0  0  0  0  0  0  0  0
    6.8990    0.0100  -18.1380 C   0  0  2  0  0  0  0  0  0  0  0  0
    6.2980   -1.2330  -18.9770 C   0  0  0  0  0  0  0  0  0  0  0  0
    6.2820   -2.0100  -18.2440 O   0  0  0  0  0  0  0  0  0  0  0  0
    5.7100   -1.9770  -16.8030 C   0  0  0  0  0  0  0  0  0  0  0  0
    4.4770   -1.3170  -16.8760 O   0  0  0  0  0  0  0  0  0  0  0  0
    4.1810   -0.1850  -16.0330 F   0  0  0  0  0  0  0  0  0  0  0  0
    6.0230   -1.4890  -19.7930 C   0  0  1  0  0  0  0  0  0  0  0  0
    5.0540   -2.5270  -19.9530 C   0  0  0  0  0  0  0  0  0  0  0  0
    5.1360   -2.8870  -20.9830 C   0  0  0  0  0  0  0  0  0  0  0  0
    6.2810   -3.3600  -21.7040 F   0  0  0  0  0  0  0  0  0  0  0  0
    5.8360   -0.2130  -20.4260 N   0  0  0  0  0  0  0  0  0  0  0  0
    5.9710    0.6560  -19.9050 C   0  0  0  0  0  0  0  0  0  0  0  0
    5.6370    1.9290  -20.4530 O   0  0  0  0  0  0  0  0  0  0  0  0
    6.4380    1.3940  -18.4590 C   0  0  2  0  0  0  0  0  0  0  0  0
    6.9460    1.9610  -18.6190 O   0  0  0  0  0  0  0  0  0  0  0  0
    8.2100    2.3880  -18.4490 C   0  0  1  0  0  0  0  0  0  0  0  0
    8.2630    2.7140  -17.0560 C   0  0  0  0  0  0  0  0  0  0  0  0
    9.3590    1.8880  -19.2190 C   0  0  1  0  0  0  0  0  0  0  0  0
   13.0930    4.4540  -17.2100 C   0  0  0  0  0  0  0  0  0  0  0  0
   14.4570    8.6450  -20.2110 C   0  0  2  0  0  0  0  0  0  0  0  0
   14.7430    9.1030  -21.4250 C   0  0  0  0  0  0  0  0  0  0  0  0
   14.2520    9.8180  -19.3760 O   0  0  0  0  0  0  0  0  0  0  0  0
   17.6541    6.4423  -15.7788 H   0  0  0  0  0  0  0  0  0  0  0  0
   16.5972    6.0369  -17.1735 H   0  0  0  0  0  0  0  0  0  0  0  0
   18.3194    5.5263  -17.1735 H   0  0  0  0  0  0  0  0  0  0  0  0
   17.7638    8.5315  -16.9762 H   0  0  0  0  0  0  0  0  0  0  0  0
   19.0387    7.8930  -17.7914 H   0  0  0  0  0  0  0  0  0  0  0  0
   17.7775    6.5127  -18.8783 H   0  0  0  0  0  0  0  0  0  0  0  0
   15.7900    5.7483  -20.3111 H   0  0  0  0  0  0  0  0  0  0  0  0
   14.8210    5.7955  -18.8198 H   0  0  0  0  0  0  0  0  0  0  0  0
   14.0064    6.3942  -21.6677 H   0  0  0  0  0  0  0  0  0  0  0  0
   13.1486    5.4343  -20.4832 H   0  0  0  0  0  0  0  0  0  0  0  0
   11.8350    8.7180  -20.3290 H   0  0  0  0  0  0  0  0  0  0  0  0
   13.3380    6.0940  -15.7410 H   0  0  0  0  0  0  0  0  0  0  0  0
   10.1221    6.1456  -17.7669 H   0  0  0  0  0  0  0  0  0  0  0  0
   11.3419    5.5007  -19.2588 H   0  0  0  0  0  0  0  0  0  0  0  0
    9.5874    4.2480  -17.5923 H   0  0  0  0  0  0  0  0  0  0  0  0
    9.7324    4.7234  -19.4816 H   0  0  0  0  0  0  0  0  0  0  0  0
   11.2781    3.3417  -19.7817 H   0  0  0  0  0  0  0  0  0  0  0  0
   11.0782    2.0855  -17.1605 H   0  0  0  0  0  0  0  0  0  0  0  0
   12.2186    3.4104  -16.4536 H   0  0  0  0  0  0  0  0  0  0  0  0
   14.3671    2.3592  -18.4982 H   0  0  0  0  0  0  0  0  0  0  0  0
   14.1366    1.6087  -16.8487 H   0  0  0  0  0  0  0  0  0  0  0  0
   13.3923    0.5701  -19.4494 H   0  0  0  0  0  0  0  0  0  0  0  0
   13.2868   -0.1877  -17.7892 H   0  0  0  0  0  0  0  0  0  0  0  0
   11.1765   -0.3474  -18.3348 H   0  0  0  0  0  0  0  0  0  0  0  0
    9.8730   -0.7180  -19.9620 H   0  0  0  0  0  0  0  0  0  0  0  0
    9.5654   -1.4530  -17.3944 H   0  0  0  0  0  0  0  0  0  0  0  0
    9.9904    0.0506  -16.6136 H   0  0  0  0  0  0  0  0  0  0  0  0
    7.7629   -0.3856  -16.5640 H   0  0  0  0  0  0  0  0  0  0  0  0
    8.3653    0.8704  -18.1697 H   0  0  0  0  0  0  0  0  0  0  0  0
    6.3000   -0.4523  -17.3396 H   0  0  0  0  0  0  0  0  0  0  0  0
    7.3166   -1.5288  -19.2684 H   0  0  0  0  0  0  0  0  0  0  0  0
    5.5704   -3.0012  -16.4267 H   0  0  0  0  0  0  0  0  0  0  0  0
    6.3961   -1.4600  -16.1160 H   0  0  0  0  0  0  0  0  0  0  0  0
    6.7493   -2.1353  -20.3076 H   0  0  0  0  0  0  0  0  0  0  0  0
    5.2595   -3.3469  -19.2491 H   0  0  0  0  0  0  0  0  0  0  0  0
    4.0404   -2.1517  -19.7487 H   0  0  0  0  0  0  0  0  0  0  0  0
    4.4227   -3.7229  -21.0331 H   0  0  0  0  0  0  0  0  0  0  0  0
    5.0394   -1.9133  -21.4857 H   0  0  0  0  0  0  0  0  0  0  0  0
    5.5630   -0.1740  -21.4180 H   0  0  0  0  0  0  0  0  0  0  0  0
    5.8401    1.9477  -17.7201 H   0  0  0  0  0  0  0  0  0  0  0  0
    8.4526    3.2456  -19.0938 H   0  0  0  0  0  0  0  0  0  0  0  0
    8.1146    1.8015  -16.4600 H   0  0  0  0  0  0  0  0  0  0  0  0
    9.2440    3.1514  -16.8189 H   0  0  0  0  0  0  0  0  0  0  0  0
    7.4710    3.4396  -16.8189 H   0  0  0  0  0  0  0  0  0  0  0  0
    8.9418    1.8205  -20.2346 H   0  0  0  0  0  0  0  0  0  0  0  0
   13.4051    4.4743  -16.1554 H   0  0  0  0  0  0  0  0  0  0  0  0
   13.7026    4.4953  -18.1247 H   0  0  0  0  0  0  0  0  0  0  0  0
   15.3238   10.0331  -21.3385 H   0  0  0  0  0  0  0  0  0  0  0  0
   15.3328    8.3518  -21.9708 H   0  0  0  0  0  0  0  0  0  0  0  0
   13.8092    9.3032  -21.9708 H   0  0  0  0  0  0  0  0  0  0  0  0
   13.8840    9.5390  -18.5010 H   0  0  0  0  0  0  0  0  0  0  0  0
  1  2  1  0
  2  3  1  0
  3  4  1  0
  5  4  1  1
  5  6  1  0
  6  7  1  0
  7  8  1  0
  8  9  1  0
 10  9  1  6
 10 11  1  0
 10 12  1  0
 12 13  1  0
 13 14  1  0
 14 15  1  0
 15 16  1  0
 16 17  1  0
 17 18  1  0
 18 19  1  0
 19 20  1  0
 20 21  1  0
 21 22  1  0
 22 23  1  0
 23 24  1  0
 24 25  1  0
 25 26  1  0
 26 27  1  0
 27 28  1  0
 24 29  1  0
 29 30  1  0
 30 31  1  0
 31 32  1  0
 29 33  1  0
 33 34  1  0
 34 35  2  0
 34 36  1  0
 36 37  1  0
 37 38  1  0
 38 39  1  0
 38 40  1  0
 16 41  1  0
  8 42  1  0
 42 43  1  0
 42 44  1  1
  5  3  1  0
 41 10  1  0
 42  5  1  0
 40 14  1  0
 19 15  1  0
 40 20  1  0
 36 23  1  0
  1 45  1  0
  1 46  1  0
  1 47  1  0
  2 48  1  0
  2 49  1  0
  3 50  1  1
  6 51  1  0
  6 52  1  0
  7 53  1  0
  7 54  1  0
  8 55  1  6
 11 56  1  0
 12 57  1  0
 12 58  1  0
 13 59  1  0
 13 60  1  0
 14 61  1  6
 15 62  1  1
 16 63  1  1
 17 64  1  0
 17 65  1  0
 18 66  1  0
 18 67  1  0
 19 68  1  1
 20 69  1  6
 21 70  1  0
 21 71  1  0
 22 72  1  0
 22 73  1  0
 23 74  1  1
 24 75  1  0
 26 76  1  0
 26 77  1  0
 29 78  1  6
 30 79  1  0
 30 80  1  0
 31 81  1  0
 31 82  1  0
 33 83  1  0
 36 84  1  1
 38 85  1  6
 39 86  1  0
 39 87  1  0
 39 88  1  0
 40 89  1  6
 41 90  1  0
 41 91  1  0
 43 92  1  0
 43 93  1  0
 43 94  1  0
 44 95  1  0
M  END

>  <ID>
DiffSBDD_27_num_sample_50

>  <docking_score>
-7.563

$$$$
DiffSBDD_28_num_sample_50
     RDKit          3D

 70 72  0  0  0  0  0  0  0  0999 V2000
    6.0430    7.1510  -13.1650 C   0  0  0  0  0  0  0  0  0  0  0  0
    5.9340    5.9290  -13.9110 C   0  0  0  0  0  0  0  0  0  0  0  0
    5.9260    5.8260  -15.0970 O   0  0  0  0  0  0  0  0  0  0  0  0
    6.3290    4.8870  -12.8710 C   0  0  2  0  0  0  0  0  0  0  0  0
    6.2440    4.9770  -11.5510 C   0  0  0  0  0  0  0  0  0  0  0  0
    7.4360    5.0440  -10.6660 C   0  0  0  0  0  0  0  0  0  0  0  0
    8.5790    5.6600  -10.8150 C   0  0  1  0  0  0  0  0  0  0  0  0
    9.4690    6.6910  -11.5870 C   0  0  0  0  0  0  0  0  0  0  0  0
    9.4680    7.0850  -12.6630 O   0  0  0  0  0  0  0  0  0  0  0  0
   10.5320    7.1140  -10.8890 N   0  0  0  0  0  0  0  0  0  0  0  0
   10.5470    6.5780   -9.5440 C   0  0  1  0  0  0  0  0  0  0  0  0
   11.2890    7.7600   -8.6850 C   0  0  2  0  0  0  0  0  0  0  0  0
   10.1830    8.3780   -7.8780 C   0  0  0  0  0  0  0  0  0  0  0  0
   10.1700    7.9990   -6.4010 C   0  0  1  0  0  0  0  0  0  0  0  0
   10.7690    6.6340   -6.1520 C   0  0  0  0  0  0  0  0  0  0  0  0
   11.2920    6.8390   -4.7030 C   0  0  0  0  0  0  0  0  0  0  0  0
   11.7980    8.2700   -4.5260 C   0  0  2  0  0  0  0  0  0  0  0  0
   12.7470    9.2070   -3.8070 C   0  0  0  0  0  0  0  0  0  0  0  0
   10.9880    8.9680   -5.6820 C   0  0  0  0  0  0  0  0  0  0  0  0
   12.4200    8.2460   -8.9240 C   0  0  0  0  0  0  0  0  0  0  0  0
   12.8460    8.4550  -10.1140 O   0  0  0  0  0  0  0  0  0  0  0  0
   13.1300    8.8290   -8.0570 O   0  0  0  0  0  0  0  0  0  0  0  0
    9.3240    5.7030   -9.5040 N   0  0  0  0  0  0  0  0  0  0  0  0
    8.6900    5.1240   -8.7420 C   0  0  0  0  0  0  0  0  0  0  0  0
    6.6150    4.0170  -13.7710 N   0  0  0  0  0  0  0  0  0  0  0  0
    7.2810    2.9210  -13.8430 C   0  0  0  0  0  0  0  0  0  0  0  0
    8.3070    3.5280  -14.1210 O   0  0  0  0  0  0  0  0  0  0  0  0
    6.9810    1.6070  -14.2290 N   0  0  0  0  0  0  0  0  0  0  0  0
    7.1150    0.3980  -13.3850 C   0  0  0  0  0  0  0  0  0  0  0  0
    6.1310    0.8210  -12.3720 F   0  0  0  0  0  0  0  0  0  0  0  0
    6.4900    1.2860  -15.6060 C   0  0  0  0  0  0  0  0  0  0  0  0
    6.7930    1.6940  -16.7400 N   0  0  0  0  0  0  0  0  0  0  0  0
    6.0530    0.8530  -17.7320 C   0  0  0  0  0  0  0  0  0  0  0  0
    5.4650    0.0010  -17.0200 C   0  0  0  0  0  0  0  0  0  0  0  0
    4.8840   -1.0430  -17.3240 F   0  0  0  0  0  0  0  0  0  0  0  0
    5.5180    0.2270  -15.4960 C   0  0  2  0  0  0  0  0  0  0  0  0
    4.1630    0.1540  -15.2070 F   0  0  0  0  0  0  0  0  0  0  0  0
    6.0230    6.9264  -12.0884 H   0  0  0  0  0  0  0  0  0  0  0  0
    6.9894    7.6516  -13.4176 H   0  0  0  0  0  0  0  0  0  0  0  0
    5.2002    7.8112  -13.4176 H   0  0  0  0  0  0  0  0  0  0  0  0
    5.3136    4.4655  -12.9076 H   0  0  0  0  0  0  0  0  0  0  0  0
    5.6628    5.8882  -11.3462 H   0  0  0  0  0  0  0  0  0  0  0  0
    5.8308    3.9917  -11.2894 H   0  0  0  0  0  0  0  0  0  0  0  0
    7.0409    5.4458   -9.7213 H   0  0  0  0  0  0  0  0  0  0  0  0
    7.8048    4.0256  -10.8581 H   0  0  0  0  0  0  0  0  0  0  0  0
    8.2149    5.2417  -11.7650 H   0  0  0  0  0  0  0  0  0  0  0  0
   11.2540    7.7460  -11.2650 H   0  0  0  0  0  0  0  0  0  0  0  0
   11.1016    5.8150   -8.9781 H   0  0  0  0  0  0  0  0  0  0  0  0
   12.2008    7.5133   -8.1213 H   0  0  0  0  0  0  0  0  0  0  0  0
   10.2799    9.4715   -7.9483 H   0  0  0  0  0  0  0  0  0  0  0  0
    9.2434    7.9932   -8.3011 H   0  0  0  0  0  0  0  0  0  0  0  0
    9.1229    7.9881   -6.0643 H   0  0  0  0  0  0  0  0  0  0  0  0
   10.0114    5.8383   -6.2053 H   0  0  0  0  0  0  0  0  0  0  0  0
   11.5287    6.3176   -6.8819 H   0  0  0  0  0  0  0  0  0  0  0  0
   10.4748    6.6512   -3.9911 H   0  0  0  0  0  0  0  0  0  0  0  0
   12.1192    6.1384   -4.5158 H   0  0  0  0  0  0  0  0  0  0  0  0
   12.5570    8.0978   -5.3033 H   0  0  0  0  0  0  0  0  0  0  0  0
   12.6264    9.0880   -2.7201 H   0  0  0  0  0  0  0  0  0  0  0  0
   13.7828    8.9675   -4.0894 H   0  0  0  0  0  0  0  0  0  0  0  0
   12.5207   10.2458   -4.0894 H   0  0  0  0  0  0  0  0  0  0  0  0
   10.3350    9.7401   -5.2491 H   0  0  0  0  0  0  0  0  0  0  0  0
   11.7005    9.4198   -6.3879 H   0  0  0  0  0  0  0  0  0  0  0  0
    8.9958    5.4033   -7.7229 H   0  0  0  0  0  0  0  0  0  0  0  0
    7.6277    5.3702   -8.8864 H   0  0  0  0  0  0  0  0  0  0  0  0
    8.8390    4.0438   -8.8864 H   0  0  0  0  0  0  0  0  0  0  0  0
    6.1970    4.2650  -14.6790 H   0  0  0  0  0  0  0  0  0  0  0  0
    6.8192   -0.5230  -13.9087 H   0  0  0  0  0  0  0  0  0  0  0  0
    8.1236    0.1365  -13.0323 H   0  0  0  0  0  0  0  0  0  0  0  0
    6.0294    0.9563  -18.8269 H   0  0  0  0  0  0  0  0  0  0  0  0
    5.8659   -0.3261  -14.6111 H   0  0  0  0  0  0  0  0  0  0  0  0
  1  2  1  0
  2  3  2  0
  2  4  1  0
  4  5  1  0
  5  6  1  0
  6  7  1  0
  7  8  1  0
  8  9  2  0
  8 10  1  0
 10 11  1  0
 11 12  1  0
 12 13  1  0
 13 14  1  0
 14 15  1  0
 15 16  1  0
 16 17  1  0
 17 18  1  0
 17 19  1  0
 12 20  1  0
 20 21  2  0
 20 22  1  0
 11 23  1  0
 23 24  1  0
  4 25  1  0
 25 26  1  0
 26 27  2  0
 26 28  1  0
 28 29  1  0
 29 30  1  0
 28 31  1  0
 31 32  2  0
 32 33  1  0
 33 34  2  0
 34 35  1  0
 34 36  1  0
 36 37  1  0
 23  7  1  0
 36 31  1  0
 19 14  1  0
  1 38  1  0
  1 39  1  0
  1 40  1  0
  4 41  1  1
  5 42  1  0
  5 43  1  0
  6 44  1  0
  6 45  1  0
  7 46  1  6
 10 47  1  0
 11 48  1  6
 12 49  1  1
 13 50  1  0
 13 51  1  0
 14 52  1  1
 15 53  1  0
 15 54  1  0
 16 55  1  0
 16 56  1  0
 17 57  1  1
 18 58  1  0
 18 59  1  0
 18 60  1  0
 19 61  1  0
 19 62  1  0
 24 63  1  0
 24 64  1  0
 24 65  1  0
 25 66  1  0
 29 67  1  0
 29 68  1  0
 33 69  1  0
 36 70  1  1
M  CHG  1  22  -1
M  END

>  <ID>
DiffSBDD_28_num_sample_50

>  <docking_score>
-9.462

$$$$
DiffSBDD_29_num_sample_50
     RDKit          3D

 64 67  0  0  0  0  0  0  0  0999 V2000
    6.6700    6.1120  -17.0150 C   0  0  0  0  0  0  0  0  0  0  0  0
    7.2280    4.6340  -17.1170 C   0  0  0  0  0  0  0  0  0  0  0  0
    7.4500    4.1670  -15.7960 O   0  0  0  0  0  0  0  0  0  0  0  0
    7.3930    2.8950  -15.4620 C   0  0  2  0  0  0  0  0  0  0  0  0
    7.1700    2.0700  -16.5470 C   0  0  0  0  0  0  0  0  0  0  0  0
    7.9170    0.8300  -16.6350 C   0  0  0  0  0  0  0  0  0  0  0  0
    7.1790   -0.1570  -15.8290 C   0  0  0  0  0  0  0  0  0  0  0  0
    7.2530    0.2060  -14.3370 C   0  0  0  0  0  0  0  0  0  0  0  0
    6.2750    1.3450  -13.9140 C   0  0  2  0  0  0  0  0  0  0  0  0
    4.9590    0.8540  -14.3480 C   0  0  0  0  0  0  0  0  0  0  0  0
    6.6670    2.7310  -14.2240 C   0  0  2  0  0  0  0  0  0  0  0  0
    6.2000    4.0740  -13.7870 O   0  0  0  0  0  0  0  0  0  0  0  0
    5.7940    3.9460  -12.3620 C   0  0  0  0  0  0  0  0  0  0  0  0
    5.9120    5.2360  -11.5700 C   0  0  0  0  0  0  0  0  0  0  0  0
    7.4030    5.5130  -11.6130 N   0  0  1  0  0  0  0  0  0  0  0  0
    7.7770    6.9360  -11.4490 C   0  0  0  0  0  0  0  0  0  0  0  0
    9.2700    7.0710  -11.5730 C   0  0  0  0  0  0  0  0  0  0  0  0
    9.7530    6.5080  -10.3910 N   0  0  0  0  0  0  0  0  0  0  0  0
   10.7210    7.0760   -9.5910 C   0  0  0  0  0  0  0  0  0  0  0  0
   11.7200    7.8850   -9.9690 N   0  0  0  0  0  0  0  0  0  0  0  0
   12.4850    8.4570   -9.0220 C   0  0  0  0  0  0  0  0  0  0  0  0
   12.3270    8.1610   -7.7160 C   0  0  0  0  0  0  0  0  0  0  0  0
   11.3220    7.2710   -7.2820 C   0  0  0  0  0  0  0  0  0  0  0  0
   11.1900    6.8990   -5.9270 C   0  0  0  0  0  0  0  0  0  0  0  0
   10.9180    6.6010   -4.9270 N   0  0  0  0  0  0  0  0  0  0  0  0
   10.5250    6.7070   -8.2600 C   0  0  0  0  0  0  0  0  0  0  0  0
    9.4490    5.6710   -8.0930 C   0  0  0  0  0  0  0  0  0  0  0  0
    9.0410    5.3360   -9.7340 C   0  0  0  0  0  0  0  0  0  0  0  0
    8.4710    4.6760  -11.1730 C   0  0  0  0  0  0  0  0  0  0  0  0
    6.5644    6.3918  -15.9564 H   0  0  0  0  0  0  0  0  0  0  0  0
    7.3692    6.8028  -17.5088 H   0  0  0  0  0  0  0  0  0  0  0  0
    5.6887    6.1684  -17.5088 H   0  0  0  0  0  0  0  0  0  0  0  0
    6.4942    3.9902  -17.6240 H   0  0  0  0  0  0  0  0  0  0  0  0
    8.1629    4.6133  -17.6962 H   0  0  0  0  0  0  0  0  0  0  0  0
    8.3747    2.4910  -15.1737 H   0  0  0  0  0  0  0  0  0  0  0  0
    6.1020    1.8067  -16.5414 H   0  0  0  0  0  0  0  0  0  0  0  0
    7.5179    2.6573  -17.4096 H   0  0  0  0  0  0  0  0  0  0  0  0
    7.9794    0.4967  -17.6814 H   0  0  0  0  0  0  0  0  0  0  0  0
    8.9458    0.9568  -16.2669 H   0  0  0  0  0  0  0  0  0  0  0  0
    6.1260   -0.1700  -16.1470 H   0  0  0  0  0  0  0  0  0  0  0  0
    7.6312   -1.1487  -15.9777 H   0  0  0  0  0  0  0  0  0  0  0  0
    7.0128   -0.6925  -13.7497 H   0  0  0  0  0  0  0  0  0  0  0  0
    8.2723    0.5741  -14.1483 H   0  0  0  0  0  0  0  0  0  0  0  0
    6.2779    1.5177  -12.8277 H   0  0  0  0  0  0  0  0  0  0  0  0
    4.3439    0.6245  -13.4654 H   0  0  0  0  0  0  0  0  0  0  0  0
    4.4602    1.6265  -14.9517 H   0  0  0  0  0  0  0  0  0  0  0  0
    5.0882   -0.0564  -14.9517 H   0  0  0  0  0  0  0  0  0  0  0  0
    6.8977    2.5055  -13.1724 H   0  0  0  0  0  0  0  0  0  0  0  0
    4.7458    3.6141  -12.3291 H   0  0  0  0  0  0  0  0  0  0  0  0
    6.4809    3.2228  -11.8982 H   0  0  0  0  0  0  0  0  0  0  0  0
    5.3430    6.0481  -12.0461 H   0  0  0  0  0  0  0  0  0  0  0  0
    5.5092    5.1620  -10.5491 H   0  0  0  0  0  0  0  0  0  0  0  0
    7.3650    5.1060  -12.5590 H   0  0  0  0  0  0  0  0  0  0  0  0
    7.2869    7.5377  -12.2286 H   0  0  0  0  0  0  0  0  0  0  0  0
    7.4541    7.2919  -10.4596 H   0  0  0  0  0  0  0  0  0  0  0  0
    9.6420    6.5209  -12.4500 H   0  0  0  0  0  0  0  0  0  0  0  0
    9.5935    8.1132  -11.7117 H   0  0  0  0  0  0  0  0  0  0  0  0
   13.2566    9.1823   -9.3195 H   0  0  0  0  0  0  0  0  0  0  0  0
   12.9951    8.6227   -6.9741 H   0  0  0  0  0  0  0  0  0  0  0  0
    9.8297    4.7744   -7.5821 H   0  0  0  0  0  0  0  0  0  0  0  0
    8.5994    6.0006   -7.4769 H   0  0  0  0  0  0  0  0  0  0  0  0
    9.9868    4.7880   -9.8573 H   0  0  0  0  0  0  0  0  0  0  0  0
    9.2730    4.6576  -11.9256 H   0  0  0  0  0  0  0  0  0  0  0  0
    8.1278    3.6414  -11.0253 H   0  0  0  0  0  0  0  0  0  0  0  0
  1  2  1  0
  2  3  1  0
  3  4  1  0
  4  5  1  0
  5  6  1  0
  6  7  1  0
  7  8  1  0
  8  9  1  0
  9 10  1  0
  9 11  1  0
 11 12  1  0
 12 13  1  0
 13 14  1  0
 14 15  1  0
 15 16  1  0
 16 17  1  0
 17 18  1  0
 18 19  1  0
 19 20  2  0
 20 21  1  0
 21 22  2  0
 22 23  1  0
 23 24  1  0
 24 25  3  0
 23 26  2  0
 26 27  1  0
 27 28  1  0
 28 29  1  0
 11  4  1  0
 29 15  1  0
 28 18  1  0
 26 19  1  0
  1 30  1  0
  1 31  1  0
  1 32  1  0
  2 33  1  0
  2 34  1  0
  4 35  1  1
  5 36  1  0
  5 37  1  0
  6 38  1  0
  6 39  1  0
  7 40  1  0
  7 41  1  0
  8 42  1  0
  8 43  1  0
  9 44  1  1
 10 45  1  0
 10 46  1  0
 10 47  1  0
 11 48  1  1
 13 49  1  0
 13 50  1  0
 14 51  1  0
 14 52  1  0
 15 53  1  6
 16 54  1  0
 16 55  1  0
 17 56  1  0
 17 57  1  0
 21 58  1  0
 22 59  1  0
 27 60  1  0
 27 61  1  0
 28 62  1  0
 29 63  1  0
 29 64  1  0
M  CHG  1  15   1
M  END

>  <ID>
DiffSBDD_29_num_sample_50

>  <docking_score>
-8.496

$$$$
DiffSBDD_2_num_sample_50
     RDKit          3D

 54 57  0  0  0  0  0  0  0  0999 V2000
    5.0690    7.1010  -17.1230 C   0  0  0  0  0  0  0  0  0  0  0  0
    6.0160    7.3730  -15.8230 C   0  0  0  0  0  0  0  0  0  0  0  0
    5.6850    6.5820  -14.6860 C   0  0  0  0  0  0  0  0  0  0  0  0
    7.1770    6.1520  -14.0610 C   0  0  2  0  0  0  0  0  0  0  0  0
    6.7940    5.4830  -12.7280 C   0  0  1  0  0  0  0  0  0  0  0  0
    7.4210    4.2160  -12.3670 C   0  0  0  0  0  0  0  0  0  0  0  0
    8.2060    4.3310  -11.3020 C   0  0  0  0  0  0  0  0  0  0  0  0
    8.4900    5.2120  -10.3120 N   0  0  0  0  0  0  0  0  0  0  0  0
    9.1690    4.7240   -9.2130 C   0  0  0  0  0  0  0  0  0  0  0  0
    9.2690    5.5930   -8.0760 C   0  0  0  0  0  0  0  0  0  0  0  0
    8.2490    5.7820   -7.3490 O   0  0  0  0  0  0  0  0  0  0  0  0
   10.4870    6.0260   -7.5700 N   0  0  0  0  0  0  0  0  0  0  0  0
   11.3190    6.9740   -6.4220 C   0  0  0  0  0  0  0  0  0  0  0  0
   11.5860    7.6280   -4.9910 C   0  0  0  0  0  0  0  0  0  0  0  0
   11.5600    6.5430   -4.0220 C   0  0  0  0  0  0  0  0  0  0  0  0
   11.8090    6.6960   -2.6800 C   0  0  0  0  0  0  0  0  0  0  0  0
   12.2040    7.8930   -2.1370 C   0  0  0  0  0  0  0  0  0  0  0  0
   12.2990    9.0100   -3.0700 C   0  0  0  0  0  0  0  0  0  0  0  0
   12.0030    8.8190   -4.3830 C   0  0  0  0  0  0  0  0  0  0  0  0
   11.8770    9.9270   -5.0440 C   0  0  0  0  0  0  0  0  0  0  0  0
   11.7410    9.8150   -6.0960 O   0  0  0  0  0  0  0  0  0  0  0  0
   11.0380    9.1660   -6.9000 C   0  0  0  0  0  0  0  0  0  0  0  0
   11.1510    8.1420   -7.5680 C   0  0  0  0  0  0  0  0  0  0  0  0
   11.7310    8.1520   -8.7530 O   0  0  0  0  0  0  0  0  0  0  0  0
    9.3170    6.3730  -10.5900 C   0  0  0  0  0  0  0  0  0  0  0  0
    8.6840    7.0230  -11.8300 C   0  0  2  0  0  0  0  0  0  0  0  0
    8.2050    8.6530  -11.9890 O   0  0  0  0  0  0  0  0  0  0  0  0
    7.4430    6.6820  -12.3760 N   0  0  0  0  0  0  0  0  0  0  0  0
    4.0617    6.8117  -16.7888 H   0  0  0  0  0  0  0  0  0  0  0  0
    5.0054    8.0172  -17.7284 H   0  0  0  0  0  0  0  0  0  0  0  0
    5.5013    6.2907  -17.7284 H   0  0  0  0  0  0  0  0  0  0  0  0
    7.0575    7.1563  -16.1030 H   0  0  0  0  0  0  0  0  0  0  0  0
    5.8631    8.4232  -15.5338 H   0  0  0  0  0  0  0  0  0  0  0  0
    5.1064    7.1664  -13.9555 H   0  0  0  0  0  0  0  0  0  0  0  0
    5.0589    5.7129  -14.9364 H   0  0  0  0  0  0  0  0  0  0  0  0
    7.8006    6.0770  -14.9641 H   0  0  0  0  0  0  0  0  0  0  0  0
    5.8057    5.1208  -12.4086 H   0  0  0  0  0  0  0  0  0  0  0  0
    6.6330    3.4802  -12.1487 H   0  0  0  0  0  0  0  0  0  0  0  0
    8.0451    3.8943  -13.2138 H   0  0  0  0  0  0  0  0  0  0  0  0
    7.9203    3.4396  -10.7242 H   0  0  0  0  0  0  0  0  0  0  0  0
    9.0626    4.6608  -11.9081 H   0  0  0  0  0  0  0  0  0  0  0  0
    8.6578    3.8064   -8.8865 H   0  0  0  0  0  0  0  0  0  0  0  0
   10.2040    4.5782   -9.5557 H   0  0  0  0  0  0  0  0  0  0  0  0
   11.2130    5.5720   -8.1450 H   0  0  0  0  0  0  0  0  0  0  0  0
   11.3253    5.5328   -4.3886 H   0  0  0  0  0  0  0  0  0  0  0  0
   11.6874    5.8274   -2.0161 H   0  0  0  0  0  0  0  0  0  0  0  0
   12.4341    8.0029   -1.0670 H   0  0  0  0  0  0  0  0  0  0  0  0
   12.6089   10.0031   -2.7126 H   0  0  0  0  0  0  0  0  0  0  0  0
   11.9081   10.9119   -4.5551 H   0  0  0  0  0  0  0  0  0  0  0  0
   10.0558    9.6382   -7.0490 H   0  0  0  0  0  0  0  0  0  0  0  0
    9.3042    7.0698   -9.7389 H   0  0  0  0  0  0  0  0  0  0  0  0
   10.3695    6.1006  -10.7576 H   0  0  0  0  0  0  0  0  0  0  0  0
    9.6386    6.6592  -12.2380 H   0  0  0  0  0  0  0  0  0  0  0  0
    7.3690    8.7010  -12.5160 H   0  0  0  0  0  0  0  0  0  0  0  0
  1  2  1  0
  2  3  1  0
  3  4  1  0
  4  5  1  0
  5  6  1  0
  6  7  1  0
  7  8  1  0
  8  9  1  0
  9 10  1  0
 10 11  2  0
 10 12  1  0
 12 13  1  0
 13 14  2  0
 14 15  1  0
 15 16  2  0
 16 17  1  0
 17 18  2  0
 18 19  1  0
 19 20  2  0
 20 21  1  0
 21 22  1  0
 22 23  2  0
 23 24  1  0
  8 25  1  0
 25 26  1  0
 26 27  1  0
 26 28  1  0
 28  4  1  0
 28  5  1  0
 23 13  1  0
 19 14  1  0
  1 29  1  0
  1 30  1  0
  1 31  1  0
  2 32  1  0
  2 33  1  0
  3 34  1  0
  3 35  1  0
  4 36  1  6
  5 37  1  6
  6 38  1  0
  6 39  1  0
  7 40  1  0
  7 41  1  0
  9 42  1  0
  9 43  1  0
 12 44  1  0
 15 45  1  0
 16 46  1  0
 17 47  1  0
 18 48  1  0
 20 49  1  0
 22 50  1  0
 25 51  1  0
 25 52  1  0
 26 53  1  6
 27 54  1  0
M  CHG  1  24  -1
M  END

>  <ID>
DiffSBDD_2_num_sample_50

>  <docking_score>
-11.607

$$$$
DiffSBDD_30_num_sample_50
     RDKit          3D

 51 53  0  0  0  0  0  0  0  0999 V2000
    4.8560    7.0950  -16.6180 C   0  0  0  0  0  0  0  0  0  0  0  0
    5.9380    7.2260  -15.5970 C   0  0  0  0  0  0  0  0  0  0  0  0
    5.6210    6.2760  -14.6300 O   0  0  0  0  0  0  0  0  0  0  0  0
    6.5470    5.5490  -14.0450 C   0  0  0  0  0  0  0  0  0  0  0  0
    6.7690    4.3460  -14.5820 C   0  0  0  0  0  0  0  0  0  0  0  0
    7.6260    3.2540  -13.8360 C   0  0  0  0  0  0  0  0  0  0  0  0
    8.2160    3.7050  -12.4670 C   0  0  0  0  0  0  0  0  0  0  0  0
    8.0650    5.1220  -11.9640 C   0  0  0  0  0  0  0  0  0  0  0  0
    8.6430    5.4500  -10.6350 C   0  0  1  0  0  0  0  0  0  0  0  0
    8.2830    4.6650   -9.4340 C   0  0  0  0  0  0  0  0  0  0  0  0
    8.6630    5.0890   -8.0530 C   0  0  0  0  0  0  0  0  0  0  0  0
    9.3750    6.4370   -7.9350 C   0  0  2  0  0  0  0  0  0  0  0  0
    9.4160    8.2180   -8.0030 C   0  0  0  0  0  0  0  0  0  0  0  0
    9.6750    8.6220   -6.8440 C   0  0  0  0  0  0  0  0  0  0  0  0
   10.9790    8.9720   -6.2100 O   0  0  0  0  0  0  0  0  0  0  0  0
   11.3440    8.4090   -5.0920 C   0  0  0  0  0  0  0  0  0  0  0  0
   12.2510    9.2000   -4.2750 C   0  0  0  0  0  0  0  0  0  0  0  0
   12.7510    8.5920   -3.0500 C   0  0  0  0  0  0  0  0  0  0  0  0
   12.3840    7.2230   -2.6880 C   0  0  0  0  0  0  0  0  0  0  0  0
   12.8120    6.7840   -1.5230 F   0  0  0  0  0  0  0  0  0  0  0  0
   11.6260    6.4930   -3.5900 C   0  0  0  0  0  0  0  0  0  0  0  0
   11.1090    7.0370   -4.7370 C   0  0  0  0  0  0  0  0  0  0  0  0
   10.2980    6.0940   -9.0260 C   0  0  0  0  0  0  0  0  0  0  0  0
    9.6650    6.3120  -10.3870 N   0  0  0  0  0  0  0  0  0  0  0  0
   10.1040    7.2770  -11.3710 C   0  0  0  0  0  0  0  0  0  0  0  0
   11.0840    7.1020  -12.0560 O   0  0  0  0  0  0  0  0  0  0  0  0
    9.3730    8.2910  -11.5450 O   0  0  0  0  0  0  0  0  0  0  0  0
    7.2450    6.0090  -12.7310 C   0  0  0  0  0  0  0  0  0  0  0  0
    3.8865    6.9776  -16.1118 H   0  0  0  0  0  0  0  0  0  0  0  0
    4.8343    7.9971  -17.2471 H   0  0  0  0  0  0  0  0  0  0  0  0
    5.0502    6.2138  -17.2471 H   0  0  0  0  0  0  0  0  0  0  0  0
    6.9211    7.0141  -16.0428 H   0  0  0  0  0  0  0  0  0  0  0  0
    5.9998    8.2423  -15.1808 H   0  0  0  0  0  0  0  0  0  0  0  0
    6.3432    4.1120  -15.5689 H   0  0  0  0  0  0  0  0  0  0  0  0
    7.7947    2.2493  -14.2508 H   0  0  0  0  0  0  0  0  0  0  0  0
    8.7570    2.9726  -11.8498 H   0  0  0  0  0  0  0  0  0  0  0  0
    7.9701    6.1130  -11.1986 H   0  0  0  0  0  0  0  0  0  0  0  0
    7.7134    3.7329   -9.5629 H   0  0  0  0  0  0  0  0  0  0  0  0
    8.4434    4.4677   -7.1722 H   0  0  0  0  0  0  0  0  0  0  0  0
    9.1446    6.5811   -6.8691 H   0  0  0  0  0  0  0  0  0  0  0  0
   10.1962    8.5518   -8.7029 H   0  0  0  0  0  0  0  0  0  0  0  0
    8.4543    8.6204   -8.3540 H   0  0  0  0  0  0  0  0  0  0  0  0
    9.0747    9.5380   -6.7411 H   0  0  0  0  0  0  0  0  0  0  0  0
    9.5184    7.6655   -6.3238 H   0  0  0  0  0  0  0  0  0  0  0  0
   12.5474   10.2172   -4.5708 H   0  0  0  0  0  0  0  0  0  0  0  0
   13.4132    9.1696   -2.3883 H   0  0  0  0  0  0  0  0  0  0  0  0
   11.4310    5.4317   -3.3763 H   0  0  0  0  0  0  0  0  0  0  0  0
   10.4993    6.4076   -5.4019 H   0  0  0  0  0  0  0  0  0  0  0  0
   11.1954    6.7251   -8.9452 H   0  0  0  0  0  0  0  0  0  0  0  0
   10.5553    5.0284   -8.9347 H   0  0  0  0  0  0  0  0  0  0  0  0
    7.1039    7.0430  -12.3834 H   0  0  0  0  0  0  0  0  0  0  0  0
  1  2  1  0
  2  3  1  0
  3  4  1  0
  4  5  2  0
  5  6  1  0
  6  7  2  0
  7  8  1  0
  8  9  1  0
  9 10  1  0
 10 11  2  0
 11 12  1  0
 12 13  1  0
 13 14  1  0
 14 15  1  0
 15 16  1  0
 16 17  2  0
 17 18  1  0
 18 19  2  0
 19 20  1  0
 19 21  1  0
 21 22  2  0
 12 23  1  0
 23 24  1  0
 24 25  1  0
 25 26  2  0
 25 27  1  0
  8 28  2  0
 28  4  1  0
 24  9  1  0
 22 16  1  0
  1 29  1  0
  1 30  1  0
  1 31  1  0
  2 32  1  0
  2 33  1  0
  5 34  1  0
  6 35  1  0
  7 36  1  0
  9 37  1  1
 10 38  1  0
 11 39  1  0
 12 40  1  1
 13 41  1  0
 13 42  1  0
 14 43  1  0
 14 44  1  0
 17 45  1  0
 18 46  1  0
 21 47  1  0
 22 48  1  0
 23 49  1  0
 23 50  1  0
 28 51  1  0
M  CHG  1  27  -1
M  END

>  <ID>
DiffSBDD_30_num_sample_50

>  <docking_score>
-9.463

$$$$
DiffSBDD_31_num_sample_50
     RDKit          3D

 72 77  0  0  0  0  0  0  0  0999 V2000
    6.0140    7.1920  -17.1130 C   0  0  0  0  0  0  0  0  0  0  0  0
    6.4990    6.0160  -17.4190 C   0  0  0  0  0  0  0  0  0  0  0  0
    6.2830    5.0230  -18.6670 C   0  0  0  0  0  0  0  0  0  0  0  0
    7.1110    3.7800  -18.2520 C   0  0  1  0  0  0  0  0  0  0  0  0
    8.2500    2.8710  -18.7300 O   0  0  0  0  0  0  0  0  0  0  0  0
    8.0740    4.3890  -16.9130 C   0  0  1  0  0  0  0  0  0  0  0  0
    7.7100    3.3700  -16.0850 F   0  0  0  0  0  0  0  0  0  0  0  0
    9.3470    5.0540  -17.4350 C   0  0  0  0  0  0  0  0  0  0  0  0
   10.2440    5.0490  -16.3120 O   0  0  0  0  0  0  0  0  0  0  0  0
    7.2570    5.4590  -16.4670 C   0  0  0  0  0  0  0  0  0  0  0  0
    7.0680    5.5560  -14.8930 C   0  0  0  0  0  0  0  0  0  0  0  0
    7.7240    4.8310  -13.5430 C   0  0  2  0  0  0  0  0  0  0  0  0
    8.0550    3.7370  -12.4660 C   0  0  0  0  0  0  0  0  0  0  0  0
    9.0390    4.0660  -11.4130 C   0  0  0  0  0  0  0  0  0  0  0  0
    9.0810    5.4940  -11.1160 N   0  0  2  0  0  0  0  0  0  0  0  0
    8.8200    5.7990   -9.6100 C   0  0  0  0  0  0  0  0  0  0  0  0
    9.5930    6.4160   -8.5110 C   0  0  0  0  0  0  0  0  0  0  0  0
   10.1890    7.3900   -9.3520 N   0  0  0  0  0  0  0  0  0  0  0  0
   11.4620    7.6980   -8.9100 C   0  0  0  0  0  0  0  0  0  0  0  0
   11.3370    7.6050   -7.3500 C   0  0  0  0  0  0  0  0  0  0  0  0
   11.3180    8.8900   -6.7660 C   0  0  0  0  0  0  0  0  0  0  0  0
   11.4130    9.0000   -5.3970 C   0  0  0  0  0  0  0  0  0  0  0  0
   11.3950    7.7920   -4.6440 C   0  0  0  0  0  0  0  0  0  0  0  0
   11.6920    7.9080   -3.3870 F   0  0  0  0  0  0  0  0  0  0  0  0
   11.3110    6.5890   -5.2150 C   0  0  0  0  0  0  0  0  0  0  0  0
   11.2370    6.4510   -6.6110 C   0  0  0  0  0  0  0  0  0  0  0  0
   12.2920    8.8460   -9.4030 C   0  0  0  0  0  0  0  0  0  0  0  0
   12.3780    7.7200  -10.1660 C   0  0  0  0  0  0  0  0  0  0  0  0
    9.6230    8.0350  -10.5330 C   0  0  0  0  0  0  0  0  0  0  0  0
    8.6180    7.9110  -11.5700 C   0  0  0  0  0  0  0  0  0  0  0  0
    8.5850    6.4890  -12.0680 C   0  0  2  0  0  0  0  0  0  0  0  0
    7.3400    6.1730  -12.7660 C   0  0  0  0  0  0  0  0  0  0  0  0
    6.6430    7.3120  -13.3820 C   0  0  0  0  0  0  0  0  0  0  0  0
    5.9380    6.2630  -12.5590 C   0  0  0  0  0  0  0  0  0  0  0  0
    6.3190    7.6867  -16.1790 H   0  0  0  0  0  0  0  0  0  0  0  0
    5.3013    7.6860  -17.7897 H   0  0  0  0  0  0  0  0  0  0  0  0
    5.2203    4.7688  -18.7938 H   0  0  0  0  0  0  0  0  0  0  0  0
    6.5921    5.4548  -19.6303 H   0  0  0  0  0  0  0  0  0  0  0  0
    6.2408    3.1407  -18.4617 H   0  0  0  0  0  0  0  0  0  0  0  0
    9.1190    3.3120  -18.5530 H   0  0  0  0  0  0  0  0  0  0  0  0
    9.7699    4.4799  -18.2726 H   0  0  0  0  0  0  0  0  0  0  0  0
    9.1616    6.0688  -17.8169 H   0  0  0  0  0  0  0  0  0  0  0  0
   10.8930    4.3080  -16.4120 H   0  0  0  0  0  0  0  0  0  0  0  0
    6.3019    6.2974  -14.6223 H   0  0  0  0  0  0  0  0  0  0  0  0
    8.3037    4.0387  -14.0392 H   0  0  0  0  0  0  0  0  0  0  0  0
    7.1117    3.4804  -11.9617 H   0  0  0  0  0  0  0  0  0  0  0  0
    8.5305    2.9271  -13.0387 H   0  0  0  0  0  0  0  0  0  0  0  0
    8.7693    3.5224  -10.4955 H   0  0  0  0  0  0  0  0  0  0  0  0
   10.0332    3.7708  -11.7797 H   0  0  0  0  0  0  0  0  0  0  0  0
   10.0720    5.6860  -11.3240 H   0  0  0  0  0  0  0  0  0  0  0  0
    7.9122    6.4192   -9.6437 H   0  0  0  0  0  0  0  0  0  0  0  0
    8.9976    4.7659   -9.2765 H   0  0  0  0  0  0  0  0  0  0  0  0
    8.9584    6.8510   -7.7249 H   0  0  0  0  0  0  0  0  0  0  0  0
   10.2510    5.7720   -7.9090 H   0  0  0  0  0  0  0  0  0  0  0  0
    9.8030    8.1380   -8.7590 H   0  0  0  0  0  0  0  0  0  0  0  0
   11.2288    9.7885   -7.3943 H   0  0  0  0  0  0  0  0  0  0  0  0
   11.4992    9.9803   -4.9055 H   0  0  0  0  0  0  0  0  0  0  0  0
   11.2995    5.6897   -4.5816 H   0  0  0  0  0  0  0  0  0  0  0  0
   11.1056    5.4687   -7.0884 H   0  0  0  0  0  0  0  0  0  0  0  0
   11.7867    9.7323   -9.8143 H   0  0  0  0  0  0  0  0  0  0  0  0
   13.0528    9.4755   -8.9183 H   0  0  0  0  0  0  0  0  0  0  0  0
   11.9285    7.7051  -11.1698 H   0  0  0  0  0  0  0  0  0  0  0  0
   13.2094    7.0942  -10.5227 H   0  0  0  0  0  0  0  0  0  0  0  0
    9.3479    9.0122  -10.1095 H   0  0  0  0  0  0  0  0  0  0  0  0
   10.3709    7.5492  -11.1769 H   0  0  0  0  0  0  0  0  0  0  0  0
    7.6330    8.1793  -11.1604 H   0  0  0  0  0  0  0  0  0  0  0  0
    8.8642    8.5862  -12.4028 H   0  0  0  0  0  0  0  0  0  0  0  0
    9.3512    6.4147  -12.8538 H   0  0  0  0  0  0  0  0  0  0  0  0
    6.7814    8.3301  -12.9890 H   0  0  0  0  0  0  0  0  0  0  0  0
    6.5416    7.7292  -14.3947 H   0  0  0  0  0  0  0  0  0  0  0  0
    5.5448    6.5180  -11.5638 H   0  0  0  0  0  0  0  0  0  0  0  0
    5.0837    5.5903  -12.7250 H   0  0  0  0  0  0  0  0  0  0  0  0
  1  2  2  0
  2  3  1  0
  3  4  1  0
  4  5  1  0
  4  6  1  0
  6  7  1  1
  6  8  1  0
  8  9  1  0
  6 10  1  0
 10 11  2  3
 11 12  1  0
 12 13  1  0
 13 14  1  0
 14 15  1  0
 15 16  1  0
 16 17  1  0
 17 18  1  0
 18 19  1  0
 19 20  1  0
 20 21  2  0
 21 22  1  0
 22 23  2  0
 23 24  1  0
 23 25  1  0
 25 26  2  0
 19 27  1  0
 27 28  1  0
 18 29  1  0
 29 30  1  0
 30 31  1  0
 31 32  1  0
 32 33  1  0
 33 34  1  0
 10  2  1  0
 32 12  1  0
 31 15  1  0
 34 32  1  0
 28 19  1  0
 26 20  1  0
  1 35  1  0
  1 36  1  0
  3 37  1  0
  3 38  1  0
  4 39  1  1
  5 40  1  0
  8 41  1  0
  8 42  1  0
  9 43  1  0
 11 44  1  0
 12 45  1  6
 13 46  1  0
 13 47  1  0
 14 48  1  0
 14 49  1  0
 15 50  1  1
 16 51  1  0
 16 52  1  0
 17 53  1  0
 17 54  1  0
 18 55  1  0
 21 56  1  0
 22 57  1  0
 25 58  1  0
 26 59  1  0
 27 60  1  0
 27 61  1  0
 28 62  1  0
 28 63  1  0
 29 64  1  0
 29 65  1  0
 30 66  1  0
 30 67  1  0
 31 68  1  6
 33 69  1  0
 33 70  1  0
 34 71  1  0
 34 72  1  0
M  CHG  2  15   1  18   1
M  END

>  <ID>
DiffSBDD_31_num_sample_50

>  <docking_score>
-10.91

$$$$
DiffSBDD_32_num_sample_50
     RDKit          3D

 59 61  0  0  0  0  0  0  0  0999 V2000
    4.5960   -0.5690  -16.5960 C   0  0  0  0  0  0  0  0  0  0  0  0
    5.9820    0.1040  -17.2250 C   0  0  0  0  0  0  0  0  0  0  0  0
    6.7800    0.1020  -16.0720 C   0  0  0  0  0  0  0  0  0  0  0  0
    6.6400   -0.8560  -15.3740 O   0  0  0  0  0  0  0  0  0  0  0  0
    7.7350    1.1270  -15.9080 O   0  0  0  0  0  0  0  0  0  0  0  0
    7.0390    2.3910  -15.7510 N   0  0  0  0  0  0  0  0  0  0  0  0
    7.0850    2.9660  -14.4590 C   0  0  0  0  0  0  0  0  0  0  0  0
    5.8310    2.7200  -13.8590 C   0  0  0  0  0  0  0  0  0  0  0  0
    8.0860    2.4150  -13.3800 C   0  0  0  0  0  0  0  0  0  0  0  0
    7.2620    4.6000  -14.6060 C   0  0  1  0  0  0  0  0  0  0  0  0
    7.9380    4.7400  -15.5360 C   0  0  0  0  0  0  0  0  0  0  0  0
    9.2160    4.6970  -16.2100 C   0  0  0  0  0  0  0  0  0  0  0  0
    7.9160    5.2210  -16.9370 C   0  0  0  0  0  0  0  0  0  0  0  0
    6.2580    5.5740  -13.7770 C   0  0  2  0  0  0  0  0  0  0  0  0
    6.4950    6.8720  -13.1810 C   0  0  0  0  0  0  0  0  0  0  0  0
    7.0360    5.9360  -12.3630 C   0  0  1  0  0  0  0  0  0  0  0  0
    6.1260    5.1520  -11.3390 C   0  0  0  0  0  0  0  0  0  0  0  0
    8.4230    6.1150  -11.8990 C   0  0  0  0  0  0  0  0  0  0  0  0
    9.7410    6.4940  -12.4290 C   0  0  0  0  0  0  0  0  0  0  0  0
   10.5640    6.9830  -11.3900 C   0  0  0  0  0  0  0  0  0  0  0  0
    9.6260    6.7960  -10.2900 C   0  0  0  0  0  0  0  0  0  0  0  0
    9.9070    6.9590   -8.9200 C   0  0  1  0  0  0  0  0  0  0  0  0
   10.8040    8.1100   -8.5720 C   0  0  0  0  0  0  0  0  0  0  0  0
   12.0660    7.5180   -7.9970 F   0  0  0  0  0  0  0  0  0  0  0  0
    9.4590    5.9460   -7.9690 C   0  0  0  0  0  0  0  0  0  0  0  0
    8.2990    5.2930   -8.1400 O   0  0  0  0  0  0  0  0  0  0  0  0
    9.8600    6.2290   -6.7500 F   0  0  0  0  0  0  0  0  0  0  0  0
    9.5160    4.6490   -8.3360 F   0  0  0  0  0  0  0  0  0  0  0  0
    8.4470    6.3870  -10.5550 O   0  0  0  0  0  0  0  0  0  0  0  0
    4.6432   -0.5461  -15.4973 H   0  0  0  0  0  0  0  0  0  0  0  0
    3.7220    0.0050  -16.9375 H   0  0  0  0  0  0  0  0  0  0  0  0
    4.5066   -1.6108  -16.9375 H   0  0  0  0  0  0  0  0  0  0  0  0
    6.4136   -0.5160  -18.0246 H   0  0  0  0  0  0  0  0  0  0  0  0
    5.8518    1.0855  -17.7042 H   0  0  0  0  0  0  0  0  0  0  0  0
    7.4540    3.0640  -16.4110 H   0  0  0  0  0  0  0  0  0  0  0  0
    5.9378    2.7410  -12.7644 H   0  0  0  0  0  0  0  0  0  0  0  0
    5.1161    3.4950  -14.1725 H   0  0  0  0  0  0  0  0  0  0  0  0
    5.4619    1.7323  -14.1725 H   0  0  0  0  0  0  0  0  0  0  0  0
    7.6958    2.6298  -12.3742 H   0  0  0  0  0  0  0  0  0  0  0  0
    8.1983    1.3279  -13.5053 H   0  0  0  0  0  0  0  0  0  0  0  0
    9.0645    2.9016  -13.5053 H   0  0  0  0  0  0  0  0  0  0  0  0
    7.6849    5.4105  -13.9943 H   0  0  0  0  0  0  0  0  0  0  0  0
    8.1290    5.7821  -15.2403 H   0  0  0  0  0  0  0  0  0  0  0  0
   10.0148    5.3990  -15.9287 H   0  0  0  0  0  0  0  0  0  0  0  0
    9.9734    3.9253  -16.4119 H   0  0  0  0  0  0  0  0  0  0  0  0
    7.7917    6.2910  -17.1599 H   0  0  0  0  0  0  0  0  0  0  0  0
    7.3621    4.9795  -17.8562 H   0  0  0  0  0  0  0  0  0  0  0  0
    5.3704    5.2078  -14.3137 H   0  0  0  0  0  0  0  0  0  0  0  0
    7.1807    7.5576  -13.7004 H   0  0  0  0  0  0  0  0  0  0  0  0
    5.7799    7.6745  -12.9475 H   0  0  0  0  0  0  0  0  0  0  0  0
    6.4243    5.4090  -10.3119 H   0  0  0  0  0  0  0  0  0  0  0  0
    5.0735    5.4307  -11.4957 H   0  0  0  0  0  0  0  0  0  0  0  0
    6.2460    4.0699  -11.4957 H   0  0  0  0  0  0  0  0  0  0  0  0
   10.0430    6.4090  -13.4833 H   0  0  0  0  0  0  0  0  0  0  0  0
   11.5898    7.3799  -11.4061 H   0  0  0  0  0  0  0  0  0  0  0  0
   10.7857    6.3052   -9.0224 H   0  0  0  0  0  0  0  0  0  0  0  0
   11.0366    8.6954   -9.4738 H   0  0  0  0  0  0  0  0  0  0  0  0
   10.3196    8.7850   -7.8510 H   0  0  0  0  0  0  0  0  0  0  0  0
    7.7340    5.7860   -8.7870 H   0  0  0  0  0  0  0  0  0  0  0  0
  1  2  1  0
  2  3  1  0
  3  4  2  0
  3  5  1  0
  5  6  1  0
  6  7  1  0
  7  8  1  0
  7  9  1  0
  7 10  1  0
 10 11  1  0
 11 12  1  0
 12 13  1  0
 10 14  1  0
 14 15  1  0
 15 16  1  0
 16 17  1  1
 16 18  1  0
 18 19  2  0
 19 20  1  0
 20 21  2  0
 21 22  1  0
 22 23  1  0
 23 24  1  0
 22 25  1  0
 25 26  1  0
 25 27  1  0
 25 28  1  0
 21 29  1  0
 13 11  1  0
 16 14  1  0
 29 18  1  0
  1 30  1  0
  1 31  1  0
  1 32  1  0
  2 33  1  0
  2 34  1  0
  6 35  1  0
  8 36  1  0
  8 37  1  0
  8 38  1  0
  9 39  1  0
  9 40  1  0
  9 41  1  0
 10 42  1  1
 11 43  1  0
 12 44  1  0
 12 45  1  0
 13 46  1  0
 13 47  1  0
 14 48  1  1
 15 49  1  0
 15 50  1  0
 17 51  1  0
 17 52  1  0
 17 53  1  0
 19 54  1  0
 20 55  1  0
 22 56  1  1
 23 57  1  0
 23 58  1  0
 26 59  1  0
M  END

>  <ID>
DiffSBDD_32_num_sample_50

>  <docking_score>
-7.442

$$$$
DiffSBDD_33_num_sample_50
     RDKit          3D

 69 72  0  0  0  0  0  0  0  0999 V2000
    5.2010    7.2160  -17.9330 C   0  0  0  0  0  0  0  0  0  0  0  0
    5.9550    6.8040  -16.7320 C   0  0  1  0  0  0  0  0  0  0  0  0
    6.8580    5.7400  -16.8090 C   0  0  0  0  0  0  0  0  0  0  0  0
    7.4580    5.1680  -15.7410 C   0  0  0  0  0  0  0  0  0  0  0  0
    8.3970    4.0190  -15.9050 N   0  0  0  0  0  0  0  0  0  0  0  0
    8.5550    2.8370  -16.7730 C   0  0  0  0  0  0  0  0  0  0  0  0
    7.4030    1.9290  -16.7190 C   0  0  0  0  0  0  0  0  0  0  0  0
    7.8630    0.4480  -16.4590 C   0  0  0  0  0  0  0  0  0  0  0  0
    7.0790   -0.1550  -15.3450 N   0  0  0  0  0  0  0  0  0  0  0  0
    5.5840   -0.0360  -15.6670 C   0  0  0  0  0  0  0  0  0  0  0  0
    7.2090    0.1930  -13.8410 C   0  0  0  0  0  0  0  0  0  0  0  0
    7.1810    5.8530  -14.4560 C   0  0  0  0  0  0  0  0  0  0  0  0
    7.8190    5.8410  -13.4460 O   0  0  0  0  0  0  0  0  0  0  0  0
    7.9310    5.0570  -12.4050 C   0  0  0  0  0  0  0  0  0  0  0  0
    9.4710    5.8510  -11.6140 C   0  0  0  0  0  0  0  0  0  0  0  0
    9.3190    6.1610  -10.1930 C   0  0  0  0  0  0  0  0  0  0  0  0
    8.2910    5.6610   -9.5060 F   0  0  0  0  0  0  0  0  0  0  0  0
   10.0650    6.8690   -9.1400 C   0  0  2  0  0  0  0  0  0  0  0  0
    9.6320    6.9790   -7.8450 O   0  0  0  0  0  0  0  0  0  0  0  0
   10.5570    7.0620   -6.7720 C   0  0  1  0  0  0  0  0  0  0  0  0
   11.2190    5.8630   -6.6500 F   0  0  0  0  0  0  0  0  0  0  0  0
   11.5640    8.1680   -6.5960 C   0  0  0  0  0  0  0  0  0  0  0  0
   11.6010    9.1420   -7.7710 C   0  0  0  0  0  0  0  0  0  0  0  0
   12.0480    8.4580   -8.8770 O   0  0  0  0  0  0  0  0  0  0  0  0
   11.2390    7.6320   -9.5620 C   0  0  0  0  0  0  0  0  0  0  0  0
   11.6490    7.5060  -10.8830 N   0  0  0  0  0  0  0  0  0  0  0  0
   10.8690    7.0230  -11.6260 C   0  0  0  0  0  0  0  0  0  0  0  0
   10.2010    6.2280  -12.4470 N   0  0  0  0  0  0  0  0  0  0  0  0
    6.8040    3.8690  -12.5130 C   0  0  0  0  0  0  0  0  0  0  0  0
    8.1700    3.5440  -12.4890 C   0  0  0  0  0  0  0  0  0  0  0  0
    6.0410    6.6710  -14.3050 C   0  0  0  0  0  0  0  0  0  0  0  0
    5.6870    7.3700  -15.5120 C   0  0  0  0  0  0  0  0  0  0  0  0
    4.2736    7.7227  -17.6278 H   0  0  0  0  0  0  0  0  0  0  0  0
    5.8145    7.9042  -18.5329 H   0  0  0  0  0  0  0  0  0  0  0  0
    4.9532    6.3279  -18.5329 H   0  0  0  0  0  0  0  0  0  0  0  0
    5.1504    6.1020  -16.4677 H   0  0  0  0  0  0  0  0  0  0  0  0
    7.0966    5.3410  -17.8059 H   0  0  0  0  0  0  0  0  0  0  0  0
    9.1540    4.0640  -15.2090 H   0  0  0  0  0  0  0  0  0  0  0  0
    8.6840    3.1786  -17.8106 H   0  0  0  0  0  0  0  0  0  0  0  0
    9.4318    2.2787  -16.4131 H   0  0  0  0  0  0  0  0  0  0  0  0
    6.7335    2.2456  -15.9056 H   0  0  0  0  0  0  0  0  0  0  0  0
    6.8806    1.9685  -17.6862 H   0  0  0  0  0  0  0  0  0  0  0  0
    7.7081   -0.1447  -17.3727 H   0  0  0  0  0  0  0  0  0  0  0  0
    8.9280    0.4499  -16.1836 H   0  0  0  0  0  0  0  0  0  0  0  0
    7.5510   -1.0710  -15.3630 H   0  0  0  0  0  0  0  0  0  0  0  0
    5.0096    0.0097  -14.7300 H   0  0  0  0  0  0  0  0  0  0  0  0
    5.4064    0.8791  -16.2510 H   0  0  0  0  0  0  0  0  0  0  0  0
    5.2639   -0.9115  -16.2510 H   0  0  0  0  0  0  0  0  0  0  0  0
    6.8874   -0.6678  -13.2363 H   0  0  0  0  0  0  0  0  0  0  0  0
    8.2573    0.4327  -13.6094 H   0  0  0  0  0  0  0  0  0  0  0  0
    6.5746    1.0613  -13.6094 H   0  0  0  0  0  0  0  0  0  0  0  0
    6.6162    4.9749  -14.1097 H   0  0  0  0  0  0  0  0  0  0  0  0
   10.2275    5.8899   -8.6658 H   0  0  0  0  0  0  0  0  0  0  0  0
    9.8433    7.3429   -5.9835 H   0  0  0  0  0  0  0  0  0  0  0  0
   11.3106    8.7295   -5.6847 H   0  0  0  0  0  0  0  0  0  0  0  0
   12.5565    7.6982   -6.5302 H   0  0  0  0  0  0  0  0  0  0  0  0
   10.5921    9.5377   -7.9596 H   0  0  0  0  0  0  0  0  0  0  0  0
   12.2710    9.9852   -7.5470 H   0  0  0  0  0  0  0  0  0  0  0  0
   10.0131    7.1774  -10.9525 H   0  0  0  0  0  0  0  0  0  0  0  0
   11.6459    7.0868  -12.4021 H   0  0  0  0  0  0  0  0  0  0  0  0
   10.2910    6.0200  -13.4520 H   0  0  0  0  0  0  0  0  0  0  0  0
    6.1672    3.6342  -11.6473 H   0  0  0  0  0  0  0  0  0  0  0  0
    5.9640    3.6520  -13.1892 H   0  0  0  0  0  0  0  0  0  0  0  0
    8.5729    3.0240  -11.6074 H   0  0  0  0  0  0  0  0  0  0  0  0
    8.7881    2.9399  -13.1695 H   0  0  0  0  0  0  0  0  0  0  0  0
    5.1928    6.0383  -14.0047 H   0  0  0  0  0  0  0  0  0  0  0  0
    6.2779    7.4285  -13.5434 H   0  0  0  0  0  0  0  0  0  0  0  0
    4.6014    7.5429  -15.4729 H   0  0  0  0  0  0  0  0  0  0  0  0
    6.3389    8.2558  -15.4937 H   0  0  0  0  0  0  0  0  0  0  0  0
  1  2  1  0
  2  3  1  0
  3  4  2  0
  4  5  1  0
  5  6  1  0
  6  7  1  0
  7  8  1  0
  8  9  1  0
  9 10  1  0
  9 11  1  0
  4 12  1  0
 12 13  1  0
 13 14  1  0
 14 15  1  0
 15 16  2  0
 16 17  1  0
 16 18  1  0
 18 19  1  0
 19 20  1  0
 20 21  1  0
 20 22  1  0
 22 23  1  0
 23 24  1  0
 24 25  1  0
 25 26  2  0
 26 27  1  0
 27 28  1  0
 14 29  1  0
 29 30  1  0
 12 31  1  0
 31 32  1  0
 32  2  1  0
 30 14  1  0
 28 15  1  0
 25 18  1  0
  1 33  1  0
  1 34  1  0
  1 35  1  0
  2 36  1  6
  3 37  1  0
  5 38  1  0
  6 39  1  0
  6 40  1  0
  7 41  1  0
  7 42  1  0
  8 43  1  0
  8 44  1  0
  9 45  1  0
 10 46  1  0
 10 47  1  0
 10 48  1  0
 11 49  1  0
 11 50  1  0
 11 51  1  0
 12 52  1  0
 18 53  1  1
 20 54  1  1
 22 55  1  0
 22 56  1  0
 23 57  1  0
 23 58  1  0
 27 59  1  0
 27 60  1  0
 28 61  1  0
 29 62  1  0
 29 63  1  0
 30 64  1  0
 30 65  1  0
 31 66  1  0
 31 67  1  0
 32 68  1  0
 32 69  1  0
M  CHG  1   9   1
M  END

>  <ID>
DiffSBDD_33_num_sample_50

>  <docking_score>
-9.853

$$$$
DiffSBDD_34_num_sample_50
     RDKit          3D

109114  0  0  0  0  0  0  0  0999 V2000
    9.4160    4.4410  -11.4660 C   0  0  0  0  0  0  0  0  0  0  0  0
    8.6270    4.9090  -10.2620 C   0  0  2  0  0  0  0  0  0  0  0  0
    7.1280    4.6770  -10.4480 C   0  0  0  0  0  0  0  0  0  0  0  0
    6.6470    3.9910  -11.3850 C   0  0  0  0  0  0  0  0  0  0  0  0
    6.6080    4.7000  -12.9220 C   0  0  1  0  0  0  0  0  0  0  0  0
    5.5890    3.7460  -13.7590 C   0  0  0  0  0  0  0  0  0  0  0  0
    5.8170    2.2370  -13.6370 C   0  0  0  0  0  0  0  0  0  0  0  0
    6.6240    1.2720  -13.6520 C   0  0  0  0  0  0  0  0  0  0  0  0
    6.5120    0.7670  -15.1810 C   0  0  2  0  0  0  0  0  0  0  0  0
    6.3130   -0.5510  -15.8110 C   0  0  0  0  0  0  0  0  0  0  0  0
    5.5520   -0.6260  -17.1180 C   0  0  0  0  0  0  0  0  0  0  0  0
    6.3220   -0.9100  -18.3050 C   0  0  1  0  0  0  0  0  0  0  0  0
    7.4490   -0.2490  -18.6940 C   0  0  1  0  0  0  0  0  0  0  0  0
    8.0910    0.0900  -17.6370 O   0  0  0  0  0  0  0  0  0  0  0  0
    7.5790    1.2470  -17.2080 C   0  0  2  0  0  0  0  0  0  0  0  0
    7.2810    2.2010  -18.3280 C   0  0  0  0  0  0  0  0  0  0  0  0
    7.1260    3.6890  -17.8510 C   0  0  0  0  0  0  0  0  0  0  0  0
    6.3480    4.4110  -18.8610 O   0  0  0  0  0  0  0  0  0  0  0  0
    6.9940    3.6660  -16.2570 O   0  0  0  0  0  0  0  0  0  0  0  0
    6.9710    5.0300  -16.0210 C   0  0  0  0  0  0  0  0  0  0  0  0
    6.0130    5.6900  -16.6630 O   0  0  0  0  0  0  0  0  0  0  0  0
    8.0370    5.5800  -14.7870 C   0  0  1  0  0  0  0  0  0  0  0  0
    9.3180    5.5270  -15.3770 C   0  0  0  0  0  0  0  0  0  0  0  0
    6.9380    5.9840  -13.8380 C   0  0  0  0  0  0  0  0  0  0  0  0
    7.8030    1.5900  -15.7830 C   0  0  0  0  0  0  0  0  0  0  0  0
    8.1100   -0.2140  -19.8980 C   0  0  1  0  0  0  0  0  0  0  0  0
    9.4340    0.4260  -19.8890 F   0  0  0  0  0  0  0  0  0  0  0  0
    8.7540   -1.6730  -19.6410 C   0  0  0  0  0  0  0  0  0  0  0  0
    7.5370   -2.5520  -19.8430 C   0  0  1  0  0  0  0  0  0  0  0  0
    8.0770   -3.7910  -19.9640 O   0  0  0  0  0  0  0  0  0  0  0  0
    7.3720   -4.5650  -18.9750 C   0  0  0  0  0  0  0  0  0  0  0  0
    6.2190   -5.0630  -19.7740 C   0  0  0  0  0  0  0  0  0  0  0  0
    6.7370   -5.7920  -20.8550 N   0  0  0  0  0  0  0  0  0  0  0  0
    7.0820   -5.1760  -17.6440 C   0  0  0  0  0  0  0  0  0  0  0  0
    6.0750   -4.1950  -16.9780 C   0  0  0  0  0  0  0  0  0  0  0  0
    5.6180   -3.1940  -17.8060 C   0  0  2  0  0  0  0  0  0  0  0  0
    4.8300   -3.4270  -19.1000 C   0  0  2  0  0  0  0  0  0  0  0  0
    4.0480   -2.8170  -19.7140 C   0  0  0  0  0  0  0  0  0  0  0  0
    3.5660   -3.6580  -18.8360 O   0  0  0  0  0  0  0  0  0  0  0  0
    6.6420   -2.4010  -18.5070 C   0  0  2  0  0  0  0  0  0  0  0  0
    9.0190    6.2820   -9.8560 N   0  0  0  0  0  0  0  0  0  0  0  0
    8.7930    7.5170  -10.6390 C   0  0  0  0  0  0  0  0  0  0  0  0
    9.7730    8.6260  -10.1840 C   0  0  0  0  0  0  0  0  0  0  0  0
   10.7400    8.1410   -9.1850 C   0  0  2  0  0  0  0  0  0  0  0  0
   12.0850    7.7290   -9.7540 C   0  0  0  0  0  0  0  0  0  0  0  0
    9.9670    7.4520   -8.0870 C   0  0  0  0  0  0  0  0  0  0  0  0
   10.0060    7.8660   -6.9050 O   0  0  0  0  0  0  0  0  0  0  0  0
    9.1250    6.3030   -8.4980 C   0  0  0  0  0  0  0  0  0  0  0  0
    8.5660    5.5810   -7.7080 O   0  0  0  0  0  0  0  0  0  0  0  0
   10.3166    3.9068  -11.1291 H   0  0  0  0  0  0  0  0  0  0  0  0
    8.7942    3.7656  -12.0719 H   0  0  0  0  0  0  0  0  0  0  0  0
    9.7106    5.3105  -12.0719 H   0  0  0  0  0  0  0  0  0  0  0  0
    8.8903    4.2845   -9.3956 H   0  0  0  0  0  0  0  0  0  0  0  0
    6.7782    4.2048   -9.5181 H   0  0  0  0  0  0  0  0  0  0  0  0
    6.7845    5.6861  -10.7196 H   0  0  0  0  0  0  0  0  0  0  0  0
    7.2433    3.0698  -11.4606 H   0  0  0  0  0  0  0  0  0  0  0  0
    5.5912    3.8423  -11.1145 H   0  0  0  0  0  0  0  0  0  0  0  0
    7.5165    5.1747  -12.5230 H   0  0  0  0  0  0  0  0  0  0  0  0
    4.5677    3.9597  -13.4107 H   0  0  0  0  0  0  0  0  0  0  0  0
    5.7674    3.9846  -14.8179 H   0  0  0  0  0  0  0  0  0  0  0  0
    5.3692    2.0734  -12.6457 H   0  0  0  0  0  0  0  0  0  0  0  0
    5.7020    2.1430  -14.7269 H   0  0  0  0  0  0  0  0  0  0  0  0
    7.6460    1.6015  -13.4135 H   0  0  0  0  0  0  0  0  0  0  0  0
    6.3984    0.4927  -12.9092 H   0  0  0  0  0  0  0  0  0  0  0  0
    5.4428    0.8872  -15.4100 H   0  0  0  0  0  0  0  0  0  0  0  0
    7.3109   -0.9767  -15.9927 H   0  0  0  0  0  0  0  0  0  0  0  0
    5.6736   -1.0931  -15.0988 H   0  0  0  0  0  0  0  0  0  0  0  0
    4.7937   -1.4164  -17.0165 H   0  0  0  0  0  0  0  0  0  0  0  0
    5.1471    0.3849  -17.2732 H   0  0  0  0  0  0  0  0  0  0  0  0
    5.5413   -0.4620  -18.9373 H   0  0  0  0  0  0  0  0  0  0  0  0
    6.9494    0.3795  -19.4459 H   0  0  0  0  0  0  0  0  0  0  0  0
    6.5302    1.2444  -16.8764 H   0  0  0  0  0  0  0  0  0  0  0  0
    8.1034    2.1518  -19.0568 H   0  0  0  0  0  0  0  0  0  0  0  0
    6.3193    1.8976  -18.7675 H   0  0  0  0  0  0  0  0  0  0  0  0
    8.7538    5.7248  -13.9653 H   0  0  0  0  0  0  0  0  0  0  0  0
   10.0840    5.4953  -14.5882 H   0  0  0  0  0  0  0  0  0  0  0  0
    9.3971    4.6248  -16.0013 H   0  0  0  0  0  0  0  0  0  0  0  0
    9.4713    6.4196  -16.0013 H   0  0  0  0  0  0  0  0  0  0  0  0
    7.2724    6.8213  -13.2078 H   0  0  0  0  0  0  0  0  0  0  0  0
    6.0446    6.3115  -14.3899 H   0  0  0  0  0  0  0  0  0  0  0  0
    8.7617    1.2076  -15.4027 H   0  0  0  0  0  0  0  0  0  0  0  0
    7.8667    2.6600  -15.5357 H   0  0  0  0  0  0  0  0  0  0  0  0
    7.4734    0.1701  -20.7087 H   0  0  0  0  0  0  0  0  0  0  0  0
    9.5454   -1.9016  -20.3699 H   0  0  0  0  0  0  0  0  0  0  0  0
    9.2472   -1.7906  -18.6648 H   0  0  0  0  0  0  0  0  0  0  0  0
    6.8965   -2.3152  -20.7053 H   0  0  0  0  0  0  0  0  0  0  0  0
    6.7914   -3.6746  -18.6921 H   0  0  0  0  0  0  0  0  0  0  0  0
    5.5845   -5.7124  -19.1529 H   0  0  0  0  0  0  0  0  0  0  0  0
    5.6051   -4.2235  -20.1322 H   0  0  0  0  0  0  0  0  0  0  0  0
    7.7510   -5.6260  -20.9250 H   0  0  0  0  0  0  0  0  0  0  0  0
    6.5620   -6.7960  -20.7070 H   0  0  0  0  0  0  0  0  0  0  0  0
    6.2780   -5.4870  -21.7250 H   0  0  0  0  0  0  0  0  0  0  0  0
    6.6329   -6.1731  -17.7631 H   0  0  0  0  0  0  0  0  0  0  0  0
    7.9910   -5.3168  -17.0407 H   0  0  0  0  0  0  0  0  0  0  0  0
    5.2079   -4.7762  -16.6312 H   0  0  0  0  0  0  0  0  0  0  0  0
    6.6172   -3.6995  -16.1591 H   0  0  0  0  0  0  0  0  0  0  0  0
    5.0217   -2.7984  -16.9706 H   0  0  0  0  0  0  0  0  0  0  0  0
    5.7553   -3.8392  -19.5289 H   0  0  0  0  0  0  0  0  0  0  0  0
    3.9477   -1.7360  -19.5370 H   0  0  0  0  0  0  0  0  0  0  0  0
    3.8809   -2.6717  -20.7915 H   0  0  0  0  0  0  0  0  0  0  0  0
    7.3627   -3.0972  -18.0533 H   0  0  0  0  0  0  0  0  0  0  0  0
    8.9544    7.3051  -11.7063 H   0  0  0  0  0  0  0  0  0  0  0  0
    7.7610    7.8612  -10.4761 H   0  0  0  0  0  0  0  0  0  0  0  0
   10.3250    8.9924  -11.0620 H   0  0  0  0  0  0  0  0  0  0  0  0
    9.1814    9.4280   -9.7184 H   0  0  0  0  0  0  0  0  0  0  0  0
   11.2691    8.8877   -8.5746 H   0  0  0  0  0  0  0  0  0  0  0  0
   12.7818    7.5155   -8.9301 H   0  0  0  0  0  0  0  0  0  0  0  0
   11.9610    6.8276  -10.3722 H   0  0  0  0  0  0  0  0  0  0  0  0
   12.4871    8.5452  -10.3722 H   0  0  0  0  0  0  0  0  0  0  0  0
  1  2  1  0
  2  3  1  0
  3  4  1  0
  4  5  1  0
  5  6  1  0
  6  7  1  0
  7  8  1  0
  8  9  1  0
  9 10  1  0
 10 11  1  0
 11 12  1  0
 12 13  1  0
 13 14  1  0
 14 15  1  0
 15 16  1  0
 16 17  1  0
 17 18  2  0
 17 19  1  0
 19 20  1  0
 20 21  2  0
 20 22  1  0
 22 23  1  0
 22 24  1  0
 15 25  1  0
 13 26  1  0
 26 27  1  0
 26 28  1  0
 28 29  1  0
 29 30  1  0
 30 31  1  0
 31 32  1  0
 32 33  1  0
 31 34  1  0
 34 35  1  0
 35 36  1  0
 36 37  1  0
 37 38  1  0
 38 39  1  0
 36 40  1  0
  2 41  1  0
 41 42  1  0
 42 43  1  0
 43 44  1  0
 44 45  1  0
 44 46  1  0
 46 47  2  0
 46 48  1  0
 48 49  2  0
 24  5  1  0
 40 29  1  0
 48 41  1  0
 25  9  1  0
 39 37  1  0
 40 12  1  0
  1 50  1  0
  1 51  1  0
  1 52  1  0
  2 53  1  1
  3 54  1  0
  3 55  1  0
  4 56  1  0
  4 57  1  0
  5 58  1  6
  6 59  1  0
  6 60  1  0
  7 61  1  0
  7 62  1  0
  8 63  1  0
  8 64  1  0
  9 65  1  6
 10 66  1  0
 10 67  1  0
 11 68  1  0
 11 69  1  0
 12 70  1  6
 13 71  1  6
 15 72  1  1
 16 73  1  0
 16 74  1  0
 22 75  1  1
 23 76  1  0
 23 77  1  0
 23 78  1  0
 24 79  1  0
 24 80  1  0
 25 81  1  0
 25 82  1  0
 26 83  1  6
 28 84  1  0
 28 85  1  0
 29 86  1  6
 31 87  1  0
 32 88  1  0
 32 89  1  0
 33 90  1  0
 33 91  1  0
 33 92  1  0
 34 93  1  0
 34 94  1  0
 35 95  1  0
 35 96  1  0
 36 97  1  1
 37 98  1  6
 38 99  1  0
 38100  1  0
 40101  1  1
 42102  1  0
 42103  1  0
 43104  1  0
 43105  1  0
 44106  1  1
 45107  1  0
 45108  1  0
 45109  1  0
M  CHG  1  33   1
M  END

>  <ID>
DiffSBDD_34_num_sample_50

>  <docking_score>
-8.389

$$$$
DiffSBDD_35_num_sample_50
     RDKit          3D

 55 58  0  0  0  0  0  0  0  0999 V2000
    6.1170    7.4120  -14.0740 C   0  0  0  0  0  0  0  0  0  0  0  0
    5.7830    5.9670  -13.5520 C   0  0  1  0  0  0  0  0  0  0  0  0
    5.8050    4.6050  -13.0580 C   0  0  1  0  0  0  0  0  0  0  0  0
    6.2700    3.2370  -12.5300 C   0  0  0  0  0  0  0  0  0  0  0  0
    7.6510    3.0970  -12.9740 C   0  0  0  0  0  0  0  0  0  0  0  0
    7.9150    2.3320  -13.8470 O   0  0  0  0  0  0  0  0  0  0  0  0
    8.6320    3.7760  -12.3450 O   0  0  0  0  0  0  0  0  0  0  0  0
    7.9060    5.0030  -11.7390 C   0  0  1  0  0  0  0  0  0  0  0  0
    7.5030    5.2080  -10.3040 O   0  0  0  0  0  0  0  0  0  0  0  0
    8.3360    6.4610  -12.2520 C   0  0  1  0  0  0  0  0  0  0  0  0
    9.8000    6.2300  -11.8110 C   0  0  0  0  0  0  0  0  0  0  0  0
   10.5520    6.7480  -10.6140 C   0  0  0  0  0  0  0  0  0  0  0  0
    9.8050    7.6810   -9.6500 C   0  0  1  0  0  0  0  0  0  0  0  0
    8.8870    7.0080   -8.8000 O   0  0  0  0  0  0  0  0  0  0  0  0
   10.8470    8.4640   -8.9660 C   0  0  0  0  0  0  0  0  0  0  0  0
   10.9670    7.7850   -7.5370 C   0  0  0  0  0  0  0  0  0  0  0  0
   11.5710    6.8140   -7.2830 O   0  0  0  0  0  0  0  0  0  0  0  0
   10.2270    8.6050   -6.6240 C   0  0  0  0  0  0  0  0  0  0  0  0
    9.0330    8.8480   -6.7680 O   0  0  0  0  0  0  0  0  0  0  0  0
   10.9940    9.4340   -5.5230 C   0  0  2  0  0  0  0  0  0  0  0  0
   12.0680   10.3840   -6.4720 Cl  0  0  0  0  0  0  0  0  0  0  0  0
   11.9200    8.8590   -4.2960 C   0  0  0  0  0  0  0  0  0  0  0  0
   13.4050    8.9290   -4.6650 C   0  0  0  0  0  0  0  0  0  0  0  0
   11.8670    7.4120   -3.8460 C   0  0  0  0  0  0  0  0  0  0  0  0
   12.8310    7.6110   -2.7150 C   0  0  0  0  0  0  0  0  0  0  0  0
   12.3770    8.9350   -1.9720 C   0  0  0  0  0  0  0  0  0  0  0  0
   11.6650    9.8000   -3.1000 C   0  0  0  0  0  0  0  0  0  0  0  0
    7.1310    5.4680  -12.8220 C   0  0  1  0  0  0  0  0  0  0  0  0
    6.2724    8.0845  -13.2175 H   0  0  0  0  0  0  0  0  0  0  0  0
    7.0312    7.3790  -14.6849 H   0  0  0  0  0  0  0  0  0  0  0  0
    5.2810    7.7835  -14.6849 H   0  0  0  0  0  0  0  0  0  0  0  0
    5.7891    5.5920  -14.5861 H   0  0  0  0  0  0  0  0  0  0  0  0
    5.8792    4.2318  -14.0901 H   0  0  0  0  0  0  0  0  0  0  0  0
    6.2147    3.2098  -11.4317 H   0  0  0  0  0  0  0  0  0  0  0  0
    5.6365    2.4188  -12.9032 H   0  0  0  0  0  0  0  0  0  0  0  0
    7.0370    6.0760  -10.2130 H   0  0  0  0  0  0  0  0  0  0  0  0
    8.3663    7.5471  -12.4239 H   0  0  0  0  0  0  0  0  0  0  0  0
   10.3866    5.5829  -12.4797 H   0  0  0  0  0  0  0  0  0  0  0  0
   11.6007    6.4677  -10.4361 H   0  0  0  0  0  0  0  0  0  0  0  0
    9.1273    8.3602  -10.1880 H   0  0  0  0  0  0  0  0  0  0  0  0
    9.2070    7.0570   -7.8640 H   0  0  0  0  0  0  0  0  0  0  0  0
   11.8016    8.4019   -9.5091 H   0  0  0  0  0  0  0  0  0  0  0  0
   10.5990    9.5340   -8.9052 H   0  0  0  0  0  0  0  0  0  0  0  0
   10.1561    9.8198   -4.9238 H   0  0  0  0  0  0  0  0  0  0  0  0
   14.0100    8.9575   -3.7468 H   0  0  0  0  0  0  0  0  0  0  0  0
   13.6780    8.0427   -5.2566 H   0  0  0  0  0  0  0  0  0  0  0  0
   13.5934    9.8370   -5.2566 H   0  0  0  0  0  0  0  0  0  0  0  0
   10.8667    7.1001   -3.5112 H   0  0  0  0  0  0  0  0  0  0  0  0
   12.0921    6.6307   -4.5869 H   0  0  0  0  0  0  0  0  0  0  0  0
   12.7915    6.7547   -2.0257 H   0  0  0  0  0  0  0  0  0  0  0  0
   13.8653    7.6921   -3.0806 H   0  0  0  0  0  0  0  0  0  0  0  0
   11.6741    8.7028   -1.1584 H   0  0  0  0  0  0  0  0  0  0  0  0
   13.2220    9.4656   -1.5088 H   0  0  0  0  0  0  0  0  0  0  0  0
   10.5919    9.9387   -2.9019 H   0  0  0  0  0  0  0  0  0  0  0  0
   12.0288   10.8317   -3.2149 H   0  0  0  0  0  0  0  0  0  0  0  0
  1  2  1  0
  2  3  1  0
  3  4  1  0
  4  5  1  0
  5  6  2  0
  5  7  1  0
  7  8  1  0
  8  9  1  1
  8 10  1  0
 10 11  1  0
 11 12  2  3
 12 13  1  0
 13 14  1  0
 13 15  1  0
 15 16  1  0
 16 17  2  0
 16 18  1  0
 18 19  2  0
 18 20  1  0
 20 21  1  0
 20 22  1  0
 22 23  1  0
 22 24  1  0
 24 25  1  0
 25 26  1  0
 26 27  1  0
 10 28  1  0
 28  2  1  0
 28  3  1  0
 28  8  1  6
 27 22  1  0
  1 29  1  0
  1 30  1  0
  1 31  1  0
  2 32  1  1
  3 33  1  1
  4 34  1  0
  4 35  1  0
  9 36  1  0
 10 37  1  1
 11 38  1  0
 12 39  1  0
 13 40  1  6
 14 41  1  0
 15 42  1  0
 15 43  1  0
 20 44  1  1
 23 45  1  0
 23 46  1  0
 23 47  1  0
 24 48  1  0
 24 49  1  0
 25 50  1  0
 25 51  1  0
 26 52  1  0
 26 53  1  0
 27 54  1  0
 27 55  1  0
M  END

>  <ID>
DiffSBDD_35_num_sample_50

>  <docking_score>
-8.798

$$$$
DiffSBDD_36_num_sample_50
     RDKit          3D

 76 79  0  0  0  0  0  0  0  0999 V2000
    8.3550    5.5670   -9.7800 C   0  0  0  0  0  0  0  0  0  0  0  0
    8.5340    6.6430  -10.8240 C   0  0  1  0  0  0  0  0  0  0  0  0
    9.6440    7.6910  -10.3910 C   0  0  1  0  0  0  0  0  0  0  0  0
    9.0540    8.4540   -9.1790 C   0  0  0  0  0  0  0  0  0  0  0  0
    9.6450    8.0030   -7.7850 C   0  0  0  0  0  0  0  0  0  0  0  0
   11.1690    8.0180   -7.7360 C   0  0  2  0  0  0  0  0  0  0  0  0
   12.0280    8.1910   -6.3510 C   0  0  1  0  0  0  0  0  0  0  0  0
   12.7930    9.5020   -6.2140 C   0  0  0  0  0  0  0  0  0  0  0  0
   13.0380    9.9630   -4.7360 C   0  0  0  0  0  0  0  0  0  0  0  0
   12.3520    9.2330   -3.5450 C   0  0  1  0  0  0  0  0  0  0  0  0
   11.0910    9.8270   -3.4190 F   0  0  0  0  0  0  0  0  0  0  0  0
   12.1660    7.7260   -3.9490 C   0  0  1  0  0  0  0  0  0  0  0  0
   12.0400    6.7230   -2.7820 C   0  0  0  0  0  0  0  0  0  0  0  0
   11.1580    7.6540   -5.0900 C   0  0  0  0  0  0  0  0  0  0  0  0
   11.9410    7.7100   -9.0620 C   0  0  0  0  0  0  0  0  0  0  0  0
   13.3270    7.7550   -9.2380 C   0  0  0  0  0  0  0  0  0  0  0  0
   12.8620    8.8750   -9.3530 C   0  0  0  0  0  0  0  0  0  0  0  0
   11.0170    6.9870  -10.1360 C   0  0  0  0  0  0  0  0  0  0  0  0
    8.5790    6.0750  -12.3220 C   0  0  2  0  0  0  0  0  0  0  0  0
    7.3760    6.3370  -13.1300 C   0  0  2  0  0  0  0  0  0  0  0  0
    6.2000    6.5450  -12.4500 O   0  0  0  0  0  0  0  0  0  0  0  0
    6.9870    5.7530  -14.4600 C   0  0  0  0  0  0  0  0  0  0  0  0
    7.7670    5.2250  -15.3760 C   0  0  0  0  0  0  0  0  0  0  0  0
    6.1140    6.7940  -15.2680 C   0  0  0  0  0  0  0  0  0  0  0  0
    6.0530    4.6870  -14.3080 O   0  0  0  0  0  0  0  0  0  0  0  0
    6.3040    3.5100  -13.4940 C   0  0  0  0  0  0  0  0  0  0  0  0
    7.2150    2.7170  -14.3520 C   0  0  0  0  0  0  0  0  0  0  0  0
    5.1880    2.5020  -13.4400 C   0  0  0  0  0  0  0  0  0  0  0  0
    6.8180    3.9380  -12.0270 C   0  0  0  0  0  0  0  0  0  0  0  0
    8.4380    4.3450  -12.1010 S   0  0  0  0  0  4  0  0  0  0  0  0
    9.4480    3.8250  -11.7910 O   0  0  0  0  0  0  0  0  0  0  0  0
    8.4292    6.0131   -8.7772 H   0  0  0  0  0  0  0  0  0  0  0  0
    7.3667    5.0994   -9.9011 H   0  0  0  0  0  0  0  0  0  0  0  0
    9.1387    4.8046   -9.9011 H   0  0  0  0  0  0  0  0  0  0  0  0
    7.6199    7.2532  -10.8685 H   0  0  0  0  0  0  0  0  0  0  0  0
    9.8821    8.4176  -11.1818 H   0  0  0  0  0  0  0  0  0  0  0  0
    9.2607    9.5262   -9.3116 H   0  0  0  0  0  0  0  0  0  0  0  0
    7.9774    8.2294   -9.1555 H   0  0  0  0  0  0  0  0  0  0  0  0
    9.2651    8.6841   -7.0092 H   0  0  0  0  0  0  0  0  0  0  0  0
    9.3266    6.9631   -7.6202 H   0  0  0  0  0  0  0  0  0  0  0  0
   11.1755    6.9260   -7.6036 H   0  0  0  0  0  0  0  0  0  0  0  0
   12.9036    7.5260   -6.3849 H   0  0  0  0  0  0  0  0  0  0  0  0
   13.7712    9.3811   -6.7023 H   0  0  0  0  0  0  0  0  0  0  0  0
   12.1695   10.2773   -6.6832 H   0  0  0  0  0  0  0  0  0  0  0  0
   14.1221    9.8943   -4.5625 H   0  0  0  0  0  0  0  0  0  0  0  0
   12.5699   10.9581   -4.7120 H   0  0  0  0  0  0  0  0  0  0  0  0
   12.9310    9.2987   -2.6120 H   0  0  0  0  0  0  0  0  0  0  0  0
   13.1108    7.3293   -4.3489 H   0  0  0  0  0  0  0  0  0  0  0  0
   12.1078    7.2626   -1.8258 H   0  0  0  0  0  0  0  0  0  0  0  0
   11.0701    6.2079   -2.8444 H   0  0  0  0  0  0  0  0  0  0  0  0
   12.8524    5.9840   -2.8444 H   0  0  0  0  0  0  0  0  0  0  0  0
   10.8138    6.6221   -5.2535 H   0  0  0  0  0  0  0  0  0  0  0  0
   10.2417    8.2343   -4.9068 H   0  0  0  0  0  0  0  0  0  0  0  0
   13.9679    7.5456   -8.3689 H   0  0  0  0  0  0  0  0  0  0  0  0
   13.9778    7.1814   -9.9143 H   0  0  0  0  0  0  0  0  0  0  0  0
   13.0529    9.6309   -8.5770 H   0  0  0  0  0  0  0  0  0  0  0  0
   12.9036    9.6561  -10.1264 H   0  0  0  0  0  0  0  0  0  0  0  0
   11.5648    6.9474  -11.0891 H   0  0  0  0  0  0  0  0  0  0  0  0
   10.7866    5.9910   -9.7298 H   0  0  0  0  0  0  0  0  0  0  0  0
    9.4627    6.5108  -12.8111 H   0  0  0  0  0  0  0  0  0  0  0  0
    7.9880    7.1905  -13.4571 H   0  0  0  0  0  0  0  0  0  0  0  0
    6.2920    6.2100  -11.5230 H   0  0  0  0  0  0  0  0  0  0  0  0
    8.5834    4.6723  -14.8881 H   0  0  0  0  0  0  0  0  0  0  0  0
    7.1818    4.5365  -16.0034 H   0  0  0  0  0  0  0  0  0  0  0  0
    8.1888    6.0241  -16.0034 H   0  0  0  0  0  0  0  0  0  0  0  0
    5.5709    7.4417  -14.5641 H   0  0  0  0  0  0  0  0  0  0  0  0
    6.7700    7.4095  -15.9011 H   0  0  0  0  0  0  0  0  0  0  0  0
    5.3936    6.2553  -15.9011 H   0  0  0  0  0  0  0  0  0  0  0  0
    7.8935    2.1264  -13.7189 H   0  0  0  0  0  0  0  0  0  0  0  0
    6.6243    2.0405  -14.9871 H   0  0  0  0  0  0  0  0  0  0  0  0
    7.8036    3.3954  -14.9871 H   0  0  0  0  0  0  0  0  0  0  0  0
    4.9437    2.2813  -12.3904 H   0  0  0  0  0  0  0  0  0  0  0  0
    4.3002    2.9104  -13.9451 H   0  0  0  0  0  0  0  0  0  0  0  0
    5.5043    1.5774  -13.9451 H   0  0  0  0  0  0  0  0  0  0  0  0
    6.2383    4.8034  -11.6733 H   0  0  0  0  0  0  0  0  0  0  0  0
    6.6826    3.0969  -11.3311 H   0  0  0  0  0  0  0  0  0  0  0  0
  1  2  1  0
  2  3  1  0
  3  4  1  0
  4  5  1  0
  5  6  1  0
  6  7  1  0
  7  8  1  0
  8  9  1  0
  9 10  1  0
 10 11  1  0
 10 12  1  0
 12 13  1  0
 12 14  1  0
  6 15  1  0
 15 16  1  0
 16 17  1  0
 15 18  1  0
  2 19  1  0
 19 20  1  0
 20 21  1  0
 20 22  1  0
 22 23  1  0
 22 24  1  0
 22 25  1  0
 25 26  1  0
 26 27  1  0
 26 28  1  0
 26 29  1  0
 30 29  1  1
 30 31  2  0
 18  3  1  0
 30 19  1  0
 14  7  1  0
 17 15  1  0
  1 32  1  0
  1 33  1  0
  1 34  1  0
  2 35  1  6
  3 36  1  6
  4 37  1  0
  4 38  1  0
  5 39  1  0
  5 40  1  0
  6 41  1  6
  7 42  1  6
  8 43  1  0
  8 44  1  0
  9 45  1  0
  9 46  1  0
 10 47  1  1
 12 48  1  6
 13 49  1  0
 13 50  1  0
 13 51  1  0
 14 52  1  0
 14 53  1  0
 16 54  1  0
 16 55  1  0
 17 56  1  0
 17 57  1  0
 18 58  1  0
 18 59  1  0
 19 60  1  6
 20 61  1  6
 21 62  1  0
 23 63  1  0
 23 64  1  0
 23 65  1  0
 24 66  1  0
 24 67  1  0
 24 68  1  0
 27 69  1  0
 27 70  1  0
 27 71  1  0
 28 72  1  0
 28 73  1  0
 28 74  1  0
 29 75  1  0
 29 76  1  0
M  END

>  <ID>
DiffSBDD_36_num_sample_50

>  <docking_score>
-9.335

$$$$
DiffSBDD_37_num_sample_50
     RDKit          3D

 43 45  0  0  0  0  0  0  0  0999 V2000
   12.8560    8.5380   -1.2040 C   0  0  0  0  0  0  0  0  0  0  0  0
   12.4010    7.4240   -1.9740 O   0  0  0  0  0  0  0  0  0  0  0  0
   12.1060    7.6590   -3.2610 C   0  0  0  0  0  0  0  0  0  0  0  0
   11.5820    6.5870   -3.9490 C   0  0  0  0  0  0  0  0  0  0  0  0
   11.1530    6.6130   -5.1940 C   0  0  0  0  0  0  0  0  0  0  0  0
   11.2460    7.8820   -5.7780 C   0  0  0  0  0  0  0  0  0  0  0  0
   10.8610    7.8910   -7.1100 N   0  0  0  0  0  0  0  0  0  0  0  0
   11.8970    7.9110   -7.9490 N   0  0  0  0  0  0  0  0  0  0  0  0
   11.6560    7.8280   -9.2190 C   0  0  0  0  0  0  0  0  0  0  0  0
   10.3180    7.9220   -9.5710 C   0  0  0  0  0  0  0  0  0  0  0  0
    9.9150    7.3000  -10.7150 C   0  0  1  0  0  0  0  0  0  0  0  0
    9.5380    5.8140  -10.4630 C   0  0  0  0  0  0  0  0  0  0  0  0
    8.5480    5.5100  -11.6460 C   0  0  1  0  0  0  0  0  0  0  0  0
    7.3170    4.9620  -11.0450 C   0  0  0  0  0  0  0  0  0  0  0  0
    8.2520    6.9170  -12.2550 N   0  0  0  0  0  0  0  0  0  0  0  0
    8.7690    7.8000  -11.5160 C   0  0  1  0  0  0  0  0  0  0  0  0
    8.3410    9.1800  -11.5440 C   0  0  0  0  0  0  0  0  0  0  0  0
    9.4970    7.8740   -8.0930 S   0  0  0  0  0  0  0  0  0  0  0  0
   11.7790    8.9570   -5.2180 C   0  0  0  0  0  0  0  0  0  0  0  0
   11.8240    9.9900   -6.0180 O   0  0  0  0  0  0  0  0  0  0  0  0
   12.2090    8.8340   -3.8810 C   0  0  0  0  0  0  0  0  0  0  0  0
   12.7614    8.3064   -0.1328 H   0  0  0  0  0  0  0  0  0  0  0  0
   13.9099    8.7431   -1.4431 H   0  0  0  0  0  0  0  0  0  0  0  0
   12.2470    9.4223   -1.4431 H   0  0  0  0  0  0  0  0  0  0  0  0
   11.5163    5.6284   -3.4136 H   0  0  0  0  0  0  0  0  0  0  0  0
   10.7623    5.7296   -5.7202 H   0  0  0  0  0  0  0  0  0  0  0  0
   12.8620    7.9900   -7.5970 H   0  0  0  0  0  0  0  0  0  0  0  0
   12.4542    7.6929   -9.9637 H   0  0  0  0  0  0  0  0  0  0  0  0
   10.8238    7.5066  -11.2992 H   0  0  0  0  0  0  0  0  0  0  0  0
   10.4250    5.1652  -10.5100 H   0  0  0  0  0  0  0  0  0  0  0  0
    9.1026    5.6341   -9.4690 H   0  0  0  0  0  0  0  0  0  0  0  0
    8.9327    4.8045  -12.3971 H   0  0  0  0  0  0  0  0  0  0  0  0
    7.3970    4.9976   -9.9485 H   0  0  0  0  0  0  0  0  0  0  0  0
    6.4528    5.5604  -11.3692 H   0  0  0  0  0  0  0  0  0  0  0  0
    7.1834    3.9194  -11.3692 H   0  0  0  0  0  0  0  0  0  0  0  0
    7.2340    7.0630  -12.3090 H   0  0  0  0  0  0  0  0  0  0  0  0
    8.6510    6.9780  -13.2030 H   0  0  0  0  0  0  0  0  0  0  0  0
    9.5148    8.0155  -12.2953 H   0  0  0  0  0  0  0  0  0  0  0  0
    8.2265    9.5493  -10.5142 H   0  0  0  0  0  0  0  0  0  0  0  0
    9.0932    9.7866  -12.0696 H   0  0  0  0  0  0  0  0  0  0  0  0
    7.3775    9.2545  -12.0696 H   0  0  0  0  0  0  0  0  0  0  0  0
   11.3810   10.8370   -5.7580 H   0  0  0  0  0  0  0  0  0  0  0  0
   12.6273    9.7033   -3.3525 H   0  0  0  0  0  0  0  0  0  0  0  0
  1  2  1  0
  2  3  1  0
  3  4  2  0
  4  5  1  0
  5  6  2  0
  6  7  1  0
  7  8  1  0
  8  9  1  0
  9 10  2  0
 10 11  1  0
 11 12  1  0
 12 13  1  0
 13 14  1  0
 13 15  1  0
 15 16  1  0
 16 17  1  0
 10 18  1  0
  6 19  1  0
 19 20  1  0
 19 21  2  0
 21  3  1  0
 18  7  1  0
 16 11  1  0
  1 22  1  0
  1 23  1  0
  1 24  1  0
  4 25  1  0
  5 26  1  0
  8 27  1  0
  9 28  1  0
 11 29  1  6
 12 30  1  0
 12 31  1  0
 13 32  1  6
 14 33  1  0
 14 34  1  0
 14 35  1  0
 15 36  1  0
 15 37  1  0
 16 38  1  1
 17 39  1  0
 17 40  1  0
 17 41  1  0
 20 42  1  0
 21 43  1  0
M  CHG  1  15   1
M  END

>  <ID>
DiffSBDD_37_num_sample_50

>  <docking_score>
-8.356

$$$$
DiffSBDD_38_num_sample_50
     RDKit          3D

 60 62  0  0  0  0  0  0  0  0999 V2000
    6.5470    7.2160  -13.8660 C   0  0  0  0  0  0  0  0  0  0  0  0
    6.7670    5.7560  -13.4600 C   0  0  0  0  0  0  0  0  0  0  0  0
    5.6820    4.9180  -12.7660 C   0  0  0  0  0  0  0  0  0  0  0  0
    6.1000    4.6290  -11.3400 C   0  0  0  0  0  0  0  0  0  0  0  0
    5.4570    3.9420  -10.6220 O   0  0  0  0  0  0  0  0  0  0  0  0
    7.1630    5.2620  -10.9540 N   0  0  0  0  0  0  0  0  0  0  0  0
    8.3260    5.6720  -11.3010 C   0  0  1  0  0  0  0  0  0  0  0  0
    9.1480    5.6000  -10.1670 C   0  0  0  0  0  0  0  0  0  0  0  0
    8.7050    4.3540   -8.9470 S   0  0  0  0  0  0  0  0  0  0  0  0
    9.7430    6.7680   -9.4450 N   0  0  0  0  0  0  0  0  0  0  0  0
    9.7610    8.0150  -10.0320 C   0  0  0  0  0  0  0  0  0  0  0  0
   11.1690    8.5640   -9.8550 C   0  0  0  0  0  0  0  0  0  0  0  0
   11.7430    8.5700   -8.5650 C   0  0  0  0  0  0  0  0  0  0  0  0
   10.7940    7.8900   -7.5760 C   0  0  2  0  0  0  0  0  0  0  0  0
    9.4600    8.6440   -7.2850 C   0  0  0  0  0  0  0  0  0  0  0  0
   11.3420    7.7080   -6.2560 C   0  0  0  0  0  0  0  0  0  0  0  0
   10.9310    6.6600   -5.4060 C   0  0  0  0  0  0  0  0  0  0  0  0
   11.2160    6.5680   -4.1970 C   0  0  0  0  0  0  0  0  0  0  0  0
   12.0430    7.5620   -3.5460 C   0  0  0  0  0  0  0  0  0  0  0  0
   12.2390    7.1760   -2.1220 C   0  0  0  0  0  0  0  0  0  0  0  0
   13.0350    6.0740   -2.1770 F   0  0  0  0  0  0  0  0  0  0  0  0
   11.0200    6.6990   -1.6360 F   0  0  0  0  0  0  0  0  0  0  0  0
   12.8010    8.2490   -1.1870 C   0  0  0  0  0  0  0  0  0  0  0  0
   12.1690    9.4090   -1.2670 N   0  0  0  0  0  0  0  0  0  0  0  0
   13.8370    8.0750   -0.5890 O   0  0  0  0  0  0  0  0  0  0  0  0
   12.3990    8.6760   -4.3570 C   0  0  0  0  0  0  0  0  0  0  0  0
   13.1470    9.7920   -3.9950 N   0  0  0  0  0  0  0  0  0  0  0  0
   12.0420    8.6860   -5.6640 O   0  0  0  0  0  0  0  0  0  0  0  0
   10.3350    6.6080   -8.1240 C   0  0  0  0  0  0  0  0  0  0  0  0
    9.1650    5.5910  -12.5300 C   0  0  0  0  0  0  0  0  0  0  0  0
   10.1640    6.1570  -12.8570 O   0  0  0  0  0  0  0  0  0  0  0  0
    8.1760    5.2260  -13.7800 C   0  0  0  0  0  0  0  0  0  0  0  0
    6.4533    7.8375  -12.9632 H   0  0  0  0  0  0  0  0  0  0  0  0
    7.4029    7.5635  -14.4632 H   0  0  0  0  0  0  0  0  0  0  0  0
    5.6267    7.2958  -14.4632 H   0  0  0  0  0  0  0  0  0  0  0  0
    7.1403    6.0851  -12.4790 H   0  0  0  0  0  0  0  0  0  0  0  0
    4.7338    5.4756  -12.7639 H   0  0  0  0  0  0  0  0  0  0  0  0
    5.5496    3.9699  -13.3078 H   0  0  0  0  0  0  0  0  0  0  0  0
    7.0120    5.5510   -9.9760 H   0  0  0  0  0  0  0  0  0  0  0  0
    7.8450    6.5209  -11.8090 H   0  0  0  0  0  0  0  0  0  0  0  0
    9.5180    7.9335  -11.1017 H   0  0  0  0  0  0  0  0  0  0  0  0
    9.0170    8.6799   -9.5690 H   0  0  0  0  0  0  0  0  0  0  0  0
   11.8312    7.9677  -10.5000 H   0  0  0  0  0  0  0  0  0  0  0  0
   11.0703    9.6306  -10.1054 H   0  0  0  0  0  0  0  0  0  0  0  0
   12.6990    8.0263   -8.5875 H   0  0  0  0  0  0  0  0  0  0  0  0
   11.9168    9.6089   -8.2481 H   0  0  0  0  0  0  0  0  0  0  0  0
    9.3148    8.7260   -6.1977 H   0  0  0  0  0  0  0  0  0  0  0  0
    9.5041    9.6508   -7.7260 H   0  0  0  0  0  0  0  0  0  0  0  0
    8.6202    8.0870   -7.7260 H   0  0  0  0  0  0  0  0  0  0  0  0
   10.3117    5.8635   -5.8442 H   0  0  0  0  0  0  0  0  0  0  0  0
   10.8329    5.7173   -3.6142 H   0  0  0  0  0  0  0  0  0  0  0  0
   11.2890    9.4800   -1.7970 H   0  0  0  0  0  0  0  0  0  0  0  0
   12.5570   10.2400   -0.8000 H   0  0  0  0  0  0  0  0  0  0  0  0
   11.4782    9.1936   -4.0502 H   0  0  0  0  0  0  0  0  0  0  0  0
   14.1450    9.6100   -4.1790 H   0  0  0  0  0  0  0  0  0  0  0  0
   12.8390   10.6050   -4.5470 H   0  0  0  0  0  0  0  0  0  0  0  0
   11.1935    5.9243   -8.1985 H   0  0  0  0  0  0  0  0  0  0  0  0
    9.5657    6.2028   -7.4502 H   0  0  0  0  0  0  0  0  0  0  0  0
    8.5504    5.6995  -14.6996 H   0  0  0  0  0  0  0  0  0  0  0  0
    8.1437    4.1366  -13.9288 H   0  0  0  0  0  0  0  0  0  0  0  0
  1  2  1  0
  2  3  1  0
  3  4  1  0
  4  5  2  0
  4  6  1  0
  6  7  1  0
  7  8  1  0
  8  9  2  0
  8 10  1  0
 10 11  1  0
 11 12  1  0
 12 13  1  0
 13 14  1  0
 14 15  1  1
 14 16  1  0
 16 17  2  0
 17 18  1  0
 18 19  2  0
 19 20  1  0
 20 21  1  0
 20 22  1  0
 20 23  1  0
 23 24  1  0
 23 25  2  0
 19 26  1  0
 26 27  1  0
 26 28  1  0
 14 29  1  0
  7 30  1  0
 30 31  2  0
 30 32  1  0
 32  2  1  0
 29 10  1  0
 28 16  1  0
  1 33  1  0
  1 34  1  0
  1 35  1  0
  2 36  1  0
  3 37  1  0
  3 38  1  0
  6 39  1  0
  7 40  1  6
 11 41  1  0
 11 42  1  0
 12 43  1  0
 12 44  1  0
 13 45  1  0
 13 46  1  0
 15 47  1  0
 15 48  1  0
 15 49  1  0
 17 50  1  0
 18 51  1  0
 24 52  1  0
 24 53  1  0
 26 54  1  0
 27 55  1  0
 27 56  1  0
 29 57  1  0
 29 58  1  0
 32 59  1  0
 32 60  1  0
M  END

>  <ID>
DiffSBDD_38_num_sample_50

>  <docking_score>
-11.397

$$$$
DiffSBDD_39_num_sample_50
     RDKit          3D

 60 63  0  0  0  0  0  0  0  0999 V2000
    9.6490    5.3020   -8.0370 C   0  0  0  0  0  0  0  0  0  0  0  0
    9.7350    6.9420   -8.1010 C   0  0  2  0  0  0  0  0  0  0  0  0
   10.6750    7.2310   -9.1960 C   0  0  0  0  0  0  0  0  0  0  0  0
   10.3470    8.1480  -10.2040 C   0  0  0  0  0  0  0  0  0  0  0  0
   10.0070    7.2310  -11.1440 C   0  0  2  0  0  0  0  0  0  0  0  0
   10.7480    6.7710  -12.2600 C   0  0  0  0  0  0  0  0  0  0  0  0
   11.6470    6.5520  -13.0910 O   0  0  0  0  0  0  0  0  0  0  0  0
    9.5330    6.4680  -12.3440 N   0  0  0  0  0  0  0  0  0  0  0  0
    8.6810    6.0790  -13.3370 C   0  0  1  0  0  0  0  0  0  0  0  0
    9.5520    5.4570  -14.4660 O   0  0  0  0  0  0  0  0  0  0  0  0
    7.7860    4.8980  -12.8190 C   0  0  1  0  0  0  0  0  0  0  0  0
    8.2930    3.5090  -12.9890 C   0  0  0  0  0  0  0  0  0  0  0  0
    7.7430    5.1740  -11.2800 C   0  0  0  0  0  0  0  0  0  0  0  0
    6.4620    4.7050  -10.6030 C   0  0  0  0  0  0  0  0  0  0  0  0
    5.2730    4.4030  -11.5060 C   0  0  0  0  0  0  0  0  0  0  0  0
    5.3700    4.2900  -13.0140 C   0  0  0  0  0  0  0  0  0  0  0  0
    6.5860    4.9730  -13.7110 C   0  0  1  0  0  0  0  0  0  0  0  0
    6.3250    6.3090  -14.2560 N   0  0  0  0  0  0  0  0  0  0  0  0
    6.2650    6.4680  -15.5730 C   0  0  0  0  0  0  0  0  0  0  0  0
    5.4640    7.3910  -15.9950 O   0  0  0  0  0  0  0  0  0  0  0  0
    7.0040    5.8770  -16.3740 O   0  0  0  0  0  0  0  0  0  0  0  0
   10.7030    7.1370   -6.9120 C   0  0  0  0  0  0  0  0  0  0  0  0
   11.3080    6.1850   -7.0780 O   0  0  0  0  0  0  0  0  0  0  0  0
   10.8630    7.9970   -5.9620 N   0  0  0  0  0  0  0  0  0  0  0  0
   10.7990    9.3380   -6.1150 C   0  0  0  0  0  0  0  0  0  0  0  0
   11.4820    9.9120   -5.1690 O   0  0  0  0  0  0  0  0  0  0  0  0
   11.7830    9.0410   -4.1920 C   0  0  0  0  0  0  0  0  0  0  0  0
   12.5160    9.2060   -3.0890 C   0  0  0  0  0  0  0  0  0  0  0  0
   12.6780    8.1020   -2.3070 C   0  0  0  0  0  0  0  0  0  0  0  0
   13.5440    8.3680   -1.2290 F   0  0  0  0  0  0  0  0  0  0  0  0
   12.0410    6.8410   -2.5940 C   0  0  0  0  0  0  0  0  0  0  0  0
   11.3650    6.7260   -3.7660 C   0  0  0  0  0  0  0  0  0  0  0  0
   11.3260    7.7590   -4.6650 C   0  0  0  0  0  0  0  0  0  0  0  0
    9.6319    4.9764   -6.9864 H   0  0  0  0  0  0  0  0  0  0  0  0
    8.7318    4.9630   -8.5409 H   0  0  0  0  0  0  0  0  0  0  0  0
   10.5257    4.8689   -8.5409 H   0  0  0  0  0  0  0  0  0  0  0  0
    8.7750    7.4766   -8.1519 H   0  0  0  0  0  0  0  0  0  0  0  0
   11.5990    7.5993   -8.7263 H   0  0  0  0  0  0  0  0  0  0  0  0
   10.7144    6.2759   -9.7403 H   0  0  0  0  0  0  0  0  0  0  0  0
    9.5055    8.7993   -9.9252 H   0  0  0  0  0  0  0  0  0  0  0  0
   11.1210    8.8789  -10.4809 H   0  0  0  0  0  0  0  0  0  0  0  0
    9.5125    7.4015  -10.1763 H   0  0  0  0  0  0  0  0  0  0  0  0
    8.0743    6.9360  -13.6648 H   0  0  0  0  0  0  0  0  0  0  0  0
    9.2300    5.7790  -15.3460 H   0  0  0  0  0  0  0  0  0  0  0  0
    8.4585    3.0555  -12.0006 H   0  0  0  0  0  0  0  0  0  0  0  0
    7.5539    2.9145  -13.5460 H   0  0  0  0  0  0  0  0  0  0  0  0
    9.2413    3.5304  -13.5460 H   0  0  0  0  0  0  0  0  0  0  0  0
    8.5921    4.6549  -10.8115 H   0  0  0  0  0  0  0  0  0  0  0  0
    7.7907    6.2653  -11.1506 H   0  0  0  0  0  0  0  0  0  0  0  0
    6.3982    4.5895   -9.5109 H   0  0  0  0  0  0  0  0  0  0  0  0
    4.2885    4.2588  -11.0370 H   0  0  0  0  0  0  0  0  0  0  0  0
    5.4069    3.2190  -13.2623 H   0  0  0  0  0  0  0  0  0  0  0  0
    4.4902    4.8311  -13.3924 H   0  0  0  0  0  0  0  0  0  0  0  0
    6.7987    4.3976  -14.6241 H   0  0  0  0  0  0  0  0  0  0  0  0
    6.1900    7.1130  -13.6260 H   0  0  0  0  0  0  0  0  0  0  0  0
   11.2194    9.6167   -7.0926 H   0  0  0  0  0  0  0  0  0  0  0  0
    9.7501    9.6650   -6.0623 H   0  0  0  0  0  0  0  0  0  0  0  0
   12.9631   10.1762   -2.8266 H   0  0  0  0  0  0  0  0  0  0  0  0
   12.1006    6.0002   -1.8873 H   0  0  0  0  0  0  0  0  0  0  0  0
   10.8398    5.7876   -3.9975 H   0  0  0  0  0  0  0  0  0  0  0  0
  1  2  1  0
  2  3  1  0
  3  4  1  0
  4  5  1  0
  5  6  1  0
  6  7  2  0
  6  8  1  0
  8  9  1  0
  9 10  1  0
  9 11  1  0
 11 12  1  1
 11 13  1  0
 13 14  1  0
 14 15  2  0
 15 16  1  0
 16 17  1  0
 17 18  1  0
 18 19  1  0
 19 20  2  0
 19 21  1  0
  2 22  1  0
 22 23  2  0
 22 24  1  0
 24 25  1  0
 25 26  1  0
 26 27  1  0
 27 28  2  0
 28 29  1  0
 29 30  1  0
 29 31  2  0
 31 32  1  0
 32 33  2  0
  8  5  1  0
 17 11  1  0
 33 24  1  0
 33 27  1  0
  1 34  1  0
  1 35  1  0
  1 36  1  0
  2 37  1  1
  3 38  1  0
  3 39  1  0
  4 40  1  0
  4 41  1  0
  5 42  1  1
  9 43  1  6
 10 44  1  0
 12 45  1  0
 12 46  1  0
 12 47  1  0
 13 48  1  0
 13 49  1  0
 14 50  1  0
 15 51  1  0
 16 52  1  0
 16 53  1  0
 17 54  1  6
 18 55  1  0
 25 56  1  0
 25 57  1  0
 28 58  1  0
 31 59  1  0
 32 60  1  0
M  CHG  1  21  -1
M  END

>  <ID>
DiffSBDD_39_num_sample_50

>  <docking_score>
-10.083

$$$$
DiffSBDD_3_num_sample_50
     RDKit          3D

 57 60  0  0  0  0  0  0  0  0999 V2000
   12.2400    8.3170   -9.6550 C   0  0  0  0  0  0  0  0  0  0  0  0
   12.1620    8.2050   -8.1820 C   0  0  1  0  0  0  0  0  0  0  0  0
   11.7750    9.0710   -7.0620 C   0  0  0  0  0  0  0  0  0  0  0  0
   11.7800    8.7750   -5.6400 C   0  0  1  0  0  0  0  0  0  0  0  0
   11.8760    9.8370   -4.7430 C   0  0  0  0  0  0  0  0  0  0  0  0
   11.8940   10.9970   -4.9110 O   0  0  0  0  0  0  0  0  0  0  0  0
   11.9690    9.4440   -3.3140 C   0  0  0  0  0  0  0  0  0  0  0  0
   11.8550    8.0920   -2.9450 C   0  0  0  0  0  0  0  0  0  0  0  0
   11.7210    7.1130   -3.9270 C   0  0  1  0  0  0  0  0  0  0  0  0
   10.8690    6.2090   -3.4590 F   0  0  0  0  0  0  0  0  0  0  0  0
   11.5470    7.5540   -5.3040 C   0  0  0  0  0  0  0  0  0  0  0  0
   11.1990    6.6860   -6.3870 C   0  0  0  0  0  0  0  0  0  0  0  0
   11.2650    7.1230   -7.7580 C   0  0  1  0  0  0  0  0  0  0  0  0
    9.8300    7.4900   -8.2240 C   0  0  0  0  0  0  0  0  0  0  0  0
    9.3330    6.7580   -9.4070 C   0  0  0  0  0  0  0  0  0  0  0  0
    9.2680    6.9580  -10.8530 C   0  0  0  0  0  0  0  0  0  0  0  0
    9.3670    6.0840  -11.8550 C   0  0  0  0  0  0  0  0  0  0  0  0
    8.1510    5.8640  -12.5790 N   0  0  0  0  0  0  0  0  0  0  0  0
    7.9950    5.2920  -13.8190 C   0  0  0  0  0  0  0  0  0  0  0  0
    8.6220    4.1810  -14.0390 O   0  0  0  0  0  0  0  0  0  0  0  0
    7.0790    5.8980  -14.7350 C   0  0  0  0  0  0  0  0  0  0  0  0
    6.3640    7.0440  -14.3480 C   0  0  0  0  0  0  0  0  0  0  0  0
    5.6840    7.7560  -15.2900 C   0  0  0  0  0  0  0  0  0  0  0  0
    5.6630    7.3410  -16.5970 C   0  0  0  0  0  0  0  0  0  0  0  0
    6.4650    6.3080  -17.0460 C   0  0  0  0  0  0  0  0  0  0  0  0
    7.0710    5.5100  -16.1070 C   0  0  0  0  0  0  0  0  0  0  0  0
    8.7580    5.5620   -8.7590 C   0  0  2  0  0  0  0  0  0  0  0  0
    8.8580    4.2950   -8.6920 C   0  0  0  0  0  0  0  0  0  0  0  0
    7.7620    4.8620   -9.3970 O   0  0  0  0  0  0  0  0  0  0  0  0
   12.8495    9.1922   -9.9244 H   0  0  0  0  0  0  0  0  0  0  0  0
   12.7013    7.4078  -10.0679 H   0  0  0  0  0  0  0  0  0  0  0  0
   11.2272    8.4343  -10.0679 H   0  0  0  0  0  0  0  0  0  0  0  0
   13.2554    8.2998   -8.2567 H   0  0  0  0  0  0  0  0  0  0  0  0
   12.4232    9.9542   -7.1610 H   0  0  0  0  0  0  0  0  0  0  0  0
   10.6868    9.0595   -7.2220 H   0  0  0  0  0  0  0  0  0  0  0  0
   12.6974    8.6345   -5.0496 H   0  0  0  0  0  0  0  0  0  0  0  0
   12.1274   10.2121   -2.5426 H   0  0  0  0  0  0  0  0  0  0  0  0
   11.8716    7.8078   -1.8825 H   0  0  0  0  0  0  0  0  0  0  0  0
   12.6985    6.6360   -4.0915 H   0  0  0  0  0  0  0  0  0  0  0  0
   10.8727    5.6588   -6.1670 H   0  0  0  0  0  0  0  0  0  0  0  0
   11.7338    6.2480   -8.2319 H   0  0  0  0  0  0  0  0  0  0  0  0
    9.1422    7.2897   -7.3893 H   0  0  0  0  0  0  0  0  0  0  0  0
    9.8735    8.5478   -8.5228 H   0  0  0  0  0  0  0  0  0  0  0  0
    8.3524    7.2439   -9.2957 H   0  0  0  0  0  0  0  0  0  0  0  0
    8.2889    7.4336  -11.0114 H   0  0  0  0  0  0  0  0  0  0  0  0
   10.2588    7.4204  -10.9738 H   0  0  0  0  0  0  0  0  0  0  0  0
   10.1237    6.4565  -12.5612 H   0  0  0  0  0  0  0  0  0  0  0  0
    9.6371    5.1194  -11.4006 H   0  0  0  0  0  0  0  0  0  0  0  0
    7.2860    6.1740  -12.1120 H   0  0  0  0  0  0  0  0  0  0  0  0
    6.3533    7.3631  -13.2954 H   0  0  0  0  0  0  0  0  0  0  0  0
    5.1474    8.6713  -14.9997 H   0  0  0  0  0  0  0  0  0  0  0  0
    4.9900    7.8435  -17.3073 H   0  0  0  0  0  0  0  0  0  0  0  0
    6.6129    6.1310  -18.1215 H   0  0  0  0  0  0  0  0  0  0  0  0
    7.5514    4.5693  -16.4140 H   0  0  0  0  0  0  0  0  0  0  0  0
    9.0084    6.2398   -7.9296 H   0  0  0  0  0  0  0  0  0  0  0  0
    9.6565    3.7793   -9.2455 H   0  0  0  0  0  0  0  0  0  0  0  0
    8.9548    3.5711   -7.8694 H   0  0  0  0  0  0  0  0  0  0  0  0
  1  2  1  0
  2  3  1  0
  3  4  1  0
  4  5  1  0
  5  6  2  0
  5  7  1  0
  7  8  2  0
  8  9  1  0
  9 10  1  0
  9 11  1  0
 11 12  2  0
 12 13  1  0
 13 14  1  0
 14 15  1  0
 15 16  1  0
 16 17  1  0
 17 18  1  0
 18 19  1  0
 19 20  2  0
 19 21  1  0
 21 22  2  0
 22 23  1  0
 23 24  2  0
 24 25  1  0
 25 26  2  0
 15 27  1  0
 27 28  1  0
 28 29  1  0
 13  2  1  0
 26 21  1  0
 29 27  1  0
 11  4  1  0
  1 30  1  0
  1 31  1  0
  1 32  1  0
  2 33  1  1
  3 34  1  0
  3 35  1  0
  4 36  1  6
  7 37  1  0
  8 38  1  0
  9 39  1  6
 12 40  1  0
 13 41  1  6
 14 42  1  0
 14 43  1  0
 15 44  1  0
 16 45  1  0
 16 46  1  0
 17 47  1  0
 17 48  1  0
 18 49  1  0
 22 50  1  0
 23 51  1  0
 24 52  1  0
 25 53  1  0
 26 54  1  0
 27 55  1  1
 28 56  1  0
 28 57  1  0
M  END

>  <ID>
DiffSBDD_3_num_sample_50

>  <docking_score>
-10.525

$$$$
DiffSBDD_40_num_sample_50
     RDKit          3D

 80 83  0  0  0  0  0  0  0  0999 V2000
    5.6730    4.4440  -12.4080 C   0  0  0  0  0  0  0  0  0  0  0  0
    6.7820    4.7850  -12.8410 C   0  0  0  0  0  0  0  0  0  0  0  0
    7.5420    3.6520  -13.6180 C   0  0  2  0  0  0  0  0  0  0  0  0
    7.5120    3.3230  -15.1500 C   0  0  0  0  0  0  0  0  0  0  0  0
    7.8610    2.4850  -15.7760 C   0  0  0  0  0  0  0  0  0  0  0  0
    7.0460    1.3230  -15.6320 C   0  0  2  0  0  0  0  0  0  0  0  0
    6.3410    1.1260  -16.9660 C   0  0  0  0  0  0  0  0  0  0  0  0
    6.4410    2.0660  -18.0520 N   0  0  0  0  0  0  0  0  0  0  0  0
    5.9270    1.9850  -19.0490 C   0  0  0  0  0  0  0  0  0  0  0  0
    5.0660    0.6910  -18.6420 N   0  0  0  0  0  0  0  0  0  0  0  0
    5.4850    0.3320  -17.6120 C   0  0  1  0  0  0  0  0  0  0  0  0
    4.7670   -1.1970  -16.9790 C   0  0  0  0  0  0  0  0  0  0  0  0
    4.5820   -2.7340  -17.6130 C   0  0  0  0  0  0  0  0  0  0  0  0
    6.6320    0.9730  -13.7010 S   0  0  0  0  0  0  0  0  0  0  0  0
    7.5020    2.3730  -13.1890 C   0  0  0  0  0  0  0  0  0  0  0  0
    7.0710    6.1690  -12.9710 C   0  0  1  0  0  0  0  0  0  0  0  0
    6.4360    7.2600  -13.2370 C   0  0  0  0  0  0  0  0  0  0  0  0
    6.0460    7.2010  -15.1000 S   0  0  0  0  0  0  0  0  0  0  0  0
    8.5560    6.4620  -12.8660 O   0  0  0  0  0  0  0  0  0  0  0  0
    8.8150    7.2230  -11.8700 C   0  0  0  0  0  0  0  0  0  0  0  0
   10.3010    7.2940  -11.3490 C   0  0  0  0  0  0  0  0  0  0  0  0
   10.0560    8.1150  -10.1340 C   0  0  1  0  0  0  0  0  0  0  0  0
    8.8880    8.9120  -10.0650 O   0  0  0  0  0  0  0  0  0  0  0  0
   10.4650    7.2960   -8.7600 C   0  0  1  0  0  0  0  0  0  0  0  0
   11.3860    8.2430   -7.9380 C   0  0  0  0  0  0  0  0  0  0  0  0
   11.5500    7.8970   -6.3130 C   0  0  0  0  0  0  0  0  0  0  0  0
   11.3250    6.7060   -5.5620 C   0  0  0  0  0  0  0  0  0  0  0  0
   11.5740    6.6240   -4.0940 C   0  0  0  0  0  0  0  0  0  0  0  0
   11.7590    7.8760   -3.4620 C   0  0  2  0  0  0  0  0  0  0  0  0
   11.9770    7.9710   -2.1190 F   0  0  0  0  0  0  0  0  0  0  0  0
   11.7790    9.0460   -4.3950 C   0  0  2  0  0  0  0  0  0  0  0  0
   11.6800   10.1510   -3.7410 F   0  0  0  0  0  0  0  0  0  0  0  0
   11.9780    8.9620   -5.7010 C   0  0  0  0  0  0  0  0  0  0  0  0
   12.3260   10.0020   -6.4610 C   0  0  0  0  0  0  0  0  0  0  0  0
    9.0120    6.4530   -8.4650 C   0  0  0  0  0  0  0  0  0  0  0  0
    9.3350    5.0930   -8.3620 C   0  0  1  0  0  0  0  0  0  0  0  0
    8.3280    3.9470   -8.2500 O   0  0  0  0  0  0  0  0  0  0  0  0
    8.7130    4.1520   -9.4830 C   0  0  0  0  0  0  0  0  0  0  0  0
    9.1200    4.3010  -10.4660 O   0  0  0  0  0  0  0  0  0  0  0  0
    5.0565    5.1626  -11.8481 H   0  0  0  0  0  0  0  0  0  0  0  0
    5.3045    3.4225  -12.5833 H   0  0  0  0  0  0  0  0  0  0  0  0
    8.3700    4.3294  -13.3620 H   0  0  0  0  0  0  0  0  0  0  0  0
    6.4392    3.3729  -15.3878 H   0  0  0  0  0  0  0  0  0  0  0  0
    8.3522    3.9859  -15.4044 H   0  0  0  0  0  0  0  0  0  0  0  0
    7.8440    2.8001  -16.8298 H   0  0  0  0  0  0  0  0  0  0  0  0
    8.8786    2.2237  -15.4501 H   0  0  0  0  0  0  0  0  0  0  0  0
    7.2542    0.2433  -15.6006 H   0  0  0  0  0  0  0  0  0  0  0  0
    5.9909    2.5792  -19.9725 H   0  0  0  0  0  0  0  0  0  0  0  0
    4.2990    0.2630  -19.1800 H   0  0  0  0  0  0  0  0  0  0  0  0
    4.7072    0.9119  -17.0935 H   0  0  0  0  0  0  0  0  0  0  0  0
    5.3337   -1.3749  -16.0531 H   0  0  0  0  0  0  0  0  0  0  0  0
    3.7199   -0.8932  -17.1249 H   0  0  0  0  0  0  0  0  0  0  0  0
    4.4945   -3.4611  -16.7922 H   0  0  0  0  0  0  0  0  0  0  0  0
    3.6732   -2.7684  -18.2318 H   0  0  0  0  0  0  0  0  0  0  0  0
    5.4566   -2.9831  -18.2318 H   0  0  0  0  0  0  0  0  0  0  0  0
    7.2161    2.4725  -12.1315 H   0  0  0  0  0  0  0  0  0  0  0  0
    8.4599    2.0769  -13.6415 H   0  0  0  0  0  0  0  0  0  0  0  0
    7.2741    6.0259  -14.0426 H   0  0  0  0  0  0  0  0  0  0  0  0
    5.5051    7.3122  -12.6533 H   0  0  0  0  0  0  0  0  0  0  0  0
    7.0336    8.1467  -12.9788 H   0  0  0  0  0  0  0  0  0  0  0  0
    5.4820    8.3880  -15.4850 H   0  0  0  0  0  0  0  0  0  0  0  0
    8.5210    8.2439  -12.1553 H   0  0  0  0  0  0  0  0  0  0  0  0
    8.2561    6.7758  -11.0348 H   0  0  0  0  0  0  0  0  0  0  0  0
   10.7050    6.3002  -11.1057 H   0  0  0  0  0  0  0  0  0  0  0  0
   11.0424    7.6909  -12.0581 H   0  0  0  0  0  0  0  0  0  0  0  0
   10.7649    8.9490  -10.2435 H   0  0  0  0  0  0  0  0  0  0  0  0
    8.8230    9.3260   -9.1670 H   0  0  0  0  0  0  0  0  0  0  0  0
   11.1590    6.4615   -8.5810 H   0  0  0  0  0  0  0  0  0  0  0  0
   12.3884    8.2092   -8.3897 H   0  0  0  0  0  0  0  0  0  0  0  0
   10.8998    9.2289   -7.9781 H   0  0  0  0  0  0  0  0  0  0  0  0
   10.9533    5.8130   -6.0858 H   0  0  0  0  0  0  0  0  0  0  0  0
   10.7118    6.1264   -3.6260 H   0  0  0  0  0  0  0  0  0  0  0  0
   12.5130    6.0656   -3.9655 H   0  0  0  0  0  0  0  0  0  0  0  0
   12.8431    7.8020   -3.6327 H   0  0  0  0  0  0  0  0  0  0  0  0
   12.8747    9.0944   -4.3109 H   0  0  0  0  0  0  0  0  0  0  0  0
   12.4768    9.8670   -7.5422 H   0  0  0  0  0  0  0  0  0  0  0  0
   12.4621   10.9943   -6.0063 H   0  0  0  0  0  0  0  0  0  0  0  0
    8.5564    6.8041   -7.5274 H   0  0  0  0  0  0  0  0  0  0  0  0
    8.2906    6.6223   -9.2779 H   0  0  0  0  0  0  0  0  0  0  0  0
   10.2689    5.3634   -7.8475 H   0  0  0  0  0  0  0  0  0  0  0  0
  1  2  2  0
  2  3  1  0
  3  4  1  0
  4  5  1  0
  5  6  1  0
  6  7  1  0
  7  8  2  0
  8  9  1  0
  9 10  2  0
 10 11  1  0
 11 12  1  0
 12 13  1  0
  6 14  1  0
 14 15  1  0
  2 16  1  0
 16 17  1  0
 17 18  1  0
 16 19  1  0
 19 20  1  0
 20 21  1  0
 21 22  1  0
 22 23  1  0
 22 24  1  0
 24 25  1  0
 25 26  1  0
 26 27  2  0
 27 28  1  0
 28 29  1  0
 29 30  1  0
 29 31  1  0
 31 32  1  0
 31 33  1  0
 33 34  2  0
 24 35  1  0
 35 36  1  0
 36 37  1  0
 37 38  1  0
 38 39  2  0
 15  3  1  0
 33 26  1  0
 38 36  1  0
 11  7  1  0
  1 40  1  0
  1 41  1  0
  3 42  1  6
  4 43  1  0
  4 44  1  0
  5 45  1  0
  5 46  1  0
  6 47  1  6
  9 48  1  0
 10 49  1  0
 11 50  1  6
 12 51  1  0
 12 52  1  0
 13 53  1  0
 13 54  1  0
 13 55  1  0
 15 56  1  0
 15 57  1  0
 16 58  1  1
 17 59  1  0
 17 60  1  0
 18 61  1  0
 20 62  1  0
 20 63  1  0
 21 64  1  0
 21 65  1  0
 22 66  1  6
 23 67  1  0
 24 68  1  6
 25 69  1  0
 25 70  1  0
 27 71  1  0
 28 72  1  0
 28 73  1  0
 29 74  1  1
 31 75  1  6
 34 76  1  0
 34 77  1  0
 35 78  1  0
 35 79  1  0
 36 80  1  1
M  CHG  1  10   1
M  END

>  <ID>
DiffSBDD_40_num_sample_50

>  <docking_score>
-9.477

$$$$
DiffSBDD_41_num_sample_50
     RDKit          3D

104109  0  0  0  0  0  0  0  0999 V2000
    6.8280    2.4910  -21.8450 C   0  0  0  0  0  0  0  0  0  0  0  0
    6.9820    2.9880  -20.2000 C   0  0  0  0  0  0  0  0  0  0  0  0
    8.0850    2.7430  -20.0790 C   0  0  2  0  0  0  0  0  0  0  0  0
    8.3910    1.5780  -19.1650 N   0  0  0  0  0  0  0  0  0  0  0  0
    8.5490    0.8100  -18.2790 C   0  0  0  0  0  0  0  0  0  0  0  0
    7.0320   -0.0680  -18.2610 C   0  0  1  0  0  0  0  0  0  0  0  0
    6.9140   -0.5870  -17.9600 C   0  0  1  0  0  0  0  0  0  0  0  0
    7.0420   -1.3930  -18.8730 S   0  0  0  0  0  0  0  0  0  0  0  0
    6.7700    0.0060  -16.8840 C   0  0  0  0  0  0  0  0  0  0  0  0
    5.8310    0.4470  -16.9480 C   0  0  1  0  0  0  0  0  0  0  0  0
    5.2370   -0.1720  -15.8050 C   0  0  0  0  0  0  0  0  0  0  0  0
    5.3930    0.6030  -14.9180 C   0  0  0  0  0  0  0  0  0  0  0  0
    4.0610    0.5610  -14.3480 F   0  0  0  0  0  0  0  0  0  0  0  0
    6.0790    1.6090  -14.5290 F   0  0  0  0  0  0  0  0  0  0  0  0
    5.4100   -0.4780  -17.3900 C   0  0  1  0  0  0  0  0  0  0  0  0
    4.8870   -1.2050  -18.1930 O   0  0  0  0  0  0  0  0  0  0  0  0
    4.1720   -2.6530  -17.8690 C   0  0  0  0  0  0  0  0  0  0  0  0
    9.3060    0.5190  -17.6360 O   0  0  0  0  0  0  0  0  0  0  0  0
   10.1270   -0.4720  -17.7240 C   0  0  0  0  0  0  0  0  0  0  0  0
   10.6510   -0.1070  -18.7760 C   0  0  0  0  0  0  0  0  0  0  0  0
   12.2910    0.2020  -18.6080 C   0  0  0  0  0  0  0  0  0  0  0  0
   12.0840    1.6570  -18.3900 C   0  0  0  0  0  0  0  0  0  0  0  0
   13.0060    2.5530  -18.4110 N   0  0  0  0  0  0  0  0  0  0  0  0
   14.2800    2.8530  -18.1770 C   0  0  0  0  0  0  0  0  0  0  0  0
   15.1940    2.4750  -18.8500 O   0  0  0  0  0  0  0  0  0  0  0  0
   14.5200    3.5290  -16.9380 C   0  0  0  0  0  0  0  0  0  0  0  0
   15.6730    4.5060  -16.6930 C   0  0  0  0  0  0  0  0  0  0  0  0
   16.0670    5.4950  -17.9620 C   0  0  2  0  0  0  0  0  0  0  0  0
   15.1210    6.7350  -18.0810 C   0  0  0  0  0  0  0  0  0  0  0  0
   15.8710    7.8710  -18.6170 N   0  0  0  0  0  0  0  0  0  0  0  0
   16.0770    9.0910  -17.7940 C   0  0  0  0  0  0  0  0  0  0  0  0
   17.3840    9.7220  -18.1360 C   0  0  0  0  0  0  0  0  0  0  0  0
   17.5650    9.9910  -19.5800 C   0  0  0  0  0  0  0  0  0  0  0  0
   16.8630    9.1620  -20.5570 C   0  0  0  0  0  0  0  0  0  0  0  0
   15.8910    8.0780  -20.0640 C   0  0  0  0  0  0  0  0  0  0  0  0
   15.9920    4.6940  -19.3600 C   0  0  2  0  0  0  0  0  0  0  0  0
   17.2050    4.5490  -19.9610 C   0  0  0  0  0  0  0  0  0  0  0  0
   18.4980    5.1150  -19.7070 C   0  0  0  0  0  0  0  0  0  0  0  0
   18.5660    5.7170  -18.5550 C   0  0  0  0  0  0  0  0  0  0  0  0
   17.4910    5.9450  -17.5950 C   0  0  2  0  0  0  0  0  0  0  0  0
   17.6500    6.6450  -16.4680 O   0  0  0  0  0  0  0  0  0  0  0  0
   14.8070    5.3090  -20.2140 C   0  0  0  0  0  0  0  0  0  0  0  0
   13.3700    5.5330  -19.9910 O   0  0  0  0  0  0  0  0  0  0  0  0
   12.3400    4.5850  -19.7270 C   0  0  2  0  0  0  0  0  0  0  0  0
   11.7090    3.6600  -20.7010 C   0  0  0  0  0  0  0  0  0  0  0  0
   10.5340    4.5420  -20.3800 C   0  0  2  0  0  0  0  0  0  0  0  0
   10.3070    5.7700  -21.2220 C   0  0  0  0  0  0  0  0  0  0  0  0
    9.1950    3.6680  -19.9190 N   0  0  0  0  0  0  0  0  0  0  0  0
    6.5026    1.4409  -21.8818 H   0  0  0  0  0  0  0  0  0  0  0  0
    6.0837    3.1235  -22.3510 H   0  0  0  0  0  0  0  0  0  0  0  0
    7.7995    2.5918  -22.3510 H   0  0  0  0  0  0  0  0  0  0  0  0
    6.7725    4.0592  -20.0637 H   0  0  0  0  0  0  0  0  0  0  0  0
    6.2943    2.5200  -19.4803 H   0  0  0  0  0  0  0  0  0  0  0  0
    8.0935    2.5970  -21.1692 H   0  0  0  0  0  0  0  0  0  0  0  0
    7.0097   -0.0036  -19.3589 H   0  0  0  0  0  0  0  0  0  0  0  0
    5.9460   -1.3320  -19.6940 H   0  0  0  0  0  0  0  0  0  0  0  0
    6.8092   -0.7019  -16.0430 H   0  0  0  0  0  0  0  0  0  0  0  0
    7.5651    0.7454  -16.7074 H   0  0  0  0  0  0  0  0  0  0  0  0
    4.1655   -0.3523  -15.9765 H   0  0  0  0  0  0  0  0  0  0  0  0
    5.6901   -1.1495  -15.5832 H   0  0  0  0  0  0  0  0  0  0  0  0
    6.4657    0.3821  -14.8157 H   0  0  0  0  0  0  0  0  0  0  0  0
    4.5226   -0.6424  -16.7611 H   0  0  0  0  0  0  0  0  0  0  0  0
    4.1032   -2.7924  -16.7800 H   0  0  0  0  0  0  0  0  0  0  0  0
    3.1623   -2.6692  -18.3053 H   0  0  0  0  0  0  0  0  0  0  0  0
    4.7730   -3.4645  -18.3053 H   0  0  0  0  0  0  0  0  0  0  0  0
   10.8380   -0.5115  -16.8856 H   0  0  0  0  0  0  0  0  0  0  0  0
    9.6982   -1.4847  -17.7000 H   0  0  0  0  0  0  0  0  0  0  0  0
   10.5170   -0.8977  -19.5289 H   0  0  0  0  0  0  0  0  0  0  0  0
   10.1653    0.8315  -19.0814 H   0  0  0  0  0  0  0  0  0  0  0  0
   12.7442   -0.3077  -17.7450 H   0  0  0  0  0  0  0  0  0  0  0  0
   12.9718   -0.1183  -19.4105 H   0  0  0  0  0  0  0  0  0  0  0  0
   11.3601    1.9663  -19.1583 H   0  0  0  0  0  0  0  0  0  0  0  0
   11.8373    1.6587  -17.3180 H   0  0  0  0  0  0  0  0  0  0  0  0
   12.5650    3.4160  -18.7610 H   0  0  0  0  0  0  0  0  0  0  0  0
   13.6015    4.0967  -16.7280 H   0  0  0  0  0  0  0  0  0  0  0  0
   14.8284    2.6860  -16.3022 H   0  0  0  0  0  0  0  0  0  0  0  0
   15.3978    5.1449  -15.8409 H   0  0  0  0  0  0  0  0  0  0  0  0
   16.5604    3.8802  -16.5173 H   0  0  0  0  0  0  0  0  0  0  0  0
   14.2860    6.4957  -18.7559 H   0  0  0  0  0  0  0  0  0  0  0  0
   14.7268    6.9922  -17.0868 H   0  0  0  0  0  0  0  0  0  0  0  0
   15.3695    9.4724  -17.0431 H   0  0  0  0  0  0  0  0  0  0  0  0
   18.1464    9.9660  -17.3816 H   0  0  0  0  0  0  0  0  0  0  0  0
   17.2484   11.0299  -19.7547 H   0  0  0  0  0  0  0  0  0  0  0  0
   18.6256    9.7585  -19.7565 H   0  0  0  0  0  0  0  0  0  0  0  0
   16.2853    9.8428  -21.1994 H   0  0  0  0  0  0  0  0  0  0  0  0
   17.6688    8.5893  -21.0395 H   0  0  0  0  0  0  0  0  0  0  0  0
   14.8765    8.3609  -20.3813 H   0  0  0  0  0  0  0  0  0  0  0  0
   16.2410    7.1320  -20.5028 H   0  0  0  0  0  0  0  0  0  0  0  0
   15.7340    3.6359  -19.2056 H   0  0  0  0  0  0  0  0  0  0  0  0
   17.3876    3.4658  -19.9039 H   0  0  0  0  0  0  0  0  0  0  0  0
   16.9752    5.1783  -20.8334 H   0  0  0  0  0  0  0  0  0  0  0  0
   19.3414    5.0476  -20.4100 H   0  0  0  0  0  0  0  0  0  0  0  0
   19.5564    6.1015  -18.2698 H   0  0  0  0  0  0  0  0  0  0  0  0
   17.2108    6.8659  -18.1274 H   0  0  0  0  0  0  0  0  0  0  0  0
   17.3090    6.1190  -15.7010 H   0  0  0  0  0  0  0  0  0  0  0  0
   15.1762    6.3179  -20.4504 H   0  0  0  0  0  0  0  0  0  0  0  0
   14.6669    4.4143  -20.8384 H   0  0  0  0  0  0  0  0  0  0  0  0
   12.8653    4.5688  -18.7607 H   0  0  0  0  0  0  0  0  0  0  0  0
   12.0863    3.7089  -21.7331 H   0  0  0  0  0  0  0  0  0  0  0  0
   11.7205    2.5617  -20.6410 H   0  0  0  0  0  0  0  0  0  0  0  0
   10.1463    6.6391  -20.5671 H   0  0  0  0  0  0  0  0  0  0  0  0
   11.1876    5.9472  -21.8569 H   0  0  0  0  0  0  0  0  0  0  0  0
    9.4212    5.6206  -21.8569 H   0  0  0  0  0  0  0  0  0  0  0  0
    8.6390    4.4680  -19.5840 H   0  0  0  0  0  0  0  0  0  0  0  0
  1  2  1  0
  2  3  1  0
  3  4  1  0
  4  5  2  0
  5  6  1  0
  6  7  1  0
  7  8  1  1
  7  9  1  0
  9 10  1  0
 10 11  1  1
 11 12  1  0
 12 13  1  0
 12 14  1  0
 10 15  1  0
 15 16  1  0
 16 17  1  0
  5 18  1  0
 18 19  1  0
 19 20  1  0
 20 21  1  0
 21 22  1  0
 22 23  1  0
 23 24  1  0
 24 25  2  0
 24 26  1  0
 26 27  1  0
 27 28  1  0
 28 29  1  6
 29 30  1  0
 30 31  1  0
 31 32  2  0
 32 33  1  0
 33 34  1  0
 34 35  1  0
 28 36  1  0
 36 37  1  0
 37 38  1  0
 38 39  2  0
 39 40  1  0
 40 41  1  0
 36 42  1  0
 42 43  1  0
 43 44  1  0
 44 45  1  0
 45 46  1  0
 46 47  1  6
 46 48  1  0
 48  3  1  0
 10  6  1  0
 40 28  1  0
 46 44  1  0
 15  7  1  0
 35 30  1  0
  1 49  1  0
  1 50  1  0
  1 51  1  0
  2 52  1  0
  2 53  1  0
  3 54  1  6
  6 55  1  6
  8 56  1  0
  9 57  1  0
  9 58  1  0
 11 59  1  0
 11 60  1  0
 12 61  1  0
 15 62  1  1
 17 63  1  0
 17 64  1  0
 17 65  1  0
 19 66  1  0
 19 67  1  0
 20 68  1  0
 20 69  1  0
 21 70  1  0
 21 71  1  0
 22 72  1  0
 22 73  1  0
 23 74  1  0
 26 75  1  0
 26 76  1  0
 27 77  1  0
 27 78  1  0
 29 79  1  0
 29 80  1  0
 31 81  1  0
 32 82  1  0
 33 83  1  0
 33 84  1  0
 34 85  1  0
 34 86  1  0
 35 87  1  0
 35 88  1  0
 36 89  1  1
 37 90  1  0
 37 91  1  0
 38 92  1  0
 39 93  1  0
 40 94  1  1
 41 95  1  0
 42 96  1  0
 42 97  1  0
 44 98  1  1
 45 99  1  0
 45100  1  0
 47101  1  0
 47102  1  0
 47103  1  0
 48104  1  0
M  END

>  <ID>
DiffSBDD_41_num_sample_50

>  <docking_score>
-8.158

$$$$
DiffSBDD_42_num_sample_50
     RDKit          3D

 61 64  0  0  0  0  0  0  0  0999 V2000
    4.9680    1.0910  -13.9640 C   0  0  0  0  0  0  0  0  0  0  0  0
    6.3160    0.6250  -14.4150 C   0  0  0  0  0  0  0  0  0  0  0  0
    7.0460   -0.1660  -13.3500 C   0  0  0  0  0  0  0  0  0  0  0  0
    6.0150   -0.2290  -15.5240 C   0  0  0  0  0  0  0  0  0  0  0  0
    6.6300    0.4690  -16.7680 C   0  0  1  0  0  0  0  0  0  0  0  0
    6.3100   -0.2850  -17.9950 C   0  0  0  0  0  0  0  0  0  0  0  0
    5.6660    1.4140  -16.9610 F   0  0  0  0  0  0  0  0  0  0  0  0
    7.9130    0.6850  -16.0770 C   0  0  0  0  0  0  0  0  0  0  0  0
    7.2730    1.6660  -14.8640 C   0  0  2  0  0  0  0  0  0  0  0  0
    7.1540    3.1100  -14.1240 C   0  0  0  0  0  0  0  0  0  0  0  0
    7.8400    4.0510  -13.3500 C   0  0  1  0  0  0  0  0  0  0  0  0
    8.2730    4.0210  -11.9760 C   0  0  0  0  0  0  0  0  0  0  0  0
    8.2530    5.3510  -11.1920 C   0  0  1  0  0  0  0  0  0  0  0  0
    9.2940    5.5690  -10.0830 C   0  0  0  0  0  0  0  0  0  0  0  0
    9.0590    6.8230   -9.4090 N   0  0  0  0  0  0  0  0  0  0  0  0
    9.8380    7.0980   -8.1820 C   0  0  0  0  0  0  0  0  0  0  0  0
   10.5560    6.1680   -7.5970 C   0  0  0  0  0  0  0  0  0  0  0  0
   11.1900    6.4800   -6.4050 C   0  0  0  0  0  0  0  0  0  0  0  0
   11.1900    7.7390   -5.8340 C   0  0  0  0  0  0  0  0  0  0  0  0
   11.9930    8.0980   -4.7800 F   0  0  0  0  0  0  0  0  0  0  0  0
   10.3870    8.7100   -6.4570 C   0  0  0  0  0  0  0  0  0  0  0  0
    9.6260    8.3410   -7.4830 C   0  0  0  0  0  0  0  0  0  0  0  0
    9.0140    8.0640  -10.2460 C   0  0  0  0  0  0  0  0  0  0  0  0
    8.8530    7.8820  -11.5660 C   0  0  0  0  0  0  0  0  0  0  0  0
    8.6240    6.5570  -12.1080 N   0  0  0  0  0  0  0  0  0  0  0  0
    7.7290    6.5710  -13.1410 C   0  0  0  0  0  0  0  0  0  0  0  0
    6.9580    7.5250  -13.4530 O   0  0  0  0  0  0  0  0  0  0  0  0
    8.0690    5.4160  -14.0390 C   0  0  2  0  0  0  0  0  0  0  0  0
    7.2540    5.7240  -15.0550 O   0  0  0  0  0  0  0  0  0  0  0  0
    7.3810    5.7840  -16.4750 S   0  0  0  0  0  4  0  0  0  0  0  0
    6.0960    6.2910  -16.6250 O   0  0  0  0  0  0  0  0  0  0  0  0
    8.6110    5.1080  -16.6790 O   0  0  0  0  0  0  0  0  0  0  0  0
    4.9331    1.1031  -12.8646 H   0  0  0  0  0  0  0  0  0  0  0  0
    4.7833    2.1052  -14.3479 H   0  0  0  0  0  0  0  0  0  0  0  0
    4.1964    0.4075  -14.3479 H   0  0  0  0  0  0  0  0  0  0  0  0
    6.7281    0.1785  -12.3549 H   0  0  0  0  0  0  0  0  0  0  0  0
    6.8101   -1.2347  -13.4607 H   0  0  0  0  0  0  0  0  0  0  0  0
    8.1301   -0.0164  -13.4607 H   0  0  0  0  0  0  0  0  0  0  0  0
    6.4667   -1.2213  -15.3781 H   0  0  0  0  0  0  0  0  0  0  0  0
    4.9316   -0.3821  -15.6374 H   0  0  0  0  0  0  0  0  0  0  0  0
    5.8935   -1.2664  -17.7242 H   0  0  0  0  0  0  0  0  0  0  0  0
    5.5722    0.2755  -18.5879 H   0  0  0  0  0  0  0  0  0  0  0  0
    7.2257   -0.4263  -18.5879 H   0  0  0  0  0  0  0  0  0  0  0  0
    8.3514   -0.2458  -15.6878 H   0  0  0  0  0  0  0  0  0  0  0  0
    8.7480    1.0878  -16.6691 H   0  0  0  0  0  0  0  0  0  0  0  0
    6.4349    1.9350  -15.5238 H   0  0  0  0  0  0  0  0  0  0  0  0
    6.8541    3.7398  -14.9745 H   0  0  0  0  0  0  0  0  0  0  0  0
    6.7622    2.6281  -13.2161 H   0  0  0  0  0  0  0  0  0  0  0  0
    6.8821    4.4931  -13.0385 H   0  0  0  0  0  0  0  0  0  0  0  0
    7.6223    3.3136  -11.4411 H   0  0  0  0  0  0  0  0  0  0  0  0
    9.3355    3.7402  -12.0236 H   0  0  0  0  0  0  0  0  0  0  0  0
    7.2340    5.2918  -10.7820 H   0  0  0  0  0  0  0  0  0  0  0  0
    9.2242    4.7478   -9.3545 H   0  0  0  0  0  0  0  0  0  0  0  0
   10.2965    5.5905  -10.5352 H   0  0  0  0  0  0  0  0  0  0  0  0
   10.6520    5.1664   -8.0416 H   0  0  0  0  0  0  0  0  0  0  0  0
   11.7267    5.6758   -5.8804 H   0  0  0  0  0  0  0  0  0  0  0  0
   10.3881    9.7517   -6.1037 H   0  0  0  0  0  0  0  0  0  0  0  0
    8.8105    9.0038   -7.8081 H   0  0  0  0  0  0  0  0  0  0  0  0
    9.1075    9.0671   -9.8043 H   0  0  0  0  0  0  0  0  0  0  0  0
    8.8953    8.7474  -12.2438 H   0  0  0  0  0  0  0  0  0  0  0  0
    9.1190    5.2919  -14.3426 H   0  0  0  0  0  0  0  0  0  0  0  0
  1  2  1  0
  2  3  1  0
  2  4  1  0
  4  5  1  0
  5  6  1  0
  5  7  1  6
  5  8  1  0
  8  9  1  0
  9 10  1  0
 10 11  1  0
 11 12  1  0
 12 13  1  0
 13 14  1  0
 14 15  1  0
 15 16  1  0
 16 17  2  0
 17 18  1  0
 18 19  2  0
 19 20  1  0
 19 21  1  0
 21 22  2  0
 15 23  1  0
 23 24  2  0
 24 25  1  0
 25 26  1  0
 26 27  2  0
 26 28  1  0
 28 29  1  0
 29 30  1  0
 30 31  2  0
 30 32  1  0
  9  2  1  0
 28 11  1  0
 25 13  1  0
 22 16  1  0
  1 33  1  0
  1 34  1  0
  1 35  1  0
  3 36  1  0
  3 37  1  0
  3 38  1  0
  4 39  1  0
  4 40  1  0
  6 41  1  0
  6 42  1  0
  6 43  1  0
  8 44  1  0
  8 45  1  0
  9 46  1  1
 10 47  1  0
 10 48  1  0
 11 49  1  6
 12 50  1  0
 12 51  1  0
 13 52  1  1
 14 53  1  0
 14 54  1  0
 17 55  1  0
 18 56  1  0
 21 57  1  0
 22 58  1  0
 23 59  1  0
 24 60  1  0
 28 61  1  6
M  CHG  1  32  -1
M  END

>  <ID>
DiffSBDD_42_num_sample_50

>  <docking_score>
-9.272

$$$$
DiffSBDD_43_num_sample_50
     RDKit          3D

 58 58  0  0  0  0  0  0  0  0999 V2000
    6.1370    6.8350  -15.4330 C   0  0  0  0  0  0  0  0  0  0  0  0
    6.3340    6.3990  -13.7120 C   0  0  0  0  0  0  0  0  0  0  0  0
    6.9950    6.2030  -12.8980 C   0  0  2  0  0  0  0  0  0  0  0  0
    8.3550    5.9560  -12.3780 C   0  0  0  0  0  0  0  0  0  0  0  0
    9.0630    6.0320  -11.4780 C   0  0  0  0  0  0  0  0  0  0  0  0
    9.2640    6.4550  -10.2310 C   0  0  2  0  0  0  0  0  0  0  0  0
   10.0040    7.6480   -9.9430 N   0  0  0  0  0  0  0  0  0  0  0  0
   11.5330    7.7170   -9.7980 C   0  0  1  0  0  0  0  0  0  0  0  0
   12.0270    7.6880  -11.0380 F   0  0  0  0  0  0  0  0  0  0  0  0
   11.8460    8.9170   -9.0090 C   0  0  0  0  0  0  0  0  0  0  0  0
   12.2350    8.4420   -7.6480 O   0  0  0  0  0  0  0  0  0  0  0  0
   11.1420    8.3110   -6.9300 O   0  0  0  0  0  0  0  0  0  0  0  0
   11.4550    8.2220   -5.4710 C   0  0  0  0  0  0  0  0  0  0  0  0
   12.1420    9.3600   -5.0990 C   0  0  0  0  0  0  0  0  0  0  0  0
   12.5940    9.4310   -3.7810 C   0  0  0  0  0  0  0  0  0  0  0  0
   12.3970    8.3690   -2.9160 C   0  0  0  0  0  0  0  0  0  0  0  0
   12.0960    7.0950   -3.1220 C   0  0  1  0  0  0  0  0  0  0  0  0
   12.2660    6.3520   -2.0370 F   0  0  0  0  0  0  0  0  0  0  0  0
   11.4370    6.3650   -3.9870 N   0  0  0  0  0  0  0  0  0  0  0  0
   11.0960    6.9660   -4.9950 C   0  0  0  0  0  0  0  0  0  0  0  0
   10.2480    6.3050   -5.6940 F   0  0  0  0  0  0  0  0  0  0  0  0
    8.9940    5.4190   -9.3390 C   0  0  0  0  0  0  0  0  0  0  0  0
    7.7370    5.1480   -9.1570 O   0  0  0  0  0  0  0  0  0  0  0  0
    9.7140    4.7660   -8.6250 O   0  0  0  0  0  0  0  0  0  0  0  0
    6.0610    5.0040  -12.2280 C   0  0  2  0  0  0  0  0  0  0  0  0
    5.4740    5.2900  -10.9560 O   0  0  0  0  0  0  0  0  0  0  0  0
    6.9980    3.4670  -12.1780 C   0  0  0  0  0  0  0  0  0  0  0  0
    6.0740    2.6660  -13.3980 C   0  0  0  0  0  0  0  0  0  0  0  0
    6.4750    1.9070  -14.2400 C   0  0  0  0  0  0  0  0  0  0  0  0
    6.7800    1.3630  -15.2370 O   0  0  0  0  0  0  0  0  0  0  0  0
    5.6851    7.8351  -15.5085 H   0  0  0  0  0  0  0  0  0  0  0  0
    7.1207    6.8390  -15.9252 H   0  0  0  0  0  0  0  0  0  0  0  0
    5.4838    6.0994  -15.9252 H   0  0  0  0  0  0  0  0  0  0  0  0
    5.7309    7.1995  -13.2587 H   0  0  0  0  0  0  0  0  0  0  0  0
    6.3864    5.3379  -13.9971 H   0  0  0  0  0  0  0  0  0  0  0  0
    7.3768    7.2346  -12.8869 H   0  0  0  0  0  0  0  0  0  0  0  0
    8.4383    4.8792  -12.5865 H   0  0  0  0  0  0  0  0  0  0  0  0
    8.6625    6.9603  -12.7048 H   0  0  0  0  0  0  0  0  0  0  0  0
    9.2831    4.9634  -11.3378 H   0  0  0  0  0  0  0  0  0  0  0  0
    9.4211    7.0017  -11.8542 H   0  0  0  0  0  0  0  0  0  0  0  0
    8.6370    7.2895   -9.8838 H   0  0  0  0  0  0  0  0  0  0  0  0
    9.6260    7.9980   -9.0510 H   0  0  0  0  0  0  0  0  0  0  0  0
   11.9931    6.8787   -9.2543 H   0  0  0  0  0  0  0  0  0  0  0  0
   12.6781    9.4687   -9.4708 H   0  0  0  0  0  0  0  0  0  0  0  0
   10.9825    9.5968   -8.9606 H   0  0  0  0  0  0  0  0  0  0  0  0
   12.3255   10.1771   -5.8122 H   0  0  0  0  0  0  0  0  0  0  0  0
   13.6795    9.6028   -3.8282 H   0  0  0  0  0  0  0  0  0  0  0  0
   11.9696   10.2254   -3.3461 H   0  0  0  0  0  0  0  0  0  0  0  0
   13.3382    8.3220   -2.3485 H   0  0  0  0  0  0  0  0  0  0  0  0
   11.3979    8.6757   -2.5730 H   0  0  0  0  0  0  0  0  0  0  0  0
   12.5238    7.5475   -4.0288 H   0  0  0  0  0  0  0  0  0  0  0  0
   12.0380    5.5770   -4.2680 H   0  0  0  0  0  0  0  0  0  0  0  0
   11.9205    6.4981   -5.5529 H   0  0  0  0  0  0  0  0  0  0  0  0
    5.1901    4.9154  -12.8941 H   0  0  0  0  0  0  0  0  0  0  0  0
    6.1430    5.1370  -10.2430 H   0  0  0  0  0  0  0  0  0  0  0  0
    8.0526    3.6010  -12.4607 H   0  0  0  0  0  0  0  0  0  0  0  0
    7.0929    2.9643  -11.2042 H   0  0  0  0  0  0  0  0  0  0  0  0
    4.9939    2.8743  -13.4055 H   0  0  0  0  0  0  0  0  0  0  0  0
  1  2  1  0
  2  3  1  0
  3  4  1  0
  4  5  1  0
  5  6  1  0
  6  7  1  0
  7  8  1  0
  8  9  1  0
  8 10  1  0
 10 11  1  0
 11 12  1  0
 12 13  1  0
 13 14  2  0
 14 15  1  0
 15 16  1  0
 16 17  1  0
 17 18  1  0
 17 19  1  0
 19 20  1  0
 20 21  1  0
  6 22  1  0
 22 23  2  0
 22 24  1  0
  3 25  1  0
 25 26  1  0
 25 27  1  0
 27 28  1  0
 28 29  2  0
 29 30  2  0
 20 13  1  0
  1 31  1  0
  1 32  1  0
  1 33  1  0
  2 34  1  0
  2 35  1  0
  3 36  1  1
  4 37  1  0
  4 38  1  0
  5 39  1  0
  5 40  1  0
  6 41  1  1
  7 42  1  0
  8 43  1  1
 10 44  1  0
 10 45  1  0
 14 46  1  0
 15 47  1  0
 15 48  1  0
 16 49  1  0
 16 50  1  0
 17 51  1  6
 19 52  1  0
 20 53  1  0
 25 54  1  6
 26 55  1  0
 27 56  1  0
 27 57  1  0
 28 58  1  0
M  CHG  1  24  -1
M  END

>  <ID>
DiffSBDD_43_num_sample_50

>  <docking_score>
-9.143

$$$$
DiffSBDD_44_num_sample_50
     RDKit          3D

 61 64  0  0  0  0  0  0  0  0999 V2000
    9.3960    8.4540   -6.8100 C   0  0  0  0  0  0  0  0  0  0  0  0
   10.9080    7.7780   -6.8710 C   0  0  2  0  0  0  0  0  0  0  0  0
   11.4340    8.0350   -5.4260 C   0  0  0  0  0  0  0  0  0  0  0  0
   11.3190    6.7930   -4.7470 C   0  0  0  0  0  0  0  0  0  0  0  0
   11.7130    6.6760   -3.5240 C   0  0  0  0  0  0  0  0  0  0  0  0
   12.1940    7.2970   -2.6280 C   0  0  0  0  0  0  0  0  0  0  0  0
   12.7010    8.7790   -2.2840 C   0  0  0  0  0  0  0  0  0  0  0  0
   12.4130    9.4810   -3.5610 C   0  0  0  0  0  0  0  0  0  0  0  0
   11.8620    9.1740   -4.8410 C   0  0  0  0  0  0  0  0  0  0  0  0
   12.0950    6.2190   -1.9940 O   0  0  0  0  0  0  0  0  0  0  0  0
   11.6810    8.4930   -8.0540 C   0  0  0  0  0  0  0  0  0  0  0  0
   10.8850    8.4660   -9.4480 C   0  0  0  0  0  0  0  0  0  0  0  0
   10.8130    7.1170   -9.6680 C   0  0  0  0  0  0  0  0  0  0  0  0
   10.1050    6.1450   -8.6680 C   0  0  1  0  0  0  0  0  0  0  0  0
    9.1280    5.4520   -9.4220 C   0  0  0  0  0  0  0  0  0  0  0  0
    8.1860    5.1880   -8.6900 O   0  0  0  0  0  0  0  0  0  0  0  0
    9.1770    5.1330  -10.7100 N   0  0  0  0  0  0  0  0  0  0  0  0
    8.6590    4.7100  -11.8660 C   0  0  0  0  0  0  0  0  0  0  0  0
    7.2370    5.2250  -12.2380 C   0  0  1  0  0  0  0  0  0  0  0  0
    7.5750    6.4810  -12.9640 O   0  0  0  0  0  0  0  0  0  0  0  0
    6.4770    6.9980  -13.7270 C   0  0  1  0  0  0  0  0  0  0  0  0
    5.4850    7.7310  -12.8440 C   0  0  0  0  0  0  0  0  0  0  0  0
    6.8330    7.7560  -14.7620 F   0  0  0  0  0  0  0  0  0  0  0  0
    5.8100    5.8310  -14.4210 C   0  0  0  0  0  0  0  0  0  0  0  0
    5.2960    4.7290  -13.5880 C   0  0  0  0  0  0  0  0  0  0  0  0
    6.4170    4.2300  -12.7440 C   0  0  0  0  0  0  0  0  0  0  0  0
    6.6570    2.8400  -12.4560 C   0  0  0  0  0  0  0  0  0  0  0  0
    5.9440    1.9710  -13.3600 O   0  0  0  0  0  0  0  0  0  0  0  0
   10.6630    6.3550   -7.2210 C   0  0  0  0  0  0  0  0  0  0  0  0
    9.0963    8.5880   -5.7601 H   0  0  0  0  0  0  0  0  0  0  0  0
    9.4106    9.4313   -7.3147 H   0  0  0  0  0  0  0  0  0  0  0  0
    8.6775    7.7914   -7.3147 H   0  0  0  0  0  0  0  0  0  0  0  0
   10.8907    5.9239   -5.2678 H   0  0  0  0  0  0  0  0  0  0  0  0
   12.1360    9.2151   -1.4470 H   0  0  0  0  0  0  0  0  0  0  0  0
   13.7515    8.8355   -1.9625 H   0  0  0  0  0  0  0  0  0  0  0  0
   12.7087   10.5389   -3.5036 H   0  0  0  0  0  0  0  0  0  0  0  0
   11.7650   10.0557   -5.4915 H   0  0  0  0  0  0  0  0  0  0  0  0
   11.8547    9.5421   -7.7725 H   0  0  0  0  0  0  0  0  0  0  0  0
   12.6201    7.9411   -8.2070 H   0  0  0  0  0  0  0  0  0  0  0  0
    9.8857    8.9160   -9.3538 H   0  0  0  0  0  0  0  0  0  0  0  0
   11.3604    9.0379  -10.2585 H   0  0  0  0  0  0  0  0  0  0  0  0
   10.3008    6.9906  -10.6332 H   0  0  0  0  0  0  0  0  0  0  0  0
   11.8662    6.8139   -9.5739 H   0  0  0  0  0  0  0  0  0  0  0  0
    9.3678    6.9261   -8.4307 H   0  0  0  0  0  0  0  0  0  0  0  0
   10.1620    5.3090  -10.9520 H   0  0  0  0  0  0  0  0  0  0  0  0
    9.3440    5.0199  -12.6689 H   0  0  0  0  0  0  0  0  0  0  0  0
    8.5448    3.6226  -11.7452 H   0  0  0  0  0  0  0  0  0  0  0  0
    6.5264    5.4920  -11.4419 H   0  0  0  0  0  0  0  0  0  0  0  0
    5.7307    7.5494  -11.7873 H   0  0  0  0  0  0  0  0  0  0  0  0
    5.5362    8.8099  -13.0522 H   0  0  0  0  0  0  0  0  0  0  0  0
    4.4687    7.3652  -13.0522 H   0  0  0  0  0  0  0  0  0  0  0  0
    4.9598    6.2330  -14.9916 H   0  0  0  0  0  0  0  0  0  0  0  0
    6.6127    5.3720  -15.0168 H   0  0  0  0  0  0  0  0  0  0  0  0
    4.4800    5.0944  -12.9472 H   0  0  0  0  0  0  0  0  0  0  0  0
    4.9053    3.9199  -14.2226 H   0  0  0  0  0  0  0  0  0  0  0  0
    5.7783    4.3046  -11.8515 H   0  0  0  0  0  0  0  0  0  0  0  0
    7.7348    2.6394  -12.5462 H   0  0  0  0  0  0  0  0  0  0  0  0
    6.2991    2.6372  -11.4358 H   0  0  0  0  0  0  0  0  0  0  0  0
    5.8110    2.4330  -14.2260 H   0  0  0  0  0  0  0  0  0  0  0  0
    9.9357    5.9427   -6.5061 H   0  0  0  0  0  0  0  0  0  0  0  0
   11.6356    5.8431   -7.1764 H   0  0  0  0  0  0  0  0  0  0  0  0
  2  1  1  1
  2  3  1  0
  3  4  2  0
  4  5  1  0
  5  6  2  0
  6  7  1  0
  7  8  1  0
  8  9  2  0
  6 10  1  0
  2 11  1  0
 11 12  1  0
 12 13  1  0
 13 14  1  0
 14 15  1  0
 15 16  2  0
 15 17  1  0
 17 18  1  0
 18 19  1  0
 19 20  1  0
 20 21  1  0
 21 22  1  0
 21 23  1  6
 21 24  1  0
 24 25  1  0
 25 26  1  0
 26 27  1  0
 27 28  1  0
 14 29  1  0
 29  2  1  0
  9  3  1  0
 26 19  1  0
 10  5  1  0
  1 30  1  0
  1 31  1  0
  1 32  1  0
  4 33  1  0
  7 34  1  0
  7 35  1  0
  8 36  1  0
  9 37  1  0
 11 38  1  0
 11 39  1  0
 12 40  1  0
 12 41  1  0
 13 42  1  0
 13 43  1  0
 14 44  1  6
 17 45  1  0
 18 46  1  0
 18 47  1  0
 19 48  1  1
 22 49  1  0
 22 50  1  0
 22 51  1  0
 24 52  1  0
 24 53  1  0
 25 54  1  0
 25 55  1  0
 26 56  1  0
 27 57  1  0
 27 58  1  0
 28 59  1  0
 29 60  1  0
 29 61  1  0
M  END

>  <ID>
DiffSBDD_44_num_sample_50

>  <docking_score>
-10.938

$$$$
DiffSBDD_45_num_sample_50
     RDKit          3D

 63 66  0  0  0  0  0  0  0  0999 V2000
   12.0220    7.7270   -3.3590 C   0  0  0  0  0  0  0  0  0  0  0  0
   11.6730    7.9020   -4.7140 O   0  0  0  0  0  0  0  0  0  0  0  0
   11.6650    9.0500   -5.5000 C   0  0  1  0  0  0  0  0  0  0  0  0
   12.3240    9.6090   -6.7890 C   0  0  0  0  0  0  0  0  0  0  0  0
   12.6420    8.8030   -8.0220 C   0  0  0  0  0  0  0  0  0  0  0  0
   12.0930    7.3920   -7.9920 C   0  0  0  0  0  0  0  0  0  0  0  0
   10.7420    7.3870   -7.8720 C   0  0  2  0  0  0  0  0  0  0  0  0
    9.9110    6.4340   -8.6440 C   0  0  0  0  0  0  0  0  0  0  0  0
    9.3050    5.8170   -7.7860 C   0  0  1  0  0  0  0  0  0  0  0  0
    7.9710    5.1320   -7.9700 O   0  0  0  0  0  0  0  0  0  0  0  0
    8.6150    4.9380   -9.1130 C   0  0  2  0  0  0  0  0  0  0  0  0
    9.5420    4.3850   -9.6590 O   0  0  0  0  0  0  0  0  0  0  0  0
    7.4940    5.0700  -10.1340 O   0  0  0  0  0  0  0  0  0  0  0  0
    6.9210    4.2440  -11.1370 C   0  0  1  0  0  0  0  0  0  0  0  0
    5.4910    4.4370  -11.4950 C   0  0  0  0  0  0  0  0  0  0  0  0
    5.5250    4.8640  -12.9240 O   0  0  0  0  0  0  0  0  0  0  0  0
    6.4630    5.6430  -13.5470 C   0  0  1  0  0  0  0  0  0  0  0  0
    6.3610    6.9130  -14.0130 C   0  0  2  0  0  0  0  0  0  0  0  0
    5.5810    7.3300  -15.1710 C   0  0  0  0  0  0  0  0  0  0  0  0
    7.0170    7.8890  -13.1920 C   0  0  0  0  0  0  0  0  0  0  0  0
    8.1730    7.5050  -12.4130 C   0  0  0  0  0  0  0  0  0  0  0  0
    8.8270    6.1900  -12.6140 C   0  0  0  0  0  0  0  0  0  0  0  0
    7.8980    5.2390  -13.2570 C   0  0  2  0  0  0  0  0  0  0  0  0
    8.6050    4.9550  -14.5190 C   0  0  0  0  0  0  0  0  0  0  0  0
    7.7070    4.1110  -12.4040 C   0  0  0  0  0  0  0  0  0  0  0  0
   10.1050    8.4810   -7.1320 C   0  0  0  0  0  0  0  0  0  0  0  0
   10.3640    8.9150   -5.8760 C   0  0  0  0  0  0  0  0  0  0  0  0
   11.2219    8.1282   -2.7195 H   0  0  0  0  0  0  0  0  0  0  0  0
   12.1556    6.6553   -3.1502 H   0  0  0  0  0  0  0  0  0  0  0  0
   12.9607    8.2610   -3.1502 H   0  0  0  0  0  0  0  0  0  0  0  0
   12.2784    9.7084   -4.8674 H   0  0  0  0  0  0  0  0  0  0  0  0
   11.6591   10.4159   -7.1308 H   0  0  0  0  0  0  0  0  0  0  0  0
   13.3401    9.8096   -6.4185 H   0  0  0  0  0  0  0  0  0  0  0  0
   12.2166    9.3216   -8.8938 H   0  0  0  0  0  0  0  0  0  0  0  0
   13.7375    8.7180   -8.0738 H   0  0  0  0  0  0  0  0  0  0  0  0
   12.3709    6.8804   -8.9253 H   0  0  0  0  0  0  0  0  0  0  0  0
   12.5190    6.8743   -7.1199 H   0  0  0  0  0  0  0  0  0  0  0  0
   10.7366    6.6035   -7.0999 H   0  0  0  0  0  0  0  0  0  0  0  0
    9.2154    6.9686   -9.3075 H   0  0  0  0  0  0  0  0  0  0  0  0
   10.5080    5.7804   -9.2970 H   0  0  0  0  0  0  0  0  0  0  0  0
    9.7757    6.0896   -6.8299 H   0  0  0  0  0  0  0  0  0  0  0  0
    9.9560    3.7390   -9.0340 H   0  0  0  0  0  0  0  0  0  0  0  0
    6.9711    3.3066  -10.5636 H   0  0  0  0  0  0  0  0  0  0  0  0
    4.9304    3.4973  -11.3820 H   0  0  0  0  0  0  0  0  0  0  0  0
    4.9905    5.1722  -10.8477 H   0  0  0  0  0  0  0  0  0  0  0  0
    5.9119    5.3409  -14.4498 H   0  0  0  0  0  0  0  0  0  0  0  0
    5.4883    7.0808  -13.3647 H   0  0  0  0  0  0  0  0  0  0  0  0
    4.6579    7.8235  -14.8329 H   0  0  0  0  0  0  0  0  0  0  0  0
    6.1716    8.0327  -15.7771 H   0  0  0  0  0  0  0  0  0  0  0  0
    5.3247    6.4486  -15.7771 H   0  0  0  0  0  0  0  0  0  0  0  0
    6.6432    8.9229  -13.1552 H   0  0  0  0  0  0  0  0  0  0  0  0
    8.5733    8.1994  -11.6596 H   0  0  0  0  0  0  0  0  0  0  0  0
    9.7113    6.3205  -13.2550 H   0  0  0  0  0  0  0  0  0  0  0  0
    9.1228    5.7881  -11.6337 H   0  0  0  0  0  0  0  0  0  0  0  0
    9.6047    4.5534  -14.2969 H   0  0  0  0  0  0  0  0  0  0  0  0
    8.0341    4.2164  -15.1009 H   0  0  0  0  0  0  0  0  0  0  0  0
    8.7037    5.8832  -15.1009 H   0  0  0  0  0  0  0  0  0  0  0  0
    7.2050    3.3404  -13.0074 H   0  0  0  0  0  0  0  0  0  0  0  0
    8.7241    3.8966  -12.0441 H   0  0  0  0  0  0  0  0  0  0  0  0
   10.2563    9.3670   -7.7661 H   0  0  0  0  0  0  0  0  0  0  0  0
    9.1358    7.9985   -6.9372 H   0  0  0  0  0  0  0  0  0  0  0  0
    9.8884    9.9008   -5.7665 H   0  0  0  0  0  0  0  0  0  0  0  0
    9.9722    8.1193   -5.2253 H   0  0  0  0  0  0  0  0  0  0  0  0
  1  2  1  0
  2  3  1  0
  3  4  1  0
  4  5  1  0
  5  6  1  0
  6  7  1  0
  7  8  1  0
  8  9  1  0
  9 10  1  0
 10 11  1  0
 11 12  1  1
 11 13  1  0
 13 14  1  0
 14 15  1  0
 15 16  1  0
 16 17  1  0
 17 18  1  0
 18 19  1  0
 18 20  1  0
 20 21  2  0
 21 22  1  0
 22 23  1  0
 23 24  1  6
 23 25  1  0
  7 26  1  0
 26 27  1  0
 27  3  1  0
 11  9  1  0
 25 14  1  0
 23 17  1  0
  1 28  1  0
  1 29  1  0
  1 30  1  0
  3 31  1  1
  4 32  1  0
  4 33  1  0
  5 34  1  0
  5 35  1  0
  6 36  1  0
  6 37  1  0
  7 38  1  1
  8 39  1  0
  8 40  1  0
  9 41  1  1
 12 42  1  0
 14 43  1  1
 15 44  1  0
 15 45  1  0
 17 46  1  6
 18 47  1  6
 19 48  1  0
 19 49  1  0
 19 50  1  0
 20 51  1  0
 21 52  1  0
 22 53  1  0
 22 54  1  0
 24 55  1  0
 24 56  1  0
 24 57  1  0
 25 58  1  0
 25 59  1  0
 26 60  1  0
 26 61  1  0
 27 62  1  0
 27 63  1  0
M  END

>  <ID>
DiffSBDD_45_num_sample_50

>  <docking_score>
-8.511

$$$$
DiffSBDD_46_num_sample_50
     RDKit          3D

 66 68  0  0  0  0  0  0  0  0999 V2000
   12.7230    8.4580   -1.6090 C   0  0  0  0  0  0  0  0  0  0  0  0
   12.0490    9.0710   -2.7770 C   0  0  0  0  0  0  0  0  0  0  0  0
   12.5210    8.3810   -3.9620 O   0  0  0  0  0  0  0  0  0  0  0  0
   11.8710    8.3490   -5.0910 N   0  0  0  0  0  0  0  0  0  0  0  0
   11.8390    9.5410   -5.8340 C   0  0  0  0  0  0  0  0  0  0  0  0
   11.8100    9.3090   -7.2990 C   0  0  0  0  0  0  0  0  0  0  0  0
   11.5300    7.9910   -7.7310 C   0  0  0  0  0  0  0  0  0  0  0  0
   11.7260    7.7240   -9.1690 C   0  0  0  0  0  0  0  0  0  0  0  0
   10.4030    7.7230   -9.6250 O   0  0  0  0  0  0  0  0  0  0  0  0
    9.4350    6.9820  -10.2840 C   0  0  0  0  0  0  0  0  0  0  0  0
    9.3190    5.7380   -9.7200 C   0  0  0  0  0  0  0  0  0  0  0  0
    8.7210    4.6850  -10.4300 C   0  0  0  0  0  0  0  0  0  0  0  0
    8.4250    4.9980  -11.7180 C   0  0  2  0  0  0  0  0  0  0  0  0
    8.6920    4.0160  -12.6370 O   0  0  0  0  0  0  0  0  0  0  0  0
    7.5700    3.1710  -12.9950 C   0  0  1  0  0  0  0  0  0  0  0  0
    6.3980    3.5250  -12.5010 F   0  0  0  0  0  0  0  0  0  0  0  0
    7.6840    3.2640  -14.5000 C   0  0  1  0  0  0  0  0  0  0  0  0
    8.7410    3.9360  -15.0670 O   0  0  0  0  0  0  0  0  0  0  0  0
    8.7920    4.2470  -16.2850 C   0  0  0  0  0  0  0  0  0  0  0  0
    7.8010    3.6940  -17.1950 C   0  0  0  0  0  0  0  0  0  0  0  0
    7.6160    4.0980  -18.4340 O   0  0  0  0  0  0  0  0  0  0  0  0
    7.0800    2.6880  -16.6240 N   0  0  0  0  0  0  0  0  0  0  0  0
    7.1750    2.3360  -15.3910 C   0  0  1  0  0  0  0  0  0  0  0  0
    6.9490    0.9010  -14.9880 C   0  0  0  0  0  0  0  0  0  0  0  0
    7.7630    0.2930  -14.2950 O   0  0  0  0  0  0  0  0  0  0  0  0
    5.4990    0.4330  -14.9880 C   0  0  0  0  0  0  0  0  0  0  0  0
    5.0210   -0.1970  -16.3180 C   0  0  0  0  0  0  0  0  0  0  0  0
    4.6130    0.9920  -13.9500 C   0  0  0  0  0  0  0  0  0  0  0  0
    8.1340    6.3470  -12.1860 C   0  0  0  0  0  0  0  0  0  0  0  0
    7.4320    6.6590  -13.3930 C   0  0  0  0  0  0  0  0  0  0  0  0
    6.7930    6.8370  -14.1340 O   0  0  0  0  0  0  0  0  0  0  0  0
    8.7550    7.3840  -11.4150 C   0  0  0  0  0  0  0  0  0  0  0  0
   11.2620    6.9270   -6.8990 C   0  0  0  0  0  0  0  0  0  0  0  0
   11.3100    7.1980   -5.5260 C   0  0  0  0  0  0  0  0  0  0  0  0
   10.8830    6.3870   -4.6870 O   0  0  0  0  0  0  0  0  0  0  0  0
   12.2849    8.8565   -0.6820 H   0  0  0  0  0  0  0  0  0  0  0  0
   12.5880    7.3667   -1.6388 H   0  0  0  0  0  0  0  0  0  0  0  0
   13.7966    8.6956   -1.6388 H   0  0  0  0  0  0  0  0  0  0  0  0
   10.9589    8.9567   -2.6846 H   0  0  0  0  0  0  0  0  0  0  0  0
   12.2767   10.1455   -2.8368 H   0  0  0  0  0  0  0  0  0  0  0  0
   10.9393   10.1069   -5.5506 H   0  0  0  0  0  0  0  0  0  0  0  0
   12.7611   10.0960   -5.6064 H   0  0  0  0  0  0  0  0  0  0  0  0
   11.0405    9.9694   -7.7253 H   0  0  0  0  0  0  0  0  0  0  0  0
   12.8347    9.5129   -7.6430 H   0  0  0  0  0  0  0  0  0  0  0  0
   12.3180    8.5167   -9.6497 H   0  0  0  0  0  0  0  0  0  0  0  0
   12.2804    6.7991   -9.3863 H   0  0  0  0  0  0  0  0  0  0  0  0
    9.6978    5.5634   -8.7022 H   0  0  0  0  0  0  0  0  0  0  0  0
    9.4116    3.8288  -10.4299 H   0  0  0  0  0  0  0  0  0  0  0  0
    7.7703    4.4550   -9.9268 H   0  0  0  0  0  0  0  0  0  0  0  0
    7.3517    5.1033  -11.5012 H   0  0  0  0  0  0  0  0  0  0  0  0
    7.6127    2.1540  -12.5781 H   0  0  0  0  0  0  0  0  0  0  0  0
    6.8130    3.9156  -14.3364 H   0  0  0  0  0  0  0  0  0  0  0  0
    8.7068    5.3422  -16.3421 H   0  0  0  0  0  0  0  0  0  0  0  0
    9.7407    3.8099  -16.6299 H   0  0  0  0  0  0  0  0  0  0  0  0
    6.4140    2.1760  -17.2200 H   0  0  0  0  0  0  0  0  0  0  0  0
    6.1318    2.3893  -15.0462 H   0  0  0  0  0  0  0  0  0  0  0  0
    5.3558   -0.5194  -14.4566 H   0  0  0  0  0  0  0  0  0  0  0  0
    4.3689   -1.0564  -16.1031 H   0  0  0  0  0  0  0  0  0  0  0  0
    4.4616    0.5517  -16.8982 H   0  0  0  0  0  0  0  0  0  0  0  0
    5.8926   -0.5341  -16.8982 H   0  0  0  0  0  0  0  0  0  0  0  0
    5.0101    0.7415  -12.9552 H   0  0  0  0  0  0  0  0  0  0  0  0
    4.5633    2.0853  -14.0603 H   0  0  0  0  0  0  0  0  0  0  0  0
    3.6048    0.5661  -14.0603 H   0  0  0  0  0  0  0  0  0  0  0  0
    9.4703    7.9047  -12.0686 H   0  0  0  0  0  0  0  0  0  0  0  0
    7.9292    8.0136  -11.0520 H   0  0  0  0  0  0  0  0  0  0  0  0
   11.0249    5.9261   -7.2888 H   0  0  0  0  0  0  0  0  0  0  0  0
  1  2  1  0
  2  3  1  0
  3  4  1  0
  4  5  1  0
  5  6  1  0
  6  7  1  0
  7  8  1  0
  8  9  1  0
  9 10  1  0
 10 11  2  0
 11 12  1  0
 12 13  1  0
 13 14  1  0
 14 15  1  0
 15 16  1  0
 15 17  1  0
 17 18  1  0
 18 19  1  0
 19 20  1  0
 20 21  2  0
 20 22  1  0
 22 23  1  0
 23 24  1  0
 24 25  2  0
 24 26  1  0
 26 27  1  0
 26 28  1  0
 13 29  1  0
 29 30  2  0
 30 31  2  0
 29 32  1  0
  7 33  2  0
 33 34  1  0
 34 35  2  0
 34  4  1  0
 32 10  1  0
 23 17  1  0
  1 36  1  0
  1 37  1  0
  1 38  1  0
  2 39  1  0
  2 40  1  0
  5 41  1  0
  5 42  1  0
  6 43  1  0
  6 44  1  0
  8 45  1  0
  8 46  1  0
 11 47  1  0
 12 48  1  0
 12 49  1  0
 13 50  1  1
 15 51  1  6
 17 52  1  6
 19 53  1  0
 19 54  1  0
 22 55  1  0
 23 56  1  1
 26 57  1  0
 27 58  1  0
 27 59  1  0
 27 60  1  0
 28 61  1  0
 28 62  1  0
 28 63  1  0
 32 64  1  0
 32 65  1  0
 33 66  1  0
M  END

>  <ID>
DiffSBDD_46_num_sample_50

>  <docking_score>
-9.315

$$$$
DiffSBDD_47_num_sample_50
     RDKit          3D

 61 63  0  0  0  0  0  0  0  0999 V2000
   11.3690    6.9090   -4.7960 C   0  0  0  0  0  0  0  0  0  0  0  0
   11.0840    6.3380   -6.1780 C   0  0  0  0  0  0  0  0  0  0  0  0
   11.3010    7.1440   -7.2340 C   0  0  0  0  0  0  0  0  0  0  0  0
   12.1210    8.3460   -7.1300 N   0  0  0  0  0  0  0  0  0  0  0  0
   11.9680    9.0720   -8.2650 N   0  0  0  0  0  0  0  0  0  0  0  0
   11.3140    8.5880   -9.1360 N   0  0  0  0  0  0  0  0  0  0  0  0
   10.7170    7.3160   -8.4560 C   0  0  2  0  0  0  0  0  0  0  0  0
    9.8260    6.7060   -9.2890 C   0  0  1  0  0  0  0  0  0  0  0  0
    9.4610    5.6550   -9.5490 O   0  0  0  0  0  0  0  0  0  0  0  0
    8.9110    6.5540  -10.3910 N   0  0  0  0  0  0  0  0  0  0  0  0
    9.0390    6.9290  -11.7800 C   0  0  2  0  0  0  0  0  0  0  0  0
    7.8450    6.7590  -12.6780 C   0  0  0  0  0  0  0  0  0  0  0  0
    7.7540    5.5700  -13.6410 C   0  0  2  0  0  0  0  0  0  0  0  0
    7.0210    5.9260  -14.9380 C   0  0  0  0  0  0  0  0  0  0  0  0
    6.0460    6.9920  -14.6570 C   0  0  0  0  0  0  0  0  0  0  0  0
    5.4560    7.7580  -15.8250 C   0  0  0  0  0  0  0  0  0  0  0  0
    5.1490    6.8420  -17.0540 C   0  0  0  0  0  0  0  0  0  0  0  0
    4.2570    7.0690  -17.8450 O   0  0  0  0  0  0  0  0  0  0  0  0
    6.3230    5.8620  -17.3020 C   0  0  0  0  0  0  0  0  0  0  0  0
    6.2220    5.2900  -18.4760 O   0  0  0  0  0  0  0  0  0  0  0  0
    7.2150    5.4920  -16.3680 C   0  0  0  0  0  0  0  0  0  0  0  0
    8.2470    4.6150  -17.0100 C   0  0  0  0  0  0  0  0  0  0  0  0
    8.0380    3.1580  -16.7710 C   0  0  0  0  0  0  0  0  0  0  0  0
    9.6420    5.0130  -16.3470 C   0  0  0  0  0  0  0  0  0  0  0  0
    8.1380    4.9140  -18.3100 F   0  0  0  0  0  0  0  0  0  0  0  0
    6.9580    4.3500  -12.9410 C   0  0  0  0  0  0  0  0  0  0  0  0
    6.0250    4.0710  -11.6590 C   0  0  0  0  0  0  0  0  0  0  0  0
    7.8670    3.2170  -12.7620 C   0  0  0  0  0  0  0  0  0  0  0  0
   10.0830    6.2200  -12.6280 O   0  0  0  0  0  0  0  0  0  0  0  0
   11.3620    6.7570  -12.5180 C   0  0  0  0  0  0  0  0  0  0  0  0
   11.0172    6.2041   -4.0283 H   0  0  0  0  0  0  0  0  0  0  0  0
   12.4515    7.0667   -4.6805 H   0  0  0  0  0  0  0  0  0  0  0  0
   10.8443    7.8689   -4.6805 H   0  0  0  0  0  0  0  0  0  0  0  0
   11.7179    5.4481   -6.3054 H   0  0  0  0  0  0  0  0  0  0  0  0
   10.0011    6.1449   -6.1869 H   0  0  0  0  0  0  0  0  0  0  0  0
   11.5297    6.7079   -8.8800 H   0  0  0  0  0  0  0  0  0  0  0  0
   10.6035    6.6275  -10.0632 H   0  0  0  0  0  0  0  0  0  0  0  0
    9.2832    7.9742  -11.5392 H   0  0  0  0  0  0  0  0  0  0  0  0
    6.9641    6.7002  -12.0219 H   0  0  0  0  0  0  0  0  0  0  0  0
    7.9245    7.6201  -13.3579 H   0  0  0  0  0  0  0  0  0  0  0  0
    8.7876    5.2829  -13.8844 H   0  0  0  0  0  0  0  0  0  0  0  0
    5.7521    7.2276  -13.6235 H   0  0  0  0  0  0  0  0  0  0  0  0
    4.5194    8.2328  -15.4973 H   0  0  0  0  0  0  0  0  0  0  0  0
    6.2000    8.5029  -16.1435 H   0  0  0  0  0  0  0  0  0  0  0  0
    5.9290    5.8190  -19.2600 H   0  0  0  0  0  0  0  0  0  0  0  0
    8.0102    2.9643  -15.6885 H   0  0  0  0  0  0  0  0  0  0  0  0
    7.0858    2.8450  -17.2241 H   0  0  0  0  0  0  0  0  0  0  0  0
    8.8639    2.5899  -17.2241 H   0  0  0  0  0  0  0  0  0  0  0  0
    9.5481    4.9862  -15.2513 H   0  0  0  0  0  0  0  0  0  0  0  0
   10.4164    4.3000  -16.6662 H   0  0  0  0  0  0  0  0  0  0  0  0
    9.9236    6.0273  -16.6662 H   0  0  0  0  0  0  0  0  0  0  0  0
    6.1716    4.6336  -13.6559 H   0  0  0  0  0  0  0  0  0  0  0  0
    6.6037    4.2441  -10.7397 H   0  0  0  0  0  0  0  0  0  0  0  0
    5.1596    4.7496  -11.6807 H   0  0  0  0  0  0  0  0  0  0  0  0
    5.6742    3.0287  -11.6807 H   0  0  0  0  0  0  0  0  0  0  0  0
    8.0154    3.0321  -11.6879 H   0  0  0  0  0  0  0  0  0  0  0  0
    7.4339    2.3216  -13.2318 H   0  0  0  0  0  0  0  0  0  0  0  0
    8.8350    3.4457  -13.2318 H   0  0  0  0  0  0  0  0  0  0  0  0
   11.6234    6.8668  -11.4552 H   0  0  0  0  0  0  0  0  0  0  0  0
   12.0845    6.0863  -13.0059 H   0  0  0  0  0  0  0  0  0  0  0  0
   11.3891    7.7425  -13.0059 H   0  0  0  0  0  0  0  0  0  0  0  0
  1  2  1  0
  2  3  1  0
  3  4  2  0
  4  5  1  0
  5  6  2  0
  6  7  1  0
  7  8  1  0
  8  9  1  0
  9 10  1  0
 10 11  1  0
 11 12  1  0
 12 13  1  0
 13 14  1  0
 14 15  2  0
 15 16  1  0
 16 17  1  0
 17 18  2  0
 17 19  1  0
 19 20  1  0
 19 21  2  0
 21 22  1  0
 22 23  1  0
 22 24  1  0
 22 25  1  0
 13 26  1  0
 26 27  1  0
 26 28  1  0
 11 29  1  0
 29 30  1  0
  7  3  1  0
 10  8  1  0
 21 14  1  0
  1 31  1  0
  1 32  1  0
  1 33  1  0
  2 34  1  0
  2 35  1  0
  7 36  1  1
  8 37  1  1
 11 38  1  1
 12 39  1  0
 12 40  1  0
 13 41  1  6
 15 42  1  0
 16 43  1  0
 16 44  1  0
 20 45  1  0
 23 46  1  0
 23 47  1  0
 23 48  1  0
 24 49  1  0
 24 50  1  0
 24 51  1  0
 26 52  1  0
 27 53  1  0
 27 54  1  0
 27 55  1  0
 28 56  1  0
 28 57  1  0
 28 58  1  0
 30 59  1  0
 30 60  1  0
 30 61  1  0
M  END

>  <ID>
DiffSBDD_47_num_sample_50

>  <docking_score>
-8.199

$$$$
DiffSBDD_4_num_sample_50
     RDKit          3D

 43 44  0  0  0  0  0  0  0  0999 V2000
    7.0160    0.6350  -13.2560 C   0  0  0  0  0  0  0  0  0  0  0  0
    6.3870    2.0040  -13.2770 C   0  0  0  0  0  0  0  0  0  0  0  0
    7.3840    2.6950  -12.5200 O   0  0  0  0  0  0  0  0  0  0  0  0
    6.6650    3.8500  -11.9600 C   0  0  0  0  0  0  0  0  0  0  0  0
    5.5970    4.0100  -11.0170 O   0  0  0  0  0  0  0  0  0  0  0  0
    7.1820    5.2200  -12.2770 C   0  0  0  0  0  0  0  0  0  0  0  0
    6.2820    5.8600  -12.9980 C   0  0  0  0  0  0  0  0  0  0  0  0
    6.4980    7.3520  -13.5460 C   0  0  0  0  0  0  0  0  0  0  0  0
    6.1510    7.4810  -15.0440 C   0  0  0  0  0  0  0  0  0  0  0  0
    5.3600    6.7320  -15.4620 O   0  0  0  0  0  0  0  0  0  0  0  0
    8.4640    5.6980  -11.6750 N   0  0  0  0  0  0  0  0  0  0  0  0
    9.3500    6.5850  -11.8790 C   0  0  0  0  0  0  0  0  0  0  0  0
    9.5130    7.9880  -11.0440 C   0  0  0  0  0  0  0  0  0  0  0  0
    9.5180    7.4210   -9.5360 C   0  0  2  0  0  0  0  0  0  0  0  0
   10.7300    7.7050   -8.6900 C   0  0  0  0  0  0  0  0  0  0  0  0
   10.7080    6.6050   -7.7230 C   0  0  2  0  0  0  0  0  0  0  0  0
   11.2260    6.3040   -6.5240 O   0  0  0  0  0  0  0  0  0  0  0  0
    9.7450    5.5700   -8.1950 C   0  0  0  0  0  0  0  0  0  0  0  0
    9.1110    5.9420   -9.6420 C   0  0  1  0  0  0  0  0  0  0  0  0
    8.5290    5.2160  -10.1320 C   0  0  0  0  0  0  0  0  0  0  0  0
    7.1630    0.3150  -12.2139 H   0  0  0  0  0  0  0  0  0  0  0  0
    6.3560   -0.0797  -13.7694 H   0  0  0  0  0  0  0  0  0  0  0  0
    7.9882    0.6703  -13.7694 H   0  0  0  0  0  0  0  0  0  0  0  0
    6.2895    2.4017  -14.2979 H   0  0  0  0  0  0  0  0  0  0  0  0
    5.3588    2.0679  -12.8914 H   0  0  0  0  0  0  0  0  0  0  0  0
    5.3386    5.3463  -13.2348 H   0  0  0  0  0  0  0  0  0  0  0  0
    5.8542    8.0359  -12.9735 H   0  0  0  0  0  0  0  0  0  0  0  0
    7.5615    7.6050  -13.4237 H   0  0  0  0  0  0  0  0  0  0  0  0
    6.6247    8.2396  -15.6845 H   0  0  0  0  0  0  0  0  0  0  0  0
   10.3123    6.0651  -11.7620 H   0  0  0  0  0  0  0  0  0  0  0  0
    9.0051    6.9789  -12.8464 H   0  0  0  0  0  0  0  0  0  0  0  0
   10.4542    8.5016  -11.2896 H   0  0  0  0  0  0  0  0  0  0  0  0
    8.7394    8.7419  -11.2517 H   0  0  0  0  0  0  0  0  0  0  0  0
    8.7916    7.9903   -8.9375 H   0  0  0  0  0  0  0  0  0  0  0  0
   11.6494    7.6850   -9.2936 H   0  0  0  0  0  0  0  0  0  0  0  0
   10.7139    8.7002   -8.2217 H   0  0  0  0  0  0  0  0  0  0  0  0
    9.8322    7.0543   -7.2319 H   0  0  0  0  0  0  0  0  0  0  0  0
   11.4290    7.1400   -6.0330 H   0  0  0  0  0  0  0  0  0  0  0  0
   10.2701    4.6067   -8.2747 H   0  0  0  0  0  0  0  0  0  0  0  0
    8.9215    5.5161   -7.4677 H   0  0  0  0  0  0  0  0  0  0  0  0
    8.8898    5.8502  -10.7156 H   0  0  0  0  0  0  0  0  0  0  0  0
    9.0026    4.2261  -10.0564 H   0  0  0  0  0  0  0  0  0  0  0  0
    7.5273    5.1222   -9.6872 H   0  0  0  0  0  0  0  0  0  0  0  0
  1  2  1  0
  2  3  1  0
  3  4  1  0
  4  5  2  0
  4  6  1  0
  6  7  2  3
  7  8  1  0
  8  9  1  0
  9 10  2  0
  6 11  1  0
 11 12  1  0
 12 13  1  0
 13 14  1  0
 14 15  1  0
 15 16  1  0
 16 17  1  0
 16 18  1  0
 18 19  1  0
 19 20  1  0
 20 11  1  0
 19 14  1  0
  1 21  1  0
  1 22  1  0
  1 23  1  0
  2 24  1  0
  2 25  1  0
  7 26  1  0
  8 27  1  0
  8 28  1  0
  9 29  1  0
 12 30  1  0
 12 31  1  0
 13 32  1  0
 13 33  1  0
 14 34  1  1
 15 35  1  0
 15 36  1  0
 16 37  1  6
 17 38  1  0
 18 39  1  0
 18 40  1  0
 19 41  1  6
 20 42  1  0
 20 43  1  0
M  END

>  <ID>
DiffSBDD_4_num_sample_50

>  <docking_score>
-6.813

$$$$
DiffSBDD_5_num_sample_50
     RDKit          3D

 55 58  0  0  0  0  0  0  0  0999 V2000
    9.1870    8.7880   -9.5210 C   0  0  0  0  0  0  0  0  0  0  0  0
   10.3610    8.1290   -9.8450 C   0  0  2  0  0  0  0  0  0  0  0  0
   10.1690    6.7510   -9.8230 C   0  0  2  0  0  0  0  0  0  0  0  0
   10.0640    6.1450  -11.5370 S   0  0  0  0  0  0  0  0  0  0  0  0
    8.8770    5.0610  -11.0490 C   0  0  0  0  0  0  0  0  0  0  0  0
    9.0490    4.9140   -9.6690 O   0  0  0  0  0  0  0  0  0  0  0  0
    7.3900    4.7300  -11.6370 C   0  0  2  0  0  0  0  0  0  0  0  0
    7.9940    3.4510  -12.6250 C   0  0  2  0  0  0  0  0  0  0  0  0
    8.4160    4.3760  -13.7230 O   0  0  0  0  0  0  0  0  0  0  0  0
    6.7960    2.7930  -12.8330 N   0  0  0  0  0  0  0  0  0  0  0  0
    6.9630    1.2180  -12.9560 C   0  0  0  0  0  0  0  0  0  0  0  0
    7.0270    1.0240  -14.3450 C   0  0  0  0  0  0  0  0  0  0  0  0
    7.1600   -0.1860  -14.7080 O   0  0  0  0  0  0  0  0  0  0  0  0
    6.8740    2.0000  -15.3030 N   0  0  0  0  0  0  0  0  0  0  0  0
    7.5620    2.7570  -15.9400 O   0  0  0  0  0  0  0  0  0  0  0  0
    5.9250    5.3950  -12.2860 C   0  0  0  0  0  0  0  0  0  0  0  0
    6.1350    4.3090  -10.9840 O   0  0  0  0  0  0  0  0  0  0  0  0
   10.3920    7.5170   -8.2360 C   0  0  1  0  0  0  0  0  0  0  0  0
   11.0200    8.1690   -6.9770 C   0  0  2  0  0  0  0  0  0  0  0  0
   11.7260    9.4460   -7.2170 C   0  0  0  0  0  0  0  0  0  0  0  0
   11.9110   10.2580   -5.8590 C   0  0  0  0  0  0  0  0  0  0  0  0
   12.9150    9.3620   -4.7760 C   0  0  0  0  0  0  0  0  0  0  0  0
   12.2140    8.7190   -4.1570 C   0  0  0  0  0  0  0  0  0  0  0  0
   12.5930    8.9380   -2.7420 C   0  0  0  0  0  0  0  0  0  0  0  0
   12.3670    7.8690   -2.1470 C   0  0  0  0  0  0  0  0  0  0  0  0
   11.8610    6.6890   -2.4980 C   0  0  0  0  0  0  0  0  0  0  0  0
   11.6030    6.5580   -3.6910 C   0  0  0  0  0  0  0  0  0  0  0  0
   11.6170    7.5300   -4.6330 C   0  0  0  0  0  0  0  0  0  0  0  0
   11.1470    7.4450   -6.0340 C   0  0  0  0  0  0  0  0  0  0  0  0
    9.0877    8.8437   -8.4269 H   0  0  0  0  0  0  0  0  0  0  0  0
    9.2100    9.8051   -9.9394 H   0  0  0  0  0  0  0  0  0  0  0  0
    8.3307    8.2387   -9.9394 H   0  0  0  0  0  0  0  0  0  0  0  0
   10.9660    8.6728  -10.5854 H   0  0  0  0  0  0  0  0  0  0  0  0
   11.2584    6.5990   -9.8360 H   0  0  0  0  0  0  0  0  0  0  0  0
    8.7709    2.7166  -12.3660 H   0  0  0  0  0  0  0  0  0  0  0  0
    7.6500    4.5400  -14.3280 H   0  0  0  0  0  0  0  0  0  0  0  0
    6.1680    2.9950  -12.0420 H   0  0  0  0  0  0  0  0  0  0  0  0
    7.8862    0.8771  -12.4646 H   0  0  0  0  0  0  0  0  0  0  0  0
    6.1524    0.6532  -12.4724 H   0  0  0  0  0  0  0  0  0  0  0  0
    5.6480    6.4461  -12.1175 H   0  0  0  0  0  0  0  0  0  0  0  0
    5.3917    5.4423  -13.2469 H   0  0  0  0  0  0  0  0  0  0  0  0
   10.1316    7.1737   -7.2239 H   0  0  0  0  0  0  0  0  0  0  0  0
   10.3746    8.7558   -6.3069 H   0  0  0  0  0  0  0  0  0  0  0  0
   12.7158    9.2347   -7.6478 H   0  0  0  0  0  0  0  0  0  0  0  0
   11.1265   10.0538   -7.9107 H   0  0  0  0  0  0  0  0  0  0  0  0
   12.3812   11.2287   -6.0747 H   0  0  0  0  0  0  0  0  0  0  0  0
   10.9271   10.4189   -5.3942 H   0  0  0  0  0  0  0  0  0  0  0  0
   13.6157    8.7290   -5.3402 H   0  0  0  0  0  0  0  0  0  0  0  0
   13.5160   10.0287   -4.1402 H   0  0  0  0  0  0  0  0  0  0  0  0
   12.9950    9.8633   -2.3036 H   0  0  0  0  0  0  0  0  0  0  0  0
   12.6511    7.9081   -1.0850 H   0  0  0  0  0  0  0  0  0  0  0  0
   11.6858    5.8850   -1.7680 H   0  0  0  0  0  0  0  0  0  0  0  0
   11.3327    5.5468   -4.0293 H   0  0  0  0  0  0  0  0  0  0  0  0
   11.7922    6.6529   -6.4418 H   0  0  0  0  0  0  0  0  0  0  0  0
   10.0867    7.5209   -5.7511 H   0  0  0  0  0  0  0  0  0  0  0  0
  1  2  1  0
  2  3  1  0
  3  4  1  0
  4  5  1  0
  5  6  2  0
  7  5  1  1
  7  8  1  0
  8  9  1  0
  8 10  1  0
 10 11  1  0
 11 12  1  0
 12 13  2  0
 12 14  1  0
 14 15  2  0
  7 16  1  0
 16 17  1  0
  3 18  1  0
 18 19  1  0
 19 20  1  0
 20 21  1  0
 21 22  1  0
 22 23  1  0
 23 24  2  0
 24 25  1  0
 25 26  2  0
 26 27  1  0
 27 28  2  0
 28 29  1  0
 18  2  1  0
 29 19  1  0
 17  7  1  0
 28 23  1  0
  1 30  1  0
  1 31  1  0
  1 32  1  0
  2 33  1  6
  3 34  1  1
  8 35  1  1
  9 36  1  0
 10 37  1  0
 11 38  1  0
 11 39  1  0
 16 40  1  0
 16 41  1  0
 18 42  1  1
 19 43  1  1
 20 44  1  0
 20 45  1  0
 21 46  1  0
 21 47  1  0
 22 48  1  0
 22 49  1  0
 24 50  1  0
 25 51  1  0
 26 52  1  0
 27 53  1  0
 29 54  1  0
 29 55  1  0
M  END

>  <ID>
DiffSBDD_5_num_sample_50

>  <docking_score>
-9.958

$$$$
DiffSBDD_6_num_sample_50
     RDKit          3D

 43 43  0  0  0  0  0  0  0  0999 V2000
    5.4070    4.3590  -12.4340 C   0  0  0  0  0  0  0  0  0  0  0  0
    6.6690    4.7520  -12.0080 C   0  0  0  0  0  0  0  0  0  0  0  0
    7.6900    5.1940  -12.8070 C   0  0  0  0  0  0  0  0  0  0  0  0
    8.9760    5.5900  -11.8220 S   0  0  0  0  0  0  0  0  0  0  0  0
    8.0560    5.2040  -10.3850 C   0  0  0  0  0  0  0  0  0  0  0  0
    8.5480    5.4210   -9.1540 C   0  0  0  0  0  0  0  0  0  0  0  0
    8.3160    4.7320   -8.3270 O   0  0  0  0  0  0  0  0  0  0  0  0
    9.3640    6.4770   -8.7670 O   0  0  0  0  0  0  0  0  0  0  0  0
    9.5720    6.5110   -7.4450 N   0  0  0  0  0  0  0  0  0  0  0  0
   10.5410    7.6050   -7.1050 C   0  0  1  0  0  0  0  0  0  0  0  0
   11.2950    7.5330   -5.7680 C   0  0  0  0  0  0  0  0  0  0  0  0
   11.6450    8.6520   -4.9790 N   0  0  0  0  0  0  0  0  0  0  0  0
   11.2210    9.9710   -5.3270 C   0  0  0  0  0  0  0  0  0  0  0  0
   10.7960   10.6780   -4.0760 O   0  0  0  0  0  0  0  0  0  0  0  0
   12.3980    8.3610   -3.9290 C   0  0  1  0  0  0  0  0  0  0  0  0
   12.9540    9.2400   -3.2480 O   0  0  0  0  0  0  0  0  0  0  0  0
   11.9660    7.5170   -2.8960 C   0  0  0  0  0  0  0  0  0  0  0  0
   12.1800    6.2910   -3.2110 F   0  0  0  0  0  0  0  0  0  0  0  0
   11.6650    8.0940   -1.9820 F   0  0  0  0  0  0  0  0  0  0  0  0
   11.3260    7.8980   -8.3540 C   0  0  1  0  0  0  0  0  0  0  0  0
   10.7350    8.7760   -9.2540 O   0  0  0  0  0  0  0  0  0  0  0  0
   12.7630    8.2150   -8.2490 C   0  0  0  0  0  0  0  0  0  0  0  0
   13.4760    8.2800   -9.4710 O   0  0  0  0  0  0  0  0  0  0  0  0
    6.8930    4.6650  -10.5920 N   0  0  0  0  0  0  0  0  0  0  0  0
    4.7701    4.1606  -11.5594 H   0  0  0  0  0  0  0  0  0  0  0  0
    4.9586    5.1601  -13.0400 H   0  0  0  0  0  0  0  0  0  0  0  0
    5.4927    3.4450  -13.0400 H   0  0  0  0  0  0  0  0  0  0  0  0
    7.6659    5.2736  -13.9039 H   0  0  0  0  0  0  0  0  0  0  0  0
    8.6790    6.6860   -6.9630 H   0  0  0  0  0  0  0  0  0  0  0  0
    9.9745    8.5026   -6.8162 H   0  0  0  0  0  0  0  0  0  0  0  0
   10.6797    6.8946   -5.1170 H   0  0  0  0  0  0  0  0  0  0  0  0
   12.2887    7.2131   -6.1148 H   0  0  0  0  0  0  0  0  0  0  0  0
   12.0525   10.5163   -5.7974 H   0  0  0  0  0  0  0  0  0  0  0  0
   10.3821    9.9228   -6.0369 H   0  0  0  0  0  0  0  0  0  0  0  0
   10.1160   11.3620   -4.2990 H   0  0  0  0  0  0  0  0  0  0  0  0
   13.0458    7.8710   -4.6708 H   0  0  0  0  0  0  0  0  0  0  0  0
   12.2980    9.6360   -2.6210 H   0  0  0  0  0  0  0  0  0  0  0  0
   11.2354    6.9468   -2.3035 H   0  0  0  0  0  0  0  0  0  0  0  0
   11.2840    6.8737   -8.7527 H   0  0  0  0  0  0  0  0  0  0  0  0
   10.7970    9.7000   -8.9030 H   0  0  0  0  0  0  0  0  0  0  0  0
   12.8565    9.1921   -7.7525 H   0  0  0  0  0  0  0  0  0  0  0  0
   13.2103    7.3805   -7.6891 H   0  0  0  0  0  0  0  0  0  0  0  0
   14.0430    9.0920   -9.4810 H   0  0  0  0  0  0  0  0  0  0  0  0
  1  2  1  0
  2  3  2  0
  3  4  1  0
  4  5  1  0
  5  6  1  0
  6  7  2  0
  6  8  1  0
  8  9  1  0
  9 10  1  0
 10 11  1  0
 11 12  1  0
 12 13  1  0
 13 14  1  0
 12 15  1  0
 15 16  1  0
 15 17  1  0
 17 18  1  0
 17 19  1  0
 10 20  1  0
 20 21  1  0
 20 22  1  0
 22 23  1  0
  5 24  2  0
 24  2  1  0
  1 25  1  0
  1 26  1  0
  1 27  1  0
  3 28  1  0
  9 29  1  0
 10 30  1  1
 11 31  1  0
 11 32  1  0
 13 33  1  0
 13 34  1  0
 14 35  1  0
 15 36  1  6
 16 37  1  0
 17 38  1  0
 20 39  1  6
 21 40  1  0
 22 41  1  0
 22 42  1  0
 23 43  1  0
M  END

>  <ID>
DiffSBDD_6_num_sample_50

>  <docking_score>
-7.145

$$$$
DiffSBDD_7_num_sample_50
     RDKit          3D

 63 67  0  0  0  0  0  0  0  0999 V2000
    8.9740    4.8190   -8.4320 C   0  0  0  0  0  0  0  0  0  0  0  0
    9.0410    6.2490   -8.6730 C   0  0  0  0  0  0  0  0  0  0  0  0
   10.4510    6.7210   -9.1980 C   0  0  1  0  0  0  0  0  0  0  0  0
   10.1420    7.5910  -10.5890 C   0  0  2  0  0  0  0  0  0  0  0  0
    8.8060    7.8320  -10.3970 O   0  0  0  0  0  0  0  0  0  0  0  0
   10.3990    6.9470  -11.7620 C   0  0  0  0  0  0  0  0  0  0  0  0
    9.6150    5.8430  -12.1790 C   0  0  0  0  0  0  0  0  0  0  0  0
    9.1280    4.6370  -11.9820 C   0  0  0  0  0  0  0  0  0  0  0  0
    7.7390    4.2800  -12.4930 C   0  0  0  0  0  0  0  0  0  0  0  0
    7.0080    5.1260  -13.4410 C   0  0  2  0  0  0  0  0  0  0  0  0
    6.8690    5.7140  -15.0670 C   0  0  0  0  0  0  0  0  0  0  0  0
    6.2800    7.0640  -14.7770 C   0  0  0  0  0  0  0  0  0  0  0  0
    5.9870    7.3440  -13.2560 C   0  0  0  0  0  0  0  0  0  0  0  0
    6.3090    6.0910  -12.6520 C   0  0  1  0  0  0  0  0  0  0  0  0
    5.6850    4.7180  -13.1330 C   0  0  0  0  0  0  0  0  0  0  0  0
   11.2770    7.1670   -7.8290 C   0  0  1  0  0  0  0  0  0  0  0  0
   12.4400    8.1100   -8.1710 C   0  0  0  0  0  0  0  0  0  0  0  0
   11.4420    8.5000   -7.4010 C   0  0  1  0  0  0  0  0  0  0  0  0
    9.9190    8.5210   -7.2880 C   0  0  0  0  0  0  0  0  0  0  0  0
   10.7100    9.0450   -6.4030 C   0  0  1  0  0  0  0  0  0  0  0  0
   11.5060    9.3590   -5.2950 C   0  0  0  0  0  0  0  0  0  0  0  0
   11.9400    8.6850   -4.1730 C   0  0  0  0  0  0  0  0  0  0  0  0
   12.6210    9.1630   -3.0820 C   0  0  0  0  0  0  0  0  0  0  0  0
   12.7330    8.4140   -1.9870 C   0  0  0  0  0  0  0  0  0  0  0  0
   12.3990    7.0770   -2.0110 C   0  0  0  0  0  0  0  0  0  0  0  0
   11.8920    6.5020   -3.1860 C   0  0  0  0  0  0  0  0  0  0  0  0
   11.6740    7.3220   -4.1530 C   0  0  0  0  0  0  0  0  0  0  0  0
    8.9651    4.6298   -7.3484 H   0  0  0  0  0  0  0  0  0  0  0  0
    8.0559    4.4139   -8.8825 H   0  0  0  0  0  0  0  0  0  0  0  0
    9.8502    4.3298   -8.8825 H   0  0  0  0  0  0  0  0  0  0  0  0
    8.2813    6.5138   -9.4231 H   0  0  0  0  0  0  0  0  0  0  0  0
    8.8628    6.7530   -7.7116 H   0  0  0  0  0  0  0  0  0  0  0  0
   11.2245    6.0687   -9.6295 H   0  0  0  0  0  0  0  0  0  0  0  0
   10.7892    8.4722  -10.7101 H   0  0  0  0  0  0  0  0  0  0  0  0
    8.6910    8.4920   -9.6680 H   0  0  0  0  0  0  0  0  0  0  0  0
   10.3206    7.7033  -12.5569 H   0  0  0  0  0  0  0  0  0  0  0  0
   11.3804    6.4872  -11.5736 H   0  0  0  0  0  0  0  0  0  0  0  0
    8.6647    6.3740  -12.3372 H   0  0  0  0  0  0  0  0  0  0  0  0
   10.5280    5.3801  -12.5817 H   0  0  0  0  0  0  0  0  0  0  0  0
    9.7258    3.8846  -11.4467 H   0  0  0  0  0  0  0  0  0  0  0  0
    7.2663    3.3525  -12.1375 H   0  0  0  0  0  0  0  0  0  0  0  0
    7.8475    5.7887  -15.5640 H   0  0  0  0  0  0  0  0  0  0  0  0
    6.2865    5.0802  -15.7518 H   0  0  0  0  0  0  0  0  0  0  0  0
    6.9843    7.8288  -15.1362 H   0  0  0  0  0  0  0  0  0  0  0  0
    5.3075    7.0940  -15.2901 H   0  0  0  0  0  0  0  0  0  0  0  0
    6.6272    8.1501  -12.8682 H   0  0  0  0  0  0  0  0  0  0  0  0
    4.9578    7.6782  -13.0585 H   0  0  0  0  0  0  0  0  0  0  0  0
    6.4083    6.5964  -11.6800 H   0  0  0  0  0  0  0  0  0  0  0  0
    5.5034    3.9043  -12.4154 H   0  0  0  0  0  0  0  0  0  0  0  0
    4.7964    4.4004  -13.6982 H   0  0  0  0  0  0  0  0  0  0  0  0
   11.0074    6.2430   -7.2966 H   0  0  0  0  0  0  0  0  0  0  0  0
   13.4375    7.9381   -7.7403 H   0  0  0  0  0  0  0  0  0  0  0  0
   12.9087    8.4766   -9.0962 H   0  0  0  0  0  0  0  0  0  0  0  0
    9.3177    9.1615   -7.9500 H   0  0  0  0  0  0  0  0  0  0  0  0
    9.1084    7.7775   -7.2928 H   0  0  0  0  0  0  0  0  0  0  0  0
   10.1555    9.6908   -5.7062 H   0  0  0  0  0  0  0  0  0  0  0  0
   12.4485    9.6834   -5.7602 H   0  0  0  0  0  0  0  0  0  0  0  0
   10.7127    9.9092   -4.7678 H   0  0  0  0  0  0  0  0  0  0  0  0
   13.0743   10.1648   -3.1120 H   0  0  0  0  0  0  0  0  0  0  0  0
   13.0961    8.8672   -1.0528 H   0  0  0  0  0  0  0  0  0  0  0  0
   12.5299    6.4610   -1.1091 H   0  0  0  0  0  0  0  0  0  0  0  0
   11.6944    5.4235   -3.2744 H   0  0  0  0  0  0  0  0  0  0  0  0
   11.2279    6.8969   -5.0642 H   0  0  0  0  0  0  0  0  0  0  0  0
  1  2  1  0
  2  3  1  0
  3  4  1  0
  4  5  1  0
  4  6  1  0
  6  7  1  0
  7  8  1  0
  8  9  2  3
 10  9  1  1
 10 11  1  0
 11 12  1  0
 12 13  1  0
 13 14  1  0
 14 15  1  0
  3 16  1  0
 16 17  1  0
 18 17  1  6
 18 19  1  0
 19 20  1  0
 20 21  1  0
 21 22  1  0
 22 23  2  0
 23 24  1  0
 24 25  2  0
 25 26  1  0
 26 27  2  0
 14 10  1  0
 18 16  1  0
 27 22  1  0
 15 10  1  0
 20 18  1  0
  1 28  1  0
  1 29  1  0
  1 30  1  0
  2 31  1  0
  2 32  1  0
  3 33  1  6
  4 34  1  1
  5 35  1  0
  6 36  1  0
  6 37  1  0
  7 38  1  0
  7 39  1  0
  8 40  1  0
  9 41  1  0
 11 42  1  0
 11 43  1  0
 12 44  1  0
 12 45  1  0
 13 46  1  0
 13 47  1  0
 14 48  1  1
 15 49  1  0
 15 50  1  0
 16 51  1  1
 17 52  1  0
 17 53  1  0
 19 54  1  0
 19 55  1  0
 20 56  1  6
 21 57  1  0
 21 58  1  0
 23 59  1  0
 24 60  1  0
 25 61  1  0
 26 62  1  0
 27 63  1  0
M  END

>  <ID>
DiffSBDD_7_num_sample_50

>  <docking_score>
-10.12

$$$$
DiffSBDD_8_num_sample_50
     RDKit          3D

 64 69  0  0  0  0  0  0  0  0999 V2000
   12.8110    9.1420   -7.6190 O   0  0  0  0  0  0  0  0  0  0  0  0
   11.9150    8.3690   -7.5190 C   0  0  0  0  0  0  0  0  0  0  0  0
   11.6250    7.7630   -6.3220 N   0  0  0  0  0  0  0  0  0  0  0  0
   10.3390    7.1860   -6.4290 C   0  0  1  0  0  0  0  0  0  0  0  0
    9.8790    8.3830   -6.4980 O   0  0  0  0  0  0  0  0  0  0  0  0
   10.2670    6.9630   -8.0460 C   0  0  2  0  0  0  0  0  0  0  0  0
    9.4150    6.1490   -8.6010 C   0  0  2  0  0  0  0  0  0  0  0  0
    8.6110    5.0590   -8.7500 C   0  0  0  0  0  0  0  0  0  0  0  0
    8.5140    4.8140  -10.1180 C   0  0  2  0  0  0  0  0  0  0  0  0
    8.6400    4.1150  -11.3360 C   0  0  0  0  0  0  0  0  0  0  0  0
    7.4590    3.7240  -12.1490 C   0  0  0  0  0  0  0  0  0  0  0  0
    7.8810    4.0630  -13.5210 C   0  0  0  0  0  0  0  0  0  0  0  0
    8.2400    4.8660  -14.4130 C   0  0  0  0  0  0  0  0  0  0  0  0
    8.2760    4.6070  -15.7930 C   0  0  0  0  0  0  0  0  0  0  0  0
    7.5580    3.4340  -16.1490 C   0  0  0  0  0  0  0  0  0  0  0  0
    7.4330    2.2670  -15.5820 N   0  0  0  0  0  0  0  0  0  0  0  0
    6.7520    0.7960  -15.5430 C   0  0  1  0  0  0  0  0  0  0  0  0
    5.4860    0.9120  -14.8100 O   0  0  0  0  0  0  0  0  0  0  0  0
    6.2910    0.3910  -16.8830 C   0  0  2  0  0  0  0  0  0  0  0  0
    5.6850    1.4330  -17.4140 F   0  0  0  0  0  0  0  0  0  0  0  0
    5.4180   -0.8020  -16.7220 O   0  0  0  0  0  0  0  0  0  0  0  0
    5.9870   -1.8570  -17.2080 C   0  0  0  0  0  0  0  0  0  0  0  0
    5.4800   -3.0810  -17.3980 N   0  0  0  0  0  0  0  0  0  0  0  0
    4.4200   -3.3930  -17.5610 O   0  0  0  0  0  0  0  0  0  0  0  0
    6.2560   -4.0470  -16.7670 O   0  0  0  0  0  0  0  0  0  0  0  0
    7.1620   -1.5740  -17.5190 N   0  0  0  0  0  0  0  0  0  0  0  0
    7.5630   -0.0230  -17.5880 C   0  0  0  0  0  0  0  0  0  0  0  0
    8.1910    0.6400  -18.7870 C   0  0  0  0  0  0  0  0  0  0  0  0
    9.0800    0.1580  -17.7510 C   0  0  0  0  0  0  0  0  0  0  0  0
    7.6850    2.7260  -14.3170 C   0  0  0  0  0  0  0  0  0  0  0  0
    7.8470    1.2950  -13.3170 O   0  0  0  0  0  0  0  0  0  0  0  0
    9.4850    6.2100  -10.1720 C   0  0  1  0  0  0  0  0  0  0  0  0
    9.9530    7.5020  -10.5360 C   0  0  0  0  0  0  0  0  0  0  0  0
   11.0110    8.0840   -9.9750 C   0  0  0  0  0  0  0  0  0  0  0  0
   11.5030    7.6280   -8.8100 C   0  0  1  0  0  0  0  0  0  0  0  0
   12.2360    7.7340   -5.4930 H   0  0  0  0  0  0  0  0  0  0  0  0
    9.9956    6.3715   -5.7743 H   0  0  0  0  0  0  0  0  0  0  0  0
    9.1880    8.4300   -7.2040 H   0  0  0  0  0  0  0  0  0  0  0  0
    9.3596    7.3646   -8.5206 H   0  0  0  0  0  0  0  0  0  0  0  0
    9.2452    6.3620   -7.5353 H   0  0  0  0  0  0  0  0  0  0  0  0
    9.0527    4.1901   -8.2401 H   0  0  0  0  0  0  0  0  0  0  0  0
    7.6188    5.2374   -8.3098 H   0  0  0  0  0  0  0  0  0  0  0  0
    7.6112    4.1946  -10.2248 H   0  0  0  0  0  0  0  0  0  0  0  0
    9.2669    4.7423  -11.9868 H   0  0  0  0  0  0  0  0  0  0  0  0
    9.0218    3.1390  -11.0019 H   0  0  0  0  0  0  0  0  0  0  0  0
    7.2503    2.6483  -12.0529 H   0  0  0  0  0  0  0  0  0  0  0  0
    6.5315    4.2289  -11.8411 H   0  0  0  0  0  0  0  0  0  0  0  0
    8.5565    5.8671  -14.0849 H   0  0  0  0  0  0  0  0  0  0  0  0
    7.8355    5.4640  -16.3236 H   0  0  0  0  0  0  0  0  0  0  0  0
    9.3278    4.4514  -16.0748 H   0  0  0  0  0  0  0  0  0  0  0  0
    6.5199    3.7874  -16.2356 H   0  0  0  0  0  0  0  0  0  0  0  0
    8.2520    3.1071  -16.9374 H   0  0  0  0  0  0  0  0  0  0  0  0
    7.4909    0.1002  -15.1188 H   0  0  0  0  0  0  0  0  0  0  0  0
    5.1560    0.0090  -14.5750 H   0  0  0  0  0  0  0  0  0  0  0  0
    8.1681    0.1316  -19.7622 H   0  0  0  0  0  0  0  0  0  0  0  0
    8.0518    1.6137  -19.2794 H   0  0  0  0  0  0  0  0  0  0  0  0
    9.7194   -0.7168  -17.9404 H   0  0  0  0  0  0  0  0  0  0  0  0
    9.8758    0.6106  -17.1412 H   0  0  0  0  0  0  0  0  0  0  0  0
    9.8656    6.1440  -11.2020 H   0  0  0  0  0  0  0  0  0  0  0  0
   10.1737    7.4499  -11.6124 H   0  0  0  0  0  0  0  0  0  0  0  0
    9.1358    8.1389  -10.1665 H   0  0  0  0  0  0  0  0  0  0  0  0
   11.8292    8.0237  -10.7077 H   0  0  0  0  0  0  0  0  0  0  0  0
   10.6324    9.0822   -9.7097 H   0  0  0  0  0  0  0  0  0  0  0  0
   12.4085    7.2100   -9.2742 H   0  0  0  0  0  0  0  0  0  0  0  0
  1  2  2  0
  2  3  1  0
  3  4  1  0
  4  5  1  0
  4  6  1  0
  6  7  1  0
  7  8  1  0
  8  9  1  0
  9 10  1  0
 10 11  1  0
 11 12  1  0
 12 13  2  0
 13 14  1  0
 14 15  1  0
 15 16  1  0
 16 17  1  0
 17 18  1  0
 17 19  1  0
 19 20  1  6
 19 21  1  0
 21 22  1  0
 22 23  1  0
 23 24  2  0
 23 25  1  0
 22 26  2  0
 26 27  1  0
 27 28  1  0
 28 29  1  0
 16 30  1  0
 30 31  2  0
  9 32  1  0
 32 33  1  0
 33 34  1  0
 34 35  1  0
 35  2  1  0
 35  6  1  0
 32  7  1  0
 30 12  1  0
 27 19  1  0
 29 27  1  0
  3 36  1  0
  4 37  1  1
  5 38  1  0
  6 39  1  6
  7 40  1  6
  8 41  1  0
  8 42  1  0
  9 43  1  6
 10 44  1  0
 10 45  1  0
 11 46  1  0
 11 47  1  0
 13 48  1  0
 14 49  1  0
 14 50  1  0
 15 51  1  0
 15 52  1  0
 17 53  1  1
 18 54  1  0
 28 55  1  0
 28 56  1  0
 29 57  1  0
 29 58  1  0
 32 59  1  1
 33 60  1  0
 33 61  1  0
 34 62  1  0
 34 63  1  0
 35 64  1  6
M  CHG  2  23   1  25  -1
M  END

>  <ID>
DiffSBDD_8_num_sample_50

>  <docking_score>
-10.56

$$$$
DiffSBDD_9_num_sample_50
     RDKit          3D

 38 40  0  0  0  0  0  0  0  0999 V2000
   12.4270    8.0660   -9.7460 C   0  0  0  0  0  0  0  0  0  0  0  0
   11.1560    7.8700   -9.4380 C   0  0  0  0  0  0  0  0  0  0  0  0
   10.1810    7.0060   -9.9400 C   0  0  0  0  0  0  0  0  0  0  0  0
    9.6140    6.6880  -11.2380 C   0  0  0  0  0  0  0  0  0  0  0  0
    8.5440    5.5870  -11.4540 C   0  0  0  0  0  0  0  0  0  0  0  0
    8.6680    4.4440  -12.5760 C   0  0  0  0  0  0  0  0  0  0  0  0
    8.1550    4.9160  -10.1840 C   0  0  0  0  0  0  0  0  0  0  0  0
    8.4820    5.5190   -8.8730 C   0  0  0  0  0  0  0  0  0  0  0  0
    9.5570    6.4870   -8.7770 C   0  0  0  0  0  0  0  0  0  0  0  0
   10.1420    7.3250   -7.5190 C   0  0  1  0  0  0  0  0  0  0  0  0
   10.7950    6.6610   -6.2360 S   0  0  0  0  0  0  0  0  0  0  0  0
   11.2000    8.0970   -5.2040 C   0  0  1  0  0  0  0  0  0  0  0  0
   12.1090    7.6110   -4.2610 O   0  0  0  0  0  0  0  0  0  0  0  0
   12.4610    8.4120   -3.1050 C   0  0  0  0  0  0  0  0  0  0  0  0
   11.6600    9.4240   -2.7700 F   0  0  0  0  0  0  0  0  0  0  0  0
   13.7340    8.9470   -3.3850 F   0  0  0  0  0  0  0  0  0  0  0  0
   12.4040    7.4120   -1.9650 C   0  0  0  0  0  0  0  0  0  0  0  0
   12.8510    6.2390   -2.4400 F   0  0  0  0  0  0  0  0  0  0  0  0
   13.0830    8.1270   -1.0270 F   0  0  0  0  0  0  0  0  0  0  0  0
   11.0870    7.2120   -1.6370 F   0  0  0  0  0  0  0  0  0  0  0  0
   11.5540    9.3270   -5.8830 C   0  0  0  0  0  0  0  0  0  0  0  0
   11.5180    9.2690   -7.4290 C   0  0  0  0  0  0  0  0  0  0  0  0
   10.6680    8.4680   -8.2250 C   0  0  1  0  0  0  0  0  0  0  0  0
   13.0148    8.8201   -9.2021 H   0  0  0  0  0  0  0  0  0  0  0  0
   12.8965    7.4749  -10.5461 H   0  0  0  0  0  0  0  0  0  0  0  0
    9.9612    7.2572  -12.1129 H   0  0  0  0  0  0  0  0  0  0  0  0
    8.7744    3.4630  -12.0899 H   0  0  0  0  0  0  0  0  0  0  0  0
    7.7643    4.4463  -13.2032 H   0  0  0  0  0  0  0  0  0  0  0  0
    9.5501    4.6400  -13.2032 H   0  0  0  0  0  0  0  0  0  0  0  0
    7.6164    3.9576  -10.2204 H   0  0  0  0  0  0  0  0  0  0  0  0
    7.9125    5.2344   -7.9760 H   0  0  0  0  0  0  0  0  0  0  0  0
    9.4206    7.5744   -6.7269 H   0  0  0  0  0  0  0  0  0  0  0  0
   10.2953    8.4883   -4.7158 H   0  0  0  0  0  0  0  0  0  0  0  0
   10.8518   10.1083   -5.5568 H   0  0  0  0  0  0  0  0  0  0  0  0
   12.6007    9.5305   -5.6128 H   0  0  0  0  0  0  0  0  0  0  0  0
   11.3167   10.3023   -7.7481 H   0  0  0  0  0  0  0  0  0  0  0  0
   12.4729    8.7545   -7.6118 H   0  0  0  0  0  0  0  0  0  0  0  0
    9.9536    9.2633   -8.4839 H   0  0  0  0  0  0  0  0  0  0  0  0
  1  2  2  0
  2  3  1  0
  3  4  2  0
  4  5  1  0
  5  6  1  0
  5  7  2  0
  7  8  1  0
  8  9  2  0
  9 10  1  0
 10 11  1  0
 11 12  1  0
 12 13  1  0
 13 14  1  0
 14 15  1  0
 14 16  1  0
 14 17  1  0
 17 18  1  0
 17 19  1  0
 17 20  1  0
 12 21  1  0
 21 22  1  0
 22 23  1  0
 23  2  1  0
  9  3  1  0
 23 10  1  0
  1 24  1  0
  1 25  1  0
  4 26  1  0
  6 27  1  0
  6 28  1  0
  6 29  1  0
  7 30  1  0
  8 31  1  0
 10 32  1  1
 12 33  1  1
 21 34  1  0
 21 35  1  0
 22 36  1  0
 22 37  1  0
 23 38  1  6
M  END

>  <ID>
DiffSBDD_9_num_sample_50

>  <docking_score>
-10.609

$$$$
