DiffSBDD_0_num_sample_50
     RDKit          3D

 65 69  0  0  0  0  0  0  0  0999 V2000
   36.8530   24.5160   55.5690 C   0  0  0  0  0  0  0  0  0  0  0  0
   37.9460   25.1150   56.4370 C   0  0  0  0  0  0  0  0  0  0  0  0
   38.2960   24.1230   57.5040 C   0  0  0  0  0  0  0  0  0  0  0  0
   37.5900   26.4310   57.1000 C   0  0  0  0  0  0  0  0  0  0  0  0
   38.2720   27.8360   56.8790 N   0  0  0  0  0  0  0  0  0  0  0  0
   37.8660   28.7990   55.9430 C   0  0  0  0  0  0  0  0  0  0  0  0
   37.1880   29.8270   56.1760 O   0  0  0  0  0  0  0  0  0  0  0  0
   38.4880   28.8220   54.5170 C   0  0  0  0  0  0  0  0  0  0  0  0
   39.1350   29.8710   53.8340 C   0  0  0  0  0  0  0  0  0  0  0  0
   39.5600   29.6600   52.4920 C   0  0  0  0  0  0  0  0  0  0  0  0
   40.2380   30.4200   51.3870 C   0  0  0  0  0  0  0  0  0  0  0  0
   40.2550   29.4100   50.2150 C   0  0  0  0  0  0  0  0  0  0  0  0
   39.6340   28.1320   50.6640 C   0  0  0  0  0  0  0  0  0  0  0  0
   39.2560   28.3390   52.1350 C   0  0  2  0  0  0  0  0  0  0  0  0
   38.3000   27.4680   53.4370 S   0  0  0  0  0  0  0  0  0  0  0  0
   39.5260   28.1160   57.6500 C   0  0  2  0  0  0  0  0  0  0  0  0
   40.9710   28.1240   58.1380 C   0  0  0  0  0  0  0  0  0  0  0  0
   41.6730   27.1510   57.4330 O   0  0  0  0  0  0  0  0  0  0  0  0
   41.3020   28.8180   59.0350 O   0  0  0  0  0  0  0  0  0  0  0  0
   38.7500   28.5560   58.9180 C   0  0  1  0  0  0  0  0  0  0  0  0
   38.7130   29.5720   60.1240 C   0  0  0  0  0  0  0  0  0  0  0  0
   38.6910   30.3930   61.2840 C   0  0  0  0  0  0  0  0  0  0  0  0
   37.6940   31.6120   60.9590 C   0  0  0  0  0  0  0  0  0  0  0  0
   38.4980   32.3460   59.8840 C   0  0  2  0  0  0  0  0  0  0  0  0
   38.2320   33.7780   59.5980 C   0  0  0  0  0  0  0  0  0  0  0  0
   38.8360   34.9100   60.4240 C   0  0  0  0  0  0  0  0  0  0  0  0
   40.1240   35.0240   60.9360 C   0  0  0  0  0  0  0  0  0  0  0  0
   40.4940   36.0770   61.8330 C   0  0  0  0  0  0  0  0  0  0  0  0
   39.5310   37.0910   62.0780 C   0  0  0  0  0  0  0  0  0  0  0  0
   39.8390   38.0440   62.9280 F   0  0  0  0  0  0  0  0  0  0  0  0
   38.3200   37.0280   61.5150 C   0  0  0  0  0  0  0  0  0  0  0  0
   37.9220   35.9910   60.6600 C   0  0  0  0  0  0  0  0  0  0  0  0
   38.5620   31.5140   58.5640 C   0  0  0  0  0  0  0  0  0  0  0  0
   38.4250   30.0230   58.7740 N   0  0  1  0  0  0  0  0  0  0  0  0
   36.0694   24.0866   56.2105 H   0  0  0  0  0  0  0  0  0  0  0  0
   36.4174   25.3014   54.9339 H   0  0  0  0  0  0  0  0  0  0  0  0
   37.2807   23.7262   54.9339 H   0  0  0  0  0  0  0  0  0  0  0  0
   38.7869   25.3347   55.7628 H   0  0  0  0  0  0  0  0  0  0  0  0
   38.1359   24.5767   58.4932 H   0  0  0  0  0  0  0  0  0  0  0  0
   37.6575   23.2332   57.4011 H   0  0  0  0  0  0  0  0  0  0  0  0
   39.3515   23.8308   57.4011 H   0  0  0  0  0  0  0  0  0  0  0  0
   36.5303   26.5918   56.8527 H   0  0  0  0  0  0  0  0  0  0  0  0
   37.9637   26.2179   58.1124 H   0  0  0  0  0  0  0  0  0  0  0  0
   39.3088   30.8374   54.3299 H   0  0  0  0  0  0  0  0  0  0  0  0
   40.6286   31.4481   51.4067 H   0  0  0  0  0  0  0  0  0  0  0  0
   40.6606   29.6042   49.2111 H   0  0  0  0  0  0  0  0  0  0  0  0
   39.4785   27.2245   50.0621 H   0  0  0  0  0  0  0  0  0  0  0  0
   39.4432   27.2551   52.1203 H   0  0  0  0  0  0  0  0  0  0  0  0
   40.1039   27.9646   56.7264 H   0  0  0  0  0  0  0  0  0  0  0  0
   38.5392   27.4831   59.0378 H   0  0  0  0  0  0  0  0  0  0  0  0
   37.6181   29.4768   60.1706 H   0  0  0  0  0  0  0  0  0  0  0  0
   38.3229   29.8206   62.1482 H   0  0  0  0  0  0  0  0  0  0  0  0
   39.6984   30.7576   61.5335 H   0  0  0  0  0  0  0  0  0  0  0  0
   36.7281   31.2553   60.5719 H   0  0  0  0  0  0  0  0  0  0  0  0
   37.4210   32.2271   61.8291 H   0  0  0  0  0  0  0  0  0  0  0  0
   39.4778   32.4165   60.3790 H   0  0  0  0  0  0  0  0  0  0  0  0
   38.5611   33.9478   58.5622 H   0  0  0  0  0  0  0  0  0  0  0  0
   37.1649   33.8617   59.8515 H   0  0  0  0  0  0  0  0  0  0  0  0
   40.8818   34.2825   60.6429 H   0  0  0  0  0  0  0  0  0  0  0  0
   41.4837   36.0994   62.3126 H   0  0  0  0  0  0  0  0  0  0  0  0
   37.5998   37.8302   61.7337 H   0  0  0  0  0  0  0  0  0  0  0  0
   36.9319   36.0054   60.1809 H   0  0  0  0  0  0  0  0  0  0  0  0
   37.7474   31.8474   57.9043 H   0  0  0  0  0  0  0  0  0  0  0  0
   39.5563   31.6853   58.1258 H   0  0  0  0  0  0  0  0  0  0  0  0
   37.9350   30.3110   57.9140 H   0  0  0  0  0  0  0  0  0  0  0  0
  1  2  1  0
  2  3  1  0
  2  4  1  0
  4  5  1  0
  5  6  1  0
  6  7  2  0
  6  8  1  0
  8  9  2  0
  9 10  1  0
 10 11  2  0
 11 12  1  0
 12 13  2  0
 13 14  1  0
 14 15  1  0
  5 16  1  0
 16 17  1  0
 17 18  2  0
 17 19  1  0
 16 20  1  0
 20 21  1  0
 21 22  1  0
 22 23  1  0
 23 24  1  0
 24 25  1  0
 25 26  1  0
 26 27  2  0
 27 28  1  0
 28 29  2  0
 29 30  1  0
 29 31  1  0
 31 32  2  0
 24 33  1  0
 33 34  1  0
 15  8  1  0
 34 20  1  0
 14 10  1  0
 34 21  1  0
 32 26  1  0
  1 35  1  0
  1 36  1  0
  1 37  1  0
  2 38  1  0
  3 39  1  0
  3 40  1  0
  3 41  1  0
  4 42  1  0
  4 43  1  0
  9 44  1  0
 11 45  1  0
 12 46  1  0
 13 47  1  0
 14 48  1  1
 16 49  1  6
 20 50  1  1
 21 51  1  0
 22 52  1  0
 22 53  1  0
 23 54  1  0
 23 55  1  0
 24 56  1  1
 25 57  1  0
 25 58  1  0
 27 59  1  0
 28 60  1  0
 31 61  1  0
 32 62  1  0
 33 63  1  0
 33 64  1  0
 34 65  1  1
M  CHG  2  19  -1  34   1
M  END

>  <ID>
DiffSBDD_0_num_sample_50

>  <docking_score>
-11.287

$$$$
DiffSBDD_10_num_sample_50
     RDKit          3D

 64 66  0  0  0  0  0  0  0  0999 V2000
   39.5850   28.1720   50.7800 C   0  0  0  0  0  0  0  0  0  0  0  0
   38.5720   28.2400   51.8860 C   0  0  0  0  0  0  0  0  0  0  0  0
   39.1740   28.6040   53.2110 C   0  0  1  0  0  0  0  0  0  0  0  0
   39.7320   30.0860   53.1380 C   0  0  0  0  0  0  0  0  0  0  0  0
   39.4370   30.8150   54.4830 C   0  0  0  0  0  0  0  0  0  0  0  0
   37.9300   30.8120   54.8160 C   0  0  2  0  0  0  0  0  0  0  0  0
   37.5560   32.0050   55.5930 N   0  0  0  0  0  0  0  0  0  0  0  0
   38.4320   32.6460   56.3800 C   0  0  0  0  0  0  0  0  0  0  0  0
   39.5470   32.8570   55.9180 O   0  0  0  0  0  0  0  0  0  0  0  0
   38.1590   33.3130   57.6160 N   0  0  0  0  0  0  0  0  0  0  0  0
   37.5860   33.6150   58.8540 C   0  0  0  0  0  0  0  0  0  0  0  0
   38.4410   33.6570   60.0950 C   0  0  1  0  0  0  0  0  0  0  0  0
   38.5630   34.9060   60.7410 C   0  0  0  0  0  0  0  0  0  0  0  0
   37.4800   35.7500   61.0010 C   0  0  0  0  0  0  0  0  0  0  0  0
   37.5710   36.9450   61.7580 C   0  0  0  0  0  0  0  0  0  0  0  0
   36.4470   38.0050   62.0870 C   0  0  0  0  0  0  0  0  0  0  0  0
   38.8290   37.3070   62.3840 C   0  0  0  0  0  0  0  0  0  0  0  0
   39.8970   36.5040   62.1030 C   0  0  0  0  0  0  0  0  0  0  0  0
   39.9620   35.4450   61.1700 C   0  0  0  0  0  0  0  0  0  0  0  0
   41.3800   35.1570   61.0930 N   0  0  0  0  0  0  0  0  0  0  0  0
   38.8710   32.1000   60.8340 P   0  0  0  0  0  0  0  0  0  0  0  0
   37.9370   31.9580   61.9200 O   0  0  0  0  0  0  0  0  0  0  0  0
   40.2740   32.0710   61.3050 O   0  0  0  0  0  0  0  0  0  0  0  0
   38.7750   31.1950   59.6360 O   0  0  0  0  0  0  0  0  0  0  0  0
   37.2560   29.3900   54.7380 C   0  0  0  0  0  0  0  0  0  0  0  0
   38.3150   28.3630   54.3650 N   0  0  0  0  0  0  0  0  0  0  0  0
   38.4000   27.2610   55.1960 C   0  0  0  0  0  0  0  0  0  0  0  0
   39.2610   27.3030   56.3440 C   0  0  0  0  0  0  0  0  0  0  0  0
   39.3360   26.0850   57.1210 C   0  0  0  0  0  0  0  0  0  0  0  0
   38.5430   25.0240   56.7200 C   0  0  0  0  0  0  0  0  0  0  0  0
   38.7110   23.8910   57.4490 F   0  0  0  0  0  0  0  0  0  0  0  0
   37.7150   24.9440   55.6020 C   0  0  0  0  0  0  0  0  0  0  0  0
   37.5590   26.1720   54.8520 C   0  0  0  0  0  0  0  0  0  0  0  0
   36.6740   26.1390   53.8430 O   0  0  0  0  0  0  0  0  0  0  0  0
   40.5947   28.1042   51.2112 H   0  0  0  0  0  0  0  0  0  0  0  0
   39.3911   27.2848   50.1592 H   0  0  0  0  0  0  0  0  0  0  0  0
   39.5114   29.0771   50.1592 H   0  0  0  0  0  0  0  0  0  0  0  0
   37.8175   28.9964   51.6242 H   0  0  0  0  0  0  0  0  0  0  0  0
   38.1303   27.2379   51.9896 H   0  0  0  0  0  0  0  0  0  0  0  0
   40.0106   27.9131   53.3921 H   0  0  0  0  0  0  0  0  0  0  0  0
   40.8179   30.0615   52.9640 H   0  0  0  0  0  0  0  0  0  0  0  0
   39.2422   30.6236   52.3127 H   0  0  0  0  0  0  0  0  0  0  0  0
   39.9816   30.3054   55.2915 H   0  0  0  0  0  0  0  0  0  0  0  0
   39.7642   31.8606   54.3850 H   0  0  0  0  0  0  0  0  0  0  0  0
   37.1295   31.0569   54.1025 H   0  0  0  0  0  0  0  0  0  0  0  0
   36.5900   32.3590   55.5300 H   0  0  0  0  0  0  0  0  0  0  0  0
   38.8370   34.0850   57.5470 H   0  0  0  0  0  0  0  0  0  0  0  0
   37.1228   34.6078   58.7548 H   0  0  0  0  0  0  0  0  0  0  0  0
   36.9196   32.7592   59.0374 H   0  0  0  0  0  0  0  0  0  0  0  0
   39.5137   33.7446   59.8677 H   0  0  0  0  0  0  0  0  0  0  0  0
   36.4973   35.4701   60.5935 H   0  0  0  0  0  0  0  0  0  0  0  0
   36.3432   38.1028   63.1777 H   0  0  0  0  0  0  0  0  0  0  0  0
   36.7237   38.9786   61.6562 H   0  0  0  0  0  0  0  0  0  0  0  0
   35.4913   37.6717   61.6562 H   0  0  0  0  0  0  0  0  0  0  0  0
   38.9173   38.1796   63.0479 H   0  0  0  0  0  0  0  0  0  0  0  0
   40.8171   36.7058   62.6711 H   0  0  0  0  0  0  0  0  0  0  0  0
   42.0570   35.9260   60.9910 H   0  0  0  0  0  0  0  0  0  0  0  0
   41.7110   34.1820   61.1400 H   0  0  0  0  0  0  0  0  0  0  0  0
   36.8207   29.1335   55.7151 H   0  0  0  0  0  0  0  0  0  0  0  0
   36.4591   29.3961   53.9798 H   0  0  0  0  0  0  0  0  0  0  0  0
   39.8284   28.2053   56.6159 H   0  0  0  0  0  0  0  0  0  0  0  0
   39.9974   26.0053   57.9963 H   0  0  0  0  0  0  0  0  0  0  0  0
   37.2134   24.0099   55.3090 H   0  0  0  0  0  0  0  0  0  0  0  0
   35.7210   25.9440   54.0280 H   0  0  0  0  0  0  0  0  0  0  0  0
  1  2  1  0
  2  3  1  0
  3  4  1  0
  4  5  1  0
  5  6  1  0
  6  7  1  0
  7  8  1  0
  8  9  2  0
  8 10  1  0
 10 11  1  0
 11 12  1  0
 12 13  1  0
 13 14  2  0
 14 15  1  0
 15 16  1  0
 15 17  2  0
 17 18  1  0
 18 19  2  0
 19 20  1  0
 12 21  1  0
 21 22  2  0
 21 23  1  0
 21 24  1  0
  6 25  1  0
 25 26  1  0
 26 27  1  0
 27 28  2  0
 28 29  1  0
 29 30  2  0
 30 31  1  0
 30 32  1  0
 32 33  2  0
 33 34  1  0
 26  3  1  0
 33 27  1  0
 19 13  1  0
  1 35  1  0
  1 36  1  0
  1 37  1  0
  2 38  1  0
  2 39  1  0
  3 40  1  1
  4 41  1  0
  4 42  1  0
  5 43  1  0
  5 44  1  0
  6 45  1  6
  7 46  1  0
 10 47  1  0
 11 48  1  0
 11 49  1  0
 12 50  1  6
 14 51  1  0
 16 52  1  0
 16 53  1  0
 16 54  1  0
 17 55  1  0
 18 56  1  0
 20 57  1  0
 20 58  1  0
 25 59  1  0
 25 60  1  0
 28 61  1  0
 29 62  1  0
 32 63  1  0
 34 64  1  0
M  CHG  2  23  -1  24  -1
M  END

>  <ID>
DiffSBDD_10_num_sample_50

>  <docking_score>
-11.382

$$$$
DiffSBDD_11_num_sample_50
     RDKit          3D

 37 39  0  0  0  0  0  0  0  0999 V2000
   39.8060   28.3260   50.7400 C   0  0  0  0  0  0  0  0  0  0  0  0
   38.7320   27.5000   51.4280 C   0  0  0  0  0  0  0  0  0  0  0  0
   38.2520   28.2240   52.5510 N   0  0  0  0  0  0  0  0  0  0  0  0
   38.5310   28.9110   53.8270 C   0  0  2  0  0  0  0  0  0  0  0  0
   39.3910   30.1360   53.9770 C   0  0  0  0  0  0  0  0  0  0  0  0
   39.1240   27.6590   54.4820 C   0  0  0  0  0  0  0  0  0  0  0  0
   38.7160   27.2090   55.6400 C   0  0  1  0  0  0  0  0  0  0  0  0
   37.8510   26.0930   55.7590 N   0  0  0  0  0  0  0  0  0  0  0  0
   37.2680   25.7380   54.6230 O   0  0  0  0  0  0  0  0  0  0  0  0
   37.1880   25.6070   56.8730 O   0  0  0  0  0  0  0  0  0  0  0  0
   39.7380   26.7760   56.8890 C   0  0  2  0  0  0  0  0  0  0  0  0
   39.8260   25.4510   57.4520 O   0  0  0  0  0  0  0  0  0  0  0  0
   39.9600   27.9560   57.9870 C   0  0  2  0  0  0  0  0  0  0  0  0
   39.0430   27.3490   59.2120 C   0  0  0  0  0  0  0  0  0  0  0  0
   41.4490   27.7030   58.6680 C   0  0  1  0  0  0  0  0  0  0  0  0
   41.3640   28.5320   59.5440 O   0  0  0  0  0  0  0  0  0  0  0  0
   42.3430   27.7230   57.5610 O   0  0  0  0  0  0  0  0  0  0  0  0
   40.8670   27.5320   57.0720 C   0  0  2  0  0  0  0  0  0  0  0  0
   40.4374   28.8116   51.4987 H   0  0  0  0  0  0  0  0  0  0  0  0
   40.4266   27.6702   50.1116 H   0  0  0  0  0  0  0  0  0  0  0  0
   39.3315   29.0941   50.1116 H   0  0  0  0  0  0  0  0  0  0  0  0
   37.9048   27.3112   50.7280 H   0  0  0  0  0  0  0  0  0  0  0  0
   39.1508   26.5364   51.7538 H   0  0  0  0  0  0  0  0  0  0  0  0
   37.7830   28.9950   52.0550 H   0  0  0  0  0  0  0  0  0  0  0  0
   38.1620   27.3360   53.0660 H   0  0  0  0  0  0  0  0  0  0  0  0
   37.6509   29.4463   54.2129 H   0  0  0  0  0  0  0  0  0  0  0  0
   39.5412   30.3500   55.0455 H   0  0  0  0  0  0  0  0  0  0  0  0
   40.3654   29.9609   53.4976 H   0  0  0  0  0  0  0  0  0  0  0  0
   38.8953   30.9930   53.4976 H   0  0  0  0  0  0  0  0  0  0  0  0
   38.9717   26.8386   53.7652 H   0  0  0  0  0  0  0  0  0  0  0  0
   40.1455   27.9919   54.7180 H   0  0  0  0  0  0  0  0  0  0  0  0
   38.2692   28.2112   55.7172 H   0  0  0  0  0  0  0  0  0  0  0  0
   38.9140   25.1050   57.6260 H   0  0  0  0  0  0  0  0  0  0  0  0
   39.4823   27.6398   60.1777 H   0  0  0  0  0  0  0  0  0  0  0  0
   38.0212   27.7497   59.1385 H   0  0  0  0  0  0  0  0  0  0  0  0
   39.0127   26.2519   59.1385 H   0  0  0  0  0  0  0  0  0  0  0  0
   42.2630   28.8910   59.7470 H   0  0  0  0  0  0  0  0  0  0  0  0
  1  2  1  0
  2  3  1  0
  3  4  1  0
  4  5  1  0
  4  6  1  0
  6  7  1  0
  7  8  1  0
  8  9  2  0
  8 10  1  0
  7 11  1  0
 11 12  1  1
 11 13  1  0
 13 14  1  1
 13 15  1  0
 15 16  1  6
 15 17  1  0
 18 17  1  6
 18 11  1  0
 18 13  1  0
 18 15  1  0
  1 19  1  0
  1 20  1  0
  1 21  1  0
  2 22  1  0
  2 23  1  0
  3 24  1  0
  3 25  1  0
  4 26  1  1
  5 27  1  0
  5 28  1  0
  5 29  1  0
  6 30  1  0
  6 31  1  0
  7 32  1  1
 12 33  1  0
 14 34  1  0
 14 35  1  0
 14 36  1  0
 16 37  1  0
M  CHG  3   3   1   8   1  10  -1
M  END

>  <ID>
DiffSBDD_11_num_sample_50

>  <docking_score>
-6.46

$$$$
DiffSBDD_12_num_sample_50
     RDKit          3D

 69 71  0  0  0  0  0  0  0  0999 V2000
   41.5740   32.0840   62.6710 C   0  0  0  0  0  0  0  0  0  0  0  0
   41.6850   30.7260   62.6700 O   0  0  0  0  0  0  0  0  0  0  0  0
   40.2780   30.4460   62.3030 C   0  0  0  0  0  0  0  0  0  0  0  0
   40.0400   30.5650   60.7910 C   0  0  2  0  0  0  0  0  0  0  0  0
   38.4400   30.7630   60.6450 C   0  0  0  0  0  0  0  0  0  0  0  0
   37.9300   32.1730   60.8410 N   0  0  0  0  0  0  0  0  0  0  0  0
   36.4510   31.9490   61.1560 C   0  0  0  0  0  0  0  0  0  0  0  0
   35.7980   33.0630   60.4990 C   0  0  0  0  0  0  0  0  0  0  0  0
   36.9070   34.0530   60.6160 C   0  0  0  0  0  0  0  0  0  0  0  0
   36.8620   35.1620   61.1870 O   0  0  0  0  0  0  0  0  0  0  0  0
   38.2600   33.2940   59.9590 C   0  0  0  0  0  0  0  0  0  0  0  0
   39.4200   34.1970   60.4060 C   0  0  0  0  0  0  0  0  0  0  0  0
   38.3220   33.0640   58.4420 C   0  0  0  0  0  0  0  0  0  0  0  0
   40.5440   29.5050   60.0480 O   0  0  0  0  0  0  0  0  0  0  0  0
   39.5830   29.3170   59.1440 C   0  0  0  0  0  0  0  0  0  0  0  0
   39.7950   28.4050   57.8790 C   0  0  0  0  0  0  0  0  0  0  0  0
   41.2300   27.7440   58.0640 N   0  0  0  0  0  0  0  0  0  0  0  0
   38.2740   28.2920   57.5320 C   0  0  0  0  0  0  0  0  0  0  0  0
   38.3310   28.5450   56.0100 N   0  0  0  0  0  0  0  0  0  0  0  0
   38.7850   29.5850   55.3590 N   0  0  0  0  0  0  0  0  0  0  0  0
   39.0090   29.3490   54.0400 C   0  0  0  0  0  0  0  0  0  0  0  0
   39.5580   30.4170   53.1840 C   0  0  0  0  0  0  0  0  0  0  0  0
   40.0530   30.5580   52.0220 C   0  0  0  0  0  0  0  0  0  0  0  0
   40.1960   29.7700   50.8960 C   0  0  0  0  0  0  0  0  0  0  0  0
   40.7520   30.3460   49.8030 F   0  0  0  0  0  0  0  0  0  0  0  0
   39.7490   28.5380   50.9180 C   0  0  0  0  0  0  0  0  0  0  0  0
   39.1990   28.0080   51.9090 C   0  0  0  0  0  0  0  0  0  0  0  0
   38.8360   28.4140   53.2290 C   0  0  0  0  0  0  0  0  0  0  0  0
   38.2440   27.4650   53.9010 N   0  0  0  0  0  0  0  0  0  0  0  0
   38.0240   27.5710   55.1330 C   0  0  0  0  0  0  0  0  0  0  0  0
   37.6000   26.5090   55.9550 N   0  0  0  0  0  0  0  0  0  0  0  0
   38.1340   25.1990   55.9240 C   0  0  0  0  0  0  0  0  0  0  0  0
   38.5140   24.4630   57.1360 C   0  0  0  0  0  0  0  0  0  0  0  0
   39.9610   24.8690   57.3270 O   0  0  0  0  0  0  0  0  0  0  0  0
   41.5442   32.4487   63.7084 H   0  0  0  0  0  0  0  0  0  0  0  0
   42.4393   32.5230   62.1527 H   0  0  0  0  0  0  0  0  0  0  0  0
   40.6489   32.3767   62.1527 H   0  0  0  0  0  0  0  0  0  0  0  0
   40.0249   29.4243   62.6224 H   0  0  0  0  0  0  0  0  0  0  0  0
   39.6428   31.1905   62.8052 H   0  0  0  0  0  0  0  0  0  0  0  0
   40.5960   31.4136   60.3659 H   0  0  0  0  0  0  0  0  0  0  0  0
   38.1505   30.4369   59.6351 H   0  0  0  0  0  0  0  0  0  0  0  0
   37.9907   30.1680   61.4538 H   0  0  0  0  0  0  0  0  0  0  0  0
   36.1016   30.9899   60.7460 H   0  0  0  0  0  0  0  0  0  0  0  0
   36.2428   31.9035   62.2351 H   0  0  0  0  0  0  0  0  0  0  0  0
   35.5475   32.8400   59.4514 H   0  0  0  0  0  0  0  0  0  0  0  0
   34.8297   33.3712   60.9202 H   0  0  0  0  0  0  0  0  0  0  0  0
   39.4587   34.2272   61.5049 H   0  0  0  0  0  0  0  0  0  0  0  0
   40.3676   33.7964   60.0166 H   0  0  0  0  0  0  0  0  0  0  0  0
   39.2642   35.2139   60.0166 H   0  0  0  0  0  0  0  0  0  0  0  0
   38.6035   32.0199   58.2407 H   0  0  0  0  0  0  0  0  0  0  0  0
   37.3363   33.2699   57.9993 H   0  0  0  0  0  0  0  0  0  0  0  0
   39.0707   33.7375   57.9993 H   0  0  0  0  0  0  0  0  0  0  0  0
   38.6122   29.8143   59.2863 H   0  0  0  0  0  0  0  0  0  0  0  0
   41.5310   26.9820   57.4390 H   0  0  0  0  0  0  0  0  0  0  0  0
   41.8580   28.0770   58.8080 H   0  0  0  0  0  0  0  0  0  0  0  0
   37.8743   27.2943   57.7660 H   0  0  0  0  0  0  0  0  0  0  0  0
   37.6175   28.9739   58.0923 H   0  0  0  0  0  0  0  0  0  0  0  0
   38.9570   30.4970   55.8050 H   0  0  0  0  0  0  0  0  0  0  0  0
   39.5309   31.3828   53.7098 H   0  0  0  0  0  0  0  0  0  0  0  0
   39.5023   31.4276   51.6340 H   0  0  0  0  0  0  0  0  0  0  0  0
   41.0910   30.4138   52.3562 H   0  0  0  0  0  0  0  0  0  0  0  0
   39.8647   27.9316   50.0075 H   0  0  0  0  0  0  0  0  0  0  0  0
   38.9248   26.9609   51.7132 H   0  0  0  0  0  0  0  0  0  0  0  0
   36.8450   26.7010   56.6300 H   0  0  0  0  0  0  0  0  0  0  0  0
   37.3831   24.5773   55.4145 H   0  0  0  0  0  0  0  0  0  0  0  0
   39.1136   25.3711   55.4541 H   0  0  0  0  0  0  0  0  0  0  0  0
   37.8989   24.7681   57.9954 H   0  0  0  0  0  0  0  0  0  0  0  0
   38.3715   23.3756   57.0511 H   0  0  0  0  0  0  0  0  0  0  0  0
   40.0020   25.7010   57.8610 H   0  0  0  0  0  0  0  0  0  0  0  0
  1  2  1  0
  2  3  1  0
  3  4  1  0
  4  5  1  0
  5  6  1  0
  6  7  1  0
  7  8  1  0
  8  9  1  0
  9 10  2  0
  9 11  1  0
 11 12  1  0
 11 13  1  0
  4 14  1  0
 14 15  1  0
 15 16  2  3
 16 17  1  0
 16 18  1  0
 18 19  1  0
 19 20  1  0
 20 21  1  0
 21 22  2  0
 22 23  1  0
 23 24  1  0
 24 25  1  0
 24 26  2  0
 26 27  1  0
 27 28  2  0
 28 29  1  0
 29 30  2  0
 30 31  1  0
 31 32  1  0
 32 33  1  0
 33 34  1  0
 11  6  1  0
 30 19  1  0
 28 21  1  0
  1 35  1  0
  1 36  1  0
  1 37  1  0
  3 38  1  0
  3 39  1  0
  4 40  1  6
  5 41  1  0
  5 42  1  0
  7 43  1  0
  7 44  1  0
  8 45  1  0
  8 46  1  0
 12 47  1  0
 12 48  1  0
 12 49  1  0
 13 50  1  0
 13 51  1  0
 13 52  1  0
 15 53  1  0
 17 54  1  0
 17 55  1  0
 18 56  1  0
 18 57  1  0
 20 58  1  0
 22 59  1  0
 23 60  1  0
 23 61  1  0
 26 62  1  0
 27 63  1  0
 31 64  1  0
 32 65  1  0
 32 66  1  0
 33 67  1  0
 33 68  1  0
 34 69  1  0
M  END

>  <ID>
DiffSBDD_12_num_sample_50

>  <docking_score>
-9.91

$$$$
DiffSBDD_13_num_sample_50
     RDKit          3D

 67 70  0  0  0  0  0  0  0  0999 V2000
   39.6860   32.3270   61.2230 C   0  0  0  0  0  0  0  0  0  0  0  0
   39.3230   33.5940   60.5940 C   0  0  2  0  0  0  0  0  0  0  0  0
   38.6980   34.4010   61.5250 O   0  0  0  0  0  0  0  0  0  0  0  0
   38.8720   35.7220   61.5790 C   0  0  0  0  0  0  0  0  0  0  0  0
   40.0150   36.0780   61.6930 O   0  0  0  0  0  0  0  0  0  0  0  0
   37.7360   36.6480   61.6410 C   0  0  0  0  0  0  0  0  0  0  0  0
   37.3600   37.1780   62.8570 N   0  0  0  0  0  0  0  0  0  0  0  0
   36.3360   37.9860   62.5370 C   0  0  0  0  0  0  0  0  0  0  0  0
   36.0640   37.9160   61.1930 O   0  0  0  0  0  0  0  0  0  0  0  0
   36.9430   37.1050   60.6350 N   0  0  0  0  0  0  0  0  0  0  0  0
   37.1180   37.0640   59.2020 N   0  0  0  0  0  0  0  0  0  0  0  0
   38.3710   33.5310   59.3510 C   0  0  1  0  0  0  0  0  0  0  0  0
   38.3370   32.9070   58.1360 C   0  0  0  0  0  0  0  0  0  0  0  0
   38.5310   31.9340   57.3230 C   0  0  0  0  0  0  0  0  0  0  0  0
   38.5860   30.6900   56.7030 C   0  0  0  0  0  0  0  0  0  0  0  0
   37.5090   29.6050   56.4790 C   0  0  0  0  0  0  0  0  0  0  0  0
   37.9570   28.3790   55.8830 N   0  0  0  0  0  0  0  0  0  0  0  0
   37.1730   27.2690   55.4690 C   0  0  0  0  0  0  0  0  0  0  0  0
   38.0190   26.0010   55.4810 C   0  0  2  0  0  0  0  0  0  0  0  0
   37.4420   24.8000   56.2170 C   0  0  0  0  0  0  0  0  0  0  0  0
   38.4170   24.4980   57.2850 C   0  0  0  0  0  0  0  0  0  0  0  0
   39.6890   24.8690   56.7250 O   0  0  0  0  0  0  0  0  0  0  0  0
   39.3130   26.0710   56.1960 N   0  0  0  0  0  0  0  0  0  0  0  0
   40.0770   27.2900   56.1620 C   0  0  0  0  0  0  0  0  0  0  0  0
   39.3630   28.4690   55.3520 C   0  0  1  0  0  0  0  0  0  0  0  0
   39.5480   28.8120   53.9050 C   0  0  0  0  0  0  0  0  0  0  0  0
   39.4830   27.9710   52.7990 C   0  0  0  0  0  0  0  0  0  0  0  0
   39.6880   28.2900   51.4270 C   0  0  0  0  0  0  0  0  0  0  0  0
   39.8450   29.6600   51.2010 C   0  0  0  0  0  0  0  0  0  0  0  0
   39.9690   30.3510   49.9140 C   0  0  0  0  0  0  0  0  0  0  0  0
   39.5000   31.5840   49.4550 F   0  0  0  0  0  0  0  0  0  0  0  0
   39.9220   30.5540   52.2000 C   0  0  0  0  0  0  0  0  0  0  0  0
   39.8290   30.2180   53.6390 C   0  0  0  0  0  0  0  0  0  0  0  0
   36.9080   33.3710   59.8430 C   0  0  0  0  0  0  0  0  0  0  0  0
   36.0450   34.2080   59.1860 O   0  0  0  0  0  0  0  0  0  0  0  0
   39.6541   32.4383   62.3169 H   0  0  0  0  0  0  0  0  0  0  0  0
   38.9752   31.5468   60.9129 H   0  0  0  0  0  0  0  0  0  0  0  0
   40.7021   32.0415   60.9129 H   0  0  0  0  0  0  0  0  0  0  0  0
   40.2854   33.9779   60.2247 H   0  0  0  0  0  0  0  0  0  0  0  0
   35.4437   37.6792   63.1024 H   0  0  0  0  0  0  0  0  0  0  0  0
   36.6103   39.0211   62.7888 H   0  0  0  0  0  0  0  0  0  0  0  0
   37.8980   37.6780   58.9340 H   0  0  0  0  0  0  0  0  0  0  0  0
   37.3240   36.0980   58.9090 H   0  0  0  0  0  0  0  0  0  0  0  0
   38.9625   34.3844   58.9879 H   0  0  0  0  0  0  0  0  0  0  0  0
   37.8895   33.6740   57.4869 H   0  0  0  0  0  0  0  0  0  0  0  0
   39.5759   30.4319   56.2988 H   0  0  0  0  0  0  0  0  0  0  0  0
   37.0700   29.3612   57.4577 H   0  0  0  0  0  0  0  0  0  0  0  0
   36.7998   30.0395   55.7591 H   0  0  0  0  0  0  0  0  0  0  0  0
   36.3230   27.1465   56.1564 H   0  0  0  0  0  0  0  0  0  0  0  0
   36.8040   27.4477   54.4483 H   0  0  0  0  0  0  0  0  0  0  0  0
   38.0871   25.8983   54.3879 H   0  0  0  0  0  0  0  0  0  0  0  0
   36.4606   25.0465   56.6485 H   0  0  0  0  0  0  0  0  0  0  0  0
   37.2861   23.9419   55.5467 H   0  0  0  0  0  0  0  0  0  0  0  0
   38.2016   25.0895   58.1871 H   0  0  0  0  0  0  0  0  0  0  0  0
   38.3869   23.4425   57.5934 H   0  0  0  0  0  0  0  0  0  0  0  0
   40.2401   27.6274   57.1962 H   0  0  0  0  0  0  0  0  0  0  0  0
   41.0201   27.0658   55.6421 H   0  0  0  0  0  0  0  0  0  0  0  0
   39.9488   29.3842   55.5231 H   0  0  0  0  0  0  0  0  0  0  0  0
   39.2410   26.9195   53.0131 H   0  0  0  0  0  0  0  0  0  0  0  0
   39.7196   27.5357   50.6270 H   0  0  0  0  0  0  0  0  0  0  0  0
   41.0566   30.4196   49.7645 H   0  0  0  0  0  0  0  0  0  0  0  0
   39.2313   29.7362   49.3775 H   0  0  0  0  0  0  0  0  0  0  0  0
   40.0643   31.6109   51.9302 H   0  0  0  0  0  0  0  0  0  0  0  0
   39.9603   30.9634   54.4372 H   0  0  0  0  0  0  0  0  0  0  0  0
   36.5897   32.3316   59.6749 H   0  0  0  0  0  0  0  0  0  0  0  0
   36.8815   33.6309   60.9115 H   0  0  0  0  0  0  0  0  0  0  0  0
   35.6900   33.7510   58.3830 H   0  0  0  0  0  0  0  0  0  0  0  0
  1  2  1  0
  2  3  1  0
  3  4  1  0
  4  5  2  0
  4  6  1  0
  6  7  2  0
  7  8  1  0
  8  9  1  0
  9 10  1  0
 10 11  1  0
  2 12  1  0
 12 13  1  0
 13 14  2  0
 14 15  2  0
 15 16  1  0
 16 17  1  0
 17 18  1  0
 18 19  1  0
 19 20  1  0
 20 21  1  0
 21 22  1  0
 22 23  1  0
 23 24  1  0
 24 25  1  0
 25 26  1  0
 26 27  2  0
 27 28  1  0
 28 29  2  0
 29 30  1  0
 30 31  1  0
 29 32  1  0
 32 33  2  0
 12 34  1  0
 34 35  1  0
 10  6  1  0
 25 17  1  0
 33 26  1  0
 23 19  1  0
  1 36  1  0
  1 37  1  0
  1 38  1  0
  2 39  1  6
  8 40  1  0
  8 41  1  0
 11 42  1  0
 11 43  1  0
 12 44  1  6
 13 45  1  0
 15 46  1  0
 16 47  1  0
 16 48  1  0
 18 49  1  0
 18 50  1  0
 19 51  1  6
 20 52  1  0
 20 53  1  0
 21 54  1  0
 21 55  1  0
 24 56  1  0
 24 57  1  0
 25 58  1  1
 27 59  1  0
 28 60  1  0
 30 61  1  0
 30 62  1  0
 32 63  1  0
 33 64  1  0
 34 65  1  0
 34 66  1  0
 35 67  1  0
M  END

>  <ID>
DiffSBDD_13_num_sample_50

>  <docking_score>
-10.486

$$$$
DiffSBDD_14_num_sample_50
     RDKit          3D

 86 90  0  0  0  0  0  0  0  0999 V2000
   41.7070   34.0470   64.4430 C   0  0  0  0  0  0  0  0  0  0  0  0
   40.7110   34.0530   63.4590 O   0  0  0  0  0  0  0  0  0  0  0  0
   40.3940   35.0490   62.0950 S   0  0  2  0  0  4  0  0  0  0  0  0
   41.4430   35.7900   61.9340 O   0  0  0  0  0  0  0  0  0  0  0  0
   39.1870   35.9290   62.7020 O   0  0  0  0  0  0  0  0  0  0  0  0
   38.2130   36.9060   62.3340 C   0  0  0  0  0  0  0  0  0  0  0  0
   38.8950   37.8250   61.5860 F   0  0  0  0  0  0  0  0  0  0  0  0
   37.6810   37.5690   63.3130 F   0  0  0  0  0  0  0  0  0  0  0  0
   37.1050   36.3200   61.4940 C   0  0  0  0  0  0  0  0  0  0  0  0
   36.2520   37.3010   61.2570 F   0  0  0  0  0  0  0  0  0  0  0  0
   36.3450   35.3150   62.0290 F   0  0  0  0  0  0  0  0  0  0  0  0
   37.8400   35.7720   60.2730 C   0  0  1  0  0  0  0  0  0  0  0  0
   37.4500   36.4280   59.2030 F   0  0  0  0  0  0  0  0  0  0  0  0
   38.6040   34.7410   60.3690 C   0  0  0  0  0  0  0  0  0  0  0  0
   39.7860   34.0650   61.0930 C   0  0  2  0  0  0  0  0  0  0  0  0
   39.9950   32.5220   61.2050 C   0  0  2  0  0  0  0  0  0  0  0  0
   41.3290   32.4990   61.4170 F   0  0  0  0  0  0  0  0  0  0  0  0
   39.2980   31.4780   60.5250 C   0  0  0  0  0  0  0  0  0  0  0  0
   38.1130   31.0930   61.0250 C   0  0  1  0  0  0  0  0  0  0  0  0
   38.3270   30.7740   62.2550 O   0  0  0  0  0  0  0  0  0  0  0  0
   36.9310   30.9880   60.0940 C   0  0  0  0  0  0  0  0  0  0  0  0
   37.4150   30.4100   58.7050 C   0  0  1  0  0  0  0  0  0  0  0  0
   37.2220   29.0950   58.8720 O   0  0  0  0  0  0  0  0  0  0  0  0
   38.4450   28.6370   58.7070 C   0  0  1  0  0  0  0  0  0  0  0  0
   39.2580   27.7560   59.4220 C   0  0  0  0  0  0  0  0  0  0  0  0
   39.0140   27.7080   58.0270 C   0  0  2  0  0  0  0  0  0  0  0  0
   39.8710   27.1160   56.8630 C   0  0  2  0  0  0  0  0  0  0  0  0
   41.1190   26.5990   57.4350 O   0  0  0  0  0  0  0  0  0  0  0  0
   40.0970   28.1510   55.8350 C   0  0  0  0  0  0  0  0  0  0  0  0
   39.8460   27.4700   54.5580 C   0  0  0  0  0  0  0  0  0  0  0  0
   39.5060   26.0510   54.6210 C   0  0  0  0  0  0  0  0  0  0  0  0
   39.2460   25.9490   56.0900 C   0  0  2  0  0  0  0  0  0  0  0  0
   38.1290   25.7960   57.1110 C   0  0  1  0  0  0  0  0  0  0  0  0
   36.9030   26.5640   57.0070 C   0  0  0  0  0  0  0  0  0  0  0  0
   37.8410   24.3620   57.1450 C   0  0  0  0  0  0  0  0  0  0  0  0
   38.6430   24.0890   57.9420 O   0  0  0  0  0  0  0  0  0  0  0  0
   38.8630   25.1550   58.0940 O   0  0  0  0  0  0  0  0  0  0  0  0
   37.7270   30.6850   57.1920 C   0  0  2  0  0  0  0  0  0  0  0  0
   38.7300   31.7150   56.9050 C   0  0  0  0  0  0  0  0  0  0  0  0
   39.2590   31.8280   55.7830 C   0  0  0  0  0  0  0  0  0  0  0  0
   38.8120   31.2650   54.6300 C   0  0  0  0  0  0  0  0  0  0  0  0
   39.6810   30.8860   53.7240 F   0  0  0  0  0  0  0  0  0  0  0  0
   37.5080   31.0310   54.3850 O   0  0  0  0  0  0  0  0  0  0  0  0
   36.7170   30.0510   55.1520 C   0  0  1  0  0  0  0  0  0  0  0  0
   37.2640   28.8680   54.6460 F   0  0  0  0  0  0  0  0  0  0  0  0
   36.9640   30.4000   56.3650 O   0  0  0  0  0  0  0  0  0  0  0  0
   41.2390   34.0498   65.4385 H   0  0  0  0  0  0  0  0  0  0  0  0
   42.3269   33.1451   64.3318 H   0  0  0  0  0  0  0  0  0  0  0  0
   42.3377   34.9414   64.3318 H   0  0  0  0  0  0  0  0  0  0  0  0
   41.8380   35.6140   61.0440 H   0  0  0  0  0  0  0  0  0  0  0  0
   37.0347   35.0391   60.1172 H   0  0  0  0  0  0  0  0  0  0  0  0
   37.8387   33.9639   60.5118 H   0  0  0  0  0  0  0  0  0  0  0  0
   39.3085   35.2039   59.6623 H   0  0  0  0  0  0  0  0  0  0  0  0
   40.5036   33.7815   60.3090 H   0  0  0  0  0  0  0  0  0  0  0  0
   39.3099   32.0718   61.9384 H   0  0  0  0  0  0  0  0  0  0  0  0
   39.1253   31.8159   59.4925 H   0  0  0  0  0  0  0  0  0  0  0  0
   39.9456   30.5951   60.6306 H   0  0  0  0  0  0  0  0  0  0  0  0
   38.3210   30.0568   60.7201 H   0  0  0  0  0  0  0  0  0  0  0  0
   39.3020   30.7210   62.4170 H   0  0  0  0  0  0  0  0  0  0  0  0
   36.1775   30.3157   60.5301 H   0  0  0  0  0  0  0  0  0  0  0  0
   36.4868   31.9834   59.9461 H   0  0  0  0  0  0  0  0  0  0  0  0
   37.9586   31.3625   58.6200 H   0  0  0  0  0  0  0  0  0  0  0  0
   38.3407   29.7258   58.5901 H   0  0  0  0  0  0  0  0  0  0  0  0
   40.2335   28.0793   59.8142 H   0  0  0  0  0  0  0  0  0  0  0  0
   39.1579   27.0814   60.2851 H   0  0  0  0  0  0  0  0  0  0  0  0
   38.6748   27.2460   57.0881 H   0  0  0  0  0  0  0  0  0  0  0  0
   40.9860   25.6610   57.7220 H   0  0  0  0  0  0  0  0  0  0  0  0
   39.3996   28.9908   55.9703 H   0  0  0  0  0  0  0  0  0  0  0  0
   41.1104   28.5755   55.8879 H   0  0  0  0  0  0  0  0  0  0  0  0
   39.0126   27.9896   54.0626 H   0  0  0  0  0  0  0  0  0  0  0  0
   40.8035   27.5115   54.0181 H   0  0  0  0  0  0  0  0  0  0  0  0
   38.6130   25.8121   54.0247 H   0  0  0  0  0  0  0  0  0  0  0  0
   40.2634   25.3606   54.2214 H   0  0  0  0  0  0  0  0  0  0  0  0
   39.4645   24.9069   55.8139 H   0  0  0  0  0  0  0  0  0  0  0  0
   36.5301   26.7976   58.0151 H   0  0  0  0  0  0  0  0  0  0  0  0
   37.1014   27.4995   56.4635 H   0  0  0  0  0  0  0  0  0  0  0  0
   36.1478   25.9773   56.4635 H   0  0  0  0  0  0  0  0  0  0  0  0
   36.8171   24.1435   57.4823 H   0  0  0  0  0  0  0  0  0  0  0  0
   37.8850   23.8217   56.1879 H   0  0  0  0  0  0  0  0  0  0  0  0
   38.2921   29.7593   57.0081 H   0  0  0  0  0  0  0  0  0  0  0  0
   38.2483   32.6810   57.1167 H   0  0  0  0  0  0  0  0  0  0  0  0
   39.5772   31.3915   57.5276 H   0  0  0  0  0  0  0  0  0  0  0  0
   39.2862   32.9096   55.5844 H   0  0  0  0  0  0  0  0  0  0  0  0
   40.1690   31.2311   55.9432 H   0  0  0  0  0  0  0  0  0  0  0  0
   38.7603   32.2601   54.1641 H   0  0  0  0  0  0  0  0  0  0  0  0
   35.6221   29.9632   55.0923 H   0  0  0  0  0  0  0  0  0  0  0  0
  1  2  1  0
  3  2  1  1
  3  4  1  0
  3  5  1  0
  5  6  1  0
  6  7  1  0
  6  8  1  0
  6  9  1  0
  9 10  1  0
  9 11  1  0
  9 12  1  0
 12 13  1  0
 12 14  1  0
 14 15  1  0
 15 16  1  0
 16 17  1  0
 16 18  1  0
 18 19  1  0
 19 20  1  0
 19 21  1  0
 21 22  1  0
 22 23  1  0
 23 24  1  0
 24 25  1  0
 25 26  1  0
 26 27  1  0
 27 28  1  1
 27 29  1  0
 29 30  1  0
 30 31  1  0
 31 32  1  0
 32 33  1  0
 33 34  1  1
 33 35  1  0
 35 36  1  0
 36 37  1  0
 22 38  1  0
 38 39  1  0
 39 40  1  0
 40 41  1  0
 41 42  1  0
 41 43  1  0
 43 44  1  0
 44 45  1  0
 44 46  1  0
 15  3  1  0
 26 24  1  0
 32 27  1  0
 37 33  1  0
 46 38  1  0
  1 47  1  0
  1 48  1  0
  1 49  1  0
  4 50  1  0
 12 51  1  1
 14 52  1  0
 14 53  1  0
 15 54  1  6
 16 55  1  1
 18 56  1  0
 18 57  1  0
 19 58  1  1
 20 59  1  0
 21 60  1  0
 21 61  1  0
 22 62  1  1
 24 63  1  6
 25 64  1  0
 25 65  1  0
 26 66  1  1
 28 67  1  0
 29 68  1  0
 29 69  1  0
 30 70  1  0
 30 71  1  0
 31 72  1  0
 31 73  1  0
 32 74  1  1
 34 75  1  0
 34 76  1  0
 34 77  1  0
 35 78  1  0
 35 79  1  0
 38 80  1  6
 39 81  1  0
 39 82  1  0
 40 83  1  0
 40 84  1  0
 41 85  1  0
 44 86  1  6
M  END

>  <ID>
DiffSBDD_14_num_sample_50

>  <docking_score>
-10.326

$$$$
DiffSBDD_15_num_sample_50
     RDKit          3D

 46 47  0  0  0  0  0  0  0  0999 V2000
   37.1370   27.3150   54.1510 C   0  0  0  0  0  0  0  0  0  0  0  0
   38.0860   28.5060   53.7020 C   0  0  2  0  0  0  0  0  0  0  0  0
   38.8750   28.6380   52.5840 C   0  0  0  0  0  0  0  0  0  0  0  0
   39.1100   27.7190   51.4610 C   0  0  0  0  0  0  0  0  0  0  0  0
   39.7520   28.2170   50.3460 C   0  0  0  0  0  0  0  0  0  0  0  0
   40.2500   29.5270   50.2320 C   0  0  0  0  0  0  0  0  0  0  0  0
   40.6680   29.9310   48.9870 F   0  0  0  0  0  0  0  0  0  0  0  0
   40.2980   30.4040   51.3640 C   0  0  0  0  0  0  0  0  0  0  0  0
   39.5560   29.9260   52.5750 C   0  0  0  0  0  0  0  0  0  0  0  0
   39.3160   30.5370   53.8380 N   0  0  0  0  0  0  0  0  0  0  0  0
   38.1810   29.8320   54.3500 C   0  0  2  0  0  0  0  0  0  0  0  0
   37.1920   30.0570   55.8370 S   0  0  0  0  0  0  0  0  0  0  0  0
   38.4050   30.4320   56.8470 N   0  0  0  0  0  0  0  0  0  0  0  0
   38.5540   31.5740   57.7180 C   0  0  0  0  0  0  0  0  0  0  0  0
   38.7720   32.8160   56.8330 C   0  0  0  0  0  0  0  0  0  0  0  0
   37.6400   33.6800   56.8860 O   0  0  0  0  0  0  0  0  0  0  0  0
   38.6270   29.2180   57.6370 C   0  0  0  0  0  0  0  0  0  0  0  0
   40.0860   28.5550   57.5600 C   0  0  0  0  0  0  0  0  0  0  0  0
   39.9540   27.4850   56.6550 C   0  0  0  0  0  0  0  0  0  0  0  0
   39.4700   25.9390   56.8570 S   0  0  0  0  0  0  0  0  0  0  0  0
   37.8800   25.6770   57.2790 C   0  0  0  0  0  0  0  0  0  0  0  0
   40.4050   25.5780   58.0340 O   0  0  0  0  0  0  0  0  0  0  0  0
   39.8020   25.1810   55.7820 O   0  0  0  0  0  0  0  0  0  0  0  0
   37.1006   27.2693   55.2494 H   0  0  0  0  0  0  0  0  0  0  0  0
   36.1240   27.4849   53.7573 H   0  0  0  0  0  0  0  0  0  0  0  0
   37.5289   26.3656   53.7573 H   0  0  0  0  0  0  0  0  0  0  0  0
   37.2469   28.9721   53.1648 H   0  0  0  0  0  0  0  0  0  0  0  0
   38.7848   26.6692   51.5081 H   0  0  0  0  0  0  0  0  0  0  0  0
   39.8833   27.5427   49.4869 H   0  0  0  0  0  0  0  0  0  0  0  0
   40.8411   31.3604   51.3454 H   0  0  0  0  0  0  0  0  0  0  0  0
   39.8370   31.3080   54.2790 H   0  0  0  0  0  0  0  0  0  0  0  0
   37.5880   30.7531   54.2504 H   0  0  0  0  0  0  0  0  0  0  0  0
   37.6460   31.7022   58.3256 H   0  0  0  0  0  0  0  0  0  0  0  0
   39.4080   31.4310   58.3964 H   0  0  0  0  0  0  0  0  0  0  0  0
   39.6587   33.3611   57.1887 H   0  0  0  0  0  0  0  0  0  0  0  0
   38.9163   32.4872   55.7933 H   0  0  0  0  0  0  0  0  0  0  0  0
   36.8530   33.2170   56.5030 H   0  0  0  0  0  0  0  0  0  0  0  0
   38.4310   29.4672   58.6903 H   0  0  0  0  0  0  0  0  0  0  0  0
   37.9492   28.4676   57.2039 H   0  0  0  0  0  0  0  0  0  0  0  0
   40.8227   29.2840   57.1916 H   0  0  0  0  0  0  0  0  0  0  0  0
   40.4396   28.2200   58.5463 H   0  0  0  0  0  0  0  0  0  0  0  0
   39.2635   27.8747   55.8925 H   0  0  0  0  0  0  0  0  0  0  0  0
   41.0283   27.2684   56.5599 H   0  0  0  0  0  0  0  0  0  0  0  0
   37.7893   25.6620   58.3751 H   0  0  0  0  0  0  0  0  0  0  0  0
   37.2544   26.4842   56.8703 H   0  0  0  0  0  0  0  0  0  0  0  0
   37.5464   24.7118   56.8703 H   0  0  0  0  0  0  0  0  0  0  0  0
  1  2  1  0
  2  3  1  0
  3  4  2  0
  4  5  1  0
  5  6  2  0
  6  7  1  0
  6  8  1  0
  8  9  2  0
  9 10  1  0
 10 11  1  0
 11 12  1  0
 12 13  1  0
 13 14  1  0
 14 15  1  0
 15 16  1  0
 13 17  1  0
 17 18  1  0
 18 19  1  0
 19 20  1  0
 20 21  1  0
 20 22  2  0
 20 23  2  0
 11  2  1  0
  9  3  1  0
  1 24  1  0
  1 25  1  0
  1 26  1  0
  2 27  1  1
  4 28  1  0
  5 29  1  0
  8 30  1  0
 10 31  1  0
 11 32  1  6
 14 33  1  0
 14 34  1  0
 15 35  1  0
 15 36  1  0
 16 37  1  0
 17 38  1  0
 17 39  1  0
 18 40  1  0
 18 41  1  0
 19 42  1  0
 19 43  1  0
 21 44  1  0
 21 45  1  0
 21 46  1  0
M  END

>  <ID>
DiffSBDD_15_num_sample_50

>  <docking_score>
-7.95

$$$$
DiffSBDD_16_num_sample_50
     RDKit          3D

 43 43  0  0  0  0  0  0  0  0999 V2000
   37.1750   28.2310   53.1580 C   0  0  0  0  0  0  0  0  0  0  0  0
   38.6080   28.6810   53.3060 C   0  0  2  0  0  0  0  0  0  0  0  0
   39.0540   30.1770   53.6870 C   0  0  1  0  0  0  0  0  0  0  0  0
   39.8360   30.1220   54.9760 C   0  0  0  0  0  0  0  0  0  0  0  0
   39.6550   29.4950   56.2240 C   0  0  0  0  0  0  0  0  0  0  0  0
   40.5100   28.4260   56.7860 C   0  0  0  0  0  0  0  0  0  0  0  0
   40.0200   27.0230   56.3490 C   0  0  0  0  0  0  0  0  0  0  0  0
   38.5940   26.6580   56.4850 C   0  0  0  0  0  0  0  0  0  0  0  0
   38.4790   25.3200   57.1050 C   0  0  0  0  0  0  0  0  0  0  0  0
   39.7390   24.6610   57.2190 O   0  0  0  0  0  0  0  0  0  0  0  0
   39.8290   30.7250   52.5300 C   0  0  0  0  0  0  0  0  0  0  0  0
   40.1470   30.1310   51.1900 C   0  0  0  0  0  0  0  0  0  0  0  0
   39.8870   28.6380   51.3640 C   0  0  0  0  0  0  0  0  0  0  0  0
   39.0270   28.5710   52.0430 N   0  0  1  0  0  0  0  0  0  0  0  0
   38.9710   27.4080   51.1470 C   0  0  0  0  0  0  0  0  0  0  0  0
   36.7298   28.0912   54.1541 H   0  0  0  0  0  0  0  0  0  0  0  0
   36.6063   28.9938   52.6060 H   0  0  0  0  0  0  0  0  0  0  0  0
   37.1445   27.2800   52.6060 H   0  0  0  0  0  0  0  0  0  0  0  0
   38.9867   28.0990   54.1591 H   0  0  0  0  0  0  0  0  0  0  0  0
   38.2029   30.8516   53.8618 H   0  0  0  0  0  0  0  0  0  0  0  0
   40.8143   29.7384   54.6508 H   0  0  0  0  0  0  0  0  0  0  0  0
   39.5176   31.1163   55.3225 H   0  0  0  0  0  0  0  0  0  0  0  0
   39.6845   30.3085   56.9639 H   0  0  0  0  0  0  0  0  0  0  0  0
   38.7412   28.9187   56.0168 H   0  0  0  0  0  0  0  0  0  0  0  0
   41.5420   28.5706   56.4337 H   0  0  0  0  0  0  0  0  0  0  0  0
   40.4608   28.4839   57.8834 H   0  0  0  0  0  0  0  0  0  0  0  0
   40.2740   26.9164   55.2840 H   0  0  0  0  0  0  0  0  0  0  0  0
   40.5202   26.3497   57.0607 H   0  0  0  0  0  0  0  0  0  0  0  0
   38.0855   27.3996   57.1187 H   0  0  0  0  0  0  0  0  0  0  0  0
   38.1260   26.6398   55.4897 H   0  0  0  0  0  0  0  0  0  0  0  0
   38.0477   25.4330   58.1106 H   0  0  0  0  0  0  0  0  0  0  0  0
   37.8375   24.7051   56.4567 H   0  0  0  0  0  0  0  0  0  0  0  0
   39.9810   24.5740   58.1750 H   0  0  0  0  0  0  0  0  0  0  0  0
   39.3098   31.6635   52.2858 H   0  0  0  0  0  0  0  0  0  0  0  0
   40.8301   30.6079   52.9705 H   0  0  0  0  0  0  0  0  0  0  0  0
   39.4923   30.5519   50.4126 H   0  0  0  0  0  0  0  0  0  0  0  0
   41.1788   30.3422   50.8725 H   0  0  0  0  0  0  0  0  0  0  0  0
   39.6506   28.1726   50.3957 H   0  0  0  0  0  0  0  0  0  0  0  0
   40.7668   28.1123   51.7634 H   0  0  0  0  0  0  0  0  0  0  0  0
   38.4910   29.3770   52.3960 H   0  0  0  0  0  0  0  0  0  0  0  0
   38.9266   26.4860   51.7453 H   0  0  0  0  0  0  0  0  0  0  0  0
   38.0751   27.4768   50.5124 H   0  0  0  0  0  0  0  0  0  0  0  0
   39.8693   27.3904   50.5124 H   0  0  0  0  0  0  0  0  0  0  0  0
  1  2  1  0
  2  3  1  0
  3  4  1  0
  4  5  1  0
  5  6  1  0
  6  7  1  0
  7  8  1  0
  8  9  1  0
  9 10  1  0
  3 11  1  0
 11 12  1  0
 12 13  1  0
 13 14  1  0
 14 15  1  0
 14  2  1  0
  1 16  1  0
  1 17  1  0
  1 18  1  0
  2 19  1  1
  3 20  1  1
  4 21  1  0
  4 22  1  0
  5 23  1  0
  5 24  1  0
  6 25  1  0
  6 26  1  0
  7 27  1  0
  7 28  1  0
  8 29  1  0
  8 30  1  0
  9 31  1  0
  9 32  1  0
 10 33  1  0
 11 34  1  0
 11 35  1  0
 12 36  1  0
 12 37  1  0
 13 38  1  0
 13 39  1  0
 14 40  1  6
 15 41  1  0
 15 42  1  0
 15 43  1  0
M  CHG  1  14   1
M  END

>  <ID>
DiffSBDD_16_num_sample_50

>  <docking_score>
-6.614

$$$$
DiffSBDD_17_num_sample_50
     RDKit          3D

 67 69  0  0  0  0  0  0  0  0999 V2000
   36.8900   25.1820   56.2440 C   0  0  0  0  0  0  0  0  0  0  0  0
   38.2300   26.3630   56.7470 C   0  0  0  0  0  0  0  0  0  0  0  0
   38.3630   27.9610   56.0320 C   0  0  2  0  0  0  0  0  0  0  0  0
   39.0680   27.4480   54.5290 C   0  0  0  0  0  0  0  0  0  0  0  0
   38.5370   27.4160   53.5080 C   0  0  0  0  0  0  0  0  0  0  0  0
   39.2380   28.3010   52.3600 C   0  0  0  0  0  0  0  0  0  0  0  0
   39.6390   27.9390   51.0260 C   0  0  0  0  0  0  0  0  0  0  0  0
   40.1090   29.0270   50.1180 C   0  0  0  0  0  0  0  0  0  0  0  0
   40.3100   30.3120   50.6030 C   0  0  0  0  0  0  0  0  0  0  0  0
   40.0110   30.5740   51.9040 C   0  0  0  0  0  0  0  0  0  0  0  0
   39.5530   29.5920   52.7280 C   0  0  0  0  0  0  0  0  0  0  0  0
   39.0800   29.3140   56.4200 N   0  0  0  0  0  0  0  0  0  0  0  0
   39.7700   28.5490   57.4850 C   0  0  0  0  0  0  0  0  0  0  0  0
   39.8930   29.0180   59.0650 C   0  0  2  0  0  0  0  0  0  0  0  0
   38.3230   29.5230   59.2040 C   0  0  0  0  0  0  0  0  0  0  0  0
   37.9260   30.9420   59.9290 N   0  0  2  0  0  0  0  0  0  0  0  0
   36.3920   30.8650   60.2540 C   0  0  0  0  0  0  0  0  0  0  0  0
   35.6490   32.1380   60.6630 C   0  0  0  0  0  0  0  0  0  0  0  0
   36.7750   33.4660   60.9390 C   0  0  2  0  0  0  0  0  0  0  0  0
   36.4100   34.7460   60.0960 C   0  0  0  0  0  0  0  0  0  0  0  0
   37.4240   35.4870   60.5800 C   0  0  2  0  0  0  0  0  0  0  0  0
   37.4290   37.1650   60.7060 C   0  0  0  0  0  0  0  0  0  0  0  0
   37.2220   37.4730   59.3960 O   0  0  0  0  0  0  0  0  0  0  0  0
   37.2100   37.4070   62.0420 O   0  0  0  0  0  0  0  0  0  0  0  0
   38.8870   35.1720   61.3640 S   0  0  0  0  0  0  0  0  0  0  0  0
   38.4030   33.3140   60.7890 C   0  0  2  0  0  0  0  0  0  0  0  0
   38.4960   32.1380   59.3650 C   0  0  0  0  0  0  0  0  0  0  0  0
   41.2870   28.5910   59.1840 O   0  0  0  0  0  0  0  0  0  0  0  0
   41.4440   27.4300   58.1370 C   0  0  0  0  0  0  0  0  0  0  0  0
   38.1820   30.3610   55.7240 C   0  0  0  0  0  0  0  0  0  0  0  0
   36.8740   29.9390   55.8200 O   0  0  0  0  0  0  0  0  0  0  0  0
   38.4690   32.0650   55.6740 S   0  0  0  0  0  0  0  0  0  0  0  0
   36.4143   24.7628   57.1429 H   0  0  0  0  0  0  0  0  0  0  0  0
   36.1368   25.7154   55.6455 H   0  0  0  0  0  0  0  0  0  0  0  0
   37.3245   24.3678   55.6455 H   0  0  0  0  0  0  0  0  0  0  0  0
   38.1172   26.5166   57.8304 H   0  0  0  0  0  0  0  0  0  0  0  0
   39.1366   25.8626   56.3759 H   0  0  0  0  0  0  0  0  0  0  0  0
   37.3874   28.3952   56.2960 H   0  0  0  0  0  0  0  0  0  0  0  0
   39.9388   28.1035   54.3805 H   0  0  0  0  0  0  0  0  0  0  0  0
   39.1621   26.3697   54.7249 H   0  0  0  0  0  0  0  0  0  0  0  0
   38.5111   26.3704   53.1674 H   0  0  0  0  0  0  0  0  0  0  0  0
   37.5357   27.8439   53.6638 H   0  0  0  0  0  0  0  0  0  0  0  0
   39.6004   26.8935   50.6861 H   0  0  0  0  0  0  0  0  0  0  0  0
   40.2975   28.8086   49.0565 H   0  0  0  0  0  0  0  0  0  0  0  0
   40.7035   31.1032   49.9479 H   0  0  0  0  0  0  0  0  0  0  0  0
   40.1411   31.5937   52.2956 H   0  0  0  0  0  0  0  0  0  0  0  0
   39.4217   29.8533   53.7884 H   0  0  0  0  0  0  0  0  0  0  0  0
   39.2737   27.5676   57.5088 H   0  0  0  0  0  0  0  0  0  0  0  0
   40.8158   28.6633   57.1636 H   0  0  0  0  0  0  0  0  0  0  0  0
   39.5970   28.0089   59.3876 H   0  0  0  0  0  0  0  0  0  0  0  0
   37.9258   29.5789   58.1798 H   0  0  0  0  0  0  0  0  0  0  0  0
   37.9031   28.7825   59.9006 H   0  0  0  0  0  0  0  0  0  0  0  0
   38.4140   31.0610   60.8290 H   0  0  0  0  0  0  0  0  0  0  0  0
   35.8924   30.4768   59.3542 H   0  0  0  0  0  0  0  0  0  0  0  0
   36.3478   30.2363   61.1556 H   0  0  0  0  0  0  0  0  0  0  0  0
   34.9501   32.4197   59.8617 H   0  0  0  0  0  0  0  0  0  0  0  0
   35.1042   31.9406   61.5980 H   0  0  0  0  0  0  0  0  0  0  0  0
   36.6070   33.5124   62.0251 H   0  0  0  0  0  0  0  0  0  0  0  0
   36.4774   34.5805   59.0106 H   0  0  0  0  0  0  0  0  0  0  0  0
   35.3900   35.1480   60.1857 H   0  0  0  0  0  0  0  0  0  0  0  0
   36.9961   35.4124   61.5906 H   0  0  0  0  0  0  0  0  0  0  0  0
   39.2688   32.8393   61.2738 H   0  0  0  0  0  0  0  0  0  0  0  0
   37.9051   32.4979   58.5098 H   0  0  0  0  0  0  0  0  0  0  0  0
   39.5125   32.0010   58.9677 H   0  0  0  0  0  0  0  0  0  0  0  0
   41.5732   26.4742   58.6660 H   0  0  0  0  0  0  0  0  0  0  0  0
   40.5443   27.3811   57.5060 H   0  0  0  0  0  0  0  0  0  0  0  0
   42.3244   27.6218   57.5060 H   0  0  0  0  0  0  0  0  0  0  0  0
  1  2  1  0
  2  3  1  0
  3  4  1  0
  4  5  1  0
  5  6  1  0
  6  7  2  0
  7  8  1  0
  8  9  2  0
  9 10  1  0
 10 11  2  0
  3 12  1  0
 12 13  1  0
 13 14  1  0
 14 15  1  0
 15 16  1  0
 16 17  1  0
 17 18  1  0
 18 19  1  0
 19 20  1  0
 20 21  1  0
 21 22  1  0
 22 23  2  0
 22 24  1  0
 21 25  1  0
 25 26  1  0
 26 27  1  0
 14 28  1  0
 28 29  1  0
 12 30  1  0
 30 31  2  0
 30 32  1  0
 11  6  1  0
 27 16  1  0
 26 19  1  0
  1 33  1  0
  1 34  1  0
  1 35  1  0
  2 36  1  0
  2 37  1  0
  3 38  1  6
  4 39  1  0
  4 40  1  0
  5 41  1  0
  5 42  1  0
  7 43  1  0
  8 44  1  0
  9 45  1  0
 10 46  1  0
 11 47  1  0
 13 48  1  0
 13 49  1  0
 14 50  1  6
 15 51  1  0
 15 52  1  0
 16 53  1  1
 17 54  1  0
 17 55  1  0
 18 56  1  0
 18 57  1  0
 19 58  1  1
 20 59  1  0
 20 60  1  0
 21 61  1  6
 26 62  1  1
 27 63  1  0
 27 64  1  0
 29 65  1  0
 29 66  1  0
 29 67  1  0
M  CHG  3  16   1  24  -1  32  -1
M  END

>  <ID>
DiffSBDD_17_num_sample_50

>  <docking_score>
-10.515

$$$$
DiffSBDD_18_num_sample_50
     RDKit          3D

 75 77  0  0  0  0  0  0  0  0999 V2000
   37.2800   36.2080   60.0570 C   0  0  0  0  0  0  0  0  0  0  0  0
   37.7030   35.7510   61.4320 C   0  0  0  0  0  0  0  0  0  0  0  0
   38.4070   34.4220   61.1240 C   0  0  2  0  0  0  0  0  0  0  0  0
   39.8680   34.3590   61.1110 C   0  0  0  0  0  0  0  0  0  0  0  0
   40.1370   33.3910   62.4780 C   0  0  0  0  0  0  0  0  0  0  0  0
   41.3550   33.8750   62.8130 C   0  0  2  0  0  0  0  0  0  0  0  0
   42.1890   33.0160   61.6080 F   0  0  0  0  0  0  0  0  0  0  0  0
   41.6970   33.0360   63.9900 C   0  0  0  0  0  0  0  0  0  0  0  0
   41.1020   33.9420   65.1920 C   0  0  0  0  0  0  0  0  0  0  0  0
   41.0950   35.4630   65.3250 C   0  0  0  0  0  0  0  0  0  0  0  0
   41.1770   35.5180   63.6030 S   0  0  0  0  0  0  0  0  0  0  0  0
   37.7400   33.6520   60.3270 N   0  0  0  0  0  0  0  0  0  0  0  0
   36.6840   32.5480   60.6260 C   0  0  1  0  0  0  0  0  0  0  0  0
   35.4250   32.6590   61.1940 C   0  0  0  0  0  0  0  0  0  0  0  0
   37.1910   31.3180   59.9250 C   0  0  0  0  0  0  0  0  0  0  0  0
   38.4730   31.5820   59.1470 C   0  0  0  0  0  0  0  0  0  0  0  0
   38.3480   31.5140   57.6120 C   0  0  1  0  0  0  0  0  0  0  0  0
   38.5260   32.5600   56.7370 C   0  0  0  0  0  0  0  0  0  0  0  0
   37.9310   32.7040   55.3900 O   0  0  0  0  0  0  0  0  0  0  0  0
   38.8360   30.3000   57.3310 N   0  0  0  0  0  0  0  0  0  0  0  0
   38.9290   29.1400   57.4180 C   0  0  1  0  0  0  0  0  0  0  0  0
   38.7790   27.8410   58.1510 C   0  0  0  0  0  0  0  0  0  0  0  0
   38.0070   27.2030   56.8330 N   0  0  0  0  0  0  0  0  0  0  0  0
   38.3380   28.3830   55.9640 C   0  0  1  0  0  0  0  0  0  0  0  0
   37.9980   28.9560   54.7910 C   0  0  0  0  0  0  0  0  0  0  0  0
   37.1480   29.8400   54.8670 O   0  0  0  0  0  0  0  0  0  0  0  0
   38.7050   29.1520   53.5640 C   0  0  0  0  0  0  0  0  0  0  0  0
   38.4240   28.2210   52.5480 C   0  0  0  0  0  0  0  0  0  0  0  0
   39.0530   28.3860   51.3090 C   0  0  0  0  0  0  0  0  0  0  0  0
   38.8850   27.4480   50.3860 F   0  0  0  0  0  0  0  0  0  0  0  0
   39.8390   29.5460   50.9820 C   0  0  0  0  0  0  0  0  0  0  0  0
   40.0630   30.5520   52.0610 C   0  0  0  0  0  0  0  0  0  0  0  0
   39.6250   30.2370   53.3370 C   0  0  0  0  0  0  0  0  0  0  0  0
   40.0800   30.8580   54.5140 F   0  0  0  0  0  0  0  0  0  0  0  0
   36.5355   37.0123   60.1508 H   0  0  0  0  0  0  0  0  0  0  0  0
   38.1572   36.5824   59.5091 H   0  0  0  0  0  0  0  0  0  0  0  0
   36.8390   35.3623   59.5091 H   0  0  0  0  0  0  0  0  0  0  0  0
   38.3929   36.4702   61.8976 H   0  0  0  0  0  0  0  0  0  0  0  0
   36.8698   35.6570   62.1440 H   0  0  0  0  0  0  0  0  0  0  0  0
   38.3505   33.9034   62.0924 H   0  0  0  0  0  0  0  0  0  0  0  0
   40.2475   33.8842   60.1942 H   0  0  0  0  0  0  0  0  0  0  0  0
   40.3728   35.3361   61.1302 H   0  0  0  0  0  0  0  0  0  0  0  0
   39.3886   33.5642   63.2653 H   0  0  0  0  0  0  0  0  0  0  0  0
   40.0755   32.3041   62.3202 H   0  0  0  0  0  0  0  0  0  0  0  0
   41.2057   32.0529   63.9428 H   0  0  0  0  0  0  0  0  0  0  0  0
   42.7671   32.7994   64.0850 H   0  0  0  0  0  0  0  0  0  0  0  0
   40.0418   33.6553   65.2541 H   0  0  0  0  0  0  0  0  0  0  0  0
   41.8647   33.7189   65.9526 H   0  0  0  0  0  0  0  0  0  0  0  0
   40.1751   35.8841   65.7568 H   0  0  0  0  0  0  0  0  0  0  0  0
   41.8155   35.9973   65.9617 H   0  0  0  0  0  0  0  0  0  0  0  0
   37.2440   34.3070   59.7070 H   0  0  0  0  0  0  0  0  0  0  0  0
   38.5160   33.0210   60.0810 H   0  0  0  0  0  0  0  0  0  0  0  0
   36.2514   32.6639   61.6307 H   0  0  0  0  0  0  0  0  0  0  0  0
   35.5153   32.6510   62.2903 H   0  0  0  0  0  0  0  0  0  0  0  0
   34.9590   33.6017   60.8713 H   0  0  0  0  0  0  0  0  0  0  0  0
   34.8012   31.8124   60.8713 H   0  0  0  0  0  0  0  0  0  0  0  0
   37.3874   30.5387   60.6761 H   0  0  0  0  0  0  0  0  0  0  0  0
   36.4214   30.9995   59.2065 H   0  0  0  0  0  0  0  0  0  0  0  0
   38.8289   32.5882   59.4131 H   0  0  0  0  0  0  0  0  0  0  0  0
   39.1663   30.7755   59.4279 H   0  0  0  0  0  0  0  0  0  0  0  0
   37.2989   31.7009   57.3393 H   0  0  0  0  0  0  0  0  0  0  0  0
   38.1954   33.4516   57.2899 H   0  0  0  0  0  0  0  0  0  0  0  0
   39.5716   32.3749   56.4499 H   0  0  0  0  0  0  0  0  0  0  0  0
   37.5370   31.8400   55.1090 H   0  0  0  0  0  0  0  0  0  0  0  0
   39.8240   30.5170   57.5280 H   0  0  0  0  0  0  0  0  0  0  0  0
   38.0040   30.1470   56.7430 H   0  0  0  0  0  0  0  0  0  0  0  0
   39.7059   29.5995   58.0468 H   0  0  0  0  0  0  0  0  0  0  0  0
   39.7318   27.3495   58.3973 H   0  0  0  0  0  0  0  0  0  0  0  0
   38.3105   27.8089   59.1457 H   0  0  0  0  0  0  0  0  0  0  0  0
   36.9960   27.0710   56.9770 H   0  0  0  0  0  0  0  0  0  0  0  0
   38.2740   26.2610   56.5110 H   0  0  0  0  0  0  0  0  0  0  0  0
   38.5977   28.2392   54.9048 H   0  0  0  0  0  0  0  0  0  0  0  0
   37.7291   27.3863   52.7225 H   0  0  0  0  0  0  0  0  0  0  0  0
   40.2588   29.6859   49.9749 H   0  0  0  0  0  0  0  0  0  0  0  0
   40.5590   31.5110   51.8505 H   0  0  0  0  0  0  0  0  0  0  0  0
  1  2  1  0
  2  3  1  0
  3  4  1  0
  4  5  1  0
  5  6  1  0
  6  7  1  6
  6  8  1  0
  8  9  1  0
  9 10  1  0
 10 11  1  0
  3 12  1  0
 12 13  1  0
 13 14  1  0
 13 15  1  0
 15 16  1  0
 16 17  1  0
 17 18  1  0
 18 19  1  0
 17 20  1  0
 20 21  1  0
 21 22  1  0
 22 23  1  0
 23 24  1  0
 24 25  1  0
 25 26  2  0
 25 27  1  0
 27 28  2  0
 28 29  1  0
 29 30  1  0
 29 31  2  0
 31 32  1  0
 32 33  2  0
 33 34  1  0
 11  6  1  0
 24 21  1  0
 33 27  1  0
  1 35  1  0
  1 36  1  0
  1 37  1  0
  2 38  1  0
  2 39  1  0
  3 40  1  1
  4 41  1  0
  4 42  1  0
  5 43  1  0
  5 44  1  0
  8 45  1  0
  8 46  1  0
  9 47  1  0
  9 48  1  0
 10 49  1  0
 10 50  1  0
 12 51  1  0
 12 52  1  0
 13 53  1  1
 14 54  1  0
 14 55  1  0
 14 56  1  0
 15 57  1  0
 15 58  1  0
 16 59  1  0
 16 60  1  0
 17 61  1  1
 18 62  1  0
 18 63  1  0
 19 64  1  0
 20 65  1  0
 20 66  1  0
 21 67  1  6
 22 68  1  0
 22 69  1  0
 23 70  1  0
 23 71  1  0
 24 72  1  6
 28 73  1  0
 31 74  1  0
 32 75  1  0
M  CHG  3  12   1  20   1  23   1
M  END

>  <ID>
DiffSBDD_18_num_sample_50

>  <docking_score>
-9.717

$$$$
DiffSBDD_19_num_sample_50
     RDKit          3D

 47 50  0  0  0  0  0  0  0  0999 V2000
   38.1140   27.6290   58.2200 O   0  0  0  0  0  0  0  0  0  0  0  0
   38.7760   28.5650   57.9180 C   0  0  0  0  0  0  0  0  0  0  0  0
   39.0950   28.8750   56.6820 O   0  0  0  0  0  0  0  0  0  0  0  0
   38.0930   29.1040   55.7540 C   0  0  1  0  0  0  0  0  0  0  0  0
   38.3180   30.4840   55.2650 C   0  0  0  0  0  0  0  0  0  0  0  0
   39.4770   30.6340   54.2210 C   0  0  0  0  0  0  0  0  0  0  0  0
   39.3610   29.4030   53.3260 C   0  0  0  0  0  0  0  0  0  0  0  0
   39.8210   29.6780   51.9340 C   0  0  0  0  0  0  0  0  0  0  0  0
   40.4430   30.6800   51.0600 C   0  0  0  0  0  0  0  0  0  0  0  0
   40.4050   30.3370   49.8580 C   0  0  0  0  0  0  0  0  0  0  0  0
   39.8190   29.1310   49.7560 N   0  0  0  0  0  0  0  0  0  0  0  0
   39.5010   28.7770   51.0680 C   0  0  0  0  0  0  0  0  0  0  0  0
   39.4030   27.3990   51.3970 C   0  0  0  0  0  0  0  0  0  0  0  0
   39.3340   27.0080   52.8910 C   0  0  0  0  0  0  0  0  0  0  0  0
   38.9200   28.2030   53.6420 N   0  0  0  0  0  0  0  0  0  0  0  0
   38.1190   27.8810   54.8180 C   0  0  0  0  0  0  0  0  0  0  0  0
   37.1510   27.0950   54.6260 O   0  0  0  0  0  0  0  0  0  0  0  0
   39.0810   29.5920   58.7860 N   0  0  0  0  0  0  0  0  0  0  0  0
   37.9270   30.2980   59.2560 C   0  0  0  0  0  0  0  0  0  0  0  0
   37.9790   30.9310   60.5620 C   0  0  0  0  0  0  0  0  0  0  0  0
   38.8390   30.4240   61.5270 N   0  0  0  0  0  0  0  0  0  0  0  0
   38.7160   30.6960   62.7360 O   0  0  0  0  0  0  0  0  0  0  0  0
   39.9110   29.5490   61.1940 C   0  0  1  0  0  0  0  0  0  0  0  0
   39.7000   28.2560   61.8170 F   0  0  0  0  0  0  0  0  0  0  0  0
   40.1880   29.3050   59.7380 C   0  0  0  0  0  0  0  0  0  0  0  0
   37.0398   29.1367   56.0699 H   0  0  0  0  0  0  0  0  0  0  0  0
   37.3876   30.8359   54.7954 H   0  0  0  0  0  0  0  0  0  0  0  0
   38.6148   31.0773   56.1424 H   0  0  0  0  0  0  0  0  0  0  0  0
   39.3504   31.5542   53.6318 H   0  0  0  0  0  0  0  0  0  0  0  0
   40.4629   30.7035   54.7039 H   0  0  0  0  0  0  0  0  0  0  0  0
   38.3396   29.7017   53.0475 H   0  0  0  0  0  0  0  0  0  0  0  0
   40.8888   31.6193   51.4191 H   0  0  0  0  0  0  0  0  0  0  0  0
   39.8268   31.0758   49.2837 H   0  0  0  0  0  0  0  0  0  0  0  0
   41.4286   30.2831   49.4587 H   0  0  0  0  0  0  0  0  0  0  0  0
   39.6420   28.5870   48.8990 H   0  0  0  0  0  0  0  0  0  0  0  0
   38.4920   27.0129   50.9164 H   0  0  0  0  0  0  0  0  0  0  0  0
   40.3515   26.9667   51.0456 H   0  0  0  0  0  0  0  0  0  0  0  0
   38.6002   26.2012   53.0346 H   0  0  0  0  0  0  0  0  0  0  0  0
   40.3123   26.6487   53.2431 H   0  0  0  0  0  0  0  0  0  0  0  0
   37.7100   31.0880   58.5220 H   0  0  0  0  0  0  0  0  0  0  0  0
   37.1634   29.5144   59.3699 H   0  0  0  0  0  0  0  0  0  0  0  0
   38.2624   31.9813   60.3990 H   0  0  0  0  0  0  0  0  0  0  0  0
   36.9786   30.7481   60.9812 H   0  0  0  0  0  0  0  0  0  0  0  0
   37.8380   30.3740   63.0590 H   0  0  0  0  0  0  0  0  0  0  0  0
   40.7914   30.0901   61.5711 H   0  0  0  0  0  0  0  0  0  0  0  0
   41.0438   29.9342   59.4523 H   0  0  0  0  0  0  0  0  0  0  0  0
   40.3636   28.2222   59.6565 H   0  0  0  0  0  0  0  0  0  0  0  0
  1  2  2  0
  2  3  1  0
  3  4  1  0
  4  5  1  0
  5  6  1  0
  6  7  1  0
  7  8  1  0
  8  9  2  0
  9 10  1  0
 10 11  1  0
 11 12  2  0
 12 13  1  0
 13 14  1  0
 14 15  1  0
 15 16  1  0
 16 17  2  0
  2 18  1  0
 18 19  1  0
 19 20  1  0
 20 21  1  0
 21 22  1  0
 21 23  1  0
 23 24  1  0
 23 25  1  0
 16  4  1  0
 25 18  1  0
 15  7  1  0
 12  8  1  0
  4 26  1  1
  5 27  1  0
  5 28  1  0
  6 29  1  0
  6 30  1  0
  7 31  1  0
  9 32  1  0
 10 33  1  0
 10 34  1  0
 11 35  1  0
 13 36  1  0
 13 37  1  0
 14 38  1  0
 14 39  1  0
 19 40  1  0
 19 41  1  0
 20 42  1  0
 20 43  1  0
 22 44  1  0
 23 45  1  1
 25 46  1  0
 25 47  1  0
M  CHG  1  11   1
M  END

>  <ID>
DiffSBDD_19_num_sample_50

>  <docking_score>
-9.57

$$$$
DiffSBDD_1_num_sample_50
     RDKit          3D

 32 31  0  0  0  0  0  0  0  0999 V2000
   40.4780   30.2700   50.4570 C   0  0  0  0  0  0  0  0  0  0  0  0
   39.8720   28.9310   51.1050 C   0  0  0  0  0  0  0  0  0  0  0  0
   39.2490   29.1480   52.5830 C   0  0  0  0  0  0  0  0  0  0  0  0
   39.6570   30.5170   53.2560 C   0  0  0  0  0  0  0  0  0  0  0  0
   39.6810   30.4270   54.7690 C   0  0  0  0  0  0  0  0  0  0  0  0
   39.2110   28.9830   55.1130 C   0  0  0  0  0  0  0  0  0  0  0  0
   39.6140   27.8010   55.7850 N   0  0  0  0  0  0  0  0  0  0  0  0
   39.9030   26.3240   55.4050 C   0  0  0  0  0  0  0  0  0  0  0  0
   39.2640   25.2600   56.4100 C   0  0  0  0  0  0  0  0  0  0  0  0
   40.1450   25.5870   57.7220 N   0  0  0  0  0  0  0  0  0  0  0  0
   40.7888   30.9568   51.2580 H   0  0  0  0  0  0  0  0  0  0  0  0
   41.3483   30.0148   49.8346 H   0  0  0  0  0  0  0  0  0  0  0  0
   39.7118   30.7554   49.8346 H   0  0  0  0  0  0  0  0  0  0  0  0
   39.0768   28.5547   50.4447 H   0  0  0  0  0  0  0  0  0  0  0  0
   40.7038   28.2187   51.2081 H   0  0  0  0  0  0  0  0  0  0  0  0
   38.1523   29.1141   52.5047 H   0  0  0  0  0  0  0  0  0  0  0  0
   39.6526   28.3470   53.2198 H   0  0  0  0  0  0  0  0  0  0  0  0
   40.6591   30.8008   52.9021 H   0  0  0  0  0  0  0  0  0  0  0  0
   38.9050   31.2688   52.9745 H   0  0  0  0  0  0  0  0  0  0  0  0
   40.6995   30.5991   55.1473 H   0  0  0  0  0  0  0  0  0  0  0  0
   39.0324   31.1858   55.2311 H   0  0  0  0  0  0  0  0  0  0  0  0
   38.2586   29.1933   55.6217 H   0  0  0  0  0  0  0  0  0  0  0  0
   39.5866   28.6003   54.1526 H   0  0  0  0  0  0  0  0  0  0  0  0
   40.4980   28.0910   56.2260 H   0  0  0  0  0  0  0  0  0  0  0  0
   38.6700   27.5990   56.1460 H   0  0  0  0  0  0  0  0  0  0  0  0
   39.4959   26.1390   54.4000 H   0  0  0  0  0  0  0  0  0  0  0  0
   40.9939   26.1904   55.4501 H   0  0  0  0  0  0  0  0  0  0  0  0
   38.1923   25.4431   56.5772 H   0  0  0  0  0  0  0  0  0  0  0  0
   39.2925   24.2140   56.0709 H   0  0  0  0  0  0  0  0  0  0  0  0
   40.7450   24.7800   57.9430 H   0  0  0  0  0  0  0  0  0  0  0  0
   40.7340   26.4130   57.5420 H   0  0  0  0  0  0  0  0  0  0  0  0
   39.5200   25.7780   58.5170 H   0  0  0  0  0  0  0  0  0  0  0  0
  1  2  1  0
  2  3  1  0
  3  4  1  0
  4  5  1  0
  5  6  1  0
  6  7  1  0
  7  8  1  0
  8  9  1  0
  9 10  1  0
  1 11  1  0
  1 12  1  0
  1 13  1  0
  2 14  1  0
  2 15  1  0
  3 16  1  0
  3 17  1  0
  4 18  1  0
  4 19  1  0
  5 20  1  0
  5 21  1  0
  6 22  1  0
  6 23  1  0
  7 24  1  0
  7 25  1  0
  8 26  1  0
  8 27  1  0
  9 28  1  0
  9 29  1  0
 10 30  1  0
 10 31  1  0
 10 32  1  0
M  CHG  2   7   1  10   1
M  END

>  <ID>
DiffSBDD_1_num_sample_50

>  <docking_score>
-4.779

$$$$
DiffSBDD_20_num_sample_50
     RDKit          3D

 78 82  0  0  0  0  0  0  0  0999 V2000
   41.1540   34.7370   65.8030 C   0  0  0  0  0  0  0  0  0  0  0  0
   42.4610   34.1820   65.2890 C   0  0  0  0  0  0  0  0  0  0  0  0
   42.9820   32.9650   66.0270 C   0  0  0  0  0  0  0  0  0  0  0  0
   43.1740   31.7300   65.2490 C   0  0  0  0  0  0  0  0  0  0  0  0
   42.0800   30.5640   65.2960 C   0  0  2  0  0  0  0  0  0  0  0  0
   41.1100   30.5940   64.0850 C   0  0  1  0  0  0  0  0  0  0  0  0
   40.1570   31.7100   63.9010 C   0  0  0  0  0  0  0  0  0  0  0  0
   39.6120   31.7560   62.6680 C   0  0  0  0  0  0  0  0  0  0  0  0
   39.0750   30.8460   61.8000 N   0  0  1  0  0  0  0  0  0  0  0  0
   38.0170   31.8990   61.4820 C   0  0  2  0  0  0  0  0  0  0  0  0
   36.6370   31.6390   61.4030 O   0  0  0  0  0  0  0  0  0  0  0  0
   38.5390   32.5970   60.2070 C   0  0  1  0  0  0  0  0  0  0  0  0
   38.3220   31.6780   58.9800 C   0  0  0  0  0  0  0  0  0  0  0  0
   38.2760   34.1150   59.9800 C   0  0  0  0  0  0  0  0  0  0  0  0
   37.1740   34.6160   59.3230 C   0  0  0  0  0  0  0  0  0  0  0  0
   36.5860   35.8770   59.6150 C   0  0  0  0  0  0  0  0  0  0  0  0
   37.2610   36.7520   60.5510 C   0  0  0  0  0  0  0  0  0  0  0  0
   38.5530   36.2810   61.0480 C   0  0  0  0  0  0  0  0  0  0  0  0
   39.2770   37.1130   61.9850 C   0  0  0  0  0  0  0  0  0  0  0  0
   40.5240   36.8290   62.5000 C   0  0  0  0  0  0  0  0  0  0  0  0
   41.1690   35.5940   62.1510 C   0  0  0  0  0  0  0  0  0  0  0  0
   40.4890   34.7560   61.2160 C   0  0  0  0  0  0  0  0  0  0  0  0
   39.1720   35.0420   60.7590 C   0  0  0  0  0  0  0  0  0  0  0  0
   40.1680   29.8160   61.6990 C   0  0  2  0  0  0  0  0  0  0  0  0
   39.5580   28.5180   61.7380 O   0  0  0  0  0  0  0  0  0  0  0  0
   41.3090   29.8860   62.7960 C   0  0  0  0  0  0  0  0  0  0  0  0
   41.2450   30.5300   66.5570 C   0  0  0  0  0  0  0  0  0  0  0  0
   40.7750   29.0540   66.6780 C   0  0  0  0  0  0  0  0  0  0  0  0
   41.6430   28.0570   65.9380 C   0  0  2  0  0  0  0  0  0  0  0  0
   41.3010   27.2160   64.6210 C   0  0  0  0  0  0  0  0  0  0  0  0
   42.1750   25.9810   64.6790 C   0  0  0  0  0  0  0  0  0  0  0  0
   41.8050   25.5930   66.1270 C   0  0  0  0  0  0  0  0  0  0  0  0
   42.7210   24.8460   66.6720 F   0  0  0  0  0  0  0  0  0  0  0  0
   40.6260   24.8740   66.0850 F   0  0  0  0  0  0  0  0  0  0  0  0
   41.6560   26.8700   66.8100 O   0  0  0  0  0  0  0  0  0  0  0  0
   42.7960   29.1740   65.4910 C   0  0  0  0  0  0  0  0  0  0  0  0
   41.1616   34.7338   66.9030 H   0  0  0  0  0  0  0  0  0  0  0  0
   41.0252   35.7674   65.4402 H   0  0  0  0  0  0  0  0  0  0  0  0
   40.3231   34.1140   65.4402 H   0  0  0  0  0  0  0  0  0  0  0  0
   42.3213   33.9055   64.2335 H   0  0  0  0  0  0  0  0  0  0  0  0
   43.2091   34.9739   65.4415 H   0  0  0  0  0  0  0  0  0  0  0  0
   43.9554   33.2351   66.4623 H   0  0  0  0  0  0  0  0  0  0  0  0
   42.1940   32.7190   66.7540 H   0  0  0  0  0  0  0  0  0  0  0  0
   43.2677   32.0323   64.1955 H   0  0  0  0  0  0  0  0  0  0  0  0
   44.0494   31.2681   65.7291 H   0  0  0  0  0  0  0  0  0  0  0  0
   40.7529   29.7909   64.7465 H   0  0  0  0  0  0  0  0  0  0  0  0
   39.3460   31.5997   64.6360 H   0  0  0  0  0  0  0  0  0  0  0  0
   40.7223   32.6435   64.0393 H   0  0  0  0  0  0  0  0  0  0  0  0
   38.7917   32.4777   62.7958 H   0  0  0  0  0  0  0  0  0  0  0  0
   40.5792   31.8133   62.1471 H   0  0  0  0  0  0  0  0  0  0  0  0
   38.5740   30.0520   61.3750 H   0  0  0  0  0  0  0  0  0  0  0  0
   37.9479   32.4829   62.4117 H   0  0  0  0  0  0  0  0  0  0  0  0
   36.4260   31.2420   60.5210 H   0  0  0  0  0  0  0  0  0  0  0  0
   39.6165   32.7147   60.3947 H   0  0  0  0  0  0  0  0  0  0  0  0
   38.0817   30.6605   59.3219 H   0  0  0  0  0  0  0  0  0  0  0  0
   37.4909   32.0667   58.3732 H   0  0  0  0  0  0  0  0  0  0  0  0
   39.2392   31.6539   58.3732 H   0  0  0  0  0  0  0  0  0  0  0  0
   36.7231   34.0055   58.5268 H   0  0  0  0  0  0  0  0  0  0  0  0
   35.6409   36.1808   59.1413 H   0  0  0  0  0  0  0  0  0  0  0  0
   36.8283   37.7121   60.8686 H   0  0  0  0  0  0  0  0  0  0  0  0
   38.7943   38.0457   62.3122 H   0  0  0  0  0  0  0  0  0  0  0  0
   41.0212   37.5429   63.1731 H   0  0  0  0  0  0  0  0  0  0  0  0
   42.1393   35.3078   62.5829 H   0  0  0  0  0  0  0  0  0  0  0  0
   41.0004   33.8592   60.8362 H   0  0  0  0  0  0  0  0  0  0  0  0
   40.6867   30.0281   60.7525 H   0  0  0  0  0  0  0  0  0  0  0  0
   39.5960   28.1630   62.6610 H   0  0  0  0  0  0  0  0  0  0  0  0
   41.5579   28.8451   63.0502 H   0  0  0  0  0  0  0  0  0  0  0  0
   42.0701   30.5082   62.3025 H   0  0  0  0  0  0  0  0  0  0  0  0
   41.8489   30.8178   67.4302 H   0  0  0  0  0  0  0  0  0  0  0  0
   40.4008   31.2340   66.5167 H   0  0  0  0  0  0  0  0  0  0  0  0
   40.7699   28.7811   67.7436 H   0  0  0  0  0  0  0  0  0  0  0  0
   39.7775   29.0039   66.2171 H   0  0  0  0  0  0  0  0  0  0  0  0
   40.2382   26.9326   64.6132 H   0  0  0  0  0  0  0  0  0  0  0  0
   41.4881   27.8008   63.7083 H   0  0  0  0  0  0  0  0  0  0  0  0
   41.8803   25.2164   63.9452 H   0  0  0  0  0  0  0  0  0  0  0  0
   43.2432   26.1097   64.4502 H   0  0  0  0  0  0  0  0  0  0  0  0
   43.5610   29.2555   66.2773 H   0  0  0  0  0  0  0  0  0  0  0  0
   43.2863   28.8631   64.5567 H   0  0  0  0  0  0  0  0  0  0  0  0
  1  2  1  0
  2  3  1  0
  3  4  1  0
  5  4  1  1
  5  6  1  0
  6  7  1  0
  7  8  1  0
  8  9  1  0
  9 10  1  0
 10 11  1  0
 10 12  1  0
 12 13  1  0
 12 14  1  0
 14 15  2  0
 15 16  1  0
 16 17  2  0
 17 18  1  0
 18 19  2  0
 19 20  1  0
 20 21  2  0
 21 22  1  0
 22 23  2  0
  9 24  1  0
 24 25  1  0
 24 26  1  0
  5 27  1  0
 27 28  1  0
 28 29  1  0
 29 30  1  0
 30 31  1  0
 31 32  1  0
 32 33  1  0
 32 34  1  0
 32 35  1  0
 29 36  1  0
 36  5  1  0
 26  6  1  0
 29 35  1  1
 23 14  1  0
 23 18  1  0
  1 37  1  0
  1 38  1  0
  1 39  1  0
  2 40  1  0
  2 41  1  0
  3 42  1  0
  3 43  1  0
  4 44  1  0
  4 45  1  0
  6 46  1  1
  7 47  1  0
  7 48  1  0
  8 49  1  0
  8 50  1  0
  9 51  1  1
 10 52  1  1
 11 53  1  0
 12 54  1  1
 13 55  1  0
 13 56  1  0
 13 57  1  0
 15 58  1  0
 16 59  1  0
 17 60  1  0
 19 61  1  0
 20 62  1  0
 21 63  1  0
 22 64  1  0
 24 65  1  6
 25 66  1  0
 26 67  1  0
 26 68  1  0
 27 69  1  0
 27 70  1  0
 28 71  1  0
 28 72  1  0
 30 73  1  0
 30 74  1  0
 31 75  1  0
 31 76  1  0
 36 77  1  0
 36 78  1  0
M  CHG  1   9   1
M  END

>  <ID>
DiffSBDD_20_num_sample_50

>  <docking_score>
-10.627

$$$$
DiffSBDD_21_num_sample_50
     RDKit          3D

 47 48  0  0  0  0  0  0  0  0999 V2000
   40.1450   30.6300   50.0870 C   0  0  0  0  0  0  0  0  0  0  0  0
   39.8720   29.6670   51.0610 C   0  0  0  0  0  0  0  0  0  0  0  0
   39.7810   28.2670   50.8200 C   0  0  0  0  0  0  0  0  0  0  0  0
   39.4260   27.3130   51.8150 C   0  0  0  0  0  0  0  0  0  0  0  0
   39.1450   27.6820   53.1110 C   0  0  0  0  0  0  0  0  0  0  0  0
   38.6590   26.7230   54.2690 C   0  0  0  0  0  0  0  0  0  0  0  0
   39.6850   26.2800   55.1110 C   0  0  0  0  0  0  0  0  0  0  0  0
   39.6460   25.5450   56.2920 C   0  0  0  0  0  0  0  0  0  0  0  0
   38.5780   24.8740   56.8330 C   0  0  0  0  0  0  0  0  0  0  0  0
   37.3410   24.7800   56.3800 C   0  0  0  0  0  0  0  0  0  0  0  0
   36.7970   25.2910   55.3420 C   0  0  0  0  0  0  0  0  0  0  0  0
   37.3450   26.2490   54.4780 C   0  0  0  0  0  0  0  0  0  0  0  0
   39.2610   29.0890   53.4400 C   0  0  0  0  0  0  0  0  0  0  0  0
   39.0470   29.4150   54.7950 C   0  0  0  0  0  0  0  0  0  0  0  0
   39.9770   29.5890   55.5510 O   0  0  0  0  0  0  0  0  0  0  0  0
   37.6630   29.7860   55.1940 C   0  0  0  0  0  0  0  0  0  0  0  0
   37.4610   29.6590   56.6360 C   0  0  0  0  0  0  0  0  0  0  0  0
   37.8800   30.8420   57.3330 N   0  0  0  0  0  0  0  0  0  0  0  0
   38.1190   30.3130   58.7550 C   0  0  0  0  0  0  0  0  0  0  0  0
   37.4970   31.2850   59.6020 C   0  0  0  0  0  0  0  0  0  0  0  0
   36.8320   30.7940   60.6410 O   0  0  0  0  0  0  0  0  0  0  0  0
   37.5560   32.5640   59.3620 N   0  0  0  0  0  0  0  0  0  0  0  0
   37.5180   33.7870   58.9490 C   0  0  0  0  0  0  0  0  0  0  0  0
   37.7860   33.8620   57.6430 O   0  0  0  0  0  0  0  0  0  0  0  0
   37.1020   35.1220   59.7070 S   0  0  0  0  0  0  0  0  0  0  0  0
   39.6310   30.0500   52.3800 C   0  0  0  0  0  0  0  0  0  0  0  0
   40.4139   31.5787   50.5746 H   0  0  0  0  0  0  0  0  0  0  0  0
   40.9821   30.2899   49.4597 H   0  0  0  0  0  0  0  0  0  0  0  0
   39.2539   30.7799   49.4597 H   0  0  0  0  0  0  0  0  0  0  0  0
   39.9977   27.9010   49.8056 H   0  0  0  0  0  0  0  0  0  0  0  0
   39.3747   26.2492   51.5400 H   0  0  0  0  0  0  0  0  0  0  0  0
   40.6966   26.5611   54.7829 H   0  0  0  0  0  0  0  0  0  0  0  0
   40.4240   24.7773   56.1684 H   0  0  0  0  0  0  0  0  0  0  0  0
   39.7002   26.3778   57.0086 H   0  0  0  0  0  0  0  0  0  0  0  0
   38.7802   24.3409   57.7737 H   0  0  0  0  0  0  0  0  0  0  0  0
   36.6704   24.1622   56.9952 H   0  0  0  0  0  0  0  0  0  0  0  0
   35.7836   24.9387   55.0994 H   0  0  0  0  0  0  0  0  0  0  0  0
   36.5984   26.7306   53.8295 H   0  0  0  0  0  0  0  0  0  0  0  0
   37.4748   30.8288   54.8986 H   0  0  0  0  0  0  0  0  0  0  0  0
   36.9664   29.1001   54.6896 H   0  0  0  0  0  0  0  0  0  0  0  0
   36.3925   29.4876   56.8334 H   0  0  0  0  0  0  0  0  0  0  0  0
   38.0666   28.8141   56.9959 H   0  0  0  0  0  0  0  0  0  0  0  0
   38.7450   31.2280   56.9280 H   0  0  0  0  0  0  0  0  0  0  0  0
   37.6528   29.3255   58.8871 H   0  0  0  0  0  0  0  0  0  0  0  0
   39.1874   30.1806   58.9806 H   0  0  0  0  0  0  0  0  0  0  0  0
   38.0460   32.7890   60.2390 H   0  0  0  0  0  0  0  0  0  0  0  0
   39.7202   31.1143   52.6431 H   0  0  0  0  0  0  0  0  0  0  0  0
  1  2  1  0
  2  3  2  0
  3  4  1  0
  4  5  2  0
  5  6  1  0
  6  7  2  0
  7  8  1  0
  8  9  1  0
  9 10  2  0
 10 11  1  0
 11 12  2  0
  5 13  1  0
 13 14  1  0
 14 15  2  0
 14 16  1  0
 16 17  1  0
 17 18  1  0
 18 19  1  0
 19 20  1  0
 20 21  2  0
 20 22  1  0
 22 23  1  0
 23 24  2  0
 23 25  1  0
 13 26  2  0
 26  2  1  0
 12  6  1  0
  1 27  1  0
  1 28  1  0
  1 29  1  0
  3 30  1  0
  4 31  1  0
  7 32  1  0
  8 33  1  0
  8 34  1  0
  9 35  1  0
 10 36  1  0
 11 37  1  0
 12 38  1  0
 16 39  1  0
 16 40  1  0
 17 41  1  0
 17 42  1  0
 18 43  1  0
 19 44  1  0
 19 45  1  0
 22 46  1  0
 26 47  1  0
M  CHG  1  25  -1
M  END

>  <ID>
DiffSBDD_21_num_sample_50

>  <docking_score>
-9.959

$$$$
DiffSBDD_22_num_sample_50
     RDKit          3D

 70 72  0  0  0  0  0  0  0  0999 V2000
   37.0300   29.3590   58.5120 C   0  0  0  0  0  0  0  0  0  0  0  0
   38.2270   30.0190   58.5250 C   0  0  0  0  0  0  0  0  0  0  0  0
   38.0700   31.5090   58.0830 C   0  0  1  0  0  0  0  0  0  0  0  0
   38.5840   32.0230   56.8100 C   0  0  0  0  0  0  0  0  0  0  0  0
   37.4750   32.2890   59.1890 N   0  0  0  0  0  0  0  0  0  0  0  0
   38.0520   33.4940   59.3450 N   0  0  0  0  0  0  0  0  0  0  0  0
   36.8190   34.4140   59.9850 S   0  0  0  0  0  0  0  0  0  0  0  0
   36.1790   33.6790   60.8970 O   0  0  0  0  0  0  0  0  0  0  0  0
   35.8830   34.9390   58.9370 O   0  0  0  0  0  0  0  0  0  0  0  0
   37.7240   35.5760   60.7190 N   0  0  0  0  0  0  0  0  0  0  0  0
   38.9390   34.9980   61.3280 C   0  0  0  0  0  0  0  0  0  0  0  0
   39.9740   36.1220   61.5750 C   0  0  0  0  0  0  0  0  0  0  0  0
   39.3260   37.1870   62.4860 C   0  0  0  0  0  0  0  0  0  0  0  0
   39.9750   38.4070   62.3080 F   0  0  0  0  0  0  0  0  0  0  0  0
   37.8600   37.3950   62.3780 C   0  0  0  0  0  0  0  0  0  0  0  0
   37.2510   36.9530   61.0460 C   0  0  0  0  0  0  0  0  0  0  0  0
   39.5210   29.4320   58.1060 C   0  0  1  0  0  0  0  0  0  0  0  0
   40.3840   29.4280   59.4270 C   0  0  0  0  0  0  0  0  0  0  0  0
   39.4840   28.0960   57.4870 C   0  0  1  0  0  0  0  0  0  0  0  0
   39.5130   26.5090   58.3560 S   0  0  0  0  0  0  0  0  0  0  0  0
   39.1140   25.6590   56.9600 C   0  0  2  0  0  0  0  0  0  0  0  0
   39.1100   24.2550   57.0470 O   0  0  0  0  0  0  0  0  0  0  0  0
   37.9860   23.9910   57.3630 C   0  0  0  0  0  0  0  0  0  0  0  0
   39.2260   26.5400   56.0140 C   0  0  2  0  0  0  0  0  0  0  0  0
   40.0590   25.9700   54.8600 C   0  0  0  0  0  0  0  0  0  0  0  0
   39.2130   27.8470   56.1740 N   0  0  0  0  0  0  0  0  0  0  0  0
   38.4080   28.5340   55.3230 C   0  0  0  0  0  0  0  0  0  0  0  0
   38.8560   29.0630   53.8270 C   0  0  0  0  0  0  0  0  0  0  0  0
   38.6500   28.2150   52.7770 C   0  0  0  0  0  0  0  0  0  0  0  0
   39.1590   28.6480   51.4520 C   0  0  0  0  0  0  0  0  0  0  0  0
   39.9210   29.8270   51.2750 C   0  0  0  0  0  0  0  0  0  0  0  0
   40.7930   30.2170   49.9160 Cl  0  0  0  0  0  0  0  0  0  0  0  0
   39.9780   30.6700   52.4210 C   0  0  0  0  0  0  0  0  0  0  0  0
   39.4390   30.3200   53.6380 C   0  0  0  0  0  0  0  0  0  0  0  0
   36.9835   28.2985   58.8005 H   0  0  0  0  0  0  0  0  0  0  0  0
   36.1133   29.8884   58.2130 H   0  0  0  0  0  0  0  0  0  0  0  0
   39.0265   31.7537   58.5680 H   0  0  0  0  0  0  0  0  0  0  0  0
   39.3494   32.7884   57.0059 H   0  0  0  0  0  0  0  0  0  0  0  0
   39.0292   31.1981   56.2345 H   0  0  0  0  0  0  0  0  0  0  0  0
   37.7591   32.4682   56.2345 H   0  0  0  0  0  0  0  0  0  0  0  0
   37.5840   31.7560   60.0630 H   0  0  0  0  0  0  0  0  0  0  0  0
   38.3670   33.8740   58.4410 H   0  0  0  0  0  0  0  0  0  0  0  0
   38.6790   34.5216   62.2848 H   0  0  0  0  0  0  0  0  0  0  0  0
   39.3680   34.2457   60.6498 H   0  0  0  0  0  0  0  0  0  0  0  0
   40.8655   35.7051   62.0663 H   0  0  0  0  0  0  0  0  0  0  0  0
   40.2768   36.5747   60.6193 H   0  0  0  0  0  0  0  0  0  0  0  0
   39.4563   36.7706   63.4958 H   0  0  0  0  0  0  0  0  0  0  0  0
   37.3724   36.8266   63.1837 H   0  0  0  0  0  0  0  0  0  0  0  0
   37.6924   38.4796   62.4531 H   0  0  0  0  0  0  0  0  0  0  0  0
   36.1538   36.9553   61.1251 H   0  0  0  0  0  0  0  0  0  0  0  0
   37.5613   37.6472   60.2511 H   0  0  0  0  0  0  0  0  0  0  0  0
   39.9341   30.0350   57.2840 H   0  0  0  0  0  0  0  0  0  0  0  0
   39.7163   29.4311   60.3012 H   0  0  0  0  0  0  0  0  0  0  0  0
   41.0145   28.5269   59.4504 H   0  0  0  0  0  0  0  0  0  0  0  0
   41.0228   30.3232   59.4504 H   0  0  0  0  0  0  0  0  0  0  0  0
   40.2442   28.8319   57.7880 H   0  0  0  0  0  0  0  0  0  0  0  0
   38.2427   25.1532   56.5183 H   0  0  0  0  0  0  0  0  0  0  0  0
   37.9082   23.9727   58.4601 H   0  0  0  0  0  0  0  0  0  0  0  0
   37.3031   24.7532   56.9596 H   0  0  0  0  0  0  0  0  0  0  0  0
   37.7138   23.0045   56.9596 H   0  0  0  0  0  0  0  0  0  0  0  0
   38.1600   26.6788   55.7807 H   0  0  0  0  0  0  0  0  0  0  0  0
   40.9025   25.3928   55.2668 H   0  0  0  0  0  0  0  0  0  0  0  0
   39.4289   25.3129   54.2426 H   0  0  0  0  0  0  0  0  0  0  0  0
   40.4433   26.7953   54.2426 H   0  0  0  0  0  0  0  0  0  0  0  0
   37.5342   27.8868   55.1571 H   0  0  0  0  0  0  0  0  0  0  0  0
   38.3212   29.4916   55.8573 H   0  0  0  0  0  0  0  0  0  0  0  0
   38.1303   27.2543   52.9073 H   0  0  0  0  0  0  0  0  0  0  0  0
   38.9349   28.0273   50.5719 H   0  0  0  0  0  0  0  0  0  0  0  0
   40.4760   31.6465   52.3294 H   0  0  0  0  0  0  0  0  0  0  0  0
   39.4671   31.0372   54.4716 H   0  0  0  0  0  0  0  0  0  0  0  0
  1  2  2  0
  2  3  1  0
  3  4  1  0
  3  5  1  0
  5  6  1  0
  6  7  1  0
  7  8  2  0
  7  9  2  0
  7 10  1  0
 10 11  1  0
 11 12  1  0
 12 13  1  0
 13 14  1  0
 13 15  1  0
 15 16  1  0
  2 17  1  0
 17 18  1  0
 17 19  1  0
 19 20  1  0
 20 21  1  0
 21 22  1  0
 22 23  1  0
 21 24  1  0
 24 25  1  0
 24 26  1  0
 26 27  1  0
 27 28  1  0
 28 29  2  0
 29 30  1  0
 30 31  2  0
 31 32  1  0
 31 33  1  0
 33 34  2  0
 16 10  1  0
 26 19  1  0
 34 28  1  0
  1 35  1  0
  1 36  1  0
  3 37  1  6
  4 38  1  0
  4 39  1  0
  4 40  1  0
  5 41  1  0
  6 42  1  0
 11 43  1  0
 11 44  1  0
 12 45  1  0
 12 46  1  0
 13 47  1  0
 15 48  1  0
 15 49  1  0
 16 50  1  0
 16 51  1  0
 17 52  1  6
 18 53  1  0
 18 54  1  0
 18 55  1  0
 19 56  1  6
 21 57  1  1
 23 58  1  0
 23 59  1  0
 23 60  1  0
 24 61  1  6
 25 62  1  0
 25 63  1  0
 25 64  1  0
 27 65  1  0
 27 66  1  0
 29 67  1  0
 30 68  1  0
 33 69  1  0
 34 70  1  0
M  END

>  <ID>
DiffSBDD_22_num_sample_50

>  <docking_score>
-10.675

$$$$
DiffSBDD_23_num_sample_50
     RDKit          3D

 62 66  0  0  0  0  0  0  0  0999 V2000
   41.4220   31.6430   64.6460 N   0  0  0  0  0  0  0  0  0  0  0  0
   41.7230   32.9490   64.1880 C   0  0  0  0  0  0  0  0  0  0  0  0
   42.1990   33.8990   65.0170 C   0  0  0  0  0  0  0  0  0  0  0  0
   42.1070   35.2410   64.7480 C   0  0  0  0  0  0  0  0  0  0  0  0
   41.3810   35.5220   63.5820 C   0  0  0  0  0  0  0  0  0  0  0  0
   40.9920   36.8280   63.1120 N   0  0  0  0  0  0  0  0  0  0  0  0
   40.3150   36.8650   61.8890 C   0  0  0  0  0  0  0  0  0  0  0  0
   40.2940   35.3210   61.2460 S   0  0  0  0  0  0  0  0  0  0  0  0
   41.0250   34.5660   62.6330 C   0  0  0  0  0  0  0  0  0  0  0  0
   41.5250   33.2410   62.7930 C   0  0  1  0  0  0  0  0  0  0  0  0
   41.6910   32.3090   61.9080 N   0  0  0  0  0  0  0  0  0  0  0  0
   40.9960   31.1990   61.7420 N   0  0  0  0  0  0  0  0  0  0  0  0
   39.5220   31.2540   61.3020 S   0  0  0  0  0  0  0  0  0  0  0  0
   39.1760   32.2490   60.2800 O   0  0  0  0  0  0  0  0  0  0  0  0
   38.5220   31.1610   62.3250 O   0  0  0  0  0  0  0  0  0  0  0  0
   39.3280   29.7330   60.5990 N   0  0  0  0  0  0  0  0  0  0  0  0
   40.5480   28.8970   60.5040 C   0  0  0  0  0  0  0  0  0  0  0  0
   40.6030   28.1650   59.2840 C   0  0  0  0  0  0  0  0  0  0  0  0
   39.5050   28.1280   58.6260 O   0  0  0  0  0  0  0  0  0  0  0  0
   38.4110   29.0010   58.3620 C   0  0  1  0  0  0  0  0  0  0  0  0
   36.7550   28.7760   57.4480 S   0  0  0  0  0  0  0  0  0  0  0  0
   37.9130   29.1140   55.9190 C   0  0  0  0  0  0  0  0  0  0  0  0
   37.9080   27.7690   55.3040 C   0  0  0  0  0  0  0  0  0  0  0  0
   38.4110   27.3650   54.1820 C   0  0  0  0  0  0  0  0  0  0  0  0
   38.9850   28.3440   53.2300 C   0  0  0  0  0  0  0  0  0  0  0  0
   39.1260   29.6540   53.6910 C   0  0  0  0  0  0  0  0  0  0  0  0
   38.5070   29.9910   54.9600 C   0  0  0  0  0  0  0  0  0  0  0  0
   40.0340   30.5860   52.8110 C   0  0  0  0  0  0  0  0  0  0  0  0
   40.1580   30.4510   51.4540 C   0  0  0  0  0  0  0  0  0  0  0  0
   40.0270   29.5150   50.4820 C   0  0  0  0  0  0  0  0  0  0  0  0
   40.1000   29.6270   49.1700 O   0  0  0  0  0  0  0  0  0  0  0  0
   39.8910   28.2480   50.9230 N   0  0  0  0  0  0  0  0  0  0  0  0
   39.3940   27.9730   52.1400 C   0  0  0  0  0  0  0  0  0  0  0  0
   38.1720   29.6100   59.7370 C   0  0  2  0  0  0  0  0  0  0  0  0
   36.6780   30.4360   59.7240 Cl  0  0  0  0  0  0  0  0  0  0  0  0
   41.8030   30.9510   63.9850 H   0  0  0  0  0  0  0  0  0  0  0  0
   41.8450   31.4990   65.5740 H   0  0  0  0  0  0  0  0  0  0  0  0
   40.4010   31.5290   64.7130 H   0  0  0  0  0  0  0  0  0  0  0  0
   40.6945   33.2658   64.4155 H   0  0  0  0  0  0  0  0  0  0  0  0
   41.6860   33.7469   65.9781 H   0  0  0  0  0  0  0  0  0  0  0  0
   43.2838   33.7336   64.9405 H   0  0  0  0  0  0  0  0  0  0  0  0
   41.6104   35.7344   65.5965 H   0  0  0  0  0  0  0  0  0  0  0  0
   43.1301   35.6144   64.5940 H   0  0  0  0  0  0  0  0  0  0  0  0
   39.8709   37.7592   61.4274 H   0  0  0  0  0  0  0  0  0  0  0  0
   40.5039   32.8786   62.9831 H   0  0  0  0  0  0  0  0  0  0  0  0
   41.6180   32.7960   61.0030 H   0  0  0  0  0  0  0  0  0  0  0  0
   41.0160   30.7030   62.6440 H   0  0  0  0  0  0  0  0  0  0  0  0
   41.4310   29.5501   60.5657 H   0  0  0  0  0  0  0  0  0  0  0  0
   40.5276   28.1733   61.3322 H   0  0  0  0  0  0  0  0  0  0  0  0
   41.3695   28.6259   58.6436 H   0  0  0  0  0  0  0  0  0  0  0  0
   40.8322   27.1249   59.5591 H   0  0  0  0  0  0  0  0  0  0  0  0
   38.7952   29.4936   57.4566 H   0  0  0  0  0  0  0  0  0  0  0  0
   37.3976   26.9914   55.8912 H   0  0  0  0  0  0  0  0  0  0  0  0
   38.4123   26.2931   53.9350 H   0  0  0  0  0  0  0  0  0  0  0  0
   38.4935   31.0605   55.2167 H   0  0  0  0  0  0  0  0  0  0  0  0
   39.6688   31.6097   52.9801 H   0  0  0  0  0  0  0  0  0  0  0  0
   41.0385   30.2933   53.1506 H   0  0  0  0  0  0  0  0  0  0  0  0
   39.4699   31.2310   51.0961 H   0  0  0  0  0  0  0  0  0  0  0  0
   41.2446   30.2942   51.5226 H   0  0  0  0  0  0  0  0  0  0  0  0
   40.1770   27.4700   50.3110 H   0  0  0  0  0  0  0  0  0  0  0  0
   39.3178   26.8761   52.1704 H   0  0  0  0  0  0  0  0  0  0  0  0
   37.9300   29.1030   60.6827 H   0  0  0  0  0  0  0  0  0  0  0  0
  1  2  1  0
  2  3  1  0
  3  4  1  0
  4  5  1  0
  5  6  1  0
  6  7  2  0
  7  8  1  0
  8  9  1  0
  9 10  1  0
 10 11  1  0
 11 12  1  0
 12 13  1  0
 13 14  2  0
 13 15  2  0
 13 16  1  0
 16 17  1  0
 17 18  1  0
 18 19  1  0
 19 20  1  0
 20 21  1  0
 21 22  1  0
 22 23  2  0
 23 24  1  0
 24 25  2  0
 25 26  1  0
 26 27  2  0
 26 28  1  0
 28 29  1  0
 29 30  1  0
 30 31  2  0
 30 32  1  0
 32 33  2  0
 20 34  1  0
 34 35  1  0
 10  2  1  0
 34 16  1  0
  9  5  2  0
 27 22  1  0
 33 25  1  0
  1 36  1  0
  1 37  1  0
  1 38  1  0
  2 39  1  0
  3 40  1  0
  3 41  1  0
  4 42  1  0
  4 43  1  0
  7 44  1  0
 10 45  1  6
 11 46  1  0
 12 47  1  0
 17 48  1  0
 17 49  1  0
 18 50  1  0
 18 51  1  0
 20 52  1  6
 23 53  1  0
 24 54  1  0
 27 55  1  0
 28 56  1  0
 28 57  1  0
 29 58  1  0
 29 59  1  0
 32 60  1  0
 33 61  1  0
 34 62  1  1
M  CHG  2   1   1  32   1
M  END

>  <ID>
DiffSBDD_23_num_sample_50

>  <docking_score>
-10.541

$$$$
DiffSBDD_24_num_sample_50
     RDKit          3D

 72 75  0  0  0  0  0  0  0  0999 V2000
   38.7450   31.3720   57.3690 C   0  0  0  0  0  0  0  0  0  0  0  0
   38.0050   30.3600   57.7340 C   0  0  0  0  0  0  0  0  0  0  0  0
   37.3880   30.1780   59.1050 C   0  0  0  0  0  0  0  0  0  0  0  0
   38.5080   30.0630   59.9970 N   0  0  2  0  0  0  0  0  0  0  0  0
   38.9020   28.6510   60.2860 C   0  0  0  0  0  0  0  0  0  0  0  0
   39.8960   28.8020   61.5420 C   0  0  0  0  0  0  0  0  0  0  0  0
   39.5530   29.7970   62.1010 C   0  0  1  0  0  0  0  0  0  0  0  0
   40.8100   30.3010   62.5200 N   0  0  0  0  0  0  0  0  0  0  0  0
   41.2990   30.2580   63.7930 C   0  0  0  0  0  0  0  0  0  0  0  0
   42.4980   30.4160   64.5360 C   0  0  2  0  0  0  0  0  0  0  0  0
   42.5310   31.9460   64.8450 C   0  0  0  0  0  0  0  0  0  0  0  0
   43.7850   29.9780   64.0860 O   0  0  0  0  0  0  0  0  0  0  0  0
   44.1370   28.3490   64.3140 S   0  0  0  0  0  0  0  0  0  0  0  0
   45.4810   28.1660   64.1210 O   0  0  0  0  0  0  0  0  0  0  0  0
   43.2650   27.3390   63.8550 O   0  0  0  0  0  0  0  0  0  0  0  0
   43.9940   28.2290   65.9020 C   0  0  0  0  0  0  0  0  0  0  0  0
   42.8540   28.8300   66.5650 C   0  0  0  0  0  0  0  0  0  0  0  0
   41.6620   29.2840   65.6000 P   0  0  0  0  0  0  0  0  0  0  0  0
   41.0590   27.8260   65.2130 O   0  0  0  0  0  0  0  0  0  0  0  0
   38.4030   30.7560   61.4300 C   0  0  1  0  0  0  0  0  0  0  0  0
   38.8240   32.3240   61.2680 C   0  0  0  0  0  0  0  0  0  0  0  0
   37.7490   29.2380   56.7340 C   0  0  1  0  0  0  0  0  0  0  0  0
   37.4620   29.6430   55.3470 N   0  0  0  0  0  0  0  0  0  0  0  0
   38.2480   29.6540   54.0430 C   0  0  0  0  0  0  0  0  0  0  0  0
   39.1550   30.6430   53.6660 C   0  0  0  0  0  0  0  0  0  0  0  0
   39.8770   30.4930   52.5200 C   0  0  0  0  0  0  0  0  0  0  0  0
   39.7080   29.3560   51.6170 C   0  0  0  0  0  0  0  0  0  0  0  0
   40.3770   29.2110   50.5410 F   0  0  0  0  0  0  0  0  0  0  0  0
   38.7800   28.4270   52.0190 C   0  0  0  0  0  0  0  0  0  0  0  0
   38.7300   27.2900   51.1320 O   0  0  0  0  0  0  0  0  0  0  0  0
   38.0270   28.5220   53.1270 C   0  0  0  0  0  0  0  0  0  0  0  0
   37.0200   27.2210   53.5900 Cl  0  0  0  0  0  0  0  0  0  0  0  0
   38.8670   28.2160   56.9640 C   0  0  1  0  0  0  0  0  0  0  0  0
   38.5290   26.7600   56.6220 C   0  0  0  0  0  0  0  0  0  0  0  0
   39.7730   26.3720   55.9730 C   0  0  0  0  0  0  0  0  0  0  0  0
   40.7510   27.0970   56.6380 O   0  0  0  0  0  0  0  0  0  0  0  0
   40.1670   28.2930   56.4190 C   0  0  0  0  0  0  0  0  0  0  0  0
   39.1504   31.4167   56.3474 H   0  0  0  0  0  0  0  0  0  0  0  0
   38.9630   32.1798   58.0831 H   0  0  0  0  0  0  0  0  0  0  0  0
   36.7687   31.0476   59.3701 H   0  0  0  0  0  0  0  0  0  0  0  0
   36.7278   29.2994   59.1508 H   0  0  0  0  0  0  0  0  0  0  0  0
   39.2030   30.5760   59.4360 H   0  0  0  0  0  0  0  0  0  0  0  0
   38.0245   28.0414   60.5474 H   0  0  0  0  0  0  0  0  0  0  0  0
   39.3647   28.1455   59.4256 H   0  0  0  0  0  0  0  0  0  0  0  0
   39.8045   27.9339   62.2113 H   0  0  0  0  0  0  0  0  0  0  0  0
   40.9484   28.8532   61.2260 H   0  0  0  0  0  0  0  0  0  0  0  0
   38.8657   29.6446   62.9462 H   0  0  0  0  0  0  0  0  0  0  0  0
   41.4060   30.7360   61.8010 H   0  0  0  0  0  0  0  0  0  0  0  0
   40.4781   30.0169   64.4843 H   0  0  0  0  0  0  0  0  0  0  0  0
   42.5343   32.1001   65.9341 H   0  0  0  0  0  0  0  0  0  0  0  0
   43.4389   32.3886   64.4093 H   0  0  0  0  0  0  0  0  0  0  0  0
   41.6430   32.4273   64.4093 H   0  0  0  0  0  0  0  0  0  0  0  0
   45.6530   27.9660   63.1660 H   0  0  0  0  0  0  0  0  0  0  0  0
   43.3090   27.2880   62.8670 H   0  0  0  0  0  0  0  0  0  0  0  0
   44.7560   27.6937   66.4875 H   0  0  0  0  0  0  0  0  0  0  0  0
   42.8115   28.9646   67.6559 H   0  0  0  0  0  0  0  0  0  0  0  0
   41.8000   27.2150   64.9740 H   0  0  0  0  0  0  0  0  0  0  0  0
   37.4503   30.8098   61.9773 H   0  0  0  0  0  0  0  0  0  0  0  0
   38.9453   32.7758   62.2636 H   0  0  0  0  0  0  0  0  0  0  0  0
   39.7727   32.3938   60.7156 H   0  0  0  0  0  0  0  0  0  0  0  0
   38.0378   32.8596   60.7156 H   0  0  0  0  0  0  0  0  0  0  0  0
   36.7754   28.7617   56.9217 H   0  0  0  0  0  0  0  0  0  0  0  0
   36.5030   30.0040   55.2320 H   0  0  0  0  0  0  0  0  0  0  0  0
   39.2872   31.5393   54.2899 H   0  0  0  0  0  0  0  0  0  0  0  0
   40.6203   31.2620   52.2630 H   0  0  0  0  0  0  0  0  0  0  0  0
   38.9076   28.5321   58.0168 H   0  0  0  0  0  0  0  0  0  0  0  0
   38.3323   26.1615   57.5237 H   0  0  0  0  0  0  0  0  0  0  0  0
   37.6211   26.6192   56.0172 H   0  0  0  0  0  0  0  0  0  0  0  0
   39.9481   25.2915   56.0819 H   0  0  0  0  0  0  0  0  0  0  0  0
   39.7628   26.5758   54.8921 H   0  0  0  0  0  0  0  0  0  0  0  0
   40.7393   29.0907   56.9150 H   0  0  0  0  0  0  0  0  0  0  0  0
   40.1322   28.5253   55.3444 H   0  0  0  0  0  0  0  0  0  0  0  0
  1  2  2  0
  2  3  1  0
  3  4  1  0
  4  5  1  0
  5  6  1  0
  6  7  1  0
  7  8  1  0
  8  9  2  3
  9 10  1  0
 10 11  1  1
 10 12  1  0
 12 13  1  0
 13 14  1  0
 13 15  1  0
 13 16  1  0
 16 17  2  0
 17 18  1  0
 18 19  1  0
  7 20  1  0
 20 21  1  0
  2 22  1  0
 22 23  1  0
 23 24  1  0
 24 25  2  0
 25 26  1  0
 26 27  2  0
 27 28  1  0
 27 29  1  0
 29 30  1  0
 29 31  2  0
 31 32  1  0
 22 33  1  0
 33 34  1  0
 34 35  1  0
 35 36  1  0
 36 37  1  0
 20  4  1  0
 31 24  1  0
 37 33  1  0
 18 10  1  0
  1 38  1  0
  1 39  1  0
  3 40  1  0
  3 41  1  0
  4 42  1  6
  5 43  1  0
  5 44  1  0
  6 45  1  0
  6 46  1  0
  7 47  1  1
  8 48  1  0
  9 49  1  0
 11 50  1  0
 11 51  1  0
 11 52  1  0
 14 53  1  0
 15 54  1  0
 16 55  1  0
 17 56  1  0
 19 57  1  0
 20 58  1  1
 21 59  1  0
 21 60  1  0
 21 61  1  0
 22 62  1  1
 23 63  1  0
 25 64  1  0
 26 65  1  0
 33 66  1  1
 34 67  1  0
 34 68  1  0
 35 69  1  0
 35 70  1  0
 37 71  1  0
 37 72  1  0
M  CHG  3   4   1   8   1  30  -1
M  END

>  <ID>
DiffSBDD_24_num_sample_50

>  <docking_score>
-9.85

$$$$
DiffSBDD_25_num_sample_50
     RDKit          3D

 60 61  0  0  0  0  0  0  0  0999 V2000
   41.7200   27.8400   57.9270 C   0  0  0  0  0  0  0  0  0  0  0  0
   40.4290   28.5210   57.5400 C   0  0  0  0  0  0  0  0  0  0  0  0
   39.2770   28.1300   58.3410 C   0  0  1  0  0  0  0  0  0  0  0  0
   38.2840   29.2120   58.5710 C   0  0  0  0  0  0  0  0  0  0  0  0
   38.9200   30.3180   59.2470 C   0  0  0  0  0  0  0  0  0  0  0  0
   38.2040   31.6700   59.1710 C   0  0  2  0  0  0  0  0  0  0  0  0
   36.7900   31.9860   59.6460 N   0  0  0  0  0  0  0  0  0  0  0  0
   38.3500   32.6840   57.8660 C   0  0  2  0  0  0  0  0  0  0  0  0
   37.5220   33.8450   58.2740 O   0  0  0  0  0  0  0  0  0  0  0  0
   37.9630   32.3090   56.5580 N   0  0  0  0  0  0  0  0  0  0  0  0
   38.9950   31.3940   55.7290 C   0  0  0  0  0  0  0  0  0  0  0  0
   38.5010   30.7850   54.4570 C   0  0  0  0  0  0  0  0  0  0  0  0
   39.4350   29.6740   53.9230 C   0  0  0  0  0  0  0  0  0  0  0  0
   38.9870   29.2360   52.5060 C   0  0  1  0  0  0  0  0  0  0  0  0
   39.9630   29.6170   51.4620 C   0  0  0  0  0  0  0  0  0  0  0  0
   39.8090   28.4140   50.4550 C   0  0  0  0  0  0  0  0  0  0  0  0
   39.1330   27.3090   51.1650 N   0  0  0  0  0  0  0  0  0  0  0  0
   38.9270   27.6630   52.5230 C   0  0  0  0  0  0  0  0  0  0  0  0
   38.7260   26.8370   57.6710 C   0  0  0  0  0  0  0  0  0  0  0  0
   38.1640   27.0030   56.3530 C   0  0  0  0  0  0  0  0  0  0  0  0
   37.5170   25.9990   55.6550 C   0  0  0  0  0  0  0  0  0  0  0  0
   37.4780   24.7470   56.2860 C   0  0  0  0  0  0  0  0  0  0  0  0
   36.6620   23.5370   55.3170 Cl  0  0  0  0  0  0  0  0  0  0  0  0
   38.0660   24.4520   57.5510 C   0  0  0  0  0  0  0  0  0  0  0  0
   38.6500   25.4770   58.2260 C   0  0  0  0  0  0  0  0  0  0  0  0
   41.7984   27.7986   59.0234 H   0  0  0  0  0  0  0  0  0  0  0  0
   41.7320   26.8182   57.5197 H   0  0  0  0  0  0  0  0  0  0  0  0
   42.5701   28.4070   57.5197 H   0  0  0  0  0  0  0  0  0  0  0  0
   40.5683   29.6070   57.6454 H   0  0  0  0  0  0  0  0  0  0  0  0
   40.2106   28.2141   56.5065 H   0  0  0  0  0  0  0  0  0  0  0  0
   39.5680   27.9210   59.3810 H   0  0  0  0  0  0  0  0  0  0  0  0
   37.8851   29.5542   57.6047 H   0  0  0  0  0  0  0  0  0  0  0  0
   37.4625   28.8274   59.1933 H   0  0  0  0  0  0  0  0  0  0  0  0
   39.0152   30.0498   60.3095 H   0  0  0  0  0  0  0  0  0  0  0  0
   39.8768   30.4662   58.7250 H   0  0  0  0  0  0  0  0  0  0  0  0
   38.9234   31.7942   59.9939 H   0  0  0  0  0  0  0  0  0  0  0  0
   36.8110   32.2380   60.6440 H   0  0  0  0  0  0  0  0  0  0  0  0
   36.4120   32.7740   59.1010 H   0  0  0  0  0  0  0  0  0  0  0  0
   36.1900   31.1590   59.5130 H   0  0  0  0  0  0  0  0  0  0  0  0
   39.4325   32.7941   57.7047 H   0  0  0  0  0  0  0  0  0  0  0  0
   37.5690   34.5450   57.5750 H   0  0  0  0  0  0  0  0  0  0  0  0
   37.0640   32.6080   56.1550 H   0  0  0  0  0  0  0  0  0  0  0  0
   40.0221   31.2238   56.0842 H   0  0  0  0  0  0  0  0  0  0  0  0
   37.5064   30.3513   54.6379 H   0  0  0  0  0  0  0  0  0  0  0  0
   38.4667   31.5818   53.6994 H   0  0  0  0  0  0  0  0  0  0  0  0
   40.4654   30.0563   53.8767 H   0  0  0  0  0  0  0  0  0  0  0  0
   39.3867   28.8078   54.5992 H   0  0  0  0  0  0  0  0  0  0  0  0
   38.0266   29.7198   52.2745 H   0  0  0  0  0  0  0  0  0  0  0  0
   39.6977   30.5750   50.9909 H   0  0  0  0  0  0  0  0  0  0  0  0
   40.9873   29.7707   51.8325 H   0  0  0  0  0  0  0  0  0  0  0  0
   39.2059   28.7262   49.5897 H   0  0  0  0  0  0  0  0  0  0  0  0
   40.7958   28.0892   50.0934 H   0  0  0  0  0  0  0  0  0  0  0  0
   39.7200   26.4630   51.1180 H   0  0  0  0  0  0  0  0  0  0  0  0
   38.2230   27.1250   50.7190 H   0  0  0  0  0  0  0  0  0  0  0  0
   37.9468   27.3107   52.8768 H   0  0  0  0  0  0  0  0  0  0  0  0
   39.6681   27.2133   53.2001 H   0  0  0  0  0  0  0  0  0  0  0  0
   38.2555   27.9887   55.8733 H   0  0  0  0  0  0  0  0  0  0  0  0
   37.0623   26.1715   54.6684 H   0  0  0  0  0  0  0  0  0  0  0  0
   38.0477   23.4331   57.9651 H   0  0  0  0  0  0  0  0  0  0  0  0
   39.0798   25.2831   59.2198 H   0  0  0  0  0  0  0  0  0  0  0  0
  1  2  1  0
  2  3  1  0
  3  4  1  0
  4  5  1  0
  5  6  1  0
  6  7  1  0
  6  8  1  0
  8  9  1  0
  8 10  1  0
 10 11  2  3
 11 12  1  0
 12 13  1  0
 13 14  1  0
 14 15  1  0
 15 16  1  0
 16 17  1  0
 17 18  1  0
  3 19  1  0
 19 20  2  0
 20 21  1  0
 21 22  2  0
 22 23  1  0
 22 24  1  0
 24 25  2  0
 18 14  1  0
 25 19  1  0
  1 26  1  0
  1 27  1  0
  1 28  1  0
  2 29  1  0
  2 30  1  0
  3 31  1  1
  4 32  1  0
  4 33  1  0
  5 34  1  0
  5 35  1  0
  6 36  1  1
  7 37  1  0
  7 38  1  0
  7 39  1  0
  8 40  1  6
  9 41  1  0
 10 42  1  0
 11 43  1  0
 12 44  1  0
 12 45  1  0
 13 46  1  0
 13 47  1  0
 14 48  1  6
 15 49  1  0
 15 50  1  0
 16 51  1  0
 16 52  1  0
 17 53  1  0
 17 54  1  0
 18 55  1  0
 18 56  1  0
 20 57  1  0
 21 58  1  0
 24 59  1  0
 25 60  1  0
M  CHG  3   7   1  10   1  17   1
M  END

>  <ID>
DiffSBDD_25_num_sample_50

>  <docking_score>
-8.33

$$$$
DiffSBDD_26_num_sample_50
     RDKit          3D

 97103  0  0  0  0  0  0  0  0999 V2000
   37.2120   25.9110   54.6800 C   0  0  0  0  0  0  0  0  0  0  0  0
   37.9080   27.1910   54.9040 C   0  0  0  0  0  0  0  0  0  0  0  0
   37.8310   28.1600   53.7180 C   0  0  0  0  0  0  0  0  0  0  0  0
   36.9350   28.1030   52.6230 O   0  0  0  0  0  0  0  0  0  0  0  0
   38.6720   29.2970   53.7060 C   0  0  0  0  0  0  0  0  0  0  0  0
   39.4130   29.5600   54.9140 C   0  0  0  0  0  0  0  0  0  0  0  0
   39.2690   28.8110   56.0910 C   0  0  0  0  0  0  0  0  0  0  0  0
   38.4120   27.6700   56.1370 C   0  0  0  0  0  0  0  0  0  0  0  0
   37.8770   27.2130   57.4840 C   0  0  0  0  0  0  0  0  0  0  0  0
   38.7310   27.7860   58.5970 C   0  0  0  0  0  0  0  0  0  0  0  0
   39.0090   29.2200   58.3170 N   0  0  2  0  0  0  0  0  0  0  0  0
   38.0390   30.3420   58.4130 C   0  0  0  0  0  0  0  0  0  0  0  0
   38.6440   31.5500   59.0510 C   0  0  0  0  0  0  0  0  0  0  0  0
   38.0730   31.5190   60.3860 N   0  0  2  0  0  0  0  0  0  0  0  0
   36.6580   31.8070   60.3840 C   0  0  0  0  0  0  0  0  0  0  0  0
   36.3610   33.2990   60.4930 C   0  0  0  0  0  0  0  0  0  0  0  0
   36.6960   34.6370   60.6540 C   0  0  2  0  0  0  0  0  0  0  0  0
   36.7400   35.1620   61.8710 C   0  0  0  0  0  0  0  0  0  0  0  0
   36.7880   36.5100   61.9530 C   0  0  1  0  0  0  0  0  0  0  0  0
   36.3830   37.2340   63.1620 C   0  0  0  0  0  0  0  0  0  0  0  0
   35.6480   38.3940   62.7170 O   0  0  0  0  0  0  0  0  0  0  0  0
   37.1830   37.1860   60.7720 C   0  0  0  0  0  0  0  0  0  0  0  0
   37.1940   35.9000   59.6020 S   0  0  0  0  0  0  0  0  0  0  0  0
   38.9110   31.4280   61.7430 C   0  0  1  0  0  0  0  0  0  0  0  0
   39.2360   29.9150   61.7260 C   0  0  0  0  0  0  0  0  0  0  0  0
   40.5490   29.5910   62.3550 C   0  0  0  0  0  0  0  0  0  0  0  0
   40.9020   30.1340   63.6500 C   0  0  1  0  0  0  0  0  0  0  0  0
   41.9030   29.1630   64.4100 C   0  0  0  0  0  0  0  0  0  0  0  0
   43.1410   29.8260   64.9320 C   0  0  0  0  0  0  0  0  0  0  0  0
   44.3570   29.5140   64.2200 C   0  0  0  0  0  0  0  0  0  0  0  0
   45.3750   30.1400   64.9810 N   0  0  0  0  0  0  0  0  0  0  0  0
   44.8870   30.7630   65.9960 C   0  0  0  0  0  0  0  0  0  0  0  0
   45.5660   31.4810   66.9050 N   0  0  0  0  0  0  0  0  0  0  0  0
   43.5170   30.6480   65.9850 N   0  0  0  0  0  0  0  0  0  0  0  0
   42.9960   31.3910   67.1740 C   0  0  0  0  0  0  0  0  0  0  0  0
   41.9310   27.7540   63.8820 C   0  0  0  0  0  0  0  0  0  0  0  0
   41.5000   27.9440   65.2480 C   0  0  0  0  0  0  0  0  0  0  0  0
   40.4390   31.5540   63.7930 C   0  0  0  0  0  0  0  0  0  0  0  0
   40.4930   32.1400   64.8500 O   0  0  0  0  0  0  0  0  0  0  0  0
   39.8980   32.2350   62.6740 N   0  0  0  0  0  0  0  0  0  0  0  0
   40.1990   33.6570   62.4480 C   0  0  0  0  0  0  0  0  0  0  0  0
   41.5270   33.9550   61.8700 C   0  0  0  0  0  0  0  0  0  0  0  0
   40.3030   34.4000   61.1970 C   0  0  0  0  0  0  0  0  0  0  0  0
   39.9330   29.2540   57.2660 C   0  0  0  0  0  0  0  0  0  0  0  0
   36.9636   25.4542   55.6493 H   0  0  0  0  0  0  0  0  0  0  0  0
   36.2875   26.0909   54.1118 H   0  0  0  0  0  0  0  0  0  0  0  0
   37.8656   25.2328   54.1118 H   0  0  0  0  0  0  0  0  0  0  0  0
   35.9790   28.3240   52.7540 H   0  0  0  0  0  0  0  0  0  0  0  0
   38.7561   29.9460   52.8219 H   0  0  0  0  0  0  0  0  0  0  0  0
   40.1306   30.3937   54.9127 H   0  0  0  0  0  0  0  0  0  0  0  0
   36.8405   27.5618   57.6026 H   0  0  0  0  0  0  0  0  0  0  0  0
   37.9064   26.1145   57.5326 H   0  0  0  0  0  0  0  0  0  0  0  0
   38.1959   27.6958   59.5539 H   0  0  0  0  0  0  0  0  0  0  0  0
   39.6795   27.2320   58.6551 H   0  0  0  0  0  0  0  0  0  0  0  0
   39.3390   29.5600   59.2320 H   0  0  0  0  0  0  0  0  0  0  0  0
   37.7005   30.6068   57.4004 H   0  0  0  0  0  0  0  0  0  0  0  0
   37.1973   30.0117   59.0395 H   0  0  0  0  0  0  0  0  0  0  0  0
   39.7408   31.4741   59.0858 H   0  0  0  0  0  0  0  0  0  0  0  0
   38.4373   32.4835   58.5070 H   0  0  0  0  0  0  0  0  0  0  0  0
   38.4150   30.6280   60.7730 H   0  0  0  0  0  0  0  0  0  0  0  0
   36.2233   31.4292   59.4468 H   0  0  0  0  0  0  0  0  0  0  0  0
   36.2176   31.3153   61.2639 H   0  0  0  0  0  0  0  0  0  0  0  0
   35.8231   33.4039   59.5392 H   0  0  0  0  0  0  0  0  0  0  0  0
   36.4314   33.1919   61.5855 H   0  0  0  0  0  0  0  0  0  0  0  0
   37.7579   34.3615   60.7345 H   0  0  0  0  0  0  0  0  0  0  0  0
   35.8412   34.8279   62.4100 H   0  0  0  0  0  0  0  0  0  0  0  0
   37.6915   34.8141   62.2996 H   0  0  0  0  0  0  0  0  0  0  0  0
   35.7578   36.5699   61.5721 H   0  0  0  0  0  0  0  0  0  0  0  0
   35.7435   36.5968   63.7905 H   0  0  0  0  0  0  0  0  0  0  0  0
   37.2567   37.5232   63.7645 H   0  0  0  0  0  0  0  0  0  0  0  0
   34.8960   38.5660   63.3370 H   0  0  0  0  0  0  0  0  0  0  0  0
   36.4594   37.9681   60.4987 H   0  0  0  0  0  0  0  0  0  0  0  0
   38.1461   37.7096   60.8630 H   0  0  0  0  0  0  0  0  0  0  0  0
   38.3228   32.2034   62.2556 H   0  0  0  0  0  0  0  0  0  0  0  0
   38.4448   29.3809   62.2726 H   0  0  0  0  0  0  0  0  0  0  0  0
   39.2915   29.6035   60.6725 H   0  0  0  0  0  0  0  0  0  0  0  0
   40.5894   28.4960   62.4518 H   0  0  0  0  0  0  0  0  0  0  0  0
   41.2703   30.0759   61.6808 H   0  0  0  0  0  0  0  0  0  0  0  0
   40.6442   30.2664   64.7111 H   0  0  0  0  0  0  0  0  0  0  0  0
   44.4680   28.9250   63.2976 H   0  0  0  0  0  0  0  0  0  0  0  0
   46.3780   30.1020   64.7510 H   0  0  0  0  0  0  0  0  0  0  0  0
   45.5080   32.5090   66.8960 H   0  0  0  0  0  0  0  0  0  0  0  0
   46.1460   31.0040   67.6100 H   0  0  0  0  0  0  0  0  0  0  0  0
   43.3416   30.8981   68.0947 H   0  0  0  0  0  0  0  0  0  0  0  0
   43.3670   32.4263   67.1509 H   0  0  0  0  0  0  0  0  0  0  0  0
   41.8962   31.3950   67.1509 H   0  0  0  0  0  0  0  0  0  0  0  0
   41.2000   27.4453   63.1202 H   0  0  0  0  0  0  0  0  0  0  0  0
   42.7047   27.1335   63.4061 H   0  0  0  0  0  0  0  0  0  0  0  0
   40.4448   27.7880   65.5167 H   0  0  0  0  0  0  0  0  0  0  0  0
   41.8107   27.5369   66.2215 H   0  0  0  0  0  0  0  0  0  0  0  0
   39.5803   33.8640   63.3337 H   0  0  0  0  0  0  0  0  0  0  0  0
   42.1878   34.6886   62.3550 H   0  0  0  0  0  0  0  0  0  0  0  0
   42.4050   33.3588   61.5810 H   0  0  0  0  0  0  0  0  0  0  0  0
   40.0492   35.4700   61.1725 H   0  0  0  0  0  0  0  0  0  0  0  0
   39.8869   34.2752   60.1864 H   0  0  0  0  0  0  0  0  0  0  0  0
   40.3006   30.2810   57.1237 H   0  0  0  0  0  0  0  0  0  0  0  0
   40.7934   28.6060   57.4891 H   0  0  0  0  0  0  0  0  0  0  0  0
  1  2  1  0
  2  3  2  0
  3  4  1  0
  3  5  1  0
  5  6  2  0
  6  7  1  0
  7  8  2  0
  8  9  1  0
  9 10  1  0
 10 11  1  0
 11 12  1  0
 12 13  1  0
 13 14  1  0
 14 15  1  0
 15 16  1  0
 16 17  1  0
 17 18  1  0
 18 19  1  0
 19 20  1  0
 20 21  1  0
 19 22  1  0
 22 23  1  0
 14 24  1  0
 24 25  1  0
 25 26  1  0
 26 27  1  0
 27 28  1  0
 28 29  1  0
 29 30  2  0
 30 31  1  0
 31 32  2  0
 32 33  1  0
 32 34  1  0
 34 35  1  0
 28 36  1  0
 36 37  1  0
 27 38  1  0
 38 39  2  0
 38 40  1  0
 40 41  1  0
 41 42  1  0
 42 43  1  0
 11 44  1  0
  8  2  1  0
 23 17  1  0
 40 24  1  0
 43 41  1  0
 44  7  1  0
 37 28  1  0
 34 29  1  0
  1 45  1  0
  1 46  1  0
  1 47  1  0
  4 48  1  0
  5 49  1  0
  6 50  1  0
  9 51  1  0
  9 52  1  0
 10 53  1  0
 10 54  1  0
 11 55  1  1
 12 56  1  0
 12 57  1  0
 13 58  1  0
 13 59  1  0
 14 60  1  6
 15 61  1  0
 15 62  1  0
 16 63  1  0
 16 64  1  0
 17 65  1  6
 18 66  1  0
 18 67  1  0
 19 68  1  1
 20 69  1  0
 20 70  1  0
 21 71  1  0
 22 72  1  0
 22 73  1  0
 24 74  1  1
 25 75  1  0
 25 76  1  0
 26 77  1  0
 26 78  1  0
 27 79  1  1
 30 80  1  0
 31 81  1  0
 33 82  1  0
 33 83  1  0
 35 84  1  0
 35 85  1  0
 35 86  1  0
 36 87  1  0
 36 88  1  0
 37 89  1  0
 37 90  1  0
 41 91  1  0
 42 92  1  0
 42 93  1  0
 43 94  1  0
 43 95  1  0
 44 96  1  0
 44 97  1  0
M  CHG  3  11   1  14   1  31   1
M  END

>  <ID>
DiffSBDD_26_num_sample_50

>  <docking_score>
-10.465

$$$$
DiffSBDD_27_num_sample_50
     RDKit          3D

 63 65  0  0  0  0  0  0  0  0999 V2000
   39.8350   29.3700   55.7700 C   0  0  0  0  0  0  0  0  0  0  0  0
   39.2130   28.3340   55.9980 C   0  0  0  0  0  0  0  0  0  0  0  0
   38.4770   27.0000   55.9940 C   0  0  1  0  0  0  0  0  0  0  0  0
   37.6010   26.3110   54.9690 C   0  0  0  0  0  0  0  0  0  0  0  0
   36.9060   26.8730   54.1050 O   0  0  0  0  0  0  0  0  0  0  0  0
   37.7070   24.8780   55.1000 C   0  0  0  0  0  0  0  0  0  0  0  0
   37.3440   24.4810   56.4400 C   0  0  0  0  0  0  0  0  0  0  0  0
   38.0270   24.9930   57.7120 C   0  0  0  0  0  0  0  0  0  0  0  0
   38.6180   26.3840   57.3740 C   0  0  0  0  0  0  0  0  0  0  0  0
   39.3350   27.0050   58.2520 C   0  0  0  0  0  0  0  0  0  0  0  0
   40.1390   27.9800   58.7010 C   0  0  0  0  0  0  0  0  0  0  0  0
   39.7040   29.3450   59.2430 C   0  0  0  0  0  0  0  0  0  0  0  0
   38.7740   30.6440   59.8600 C   0  0  1  0  0  0  0  0  0  0  0  0
   37.4100   30.1130   59.6380 C   0  0  0  0  0  0  0  0  0  0  0  0
   36.7960   31.3260   59.2370 O   0  0  0  0  0  0  0  0  0  0  0  0
   39.2710   31.1330   61.0690 N   0  0  0  0  0  0  0  0  0  0  0  0
   39.2550   32.2350   61.7750 C   0  0  0  0  0  0  0  0  0  0  0  0
   38.2910   32.9140   61.3610 N   0  0  0  0  0  0  0  0  0  0  0  0
   38.0010   34.0570   60.9560 C   0  0  0  0  0  0  0  0  0  0  0  0
   38.6240   35.3320   61.3680 C   0  0  0  0  0  0  0  0  0  0  0  0
   38.0160   36.6150   60.8690 C   0  0  0  0  0  0  0  0  0  0  0  0
   38.4820   37.8650   61.4230 C   0  0  0  0  0  0  0  0  0  0  0  0
   37.8170   39.0210   61.1960 C   0  0  0  0  0  0  0  0  0  0  0  0
   36.4100   39.0440   61.5680 N   0  0  0  0  0  0  0  0  0  0  0  0
   38.2370   40.0000   60.5070 O   0  0  0  0  0  0  0  0  0  0  0  0
   39.7310   37.8850   62.1120 C   0  0  0  0  0  0  0  0  0  0  0  0
   40.3880   36.6140   62.3210 C   0  0  0  0  0  0  0  0  0  0  0  0
   39.7720   35.3750   62.0830 C   0  0  0  0  0  0  0  0  0  0  0  0
   40.2170   34.1590   62.9070 O   0  0  0  0  0  0  0  0  0  0  0  0
   40.8380   32.7940   62.5460 C   0  0  1  0  0  0  0  0  0  0  0  0
   40.7200   31.6470   63.7170 C   0  0  2  0  0  0  0  0  0  0  0  0
   41.0830   32.8040   64.5320 C   0  0  0  0  0  0  0  0  0  0  0  0
   41.4980   30.4970   63.4750 C   0  0  0  0  0  0  0  0  0  0  0  0
   41.5610   29.5420   62.6480 O   0  0  0  0  0  0  0  0  0  0  0  0
   40.3914   30.2967   55.5660 H   0  0  0  0  0  0  0  0  0  0  0  0
   37.5900   27.4881   56.4240 H   0  0  0  0  0  0  0  0  0  0  0  0
   37.0304   24.3945   54.3800 H   0  0  0  0  0  0  0  0  0  0  0  0
   38.7438   24.5706   54.8985 H   0  0  0  0  0  0  0  0  0  0  0  0
   36.2814   24.7440   56.5486 H   0  0  0  0  0  0  0  0  0  0  0  0
   37.6762   23.4324   56.4386 H   0  0  0  0  0  0  0  0  0  0  0  0
   37.2930   25.0812   58.5266 H   0  0  0  0  0  0  0  0  0  0  0  0
   38.8141   24.2998   58.0435 H   0  0  0  0  0  0  0  0  0  0  0  0
   41.2202   27.7791   58.6777 H   0  0  0  0  0  0  0  0  0  0  0  0
   40.4334   29.3542   60.0664 H   0  0  0  0  0  0  0  0  0  0  0  0
   39.1903   29.5030   58.2832 H   0  0  0  0  0  0  0  0  0  0  0  0
   38.8029   31.6413   59.3969 H   0  0  0  0  0  0  0  0  0  0  0  0
   37.3826   29.3494   58.8467 H   0  0  0  0  0  0  0  0  0  0  0  0
   36.9470   29.5931   60.4897 H   0  0  0  0  0  0  0  0  0  0  0  0
   37.4880   32.0250   59.1260 H   0  0  0  0  0  0  0  0  0  0  0  0
   39.8160   30.4060   61.5530 H   0  0  0  0  0  0  0  0  0  0  0  0
   38.1381   34.0142   59.8654 H   0  0  0  0  0  0  0  0  0  0  0  0
   37.0219   34.1736   61.4436 H   0  0  0  0  0  0  0  0  0  0  0  0
   37.2321   36.6012   60.0975 H   0  0  0  0  0  0  0  0  0  0  0  0
   36.0120   38.2760   62.1270 H   0  0  0  0  0  0  0  0  0  0  0  0
   35.8120   39.8290   61.2710 H   0  0  0  0  0  0  0  0  0  0  0  0
   40.1748   38.8262   62.4687 H   0  0  0  0  0  0  0  0  0  0  0  0
   41.4257   36.6180   62.6859 H   0  0  0  0  0  0  0  0  0  0  0  0
   41.8569   32.8825   62.1410 H   0  0  0  0  0  0  0  0  0  0  0  0
   39.8853   31.0022   64.0294 H   0  0  0  0  0  0  0  0  0  0  0  0
   41.0009   32.5424   65.5973 H   0  0  0  0  0  0  0  0  0  0  0  0
   42.1176   33.1015   64.3062 H   0  0  0  0  0  0  0  0  0  0  0  0
   40.4037   33.6392   64.3062 H   0  0  0  0  0  0  0  0  0  0  0  0
   42.2885   30.4011   64.2339 H   0  0  0  0  0  0  0  0  0  0  0  0
  1  2  3  0
  2  3  1  0
  3  4  1  0
  4  5  2  0
  4  6  1  0
  6  7  1  0
  7  8  1  0
  8  9  1  0
  9 10  2  0
 10 11  2  0
 11 12  1  0
 12 13  1  0
 13 14  1  0
 14 15  1  0
 13 16  1  0
 16 17  1  0
 17 18  2  0
 18 19  1  0
 19 20  1  0
 20 21  2  0
 21 22  1  0
 22 23  1  0
 23 24  1  0
 23 25  2  0
 22 26  2  0
 26 27  1  0
 27 28  2  0
 28 29  1  0
 29 30  1  0
 30 31  1  0
 31 32  1  0
 31 33  1  0
 33 34  2  0
  9  3  1  0
 30 17  1  0
 28 20  1  0
  1 35  1  0
  3 36  1  6
  6 37  1  0
  6 38  1  0
  7 39  1  0
  7 40  1  0
  8 41  1  0
  8 42  1  0
 11 43  1  0
 12 44  1  0
 12 45  1  0
 13 46  1  6
 14 47  1  0
 14 48  1  0
 15 49  1  0
 16 50  1  0
 19 51  1  0
 19 52  1  0
 21 53  1  0
 24 54  1  0
 24 55  1  0
 26 56  1  0
 27 57  1  0
 30 58  1  6
 31 59  1  1
 32 60  1  0
 32 61  1  0
 32 62  1  0
 33 63  1  0
M  END

>  <ID>
DiffSBDD_27_num_sample_50

>  <docking_score>
-11.578

$$$$
DiffSBDD_28_num_sample_50
     RDKit          3D

 94 99  0  0  0  0  0  0  0  0999 V2000
   40.5990   28.8000   61.1150 C   0  0  0  0  0  0  0  0  0  0  0  0
   39.0970   28.2270   60.6510 C   0  0  0  0  0  0  0  0  0  0  0  0
   38.8390   28.0200   59.1560 C   0  0  1  0  0  0  0  0  0  0  0  0
   39.2920   26.6830   58.8340 O   0  0  0  0  0  0  0  0  0  0  0  0
   40.3200   26.4330   58.1250 O   0  0  0  0  0  0  0  0  0  0  0  0
   39.4020   25.8370   56.8230 C   0  0  1  0  0  0  0  0  0  0  0  0
   39.6690   26.4340   55.5880 C   0  0  0  0  0  0  0  0  0  0  0  0
   38.4210   26.5530   54.6070 C   0  0  0  0  0  0  0  0  0  0  0  0
   38.8180   27.2600   53.3720 N   0  0  1  0  0  0  0  0  0  0  0  0
   39.6150   26.7980   52.3300 C   0  0  0  0  0  0  0  0  0  0  0  0
   39.7580   27.8660   51.2560 C   0  0  0  0  0  0  0  0  0  0  0  0
   39.3950   29.1700   51.8560 C   0  0  2  0  0  0  0  0  0  0  0  0
   39.1680   29.6710   53.1620 C   0  0  0  0  0  0  0  0  0  0  0  0
   38.3020   28.4140   52.9150 C   0  0  2  0  0  0  0  0  0  0  0  0
   37.1320   28.4070   52.1720 O   0  0  0  0  0  0  0  0  0  0  0  0
   39.5980   24.4950   56.9890 O   0  0  0  0  0  0  0  0  0  0  0  0
   38.7620   23.7440   57.7310 O   0  0  0  0  0  0  0  0  0  0  0  0
   38.3230   29.2570   58.3960 C   0  0  1  0  0  0  0  0  0  0  0  0
   37.3270   30.4490   58.7990 C   0  0  0  0  0  0  0  0  0  0  0  0
   38.3000   31.5670   58.9120 N   0  0  0  0  0  0  0  0  0  0  0  0
   38.2670   32.5340   59.9200 C   0  0  1  0  0  0  0  0  0  0  0  0
   36.9790   32.5400   60.7270 C   0  0  2  0  0  0  0  0  0  0  0  0
   36.0780   33.4030   61.7000 C   0  0  0  0  0  0  0  0  0  0  0  0
   34.7610   32.9210   61.4690 O   0  0  0  0  0  0  0  0  0  0  0  0
   37.9270   31.8890   61.7550 C   0  0  0  0  0  0  0  0  0  0  0  0
   39.1140   32.1870   61.1700 C   0  0  2  0  0  0  0  0  0  0  0  0
   40.2640   32.9920   61.4030 C   0  0  2  0  0  0  0  0  0  0  0  0
   41.5040   32.4370   61.9760 C   0  0  0  0  0  0  0  0  0  0  0  0
   41.7090   31.5140   62.6520 O   0  0  0  0  0  0  0  0  0  0  0  0
   40.1650   34.4740   61.6390 N   0  0  0  0  0  0  0  0  0  0  0  0
   41.0890   35.0480   62.4780 C   0  0  0  0  0  0  0  0  0  0  0  0
   40.6860   36.4640   62.4780 C   0  0  0  0  0  0  0  0  0  0  0  0
   39.6930   36.6800   61.7800 C   0  0  0  0  0  0  0  0  0  0  0  0
   38.8960   38.0480   61.4560 C   0  0  0  0  0  0  0  0  0  0  0  0
   37.4650   37.5310   61.3070 O   0  0  0  0  0  0  0  0  0  0  0  0
   36.8270   37.8260   62.4510 C   0  0  0  0  0  0  0  0  0  0  0  0
   35.4060   38.7220   62.3600 C   0  0  0  0  0  0  0  0  0  0  0  0
   35.8730   37.3730   63.2560 C   0  0  0  0  0  0  0  0  0  0  0  0
   39.2540   35.3640   61.2620 C   0  0  0  0  0  0  0  0  0  0  0  0
   38.2080   32.2650   57.5370 O   0  0  0  0  0  0  0  0  0  0  0  0
   38.4460   31.0800   56.6100 C   0  0  2  0  0  0  0  0  0  0  0  0
   39.3790   31.9440   55.5500 C   0  0  0  0  0  0  0  0  0  0  0  0
   37.2310   30.7470   55.8920 O   0  0  0  0  0  0  0  0  0  0  0  0
   39.1530   29.7150   57.2020 C   0  0  0  0  0  0  0  0  0  0  0  0
   40.6594   28.8231   62.2131 H   0  0  0  0  0  0  0  0  0  0  0  0
   41.3826   28.1377   60.7185 H   0  0  0  0  0  0  0  0  0  0  0  0
   40.7424   29.8160   60.7185 H   0  0  0  0  0  0  0  0  0  0  0  0
   38.9497   27.2559   61.1462 H   0  0  0  0  0  0  0  0  0  0  0  0
   38.3961   29.0225   60.9440 H   0  0  0  0  0  0  0  0  0  0  0  0
   39.8405   28.4141   58.9286 H   0  0  0  0  0  0  0  0  0  0  0  0
   38.3309   26.0876   56.8191 H   0  0  0  0  0  0  0  0  0  0  0  0
   40.0515   27.4481   55.7762 H   0  0  0  0  0  0  0  0  0  0  0  0
   40.3923   25.7774   55.0824 H   0  0  0  0  0  0  0  0  0  0  0  0
   38.0610   25.5456   54.3509 H   0  0  0  0  0  0  0  0  0  0  0  0
   37.6203   27.1182   55.1064 H   0  0  0  0  0  0  0  0  0  0  0  0
   39.1250   27.0770   54.3380 H   0  0  0  0  0  0  0  0  0  0  0  0
   40.6107   26.5424   52.7215 H   0  0  0  0  0  0  0  0  0  0  0  0
   39.1424   25.9088   51.8874 H   0  0  0  0  0  0  0  0  0  0  0  0
   40.7971   27.8969   50.8964 H   0  0  0  0  0  0  0  0  0  0  0  0
   39.1000   27.6412   50.4037 H   0  0  0  0  0  0  0  0  0  0  0  0
   39.7791   29.8389   51.0718 H   0  0  0  0  0  0  0  0  0  0  0  0
   39.9857   29.6043   53.8948 H   0  0  0  0  0  0  0  0  0  0  0  0
   38.8861   30.6782   53.5028 H   0  0  0  0  0  0  0  0  0  0  0  0
   36.6520   27.5550   52.3210 H   0  0  0  0  0  0  0  0  0  0  0  0
   38.2490   24.3280   58.3430 H   0  0  0  0  0  0  0  0  0  0  0  0
   37.5220   28.5127   58.5161 H   0  0  0  0  0  0  0  0  0  0  0  0
   36.5771   30.6373   58.0165 H   0  0  0  0  0  0  0  0  0  0  0  0
   36.7236   30.2655   59.7002 H   0  0  0  0  0  0  0  0  0  0  0  0
   38.5355   33.4179   59.3228 H   0  0  0  0  0  0  0  0  0  0  0  0
   36.1415   32.4279   60.0228 H   0  0  0  0  0  0  0  0  0  0  0  0
   36.3733   33.2462   62.7480 H   0  0  0  0  0  0  0  0  0  0  0  0
   36.1713   34.4834   61.5157 H   0  0  0  0  0  0  0  0  0  0  0  0
   34.7940   31.9520   61.2660 H   0  0  0  0  0  0  0  0  0  0  0  0
   37.8319   32.3465   62.7508 H   0  0  0  0  0  0  0  0  0  0  0  0
   37.7512   30.8207   61.9494 H   0  0  0  0  0  0  0  0  0  0  0  0
   39.8953   31.4612   61.4397 H   0  0  0  0  0  0  0  0  0  0  0  0
   40.3581   32.8686   60.3140 H   0  0  0  0  0  0  0  0  0  0  0  0
   42.4084   33.0054   61.7134 H   0  0  0  0  0  0  0  0  0  0  0  0
   41.9213   34.5696   63.0151 H   0  0  0  0  0  0  0  0  0  0  0  0
   41.2151   37.2467   63.0414 H   0  0  0  0  0  0  0  0  0  0  0  0
   38.9800   38.7687   62.2827 H   0  0  0  0  0  0  0  0  0  0  0  0
   39.2727   38.5923   60.5775 H   0  0  0  0  0  0  0  0  0  0  0  0
   37.8871   37.8535   62.7432 H   0  0  0  0  0  0  0  0  0  0  0  0
   35.3156   39.7205   62.8126 H   0  0  0  0  0  0  0  0  0  0  0  0
   34.6446   39.0334   61.6297 H   0  0  0  0  0  0  0  0  0  0  0  0
   36.0025   37.4771   64.3434 H   0  0  0  0  0  0  0  0  0  0  0  0
   35.4224   36.3768   63.3763 H   0  0  0  0  0  0  0  0  0  0  0  0
   38.3454   35.1618   60.6759 H   0  0  0  0  0  0  0  0  0  0  0  0
   40.0729   32.5866   56.1118 H   0  0  0  0  0  0  0  0  0  0  0  0
   39.9523   31.2508   54.9169 H   0  0  0  0  0  0  0  0  0  0  0  0
   38.7318   32.5688   54.9169 H   0  0  0  0  0  0  0  0  0  0  0  0
   37.3830   30.8540   54.9190 H   0  0  0  0  0  0  0  0  0  0  0  0
   39.1655   28.9320   56.4295 H   0  0  0  0  0  0  0  0  0  0  0  0
   40.1923   29.9133   57.5028 H   0  0  0  0  0  0  0  0  0  0  0  0
  1  2  1  0
  2  3  1  0
  3  4  1  0
  4  5  1  0
  5  6  1  0
  6  7  1  0
  7  8  1  0
  8  9  1  0
  9 10  1  0
 10 11  1  0
 11 12  1  0
 12 13  1  0
 13 14  1  0
 14 15  1  1
  6 16  1  0
 16 17  1  0
  3 18  1  0
 18 19  1  0
 19 20  1  0
 20 21  1  0
 21 22  1  0
 22 23  1  0
 23 24  1  0
 22 25  1  0
 25 26  1  0
 26 27  1  0
 27 28  1  0
 28 29  2  0
 27 30  1  0
 30 31  1  0
 31 32  2  0
 32 33  1  0
 33 34  1  0
 34 35  1  0
 35 36  1  0
 36 37  1  0
 37 38  1  0
 33 39  2  0
 20 40  1  0
 40 41  1  0
 41 42  1  0
 41 43  1  6
 41 44  1  0
 14  9  1  0
 44 18  1  0
 14 12  1  0
 26 21  1  0
 39 30  1  0
 38 36  1  0
  1 45  1  0
  1 46  1  0
  1 47  1  0
  2 48  1  0
  2 49  1  0
  3 50  1  1
  6 51  1  1
  7 52  1  0
  7 53  1  0
  8 54  1  0
  8 55  1  0
  9 56  1  1
 10 57  1  0
 10 58  1  0
 11 59  1  0
 11 60  1  0
 12 61  1  6
 13 62  1  0
 13 63  1  0
 15 64  1  0
 17 65  1  0
 18 66  1  6
 19 67  1  0
 19 68  1  0
 21 69  1  6
 22 70  1  6
 23 71  1  0
 23 72  1  0
 24 73  1  0
 25 74  1  0
 25 75  1  0
 26 76  1  6
 27 77  1  6
 28 78  1  0
 31 79  1  0
 32 80  1  0
 34 81  1  0
 34 82  1  0
 36 83  1  0
 37 84  1  0
 37 85  1  0
 38 86  1  0
 38 87  1  0
 39 88  1  0
 42 89  1  0
 42 90  1  0
 42 91  1  0
 43 92  1  0
 44 93  1  0
 44 94  1  0
M  CHG  1   9   1
M  END

>  <ID>
DiffSBDD_28_num_sample_50

>  <docking_score>
-10.274

$$$$
DiffSBDD_29_num_sample_50
     RDKit          3D

 80 82  0  0  0  0  0  0  0  0999 V2000
   39.7900   26.5110   53.2340 C   0  0  0  0  0  0  0  0  0  0  0  0
   39.5680   26.3370   54.6150 C   0  0  0  0  0  0  0  0  0  0  0  0
   39.5070   26.4470   55.9730 C   0  0  0  0  0  0  0  0  0  0  0  0
   39.5450   25.5930   56.7560 C   0  0  0  0  0  0  0  0  0  0  0  0
   39.5230   25.8460   58.1240 C   0  0  0  0  0  0  0  0  0  0  0  0
   39.4940   27.3250   58.3380 C   0  0  0  0  0  0  0  0  0  0  0  0
   39.3620   28.7060   59.3160 C   0  0  2  0  0  0  0  0  0  0  0  0
   40.7110   28.8060   59.9620 C   0  0  0  0  0  0  0  0  0  0  0  0
   38.3970   28.9250   60.3350 N   0  0  0  0  0  0  0  0  0  0  0  0
   38.0780   30.4340   60.3320 C   0  0  1  0  0  0  0  0  0  0  0  0
   36.9030   30.8810   59.5320 C   0  0  0  0  0  0  0  0  0  0  0  0
   35.8710   31.4980   60.4990 C   0  0  0  0  0  0  0  0  0  0  0  0
   35.5940   32.7960   60.1680 O   0  0  0  0  0  0  0  0  0  0  0  0
   38.3370   31.3010   61.5100 C   0  0  1  0  0  0  0  0  0  0  0  0
   38.5370   30.7400   62.7140 O   0  0  0  0  0  0  0  0  0  0  0  0
   39.3800   32.3440   61.1650 C   0  0  2  0  0  0  0  0  0  0  0  0
   40.5070   32.1890   62.1050 C   0  0  0  0  0  0  0  0  0  0  0  0
   41.5380   33.3490   61.9470 C   0  0  0  0  0  0  0  0  0  0  0  0
   40.7640   34.8260   61.9570 C   0  0  1  0  0  0  0  0  0  0  0  0
   40.9400   35.4130   63.3550 C   0  0  0  0  0  0  0  0  0  0  0  0
   41.4570   35.6360   61.0310 O   0  0  0  0  0  0  0  0  0  0  0  0
   39.2440   34.8540   61.5290 C   0  0  0  0  0  0  0  0  0  0  0  0
   38.6450   33.5920   61.1890 N   0  0  0  0  0  0  0  0  0  0  0  0
   39.7310   27.8500   56.5680 C   0  0  2  0  0  0  0  0  0  0  0  0
   38.5010   27.9490   56.8020 C   0  0  0  0  0  0  0  0  0  0  0  0
   37.4390   28.8280   55.8350 C   0  0  2  0  0  0  0  0  0  0  0  0
   37.0920   29.7450   55.0500 O   0  0  0  0  0  0  0  0  0  0  0  0
   38.2350   30.0460   55.8730 C   0  0  2  0  0  0  0  0  0  0  0  0
   39.3330   30.6580   54.9710 C   0  0  0  0  0  0  0  0  0  0  0  0
   39.5000   30.4810   53.7980 C   0  0  0  0  0  0  0  0  0  0  0  0
   40.1370   30.7120   52.5660 C   0  0  0  0  0  0  0  0  0  0  0  0
   39.7810   29.9760   51.4930 C   0  0  0  0  0  0  0  0  0  0  0  0
   39.0010   29.0770   51.6060 O   0  0  0  0  0  0  0  0  0  0  0  0
   40.2530   30.1990   50.0650 C   0  0  0  0  0  0  0  0  0  0  0  0
   40.1650   29.3240   49.1170 F   0  0  0  0  0  0  0  0  0  0  0  0
   41.5910   30.6080   50.0360 F   0  0  0  0  0  0  0  0  0  0  0  0
   39.5940   31.2660   49.6300 F   0  0  0  0  0  0  0  0  0  0  0  0
   40.6475   27.1831   53.0823 H   0  0  0  0  0  0  0  0  0  0  0  0
   40.0019   25.5360   52.7710 H   0  0  0  0  0  0  0  0  0  0  0  0
   38.8938   26.9497   52.7710 H   0  0  0  0  0  0  0  0  0  0  0  0
   38.4802   26.2197   54.5011 H   0  0  0  0  0  0  0  0  0  0  0  0
   40.6559   26.2160   54.7237 H   0  0  0  0  0  0  0  0  0  0  0  0
   39.6001   24.5513   56.4070 H   0  0  0  0  0  0  0  0  0  0  0  0
   38.6270   25.3899   58.5703 H   0  0  0  0  0  0  0  0  0  0  0  0
   40.4174   25.4163   58.5988 H   0  0  0  0  0  0  0  0  0  0  0  0
   38.4039   27.3249   58.1910 H   0  0  0  0  0  0  0  0  0  0  0  0
   38.9875   29.4501   58.5977 H   0  0  0  0  0  0  0  0  0  0  0  0
   40.5953   28.7974   61.0559 H   0  0  0  0  0  0  0  0  0  0  0  0
   41.3302   27.9513   59.6521 H   0  0  0  0  0  0  0  0  0  0  0  0
   41.1974   29.7427   59.6521 H   0  0  0  0  0  0  0  0  0  0  0  0
   38.7790   28.6460   61.2500 H   0  0  0  0  0  0  0  0  0  0  0  0
   37.5470   28.3680   60.1660 H   0  0  0  0  0  0  0  0  0  0  0  0
   38.9897   30.6460   59.7543 H   0  0  0  0  0  0  0  0  0  0  0  0
   37.2188   31.6333   58.7942 H   0  0  0  0  0  0  0  0  0  0  0  0
   36.4605   30.0284   58.9959 H   0  0  0  0  0  0  0  0  0  0  0  0
   34.9420   30.9107   60.4541 H   0  0  0  0  0  0  0  0  0  0  0  0
   36.2933   31.4811   61.5146 H   0  0  0  0  0  0  0  0  0  0  0  0
   36.1060   33.0470   59.3590 H   0  0  0  0  0  0  0  0  0  0  0  0
   37.3562   31.7637   61.6941 H   0  0  0  0  0  0  0  0  0  0  0  0
   38.4980   31.4390   63.4140 H   0  0  0  0  0  0  0  0  0  0  0  0
   39.8632   32.2680   60.1798 H   0  0  0  0  0  0  0  0  0  0  0  0
   40.1187   32.1920   63.1342 H   0  0  0  0  0  0  0  0  0  0  0  0
   41.0157   31.2389   61.8848 H   0  0  0  0  0  0  0  0  0  0  0  0
   42.2556   33.3110   62.7798 H   0  0  0  0  0  0  0  0  0  0  0  0
   42.0626   33.2295   60.9876 H   0  0  0  0  0  0  0  0  0  0  0  0
   40.7095   34.6442   64.1072 H   0  0  0  0  0  0  0  0  0  0  0  0
   41.9790   35.7510   63.4826 H   0  0  0  0  0  0  0  0  0  0  0  0
   40.2584   36.2669   63.4826 H   0  0  0  0  0  0  0  0  0  0  0  0
   40.8200   36.2490   60.5870 H   0  0  0  0  0  0  0  0  0  0  0  0
   38.6718   35.7928   61.4928 H   0  0  0  0  0  0  0  0  0  0  0  0
   37.6440   33.5730   60.9500 H   0  0  0  0  0  0  0  0  0  0  0  0
   40.4809   28.5173   56.1182 H   0  0  0  0  0  0  0  0  0  0  0  0
   38.1137   26.9195   56.8152 H   0  0  0  0  0  0  0  0  0  0  0  0
   38.5053   28.5537   57.7208 H   0  0  0  0  0  0  0  0  0  0  0  0
   36.7207   27.9952   55.8546 H   0  0  0  0  0  0  0  0  0  0  0  0
   38.7013   30.5267   56.7457 H   0  0  0  0  0  0  0  0  0  0  0  0
   40.0445   31.3359   55.4653 H   0  0  0  0  0  0  0  0  0  0  0  0
   38.7405   29.7254   53.5487 H   0  0  0  0  0  0  0  0  0  0  0  0
   39.9606   31.7661   52.3056 H   0  0  0  0  0  0  0  0  0  0  0  0
   41.1803   30.4167   52.7514 H   0  0  0  0  0  0  0  0  0  0  0  0
  1  2  1  0
  2  3  1  0
  3  4  2  0
  4  5  1  0
  5  6  1  0
  6  7  1  0
  7  8  1  0
  7  9  1  0
  9 10  1  0
 10 11  1  0
 11 12  1  0
 12 13  1  0
 10 14  1  0
 14 15  1  0
 14 16  1  0
 16 17  1  0
 17 18  1  0
 18 19  1  0
 19 20  1  0
 19 21  1  6
 19 22  1  0
 22 23  2  0
  6 24  1  0
 24 25  1  0
 25 26  1  0
 26 27  1  0
 27 28  1  0
 28 29  1  0
 29 30  2  3
 30 31  1  0
 31 32  1  0
 32 33  2  0
 32 34  1  0
 34 35  1  0
 34 36  1  0
 34 37  1  0
 24  3  1  0
 28 26  1  0
 23 16  1  0
  1 38  1  0
  1 39  1  0
  1 40  1  0
  2 41  1  0
  2 42  1  0
  4 43  1  0
  5 44  1  0
  5 45  1  0
  6 46  1  0
  7 47  1  6
  8 48  1  0
  8 49  1  0
  8 50  1  0
  9 51  1  0
  9 52  1  0
 10 53  1  6
 11 54  1  0
 11 55  1  0
 12 56  1  0
 12 57  1  0
 13 58  1  0
 14 59  1  1
 15 60  1  0
 16 61  1  6
 17 62  1  0
 17 63  1  0
 18 64  1  0
 18 65  1  0
 20 66  1  0
 20 67  1  0
 20 68  1  0
 21 69  1  0
 22 70  1  0
 23 71  1  0
 24 72  1  1
 25 73  1  0
 25 74  1  0
 26 75  1  1
 28 76  1  1
 29 77  1  0
 30 78  1  0
 31 79  1  0
 31 80  1  0
M  CHG  2   9   1  23   1
M  END

>  <ID>
DiffSBDD_29_num_sample_50

>  <docking_score>
-9.622

$$$$
DiffSBDD_30_num_sample_50
     RDKit          3D

 68 67  0  0  0  0  0  0  0  0999 V2000
   39.3630   30.8830   54.8280 C   0  0  0  0  0  0  0  0  0  0  0  0
   39.4830   30.0450   54.2810 C   0  0  0  0  0  0  0  0  0  0  0  0
   38.9070   29.0090   53.4030 C   0  0  2  0  0  0  0  0  0  0  0  0
   37.6970   28.1220   53.7850 C   0  0  0  0  0  0  0  0  0  0  0  0
   38.1330   26.7770   54.5440 C   0  0  0  0  0  0  0  0  0  0  0  0
   39.6820   26.2520   54.5210 C   0  0  0  0  0  0  0  0  0  0  0  0
   40.2360   26.2290   55.9020 N   0  0  0  0  0  0  0  0  0  0  0  0
   39.8020   25.0390   56.6970 O   0  0  0  0  0  0  0  0  0  0  0  0
   40.1230   27.5030   56.7060 C   0  0  0  0  0  0  0  0  0  0  0  0
   39.4570   27.1640   58.0510 C   0  0  0  0  0  0  0  0  0  0  0  0
   38.4670   28.4030   58.6220 C   0  0  2  0  0  0  0  0  0  0  0  0
   37.6480   28.9040   57.5200 C   0  0  0  0  0  0  0  0  0  0  0  0
   39.3180   29.5670   59.1920 C   0  0  2  0  0  0  0  0  0  0  0  0
   40.4960   28.8910   59.9960 C   0  0  0  0  0  0  0  0  0  0  0  0
   40.0280   28.6430   61.4150 C   0  0  0  0  0  0  0  0  0  0  0  0
   38.5710   30.6580   59.8930 C   0  0  0  0  0  0  0  0  0  0  0  0
   38.6760   31.9780   59.5190 C   0  0  0  0  0  0  0  0  0  0  0  0
   38.4180   32.4990   58.0860 C   0  0  0  0  0  0  0  0  0  0  0  0
   39.1050   32.8750   60.6750 C   0  0  0  0  0  0  0  0  0  0  0  0
   39.3540   32.2110   61.9650 C   0  0  0  0  0  0  0  0  0  0  0  0
   39.3100   34.0940   60.4130 O   0  0  0  0  0  0  0  0  0  0  0  0
   39.4990   28.9530   52.0540 C   0  0  1  0  0  0  0  0  0  0  0  0
   39.1670   27.9230   51.0460 C   0  0  0  0  0  0  0  0  0  0  0  0
   40.2430   30.1600   51.5800 C   0  0  0  0  0  0  0  0  0  0  0  0
   40.2800   30.3630   50.0140 C   0  0  0  0  0  0  0  0  0  0  0  0
   40.2192   31.3158   55.3662 H   0  0  0  0  0  0  0  0  0  0  0  0
   38.3759   31.3648   54.8868 H   0  0  0  0  0  0  0  0  0  0  0  0
   40.5440   29.7761   54.3903 H   0  0  0  0  0  0  0  0  0  0  0  0
   38.2237   29.7550   52.9710 H   0  0  0  0  0  0  0  0  0  0  0  0
   37.0316   28.6987   54.4443 H   0  0  0  0  0  0  0  0  0  0  0  0
   37.1909   27.8296   52.8531 H   0  0  0  0  0  0  0  0  0  0  0  0
   37.8674   26.9168   55.6023 H   0  0  0  0  0  0  0  0  0  0  0  0
   37.6088   25.9986   53.9701 H   0  0  0  0  0  0  0  0  0  0  0  0
   39.7156   25.2368   54.0988 H   0  0  0  0  0  0  0  0  0  0  0  0
   40.2839   26.9349   53.9035 H   0  0  0  0  0  0  0  0  0  0  0  0
   40.4070   24.2790   56.5090 H   0  0  0  0  0  0  0  0  0  0  0  0
   41.1245   27.9228   56.8815 H   0  0  0  0  0  0  0  0  0  0  0  0
   39.5219   28.2452   56.1602 H   0  0  0  0  0  0  0  0  0  0  0  0
   38.8467   26.2579   57.9222 H   0  0  0  0  0  0  0  0  0  0  0  0
   40.2591   27.0151   58.7889 H   0  0  0  0  0  0  0  0  0  0  0  0
   37.8291   28.0059   59.4253 H   0  0  0  0  0  0  0  0  0  0  0  0
   36.7755   29.4377   57.9248 H   0  0  0  0  0  0  0  0  0  0  0  0
   38.2447   29.5918   56.9029 H   0  0  0  0  0  0  0  0  0  0  0  0
   37.3074   28.0595   56.9029 H   0  0  0  0  0  0  0  0  0  0  0  0
   39.7246   30.1737   58.3694 H   0  0  0  0  0  0  0  0  0  0  0  0
   40.7684   27.9361   59.5227 H   0  0  0  0  0  0  0  0  0  0  0  0
   41.3772   29.5494   59.9990 H   0  0  0  0  0  0  0  0  0  0  0  0
   40.7732   29.0379   62.1212 H   0  0  0  0  0  0  0  0  0  0  0  0
   39.0649   29.1491   61.5772 H   0  0  0  0  0  0  0  0  0  0  0  0
   39.9060   27.5619   61.5772 H   0  0  0  0  0  0  0  0  0  0  0  0
   37.5047   30.4003   59.8122 H   0  0  0  0  0  0  0  0  0  0  0  0
   39.0503   30.6628   60.8831 H   0  0  0  0  0  0  0  0  0  0  0  0
   39.7367   31.8236   59.2719 H   0  0  0  0  0  0  0  0  0  0  0  0
   37.9304   33.4837   58.1361 H   0  0  0  0  0  0  0  0  0  0  0  0
   39.3749   32.5905   57.5513 H   0  0  0  0  0  0  0  0  0  0  0  0
   37.7652   31.7934   57.5513 H   0  0  0  0  0  0  0  0  0  0  0  0
   39.0969   32.8966   62.7859 H   0  0  0  0  0  0  0  0  0  0  0  0
   38.7346   31.3048   62.0365 H   0  0  0  0  0  0  0  0  0  0  0  0
   40.4165   31.9355   62.0365 H   0  0  0  0  0  0  0  0  0  0  0  0
   40.1601   28.1864   52.4844 H   0  0  0  0  0  0  0  0  0  0  0  0
   38.8678   26.9949   51.5550 H   0  0  0  0  0  0  0  0  0  0  0  0
   38.3383   28.2796   50.4166 H   0  0  0  0  0  0  0  0  0  0  0  0
   40.0479   27.7285   50.4166 H   0  0  0  0  0  0  0  0  0  0  0  0
   39.7694   31.0471   52.0259 H   0  0  0  0  0  0  0  0  0  0  0  0
   41.2879   30.0127   51.8907 H   0  0  0  0  0  0  0  0  0  0  0  0
   40.4729   31.4217   49.7860 H   0  0  0  0  0  0  0  0  0  0  0  0
   41.0800   29.7433   49.5827 H   0  0  0  0  0  0  0  0  0  0  0  0
   39.3128   30.0654   49.5827 H   0  0  0  0  0  0  0  0  0  0  0  0
  1  2  2  0
  2  3  1  0
  3  4  1  0
  4  5  1  0
  5  6  1  0
  6  7  1  0
  7  8  1  0
  7  9  1  0
  9 10  1  0
 10 11  1  0
 11 12  1  0
 11 13  1  0
 13 14  1  0
 14 15  1  0
 13 16  1  0
 16 17  1  0
 17 18  1  0
 17 19  1  0
 19 20  1  0
 19 21  2  0
  3 22  1  0
 22 23  1  0
 22 24  1  0
 24 25  1  0
  1 26  1  0
  1 27  1  0
  2 28  1  0
  3 29  1  1
  4 30  1  0
  4 31  1  0
  5 32  1  0
  5 33  1  0
  6 34  1  0
  6 35  1  0
  8 36  1  0
  9 37  1  0
  9 38  1  0
 10 39  1  0
 10 40  1  0
 11 41  1  1
 12 42  1  0
 12 43  1  0
 12 44  1  0
 13 45  1  6
 14 46  1  0
 14 47  1  0
 15 48  1  0
 15 49  1  0
 15 50  1  0
 16 51  1  0
 16 52  1  0
 17 53  1  0
 18 54  1  0
 18 55  1  0
 18 56  1  0
 20 57  1  0
 20 58  1  0
 20 59  1  0
 22 60  1  1
 23 61  1  0
 23 62  1  0
 23 63  1  0
 24 64  1  0
 24 65  1  0
 25 66  1  0
 25 67  1  0
 25 68  1  0
M  END

>  <ID>
DiffSBDD_30_num_sample_50

>  <docking_score>
-7.534

$$$$
DiffSBDD_31_num_sample_50
     RDKit          3D

 35 36  0  0  0  0  0  0  0  0999 V2000
   36.9660   29.4410   58.4410 C   0  0  0  0  0  0  0  0  0  0  0  0
   38.1110   29.2740   57.3910 C   0  0  2  0  0  0  0  0  0  0  0  0
   38.4460   30.5000   57.0000 N   0  0  0  0  0  0  0  0  0  0  0  0
   37.6400   31.1870   56.2600 O   0  0  0  0  0  0  0  0  0  0  0  0
   38.2850   28.0970   56.6130 C   0  0  0  0  0  0  0  0  0  0  0  0
   38.2270   27.7960   55.0170 C   0  0  0  0  0  0  0  0  0  0  0  0
   37.7290   28.2980   53.6310 C   0  0  0  0  0  0  0  0  0  0  0  0
   38.6260   28.8480   52.8860 C   0  0  0  0  0  0  0  0  0  0  0  0
   39.3820   30.0740   53.1010 C   0  0  0  0  0  0  0  0  0  0  0  0
   40.1550   30.5380   52.0350 C   0  0  0  0  0  0  0  0  0  0  0  0
   40.2360   29.8500   50.7490 C   0  0  0  0  0  0  0  0  0  0  0  0
   39.5430   28.6480   50.6830 C   0  0  0  0  0  0  0  0  0  0  0  0
   38.7800   28.1130   51.7500 C   0  0  0  0  0  0  0  0  0  0  0  0
   38.6640   26.3380   54.5750 C   0  0  0  0  0  0  0  0  0  0  0  0
   39.4520   25.5870   55.3130 C   0  0  0  0  0  0  0  0  0  0  0  0
   39.4000   25.7190   56.8230 C   0  0  0  0  0  0  0  0  0  0  0  0
   39.8820   24.6180   57.4010 O   0  0  0  0  0  0  0  0  0  0  0  0
   38.8680   26.8280   57.3730 C   0  0  0  0  0  0  0  0  0  0  0  0
   38.8700   26.8730   58.7770 F   0  0  0  0  0  0  0  0  0  0  0  0
   37.3869   29.3796   59.4554 H   0  0  0  0  0  0  0  0  0  0  0  0
   36.4821   30.4192   58.3034 H   0  0  0  0  0  0  0  0  0  0  0  0
   36.2229   28.6417   58.3034 H   0  0  0  0  0  0  0  0  0  0  0  0
   38.9982   28.7767   57.8101 H   0  0  0  0  0  0  0  0  0  0  0  0
   39.3290   30.4130   56.4750 H   0  0  0  0  0  0  0  0  0  0  0  0
   37.6920   32.1430   56.5150 H   0  0  0  0  0  0  0  0  0  0  0  0
   37.3175   27.4358   53.0858 H   0  0  0  0  0  0  0  0  0  0  0  0
   36.9880   29.0831   53.8420 H   0  0  0  0  0  0  0  0  0  0  0  0
   39.3456   30.6106   54.0606 H   0  0  0  0  0  0  0  0  0  0  0  0
   40.7304   31.4658   52.1699 H   0  0  0  0  0  0  0  0  0  0  0  0
   40.8030   30.2534   49.8971 H   0  0  0  0  0  0  0  0  0  0  0  0
   39.5895   28.0763   49.7444 H   0  0  0  0  0  0  0  0  0  0  0  0
   38.3186   27.1183   51.6622 H   0  0  0  0  0  0  0  0  0  0  0  0
   38.2954   25.9405   53.6178 H   0  0  0  0  0  0  0  0  0  0  0  0
   40.1409   24.8713   54.8405 H   0  0  0  0  0  0  0  0  0  0  0  0
   40.4790   24.0140   56.8930 H   0  0  0  0  0  0  0  0  0  0  0  0
  1  2  1  0
  2  3  1  0
  3  4  1  0
  2  5  1  0
  5  6  2  0
  6  7  1  0
  7  8  1  0
  8  9  2  0
  9 10  1  0
 10 11  2  0
 11 12  1  0
 12 13  2  0
  6 14  1  0
 14 15  2  0
 15 16  1  0
 16 17  1  0
 16 18  2  0
 18 19  1  0
 18  5  1  0
 13  8  1  0
  1 20  1  0
  1 21  1  0
  1 22  1  0
  2 23  1  1
  3 24  1  0
  4 25  1  0
  7 26  1  0
  7 27  1  0
  9 28  1  0
 10 29  1  0
 11 30  1  0
 12 31  1  0
 13 32  1  0
 14 33  1  0
 15 34  1  0
 17 35  1  0
M  END

>  <ID>
DiffSBDD_31_num_sample_50

>  <docking_score>
-8.787

$$$$
DiffSBDD_32_num_sample_50
     RDKit          3D

 51 54  0  0  0  0  0  0  0  0999 V2000
   40.8560   30.3960   50.4330 C   0  0  0  0  0  0  0  0  0  0  0  0
   40.0380   29.4800   51.3740 C   0  0  0  0  0  0  0  0  0  0  0  0
   39.5920   28.3370   50.7900 C   0  0  0  0  0  0  0  0  0  0  0  0
   38.7200   27.5870   51.5640 C   0  0  0  0  0  0  0  0  0  0  0  0
   38.3430   27.9940   52.8050 C   0  0  0  0  0  0  0  0  0  0  0  0
   37.6120   27.1010   53.5440 O   0  0  0  0  0  0  0  0  0  0  0  0
   38.7820   29.2120   53.4390 C   0  0  0  0  0  0  0  0  0  0  0  0
   38.4600   29.5330   54.8340 C   0  0  0  0  0  0  0  0  0  0  0  0
   38.5940   28.2960   56.1020 S   0  0  0  0  0  0  0  0  0  0  0  0
   38.5100   29.4720   57.3370 N   0  0  0  0  0  0  0  0  0  0  0  0
   38.9610   29.7470   58.7310 C   0  0  0  0  0  0  0  0  0  0  0  0
   39.7080   28.7530   59.7260 C   0  0  0  0  0  0  0  0  0  0  0  0
   38.7420   31.1000   58.9660 C   0  0  0  0  0  0  0  0  0  0  0  0
   38.8360   31.9050   60.3000 C   0  0  0  0  0  0  0  0  0  0  0  0
   39.4290   33.2820   60.2360 C   0  0  0  0  0  0  0  0  0  0  0  0
   38.5930   34.4670   60.5110 C   0  0  0  0  0  0  0  0  0  0  0  0
   38.9070   35.1520   61.6920 N   0  0  0  0  0  0  0  0  0  0  0  0
   38.3190   36.2880   62.0110 C   0  0  0  0  0  0  0  0  0  0  0  0
   38.5990   36.8540   63.1340 F   0  0  0  0  0  0  0  0  0  0  0  0
   37.2270   36.8080   61.2610 C   0  0  0  0  0  0  0  0  0  0  0  0
   36.5790   38.1170   61.6220 C   0  0  0  0  0  0  0  0  0  0  0  0
   36.8460   36.0650   60.2010 N   0  0  0  0  0  0  0  0  0  0  0  0
   37.4720   34.9550   59.8210 C   0  0  0  0  0  0  0  0  0  0  0  0
   36.9690   34.2510   58.7240 N   0  0  0  0  0  0  0  0  0  0  0  0
   38.3070   31.6650   57.8330 N   0  0  0  0  0  0  0  0  0  0  0  0
   38.2540   30.7370   56.8950 C   0  0  0  0  0  0  0  0  0  0  0  0
   38.1240   30.7960   55.4970 C   0  0  0  0  0  0  0  0  0  0  0  0
   37.9310   32.1340   54.7780 C   0  0  0  0  0  0  0  0  0  0  0  0
   39.7050   29.9190   52.6000 C   0  0  0  0  0  0  0  0  0  0  0  0
   41.4700   31.0836   51.0332 H   0  0  0  0  0  0  0  0  0  0  0  0
   41.5097   29.7796   49.7984 H   0  0  0  0  0  0  0  0  0  0  0  0
   40.1699   30.9761   49.7984 H   0  0  0  0  0  0  0  0  0  0  0  0
   39.8996   28.0300   49.7795 H   0  0  0  0  0  0  0  0  0  0  0  0
   38.3243   26.6414   51.1650 H   0  0  0  0  0  0  0  0  0  0  0  0
   37.8690   26.9060   54.4810 H   0  0  0  0  0  0  0  0  0  0  0  0
   39.4907   29.0421   60.7648 H   0  0  0  0  0  0  0  0  0  0  0  0
   39.3566   27.7256   59.5502 H   0  0  0  0  0  0  0  0  0  0  0  0
   40.7926   28.8047   59.5502 H   0  0  0  0  0  0  0  0  0  0  0  0
   37.8154   32.0036   60.6983 H   0  0  0  0  0  0  0  0  0  0  0  0
   39.5314   31.3285   60.9277 H   0  0  0  0  0  0  0  0  0  0  0  0
   40.2562   33.3038   60.9608 H   0  0  0  0  0  0  0  0  0  0  0  0
   39.6803   33.3959   59.1712 H   0  0  0  0  0  0  0  0  0  0  0  0
   36.5315   38.2130   62.7168 H   0  0  0  0  0  0  0  0  0  0  0  0
   37.1708   38.9460   61.2066 H   0  0  0  0  0  0  0  0  0  0  0  0
   35.5610   38.1491   61.2066 H   0  0  0  0  0  0  0  0  0  0  0  0
   36.4160   33.3940   58.8710 H   0  0  0  0  0  0  0  0  0  0  0  0
   37.1500   34.5890   57.7690 H   0  0  0  0  0  0  0  0  0  0  0  0
   37.8153   32.9364   55.5215 H   0  0  0  0  0  0  0  0  0  0  0  0
   38.8085   32.3416   54.1480 H   0  0  0  0  0  0  0  0  0  0  0  0
   37.0306   32.0852   54.1480 H   0  0  0  0  0  0  0  0  0  0  0  0
   40.1553   30.8512   52.9718 H   0  0  0  0  0  0  0  0  0  0  0  0
  1  2  1  0
  2  3  2  0
  3  4  1  0
  4  5  2  0
  5  6  1  0
  5  7  1  0
  7  8  1  0
  8  9  1  0
  9 10  1  0
 10 11  1  0
 11 12  1  0
 11 13  2  0
 13 14  1  0
 14 15  1  0
 15 16  1  0
 16 17  2  0
 17 18  1  0
 18 19  1  0
 18 20  2  0
 20 21  1  0
 20 22  1  0
 22 23  2  0
 23 24  1  0
 13 25  1  0
 25 26  2  0
 26 27  1  0
 27 28  1  0
  7 29  2  0
 29  2  1  0
 27  8  2  0
 26 10  1  0
 23 16  1  0
  1 30  1  0
  1 31  1  0
  1 32  1  0
  3 33  1  0
  4 34  1  0
  6 35  1  0
 12 36  1  0
 12 37  1  0
 12 38  1  0
 14 39  1  0
 14 40  1  0
 15 41  1  0
 15 42  1  0
 21 43  1  0
 21 44  1  0
 21 45  1  0
 24 46  1  0
 24 47  1  0
 28 48  1  0
 28 49  1  0
 28 50  1  0
 29 51  1  0
M  END

>  <ID>
DiffSBDD_32_num_sample_50

>  <docking_score>
-11.042

$$$$
DiffSBDD_33_num_sample_50
     RDKit          3D

 78 81  0  0  0  0  0  0  0  0999 V2000
   41.4800   29.9320   63.4200 C   0  0  0  0  0  0  0  0  0  0  0  0
   42.3010   31.1240   63.2200 O   0  0  0  0  0  0  0  0  0  0  0  0
   41.5290   32.2030   62.6480 C   0  0  0  0  0  0  0  0  0  0  0  0
   40.2590   32.3040   62.9230 C   0  0  0  0  0  0  0  0  0  0  0  0
   39.5140   33.2350   62.6380 C   0  0  0  0  0  0  0  0  0  0  0  0
   39.9840   34.1690   61.7840 C   0  0  0  0  0  0  0  0  0  0  0  0
   39.0600   35.4010   61.4980 C   0  0  1  0  0  0  0  0  0  0  0  0
   39.6820   36.6480   61.7840 C   0  0  0  0  0  0  0  0  0  0  0  0
   39.0930   37.0510   61.4010 C   0  0  0  0  0  0  0  0  0  0  0  0
   37.7380   37.7290   61.8420 C   0  0  1  0  0  0  0  0  0  0  0  0
   37.7920   39.1430   61.0510 O   0  0  0  0  0  0  0  0  0  0  0  0
   36.6220   36.7940   61.5970 C   0  0  0  0  0  0  0  0  0  0  0  0
   36.7970   36.0470   60.1130 C   0  0  1  0  0  0  0  0  0  0  0  0
   36.9660   37.0720   59.2000 O   0  0  0  0  0  0  0  0  0  0  0  0
   38.0460   35.0950   60.3150 C   0  0  2  0  0  0  0  0  0  0  0  0
   37.6810   33.6040   60.1330 C   0  0  1  0  0  0  0  0  0  0  0  0
   36.4280   33.1660   60.8050 C   0  0  0  0  0  0  0  0  0  0  0  0
   38.3650   33.0850   59.0620 C   0  0  0  0  0  0  0  0  0  0  0  0
   37.8780   33.3080   57.6990 N   0  0  0  0  0  0  0  0  0  0  0  0
   38.3430   32.1980   56.7100 C   0  0  0  0  0  0  0  0  0  0  0  0
   38.3470   32.7030   55.3580 C   0  0  2  0  0  0  0  0  0  0  0  0
   37.8510   31.8460   54.4090 O   0  0  0  0  0  0  0  0  0  0  0  0
   39.1030   31.2180   55.1380 C   0  0  1  0  0  0  0  0  0  0  0  0
   39.4830   30.1870   53.9530 C   0  0  0  0  0  0  0  0  0  0  0  0
   39.3980   29.0210   54.8690 C   0  0  1  0  0  0  0  0  0  0  0  0
   39.9540   29.1790   56.1770 C   0  0  0  0  0  0  0  0  0  0  0  0
   40.1730   28.0770   56.9500 C   0  0  0  0  0  0  0  0  0  0  0  0
   39.9600   26.8180   56.4570 C   0  0  0  0  0  0  0  0  0  0  0  0
   40.2560   25.8690   57.1740 O   0  0  0  0  0  0  0  0  0  0  0  0
   39.3490   26.4990   55.2030 C   0  0  1  0  0  0  0  0  0  0  0  0
   40.2060   25.6410   54.2020 C   0  0  0  0  0  0  0  0  0  0  0  0
   38.1630   25.6950   55.2870 O   0  0  0  0  0  0  0  0  0  0  0  0
   38.8880   27.7090   54.5740 C   0  0  1  0  0  0  0  0  0  0  0  0
   37.9670   27.6940   53.5440 O   0  0  0  0  0  0  0  0  0  0  0  0
   41.2350   34.1510   61.5110 C   0  0  0  0  0  0  0  0  0  0  0  0
   42.0810   33.1650   61.8230 C   0  0  0  0  0  0  0  0  0  0  0  0
   41.3545   29.7498   64.4975 H   0  0  0  0  0  0  0  0  0  0  0  0
   40.4940   30.0839   62.9565 H   0  0  0  0  0  0  0  0  0  0  0  0
   41.9734   29.0650   62.9565 H   0  0  0  0  0  0  0  0  0  0  0  0
   39.8069   31.4633   63.4697 H   0  0  0  0  0  0  0  0  0  0  0  0
   38.5015   33.3066   63.0619 H   0  0  0  0  0  0  0  0  0  0  0  0
   38.2692   35.6100   62.2335 H   0  0  0  0  0  0  0  0  0  0  0  0
   39.7488   36.8746   62.8583 H   0  0  0  0  0  0  0  0  0  0  0  0
   40.7309   36.8124   61.4963 H   0  0  0  0  0  0  0  0  0  0  0  0
   39.6359   37.8800   60.9234 H   0  0  0  0  0  0  0  0  0  0  0  0
   38.6178   36.1511   60.9834 H   0  0  0  0  0  0  0  0  0  0  0  0
   37.5825   37.9470   62.9089 H   0  0  0  0  0  0  0  0  0  0  0  0
   36.9910   39.6790   61.2760 H   0  0  0  0  0  0  0  0  0  0  0  0
   36.6106   36.0294   62.3877 H   0  0  0  0  0  0  0  0  0  0  0  0
   35.6782   37.3590   61.6009 H   0  0  0  0  0  0  0  0  0  0  0  0
   35.9594   35.4372   59.7434 H   0  0  0  0  0  0  0  0  0  0  0  0
   37.4800   37.8070   59.6200 H   0  0  0  0  0  0  0  0  0  0  0  0
   38.6955   35.3818   59.4749 H   0  0  0  0  0  0  0  0  0  0  0  0
   37.9963   32.7495   60.7497 H   0  0  0  0  0  0  0  0  0  0  0  0
   36.5614   33.2126   61.8959 H   0  0  0  0  0  0  0  0  0  0  0  0
   35.6017   33.8286   60.5080 H   0  0  0  0  0  0  0  0  0  0  0  0
   36.1945   32.1329   60.5080 H   0  0  0  0  0  0  0  0  0  0  0  0
   39.3833   33.4987   59.1060 H   0  0  0  0  0  0  0  0  0  0  0  0
   38.2513   31.9989   59.1943 H   0  0  0  0  0  0  0  0  0  0  0  0
   36.8480   33.3240   57.7160 H   0  0  0  0  0  0  0  0  0  0  0  0
   38.2660   34.2030   57.3710 H   0  0  0  0  0  0  0  0  0  0  0  0
   39.3590   31.8739   56.9796 H   0  0  0  0  0  0  0  0  0  0  0  0
   37.6478   31.3479   56.7729 H   0  0  0  0  0  0  0  0  0  0  0  0
   38.2966   33.7998   55.2907 H   0  0  0  0  0  0  0  0  0  0  0  0
   39.7955   30.7759   55.8694 H   0  0  0  0  0  0  0  0  0  0  0  0
   38.7457   30.1616   53.1371 H   0  0  0  0  0  0  0  0  0  0  0  0
   40.4027   30.3496   53.3719 H   0  0  0  0  0  0  0  0  0  0  0  0
   40.3693   28.6601   54.4997 H   0  0  0  0  0  0  0  0  0  0  0  0
   40.2030   30.1810   56.5565 H   0  0  0  0  0  0  0  0  0  0  0  0
   40.5258   28.2017   57.9844 H   0  0  0  0  0  0  0  0  0  0  0  0
   40.8724   24.9738   54.7684 H   0  0  0  0  0  0  0  0  0  0  0  0
   39.5371   25.0398   53.5687 H   0  0  0  0  0  0  0  0  0  0  0  0
   40.8080   26.3092   53.5687 H   0  0  0  0  0  0  0  0  0  0  0  0
   38.2290   25.0900   56.0680 H   0  0  0  0  0  0  0  0  0  0  0  0
   39.7069   27.6409   53.8427 H   0  0  0  0  0  0  0  0  0  0  0  0
   37.4140   28.5150   53.5840 H   0  0  0  0  0  0  0  0  0  0  0  0
   41.6471   35.0189   60.9754 H   0  0  0  0  0  0  0  0  0  0  0  0
   43.1179   33.1228   61.4581 H   0  0  0  0  0  0  0  0  0  0  0  0
  1  2  1  0
  2  3  1  0
  3  4  2  0
  4  5  1  0
  5  6  2  0
  6  7  1  0
  7  8  1  0
  8  9  1  0
  9 10  1  0
 10 11  1  0
 10 12  1  0
 12 13  1  0
 13 14  1  0
 13 15  1  0
 15 16  1  0
 16 17  1  0
 16 18  1  0
 18 19  1  0
 19 20  1  0
 20 21  1  0
 21 22  1  0
 22 23  1  0
 23 24  1  0
 24 25  1  0
 25 26  1  0
 26 27  2  0
 27 28  1  0
 28 29  2  0
 28 30  1  0
 30 31  1  0
 30 32  1  1
 30 33  1  0
 33 34  1  0
  6 35  1  0
 35 36  2  0
 36  3  1  0
 15  7  1  0
 23 21  1  0
 33 25  1  0
  1 37  1  0
  1 38  1  0
  1 39  1  0
  4 40  1  0
  5 41  1  0
  7 42  1  1
  8 43  1  0
  8 44  1  0
  9 45  1  0
  9 46  1  0
 10 47  1  1
 11 48  1  0
 12 49  1  0
 12 50  1  0
 13 51  1  6
 14 52  1  0
 15 53  1  6
 16 54  1  1
 17 55  1  0
 17 56  1  0
 17 57  1  0
 18 58  1  0
 18 59  1  0
 19 60  1  0
 19 61  1  0
 20 62  1  0
 20 63  1  0
 21 64  1  1
 23 65  1  1
 24 66  1  0
 24 67  1  0
 25 68  1  1
 26 69  1  0
 27 70  1  0
 31 71  1  0
 31 72  1  0
 31 73  1  0
 32 74  1  0
 33 75  1  1
 34 76  1  0
 35 77  1  0
 36 78  1  0
M  CHG  1  19   1
M  END

>  <ID>
DiffSBDD_33_num_sample_50

>  <docking_score>
-10.05

$$$$
DiffSBDD_34_num_sample_50
     RDKit          3D

 50 51  0  0  0  0  0  0  0  0999 V2000
   40.3540   30.3010   51.4700 C   0  0  0  0  0  0  0  0  0  0  0  0
   39.5440   30.6930   52.6440 C   0  0  0  0  0  0  0  0  0  0  0  0
   39.3380   30.2210   53.8970 C   0  0  0  0  0  0  0  0  0  0  0  0
   39.3200   31.2380   55.0860 C   0  0  0  0  0  0  0  0  0  0  0  0
   39.0720   32.4910   55.9380 C   0  0  1  0  0  0  0  0  0  0  0  0
   37.9220   33.0190   55.4270 O   0  0  0  0  0  0  0  0  0  0  0  0
   38.9350   32.4500   57.3420 C   0  0  0  0  0  0  0  0  0  0  0  0
   38.2460   33.1870   58.4320 C   0  0  0  0  0  0  0  0  0  0  0  0
   37.4220   34.2230   58.0690 O   0  0  0  0  0  0  0  0  0  0  0  0
   37.9610   32.3870   59.6310 O   0  0  0  0  0  0  0  0  0  0  0  0
   37.9660   33.1420   60.9430 C   0  0  0  0  0  0  0  0  0  0  0  0
   39.2800   33.7910   61.3570 C   0  0  0  0  0  0  0  0  0  0  0  0
   39.0800   35.3310   61.1820 C   0  0  0  0  0  0  0  0  0  0  0  0
   37.5960   35.7550   61.2560 C   0  0  0  0  0  0  0  0  0  0  0  0
   37.3660   36.9620   60.3940 C   0  0  0  0  0  0  0  0  0  0  0  0
   36.5970   36.6150   59.3700 O   0  0  0  0  0  0  0  0  0  0  0  0
   39.1440   30.2330   56.3560 C   0  0  0  0  0  0  0  0  0  0  0  0
   38.9510   28.7630   56.5470 C   0  0  0  0  0  0  0  0  0  0  0  0
   38.9900   28.0020   55.2360 C   0  0  0  0  0  0  0  0  0  0  0  0
   38.9780   26.7230   55.0630 C   0  0  0  0  0  0  0  0  0  0  0  0
   39.2440   25.7170   56.1810 C   0  0  0  0  0  0  0  0  0  0  0  0
   39.9240   24.9530   56.5750 O   0  0  0  0  0  0  0  0  0  0  0  0
   38.8200   26.4030   53.6380 C   0  0  0  0  0  0  0  0  0  0  0  0
   38.7350   27.6050   53.0480 N   0  0  0  0  0  0  0  0  0  0  0  0
   38.9890   28.6970   53.9770 C   0  0  0  0  0  0  0  0  0  0  0  0
   41.2957   29.8453   51.8099 H   0  0  0  0  0  0  0  0  0  0  0  0
   39.7931   29.5747   50.8635 H   0  0  0  0  0  0  0  0  0  0  0  0
   40.5756   31.1916   50.8635 H   0  0  0  0  0  0  0  0  0  0  0  0
   39.8855   31.7214   52.8330 H   0  0  0  0  0  0  0  0  0  0  0  0
   38.6115   30.2684   52.2438 H   0  0  0  0  0  0  0  0  0  0  0  0
   40.0174   33.0477   55.8584 H   0  0  0  0  0  0  0  0  0  0  0  0
   37.1680   32.4010   55.6040 H   0  0  0  0  0  0  0  0  0  0  0  0
   38.5592   31.4278   57.4963 H   0  0  0  0  0  0  0  0  0  0  0  0
   39.8802   32.9891   57.5031 H   0  0  0  0  0  0  0  0  0  0  0  0
   37.2098   33.9377   60.8719 H   0  0  0  0  0  0  0  0  0  0  0  0
   37.7652   32.3824   61.7129 H   0  0  0  0  0  0  0  0  0  0  0  0
   39.5088   33.5530   62.4063 H   0  0  0  0  0  0  0  0  0  0  0  0
   40.1182   33.4238   60.7466 H   0  0  0  0  0  0  0  0  0  0  0  0
   39.6338   35.8499   61.9783 H   0  0  0  0  0  0  0  0  0  0  0  0
   39.4520   35.6015   60.1828 H   0  0  0  0  0  0  0  0  0  0  0  0
   36.9624   34.9282   60.9025 H   0  0  0  0  0  0  0  0  0  0  0  0
   37.3408   35.9999   62.2976 H   0  0  0  0  0  0  0  0  0  0  0  0
   36.8673   37.7467   60.9818 H   0  0  0  0  0  0  0  0  0  0  0  0
   38.3282   37.3474   60.0255 H   0  0  0  0  0  0  0  0  0  0  0  0
   36.3650   37.4200   58.8430 H   0  0  0  0  0  0  0  0  0  0  0  0
   39.1750   30.7719   57.3145 H   0  0  0  0  0  0  0  0  0  0  0  0
   38.7981   28.2875   57.5270 H   0  0  0  0  0  0  0  0  0  0  0  0
   40.0891   27.9860   55.2780 H   0  0  0  0  0  0  0  0  0  0  0  0
   38.4014   25.7895   56.8844 H   0  0  0  0  0  0  0  0  0  0  0  0
   38.7806   25.4105   53.1654 H   0  0  0  0  0  0  0  0  0  0  0  0
  1  2  1  0
  2  3  1  0
  3  4  2  0
  4  5  1  0
  5  6  1  0
  5  7  1  0
  7  8  1  0
  8  9  2  0
  8 10  1  0
 10 11  1  0
 11 12  1  0
 12 13  1  0
 13 14  1  0
 14 15  1  0
 15 16  1  0
  4 17  1  0
 17 18  2  0
 18 19  1  0
 19 20  1  0
 20 21  1  0
 21 22  2  0
 20 23  2  0
 23 24  1  0
 24 25  2  0
 25  3  1  0
 25 19  1  0
  1 26  1  0
  1 27  1  0
  1 28  1  0
  2 29  1  0
  2 30  1  0
  5 31  1  1
  6 32  1  0
  7 33  1  0
  7 34  1  0
 11 35  1  0
 11 36  1  0
 12 37  1  0
 12 38  1  0
 13 39  1  0
 13 40  1  0
 14 41  1  0
 14 42  1  0
 15 43  1  0
 15 44  1  0
 16 45  1  0
 17 46  1  0
 18 47  1  0
 19 48  1  0
 21 49  1  0
 23 50  1  0
M  END

>  <ID>
DiffSBDD_34_num_sample_50

>  <docking_score>
-7.528

$$$$
DiffSBDD_35_num_sample_50
     RDKit          3D

 44 43  0  0  0  0  0  0  0  0999 V2000
   37.6840   28.9380   57.2930 N   0  0  0  0  0  0  0  0  0  0  0  0
   38.4420   27.6730   57.5870 C   0  0  0  0  0  0  0  0  0  0  0  0
   38.3630   26.4290   56.6620 C   0  0  2  0  0  0  0  0  0  0  0  0
   38.8640   25.3580   57.8890 C   0  0  0  0  0  0  0  0  0  0  0  0
   39.7850   24.4500   57.3680 O   0  0  0  0  0  0  0  0  0  0  0  0
   37.7290   27.0430   54.9540 S   0  0  0  0  0  0  0  0  0  0  0  0
   39.0250   26.6590   53.7880 S   0  0  0  0  0  0  0  0  0  0  0  0
   38.6410   27.5050   52.3210 C   0  0  0  0  0  0  0  0  0  0  0  0
   37.6440   28.1250   52.2140 O   0  0  0  0  0  0  0  0  0  0  0  0
   39.6970   27.7440   51.5320 N   0  0  0  0  0  0  0  0  0  0  0  0
   39.8500   28.7970   50.5190 C   0  0  0  0  0  0  0  0  0  0  0  0
   40.4690   30.1100   51.0630 C   0  0  0  0  0  0  0  0  0  0  0  0
   39.5290   30.8910   51.9370 C   0  0  0  0  0  0  0  0  0  0  0  0
   39.8480   30.5160   53.3000 N   0  0  0  0  0  0  0  0  0  0  0  0
   39.2470   30.6370   54.5060 C   0  0  0  0  0  0  0  0  0  0  0  0
   39.8480   29.9000   55.1450 O   0  0  0  0  0  0  0  0  0  0  0  0
   38.3250   31.6310   54.9230 C   0  0  0  0  0  0  0  0  0  0  0  0
   38.8360   32.7850   55.8600 C   0  0  0  0  0  0  0  0  0  0  0  0
   38.3410   32.8890   57.2790 C   0  0  0  0  0  0  0  0  0  0  0  0
   37.9230   31.6740   57.8530 O   0  0  0  0  0  0  0  0  0  0  0  0
   36.6740   28.7380   57.2830 H   0  0  0  0  0  0  0  0  0  0  0  0
   37.8890   29.6380   58.0210 H   0  0  0  0  0  0  0  0  0  0  0  0
   37.9710   29.3050   56.3740 H   0  0  0  0  0  0  0  0  0  0  0  0
   39.5043   27.9549   57.6326 H   0  0  0  0  0  0  0  0  0  0  0  0
   37.9427   27.3130   58.4987 H   0  0  0  0  0  0  0  0  0  0  0  0
   37.3143   26.2763   56.9569 H   0  0  0  0  0  0  0  0  0  0  0  0
   39.3330   25.9285   58.7042 H   0  0  0  0  0  0  0  0  0  0  0  0
   37.9914   24.8122   58.2771 H   0  0  0  0  0  0  0  0  0  0  0  0
   40.6930   24.6800   57.6870 H   0  0  0  0  0  0  0  0  0  0  0  0
   40.5010   27.1110   51.6500 H   0  0  0  0  0  0  0  0  0  0  0  0
   40.4994   28.4144   49.7178 H   0  0  0  0  0  0  0  0  0  0  0  0
   38.8393   29.0453   50.1628 H   0  0  0  0  0  0  0  0  0  0  0  0
   41.3638   29.8572   51.6507 H   0  0  0  0  0  0  0  0  0  0  0  0
   40.7089   30.7419   50.1951 H   0  0  0  0  0  0  0  0  0  0  0  0
   39.6803   31.9709   51.7921 H   0  0  0  0  0  0  0  0  0  0  0  0
   38.4783   30.6739   51.6943 H   0  0  0  0  0  0  0  0  0  0  0  0
   40.7580   30.0400   53.3680 H   0  0  0  0  0  0  0  0  0  0  0  0
   37.9252   32.1043   54.0141 H   0  0  0  0  0  0  0  0  0  0  0  0
   37.6011   31.0823   55.5434 H   0  0  0  0  0  0  0  0  0  0  0  0
   39.9303   32.6871   55.9136 H   0  0  0  0  0  0  0  0  0  0  0  0
   38.4267   33.6897   55.3866 H   0  0  0  0  0  0  0  0  0  0  0  0
   39.1560   33.2954   57.8959 H   0  0  0  0  0  0  0  0  0  0  0  0
   37.4524   33.5366   57.2482 H   0  0  0  0  0  0  0  0  0  0  0  0
   36.9700   31.7420   58.1110 H   0  0  0  0  0  0  0  0  0  0  0  0
  1  2  1  0
  2  3  1  0
  3  4  1  0
  4  5  1  0
  3  6  1  0
  6  7  1  0
  7  8  1  0
  8  9  2  0
  8 10  1  0
 10 11  1  0
 11 12  1  0
 12 13  1  0
 13 14  1  0
 14 15  1  0
 15 16  2  0
 15 17  1  0
 17 18  1  0
 18 19  1  0
 19 20  1  0
  1 21  1  0
  1 22  1  0
  1 23  1  0
  2 24  1  0
  2 25  1  0
  3 26  1  6
  4 27  1  0
  4 28  1  0
  5 29  1  0
 10 30  1  0
 11 31  1  0
 11 32  1  0
 12 33  1  0
 12 34  1  0
 13 35  1  0
 13 36  1  0
 14 37  1  0
 17 38  1  0
 17 39  1  0
 18 40  1  0
 18 41  1  0
 19 42  1  0
 19 43  1  0
 20 44  1  0
M  CHG  1   1   1
M  END

>  <ID>
DiffSBDD_35_num_sample_50

>  <docking_score>
-6.176

$$$$
DiffSBDD_36_num_sample_50
     RDKit          3D

 43 42  0  0  0  0  0  0  0  0999 V2000
   36.9680   24.0980   55.5290 C   0  0  0  0  0  0  0  0  0  0  0  0
   37.5420   25.0030   56.5650 C   0  0  0  0  0  0  0  0  0  0  0  0
   38.9310   24.9160   57.2920 C   0  0  0  0  0  0  0  0  0  0  0  0
   39.3340   26.2660   58.1960 C   0  0  0  0  0  0  0  0  0  0  0  0
   39.8740   27.1780   57.0640 C   0  0  0  0  0  0  0  0  0  0  0  0
   38.9110   28.5420   57.3290 C   0  0  0  0  0  0  0  0  0  0  0  0
   38.3610   30.3470   57.5030 S   0  0  0  0  0  0  0  0  0  0  0  0
   38.6210   31.7760   56.4590 C   0  0  0  0  0  0  0  0  0  0  0  0
   38.5950   31.7250   54.9360 C   0  0  0  0  0  0  0  0  0  0  0  0
   39.4590   30.6650   54.2910 C   0  0  0  0  0  0  0  0  0  0  0  0
   39.0030   29.5130   53.5200 C   0  0  0  0  0  0  0  0  0  0  0  0
   38.5590   28.2500   52.7090 C   0  0  0  0  0  0  0  0  0  0  0  0
   38.9630   26.9640   53.4830 C   0  0  0  0  0  0  0  0  0  0  0  0
   39.1900   27.9440   51.2280 C   0  0  0  0  0  0  0  0  0  0  0  0
   37.0100   28.1720   52.6070 O   0  0  0  0  0  0  0  0  0  0  0  0
   36.4407   23.2667   56.0198 H   0  0  0  0  0  0  0  0  0  0  0  0
   36.2614   24.6608   54.9013 H   0  0  0  0  0  0  0  0  0  0  0  0
   37.7783   23.6987   54.9013 H   0  0  0  0  0  0  0  0  0  0  0  0
   37.5430   25.9956   56.0910 H   0  0  0  0  0  0  0  0  0  0  0  0
   36.9053   24.6979   57.4085 H   0  0  0  0  0  0  0  0  0  0  0  0
   38.9113   24.0463   57.9653 H   0  0  0  0  0  0  0  0  0  0  0  0
   39.6908   24.8342   56.5008 H   0  0  0  0  0  0  0  0  0  0  0  0
   38.4561   26.7045   58.6930 H   0  0  0  0  0  0  0  0  0  0  0  0
   40.0337   26.0834   59.0249 H   0  0  0  0  0  0  0  0  0  0  0  0
   40.9441   27.3995   57.1897 H   0  0  0  0  0  0  0  0  0  0  0  0
   39.8184   26.7529   56.0510 H   0  0  0  0  0  0  0  0  0  0  0  0
   38.1467   28.2736   56.5848 H   0  0  0  0  0  0  0  0  0  0  0  0
   39.4451   28.6684   58.2823 H   0  0  0  0  0  0  0  0  0  0  0  0
   37.8479   32.5032   56.7480 H   0  0  0  0  0  0  0  0  0  0  0  0
   39.6842   31.9865   56.6469 H   0  0  0  0  0  0  0  0  0  0  0  0
   37.5554   31.5472   54.6234 H   0  0  0  0  0  0  0  0  0  0  0  0
   39.0089   32.6876   54.6011 H   0  0  0  0  0  0  0  0  0  0  0  0
   40.1246   31.2165   53.6107 H   0  0  0  0  0  0  0  0  0  0  0  0
   39.8092   30.1463   55.1956 H   0  0  0  0  0  0  0  0  0  0  0  0
   38.0421   29.5209   54.0553 H   0  0  0  0  0  0  0  0  0  0  0  0
   39.5432   29.8890   52.6387 H   0  0  0  0  0  0  0  0  0  0  0  0
   38.9035   27.1533   54.5650 H   0  0  0  0  0  0  0  0  0  0  0  0
   38.2788   26.1451   53.2159 H   0  0  0  0  0  0  0  0  0  0  0  0
   39.9925   26.6835   53.2159 H   0  0  0  0  0  0  0  0  0  0  0  0
   40.1746   27.4665   51.3405 H   0  0  0  0  0  0  0  0  0  0  0  0
   38.5176   27.2719   50.6747 H   0  0  0  0  0  0  0  0  0  0  0  0
   39.3014   28.8882   50.6747 H   0  0  0  0  0  0  0  0  0  0  0  0
   36.6070   28.5170   53.4420 H   0  0  0  0  0  0  0  0  0  0  0  0
  1  2  1  0
  2  3  1  0
  3  4  1  0
  4  5  1  0
  5  6  1  0
  6  7  1  0
  7  8  1  0
  8  9  1  0
  9 10  1  0
 10 11  1  0
 11 12  1  0
 12 13  1  0
 12 14  1  0
 12 15  1  0
  1 16  1  0
  1 17  1  0
  1 18  1  0
  2 19  1  0
  2 20  1  0
  3 21  1  0
  3 22  1  0
  4 23  1  0
  4 24  1  0
  5 25  1  0
  5 26  1  0
  6 27  1  0
  6 28  1  0
  8 29  1  0
  8 30  1  0
  9 31  1  0
  9 32  1  0
 10 33  1  0
 10 34  1  0
 11 35  1  0
 11 36  1  0
 13 37  1  0
 13 38  1  0
 13 39  1  0
 14 40  1  0
 14 41  1  0
 14 42  1  0
 15 43  1  0
M  END

>  <ID>
DiffSBDD_36_num_sample_50

>  <docking_score>
-5.655

$$$$
DiffSBDD_37_num_sample_50
     RDKit          3D

 62 64  0  0  0  0  0  0  0  0999 V2000
   38.4500   32.7720   56.2330 C   0  0  0  0  0  0  0  0  0  0  0  0
   38.6530   32.0020   57.4660 C   0  0  0  0  0  0  0  0  0  0  0  0
   38.1080   30.6260   57.5640 N   0  0  2  0  0  0  0  0  0  0  0  0
   37.7740   30.1970   56.1080 C   0  0  0  0  0  0  0  0  0  0  0  0
   38.8860   29.4660   55.3380 C   0  0  1  0  0  0  0  0  0  0  0  0
   39.0820   28.1000   55.8250 C   0  0  0  0  0  0  0  0  0  0  0  0
   37.9880   26.8180   55.0570 S   0  0  0  0  0  0  0  0  0  0  0  0
   37.9280   27.2690   53.5320 C   0  0  0  0  0  0  0  0  0  0  0  0
   38.6200   28.4950   53.0390 C   0  0  0  0  0  0  0  0  0  0  0  0
   39.0670   28.4170   51.7640 C   0  0  0  0  0  0  0  0  0  0  0  0
   39.8050   29.4680   51.3290 C   0  0  0  0  0  0  0  0  0  0  0  0
   40.6850   29.4530   50.2280 N   0  0  0  0  0  0  0  0  0  0  0  0
   40.0340   29.3570   49.1600 F   0  0  0  0  0  0  0  0  0  0  0  0
   41.5170   30.4770   50.2650 F   0  0  0  0  0  0  0  0  0  0  0  0
   39.9270   30.6280   51.9800 C   0  0  0  0  0  0  0  0  0  0  0  0
   39.4270   30.7470   53.2510 C   0  0  0  0  0  0  0  0  0  0  0  0
   38.8300   29.5920   53.8010 C   0  0  0  0  0  0  0  0  0  0  0  0
   37.8300   30.2090   59.0760 C   0  0  2  0  0  0  0  0  0  0  0  0
   38.6620   29.0020   59.5080 C   0  0  0  0  0  0  0  0  0  0  0  0
   36.3790   30.0900   59.4000 C   0  0  0  0  0  0  0  0  0  0  0  0
   36.0820   31.1470   60.5370 C   0  0  0  0  0  0  0  0  0  0  0  0
   36.7990   32.4340   60.4090 C   0  0  0  0  0  0  0  0  0  0  0  0
   37.1220   33.6930   60.5760 C   0  0  2  0  0  0  0  0  0  0  0  0
   38.4310   33.7430   61.2830 C   0  0  0  0  0  0  0  0  0  0  0  0
   36.3930   34.3540   61.2660 O   0  0  0  0  0  0  0  0  0  0  0  0
   36.7110   34.9070   59.8680 C   0  0  2  0  0  0  0  0  0  0  0  0
   35.6930   34.7000   58.9800 O   0  0  0  0  0  0  0  0  0  0  0  0
   37.3110   36.2110   59.6070 C   0  0  0  0  0  0  0  0  0  0  0  0
   36.7030   37.2830   60.2030 O   0  0  0  0  0  0  0  0  0  0  0  0
   38.1772   33.8068   56.4876 H   0  0  0  0  0  0  0  0  0  0  0  0
   39.3788   32.7721   55.6437 H   0  0  0  0  0  0  0  0  0  0  0  0
   37.6419   32.3142   55.6437 H   0  0  0  0  0  0  0  0  0  0  0  0
   39.7393   31.9281   57.6223 H   0  0  0  0  0  0  0  0  0  0  0  0
   38.0790   32.5622   58.2188 H   0  0  0  0  0  0  0  0  0  0  0  0
   38.1650   29.6070   57.7030 H   0  0  0  0  0  0  0  0  0  0  0  0
   36.9004   29.5297   56.1479 H   0  0  0  0  0  0  0  0  0  0  0  0
   37.6064   31.1350   55.5584 H   0  0  0  0  0  0  0  0  0  0  0  0
   39.8061   30.0195   55.5768 H   0  0  0  0  0  0  0  0  0  0  0  0
   40.1265   27.8164   55.6288 H   0  0  0  0  0  0  0  0  0  0  0  0
   38.8223   28.1191   56.8937 H   0  0  0  0  0  0  0  0  0  0  0  0
   38.3348   26.4306   52.9475 H   0  0  0  0  0  0  0  0  0  0  0  0
   36.8686   27.5409   53.4148 H   0  0  0  0  0  0  0  0  0  0  0  0
   38.8451   27.5535   51.1197 H   0  0  0  0  0  0  0  0  0  0  0  0
   40.4256   31.4826   51.4992 H   0  0  0  0  0  0  0  0  0  0  0  0
   39.4877   31.6913   53.8119 H   0  0  0  0  0  0  0  0  0  0  0  0
   38.1803   31.0475   59.6959 H   0  0  0  0  0  0  0  0  0  0  0  0
   38.6952   28.9538   60.6064 H   0  0  0  0  0  0  0  0  0  0  0  0
   38.2053   28.0820   59.1142 H   0  0  0  0  0  0  0  0  0  0  0  0
   39.6843   29.1015   59.1142 H   0  0  0  0  0  0  0  0  0  0  0  0
   35.7720   30.3099   58.5094 H   0  0  0  0  0  0  0  0  0  0  0  0
   36.1286   29.0711   59.7304 H   0  0  0  0  0  0  0  0  0  0  0  0
   35.0024   31.3578   60.5309 H   0  0  0  0  0  0  0  0  0  0  0  0
   36.4383   30.6932   61.4735 H   0  0  0  0  0  0  0  0  0  0  0  0
   37.7849   32.0340   60.6884 H   0  0  0  0  0  0  0  0  0  0  0  0
   35.9500   32.7866   59.8050 H   0  0  0  0  0  0  0  0  0  0  0  0
   38.2612   33.7365   62.3698 H   0  0  0  0  0  0  0  0  0  0  0  0
   39.0338   32.8672   61.0008 H   0  0  0  0  0  0  0  0  0  0  0  0
   38.9653   34.6622   61.0008 H   0  0  0  0  0  0  0  0  0  0  0  0
   34.9980   35.3950   59.1070 H   0  0  0  0  0  0  0  0  0  0  0  0
   38.3531   36.1778   59.9575 H   0  0  0  0  0  0  0  0  0  0  0  0
   37.2042   36.3745   58.5245 H   0  0  0  0  0  0  0  0  0  0  0  0
   37.3910   37.9320   60.4970 H   0  0  0  0  0  0  0  0  0  0  0  0
  1  2  1  0
  2  3  1  0
  3  4  1  0
  4  5  1  0
  5  6  1  0
  6  7  1  0
  7  8  1  0
  8  9  1  0
  9 10  2  0
 10 11  1  0
 11 12  1  0
 12 13  1  0
 12 14  1  0
 11 15  2  0
 15 16  1  0
 16 17  2  0
  3 18  1  0
 18 19  1  0
 18 20  1  0
 20 21  1  0
 21 22  1  0
 23 22  1  6
 23 24  1  0
 23 25  1  0
 25 26  1  0
 26 27  1  6
 26 28  1  0
 28 29  1  0
 17  5  1  0
 26 23  1  0
 17  9  1  0
  1 30  1  0
  1 31  1  0
  1 32  1  0
  2 33  1  0
  2 34  1  0
  3 35  1  6
  4 36  1  0
  4 37  1  0
  5 38  1  1
  6 39  1  0
  6 40  1  0
  8 41  1  0
  8 42  1  0
 10 43  1  0
 15 44  1  0
 16 45  1  0
 18 46  1  1
 19 47  1  0
 19 48  1  0
 19 49  1  0
 20 50  1  0
 20 51  1  0
 21 52  1  0
 21 53  1  0
 22 54  1  0
 22 55  1  0
 24 56  1  0
 24 57  1  0
 24 58  1  0
 27 59  1  0
 28 60  1  0
 28 61  1  0
 29 62  1  0
M  CHG  1   3   1
M  END

>  <ID>
DiffSBDD_37_num_sample_50

>  <docking_score>
-9.268

$$$$
DiffSBDD_38_num_sample_50
     RDKit          3D

110116  0  0  0  0  0  0  0  0999 V2000
   44.8290   32.3160   67.1810 C   0  0  0  0  0  0  0  0  0  0  0  0
   43.7150   31.3690   66.8890 C   0  0  2  0  0  0  0  0  0  0  0  0
   43.9070   30.5930   65.5080 C   0  0  0  0  0  0  0  0  0  0  0  0
   42.4570   30.1140   64.9770 C   0  0  0  0  0  0  0  0  0  0  0  0
   41.7860   30.9880   63.8580 C   0  0  1  0  0  0  0  0  0  0  0  0
   41.1170   30.7090   62.5710 C   0  0  0  0  0  0  0  0  0  0  0  0
   40.6730   31.6870   61.6810 C   0  0  0  0  0  0  0  0  0  0  0  0
   41.3110   32.9920   62.3920 C   0  0  0  0  0  0  0  0  0  0  0  0
   41.4380   32.5660   63.9460 C   0  0  2  0  0  0  0  0  0  0  0  0
   42.4580   32.8120   65.2130 C   0  0  1  0  0  0  0  0  0  0  0  0
   42.2150   34.2260   65.2410 C   0  0  0  0  0  0  0  0  0  0  0  0
   41.3740   35.0960   65.6580 N   0  0  0  0  0  0  0  0  0  0  0  0
   40.1530   35.0610   66.5900 C   0  0  0  0  0  0  0  0  0  0  0  0
   40.5940   35.1400   68.1280 C   0  0  0  0  0  0  0  0  0  0  0  0
   39.8530   35.3020   69.0610 C   0  0  0  0  0  0  0  0  0  0  0  0
   40.3070   34.0370   68.9920 C   0  0  0  0  0  0  0  0  0  0  0  0
   41.2640   35.9910   64.2990 C   0  0  0  0  0  0  0  0  0  0  0  0
   42.3250   36.0970   63.7820 O   0  0  0  0  0  0  0  0  0  0  0  0
   39.9080   36.2980   63.8880 C   0  0  0  0  0  0  0  0  0  0  0  0
   39.1260   36.9970   62.4180 S   0  0  0  0  0  0  0  0  0  0  0  0
   37.4710   36.8560   62.7400 C   0  0  0  0  0  0  0  0  0  0  0  0
   39.4760   38.3360   61.7270 C   0  0  0  0  0  0  0  0  0  0  0  0
   39.7700   35.8450   61.2230 C   0  0  0  0  0  0  0  0  0  0  0  0
   38.5210   35.4320   60.4190 C   0  0  0  0  0  0  0  0  0  0  0  0
   38.5170   34.2010   59.6710 C   0  0  0  0  0  0  0  0  0  0  0  0
   37.5540   33.8200   58.7910 C   0  0  2  0  0  0  0  0  0  0  0  0
   37.8330   33.6800   57.3600 N   0  0  0  0  0  0  0  0  0  0  0  0
   38.3890   33.0480   56.3160 C   0  0  0  0  0  0  0  0  0  0  0  0
   38.2690   33.5340   55.2040 O   0  0  0  0  0  0  0  0  0  0  0  0
   39.0210   31.8490   56.4350 C   0  0  0  0  0  0  0  0  0  0  0  0
   38.3810   30.5790   56.2780 C   0  0  1  0  0  0  0  0  0  0  0  0
   37.1510   30.1690   54.9450 S   0  0  0  0  0  0  0  0  0  0  0  0
   37.7920   28.5170   55.0340 C   0  0  0  0  0  0  0  0  0  0  0  0
   37.1300   27.5210   54.3030 N   0  0  0  0  0  0  0  0  0  0  0  0
   37.6130   26.1910   54.3230 C   0  0  0  0  0  0  0  0  0  0  0  0
   38.7560   25.8680   55.2360 C   0  0  0  0  0  0  0  0  0  0  0  0
   39.4960   27.0080   55.7740 C   0  0  0  0  0  0  0  0  0  0  0  0
   38.9070   28.3060   55.7890 C   0  0  0  0  0  0  0  0  0  0  0  0
   39.4020   29.5980   56.1310 C   0  0  1  0  0  0  0  0  0  0  0  0
   40.2150   30.1740   55.2050 O   0  0  0  0  0  0  0  0  0  0  0  0
   36.4080   33.9080   59.6830 C   0  0  0  0  0  0  0  0  0  0  0  0
   35.4370   34.5860   59.3100 O   0  0  0  0  0  0  0  0  0  0  0  0
   36.1220   33.2050   60.4640 O   0  0  0  0  0  0  0  0  0  0  0  0
   42.3220   32.0890   66.6040 C   0  0  1  0  0  0  0  0  0  0  0  0
   40.8870   31.7020   66.6670 O   0  0  0  0  0  0  0  0  0  0  0  0
   39.7740   30.2850   60.7430 C   0  0  1  0  0  0  0  0  0  0  0  0
   38.7240   30.7040   59.9070 C   0  0  0  0  0  0  0  0  0  0  0  0
   38.0000   29.4280   59.6430 C   0  0  0  0  0  0  0  0  0  0  0  0
   38.9500   28.3380   59.8620 C   0  0  0  0  0  0  0  0  0  0  0  0
   40.1320   28.9360   60.6300 C   0  0  2  0  0  0  0  0  0  0  0  0
   40.5630   28.2150   61.7000 C   0  0  0  0  0  0  0  0  0  0  0  0
   41.1390   28.8580   62.5570 C   0  0  0  0  0  0  0  0  0  0  0  0
   44.9482   32.4173   68.2698 H   0  0  0  0  0  0  0  0  0  0  0  0
   45.7620   31.9304   66.7443 H   0  0  0  0  0  0  0  0  0  0  0  0
   44.5986   33.2990   66.7443 H   0  0  0  0  0  0  0  0  0  0  0  0
   43.7219   30.7335   67.7868 H   0  0  0  0  0  0  0  0  0  0  0  0
   44.3694   31.2629   64.7681 H   0  0  0  0  0  0  0  0  0  0  0  0
   44.5592   29.7197   65.6562 H   0  0  0  0  0  0  0  0  0  0  0  0
   42.5687   29.0943   64.5799 H   0  0  0  0  0  0  0  0  0  0  0  0
   41.7899   30.2007   65.8473 H   0  0  0  0  0  0  0  0  0  0  0  0
   42.5453   30.2634   64.1874 H   0  0  0  0  0  0  0  0  0  0  0  0
   42.2990   33.2248   61.9681 H   0  0  0  0  0  0  0  0  0  0  0  0
   40.6990   33.8947   62.2486 H   0  0  0  0  0  0  0  0  0  0  0  0
   40.5835   33.2008   64.2234 H   0  0  0  0  0  0  0  0  0  0  0  0
   43.4589   32.3819   65.0607 H   0  0  0  0  0  0  0  0  0  0  0  0
   43.1386   34.5854   65.7184 H   0  0  0  0  0  0  0  0  0  0  0  0
   41.7430   34.1977   64.2478 H   0  0  0  0  0  0  0  0  0  0  0  0
   39.5013   35.9166   66.3594 H   0  0  0  0  0  0  0  0  0  0  0  0
   39.6200   34.1123   66.4294 H   0  0  0  0  0  0  0  0  0  0  0  0
   41.4798   35.6962   67.7874 H   0  0  0  0  0  0  0  0  0  0  0  0
   40.1874   35.9366   69.8949 H   0  0  0  0  0  0  0  0  0  0  0  0
   38.8315   35.7063   69.1171 H   0  0  0  0  0  0  0  0  0  0  0  0
   41.0549   33.6573   69.7037 H   0  0  0  0  0  0  0  0  0  0  0  0
   39.9014   33.0169   68.9217 H   0  0  0  0  0  0  0  0  0  0  0  0
   39.4026   35.3261   63.9878 H   0  0  0  0  0  0  0  0  0  0  0  0
   39.8515   37.2312   64.4676 H   0  0  0  0  0  0  0  0  0  0  0  0
   37.3090   36.8422   63.8279 H   0  0  0  0  0  0  0  0  0  0  0  0
   36.9378   37.7120   62.3007 H   0  0  0  0  0  0  0  0  0  0  0  0
   37.0902   35.9222   62.3007 H   0  0  0  0  0  0  0  0  0  0  0  0
   39.6761   39.1016   62.4911 H   0  0  0  0  0  0  0  0  0  0  0  0
   40.3693   38.2021   61.0993 H   0  0  0  0  0  0  0  0  0  0  0  0
   38.6314   38.6564   61.0993 H   0  0  0  0  0  0  0  0  0  0  0  0
   40.5153   36.3269   60.5731 H   0  0  0  0  0  0  0  0  0  0  0  0
   40.2868   34.9905   61.6842 H   0  0  0  0  0  0  0  0  0  0  0  0
   37.6889   35.3700   61.1358 H   0  0  0  0  0  0  0  0  0  0  0  0
   38.4601   36.2022   59.6360 H   0  0  0  0  0  0  0  0  0  0  0  0
   39.4536   34.2071   59.0941 H   0  0  0  0  0  0  0  0  0  0  0  0
   38.3360   33.4804   60.4822 H   0  0  0  0  0  0  0  0  0  0  0  0
   37.2407   33.1303   57.9934 H   0  0  0  0  0  0  0  0  0  0  0  0
   37.3510   34.4850   56.9340 H   0  0  0  0  0  0  0  0  0  0  0  0
   39.8315   31.8662   55.6915 H   0  0  0  0  0  0  0  0  0  0  0  0
   39.2372   31.8375   57.5135 H   0  0  0  0  0  0  0  0  0  0  0  0
   37.7455   30.6068   57.1754 H   0  0  0  0  0  0  0  0  0  0  0  0
   37.1618   25.4160   53.6860 H   0  0  0  0  0  0  0  0  0  0  0  0
   39.0234   24.8310   55.4874 H   0  0  0  0  0  0  0  0  0  0  0  0
   40.5123   26.8635   56.1692 H   0  0  0  0  0  0  0  0  0  0  0  0
   39.9349   29.3628   57.0641 H   0  0  0  0  0  0  0  0  0  0  0  0
   39.6830   30.4180   54.4060 H   0  0  0  0  0  0  0  0  0  0  0  0
   42.3285   32.4805   67.6319 H   0  0  0  0  0  0  0  0  0  0  0  0
   40.6470   31.1900   65.8540 H   0  0  0  0  0  0  0  0  0  0  0  0
   39.8896   29.9064   61.7693 H   0  0  0  0  0  0  0  0  0  0  0  0
   38.0755   31.4320   60.4163 H   0  0  0  0  0  0  0  0  0  0  0  0
   39.0646   31.2143   58.9940 H   0  0  0  0  0  0  0  0  0  0  0  0
   37.1477   29.3290   60.3313 H   0  0  0  0  0  0  0  0  0  0  0  0
   37.6107   29.4057   58.6144 H   0  0  0  0  0  0  0  0  0  0  0  0
   38.4799   27.5375   60.4521 H   0  0  0  0  0  0  0  0  0  0  0  0
   39.2777   27.8995   58.9079 H   0  0  0  0  0  0  0  0  0  0  0  0
   41.1087   28.8772   60.1275 H   0  0  0  0  0  0  0  0  0  0  0  0
   40.4024   27.1300   61.7841 H   0  0  0  0  0  0  0  0  0  0  0  0
   41.6887   28.3243   63.3463 H   0  0  0  0  0  0  0  0  0  0  0  0
  1  2  1  0
  2  3  1  0
  3  4  1  0
  4  5  1  0
  5  6  1  0
  6  7  2  0
  7  8  1  0
  8  9  1  0
  9 10  1  0
 10 11  1  0
 11 12  1  0
 12 13  1  0
 13 14  1  0
 14 15  1  0
 15 16  1  0
 12 17  1  0
 17 18  2  0
 17 19  1  0
 19 20  1  0
 20 21  1  0
 20 22  1  0
 20 23  1  0
 23 24  1  0
 24 25  1  0
 25 26  1  0
 26 27  1  0
 27 28  1  0
 28 29  2  0
 28 30  1  0
 30 31  1  0
 31 32  1  0
 32 33  1  0
 33 34  2  0
 34 35  1  0
 35 36  2  0
 36 37  1  0
 37 38  2  0
 38 39  1  0
 39 40  1  0
 26 41  1  0
 41 42  2  0
 41 43  1  0
 10 44  1  0
 44 45  1  0
  7 46  1  0
 46 47  1  0
 47 48  1  0
 48 49  1  0
 49 50  1  0
 50 51  1  0
 51 52  2  0
 44  2  1  0
 50 46  1  0
  9  5  1  0
 16 14  1  0
 39 31  1  0
 52  6  1  0
 38 33  1  0
  1 53  1  0
  1 54  1  0
  1 55  1  0
  2 56  1  1
  3 57  1  0
  3 58  1  0
  4 59  1  0
  4 60  1  0
  5 61  1  6
  8 62  1  0
  8 63  1  0
  9 64  1  1
 10 65  1  6
 11 66  1  0
 11 67  1  0
 13 68  1  0
 13 69  1  0
 14 70  1  0
 15 71  1  0
 15 72  1  0
 16 73  1  0
 16 74  1  0
 19 75  1  0
 19 76  1  0
 21 77  1  0
 21 78  1  0
 21 79  1  0
 22 80  1  0
 22 81  1  0
 22 82  1  0
 23 83  1  0
 23 84  1  0
 24 85  1  0
 24 86  1  0
 25 87  1  0
 25 88  1  0
 26 89  1  1
 27 90  1  0
 30 91  1  0
 30 92  1  0
 31 93  1  1
 35 94  1  0
 36 95  1  0
 37 96  1  0
 39 97  1  1
 40 98  1  0
 44 99  1  1
 45100  1  0
 46101  1  1
 47102  1  0
 47103  1  0
 48104  1  0
 48105  1  0
 49106  1  0
 49107  1  0
 50108  1  6
 51109  1  0
 52110  1  0
M  CHG  1  43  -1
M  END

>  <ID>
DiffSBDD_38_num_sample_50

>  <docking_score>
-10.446

$$$$
DiffSBDD_39_num_sample_50
     RDKit          3D

 89 95  0  0  0  0  0  0  0  0999 V2000
   42.0300   28.8770   64.2970 C   0  0  0  0  0  0  0  0  0  0  0  0
   41.1160   29.8260   64.9150 C   0  0  2  0  0  0  0  0  0  0  0  0
   40.9460   30.8030   64.0570 O   0  0  0  0  0  0  0  0  0  0  0  0
   41.7680   31.8530   63.2920 C   0  0  1  0  0  0  0  0  0  0  0  0
   40.9490   32.1230   62.0070 C   0  0  2  0  0  0  0  0  0  0  0  0
   39.8540   33.0660   62.2120 O   0  0  0  0  0  0  0  0  0  0  0  0
   38.8500   33.6250   61.5420 C   0  0  0  0  0  0  0  0  0  0  0  0
   38.4300   32.5360   59.9890 S   0  0  0  0  0  0  0  0  0  0  0  0
   38.8460   33.0780   58.7710 O   0  0  0  0  0  0  0  0  0  0  0  0
   36.9420   32.1310   59.9150 O   0  0  0  0  0  0  0  0  0  0  0  0
   39.2200   31.2340   60.3560 C   0  0  0  0  0  0  0  0  0  0  0  0
   40.3850   30.8750   61.2840 C   0  0  0  0  0  0  0  0  0  0  0  0
   40.5040   29.3120   61.2830 C   0  0  0  0  0  0  0  0  0  0  0  0
   39.5940   28.7470   60.2430 C   0  0  0  0  0  0  0  0  0  0  0  0
   38.6940   29.8580   59.7960 C   0  0  2  0  0  0  0  0  0  0  0  0
   37.7950   29.7520   58.6520 N   0  0  2  0  0  0  0  0  0  0  0  0
   36.5720   29.3220   58.7350 C   0  0  0  0  0  0  0  0  0  0  0  0
   38.0810   29.4960   57.4190 C   0  0  1  0  0  0  0  0  0  0  0  0
   37.6590   30.6390   56.4540 C   0  0  0  0  0  0  0  0  0  0  0  0
   39.2610   28.6950   56.9100 C   0  0  0  0  0  0  0  0  0  0  0  0
   38.8760   27.3580   56.5040 C   0  0  0  0  0  0  0  0  0  0  0  0
   38.7320   27.0290   54.9200 C   0  0  0  0  0  0  0  0  0  0  0  0
   37.7320   27.5360   54.1860 C   0  0  0  0  0  0  0  0  0  0  0  0
   37.6560   27.9390   52.9910 C   0  0  0  0  0  0  0  0  0  0  0  0
   38.6720   27.5600   52.3080 C   0  0  0  0  0  0  0  0  0  0  0  0
   38.7170   28.4030   51.0190 O   0  0  0  0  0  0  0  0  0  0  0  0
   39.4210   29.5140   51.6070 C   0  0  0  0  0  0  0  0  0  0  0  0
   40.1810   30.3660   51.9760 N   0  0  0  0  0  0  0  0  0  0  0  0
   39.7250   26.7490   52.7810 C   0  0  0  0  0  0  0  0  0  0  0  0
   39.7830   26.4230   54.0960 C   0  0  0  0  0  0  0  0  0  0  0  0
   39.7680   26.3010   57.2330 C   0  0  0  0  0  0  0  0  0  0  0  0
   38.3490   26.2580   57.5030 C   0  0  0  0  0  0  0  0  0  0  0  0
   41.5900   33.0330   64.4450 C   0  0  2  0  0  0  0  0  0  0  0  0
   42.2250   34.2690   64.0330 C   0  0  0  0  0  0  0  0  0  0  0  0
   41.8710   35.3750   64.8500 C   0  0  0  0  0  0  0  0  0  0  0  0
   41.1300   35.2500   66.0360 C   0  0  0  0  0  0  0  0  0  0  0  0
   40.7000   33.9840   66.5420 C   0  0  0  0  0  0  0  0  0  0  0  0
   41.1090   32.9730   65.8660 C   0  0  2  0  0  0  0  0  0  0  0  0
   41.3680   31.6320   66.6650 C   0  0  1  0  0  0  0  0  0  0  0  0
   40.7070   31.5830   67.8940 O   0  0  0  0  0  0  0  0  0  0  0  0
   41.6890   30.9830   68.9210 C   0  0  0  0  0  0  0  0  0  0  0  0
   41.9160   29.4820   68.5970 C   0  0  0  0  0  0  0  0  0  0  0  0
   41.4630   29.2840   67.2630 O   0  0  0  0  0  0  0  0  0  0  0  0
   41.6860   30.3740   66.2360 C   0  0  1  0  0  0  0  0  0  0  0  0
   42.5658   28.3207   65.0802 H   0  0  0  0  0  0  0  0  0  0  0  0
   41.4606   28.1735   63.6718 H   0  0  0  0  0  0  0  0  0  0  0  0
   42.7544   29.4195   63.6718 H   0  0  0  0  0  0  0  0  0  0  0  0
   40.1628   29.3334   65.1574 H   0  0  0  0  0  0  0  0  0  0  0  0
   42.8049   31.6737   62.9714 H   0  0  0  0  0  0  0  0  0  0  0  0
   41.7140   32.5599   61.3482 H   0  0  0  0  0  0  0  0  0  0  0  0
   37.9661   33.6927   62.1933 H   0  0  0  0  0  0  0  0  0  0  0  0
   39.1410   34.6346   61.2165 H   0  0  0  0  0  0  0  0  0  0  0  0
   41.5415   29.0229   61.0593 H   0  0  0  0  0  0  0  0  0  0  0  0
   40.2208   28.9209   62.2713 H   0  0  0  0  0  0  0  0  0  0  0  0
   40.1808   28.3709   59.3920 H   0  0  0  0  0  0  0  0  0  0  0  0
   39.0093   27.9078   60.6479 H   0  0  0  0  0  0  0  0  0  0  0  0
   37.6907   29.6726   60.2072 H   0  0  0  0  0  0  0  0  0  0  0  0
   38.0170   30.7320   58.8810 H   0  0  0  0  0  0  0  0  0  0  0  0
   36.2893   29.2226   59.7934 H   0  0  0  0  0  0  0  0  0  0  0  0
   35.8976   30.0369   58.2409 H   0  0  0  0  0  0  0  0  0  0  0  0
   36.4934   28.3423   58.2409 H   0  0  0  0  0  0  0  0  0  0  0  0
   37.4458   28.5980   57.4239 H   0  0  0  0  0  0  0  0  0  0  0  0
   37.3364   31.5127   57.0393 H   0  0  0  0  0  0  0  0  0  0  0  0
   38.5135   30.9177   55.8199 H   0  0  0  0  0  0  0  0  0  0  0  0
   36.8284   30.2955   55.8199 H   0  0  0  0  0  0  0  0  0  0  0  0
   39.6977   29.2166   56.0456 H   0  0  0  0  0  0  0  0  0  0  0  0
   39.9888   28.6044   57.7299 H   0  0  0  0  0  0  0  0  0  0  0  0
   36.7832   27.6181   54.7366 H   0  0  0  0  0  0  0  0  0  0  0  0
   36.8254   28.5376   52.5889 H   0  0  0  0  0  0  0  0  0  0  0  0
   40.4953   26.3828   52.0864 H   0  0  0  0  0  0  0  0  0  0  0  0
   40.5552   25.7584   54.5107 H   0  0  0  0  0  0  0  0  0  0  0  0
   40.2331   25.4916   56.6512 H   0  0  0  0  0  0  0  0  0  0  0  0
   40.6607   26.3718   57.8718 H   0  0  0  0  0  0  0  0  0  0  0  0
   37.7478   25.4197   57.1213 H   0  0  0  0  0  0  0  0  0  0  0  0
   37.7438   26.2853   58.4211 H   0  0  0  0  0  0  0  0  0  0  0  0
   40.5963   32.5839   64.5892 H   0  0  0  0  0  0  0  0  0  0  0  0
   43.3158   34.1346   64.0787 H   0  0  0  0  0  0  0  0  0  0  0  0
   41.8804   34.4910   63.0122 H   0  0  0  0  0  0  0  0  0  0  0  0
   42.1932   36.3795   64.5383 H   0  0  0  0  0  0  0  0  0  0  0  0
   40.8707   36.1601   66.5967 H   0  0  0  0  0  0  0  0  0  0  0  0
   41.0721   33.8816   67.5721 H   0  0  0  0  0  0  0  0  0  0  0  0
   39.6019   33.9788   66.4782 H   0  0  0  0  0  0  0  0  0  0  0  0
   40.1370   33.0882   65.3641 H   0  0  0  0  0  0  0  0  0  0  0  0
   42.4195   31.9131   66.5056 H   0  0  0  0  0  0  0  0  0  0  0  0
   42.6480   31.5193   68.8692 H   0  0  0  0  0  0  0  0  0  0  0  0
   41.2701   31.0824   69.9332 H   0  0  0  0  0  0  0  0  0  0  0  0
   42.9846   29.2334   68.6763 H   0  0  0  0  0  0  0  0  0  0  0  0
   41.3721   28.8361   69.3019 H   0  0  0  0  0  0  0  0  0  0  0  0
   42.7470   30.5937   66.0463 H   0  0  0  0  0  0  0  0  0  0  0  0
  1  2  1  0
  2  3  1  0
  3  4  1  0
  4  5  1  0
  5  6  1  0
  6  7  1  0
  7  8  1  0
  8  9  2  0
  8 10  2  0
  8 11  1  0
 11 12  2  0
 12 13  1  0
 13 14  1  0
 14 15  1  0
 15 16  1  0
 16 17  1  0
 16 18  1  0
 18 19  1  0
 18 20  1  0
 20 21  1  0
 21 22  1  0
 22 23  2  0
 23 24  1  0
 24 25  2  0
 25 26  1  0
 26 27  1  0
 27 28  3  0
 25 29  1  0
 29 30  2  0
 21 31  1  0
 31 32  1  0
  4 33  1  0
 33 34  1  0
 34 35  1  0
 35 36  2  0
 36 37  1  0
 37 38  1  0
 38 39  1  0
 39 40  1  0
 40 41  1  0
 41 42  1  0
 42 43  1  0
 43 44  1  0
 44  2  1  0
 12  5  1  0
 32 21  1  0
 38 33  1  0
 44 39  1  0
 15 11  1  0
 30 22  1  0
  1 45  1  0
  1 46  1  0
  1 47  1  0
  2 48  1  1
  4 49  1  6
  5 50  1  6
  7 51  1  0
  7 52  1  0
 13 53  1  0
 13 54  1  0
 14 55  1  0
 14 56  1  0
 15 57  1  1
 16 58  1  6
 17 59  1  0
 17 60  1  0
 17 61  1  0
 18 62  1  6
 19 63  1  0
 19 64  1  0
 19 65  1  0
 20 66  1  0
 20 67  1  0
 23 68  1  0
 24 69  1  0
 29 70  1  0
 30 71  1  0
 31 72  1  0
 31 73  1  0
 32 74  1  0
 32 75  1  0
 33 76  1  6
 34 77  1  0
 34 78  1  0
 35 79  1  0
 36 80  1  0
 37 81  1  0
 37 82  1  0
 38 83  1  6
 39 84  1  1
 41 85  1  0
 41 86  1  0
 42 87  1  0
 42 88  1  0
 44 89  1  6
M  CHG  1  16   1
M  END

>  <ID>
DiffSBDD_39_num_sample_50

>  <docking_score>
-12.496

$$$$
DiffSBDD_3_num_sample_50
     RDKit          3D

 73 76  0  0  0  0  0  0  0  0999 V2000
   39.7490   30.7920   55.0840 C   0  0  0  0  0  0  0  0  0  0  0  0
   38.6520   31.2970   56.0780 C   0  0  0  0  0  0  0  0  0  0  0  0
   38.3000   30.6820   57.3610 C   0  0  0  0  0  0  0  0  0  0  0  0
   39.0590   29.6860   57.7320 C   0  0  0  0  0  0  0  0  0  0  0  0
   38.0440   28.5270   57.8250 C   0  0  2  0  0  0  0  0  0  0  0  0
   38.8220   27.5720   58.4550 O   0  0  0  0  0  0  0  0  0  0  0  0
   38.3470   27.3540   57.0320 C   0  0  1  0  0  0  0  0  0  0  0  0
   38.3880   26.4510   56.2520 C   0  0  2  0  0  0  0  0  0  0  0  0
   38.9030   25.1040   56.1070 C   0  0  0  0  0  0  0  0  0  0  0  0
   39.7520   24.7280   57.1550 O   0  0  0  0  0  0  0  0  0  0  0  0
   38.3130   27.2680   55.7460 N   0  0  0  0  0  0  0  0  0  0  0  0
   37.6980   27.9500   54.6330 C   0  0  0  0  0  0  0  0  0  0  0  0
   37.3460   31.2810   58.4240 N   0  0  0  0  0  0  0  0  0  0  0  0
   38.0300   31.8380   59.6110 C   0  0  1  0  0  0  0  0  0  0  0  0
   38.6550   33.2250   59.2040 C   0  0  0  0  0  0  0  0  0  0  0  0
   39.0550   34.1730   60.3390 C   0  0  0  0  0  0  0  0  0  0  0  0
   38.4600   35.5250   60.6000 N   0  0  1  0  0  0  0  0  0  0  0  0
   38.6760   36.4900   61.4550 C   0  0  2  0  0  0  0  0  0  0  0  0
   37.7830   37.5680   61.6520 C   0  0  0  0  0  0  0  0  0  0  0  0
   38.0470   38.8970   61.0850 C   0  0  0  0  0  0  0  0  0  0  0  0
   38.2010   40.0460   60.6900 N   0  0  0  0  0  0  0  0  0  0  0  0
   40.0200   36.2620   61.9060 C   0  0  0  0  0  0  0  0  0  0  0  0
   40.3630   36.4830   63.1140 C   0  0  2  0  0  0  0  0  0  0  0  0
   41.5720   35.8400   63.0750 C   0  0  0  0  0  0  0  0  0  0  0  0
   41.3670   34.9660   64.6180 S   0  0  0  0  0  0  0  0  0  0  0  0
   40.3660   35.8710   65.2540 C   0  0  1  0  0  0  0  0  0  0  0  0
   40.2510   35.7710   66.5150 F   0  0  0  0  0  0  0  0  0  0  0  0
   39.7180   36.5710   64.3690 C   0  0  0  0  0  0  0  0  0  0  0  0
   37.2950   35.4860   59.6840 C   0  0  0  0  0  0  0  0  0  0  0  0
   36.4130   34.3360   60.1220 C   0  0  0  0  0  0  0  0  0  0  0  0
   36.5930   33.4360   61.2730 C   0  0  0  0  0  0  0  0  0  0  0  0
   37.2130   32.1080   60.9110 C   0  0  1  0  0  0  0  0  0  0  0  0
   36.2820   31.0180   60.9630 O   0  0  0  0  0  0  0  0  0  0  0  0
   40.6048   30.3980   55.6517 H   0  0  0  0  0  0  0  0  0  0  0  0
   39.3312   29.9956   54.4506 H   0  0  0  0  0  0  0  0  0  0  0  0
   40.0824   31.6273   54.4506 H   0  0  0  0  0  0  0  0  0  0  0  0
   38.0923   32.1981   55.7869 H   0  0  0  0  0  0  0  0  0  0  0  0
   39.8376   29.4764   56.9838 H   0  0  0  0  0  0  0  0  0  0  0  0
   39.6081   29.8710   58.6670 H   0  0  0  0  0  0  0  0  0  0  0  0
   37.0741   29.0356   57.9285 H   0  0  0  0  0  0  0  0  0  0  0  0
   38.0152   25.4170   56.2086 H   0  0  0  0  0  0  0  0  0  0  0  0
   38.0539   24.4054   56.0757 H   0  0  0  0  0  0  0  0  0  0  0  0
   39.4926   25.0749   55.1788 H   0  0  0  0  0  0  0  0  0  0  0  0
   39.3110   24.9180   58.0200 H   0  0  0  0  0  0  0  0  0  0  0  0
   37.0060   28.7174   55.0102 H   0  0  0  0  0  0  0  0  0  0  0  0
   38.4766   28.4277   54.0202 H   0  0  0  0  0  0  0  0  0  0  0  0
   37.1426   27.2248   54.0202 H   0  0  0  0  0  0  0  0  0  0  0  0
   36.3220   31.2890   58.3140 H   0  0  0  0  0  0  0  0  0  0  0  0
   38.7303   31.0337   59.8808 H   0  0  0  0  0  0  0  0  0  0  0  0
   39.5582   33.0196   58.6107 H   0  0  0  0  0  0  0  0  0  0  0  0
   37.8525   33.7504   58.6654 H   0  0  0  0  0  0  0  0  0  0  0  0
   38.8933   33.6014   61.2648 H   0  0  0  0  0  0  0  0  0  0  0  0
   40.0578   34.4685   59.9967 H   0  0  0  0  0  0  0  0  0  0  0  0
   37.8810   35.1250   61.3520 H   0  0  0  0  0  0  0  0  0  0  0  0
   38.1270   37.0206   62.2469 H   0  0  0  0  0  0  0  0  0  0  0  0
   36.8126   37.2450   61.2470 H   0  0  0  0  0  0  0  0  0  0  0  0
   37.8686   37.7512   62.7333 H   0  0  0  0  0  0  0  0  0  0  0  0
   40.2375   35.2016   61.7105 H   0  0  0  0  0  0  0  0  0  0  0  0
   40.5876   37.0263   61.3550 H   0  0  0  0  0  0  0  0  0  0  0  0
   40.0783   37.5335   63.2736 H   0  0  0  0  0  0  0  0  0  0  0  0
   41.6662   35.1637   62.2126 H   0  0  0  0  0  0  0  0  0  0  0  0
   42.4703   36.4657   62.9678 H   0  0  0  0  0  0  0  0  0  0  0  0
   39.5887   35.1039   65.1223 H   0  0  0  0  0  0  0  0  0  0  0  0
   38.6922   36.1842   64.2790 H   0  0  0  0  0  0  0  0  0  0  0  0
   39.6940   37.6232   64.6889 H   0  0  0  0  0  0  0  0  0  0  0  0
   36.7371   36.4321   59.7448 H   0  0  0  0  0  0  0  0  0  0  0  0
   37.6237   35.3489   58.6432 H   0  0  0  0  0  0  0  0  0  0  0  0
   35.4230   34.7896   60.2771 H   0  0  0  0  0  0  0  0  0  0  0  0
   36.6603   33.6258   59.3193 H   0  0  0  0  0  0  0  0  0  0  0  0
   37.2436   33.9351   62.0062 H   0  0  0  0  0  0  0  0  0  0  0  0
   35.5919   33.2250   61.6770 H   0  0  0  0  0  0  0  0  0  0  0  0
   37.9731   32.1838   61.7025 H   0  0  0  0  0  0  0  0  0  0  0  0
   35.5110   31.2690   61.5310 H   0  0  0  0  0  0  0  0  0  0  0  0
  1  2  1  0
  2  3  2  3
  3  4  1  0
  4  5  1  0
  5  6  1  0
  7  6  1  6
  7  8  1  0
  8  9  1  0
  9 10  1  0
  8 11  1  0
 11 12  1  0
  3 13  1  0
 13 14  1  0
 14 15  1  0
 15 16  1  0
 16 17  1  0
 17 18  1  0
 18 19  1  0
 19 20  1  0
 20 21  3  0
 18 22  1  0
 22 23  1  0
 23 24  1  0
 24 25  1  0
 25 26  1  0
 26 27  1  0
 26 28  1  0
 17 29  1  0
 29 30  1  0
 30 31  1  0
 31 32  1  0
 32 33  1  0
  7  5  1  0
 32 14  1  0
 11  7  1  0
 28 23  1  0
  1 34  1  0
  1 35  1  0
  1 36  1  0
  2 37  1  0
  4 38  1  0
  4 39  1  0
  5 40  1  1
  8 41  1  1
  9 42  1  0
  9 43  1  0
 10 44  1  0
 12 45  1  0
 12 46  1  0
 12 47  1  0
 13 48  1  0
 14 49  1  1
 15 50  1  0
 15 51  1  0
 16 52  1  0
 16 53  1  0
 17 54  1  6
 18 55  1  1
 19 56  1  0
 19 57  1  0
 22 58  1  0
 22 59  1  0
 23 60  1  6
 24 61  1  0
 24 62  1  0
 26 63  1  1
 28 64  1  0
 28 65  1  0
 29 66  1  0
 29 67  1  0
 30 68  1  0
 30 69  1  0
 31 70  1  0
 31 71  1  0
 32 72  1  1
 33 73  1  0
M  CHG  1  17   1
M  END

>  <ID>
DiffSBDD_3_num_sample_50

>  <docking_score>
-9.486

$$$$
DiffSBDD_40_num_sample_50
     RDKit          3D

 67 70  0  0  0  0  0  0  0  0999 V2000
   40.2730   29.6920   60.4630 C   0  0  0  0  0  0  0  0  0  0  0  0
   40.7270   28.7710   59.8630 N   0  0  0  0  0  0  0  0  0  0  0  0
   39.8570   29.1690   59.0080 C   0  0  0  0  0  0  0  0  0  0  0  0
   38.8280   28.6600   58.2490 C   0  0  1  0  0  0  0  0  0  0  0  0
   37.8030   30.2180   58.5140 C   0  0  0  0  0  0  0  0  0  0  0  0
   36.9360   30.3650   59.6070 O   0  0  0  0  0  0  0  0  0  0  0  0
   36.9740   31.8020   60.0550 C   0  0  0  0  0  0  0  0  0  0  0  0
   35.8290   32.4990   60.6520 C   0  0  0  0  0  0  0  0  0  0  0  0
   35.6430   33.7630   59.9210 O   0  0  0  0  0  0  0  0  0  0  0  0
   36.8640   34.5460   60.0210 C   0  0  2  0  0  0  0  0  0  0  0  0
   36.6060   35.9420   59.4850 O   0  0  0  0  0  0  0  0  0  0  0  0
   37.3250   36.8260   59.9730 C   0  0  0  0  0  0  0  0  0  0  0  0
   37.7890   34.0850   59.2780 C   0  0  2  0  0  0  0  0  0  0  0  0
   37.2260   33.7050   58.0110 O   0  0  0  0  0  0  0  0  0  0  0  0
   38.1520   32.7710   59.9780 C   0  0  0  0  0  0  0  0  0  0  0  0
   39.2790   28.5670   57.8100 C   0  0  1  0  0  0  0  0  0  0  0  0
   40.2760   26.9820   57.6490 C   0  0  0  0  0  0  0  0  0  0  0  0
   38.9690   26.2430   57.6220 O   0  0  0  0  0  0  0  0  0  0  0  0
   39.1940   25.1380   56.9680 C   0  0  1  0  0  0  0  0  0  0  0  0
   38.7020   23.9630   57.3810 O   0  0  0  0  0  0  0  0  0  0  0  0
   37.7050   24.7940   56.6580 P   0  0  1  0  0  5  0  0  0  0  0  0
   36.5280   25.4010   57.1330 O   0  0  0  0  0  0  0  0  0  0  0  0
   37.3710   24.0260   55.5560 O   0  0  0  0  0  0  0  0  0  0  0  0
   39.0250   29.3780   56.7160 C   0  0  2  0  0  0  0  0  0  0  0  0
   37.8640   28.6650   55.8390 C   0  0  0  0  0  0  0  0  0  0  0  0
   38.3750   28.6500   54.4280 C   0  0  1  0  0  0  0  0  0  0  0  0
   39.0780   29.0780   53.3210 C   0  0  0  0  0  0  0  0  0  0  0  0
   39.7960   30.4700   53.2250 C   0  0  0  0  0  0  0  0  0  0  0  0
   39.1880   30.8470   54.7250 C   0  0  0  0  0  0  0  0  0  0  0  0
   39.7400   29.6460   55.4030 C   0  0  1  0  0  0  0  0  0  0  0  0
   40.3644   29.5066   61.5434 H   0  0  0  0  0  0  0  0  0  0  0  0
   40.8229   30.6077   60.2003 H   0  0  0  0  0  0  0  0  0  0  0  0
   39.2118   29.8135   60.2003 H   0  0  0  0  0  0  0  0  0  0  0  0
   40.5680   27.8400   60.2730 H   0  0  0  0  0  0  0  0  0  0  0  0
   41.7280   28.6240   59.6680 H   0  0  0  0  0  0  0  0  0  0  0  0
   39.3441   29.9637   59.5695 H   0  0  0  0  0  0  0  0  0  0  0  0
   40.5719   29.1124   58.1739 H   0  0  0  0  0  0  0  0  0  0  0  0
   38.1068   27.8294   58.2473 H   0  0  0  0  0  0  0  0  0  0  0  0
   38.5197   31.0501   58.5766 H   0  0  0  0  0  0  0  0  0  0  0  0
   37.1006   30.1765   57.6685 H   0  0  0  0  0  0  0  0  0  0  0  0
   36.6475   32.1225   59.0547 H   0  0  0  0  0  0  0  0  0  0  0  0
   34.9250   31.8785   60.5633 H   0  0  0  0  0  0  0  0  0  0  0  0
   36.0110   32.6945   61.7191 H   0  0  0  0  0  0  0  0  0  0  0  0
   37.1620   34.5257   61.0797 H   0  0  0  0  0  0  0  0  0  0  0  0
   37.2801   36.7707   61.0707 H   0  0  0  0  0  0  0  0  0  0  0  0
   38.3633   36.6791   59.6407 H   0  0  0  0  0  0  0  0  0  0  0  0
   36.9697   37.8126   59.6407 H   0  0  0  0  0  0  0  0  0  0  0  0
   38.6146   34.7965   59.1289 H   0  0  0  0  0  0  0  0  0  0  0  0
   36.8750   32.7810   58.0690 H   0  0  0  0  0  0  0  0  0  0  0  0
   38.9689   32.2890   59.4209 H   0  0  0  0  0  0  0  0  0  0  0  0
   38.4517   33.0139   61.0082 H   0  0  0  0  0  0  0  0  0  0  0  0
   40.2229   28.8586   58.2937 H   0  0  0  0  0  0  0  0  0  0  0  0
   40.8671   26.9033   56.7246 H   0  0  0  0  0  0  0  0  0  0  0  0
   41.0729   26.7239   58.3620 H   0  0  0  0  0  0  0  0  0  0  0  0
   40.2001   25.3065   56.5566 H   0  0  0  0  0  0  0  0  0  0  0  0
   38.1030   24.0690   54.8900 H   0  0  0  0  0  0  0  0  0  0  0  0
   39.0904   30.2668   57.3608 H   0  0  0  0  0  0  0  0  0  0  0  0
   37.6895   27.6389   56.1950 H   0  0  0  0  0  0  0  0  0  0  0  0
   36.9066   29.2008   55.9193 H   0  0  0  0  0  0  0  0  0  0  0  0
   37.6726   27.9784   53.9127 H   0  0  0  0  0  0  0  0  0  0  0  0
   39.8628   28.3251   53.1560 H   0  0  0  0  0  0  0  0  0  0  0  0
   38.2640   29.2105   52.5931 H   0  0  0  0  0  0  0  0  0  0  0  0
   40.8936   30.4125   53.1815 H   0  0  0  0  0  0  0  0  0  0  0  0
   39.6334   31.1342   52.3634 H   0  0  0  0  0  0  0  0  0  0  0  0
   39.5920   31.7882   55.1261 H   0  0  0  0  0  0  0  0  0  0  0  0
   38.1051   31.0231   54.8049 H   0  0  0  0  0  0  0  0  0  0  0  0
   40.8347   29.5598   55.4681 H   0  0  0  0  0  0  0  0  0  0  0  0
  1  2  1  0
  2  3  1  0
  3  4  1  0
  4  5  1  0
  5  6  1  0
  6  7  1  0
  7  8  1  0
  8  9  1  0
  9 10  1  0
 10 11  1  0
 11 12  1  0
 10 13  1  0
 13 14  1  0
 13 15  1  0
  4 16  1  0
 16 17  1  0
 17 18  1  0
 18 19  1  0
 19 20  1  0
 20 21  1  0
 21 22  2  0
 21 23  1  6
 16 24  1  0
 24 25  1  0
 25 26  1  0
 26 27  1  0
 27 28  1  0
 28 29  1  0
 29 30  1  0
 15  7  1  0
 21 19  1  0
 30 24  1  0
 30 26  1  0
  1 31  1  0
  1 32  1  0
  1 33  1  0
  2 34  1  0
  2 35  1  0
  3 36  1  0
  3 37  1  0
  4 38  1  1
  5 39  1  0
  5 40  1  0
  7 41  1  0
  8 42  1  0
  8 43  1  0
 10 44  1  1
 12 45  1  0
 12 46  1  0
 12 47  1  0
 13 48  1  6
 14 49  1  0
 15 50  1  0
 15 51  1  0
 16 52  1  1
 17 53  1  0
 17 54  1  0
 19 55  1  6
 23 56  1  0
 24 57  1  1
 25 58  1  0
 25 59  1  0
 26 60  1  1
 27 61  1  0
 27 62  1  0
 28 63  1  0
 28 64  1  0
 29 65  1  0
 29 66  1  0
 30 67  1  1
M  CHG  1   2   1
M  END

>  <ID>
DiffSBDD_40_num_sample_50

>  <docking_score>
-8.947

$$$$
DiffSBDD_41_num_sample_50
     RDKit          3D

 83 87  0  0  0  0  0  0  0  0999 V2000
   38.8000   32.8160   56.5680 C   0  0  0  0  0  0  0  0  0  0  0  0
   38.4720   32.8550   57.7340 C   0  0  0  0  0  0  0  0  0  0  0  0
   38.0850   32.9770   59.1620 C   0  0  0  0  0  0  0  0  0  0  0  0
   37.7100   31.7240   59.7730 C   0  0  0  0  0  0  0  0  0  0  0  0
   38.6540   30.7950   59.4680 C   0  0  0  0  0  0  0  0  0  0  0  0
   39.3610   29.8320   58.9950 C   0  0  0  0  0  0  0  0  0  0  0  0
   39.5400   29.3560   57.6340 C   0  0  2  0  0  0  0  0  0  0  0  0
   38.5020   29.8990   56.6660 O   0  0  0  0  0  0  0  0  0  0  0  0
   38.1800   29.2510   55.5540 C   0  0  0  0  0  0  0  0  0  0  0  0
   36.9480   29.4860   54.8810 C   0  0  0  0  0  0  0  0  0  0  0  0
   36.8790   29.2070   53.5930 C   0  0  0  0  0  0  0  0  0  0  0  0
   37.9060   28.4600   52.9710 C   0  0  0  0  0  0  0  0  0  0  0  0
   37.9980   28.1730   51.6710 O   0  0  0  0  0  0  0  0  0  0  0  0
   38.9480   27.2120   51.0980 C   0  0  0  0  0  0  0  0  0  0  0  0
   40.2050   28.0380   51.1630 C   0  0  0  0  0  0  0  0  0  0  0  0
   39.8550   29.1250   50.2010 C   0  0  0  0  0  0  0  0  0  0  0  0
   40.2230   30.5070   50.5230 C   0  0  0  0  0  0  0  0  0  0  0  0
   41.4090   30.6090   49.9180 F   0  0  0  0  0  0  0  0  0  0  0  0
   40.1240   30.7190   51.7970 F   0  0  0  0  0  0  0  0  0  0  0  0
   39.4620   31.4000   49.9080 F   0  0  0  0  0  0  0  0  0  0  0  0
   39.0080   28.0270   53.6920 C   0  0  0  0  0  0  0  0  0  0  0  0
   39.0270   28.2110   55.0600 C   0  0  0  0  0  0  0  0  0  0  0  0
   40.0980   27.4610   56.0000 C   0  0  2  0  0  0  0  0  0  0  0  0
   39.8750   25.8120   56.1050 C   0  0  0  0  0  0  0  0  0  0  0  0
   39.2890   25.5500   57.4300 C   0  0  2  0  0  0  0  0  0  0  0  0
   38.6540   24.2610   57.3970 C   0  0  0  0  0  0  0  0  0  0  0  0
   37.3690   24.1390   56.9770 O   0  0  0  0  0  0  0  0  0  0  0  0
   37.0050   24.0870   55.5640 C   0  0  0  0  0  0  0  0  0  0  0  0
   38.5000   26.9960   57.8700 S   0  0  0  0  0  0  0  0  0  0  0  0
   39.9020   27.8960   57.4590 C   0  0  2  0  0  0  0  0  0  0  0  0
   40.9380   27.3360   58.3450 C   0  0  0  0  0  0  0  0  0  0  0  0
   42.0690   27.1380   58.6540 N   0  0  0  0  0  0  0  0  0  0  0  0
   38.0900   34.1910   59.8790 C   0  0  0  0  0  0  0  0  0  0  0  0
   39.1670   34.4910   60.7420 C   0  0  0  0  0  0  0  0  0  0  0  0
   40.1860   33.5510   61.1990 C   0  0  0  0  0  0  0  0  0  0  0  0
   41.1190   33.8370   62.1320 C   0  0  0  0  0  0  0  0  0  0  0  0
   41.2160   35.1660   62.6880 C   0  0  0  0  0  0  0  0  0  0  0  0
   40.3390   36.1590   62.2280 C   0  0  0  0  0  0  0  0  0  0  0  0
   39.2770   35.8260   61.3340 C   0  0  0  0  0  0  0  0  0  0  0  0
   38.2060   36.8600   60.9330 C   0  0  0  0  0  0  0  0  0  0  0  0
   38.0980   37.9890   61.3290 O   0  0  0  0  0  0  0  0  0  0  0  0
   37.1240   36.4060   59.9230 C   0  0  2  0  0  0  0  0  0  0  0  0
   36.4330   37.2300   59.1760 O   0  0  0  0  0  0  0  0  0  0  0  0
   36.9550   35.0110   59.7150 C   0  0  2  0  0  0  0  0  0  0  0  0
   35.7550   34.5460   59.2980 O   0  0  0  0  0  0  0  0  0  0  0  0
   39.0977   32.7806   55.5096 H   0  0  0  0  0  0  0  0  0  0  0  0
   37.0394   33.1448   58.8643 H   0  0  0  0  0  0  0  0  0  0  0  0
   37.6497   31.8470   60.8644 H   0  0  0  0  0  0  0  0  0  0  0  0
   36.7282   31.4006   59.3969 H   0  0  0  0  0  0  0  0  0  0  0  0
   39.4342   31.5485   59.2848 H   0  0  0  0  0  0  0  0  0  0  0  0
   37.9586   30.0330   59.8499 H   0  0  0  0  0  0  0  0  0  0  0  0
   40.3827   30.0688   59.3269 H   0  0  0  0  0  0  0  0  0  0  0  0
   38.7145   29.0112   59.3389 H   0  0  0  0  0  0  0  0  0  0  0  0
   40.4875   29.8224   57.3263 H   0  0  0  0  0  0  0  0  0  0  0  0
   36.0776   29.8890   55.4195 H   0  0  0  0  0  0  0  0  0  0  0  0
   36.0200   29.5566   53.0015 H   0  0  0  0  0  0  0  0  0  0  0  0
   39.0251   26.2986   51.7061 H   0  0  0  0  0  0  0  0  0  0  0  0
   38.6868   26.8340   50.0985 H   0  0  0  0  0  0  0  0  0  0  0  0
   40.3828   28.4308   52.1750 H   0  0  0  0  0  0  0  0  0  0  0  0
   41.1298   27.4915   50.9261 H   0  0  0  0  0  0  0  0  0  0  0  0
   40.3394   28.8772   49.2450 H   0  0  0  0  0  0  0  0  0  0  0  0
   38.7551   29.1375   50.2071 H   0  0  0  0  0  0  0  0  0  0  0  0
   39.8545   27.5441   53.1818 H   0  0  0  0  0  0  0  0  0  0  0  0
   41.0695   27.7125   55.5494 H   0  0  0  0  0  0  0  0  0  0  0  0
   39.1917   25.4703   55.3136 H   0  0  0  0  0  0  0  0  0  0  0  0
   40.8263   25.2743   55.9788 H   0  0  0  0  0  0  0  0  0  0  0  0
   39.9478   25.3819   58.2947 H   0  0  0  0  0  0  0  0  0  0  0  0
   39.2633   23.6257   56.7373 H   0  0  0  0  0  0  0  0  0  0  0  0
   38.5951   23.9857   58.4604 H   0  0  0  0  0  0  0  0  0  0  0  0
   35.9200   23.9320   55.4703 H   0  0  0  0  0  0  0  0  0  0  0  0
   37.2834   25.0340   55.0786 H   0  0  0  0  0  0  0  0  0  0  0  0
   37.5374   23.2558   55.0786 H   0  0  0  0  0  0  0  0  0  0  0  0
   40.3607   26.8395   59.1389 H   0  0  0  0  0  0  0  0  0  0  0  0
   42.2830   26.6020   59.5070 H   0  0  0  0  0  0  0  0  0  0  0  0
   37.5602   33.7024   60.7100 H   0  0  0  0  0  0  0  0  0  0  0  0
   40.1942   32.5448   60.7546 H   0  0  0  0  0  0  0  0  0  0  0  0
   41.8105   33.0516   62.4711 H   0  0  0  0  0  0  0  0  0  0  0  0
   41.9654   35.3958   63.4597 H   0  0  0  0  0  0  0  0  0  0  0  0
   40.4701   37.2002   62.5579 H   0  0  0  0  0  0  0  0  0  0  0  0
   37.8890   36.3339   59.1359 H   0  0  0  0  0  0  0  0  0  0  0  0
   36.8890   37.3470   58.3060 H   0  0  0  0  0  0  0  0  0  0  0  0
   37.2731   35.1285   58.6686 H   0  0  0  0  0  0  0  0  0  0  0  0
   35.8300   34.2330   58.3620 H   0  0  0  0  0  0  0  0  0  0  0  0
  1  2  3  0
  2  3  1  0
  3  4  1  0
  4  5  1  0
  5  6  1  0
  6  7  1  0
  7  8  1  0
  8  9  1  0
  9 10  2  0
 10 11  1  0
 11 12  2  0
 12 13  1  0
 13 14  1  0
 14 15  1  0
 15 16  1  0
 16 17  1  0
 17 18  1  0
 17 19  1  0
 17 20  1  0
 12 21  1  0
 21 22  2  0
 22 23  1  0
 23 24  1  0
 24 25  1  0
 25 26  1  0
 26 27  1  0
 27 28  1  0
 25 29  1  0
 29 30  1  0
 30 31  1  1
 31 32  2  3
  3 33  1  0
 33 34  1  0
 34 35  2  0
 35 36  1  0
 36 37  2  0
 37 38  1  0
 38 39  2  0
 39 40  1  0
 40 41  2  0
 40 42  1  0
 42 43  1  0
 42 44  1  0
 44 45  1  0
 30  7  1  0
 44 33  1  0
 22  9  1  0
 30 23  1  0
 39 34  1  0
  1 46  1  0
  3 47  1  0
  4 48  1  0
  4 49  1  0
  5 50  1  0
  5 51  1  0
  6 52  1  0
  6 53  1  0
  7 54  1  6
 10 55  1  0
 11 56  1  0
 14 57  1  0
 14 58  1  0
 15 59  1  0
 15 60  1  0
 16 61  1  0
 16 62  1  0
 21 63  1  0
 23 64  1  6
 24 65  1  0
 24 66  1  0
 25 67  1  1
 26 68  1  0
 26 69  1  0
 28 70  1  0
 28 71  1  0
 28 72  1  0
 31 73  1  0
 32 74  1  0
 33 75  1  0
 35 76  1  0
 36 77  1  0
 37 78  1  0
 38 79  1  0
 42 80  1  1
 43 81  1  0
 44 82  1  1
 45 83  1  0
M  END

>  <ID>
DiffSBDD_41_num_sample_50

>  <docking_score>
-12.333

$$$$
DiffSBDD_42_num_sample_50
     RDKit          3D

 35 37  0  0  0  0  0  0  0  0999 V2000
   38.6250   32.6770   56.9030 C   0  0  0  0  0  0  0  0  0  0  0  0
   39.0360   31.8970   55.6480 C   0  0  0  0  0  0  0  0  0  0  0  0
   38.4890   30.5620   55.3790 C   0  0  1  0  0  0  0  0  0  0  0  0
   38.9660   29.5860   54.2580 N   0  0  0  0  0  0  0  0  0  0  0  0
   39.4560   29.8510   53.0220 C   0  0  0  0  0  0  0  0  0  0  0  0
   40.0220   30.5360   51.9430 C   0  0  0  0  0  0  0  0  0  0  0  0
   40.1910   29.8120   50.6030 C   0  0  0  0  0  0  0  0  0  0  0  0
   39.4160   28.5320   50.6620 O   0  0  0  0  0  0  0  0  0  0  0  0
   40.8620   30.5730   49.9280 O   0  0  0  0  0  0  0  0  0  0  0  0
   38.6450   28.3690   54.4680 C   0  0  1  0  0  0  0  0  0  0  0  0
   37.4800   27.3670   53.6090 S   0  0  0  0  0  0  0  0  0  0  0  0
   38.2490   26.6170   55.1420 C   0  0  0  0  0  0  0  0  0  0  0  0
   39.0780   27.5940   55.5490 C   0  0  0  0  0  0  0  0  0  0  0  0
   39.9650   27.4540   56.6490 C   0  0  0  0  0  0  0  0  0  0  0  0
   39.8610   26.1790   57.3320 C   0  0  0  0  0  0  0  0  0  0  0  0
   38.9700   25.2380   56.8860 C   0  0  0  0  0  0  0  0  0  0  0  0
   38.7700   23.9680   57.4840 F   0  0  0  0  0  0  0  0  0  0  0  0
   38.0860   25.4670   55.8270 C   0  0  0  0  0  0  0  0  0  0  0  0
   37.1710   24.3930   55.3960 F   0  0  0  0  0  0  0  0  0  0  0  0
   37.1400   30.3080   55.9330 C   0  0  0  0  0  0  0  0  0  0  0  0
   37.1930   30.8170   54.6220 O   0  0  0  0  0  0  0  0  0  0  0  0
   38.9223   32.1127   57.7992 H   0  0  0  0  0  0  0  0  0  0  0  0
   39.1235   33.6575   56.9049 H   0  0  0  0  0  0  0  0  0  0  0  0
   37.5344   32.8202   56.9049 H   0  0  0  0  0  0  0  0  0  0  0  0
   38.7670   32.5255   54.7862 H   0  0  0  0  0  0  0  0  0  0  0  0
   40.1018   31.6920   55.8268 H   0  0  0  0  0  0  0  0  0  0  0  0
   40.1911   29.0327   53.0234 H   0  0  0  0  0  0  0  0  0  0  0  0
   38.5386   30.4302   52.8403 H   0  0  0  0  0  0  0  0  0  0  0  0
   39.3907   31.4169   51.7549 H   0  0  0  0  0  0  0  0  0  0  0  0
   41.0550   30.7283   52.2683 H   0  0  0  0  0  0  0  0  0  0  0  0
   37.8539   28.6968   55.1585 H   0  0  0  0  0  0  0  0  0  0  0  0
   40.6682   28.2423   56.9557 H   0  0  0  0  0  0  0  0  0  0  0  0
   40.4954   25.9678   58.2055 H   0  0  0  0  0  0  0  0  0  0  0  0
   36.8100   29.2715   56.0967 H   0  0  0  0  0  0  0  0  0  0  0  0
   36.6257   30.6321   56.8498 H   0  0  0  0  0  0  0  0  0  0  0  0
  1  2  1  0
  2  3  1  0
  3  4  1  6
  4  5  1  0
  5  6  1  0
  6  7  1  0
  7  8  2  0
  7  9  1  0
  4 10  1  0
 10 11  1  0
 11 12  1  0
 12 13  2  0
 13 14  1  0
 14 15  2  0
 15 16  1  0
 16 17  1  0
 16 18  2  0
 18 19  1  0
  3 20  1  0
 20 21  1  0
 21  3  1  0
 13 10  1  0
 18 12  1  0
  1 22  1  0
  1 23  1  0
  1 24  1  0
  2 25  1  0
  2 26  1  0
  5 27  1  0
  5 28  1  0
  6 29  1  0
  6 30  1  0
 10 31  1  6
 14 32  1  0
 15 33  1  0
 20 34  1  0
 20 35  1  0
M  CHG  1   9  -1
M  END

>  <ID>
DiffSBDD_42_num_sample_50

>  <docking_score>
-7.827

$$$$
DiffSBDD_43_num_sample_50
     RDKit          3D

 63 64  0  0  0  0  0  0  0  0999 V2000
   36.9070   24.0520   55.5810 C   0  0  0  0  0  0  0  0  0  0  0  0
   37.9760   24.8690   55.9850 C   0  0  0  0  0  0  0  0  0  0  0  0
   38.3930   25.9270   55.1120 C   0  0  2  0  0  0  0  0  0  0  0  0
   39.9550   25.9390   55.1220 C   0  0  0  0  0  0  0  0  0  0  0  0
   37.9180   27.3210   55.4460 O   0  0  0  0  0  0  0  0  0  0  0  0
   37.6840   28.2660   54.4930 C   0  0  0  0  0  0  0  0  0  0  0  0
   38.8120   29.3270   54.3800 C   0  0  2  0  0  0  0  0  0  0  0  0
   39.4470   30.4640   55.1930 C   0  0  0  0  0  0  0  0  0  0  0  0
   39.0970   31.5730   56.0910 C   0  0  2  0  0  0  0  0  0  0  0  0
   38.1150   31.3170   57.0030 N   0  0  0  0  0  0  0  0  0  0  0  0
   38.3240   30.6480   58.0440 C   0  0  0  0  0  0  0  0  0  0  0  0
   38.6420   29.2440   58.1560 O   0  0  0  0  0  0  0  0  0  0  0  0
   38.1360   31.3760   59.2710 C   0  0  0  0  0  0  0  0  0  0  0  0
   38.2690   32.5970   59.7620 C   0  0  1  0  0  0  0  0  0  0  0  0
   37.0300   33.4030   59.6890 C   0  0  0  0  0  0  0  0  0  0  0  0
   36.7930   34.0410   58.4790 O   0  0  0  0  0  0  0  0  0  0  0  0
   39.3640   33.1760   60.5740 C   0  0  0  0  0  0  0  0  0  0  0  0
   39.6070   34.5220   60.5400 C   0  0  0  0  0  0  0  0  0  0  0  0
   40.6920   35.1700   61.2140 C   0  0  0  0  0  0  0  0  0  0  0  0
   41.6180   34.3700   61.9340 C   0  0  0  0  0  0  0  0  0  0  0  0
   41.3500   32.9890   61.9940 C   0  0  0  0  0  0  0  0  0  0  0  0
   40.2180   32.3990   61.4680 C   0  0  0  0  0  0  0  0  0  0  0  0
   38.3460   32.6400   55.5110 C   0  0  0  0  0  0  0  0  0  0  0  0
   37.6510   32.4790   54.3090 O   0  0  0  0  0  0  0  0  0  0  0  0
   38.2690   33.6300   56.2540 O   0  0  0  0  0  0  0  0  0  0  0  0
   39.2180   29.3080   52.9370 C   0  0  0  0  0  0  0  0  0  0  0  0
   39.0300   28.1410   52.2020 C   0  0  0  0  0  0  0  0  0  0  0  0
   39.5120   28.0670   50.8420 C   0  0  0  0  0  0  0  0  0  0  0  0
   40.1470   29.2300   50.3070 C   0  0  0  0  0  0  0  0  0  0  0  0
   40.2440   30.4030   51.0870 C   0  0  0  0  0  0  0  0  0  0  0  0
   39.8490   30.3860   52.3990 C   0  0  0  0  0  0  0  0  0  0  0  0
   36.3910   23.6577   56.4688 H   0  0  0  0  0  0  0  0  0  0  0  0
   36.2011   24.6429   54.9789 H   0  0  0  0  0  0  0  0  0  0  0  0
   37.2918   23.2157   54.9789 H   0  0  0  0  0  0  0  0  0  0  0  0
   37.6893   25.3305   56.9415 H   0  0  0  0  0  0  0  0  0  0  0  0
   38.8396   24.1884   56.0169 H   0  0  0  0  0  0  0  0  0  0  0  0
   37.9336   25.7025   54.1380 H   0  0  0  0  0  0  0  0  0  0  0  0
   40.3150   25.9418   56.1614 H   0  0  0  0  0  0  0  0  0  0  0  0
   40.3319   25.0437   54.6058 H   0  0  0  0  0  0  0  0  0  0  0  0
   40.3181   26.8400   54.6058 H   0  0  0  0  0  0  0  0  0  0  0  0
   37.5822   27.7617   53.5207 H   0  0  0  0  0  0  0  0  0  0  0  0
   36.7675   28.7993   54.7855 H   0  0  0  0  0  0  0  0  0  0  0  0
   38.9386   29.1927   55.4644 H   0  0  0  0  0  0  0  0  0  0  0  0
   40.1536   29.9019   55.8212 H   0  0  0  0  0  0  0  0  0  0  0  0
   39.4596   31.1302   54.3178 H   0  0  0  0  0  0  0  0  0  0  0  0
   40.1194   31.7711   56.4451 H   0  0  0  0  0  0  0  0  0  0  0  0
   37.1690   31.6870   56.8320 H   0  0  0  0  0  0  0  0  0  0  0  0
   37.0752   31.1741   59.4806 H   0  0  0  0  0  0  0  0  0  0  0  0
   39.1164   31.0635   59.6599 H   0  0  0  0  0  0  0  0  0  0  0  0
   39.1927   32.5390   59.1675 H   0  0  0  0  0  0  0  0  0  0  0  0
   36.1802   32.7340   59.8895 H   0  0  0  0  0  0  0  0  0  0  0  0
   37.1528   34.2062   60.4304 H   0  0  0  0  0  0  0  0  0  0  0  0
   37.5560   34.6350   58.2650 H   0  0  0  0  0  0  0  0  0  0  0  0
   38.9207   35.1508   59.9537 H   0  0  0  0  0  0  0  0  0  0  0  0
   40.8054   36.2634   61.1747 H   0  0  0  0  0  0  0  0  0  0  0  0
   42.5017   34.8078   62.4212 H   0  0  0  0  0  0  0  0  0  0  0  0
   42.0874   32.3408   62.4901 H   0  0  0  0  0  0  0  0  0  0  0  0
   39.9631   31.3587   61.7187 H   0  0  0  0  0  0  0  0  0  0  0  0
   38.5170   27.2794   52.6543 H   0  0  0  0  0  0  0  0  0  0  0  0
   39.3949   27.1522   50.2425 H   0  0  0  0  0  0  0  0  0  0  0  0
   40.5602   29.2114   49.2877 H   0  0  0  0  0  0  0  0  0  0  0  0
   40.6362   31.3294   50.6420 H   0  0  0  0  0  0  0  0  0  0  0  0
   40.0467   31.2641   53.0314 H   0  0  0  0  0  0  0  0  0  0  0  0
  1  2  1  0
  2  3  1  0
  3  4  1  0
  3  5  1  0
  5  6  1  0
  6  7  1  0
  7  8  1  0
  8  9  1  0
  9 10  1  0
 10 11  1  0
 11 12  2  0
 11 13  1  0
 13 14  1  0
 14 15  1  0
 15 16  1  0
 14 17  1  0
 17 18  2  0
 18 19  1  0
 19 20  2  0
 20 21  1  0
 21 22  2  0
  9 23  1  0
 23 24  2  0
 23 25  1  0
  7 26  1  0
 26 27  2  0
 27 28  1  0
 28 29  2  0
 29 30  1  0
 30 31  2  0
 22 17  1  0
 31 26  1  0
  1 32  1  0
  1 33  1  0
  1 34  1  0
  2 35  1  0
  2 36  1  0
  3 37  1  6
  4 38  1  0
  4 39  1  0
  4 40  1  0
  6 41  1  0
  6 42  1  0
  7 43  1  1
  8 44  1  0
  8 45  1  0
  9 46  1  1
 10 47  1  0
 13 48  1  0
 13 49  1  0
 14 50  1  6
 15 51  1  0
 15 52  1  0
 16 53  1  0
 18 54  1  0
 19 55  1  0
 20 56  1  0
 21 57  1  0
 22 58  1  0
 27 59  1  0
 28 60  1  0
 29 61  1  0
 30 62  1  0
 31 63  1  0
M  CHG  1  25  -1
M  END

>  <ID>
DiffSBDD_43_num_sample_50

>  <docking_score>
-9.697

$$$$
DiffSBDD_44_num_sample_50
     RDKit          3D

 66 68  0  0  0  0  0  0  0  0999 V2000
   40.7660   28.2160   57.6500 C   0  0  0  0  0  0  0  0  0  0  0  0
   39.8010   28.9030   56.9140 O   0  0  0  0  0  0  0  0  0  0  0  0
   38.8160   29.6550   57.5880 C   0  0  1  0  0  0  0  0  0  0  0  0
   39.0990   29.4470   59.1280 C   0  0  0  0  0  0  0  0  0  0  0  0
   38.1250   30.0580   60.0340 C   0  0  0  0  0  0  0  0  0  0  0  0
   38.3950   31.3290   60.8160 C   0  0  2  0  0  0  0  0  0  0  0  0
   38.2390   31.1670   62.1700 O   0  0  0  0  0  0  0  0  0  0  0  0
   38.1600   32.7360   60.1810 C   0  0  1  0  0  0  0  0  0  0  0  0
   36.8680   33.0680   60.1310 C   0  0  0  0  0  0  0  0  0  0  0  0
   36.5680   34.4540   59.5990 N   0  0  0  0  0  0  0  0  0  0  0  0
   35.5520   34.5540   58.8480 O   0  0  0  0  0  0  0  0  0  0  0  0
   37.2320   35.5600   60.0320 C   0  0  0  0  0  0  0  0  0  0  0  0
   36.8960   36.9880   59.9440 O   0  0  0  0  0  0  0  0  0  0  0  0
   37.8510   37.5760   60.8330 C   0  0  0  0  0  0  0  0  0  0  0  0
   38.5830   36.6080   61.4130 C   0  0  0  0  0  0  0  0  0  0  0  0
   38.2810   35.3170   60.8750 C   0  0  0  0  0  0  0  0  0  0  0  0
   38.8470   33.8020   61.1060 C   0  0  0  0  0  0  0  0  0  0  0  0
   39.7870   33.4400   61.6410 O   0  0  0  0  0  0  0  0  0  0  0  0
   38.1350   30.6580   56.6510 C   0  0  2  0  0  0  0  0  0  0  0  0
   38.3880   30.3830   55.3390 N   0  0  0  0  0  0  0  0  0  0  0  0
   39.5270   30.5970   54.4110 C   0  0  0  0  0  0  0  0  0  0  0  0
   39.4960   29.9680   53.1060 C   0  0  0  0  0  0  0  0  0  0  0  0
   40.0230   30.5280   51.9480 C   0  0  0  0  0  0  0  0  0  0  0  0
   40.1050   29.7910   50.8180 C   0  0  0  0  0  0  0  0  0  0  0  0
   40.4790   30.2950   49.6860 F   0  0  0  0  0  0  0  0  0  0  0  0
   39.7740   28.3950   50.8080 C   0  0  0  0  0  0  0  0  0  0  0  0
   39.1780   27.8190   51.8810 C   0  0  0  0  0  0  0  0  0  0  0  0
   38.8870   28.6720   52.9430 C   0  0  0  0  0  0  0  0  0  0  0  0
   37.9680   28.2040   53.9340 O   0  0  0  0  0  0  0  0  0  0  0  0
   37.4360   26.9230   54.2030 C   0  0  0  0  0  0  0  0  0  0  0  0
   37.8980   26.4150   55.5450 C   0  0  0  0  0  0  0  0  0  0  0  0
   39.1480   25.6210   55.4610 C   0  0  0  0  0  0  0  0  0  0  0  0
   40.1620   25.6750   54.6670 C   0  0  0  0  0  0  0  0  0  0  0  0
   39.7070   25.1230   56.3890 O   0  0  0  0  0  0  0  0  0  0  0  0
   38.7460   31.9020   56.8300 O   0  0  0  0  0  0  0  0  0  0  0  0
   37.9160   32.9760   56.6230 O   0  0  0  0  0  0  0  0  0  0  0  0
   40.5738   28.3528   58.7244 H   0  0  0  0  0  0  0  0  0  0  0  0
   40.7218   27.1450   57.4031 H   0  0  0  0  0  0  0  0  0  0  0  0
   41.7635   28.6083   57.4031 H   0  0  0  0  0  0  0  0  0  0  0  0
   37.7527   29.6800   57.8688 H   0  0  0  0  0  0  0  0  0  0  0  0
   39.1153   28.3653   59.3269 H   0  0  0  0  0  0  0  0  0  0  0  0
   40.0569   29.9484   59.3303 H   0  0  0  0  0  0  0  0  0  0  0  0
   37.2336   30.2639   59.4233 H   0  0  0  0  0  0  0  0  0  0  0  0
   38.0845   29.3124   60.8417 H   0  0  0  0  0  0  0  0  0  0  0  0
   39.4754   31.4635   60.6592 H   0  0  0  0  0  0  0  0  0  0  0  0
   39.1270   31.1690   62.6070 H   0  0  0  0  0  0  0  0  0  0  0  0
   38.5650   32.7075   59.1587 H   0  0  0  0  0  0  0  0  0  0  0  0
   36.3563   32.3395   59.4849 H   0  0  0  0  0  0  0  0  0  0  0  0
   36.5158   33.0632   61.1731 H   0  0  0  0  0  0  0  0  0  0  0  0
   34.8620   33.9080   59.1390 H   0  0  0  0  0  0  0  0  0  0  0  0
   37.9685   38.6546   61.0143 H   0  0  0  0  0  0  0  0  0  0  0  0
   39.3245   36.7873   62.2055 H   0  0  0  0  0  0  0  0  0  0  0  0
   37.0586   30.6237   56.8751 H   0  0  0  0  0  0  0  0  0  0  0  0
   37.5940   29.9120   54.8800 H   0  0  0  0  0  0  0  0  0  0  0  0
   40.3808   31.2231   54.7094 H   0  0  0  0  0  0  0  0  0  0  0  0
   40.3732   31.5708   51.9513 H   0  0  0  0  0  0  0  0  0  0  0  0
   40.0059   27.7864   49.9216 H   0  0  0  0  0  0  0  0  0  0  0  0
   38.9393   26.7456   51.9110 H   0  0  0  0  0  0  0  0  0  0  0  0
   36.3376   26.9821   54.1998 H   0  0  0  0  0  0  0  0  0  0  0  0
   37.7877   26.2282   53.4262 H   0  0  0  0  0  0  0  0  0  0  0  0
   38.0731   27.2770   56.2055 H   0  0  0  0  0  0  0  0  0  0  0  0
   37.1115   25.7532   55.9367 H   0  0  0  0  0  0  0  0  0  0  0  0
   41.0884   25.7243   55.2581 H   0  0  0  0  0  0  0  0  0  0  0  0
   40.1792   24.7765   54.0326 H   0  0  0  0  0  0  0  0  0  0  0  0
   40.0837   26.5702   54.0326 H   0  0  0  0  0  0  0  0  0  0  0  0
   38.4360   33.7260   56.2410 H   0  0  0  0  0  0  0  0  0  0  0  0
  1  2  1  0
  2  3  1  0
  3  4  1  0
  4  5  1  0
  5  6  1  0
  6  7  1  0
  6  8  1  0
  8  9  1  0
  9 10  1  0
 10 11  1  0
 10 12  1  0
 12 13  1  0
 13 14  1  0
 14 15  2  0
 15 16  1  0
 16 17  1  0
 17 18  2  0
  3 19  1  0
 19 20  1  0
 20 21  2  3
 21 22  1  0
 22 23  2  0
 23 24  1  0
 24 25  1  0
 24 26  2  0
 26 27  1  0
 27 28  2  0
 28 29  1  0
 29 30  1  0
 30 31  1  0
 31 32  1  0
 32 33  1  0
 32 34  2  0
 19 35  1  0
 35 36  1  0
 17  8  1  0
 28 22  1  0
 16 12  2  0
  1 37  1  0
  1 38  1  0
  1 39  1  0
  3 40  1  1
  4 41  1  0
  4 42  1  0
  5 43  1  0
  5 44  1  0
  6 45  1  1
  7 46  1  0
  8 47  1  6
  9 48  1  0
  9 49  1  0
 11 50  1  0
 14 51  1  0
 15 52  1  0
 19 53  1  6
 20 54  1  0
 21 55  1  0
 23 56  1  0
 26 57  1  0
 27 58  1  0
 30 59  1  0
 30 60  1  0
 31 61  1  0
 31 62  1  0
 33 63  1  0
 33 64  1  0
 33 65  1  0
 36 66  1  0
M  CHG  1  20   1
M  END

>  <ID>
DiffSBDD_44_num_sample_50

>  <docking_score>
-10.034

$$$$
DiffSBDD_45_num_sample_50
     RDKit          3D

 37 36  0  0  0  0  0  0  0  0999 V2000
   40.1170   25.8950   54.7620 C   0  0  0  0  0  0  0  0  0  0  0  0
   39.2720   25.4140   55.5850 C   0  0  0  0  0  0  0  0  0  0  0  0
   39.4840   25.1790   57.1610 C   0  0  0  0  0  0  0  0  0  0  0  0
   38.4910   25.9370   58.2070 C   0  0  0  0  0  0  0  0  0  0  0  0
   38.6830   27.4420   57.8390 C   0  0  0  0  0  0  0  0  0  0  0  0
   38.9920   28.5290   57.2490 C   0  0  0  0  0  0  0  0  0  0  0  0
   39.3120   29.6500   56.2590 C   0  0  0  0  0  0  0  0  0  0  0  0
   39.6270   29.7770   54.9330 C   0  0  0  0  0  0  0  0  0  0  0  0
   39.9020   30.7380   53.8610 C   0  0  0  0  0  0  0  0  0  0  0  0
   39.5360   30.7390   52.4890 C   0  0  0  0  0  0  0  0  0  0  0  0
   40.2440   29.9280   51.2940 C   0  0  0  0  0  0  0  0  0  0  0  0
   39.6410   28.4550   50.9330 C   0  0  0  0  0  0  0  0  0  0  0  0
   38.6970   27.5420   51.9100 C   0  0  0  0  0  0  0  0  0  0  0  0
   37.4780   28.1400   52.1790 O   0  0  0  0  0  0  0  0  0  0  0  0
   37.1200   27.7700   53.5970 C   0  0  0  0  0  0  0  0  0  0  0  0
   39.8493   26.0064   53.7009 H   0  0  0  0  0  0  0  0  0  0  0  0
   41.1144   26.1990   55.1124 H   0  0  0  0  0  0  0  0  0  0  0  0
   38.2926   25.1290   55.1732 H   0  0  0  0  0  0  0  0  0  0  0  0
   39.3827   24.0990   57.3436 H   0  0  0  0  0  0  0  0  0  0  0  0
   40.4717   25.6180   57.3654 H   0  0  0  0  0  0  0  0  0  0  0  0
   37.4469   25.6234   58.0600 H   0  0  0  0  0  0  0  0  0  0  0  0
   38.7167   25.7144   59.2603 H   0  0  0  0  0  0  0  0  0  0  0  0
   39.2799   30.6326   56.7524 H   0  0  0  0  0  0  0  0  0  0  0  0
   39.7034   28.7659   54.5066 H   0  0  0  0  0  0  0  0  0  0  0  0
   39.4887   31.6830   54.2434 H   0  0  0  0  0  0  0  0  0  0  0  0
   40.9601   30.4750   53.7156 H   0  0  0  0  0  0  0  0  0  0  0  0
   38.4883   30.4042   52.4758 H   0  0  0  0  0  0  0  0  0  0  0  0
   39.8563   31.7572   52.2232 H   0  0  0  0  0  0  0  0  0  0  0  0
   40.1729   30.5461   50.3869 H   0  0  0  0  0  0  0  0  0  0  0  0
   41.2675   29.7364   51.6486 H   0  0  0  0  0  0  0  0  0  0  0  0
   39.0525   28.6001   50.0150 H   0  0  0  0  0  0  0  0  0  0  0  0
   40.5664   27.8607   50.9535 H   0  0  0  0  0  0  0  0  0  0  0  0
   38.5147   26.5740   51.4203 H   0  0  0  0  0  0  0  0  0  0  0  0
   39.2267   27.4181   52.8661 H   0  0  0  0  0  0  0  0  0  0  0  0
   37.7108   28.3806   54.2956 H   0  0  0  0  0  0  0  0  0  0  0  0
   36.0486   27.9543   53.7647 H   0  0  0  0  0  0  0  0  0  0  0  0
   37.3395   26.7053   53.7647 H   0  0  0  0  0  0  0  0  0  0  0  0
  1  2  2  0
  2  3  1  0
  3  4  1  0
  4  5  1  0
  5  6  3  0
  6  7  1  0
  7  8  2  3
  8  9  1  0
  9 10  1  0
 10 11  1  0
 11 12  1  0
 12 13  1  0
 13 14  1  0
 14 15  1  0
  1 16  1  0
  1 17  1  0
  2 18  1  0
  3 19  1  0
  3 20  1  0
  4 21  1  0
  4 22  1  0
  7 23  1  0
  8 24  1  0
  9 25  1  0
  9 26  1  0
 10 27  1  0
 10 28  1  0
 11 29  1  0
 11 30  1  0
 12 31  1  0
 12 32  1  0
 13 33  1  0
 13 34  1  0
 15 35  1  0
 15 36  1  0
 15 37  1  0
M  END

>  <ID>
DiffSBDD_45_num_sample_50

>  <docking_score>
-6.16

$$$$
DiffSBDD_46_num_sample_50
     RDKit          3D

 35 34  0  0  0  0  0  0  0  0999 V2000
   39.8270   24.9480   56.8060 O   0  0  0  0  0  0  0  0  0  0  0  0
   39.0230   25.3120   55.7360 C   0  0  0  0  0  0  0  0  0  0  0  0
   37.9510   25.1000   55.3260 O   0  0  0  0  0  0  0  0  0  0  0  0
   39.7450   26.4740   55.1880 C   0  0  0  0  0  0  0  0  0  0  0  0
   40.1140   27.4580   56.3570 C   0  0  0  0  0  0  0  0  0  0  0  0
   38.8170   28.2890   56.7300 C   0  0  0  0  0  0  0  0  0  0  0  0
   38.3610   29.2810   55.6650 C   0  0  0  0  0  0  0  0  0  0  0  0
   39.4430   30.3090   55.3330 C   0  0  0  0  0  0  0  0  0  0  0  0
   39.7280   30.5830   54.0210 C   0  0  0  0  0  0  0  0  0  0  0  0
   39.3900   29.8470   52.9910 C   0  0  0  0  0  0  0  0  0  0  0  0
   40.0960   30.2090   51.6720 C   0  0  0  0  0  0  0  0  0  0  0  0
   39.7340   29.1600   50.6980 C   0  0  0  0  0  0  0  0  0  0  0  0
   39.7220   27.8920   51.4140 C   0  0  0  0  0  0  0  0  0  0  0  0
   38.5530   27.2480   50.8100 O   0  0  0  0  0  0  0  0  0  0  0  0
   40.6652   26.1333   54.6908 H   0  0  0  0  0  0  0  0  0  0  0  0
   39.1059   26.9932   54.4586 H   0  0  0  0  0  0  0  0  0  0  0  0
   40.4545   26.8857   57.2325 H   0  0  0  0  0  0  0  0  0  0  0  0
   40.9229   28.1346   56.0442 H   0  0  0  0  0  0  0  0  0  0  0  0
   37.9962   27.5790   56.9093 H   0  0  0  0  0  0  0  0  0  0  0  0
   39.0778   28.8863   57.6161 H   0  0  0  0  0  0  0  0  0  0  0  0
   38.1065   28.7263   54.7498 H   0  0  0  0  0  0  0  0  0  0  0  0
   37.4892   29.8234   56.0596 H   0  0  0  0  0  0  0  0  0  0  0  0
   39.1387   31.2573   55.8000 H   0  0  0  0  0  0  0  0  0  0  0  0
   40.3669   29.8452   55.7088 H   0  0  0  0  0  0  0  0  0  0  0  0
   39.2827   31.5703   53.8289 H   0  0  0  0  0  0  0  0  0  0  0  0
   40.8148   30.4134   54.0250 H   0  0  0  0  0  0  0  0  0  0  0  0
   39.6267   28.7993   53.2281 H   0  0  0  0  0  0  0  0  0  0  0  0
   38.3175   30.0261   52.8244 H   0  0  0  0  0  0  0  0  0  0  0  0
   39.7540   31.1919   51.3158 H   0  0  0  0  0  0  0  0  0  0  0  0
   41.1861   30.2649   51.8079 H   0  0  0  0  0  0  0  0  0  0  0  0
   38.7385   29.3643   50.2769 H   0  0  0  0  0  0  0  0  0  0  0  0
   40.4554   29.1325   49.8681 H   0  0  0  0  0  0  0  0  0  0  0  0
   40.6410   27.3155   51.2322 H   0  0  0  0  0  0  0  0  0  0  0  0
   39.6751   27.9872   52.5089 H   0  0  0  0  0  0  0  0  0  0  0  0
   38.1680   27.8430   50.1180 H   0  0  0  0  0  0  0  0  0  0  0  0
  1  2  2  0
  2  3  1  0
  2  4  1  0
  4  5  1  0
  5  6  1  0
  6  7  1  0
  7  8  1  0
  8  9  1  0
  9 10  1  0
 10 11  1  0
 11 12  1  0
 12 13  1  0
 13 14  1  0
  4 15  1  0
  4 16  1  0
  5 17  1  0
  5 18  1  0
  6 19  1  0
  6 20  1  0
  7 21  1  0
  7 22  1  0
  8 23  1  0
  8 24  1  0
  9 25  1  0
  9 26  1  0
 10 27  1  0
 10 28  1  0
 11 29  1  0
 11 30  1  0
 12 31  1  0
 12 32  1  0
 13 33  1  0
 13 34  1  0
 14 35  1  0
M  CHG  1   3  -1
M  END

>  <ID>
DiffSBDD_46_num_sample_50

>  <docking_score>
-5.773

$$$$
DiffSBDD_47_num_sample_50
     RDKit          3D

 47 49  0  0  0  0  0  0  0  0999 V2000
   39.7780   26.6480   53.4290 C   0  0  0  0  0  0  0  0  0  0  0  0
   39.0060   27.9760   53.8500 C   0  0  0  0  0  0  0  0  0  0  0  0
   37.4640   27.5500   53.6110 C   0  0  0  0  0  0  0  0  0  0  0  0
   39.0640   29.3350   53.0410 C   0  0  0  0  0  0  0  0  0  0  0  0
   39.5210   30.5470   53.5180 C   0  0  0  0  0  0  0  0  0  0  0  0
   39.8140   30.5730   54.8960 C   0  0  0  0  0  0  0  0  0  0  0  0
   39.7360   29.5110   55.7500 C   0  0  0  0  0  0  0  0  0  0  0  0
   39.3070   28.1680   55.2330 C   0  0  0  0  0  0  0  0  0  0  0  0
   39.1740   27.0340   56.0840 N   0  0  0  0  0  0  0  0  0  0  0  0
   39.4770   26.2430   57.2300 C   0  0  0  0  0  0  0  0  0  0  0  0
   39.9200   25.1310   57.0320 O   0  0  0  0  0  0  0  0  0  0  0  0
   39.1320   26.6720   58.6830 C   0  0  0  0  0  0  0  0  0  0  0  0
   39.2270   28.0000   59.1790 C   0  0  0  0  0  0  0  0  0  0  0  0
   40.4090   28.4440   59.7380 C   0  0  0  0  0  0  0  0  0  0  0  0
   40.5730   29.6430   60.4070 N   0  0  0  0  0  0  0  0  0  0  0  0
   39.6000   30.4990   60.4060 C   0  0  0  0  0  0  0  0  0  0  0  0
   38.3010   30.2280   59.7670 C   0  0  0  0  0  0  0  0  0  0  0  0
   37.3960   31.4740   59.9070 C   0  0  0  0  0  0  0  0  0  0  0  0
   36.1400   31.4080   60.5890 C   0  0  0  0  0  0  0  0  0  0  0  0
   35.3250   32.5010   60.7490 C   0  0  0  0  0  0  0  0  0  0  0  0
   35.6320   33.7580   60.2510 C   0  0  0  0  0  0  0  0  0  0  0  0
   36.9160   33.8870   59.5470 C   0  0  0  0  0  0  0  0  0  0  0  0
   37.2040   35.1140   59.1170 O   0  0  0  0  0  0  0  0  0  0  0  0
   37.7880   32.7770   59.3330 C   0  0  0  0  0  0  0  0  0  0  0  0
   38.1070   28.9750   59.1440 C   0  0  0  0  0  0  0  0  0  0  0  0
   40.0935   26.1053   54.3323 H   0  0  0  0  0  0  0  0  0  0  0  0
   39.1104   26.0094   52.8320 H   0  0  0  0  0  0  0  0  0  0  0  0
   40.6633   26.9122   52.8320 H   0  0  0  0  0  0  0  0  0  0  0  0
   36.9668   27.4126   54.5825 H   0  0  0  0  0  0  0  0  0  0  0  0
   36.9491   28.3395   53.0440 H   0  0  0  0  0  0  0  0  0  0  0  0
   37.4275   26.6081   53.0440 H   0  0  0  0  0  0  0  0  0  0  0  0
   38.7066   29.3115   52.0010 H   0  0  0  0  0  0  0  0  0  0  0  0
   39.6471   31.4272   52.8704 H   0  0  0  0  0  0  0  0  0  0  0  0
   40.1343   31.5354   55.3217 H   0  0  0  0  0  0  0  0  0  0  0  0
   39.9866   29.6385   56.8135 H   0  0  0  0  0  0  0  0  0  0  0  0
   40.3584   27.9042   55.0458 H   0  0  0  0  0  0  0  0  0  0  0  0
   38.4580   26.4710   55.6020 H   0  0  0  0  0  0  0  0  0  0  0  0
   38.0844   26.3742   58.8372 H   0  0  0  0  0  0  0  0  0  0  0  0
   39.9534   26.1918   59.2350 H   0  0  0  0  0  0  0  0  0  0  0  0
   41.2900   27.7922   59.6436 H   0  0  0  0  0  0  0  0  0  0  0  0
   39.7506   31.4686   60.9032 H   0  0  0  0  0  0  0  0  0  0  0  0
   35.8141   30.4420   61.0020 H   0  0  0  0  0  0  0  0  0  0  0  0
   34.3814   32.3732   61.2997 H   0  0  0  0  0  0  0  0  0  0  0  0
   34.9512   34.6129   60.3760 H   0  0  0  0  0  0  0  0  0  0  0  0
   37.6430   35.2400   58.2390 H   0  0  0  0  0  0  0  0  0  0  0  0
   38.7203   32.8885   58.7600 H   0  0  0  0  0  0  0  0  0  0  0  0
   37.1562   28.7291   58.6485 H   0  0  0  0  0  0  0  0  0  0  0  0
  1  2  1  0
  2  3  1  0
  2  4  1  0
  4  5  2  0
  5  6  1  0
  6  7  2  0
  7  8  1  0
  8  9  1  0
  9 10  1  0
 10 11  2  0
 10 12  1  0
 12 13  1  0
 13 14  2  0
 14 15  1  0
 15 16  2  0
 16 17  1  0
 17 18  1  0
 18 19  2  0
 19 20  1  0
 20 21  2  0
 21 22  1  0
 22 23  1  0
 22 24  2  0
 17 25  2  0
  8  2  1  0
 25 13  1  0
 24 18  1  0
  1 26  1  0
  1 27  1  0
  1 28  1  0
  3 29  1  0
  3 30  1  0
  3 31  1  0
  4 32  1  0
  5 33  1  0
  6 34  1  0
  7 35  1  0
  8 36  1  0
  9 37  1  0
 12 38  1  0
 12 39  1  0
 14 40  1  0
 16 41  1  0
 19 42  1  0
 20 43  1  0
 21 44  1  0
 23 45  1  0
 24 46  1  0
 25 47  1  0
M  END

>  <ID>
DiffSBDD_47_num_sample_50

>  <docking_score>
-10.192

$$$$
DiffSBDD_48_num_sample_50
     RDKit          3D

 85 88  0  0  0  0  0  0  0  0999 V2000
   40.1480   29.8570   50.7610 C   0  0  0  0  0  0  0  0  0  0  0  0
   39.9550   28.5670   50.6340 C   0  0  0  0  0  0  0  0  0  0  0  0
   39.0410   28.4970   51.5890 C   0  0  0  0  0  0  0  0  0  0  0  0
   39.2470   27.5200   52.6090 C   0  0  0  0  0  0  0  0  0  0  0  0
   38.5630   28.0140   53.8630 C   0  0  1  0  0  0  0  0  0  0  0  0
   38.6940   29.3740   54.2100 C   0  0  0  0  0  0  0  0  0  0  0  0
   39.4600   29.8240   55.4800 C   0  0  1  0  0  0  0  0  0  0  0  0
   38.5400   30.6680   56.1200 C   0  0  0  0  0  0  0  0  0  0  0  0
   38.3470   30.2750   57.7420 S   0  0  0  0  0  0  0  0  0  0  0  0
   39.5860   29.0490   57.6490 C   0  0  1  0  0  0  0  0  0  0  0  0
   39.4840   28.2250   58.8970 C   0  0  0  0  0  0  0  0  0  0  0  0
   40.4410   28.4020   60.0940 C   0  0  0  0  0  0  0  0  0  0  0  0
   39.8080   28.6240   61.2430 C   0  0  0  0  0  0  0  0  0  0  0  0
   39.5760   30.0740   61.7580 C   0  0  2  0  0  0  0  0  0  0  0  0
   38.5220   30.9310   61.3140 N   0  0  0  0  0  0  0  0  0  0  0  0
   38.5950   32.2520   61.3790 C   0  0  0  0  0  0  0  0  0  0  0  0
   37.5470   33.0840   60.9100 C   0  0  0  0  0  0  0  0  0  0  0  0
   37.7220   34.5060   60.6680 C   0  0  0  0  0  0  0  0  0  0  0  0
   38.5660   35.4520   60.9020 C   0  0  0  0  0  0  0  0  0  0  0  0
   39.8080   35.4800   61.7450 C   0  0  0  0  0  0  0  0  0  0  0  0
   40.2200   34.1710   62.2110 C   0  0  0  0  0  0  0  0  0  0  0  0
   39.8310   32.9250   61.8510 C   0  0  0  0  0  0  0  0  0  0  0  0
   40.7910   31.9150   61.9680 C   0  0  0  0  0  0  0  0  0  0  0  0
   42.0940   32.3010   61.9150 O   0  0  0  0  0  0  0  0  0  0  0  0
   40.5590   30.6090   62.3830 N   0  0  0  0  0  0  0  0  0  0  0  0
   41.6590   29.9210   63.2840 C   0  0  0  0  0  0  0  0  0  0  0  0
   41.8300   30.3590   64.7680 C   0  0  0  0  0  0  0  0  0  0  0  0
   42.4190   29.1410   65.5450 C   0  0  0  0  0  0  0  0  0  0  0  0
   40.5100   30.7830   65.4110 C   0  0  0  0  0  0  0  0  0  0  0  0
   38.1190   36.7320   60.4430 N   0  0  0  0  0  0  0  0  0  0  0  0
   37.7600   37.7320   61.5340 C   0  0  0  0  0  0  0  0  0  0  0  0
   37.0630   36.4730   59.5680 C   0  0  0  0  0  0  0  0  0  0  0  0
   36.5270   35.0780   59.9810 C   0  0  0  0  0  0  0  0  0  0  0  0
   39.7400   28.9630   56.5160 N   0  0  0  0  0  0  0  0  0  0  0  0
   37.6860   27.0680   54.4680 C   0  0  0  0  0  0  0  0  0  0  0  0
   37.7040   26.6850   55.6680 O   0  0  0  0  0  0  0  0  0  0  0  0
   36.8180   26.5720   53.6820 O   0  0  0  0  0  0  0  0  0  0  0  0
   40.1871   30.1185   51.8287 H   0  0  0  0  0  0  0  0  0  0  0  0
   41.0977   30.1347   50.2804 H   0  0  0  0  0  0  0  0  0  0  0  0
   39.3212   30.4005   50.2804 H   0  0  0  0  0  0  0  0  0  0  0  0
   39.5652   28.2861   49.6445 H   0  0  0  0  0  0  0  0  0  0  0  0
   40.8314   27.9069   50.7133 H   0  0  0  0  0  0  0  0  0  0  0  0
   38.9937   29.4818   52.0767 H   0  0  0  0  0  0  0  0  0  0  0  0
   38.1162   28.1890   51.0792 H   0  0  0  0  0  0  0  0  0  0  0  0
   38.8127   26.5579   52.2995 H   0  0  0  0  0  0  0  0  0  0  0  0
   40.3220   27.3718   52.7892 H   0  0  0  0  0  0  0  0  0  0  0  0
   39.0018   28.1771   54.8584 H   0  0  0  0  0  0  0  0  0  0  0  0
   39.1921   29.8628   53.3597 H   0  0  0  0  0  0  0  0  0  0  0  0
   37.6579   29.6530   54.4522 H   0  0  0  0  0  0  0  0  0  0  0  0
   40.4323   30.1471   55.0796 H   0  0  0  0  0  0  0  0  0  0  0  0
   38.8988   31.7052   56.0463 H   0  0  0  0  0  0  0  0  0  0  0  0
   37.5660   30.5473   55.6232 H   0  0  0  0  0  0  0  0  0  0  0  0
   40.6647   28.9188   57.8204 H   0  0  0  0  0  0  0  0  0  0  0  0
   38.4705   28.3925   59.2903 H   0  0  0  0  0  0  0  0  0  0  0  0
   39.7685   27.2279   58.5297 H   0  0  0  0  0  0  0  0  0  0  0  0
   41.0437   27.4877   60.1979 H   0  0  0  0  0  0  0  0  0  0  0  0
   41.0628   29.2856   59.8874 H   0  0  0  0  0  0  0  0  0  0  0  0
   38.8142   28.1622   61.1479 H   0  0  0  0  0  0  0  0  0  0  0  0
   40.5023   28.2086   61.9882 H   0  0  0  0  0  0  0  0  0  0  0  0
   38.7929   29.7000   62.4340 H   0  0  0  0  0  0  0  0  0  0  0  0
   37.2189   32.6505   59.9537 H   0  0  0  0  0  0  0  0  0  0  0  0
   36.8619   33.0867   61.7706 H   0  0  0  0  0  0  0  0  0  0  0  0
   40.6251   35.9098   61.1470 H   0  0  0  0  0  0  0  0  0  0  0  0
   39.5808   36.0839   62.6359 H   0  0  0  0  0  0  0  0  0  0  0  0
   41.3066   34.1640   62.0402 H   0  0  0  0  0  0  0  0  0  0  0  0
   39.6824   34.2012   63.1702 H   0  0  0  0  0  0  0  0  0  0  0  0
   40.1615   33.1197   60.8200 H   0  0  0  0  0  0  0  0  0  0  0  0
   41.4345   28.8442   63.2938 H   0  0  0  0  0  0  0  0  0  0  0  0
   42.6038   30.2341   62.8157 H   0  0  0  0  0  0  0  0  0  0  0  0
   42.4950   31.2344   64.8065 H   0  0  0  0  0  0  0  0  0  0  0  0
   42.3326   29.3197   66.6269 H   0  0  0  0  0  0  0  0  0  0  0  0
   41.8613   28.2313   65.2779 H   0  0  0  0  0  0  0  0  0  0  0  0
   43.4784   29.0133   65.2779 H   0  0  0  0  0  0  0  0  0  0  0  0
   40.6087   30.7513   66.5061 H   0  0  0  0  0  0  0  0  0  0  0  0
   40.2603   31.8066   65.0949 H   0  0  0  0  0  0  0  0  0  0  0  0
   39.7109   30.0963   65.0949 H   0  0  0  0  0  0  0  0  0  0  0  0
   37.9246   37.2735   62.5202 H   0  0  0  0  0  0  0  0  0  0  0  0
   38.3934   38.6259   61.4349 H   0  0  0  0  0  0  0  0  0  0  0  0
   36.7027   38.0189   61.4349 H   0  0  0  0  0  0  0  0  0  0  0  0
   36.2774   37.2354   59.6750 H   0  0  0  0  0  0  0  0  0  0  0  0
   37.3850   36.4953   58.5164 H   0  0  0  0  0  0  0  0  0  0  0  0
   35.6692   35.1610   60.6646 H   0  0  0  0  0  0  0  0  0  0  0  0
   36.1509   34.4708   59.1445 H   0  0  0  0  0  0  0  0  0  0  0  0
   39.2210   28.1080   56.2660 H   0  0  0  0  0  0  0  0  0  0  0  0
   40.7580   29.1170   56.5240 H   0  0  0  0  0  0  0  0  0  0  0  0
  1  2  1  0
  2  3  1  0
  3  4  1  0
  4  5  1  0
  5  6  1  0
  6  7  1  0
  7  8  1  0
  8  9  1  0
  9 10  1  0
 10 11  1  0
 11 12  1  0
 12 13  1  0
 13 14  1  0
 14 15  1  0
 15 16  2  0
 16 17  1  0
 17 18  1  0
 18 19  2  0
 19 20  1  0
 20 21  1  0
 21 22  1  0
 22 23  1  0
 23 24  2  0
 23 25  1  0
 25 26  1  0
 26 27  1  0
 27 28  1  0
 27 29  1  0
 19 30  1  0
 30 31  1  0
 30 32  1  0
 32 33  1  0
 10 34  1  0
  5 35  1  0
 35 36  2  0
 35 37  1  0
 34  7  1  0
 25 14  1  0
 22 16  1  0
 33 18  1  0
  1 38  1  0
  1 39  1  0
  1 40  1  0
  2 41  1  0
  2 42  1  0
  3 43  1  0
  3 44  1  0
  4 45  1  0
  4 46  1  0
  5 47  1  1
  6 48  1  0
  6 49  1  0
  7 50  1  6
  8 51  1  0
  8 52  1  0
 10 53  1  1
 11 54  1  0
 11 55  1  0
 12 56  1  0
 12 57  1  0
 13 58  1  0
 13 59  1  0
 14 60  1  1
 17 61  1  0
 17 62  1  0
 20 63  1  0
 20 64  1  0
 21 65  1  0
 21 66  1  0
 22 67  1  0
 26 68  1  0
 26 69  1  0
 27 70  1  0
 28 71  1  0
 28 72  1  0
 28 73  1  0
 29 74  1  0
 29 75  1  0
 29 76  1  0
 31 77  1  0
 31 78  1  0
 31 79  1  0
 32 80  1  0
 32 81  1  0
 33 82  1  0
 33 83  1  0
 34 84  1  0
 34 85  1  0
M  CHG  2  34   1  37  -1
M  END

>  <ID>
DiffSBDD_48_num_sample_50

>  <docking_score>
-9.884

$$$$
DiffSBDD_49_num_sample_50
     RDKit          3D

 81 88  0  0  0  0  0  0  0  0999 V2000
   40.4590   30.4120   61.1150 C   0  0  0  0  0  0  0  0  0  0  0  0
   40.4910   31.4190   62.2660 C   0  0  1  0  0  0  0  0  0  0  0  0
   40.4130   30.7420   63.4160 O   0  0  0  0  0  0  0  0  0  0  0  0
   41.3300   29.5620   63.5460 C   0  0  2  0  0  0  0  0  0  0  0  0
   40.9490   28.6210   62.6430 C   0  0  0  0  0  0  0  0  0  0  0  0
   41.7370   29.3860   64.9330 C   0  0  0  0  0  0  0  0  0  0  0  0
   42.5900   29.9330   63.8120 C   0  0  1  0  0  0  0  0  0  0  0  0
   43.6640   29.2190   63.8610 O   0  0  0  0  0  0  0  0  0  0  0  0
   41.6370   32.2680   62.6230 C   0  0  0  0  0  0  0  0  0  0  0  0
   41.5580   33.5940   62.5110 O   0  0  0  0  0  0  0  0  0  0  0  0
   40.2120   33.6080   61.7880 C   0  0  0  0  0  0  0  0  0  0  0  0
   40.0610   34.8000   61.1770 C   0  0  0  0  0  0  0  0  0  0  0  0
   38.8730   35.4260   60.8660 C   0  0  1  0  0  0  0  0  0  0  0  0
   37.5280   34.7360   60.8430 C   0  0  0  0  0  0  0  0  0  0  0  0
   37.3250   33.7080   61.9010 C   0  0  0  0  0  0  0  0  0  0  0  0
   38.0420   32.3320   61.8590 C   0  0  0  0  0  0  0  0  0  0  0  0
   37.2740   31.2270   60.9920 C   0  0  0  0  0  0  0  0  0  0  0  0
   37.5510   31.4400   59.4240 C   0  0  1  0  0  0  0  0  0  0  0  0
   38.4440   32.3210   59.1810 O   0  0  0  0  0  0  0  0  0  0  0  0
   38.6800   32.3800   57.8170 C   0  0  0  0  0  0  0  0  0  0  0  0
   38.8280   33.4360   57.1470 O   0  0  0  0  0  0  0  0  0  0  0  0
   38.8010   31.1730   57.1700 C   0  0  2  0  0  0  0  0  0  0  0  0
   39.3000   31.5180   55.6370 C   0  0  0  0  0  0  0  0  0  0  0  0
   39.5490   30.2410   54.9700 C   0  0  1  0  0  0  0  0  0  0  0  0
   39.0960   30.2620   53.5960 C   0  0  0  0  0  0  0  0  0  0  0  0
   39.1420   28.6940   53.9660 C   0  0  1  0  0  0  0  0  0  0  0  0
   39.3530   27.7290   53.4390 C   0  0  0  0  0  0  0  0  0  0  0  0
   39.0780   27.6550   52.0640 C   0  0  0  0  0  0  0  0  0  0  0  0
   38.0060   27.7150   51.4750 O   0  0  0  0  0  0  0  0  0  0  0  0
   40.0380   28.0350   51.1210 O   0  0  0  0  0  0  0  0  0  0  0  0
   39.8690   28.6400   50.3790 O   0  0  0  0  0  0  0  0  0  0  0  0
   39.6400   26.5020   53.9560 C   0  0  0  0  0  0  0  0  0  0  0  0
   39.8970   26.5090   55.3430 C   0  0  0  0  0  0  0  0  0  0  0  0
   39.8740   27.7370   56.0380 C   0  0  0  0  0  0  0  0  0  0  0  0
   39.3250   28.9220   55.4810 C   0  0  1  0  0  0  0  0  0  0  0  0
   37.6910   30.3480   58.4840 C   0  0  2  0  0  0  0  0  0  0  0  0
   36.8210   30.0220   57.5000 O   0  0  0  0  0  0  0  0  0  0  0  0
   39.5490   32.4850   61.8360 C   0  0  0  0  0  0  0  0  0  0  0  0
   36.6850   35.4830   60.3980 O   0  0  0  0  0  0  0  0  0  0  0  0
   36.9430   36.4650   59.4700 C   0  0  0  0  0  0  0  0  0  0  0  0
   37.5640   37.4640   60.3580 C   0  0  0  0  0  0  0  0  0  0  0  0
   38.6470   36.8890   61.2860 C   0  0  1  0  0  0  0  0  0  0  0  0
   38.3380   36.8490   62.8740 C   0  0  0  0  0  0  0  0  0  0  0  0
   39.8030   37.6490   61.0930 O   0  0  0  0  0  0  0  0  0  0  0  0
   40.4265   29.3907   61.5222 H   0  0  0  0  0  0  0  0  0  0  0  0
   39.5660   30.5891   60.4976 H   0  0  0  0  0  0  0  0  0  0  0  0
   41.3614   30.5321   60.4976 H   0  0  0  0  0  0  0  0  0  0  0  0
   40.5875   27.7282   63.1742 H   0  0  0  0  0  0  0  0  0  0  0  0
   40.1430   29.0236   62.0119 H   0  0  0  0  0  0  0  0  0  0  0  0
   41.8080   28.3494   62.0119 H   0  0  0  0  0  0  0  0  0  0  0  0
   41.3511   30.0449   65.7248 H   0  0  0  0  0  0  0  0  0  0  0  0
   41.7867   28.5695   65.6685 H   0  0  0  0  0  0  0  0  0  0  0  0
   43.0875   30.8148   63.3820 H   0  0  0  0  0  0  0  0  0  0  0  0
   43.5250   28.4560   64.4780 H   0  0  0  0  0  0  0  0  0  0  0  0
   41.8715   32.0542   63.6762 H   0  0  0  0  0  0  0  0  0  0  0  0
   42.3884   32.0003   61.8655 H   0  0  0  0  0  0  0  0  0  0  0  0
   40.9837   35.3293   60.8969 H   0  0  0  0  0  0  0  0  0  0  0  0
   39.2456   35.3402   59.8346 H   0  0  0  0  0  0  0  0  0  0  0  0
   36.6464   33.9305   62.7376 H   0  0  0  0  0  0  0  0  0  0  0  0
   37.6256   30.2276   61.2880 H   0  0  0  0  0  0  0  0  0  0  0  0
   36.1936   31.3222   61.1758 H   0  0  0  0  0  0  0  0  0  0  0  0
   36.5245   31.7652   59.1991 H   0  0  0  0  0  0  0  0  0  0  0  0
   39.3155   30.2555   56.8483 H   0  0  0  0  0  0  0  0  0  0  0  0
   38.5181   32.0772   55.1022 H   0  0  0  0  0  0  0  0  0  0  0  0
   40.2091   32.1372   55.6505 H   0  0  0  0  0  0  0  0  0  0  0  0
   38.1064   30.7015   53.4022 H   0  0  0  0  0  0  0  0  0  0  0  0
   39.5720   30.7635   52.7405 H   0  0  0  0  0  0  0  0  0  0  0  0
   39.6688   25.5870   53.3462 H   0  0  0  0  0  0  0  0  0  0  0  0
   40.1123   25.5707   55.8752 H   0  0  0  0  0  0  0  0  0  0  0  0
   40.2985   27.7777   57.0520 H   0  0  0  0  0  0  0  0  0  0  0  0
   38.8756   28.9870   56.4829 H   0  0  0  0  0  0  0  0  0  0  0  0
   37.8323   29.5005   59.1708 H   0  0  0  0  0  0  0  0  0  0  0  0
   36.3470   29.1880   57.7410 H   0  0  0  0  0  0  0  0  0  0  0  0
   37.6357   36.1214   58.6876 H   0  0  0  0  0  0  0  0  0  0  0  0
   36.0713   36.8168   58.8987 H   0  0  0  0  0  0  0  0  0  0  0  0
   38.0227   38.2445   59.7332 H   0  0  0  0  0  0  0  0  0  0  0  0
   36.7650   37.8546   61.0053 H   0  0  0  0  0  0  0  0  0  0  0  0
   39.2773   36.9706   63.4335 H   0  0  0  0  0  0  0  0  0  0  0  0
   37.6480   37.6653   63.1340 H   0  0  0  0  0  0  0  0  0  0  0  0
   37.8787   35.8839   63.1340 H   0  0  0  0  0  0  0  0  0  0  0  0
   39.5740   38.6120   61.1220 H   0  0  0  0  0  0  0  0  0  0  0  0
  1  2  1  0
  2  3  1  1
  4  3  1  1
  4  5  1  0
  4  6  1  0
  6  7  1  0
  7  8  1  0
  2  9  1  0
  9 10  1  0
 10 11  1  0
 11 12  2  0
 12 13  1  0
 13 14  1  0
 14 15  2  0
 15 16  1  0
 16 17  1  0
 17 18  1  0
 18 19  1  0
 19 20  1  0
 20 21  2  0
 20 22  1  0
 22 23  1  0
 24 23  1  6
 24 25  1  0
 26 25  1  6
 26 27  1  0
 27 28  1  0
 28 29  2  0
 28 30  1  0
 30 31  1  0
 27 32  2  0
 32 33  1  0
 33 34  2  0
 34 35  1  0
 22 36  1  0
 36 37  1  0
 16 38  2  0
 14 39  1  0
 39 40  1  0
 40 41  1  0
 41 42  1  0
 42 43  1  0
 42 44  1  1
 38  2  1  0
  7  4  1  0
 38 11  1  0
 42 13  1  0
 36 18  1  0
 26 24  1  0
 35 24  1  0
 35 26  1  0
  1 45  1  0
  1 46  1  0
  1 47  1  0
  5 48  1  0
  5 49  1  0
  5 50  1  0
  6 51  1  0
  6 52  1  0
  7 53  1  1
  8 54  1  0
  9 55  1  0
  9 56  1  0
 12 57  1  0
 13 58  1  6
 15 59  1  0
 17 60  1  0
 17 61  1  0
 18 62  1  6
 22 63  1  1
 23 64  1  0
 23 65  1  0
 25 66  1  0
 25 67  1  0
 32 68  1  0
 33 69  1  0
 34 70  1  0
 35 71  1  1
 36 72  1  1
 37 73  1  0
 40 74  1  0
 40 75  1  0
 41 76  1  0
 41 77  1  0
 43 78  1  0
 43 79  1  0
 43 80  1  0
 44 81  1  0
M  CHG  1  31  -1
M  END

>  <ID>
DiffSBDD_49_num_sample_50

>  <docking_score>
-11.208

$$$$
DiffSBDD_4_num_sample_50
     RDKit          3D

 73 75  0  0  0  0  0  0  0  0999 V2000
   37.1250   25.5800   54.7910 C   0  0  0  0  0  0  0  0  0  0  0  0
   38.2770   26.2610   55.5260 C   0  0  0  0  0  0  0  0  0  0  0  0
   39.5530   25.5850   55.1650 C   0  0  0  0  0  0  0  0  0  0  0  0
   37.9240   26.1650   56.9000 C   0  0  0  0  0  0  0  0  0  0  0  0
   38.3380   27.6210   54.9270 N   0  0  0  0  0  0  0  0  0  0  0  0
   37.7840   28.0720   53.7320 C   0  0  0  0  0  0  0  0  0  0  0  0
   38.9770   28.5540   52.9400 C   0  0  2  0  0  0  0  0  0  0  0  0
   39.6590   29.8170   52.3940 C   0  0  0  0  0  0  0  0  0  0  0  0
   39.7090   29.6650   51.0760 C   0  0  1  0  0  0  0  0  0  0  0  0
   40.0690   30.1670   49.9620 C   0  0  0  0  0  0  0  0  0  0  0  0
   40.7360   29.4160   49.2070 F   0  0  0  0  0  0  0  0  0  0  0  0
   39.7090   31.4170   49.5680 F   0  0  0  0  0  0  0  0  0  0  0  0
   39.5580   28.0920   50.8090 C   0  0  0  0  0  0  0  0  0  0  0  0
   38.7990   27.8850   51.6930 N   0  0  0  0  0  0  0  0  0  0  0  0
   39.0920   28.5720   55.5500 N   0  0  0  0  0  0  0  0  0  0  0  0
   38.5730   29.8550   56.0400 C   0  0  0  0  0  0  0  0  0  0  0  0
   37.7080   29.7880   57.0090 O   0  0  0  0  0  0  0  0  0  0  0  0
   39.3010   31.1430   55.7490 C   0  0  0  0  0  0  0  0  0  0  0  0
   38.3260   32.3080   55.5780 C   0  0  0  0  0  0  0  0  0  0  0  0
   38.3250   33.1720   56.8640 C   0  0  0  0  0  0  0  0  0  0  0  0
   38.6800   33.0150   58.1120 C   0  0  0  0  0  0  0  0  0  0  0  0
   38.2200   33.5960   59.3220 N   0  0  0  0  0  0  0  0  0  0  0  0
   37.3390   34.5810   59.4070 C   0  0  0  0  0  0  0  0  0  0  0  0
   37.8370   35.4480   60.3640 C   0  0  0  0  0  0  0  0  0  0  0  0
   39.0070   34.8760   60.8960 C   0  0  0  0  0  0  0  0  0  0  0  0
   38.9660   33.5280   60.4530 C   0  0  0  0  0  0  0  0  0  0  0  0
   39.4000   32.5450   61.1360 O   0  0  0  0  0  0  0  0  0  0  0  0
   39.9140   35.6910   61.6310 C   0  0  0  0  0  0  0  0  0  0  0  0
   41.2300   35.2380   62.2540 C   0  0  0  0  0  0  0  0  0  0  0  0
   41.0510   34.2170   63.2640 N   0  0  0  0  0  0  0  0  0  0  0  0
   39.6310   37.0050   61.8790 C   0  0  0  0  0  0  0  0  0  0  0  0
   38.3830   37.5560   61.3940 C   0  0  0  0  0  0  0  0  0  0  0  0
   37.5240   36.7770   60.5520 C   0  0  0  0  0  0  0  0  0  0  0  0
   36.4890   37.2750   59.9860 O   0  0  0  0  0  0  0  0  0  0  0  0
   36.4186   25.1624   55.5235 H   0  0  0  0  0  0  0  0  0  0  0  0
   36.6062   26.3166   54.1600 H   0  0  0  0  0  0  0  0  0  0  0  0
   37.5203   24.7703   54.1600 H   0  0  0  0  0  0  0  0  0  0  0  0
   40.0896   25.3007   56.0822 H   0  0  0  0  0  0  0  0  0  0  0  0
   39.3357   24.6837   54.5730 H   0  0  0  0  0  0  0  0  0  0  0  0
   40.1767   26.2710   54.5730 H   0  0  0  0  0  0  0  0  0  0  0  0
   38.8000   26.4032   57.5211 H   0  0  0  0  0  0  0  0  0  0  0  0
   37.1137   26.8754   57.1209 H   0  0  0  0  0  0  0  0  0  0  0  0
   37.5851   25.1421   57.1209 H   0  0  0  0  0  0  0  0  0  0  0  0
   37.2689   27.2547   53.2060 H   0  0  0  0  0  0  0  0  0  0  0  0
   37.0288   28.8573   53.8833 H   0  0  0  0  0  0  0  0  0  0  0  0
   39.5866   28.5095   53.8546 H   0  0  0  0  0  0  0  0  0  0  0  0
   39.0726   30.7107   52.6537 H   0  0  0  0  0  0  0  0  0  0  0  0
   40.6633   29.9500   52.8227 H   0  0  0  0  0  0  0  0  0  0  0  0
   39.3765   30.7081   51.1828 H   0  0  0  0  0  0  0  0  0  0  0  0
   40.9993   30.5276   50.4251 H   0  0  0  0  0  0  0  0  0  0  0  0
   39.1294   27.8687   49.8208 H   0  0  0  0  0  0  0  0  0  0  0  0
   40.4826   27.4963   50.7939 H   0  0  0  0  0  0  0  0  0  0  0  0
   37.8620   28.1370   51.3490 H   0  0  0  0  0  0  0  0  0  0  0  0
   38.9600   26.8950   51.9250 H   0  0  0  0  0  0  0  0  0  0  0  0
   40.0940   28.3760   55.6860 H   0  0  0  0  0  0  0  0  0  0  0  0
   39.9820   31.3657   56.5836 H   0  0  0  0  0  0  0  0  0  0  0  0
   39.8614   31.0197   54.8105 H   0  0  0  0  0  0  0  0  0  0  0  0
   38.6376   32.9246   54.7220 H   0  0  0  0  0  0  0  0  0  0  0  0
   37.3140   31.9164   55.3980 H   0  0  0  0  0  0  0  0  0  0  0  0
   38.9166   34.0479   56.5595 H   0  0  0  0  0  0  0  0  0  0  0  0
   37.2549   33.0155   57.0648 H   0  0  0  0  0  0  0  0  0  0  0  0
   38.5486   31.9360   58.2809 H   0  0  0  0  0  0  0  0  0  0  0  0
   39.6086   33.6009   58.0452 H   0  0  0  0  0  0  0  0  0  0  0  0
   37.2422   35.0935   58.4385 H   0  0  0  0  0  0  0  0  0  0  0  0
   36.3395   34.2093   59.6770 H   0  0  0  0  0  0  0  0  0  0  0  0
   41.8752   34.8363   61.4588 H   0  0  0  0  0  0  0  0  0  0  0  0
   41.6824   36.1126   62.7442 H   0  0  0  0  0  0  0  0  0  0  0  0
   40.1870   34.4040   63.7930 H   0  0  0  0  0  0  0  0  0  0  0  0
   40.9840   33.2940   62.8110 H   0  0  0  0  0  0  0  0  0  0  0  0
   41.8560   34.2250   63.9070 H   0  0  0  0  0  0  0  0  0  0  0  0
   40.3398   37.6336   62.4379 H   0  0  0  0  0  0  0  0  0  0  0  0
   37.7925   37.8284   62.2812 H   0  0  0  0  0  0  0  0  0  0  0  0
   38.7122   38.3680   60.7290 H   0  0  0  0  0  0  0  0  0  0  0  0
  1  2  1  0
  2  3  1  0
  2  4  1  0
  2  5  1  0
  5  6  1  0
  6  7  1  0
  7  8  1  0
  8  9  1  0
  9 10  1  0
 10 11  1  0
 10 12  1  0
  9 13  1  0
 13 14  1  0
  5 15  1  0
 15 16  1  0
 16 17  2  0
 16 18  1  0
 18 19  1  0
 19 20  1  0
 20 21  1  0
 21 22  1  0
 22 23  1  0
 23 24  1  0
 24 25  2  0
 25 26  1  0
 26 27  2  0
 25 28  1  0
 28 29  1  0
 29 30  1  0
 28 31  2  0
 31 32  1  0
 32 33  1  0
 33 34  2  0
 14  7  1  0
 26 22  1  0
 33 24  1  0
  1 35  1  0
  1 36  1  0
  1 37  1  0
  3 38  1  0
  3 39  1  0
  3 40  1  0
  4 41  1  0
  4 42  1  0
  4 43  1  0
  6 44  1  0
  6 45  1  0
  7 46  1  1
  8 47  1  0
  8 48  1  0
  9 49  1  6
 10 50  1  0
 13 51  1  0
 13 52  1  0
 14 53  1  0
 14 54  1  0
 15 55  1  0
 18 56  1  0
 18 57  1  0
 19 58  1  0
 19 59  1  0
 20 60  1  0
 20 61  1  0
 21 62  1  0
 21 63  1  0
 23 64  1  0
 23 65  1  0
 29 66  1  0
 29 67  1  0
 30 68  1  0
 30 69  1  0
 30 70  1  0
 31 71  1  0
 32 72  1  0
 32 73  1  0
M  CHG  2  14   1  30   1
M  END

>  <ID>
DiffSBDD_4_num_sample_50

>  <docking_score>
-10.206

$$$$
DiffSBDD_5_num_sample_50
     RDKit          3D

 79 81  0  0  0  0  0  0  0  0999 V2000
   41.6890   35.2550   65.0780 C   0  0  0  0  0  0  0  0  0  0  0  0
   41.7550   35.5140   63.6350 O   0  0  0  0  0  0  0  0  0  0  0  0
   40.4040   35.6470   62.9530 C   0  0  2  0  0  0  0  0  0  0  0  0
   40.5130   34.9140   61.6110 C   0  0  0  0  0  0  0  0  0  0  0  0
   41.0320   33.4570   61.8580 C   0  0  0  0  0  0  0  0  0  0  0  0
   39.8640   32.4630   61.6900 C   0  0  1  0  0  0  0  0  0  0  0  0
   38.2460   32.0850   61.9230 C   0  0  0  0  0  0  0  0  0  0  0  0
   37.8970   31.1170   61.2260 N   0  0  0  0  0  0  0  0  0  0  0  0
   38.8610   30.8390   60.3600 C   0  0  0  0  0  0  0  0  0  0  0  0
   38.6560   30.1290   59.0880 C   0  0  0  0  0  0  0  0  0  0  0  0
   38.7780   28.6080   59.1090 C   0  0  0  0  0  0  0  0  0  0  0  0
   39.2210   28.0270   57.8640 C   0  0  1  0  0  0  0  0  0  0  0  0
   38.8810   26.7400   57.4940 N   0  0  0  0  0  0  0  0  0  0  0  0
   38.9370   25.6360   58.1870 N   0  0  0  0  0  0  0  0  0  0  0  0
   38.3110   24.6480   57.7410 C   0  0  0  0  0  0  0  0  0  0  0  0
   37.7150   25.0720   56.4910 C   0  0  2  0  0  0  0  0  0  0  0  0
   36.9420   23.9060   55.5190 C   0  0  0  0  0  0  0  0  0  0  0  0
   35.6440   24.6060   56.1630 F   0  0  0  0  0  0  0  0  0  0  0  0
   38.2150   26.4240   55.9480 S   0  0  0  0  0  0  0  0  0  0  0  0
   39.9120   28.9520   56.9100 C   0  0  0  0  0  0  0  0  0  0  0  0
   38.9180   29.9600   56.7420 N   0  0  2  0  0  0  0  0  0  0  0  0
   38.7410   30.4270   55.4900 C   0  0  0  0  0  0  0  0  0  0  0  0
   37.2980   30.4710   54.8770 C   0  0  0  0  0  0  0  0  0  0  0  0
   39.7070   30.8230   54.5530 C   0  0  0  0  0  0  0  0  0  0  0  0
   38.3450   30.7040   57.8380 C   0  0  2  0  0  0  0  0  0  0  0  0
   38.3780   32.2060   57.5940 C   0  0  0  0  0  0  0  0  0  0  0  0
   40.0480   31.3930   60.7240 N   0  0  0  0  0  0  0  0  0  0  0  0
   39.4360   36.8420   62.7900 C   0  0  1  0  0  0  0  0  0  0  0  0
   40.1350   37.9070   62.4720 O   0  0  0  0  0  0  0  0  0  0  0  0
   38.1050   36.7130   62.2540 C   0  0  0  0  0  0  0  0  0  0  0  0
   37.6700   37.3710   61.0360 N   0  0  0  0  0  0  0  0  0  0  0  0
   37.1600   36.5460   60.1200 C   0  0  0  0  0  0  0  0  0  0  0  0
   36.9760   35.1290   60.2600 C   0  0  0  0  0  0  0  0  0  0  0  0
   36.6620   37.1120   59.0900 O   0  0  0  0  0  0  0  0  0  0  0  0
   41.9243   36.1785   65.6274 H   0  0  0  0  0  0  0  0  0  0  0  0
   40.6763   34.9180   65.3441 H   0  0  0  0  0  0  0  0  0  0  0  0
   42.4169   34.4744   65.3441 H   0  0  0  0  0  0  0  0  0  0  0  0
   39.8479   35.3027   63.8374 H   0  0  0  0  0  0  0  0  0  0  0  0
   39.5236   34.8754   61.1319 H   0  0  0  0  0  0  0  0  0  0  0  0
   41.2151   35.4491   60.9547 H   0  0  0  0  0  0  0  0  0  0  0  0
   41.8228   33.2207   61.1309 H   0  0  0  0  0  0  0  0  0  0  0  0
   41.4380   33.3788   62.8773 H   0  0  0  0  0  0  0  0  0  0  0  0
   40.0314   33.1214   62.5551 H   0  0  0  0  0  0  0  0  0  0  0  0
   38.0863   31.8376   62.9829 H   0  0  0  0  0  0  0  0  0  0  0  0
   37.6433   32.9565   61.6276 H   0  0  0  0  0  0  0  0  0  0  0  0
   37.0040   30.6120   61.3090 H   0  0  0  0  0  0  0  0  0  0  0  0
   39.7306   30.2122   58.8684 H   0  0  0  0  0  0  0  0  0  0  0  0
   39.4984   28.3317   59.8930 H   0  0  0  0  0  0  0  0  0  0  0  0
   37.7678   28.2151   59.2963 H   0  0  0  0  0  0  0  0  0  0  0  0
   39.9716   27.3014   58.2106 H   0  0  0  0  0  0  0  0  0  0  0  0
   39.9290   25.3660   58.2620 H   0  0  0  0  0  0  0  0  0  0  0  0
   38.9995   23.8076   57.5685 H   0  0  0  0  0  0  0  0  0  0  0  0
   37.5448   24.3069   58.4527 H   0  0  0  0  0  0  0  0  0  0  0  0
   36.6978   25.4306   56.7072 H   0  0  0  0  0  0  0  0  0  0  0  0
   37.0657   24.0232   54.4323 H   0  0  0  0  0  0  0  0  0  0  0  0
   37.1536   22.8267   55.5341 H   0  0  0  0  0  0  0  0  0  0  0  0
   40.8356   29.3634   57.3433 H   0  0  0  0  0  0  0  0  0  0  0  0
   40.2392   28.4767   55.9735 H   0  0  0  0  0  0  0  0  0  0  0  0
   38.1810   29.2790   56.9720 H   0  0  0  0  0  0  0  0  0  0  0  0
   38.8793   29.4111   55.0915 H   0  0  0  0  0  0  0  0  0  0  0  0
   36.5555   30.4936   55.6883 H   0  0  0  0  0  0  0  0  0  0  0  0
   37.1906   31.3728   54.2564 H   0  0  0  0  0  0  0  0  0  0  0  0
   37.1359   29.5774   54.2564 H   0  0  0  0  0  0  0  0  0  0  0  0
   40.6004   31.1893   55.0799 H   0  0  0  0  0  0  0  0  0  0  0  0
   39.9797   29.9641   53.9222 H   0  0  0  0  0  0  0  0  0  0  0  0
   39.2983   31.6262   53.9222 H   0  0  0  0  0  0  0  0  0  0  0  0
   37.2519   30.5950   57.8954 H   0  0  0  0  0  0  0  0  0  0  0  0
   38.3896   32.7341   58.5589 H   0  0  0  0  0  0  0  0  0  0  0  0
   39.2821   32.4650   57.0234 H   0  0  0  0  0  0  0  0  0  0  0  0
   37.4862   32.5045   57.0234 H   0  0  0  0  0  0  0  0  0  0  0  0
   40.9630   31.0920   60.3600 H   0  0  0  0  0  0  0  0  0  0  0  0
   38.9776   36.9420   63.7849 H   0  0  0  0  0  0  0  0  0  0  0  0
   40.5940   37.7550   61.6070 H   0  0  0  0  0  0  0  0  0  0  0  0
   37.9498   35.6368   62.0875 H   0  0  0  0  0  0  0  0  0  0  0  0
   37.5130   37.2466   63.0122 H   0  0  0  0  0  0  0  0  0  0  0  0
   37.7480   38.3870   60.8910 H   0  0  0  0  0  0  0  0  0  0  0  0
   36.9420   34.8674   61.3279 H   0  0  0  0  0  0  0  0  0  0  0  0
   36.0318   34.8326   59.7797 H   0  0  0  0  0  0  0  0  0  0  0  0
   37.8132   34.6013   59.7797 H   0  0  0  0  0  0  0  0  0  0  0  0
  1  2  1  0
  2  3  1  0
  3  4  1  0
  4  5  1  0
  5  6  1  0
  6  7  1  0
  7  8  1  0
  8  9  1  0
  9 10  1  0
 10 11  1  0
 11 12  1  0
 12 13  1  0
 13 14  1  0
 14 15  1  0
 15 16  1  0
 16 17  1  0
 17 18  1  0
 16 19  1  0
 12 20  1  0
 20 21  1  0
 21 22  1  0
 22 23  1  0
 22 24  1  0
 21 25  1  0
 25 26  1  0
  9 27  2  0
  3 28  1  0
 28 29  1  0
 28 30  1  0
 30 31  1  0
 31 32  1  0
 32 33  1  0
 32 34  2  0
 27  6  1  0
 25 10  1  0
 19 13  1  0
  1 35  1  0
  1 36  1  0
  1 37  1  0
  3 38  1  1
  4 39  1  0
  4 40  1  0
  5 41  1  0
  5 42  1  0
  6 43  1  1
  7 44  1  0
  7 45  1  0
  8 46  1  0
 10 47  1  0
 11 48  1  0
 11 49  1  0
 12 50  1  1
 14 51  1  0
 15 52  1  0
 15 53  1  0
 16 54  1  1
 17 55  1  0
 17 56  1  0
 20 57  1  0
 20 58  1  0
 21 59  1  6
 22 60  1  0
 23 61  1  0
 23 62  1  0
 23 63  1  0
 24 64  1  0
 24 65  1  0
 24 66  1  0
 25 67  1  6
 26 68  1  0
 26 69  1  0
 26 70  1  0
 27 71  1  0
 28 72  1  1
 29 73  1  0
 30 74  1  0
 30 75  1  0
 31 76  1  0
 33 77  1  0
 33 78  1  0
 33 79  1  0
M  CHG  2  21   1  27   1
M  END

>  <ID>
DiffSBDD_5_num_sample_50

>  <docking_score>
-9.187

$$$$
DiffSBDD_6_num_sample_50
     RDKit          3D

 66 69  0  0  0  0  0  0  0  0999 V2000
   39.8600   25.9280   55.5560 C   0  0  0  0  0  0  0  0  0  0  0  0
   40.1190   27.1140   56.5020 C   0  0  0  0  0  0  0  0  0  0  0  0
   39.5560   27.2160   57.7960 C   0  0  0  0  0  0  0  0  0  0  0  0
   39.7650   28.4700   58.5610 C   0  0  0  0  0  0  0  0  0  0  0  0
   38.5090   28.9580   59.1700 O   0  0  0  0  0  0  0  0  0  0  0  0
   38.4050   30.4020   59.4470 N   0  0  0  0  0  0  0  0  0  0  0  0
   38.7760   30.7570   60.6190 C   0  0  0  0  0  0  0  0  0  0  0  0
   39.1930   29.9900   61.6560 N   0  0  0  0  0  0  0  0  0  0  0  0
   39.3950   30.9930   62.6490 C   0  0  0  0  0  0  0  0  0  0  0  0
   39.0860   32.2600   62.2200 N   0  0  0  0  0  0  0  0  0  0  0  0
   38.7650   32.0990   60.8600 C   0  0  0  0  0  0  0  0  0  0  0  0
   38.4910   33.0770   59.8790 N   0  0  0  0  0  0  0  0  0  0  0  0
   38.0990   34.3420   60.3920 C   0  0  0  0  0  0  0  0  0  0  0  0
   37.0510   35.1260   60.0080 C   0  0  0  0  0  0  0  0  0  0  0  0
   37.0080   36.4860   60.2420 C   0  0  0  0  0  0  0  0  0  0  0  0
   38.0400   37.0900   60.8730 C   0  0  0  0  0  0  0  0  0  0  0  0
   38.0730   38.6160   61.2110 C   0  0  0  0  0  0  0  0  0  0  0  0
   39.0420   36.3170   61.2910 C   0  0  0  0  0  0  0  0  0  0  0  0
   40.2850   36.8950   62.0500 C   0  0  0  0  0  0  0  0  0  0  0  0
   39.1060   34.9610   61.0490 N   0  0  0  0  0  0  0  0  0  0  0  0
   38.0260   32.6900   58.5050 C   0  0  0  0  0  0  0  0  0  0  0  0
   38.3260   31.1810   58.2350 C   0  0  2  0  0  0  0  0  0  0  0  0
   37.8540   30.6620   57.2410 N   0  0  0  0  0  0  0  0  0  0  0  0
   37.9210   31.2100   55.8060 C   0  0  0  0  0  0  0  0  0  0  0  0
   37.4590   30.1660   54.8010 C   0  0  0  0  0  0  0  0  0  0  0  0
   38.4310   29.2220   54.4350 O   0  0  0  0  0  0  0  0  0  0  0  0
   38.9060   29.0010   53.2250 C   0  0  0  0  0  0  0  0  0  0  0  0
   38.5300   27.8280   52.6040 C   0  0  0  0  0  0  0  0  0  0  0  0
   37.6390   27.0930   53.2620 F   0  0  0  0  0  0  0  0  0  0  0  0
   38.9060   27.4500   51.3260 C   0  0  0  0  0  0  0  0  0  0  0  0
   39.7360   28.3200   50.6930 C   0  0  0  0  0  0  0  0  0  0  0  0
   40.0460   29.6220   51.2360 C   0  0  0  0  0  0  0  0  0  0  0  0
   40.7000   30.4600   50.4680 F   0  0  0  0  0  0  0  0  0  0  0  0
   39.6790   29.9330   52.5240 C   0  0  0  0  0  0  0  0  0  0  0  0
   39.9810   31.1670   53.0520 F   0  0  0  0  0  0  0  0  0  0  0  0
   39.6623   25.0226   56.1487 H   0  0  0  0  0  0  0  0  0  0  0  0
   38.9888   26.1485   54.9216 H   0  0  0  0  0  0  0  0  0  0  0  0
   40.7438   25.7652   54.9216 H   0  0  0  0  0  0  0  0  0  0  0  0
   41.2091   27.1532   56.6441 H   0  0  0  0  0  0  0  0  0  0  0  0
   39.5979   27.9272   55.9756 H   0  0  0  0  0  0  0  0  0  0  0  0
   38.4700   27.0774   57.6897 H   0  0  0  0  0  0  0  0  0  0  0  0
   40.0863   26.4509   58.3820 H   0  0  0  0  0  0  0  0  0  0  0  0
   40.4981   28.2820   59.3593 H   0  0  0  0  0  0  0  0  0  0  0  0
   40.1281   29.2393   57.8636 H   0  0  0  0  0  0  0  0  0  0  0  0
   39.3250   28.9700   61.7120 H   0  0  0  0  0  0  0  0  0  0  0  0
   38.7624   30.7556   63.5170 H   0  0  0  0  0  0  0  0  0  0  0  0
   40.4662   30.9889   62.8990 H   0  0  0  0  0  0  0  0  0  0  0  0
   39.0900   33.1310   62.7700 H   0  0  0  0  0  0  0  0  0  0  0  0
   36.2033   34.6543   59.4894 H   0  0  0  0  0  0  0  0  0  0  0  0
   36.1381   37.0754   59.9166 H   0  0  0  0  0  0  0  0  0  0  0  0
   38.0759   38.7497   62.3028 H   0  0  0  0  0  0  0  0  0  0  0  0
   38.9811   39.0666   60.7840 H   0  0  0  0  0  0  0  0  0  0  0  0
   37.1852   39.1054   60.7840 H   0  0  0  0  0  0  0  0  0  0  0  0
   40.1203   36.8184   63.1349 H   0  0  0  0  0  0  0  0  0  0  0  0
   41.1823   36.3218   61.7740 H   0  0  0  0  0  0  0  0  0  0  0  0
   40.4249   37.9506   61.7740 H   0  0  0  0  0  0  0  0  0  0  0  0
   36.9427   32.8642   58.4263 H   0  0  0  0  0  0  0  0  0  0  0  0
   38.5611   33.2993   57.7618 H   0  0  0  0  0  0  0  0  0  0  0  0
   39.3567   31.1818   57.8508 H   0  0  0  0  0  0  0  0  0  0  0  0
   38.2890   29.7300   57.1930 H   0  0  0  0  0  0  0  0  0  0  0  0
   37.2728   32.0953   55.7285 H   0  0  0  0  0  0  0  0  0  0  0  0
   38.9645   31.4751   55.5808 H   0  0  0  0  0  0  0  0  0  0  0  0
   36.6065   29.6256   55.2383 H   0  0  0  0  0  0  0  0  0  0  0  0
   37.2042   30.7157   53.8829 H   0  0  0  0  0  0  0  0  0  0  0  0
   38.5592   26.5165   50.8588 H   0  0  0  0  0  0  0  0  0  0  0  0
   40.1870   28.0227   49.7348 H   0  0  0  0  0  0  0  0  0  0  0  0
  1  2  1  0
  2  3  1  0
  3  4  1  0
  4  5  1  0
  5  6  1  0
  6  7  1  0
  7  8  2  0
  8  9  1  0
  9 10  1  0
 10 11  2  0
 11 12  1  0
 12 13  1  0
 13 14  2  0
 14 15  1  0
 15 16  2  0
 16 17  1  0
 16 18  1  0
 18 19  1  0
 18 20  2  0
 12 21  1  0
 21 22  1  0
 22 23  1  0
 23 24  1  0
 24 25  1  0
 25 26  1  0
 26 27  1  0
 27 28  2  0
 28 29  1  0
 28 30  1  0
 30 31  2  0
 31 32  1  0
 32 33  1  0
 32 34  2  0
 34 35  1  0
 22  6  1  0
 34 27  1  0
 11  7  1  0
 20 13  1  0
  1 36  1  0
  1 37  1  0
  1 38  1  0
  2 39  1  0
  2 40  1  0
  3 41  1  0
  3 42  1  0
  4 43  1  0
  4 44  1  0
  8 45  1  0
  9 46  1  0
  9 47  1  0
 10 48  1  0
 14 49  1  0
 15 50  1  0
 17 51  1  0
 17 52  1  0
 17 53  1  0
 19 54  1  0
 19 55  1  0
 19 56  1  0
 21 57  1  0
 21 58  1  0
 22 59  1  6
 23 60  1  0
 24 61  1  0
 24 62  1  0
 25 63  1  0
 25 64  1  0
 30 65  1  0
 31 66  1  0
M  CHG  2   8   1  10   1
M  END

>  <ID>
DiffSBDD_6_num_sample_50

>  <docking_score>
-10.202

$$$$
DiffSBDD_7_num_sample_50
     RDKit          3D

 92 95  0  0  0  0  0  0  0  0999 V2000
   41.2490   32.0990   62.3940 C   0  0  0  0  0  0  0  0  0  0  0  0
   40.6020   33.4140   62.2730 O   0  0  0  0  0  0  0  0  0  0  0  0
   39.1000   33.6080   61.7730 C   0  0  2  0  0  0  0  0  0  0  0  0
   39.0870   32.6220   60.9080 C   0  0  0  0  0  0  0  0  0  0  0  0
   38.4830   32.4130   59.4120 N   0  0  1  0  0  0  0  0  0  0  0  0
   37.7270   31.3450   58.8910 C   0  0  0  0  0  0  0  0  0  0  0  0
   38.2480   29.8570   58.6940 C   0  0  0  0  0  0  0  0  0  0  0  0
   38.4220   29.5610   57.0350 C   0  0  1  0  0  0  0  0  0  0  0  0
   38.8920   30.4540   56.0660 C   0  0  0  0  0  0  0  0  0  0  0  0
   39.3870   30.2550   54.8450 C   0  0  0  0  0  0  0  0  0  0  0  0
   39.1150   29.1500   53.9790 C   0  0  0  0  0  0  0  0  0  0  0  0
   39.4540   29.1200   52.5950 C   0  0  2  0  0  0  0  0  0  0  0  0
   40.1060   30.1610   51.5410 C   0  0  0  0  0  0  0  0  0  0  0  0
   38.6210   28.2130   51.8230 C   0  0  0  0  0  0  0  0  0  0  0  0
   39.0870   27.6460   50.6820 O   0  0  0  0  0  0  0  0  0  0  0  0
   37.3250   28.3130   52.1860 O   0  0  0  0  0  0  0  0  0  0  0  0
   38.4690   28.0320   54.3390 O   0  0  0  0  0  0  0  0  0  0  0  0
   38.3180   27.4480   55.6070 C   0  0  1  0  0  0  0  0  0  0  0  0
   38.0040   28.3570   56.7040 C   0  0  0  0  0  0  0  0  0  0  0  0
   37.6900   25.7520   55.6250 C   0  0  0  0  0  0  0  0  0  0  0  0
   37.5300   24.2830   55.5410 C   0  0  0  0  0  0  0  0  0  0  0  0
   39.4170   25.9050   55.3430 C   0  0  1  0  0  0  0  0  0  0  0  0
   39.6580   25.9230   53.7720 C   0  0  0  0  0  0  0  0  0  0  0  0
   38.1850   33.7290   58.7210 C   0  0  0  0  0  0  0  0  0  0  0  0
   36.9670   34.4620   59.3970 C   0  0  0  0  0  0  0  0  0  0  0  0
   37.1730   34.5600   60.8680 O   0  0  0  0  0  0  0  0  0  0  0  0
   38.0980   35.6530   61.2360 C   0  0  1  0  0  0  0  0  0  0  0  0
   37.0710   36.6430   61.7860 C   0  0  0  0  0  0  0  0  0  0  0  0
   36.4770   36.5970   62.8370 O   0  0  0  0  0  0  0  0  0  0  0  0
   36.8840   37.6930   61.0750 N   0  0  0  0  0  0  0  0  0  0  0  0
   37.9010   38.5910   61.1250 C   0  0  0  0  0  0  0  0  0  0  0  0
   38.7520   39.3390   61.1260 N   0  0  0  0  0  0  0  0  0  0  0  0
   39.0700   35.1880   61.9700 C   0  0  2  0  0  0  0  0  0  0  0  0
   40.4900   35.8520   62.2490 C   0  0  0  0  0  0  0  0  0  0  0  0
   41.0060   36.7750   61.7910 O   0  0  0  0  0  0  0  0  0  0  0  0
   40.8940   35.5940   63.9910 S   0  0  0  0  0  4  0  0  0  0  0  0
   42.1870   36.4060   63.6900 O   0  0  0  0  0  0  0  0  0  0  0  0
   41.0640   35.0650   65.4890 C   0  0  2  0  0  0  0  0  0  0  0  0
   42.4760   33.9300   65.5940 S   0  0  0  0  0  0  0  0  0  0  0  0
   42.0570   33.3310   67.0390 C   0  0  0  0  0  0  0  0  0  0  0  0
   42.5940   32.4850   67.5260 O   0  0  0  0  0  0  0  0  0  0  0  0
   40.9100   33.9620   67.3940 N   0  0  0  0  0  0  0  0  0  0  0  0
   40.2230   34.8750   66.7420 C   0  0  1  0  0  0  0  0  0  0  0  0
   40.1810   36.0100   67.5180 C   0  0  0  0  0  0  0  0  0  0  0  0
   39.6840   37.2170   66.9840 C   0  0  1  0  0  0  0  0  0  0  0  0
   38.4080   37.1880   66.0150 C   0  0  0  0  0  0  0  0  0  0  0  0
   40.2550   38.3140   67.4950 O   0  0  0  0  0  0  0  0  0  0  0  0
   41.3726   31.8477   63.4577 H   0  0  0  0  0  0  0  0  0  0  0  0
   40.6233   31.3363   61.9074 H   0  0  0  0  0  0  0  0  0  0  0  0
   42.2350   32.1293   61.9074 H   0  0  0  0  0  0  0  0  0  0  0  0
   38.0396   33.4700   62.0311 H   0  0  0  0  0  0  0  0  0  0  0  0
   40.1565   32.4045   60.7711 H   0  0  0  0  0  0  0  0  0  0  0  0
   38.2850   32.0635   61.4129 H   0  0  0  0  0  0  0  0  0  0  0  0
   39.3240   31.8600   59.1930 H   0  0  0  0  0  0  0  0  0  0  0  0
   36.8495   31.2614   59.5490 H   0  0  0  0  0  0  0  0  0  0  0  0
   37.6437   31.6613   57.8408 H   0  0  0  0  0  0  0  0  0  0  0  0
   39.2190   29.7347   59.1962 H   0  0  0  0  0  0  0  0  0  0  0  0
   37.5300   29.1465   59.1294 H   0  0  0  0  0  0  0  0  0  0  0  0
   37.3950   29.9159   56.8640 H   0  0  0  0  0  0  0  0  0  0  0  0
   38.0375   31.1251   55.8942 H   0  0  0  0  0  0  0  0  0  0  0  0
   39.8494   30.6834   56.5567 H   0  0  0  0  0  0  0  0  0  0  0  0
   40.0775   31.0213   54.4630 H   0  0  0  0  0  0  0  0  0  0  0  0
   40.4272   29.0242   53.0988 H   0  0  0  0  0  0  0  0  0  0  0  0
   40.6122   30.9692   52.0893 H   0  0  0  0  0  0  0  0  0  0  0  0
   40.8356   29.6339   50.9087 H   0  0  0  0  0  0  0  0  0  0  0  0
   39.3133   30.5874   50.9087 H   0  0  0  0  0  0  0  0  0  0  0  0
   36.9149   28.4854   56.6181 H   0  0  0  0  0  0  0  0  0  0  0  0
   38.6009   27.8245   57.4591 H   0  0  0  0  0  0  0  0  0  0  0  0
   37.4148   25.8427   54.5639 H   0  0  0  0  0  0  0  0  0  0  0  0
   37.4840   23.8606   56.5556 H   0  0  0  0  0  0  0  0  0  0  0  0
   36.6007   24.0456   55.0025 H   0  0  0  0  0  0  0  0  0  0  0  0
   38.3864   23.8511   55.0025 H   0  0  0  0  0  0  0  0  0  0  0  0
   40.3119   25.4398   55.7820 H   0  0  0  0  0  0  0  0  0  0  0  0
   40.7358   26.0035   53.5673 H   0  0  0  0  0  0  0  0  0  0  0  0
   39.2694   24.9933   53.3308 H   0  0  0  0  0  0  0  0  0  0  0  0
   39.1356   26.7846   53.3308 H   0  0  0  0  0  0  0  0  0  0  0  0
   39.0725   34.3759   58.7825 H   0  0  0  0  0  0  0  0  0  0  0  0
   37.9289   33.5219   57.6715 H   0  0  0  0  0  0  0  0  0  0  0  0
   36.8735   35.4738   58.9757 H   0  0  0  0  0  0  0  0  0  0  0  0
   36.0505   33.8858   59.2022 H   0  0  0  0  0  0  0  0  0  0  0  0
   38.7177   36.1565   60.4794 H   0  0  0  0  0  0  0  0  0  0  0  0
   38.7569   35.6022   62.9398 H   0  0  0  0  0  0  0  0  0  0  0  0
   40.7666   36.1147   65.6290 H   0  0  0  0  0  0  0  0  0  0  0  0
   40.5210   33.6870   68.3070 H   0  0  0  0  0  0  0  0  0  0  0  0
   39.1794   34.6192   66.5063 H   0  0  0  0  0  0  0  0  0  0  0  0
   39.5595   35.7718   68.3938 H   0  0  0  0  0  0  0  0  0  0  0  0
   41.2438   36.2327   67.6937 H   0  0  0  0  0  0  0  0  0  0  0  0
   39.7977   37.5760   65.9505 H   0  0  0  0  0  0  0  0  0  0  0  0
   37.4891   37.1671   66.6193 H   0  0  0  0  0  0  0  0  0  0  0  0
   38.4091   38.0864   65.3803 H   0  0  0  0  0  0  0  0  0  0  0  0
   38.4499   36.2906   65.3803 H   0  0  0  0  0  0  0  0  0  0  0  0
   40.0760   39.0860   66.9020 H   0  0  0  0  0  0  0  0  0  0  0  0
  1  2  1  0
  2  3  1  0
  3  4  1  0
  4  5  1  0
  5  6  1  0
  6  7  1  0
  7  8  1  0
  8  9  1  0
  9 10  1  0
 10 11  2  0
 11 12  1  0
 12 13  1  0
 12 14  1  0
 14 15  2  0
 14 16  1  0
 11 17  1  0
 18 17  1  6
 18 19  1  0
 18 20  1  0
 20 21  1  0
 20 22  1  0
 22 23  1  0
  5 24  1  0
 24 25  1  0
 25 26  1  0
 26 27  1  0
 27 28  1  0
 28 29  2  0
 28 30  1  0
 30 31  1  0
 31 32  3  0
 27 33  1  0
 33 34  1  0
 34 35  2  0
 34 36  1  0
 36 37  2  0
 36 38  1  0
 38 39  1  0
 39 40  1  0
 40 41  2  0
 40 42  1  0
 42 43  1  0
 43 44  1  0
 44 45  1  0
 45 46  1  0
 45 47  1  0
 33  3  1  0
 43 38  1  0
 19  8  1  0
 22 18  1  0
  1 48  1  0
  1 49  1  0
  1 50  1  0
  3 51  1  1
  4 52  1  0
  4 53  1  0
  5 54  1  6
  6 55  1  0
  6 56  1  0
  7 57  1  0
  7 58  1  0
  8 59  1  1
  9 60  1  0
  9 61  1  0
 10 62  1  0
 12 63  1  1
 13 64  1  0
 13 65  1  0
 13 66  1  0
 19 67  1  0
 19 68  1  0
 20 69  1  0
 21 70  1  0
 21 71  1  0
 21 72  1  0
 22 73  1  1
 23 74  1  0
 23 75  1  0
 23 76  1  0
 24 77  1  0
 24 78  1  0
 25 79  1  0
 25 80  1  0
 27 81  1  6
 33 82  1  1
 38 83  1  1
 42 84  1  0
 43 85  1  6
 44 86  1  0
 44 87  1  0
 45 88  1  6
 46 89  1  0
 46 90  1  0
 46 91  1  0
 47 92  1  0
M  CHG  3   5   1  16  -1  30  -1
M  END

>  <ID>
DiffSBDD_7_num_sample_50

>  <docking_score>
-11.752

$$$$
DiffSBDD_8_num_sample_50
     RDKit          3D

 69 73  0  0  0  0  0  0  0  0999 V2000
   37.9250   32.6130   54.5130 O   0  0  0  0  0  0  0  0  0  0  0  0
   38.4140   32.1890   55.5390 C   0  0  0  0  0  0  0  0  0  0  0  0
   38.5580   33.0870   56.8130 C   0  0  0  0  0  0  0  0  0  0  0  0
   37.8710   32.8620   58.0450 N   0  0  0  0  0  0  0  0  0  0  0  0
   38.6130   32.6350   59.3390 C   0  0  0  0  0  0  0  0  0  0  0  0
   38.3900   33.9320   60.2950 C   0  0  2  0  0  0  0  0  0  0  0  0
   37.1010   34.7820   59.8300 C   0  0  0  0  0  0  0  0  0  0  0  0
   37.1690   36.2630   59.6570 C   0  0  0  0  0  0  0  0  0  0  0  0
   36.9640   36.9600   61.0060 C   0  0  2  0  0  0  0  0  0  0  0  0
   36.3860   38.0410   60.9850 O   0  0  0  0  0  0  0  0  0  0  0  0
   38.3860   37.2270   61.4550 N   0  0  0  0  0  0  0  0  0  0  0  0
   39.3480   36.3520   61.7790 C   0  0  0  0  0  0  0  0  0  0  0  0
   40.3160   36.7120   62.7030 C   0  0  0  0  0  0  0  0  0  0  0  0
   41.2650   35.9100   62.9850 C   0  0  0  0  0  0  0  0  0  0  0  0
   41.0880   34.7360   62.3850 C   0  0  0  0  0  0  0  0  0  0  0  0
   40.2670   34.1890   61.6420 N   0  0  0  0  0  0  0  0  0  0  0  0
   39.2740   34.9620   61.1980 C   0  0  0  0  0  0  0  0  0  0  0  0
   38.8790   30.8040   55.4770 N   0  0  0  0  0  0  0  0  0  0  0  0
   39.5630   29.9040   54.6880 C   0  0  0  0  0  0  0  0  0  0  0  0
   39.4730   29.3010   53.3220 C   0  0  0  0  0  0  0  0  0  0  0  0
   39.0770   27.9750   53.1070 C   0  0  0  0  0  0  0  0  0  0  0  0
   39.1080   27.4690   51.7740 C   0  0  0  0  0  0  0  0  0  0  0  0
   39.4740   28.2260   50.7150 C   0  0  0  0  0  0  0  0  0  0  0  0
   39.8540   29.5620   50.9940 C   0  0  0  0  0  0  0  0  0  0  0  0
   40.3060   30.4510   49.7690 C   0  0  0  0  0  0  0  0  0  0  0  0
   39.4680   31.4890   49.5210 O   0  0  0  0  0  0  0  0  0  0  0  0
   39.9240   30.0750   52.2080 C   0  0  0  0  0  0  0  0  0  0  0  0
   38.2410   30.0070   56.2370 N   0  0  0  0  0  0  0  0  0  0  0  0
   37.0760   29.7060   56.1340 C   0  0  0  0  0  0  0  0  0  0  0  0
   38.1440   29.0450   56.7760 C   0  0  2  0  0  0  0  0  0  0  0  0
   38.6820   28.8370   58.0650 C   0  0  0  0  0  0  0  0  0  0  0  0
   40.0380   28.4950   58.0380 C   0  0  0  0  0  0  0  0  0  0  0  0
   40.8500   28.3810   59.1820 C   0  0  0  0  0  0  0  0  0  0  0  0
   40.2150   28.6230   60.3850 C   0  0  0  0  0  0  0  0  0  0  0  0
   40.9200   28.2660   61.5190 F   0  0  0  0  0  0  0  0  0  0  0  0
   38.8840   29.0550   60.4340 C   0  0  0  0  0  0  0  0  0  0  0  0
   38.1350   29.1560   59.2370 C   0  0  0  0  0  0  0  0  0  0  0  0
   39.6287   33.0728   57.0650 H   0  0  0  0  0  0  0  0  0  0  0  0
   38.0628   34.0073   56.4696 H   0  0  0  0  0  0  0  0  0  0  0  0
   37.2700   33.6840   58.1970 H   0  0  0  0  0  0  0  0  0  0  0  0
   38.2234   31.7351   59.8374 H   0  0  0  0  0  0  0  0  0  0  0  0
   39.6854   32.4935   59.1392 H   0  0  0  0  0  0  0  0  0  0  0  0
   38.6546   33.1349   61.0053 H   0  0  0  0  0  0  0  0  0  0  0  0
   36.7899   34.3693   58.8590 H   0  0  0  0  0  0  0  0  0  0  0  0
   36.4217   34.6734   60.6883 H   0  0  0  0  0  0  0  0  0  0  0  0
   38.1541   36.5372   59.2517 H   0  0  0  0  0  0  0  0  0  0  0  0
   36.3772   36.5814   58.9629 H   0  0  0  0  0  0  0  0  0  0  0  0
   36.3297   36.3235   61.6405 H   0  0  0  0  0  0  0  0  0  0  0  0
   35.9980   38.1910   60.0870 H   0  0  0  0  0  0  0  0  0  0  0  0
   38.6500   38.2200   61.5200 H   0  0  0  0  0  0  0  0  0  0  0  0
   40.2648   37.6944   63.1951 H   0  0  0  0  0  0  0  0  0  0  0  0
   42.1163   36.1554   63.6370 H   0  0  0  0  0  0  0  0  0  0  0  0
   41.9163   34.0512   62.6195 H   0  0  0  0  0  0  0  0  0  0  0  0
   40.5702   30.3459   54.6695 H   0  0  0  0  0  0  0  0  0  0  0  0
   39.0842   29.0359   55.1646 H   0  0  0  0  0  0  0  0  0  0  0  0
   38.7507   27.3405   53.9442 H   0  0  0  0  0  0  0  0  0  0  0  0
   38.8228   26.4209   51.6004 H   0  0  0  0  0  0  0  0  0  0  0  0
   39.4766   27.8255   49.6905 H   0  0  0  0  0  0  0  0  0  0  0  0
   41.3075   30.8537   49.9806 H   0  0  0  0  0  0  0  0  0  0  0  0
   40.2983   29.8060   48.8780 H   0  0  0  0  0  0  0  0  0  0  0  0
   39.1740   31.4580   48.5760 H   0  0  0  0  0  0  0  0  0  0  0  0
   40.3252   31.0877   52.3610 H   0  0  0  0  0  0  0  0  0  0  0  0
   36.2927   30.2264   56.7046 H   0  0  0  0  0  0  0  0  0  0  0  0
   36.3281   29.5180   55.3495 H   0  0  0  0  0  0  0  0  0  0  0  0
   38.4031   27.9763   56.8023 H   0  0  0  0  0  0  0  0  0  0  0  0
   40.5001   28.3025   57.0585 H   0  0  0  0  0  0  0  0  0  0  0  0
   41.9163   28.1175   59.1224 H   0  0  0  0  0  0  0  0  0  0  0  0
   38.4225   29.3147   61.3981 H   0  0  0  0  0  0  0  0  0  0  0  0
   37.0913   29.5012   59.2750 H   0  0  0  0  0  0  0  0  0  0  0  0
  1  2  2  0
  2  3  1  0
  3  4  1  0
  4  5  1  0
  5  6  1  0
  6  7  1  0
  7  8  1  0
  8  9  1  0
  9 10  1  0
  9 11  1  0
 11 12  1  0
 12 13  2  0
 13 14  1  0
 14 15  2  0
 15 16  1  0
 16 17  2  0
  2 18  1  0
 18 19  1  0
 19 20  1  0
 20 21  2  0
 21 22  1  0
 22 23  2  0
 23 24  1  0
 24 25  1  0
 25 26  1  0
 24 27  2  0
 18 28  1  0
 28 29  1  0
 29 30  1  0
 30 31  1  0
 31 32  2  0
 32 33  1  0
 33 34  2  0
 34 35  1  0
 34 36  1  0
 36 37  2  0
 17  6  1  0
 27 20  1  0
 30 28  1  0
 37 31  1  0
 17 12  1  0
  3 38  1  0
  3 39  1  0
  4 40  1  0
  5 41  1  0
  5 42  1  0
  6 43  1  1
  7 44  1  0
  7 45  1  0
  8 46  1  0
  8 47  1  0
  9 48  1  1
 10 49  1  0
 11 50  1  0
 13 51  1  0
 14 52  1  0
 15 53  1  0
 19 54  1  0
 19 55  1  0
 21 56  1  0
 22 57  1  0
 23 58  1  0
 25 59  1  0
 25 60  1  0
 26 61  1  0
 27 62  1  0
 29 63  1  0
 29 64  1  0
 30 65  1  6
 32 66  1  0
 33 67  1  0
 36 68  1  0
 37 69  1  0
M  END

>  <ID>
DiffSBDD_8_num_sample_50

>  <docking_score>
-11.305

$$$$
DiffSBDD_9_num_sample_50
     RDKit          3D

 72 73  0  0  0  0  0  0  0  0999 V2000
   35.0680   32.8070   61.4070 C   0  0  0  0  0  0  0  0  0  0  0  0
   36.0360   33.9910   61.5220 C   0  0  0  0  0  0  0  0  0  0  0  0
   37.1550   33.7650   60.4910 C   0  0  1  0  0  0  0  0  0  0  0  0
   37.2490   35.0890   59.6380 C   0  0  0  0  0  0  0  0  0  0  0  0
   38.3870   34.3750   60.1920 C   0  0  2  0  0  0  0  0  0  0  0  0
   39.1210   33.2010   59.5510 C   0  0  0  0  0  0  0  0  0  0  0  0
   38.0330   32.2890   58.8830 C   0  0  2  0  0  0  0  0  0  0  0  0
   37.9550   30.7590   59.4360 C   0  0  0  0  0  0  0  0  0  0  0  0
   39.0960   29.8610   59.1300 O   0  0  0  0  0  0  0  0  0  0  0  0
   39.8340   28.5840   59.3190 P   0  0  2  0  0  5  0  0  0  0  0  0
   39.0690   28.2580   60.4120 O   0  0  0  0  0  0  0  0  0  0  0  0
   40.9710   29.0740   59.5380 O   0  0  0  0  0  0  0  0  0  0  0  0
   40.4430   27.2190   58.4340 O   0  0  0  0  0  0  0  0  0  0  0  0
   39.8020   26.0000   58.2630 C   0  0  0  0  0  0  0  0  0  0  0  0
   38.2140   26.2330   57.8690 C   0  0  0  0  0  0  0  0  0  0  0  0
   38.1710   25.0400   56.8310 C   0  0  0  0  0  0  0  0  0  0  0  0
   38.3480   24.0310   57.4870 O   0  0  0  0  0  0  0  0  0  0  0  0
   38.2060   25.2490   55.7240 N   0  0  0  0  0  0  0  0  0  0  0  0
   38.5660   25.5740   54.8590 C   0  0  0  0  0  0  0  0  0  0  0  0
   39.5650   26.4070   54.4390 C   0  0  2  0  0  0  0  0  0  0  0  0
   39.6480   27.2790   54.7750 C   0  0  0  0  0  0  0  0  0  0  0  0
   39.1880   27.2740   53.1460 C   0  0  0  0  0  0  0  0  0  0  0  0
   38.0590   27.7890   52.4800 C   0  0  1  0  0  0  0  0  0  0  0  0
   37.7330   28.3760   52.1070 O   0  0  0  0  0  0  0  0  0  0  0  0
   39.2340   27.7320   51.4890 C   0  0  0  0  0  0  0  0  0  0  0  0
   39.8400   27.8600   50.7860 C   0  0  0  0  0  0  0  0  0  0  0  0
   39.3690   29.1220   51.4590 C   0  0  0  0  0  0  0  0  0  0  0  0
   38.3970   32.4430   57.3710 C   0  0  0  0  0  0  0  0  0  0  0  0
   38.0240   33.4330   56.8520 O   0  0  0  0  0  0  0  0  0  0  0  0
   39.0380   31.4590   56.6350 N   0  0  0  0  0  0  0  0  0  0  0  0
   38.6240   30.9960   55.4530 C   0  0  0  0  0  0  0  0  0  0  0  0
   39.1340   30.8790   54.4150 O   0  0  0  0  0  0  0  0  0  0  0  0
   37.2460   30.3480   55.6510 C   0  0  0  0  0  0  0  0  0  0  0  0
   36.6990   30.1380   54.5040 F   0  0  0  0  0  0  0  0  0  0  0  0
   37.5490   29.2620   56.3840 F   0  0  0  0  0  0  0  0  0  0  0  0
   36.8430   32.8200   59.5190 O   0  0  0  0  0  0  0  0  0  0  0  0
   34.7874   32.4637   62.4137 H   0  0  0  0  0  0  0  0  0  0  0  0
   34.1658   33.1225   60.8624 H   0  0  0  0  0  0  0  0  0  0  0  0
   35.5565   31.9855   60.8624 H   0  0  0  0  0  0  0  0  0  0  0  0
   35.5084   34.9316   61.3056 H   0  0  0  0  0  0  0  0  0  0  0  0
   36.4498   34.0599   62.5389 H   0  0  0  0  0  0  0  0  0  0  0  0
   37.0493   35.0772   58.5564 H   0  0  0  0  0  0  0  0  0  0  0  0
   36.8373   36.1080   59.6847 H   0  0  0  0  0  0  0  0  0  0  0  0
   39.2525   34.8980   60.6247 H   0  0  0  0  0  0  0  0  0  0  0  0
   39.8264   33.5665   58.7902 H   0  0  0  0  0  0  0  0  0  0  0  0
   39.6958   32.6400   60.3026 H   0  0  0  0  0  0  0  0  0  0  0  0
   37.8592   30.8088   60.5307 H   0  0  0  0  0  0  0  0  0  0  0  0
   37.0986   30.3137   58.9086 H   0  0  0  0  0  0  0  0  0  0  0  0
   40.2972   25.4404   57.4557 H   0  0  0  0  0  0  0  0  0  0  0  0
   39.8562   25.4338   59.2045 H   0  0  0  0  0  0  0  0  0  0  0  0
   37.5325   26.0892   58.7204 H   0  0  0  0  0  0  0  0  0  0  0  0
   37.9084   27.2312   57.5224 H   0  0  0  0  0  0  0  0  0  0  0  0
   37.3000   24.8620   55.4250 H   0  0  0  0  0  0  0  0  0  0  0  0
   38.8152   24.6346   54.3438 H   0  0  0  0  0  0  0  0  0  0  0  0
   37.7789   26.3317   54.7311 H   0  0  0  0  0  0  0  0  0  0  0  0
   40.3450   25.6416   54.5650 H   0  0  0  0  0  0  0  0  0  0  0  0
   39.6452   27.2500   55.8746 H   0  0  0  0  0  0  0  0  0  0  0  0
   40.5921   27.7196   54.4222 H   0  0  0  0  0  0  0  0  0  0  0  0
   38.8039   27.8898   54.4222 H   0  0  0  0  0  0  0  0  0  0  0  0
   39.7714   28.1897   53.3222 H   0  0  0  0  0  0  0  0  0  0  0  0
   39.2360   26.3960   52.4851 H   0  0  0  0  0  0  0  0  0  0  0  0
   37.1397   27.4978   53.0093 H   0  0  0  0  0  0  0  0  0  0  0  0
   37.9290   29.2200   52.5840 H   0  0  0  0  0  0  0  0  0  0  0  0
   39.2531   26.6387   51.6083 H   0  0  0  0  0  0  0  0  0  0  0  0
   40.8385   28.0709   51.1965 H   0  0  0  0  0  0  0  0  0  0  0  0
   39.8821   26.9509   50.1681 H   0  0  0  0  0  0  0  0  0  0  0  0
   39.5109   28.7084   50.1681 H   0  0  0  0  0  0  0  0  0  0  0  0
   39.4066   29.5090   52.4880 H   0  0  0  0  0  0  0  0  0  0  0  0
   40.2973   29.3890   50.9327 H   0  0  0  0  0  0  0  0  0  0  0  0
   38.5094   29.5626   50.9327 H   0  0  0  0  0  0  0  0  0  0  0  0
   39.9000   31.0550   57.0290 H   0  0  0  0  0  0  0  0  0  0  0  0
   36.4832   30.9475   56.1694 H   0  0  0  0  0  0  0  0  0  0  0  0
  1  2  1  0
  3  2  1  1
  3  4  1  0
  4  5  1  0
  5  6  1  0
  6  7  1  0
  7  8  1  1
  8  9  1  0
  9 10  1  0
 10 11  2  0
 10 12  1  1
 10 13  1  0
 13 14  1  0
 14 15  1  0
 15 16  1  0
 16 17  2  0
 16 18  1  0
 18 19  1  0
 19 20  1  0
 20 21  1  0
 20 22  1  0
 22 23  1  0
 23 24  1  0
 23 25  1  0
 25 26  1  0
 25 27  1  0
  7 28  1  0
 28 29  2  0
 28 30  1  0
 30 31  1  0
 31 32  2  0
 31 33  1  0
 33 34  1  0
 33 35  1  0
  7 36  1  0
  5  3  1  0
 36  3  1  0
  1 37  1  0
  1 38  1  0
  1 39  1  0
  2 40  1  0
  2 41  1  0
  4 42  1  0
  4 43  1  0
  5 44  1  1
  6 45  1  0
  6 46  1  0
  8 47  1  0
  8 48  1  0
 14 49  1  0
 14 50  1  0
 15 51  1  0
 15 52  1  0
 18 53  1  0
 19 54  1  0
 19 55  1  0
 20 56  1  6
 21 57  1  0
 21 58  1  0
 21 59  1  0
 22 60  1  0
 22 61  1  0
 23 62  1  6
 24 63  1  0
 25 64  1  0
 26 65  1  0
 26 66  1  0
 26 67  1  0
 27 68  1  0
 27 69  1  0
 27 70  1  0
 30 71  1  0
 33 72  1  0
M  CHG  1  12  -1
M  END

>  <ID>
DiffSBDD_9_num_sample_50

>  <docking_score>
-8.604

$$$$
